# Generated by pormake.
# Topology ftb, (5)-cn, num edge types: 1
# Building blocks:
#     Node 0, Type 0, BuildingBlock: BEQFEK_clean_sbu_0, # of connection points: 5
#     Node 1, Type 0, BuildingBlock: BEQFEK_clean_sbu_0, # of connection points: 5
#     Node 2, Type 0, BuildingBlock: BEQFEK_clean_sbu_0, # of connection points: 5
#     Node 3, Type 0, BuildingBlock: BEQFEK_clean_sbu_0, # of connection points: 5
#     Node 4, Type 0, BuildingBlock: BEQFEK_clean_sbu_0, # of connection points: 5
#     Node 5, Type 0, BuildingBlock: BEQFEK_clean_sbu_0, # of connection points: 5
#     Node 6, Type 0, BuildingBlock: BEQFEK_clean_sbu_0, # of connection points: 5
#     Node 7, Type 0, BuildingBlock: BEQFEK_clean_sbu_0, # of connection points: 5
#     Edge 8, Type (0, 0), BuildingBlock: KIFKEQ_clean_linker_1, # of connection points: 2
#     Edge 9, Type (0, 0), BuildingBlock: KIFKEQ_clean_linker_1, # of connection points: 2
#     Edge 10, Type (0, 0), BuildingBlock: KIFKEQ_clean_linker_1, # of connection points: 2
#     Edge 11, Type (0, 0), BuildingBlock: KIFKEQ_clean_linker_1, # of connection points: 2
#     Edge 12, Type (0, 0), BuildingBlock: KIFKEQ_clean_linker_1, # of connection points: 2
#     Edge 13, Type (0, 0), BuildingBlock: KIFKEQ_clean_linker_1, # of connection points: 2
#     Edge 14, Type (0, 0), BuildingBlock: KIFKEQ_clean_linker_1, # of connection points: 2
#     Edge 15, Type (0, 0), BuildingBlock: KIFKEQ_clean_linker_1, # of connection points: 2
#     Edge 16, Type (0, 0), BuildingBlock: KIFKEQ_clean_linker_1, # of connection points: 2
#     Edge 17, Type (0, 0), BuildingBlock: KIFKEQ_clean_linker_1, # of connection points: 2
#     Edge 18, Type (0, 0), BuildingBlock: KIFKEQ_clean_linker_1, # of connection points: 2
#     Edge 19, Type (0, 0), BuildingBlock: KIFKEQ_clean_linker_1, # of connection points: 2
#     Edge 20, Type (0, 0), BuildingBlock: KIFKEQ_clean_linker_1, # of connection points: 2
#     Edge 21, Type (0, 0), BuildingBlock: KIFKEQ_clean_linker_1, # of connection points: 2
#     Edge 22, Type (0, 0), BuildingBlock: KIFKEQ_clean_linker_1, # of connection points: 2
#     Edge 23, Type (0, 0), BuildingBlock: KIFKEQ_clean_linker_1, # of connection points: 2
#     Edge 24, Type (0, 0), BuildingBlock: KIFKEQ_clean_linker_1, # of connection points: 2
#     Edge 25, Type (0, 0), BuildingBlock: KIFKEQ_clean_linker_1, # of connection points: 2
#     Edge 26, Type (0, 0), BuildingBlock: KIFKEQ_clean_linker_1, # of connection points: 2
#     Edge 27, Type (0, 0), BuildingBlock: KIFKEQ_clean_linker_1, # of connection points: 2
# Relax obj value: 0.132
# Max RMSD: 0.202
# Mean RMSD: 0.202
data_MOF--net-ftb--node1-BEQFEK_clean_sbu_0--edge1-KIFKEQ_clean_linker_1
_symmetry_space_group_name_H-M    P1
_symmetry_Int_Tables_number       1
_symmetry_cell_setting            triclinic
loop_
_symmetry_equiv_pos_as_xyz
'x, y, z'
_cell_length_a     56.999097
_cell_length_b     15.552966
_cell_length_c     36.414286
_cell_angle_alpha  89.953129
_cell_angle_beta   93.106562
_cell_angle_gamma 89.944619
loop_
_atom_site_label
_atom_site_type_symbol
_atom_site_fract_x
_atom_site_fract_y
_atom_site_fract_z
_atom_type_partial_charge
Co0 Co 0.34765 0.05778 0.10504 0.0
Co1 Co 0.34974 0.99576 0.02301 0.0
C2 C 0.34224 0.87222 0.08405 0.0
O3 O 0.34369 0.93178 0.10812 0.0
O4 O 0.34495 0.88779 0.05014 0.0
C5 C 0.35634 0.06907 0.18443 0.0
O6 O 0.36249 0.98775 0.18314 0.0
C7 C 0.35752 0.90144 0.95415 0.0
C8 C 0.35768 0.0088 0.91435 0.0
C9 C 0.35949 0.92022 0.91714 0.0
N10 N 0.35452 0.97563 0.97227 0.0
N11 N 0.35464 0.03944 0.94829 0.0
C12 C 0.3598 0.81552 0.97247 0.0
H13 H 0.36948 0.82208 0.99958 0.0
H14 H 0.36921 0.76914 0.95538 0.0
H15 H 0.342 0.79026 0.97706 0.0
C16 C 0.39401 0.12728 0.08923 0.0
N17 N 0.37379 0.08801 0.07851 0.0
N18 N 0.37524 0.05907 0.0448 0.0
C19 C 0.39681 0.07658 0.03336 0.0
C20 C 0.40938 0.12105 0.06107 0.0
C21 C 0.3986 0.16784 0.12619 0.0
H22 H 0.38312 0.20637 0.13334 0.0
H23 H 0.40139 0.11663 0.14721 0.0
H24 H 0.41427 0.21018 0.12666 0.0
O25 O 0.31828 0.10123 0.08156 0.0
O26 O 0.31932 0.05778 0.02372 0.0
H27 H 0.40064 0.08156 0.97535 0.0
H28 H 0.42568 0.03628 0.00088 0.0
C29 C 0.40623 0.04008 0.99904 0.0
H30 H 0.39914 0.97458 0.99403 0.0
H31 H 0.35257 0.10404 0.95514 0.0
O32 O 0.34999 0.10815 0.15488 0.0
C33 C 0.30878 0.09473 0.04929 0.0
Co34 Co 0.64772 0.07353 0.01815 0.0
Co35 Co 0.6461 0.00438 0.09936 0.0
C36 C 0.66094 0.89154 0.039 0.0
O37 O 0.65787 0.95186 0.01546 0.0
O38 O 0.65595 0.90162 0.07247 0.0
C39 C 0.63924 0.08132 0.93868 0.0
O40 O 0.63772 0.9971 0.93994 0.0
C41 C 0.63899 0.90585 0.16778 0.0
C42 C 0.63669 0.01253 0.2075 0.0
C43 C 0.63607 0.92376 0.20468 0.0
N44 N 0.6413 0.98081 0.14984 0.0
N45 N 0.63995 0.04413 0.1738 0.0
C46 C 0.63809 0.82001 0.14928 0.0
H47 H 0.63012 0.82634 0.12093 0.0
H48 H 0.62779 0.77335 0.16491 0.0
H49 H 0.65626 0.79524 0.14751 0.0
C50 C 0.59904 0.12142 0.03257 0.0
N51 N 0.61997 0.08691 0.04326 0.0
N52 N 0.61886 0.05509 0.07656 0.0
C53 C 0.59692 0.06603 0.08779 0.0
C54 C 0.58368 0.10916 0.06038 0.0
C55 C 0.59424 0.16746 0.99682 0.0
H56 H 0.60913 0.21067 0.99146 0.0
H57 H 0.59257 0.11965 0.97423 0.0
H58 H 0.5779 0.20624 0.99697 0.0
O59 O 0.67415 0.13374 0.04328 0.0
O60 O 0.67366 0.08207 0.10002 0.0
H61 H 0.59317 0.07122 0.1458 0.0
H62 H 0.5689 0.02015 0.1206 0.0
C63 C 0.58826 0.02816 0.12237 0.0
H64 H 0.5965 0.96448 0.12767 0.0
H65 H 0.6412 0.10913 0.16705 0.0
O66 O 0.64349 0.12325 0.96822 0.0
C67 C 0.68307 0.12818 0.07598 0.0
Co68 Co 0.34316 0.54776 0.6083 0.0
Co69 Co 0.33826 0.4785 0.52686 0.0
C70 C 0.33329 0.36264 0.59178 0.0
O71 O 0.33711 0.42391 0.61453 0.0
O72 O 0.33402 0.37449 0.55716 0.0
C73 C 0.3532 0.56278 0.68695 0.0
O74 O 0.35174 0.47851 0.68735 0.0
C75 C 0.34459 0.38412 0.45652 0.0
C76 C 0.32901 0.47975 0.41739 0.0
C77 C 0.33915 0.39885 0.41931 0.0
N78 N 0.33795 0.45358 0.4755 0.0
N79 N 0.32876 0.51034 0.45182 0.0
C80 C 0.35469 0.30409 0.47387 0.0
H81 H 0.35066 0.30017 0.5032 0.0
H82 H 0.37407 0.30507 0.47228 0.0
H83 H 0.34778 0.24633 0.45905 0.0
C84 C 0.38933 0.59993 0.5833 0.0
N85 N 0.36769 0.5671 0.57659 0.0
N86 N 0.36564 0.53936 0.54247 0.0
C87 C 0.38588 0.55435 0.52618 0.0
C88 C 0.40159 0.59298 0.55152 0.0
C89 C 0.39877 0.62663 0.62074 0.0
H90 H 0.39554 0.57469 0.64074 0.0
H91 H 0.41785 0.64049 0.62146 0.0
H92 H 0.38921 0.68474 0.62941 0.0
O93 O 0.31311 0.59813 0.58914 0.0
O94 O 0.30973 0.54748 0.53226 0.0
H95 H 0.40718 0.55574 0.47864 0.0
H96 H 0.39073 0.45808 0.48546 0.0
C97 C 0.39034 0.5292 0.48751 0.0
H98 H 0.37588 0.55335 0.4687 0.0
H99 H 0.32204 0.56988 0.45928 0.0
O100 O 0.35045 0.60277 0.65657 0.0
C101 C 0.3016 0.59033 0.55839 0.0
Co102 Co 0.64204 0.57403 0.51915 0.0
Co103 Co 0.63797 0.51092 0.60095 0.0
C104 C 0.65203 0.39157 0.54196 0.0
O105 O 0.65013 0.45047 0.51759 0.0
O106 O 0.64699 0.4055 0.57513 0.0
C107 C 0.6375 0.58014 0.4391 0.0
O108 O 0.63644 0.49584 0.44045 0.0
C109 C 0.62987 0.41345 0.66899 0.0
C110 C 0.62696 0.51962 0.70877 0.0
C111 C 0.62691 0.43081 0.7059 0.0
N112 N 0.63181 0.48862 0.6511 0.0
N113 N 0.62999 0.55171 0.67506 0.0
C114 C 0.62964 0.3276 0.6505 0.0
H115 H 0.62111 0.33282 0.62249 0.0
H116 H 0.62012 0.27933 0.66649 0.0
H117 H 0.64801 0.30564 0.648 0.0
C118 C 0.59315 0.62485 0.52953 0.0
N119 N 0.61393 0.59332 0.54262 0.0
N120 N 0.61184 0.56489 0.57629 0.0
C121 C 0.58945 0.57556 0.58546 0.0
C122 C 0.57688 0.61441 0.55615 0.0
C123 C 0.58894 0.66215 0.49184 0.0
H124 H 0.6032 0.70799 0.48622 0.0
H125 H 0.58922 0.60974 0.4712 0.0
H126 H 0.57184 0.69626 0.48893 0.0
O127 O 0.66895 0.62916 0.54535 0.0
O128 O 0.66659 0.58326 0.6027 0.0
H129 H 0.58427 0.58147 0.64305 0.0
H130 H 0.56032 0.53172 0.61658 0.0
C131 C 0.57969 0.53858 0.61942 0.0
H132 H 0.58756 0.4745 0.62531 0.0
H133 H 0.63106 0.61681 0.6684 0.0
O134 O 0.63984 0.62281 0.46883 0.0
C135 C 0.67718 0.62482 0.57847 0.0
Co136 Co 0.8429 0.05901 0.61277 0.0
Co137 Co 0.84222 0.99573 0.53037 0.0
C138 C 0.83174 0.87675 0.59192 0.0
O139 O 0.83488 0.93577 0.61599 0.0
O140 O 0.83499 0.89052 0.558 0.0
C141 C 0.84977 0.06897 0.69265 0.0
O142 O 0.84781 0.98482 0.69235 0.0
C143 C 0.85158 0.90063 0.46211 0.0
C144 C 0.84427 0.0026 0.42072 0.0
C145 C 0.85121 0.91758 0.42459 0.0
N146 N 0.8452 0.97265 0.47945 0.0
N147 N 0.84071 0.03301 0.45449 0.0
C148 C 0.8591 0.81963 0.48153 0.0
H149 H 0.86664 0.83449 0.50954 0.0
H150 H 0.87219 0.78438 0.4658 0.0
H151 H 0.84352 0.77784 0.48425 0.0
C152 C 0.89111 0.10661 0.59533 0.0
N153 N 0.86959 0.07648 0.58526 0.0
N154 N 0.86929 0.05105 0.55081 0.0
C155 C 0.8906 0.06462 0.53772 0.0
C156 C 0.90514 0.10006 0.5655 0.0
C157 C 0.89859 0.13128 0.63393 0.0
H158 H 0.89427 0.07836 0.65285 0.0
H159 H 0.91768 0.1448 0.6372 0.0
H160 H 0.88863 0.18909 0.64186 0.0
O161 O 0.81456 0.1149 0.58989 0.0
O162 O 0.81413 0.06831 0.53233 0.0
H163 H 0.88448 0.07284 0.4794 0.0
H164 H 0.91501 0.06407 0.49396 0.0
C165 C 0.89706 0.04204 0.49959 0.0
H166 H 0.89591 0.97139 0.49582 0.0
H167 H 0.83542 0.0954 0.46061 0.0
O168 O 0.84821 0.11017 0.66245 0.0
C169 C 0.80483 0.1105 0.55763 0.0
Co170 Co 0.1446 0.07366 0.53744 0.0
Co171 Co 0.14085 0.00859 0.61906 0.0
C172 C 0.15216 0.88875 0.55846 0.0
O173 O 0.15063 0.94883 0.5346 0.0
O174 O 0.14806 0.90248 0.59205 0.0
C175 C 0.13861 0.08314 0.45774 0.0
O176 O 0.1343 0.00026 0.45904 0.0
C177 C 0.1356 0.91007 0.68763 0.0
C178 C 0.12555 0.01271 0.72568 0.0
C179 C 0.1299 0.92537 0.72359 0.0
N180 N 0.13461 0.98508 0.66921 0.0
N181 N 0.12874 0.04618 0.69222 0.0
C182 C 0.14098 0.82541 0.67054 0.0
H183 H 0.15961 0.82493 0.66317 0.0
H184 H 0.1298 0.81718 0.6449 0.0
H185 H 0.13782 0.77091 0.6893 0.0
C186 C 0.09683 0.13319 0.5494 0.0
N187 N 0.11727 0.09795 0.56193 0.0
N188 N 0.11502 0.06753 0.59526 0.0
C189 C 0.09267 0.07983 0.60451 0.0
C190 C 0.08051 0.12268 0.57588 0.0
C191 C 0.09287 0.17275 0.5121 0.0
H192 H 0.10778 0.21563 0.50643 0.0
H193 H 0.09203 0.12117 0.49104 0.0
H194 H 0.07632 0.21052 0.50997 0.0
O195 O 0.17239 0.1221 0.56327 0.0
O196 O 0.17053 0.07598 0.62068 0.0
H197 H 0.08423 0.08309 0.66094 0.0
H198 H 0.06315 0.02615 0.63167 0.0
C199 C 0.08217 0.03898 0.63708 0.0
H200 H 0.09114 0.97741 0.64406 0.0
H201 H 0.12693 0.11092 0.68504 0.0
O202 O 0.14301 0.12425 0.48747 0.0
C203 C 0.18115 0.11607 0.59603 0.0
Co204 Co 0.85108 0.57159 0.11101 0.0
Co205 Co 0.85383 0.50687 0.02922 0.0
C206 C 0.83825 0.39152 0.08899 0.0
O207 O 0.84128 0.45012 0.11323 0.0
O208 O 0.84321 0.40404 0.05564 0.0
C209 C 0.85867 0.579 0.19067 0.0
O210 O 0.86279 0.49601 0.18902 0.0
C211 C 0.86054 0.40618 0.96139 0.0
C212 C 0.8648 0.51093 0.92127 0.0
C213 C 0.8638 0.42227 0.92443 0.0
N214 N 0.8595 0.48198 0.97904 0.0
N215 N 0.86208 0.54418 0.95485 0.0
C216 C 0.85964 0.32073 0.98012 0.0
H217 H 0.86809 0.32501 0.00821 0.0
H218 H 0.86862 0.27058 0.96436 0.0
H219 H 0.841 0.30202 0.98248 0.0
C220 C 0.90057 0.6132 0.09992 0.0
N221 N 0.87938 0.58472 0.08729 0.0
N222 N 0.88085 0.55615 0.0535 0.0
C223 C 0.90323 0.56415 0.04377 0.0
C224 C 0.91641 0.60099 0.07284 0.0
C225 C 0.90556 0.64995 0.13751 0.0
H226 H 0.89168 0.69692 0.14373 0.0
H227 H 0.90536 0.59741 0.15811 0.0
H228 H 0.92288 0.68254 0.13977 0.0
O229 O 0.82492 0.63161 0.08474 0.0
O230 O 0.82639 0.58549 0.02731 0.0
H231 H 0.90749 0.57165 0.98597 0.0
H232 H 0.93167 0.52012 0.01129 0.0
C233 C 0.91229 0.52779 0.00921 0.0
H234 H 0.90414 0.46427 0.0033 0.0
H235 H 0.86181 0.60953 0.96128 0.0
O236 O 0.85371 0.6206 0.1612 0.0
C237 C 0.81654 0.62926 0.05166 0.0
Co238 Co 0.1523 0.55019 0.03085 0.0
Co239 Co 0.1545 0.48248 0.1126 0.0
C240 C 0.15899 0.36312 0.04927 0.0
O241 O 0.15671 0.42475 0.02623 0.0
O242 O 0.15753 0.37567 0.08372 0.0
C243 C 0.13612 0.56962 0.95404 0.0
O244 O 0.12477 0.49704 0.95808 0.0
C245 C 0.14923 0.39088 0.18387 0.0
C246 C 0.15796 0.49755 0.22233 0.0
C247 C 0.15194 0.41137 0.22106 0.0
N248 N 0.15329 0.4623 0.16424 0.0
N249 N 0.15848 0.52553 0.18749 0.0
C250 C 0.14492 0.30415 0.16713 0.0
H251 H 0.15677 0.29429 0.1444 0.0
H252 H 0.12655 0.30101 0.15546 0.0
H253 H 0.14796 0.25189 0.18757 0.0
C254 C 0.10586 0.61155 0.05318 0.0
N255 N 0.12721 0.57667 0.06099 0.0
N256 N 0.12812 0.54732 0.09494 0.0
C257 C 0.10731 0.56151 0.10963 0.0
C258 C 0.09246 0.60232 0.08365 0.0
C259 C 0.09746 0.64165 0.01569 0.0
H260 H 0.09406 0.58496 0.99776 0.0
H261 H 0.08102 0.67951 0.01642 0.0
H262 H 0.11118 0.68168 0.00366 0.0
O263 O 0.18256 0.59499 0.05122 0.0
O264 O 0.18433 0.54452 0.10816 0.0
H265 H 0.08292 0.54718 0.15303 0.0
H266 H 0.10362 0.45971 0.14849 0.0
C267 C 0.1012 0.53043 0.14686 0.0
H268 H 0.11323 0.56044 0.16805 0.0
H269 H 0.16268 0.58783 0.17946 0.0
O270 O 0.14796 0.60175 0.98123 0.0
C271 C 0.19351 0.58513 0.0823 0.0
H272 H 0.37516 0.28573 0.40638 0.0
H273 H 0.30969 0.38663 0.35891 0.0
H274 H 0.38017 0.20175 0.35059 0.0
H275 H 0.31476 0.30361 0.30337 0.0
H276 H 0.34521 0.23705 0.19529 0.0
H277 H 0.34186 0.31162 0.25331 0.0
H278 H 0.36241 0.08033 0.31242 0.0
H279 H 0.36606 0.00509 0.25395 0.0
C280 C 0.36158 0.28847 0.3845 0.0
C281 C 0.3419 0.34215 0.38722 0.0
C282 C 0.36453 0.24079 0.35245 0.0
C283 C 0.34796 0.24671 0.32251 0.0
C284 C 0.32806 0.29889 0.3257 0.0
C285 C 0.32511 0.3462 0.35758 0.0
C286 C 0.34911 0.20186 0.22057 0.0
C287 C 0.3557 0.11481 0.21997 0.0
C288 C 0.34707 0.2446 0.25386 0.0
C289 C 0.35157 0.20149 0.28742 0.0
C290 C 0.35888 0.11518 0.28696 0.0
C291 C 0.36088 0.07211 0.2535 0.0
H292 H 0.65817 0.76886 0.21825 0.0
H293 H 0.60901 0.94718 0.26267 0.0
H294 H 0.65684 0.68086 0.27368 0.0
H295 H 0.60757 0.85932 0.31791 0.0
H296 H 0.63689 0.75335 0.4278 0.0
H297 H 0.63493 0.83002 0.36962 0.0
H298 H 0.63213 0.58848 0.31105 0.0
H299 H 0.63453 0.51106 0.36965 0.0
C300 C 0.64656 0.78794 0.23935 0.0
C301 C 0.63349 0.86444 0.23597 0.0
C302 C 0.64588 0.73773 0.27121 0.0
C303 C 0.63223 0.76342 0.30032 0.0
C304 C 0.61858 0.8385 0.29628 0.0
C305 C 0.61932 0.88861 0.26458 0.0
C306 C 0.63583 0.71633 0.40258 0.0
C307 C 0.6359 0.626 0.4034 0.0
C308 C 0.63452 0.7604 0.36917 0.0
C309 C 0.63321 0.71538 0.33567 0.0
C310 C 0.63327 0.62497 0.3364 0.0
C311 C 0.63454 0.58069 0.36995 0.0
H312 H 0.35679 0.73666 0.69507 0.0
H313 H 0.35789 0.49967 0.75724 0.0
H314 H 0.36037 0.81825 0.75194 0.0
H315 H 0.36209 0.58169 0.81437 0.0
H316 H 0.3372 0.76627 0.9048 0.0
H317 H 0.33815 0.67613 0.85018 0.0
H318 H 0.38689 0.85268 0.80338 0.0
H319 H 0.38566 0.94319 0.85795 0.0
C320 C 0.35804 0.70186 0.72089 0.0
C321 C 0.35692 0.61162 0.72161 0.0
C322 C 0.36028 0.74872 0.75354 0.0
C323 C 0.36154 0.70653 0.78774 0.0
C324 C 0.36089 0.61615 0.78848 0.0
C325 C 0.35861 0.56916 0.75574 0.0
C326 C 0.34859 0.78455 0.88328 0.0
C327 C 0.36165 0.861 0.88582 0.0
C328 C 0.34908 0.73304 0.85189 0.0
C329 C 0.36258 0.7572 0.82237 0.0
C330 C 0.37606 0.83281 0.82539 0.0
C331 C 0.37546 0.88442 0.85668 0.0
H332 H 0.65102 0.27948 0.71789 0.0
H333 H 0.60117 0.4495 0.76583 0.0
H334 H 0.65187 0.18992 0.77293 0.0
H335 H 0.60208 0.36016 0.821 0.0
H336 H 0.63657 0.25467 0.92849 0.0
H337 H 0.63157 0.33294 0.87084 0.0
H338 H 0.62853 0.09304 0.81109 0.0
H339 H 0.63388 0.01406 0.86909 0.0
C340 C 0.63969 0.29629 0.73967 0.0
C341 C 0.62572 0.3708 0.73729 0.0
C342 C 0.64028 0.2452 0.77133 0.0
C343 C 0.6271 0.26811 0.80136 0.0
C344 C 0.61267 0.34141 0.79852 0.0
C345 C 0.61207 0.39235 0.7669 0.0
C346 C 0.63482 0.21836 0.90312 0.0
C347 C 0.63571 0.12805 0.90339 0.0
C348 C 0.63174 0.26332 0.87006 0.0
C349 C 0.62954 0.21919 0.8364 0.0
C350 C 0.63034 0.12881 0.83659 0.0
C351 C 0.63331 0.08364 0.86979 0.0
H352 H 0.85216 0.00366 0.76278 0.0
H353 H 0.85612 0.24154 0.70199 0.0
H354 H 0.8578 0.08321 0.82044 0.0
H355 H 0.86125 0.3207 0.75933 0.0
H356 H 0.89052 0.43476 0.86531 0.0
H357 H 0.88918 0.34447 0.81052 0.0
H358 H 0.83633 0.18531 0.85731 0.0
H359 H 0.8378 0.27549 0.91213 0.0
C360 C 0.85424 0.07281 0.76169 0.0
C361 C 0.85363 0.11623 0.72777 0.0
C362 C 0.85737 0.1184 0.79473 0.0
C363 C 0.86004 0.2083 0.79452 0.0
C364 C 0.85964 0.25139 0.76054 0.0
C365 C 0.8565 0.20597 0.7276 0.0
C366 C 0.87884 0.37978 0.86404 0.0
C367 C 0.86454 0.36149 0.89325 0.0
C368 C 0.87798 0.32833 0.83259 0.0
C369 C 0.86257 0.25786 0.82943 0.0
C370 C 0.84867 0.23825 0.85908 0.0
C371 C 0.84959 0.28972 0.89063 0.0
H372 H 0.10191 0.55891 0.89852 0.0
H373 H 0.1677 0.68394 0.92942 0.0
H374 H 0.09968 0.63986 0.84052 0.0
H375 H 0.16564 0.76292 0.87136 0.0
H376 H 0.16445 0.81341 0.74612 0.0
H377 H 0.16557 0.72062 0.80062 0.0
H378 H 0.09655 0.80977 0.82593 0.0
H379 H 0.09561 0.90367 0.77166 0.0
C380 C 0.11596 0.60298 0.89277 0.0
C381 C 0.13495 0.61532 0.91845 0.0
C382 C 0.11463 0.64935 0.85975 0.0
C383 C 0.13254 0.70714 0.85159 0.0
C384 C 0.15172 0.71817 0.87695 0.0
C385 C 0.1528 0.67335 0.9102 0.0
C386 C 0.1494 0.81195 0.76304 0.0
C387 C 0.12983 0.86461 0.75465 0.0
C388 C 0.1501 0.75948 0.79423 0.0
C389 C 0.1311 0.75801 0.81723 0.0
C390 C 0.11129 0.80923 0.80835 0.0
C391 C 0.1108 0.863 0.77753 0.0
H392 H 0.87387 0.96018 0.36389 0.0
H393 H 0.83946 0.74747 0.41484 0.0
H394 H 0.87835 0.87416 0.30889 0.0
H395 H 0.84355 0.66133 0.35943 0.0
H396 H 0.86894 0.51259 0.25963 0.0
H397 H 0.87015 0.58968 0.31827 0.0
H398 H 0.85131 0.82492 0.26069 0.0
H399 H 0.85063 0.74905 0.20252 0.0
C400 C 0.86748 0.89457 0.36342 0.0
C401 C 0.85642 0.86039 0.39368 0.0
C402 C 0.86993 0.84542 0.33186 0.0
C403 C 0.86103 0.76122 0.32955 0.0
C404 C 0.8508 0.72567 0.36044 0.0
C405 C 0.84851 0.77489 0.39225 0.0
C406 C 0.86517 0.58086 0.25956 0.0
C407 C 0.85972 0.62466 0.22638 0.0
C408 C 0.86577 0.62489 0.29315 0.0
C409 C 0.86099 0.71357 0.29417 0.0
C410 C 0.85556 0.75703 0.26092 0.0
C411 C 0.85499 0.71325 0.2275 0.0
H412 H 0.1458 0.2541 0.44647 0.0
H413 H 0.1326 0.01534 0.38829 0.0
H414 H 0.14848 0.32891 0.38827 0.0
H415 H 0.13564 0.09067 0.32973 0.0
H416 H 0.11949 0.28518 0.23324 0.0
H417 H 0.11564 0.20203 0.28975 0.0
H418 H 0.17612 0.33305 0.33954 0.0
H419 H 0.17992 0.41548 0.28334 0.0
C420 C 0.14348 0.21745 0.42125 0.0
C421 C 0.13916 0.12855 0.42206 0.0
C422 C 0.14514 0.26035 0.38786 0.0
C423 C 0.14254 0.21552 0.3544 0.0
C424 C 0.13763 0.12698 0.35507 0.0
C425 C 0.13599 0.08385 0.3886 0.0
C426 C 0.13224 0.29458 0.256 0.0
C427 C 0.1502 0.35588 0.25377 0.0
C428 C 0.12998 0.24738 0.28839 0.0
C429 C 0.14549 0.26139 0.31917 0.0
C430 C 0.16364 0.32178 0.31655 0.0
C431 C 0.16589 0.3687 0.28431 0.0
H432 H 0.55969 0.1862 0.11403 0.0
H433 H 0.5508 0.07625 0.00536 0.0
H434 H 0.51711 0.20696 0.11509 0.0
H435 H 0.50845 0.09905 0.00595 0.0
H436 H 0.43427 0.20274 0.00969 0.0
H437 H 0.4771 0.21675 0.00922 0.0
H438 H 0.48411 0.09574 0.11606 0.0
H439 H 0.44158 0.07966 0.116 0.0
C440 C 0.54862 0.16747 0.09027 0.0
C441 C 0.55839 0.12948 0.05967 0.0
C442 C 0.52437 0.17959 0.09082 0.0
C443 C 0.5096 0.15483 0.06056 0.0
C444 C 0.51951 0.11997 0.02939 0.0
C445 C 0.5437 0.10692 0.02905 0.0
C446 C 0.44505 0.18023 0.03318 0.0
C447 C 0.43475 0.1403 0.06288 0.0
C448 C 0.46944 0.18824 0.03293 0.0
C449 C 0.48381 0.15737 0.06262 0.0
C450 C 0.47339 0.12123 0.09308 0.0
C451 C 0.44907 0.11223 0.09309 0.0
H452 H 0.42725 0.73834 0.56506 0.0
H453 H 0.43287 0.47355 0.53147 0.0
H454 H 0.46999 0.75445 0.56284 0.0
H455 H 0.47529 0.48883 0.52933 0.0
H456 H 0.54798 0.5549 0.5003 0.0
H457 H 0.50519 0.56079 0.49519 0.0
H458 H 0.50518 0.69916 0.5981 0.0
H459 H 0.5482 0.69589 0.60232 0.0
C460 C 0.4377 0.68401 0.55697 0.0
C461 C 0.42699 0.605 0.54818 0.0
C462 C 0.46204 0.693 0.5558 0.0
C463 C 0.47594 0.62302 0.54573 0.0
C464 C 0.46502 0.54441 0.53647 0.0
C465 C 0.44078 0.53551 0.53774 0.0
C466 C 0.53881 0.58838 0.52131 0.0
C467 C 0.55122 0.62518 0.55165 0.0
C468 C 0.51435 0.59096 0.51862 0.0
C469 C 0.50185 0.62982 0.54639 0.0
C470 C 0.51435 0.66945 0.57611 0.0
C471 C 0.53887 0.66706 0.57871 0.0
H472 H 0.05187 0.20042 0.6232 0.0
H473 H 0.05167 0.06884 0.51889 0.0
H474 H 0.0088 0.2033 0.61907 0.0
H475 H 0.00889 0.0741 0.51405 0.0
H476 H 0.93714 0.9804 0.54866 0.0
H477 H 0.97966 0.99655 0.54881 0.0
H478 H 0.97331 0.26109 0.58325 0.0
H479 H 0.93044 0.2443 0.58297 0.0
C480 C 0.04255 0.17379 0.59911 0.0
C481 C 0.0549 0.13468 0.57132 0.0
C482 C 0.01802 0.17585 0.59662 0.0
C483 C 0.00557 0.13838 0.56635 0.0
C484 C 0.01806 0.10256 0.53787 0.0
C485 C 0.04251 0.10045 0.54041 0.0
C486 C 0.94487 0.04218 0.55582 0.0
C487 C 0.93074 0.11143 0.56545 0.0
C488 C 0.96914 0.05158 0.55583 0.0
C489 C 0.97973 0.13038 0.56566 0.0
C490 C 0.96556 0.19964 0.57564 0.0
C491 C 0.94117 0.19021 0.57545 0.0
H492 H 0.94458 0.68652 0.02712 0.0
H493 H 0.94587 0.53498 0.1265 0.0
H494 H 0.98766 0.69335 0.03137 0.0
H495 H 0.98871 0.54273 0.13121 0.0
H496 H 0.06222 0.47223 0.09396 0.0
H497 H 0.01945 0.47872 0.09314 0.0
H498 H 0.02185 0.75191 0.07201 0.0
H499 H 0.06498 0.7451 0.07332 0.0
C500 C 0.95415 0.6556 0.05002 0.0
C501 C 0.94213 0.61039 0.07652 0.0
C502 C 0.97867 0.65995 0.05261 0.0
C503 C 0.99145 0.61836 0.08157 0.0
C504 C 0.97928 0.57474 0.10845 0.0
C505 C 0.95483 0.57084 0.10595 0.0
C506 C 0.05357 0.53377 0.08965 0.0
C507 C 0.06669 0.60834 0.08403 0.0
C508 C 0.02916 0.53755 0.08918 0.0
C509 C 0.0174 0.61593 0.08274 0.0
C510 C 0.03054 0.69066 0.07687 0.0
C511 C 0.05508 0.68691 0.07768 0.0
H512 H 0.17873 0.33216 0.98371 0.0
H513 H 0.16618 0.21357 0.08822 0.0
H514 H 0.21324 0.24276 0.97832 0.0
H515 H 0.20047 0.12241 0.08221 0.0
H516 H 0.2806 0.16587 0.09895 0.0
H517 H 0.23902 0.19607 0.09158 0.0
H518 H 0.23814 0.11002 0.97875 0.0
H519 H 0.28033 0.07937 0.98605 0.0
C520 C 0.18256 0.28397 0.00469 0.0
C521 C 0.17049 0.28324 0.03743 0.0
C522 C 0.20244 0.23253 0.00151 0.0
C523 C 0.21013 0.17883 0.03073 0.0
C524 C 0.19536 0.16593 0.05993 0.0
C525 C 0.17562 0.21783 0.06327 0.0
C526 C 0.27169 0.15329 0.07247 0.0
C527 C 0.28389 0.1205 0.04306 0.0
C528 C 0.24768 0.16921 0.06844 0.0
C529 C 0.23516 0.15316 0.03485 0.0
C530 C 0.24732 0.12191 0.00507 0.0
C531 C 0.27148 0.10523 0.00919 0.0
H532 H 0.78931 0.61818 0.98713 0.0
H533 H 0.78983 0.72086 0.09756 0.0
H534 H 0.74779 0.65755 0.97769 0.0
H535 H 0.74873 0.75941 0.08802 0.0
H536 H 0.67339 0.75283 0.08205 0.0
H537 H 0.71058 0.67663 0.07985 0.0
H538 H 0.72243 0.79338 0.97492 0.0
H539 H 0.68512 0.86899 0.97666 0.0
C540 C 0.78072 0.65013 0.00917 0.0
C541 C 0.79289 0.66594 0.0432 0.0
C542 C 0.75693 0.67189 0.00382 0.0
C543 C 0.74492 0.70898 0.0325 0.0
C544 C 0.75736 0.72819 0.06582 0.0
C545 C 0.78105 0.7072 0.07108 0.0
C546 C 0.6834 0.75971 0.05777 0.0
C547 C 0.6767 0.8196 0.03023 0.0
C548 C 0.70482 0.71659 0.05669 0.0
C549 C 0.71974 0.7321 0.02794 0.0
C550 C 0.7114 0.78132 0.99767 0.0
C551 C 0.68993 0.82449 0.99871 0.0
H552 H 0.22004 0.66116 0.03134 0.0
H553 H 0.22334 0.5691 0.14363 0.0
H554 H 0.26135 0.69821 0.03745 0.0
H555 H 0.26508 0.60561 0.14951 0.0
H556 H 0.322 0.83213 0.14832 0.0
H557 H 0.28794 0.73983 0.15155 0.0
H558 H 0.30105 0.63529 0.04476 0.0
H559 H 0.33493 0.72929 0.04101 0.0
C560 C 0.22957 0.64872 0.05736 0.0
C561 C 0.21829 0.61279 0.08707 0.0
C562 C 0.2534 0.66858 0.06066 0.0
C563 C 0.26661 0.65314 0.09376 0.0
C564 C 0.25537 0.61767 0.12362 0.0
C565 C 0.23145 0.5974 0.12028 0.0
C566 C 0.31831 0.78691 0.12615 0.0
C567 C 0.33046 0.79112 0.09356 0.0
C568 C 0.29868 0.73382 0.12805 0.0
C569 C 0.29125 0.68339 0.09764 0.0
C570 C 0.30593 0.67617 0.068 0.0
C571 C 0.32547 0.72957 0.06601 0.0
H572 H 0.70945 0.22162 0.03023 0.0
H573 H 0.71079 0.11333 0.13981 0.0
H574 H 0.75059 0.25965 0.0394 0.0
H575 H 0.75233 0.15194 0.14884 0.0
H576 H 0.82589 0.25555 0.04441 0.0
H577 H 0.78891 0.17809 0.04619 0.0
H578 H 0.77742 0.28704 0.1527 0.0
H579 H 0.81451 0.36381 0.15136 0.0
C580 C 0.71843 0.20657 0.05643 0.0
C581 C 0.7068 0.16402 0.0842 0.0
C582 C 0.74213 0.22721 0.06146 0.0
C583 C 0.7548 0.20629 0.09442 0.0
C584 C 0.74301 0.16764 0.12298 0.0
C585 C 0.71921 0.1463 0.11787 0.0
C586 C 0.81599 0.26047 0.06888 0.0
C587 C 0.82269 0.31861 0.09704 0.0
C588 C 0.79471 0.2166 0.06974 0.0
C589 C 0.77994 0.22965 0.09889 0.0
C590 C 0.78833 0.27692 0.12965 0.0
C591 C 0.80967 0.3208 0.12883 0.0
H592 H 0.16103 0.74717 0.60191 0.0
H593 H 0.17375 0.85269 0.49492 0.0
H594 H 0.19544 0.6555 0.59827 0.0
H595 H 0.20824 0.76219 0.49169 0.0
H596 H 0.27124 0.58191 0.49752 0.0
H597 H 0.23002 0.62542 0.49261 0.0
H598 H 0.23566 0.71476 0.60505 0.0
H599 H 0.27656 0.67056 0.61022 0.0
C600 C 0.17063 0.74882 0.57708 0.0
C601 C 0.16525 0.81001 0.54946 0.0
C602 C 0.19046 0.69673 0.57514 0.0
C603 C 0.20505 0.70458 0.54543 0.0
C604 C 0.19753 0.75559 0.5152 0.0
C605 C 0.17766 0.80756 0.5171 0.0
C606 C 0.26369 0.61108 0.52117 0.0
C607 C 0.27725 0.62317 0.55425 0.0
C608 C 0.24006 0.63546 0.51836 0.0
C609 C 0.22949 0.67195 0.54862 0.0
C610 C 0.24311 0.68457 0.58154 0.0
C611 C 0.2667 0.66054 0.58432 0.0
H612 H 0.6766 0.35965 0.48091 0.0
H613 H 0.66138 0.25259 0.58663 0.0
H614 H 0.71263 0.27644 0.48135 0.0
H615 H 0.6973 0.16798 0.58659 0.0
H616 H 0.77735 0.10341 0.49362 0.0
H617 H 0.73608 0.14391 0.48453 0.0
H618 H 0.73655 0.23337 0.59686 0.0
H619 H 0.77753 0.19192 0.60623 0.0
C620 C 0.68035 0.31554 0.50352 0.0
C621 C 0.66662 0.31554 0.53451 0.0
C622 C 0.70111 0.26785 0.50376 0.0
C623 C 0.70823 0.21865 0.53474 0.0
C624 C 0.69261 0.20804 0.56296 0.0
C625 C 0.6719 0.2559 0.56279 0.0
C626 C 0.76869 0.13226 0.51633 0.0
C627 C 0.78078 0.1446 0.55069 0.0
C628 C 0.74502 0.1549 0.51113 0.0
C629 C 0.73296 0.19002 0.54018 0.0
C630 C 0.74518 0.204 0.57423 0.0
C631 C 0.76881 0.1816 0.57943 0.0
H632 H 0.20999 0.08933 0.65825 0.0
H633 H 0.20828 0.20376 0.54978 0.0
H634 H 0.25246 0.11641 0.66504 0.0
H635 H 0.25013 0.22913 0.55653 0.0
H636 H 0.32267 0.21565 0.55314 0.0
H637 H 0.28715 0.13282 0.56133 0.0
H638 H 0.27934 0.25392 0.66651 0.0
H639 H 0.31507 0.33566 0.65892 0.0
C640 C 0.21855 0.12093 0.63609 0.0
C641 C 0.20574 0.14402 0.60338 0.0
C642 C 0.24283 0.13536 0.63987 0.0
C643 C 0.25462 0.17184 0.61079 0.0
C644 C 0.24163 0.19785 0.57885 0.0
C645 C 0.21753 0.18448 0.57524 0.0
C646 C 0.31412 0.22149 0.57888 0.0
C647 C 0.32098 0.28537 0.6045 0.0
C648 C 0.2937 0.1743 0.58347 0.0
C649 C 0.28007 0.19028 0.61375 0.0
C650 C 0.28936 0.24164 0.64261 0.0
C651 C 0.3099 0.28854 0.63815 0.0
H652 H 0.70405 0.6067 0.64305 0.0
H653 H 0.70536 0.71109 0.53301 0.0
H654 H 0.74601 0.63822 0.65304 0.0
H655 H 0.74685 0.74202 0.5431 0.0
H656 H 0.82106 0.73602 0.54921 0.0
H657 H 0.78439 0.65681 0.55152 0.0
H658 H 0.77229 0.76999 0.65702 0.0
H659 H 0.80913 0.84798 0.65526 0.0
C660 C 0.71315 0.63724 0.62119 0.0
C661 C 0.70133 0.65613 0.58715 0.0
C662 C 0.73719 0.65441 0.62685 0.0
C663 C 0.74979 0.68992 0.59845 0.0
C664 C 0.73776 0.71173 0.56505 0.0
C665 C 0.71385 0.69527 0.55949 0.0
C666 C 0.81117 0.74106 0.57371 0.0
C667 C 0.81746 0.80128 0.60125 0.0
C668 C 0.79006 0.69623 0.57486 0.0
C669 C 0.77508 0.71064 0.60365 0.0
C670 C 0.78333 0.75892 0.63419 0.0
C671 C 0.80454 0.80354 0.63313 0.0
loop_
_geom_bond_atom_site_label_1
_geom_bond_atom_site_label_2
_geom_bond_distance
_geom_bond_site_symmetry_2
_ccdc_geom_bond_type
Co0 O3 1.970 1_545 S
Co0 N17 1.989 . S
Co0 O25 1.967 . S
Co0 O32 1.920 . S
Co1 O4 1.966 1_545 S
Co1 N10 2.022 1_544 S
Co1 N18 1.993 . S
Co1 O26 1.941 . S
C2 O3 1.258 . S
C2 O4 1.263 . S
O3 Co0 1.970 1_565 S
O3 C2 1.258 . S
O4 Co1 1.966 1_565 S
O4 C2 1.263 . S
C5 O6 1.235 1_545 S
C5 O32 1.289 . S
O6 C5 1.235 1_565 S
C7 C9 1.400 . S
C7 N10 1.351 . S
C7 C12 1.501 . S
C8 C9 1.387 . S
C8 N11 1.341 1_565 S
C9 C7 1.400 . S
C9 C8 1.387 . S
N10 Co1 2.022 1_566 S
N10 C7 1.351 . S
N10 N11 1.365 1_565 S
N11 C8 1.341 1_545 S
N11 N10 1.365 1_545 S
N11 H31 0.862 . S
C12 C7 1.501 . S
C12 H13 0.961 . S
C12 H14 0.961 . S
C12 H15 0.960 . S
H13 C12 0.961 . S
H14 C12 0.961 . S
H15 C12 0.960 . S
C16 N17 1.342 . S
C16 C20 1.401 . S
C16 C21 1.499 . S
N17 Co0 1.989 . S
N17 C16 1.342 . S
N17 N18 1.388 . S
N18 Co1 1.993 . S
N18 N17 1.388 . S
N18 C19 1.346 . S
C19 N18 1.346 . S
C19 C20 1.396 . S
C19 C29 1.510 1_544 S
C20 C16 1.401 . S
C20 C19 1.396 . S
C21 C16 1.499 . S
C21 H22 0.959 . S
C21 H23 0.960 . S
C21 H24 0.961 . S
H22 C21 0.959 . S
H23 C21 0.960 . S
H24 C21 0.961 . S
O25 Co0 1.967 . S
O25 C33 1.258 . S
O26 Co1 1.941 . S
O26 C33 1.266 . S
H27 C29 0.959 1_545 S
H28 C29 0.961 . S
C29 C19 1.510 1_566 S
C29 H27 0.959 1_565 S
C29 H28 0.961 . S
C29 H30 0.960 . S
H30 C29 0.960 . S
H31 N11 0.862 . S
O32 Co0 1.920 . S
O32 C5 1.289 . S
C33 O25 1.258 . S
C33 O26 1.266 . S
Co34 O37 1.970 1_545 S
Co34 N51 1.989 . S
Co34 O59 1.967 . S
Co34 O66 1.920 1_554 S
Co35 O38 1.966 1_545 S
Co35 N44 2.022 1_545 S
Co35 N52 1.993 . S
Co35 O60 1.941 . S
C36 O37 1.258 . S
C36 O38 1.263 . S
O37 Co34 1.970 1_565 S
O37 C36 1.258 . S
O38 Co35 1.966 1_565 S
O38 C36 1.263 . S
C39 O40 1.235 1_545 S
C39 O66 1.289 . S
O40 C39 1.235 1_565 S
C41 C43 1.400 . S
C41 N44 1.351 . S
C41 C46 1.501 . S
C42 C43 1.387 . S
C42 N45 1.341 1_565 S
C43 C41 1.400 . S
C43 C42 1.387 . S
N44 Co35 2.022 1_565 S
N44 C41 1.351 . S
N44 N45 1.365 1_565 S
N45 C42 1.341 1_545 S
N45 N44 1.365 1_545 S
N45 H65 0.862 . S
C46 C41 1.501 . S
C46 H47 0.961 . S
C46 H48 0.961 . S
C46 H49 0.960 . S
H47 C46 0.961 . S
H48 C46 0.961 . S
H49 C46 0.960 . S
C50 N51 1.342 . S
C50 C54 1.401 . S
C50 C55 1.499 . S
N51 Co34 1.989 . S
N51 C50 1.342 . S
N51 N52 1.388 . S
N52 Co35 1.993 . S
N52 N51 1.388 . S
N52 C53 1.346 . S
C53 N52 1.346 . S
C53 C54 1.396 . S
C53 C63 1.510 1_545 S
C54 C50 1.401 . S
C54 C53 1.396 . S
C55 C50 1.499 . S
C55 H56 0.959 1_554 S
C55 H57 0.960 . S
C55 H58 0.961 . S
H56 C55 0.959 1_556 S
H57 C55 0.960 . S
H58 C55 0.961 . S
O59 Co34 1.967 . S
O59 C67 1.258 . S
O60 Co35 1.941 . S
O60 C67 1.266 . S
H61 C63 0.959 1_545 S
H62 C63 0.961 . S
C63 C53 1.510 1_565 S
C63 H61 0.959 1_565 S
C63 H62 0.961 . S
C63 H64 0.960 . S
H64 C63 0.960 . S
H65 N45 0.862 . S
O66 Co34 1.920 1_556 S
O66 C39 1.289 . S
C67 O59 1.258 . S
C67 O60 1.266 . S
Co68 O71 1.970 . S
Co68 N85 1.989 . S
Co68 O93 1.967 . S
Co68 O100 1.920 . S
Co69 O72 1.966 . S
Co69 N78 2.022 . S
Co69 N86 1.993 . S
Co69 O94 1.941 . S
C70 O71 1.258 . S
C70 O72 1.263 . S
O71 Co68 1.970 . S
O71 C70 1.258 . S
O72 Co69 1.966 . S
O72 C70 1.263 . S
C73 O74 1.235 . S
C73 O100 1.289 . S
O74 C73 1.235 . S
C75 C77 1.400 . S
C75 N78 1.351 . S
C75 C80 1.501 . S
C76 C77 1.387 . S
C76 N79 1.341 . S
C77 C75 1.400 . S
C77 C76 1.387 . S
N78 Co69 2.022 . S
N78 C75 1.351 . S
N78 N79 1.365 . S
N79 C76 1.341 . S
N79 N78 1.365 . S
N79 H99 0.862 . S
C80 C75 1.501 . S
C80 H81 0.961 . S
C80 H82 0.961 . S
C80 H83 0.960 . S
H81 C80 0.961 . S
H82 C80 0.961 . S
H83 C80 0.960 . S
C84 N85 1.342 . S
C84 C88 1.401 . S
C84 C89 1.499 . S
N85 Co68 1.989 . S
N85 C84 1.342 . S
N85 N86 1.388 . S
N86 Co69 1.993 . S
N86 N85 1.388 . S
N86 C87 1.346 . S
C87 N86 1.346 . S
C87 C88 1.396 . S
C87 C97 1.510 . S
C88 C84 1.401 . S
C88 C87 1.396 . S
C89 C84 1.499 . S
C89 H90 0.959 . S
C89 H91 0.960 . S
C89 H92 0.961 . S
H90 C89 0.959 . S
H91 C89 0.960 . S
H92 C89 0.961 . S
O93 Co68 1.967 . S
O93 C101 1.258 . S
O94 Co69 1.941 . S
O94 C101 1.266 . S
H95 C97 0.959 . S
H96 C97 0.961 . S
C97 C87 1.510 . S
C97 H95 0.959 . S
C97 H96 0.961 . S
C97 H98 0.960 . S
H98 C97 0.960 . S
H99 N79 0.862 . S
O100 Co68 1.920 . S
O100 C73 1.289 . S
C101 O93 1.258 . S
C101 O94 1.266 . S
Co102 O105 1.970 . S
Co102 N119 1.989 . S
Co102 O127 1.967 . S
Co102 O134 1.920 . S
Co103 O106 1.966 . S
Co103 N112 2.022 . S
Co103 N120 1.993 . S
Co103 O128 1.941 . S
C104 O105 1.258 . S
C104 O106 1.263 . S
O105 Co102 1.970 . S
O105 C104 1.258 . S
O106 Co103 1.966 . S
O106 C104 1.263 . S
C107 O108 1.235 . S
C107 O134 1.289 . S
O108 C107 1.235 . S
C109 C111 1.400 . S
C109 N112 1.351 . S
C109 C114 1.501 . S
C110 C111 1.387 . S
C110 N113 1.341 . S
C111 C109 1.400 . S
C111 C110 1.387 . S
N112 Co103 2.022 . S
N112 C109 1.351 . S
N112 N113 1.365 . S
N113 C110 1.341 . S
N113 N112 1.365 . S
N113 H133 0.862 . S
C114 C109 1.501 . S
C114 H115 0.961 . S
C114 H116 0.961 . S
C114 H117 0.960 . S
H115 C114 0.961 . S
H116 C114 0.961 . S
H117 C114 0.960 . S
C118 N119 1.342 . S
C118 C122 1.401 . S
C118 C123 1.499 . S
N119 Co102 1.989 . S
N119 C118 1.342 . S
N119 N120 1.388 . S
N120 Co103 1.993 . S
N120 N119 1.388 . S
N120 C121 1.346 . S
C121 N120 1.346 . S
C121 C122 1.396 . S
C121 C131 1.510 . S
C122 C118 1.401 . S
C122 C121 1.396 . S
C123 C118 1.499 . S
C123 H124 0.959 . S
C123 H125 0.960 . S
C123 H126 0.961 . S
H124 C123 0.959 . S
H125 C123 0.960 . S
H126 C123 0.961 . S
O127 Co102 1.967 . S
O127 C135 1.258 . S
O128 Co103 1.941 . S
O128 C135 1.266 . S
H129 C131 0.959 . S
H130 C131 0.961 . S
C131 C121 1.510 . S
C131 H129 0.959 . S
C131 H130 0.961 . S
C131 H132 0.960 . S
H132 C131 0.960 . S
H133 N113 0.862 . S
O134 Co102 1.920 . S
O134 C107 1.289 . S
C135 O127 1.258 . S
C135 O128 1.266 . S
Co136 O139 1.970 1_545 S
Co136 N153 1.989 . S
Co136 O161 1.967 . S
Co136 O168 1.920 . S
Co137 O140 1.966 1_545 S
Co137 N146 2.022 1_545 S
Co137 N154 1.993 . S
Co137 O162 1.941 . S
C138 O139 1.258 . S
C138 O140 1.263 . S
O139 Co136 1.970 1_565 S
O139 C138 1.258 . S
O140 Co137 1.966 1_565 S
O140 C138 1.263 . S
C141 O142 1.235 1_545 S
C141 O168 1.289 . S
O142 C141 1.235 1_565 S
C143 C145 1.400 . S
C143 N146 1.351 . S
C143 C148 1.501 . S
C144 C145 1.387 . S
C144 N147 1.341 1_565 S
C145 C143 1.400 . S
C145 C144 1.387 . S
N146 Co137 2.022 1_565 S
N146 C143 1.351 . S
N146 N147 1.365 1_565 S
N147 C144 1.341 1_545 S
N147 N146 1.365 1_545 S
N147 H167 0.862 . S
C148 C143 1.501 . S
C148 H149 0.961 . S
C148 H150 0.961 . S
C148 H151 0.960 . S
H149 C148 0.961 . S
H150 C148 0.961 . S
H151 C148 0.960 . S
C152 N153 1.342 . S
C152 C156 1.401 . S
C152 C157 1.499 . S
N153 Co136 1.989 . S
N153 C152 1.342 . S
N153 N154 1.388 . S
N154 Co137 1.993 . S
N154 N153 1.388 . S
N154 C155 1.346 . S
C155 N154 1.346 . S
C155 C156 1.396 . S
C155 C165 1.510 1_545 S
C156 C152 1.401 . S
C156 C155 1.396 . S
C157 C152 1.499 . S
C157 H158 0.959 . S
C157 H159 0.960 . S
C157 H160 0.961 . S
H158 C157 0.959 . S
H159 C157 0.960 . S
H160 C157 0.961 . S
O161 Co136 1.967 . S
O161 C169 1.258 . S
O162 Co137 1.941 . S
O162 C169 1.266 . S
H163 C165 0.959 1_545 S
H164 C165 0.961 . S
C165 C155 1.510 1_565 S
C165 H163 0.959 1_565 S
C165 H164 0.961 . S
C165 H166 0.960 . S
H166 C165 0.960 . S
H167 N147 0.862 . S
O168 Co136 1.920 . S
O168 C141 1.289 . S
C169 O161 1.258 . S
C169 O162 1.266 . S
Co170 O173 1.970 1_545 S
Co170 N187 1.989 . S
Co170 O195 1.967 . S
Co170 O202 1.920 . S
Co171 O174 1.966 1_545 S
Co171 N180 2.022 1_545 S
Co171 N188 1.993 . S
Co171 O196 1.941 . S
C172 O173 1.258 . S
C172 O174 1.263 . S
O173 Co170 1.970 1_565 S
O173 C172 1.258 . S
O174 Co171 1.966 1_565 S
O174 C172 1.263 . S
C175 O176 1.235 1_545 S
C175 O202 1.289 . S
O176 C175 1.235 1_565 S
C177 C179 1.400 . S
C177 N180 1.351 . S
C177 C182 1.501 . S
C178 C179 1.387 . S
C178 N181 1.341 1_565 S
C179 C177 1.400 . S
C179 C178 1.387 . S
N180 Co171 2.022 1_565 S
N180 C177 1.351 . S
N180 N181 1.365 1_565 S
N181 C178 1.341 1_545 S
N181 N180 1.365 1_545 S
N181 H201 0.862 . S
C182 C177 1.501 . S
C182 H183 0.961 . S
C182 H184 0.961 . S
C182 H185 0.960 . S
H183 C182 0.961 . S
H184 C182 0.961 . S
H185 C182 0.960 . S
C186 N187 1.342 . S
C186 C190 1.401 . S
C186 C191 1.499 . S
N187 Co170 1.989 . S
N187 C186 1.342 . S
N187 N188 1.388 . S
N188 Co171 1.993 . S
N188 N187 1.388 . S
N188 C189 1.346 . S
C189 N188 1.346 . S
C189 C190 1.396 . S
C189 C199 1.510 1_545 S
C190 C186 1.401 . S
C190 C189 1.396 . S
C191 C186 1.499 . S
C191 H192 0.959 . S
C191 H193 0.960 . S
C191 H194 0.961 . S
H192 C191 0.959 . S
H193 C191 0.960 . S
H194 C191 0.961 . S
O195 Co170 1.967 . S
O195 C203 1.258 . S
O196 Co171 1.941 . S
O196 C203 1.266 . S
H197 C199 0.959 1_545 S
H198 C199 0.961 . S
C199 C189 1.510 1_565 S
C199 H197 0.959 1_565 S
C199 H198 0.961 . S
C199 H200 0.960 . S
H200 C199 0.960 . S
H201 N181 0.862 . S
O202 Co170 1.920 . S
O202 C175 1.289 . S
C203 O195 1.258 . S
C203 O196 1.266 . S
Co204 O207 1.970 . S
Co204 N221 1.989 . S
Co204 O229 1.967 . S
Co204 O236 1.920 . S
Co205 O208 1.966 . S
Co205 N214 2.022 1_554 S
Co205 N222 1.993 . S
Co205 O230 1.941 . S
C206 O207 1.258 . S
C206 O208 1.263 . S
O207 Co204 1.970 . S
O207 C206 1.258 . S
O208 Co205 1.966 . S
O208 C206 1.263 . S
C209 O210 1.235 . S
C209 O236 1.289 . S
O210 C209 1.235 . S
C211 C213 1.400 . S
C211 N214 1.351 . S
C211 C216 1.501 . S
C212 C213 1.387 . S
C212 N215 1.341 . S
C213 C211 1.400 . S
C213 C212 1.387 . S
N214 Co205 2.022 1_556 S
N214 C211 1.351 . S
N214 N215 1.365 . S
N215 C212 1.341 . S
N215 N214 1.365 . S
N215 H235 0.862 . S
C216 C211 1.501 . S
C216 H217 0.961 . S
C216 H218 0.961 . S
C216 H219 0.960 . S
H217 C216 0.961 . S
H218 C216 0.961 . S
H219 C216 0.960 . S
C220 N221 1.342 . S
C220 C224 1.401 . S
C220 C225 1.499 . S
N221 Co204 1.989 . S
N221 C220 1.342 . S
N221 N222 1.388 . S
N222 Co205 1.993 . S
N222 N221 1.388 . S
N222 C223 1.346 . S
C223 N222 1.346 . S
C223 C224 1.396 . S
C223 C233 1.510 1_554 S
C224 C220 1.401 . S
C224 C223 1.396 . S
C225 C220 1.499 . S
C225 H226 0.959 . S
C225 H227 0.960 . S
C225 H228 0.961 . S
H226 C225 0.959 . S
H227 C225 0.960 . S
H228 C225 0.961 . S
O229 Co204 1.967 . S
O229 C237 1.258 . S
O230 Co205 1.941 . S
O230 C237 1.266 . S
H231 C233 0.959 . S
H232 C233 0.961 . S
C233 C223 1.510 1_556 S
C233 H231 0.959 . S
C233 H232 0.961 . S
C233 H234 0.960 . S
H234 C233 0.960 . S
H235 N215 0.862 . S
O236 Co204 1.920 . S
O236 C209 1.289 . S
C237 O229 1.258 . S
C237 O230 1.266 . S
Co238 O241 1.970 . S
Co238 N255 1.989 . S
Co238 O263 1.967 . S
Co238 O270 1.920 1_554 S
Co239 O242 1.966 . S
Co239 N248 2.022 . S
Co239 N256 1.993 . S
Co239 O264 1.941 . S
C240 O241 1.258 . S
C240 O242 1.263 . S
O241 Co238 1.970 . S
O241 C240 1.258 . S
O242 Co239 1.966 . S
O242 C240 1.263 . S
C243 O244 1.235 . S
C243 O270 1.289 . S
O244 C243 1.235 . S
C245 C247 1.400 . S
C245 N248 1.351 . S
C245 C250 1.501 . S
C246 C247 1.387 . S
C246 N249 1.341 . S
C247 C245 1.400 . S
C247 C246 1.387 . S
N248 Co239 2.022 . S
N248 C245 1.351 . S
N248 N249 1.365 . S
N249 C246 1.341 . S
N249 N248 1.365 . S
N249 H269 0.862 . S
C250 C245 1.501 . S
C250 H251 0.961 . S
C250 H252 0.961 . S
C250 H253 0.960 . S
H251 C250 0.961 . S
H252 C250 0.961 . S
H253 C250 0.960 . S
C254 N255 1.342 . S
C254 C258 1.401 . S
C254 C259 1.499 . S
N255 Co238 1.989 . S
N255 C254 1.342 . S
N255 N256 1.388 . S
N256 Co239 1.993 . S
N256 N255 1.388 . S
N256 C257 1.346 . S
C257 N256 1.346 . S
C257 C258 1.396 . S
C257 C267 1.510 . S
C258 C254 1.401 . S
C258 C257 1.396 . S
C259 C254 1.499 . S
C259 H260 0.959 1_554 S
C259 H261 0.960 . S
C259 H262 0.961 . S
H260 C259 0.959 1_556 S
H261 C259 0.960 . S
H262 C259 0.961 . S
O263 Co238 1.967 . S
O263 C271 1.258 . S
O264 Co239 1.941 . S
O264 C271 1.266 . S
H265 C267 0.959 . S
H266 C267 0.961 . S
C267 C257 1.510 . S
C267 H265 0.959 . S
C267 H266 0.961 . S
C267 H268 0.960 . S
H268 C267 0.960 . S
H269 N249 0.862 . S
O270 Co238 1.920 1_556 S
O270 C243 1.289 . S
C271 O263 1.258 . S
C271 O264 1.266 . S
H272 C280 0.950 . S
H273 C285 0.950 . S
H274 C282 0.950 . S
H275 C284 0.950 . S
H276 C286 0.950 . S
H277 C288 0.950 . S
H278 C290 0.950 . S
H279 C291 0.950 . S
C280 H272 0.950 . S
C280 C281 1.386 . S
C280 C282 1.391 . S
C281 C280 1.386 . S
C281 C285 1.393 . S
C282 H274 0.950 . S
C282 C280 1.391 . S
C282 C283 1.400 . S
C283 C282 1.400 . S
C283 C284 1.398 . S
C283 C289 1.491 . S
C284 H275 0.950 . S
C284 C283 1.398 . S
C284 C285 1.391 . S
C285 H273 0.950 . S
C285 C281 1.393 . S
C285 C284 1.391 . S
C286 H276 0.950 . S
C286 C287 1.386 . S
C286 C288 1.391 . S
C287 C286 1.386 . S
C287 C291 1.393 . S
C288 H277 0.950 . S
C288 C286 1.391 . S
C288 C289 1.400 . S
C289 C283 1.491 . S
C289 C288 1.400 . S
C289 C290 1.398 . S
C290 H278 0.950 . S
C290 C289 1.398 . S
C290 C291 1.391 . S
C291 H279 0.950 . S
C291 C287 1.393 . S
C291 C290 1.391 . S
H292 C300 0.950 . S
H293 C305 0.950 . S
H294 C302 0.950 . S
H295 C304 0.950 . S
H296 C306 0.950 . S
H297 C308 0.950 . S
H298 C310 0.950 . S
H299 C311 0.950 . S
C300 H292 0.950 . S
C300 C301 1.386 . S
C300 C302 1.391 . S
C301 C300 1.386 . S
C301 C305 1.393 . S
C302 H294 0.950 . S
C302 C300 1.391 . S
C302 C303 1.400 . S
C303 C302 1.400 . S
C303 C304 1.398 . S
C303 C309 1.491 . S
C304 H295 0.950 . S
C304 C303 1.398 . S
C304 C305 1.391 . S
C305 H293 0.950 . S
C305 C301 1.393 . S
C305 C304 1.391 . S
C306 H296 0.950 . S
C306 C307 1.386 . S
C306 C308 1.391 . S
C307 C306 1.386 . S
C307 C311 1.393 . S
C308 H297 0.950 . S
C308 C306 1.391 . S
C308 C309 1.400 . S
C309 C303 1.491 . S
C309 C308 1.400 . S
C309 C310 1.398 . S
C310 H298 0.950 . S
C310 C309 1.398 . S
C310 C311 1.391 . S
C311 H299 0.950 . S
C311 C307 1.393 . S
C311 C310 1.391 . S
H312 C320 0.950 . S
H313 C325 0.950 . S
H314 C322 0.950 . S
H315 C324 0.950 . S
H316 C326 0.950 . S
H317 C328 0.950 . S
H318 C330 0.950 . S
H319 C331 0.950 . S
C320 H312 0.950 . S
C320 C321 1.386 . S
C320 C322 1.391 . S
C321 C320 1.386 . S
C321 C325 1.393 . S
C322 H314 0.950 . S
C322 C320 1.391 . S
C322 C323 1.400 . S
C323 C322 1.400 . S
C323 C324 1.398 . S
C323 C329 1.491 . S
C324 H315 0.950 . S
C324 C323 1.398 . S
C324 C325 1.391 . S
C325 H313 0.950 . S
C325 C321 1.393 . S
C325 C324 1.391 . S
C326 H316 0.950 . S
C326 C327 1.386 . S
C326 C328 1.391 . S
C327 C326 1.386 . S
C327 C331 1.393 . S
C328 H317 0.950 . S
C328 C326 1.391 . S
C328 C329 1.400 . S
C329 C323 1.491 . S
C329 C328 1.400 . S
C329 C330 1.398 . S
C330 H318 0.950 . S
C330 C329 1.398 . S
C330 C331 1.391 . S
C331 H319 0.950 . S
C331 C327 1.393 . S
C331 C330 1.391 . S
H332 C340 0.950 . S
H333 C345 0.950 . S
H334 C342 0.950 . S
H335 C344 0.950 . S
H336 C346 0.950 . S
H337 C348 0.950 . S
H338 C350 0.950 . S
H339 C351 0.950 . S
C340 H332 0.950 . S
C340 C341 1.386 . S
C340 C342 1.391 . S
C341 C340 1.386 . S
C341 C345 1.393 . S
C342 H334 0.950 . S
C342 C340 1.391 . S
C342 C343 1.400 . S
C343 C342 1.400 . S
C343 C344 1.398 . S
C343 C349 1.491 . S
C344 H335 0.950 . S
C344 C343 1.398 . S
C344 C345 1.391 . S
C345 H333 0.950 . S
C345 C341 1.393 . S
C345 C344 1.391 . S
C346 H336 0.950 . S
C346 C347 1.386 . S
C346 C348 1.391 . S
C347 C346 1.386 . S
C347 C351 1.393 . S
C348 H337 0.950 . S
C348 C346 1.391 . S
C348 C349 1.400 . S
C349 C343 1.491 . S
C349 C348 1.400 . S
C349 C350 1.398 . S
C350 H338 0.950 . S
C350 C349 1.398 . S
C350 C351 1.391 . S
C351 H339 0.950 . S
C351 C347 1.393 . S
C351 C350 1.391 . S
H352 C360 0.950 . S
H353 C365 0.950 . S
H354 C362 0.950 . S
H355 C364 0.950 . S
H356 C366 0.950 . S
H357 C368 0.950 . S
H358 C370 0.950 . S
H359 C371 0.950 . S
C360 H352 0.950 . S
C360 C361 1.386 . S
C360 C362 1.391 . S
C361 C360 1.386 . S
C361 C365 1.393 . S
C362 H354 0.950 . S
C362 C360 1.391 . S
C362 C363 1.400 . S
C363 C362 1.400 . S
C363 C364 1.398 . S
C363 C369 1.491 . S
C364 H355 0.950 . S
C364 C363 1.398 . S
C364 C365 1.391 . S
C365 H353 0.950 . S
C365 C361 1.393 . S
C365 C364 1.391 . S
C366 H356 0.950 . S
C366 C367 1.386 . S
C366 C368 1.391 . S
C367 C366 1.386 . S
C367 C371 1.393 . S
C368 H357 0.950 . S
C368 C366 1.391 . S
C368 C369 1.400 . S
C369 C363 1.491 . S
C369 C368 1.400 . S
C369 C370 1.398 . S
C370 H358 0.950 . S
C370 C369 1.398 . S
C370 C371 1.391 . S
C371 H359 0.950 . S
C371 C367 1.393 . S
C371 C370 1.391 . S
H372 C380 0.950 . S
H373 C385 0.950 . S
H374 C382 0.950 . S
H375 C384 0.950 . S
H376 C386 0.950 . S
H377 C388 0.950 . S
H378 C390 0.950 . S
H379 C391 0.950 . S
C380 H372 0.950 . S
C380 C381 1.386 . S
C380 C382 1.391 . S
C381 C380 1.386 . S
C381 C385 1.393 . S
C382 H374 0.950 . S
C382 C380 1.391 . S
C382 C383 1.400 . S
C383 C382 1.400 . S
C383 C384 1.398 . S
C383 C389 1.491 . S
C384 H375 0.950 . S
C384 C383 1.398 . S
C384 C385 1.391 . S
C385 H373 0.950 . S
C385 C381 1.393 . S
C385 C384 1.391 . S
C386 H376 0.950 . S
C386 C387 1.386 . S
C386 C388 1.391 . S
C387 C386 1.386 . S
C387 C391 1.393 . S
C388 H377 0.950 . S
C388 C386 1.391 . S
C388 C389 1.400 . S
C389 C383 1.491 . S
C389 C388 1.400 . S
C389 C390 1.398 . S
C390 H378 0.950 . S
C390 C389 1.398 . S
C390 C391 1.391 . S
C391 H379 0.950 . S
C391 C387 1.393 . S
C391 C390 1.391 . S
H392 C400 0.950 . S
H393 C405 0.950 . S
H394 C402 0.950 . S
H395 C404 0.950 . S
H396 C406 0.950 . S
H397 C408 0.950 . S
H398 C410 0.950 . S
H399 C411 0.950 . S
C400 H392 0.950 . S
C400 C401 1.386 . S
C400 C402 1.391 . S
C401 C400 1.386 . S
C401 C405 1.393 . S
C402 H394 0.950 . S
C402 C400 1.391 . S
C402 C403 1.400 . S
C403 C402 1.400 . S
C403 C404 1.398 . S
C403 C409 1.491 . S
C404 H395 0.950 . S
C404 C403 1.398 . S
C404 C405 1.391 . S
C405 H393 0.950 . S
C405 C401 1.393 . S
C405 C404 1.391 . S
C406 H396 0.950 . S
C406 C407 1.386 . S
C406 C408 1.391 . S
C407 C406 1.386 . S
C407 C411 1.393 . S
C408 H397 0.950 . S
C408 C406 1.391 . S
C408 C409 1.400 . S
C409 C403 1.491 . S
C409 C408 1.400 . S
C409 C410 1.398 . S
C410 H398 0.950 . S
C410 C409 1.398 . S
C410 C411 1.391 . S
C411 H399 0.950 . S
C411 C407 1.393 . S
C411 C410 1.391 . S
H412 C420 0.950 . S
H413 C425 0.950 . S
H414 C422 0.950 . S
H415 C424 0.950 . S
H416 C426 0.950 . S
H417 C428 0.950 . S
H418 C430 0.950 . S
H419 C431 0.950 . S
C420 H412 0.950 . S
C420 C421 1.386 . S
C420 C422 1.391 . S
C421 C420 1.386 . S
C421 C425 1.393 . S
C422 H414 0.950 . S
C422 C420 1.391 . S
C422 C423 1.400 . S
C423 C422 1.400 . S
C423 C424 1.398 . S
C423 C429 1.491 . S
C424 H415 0.950 . S
C424 C423 1.398 . S
C424 C425 1.391 . S
C425 H413 0.950 . S
C425 C421 1.393 . S
C425 C424 1.391 . S
C426 H416 0.950 . S
C426 C427 1.386 . S
C426 C428 1.391 . S
C427 C426 1.386 . S
C427 C431 1.393 . S
C428 H417 0.950 . S
C428 C426 1.391 . S
C428 C429 1.400 . S
C429 C423 1.491 . S
C429 C428 1.400 . S
C429 C430 1.398 . S
C430 H418 0.950 . S
C430 C429 1.398 . S
C430 C431 1.391 . S
C431 H419 0.950 . S
C431 C427 1.393 . S
C431 C430 1.391 . S
H432 C440 0.950 . S
H433 C445 0.950 . S
H434 C442 0.950 . S
H435 C444 0.950 . S
H436 C446 0.950 . S
H437 C448 0.950 . S
H438 C450 0.950 . S
H439 C451 0.950 . S
C440 H432 0.950 . S
C440 C441 1.386 . S
C440 C442 1.391 . S
C441 C440 1.386 . S
C441 C445 1.393 . S
C442 H434 0.950 . S
C442 C440 1.391 . S
C442 C443 1.400 . S
C443 C442 1.400 . S
C443 C444 1.398 . S
C443 C449 1.491 . S
C444 H435 0.950 . S
C444 C443 1.398 . S
C444 C445 1.391 . S
C445 H433 0.950 . S
C445 C441 1.393 . S
C445 C444 1.391 . S
C446 H436 0.950 . S
C446 C447 1.386 . S
C446 C448 1.391 . S
C447 C446 1.386 . S
C447 C451 1.393 . S
C448 H437 0.950 . S
C448 C446 1.391 . S
C448 C449 1.400 . S
C449 C443 1.491 . S
C449 C448 1.400 . S
C449 C450 1.398 . S
C450 H438 0.950 . S
C450 C449 1.398 . S
C450 C451 1.391 . S
C451 H439 0.950 . S
C451 C447 1.393 . S
C451 C450 1.391 . S
H452 C460 0.950 . S
H453 C465 0.950 . S
H454 C462 0.950 . S
H455 C464 0.950 . S
H456 C466 0.950 . S
H457 C468 0.950 . S
H458 C470 0.950 . S
H459 C471 0.950 . S
C460 H452 0.950 . S
C460 C461 1.386 . S
C460 C462 1.391 . S
C461 C460 1.386 . S
C461 C465 1.393 . S
C462 H454 0.950 . S
C462 C460 1.391 . S
C462 C463 1.400 . S
C463 C462 1.400 . S
C463 C464 1.398 . S
C463 C469 1.491 . S
C464 H455 0.950 . S
C464 C463 1.398 . S
C464 C465 1.391 . S
C465 H453 0.950 . S
C465 C461 1.393 . S
C465 C464 1.391 . S
C466 H456 0.950 . S
C466 C467 1.386 . S
C466 C468 1.391 . S
C467 C466 1.386 . S
C467 C471 1.393 . S
C468 H457 0.950 . S
C468 C466 1.391 . S
C468 C469 1.400 . S
C469 C463 1.491 . S
C469 C468 1.400 . S
C469 C470 1.398 . S
C470 H458 0.950 . S
C470 C469 1.398 . S
C470 C471 1.391 . S
C471 H459 0.950 . S
C471 C467 1.393 . S
C471 C470 1.391 . S
H472 C480 0.950 . S
H473 C485 0.950 . S
H474 C482 0.950 . S
H475 C484 0.960 . S
H476 C486 0.950 . S
H477 C488 0.950 . S
H478 C490 0.950 . S
H479 C491 0.950 . S
C480 H472 0.950 . S
C480 C481 1.386 . S
C480 C482 1.391 . S
C481 C480 1.386 . S
C481 C485 1.393 1_545 S
C482 H474 0.950 . S
C482 C480 1.391 . S
C482 C483 1.400 . S
C483 C482 1.400 . S
C483 C484 1.389 1_545 S
C483 C489 1.491 1_455 S
C484 H475 0.960 . S
C484 C483 1.389 1_565 S
C484 C485 1.391 . S
C485 H473 0.950 . S
C485 C481 1.393 1_565 S
C485 C484 1.391 . S
C486 H476 0.950 . S
C486 C487 1.386 1_565 S
C486 C488 1.391 . S
C487 C486 1.386 1_545 S
C487 C491 1.393 . S
C488 H477 0.950 . S
C488 C486 1.391 . S
C488 C489 1.400 1_565 S
C489 C483 1.491 1_655 S
C489 C488 1.400 1_545 S
C489 C490 1.398 . S
C490 H478 0.950 . S
C490 C489 1.398 . S
C490 C491 1.391 . S
C491 H479 0.950 . S
C491 C487 1.393 . S
C491 C490 1.391 . S
H492 C500 0.950 . S
H493 C505 0.950 . S
H494 C502 0.950 . S
H495 C504 0.950 . S
H496 C506 0.950 . S
H497 C508 0.950 . S
H498 C510 0.950 . S
H499 C511 0.950 . S
C500 H492 0.950 . S
C500 C501 1.386 . S
C500 C502 1.391 . S
C501 C500 1.386 . S
C501 C505 1.393 . S
C502 H494 0.950 . S
C502 C500 1.391 . S
C502 C503 1.400 . S
C503 C502 1.400 . S
C503 C504 1.398 . S
C503 C509 1.491 1_655 S
C504 H495 0.950 . S
C504 C503 1.398 . S
C504 C505 1.391 . S
C505 H493 0.950 . S
C505 C501 1.393 . S
C505 C504 1.391 . S
C506 H496 0.950 . S
C506 C507 1.386 . S
C506 C508 1.391 . S
C507 C506 1.386 . S
C507 C511 1.393 . S
C508 H497 0.950 . S
C508 C506 1.391 . S
C508 C509 1.400 . S
C509 C503 1.491 1_455 S
C509 C508 1.400 . S
C509 C510 1.398 . S
C510 H498 0.950 . S
C510 C509 1.398 . S
C510 C511 1.391 . S
C511 H499 0.950 . S
C511 C507 1.393 . S
C511 C510 1.391 . S
H512 C520 0.950 . S
H513 C525 0.950 . S
H514 C522 0.950 . S
H515 C524 0.950 . S
H516 C526 0.950 . S
H517 C528 0.950 . S
H518 C530 0.950 . S
H519 C531 0.950 . S
C520 H512 0.950 . S
C520 C521 1.386 . S
C520 C522 1.391 . S
C521 C520 1.386 . S
C521 C525 1.393 . S
C522 H514 0.950 . S
C522 C520 1.391 . S
C522 C523 1.400 . S
C523 C522 1.400 . S
C523 C524 1.398 . S
C523 C529 1.491 . S
C524 H515 0.950 . S
C524 C523 1.398 . S
C524 C525 1.391 . S
C525 H513 0.950 . S
C525 C521 1.393 . S
C525 C524 1.391 . S
C526 H516 0.950 . S
C526 C527 1.386 . S
C526 C528 1.391 . S
C527 C526 1.386 . S
C527 C531 1.393 . S
C528 H517 0.950 . S
C528 C526 1.391 . S
C528 C529 1.400 . S
C529 C523 1.491 . S
C529 C528 1.400 . S
C529 C530 1.398 . S
C530 H518 0.950 . S
C530 C529 1.398 . S
C530 C531 1.391 . S
C531 H519 0.950 . S
C531 C527 1.393 . S
C531 C530 1.391 . S
H532 C540 0.965 . S
H533 C545 0.950 . S
H534 C542 0.950 . S
H535 C544 0.950 . S
H536 C546 0.950 . S
H537 C548 0.950 . S
H538 C550 0.950 . S
H539 C551 0.950 . S
C540 H532 0.965 . S
C540 C541 1.386 . S
C540 C542 1.391 . S
C541 C540 1.386 . S
C541 C545 1.393 . S
C542 H534 0.950 . S
C542 C540 1.391 . S
C542 C543 1.400 . S
C543 C542 1.400 . S
C543 C544 1.398 . S
C543 C549 1.491 . S
C544 H535 0.950 . S
C544 C543 1.398 . S
C544 C545 1.391 . S
C545 H533 0.950 . S
C545 C541 1.393 . S
C545 C544 1.391 . S
C546 H536 0.950 . S
C546 C547 1.386 . S
C546 C548 1.391 . S
C547 C546 1.386 . S
C547 C551 1.393 . S
C548 H537 0.950 . S
C548 C546 1.391 . S
C548 C549 1.400 . S
C549 C543 1.491 . S
C549 C548 1.400 . S
C549 C550 1.398 . S
C550 H538 0.950 . S
C550 C549 1.398 . S
C550 C551 1.391 . S
C551 H539 0.950 . S
C551 C547 1.393 . S
C551 C550 1.391 . S
H552 C560 0.950 . S
H553 C565 0.950 . S
H554 C562 0.950 . S
H555 C564 0.950 . S
H556 C566 0.950 . S
H557 C568 0.950 . S
H558 C570 0.950 . S
H559 C571 0.950 . S
C560 H552 0.950 . S
C560 C561 1.386 . S
C560 C562 1.391 . S
C561 C560 1.386 . S
C561 C565 1.393 . S
C562 H554 0.950 . S
C562 C560 1.391 . S
C562 C563 1.400 . S
C563 C562 1.400 . S
C563 C564 1.398 . S
C563 C569 1.491 . S
C564 H555 0.950 . S
C564 C563 1.398 . S
C564 C565 1.391 . S
C565 H553 0.950 . S
C565 C561 1.393 . S
C565 C564 1.391 . S
C566 H556 0.950 . S
C566 C567 1.386 . S
C566 C568 1.391 . S
C567 C566 1.386 . S
C567 C571 1.393 . S
C568 H557 0.950 . S
C568 C566 1.391 . S
C568 C569 1.400 . S
C569 C563 1.491 . S
C569 C568 1.400 . S
C569 C570 1.398 . S
C570 H558 0.950 . S
C570 C569 1.398 . S
C570 C571 1.391 . S
C571 H559 0.950 . S
C571 C567 1.393 . S
C571 C570 1.391 . S
H572 C580 0.950 . S
H573 C585 0.950 . S
H574 C582 0.950 . S
H575 C584 0.950 . S
H576 C586 0.950 . S
H577 C588 0.950 . S
H578 C590 0.950 . S
H579 C591 0.950 . S
C580 H572 0.950 . S
C580 C581 1.386 . S
C580 C582 1.391 . S
C581 C580 1.386 . S
C581 C585 1.393 . S
C582 H574 0.950 . S
C582 C580 1.391 . S
C582 C583 1.400 . S
C583 C582 1.400 . S
C583 C584 1.398 . S
C583 C589 1.491 . S
C584 H575 0.950 . S
C584 C583 1.398 . S
C584 C585 1.391 . S
C585 H573 0.950 . S
C585 C581 1.393 . S
C585 C584 1.391 . S
C586 H576 0.950 . S
C586 C587 1.386 . S
C586 C588 1.391 . S
C587 C586 1.386 . S
C587 C591 1.393 . S
C588 H577 0.950 . S
C588 C586 1.391 . S
C588 C589 1.400 . S
C589 C583 1.491 . S
C589 C588 1.400 . S
C589 C590 1.398 . S
C590 H578 0.950 . S
C590 C589 1.398 . S
C590 C591 1.391 . S
C591 H579 0.950 . S
C591 C587 1.393 . S
C591 C590 1.391 . S
H592 C600 0.950 . S
H593 C605 0.950 . S
H594 C602 0.950 . S
H595 C604 0.950 . S
H596 C606 0.950 . S
H597 C608 0.950 . S
H598 C610 0.950 . S
H599 C611 0.950 . S
C600 H592 0.950 . S
C600 C601 1.386 . S
C600 C602 1.391 . S
C601 C600 1.386 . S
C601 C605 1.393 . S
C602 H594 0.950 . S
C602 C600 1.391 . S
C602 C603 1.400 . S
C603 C602 1.400 . S
C603 C604 1.398 . S
C603 C609 1.491 . S
C604 H595 0.950 . S
C604 C603 1.398 . S
C604 C605 1.391 . S
C605 H593 0.950 . S
C605 C601 1.393 . S
C605 C604 1.391 . S
C606 H596 0.950 . S
C606 C607 1.386 . S
C606 C608 1.391 . S
C607 C606 1.386 . S
C607 C611 1.393 . S
C608 H597 0.950 . S
C608 C606 1.391 . S
C608 C609 1.400 . S
C609 C603 1.491 . S
C609 C608 1.400 . S
C609 C610 1.398 . S
C610 H598 0.950 . S
C610 C609 1.398 . S
C610 C611 1.391 . S
C611 H599 0.950 . S
C611 C607 1.393 . S
C611 C610 1.391 . S
H612 C620 0.950 . S
H613 C625 0.950 . S
H614 C622 0.950 . S
H615 C624 0.950 . S
H616 C626 0.950 . S
H617 C628 0.950 . S
H618 C630 0.950 . S
H619 C631 0.950 . S
C620 H612 0.950 . S
C620 C621 1.386 . S
C620 C622 1.391 . S
C621 C620 1.386 . S
C621 C625 1.393 . S
C622 H614 0.950 . S
C622 C620 1.391 . S
C622 C623 1.400 . S
C623 C622 1.400 . S
C623 C624 1.398 . S
C623 C629 1.491 . S
C624 H615 0.950 . S
C624 C623 1.398 . S
C624 C625 1.391 . S
C625 H613 0.950 . S
C625 C621 1.393 . S
C625 C624 1.391 . S
C626 H616 0.950 . S
C626 C627 1.386 . S
C626 C628 1.391 . S
C627 C626 1.386 . S
C627 C631 1.393 . S
C628 H617 0.950 . S
C628 C626 1.391 . S
C628 C629 1.400 . S
C629 C623 1.491 . S
C629 C628 1.400 . S
C629 C630 1.398 . S
C630 H618 0.950 . S
C630 C629 1.398 . S
C630 C631 1.391 . S
C631 H619 0.950 . S
C631 C627 1.393 . S
C631 C630 1.391 . S
H632 C640 0.950 . S
H633 C645 0.950 . S
H634 C642 0.950 . S
H635 C644 0.950 . S
H636 C646 0.950 . S
H637 C648 0.950 . S
H638 C650 0.950 . S
H639 C651 0.950 . S
C640 H632 0.950 . S
C640 C641 1.386 . S
C640 C642 1.391 . S
C641 C640 1.386 . S
C641 C645 1.393 . S
C642 H634 0.950 . S
C642 C640 1.391 . S
C642 C643 1.400 . S
C643 C642 1.400 . S
C643 C644 1.398 . S
C643 C649 1.491 . S
C644 H635 0.950 . S
C644 C643 1.398 . S
C644 C645 1.391 . S
C645 H633 0.950 . S
C645 C641 1.393 . S
C645 C644 1.391 . S
C646 H636 0.950 . S
C646 C647 1.386 . S
C646 C648 1.391 . S
C647 C646 1.386 . S
C647 C651 1.393 . S
C648 H637 0.950 . S
C648 C646 1.391 . S
C648 C649 1.400 . S
C649 C643 1.491 . S
C649 C648 1.400 . S
C649 C650 1.398 . S
C650 H638 0.950 . S
C650 C649 1.398 . S
C650 C651 1.391 . S
C651 H639 0.950 . S
C651 C647 1.393 . S
C651 C650 1.391 . S
H652 C660 0.950 . S
H653 C665 0.950 . S
H654 C662 0.950 . S
H655 C664 0.950 . S
H656 C666 0.950 . S
H657 C668 0.950 . S
H658 C670 0.950 . S
H659 C671 0.950 . S
C660 H652 0.950 . S
C660 C661 1.386 . S
C660 C662 1.391 . S
C661 C660 1.386 . S
C661 C665 1.393 . S
C662 H654 0.950 . S
C662 C660 1.391 . S
C662 C663 1.400 . S
C663 C662 1.400 . S
C663 C664 1.398 . S
C663 C669 1.491 . S
C664 H655 0.950 . S
C664 C663 1.398 . S
C664 C665 1.391 . S
C665 H653 0.950 . S
C665 C661 1.393 . S
C665 C664 1.391 . S
C666 H656 0.950 . S
C666 C667 1.386 . S
C666 C668 1.391 . S
C667 C666 1.386 . S
C667 C671 1.393 . S
C668 H657 0.950 . S
C668 C666 1.391 . S
C668 C669 1.400 . S
C669 C663 1.491 . S
C669 C668 1.400 . S
C669 C670 1.398 . S
C670 H658 0.950 . S
C670 C669 1.398 . S
C670 C671 1.391 . S
C671 H659 0.950 . S
C671 C667 1.393 . S
C671 C670 1.391 . S
C281 C77 1.515 . S
C287 C5 1.548 . S
C301 C43 1.503 . S
C307 C107 1.550 . S
C321 C73 1.550 . S
C327 C9 1.517 . S
C341 C111 1.500 . S
C347 C39 1.551 . S
C361 C141 1.549 . S
C367 C213 1.504 . S
C381 C243 1.548 . S
C387 C179 1.520 . S
C401 C145 1.518 . S
C407 C209 1.550 . S
C421 C175 1.552 . S
C427 C247 1.501 . S
C441 C54 1.429 . S
C447 C20 1.419 . S
C461 C88 1.419 . S
C467 C122 1.429 . S
C481 C190 1.423 . S
C487 C156 1.419 . S
C501 C224 1.427 . S
C507 C258 1.418 . S
C521 C240 0.820 . S
C527 C33 0.800 . S
C541 C237 0.809 . S
C547 C36 0.816 . S
C561 C271 0.822 . S
C567 C2 0.835 . S
C581 C67 0.830 . S
C587 C206 0.829 . S
C601 C172 0.832 . S
C607 C101 0.817 . S
C621 C104 0.828 . S
C627 C169 0.829 . S
C641 C203 0.810 . S
C647 C70 0.827 . S
C661 C135 0.798 . S
C667 C138 0.817 . S
