# Generated by pormake.
# Topology sml, (6)-cn, num edge types: 1
# Building blocks:
#     Node 0, Type 0, BuildingBlock: BETDEL_clean_sbu_0, # of connection points: 6
#     Node 1, Type 0, BuildingBlock: BETDEL_clean_sbu_0, # of connection points: 6
#     Node 2, Type 0, BuildingBlock: BETDEL_clean_sbu_0, # of connection points: 6
#     Node 3, Type 0, BuildingBlock: BETDEL_clean_sbu_0, # of connection points: 6
#     Node 4, Type 0, BuildingBlock: BETDEL_clean_sbu_0, # of connection points: 6
#     Node 5, Type 0, BuildingBlock: BETDEL_clean_sbu_0, # of connection points: 6
#     Edge 6, Type (0, 0), BuildingBlock: EZIPEK_clean_linker_0, # of connection points: 2
#     Edge 7, Type (0, 0), BuildingBlock: EZIPEK_clean_linker_0, # of connection points: 2
#     Edge 8, Type (0, 0), BuildingBlock: EZIPEK_clean_linker_0, # of connection points: 2
#     Edge 9, Type (0, 0), BuildingBlock: EZIPEK_clean_linker_0, # of connection points: 2
#     Edge 10, Type (0, 0), BuildingBlock: EZIPEK_clean_linker_0, # of connection points: 2
#     Edge 11, Type (0, 0), BuildingBlock: EZIPEK_clean_linker_0, # of connection points: 2
#     Edge 12, Type (0, 0), BuildingBlock: EZIPEK_clean_linker_0, # of connection points: 2
#     Edge 13, Type (0, 0), BuildingBlock: EZIPEK_clean_linker_0, # of connection points: 2
#     Edge 14, Type (0, 0), BuildingBlock: EZIPEK_clean_linker_0, # of connection points: 2
#     Edge 15, Type (0, 0), BuildingBlock: EZIPEK_clean_linker_0, # of connection points: 2
#     Edge 16, Type (0, 0), BuildingBlock: EZIPEK_clean_linker_0, # of connection points: 2
#     Edge 17, Type (0, 0), BuildingBlock: EZIPEK_clean_linker_0, # of connection points: 2
#     Edge 18, Type (0, 0), BuildingBlock: EZIPEK_clean_linker_0, # of connection points: 2
#     Edge 19, Type (0, 0), BuildingBlock: EZIPEK_clean_linker_0, # of connection points: 2
#     Edge 20, Type (0, 0), BuildingBlock: EZIPEK_clean_linker_0, # of connection points: 2
#     Edge 21, Type (0, 0), BuildingBlock: EZIPEK_clean_linker_0, # of connection points: 2
#     Edge 22, Type (0, 0), BuildingBlock: EZIPEK_clean_linker_0, # of connection points: 2
#     Edge 23, Type (0, 0), BuildingBlock: EZIPEK_clean_linker_0, # of connection points: 2
# Relax obj value: 0.145
# Max RMSD: 0.181
# Mean RMSD: 0.181
data_MOF--net-sml--node1-BETDEL_clean_sbu_0--edge1-EZIPEK_clean_linker_0
_symmetry_space_group_name_H-M    P1
_symmetry_Int_Tables_number       1
_symmetry_cell_setting            triclinic
loop_
_symmetry_equiv_pos_as_xyz
'x, y, z'
_cell_length_a     25.928558
_cell_length_b     25.899594
_cell_length_c     13.810636
_cell_angle_alpha  90.207493
_cell_angle_beta   89.905315
_cell_angle_gamma 119.87669
loop_
_atom_site_label
_atom_site_type_symbol
_atom_site_fract_x
_atom_site_fract_y
_atom_site_fract_z
_atom_type_partial_charge
Dy0 Dy 0.16248 0.41899 0.08396 0.0
C1 C 0.21066 0.4227 0.48137 0.0
C2 C 0.16503 0.42667 0.88787 0.0
Dy3 Dy 0.21194 0.41896 0.2853 0.0
O4 O 0.12673 0.38048 0.93674 0.0
O5 O 0.19925 0.4695 0.94613 0.0
O6 O 0.06975 0.37698 0.14432 0.0
O7 O 0.13202 0.35787 0.20659 0.0
C8 C 0.08022 0.35005 0.21495 0.0
C9 C 0.29381 0.48242 0.15263 0.0
O10 O 0.20363 0.33451 0.22659 0.0
O11 O 0.20625 0.36321 0.06796 0.0
O12 O 0.24958 0.41581 0.43129 0.0
O13 O 0.17301 0.42637 0.42464 0.0
O14 O 0.30598 0.46054 0.22829 0.0
O15 O 0.24317 0.47726 0.16219 0.0
O16 O 0.15499 0.4957 0.1425 0.0
O17 O 0.18477 0.48875 0.29845 0.0
C18 C 0.21203 0.32927 0.13341 0.0
C19 C 0.16512 0.51284 0.23443 0.0
Dy20 Dy 0.81746 0.24057 0.6352 0.0
C21 C 0.76646 0.19235 0.23627 0.0
C22 C 0.80779 0.24354 0.83047 0.0
Dy23 Dy 0.76984 0.19095 0.43274 0.0
O24 O 0.8561 0.25362 0.78524 0.0
O25 O 0.76668 0.23522 0.76903 0.0
O26 O 0.91067 0.29181 0.57775 0.0
O27 O 0.84952 0.21065 0.51271 0.0
C28 C 0.90112 0.25512 0.50599 0.0
C29 C 0.68708 0.17288 0.5646 0.0
O30 O 0.78122 0.11653 0.48998 0.0
O31 O 0.78054 0.14222 0.6503 0.0
O32 O 0.73036 0.1468 0.28897 0.0
O33 O 0.80376 0.23557 0.29062 0.0
O34 O 0.67573 0.13863 0.48936 0.0
O35 O 0.73743 0.21866 0.55494 0.0
O36 O 0.82483 0.32396 0.57648 0.0
O37 O 0.8027 0.28877 0.41798 0.0
C38 C 0.77401 0.10293 0.58313 0.0
C39 C 0.81982 0.33184 0.48296 0.0
Dy40 Dy 0.56326 0.73294 0.73093 0.0
C41 C 0.57999 0.80536 0.13395 0.0
C42 C 0.54862 0.72288 0.53377 0.0
Dy43 Dy 0.56823 0.79416 0.93776 0.0
O44 O 0.59552 0.73069 0.58039 0.0
O45 O 0.50711 0.71348 0.5962 0.0
O46 O 0.63838 0.71717 0.77293 0.0
O47 O 0.58772 0.72835 0.87833 0.0
C48 C 0.63489 0.72683 0.86502 0.0
C49 C 0.49408 0.79682 0.80433 0.0
O50 O 0.64297 0.87357 0.86315 0.0
O51 O 0.6362 0.82698 0.71404 0.0
O52 O 0.53545 0.80162 0.08481 0.0
O53 O 0.62141 0.81041 0.0746 0.0
O54 O 0.48939 0.80522 0.89644 0.0
O55 O 0.54229 0.79738 0.79069 0.0
O56 O 0.48162 0.65755 0.80242 0.0
O57 O 0.50288 0.69808 0.95883 0.0
C58 C 0.65833 0.87466 0.77049 0.0
C59 C 0.46968 0.65499 0.89716 0.0
Dy60 Dy 0.73956 0.57737 0.3126 0.0
C61 C 0.80621 0.58954 0.91607 0.0
C62 C 0.74171 0.57642 0.51097 0.0
Dy63 Dy 0.79561 0.57404 0.11328 0.0
O64 O 0.71057 0.5936 0.45999 0.0
O65 O 0.76831 0.55768 0.4535 0.0
O66 O 0.68628 0.61524 0.24639 0.0
O67 O 0.76655 0.63116 0.18163 0.0
C68 C 0.72005 0.635 0.16973 0.0
C69 C 0.81034 0.51128 0.25324 0.0
O70 O 0.87968 0.6421 0.18482 0.0
O71 O 0.83521 0.64948 0.32764 0.0
O72 O 0.78679 0.53924 0.96139 0.0
O73 O 0.82417 0.63191 0.97985 0.0
O74 O 0.8445 0.53085 0.17625 0.0
O75 O 0.76666 0.5197 0.24111 0.0
O76 O 0.65908 0.49559 0.25316 0.0
O77 O 0.70195 0.49684 0.10362 0.0
C78 C 0.88264 0.66371 0.27322 0.0
C79 C 0.65623 0.47486 0.1639 0.0
Dy80 Dy 0.25845 0.84299 0.39097 0.0
C81 C 0.21414 0.80986 0.78857 0.0
C82 C 0.26292 0.85192 0.19537 0.0
Dy83 Dy 0.20885 0.79585 0.59489 0.0
O84 O 0.23865 0.87385 0.25189 0.0
O85 O 0.28778 0.8281 0.24574 0.0
O86 O 0.31279 0.93669 0.44813 0.0
O87 O 0.23263 0.8763 0.51489 0.0
C88 C 0.27839 0.92698 0.52266 0.0
C89 C 0.18836 0.70933 0.46405 0.0
O90 O 0.13235 0.80163 0.53527 0.0
O91 O 0.15797 0.79211 0.37885 0.0
O92 O 0.17615 0.76077 0.74458 0.0
O93 O 0.24683 0.85073 0.72705 0.0
O94 O 0.1575 0.70024 0.54353 0.0
O95 O 0.23264 0.76134 0.46931 0.0
O96 O 0.3389 0.84082 0.45081 0.0
O97 O 0.3016 0.81295 0.60718 0.0
C98 C 0.11807 0.78809 0.4432 0.0
C99 C 0.34422 0.8282 0.54239 0.0
Dy100 Dy 0.42097 0.1644 0.98662 0.0
C101 C 0.40357 0.21573 0.58244 0.0
C102 C 0.43491 0.1657 0.18252 0.0
Dy103 Dy 0.41509 0.21706 0.77847 0.0
O104 O 0.38722 0.12892 0.13524 0.0
O105 O 0.47742 0.19745 0.12149 0.0
O106 O 0.34279 0.07391 0.94703 0.0
O107 O 0.39504 0.13277 0.84092 0.0
C108 C 0.34724 0.08515 0.85444 0.0
C109 C 0.49341 0.29584 0.90598 0.0
O110 O 0.34016 0.22289 0.85145 0.0
O111 O 0.35662 0.19759 1.00657 0.0
O112 O 0.44729 0.25732 0.63187 0.0
O113 O 0.36271 0.17827 0.64134 0.0
O114 O 0.49609 0.30642 0.81334 0.0
O115 O 0.44461 0.24967 0.92371 0.0
O116 O 0.50126 0.16717 0.91474 0.0
O117 O 0.47764 0.1823 0.7579 0.0
C118 C 0.32969 0.21662 0.94662 0.0
C119 C 0.51166 0.17352 0.81938 0.0
C120 C 0.23664 0.22484 0.96918 0.0
C121 C 0.29611 0.24248 0.99487 0.0
C122 C 0.28969 0.29895 0.13344 0.0
C123 C 0.2342 0.28938 0.09916 0.0
N124 N 0.15285 0.24174 0.98619 0.0
N125 N 0.38319 0.30776 0.09019 0.0
C126 C 0.20706 0.25174 0.01741 0.0
C127 C 0.32345 0.28223 0.0743 0.0
N128 N 0.20784 0.18104 0.90161 0.0
N129 N 0.31148 0.32481 0.22166 0.0
H130 H 0.41092 0.29863 0.04848 0.0
H131 H 0.40658 0.34329 0.13772 0.0
H132 H 0.29042 0.33985 0.26842 0.0
H133 H 0.34825 0.32563 0.25368 0.0
H134 H 0.16269 0.1619 0.8862 0.0
H135 H 0.22823 0.16054 0.86558 0.0
H136 H 0.13391 0.22146 0.92039 0.0
H137 H 0.12758 0.25585 0.02524 0.0
C138 C 0.97377 0.27565 0.26112 0.0
C139 C 0.03472 0.30944 0.28664 0.0
C140 C 0.00795 0.2909 0.45799 0.0
C141 C 0.94694 0.26255 0.43277 0.0
N142 N 0.88039 0.19369 0.3127 0.0
N143 N 0.10246 0.30646 0.40346 0.0
C144 C 0.93145 0.24464 0.3349 0.0
C145 C 0.05056 0.30521 0.38347 0.0
N146 N 0.95601 0.2697 0.16682 0.0
N147 N 0.02561 0.3011 0.5525 0.0
H148 H 0.13114 0.3083 0.3497 0.0
H149 H 0.1122 0.29663 0.47182 0.0
H150 H -0.00392 0.28304 0.6103 0.0
H151 H 0.07011 0.32781 0.57231 0.0
H152 H 0.91134 0.25103 0.14737 0.0
H153 H 0.98558 0.28316 0.10878 0.0
H154 H 0.87095 0.17569 0.24303 0.0
H155 H 0.85225 0.16526 0.36538 0.0
C156 C 0.77948 0.03032 0.69583 0.0
C157 C 0.75194 0.04117 0.61548 0.0
C158 C 0.66577 0.94192 0.63366 0.0
C159 C 0.69146 0.93212 0.71841 0.0
N160 N 0.77804 0.96838 0.82331 0.0
N161 N 0.66706 0.00114 0.50427 0.0
C162 C 0.74932 0.97638 0.74744 0.0
C163 C 0.69595 0.99531 0.58234 0.0
N164 N 0.83561 0.07074 0.7247 0.0
N165 N 0.61049 0.90242 0.59985 0.0
H166 H 0.6833 0.03817 0.45939 0.0
H167 H 0.6833 0.03817 0.45939 0.0
H168 H 0.58076 0.86217 0.632 0.0
H169 H 0.58076 0.86217 0.632 0.0
H170 H 0.86249 0.11088 0.68899 0.0
H171 H 0.86249 0.11088 0.68899 0.0
H172 H 0.76026 0.92966 0.86478 0.0
H173 H 0.76026 0.92966 0.86478 0.0
C174 C 0.64419 0.64521 0.94274 0.0
C175 C 0.66031 0.70591 0.94105 0.0
C176 C 0.71871 0.72265 0.0899 0.0
C177 C 0.70699 0.66303 0.08543 0.0
N178 N 0.67824 0.57781 0.98382 0.0
N179 N 0.72279 0.80557 1.00131 0.0
C180 C 0.67487 0.62701 1.00544 0.0
C181 C 0.70058 0.74577 0.01128 0.0
N182 N 0.59949 0.60449 0.88512 0.0
N183 N 0.74637 0.75686 0.16923 0.0
H184 H 0.71035 0.82346 0.94441 0.0
H185 H 0.75649 0.83724 0.04503 0.0
H186 H 0.76227 0.74194 0.22569 0.0
H187 H 0.75027 0.7984 0.18129 0.0
H188 H 0.58291 0.55877 0.89114 0.0
H189 H 0.57513 0.61555 0.83813 0.0
H190 H 0.6589 0.55122 0.92288 0.0
H191 H 0.7109 0.57256 0.01656 0.0
C192 C 0.04306 0.7856 0.32448 0.0
C193 C 0.05523 0.76284 0.41003 0.0
C194 C 0.95421 0.67679 0.40569 0.0
C195 C 0.94179 0.69936 0.32047 0.0
N196 N 0.96978 0.77956 0.20789 0.0
N197 N 0.01647 0.69386 0.54505 0.0
C198 C 0.98503 0.75504 0.28221 0.0
C199 C 0.0089 0.71121 0.45523 0.0
N200 N 0.08711 0.83688 0.28422 0.0
N201 N 0.91554 0.6201 0.4359 0.0
H202 H 0.05653 0.71237 0.58218 0.0
H203 H 0.98118 0.66272 0.58673 0.0
H204 H 0.87554 0.59224 0.40138 0.0
H205 H 0.92572 0.59797 0.48874 0.0
H206 H 0.08457 0.85189 0.21559 0.0
H207 H 0.12746 0.86413 0.3191 0.0
H208 H -0.00303 0.82239 0.18166 0.0
H209 H 0.92761 0.75839 0.17632 0.0
C210 C 0.27355 0.02826 0.72192 0.0
C211 C 0.32305 0.03807 0.77893 0.0
C212 C 0.34584 0.98006 0.66454 0.0
C213 C 0.29407 0.96637 0.60988 0.0
N214 N 0.20411 0.97163 0.59333 0.0
N215 N 0.39602 0.00992 0.81905 0.0
C216 C 0.25618 0.98829 0.64123 0.0
C217 C 0.35579 0.00961 0.75484 0.0
N218 N 0.24439 0.05862 0.74322 0.0
N219 N 0.387 0.96677 0.62946 0.0
H220 H 0.40481 0.03123 0.88612 0.0
H221 H 0.41596 0.98381 0.81022 0.0
H222 H 0.38215 0.9453 0.56394 0.0
H223 H 0.42878 0.98271 0.66077 0.0
H224 H 0.21246 0.05922 0.6984 0.0
H225 H 0.25466 0.08605 0.80403 0.0
H226 H 0.17154 0.98057 0.61882 0.0
H227 H 0.19183 0.946 0.53026 0.0
C228 C 0.19487 0.38457 0.74899 0.0
C229 C 0.17851 0.42613 0.78411 0.0
C230 C 0.20106 0.47449 0.62595 0.0
C231 C 0.20813 0.42746 0.58745 0.0
N232 N 0.20568 0.3338 0.60993 0.0
N233 N 0.16062 0.50755 0.75461 0.0
C234 C 0.20384 0.38159 0.64827 0.0
C235 C 0.1804 0.4705 0.7223 0.0
N236 N 0.20479 0.3499 0.81205 0.0
N237 N 0.21597 0.52387 0.57113 0.0
H238 H 0.14492 0.50573 0.82484 0.0
H239 H 0.15491 0.53651 0.70963 0.0
H240 H 0.23357 0.52932 0.50147 0.0
H241 H 0.21697 0.56198 0.59802 0.0
H242 H 0.22314 0.32375 0.79137 0.0
H243 H 0.20053 0.35177 0.88661 0.0
H244 H 0.19491 0.29552 0.64941 0.0
H245 H 0.21359 0.33019 0.53696 0.0
C246 C 0.77937 0.16156 0.07021 0.0
C247 C 0.76597 0.19786 0.13001 0.0
C248 C 0.7753 0.26124 0.99162 0.0
C249 C 0.79522 0.22902 0.93427 0.0
N250 N 0.81378 0.14686 0.91458 0.0
N251 N 0.7474 0.27966 0.1505 0.0
C252 C 0.79641 0.17856 0.97227 0.0
C253 C 0.76236 0.24669 0.09114 0.0
N254 N 0.77527 0.11066 0.107 0.0
N255 N 0.76841 0.30545 0.95048 0.0
H256 H 0.73183 0.26677 0.22099 0.0
H257 H 0.75131 0.3203 0.13158 0.0
H258 H 0.78152 0.32036 0.87984 0.0
H259 H 0.74745 0.32602 0.98419 0.0
H260 H 0.77885 0.07886 0.06597 0.0
H261 H 0.76418 0.09756 0.17874 0.0
H262 H 0.82293 0.11448 0.93967 0.0
H263 H 0.82112 0.15389 0.8405 0.0
C264 C 0.57202 0.71473 0.35856 0.0
C265 C 0.5501 0.73912 0.42906 0.0
C266 C 0.55638 0.81215 0.30826 0.0
C267 C 0.57372 0.78483 0.23642 0.0
N268 N 0.58235 0.69942 0.18826 0.0
N269 N 0.50881 0.80356 0.46192 0.0
C270 C 0.57761 0.73334 0.2601 0.0
C271 C 0.53815 0.78527 0.40116 0.0
N272 N 0.58678 0.67292 0.38502 0.0
N273 N 0.55951 0.86542 0.28906 0.0
H274 H 0.49551 0.78743 0.53132 0.0
H275 H 0.49267 0.83129 0.43991 0.0
H276 H 0.57308 0.88666 0.2222 0.0
H277 H 0.55456 0.89141 0.34198 0.0
H278 H 0.61067 0.65981 0.34036 0.0
H279 H 0.57778 0.65341 0.45342 0.0
H280 H 0.57935 0.65835 0.20056 0.0
H281 H 0.58284 0.70861 0.11488 0.0
C282 C 0.78895 0.54637 0.75033 0.0
C283 C 0.7955 0.59359 0.81051 0.0
C284 C 0.76727 0.63367 0.67079 0.0
C285 C 0.75177 0.58087 0.61768 0.0
N286 N 0.72939 0.47901 0.62453 0.0
N287 N 0.77933 0.67844 0.82856 0.0
C288 C 0.75713 0.53491 0.66278 0.0
C289 C 0.78154 0.63645 0.77135 0.0
N290 N 0.81446 0.51308 0.77479 0.0
N291 N 0.77107 0.68225 0.62551 0.0
H292 H 0.79032 0.68499 0.90138 0.0
H293 H 0.76159 0.70446 0.80452 0.0
H294 H 0.76152 0.68273 0.55248 0.0
H295 H 0.78886 0.72384 0.6588 0.0
H296 H 0.81375 0.48069 0.72876 0.0
H297 H 0.84263 0.52316 0.83435 0.0
H298 H 0.72734 0.44306 0.66169 0.0
H299 H 0.70164 0.46782 0.56424 0.0
C300 C 0.28458 0.84025 0.92733 0.0
C301 C 0.22537 0.81716 0.89321 0.0
C302 C 0.19028 0.80985 0.05881 0.0
C303 C 0.25029 0.84104 0.09132 0.0
N304 N 0.35521 0.89363 0.05518 0.0
N305 N 0.12319 0.78954 0.92446 0.0
C306 C 0.29774 0.85848 0.0252 0.0
C307 C 0.17846 0.80456 0.95826 0.0
N308 N 0.32762 0.84207 0.86767 0.0
N309 N 0.14458 0.78221 0.12334 0.0
H310 H 0.11271 0.78557 0.85096 0.0
H311 H 0.08932 0.78641 0.96914 0.0
H312 H 0.15123 0.78135 0.19739 0.0
H313 H 0.10055 0.75433 0.10247 0.0
H314 H 0.37008 0.85341 0.89153 0.0
H315 H 0.3191 0.82574 0.79699 0.0
H316 H 0.39111 0.91295 1.00754 0.0
H317 H 0.36651 0.90797 0.12667 0.0
C318 C 0.41158 0.14915 0.45631 0.0
C319 C 0.41068 0.20234 0.47978 0.0
C320 C 0.43965 0.23712 0.31248 0.0
C321 C 0.43328 0.18082 0.28645 0.0
N322 N 0.40748 0.08104 0.33165 0.0
N323 N 0.4178 0.29432 0.42872 0.0
C324 C 0.41725 0.13616 0.35783 0.0
C325 C 0.42357 0.2458 0.40753 0.0
N326 N 0.41102 0.11274 0.52831 0.0
N327 N 0.46068 0.28247 0.24676 0.0
H328 H 0.40556 0.30176 0.49711 0.0
H329 H 0.42008 0.32458 0.37713 0.0
H330 H 0.4688 0.27785 0.1745 0.0
H331 H 0.47406 0.32638 0.26528 0.0
H332 H 0.41885 0.07754 0.51612 0.0
H333 H 0.40892 0.12084 0.60166 0.0
H334 H 0.38837 0.04445 0.37769 0.0
H335 H 0.41543 0.07091 0.26198 0.0
C336 C 0.11845 0.55562 0.34451 0.0
C337 C 0.15925 0.56391 0.2698 0.0
C338 C 0.21861 0.66887 0.31387 0.0
C339 C 0.17668 0.66202 0.38798 0.0
N340 N 0.07347 0.60202 0.43705 0.0
N341 N 0.23354 0.63287 0.16021 0.0
C342 C 0.12239 0.60631 0.39219 0.0
C343 C 0.20383 0.6221 0.24608 0.0
N344 N 0.07585 0.49943 0.37009 0.0
N345 N 0.27443 0.71696 0.31052 0.0
H346 H 0.22432 0.59955 0.10936 0.0
H347 H 0.26259 0.67583 0.13554 0.0
H348 H 0.29047 0.75204 0.35833 0.0
H349 H 0.30756 0.71913 0.26493 0.0
H350 H 0.0495 0.49066 0.4317 0.0
H351 H 0.06928 0.46161 0.33236 0.0
H352 H 0.03268 0.5627 0.43983 0.0
H353 H 0.07099 0.6393 0.45822 0.0
C354 C 0.61838 0.12718 0.70894 0.0
C355 C 0.64127 0.16961 0.63259 0.0
C356 C 0.59478 0.22208 0.70349 0.0
C357 C 0.56498 0.17625 0.77299 0.0
N358 N 0.54523 0.08185 0.83781 0.0
N359 N 0.63287 0.24379 0.5409 0.0
C360 C 0.57627 0.12793 0.77549 0.0
C361 C 0.62429 0.21319 0.62523 0.0
N362 N 0.63673 0.08636 0.71762 0.0
N363 N 0.59523 0.27477 0.71249 0.0
H364 H 0.65315 0.23743 0.48022 0.0
H365 H 0.61396 0.27051 0.52845 0.0
H366 H 0.57676 0.28425 0.77205 0.0
H367 H 0.61986 0.31097 0.66703 0.0
H368 H 0.62729 0.05867 0.77739 0.0
H369 H 0.66373 0.08209 0.66609 0.0
H370 H 0.54612 0.04212 0.83532 0.0
H371 H 0.51633 0.0824 0.88971 0.0
C372 C 0.36493 0.50459 0.01244 0.0
C373 C 0.33871 0.52438 0.08344 0.0
C374 C 0.38318 0.62148 1.00635 0.0
C375 C 0.41578 0.60512 0.94243 0.0
N376 N 0.4394 0.53126 0.88596 0.0
N377 N 0.33659 0.60627 0.16274 0.0
C378 C 0.40658 0.54633 0.94481 0.0
C379 C 0.35136 0.58398 0.08419 0.0
N380 N 0.35002 0.44609 0.00984 0.0
N381 N 0.38273 0.67345 0.99289 0.0
H382 H 0.31518 0.5809 0.22373 0.0
H383 H 0.35164 0.65153 0.17203 0.0
H384 H 0.40544 0.70247 0.93662 0.0
H385 H 0.35499 0.68454 0.03146 0.0
H386 H 0.36159 0.42687 0.95373 0.0
H387 H 0.32376 0.41602 0.06291 0.0
H388 H 0.43989 0.49147 0.8912 0.0
H389 H 0.46791 0.55965 0.833 0.0
C390 C 0.87307 0.42594 0.38651 0.0
C391 C 0.82542 0.38819 0.44767 0.0
C392 C 0.76863 0.43488 0.39347 0.0
C393 C 0.81686 0.47418 0.33174 0.0
N394 N 0.92303 0.52007 0.30273 0.0
N395 N 0.73541 0.36674 0.52933 0.0
C396 C 0.87165 0.47375 0.3385 0.0
C397 C 0.77599 0.39639 0.45791 0.0
N398 N 0.91927 0.41549 0.37272 0.0
N399 N 0.71472 0.43178 0.38971 0.0
H400 H 0.74068 0.34025 0.58045 0.0
H401 H 0.69875 0.37173 0.54328 0.0
H402 H 0.70794 0.46468 0.36191 0.0
H403 H 0.67561 0.39546 0.41498 0.0
H404 H 0.95114 0.4363 0.31877 0.0
H405 H 0.92338 0.38314 0.4113 0.0
H406 H 0.96435 0.52292 0.30936 0.0
H407 H 0.92602 0.55938 0.27786 0.0
C408 C 0.44685 0.86893 0.60856 0.0
C409 C 0.39367 0.81955 0.57586 0.0
C410 C 0.40965 0.7539 0.68389 0.0
C411 C 0.45917 0.8046 0.72574 0.0
N412 N 0.52106 0.91157 0.73536 0.0
N413 N 0.33328 0.71383 0.55921 0.0
C414 C 0.47691 0.86253 0.68983 0.0
C415 C 0.37819 0.76153 0.60625 0.0
N416 N 0.47026 0.92076 0.55776 0.0
N417 N 0.39051 0.69887 0.72229 0.0
H418 H 0.3105 0.71916 0.50164 0.0
H419 H 0.32185 0.66971 0.57043 0.0
H420 H 0.41198 0.69217 0.77967 0.0
H421 H 0.35148 0.66055 0.70272 0.0
H422 H 0.51187 0.95749 0.57211 0.0
H423 H 0.45028 0.92389 0.49415 0.0
H424 H 0.53155 0.9549 0.71857 0.0
H425 H 0.54485 0.90877 0.79399 0.0
C426 C 0.60359 0.36987 0.11239 0.0
C427 C 0.60168 0.42292 0.12577 0.0
C428 C 0.52348 0.39023 1.00179 0.0
C429 C 0.53112 0.34058 0.98057 0.0
N430 N 0.58943 0.29244 1.00063 0.0
N431 N 0.55947 0.48442 0.08798 0.0
C432 C 0.57351 0.33235 0.03277 0.0
C433 C 0.5607 0.43288 0.07272 0.0
N434 N 0.63607 0.35652 0.17457 0.0
N435 N 0.48084 0.39655 0.95393 0.0
H436 H 0.58414 0.51434 0.14295 0.0
H437 H 0.53565 0.49851 0.04578 0.0
H438 H 0.45421 0.36731 0.89971 0.0
H439 H 0.46862 0.42791 0.97235 0.0
H440 H 0.63498 0.31575 0.17472 0.0
H441 H 0.65934 0.38435 0.23223 0.0
H442 H 0.62383 0.28789 0.0304 0.0
H443 H 0.57372 0.26987 0.9357 0.0
loop_
_geom_bond_atom_site_label_1
_geom_bond_atom_site_label_2
_geom_bond_distance
_geom_bond_site_symmetry_2
_ccdc_geom_bond_type
Dy0 O4 2.398 . S
Dy0 O5 2.491 . S
Dy0 O6 2.403 . S
Dy0 O7 2.664 . S
Dy0 O11 2.326 . S
Dy0 O15 2.310 . S
Dy0 O16 2.351 . S
C1 O12 1.185 . S
C1 O13 1.355 . S
C2 O4 1.185 1_556 S
C2 O5 1.355 1_556 S
Dy3 O7 2.310 . S
Dy3 O10 2.351 . S
Dy3 O12 2.398 . S
Dy3 O13 2.491 . S
Dy3 O14 2.403 . S
Dy3 O15 2.664 . S
Dy3 O17 2.326 . S
O4 Dy0 2.398 . S
O4 C2 1.185 1_554 S
O5 Dy0 2.491 . S
O5 C2 1.355 1_554 S
O6 Dy0 2.403 . S
O6 C8 1.254 . S
O7 Dy0 2.664 . S
O7 Dy3 2.310 . S
O7 C8 1.268 . S
C8 O6 1.254 . S
C8 O7 1.268 . S
C9 O14 1.254 . S
C9 O15 1.268 . S
O10 Dy3 2.351 . S
O10 C18 1.249 . S
O11 Dy0 2.326 . S
O11 C18 1.267 . S
O12 C1 1.185 . S
O12 Dy3 2.398 . S
O13 C1 1.355 . S
O13 Dy3 2.491 . S
O14 Dy3 2.403 . S
O14 C9 1.254 . S
O15 Dy0 2.310 . S
O15 Dy3 2.664 . S
O15 C9 1.268 . S
O16 Dy0 2.351 . S
O16 C19 1.249 . S
O17 Dy3 2.326 . S
O17 C19 1.267 . S
C18 O10 1.249 . S
C18 O11 1.267 . S
C19 O16 1.249 . S
C19 O17 1.267 . S
Dy20 O24 2.398 . S
Dy20 O25 2.491 . S
Dy20 O26 2.403 . S
Dy20 O27 2.664 . S
Dy20 O31 2.326 . S
Dy20 O35 2.310 . S
Dy20 O36 2.351 . S
C21 O32 1.185 . S
C21 O33 1.355 . S
C22 O24 1.185 . S
C22 O25 1.355 . S
Dy23 O27 2.310 . S
Dy23 O30 2.351 . S
Dy23 O32 2.398 . S
Dy23 O33 2.491 . S
Dy23 O34 2.403 . S
Dy23 O35 2.664 . S
Dy23 O37 2.326 . S
O24 Dy20 2.398 . S
O24 C22 1.185 . S
O25 Dy20 2.491 . S
O25 C22 1.355 . S
O26 Dy20 2.403 . S
O26 C28 1.254 . S
O27 Dy20 2.664 . S
O27 Dy23 2.310 . S
O27 C28 1.268 . S
C28 O26 1.254 . S
C28 O27 1.268 . S
C29 O34 1.254 . S
C29 O35 1.268 . S
O30 Dy23 2.351 . S
O30 C38 1.249 . S
O31 Dy20 2.326 . S
O31 C38 1.267 . S
O32 C21 1.185 . S
O32 Dy23 2.398 . S
O33 C21 1.355 . S
O33 Dy23 2.491 . S
O34 Dy23 2.403 . S
O34 C29 1.254 . S
O35 Dy20 2.310 . S
O35 Dy23 2.664 . S
O35 C29 1.268 . S
O36 Dy20 2.351 . S
O36 C39 1.249 . S
O37 Dy23 2.326 . S
O37 C39 1.267 . S
C38 O30 1.249 . S
C38 O31 1.267 . S
C39 O36 1.249 . S
C39 O37 1.267 . S
Dy40 O44 2.398 . S
Dy40 O45 2.491 . S
Dy40 O46 2.403 . S
Dy40 O47 2.664 . S
Dy40 O51 2.326 . S
Dy40 O55 2.310 . S
Dy40 O56 2.351 . S
C41 O52 1.185 . S
C41 O53 1.355 . S
C42 O44 1.185 . S
C42 O45 1.355 . S
Dy43 O47 2.310 1_554 S
Dy43 O50 2.351 1_554 S
Dy43 O52 2.398 . S
Dy43 O53 2.491 . S
Dy43 O54 2.403 . S
Dy43 O55 2.664 1_554 S
Dy43 O57 2.326 . S
O44 Dy40 2.398 . S
O44 C42 1.185 . S
O45 Dy40 2.491 . S
O45 C42 1.355 . S
O46 Dy40 2.403 . S
O46 C48 1.254 . S
O47 Dy40 2.664 . S
O47 Dy43 2.310 1_556 S
O47 C48 1.268 . S
C48 O46 1.254 . S
C48 O47 1.268 . S
C49 O54 1.254 1_556 S
C49 O55 1.268 . S
O50 Dy43 2.351 1_556 S
O50 C58 1.249 . S
O51 Dy40 2.326 . S
O51 C58 1.267 . S
O52 C41 1.185 . S
O52 Dy43 2.398 . S
O53 C41 1.355 . S
O53 Dy43 2.491 . S
O54 Dy43 2.403 . S
O54 C49 1.254 1_554 S
O55 Dy40 2.310 . S
O55 Dy43 2.664 1_556 S
O55 C49 1.268 . S
O56 Dy40 2.351 . S
O56 C59 1.249 1_556 S
O57 Dy43 2.326 . S
O57 C59 1.267 . S
C58 O50 1.249 . S
C58 O51 1.267 . S
C59 O56 1.249 1_554 S
C59 O57 1.267 . S
Dy60 O64 2.398 . S
Dy60 O65 2.491 . S
Dy60 O66 2.403 . S
Dy60 O67 2.664 . S
Dy60 O71 2.326 . S
Dy60 O75 2.310 . S
Dy60 O76 2.351 . S
C61 O72 1.185 . S
C61 O73 1.355 . S
C62 O64 1.185 . S
C62 O65 1.355 . S
Dy63 O67 2.310 1_556 S
Dy63 O70 2.351 1_556 S
Dy63 O72 2.398 . S
Dy63 O73 2.491 . S
Dy63 O74 2.403 1_556 S
Dy63 O75 2.664 1_556 S
Dy63 O77 2.326 . S
O64 Dy60 2.398 . S
O64 C62 1.185 . S
O65 Dy60 2.491 . S
O65 C62 1.355 . S
O66 Dy60 2.403 . S
O66 C68 1.254 . S
O67 Dy60 2.664 . S
O67 Dy63 2.310 1_554 S
O67 C68 1.268 . S
C68 O66 1.254 . S
C68 O67 1.268 . S
C69 O74 1.254 . S
C69 O75 1.268 . S
O70 Dy63 2.351 1_554 S
O70 C78 1.249 . S
O71 Dy60 2.326 . S
O71 C78 1.267 . S
O72 C61 1.185 . S
O72 Dy63 2.398 . S
O73 C61 1.355 . S
O73 Dy63 2.491 . S
O74 Dy63 2.403 1_554 S
O74 C69 1.254 . S
O75 Dy60 2.310 . S
O75 Dy63 2.664 1_554 S
O75 C69 1.268 . S
O76 Dy60 2.351 . S
O76 C79 1.249 1_554 S
O77 Dy63 2.326 . S
O77 C79 1.267 . S
C78 O70 1.249 . S
C78 O71 1.267 . S
C79 O76 1.249 1_556 S
C79 O77 1.267 . S
Dy80 O84 2.398 . S
Dy80 O85 2.491 . S
Dy80 O86 2.403 . S
Dy80 O87 2.664 . S
Dy80 O91 2.326 . S
Dy80 O95 2.310 . S
Dy80 O96 2.351 . S
C81 O92 1.185 . S
C81 O93 1.355 . S
C82 O84 1.185 . S
C82 O85 1.355 . S
Dy83 O87 2.310 . S
Dy83 O90 2.351 . S
Dy83 O92 2.398 . S
Dy83 O93 2.491 . S
Dy83 O94 2.403 . S
Dy83 O95 2.664 . S
Dy83 O97 2.326 . S
O84 Dy80 2.398 . S
O84 C82 1.185 . S
O85 Dy80 2.491 . S
O85 C82 1.355 . S
O86 Dy80 2.403 . S
O86 C88 1.254 . S
O87 Dy80 2.664 . S
O87 Dy83 2.310 . S
O87 C88 1.268 . S
C88 O86 1.254 . S
C88 O87 1.268 . S
C89 O94 1.254 . S
C89 O95 1.268 . S
O90 Dy83 2.351 . S
O90 C98 1.249 . S
O91 Dy80 2.326 . S
O91 C98 1.267 . S
O92 C81 1.185 . S
O92 Dy83 2.398 . S
O93 C81 1.355 . S
O93 Dy83 2.491 . S
O94 Dy83 2.403 . S
O94 C89 1.254 . S
O95 Dy80 2.310 . S
O95 Dy83 2.664 . S
O95 C89 1.268 . S
O96 Dy80 2.351 . S
O96 C99 1.249 . S
O97 Dy83 2.326 . S
O97 C99 1.267 . S
C98 O90 1.249 . S
C98 O91 1.267 . S
C99 O96 1.249 . S
C99 O97 1.267 . S
Dy100 O104 2.398 1_556 S
Dy100 O105 2.491 1_556 S
Dy100 O106 2.403 . S
Dy100 O107 2.664 . S
Dy100 O111 2.326 . S
Dy100 O115 2.310 . S
Dy100 O116 2.351 . S
C101 O112 1.185 . S
C101 O113 1.355 . S
C102 O104 1.185 . S
C102 O105 1.355 . S
Dy103 O107 2.310 . S
Dy103 O110 2.351 . S
Dy103 O112 2.398 . S
Dy103 O113 2.491 . S
Dy103 O114 2.403 . S
Dy103 O115 2.664 . S
Dy103 O117 2.326 . S
O104 Dy100 2.398 1_554 S
O104 C102 1.185 . S
O105 Dy100 2.491 1_554 S
O105 C102 1.355 . S
O106 Dy100 2.403 . S
O106 C108 1.254 . S
O107 Dy100 2.664 . S
O107 Dy103 2.310 . S
O107 C108 1.268 . S
C108 O106 1.254 . S
C108 O107 1.268 . S
C109 O114 1.254 . S
C109 O115 1.268 . S
O110 Dy103 2.351 . S
O110 C118 1.249 . S
O111 Dy100 2.326 . S
O111 C118 1.267 . S
O112 C101 1.185 . S
O112 Dy103 2.398 . S
O113 C101 1.355 . S
O113 Dy103 2.491 . S
O114 Dy103 2.403 . S
O114 C109 1.254 . S
O115 Dy100 2.310 . S
O115 Dy103 2.664 . S
O115 C109 1.268 . S
O116 Dy100 2.351 . S
O116 C119 1.249 . S
O117 Dy103 2.326 . S
O117 C119 1.267 . S
C118 O110 1.249 . S
C118 O111 1.267 . S
C119 O116 1.249 . S
C119 O117 1.267 . S
C120 C121 1.363 . S
C120 C126 1.379 1_556 S
C120 N128 1.356 . S
C121 C120 1.363 . S
C121 C127 1.363 . S
C122 C123 1.363 . S
C122 C127 1.379 1_554 S
C122 N129 1.356 . S
C123 C122 1.363 . S
C123 C126 1.363 . S
N124 C126 1.356 . S
N124 H136 0.984 . S
N124 H137 0.985 . S
N125 C127 1.356 . S
N125 H130 0.984 . S
N125 H131 0.985 . S
C126 C120 1.379 1_554 S
C126 C123 1.363 . S
C126 N124 1.356 . S
C127 C121 1.363 . S
C127 C122 1.379 1_556 S
C127 N125 1.356 . S
N128 C120 1.356 . S
N128 H134 0.984 . S
N128 H135 0.984 . S
N129 C122 1.356 . S
N129 H132 0.984 . S
N129 H133 0.985 . S
H130 N125 0.984 . S
H131 N125 0.985 . S
H132 N129 0.984 . S
H133 N129 0.985 . S
H134 N128 0.984 . S
H135 N128 0.984 . S
H136 N124 0.984 . S
H137 N124 0.985 . S
C138 C139 1.363 . S
C138 C144 1.379 1_455 S
C138 N146 1.356 . S
C139 C138 1.363 . S
C139 C145 1.363 . S
C140 C141 1.363 . S
C140 C145 1.379 1_655 S
C140 N147 1.356 . S
C141 C140 1.363 . S
C141 C144 1.363 . S
N142 C144 1.356 . S
N142 H154 0.984 . S
N142 H155 0.985 . S
N143 C145 1.356 . S
N143 H148 0.984 . S
N143 H149 0.985 . S
C144 C138 1.379 1_655 S
C144 C141 1.363 . S
C144 N142 1.356 . S
C145 C139 1.363 . S
C145 C140 1.379 1_455 S
C145 N143 1.356 . S
N146 C138 1.356 . S
N146 H152 0.984 . S
N146 H153 0.984 . S
N147 C140 1.356 . S
N147 H150 0.984 . S
N147 H151 0.985 . S
H148 N143 0.984 . S
H149 N143 0.985 . S
H150 N147 0.984 . S
H151 N147 0.985 . S
H152 N146 0.984 . S
H153 N146 0.984 . S
H154 N142 0.984 . S
H155 N142 0.985 . S
C156 C157 1.363 . S
C156 C162 1.379 . S
C156 N164 1.356 . S
C157 C156 1.363 . S
C157 C163 1.363 1_545 S
C158 C159 1.363 . S
C158 C163 1.379 . S
C158 N165 1.356 . S
C159 C158 1.363 . S
C159 C162 1.363 1_565 S
N160 C162 1.356 . S
N160 H172 0.984 . S
N160 H173 0.986 1_545 S
N161 C163 1.356 . S
N161 H166 0.986 1_565 S
N161 H167 0.985 . S
C162 C156 1.379 . S
C162 C159 1.363 1_545 S
C162 N160 1.356 . S
C163 C157 1.363 1_565 S
C163 C158 1.379 . S
C163 N161 1.356 . S
N164 C156 1.356 . S
N164 H170 0.984 . S
N164 H171 0.984 . S
N165 C158 1.356 . S
N165 H168 0.984 . S
N165 H169 0.985 . S
H166 N161 0.986 1_545 S
H167 N161 0.985 . S
H168 N165 0.984 . S
H169 N165 0.985 . S
H170 N164 0.984 . S
H171 N164 0.984 . S
H172 N160 0.984 . S
H173 N160 0.986 1_565 S
C174 C175 1.362 1_556 S
C174 C180 1.379 . S
C174 N182 1.356 . S
C175 C174 1.362 1_554 S
C175 C181 1.364 . S
C176 C177 1.363 . S
C176 C181 1.379 . S
C176 N183 1.356 . S
C177 C176 1.363 . S
C177 C180 1.363 1_554 S
N178 C180 1.356 . S
N178 H190 0.984 . S
N178 H191 0.985 . S
N179 C181 1.356 . S
N179 H184 0.984 . S
N179 H185 0.985 . S
C180 C174 1.379 . S
C180 C177 1.363 1_556 S
C180 N178 1.356 . S
C181 C175 1.364 . S
C181 C176 1.379 . S
C181 N179 1.356 . S
N182 C174 1.356 . S
N182 H188 0.984 . S
N182 H189 0.984 . S
N183 C176 1.356 . S
N183 H186 0.984 . S
N183 H187 0.985 . S
H184 N179 0.984 . S
H185 N179 0.985 . S
H186 N183 0.984 . S
H187 N183 0.985 . S
H188 N182 0.984 . S
H189 N182 0.984 . S
H190 N178 0.984 . S
H191 N178 0.985 . S
C192 C193 1.363 . S
C192 C198 1.379 1_455 S
C192 N200 1.356 . S
C193 C192 1.363 . S
C193 C199 1.363 . S
C194 C195 1.363 . S
C194 C199 1.379 1_655 S
C194 N201 1.356 . S
C195 C194 1.363 . S
C195 C198 1.363 . S
N196 C198 1.356 . S
N196 H208 0.984 . S
N196 H209 0.985 . S
N197 C199 1.356 . S
N197 H202 0.984 . S
N197 H203 0.985 . S
C198 C192 1.379 1_655 S
C198 C195 1.363 . S
C198 N196 1.356 . S
C199 C193 1.363 . S
C199 C194 1.379 1_455 S
C199 N197 1.356 . S
N200 C192 1.356 . S
N200 H206 0.984 . S
N200 H207 0.984 . S
N201 C194 1.356 . S
N201 H204 0.984 . S
N201 H205 0.985 . S
H202 N197 0.984 . S
H203 N197 0.985 . S
H204 N201 0.984 . S
H205 N201 0.985 . S
H206 N200 0.984 . S
H207 N200 0.984 . S
H208 N196 0.984 . S
H209 N196 0.985 . S
C210 C211 1.363 . S
C210 C216 1.379 1_545 S
C210 N218 1.356 . S
C211 C210 1.363 . S
C211 C217 1.363 . S
C212 C213 1.363 . S
C212 C217 1.379 1_565 S
C212 N219 1.356 . S
C213 C212 1.363 . S
C213 C216 1.363 . S
N214 C216 1.356 . S
N214 H226 0.984 . S
N214 H227 0.985 . S
N215 C217 1.356 . S
N215 H220 0.984 . S
N215 H221 0.985 . S
C216 C210 1.379 1_565 S
C216 C213 1.363 . S
C216 N214 1.356 . S
C217 C211 1.363 . S
C217 C212 1.379 1_545 S
C217 N215 1.356 . S
N218 C210 1.356 . S
N218 H224 0.984 . S
N218 H225 0.984 . S
N219 C212 1.356 . S
N219 H222 0.984 . S
N219 H223 0.985 . S
H220 N215 0.984 . S
H221 N215 0.985 . S
H222 N219 0.984 . S
H223 N219 0.985 . S
H224 N218 0.984 . S
H225 N218 0.984 . S
H226 N214 0.984 . S
H227 N214 0.985 . S
C228 C229 1.363 . S
C228 C234 1.379 . S
C228 N236 1.356 . S
C229 C228 1.363 . S
C229 C235 1.363 . S
C230 C231 1.363 . S
C230 C235 1.379 . S
C230 N237 1.356 . S
C231 C230 1.363 . S
C231 C234 1.363 . S
N232 C234 1.356 . S
N232 H244 0.984 . S
N232 H245 0.985 . S
N233 C235 1.356 . S
N233 H238 0.984 . S
N233 H239 0.985 . S
C234 C228 1.379 . S
C234 C231 1.363 . S
C234 N232 1.356 . S
C235 C229 1.363 . S
C235 C230 1.379 . S
C235 N233 1.356 . S
N236 C228 1.356 . S
N236 H242 0.984 . S
N236 H243 0.984 . S
N237 C230 1.356 . S
N237 H240 0.984 . S
N237 H241 0.985 . S
H238 N233 0.984 . S
H239 N233 0.985 . S
H240 N237 0.984 . S
H241 N237 0.985 . S
H242 N236 0.984 . S
H243 N236 0.984 . S
H244 N232 0.984 . S
H245 N232 0.985 . S
C246 C247 1.363 1_556 S
C246 C252 1.379 . S
C246 N254 1.356 1_556 S
C247 C246 1.363 1_554 S
C247 C253 1.363 1_554 S
C248 C249 1.363 . S
C248 C253 1.379 . S
C248 N255 1.356 . S
C249 C248 1.363 . S
C249 C252 1.363 . S
N250 C252 1.356 . S
N250 H262 0.984 . S
N250 H263 0.985 . S
N251 C253 1.356 1_554 S
N251 H256 0.984 . S
N251 H257 0.985 . S
C252 C246 1.379 . S
C252 C249 1.363 . S
C252 N250 1.356 . S
C253 C247 1.363 1_556 S
C253 C248 1.379 . S
C253 N251 1.356 1_556 S
N254 C246 1.356 1_554 S
N254 H260 0.984 . S
N254 H261 0.984 . S
N255 C248 1.356 . S
N255 H258 0.984 . S
N255 H259 0.985 . S
H256 N251 0.984 . S
H257 N251 0.985 . S
H258 N255 0.984 . S
H259 N255 0.985 . S
H260 N254 0.984 . S
H261 N254 0.984 . S
H262 N250 0.984 . S
H263 N250 0.985 . S
C264 C265 1.363 . S
C264 C270 1.379 . S
C264 N272 1.356 . S
C265 C264 1.363 . S
C265 C271 1.363 . S
C266 C267 1.363 . S
C266 C271 1.379 . S
C266 N273 1.356 . S
C267 C266 1.363 . S
C267 C270 1.363 . S
N268 C270 1.356 . S
N268 H280 0.984 . S
N268 H281 0.985 . S
N269 C271 1.356 . S
N269 H274 0.984 . S
N269 H275 0.985 . S
C270 C264 1.379 . S
C270 C267 1.363 . S
C270 N268 1.356 . S
C271 C265 1.363 . S
C271 C266 1.379 . S
C271 N269 1.356 . S
N272 C264 1.356 . S
N272 H278 0.984 . S
N272 H279 0.984 . S
N273 C266 1.356 . S
N273 H276 0.984 . S
N273 H277 0.985 . S
H274 N269 0.984 . S
H275 N269 0.985 . S
H276 N273 0.984 . S
H277 N273 0.985 . S
H278 N272 0.984 . S
H279 N272 0.984 . S
H280 N268 0.984 . S
H281 N268 0.985 . S
C282 C283 1.363 . S
C282 C288 1.379 . S
C282 N290 1.356 . S
C283 C282 1.363 . S
C283 C289 1.363 . S
C284 C285 1.363 . S
C284 C289 1.379 . S
C284 N291 1.356 . S
C285 C284 1.363 . S
C285 C288 1.363 . S
N286 C288 1.356 . S
N286 H298 0.984 . S
N286 H299 0.985 . S
N287 C289 1.356 . S
N287 H292 0.984 . S
N287 H293 0.985 . S
C288 C282 1.379 . S
C288 C285 1.363 . S
C288 N286 1.356 . S
C289 C283 1.363 . S
C289 C284 1.379 . S
C289 N287 1.356 . S
N290 C282 1.356 . S
N290 H296 0.984 . S
N290 H297 0.984 . S
N291 C284 1.356 . S
N291 H294 0.984 . S
N291 H295 0.985 . S
H292 N287 0.984 . S
H293 N287 0.985 . S
H294 N291 0.984 . S
H295 N291 0.985 . S
H296 N290 0.984 . S
H297 N290 0.984 . S
H298 N286 0.984 . S
H299 N286 0.985 . S
C300 C301 1.363 . S
C300 C306 1.379 . S
C300 N308 1.356 1_554 S
C301 C300 1.363 . S
C301 C307 1.363 . S
C302 C303 1.363 . S
C302 C307 1.379 . S
C302 N309 1.356 . S
C303 C302 1.363 . S
C303 C306 1.363 . S
N304 C306 1.356 . S
N304 H316 0.984 . S
N304 H317 0.985 . S
N305 C307 1.356 . S
N305 H310 0.984 1_554 S
N305 H311 0.985 . S
C306 C300 1.379 . S
C306 C303 1.363 . S
C306 N304 1.356 . S
C307 C301 1.363 . S
C307 C302 1.379 . S
C307 N305 1.356 . S
N308 C300 1.356 1_556 S
N308 H314 0.984 . S
N308 H315 0.984 . S
N309 C302 1.356 . S
N309 H312 0.984 . S
N309 H313 0.985 . S
H310 N305 0.984 1_556 S
H311 N305 0.985 . S
H312 N309 0.984 . S
H313 N309 0.985 . S
H314 N308 0.984 . S
H315 N308 0.984 . S
H316 N304 0.984 . S
H317 N304 0.985 . S
C318 C319 1.363 . S
C318 C324 1.379 . S
C318 N326 1.356 . S
C319 C318 1.363 . S
C319 C325 1.363 . S
C320 C321 1.363 . S
C320 C325 1.379 . S
C320 N327 1.356 . S
C321 C320 1.363 . S
C321 C324 1.363 . S
N322 C324 1.356 . S
N322 H334 0.984 . S
N322 H335 0.985 . S
N323 C325 1.356 . S
N323 H328 0.984 . S
N323 H329 0.985 . S
C324 C318 1.379 . S
C324 C321 1.363 . S
C324 N322 1.356 . S
C325 C319 1.363 . S
C325 C320 1.379 . S
C325 N323 1.356 . S
N326 C318 1.356 . S
N326 H332 0.984 . S
N326 H333 0.984 . S
N327 C320 1.356 . S
N327 H330 0.984 . S
N327 H331 0.985 . S
H328 N323 0.984 . S
H329 N323 0.985 . S
H330 N327 0.984 . S
H331 N327 0.985 . S
H332 N326 0.984 . S
H333 N326 0.984 . S
H334 N322 0.984 . S
H335 N322 0.985 . S
C336 C337 1.363 . S
C336 C342 1.379 . S
C336 N344 1.356 . S
C337 C336 1.363 . S
C337 C343 1.363 . S
C338 C339 1.363 . S
C338 C343 1.379 . S
C338 N345 1.356 . S
C339 C338 1.363 . S
C339 C342 1.363 . S
N340 C342 1.356 . S
N340 H352 0.984 . S
N340 H353 0.985 . S
N341 C343 1.356 . S
N341 H346 0.984 . S
N341 H347 0.985 . S
C342 C336 1.379 . S
C342 C339 1.363 . S
C342 N340 1.356 . S
C343 C337 1.363 . S
C343 C338 1.379 . S
C343 N341 1.356 . S
N344 C336 1.356 . S
N344 H350 0.984 . S
N344 H351 0.984 . S
N345 C338 1.356 . S
N345 H348 0.984 . S
N345 H349 0.985 . S
H346 N341 0.984 . S
H347 N341 0.985 . S
H348 N345 0.984 . S
H349 N345 0.985 . S
H350 N344 0.984 . S
H351 N344 0.984 . S
H352 N340 0.984 . S
H353 N340 0.985 . S
C354 C355 1.363 . S
C354 C360 1.379 . S
C354 N362 1.356 . S
C355 C354 1.363 . S
C355 C361 1.363 . S
C356 C357 1.363 . S
C356 C361 1.379 . S
C356 N363 1.356 . S
C357 C356 1.363 . S
C357 C360 1.363 . S
N358 C360 1.356 . S
N358 H370 0.984 . S
N358 H371 0.985 . S
N359 C361 1.356 . S
N359 H364 0.984 . S
N359 H365 0.985 . S
C360 C354 1.379 . S
C360 C357 1.363 . S
C360 N358 1.356 . S
C361 C355 1.363 . S
C361 C356 1.379 . S
C361 N359 1.356 . S
N362 C354 1.356 . S
N362 H368 0.984 . S
N362 H369 0.984 . S
N363 C356 1.356 . S
N363 H366 0.984 . S
N363 H367 0.985 . S
H364 N359 0.984 . S
H365 N359 0.985 . S
H366 N363 0.984 . S
H367 N363 0.985 . S
H368 N362 0.984 . S
H369 N362 0.984 . S
H370 N358 0.984 . S
H371 N358 0.985 . S
C372 C373 1.363 . S
C372 C378 1.379 . S
C372 N380 1.356 . S
C373 C372 1.363 . S
C373 C379 1.363 . S
C374 C375 1.363 . S
C374 C379 1.379 . S
C374 N381 1.356 . S
C375 C374 1.363 . S
C375 C378 1.363 . S
N376 C378 1.356 1_556 S
N376 H388 0.984 . S
N376 H389 0.985 . S
N377 C379 1.356 . S
N377 H382 0.984 . S
N377 H383 0.985 . S
C378 C372 1.379 . S
C378 C375 1.363 . S
C378 N376 1.356 1_554 S
C379 C373 1.363 . S
C379 C374 1.379 . S
C379 N377 1.356 . S
N380 C372 1.356 . S
N380 H386 0.984 . S
N380 H387 0.984 . S
N381 C374 1.356 . S
N381 H384 0.984 . S
N381 H385 0.985 . S
H382 N377 0.984 . S
H383 N377 0.985 . S
H384 N381 0.984 . S
H385 N381 0.985 . S
H386 N380 0.984 . S
H387 N380 0.984 . S
H388 N376 0.984 . S
H389 N376 0.985 . S
C390 C391 1.363 . S
C390 C396 1.379 . S
C390 N398 1.356 . S
C391 C390 1.363 . S
C391 C397 1.363 . S
C392 C393 1.363 . S
C392 C397 1.379 . S
C392 N399 1.356 . S
C393 C392 1.363 . S
C393 C396 1.363 . S
N394 C396 1.356 . S
N394 H406 0.984 . S
N394 H407 0.985 . S
N395 C397 1.356 . S
N395 H400 0.984 . S
N395 H401 0.985 . S
C396 C390 1.379 . S
C396 C393 1.363 . S
C396 N394 1.356 . S
C397 C391 1.363 . S
C397 C392 1.379 . S
C397 N395 1.356 . S
N398 C390 1.356 . S
N398 H404 0.984 . S
N398 H405 0.984 . S
N399 C392 1.356 . S
N399 H402 0.984 . S
N399 H403 0.985 . S
H400 N395 0.984 . S
H401 N395 0.985 . S
H402 N399 0.984 . S
H403 N399 0.985 . S
H404 N398 0.984 . S
H405 N398 0.984 . S
H406 N394 0.984 . S
H407 N394 0.985 . S
C408 C409 1.363 . S
C408 C414 1.379 . S
C408 N416 1.356 . S
C409 C408 1.363 . S
C409 C415 1.363 . S
C410 C411 1.363 . S
C410 C415 1.379 . S
C410 N417 1.356 . S
C411 C410 1.363 . S
C411 C414 1.363 . S
N412 C414 1.356 . S
N412 H424 0.984 . S
N412 H425 0.985 . S
N413 C415 1.356 . S
N413 H418 0.984 . S
N413 H419 0.985 . S
C414 C408 1.379 . S
C414 C411 1.363 . S
C414 N412 1.356 . S
C415 C409 1.363 . S
C415 C410 1.379 . S
C415 N413 1.356 . S
N416 C408 1.356 . S
N416 H422 0.984 . S
N416 H423 0.984 . S
N417 C410 1.356 . S
N417 H420 0.984 . S
N417 H421 0.985 . S
H418 N413 0.984 . S
H419 N413 0.985 . S
H420 N417 0.984 . S
H421 N417 0.985 . S
H422 N416 0.984 . S
H423 N416 0.984 . S
H424 N412 0.984 . S
H425 N412 0.985 . S
C426 C427 1.363 . S
C426 C432 1.379 . S
C426 N434 1.356 1_556 S
C427 C426 1.363 . S
C427 C433 1.363 . S
C428 C429 1.363 . S
C428 C433 1.379 . S
C428 N435 1.356 . S
C429 C428 1.363 . S
C429 C432 1.363 . S
N430 C432 1.356 . S
N430 H442 0.984 . S
N430 H443 0.985 . S
N431 C433 1.356 . S
N431 H436 0.984 . S
N431 H437 0.985 . S
C432 C426 1.379 . S
C432 C429 1.363 . S
C432 N430 1.356 . S
C433 C427 1.363 . S
C433 C428 1.379 . S
C433 N431 1.356 . S
N434 C426 1.356 1_554 S
N434 H440 0.984 . S
N434 H441 0.984 . S
N435 C428 1.356 . S
N435 H438 0.984 . S
N435 H439 0.985 . S
H436 N431 0.984 . S
H437 N431 0.985 . S
H438 N435 0.984 . S
H439 N435 0.985 . S
H440 N434 0.984 . S
H441 N434 0.984 . S
H442 N430 0.984 . S
H443 N430 0.985 . S
C121 C118 1.604 . S
C123 C18 1.604 . S
C139 C8 1.485 . S
C141 C28 1.485 . S
C157 C38 1.604 . S
C159 C58 1.604 . S
C175 C48 1.484 1_554 S
C177 C68 1.485 . S
C193 C98 1.604 . S
C195 C78 1.604 . S
C211 C108 1.485 . S
C213 C88 1.485 . S
C229 C2 1.319 . S
C231 C1 1.319 . S
C247 C21 1.319 . S
C249 C22 1.319 . S
C265 C42 1.319 . S
C267 C41 1.319 . S
C283 C61 1.319 . S
C285 C62 1.319 . S
C301 C81 1.319 1_554 S
C303 C82 1.319 . S
C319 C101 1.319 . S
C321 C102 1.319 . S
C337 C19 1.645 . S
C339 C89 1.658 . S
C355 C29 1.658 . S
C357 C119 1.645 . S
C373 C9 1.658 . S
C375 C59 1.645 . S
C391 C39 1.645 . S
C393 C69 1.658 . S
C409 C99 1.645 . S
C411 C49 1.658 . S
C427 C79 1.645 . S
C429 C109 1.658 . S
