# Generated by pormake.
# Topology uoe, (4)-cn, num edge types: 1
# Building blocks:
#     Node 0, Type 0, BuildingBlock: MUDLON_clean_sbu_0, # of connection points: 4
#     Node 1, Type 0, BuildingBlock: MUDLON_clean_sbu_0, # of connection points: 4
#     Node 2, Type 0, BuildingBlock: MUDLON_clean_sbu_0, # of connection points: 4
#     Node 3, Type 0, BuildingBlock: MUDLON_clean_sbu_0, # of connection points: 4
#     Node 4, Type 0, BuildingBlock: MUDLON_clean_sbu_0, # of connection points: 4
#     Node 5, Type 0, BuildingBlock: MUDLON_clean_sbu_0, # of connection points: 4
#     Node 6, Type 0, BuildingBlock: MUDLON_clean_sbu_0, # of connection points: 4
#     Node 7, Type 0, BuildingBlock: MUDLON_clean_sbu_0, # of connection points: 4
#     Node 8, Type 0, BuildingBlock: MUDLON_clean_sbu_0, # of connection points: 4
#     Node 9, Type 0, BuildingBlock: MUDLON_clean_sbu_0, # of connection points: 4
#     Node 10, Type 0, BuildingBlock: MUDLON_clean_sbu_0, # of connection points: 4
#     Node 11, Type 0, BuildingBlock: MUDLON_clean_sbu_0, # of connection points: 4
#     Node 12, Type 0, BuildingBlock: MUDLON_clean_sbu_0, # of connection points: 4
#     Node 13, Type 0, BuildingBlock: MUDLON_clean_sbu_0, # of connection points: 4
#     Node 14, Type 0, BuildingBlock: MUDLON_clean_sbu_0, # of connection points: 4
#     Node 15, Type 0, BuildingBlock: MUDLON_clean_sbu_0, # of connection points: 4
#     Node 16, Type 0, BuildingBlock: MUDLON_clean_sbu_0, # of connection points: 4
#     Node 17, Type 0, BuildingBlock: MUDLON_clean_sbu_0, # of connection points: 4
#     Node 18, Type 0, BuildingBlock: MUDLON_clean_sbu_0, # of connection points: 4
#     Node 19, Type 0, BuildingBlock: MUDLON_clean_sbu_0, # of connection points: 4
#     Node 20, Type 0, BuildingBlock: MUDLON_clean_sbu_0, # of connection points: 4
#     Node 21, Type 0, BuildingBlock: MUDLON_clean_sbu_0, # of connection points: 4
#     Node 22, Type 0, BuildingBlock: MUDLON_clean_sbu_0, # of connection points: 4
#     Node 23, Type 0, BuildingBlock: MUDLON_clean_sbu_0, # of connection points: 4
#     Node 24, Type 0, BuildingBlock: MUDLON_clean_sbu_0, # of connection points: 4
#     Node 25, Type 0, BuildingBlock: MUDLON_clean_sbu_0, # of connection points: 4
#     Node 26, Type 0, BuildingBlock: MUDLON_clean_sbu_0, # of connection points: 4
#     Node 27, Type 0, BuildingBlock: MUDLON_clean_sbu_0, # of connection points: 4
#     Node 28, Type 0, BuildingBlock: MUDLON_clean_sbu_0, # of connection points: 4
#     Node 29, Type 0, BuildingBlock: MUDLON_clean_sbu_0, # of connection points: 4
#     Node 30, Type 0, BuildingBlock: MUDLON_clean_sbu_0, # of connection points: 4
#     Node 31, Type 0, BuildingBlock: MUDLON_clean_sbu_0, # of connection points: 4
#     Edge 32, Type (0, 0), BuildingBlock: OJICUG_clean_linker_0, # of connection points: 2
#     Edge 33, Type (0, 0), BuildingBlock: OJICUG_clean_linker_0, # of connection points: 2
#     Edge 34, Type (0, 0), BuildingBlock: OJICUG_clean_linker_0, # of connection points: 2
#     Edge 35, Type (0, 0), BuildingBlock: OJICUG_clean_linker_0, # of connection points: 2
#     Edge 36, Type (0, 0), BuildingBlock: OJICUG_clean_linker_0, # of connection points: 2
#     Edge 37, Type (0, 0), BuildingBlock: OJICUG_clean_linker_0, # of connection points: 2
#     Edge 38, Type (0, 0), BuildingBlock: OJICUG_clean_linker_0, # of connection points: 2
#     Edge 39, Type (0, 0), BuildingBlock: OJICUG_clean_linker_0, # of connection points: 2
#     Edge 40, Type (0, 0), BuildingBlock: OJICUG_clean_linker_0, # of connection points: 2
#     Edge 41, Type (0, 0), BuildingBlock: OJICUG_clean_linker_0, # of connection points: 2
#     Edge 42, Type (0, 0), BuildingBlock: OJICUG_clean_linker_0, # of connection points: 2
#     Edge 43, Type (0, 0), BuildingBlock: OJICUG_clean_linker_0, # of connection points: 2
#     Edge 44, Type (0, 0), BuildingBlock: OJICUG_clean_linker_0, # of connection points: 2
#     Edge 45, Type (0, 0), BuildingBlock: OJICUG_clean_linker_0, # of connection points: 2
#     Edge 46, Type (0, 0), BuildingBlock: OJICUG_clean_linker_0, # of connection points: 2
#     Edge 47, Type (0, 0), BuildingBlock: OJICUG_clean_linker_0, # of connection points: 2
#     Edge 48, Type (0, 0), BuildingBlock: OJICUG_clean_linker_0, # of connection points: 2
#     Edge 49, Type (0, 0), BuildingBlock: OJICUG_clean_linker_0, # of connection points: 2
#     Edge 50, Type (0, 0), BuildingBlock: OJICUG_clean_linker_0, # of connection points: 2
#     Edge 51, Type (0, 0), BuildingBlock: OJICUG_clean_linker_0, # of connection points: 2
#     Edge 52, Type (0, 0), BuildingBlock: OJICUG_clean_linker_0, # of connection points: 2
#     Edge 53, Type (0, 0), BuildingBlock: OJICUG_clean_linker_0, # of connection points: 2
#     Edge 54, Type (0, 0), BuildingBlock: OJICUG_clean_linker_0, # of connection points: 2
#     Edge 55, Type (0, 0), BuildingBlock: OJICUG_clean_linker_0, # of connection points: 2
#     Edge 56, Type (0, 0), BuildingBlock: OJICUG_clean_linker_0, # of connection points: 2
#     Edge 57, Type (0, 0), BuildingBlock: OJICUG_clean_linker_0, # of connection points: 2
#     Edge 58, Type (0, 0), BuildingBlock: OJICUG_clean_linker_0, # of connection points: 2
#     Edge 59, Type (0, 0), BuildingBlock: OJICUG_clean_linker_0, # of connection points: 2
#     Edge 60, Type (0, 0), BuildingBlock: OJICUG_clean_linker_0, # of connection points: 2
#     Edge 61, Type (0, 0), BuildingBlock: OJICUG_clean_linker_0, # of connection points: 2
#     Edge 62, Type (0, 0), BuildingBlock: OJICUG_clean_linker_0, # of connection points: 2
#     Edge 63, Type (0, 0), BuildingBlock: OJICUG_clean_linker_0, # of connection points: 2
#     Edge 64, Type (0, 0), BuildingBlock: OJICUG_clean_linker_0, # of connection points: 2
#     Edge 65, Type (0, 0), BuildingBlock: OJICUG_clean_linker_0, # of connection points: 2
#     Edge 66, Type (0, 0), BuildingBlock: OJICUG_clean_linker_0, # of connection points: 2
#     Edge 67, Type (0, 0), BuildingBlock: OJICUG_clean_linker_0, # of connection points: 2
#     Edge 68, Type (0, 0), BuildingBlock: OJICUG_clean_linker_0, # of connection points: 2
#     Edge 69, Type (0, 0), BuildingBlock: OJICUG_clean_linker_0, # of connection points: 2
#     Edge 70, Type (0, 0), BuildingBlock: OJICUG_clean_linker_0, # of connection points: 2
#     Edge 71, Type (0, 0), BuildingBlock: OJICUG_clean_linker_0, # of connection points: 2
#     Edge 72, Type (0, 0), BuildingBlock: OJICUG_clean_linker_0, # of connection points: 2
#     Edge 73, Type (0, 0), BuildingBlock: OJICUG_clean_linker_0, # of connection points: 2
#     Edge 74, Type (0, 0), BuildingBlock: OJICUG_clean_linker_0, # of connection points: 2
#     Edge 75, Type (0, 0), BuildingBlock: OJICUG_clean_linker_0, # of connection points: 2
#     Edge 76, Type (0, 0), BuildingBlock: OJICUG_clean_linker_0, # of connection points: 2
#     Edge 77, Type (0, 0), BuildingBlock: OJICUG_clean_linker_0, # of connection points: 2
#     Edge 78, Type (0, 0), BuildingBlock: OJICUG_clean_linker_0, # of connection points: 2
#     Edge 79, Type (0, 0), BuildingBlock: OJICUG_clean_linker_0, # of connection points: 2
#     Edge 80, Type (0, 0), BuildingBlock: OJICUG_clean_linker_0, # of connection points: 2
#     Edge 81, Type (0, 0), BuildingBlock: OJICUG_clean_linker_0, # of connection points: 2
#     Edge 82, Type (0, 0), BuildingBlock: OJICUG_clean_linker_0, # of connection points: 2
#     Edge 83, Type (0, 0), BuildingBlock: OJICUG_clean_linker_0, # of connection points: 2
#     Edge 84, Type (0, 0), BuildingBlock: OJICUG_clean_linker_0, # of connection points: 2
#     Edge 85, Type (0, 0), BuildingBlock: OJICUG_clean_linker_0, # of connection points: 2
#     Edge 86, Type (0, 0), BuildingBlock: OJICUG_clean_linker_0, # of connection points: 2
#     Edge 87, Type (0, 0), BuildingBlock: OJICUG_clean_linker_0, # of connection points: 2
#     Edge 88, Type (0, 0), BuildingBlock: OJICUG_clean_linker_0, # of connection points: 2
#     Edge 89, Type (0, 0), BuildingBlock: OJICUG_clean_linker_0, # of connection points: 2
#     Edge 90, Type (0, 0), BuildingBlock: OJICUG_clean_linker_0, # of connection points: 2
#     Edge 91, Type (0, 0), BuildingBlock: OJICUG_clean_linker_0, # of connection points: 2
#     Edge 92, Type (0, 0), BuildingBlock: OJICUG_clean_linker_0, # of connection points: 2
#     Edge 93, Type (0, 0), BuildingBlock: OJICUG_clean_linker_0, # of connection points: 2
#     Edge 94, Type (0, 0), BuildingBlock: OJICUG_clean_linker_0, # of connection points: 2
#     Edge 95, Type (0, 0), BuildingBlock: OJICUG_clean_linker_0, # of connection points: 2
# Relax obj value: 0.170
# Max RMSD: 0.257
# Mean RMSD: 0.257
data_MOF--net-uoe--node1-MUDLON_clean_sbu_0--edge1-OJICUG_clean_linker_0
_symmetry_space_group_name_H-M    P1
_symmetry_Int_Tables_number       1
_symmetry_cell_setting            triclinic
loop_
_symmetry_equiv_pos_as_xyz
'x, y, z'
_cell_length_a     57.520531
_cell_length_b     57.742616
_cell_length_c     21.077479
_cell_angle_alpha  89.871147
_cell_angle_beta   90.026143
_cell_angle_gamma 90.019474
loop_
_atom_site_label
_atom_site_type_symbol
_atom_site_fract_x
_atom_site_fract_y
_atom_site_fract_z
_atom_type_partial_charge
Mg0 Mg 0.10561 0.46468 0.07535 0.0
C1 C 0.13452 0.48206 0.1869 0.0
O2 O 0.14596 0.46258 0.17948 0.0
C3 C 0.09923 0.4726 0.93843 0.0
O4 O 0.08012 0.46178 0.95538 0.0
C5 C 0.11346 0.42329 0.15953 0.0
O6 O 0.1004 0.43617 0.19647 0.0
O7 O 0.11715 0.43003 0.1028 0.0
O8 O 0.11924 0.48791 0.14636 0.0
O9 O 0.06827 0.4705 0.08311 0.0
C10 C 0.06192 0.49155 0.07726 0.0
O11 O 0.07793 0.50744 0.06786 0.0
O12 O 0.11518 0.47538 0.97953 0.0
Mg13 Mg 0.79143 0.84941 0.31406 0.0
C14 C 0.76678 0.80434 0.3205 0.0
O15 O 0.74964 0.81931 0.32415 0.0
C16 C 0.83513 0.85493 0.38911 0.0
O17 O 0.82311 0.84067 0.42506 0.0
C18 C 0.79225 0.86149 0.17444 0.0
O19 O 0.81417 0.85624 0.1846 0.0
O20 O 0.77833 0.8614 0.22147 0.0
O21 O 0.78748 0.81194 0.31503 0.0
O22 O 0.77208 0.86026 0.39778 0.0
C23 C 0.77927 0.87635 0.43412 0.0
O24 O 0.79618 0.88991 0.41465 0.0
O25 O 0.82696 0.86044 0.33493 0.0
Mg26 Mg 0.41397 0.54454 0.58501 0.0
C27 C 0.38246 0.52887 0.69266 0.0
O28 O 0.37266 0.54915 0.68396 0.0
C29 C 0.42298 0.53527 0.44882 0.0
O30 O 0.44298 0.54351 0.46871 0.0
C31 C 0.40635 0.58771 0.66413 0.0
O32 O 0.42179 0.57741 0.70047 0.0
O33 O 0.40195 0.5791 0.60981 0.0
O34 O 0.39783 0.52189 0.65378 0.0
O35 O 0.45082 0.53826 0.60101 0.0
C36 C 0.45683 0.51702 0.60079 0.0
O37 O 0.4408 0.50118 0.59139 0.0
O38 O 0.40607 0.53434 0.48762 0.0
Mg39 Mg 0.72158 0.16115 0.82658 0.0
C40 C 0.74495 0.20656 0.82782 0.0
O41 O 0.76216 0.19178 0.83415 0.0
C42 C 0.68313 0.12726 0.84375 0.0
O43 O 0.69693 0.11643 0.80395 0.0
C44 C 0.75394 0.14523 0.71974 0.0
O45 O 0.76942 0.14709 0.76531 0.0
O46 O 0.73262 0.14864 0.7329 0.0
O47 O 0.72431 0.19872 0.82308 0.0
O48 O 0.74335 0.15216 0.90736 0.0
C49 C 0.74073 0.13373 0.93981 0.0
O50 O 0.72751 0.11706 0.91775 0.0
O51 O 0.68763 0.14825 0.85695 0.0
Mg52 Mg 0.1069 0.53064 0.56177 0.0
C53 C 0.1156 0.52091 0.43106 0.0
O54 O 0.10299 0.53987 0.43292 0.0
C55 C 0.10043 0.51993 0.69653 0.0
O56 O 0.08192 0.53202 0.68113 0.0
C57 C 0.14184 0.56319 0.5202 0.0
O58 O 0.15263 0.54339 0.52901 0.0
O59 O 0.12085 0.56492 0.53869 0.0
O60 O 0.12028 0.51065 0.48301 0.0
O61 O 0.06937 0.52659 0.55342 0.0
C62 C 0.06216 0.50577 0.55754 0.0
O63 O 0.07751 0.48912 0.56484 0.0
O64 O 0.11628 0.51715 0.65515 0.0
Mg65 Mg 0.72634 0.84722 0.80858 0.0
C66 C 0.74958 0.80145 0.80866 0.0
O67 O 0.76653 0.81564 0.79324 0.0
C68 C 0.69125 0.87788 0.75213 0.0
O69 O 0.71071 0.8897 0.74956 0.0
C70 C 0.76023 0.86212 0.91329 0.0
O71 O 0.77545 0.85706 0.86899 0.0
O72 O 0.73867 0.86135 0.89956 0.0
O73 O 0.72938 0.80978 0.8182 0.0
O74 O 0.74557 0.85432 0.72151 0.0
C75 C 0.75698 0.8718 0.70203 0.0
O76 O 0.76107 0.88915 0.74067 0.0
O77 O 0.69125 0.85858 0.78151 0.0
Mg78 Mg 0.4071 0.48039 0.06825 0.0
C79 C 0.39659 0.4895 0.93847 0.0
O80 O 0.40892 0.47039 0.94061 0.0
C81 C 0.41872 0.49346 0.19982 0.0
O82 O 0.43694 0.4816 0.18116 0.0
C83 C 0.39422 0.43032 0.02378 0.0
O84 O 0.41613 0.42774 1.00774 0.0
O85 O 0.38809 0.44804 0.05553 0.0
O86 O 0.39266 0.50017 0.99012 0.0
O87 O 0.44441 0.48142 0.05011 0.0
C88 C 0.45234 0.502 0.04602 0.0
O89 O 0.43769 0.51936 0.05091 0.0
O90 O 0.40164 0.4957 0.16187 0.0
Mg91 Mg 0.78639 0.15939 0.32125 0.0
C92 C 0.76429 0.20509 0.32441 0.0
O93 O 0.74673 0.19055 0.32184 0.0
C94 C 0.82268 0.12367 0.30227 0.0
O95 O 0.80621 0.11201 0.33145 0.0
C96 C 0.78618 0.14585 0.45912 0.0
O97 O 0.80829 0.15041 0.44966 0.0
O98 O 0.77237 0.1468 0.41191 0.0
O99 O 0.78486 0.19694 0.32594 0.0
O100 O 0.76644 0.15228 0.23561 0.0
C101 C 0.76593 0.13321 0.20551 0.0
O102 O 0.77475 0.11451 0.23154 0.0
O103 O 0.8206 0.14551 0.29734 0.0
Mg104 Mg 0.91977 0.54025 0.0707 0.0
C105 C 0.96454 0.51742 0.07913 0.0
O106 O 0.94881 0.50106 0.08526 0.0
C107 C 0.88316 0.56764 1.01355 0.0
O108 O 0.87458 0.54675 0.02166 0.0
C109 C 0.922 0.52922 0.207 0.0
O110 O 0.94033 0.54234 0.1974 0.0
O111 O 0.90784 0.52612 0.16141 0.0
O112 O 0.95765 0.53826 0.07208 0.0
O113 O 0.91248 0.5174 0.99213 0.0
C114 C 0.91714 0.52676 0.93894 0.0
O115 O 0.92552 0.54793 0.938 0.0
O116 O 0.90292 0.57221 0.03784 0.0
Mg117 Mg 0.21536 0.16259 0.83847 0.0
C118 C 0.24432 0.13805 0.72966 0.0
O119 O 0.24825 0.12059 0.76828 0.0
C120 C 0.21557 0.14746 0.975 0.0
O121 O 0.19366 0.15309 0.96635 0.0
C122 C 0.17966 0.13214 0.7863 0.0
O123 O 0.19897 0.12007 0.78434 0.0
O124 O 0.17993 0.15162 0.81442 0.0
O125 O 0.23352 0.15579 0.74967 0.0
O126 O 0.21915 0.19981 0.84754 0.0
C127 C 0.24005 0.20702 0.84473 0.0
O128 O 0.25684 0.19179 0.83804 0.0
O129 O 0.22921 0.1481 0.9274 0.0
Mg130 Mg 0.59768 0.46952 0.57985 0.0
C131 C 0.55382 0.49082 0.61244 0.0
O132 O 0.56947 0.5074 0.61424 0.0
C133 C 0.61209 0.4262 0.50801 0.0
O134 O 0.59482 0.43254 0.47112 0.0
C135 C 0.61457 0.4779 0.71216 0.0
O136 O 0.60812 0.45611 0.71608 0.0
O137 O 0.61375 0.48794 0.65842 0.0
O138 O 0.56064 0.47022 0.60136 0.0
O139 O 0.60046 0.48823 0.49095 0.0
C140 C 0.58299 0.48649 0.45426 0.0
O141 O 0.56479 0.47461 0.47312 0.0
O142 O 0.61531 0.4369 0.56013 0.0
Mg143 Mg 0.29063 0.85325 0.3531 0.0
C144 C 0.2764 0.8804 0.23505 0.0
O145 O 0.29239 0.89483 0.25541 0.0
C146 C 0.29165 0.86524 0.49247 0.0
O147 O 0.31351 0.85978 0.48226 0.0
C148 C 0.33324 0.86068 0.27462 0.0
O149 O 0.32103 0.84666 0.23857 0.0
O150 O 0.32565 0.86536 0.32994 0.0
O151 O 0.27042 0.86343 0.27018 0.0
O152 O 0.28782 0.81564 0.35446 0.0
C153 C 0.26729 0.80735 0.35348 0.0
O154 O 0.24962 0.82176 0.35246 0.0
O155 O 0.27769 0.86532 0.44551 0.0
Mg156 Mg 0.91813 0.46331 0.57179 0.0
C157 C 0.96375 0.48431 0.56171 0.0
O158 O 0.9487 0.50132 0.55619 0.0
C159 C 0.88108 0.43708 0.63094 0.0
O160 O 0.87302 0.45818 0.62303 0.0
C161 C 0.92043 0.47362 0.43527 0.0
O162 O 0.93797 0.45949 0.44496 0.0
O163 O 0.90658 0.47766 0.48098 0.0
O164 O 0.95602 0.46379 0.56925 0.0
O165 O 0.91191 0.48654 0.65019 0.0
C166 C 0.91651 0.47713 0.70336 0.0
O167 O 0.92434 0.45576 0.70431 0.0
O168 O 0.9005 0.43193 0.60557 0.0
Mg169 Mg 0.28196 0.15883 0.34269 0.0
C170 C 0.26651 0.1331 0.46192 0.0
O171 O 0.28238 0.1183 0.44322 0.0
C172 C 0.24835 0.14491 0.23537 0.0
O173 O 0.233 0.14694 0.28117 0.0
C174 C 0.32029 0.12414 0.34978 0.0
O175 O 0.3063 0.11477 0.30772 0.0
O176 O 0.31596 0.14464 0.36822 0.0
O177 O 0.26084 0.14975 0.42524 0.0
O178 O 0.28057 0.19654 0.34164 0.0
C179 C 0.26027 0.20517 0.34677 0.0
O180 O 0.24246 0.19105 0.3521 0.0
O181 O 0.2698 0.14756 0.24851 0.0
Mg182 Mg 0.59647 0.54026 0.07427 0.0
C183 C 0.55128 0.5205 0.04339 0.0
O184 O 0.56582 0.50295 0.04353 0.0
C185 C 0.61204 0.58333 0.14576 0.0
O186 O 0.59475 0.57732 0.18297 0.0
C187 C 0.61415 0.53136 0.94249 0.0
O188 O 0.60912 0.55351 0.93826 0.0
O189 O 0.612 0.52131 0.99592 0.0
O190 O 0.55936 0.54076 0.05308 0.0
O191 O 0.59927 0.52154 0.16305 0.0
C192 C 0.58209 0.5235 0.20055 0.0
O193 O 0.56388 0.53554 0.18246 0.0
O194 O 0.61497 0.5725 0.09371 0.0
Mg195 Mg 0.22601 0.85109 0.85832 0.0
C196 C 0.25428 0.8773 0.96694 0.0
O197 O 0.25745 0.89517 0.92922 0.0
C198 C 0.25979 0.86585 0.75357 0.0
O199 O 0.27495 0.86039 0.79776 0.0
C200 C 0.18938 0.88091 0.90838 0.0
O201 O 0.20814 0.89386 0.90759 0.0
O202 O 0.19037 0.86095 0.88305 0.0
O203 O 0.24418 0.85926 0.94623 0.0
O204 O 0.23063 0.81384 0.85102 0.0
C205 C 0.25079 0.80617 0.86475 0.0
O206 O 0.2669 0.82091 0.88261 0.0
O207 O 0.23824 0.86537 0.76736 0.0
Mg208 Mg 0.59571 0.96645 0.56855 0.0
C209 C 0.60381 0.97887 0.70211 0.0
O210 O 0.59948 0.9566 0.70527 0.0
C211 C 0.58927 0.98006 0.43418 0.0
O212 O 0.57171 0.966 0.4445 0.0
C213 C 0.6127 0.91806 0.6199 0.0
O214 O 0.59146 0.91478 0.64102 0.0
O215 O 0.61707 0.93566 0.5853 0.0
O216 O 0.60412 0.98869 0.64804 0.0
O217 O 0.55777 0.96542 0.57252 0.0
C218 C 0.5495 0.98589 0.56944 0.0
O219 O 0.56413 0.00334 0.56609 0.0
O220 O 0.60408 0.98318 0.47819 0.0
Mg221 Mg 0.28592 0.34983 0.85202 0.0
C222 C 0.26185 0.30488 0.85323 0.0
O223 O 0.24502 0.31991 0.8619 0.0
C224 C 0.32359 0.38335 0.87661 0.0
O225 O 0.30748 0.39616 0.84967 0.0
C226 C 0.25288 0.36591 0.7461 0.0
O227 O 0.23738 0.36344 0.79137 0.0
O228 O 0.27427 0.36298 0.75946 0.0
O229 O 0.28255 0.31237 0.84685 0.0
O230 O 0.26558 0.358 0.93627 0.0
C231 C 0.26379 0.37734 0.96466 0.0
O232 O 0.27163 0.39625 0.93744 0.0
O233 O 0.32069 0.36154 0.8784 0.0
Mg234 Mg 0.89992 0.02199 0.10505 0.0
C235 C 0.89194 0.01262 0.23643 0.0
O236 O 0.90431 0.0317 0.23345 0.0
C237 C 0.9075 0.01021 0.97149 0.0
O238 O 0.92506 0.0238 0.98568 0.0
C239 C 0.88906 0.07229 0.15144 0.0
O240 O 0.91138 0.07444 0.16334 0.0
O241 O 0.88173 0.05459 0.12156 0.0
O242 O 0.88723 1.00211 0.18503 0.0
O243 O 0.93771 0.0208 0.11359 0.0
C244 C 0.94606 1.00039 0.10989 0.0
O245 O 0.93159 0.98289 0.10431 0.0
O246 O 0.89192 0.00661 1.01317 0.0
Mg247 Mg 0.22923 0.66205 0.35436 0.0
C248 C 0.25087 0.70823 0.35128 0.0
O249 O 0.26866 0.69396 0.35163 0.0
C250 C 0.19167 0.62663 0.35822 0.0
O251 O 0.20667 0.61736 0.31869 0.0
C252 C 0.22962 0.65187 0.21491 0.0
O253 O 0.20821 0.65903 0.22417 0.0
O254 O 0.24311 0.65024 0.26271 0.0
O255 O 0.23042 0.69973 0.35164 0.0
O256 O 0.24926 0.65342 0.4393 0.0
C257 C 0.24356 0.63654 0.47513 0.0
O258 O 0.2282 0.62147 0.4549 0.0
O259 O 0.19513 0.64735 0.3762 0.0
Mg260 Mg 0.59104 0.04359 0.06574 0.0
C261 C 0.597 0.02994 0.93469 0.0
O262 O 0.58801 0.05083 0.93189 0.0
C263 C 0.58737 0.03363 0.20243 0.0
O264 O 0.56886 0.04622 0.19042 0.0
C265 C 0.62843 0.07143 1.0162 0.0
O266 O 0.63713 0.05088 0.02869 0.0
O267 O 0.60781 0.07579 0.03471 0.0
O268 O 0.60062 0.02083 0.98882 0.0
O269 O 0.55322 0.04051 0.06354 0.0
C270 C 0.54679 0.01953 0.07094 0.0
O271 O 0.56287 0.00361 0.0786 0.0
O272 O 0.60205 0.0304 0.15821 0.0
Mg273 Mg 0.22201 0.35041 0.347 0.0
C274 C 0.24455 0.30435 0.34707 0.0
O275 O 0.2623 0.31862 0.34326 0.0
C276 C 0.17993 0.35959 0.26773 0.0
O277 O 0.19215 0.34606 0.23041 0.0
C278 C 0.22124 0.36439 0.48494 0.0
O279 O 0.19906 0.36041 0.47467 0.0
O280 O 0.23531 0.36279 0.4385 0.0
O281 O 0.22412 0.3128 0.35001 0.0
O282 O 0.24243 0.35951 0.26386 0.0
C283 C 0.23836 0.37742 0.23035 0.0
O284 O 0.22409 0.39331 0.25194 0.0
O285 O 0.18735 0.36336 0.32375 0.0
Mg286 Mg 0.90685 0.95754 0.59226 0.0
C287 C 0.87641 0.97407 0.48309 0.0
O288 O 0.86554 0.95434 0.49226 0.0
C289 C 0.91161 0.96348 0.72993 0.0
O290 O 0.93113 0.95336 0.71327 0.0
C291 C 0.90114 0.91722 0.50389 0.0
O292 O 0.91333 0.93148 0.46836 0.0
O293 O 0.89743 0.92265 0.56158 0.0
O294 O 0.89204 0.98042 0.52201 0.0
O295 O 0.94382 0.96577 0.58773 0.0
C296 C 0.94892 0.98705 0.59607 0.0
O297 O 0.93197 1.0019 0.60545 0.0
O298 O 0.89597 0.96646 0.68808 0.0
Mg299 Mg 0.29633 0.66334 0.85105 0.0
C300 C 0.27264 0.70854 0.84761 0.0
O301 O 0.25627 0.69391 0.83087 0.0
C302 C 0.33187 0.63436 0.79069 0.0
O303 O 0.31221 0.62368 0.7791 0.0
C304 C 0.26196 0.64878 0.95463 0.0
O305 O 0.24697 0.6539 0.90969 0.0
O306 O 0.28356 0.6493 0.9416 0.0
O307 O 0.29286 0.70071 0.85988 0.0
O308 O 0.27727 0.65684 0.76336 0.0
C309 C 0.26557 0.6397 0.74326 0.0
O310 O 0.26135 0.62211 0.78121 0.0
O311 O 0.33169 0.65206 0.8266 0.0
Mg312 Mg 0.40537 0.02973 0.55966 0.0
C313 C 0.45065 0.00543 0.55937 0.0
O314 O 0.43555 0.98849 0.56558 0.0
C315 C 0.37011 0.06162 0.51502 0.0
O316 O 0.35956 0.04166 0.52345 0.0
C317 C 0.41086 0.01936 0.69483 0.0
O318 O 0.42918 0.03193 0.68052 0.0
O319 O 0.39541 0.01619 0.65253 0.0
O320 O 0.44308 0.0261 0.55421 0.0
O321 O 0.39279 0.00945 0.48052 0.0
C322 C 0.39771 0.0197 0.42875 0.0
O323 O 0.41031 0.03867 0.43107 0.0
O324 O 0.39093 0.06373 0.53483 0.0
Mg325 Mg 0.72466 0.66044 0.32121 0.0
C326 C 0.75594 0.63768 0.21437 0.0
O327 O 0.76065 0.62058 0.25354 0.0
C328 C 0.72538 0.64586 0.45819 0.0
O329 O 0.70334 0.65095 0.44939 0.0
C330 C 0.69011 0.62961 0.2613 0.0
O331 O 0.71014 0.61971 0.2494 0.0
O332 O 0.68977 0.64736 0.29713 0.0
O333 O 0.74382 0.6547 0.23342 0.0
O334 O 0.72666 0.69796 0.32905 0.0
C335 C 0.74735 0.70583 0.32781 0.0
O336 O 0.76467 0.69105 0.32439 0.0
O337 O 0.73902 0.64678 0.41062 0.0
Mg338 Mg 0.09205 0.96541 0.09645 0.0
C339 C 0.0454 0.98395 0.09691 0.0
O340 O 0.05959 1.00173 0.10108 0.0
C341 C 0.11017 0.91765 0.04435 0.0
O342 O 0.08902 0.9138 0.02326 0.0
C343 C 0.0855 0.97713 0.23159 0.0
O344 O 0.06858 0.9624 0.2205 0.0
O345 O 0.09998 0.98148 0.18755 0.0
O346 O 0.05417 0.96373 0.09242 0.0
O347 O 0.10062 0.98812 0.01787 0.0
C348 C 0.1008 0.97849 0.96366 0.0
O349 O 0.09641 0.95625 0.95988 0.0
O350 O 0.114 0.93517 0.07951 0.0
Mg351 Mg 0.78921 0.35009 0.82603 0.0
C352 C 0.77453 0.37689 0.7081 0.0
O353 O 0.7904 0.39146 0.72817 0.0
C354 C 0.75706 0.36584 0.93368 0.0
O355 O 0.74148 0.36382 0.88841 0.0
C356 C 0.83002 0.38177 0.81222 0.0
O357 O 0.81743 0.3929 0.8543 0.0
O358 O 0.82391 0.36136 0.79715 0.0
O359 O 0.76841 0.36017 0.74393 0.0
O360 O 0.78539 0.31262 0.82878 0.0
C361 C 0.76475 0.30494 0.82259 0.0
O362 O 0.74769 0.31981 0.81496 0.0
O363 O 0.77838 0.36263 0.92004 0.0
Mg364 Mg 0.40663 0.96411 0.07289 0.0
C365 C 0.44992 0.99159 0.07111 0.0
O366 O 0.43361 0.0071 0.06111 0.0
C367 C 0.3992 0.92352 0.16015 0.0
O368 O 0.41219 0.93692 0.19592 0.0
C369 C 0.41218 0.97129 0.93557 0.0
O370 O 0.43129 0.96038 0.95218 0.0
O371 O 0.39645 0.9743 0.9771 0.0
O372 O 0.44396 0.97049 0.0788 0.0
O373 O 0.3932 0.98757 0.14345 0.0
C374 C 0.37782 0.98187 0.18384 0.0
O375 O 0.36611 0.96255 0.17611 0.0
O376 O 0.39545 0.92957 0.10286 0.0
Mg377 Mg 0.7914 0.65734 0.82573 0.0
C378 C 0.77695 0.63177 0.94608 0.0
O379 O 0.79292 0.61712 0.92715 0.0
C380 C 0.75815 0.6434 0.71861 0.0
O381 O 0.74282 0.64691 0.76375 0.0
C382 C 0.83139 0.62458 0.83753 0.0
O383 O 0.81806 0.61378 0.79644 0.0
O384 O 0.826 0.64516 0.85295 0.0
O385 O 0.77079 0.64814 0.90909 0.0
O386 O 0.78852 0.6949 0.82128 0.0
C387 C 0.76827 0.70316 0.83067 0.0
O388 O 0.75115 0.68882 0.84338 0.0
O389 O 0.77967 0.64495 0.73221 0.0
Mg390 Mg 0.08838 0.04257 0.59899 0.0
C391 C 0.04478 0.01814 0.60147 0.0
O392 O 0.06133 1.00258 0.59608 0.0
C393 C 0.10197 0.0917 0.65248 0.0
O394 O 0.08088 0.09325 0.67595 0.0
C395 C 0.08248 0.02954 0.46438 0.0
O396 O 0.06369 0.04171 0.47614 0.0
O397 O 0.09775 0.02744 0.50768 0.0
O398 O 0.05063 0.03941 0.60539 0.0
O399 O 0.10003 0.0212 0.67732 0.0
C400 C 0.09682 0.03032 0.73148 0.0
O401 O 0.08735 0.05094 0.7345 0.0
O402 O 0.107 0.075 0.61553 0.0
Mg403 Mg 0.72407 0.34941 0.33072 0.0
C404 C 0.75491 0.37201 0.43892 0.0
O405 O 0.75977 0.38926 0.40036 0.0
C406 C 0.72484 0.36463 0.19441 0.0
O407 O 0.70266 0.36028 0.20346 0.0
C408 C 0.68956 0.38032 0.38933 0.0
O409 O 0.70957 0.39044 0.40015 0.0
O410 O 0.68918 0.36236 0.35432 0.0
O411 O 0.74296 0.35501 0.419 0.0
O412 O 0.72592 0.31197 0.32236 0.0
C413 C 0.74652 0.30387 0.32354 0.0
O414 O 0.76402 0.31843 0.32747 0.0
O415 O 0.73857 0.36308 0.24169 0.0
C416 C 0.00692 0.52796 0.07167 0.0
C417 C 0.98955 0.51115 0.07996 0.0
H418 H 0.04337 0.53496 0.06438 0.0
C419 C 0.99621 0.48787 0.08836 0.0
H420 H 1.0024 0.54601 0.06512 0.0
C421 C 0.01966 0.4815 0.08793 0.0
C422 C 0.03704 0.49825 0.07911 0.0
H423 H 0.98329 0.47443 0.09499 0.0
H424 H 0.02412 0.46342 0.09418 0.0
C425 C 0.03041 0.52157 0.07125 0.0
C426 C 0.7388 0.77106 0.32772 0.0
C427 C 0.76185 0.77913 0.32309 0.0
H428 H 0.71609 0.74167 0.33298 0.0
C429 C 0.78 0.7629 0.32111 0.0
H430 H 0.72438 0.7831 0.32946 0.0
C431 C 0.77522 0.73916 0.32332 0.0
C432 C 0.75217 0.73107 0.32745 0.0
H433 H 0.79793 0.7685 0.31772 0.0
H434 H 0.78966 0.72715 0.32137 0.0
C435 C 0.73402 0.7473 0.32982 0.0
C436 C 0.48808 0.48669 0.60184 0.0
C437 C 0.4815 0.51008 0.608 0.0
H438 H 0.51605 0.46216 0.59869 0.0
C439 C 0.49877 0.52671 0.61952 0.0
H440 H 0.47519 0.4734 0.59314 0.0
C441 C 0.52214 0.52021 0.62309 0.0
C442 C 0.52882 0.49695 0.61498 0.0
H443 H 0.49431 0.54482 0.62485 0.0
H444 H 0.53501 0.5336 0.63086 0.0
C445 C 0.5115 0.4802 0.60519 0.0
C446 C 0.73186 0.24795 0.81896 0.0
C447 C 0.74986 0.23176 0.82644 0.0
H448 H 0.72245 0.2837 0.81184 0.0
C449 C 0.77284 0.23984 0.83265 0.0
H450 H 0.71399 0.24232 0.81404 0.0
C451 C 0.77772 0.26356 0.83144 0.0
C452 C 0.75973 0.27976 0.82393 0.0
H453 H 0.78715 0.22784 0.83852 0.0
H454 H 0.7956 0.26917 0.83637 0.0
C455 C 0.73675 0.27169 0.81769 0.0
C456 C 0.02938 0.47716 0.56449 0.0
C457 C 0.03699 0.5002 0.55697 0.0
H458 H 1.00034 0.45399 0.57195 0.0
C459 C 0.02033 0.51777 0.55013 0.0
H460 H 0.04177 0.46317 0.56992 0.0
C461 C 0.99662 0.51247 0.55128 0.0
C462 C 0.98898 0.48948 0.55938 0.0
H463 H 0.02557 0.53566 0.54424 0.0
H464 H 0.98428 0.52651 0.54614 0.0
C465 C 0.00563 0.47185 0.56571 0.0
C466 C 0.7411 0.73703 0.83642 0.0
C467 C 0.76365 0.72836 0.82597 0.0
H468 H 0.71892 0.76683 0.83917 0.0
C469 C 0.78149 0.74395 0.81021 0.0
H470 H 0.72693 0.72551 0.84867 0.0
C471 C 0.77685 0.76764 0.8047 0.0
C472 C 0.75428 0.77631 0.81486 0.0
H473 H 0.79902 0.73786 0.80183 0.0
H474 H 0.79102 0.77916 0.79233 0.0
C475 C 0.73647 0.76074 0.83094 0.0
C476 C 0.51757 0.49316 0.03483 0.0
C477 C 0.52593 0.51605 0.03901 0.0
H478 H 0.48788 0.47072 0.0338 0.0
C479 C 0.50983 0.53426 0.04232 0.0
H480 H 0.52949 0.47868 0.03212 0.0
C481 C 0.48595 0.52965 0.04304 0.0
C482 C 0.47761 0.50672 0.04076 0.0
H483 H 0.51566 0.55206 0.04554 0.0
H484 H 0.47403 0.5441 0.04671 0.0
C485 C 0.4937 0.48855 0.03585 0.0
C486 C 0.73254 0.26268 0.32085 0.0
C487 C 0.75098 0.27859 0.32282 0.0
H488 H 0.72228 0.22708 0.31999 0.0
C489 C 0.77392 0.27012 0.32527 0.0
H490 H 0.71468 0.2686 0.31902 0.0
C491 C 0.77831 0.24629 0.32594 0.0
C492 C 0.75986 0.23039 0.32415 0.0
H493 H 0.78857 0.2819 0.3269 0.0
H494 H 0.79616 0.24037 0.32787 0.0
C495 C 0.73693 0.23886 0.32152 0.0
C496 C 0.27413 0.2633 0.8437 0.0
C497 C 0.25645 0.27981 0.85125 0.0
H498 H 0.28283 0.2274 0.83591 0.0
C499 C 0.2333 0.27217 0.85705 0.0
H500 H 0.29212 0.26859 0.83916 0.0
C501 C 0.22794 0.24857 0.85517 0.0
C502 C 0.24561 0.23205 0.84753 0.0
H503 H 0.21922 0.28443 0.86295 0.0
H504 H 0.20994 0.24329 0.85962 0.0
C505 C 0.26878 0.23967 0.84192 0.0
C506 C 0.28179 0.76632 0.3529 0.0
C507 C 0.26313 0.78199 0.35293 0.0
H508 H 0.29256 0.73088 0.35224 0.0
C509 C 0.24029 0.77318 0.35213 0.0
H510 H 0.29958 0.77249 0.35344 0.0
C511 C 0.23623 0.74928 0.35143 0.0
C512 C 0.25491 0.73362 0.35147 0.0
H513 H 0.22548 0.78475 0.35208 0.0
H514 H 0.21845 0.74309 0.35093 0.0
C515 C 0.27773 0.74244 0.35216 0.0
C516 C 0.23371 0.23953 0.35162 0.0
C517 C 0.25641 0.23057 0.34689 0.0
H518 H 0.21213 0.26972 0.3554 0.0
C519 C 0.27513 0.2461 0.34236 0.0
H520 H 0.21886 0.22807 0.35517 0.0
C521 C 0.27124 0.27002 0.34257 0.0
C522 C 0.24853 0.27897 0.34725 0.0
H523 H 0.29281 0.23979 0.33867 0.0
H524 H 0.28608 0.2815 0.33897 0.0
C525 C 0.22982 0.26344 0.35177 0.0
C526 C 0.28422 0.74959 0.87082 0.0
C527 C 0.26723 0.73355 0.85205 0.0
H528 H 0.29234 0.78507 0.8896 0.0
C529 C 0.24474 0.74159 0.83756 0.0
H530 H 0.30168 0.74397 0.88233 0.0
C531 C 0.23935 0.76513 0.8417 0.0
C532 C 0.25632 0.78118 0.86047 0.0
H533 H 0.2312 0.7297 0.82294 0.0
H534 H 0.22187 0.77073 0.83016 0.0
C535 C 0.27882 0.77315 0.875 0.0
C536 C 0.48394 0.97738 0.56717 0.0
C537 C 0.47593 1.00034 0.56112 0.0
H538 H 0.51339 0.95469 0.57465 0.0
C539 C 0.49231 0.01832 0.55793 0.0
H540 H 0.47178 0.96308 0.56984 0.0
C541 C 0.51609 0.01348 0.56088 0.0
C542 C 0.52414 0.99055 0.56703 0.0
H543 H 0.48678 0.03618 0.55339 0.0
H544 H 0.52818 0.02784 0.55828 0.0
C545 C 0.50779 0.97252 0.57004 0.0
C546 C 0.9873 0.01465 0.11047 0.0
C547 C 0.97149 0.99617 0.10787 0.0
H548 H 0.02287 0.02527 0.10881 0.0
C549 C 0.98019 0.97347 0.1016 0.0
H550 H 0.98122 0.03232 0.11513 0.0
C551 C 1.00415 0.96937 0.0978 0.0
C552 C 0.01994 0.98789 0.10017 0.0
H553 H 0.96849 0.9588 0.09932 0.0
H554 H 0.01027 0.95173 0.093 0.0
C555 C 0.01122 0.01056 0.10667 0.0
C556 C 0.51575 0.98931 0.0809 0.0
C557 C 0.52192 0.01268 0.0715 0.0
H558 H 0.48835 0.96431 0.08825 0.0
C559 C 0.50419 0.02906 0.06258 0.0
H560 H 0.52896 0.97619 0.08803 0.0
C561 C 0.48083 0.02218 0.06274 0.0
C562 C 0.47469 0.99878 0.07187 0.0
H563 H 0.50832 0.04717 0.05528 0.0
H564 H 0.46759 0.03525 0.0555 0.0
C565 C 0.49244 0.98244 0.08108 0.0
C566 C 0.01483 0.9869 0.5924 0.0
C567 C 0.02015 0.01053 0.60038 0.0
H568 H 0.98837 0.96098 0.58454 0.0
C569 C 1.00181 0.0264 0.60653 0.0
H570 H 0.0285 0.97415 0.58735 0.0
C571 C 0.97869 0.01876 0.60493 0.0
C572 C 0.97342 0.9951 0.59697 0.0
H573 H 0.0053 0.0447 0.61263 0.0
H574 H 0.96495 0.03144 0.60997 0.0
C575 C 0.99177 0.97929 0.59065 0.0
C576 C 0.12161 0.49016 0.84716 0.0
C577 C 0.10034 0.48407 0.87567 0.0
H578 H 0.13844 0.506 0.76678 0.0
C579 C 0.07951 0.48972 0.84455 0.0
H580 H 0.13792 0.48601 0.87022 0.0
C581 C 0.07981 0.50152 0.78689 0.0
C582 C 0.10095 0.50756 0.75799 0.0
H583 H 0.06284 0.48544 0.86539 0.0
H584 H 0.06337 0.50571 0.76456 0.0
C585 C 0.12191 0.50154 0.78816 0.0
C586 C 0.79199 0.86525 0.99453 0.0
C587 C 0.76811 0.86523 0.98017 0.0
H588 H 0.81822 0.86432 0.0664 0.0
C589 C 0.75212 0.86611 0.03073 0.0
H590 H 0.80484 0.86469 0.95703 0.0
C591 C 0.75986 0.86588 0.09402 0.0
C592 C 0.78376 0.86475 0.10815 0.0
H593 H 0.7336 0.86612 0.02153 0.0
H594 H 0.74709 0.86574 0.13176 0.0
C595 C 0.79969 0.86501 0.05752 0.0
C596 C 0.39857 0.51097 0.29464 0.0
C597 C 0.41911 0.50483 0.26267 0.0
H598 H 0.38357 0.52517 0.37955 0.0
C599 C 0.44061 0.50935 0.29171 0.0
H600 H 0.38175 0.50765 0.27336 0.0
C601 C 0.44166 0.51965 0.35135 0.0
C602 C 0.42122 0.52535 0.38422 0.0
H603 H 0.45676 0.505 0.26817 0.0
H604 H 0.45859 0.52272 0.37221 0.0
C605 C 0.39961 0.52092 0.35535 0.0
C606 C 0.74571 0.14317 0.60209 0.0
C607 C 0.76167 0.14231 0.65275 0.0
H608 H 0.74082 0.14476 0.50112 0.0
C609 C 0.78548 0.14045 0.63858 0.0
H610 H 0.72724 0.14455 0.61117 0.0
C611 C 0.79324 0.14062 0.57567 0.0
C612 C 0.77742 0.14258 0.52503 0.0
H613 H 0.7983 0.13963 0.67618 0.0
H614 H 0.81178 0.1399 0.56689 0.0
C615 C 0.7535 0.14326 0.53892 0.0
C616 C 0.89937 0.5087 0.29313 0.0
C617 C 0.92068 0.51515 0.26558 0.0
H618 H 0.88245 0.4908 0.37023 0.0
C619 C 0.94146 0.5077 0.29393 0.0
H620 H 0.88311 0.51423 0.27205 0.0
C621 C 0.94106 0.4939 0.34818 0.0
C622 C 0.9199 0.48768 0.37659 0.0
H623 H 0.95815 0.5122 0.2735 0.0
H624 H 0.95747 0.48844 0.3686 0.0
C625 C 0.89899 0.49537 0.34909 0.0
C626 C 0.20867 0.14185 0.09151 0.0
C627 C 0.22442 0.14358 0.04067 0.0
H628 H 0.20379 0.14062 0.19206 0.0
C629 C 0.24838 0.14364 0.05429 0.0
H630 H 0.1901 0.14161 0.08297 0.0
C631 C 0.25629 0.14314 0.1174 0.0
C632 C 0.24043 0.1425 0.16829 0.0
H633 H 0.26101 0.14498 1.01637 0.0
H634 H 0.27482 0.14404 0.12629 0.0
C635 C 0.21655 0.14127 0.15433 0.0
C636 C 0.61971 0.52872 0.8247 0.0
C637 C 0.61834 0.51767 0.88412 0.0
H638 H 0.61991 0.52486 0.72369 0.0
C639 C 0.61866 0.49334 0.88637 0.0
H640 H 0.61967 0.54744 0.82124 0.0
C641 C 0.61874 0.48038 0.83035 0.0
C642 C 0.61861 0.49146 0.77086 0.0
H643 H 0.61773 0.48425 0.9313 0.0
H644 H 0.61792 0.46168 0.83378 0.0
C645 C 0.61989 0.51576 0.76868 0.0
C646 C 0.29154 0.86877 0.67233 0.0
C647 C 0.26767 0.869 0.68671 0.0
H648 H 0.31772 0.86765 0.60044 0.0
C649 C 0.25166 0.87015 0.63618 0.0
H650 H 0.3044 0.86801 0.70982 0.0
C651 C 0.25937 0.86992 0.5729 0.0
C652 C 0.28324 0.86853 0.55874 0.0
H653 H 0.23314 0.87035 0.64541 0.0
H654 H 0.24658 0.86998 0.53518 0.0
C655 C 0.2992 0.86853 0.60934 0.0
C656 C 0.61003 0.01368 0.28941 0.0
C657 C 0.58869 0.02054 0.2627 0.0
H658 H 0.62707 0.99584 0.36632 0.0
C659 C 0.56794 0.01419 0.29321 0.0
H660 H 0.62626 0.01836 0.26673 0.0
C661 C 0.5684 1.00091 0.34845 0.0
C662 C 0.58961 0.99414 0.37561 0.0
H663 H 0.55122 0.01903 0.27357 0.0
H664 H 0.55204 0.99614 0.37036 0.0
C665 C 0.61049 1.00088 0.34621 0.0
C666 C 0.25365 0.36755 0.56536 0.0
C667 C 0.22975 0.36785 0.551 0.0
H668 H 0.27977 0.36684 0.63806 0.0
C669 C 0.21379 0.36972 0.60129 0.0
H670 H 0.26644 0.36615 0.52787 0.0
C671 C 0.22141 0.37015 0.66434 0.0
C672 C 0.24522 0.36869 0.67898 0.0
H673 H 0.19527 0.37016 0.59214 0.0
H674 H 0.20851 0.37087 0.7017 0.0
C675 C 0.26129 0.36794 0.62863 0.0
C676 C 0.88717 0.99108 0.8795 0.0
C677 C 0.90776 0.9975 0.91082 0.0
H678 H 0.87215 0.97552 0.79633 0.0
C679 C 0.92925 0.99188 0.88341 0.0
H680 H 0.87039 0.99524 0.89979 0.0
C681 C 0.93025 0.98021 0.82575 0.0
C682 C 0.90979 0.97432 0.79321 0.0
H683 H 0.9454 0.99641 0.90676 0.0
H684 H 0.94718 0.97635 0.80588 0.0
C685 C 0.88818 0.97986 0.8205 0.0
C686 C 0.22997 0.64739 0.03537 0.0
C687 C 0.25384 0.64619 0.02142 0.0
H688 H 0.20372 0.64992 0.10677 0.0
C689 C 0.2697 0.6447 0.07224 0.0
H690 H 0.21721 0.64844 0.99767 0.0
C691 C 0.26189 0.64554 0.13537 0.0
C692 C 0.23807 0.64796 0.14901 0.0
H693 H 0.28822 0.64375 0.06332 0.0
H694 H 0.27459 0.64518 0.17333 0.0
C695 C 0.22222 0.64829 0.09819 0.0
C696 C 0.38974 0.98897 0.84456 0.0
C697 C 0.41102 0.98285 0.87295 0.0
H698 H 0.37287 0.00504 0.76451 0.0
C699 C 0.43183 0.98865 0.84199 0.0
H700 H 0.37344 0.98472 0.86752 0.0
C701 C 0.4315 1.00066 0.78465 0.0
C702 C 0.41035 0.00674 0.75589 0.0
H703 H 0.44852 0.98436 0.86276 0.0
H704 H 0.44794 0.00498 0.76246 0.0
C705 C 0.3894 1.00055 0.78582 0.0
C706 C 0.71849 0.6405 0.57479 0.0
C707 C 0.73424 0.64206 0.52391 0.0
H708 H 0.7136 0.63941 0.67532 0.0
C709 C 0.75821 0.64186 0.53752 0.0
H710 H 0.69991 0.64044 0.5663 0.0
C711 C 0.76613 0.64128 0.60065 0.0
C712 C 0.75025 0.64086 0.65154 0.0
H713 H 0.77084 0.64304 0.49957 0.0
H714 H 0.78466 0.64201 0.60954 0.0
C715 C 0.72637 0.6399 0.63759 0.0
C716 C 0.10543 0.01116 0.37598 0.0
C717 C 0.08399 0.01621 0.40481 0.0
H718 H 0.12278 0.99517 0.2969 0.0
C719 C 0.06342 0.00823 0.37649 0.0
H720 H 0.12152 0.01716 0.39697 0.0
C721 C 0.06417 0.99526 0.32089 0.0
C722 C 0.08548 0.99046 0.29128 0.0
H723 H 0.04665 0.0117 0.3979 0.0
H724 H 0.04795 0.98931 0.30045 0.0
C725 C 0.10614 0.99868 0.31889 0.0
C726 C 0.71792 0.37063 0.07806 0.0
C727 C 0.7337 0.36817 0.12865 0.0
H728 H 0.71285 0.37211 0.97761 0.0
C729 C 0.7576 0.36713 0.11468 0.0
H730 H 0.6994 0.37164 0.08687 0.0
C731 C 0.76539 0.36736 0.05146 0.0
C732 C 0.74944 0.36869 1.00083 0.0
H733 H 0.77025 0.36523 0.15241 0.0
H734 H 0.78383 0.36567 0.04229 0.0
C735 C 0.72567 0.37091 1.01514 0.0
C736 C 0.11904 0.52483 0.31388 0.0
C737 C 0.12372 0.51206 0.36928 0.0
H738 H 0.11933 0.52552 0.21256 0.0
C739 C 0.13529 0.49073 0.36424 0.0
H740 H 0.11055 0.54155 0.31611 0.0
C741 C 0.14061 0.48164 0.30447 0.0
C742 C 0.13433 0.49374 0.24903 0.0
H743 H 0.13935 0.48064 0.40619 0.0
H744 H 0.1483 0.46455 0.30174 0.0
C745 C 0.12424 0.51575 0.25444 0.0
C746 C 0.77642 0.89162 0.60939 0.0
C747 C 0.76263 0.87352 0.63344 0.0
H748 H 0.79236 0.90688 0.52736 0.0
C749 C 0.75332 0.85727 0.59072 0.0
H750 H 0.78371 0.90451 0.6409 0.0
C751 C 0.75791 0.85884 0.52584 0.0
C752 C 0.77213 0.87657 0.50178 0.0
H753 H 0.74239 0.84323 0.60729 0.0
H754 H 0.75071 0.84575 0.49475 0.0
C755 C 0.78122 0.89307 0.54425 0.0
C756 C 0.38905 0.49454 0.76154 0.0
C757 C 0.38089 0.51729 0.75489 0.0
H758 H 0.40013 0.46792 0.82478 0.0
C759 C 0.37504 0.52996 0.80956 0.0
H760 H 0.39354 0.48432 0.72026 0.0
C761 C 0.37912 0.52066 0.86995 0.0
C762 C 0.38898 0.49853 0.87629 0.0
H763 H 0.3688 0.54761 0.80584 0.0
H764 H 0.37564 0.53118 0.91133 0.0
C765 C 0.39297 0.48523 0.82156 0.0
C766 C 0.7542 0.11223 0.10616 0.0
C767 C 0.75903 0.13309 0.13783 0.0
H768 H 0.7446 0.09603 0.01841 0.0
C769 C 0.75876 0.1539 0.10314 0.0
H770 H 0.75445 0.0959 0.13154 0.0
C771 C 0.75379 0.15391 0.03832 0.0
C772 C 0.74852 0.13314 1.00676 0.0
H773 H 0.76273 0.17025 0.12586 0.0
H774 H 0.75354 0.17032 1.01332 0.0
C775 C 0.74873 0.11229 0.04135 0.0
C776 C 0.91354 0.47781 0.82122 0.0
C777 C 0.91415 0.48992 0.76329 0.0
H778 H 0.91366 0.48003 0.92262 0.0
C779 C 0.9138 0.51419 0.76364 0.0
H780 H 0.91352 0.45905 0.82224 0.0
C781 C 0.9141 0.52616 0.82107 0.0
C782 C 0.91442 0.51404 0.879 0.0
H783 H 0.91418 0.52393 0.71966 0.0
H784 H 0.91453 0.54492 0.82006 0.0
C785 C 0.91351 0.48978 0.87865 0.0
C786 C 0.2619 0.11724 0.63643 0.0
C787 C 0.24972 0.1363 0.66096 0.0
H788 H 0.27648 0.10108 0.55417 0.0
C789 C 0.24181 0.15349 0.61866 0.0
H790 H 0.26805 0.1036 0.66754 0.0
C791 C 0.24633 0.1519 0.5537 0.0
C792 C 0.25902 0.13317 0.52929 0.0
H793 H 0.23213 0.16832 0.63567 0.0
H794 H 0.24036 0.16572 0.52288 0.0
C795 C 0.26656 0.11572 0.57133 0.0
C796 C 0.60394 0.50903 0.29553 0.0
C797 C 0.58272 0.5136 0.26492 0.0
H798 H 0.62071 0.4973 0.3807 0.0
C799 C 0.56181 0.50958 0.29738 0.0
H800 H 0.62031 0.51219 0.27163 0.0
C801 C 0.56204 0.50093 0.35908 0.0
C802 C 0.58319 0.49652 0.39003 0.0
H803 H 0.5452 0.51297 0.27491 0.0
H804 H 0.5456 0.49781 0.38271 0.0
C805 C 0.60418 0.50076 0.35798 0.0
C806 C 0.25173 0.86132 0.07713 0.0
C807 C 0.25973 0.87873 0.03569 0.0
H808 H 0.25015 0.84848 0.17213 0.0
C809 C 0.27207 0.89755 0.06114 0.0
H810 H 0.24192 0.84667 0.05947 0.0
C811 C 0.27682 0.89858 0.12636 0.0
C812 C 0.26912 0.88092 0.1675 0.0
H813 H 0.27831 0.91134 0.03065 0.0
H814 H 0.28688 0.91301 0.14433 0.0
C815 C 0.25626 0.86246 0.1421 0.0
C816 C 0.60282 0.01654 0.76021 0.0
C817 C 0.60527 0.99238 0.76123 0.0
H818 H 0.59828 0.04738 0.81468 0.0
C819 C 0.60711 0.98089 0.81994 0.0
H820 H 0.60141 0.02586 0.71571 0.0
C821 C 0.60538 0.9932 0.87664 0.0
C822 C 0.60158 0.01718 0.87557 0.0
H823 H 0.60921 0.96226 0.82219 0.0
H824 H 0.60612 0.9838 0.92114 0.0
C825 C 0.60089 0.02882 0.81691 0.0
C826 C 0.24505 0.39856 0.12744 0.0
C827 C 0.24584 0.37796 0.16312 0.0
H828 H 0.25021 0.41461 0.03649 0.0
C829 C 0.25209 0.35727 0.13262 0.0
H830 H 0.24013 0.41474 0.14956 0.0
C831 C 0.25719 0.35708 0.06791 0.0
C832 C 0.25661 0.37766 0.03217 0.0
H833 H 0.25258 0.34103 0.15842 0.0
H834 H 0.26197 0.34078 0.04616 0.0
C835 C 0.25066 0.39846 0.06269 0.0
C836 C 0.88485 0.00783 0.41365 0.0
C837 C 0.87562 0.98549 0.42054 0.0
H838 H 0.89708 0.03388 0.35017 0.0
C839 C 0.86933 0.97295 0.36599 0.0
H840 H 0.88974 0.01793 0.45483 0.0
C841 C 0.87382 0.982 0.30553 0.0
C842 C 0.88455 0.00373 0.29895 0.0
H843 H 0.86232 0.95559 0.36989 0.0
H844 H 0.86981 0.9716 0.26424 0.0
C845 C 0.88921 0.01687 0.35356 0.0
C846 C 0.26792 0.65597 0.63321 0.0
C847 C 0.25994 0.63852 0.67462 0.0
H848 H 0.26953 0.66879 0.53807 0.0
C849 C 0.2476 0.61971 0.64913 0.0
H850 H 0.27769 0.67063 0.65094 0.0
C851 C 0.24298 0.61864 0.58392 0.0
C852 C 0.2507 0.63629 0.54277 0.0
H853 H 0.24138 0.60589 0.67953 0.0
H854 H 0.23302 0.60414 0.56597 0.0
C855 C 0.26343 0.65483 0.56818 0.0
C856 C 0.38877 0.01516 0.25207 0.0
C857 C 0.37832 0.99332 0.24626 0.0
H858 H 0.40299 0.04056 0.31418 0.0
C859 C 0.37203 0.9811 0.30148 0.0
H860 H 0.3937 0.02501 0.21036 0.0
C861 C 0.37764 0.98991 0.36139 0.0
C862 C 0.38952 0.01107 0.36679 0.0
H863 H 0.36409 0.96413 0.29843 0.0
H864 H 0.37351 0.97975 0.40314 0.0
C865 C 0.39426 0.02396 0.31165 0.0
C866 C 0.77403 0.61704 0.1216 0.0
C867 C 0.76131 0.63583 0.14569 0.0
H868 H 0.78866 0.6008 0.03952 0.0
C869 C 0.75263 0.65248 0.10291 0.0
H870 H 0.78078 0.60381 0.15309 0.0
C871 C 0.75683 0.6506 0.03786 0.0
C872 C 0.76996 0.6321 1.01382 0.0
H873 H 0.74253 0.66708 0.11957 0.0
H874 H 0.75022 0.664 1.00663 0.0
C875 C 0.77836 0.61523 0.05639 0.0
C876 C 0.1055 0.98081 0.84618 0.0
C877 C 0.10319 0.99215 0.90487 0.0
H878 H 0.10556 0.98405 0.74497 0.0
C879 C 0.10127 0.01635 0.906 0.0
H880 H 0.10725 0.96215 0.84387 0.0
C881 C 0.1002 0.02884 0.84933 0.0
C882 C 0.10123 0.01737 0.79059 0.0
H883 H 0.09956 0.02556 0.95048 0.0
H884 H 0.09784 0.04744 0.8516 0.0
C885 C 0.10462 0.99333 0.78951 0.0
C886 C 0.75473 0.35855 0.61508 0.0
C887 C 0.7678 0.37692 0.64016 0.0
H888 H 0.74085 0.34238 0.53237 0.0
C889 C 0.77648 0.39393 0.59842 0.0
H890 H 0.7479 0.34507 0.64565 0.0
C891 C 0.77251 0.39236 0.53298 0.0
C892 C 0.75989 0.37367 0.50786 0.0
H893 H 0.78674 0.40826 0.61611 0.0
H894 H 0.77947 0.40567 0.50212 0.0
C895 C 0.7509 0.3569 0.54983 0.0
C896 C 0.13031 0.40262 0.25373 0.0
C897 C 0.12772 0.40442 0.18746 0.0
H898 H 0.14885 0.3871 0.33122 0.0
C899 C 0.14079 0.38964 0.14848 0.0
H900 H 0.12058 0.4138 0.28523 0.0
C901 C 0.15684 0.37418 0.17497 0.0
C902 C 0.16042 0.37334 0.24103 0.0
H903 H 0.13919 0.39055 0.09733 0.0
H904 H 0.16719 0.36364 0.1433 0.0
C905 C 0.14658 0.38736 0.2802 0.0
C906 C 0.88437 0.89815 0.40735 0.0
C907 C 0.88736 0.8985 0.47366 0.0
H908 H 0.86552 0.88413 0.32847 0.0
C909 C 0.87493 0.88252 0.51078 0.0
H910 H 0.8936 0.91028 0.37724 0.0
C911 C 0.85899 0.86736 0.48264 0.0
C912 C 0.85489 0.86805 0.41679 0.0
H913 H 0.87685 0.8823 0.56191 0.0
H914 H 0.84905 0.85593 0.51308 0.0
C915 C 0.86821 0.88319 0.37928 0.0
C916 C 0.39252 0.61233 0.75529 0.0
C917 C 0.38962 0.60428 0.69264 0.0
H918 H 0.37644 0.62872 0.83585 0.0
C919 C 0.36875 0.60928 0.66081 0.0
H920 H 0.4084 0.60879 0.78114 0.0
C921 C 0.3505 0.62015 0.69247 0.0
C922 C 0.35283 0.62681 0.75616 0.0
H923 H 0.36585 0.60347 0.61262 0.0
H924 H 0.33416 0.62257 0.66769 0.0
C925 C 0.37428 0.62373 0.78669 0.0
C926 C 0.66719 0.08938 0.88044 0.0
C927 C 0.66664 0.11367 0.88337 0.0
H928 H 0.65586 0.05733 0.92034 0.0
C929 C 0.65211 0.12427 0.92869 0.0
H930 H 0.67809 0.08053 0.84631 0.0
C931 C 0.63898 0.11075 0.97125 0.0
C932 C 0.64066 0.08648 0.97003 0.0
H933 H 0.65131 0.14296 0.93223 0.0
H934 H 0.62822 0.11924 1.00636 0.0
C935 C 0.65458 0.07602 0.92346 0.0
C936 C 0.16173 0.61967 0.44417 0.0
C937 C 0.17561 0.61127 0.39409 0.0
H938 H 0.13977 0.61098 0.52365 0.0
C939 C 0.17644 0.58727 0.38353 0.0
H940 H 0.16072 0.63807 0.45362 0.0
C941 C 0.16507 0.57199 0.42423 0.0
C942 C 0.15214 0.58023 0.47594 0.0
H943 H 0.18677 0.5801 0.34538 0.0
H944 H 0.16667 0.55356 0.41559 0.0
C945 C 0.14985 0.60423 0.48444 0.0
C946 C 0.6554 0.91195 0.63411 0.0
C947 C 0.63254 0.90514 0.64837 0.0
H948 H 0.69147 0.90893 0.65591 0.0
C949 C 0.62909 0.88797 0.6951 0.0
H950 H 0.65885 0.92504 0.59843 0.0
C951 C 0.64809 0.87851 0.72829 0.0
C952 C 0.67079 0.88633 0.71591 0.0
H953 H 0.6117 0.88234 0.70741 0.0
H954 H 0.64495 0.86568 0.76485 0.0
C955 C 0.67419 0.90282 0.66763 0.0
C956 C 0.33769 0.41652 0.94094 0.0
C957 C 0.34201 0.39462 0.91475 0.0
H958 H 0.35033 0.44445 0.99717 0.0
C959 C 0.36336 0.3837 0.92759 0.0
H960 H 0.32129 0.42527 0.93276 0.0
C961 C 0.38037 0.39497 0.96423 0.0
C962 C 0.37594 0.41695 0.99028 0.0
H963 H 0.36707 0.36673 0.90829 0.0
H964 H 0.39698 0.38657 0.97192 0.0
C965 C 0.35428 0.42741 0.97872 0.0
C966 C 0.86152 0.12116 0.24664 0.0
C967 C 0.84022 0.11102 0.26426 0.0
H968 H 0.894 0.11672 0.1974 0.0
C969 C 0.83494 0.0887 0.24227 0.0
H970 H 0.86596 0.13842 0.26261 0.0
C971 C 0.85045 0.07674 0.20356 0.0
C972 C 0.87198 0.08652 0.18684 0.0
H973 H 0.81856 0.0805 0.25417 0.0
H974 H 0.84577 0.05946 0.18819 0.0
C975 C 0.87746 0.10883 0.20908 0.0
C976 C 0.86042 0.57307 0.91455 0.0
C977 C 0.87212 0.5831 0.96614 0.0
H978 H 0.83928 0.57822 0.83263 0.0
C979 C 0.87263 0.60735 0.97134 0.0
H980 H 0.86016 0.55445 0.90837 0.0
C981 C 0.8603 0.62117 0.92775 0.0
C982 C 0.84774 0.61094 0.87756 0.0
H983 H 0.8817 0.61551 1.01038 0.0
H984 H 0.85999 0.63975 0.93454 0.0
C985 C 0.8486 0.58677 0.8706 0.0
C986 C 0.11758 0.1211 0.73053 0.0
C987 C 0.12138 0.10515 0.68105 0.0
H988 H 0.13309 0.14241 0.80294 0.0
C989 C 0.1444 0.09979 0.66424 0.0
H990 H 0.10008 0.12561 0.74479 0.0
C991 C 0.16303 0.10891 0.69822 0.0
C992 C 0.15931 0.12401 0.74937 0.0
H993 H 0.14812 0.08771 0.62633 0.0
H994 H 0.18047 0.10384 0.68468 0.0
C995 C 0.13644 0.13063 0.7641 0.0
C996 C 0.67142 0.40008 0.48138 0.0
C997 C 0.66867 0.38906 0.42246 0.0
H998 H 0.65567 0.4197 0.55554 0.0
C999 C 0.6464 0.38782 0.39543 0.0
H1000 H 0.68833 0.40098 0.50391 0.0
C1001 C 0.62754 0.39889 0.42492 0.0
C1002 C 0.63061 0.41093 0.48247 0.0
H1003 H 0.64381 0.37934 0.3502 0.0
H1004 H 0.61078 0.39873 0.4015 0.0
C1005 C 0.65261 0.41067 0.51132 0.0
C1006 C 0.38261 0.90383 0.25628 0.0
C1007 C 0.38507 0.90488 0.18985 0.0
H1008 H 0.3643 0.88911 0.3353 0.0
C1009 C 0.37202 0.88957 0.15235 0.0
H1010 H 0.39231 0.91545 0.28667 0.0
C1011 C 0.35613 0.8743 0.18038 0.0
C1012 C 0.35268 0.87419 0.24653 0.0
H1013 H 0.37351 0.88991 0.10113 0.0
H1014 H 0.34577 0.86334 0.14976 0.0
C1015 C 0.36648 0.88877 0.28427 0.0
C1016 C 0.84747 0.41917 0.77668 0.0
C1017 C 0.8462 0.39498 0.77068 0.0
H1018 H 0.85916 0.45114 0.73697 0.0
C1019 C 0.8581 0.38434 0.72002 0.0
H1020 H 0.83864 0.42804 0.81496 0.0
C1021 C 0.87021 0.39777 0.6751 0.0
C1022 C 0.87012 0.42204 0.67945 0.0
H1023 H 0.85745 0.36573 0.71394 0.0
H1024 H 0.8788 0.38928 0.63581 0.0
C1025 C 0.85906 0.43249 0.73144 0.0
C1026 C 0.36154 0.10251 0.47868 0.0
C1027 C 0.35979 0.07846 0.47012 0.0
H1028 H 0.35023 0.13613 0.44717 0.0
C1029 C 0.34733 0.06997 0.41781 0.0
H1030 H 0.37123 0.10947 0.51838 0.0
C1031 C 0.33592 0.08503 0.37647 0.0
C1032 C 0.33625 0.10904 0.38692 0.0
H1033 H 0.34612 0.05151 0.40916 0.0
H1034 H 0.32597 0.07765 0.33784 0.0
C1035 C 0.34962 0.11771 0.43775 0.0
C1036 C 0.62794 0.6108 0.22797 0.0
C1037 C 0.63075 0.59857 0.17062 0.0
H1038 H 0.6445 0.63061 0.30173 0.0
C1039 C 0.65264 0.59872 0.1412 0.0
H1040 H 0.61127 0.61105 0.25184 0.0
C1041 C 0.67157 0.60944 0.17031 0.0
C1042 C 0.66908 0.62069 0.22902 0.0
H1043 H 0.65551 0.58955 0.09711 0.0
H1044 H 0.68839 0.60848 0.1473 0.0
C1045 C 0.64692 0.62197 0.25665 0.0
C1046 C 0.14662 0.87912 0.93647 0.0
C1047 C 0.16885 0.88876 0.94503 0.0
H1048 H 0.1104 0.88064 0.96138 0.0
C1049 C 0.17174 0.90632 0.99038 0.0
H1050 H 0.14391 0.86542 0.90224 0.0
C1051 C 0.15288 0.91459 0.02502 0.0
C1052 C 0.13039 0.90584 1.0147 0.0
H1053 H 0.18868 0.91389 0.99911 0.0
H1054 H 0.15592 0.92851 0.05838 0.0
C1055 C 0.12749 0.88774 0.97063 0.0
loop_
_geom_bond_atom_site_label_1
_geom_bond_atom_site_label_2
_geom_bond_distance
_geom_bond_site_symmetry_2
_ccdc_geom_bond_type
Mg0 O7 2.141 . S
Mg0 O8 2.048 . S
Mg0 O9 2.048 . S
Mg0 O12 2.141 1_554 S
C1 O2 1.313 . S
C1 O8 1.195 . S
O2 C1 1.313 . S
C3 O4 1.245 . S
C3 O12 1.289 . S
O4 C3 1.245 . S
C5 O6 1.245 . S
C5 O7 1.289 . S
O6 C5 1.245 . S
O7 Mg0 2.141 . S
O7 C5 1.289 . S
O8 Mg0 2.048 . S
O8 C1 1.195 . S
O9 Mg0 2.048 . S
O9 C10 1.195 . S
C10 O9 1.195 . S
C10 O11 1.313 . S
O11 C10 1.313 . S
O12 Mg0 2.141 1_556 S
O12 C3 1.289 . S
Mg13 O20 2.141 . S
Mg13 O21 2.048 . S
Mg13 O22 2.048 . S
Mg13 O25 2.141 . S
C14 O15 1.313 . S
C14 O21 1.195 . S
O15 C14 1.313 . S
C16 O17 1.245 . S
C16 O25 1.289 . S
O17 C16 1.245 . S
C18 O19 1.245 . S
C18 O20 1.289 . S
O19 C18 1.245 . S
O20 Mg13 2.141 . S
O20 C18 1.289 . S
O21 Mg13 2.048 . S
O21 C14 1.195 . S
O22 Mg13 2.048 . S
O22 C23 1.195 . S
C23 O22 1.195 . S
C23 O24 1.313 . S
O24 C23 1.313 . S
O25 Mg13 2.141 . S
O25 C16 1.289 . S
Mg26 O33 2.141 . S
Mg26 O34 2.048 . S
Mg26 O35 2.048 . S
Mg26 O38 2.141 . S
C27 O28 1.313 . S
C27 O34 1.195 . S
O28 C27 1.313 . S
C29 O30 1.245 . S
C29 O38 1.289 . S
O30 C29 1.245 . S
C31 O32 1.245 . S
C31 O33 1.289 . S
O32 C31 1.245 . S
O33 Mg26 2.141 . S
O33 C31 1.289 . S
O34 Mg26 2.048 . S
O34 C27 1.195 . S
O35 Mg26 2.048 . S
O35 C36 1.195 . S
C36 O35 1.195 . S
C36 O37 1.313 . S
O37 C36 1.313 . S
O38 Mg26 2.141 . S
O38 C29 1.289 . S
Mg39 O46 2.141 . S
Mg39 O47 2.048 . S
Mg39 O48 2.048 . S
Mg39 O51 2.141 . S
C40 O41 1.313 . S
C40 O47 1.195 . S
O41 C40 1.313 . S
C42 O43 1.245 . S
C42 O51 1.289 . S
O43 C42 1.245 . S
C44 O45 1.245 . S
C44 O46 1.289 . S
O45 C44 1.245 . S
O46 Mg39 2.141 . S
O46 C44 1.289 . S
O47 Mg39 2.048 . S
O47 C40 1.195 . S
O48 Mg39 2.048 . S
O48 C49 1.195 . S
C49 O48 1.195 . S
C49 O50 1.313 . S
O50 C49 1.313 . S
O51 Mg39 2.141 . S
O51 C42 1.289 . S
Mg52 O59 2.141 . S
Mg52 O60 2.048 . S
Mg52 O61 2.048 . S
Mg52 O64 2.141 . S
C53 O54 1.313 . S
C53 O60 1.195 . S
O54 C53 1.313 . S
C55 O56 1.245 . S
C55 O64 1.289 . S
O56 C55 1.245 . S
C57 O58 1.245 . S
C57 O59 1.289 . S
O58 C57 1.245 . S
O59 Mg52 2.141 . S
O59 C57 1.289 . S
O60 Mg52 2.048 . S
O60 C53 1.195 . S
O61 Mg52 2.048 . S
O61 C62 1.195 . S
C62 O61 1.195 . S
C62 O63 1.313 . S
O63 C62 1.313 . S
O64 Mg52 2.141 . S
O64 C55 1.289 . S
Mg65 O72 2.141 . S
Mg65 O73 2.048 . S
Mg65 O74 2.048 . S
Mg65 O77 2.141 . S
C66 O67 1.313 . S
C66 O73 1.195 . S
O67 C66 1.313 . S
C68 O69 1.245 . S
C68 O77 1.289 . S
O69 C68 1.245 . S
C70 O71 1.245 . S
C70 O72 1.289 . S
O71 C70 1.245 . S
O72 Mg65 2.141 . S
O72 C70 1.289 . S
O73 Mg65 2.048 . S
O73 C66 1.195 . S
O74 Mg65 2.048 . S
O74 C75 1.195 . S
C75 O74 1.195 . S
C75 O76 1.313 . S
O76 C75 1.313 . S
O77 Mg65 2.141 . S
O77 C68 1.289 . S
Mg78 O85 2.141 . S
Mg78 O86 2.048 1_554 S
Mg78 O87 2.048 . S
Mg78 O90 2.141 . S
C79 O80 1.313 . S
C79 O86 1.195 . S
O80 C79 1.313 . S
C81 O82 1.245 . S
C81 O90 1.289 . S
O82 C81 1.245 . S
C83 O84 1.245 . S
C83 O85 1.289 . S
O84 C83 1.245 . S
O85 Mg78 2.141 . S
O85 C83 1.289 . S
O86 Mg78 2.048 1_556 S
O86 C79 1.195 . S
O87 Mg78 2.048 . S
O87 C88 1.195 . S
C88 O87 1.195 . S
C88 O89 1.313 . S
O89 C88 1.313 . S
O90 Mg78 2.141 . S
O90 C81 1.289 . S
Mg91 O98 2.141 . S
Mg91 O99 2.048 . S
Mg91 O100 2.048 . S
Mg91 O103 2.141 . S
C92 O93 1.313 . S
C92 O99 1.195 . S
O93 C92 1.313 . S
C94 O95 1.245 . S
C94 O103 1.289 . S
O95 C94 1.245 . S
C96 O97 1.245 . S
C96 O98 1.289 . S
O97 C96 1.245 . S
O98 Mg91 2.141 . S
O98 C96 1.289 . S
O99 Mg91 2.048 . S
O99 C92 1.195 . S
O100 Mg91 2.048 . S
O100 C101 1.195 . S
C101 O100 1.195 . S
C101 O102 1.313 . S
O102 C101 1.313 . S
O103 Mg91 2.141 . S
O103 C94 1.289 . S
Mg104 O111 2.141 . S
Mg104 O112 2.048 . S
Mg104 O113 2.048 1_554 S
Mg104 O116 2.141 . S
C105 O106 1.313 . S
C105 O112 1.195 . S
O106 C105 1.313 . S
C107 O108 1.245 . S
C107 O116 1.289 . S
O108 C107 1.245 . S
C109 O110 1.245 . S
C109 O111 1.289 . S
O110 C109 1.245 . S
O111 Mg104 2.141 . S
O111 C109 1.289 . S
O112 Mg104 2.048 . S
O112 C105 1.195 . S
O113 Mg104 2.048 1_556 S
O113 C114 1.195 . S
C114 O113 1.195 . S
C114 O115 1.313 . S
O115 C114 1.313 . S
O116 Mg104 2.141 . S
O116 C107 1.289 . S
Mg117 O124 2.141 . S
Mg117 O125 2.048 . S
Mg117 O126 2.048 . S
Mg117 O129 2.141 . S
C118 O119 1.313 . S
C118 O125 1.195 . S
O119 C118 1.313 . S
C120 O121 1.245 . S
C120 O129 1.289 . S
O121 C120 1.245 . S
C122 O123 1.245 . S
C122 O124 1.289 . S
O123 C122 1.245 . S
O124 Mg117 2.141 . S
O124 C122 1.289 . S
O125 Mg117 2.048 . S
O125 C118 1.195 . S
O126 Mg117 2.048 . S
O126 C127 1.195 . S
C127 O126 1.195 . S
C127 O128 1.313 . S
O128 C127 1.313 . S
O129 Mg117 2.141 . S
O129 C120 1.289 . S
Mg130 O137 2.141 . S
Mg130 O138 2.048 . S
Mg130 O139 2.048 . S
Mg130 O142 2.141 . S
C131 O132 1.313 . S
C131 O138 1.195 . S
O132 C131 1.313 . S
C133 O134 1.245 . S
C133 O142 1.289 . S
O134 C133 1.245 . S
C135 O136 1.245 . S
C135 O137 1.289 . S
O136 C135 1.245 . S
O137 Mg130 2.141 . S
O137 C135 1.289 . S
O138 Mg130 2.048 . S
O138 C131 1.195 . S
O139 Mg130 2.048 . S
O139 C140 1.195 . S
C140 O139 1.195 . S
C140 O141 1.313 . S
O141 C140 1.313 . S
O142 Mg130 2.141 . S
O142 C133 1.289 . S
Mg143 O150 2.141 . S
Mg143 O151 2.048 . S
Mg143 O152 2.048 . S
Mg143 O155 2.141 . S
C144 O145 1.313 . S
C144 O151 1.195 . S
O145 C144 1.313 . S
C146 O147 1.245 . S
C146 O155 1.289 . S
O147 C146 1.245 . S
C148 O149 1.245 . S
C148 O150 1.289 . S
O149 C148 1.245 . S
O150 Mg143 2.141 . S
O150 C148 1.289 . S
O151 Mg143 2.048 . S
O151 C144 1.195 . S
O152 Mg143 2.048 . S
O152 C153 1.195 . S
C153 O152 1.195 . S
C153 O154 1.313 . S
O154 C153 1.313 . S
O155 Mg143 2.141 . S
O155 C146 1.289 . S
Mg156 O163 2.141 . S
Mg156 O164 2.048 . S
Mg156 O165 2.048 . S
Mg156 O168 2.141 . S
C157 O158 1.313 . S
C157 O164 1.195 . S
O158 C157 1.313 . S
C159 O160 1.245 . S
C159 O168 1.289 . S
O160 C159 1.245 . S
C161 O162 1.245 . S
C161 O163 1.289 . S
O162 C161 1.245 . S
O163 Mg156 2.141 . S
O163 C161 1.289 . S
O164 Mg156 2.048 . S
O164 C157 1.195 . S
O165 Mg156 2.048 . S
O165 C166 1.195 . S
C166 O165 1.195 . S
C166 O167 1.313 . S
O167 C166 1.313 . S
O168 Mg156 2.141 . S
O168 C159 1.289 . S
Mg169 O176 2.141 . S
Mg169 O177 2.048 . S
Mg169 O178 2.048 . S
Mg169 O181 2.141 . S
C170 O171 1.313 . S
C170 O177 1.195 . S
O171 C170 1.313 . S
C172 O173 1.245 . S
C172 O181 1.289 . S
O173 C172 1.245 . S
C174 O175 1.245 . S
C174 O176 1.289 . S
O175 C174 1.245 . S
O176 Mg169 2.141 . S
O176 C174 1.289 . S
O177 Mg169 2.048 . S
O177 C170 1.195 . S
O178 Mg169 2.048 . S
O178 C179 1.195 . S
C179 O178 1.195 . S
C179 O180 1.313 . S
O180 C179 1.313 . S
O181 Mg169 2.141 . S
O181 C172 1.289 . S
Mg182 O189 2.141 1_554 S
Mg182 O190 2.048 . S
Mg182 O191 2.048 . S
Mg182 O194 2.141 . S
C183 O184 1.313 . S
C183 O190 1.195 . S
O184 C183 1.313 . S
C185 O186 1.245 . S
C185 O194 1.289 . S
O186 C185 1.245 . S
C187 O188 1.245 . S
C187 O189 1.289 . S
O188 C187 1.245 . S
O189 Mg182 2.141 1_556 S
O189 C187 1.289 . S
O190 Mg182 2.048 . S
O190 C183 1.195 . S
O191 Mg182 2.048 . S
O191 C192 1.195 . S
C192 O191 1.195 . S
C192 O193 1.313 . S
O193 C192 1.313 . S
O194 Mg182 2.141 . S
O194 C185 1.289 . S
Mg195 O202 2.141 . S
Mg195 O203 2.048 . S
Mg195 O204 2.048 . S
Mg195 O207 2.141 . S
C196 O197 1.313 . S
C196 O203 1.195 . S
O197 C196 1.313 . S
C198 O199 1.245 . S
C198 O207 1.289 . S
O199 C198 1.245 . S
C200 O201 1.245 . S
C200 O202 1.289 . S
O201 C200 1.245 . S
O202 Mg195 2.141 . S
O202 C200 1.289 . S
O203 Mg195 2.048 . S
O203 C196 1.195 . S
O204 Mg195 2.048 . S
O204 C205 1.195 . S
C205 O204 1.195 . S
C205 O206 1.313 . S
O206 C205 1.313 . S
O207 Mg195 2.141 . S
O207 C198 1.289 . S
Mg208 O215 2.156 . S
Mg208 O216 2.046 1_565 S
Mg208 O217 2.032 1_565 S
Mg208 O220 2.143 . S
C209 O210 1.313 . S
C209 O216 1.195 1_565 S
O210 C209 1.313 . S
C211 O212 1.245 . S
C211 O220 1.289 . S
O212 C211 1.245 . S
C213 O214 1.245 . S
C213 O215 1.289 . S
O214 C213 1.245 . S
O215 Mg208 2.156 . S
O215 C213 1.289 . S
O216 Mg208 2.046 1_545 S
O216 C209 1.195 1_545 S
O217 Mg208 2.032 1_545 S
O217 C218 1.195 . S
C218 O217 1.195 . S
C218 O219 1.313 1_545 S
O219 C218 1.313 1_565 S
O220 Mg208 2.143 . S
O220 C211 1.289 . S
Mg221 O228 2.141 . S
Mg221 O229 2.048 . S
Mg221 O230 2.048 . S
Mg221 O233 2.141 . S
C222 O223 1.313 . S
C222 O229 1.195 . S
O223 C222 1.313 . S
C224 O225 1.245 . S
C224 O233 1.289 . S
O225 C224 1.245 . S
C226 O227 1.245 . S
C226 O228 1.289 . S
O227 C226 1.245 . S
O228 Mg221 2.141 . S
O228 C226 1.289 . S
O229 Mg221 2.048 . S
O229 C222 1.195 . S
O230 Mg221 2.048 . S
O230 C231 1.195 . S
C231 O230 1.195 . S
C231 O232 1.313 . S
O232 C231 1.313 . S
O233 Mg221 2.141 . S
O233 C224 1.289 . S
Mg234 O241 2.156 . S
Mg234 O242 2.046 1_545 S
Mg234 O243 2.032 1_545 S
Mg234 O246 2.143 1_554 S
C235 O236 1.313 . S
C235 O242 1.195 1_545 S
O236 C235 1.313 . S
C237 O238 1.245 . S
C237 O246 1.289 . S
O238 C237 1.245 . S
C239 O240 1.245 . S
C239 O241 1.289 . S
O240 C239 1.245 . S
O241 Mg234 2.156 . S
O241 C239 1.289 . S
O242 Mg234 2.046 1_565 S
O242 C235 1.195 1_565 S
O243 Mg234 2.032 1_565 S
O243 C244 1.195 . S
C244 O243 1.195 . S
C244 O245 1.313 1_565 S
O245 C244 1.313 1_545 S
O246 Mg234 2.143 1_556 S
O246 C237 1.289 . S
Mg247 O254 2.141 . S
Mg247 O255 2.048 . S
Mg247 O256 2.048 . S
Mg247 O259 2.141 . S
C248 O249 1.313 . S
C248 O255 1.195 . S
O249 C248 1.313 . S
C250 O251 1.245 . S
C250 O259 1.289 . S
O251 C250 1.245 . S
C252 O253 1.245 . S
C252 O254 1.289 . S
O253 C252 1.245 . S
O254 Mg247 2.141 . S
O254 C252 1.289 . S
O255 Mg247 2.048 . S
O255 C248 1.195 . S
O256 Mg247 2.048 . S
O256 C257 1.195 . S
C257 O256 1.195 . S
C257 O258 1.313 . S
O258 C257 1.313 . S
O259 Mg247 2.141 . S
O259 C250 1.289 . S
Mg260 O267 2.156 . S
Mg260 O268 2.046 1_544 S
Mg260 O269 2.032 1_545 S
Mg260 O272 2.143 . S
C261 O262 1.313 . S
C261 O268 1.195 1_545 S
O262 C261 1.313 . S
C263 O264 1.245 . S
C263 O272 1.289 . S
O264 C263 1.245 . S
C265 O266 1.245 . S
C265 O267 1.289 . S
O266 C265 1.245 . S
O267 Mg260 2.156 . S
O267 C265 1.289 . S
O268 Mg260 2.046 1_566 S
O268 C261 1.195 1_565 S
O269 Mg260 2.032 1_565 S
O269 C270 1.195 . S
C270 O269 1.195 . S
C270 O271 1.313 1_565 S
O271 C270 1.313 1_545 S
O272 Mg260 2.143 . S
O272 C263 1.289 . S
Mg273 O280 2.141 . S
Mg273 O281 2.048 . S
Mg273 O282 2.048 . S
Mg273 O285 2.141 . S
C274 O275 1.313 . S
C274 O281 1.195 . S
O275 C274 1.313 . S
C276 O277 1.245 . S
C276 O285 1.289 . S
O277 C276 1.245 . S
C278 O279 1.245 . S
C278 O280 1.289 . S
O279 C278 1.245 . S
O280 Mg273 2.141 . S
O280 C278 1.289 . S
O281 Mg273 2.048 . S
O281 C274 1.195 . S
O282 Mg273 2.048 . S
O282 C283 1.195 . S
C283 O282 1.195 . S
C283 O284 1.313 . S
O284 C283 1.313 . S
O285 Mg273 2.141 . S
O285 C276 1.289 . S
Mg286 O293 2.156 . S
Mg286 O294 2.046 1_565 S
Mg286 O295 2.033 1_565 S
Mg286 O298 2.143 . S
C287 O288 1.313 . S
C287 O294 1.195 1_565 S
O288 C287 1.313 . S
C289 O290 1.245 . S
C289 O298 1.289 . S
O290 C289 1.245 . S
C291 O292 1.245 . S
C291 O293 1.289 . S
O292 C291 1.245 . S
O293 Mg286 2.156 . S
O293 C291 1.289 . S
O294 Mg286 2.046 1_545 S
O294 C287 1.195 1_545 S
O295 Mg286 2.033 1_545 S
O295 C296 1.195 . S
C296 O295 1.195 . S
C296 O297 1.313 1_545 S
O297 C296 1.313 1_565 S
O298 Mg286 2.143 . S
O298 C289 1.289 . S
Mg299 O306 2.141 . S
Mg299 O307 2.048 . S
Mg299 O308 2.048 . S
Mg299 O311 2.141 . S
C300 O301 1.313 . S
C300 O307 1.195 . S
O301 C300 1.313 . S
C302 O303 1.245 . S
C302 O311 1.289 . S
O303 C302 1.245 . S
C304 O305 1.245 . S
C304 O306 1.289 . S
O305 C304 1.245 . S
O306 Mg299 2.141 . S
O306 C304 1.289 . S
O307 Mg299 2.048 . S
O307 C300 1.195 . S
O308 Mg299 2.048 . S
O308 C309 1.195 . S
C309 O308 1.195 . S
C309 O310 1.313 . S
O310 C309 1.313 . S
O311 Mg299 2.141 . S
O311 C302 1.289 . S
Mg312 O319 2.143 . S
Mg312 O320 2.033 1_545 S
Mg312 O321 2.046 1_545 S
Mg312 O324 2.156 . S
C313 O314 1.313 1_565 S
C313 O320 1.195 . S
O314 C313 1.313 1_545 S
C315 O316 1.245 . S
C315 O324 1.289 . S
O316 C315 1.245 . S
C317 O318 1.245 . S
C317 O319 1.289 . S
O318 C317 1.245 . S
O319 Mg312 2.143 . S
O319 C317 1.289 . S
O320 Mg312 2.033 1_565 S
O320 C313 1.195 . S
O321 Mg312 2.046 1_565 S
O321 C322 1.195 1_565 S
C322 O321 1.195 1_545 S
C322 O323 1.313 . S
O323 C322 1.313 . S
O324 Mg312 2.156 . S
O324 C315 1.289 . S
Mg325 O332 2.141 . S
Mg325 O333 2.048 . S
Mg325 O334 2.048 . S
Mg325 O337 2.141 . S
C326 O327 1.313 . S
C326 O333 1.195 . S
O327 C326 1.313 . S
C328 O329 1.245 . S
C328 O337 1.289 . S
O329 C328 1.245 . S
C330 O331 1.245 . S
C330 O332 1.289 . S
O331 C330 1.245 . S
O332 Mg325 2.141 . S
O332 C330 1.289 . S
O333 Mg325 2.048 . S
O333 C326 1.195 . S
O334 Mg325 2.048 . S
O334 C335 1.195 . S
C335 O334 1.195 . S
C335 O336 1.313 . S
O336 C335 1.313 . S
O337 Mg325 2.141 . S
O337 C328 1.289 . S
Mg338 O345 2.143 . S
Mg338 O346 2.032 1_565 S
Mg338 O347 2.046 1_564 S
Mg338 O350 2.156 . S
C339 O340 1.313 1_545 S
C339 O346 1.195 . S
O340 C339 1.313 1_565 S
C341 O342 1.245 . S
C341 O350 1.289 . S
O342 C341 1.245 . S
C343 O344 1.245 . S
C343 O345 1.289 . S
O344 C343 1.245 . S
O345 Mg338 2.143 . S
O345 C343 1.289 . S
O346 Mg338 2.032 1_545 S
O346 C339 1.195 . S
O347 Mg338 2.046 1_546 S
O347 C348 1.195 1_545 S
C348 O347 1.195 1_565 S
C348 O349 1.313 . S
O349 C348 1.313 . S
O350 Mg338 2.156 . S
O350 C341 1.289 . S
Mg351 O358 2.141 . S
Mg351 O359 2.048 . S
Mg351 O360 2.048 . S
Mg351 O363 2.141 . S
C352 O353 1.313 . S
C352 O359 1.195 . S
O353 C352 1.313 . S
C354 O355 1.245 . S
C354 O363 1.289 . S
O355 C354 1.245 . S
C356 O357 1.245 . S
C356 O358 1.289 . S
O357 C356 1.245 . S
O358 Mg351 2.141 . S
O358 C356 1.289 . S
O359 Mg351 2.048 . S
O359 C352 1.195 . S
O360 Mg351 2.048 . S
O360 C361 1.195 . S
C361 O360 1.195 . S
C361 O362 1.313 . S
O362 C361 1.313 . S
O363 Mg351 2.141 . S
O363 C354 1.289 . S
Mg364 O371 2.143 1_554 S
Mg364 O372 2.032 1_565 S
Mg364 O373 2.046 1_565 S
Mg364 O376 2.156 . S
C365 O366 1.313 1_545 S
C365 O372 1.195 . S
O366 C365 1.313 1_565 S
C367 O368 1.245 . S
C367 O376 1.289 . S
O368 C367 1.245 . S
C369 O370 1.245 . S
C369 O371 1.289 . S
O370 C369 1.245 . S
O371 Mg364 2.143 1_556 S
O371 C369 1.289 . S
O372 Mg364 2.032 1_545 S
O372 C365 1.195 . S
O373 Mg364 2.046 1_545 S
O373 C374 1.195 1_545 S
C374 O373 1.195 1_565 S
C374 O375 1.313 . S
O375 C374 1.313 . S
O376 Mg364 2.156 . S
O376 C367 1.289 . S
Mg377 O384 2.141 . S
Mg377 O385 2.048 . S
Mg377 O386 2.048 . S
Mg377 O389 2.141 . S
C378 O379 1.313 . S
C378 O385 1.195 . S
O379 C378 1.313 . S
C380 O381 1.245 . S
C380 O389 1.289 . S
O381 C380 1.245 . S
C382 O383 1.245 . S
C382 O384 1.289 . S
O383 C382 1.245 . S
O384 Mg377 2.141 . S
O384 C382 1.289 . S
O385 Mg377 2.048 . S
O385 C378 1.195 . S
O386 Mg377 2.048 . S
O386 C387 1.195 . S
C387 O386 1.195 . S
C387 O388 1.313 . S
O388 C387 1.313 . S
O389 Mg377 2.141 . S
O389 C380 1.289 . S
Mg390 O397 2.143 . S
Mg390 O398 2.032 1_545 S
Mg390 O399 2.046 1_545 S
Mg390 O402 2.156 . S
C391 O392 1.313 1_565 S
C391 O398 1.195 . S
O392 C391 1.313 1_545 S
C393 O394 1.245 . S
C393 O402 1.289 . S
O394 C393 1.245 . S
C395 O396 1.245 . S
C395 O397 1.289 . S
O396 C395 1.245 . S
O397 Mg390 2.143 . S
O397 C395 1.289 . S
O398 Mg390 2.032 1_565 S
O398 C391 1.195 . S
O399 Mg390 2.046 1_565 S
O399 C400 1.195 1_565 S
C400 O399 1.195 1_545 S
C400 O401 1.313 . S
O401 C400 1.313 . S
O402 Mg390 2.156 . S
O402 C393 1.289 . S
Mg403 O410 2.141 . S
Mg403 O411 2.048 . S
Mg403 O412 2.048 . S
Mg403 O415 2.141 . S
C404 O405 1.313 . S
C404 O411 1.195 . S
O405 C404 1.313 . S
C406 O407 1.245 . S
C406 O415 1.289 . S
O407 C406 1.245 . S
C408 O409 1.245 . S
C408 O410 1.289 . S
O409 C408 1.245 . S
O410 Mg403 2.141 . S
O410 C408 1.289 . S
O411 Mg403 2.048 . S
O411 C404 1.195 . S
O412 Mg403 2.048 . S
O412 C413 1.195 . S
C413 O412 1.195 . S
C413 O414 1.313 . S
O414 C413 1.313 . S
O415 Mg403 2.141 . S
O415 C406 1.289 . S
C416 C417 1.387 . S
C416 H420 0.950 . S
C416 C425 1.390 1_655 S
C417 C416 1.387 . S
C417 C419 1.387 . S
H418 C425 0.950 . S
C419 C417 1.387 . S
C419 C421 1.390 1_655 S
C419 H423 0.950 1_554 S
H420 C416 0.950 . S
C421 C419 1.390 1_455 S
C421 C422 1.387 . S
C421 H424 0.950 1_554 S
C422 C421 1.387 . S
C422 C425 1.387 . S
H423 C419 0.950 1_556 S
H424 C421 0.950 1_556 S
C425 C416 1.390 1_455 S
C425 H418 0.950 . S
C425 C422 1.387 . S
C426 C427 1.387 . S
C426 H430 0.950 . S
C426 C435 1.390 . S
C427 C426 1.387 . S
C427 C429 1.387 . S
H428 C435 0.950 . S
C429 C427 1.387 . S
C429 C431 1.390 . S
C429 H433 0.950 . S
H430 C426 0.950 . S
C431 C429 1.390 . S
C431 C432 1.387 . S
C431 H434 0.950 . S
C432 C431 1.387 . S
C432 C435 1.387 . S
H433 C429 0.950 . S
H434 C431 0.950 . S
C435 C426 1.390 . S
C435 H428 0.950 . S
C435 C432 1.387 . S
C436 C437 1.387 . S
C436 H440 0.950 . S
C436 C445 1.390 . S
C437 C436 1.387 . S
C437 C439 1.387 . S
H438 C445 0.950 . S
C439 C437 1.387 . S
C439 C441 1.390 . S
C439 H443 0.950 . S
H440 C436 0.950 . S
C441 C439 1.390 . S
C441 C442 1.387 . S
C441 H444 0.950 . S
C442 C441 1.387 . S
C442 C445 1.387 . S
H443 C439 0.950 . S
H444 C441 0.950 . S
C445 C436 1.390 . S
C445 H438 0.950 . S
C445 C442 1.387 . S
C446 C447 1.387 . S
C446 H450 0.950 . S
C446 C455 1.390 . S
C447 C446 1.387 . S
C447 C449 1.387 . S
H448 C455 0.950 . S
C449 C447 1.387 . S
C449 C451 1.390 . S
C449 H453 0.950 . S
H450 C446 0.950 . S
C451 C449 1.390 . S
C451 C452 1.387 . S
C451 H454 0.950 . S
C452 C451 1.387 . S
C452 C455 1.387 . S
H453 C449 0.950 . S
H454 C451 0.950 . S
C455 C446 1.390 . S
C455 H448 0.950 . S
C455 C452 1.387 . S
C456 C457 1.387 . S
C456 H460 0.950 . S
C456 C465 1.390 1_455 S
C457 C456 1.387 . S
C457 C459 1.387 . S
H458 C465 0.950 . S
C459 C457 1.387 . S
C459 C461 1.390 1_455 S
C459 H463 0.950 . S
H460 C456 0.950 . S
C461 C459 1.390 1_655 S
C461 C462 1.387 . S
C461 H464 0.950 . S
C462 C461 1.387 . S
C462 C465 1.387 . S
H463 C459 0.950 . S
H464 C461 0.950 . S
C465 C456 1.390 1_655 S
C465 H458 0.950 . S
C465 C462 1.387 . S
C466 C467 1.387 . S
C466 H470 0.950 . S
C466 C475 1.390 . S
C467 C466 1.387 . S
C467 C469 1.387 . S
H468 C475 0.950 . S
C469 C467 1.387 . S
C469 C471 1.390 . S
C469 H473 0.950 . S
H470 C466 0.950 . S
C471 C469 1.390 . S
C471 C472 1.387 . S
C471 H474 0.950 . S
C472 C471 1.387 . S
C472 C475 1.387 . S
H473 C469 0.950 . S
H474 C471 0.950 . S
C475 C466 1.390 . S
C475 H468 0.950 . S
C475 C472 1.387 . S
C476 C477 1.387 . S
C476 H480 0.950 . S
C476 C485 1.390 . S
C477 C476 1.387 . S
C477 C479 1.387 . S
H478 C485 0.950 . S
C479 C477 1.387 . S
C479 C481 1.390 . S
C479 H483 0.950 1_554 S
H480 C476 0.950 . S
C481 C479 1.390 . S
C481 C482 1.387 . S
C481 H484 0.950 1_554 S
C482 C481 1.387 . S
C482 C485 1.387 . S
H483 C479 0.950 1_556 S
H484 C481 0.950 1_556 S
C485 C476 1.390 . S
C485 H478 0.950 . S
C485 C482 1.387 . S
C486 C487 1.387 . S
C486 H490 0.950 . S
C486 C495 1.390 . S
C487 C486 1.387 . S
C487 C489 1.387 . S
H488 C495 0.950 . S
C489 C487 1.387 . S
C489 C491 1.390 . S
C489 H493 0.950 . S
H490 C486 0.950 . S
C491 C489 1.390 . S
C491 C492 1.387 . S
C491 H494 0.950 . S
C492 C491 1.387 . S
C492 C495 1.387 . S
H493 C489 0.950 . S
H494 C491 0.950 . S
C495 C486 1.390 . S
C495 H488 0.950 . S
C495 C492 1.387 . S
C496 C497 1.387 . S
C496 H500 0.950 . S
C496 C505 1.390 . S
C497 C496 1.387 . S
C497 C499 1.387 . S
H498 C505 0.950 . S
C499 C497 1.387 . S
C499 C501 1.390 . S
C499 H503 0.950 . S
H500 C496 0.950 . S
C501 C499 1.390 . S
C501 C502 1.387 . S
C501 H504 0.950 . S
C502 C501 1.387 . S
C502 C505 1.387 . S
H503 C499 0.950 . S
H504 C501 0.950 . S
C505 C496 1.390 . S
C505 H498 0.950 . S
C505 C502 1.387 . S
C506 C507 1.387 . S
C506 H510 0.950 . S
C506 C515 1.390 . S
C507 C506 1.387 . S
C507 C509 1.387 . S
H508 C515 0.950 . S
C509 C507 1.387 . S
C509 C511 1.390 . S
C509 H513 0.950 . S
H510 C506 0.950 . S
C511 C509 1.390 . S
C511 C512 1.387 . S
C511 H514 0.950 . S
C512 C511 1.387 . S
C512 C515 1.387 . S
H513 C509 0.950 . S
H514 C511 0.950 . S
C515 C506 1.390 . S
C515 H508 0.950 . S
C515 C512 1.387 . S
C516 C517 1.387 . S
C516 H520 0.950 . S
C516 C525 1.390 . S
C517 C516 1.387 . S
C517 C519 1.387 . S
H518 C525 0.950 . S
C519 C517 1.387 . S
C519 C521 1.390 . S
C519 H523 0.950 . S
H520 C516 0.950 . S
C521 C519 1.390 . S
C521 C522 1.387 . S
C521 H524 0.950 . S
C522 C521 1.387 . S
C522 C525 1.387 . S
H523 C519 0.950 . S
H524 C521 0.950 . S
C525 C516 1.390 . S
C525 H518 0.950 . S
C525 C522 1.387 . S
C526 C527 1.387 . S
C526 H530 0.950 . S
C526 C535 1.390 . S
C527 C526 1.387 . S
C527 C529 1.387 . S
H528 C535 0.950 . S
C529 C527 1.387 . S
C529 C531 1.390 . S
C529 H533 0.950 . S
H530 C526 0.950 . S
C531 C529 1.390 . S
C531 C532 1.387 . S
C531 H534 0.950 . S
C532 C531 1.387 . S
C532 C535 1.387 . S
H533 C529 0.950 . S
H534 C531 0.950 . S
C535 C526 1.390 . S
C535 H528 0.950 . S
C535 C532 1.387 . S
C536 C537 1.387 . S
C536 H540 0.950 . S
C536 C545 1.390 1_565 S
C537 C536 1.387 . S
C537 C539 1.387 . S
H538 C545 0.950 . S
C539 C537 1.387 . S
C539 C541 1.390 1_565 S
C539 H543 0.950 . S
H540 C536 0.950 . S
C541 C539 1.390 1_545 S
C541 C542 1.387 . S
C541 H544 0.950 . S
C542 C541 1.387 . S
C542 C545 1.387 . S
H543 C539 0.950 . S
H544 C541 0.950 . S
C545 C536 1.390 1_545 S
C545 H538 0.950 . S
C545 C542 1.387 . S
C546 C547 1.387 . S
C546 H550 0.950 1_554 S
C546 C555 1.390 1_655 S
C547 C546 1.387 . S
C547 C549 1.387 1_565 S
H548 C555 0.950 1_556 S
C549 C547 1.387 1_545 S
C549 C551 1.390 1_655 S
C549 H553 0.950 . S
H550 C546 0.950 1_556 S
C551 C549 1.390 1_455 S
C551 C552 1.387 . S
C551 H554 0.950 . S
C552 C551 1.387 . S
C552 C555 1.387 1_545 S
H553 C549 0.950 . S
H554 C551 0.950 . S
C555 C546 1.390 1_455 S
C555 H548 0.950 1_554 S
C555 C552 1.387 1_565 S
C556 C557 1.387 1_545 S
C556 H560 0.950 1_554 S
C556 C565 1.390 . S
C557 C556 1.387 1_565 S
C557 C559 1.387 . S
H558 C565 0.950 1_556 S
C559 C557 1.387 . S
C559 C561 1.390 . S
C559 H563 0.950 . S
H560 C556 0.950 1_556 S
C561 C559 1.390 . S
C561 C562 1.387 1_565 S
C561 H564 0.950 . S
C562 C561 1.387 1_545 S
C562 C565 1.387 . S
H563 C559 0.950 . S
H564 C561 0.950 . S
C565 C556 1.390 . S
C565 H558 0.950 1_554 S
C565 C562 1.387 . S
C566 C567 1.387 . S
C566 H570 0.950 . S
C566 C575 1.390 1_465 S
C567 C566 1.387 . S
C567 C569 1.387 . S
H568 C575 0.950 . S
C569 C567 1.387 . S
C569 C571 1.390 1_465 S
C569 H573 0.950 . S
H570 C566 0.950 . S
C571 C569 1.390 1_645 S
C571 C572 1.387 . S
C571 H574 0.950 . S
C572 C571 1.387 . S
C572 C575 1.387 . S
H573 C569 0.950 . S
H574 C571 0.950 . S
C575 C566 1.390 1_645 S
C575 H568 0.950 . S
C575 C572 1.387 . S
C576 C577 1.387 . S
C576 H580 0.950 . S
C576 C585 1.390 . S
C577 C576 1.387 . S
C577 C579 1.387 . S
H578 C585 0.950 . S
C579 C577 1.387 . S
C579 C581 1.390 . S
C579 H583 0.950 . S
H580 C576 0.950 . S
C581 C579 1.390 . S
C581 C582 1.387 . S
C581 H584 0.950 . S
C582 C581 1.387 . S
C582 C585 1.387 . S
H583 C579 0.950 . S
H584 C581 0.950 . S
C585 C576 1.390 . S
C585 H578 0.950 . S
C585 C582 1.387 . S
C586 C587 1.387 . S
C586 H590 0.950 . S
C586 C595 1.390 . S
C587 C586 1.387 . S
C587 C589 1.387 . S
H588 C595 0.950 . S
C589 C587 1.387 . S
C589 C591 1.390 . S
C589 H593 0.950 . S
H590 C586 0.950 . S
C591 C589 1.390 . S
C591 C592 1.387 . S
C591 H594 0.950 . S
C592 C591 1.387 . S
C592 C595 1.387 . S
H593 C589 0.950 . S
H594 C591 0.950 . S
C595 C586 1.390 . S
C595 H588 0.950 . S
C595 C592 1.387 . S
C596 C597 1.387 . S
C596 H600 0.950 . S
C596 C605 1.390 . S
C597 C596 1.387 . S
C597 C599 1.387 . S
H598 C605 0.950 . S
C599 C597 1.387 . S
C599 C601 1.390 . S
C599 H603 0.950 . S
H600 C596 0.950 . S
C601 C599 1.390 . S
C601 C602 1.387 . S
C601 H604 0.950 . S
C602 C601 1.387 . S
C602 C605 1.387 . S
H603 C599 0.950 . S
H604 C601 0.950 . S
C605 C596 1.390 . S
C605 H598 0.950 . S
C605 C602 1.387 . S
C606 C607 1.387 . S
C606 H610 0.950 . S
C606 C615 1.390 . S
C607 C606 1.387 . S
C607 C609 1.387 . S
H608 C615 0.950 . S
C609 C607 1.387 . S
C609 C611 1.390 . S
C609 H613 0.950 . S
H610 C606 0.950 . S
C611 C609 1.390 . S
C611 C612 1.387 . S
C611 H614 0.950 . S
C612 C611 1.387 . S
C612 C615 1.387 . S
H613 C609 0.950 . S
H614 C611 0.950 . S
C615 C606 1.390 . S
C615 H608 0.950 . S
C615 C612 1.387 . S
C616 C617 1.387 . S
C616 H620 0.950 . S
C616 C625 1.390 . S
C617 C616 1.387 . S
C617 C619 1.387 . S
H618 C625 0.950 . S
C619 C617 1.387 . S
C619 C621 1.390 . S
C619 H623 0.950 . S
H620 C616 0.950 . S
C621 C619 1.390 . S
C621 C622 1.387 . S
C621 H624 0.950 . S
C622 C621 1.387 . S
C622 C625 1.387 . S
H623 C619 0.950 . S
H624 C621 0.950 . S
C625 C616 1.390 . S
C625 H618 0.950 . S
C625 C622 1.387 . S
C626 C627 1.387 . S
C626 H630 0.950 . S
C626 C635 1.390 . S
C627 C626 1.387 . S
C627 C629 1.387 . S
H628 C635 0.950 . S
C629 C627 1.387 . S
C629 C631 1.390 . S
C629 H633 0.950 . S
H630 C626 0.950 . S
C631 C629 1.390 . S
C631 C632 1.387 . S
C631 H634 0.950 . S
C632 C631 1.387 . S
C632 C635 1.387 . S
H633 C629 0.950 . S
H634 C631 0.950 . S
C635 C626 1.390 . S
C635 H628 0.950 . S
C635 C632 1.387 . S
C636 C637 1.387 . S
C636 H640 0.950 . S
C636 C645 1.390 . S
C637 C636 1.387 . S
C637 C639 1.387 . S
H638 C645 0.950 . S
C639 C637 1.387 . S
C639 C641 1.390 . S
C639 H643 0.950 . S
H640 C636 0.950 . S
C641 C639 1.390 . S
C641 C642 1.387 . S
C641 H644 0.950 . S
C642 C641 1.387 . S
C642 C645 1.387 . S
H643 C639 0.950 . S
H644 C641 0.950 . S
C645 C636 1.390 . S
C645 H638 0.950 . S
C645 C642 1.387 . S
C646 C647 1.387 . S
C646 H650 0.950 . S
C646 C655 1.390 . S
C647 C646 1.387 . S
C647 C649 1.387 . S
H648 C655 0.950 . S
C649 C647 1.387 . S
C649 C651 1.390 . S
C649 H653 0.950 . S
H650 C646 0.950 . S
C651 C649 1.390 . S
C651 C652 1.387 . S
C651 H654 0.950 . S
C652 C651 1.387 . S
C652 C655 1.387 . S
H653 C649 0.950 . S
H654 C651 0.950 . S
C655 C646 1.390 . S
C655 H648 0.950 . S
C655 C652 1.387 . S
C656 C657 1.387 . S
C656 H660 0.950 . S
C656 C665 1.390 1_545 S
C657 C656 1.387 . S
C657 C659 1.387 . S
H658 C665 0.950 . S
C659 C657 1.387 . S
C659 C661 1.390 1_545 S
C659 H663 0.950 . S
H660 C656 0.950 . S
C661 C659 1.390 1_565 S
C661 C662 1.387 . S
C661 H664 0.950 . S
C662 C661 1.387 . S
C662 C665 1.387 . S
H663 C659 0.950 . S
H664 C661 0.950 . S
C665 C656 1.390 1_565 S
C665 H658 0.950 . S
C665 C662 1.387 . S
C666 C667 1.387 . S
C666 H670 0.950 . S
C666 C675 1.390 . S
C667 C666 1.387 . S
C667 C669 1.387 . S
H668 C675 0.950 . S
C669 C667 1.387 . S
C669 C671 1.390 . S
C669 H673 0.950 . S
H670 C666 0.950 . S
C671 C669 1.390 . S
C671 C672 1.387 . S
C671 H674 0.950 . S
C672 C671 1.387 . S
C672 C675 1.387 . S
H673 C669 0.950 . S
H674 C671 0.950 . S
C675 C666 1.390 . S
C675 H668 0.950 . S
C675 C672 1.387 . S
C676 C677 1.387 . S
C676 H680 0.950 . S
C676 C685 1.390 1_545 S
C677 C676 1.387 . S
C677 C679 1.387 . S
H678 C685 0.950 . S
C679 C677 1.387 . S
C679 C681 1.390 1_545 S
C679 H683 0.950 . S
H680 C676 0.950 . S
C681 C679 1.390 1_565 S
C681 C682 1.387 . S
C681 H684 0.950 . S
C682 C681 1.387 . S
C682 C685 1.387 . S
H683 C679 0.950 . S
H684 C681 0.950 . S
C685 C676 1.390 1_565 S
C685 H678 0.950 . S
C685 C682 1.387 . S
C686 C687 1.387 . S
C686 H690 0.950 . S
C686 C695 1.390 . S
C687 C686 1.387 . S
C687 C689 1.387 . S
H688 C695 0.950 . S
C689 C687 1.387 . S
C689 C691 1.390 . S
C689 H693 0.950 . S
H690 C686 0.950 . S
C691 C689 1.390 . S
C691 C692 1.387 . S
C691 H694 0.950 . S
C692 C691 1.387 . S
C692 C695 1.387 . S
H693 C689 0.950 . S
H694 C691 0.950 . S
C695 C686 1.390 . S
C695 H688 0.950 . S
C695 C692 1.387 . S
C696 C697 1.387 . S
C696 H700 0.950 . S
C696 C705 1.390 1_565 S
C697 C696 1.387 . S
C697 C699 1.387 . S
H698 C705 0.950 . S
C699 C697 1.387 . S
C699 C701 1.390 1_565 S
C699 H703 0.950 . S
H700 C696 0.950 . S
C701 C699 1.390 1_545 S
C701 C702 1.387 . S
C701 H704 0.950 . S
C702 C701 1.387 . S
C702 C705 1.387 . S
H703 C699 0.950 . S
H704 C701 0.950 . S
C705 C696 1.390 1_545 S
C705 H698 0.950 . S
C705 C702 1.387 . S
C706 C707 1.387 . S
C706 H710 0.950 . S
C706 C715 1.390 . S
C707 C706 1.387 . S
C707 C709 1.387 . S
H708 C715 0.950 . S
C709 C707 1.387 . S
C709 C711 1.390 . S
C709 H713 0.950 . S
H710 C706 0.950 . S
C711 C709 1.390 . S
C711 C712 1.387 . S
C711 H714 0.950 . S
C712 C711 1.387 . S
C712 C715 1.387 . S
H713 C709 0.950 . S
H714 C711 0.950 . S
C715 C706 1.390 . S
C715 H708 0.950 . S
C715 C712 1.387 . S
C716 C717 1.387 . S
C716 H720 0.950 . S
C716 C725 1.390 1_545 S
C717 C716 1.387 . S
C717 C719 1.387 . S
H718 C725 0.950 . S
C719 C717 1.387 . S
C719 C721 1.390 1_545 S
C719 H723 0.950 . S
H720 C716 0.950 . S
C721 C719 1.390 1_565 S
C721 C722 1.387 . S
C721 H724 0.950 . S
C722 C721 1.387 . S
C722 C725 1.387 . S
H723 C719 0.950 . S
H724 C721 0.950 . S
C725 C716 1.390 1_565 S
C725 H718 0.950 . S
C725 C722 1.387 . S
C726 C727 1.387 . S
C726 H730 0.950 . S
C726 C735 1.390 . S
C727 C726 1.387 . S
C727 C729 1.387 . S
H728 C735 0.950 . S
C729 C727 1.387 . S
C729 C731 1.390 . S
C729 H733 0.950 . S
H730 C726 0.950 . S
C731 C729 1.390 . S
C731 C732 1.387 . S
C731 H734 0.950 . S
C732 C731 1.387 . S
C732 C735 1.387 . S
H733 C729 0.950 . S
H734 C731 0.950 . S
C735 C726 1.390 . S
C735 H728 0.950 . S
C735 C732 1.387 . S
C736 C737 1.387 . S
C736 H740 0.950 . S
C736 C745 1.390 . S
C737 C736 1.387 . S
C737 C739 1.387 . S
H738 C745 0.950 . S
C739 C737 1.387 . S
C739 C741 1.390 . S
C739 H743 0.950 . S
H740 C736 0.950 . S
C741 C739 1.390 . S
C741 C742 1.387 . S
C741 H744 0.950 . S
C742 C741 1.387 . S
C742 C745 1.387 . S
H743 C739 0.950 . S
H744 C741 0.950 . S
C745 C736 1.390 . S
C745 H738 0.950 . S
C745 C742 1.387 . S
C746 C747 1.387 . S
C746 H750 0.950 . S
C746 C755 1.390 . S
C747 C746 1.387 . S
C747 C749 1.387 . S
H748 C755 0.950 . S
C749 C747 1.387 . S
C749 C751 1.390 . S
C749 H753 0.950 . S
H750 C746 0.950 . S
C751 C749 1.390 . S
C751 C752 1.387 . S
C751 H754 0.950 . S
C752 C751 1.387 . S
C752 C755 1.387 . S
H753 C749 0.950 . S
H754 C751 0.950 . S
C755 C746 1.390 . S
C755 H748 0.950 . S
C755 C752 1.387 . S
C756 C757 1.387 . S
C756 H760 0.950 . S
C756 C765 1.390 . S
C757 C756 1.387 . S
C757 C759 1.387 . S
H758 C765 0.950 . S
C759 C757 1.387 . S
C759 C761 1.390 . S
C759 H763 0.950 . S
H760 C756 0.950 . S
C761 C759 1.390 . S
C761 C762 1.387 . S
C761 H764 0.950 . S
C762 C761 1.387 . S
C762 C765 1.387 . S
H763 C759 0.950 . S
H764 C761 0.950 . S
C765 C756 1.390 . S
C765 H758 0.950 . S
C765 C762 1.387 . S
C766 C767 1.387 . S
C766 H770 0.950 . S
C766 C775 1.390 . S
C767 C766 1.387 . S
C767 C769 1.387 . S
H768 C775 0.950 . S
C769 C767 1.387 . S
C769 C771 1.390 . S
C769 H773 0.950 . S
H770 C766 0.950 . S
C771 C769 1.390 . S
C771 C772 1.387 . S
C771 H774 0.950 . S
C772 C771 1.387 . S
C772 C775 1.387 . S
H773 C769 0.950 . S
H774 C771 0.950 . S
C775 C766 1.390 . S
C775 H768 0.950 . S
C775 C772 1.387 . S
C776 C777 1.387 . S
C776 H780 0.950 . S
C776 C785 1.390 . S
C777 C776 1.387 . S
C777 C779 1.387 . S
H778 C785 0.950 . S
C779 C777 1.387 . S
C779 C781 1.390 . S
C779 H783 0.950 . S
H780 C776 0.950 . S
C781 C779 1.390 . S
C781 C782 1.387 . S
C781 H784 0.950 . S
C782 C781 1.387 . S
C782 C785 1.387 . S
H783 C779 0.950 . S
H784 C781 0.950 . S
C785 C776 1.390 . S
C785 H778 0.950 . S
C785 C782 1.387 . S
C786 C787 1.387 . S
C786 H790 0.950 . S
C786 C795 1.390 . S
C787 C786 1.387 . S
C787 C789 1.387 . S
H788 C795 0.950 . S
C789 C787 1.387 . S
C789 C791 1.390 . S
C789 H793 0.950 . S
H790 C786 0.950 . S
C791 C789 1.390 . S
C791 C792 1.387 . S
C791 H794 0.950 . S
C792 C791 1.387 . S
C792 C795 1.387 . S
H793 C789 0.950 . S
H794 C791 0.950 . S
C795 C786 1.390 . S
C795 H788 0.950 . S
C795 C792 1.387 . S
C796 C797 1.387 . S
C796 H800 0.950 . S
C796 C805 1.390 . S
C797 C796 1.387 . S
C797 C799 1.387 . S
H798 C805 0.950 . S
C799 C797 1.387 . S
C799 C801 1.390 . S
C799 H803 0.950 . S
H800 C796 0.950 . S
C801 C799 1.390 . S
C801 C802 1.387 . S
C801 H804 0.950 . S
C802 C801 1.387 . S
C802 C805 1.387 . S
H803 C799 0.950 . S
H804 C801 0.950 . S
C805 C796 1.390 . S
C805 H798 0.950 . S
C805 C802 1.387 . S
C806 C807 1.387 . S
C806 H810 0.950 . S
C806 C815 1.390 . S
C807 C806 1.387 . S
C807 C809 1.387 . S
H808 C815 0.950 . S
C809 C807 1.387 . S
C809 C811 1.390 . S
C809 H813 0.950 . S
H810 C806 0.950 . S
C811 C809 1.390 . S
C811 C812 1.387 . S
C811 H814 0.950 . S
C812 C811 1.387 . S
C812 C815 1.387 . S
H813 C809 0.950 . S
H814 C811 0.950 . S
C815 C806 1.390 . S
C815 H808 0.950 . S
C815 C812 1.387 . S
C816 C817 1.387 . S
C816 H820 0.950 . S
C816 C825 1.390 1_565 S
C817 C816 1.387 . S
C817 C819 1.387 . S
H818 C825 0.950 . S
C819 C817 1.387 . S
C819 C821 1.390 1_565 S
C819 H823 0.950 . S
H820 C816 0.950 . S
C821 C819 1.390 1_545 S
C821 C822 1.387 . S
C821 H824 0.950 . S
C822 C821 1.387 . S
C822 C825 1.387 . S
H823 C819 0.950 . S
H824 C821 0.950 . S
C825 C816 1.390 1_545 S
C825 H818 0.950 . S
C825 C822 1.387 . S
C826 C827 1.387 . S
C826 H830 0.950 . S
C826 C835 1.390 . S
C827 C826 1.387 . S
C827 C829 1.387 . S
H828 C835 0.950 . S
C829 C827 1.387 . S
C829 C831 1.390 . S
C829 H833 0.950 . S
H830 C826 0.950 . S
C831 C829 1.390 . S
C831 C832 1.387 . S
C831 H834 0.950 . S
C832 C831 1.387 . S
C832 C835 1.387 . S
H833 C829 0.950 . S
H834 C831 0.950 . S
C835 C826 1.390 . S
C835 H828 0.950 . S
C835 C832 1.387 . S
C836 C837 1.387 . S
C836 H840 0.950 . S
C836 C845 1.390 1_565 S
C837 C836 1.387 . S
C837 C839 1.387 . S
H838 C845 0.950 . S
C839 C837 1.387 . S
C839 C841 1.390 1_565 S
C839 H843 0.950 . S
H840 C836 0.950 . S
C841 C839 1.390 1_545 S
C841 C842 1.387 . S
C841 H844 0.950 . S
C842 C841 1.387 . S
C842 C845 1.387 . S
H843 C839 0.950 . S
H844 C841 0.950 . S
C845 C836 1.390 1_545 S
C845 H838 0.950 . S
C845 C842 1.387 . S
C846 C847 1.387 . S
C846 H850 0.950 . S
C846 C855 1.390 . S
C847 C846 1.387 . S
C847 C849 1.387 . S
H848 C855 0.950 . S
C849 C847 1.387 . S
C849 C851 1.390 . S
C849 H853 0.950 . S
H850 C846 0.950 . S
C851 C849 1.390 . S
C851 C852 1.387 . S
C851 H854 0.950 . S
C852 C851 1.387 . S
C852 C855 1.387 . S
H853 C849 0.950 . S
H854 C851 0.950 . S
C855 C846 1.390 . S
C855 H848 0.950 . S
C855 C852 1.387 . S
C856 C857 1.387 . S
C856 H860 0.950 . S
C856 C865 1.390 1_565 S
C857 C856 1.387 . S
C857 C859 1.387 . S
H858 C865 0.950 . S
C859 C857 1.387 . S
C859 C861 1.390 1_565 S
C859 H863 0.950 . S
H860 C856 0.950 . S
C861 C859 1.390 1_545 S
C861 C862 1.387 . S
C861 H864 0.950 . S
C862 C861 1.387 . S
C862 C865 1.387 . S
H863 C859 0.950 . S
H864 C861 0.950 . S
C865 C856 1.390 1_545 S
C865 H858 0.950 . S
C865 C862 1.387 . S
C866 C867 1.387 . S
C866 H870 0.950 . S
C866 C875 1.390 . S
C867 C866 1.387 . S
C867 C869 1.387 . S
H868 C875 0.950 . S
C869 C867 1.387 . S
C869 C871 1.390 . S
C869 H873 0.950 . S
H870 C866 0.950 . S
C871 C869 1.390 . S
C871 C872 1.387 . S
C871 H874 0.950 . S
C872 C871 1.387 . S
C872 C875 1.387 . S
H873 C869 0.950 . S
H874 C871 0.950 . S
C875 C866 1.390 . S
C875 H868 0.950 . S
C875 C872 1.387 . S
C876 C877 1.387 . S
C876 H880 0.950 . S
C876 C885 1.390 1_565 S
C877 C876 1.387 . S
C877 C879 1.387 . S
H878 C885 0.950 . S
C879 C877 1.387 . S
C879 C881 1.390 1_565 S
C879 H883 0.950 . S
H880 C876 0.950 . S
C881 C879 1.390 1_545 S
C881 C882 1.387 . S
C881 H884 0.950 . S
C882 C881 1.387 . S
C882 C885 1.387 . S
H883 C879 0.950 . S
H884 C881 0.950 . S
C885 C876 1.390 1_545 S
C885 H878 0.950 . S
C885 C882 1.387 . S
C886 C887 1.387 . S
C886 H890 0.950 . S
C886 C895 1.390 . S
C887 C886 1.387 . S
C887 C889 1.387 . S
H888 C895 0.950 . S
C889 C887 1.387 . S
C889 C891 1.390 . S
C889 H893 0.950 . S
H890 C886 0.950 . S
C891 C889 1.390 . S
C891 C892 1.387 . S
C891 H894 0.950 . S
C892 C891 1.387 . S
C892 C895 1.387 . S
H893 C889 0.950 . S
H894 C891 0.950 . S
C895 C886 1.390 . S
C895 H888 0.950 . S
C895 C892 1.387 . S
C896 C897 1.387 . S
C896 H900 0.950 . S
C896 C905 1.390 . S
C897 C896 1.387 . S
C897 C899 1.387 . S
H898 C905 0.950 . S
C899 C897 1.387 . S
C899 C901 1.390 . S
C899 H903 0.950 . S
H900 C896 0.950 . S
C901 C899 1.390 . S
C901 C902 1.387 . S
C901 H904 0.950 . S
C902 C901 1.387 . S
C902 C905 1.387 . S
H903 C899 0.950 . S
H904 C901 0.950 . S
C905 C896 1.390 . S
C905 H898 0.950 . S
C905 C902 1.387 . S
C906 C907 1.387 . S
C906 H910 0.950 . S
C906 C915 1.390 . S
C907 C906 1.387 . S
C907 C909 1.387 . S
H908 C915 0.950 . S
C909 C907 1.387 . S
C909 C911 1.390 . S
C909 H913 0.950 . S
H910 C906 0.950 . S
C911 C909 1.390 . S
C911 C912 1.387 . S
C911 H914 0.950 . S
C912 C911 1.387 . S
C912 C915 1.387 . S
H913 C909 0.950 . S
H914 C911 0.950 . S
C915 C906 1.390 . S
C915 H908 0.950 . S
C915 C912 1.387 . S
C916 C917 1.387 . S
C916 H920 0.950 . S
C916 C925 1.390 . S
C917 C916 1.387 . S
C917 C919 1.387 . S
H918 C925 0.950 . S
C919 C917 1.387 . S
C919 C921 1.390 . S
C919 H923 0.950 . S
H920 C916 0.950 . S
C921 C919 1.390 . S
C921 C922 1.387 . S
C921 H924 0.950 . S
C922 C921 1.387 . S
C922 C925 1.387 . S
H923 C919 0.950 . S
H924 C921 0.950 . S
C925 C916 1.390 . S
C925 H918 0.950 . S
C925 C922 1.387 . S
C926 C927 1.387 . S
C926 H930 0.950 . S
C926 C935 1.390 . S
C927 C926 1.387 . S
C927 C929 1.387 . S
H928 C935 0.950 . S
C929 C927 1.387 . S
C929 C931 1.390 . S
C929 H933 0.950 . S
H930 C926 0.950 . S
C931 C929 1.390 . S
C931 C932 1.387 . S
C931 H934 0.950 1_556 S
C932 C931 1.387 . S
C932 C935 1.387 . S
H933 C929 0.950 . S
H934 C931 0.950 1_554 S
C935 C926 1.390 . S
C935 H928 0.950 . S
C935 C932 1.387 . S
C936 C937 1.387 . S
C936 H940 0.950 . S
C936 C945 1.390 . S
C937 C936 1.387 . S
C937 C939 1.387 . S
H938 C945 0.950 . S
C939 C937 1.387 . S
C939 C941 1.390 . S
C939 H943 0.950 . S
H940 C936 0.950 . S
C941 C939 1.390 . S
C941 C942 1.387 . S
C941 H944 0.950 . S
C942 C941 1.387 . S
C942 C945 1.387 . S
H943 C939 0.950 . S
H944 C941 0.950 . S
C945 C936 1.390 . S
C945 H938 0.950 . S
C945 C942 1.387 . S
C946 C947 1.387 . S
C946 H950 0.950 . S
C946 C955 1.390 . S
C947 C946 1.387 . S
C947 C949 1.387 . S
H948 C955 0.950 . S
C949 C947 1.387 . S
C949 C951 1.390 . S
C949 H953 0.950 . S
H950 C946 0.950 . S
C951 C949 1.390 . S
C951 C952 1.387 . S
C951 H954 0.950 . S
C952 C951 1.387 . S
C952 C955 1.387 . S
H953 C949 0.950 . S
H954 C951 0.950 . S
C955 C946 1.390 . S
C955 H948 0.950 . S
C955 C952 1.387 . S
C956 C957 1.387 . S
C956 H960 0.950 . S
C956 C965 1.390 . S
C957 C956 1.387 . S
C957 C959 1.387 . S
H958 C965 0.950 . S
C959 C957 1.387 . S
C959 C961 1.390 . S
C959 H963 0.950 . S
H960 C956 0.950 . S
C961 C959 1.390 . S
C961 C962 1.387 . S
C961 H964 0.950 . S
C962 C961 1.387 . S
C962 C965 1.387 . S
H963 C959 0.950 . S
H964 C961 0.950 . S
C965 C956 1.390 . S
C965 H958 0.950 . S
C965 C962 1.387 . S
C966 C967 1.387 . S
C966 H970 0.950 . S
C966 C975 1.390 . S
C967 C966 1.387 . S
C967 C969 1.387 . S
H968 C975 0.950 . S
C969 C967 1.387 . S
C969 C971 1.390 . S
C969 H973 0.950 . S
H970 C966 0.950 . S
C971 C969 1.390 . S
C971 C972 1.387 . S
C971 H974 0.950 . S
C972 C971 1.387 . S
C972 C975 1.387 . S
H973 C969 0.950 . S
H974 C971 0.950 . S
C975 C966 1.390 . S
C975 H968 0.950 . S
C975 C972 1.387 . S
C976 C977 1.387 . S
C976 H980 0.950 . S
C976 C985 1.390 . S
C977 C976 1.387 . S
C977 C979 1.387 . S
H978 C985 0.950 . S
C979 C977 1.387 . S
C979 C981 1.390 . S
C979 H983 0.950 1_556 S
H980 C976 0.950 . S
C981 C979 1.390 . S
C981 C982 1.387 . S
C981 H984 0.950 . S
C982 C981 1.387 . S
C982 C985 1.387 . S
H983 C979 0.950 1_554 S
H984 C981 0.950 . S
C985 C976 1.390 . S
C985 H978 0.950 . S
C985 C982 1.387 . S
C986 C987 1.387 . S
C986 H990 0.950 . S
C986 C995 1.390 . S
C987 C986 1.387 . S
C987 C989 1.387 . S
H988 C995 0.950 . S
C989 C987 1.387 . S
C989 C991 1.390 . S
C989 H993 0.950 . S
H990 C986 0.950 . S
C991 C989 1.390 . S
C991 C992 1.387 . S
C991 H994 0.950 . S
C992 C991 1.387 . S
C992 C995 1.387 . S
H993 C989 0.950 . S
H994 C991 0.950 . S
C995 C986 1.390 . S
C995 H988 0.950 . S
C995 C992 1.387 . S
C996 C997 1.387 . S
C996 H1000 0.950 . S
C996 C1005 1.390 . S
C997 C996 1.387 . S
C997 C999 1.387 . S
H998 C1005 0.950 . S
C999 C997 1.387 . S
C999 C1001 1.390 . S
C999 H1003 0.950 . S
H1000 C996 0.950 . S
C1001 C999 1.390 . S
C1001 C1002 1.387 . S
C1001 H1004 0.950 . S
C1002 C1001 1.387 . S
C1002 C1005 1.387 . S
H1003 C999 0.950 . S
H1004 C1001 0.950 . S
C1005 C996 1.390 . S
C1005 H998 0.950 . S
C1005 C1002 1.387 . S
C1006 C1007 1.387 . S
C1006 H1010 0.950 . S
C1006 C1015 1.390 . S
C1007 C1006 1.387 . S
C1007 C1009 1.387 . S
H1008 C1015 0.950 . S
C1009 C1007 1.387 . S
C1009 C1011 1.390 . S
C1009 H1013 0.950 . S
H1010 C1006 0.950 . S
C1011 C1009 1.390 . S
C1011 C1012 1.387 . S
C1011 H1014 0.950 . S
C1012 C1011 1.387 . S
C1012 C1015 1.387 . S
H1013 C1009 0.950 . S
H1014 C1011 0.950 . S
C1015 C1006 1.390 . S
C1015 H1008 0.950 . S
C1015 C1012 1.387 . S
C1016 C1017 1.387 . S
C1016 H1020 0.950 . S
C1016 C1025 1.390 . S
C1017 C1016 1.387 . S
C1017 C1019 1.387 . S
H1018 C1025 0.950 . S
C1019 C1017 1.387 . S
C1019 C1021 1.390 . S
C1019 H1023 0.950 . S
H1020 C1016 0.950 . S
C1021 C1019 1.390 . S
C1021 C1022 1.387 . S
C1021 H1024 0.950 . S
C1022 C1021 1.387 . S
C1022 C1025 1.387 . S
H1023 C1019 0.950 . S
H1024 C1021 0.950 . S
C1025 C1016 1.390 . S
C1025 H1018 0.950 . S
C1025 C1022 1.387 . S
C1026 C1027 1.387 . S
C1026 H1030 0.950 . S
C1026 C1035 1.390 . S
C1027 C1026 1.387 . S
C1027 C1029 1.387 . S
H1028 C1035 0.950 . S
C1029 C1027 1.387 . S
C1029 C1031 1.390 . S
C1029 H1033 0.950 . S
H1030 C1026 0.950 . S
C1031 C1029 1.390 . S
C1031 C1032 1.387 . S
C1031 H1034 0.950 . S
C1032 C1031 1.387 . S
C1032 C1035 1.387 . S
H1033 C1029 0.950 . S
H1034 C1031 0.950 . S
C1035 C1026 1.390 . S
C1035 H1028 0.950 . S
C1035 C1032 1.387 . S
C1036 C1037 1.387 . S
C1036 H1040 0.950 . S
C1036 C1045 1.390 . S
C1037 C1036 1.387 . S
C1037 C1039 1.387 . S
H1038 C1045 0.950 . S
C1039 C1037 1.387 . S
C1039 C1041 1.390 . S
C1039 H1043 0.950 . S
H1040 C1036 0.950 . S
C1041 C1039 1.390 . S
C1041 C1042 1.387 . S
C1041 H1044 0.950 . S
C1042 C1041 1.387 . S
C1042 C1045 1.387 . S
H1043 C1039 0.950 . S
H1044 C1041 0.950 . S
C1045 C1036 1.390 . S
C1045 H1038 0.950 . S
C1045 C1042 1.387 . S
C1046 C1047 1.387 . S
C1046 H1050 0.950 . S
C1046 C1055 1.390 . S
C1047 C1046 1.387 . S
C1047 C1049 1.387 . S
H1048 C1055 0.950 1_554 S
C1049 C1047 1.387 . S
C1049 C1051 1.390 . S
C1049 H1053 0.950 . S
H1050 C1046 0.950 . S
C1051 C1049 1.390 . S
C1051 C1052 1.387 . S
C1051 H1054 0.950 . S
C1052 C1051 1.387 . S
C1052 C1055 1.387 . S
H1053 C1049 0.950 . S
H1054 C1051 0.950 . S
C1055 C1046 1.390 . S
C1055 H1048 0.950 1_556 S
C1055 C1052 1.387 . S
C417 C105 1.918 . S
C422 C10 1.918 . S
C427 C14 2.048 . S
C432 C335 2.048 . S
C437 C36 1.918 . S
C442 C131 1.918 . S
C447 C40 2.045 . S
C452 C361 2.045 . S
C457 C62 1.918 . S
C462 C157 1.918 . S
C467 C387 2.048 . S
C472 C66 2.048 . S
C477 C183 1.922 . S
C482 C88 1.922 . S
C487 C413 2.048 . S
C492 C92 2.048 . S
C497 C222 2.048 . S
C502 C127 2.048 . S
C507 C153 2.045 . S
C512 C248 2.045 . S
C517 C179 2.048 . S
C522 C274 2.048 . S
C527 C300 2.048 . S
C532 C205 2.048 . S
C537 C313 1.922 . S
C542 C218 1.922 . S
C547 C244 1.922 . S
C552 C339 1.922 . S
C557 C270 1.918 . S
C562 C365 1.918 . S
C567 C391 1.922 . S
C572 C296 1.922 . S
C577 C3 1.745 . S
C582 C55 1.745 . S
C587 C70 1.669 1_554 S
C592 C18 1.669 . S
C597 C81 1.745 . S
C602 C29 1.745 . S
C607 C44 1.672 . S
C612 C96 1.672 . S
C617 C109 1.746 . S
C622 C161 1.746 . S
C627 C120 1.672 1_554 S
C632 C172 1.672 . S
C637 C187 1.746 . S
C642 C135 1.746 . S
C647 C198 1.672 . S
C652 C146 1.672 . S
C657 C263 1.745 . S
C662 C211 1.745 . S
C667 C278 1.672 . S
C672 C226 1.672 . S
C677 C237 1.745 . S
C682 C289 1.745 . S
C687 C304 1.669 1_554 S
C692 C252 1.669 . S
C697 C369 1.746 . S
C702 C317 1.746 . S
C707 C328 1.672 . S
C712 C380 1.672 . S
C717 C395 1.746 . S
C722 C343 1.746 . S
C727 C406 1.672 . S
C732 C354 1.672 1_554 S
C737 C53 0.799 . S
C742 C1 0.799 . S
C747 C75 0.797 . S
C752 C23 0.797 . S
C757 C27 0.798 . S
C762 C79 0.798 . S
C767 C101 0.797 . S
C772 C49 0.797 1_554 S
C777 C166 0.798 . S
C782 C114 0.798 . S
C787 C118 0.793 . S
C792 C170 0.793 . S
C797 C192 0.799 . S
C802 C140 0.799 . S
C807 C196 0.797 1_554 S
C812 C144 0.797 . S
C817 C209 0.798 . S
C822 C261 0.798 . S
C827 C283 0.797 . S
C832 C231 0.797 1_554 S
C837 C287 0.799 . S
C842 C235 0.799 . S
C847 C309 0.793 . S
C852 C257 0.793 . S
C857 C374 0.799 . S
C862 C322 0.799 . S
C867 C326 0.793 . S
C872 C378 0.793 1_554 S
C877 C348 0.799 . S
C882 C400 0.799 . S
C887 C352 0.797 . S
C892 C404 0.797 . S
C897 C5 1.983 . S
C902 C276 2.049 . S
C907 C291 1.983 . S
C912 C16 2.049 . S
C917 C31 1.983 . S
C922 C302 2.050 . S
C927 C42 2.051 . S
C932 C265 1.985 1_556 S
C937 C250 2.050 . S
C942 C57 1.984 . S
C947 C213 1.985 . S
C952 C68 2.051 . S
C957 C224 2.051 . S
C962 C83 1.985 1_556 S
C967 C94 2.050 . S
C972 C239 1.982 . S
C977 C107 1.982 1_556 S
C982 C382 2.050 . S
C987 C393 1.985 . S
C992 C122 2.051 . S
C997 C408 2.050 . S
C1002 C133 1.982 . S
C1007 C367 1.985 . S
C1012 C148 2.051 . S
C1017 C356 2.050 . S
C1022 C159 1.982 . S
C1027 C315 1.985 . S
C1032 C174 2.050 . S
C1037 C185 1.985 . S
C1042 C330 2.051 . S
C1047 C200 2.051 . S
C1052 C341 1.985 1_556 S
