# Generated by pormake.
# Topology npo, (4)-cn, num edge types: 1
# Building blocks:
#     Node 0, Type 0, BuildingBlock: QUQFOY_clean_sbu_1, # of connection points: 4
#     Node 1, Type 0, BuildingBlock: QUQFOY_clean_sbu_1, # of connection points: 4
#     Node 2, Type 0, BuildingBlock: QUQFOY_clean_sbu_1, # of connection points: 4
#     Node 3, Type 0, BuildingBlock: QUQFOY_clean_sbu_1, # of connection points: 4
#     Node 4, Type 0, BuildingBlock: QUQFOY_clean_sbu_1, # of connection points: 4
#     Node 5, Type 0, BuildingBlock: QUQFOY_clean_sbu_1, # of connection points: 4
#     Edge 6, Type (0, 0), BuildingBlock: TEMPAE_clean_linker_10, # of connection points: 2
#     Edge 7, Type (0, 0), BuildingBlock: TEMPAE_clean_linker_10, # of connection points: 2
#     Edge 8, Type (0, 0), BuildingBlock: TEMPAE_clean_linker_10, # of connection points: 2
#     Edge 9, Type (0, 0), BuildingBlock: TEMPAE_clean_linker_10, # of connection points: 2
#     Edge 10, Type (0, 0), BuildingBlock: TEMPAE_clean_linker_10, # of connection points: 2
#     Edge 11, Type (0, 0), BuildingBlock: TEMPAE_clean_linker_10, # of connection points: 2
#     Edge 12, Type (0, 0), BuildingBlock: TEMPAE_clean_linker_10, # of connection points: 2
#     Edge 13, Type (0, 0), BuildingBlock: TEMPAE_clean_linker_10, # of connection points: 2
#     Edge 14, Type (0, 0), BuildingBlock: TEMPAE_clean_linker_10, # of connection points: 2
#     Edge 15, Type (0, 0), BuildingBlock: TEMPAE_clean_linker_10, # of connection points: 2
#     Edge 16, Type (0, 0), BuildingBlock: TEMPAE_clean_linker_10, # of connection points: 2
#     Edge 17, Type (0, 0), BuildingBlock: TEMPAE_clean_linker_10, # of connection points: 2
# Relax obj value: 0.266
# Max RMSD: 0.245
# Mean RMSD: 0.245
data_MOF--net-npo--node1-QUQFOY_clean_sbu_1--edge1-TEMPAE_clean_linker_10
_symmetry_space_group_name_H-M    P1
_symmetry_Int_Tables_number       1
_symmetry_cell_setting            triclinic
loop_
_symmetry_equiv_pos_as_xyz
'x, y, z'
_cell_length_a     44.063039
_cell_length_b     44.05327
_cell_length_c     28.324664
_cell_angle_alpha  89.957677
_cell_angle_beta   89.813774
_cell_angle_gamma 119.86991
loop_
_atom_site_label
_atom_site_type_symbol
_atom_site_fract_x
_atom_site_fract_y
_atom_site_fract_z
_atom_type_partial_charge
O0 O 0.61542 0.13517 0.232 0.0
Cd1 Cd 0.56618 0.1104 0.26283 0.0
Cd2 Cd 0.54657 0.11519 0.17284 0.0
O3 O 0.59931 0.14801 0.16472 0.0
O4 O 0.57594 0.09962 0.32732 0.0
O5 O 0.5386 0.05899 0.27872 0.0
C6 C 0.55336 0.0673 0.31963 0.0
C7 C 0.51962 0.07386 0.11365 0.0
C8 C 0.6232 0.151 0.19247 0.0
C9 C 0.52437 0.14693 0.24803 0.0
O10 O 0.52031 0.13686 0.20539 0.0
O11 O 0.54278 0.14025 0.276 0.0
O12 O 0.52804 0.10609 0.10745 0.0
O13 O 0.52569 0.0647 0.15431 0.0
O14 O 0.47234 0.60765 0.81929 0.0
Cd15 Cd 0.43839 0.55939 0.84765 0.0
Cd16 Cd 0.42114 0.53814 0.75757 0.0
O17 O 0.44431 0.59189 0.75179 0.0
O18 O 0.45273 0.56222 0.91458 0.0
O19 O 0.45065 0.52255 0.86445 0.0
C20 C 0.45638 0.53541 0.90659 0.0
C21 C 0.43442 0.51374 0.69313 0.0
C22 C 0.46609 0.61566 0.7789 0.0
C23 C 0.36284 0.52307 0.82195 0.0
O24 O 0.37137 0.51202 0.78571 0.0
O25 O 0.38623 0.54555 0.84889 0.0
O26 O 0.41376 0.52634 0.68927 0.0
O27 O 0.44651 0.51334 0.73444 0.0
O28 O 0.84537 0.39697 0.179 0.0
Cd29 Cd 0.87273 0.45109 0.17937 0.0
Cd30 Cd 0.87449 0.43909 0.27825 0.0
O31 O 0.84885 0.38831 0.25516 0.0
O32 O 0.8781 0.46346 0.11111 0.0
O33 O 0.92305 0.4762 0.1577 0.0
C34 C 0.91136 0.47692 0.1162 0.0
C35 C 0.91264 0.45103 0.34154 0.0
C36 C 0.83871 0.37644 0.2139 0.0
C37 C 0.83767 0.47766 0.24649 0.0
O38 O 0.84558 0.46386 0.28013 0.0
O39 O 0.84731 0.47669 0.20445 0.0
O40 O 0.87935 0.43155 0.34642 0.0
O41 O 0.92469 0.46399 0.30028 0.0
O42 O 0.47196 0.84828 0.69505 0.0
Cd43 Cd 0.44576 0.87275 0.66909 0.0
Cd44 Cd 0.43518 0.87747 0.76745 0.0
O45 O 0.45947 0.84811 0.77063 0.0
O46 O 0.45774 0.87736 0.60069 0.0
O47 O 0.47037 0.92278 0.64643 0.0
C48 C 0.47105 0.91066 0.60517 0.0
C49 C 0.44823 0.91701 0.82945 0.0
C50 C 0.47313 0.8395 0.73747 0.0
C51 C 0.37163 0.83967 0.70519 0.0
O52 O 0.38412 0.85163 0.74565 0.0
O53 O 0.39166 0.84487 0.67006 0.0
O54 O 0.42836 0.88387 0.83542 0.0
O55 O 0.46089 0.92813 0.78779 0.0
O56 O 0.54096 0.38524 0.34676 0.0
Cd57 Cd 0.55442 0.43735 0.34701 0.0
Cd58 Cd 0.53482 0.42111 0.25563 0.0
O59 O 0.50887 0.37094 0.28229 0.0
O60 O 0.55743 0.45069 0.4145 0.0
O61 O 0.51767 0.44943 0.36549 0.0
C62 C 0.53075 0.45466 0.40745 0.0
C63 C 0.51124 0.43484 0.19081 0.0
C64 C 0.51937 0.36209 0.31872 0.0
C65 C 0.61173 0.4666 0.27935 0.0
O66 O 0.58865 0.44497 0.25138 0.0
O67 O 0.60284 0.47207 0.31968 0.0
O68 O 0.52425 0.41452 0.18698 0.0
O69 O 0.50992 0.44627 0.23229 0.0
O70 O 0.13882 0.54153 0.78455 0.0
Cd71 Cd 0.10884 0.56478 0.7713 0.0
Cd72 Cd 0.11177 0.5428 0.68258 0.0
O73 O 0.13271 0.51609 0.71543 0.0
O74 O 0.09925 0.57613 0.83561 0.0
O75 O 0.05775 0.53771 0.78893 0.0
C76 C 0.06678 0.55345 0.82918 0.0
C77 C 0.06901 0.5159 0.62523 0.0
C78 C 0.14412 0.52165 0.75744 0.0
C79 C 0.14875 0.6198 0.69863 0.0
O80 O 0.14567 0.59513 0.67234 0.0
O81 O 0.13295 0.61317 0.73815 0.0
O82 O 0.10072 0.52288 0.61798 0.0
O83 O 0.06114 0.52326 0.66602 0.0
C84 C 0.51534 0.19695 0.23109 0.0
C85 C 0.51253 0.17136 0.26294 0.0
C86 C 0.51099 0.22478 0.2462 0.0
C87 C 0.50213 0.22619 0.29397 0.0
C88 C 0.4963 0.19875 0.32536 0.0
C89 C 0.50249 0.17203 0.30974 0.0
C90 C 0.5185 0.25398 0.2118 0.0
C91 C 0.48511 0.19838 0.37585 0.0
C92 C 0.53871 0.31924 0.3356 0.0
C93 C 0.51168 0.32565 0.32315 0.0
C94 C 0.53514 0.28612 0.32906 0.0
C95 C 0.50323 0.25848 0.3115 0.0
C96 C 0.47459 0.26398 0.30378 0.0
C97 C 0.47944 0.29784 0.30853 0.0
C98 C 0.56668 0.28172 0.33657 0.0
C99 C 0.43959 0.2347 0.2876 0.0
H100 H 0.52343 0.1966 0.19498 0.0
H101 H 0.5001 0.15205 0.3343 0.0
H102 H 0.49569 0.25808 0.20943 0.0
H103 H 0.54104 0.2788 0.2245 0.0
H104 H 0.52469 0.24859 0.17579 0.0
H105 H 0.47336 0.17176 0.39159 0.0
H106 H 0.50819 0.21624 0.39728 0.0
H107 H 0.46588 0.20762 0.37827 0.0
H108 H 0.56373 0.34084 0.34661 0.0
H109 H 0.45843 0.3028 0.29934 0.0
H110 H 0.57561 0.27695 0.30209 0.0
H111 H 0.55982 0.25874 0.35939 0.0
H112 H 0.58883 0.30516 0.35297 0.0
H113 H 0.44075 0.23024 0.24927 0.0
H114 H 0.4184 0.24098 0.29367 0.0
H115 H 0.43282 0.20993 0.30624 0.0
C116 C 0.2986 0.48162 0.81574 0.0
C117 C 0.3263 0.51481 0.82733 0.0
C118 C 0.26429 0.47571 0.81221 0.0
C119 C 0.25817 0.50415 0.8179 0.0
C120 C 0.28585 0.5372 0.83227 0.0
C121 C 0.31948 0.54188 0.83779 0.0
C122 C 0.23508 0.43963 0.79959 0.0
C123 C 0.28078 0.56853 0.83745 0.0
C124 C 0.19308 0.51124 0.73904 0.0
C125 C 0.16878 0.51004 0.772 0.0
C126 C 0.22155 0.50774 0.75334 0.0
C127 C 0.22489 0.50135 0.80155 0.0
C128 C 0.19858 0.49685 0.83426 0.0
C129 C 0.17122 0.50219 0.8193 0.0
C130 C 0.24949 0.51376 0.71744 0.0
C131 C 0.2002 0.48817 0.88539 0.0
H132 H 0.30392 0.46059 0.80809 0.0
H133 H 0.34101 0.56762 0.84643 0.0
H134 H 0.21073 0.43337 0.81903 0.0
H135 H 0.22948 0.43856 0.7613 0.0
H136 H 0.24215 0.41923 0.80756 0.0
H137 H 0.30458 0.59191 0.85097 0.0
H138 H 0.27411 0.5752 0.80263 0.0
H139 H 0.25874 0.56245 0.86182 0.0
H140 H 0.19136 0.51761 0.70251 0.0
H141 H 0.15221 0.50101 0.84474 0.0
H142 H 0.25402 0.49118 0.71679 0.0
H143 H 0.27455 0.53722 0.7274 0.0
H144 H 0.2425 0.51779 0.68122 0.0
H145 H 0.21009 0.46951 0.88882 0.0
H146 H 0.17412 0.47671 0.9027 0.0
H147 H 0.2184 0.51237 0.90466 0.0
C148 C 0.68769 0.1756 0.20261 0.0
C149 C 0.6598 0.17785 0.18266 0.0
C150 C 0.72185 0.2044 0.20125 0.0
C151 C 0.72764 0.23644 0.18162 0.0
C152 C 0.69999 0.23791 0.15841 0.0
C153 C 0.66654 0.20833 0.15842 0.0
C154 C 0.75117 0.20123 0.2236 0.0
C155 C 0.70478 0.27167 0.13775 0.0
C156 C 0.78909 0.32093 0.24314 0.0
C157 C 0.8143 0.33872 0.20808 0.0
C158 C 0.76154 0.28691 0.23566 0.0
C159 C 0.76006 0.26967 0.1928 0.0
C160 C 0.78722 0.28641 0.15896 0.0
C161 C 0.81361 0.32124 0.16644 0.0
C162 C 0.73265 0.27057 0.27219 0.0
C163 C 0.78767 0.26833 0.11397 0.0
H164 H 0.68261 0.15183 0.22073 0.0
H165 H 0.64503 0.21015 0.14292 0.0
H166 H 0.77572 0.21593 0.20284 0.0
H167 H 0.75617 0.21252 0.25962 0.0
H168 H 0.74459 0.17345 0.22654 0.0
H169 H 0.68111 0.26791 0.11883 0.0
H170 H 0.71071 0.29095 0.16647 0.0
H171 H 0.72718 0.28313 0.11281 0.0
H172 H 0.7895 0.33454 0.27523 0.0
H173 H 0.83337 0.33494 0.1395 0.0
H174 H 0.72906 0.24498 0.28393 0.0
H175 H 0.70757 0.2657 0.25645 0.0
H176 H 0.73803 0.28745 0.30373 0.0
H177 H 0.77646 0.23977 0.11955 0.0
H178 H 0.81471 0.27944 0.09988 0.0
H179 H 0.77178 0.27212 0.08681 0.0
C180 C 0.50773 0.81041 0.71575 0.0
C181 C 0.4855 0.81454 0.74738 0.0
C182 C 0.51411 0.78233 0.72058 0.0
C183 C 0.49671 0.75721 0.75665 0.0
C184 C 0.47621 0.76269 0.79051 0.0
C185 C 0.47136 0.79162 0.78588 0.0
C186 C 0.5376 0.77836 0.68526 0.0
C187 C 0.45664 0.73629 0.82911 0.0
C188 C 0.46087 0.66108 0.73349 0.0
C189 C 0.47932 0.65278 0.76643 0.0
C190 C 0.4678 0.69551 0.72791 0.0
C191 C 0.49469 0.72255 0.7548 0.0
C192 C 0.51576 0.71489 0.7846 0.0
C193 C 0.50739 0.67989 0.7908 0.0
C194 C 0.44426 0.70232 0.69626 0.0
C195 C 0.54576 0.74326 0.81204 0.0
H196 H 0.51916 0.8284 0.68631 0.0
H197 H 0.45418 0.79467 0.81049 0.0
H198 H 0.55333 0.76817 0.70252 0.0
H199 H 0.5214 0.75938 0.65767 0.0
H200 H 0.5556 0.80364 0.66766 0.0
H201 H 0.44362 0.74554 0.85427 0.0
H202 H 0.43634 0.71141 0.81314 0.0
H203 H 0.47467 0.73042 0.84918 0.0
H204 H 0.4392 0.64031 0.7144 0.0
H205 H 0.52207 0.67368 0.81583 0.0
H206 H 0.46004 0.72357 0.67079 0.0
H207 H 0.42895 0.711 0.71795 0.0
H208 H 0.42564 0.6787 0.67613 0.0
H209 H 0.55995 0.76755 0.7907 0.0
H210 H 0.56455 0.73484 0.82343 0.0
H211 H 0.53549 0.7496 0.84409 0.0
C212 C 0.67546 0.50909 0.29263 0.0
C213 C 0.64913 0.48058 0.26795 0.0
C214 C 0.71077 0.51824 0.28753 0.0
C215 C 0.71951 0.49748 0.25863 0.0
C216 C 0.69323 0.47013 0.23139 0.0
C217 C 0.65849 0.46245 0.23579 0.0
C218 C 0.73828 0.54874 0.31523 0.0
C219 C 0.7012 0.44688 0.20067 0.0
C220 C 0.80845 0.51174 0.22287 0.0
C221 C 0.81242 0.48988 0.25525 0.0
C222 C 0.78001 0.5177 0.22642 0.0
C223 C 0.75443 0.50023 0.26196 0.0
C224 C 0.75976 0.48022 0.29667 0.0
C225 C 0.78902 0.4758 0.29331 0.0
C226 C 0.7762 0.54074 0.19028 0.0
C227 C 0.7329 0.46064 0.3348 0.0
H228 H 0.66841 0.52353 0.31703 0.0
H229 H 0.6383 0.44043 0.21649 0.0
H230 H 0.74416 0.53898 0.34808 0.0
H231 H 0.76296 0.56306 0.29467 0.0
H232 H 0.72923 0.56731 0.32529 0.0
H233 H 0.67807 0.42779 0.18015 0.0
H234 H 0.72268 0.46287 0.17558 0.0
H235 H 0.71004 0.43211 0.22311 0.0
H236 H 0.8268 0.52315 0.19378 0.0
H237 H 0.79197 0.45894 0.31855 0.0
H238 H 0.76519 0.5561 0.20657 0.0
H239 H 0.75798 0.52422 0.1622 0.0
H240 H 0.80171 0.55906 0.17343 0.0
H241 H 0.72641 0.47856 0.35408 0.0
H242 H 0.74205 0.44803 0.36072 0.0
H243 H 0.7084 0.43999 0.31846 0.0
C244 C 0.31609 0.81041 0.65843 0.0
C245 C 0.33384 0.81474 0.70106 0.0
C246 C 0.2815 0.78293 0.65289 0.0
C247 C 0.26529 0.75841 0.68999 0.0
C248 C 0.28262 0.76378 0.7338 0.0
C249 C 0.31639 0.79231 0.73905 0.0
C250 C 0.26315 0.77923 0.6066 0.0
C251 C 0.26681 0.73781 0.77395 0.0
C252 C 0.17199 0.68445 0.70242 0.0
C253 C 0.17546 0.65609 0.68711 0.0
C254 C 0.20017 0.71885 0.69868 0.0
C255 C 0.23284 0.72453 0.68162 0.0
C256 C 0.23571 0.6961 0.66354 0.0
C257 C 0.20672 0.6623 0.66563 0.0
C258 C 0.19553 0.74875 0.71563 0.0
C259 C 0.27024 0.70074 0.64613 0.0
H260 H 0.32945 0.82801 0.62918 0.0
H261 H 0.33014 0.79551 0.77199 0.0
H262 H 0.2661 0.76044 0.58372 0.0
H263 H 0.23474 0.76907 0.61215 0.0
H264 H 0.27449 0.80464 0.58754 0.0
H265 H 0.28347 0.74633 0.80601 0.0
H266 H 0.24071 0.73394 0.78349 0.0
H267 H 0.26313 0.71204 0.76276 0.0
H268 H 0.14762 0.67966 0.71848 0.0
H269 H 0.20947 0.64036 0.65391 0.0
H270 H 0.21036 0.77221 0.69294 0.0
H271 H 0.20568 0.75592 0.7521 0.0
H272 H 0.1675 0.74152 0.71599 0.0
H273 H 0.28153 0.72131 0.61853 0.0
H274 H 0.26762 0.6762 0.63135 0.0
H275 H 0.28914 0.70935 0.67578 0.0
C276 C 0.4882 0.97273 0.87127 0.0
C277 C 0.45658 0.94096 0.86982 0.0
C278 C 0.49751 0.99409 0.91149 0.0
C279 C 0.47418 0.98378 0.95047 0.0
C280 C 0.44168 0.95229 0.94841 0.0
C281 C 0.43348 0.93102 0.90833 0.0
C282 C 0.53269 0.0272 0.91281 0.0
C283 C 0.4157 0.94091 0.98869 0.0
C284 C 0.51107 0.02048 0.07145 0.0
C285 C 0.50531 0.04896 0.07409 0.0
C286 C 0.50101 -0.00103 0.03136 0.0
C287 C 0.48402 0.00565 0.99373 0.0
C288 C 0.47691 0.03355 0.99714 0.0
C289 C 0.48808 0.05517 0.03705 0.0
C290 C 0.50955 0.9698 0.02862 0.0
C291 C 0.45794 0.04085 0.95838 0.0
H292 H 0.50617 0.98028 0.84164 0.0
H293 H 0.40886 0.90655 0.9071 0.0
H294 H 0.52921 0.05016 0.91879 0.0
H295 H 0.54828 0.02599 0.9427 0.0
H296 H 0.54782 0.03146 0.87963 0.0
H297 H 0.39078 0.91671 0.98037 0.0
H298 H 0.42708 0.93605 0.02072 0.0
H299 H 0.40983 0.96201 0.99738 0.0
H300 H 0.52469 0.01585 0.0999 0.0
H301 H 0.48344 0.07711 0.03919 0.0
H302 H 0.52686 0.97407 0.9978 0.0
H303 H 0.4853 0.94435 0.0233 0.0
H304 H 0.52278 0.968 0.06096 0.0
H305 H 0.47382 0.04837 0.92552 0.0
H306 H 0.45255 0.06219 0.96781 0.0
H307 H 0.43274 0.01688 0.95053 0.0
C308 C 0.47886 0.44769 0.45219 0.0
C309 C 0.51524 0.46387 0.44708 0.0
C310 C 0.46391 0.45389 0.4923 0.0
C311 C 0.48599 0.47781 0.52697 0.0
C312 C 0.52278 0.49504 0.52102 0.0
C313 C 0.53697 0.4873 0.48156 0.0
C314 C 0.42462 0.43425 0.49815 0.0
C315 C 0.54717 0.52172 0.55623 0.0
C316 C 0.44848 0.5197 0.60754 0.0
C317 C 0.44581 0.50281 0.65059 0.0
C318 C 0.46142 0.51173 0.56699 0.0
C319 C 0.47076 0.48535 0.5692 0.0
C320 C 0.46697 0.46733 0.61225 0.0
C321 C 0.45514 0.47677 0.65279 0.0
C322 C 0.46621 0.5324 0.52227 0.0
C323 C 0.47566 0.4383 0.61554 0.0
H324 H 0.46213 0.42919 0.42572 0.0
H325 H 0.56514 0.49984 0.47737 0.0
H326 H 0.41741 0.4192 0.53171 0.0
H327 H 0.4147 0.45292 0.50029 0.0
H328 H 0.41122 0.41586 0.46858 0.0
H329 H 0.57503 0.53404 0.54512 0.0
H330 H 0.5403 0.54259 0.56089 0.0
H331 H 0.54426 0.50913 0.59114 0.0
H332 H 0.44163 0.54015 0.60594 0.0
H333 H 0.45289 0.4636 0.68606 0.0
H334 H 0.45129 0.51456 0.49296 0.0
H335 H 0.49423 0.54629 0.51175 0.0
H336 H 0.45753 0.552 0.52645 0.0
H337 H 0.46172 0.41859 0.58756 0.0
H338 H 0.4685 0.42495 0.65043 0.0
H339 H 0.5041 0.44904 0.6097 0.0
C340 C 0.04786 0.56895 0.90391 0.0
C341 C 0.04151 0.54445 0.86828 0.0
C342 C 0.02623 0.55984 0.94393 0.0
C343 C -0.00178 0.52512 0.949 0.0
C344 C 0.9913 0.50042 0.91268 0.0
C345 C 0.0128 0.51055 0.87236 0.0
C346 C 0.03379 0.58718 0.98122 0.0
C347 C 0.96206 0.46297 0.91724 0.0
C348 C 0.96663 0.49153 0.07334 0.0
C349 C 0.93485 0.4915 0.07498 0.0
C350 C 0.98754 0.50239 0.03246 0.0
C351 C 0.97677 0.51434 0.9929 0.0
C352 C 0.94529 0.51551 0.99508 0.0
C353 C 0.92446 0.50361 0.03589 0.0
C354 C 0.02064 0.50016 0.03111 0.0
C355 C 0.93345 0.52901 0.95417 0.0
H356 H 0.06999 0.59525 0.90065 0.0
H357 H 0.00811 0.49149 0.84504 0.0
H358 H 0.0098 0.5885 0.9892 0.0
H359 H 0.04189 0.57989 0.01441 0.0
H360 H 0.05484 0.6136 0.97021 0.0
H361 H 0.95981 0.44716 0.88553 0.0
H362 H 0.96667 0.45061 0.94849 0.0
H363 H 0.93673 0.46211 0.92293 0.0
H364 H 0.97453 0.48189 0.10341 0.0
H365 H 0.89996 0.5038 0.03723 0.0
H366 H 0.04352 0.52635 0.02385 0.0
H367 H 0.01916 0.48263 0.00201 0.0
H368 H 0.02522 0.49011 0.06475 0.0
H369 H 0.95444 0.55565 0.94405 0.0
H370 H 0.90934 0.53006 0.96257 0.0
H371 H 0.92824 0.51192 0.92299 0.0
C372 C 0.50911 0.01304 0.36095 0.0
C373 C 0.54328 0.04141 0.35808 0.0
C374 C 0.49789 0.99111 0.40083 0.0
C375 C 0.52175 -0.00274 0.43795 0.0
C376 C 0.55677 0.02487 0.43405 0.0
C377 C 0.56698 0.04694 0.39444 0.0
C378 C 0.46015 0.96233 0.40414 0.0
C379 C 0.58325 0.03161 0.4722 0.0
C380 C 0.48619 0.96578 0.56161 0.0
C381 C 0.48571 0.93379 0.56363 0.0
C382 C 0.49766 0.98662 0.52072 0.0
C383 C 0.50979 0.97557 0.48157 0.0
C384 C 0.51032 0.94376 0.48405 0.0
C385 C 0.49782 0.92301 0.52484 0.0
C386 C 0.49608 0.02007 0.51904 0.0
C387 C 0.52399 0.9316 0.44358 0.0
H388 H 0.49067 0.00898 0.33306 0.0
H389 H 0.59349 0.06882 0.39212 0.0
H390 H 0.45863 0.93674 0.41016 0.0
H391 H 0.44737 0.96717 0.43477 0.0
H392 H 0.44515 0.96049 0.37178 0.0
H393 H 0.61006 0.05228 0.46197 0.0
H394 H 0.57569 0.03986 0.50509 0.0
H395 H 0.58378 0.00723 0.48035 0.0
H396 H 0.47656 0.97398 0.59143 0.0
H397 H 0.49768 0.89835 0.52647 0.0
H398 H 0.47941 0.01914 0.48915 0.0
H399 H 0.52261 0.04272 0.51283 0.0
H400 H 0.48541 0.02465 0.55217 0.0
H401 H 0.50765 0.92715 0.41182 0.0
H402 H 0.52406 0.907 0.45198 0.0
H403 H 0.55106 0.95214 0.4344 0.0
C404 C 0.48869 0.54043 0.98052 0.0
C405 C 0.46539 0.51928 0.94555 0.0
C406 C 0.49589 0.52558 0.01965 0.0
C407 C 0.47825 0.4887 0.02473 0.0
C408 C 0.45456 0.46721 0.98947 0.0
C409 C 0.44889 0.48281 0.94974 0.0
C410 C 0.52233 0.54936 0.05554 0.0
C411 C 0.43452 0.42785 0.99437 0.0
C412 C 0.51832 0.44956 0.10541 0.0
C413 C 0.50094 0.44665 0.14817 0.0
C414 C 0.51107 0.46305 0.0649 0.0
C415 C 0.48496 0.47278 0.06683 0.0
C416 C 0.46642 0.46873 0.10954 0.0
C417 C 0.47512 0.4563 0.15006 0.0
C418 C 0.53223 0.46807 0.02055 0.0
C419 C 0.43767 0.47784 0.1125 0.0
H420 H 0.50147 0.56867 0.97707 0.0
H421 H 0.43048 0.46653 0.9229 0.0
H422 H 0.50936 0.54631 0.09023 0.0
H423 H 0.54283 0.54201 0.06042 0.0
H424 H 0.53516 0.57735 0.04496 0.0
H425 H 0.41663 0.41492 0.9642 0.0
H426 H 0.45292 0.41762 0.99689 0.0
H427 H 0.41887 0.42037 0.02746 0.0
H428 H 0.5386 0.44247 0.10404 0.0
H429 H 0.46158 0.45387 0.18309 0.0
H430 H 0.54666 0.49622 0.01076 0.0
H431 H 0.51469 0.45374 0.99072 0.0
H432 H 0.55141 0.45887 0.02483 0.0
H433 H 0.44881 0.5064 0.10731 0.0
H434 H 0.42382 0.47038 0.14705 0.0
H435 H 0.41833 0.46442 0.08398 0.0
C436 C 0.01615 0.50969 0.5844 0.0
C437 C 0.04338 0.50204 0.58651 0.0
C438 C -0.00563 0.50047 0.54468 0.0
C439 C -0.00049 0.48241 0.50691 0.0
C440 C 0.02599 0.47325 0.50992 0.0
C441 C 0.04793 0.48359 0.54945 0.0
C442 C 0.96675 0.51117 0.54236 0.0
C443 C 0.0316 0.45311 0.47099 0.0
C444 C 0.92447 0.43528 0.42108 0.0
C445 C 0.9358 0.45843 0.38258 0.0
C446 C 0.94526 0.4424 0.46141 0.0
C447 C 0.97775 0.47388 0.46372 0.0
C448 C 0.9894 0.49733 0.42486 0.0
C449 C 0.96842 0.48909 0.38441 0.0
C450 C 0.93241 0.41632 0.50159 0.0
C451 C 0.02365 0.53145 0.42642 0.0
H452 H 0.01283 0.52425 0.61285 0.0
H453 H 0.0689 0.47749 0.5512 0.0
H454 H 0.97215 0.52906 0.51193 0.0
H455 H 0.94061 0.48789 0.53663 0.0
H456 H 0.96576 0.5246 0.57503 0.0
H457 H 0.05166 0.44589 0.48032 0.0
H458 H 0.00669 0.42885 0.46302 0.0
H459 H 0.04008 0.46909 0.43825 0.0
H460 H 0.89932 0.4114 0.41957 0.0
H461 H 0.97708 0.50712 0.3548 0.0
H462 H 0.92876 0.42846 0.53381 0.0
H463 H 0.9522 0.40855 0.50994 0.0
H464 H 0.90723 0.39238 0.49334 0.0
H465 H 0.02355 0.54739 0.45668 0.0
H466 H 0.0287 0.54701 0.39351 0.0
H467 H 0.0456 0.52632 0.43194 0.0
loop_
_geom_bond_atom_site_label_1
_geom_bond_atom_site_label_2
_geom_bond_distance
_geom_bond_site_symmetry_2
_ccdc_geom_bond_type
O0 Cd1 2.223 . S
O0 C8 1.315 . S
Cd1 O0 2.223 . S
Cd1 O4 2.297 . S
Cd1 O5 2.439 . S
Cd1 O11 2.240 . S
Cd2 O3 2.240 . S
Cd2 O10 2.223 . S
Cd2 O12 2.297 . S
Cd2 O13 2.439 . S
O3 Cd2 2.240 . S
O3 C8 1.279 . S
O4 Cd1 2.297 . S
O4 C6 1.247 . S
O5 Cd1 2.439 . S
O5 C6 1.208 . S
C6 O4 1.247 . S
C6 O5 1.208 . S
C7 O12 1.247 . S
C7 O13 1.208 . S
C8 O0 1.315 . S
C8 O3 1.279 . S
C9 O10 1.315 . S
C9 O11 1.279 . S
O10 Cd2 2.223 . S
O10 C9 1.315 . S
O11 Cd1 2.240 . S
O11 C9 1.279 . S
O12 Cd2 2.297 . S
O12 C7 1.247 . S
O13 Cd2 2.439 . S
O13 C7 1.208 . S
O14 Cd15 2.223 . S
O14 C22 1.315 . S
Cd15 O14 2.223 . S
Cd15 O18 2.297 . S
Cd15 O19 2.439 . S
Cd15 O25 2.240 . S
Cd16 O17 2.240 . S
Cd16 O24 2.223 . S
Cd16 O26 2.297 . S
Cd16 O27 2.439 . S
O17 Cd16 2.240 . S
O17 C22 1.279 . S
O18 Cd15 2.297 . S
O18 C20 1.247 . S
O19 Cd15 2.439 . S
O19 C20 1.208 . S
C20 O18 1.247 . S
C20 O19 1.208 . S
C21 O26 1.247 . S
C21 O27 1.208 . S
C22 O14 1.315 . S
C22 O17 1.279 . S
C23 O24 1.315 . S
C23 O25 1.279 . S
O24 Cd16 2.223 . S
O24 C23 1.315 . S
O25 Cd15 2.240 . S
O25 C23 1.279 . S
O26 Cd16 2.297 . S
O26 C21 1.247 . S
O27 Cd16 2.439 . S
O27 C21 1.208 . S
O28 Cd29 2.223 . S
O28 C36 1.315 . S
Cd29 O28 2.223 . S
Cd29 O32 2.297 . S
Cd29 O33 2.439 . S
Cd29 O39 2.240 . S
Cd30 O31 2.240 . S
Cd30 O38 2.223 . S
Cd30 O40 2.297 . S
Cd30 O41 2.439 . S
O31 Cd30 2.240 . S
O31 C36 1.279 . S
O32 Cd29 2.297 . S
O32 C34 1.247 . S
O33 Cd29 2.439 . S
O33 C34 1.208 . S
C34 O32 1.247 . S
C34 O33 1.208 . S
C35 O40 1.247 . S
C35 O41 1.208 . S
C36 O28 1.315 . S
C36 O31 1.279 . S
C37 O38 1.315 . S
C37 O39 1.279 . S
O38 Cd30 2.223 . S
O38 C37 1.315 . S
O39 Cd29 2.240 . S
O39 C37 1.279 . S
O40 Cd30 2.297 . S
O40 C35 1.247 . S
O41 Cd30 2.439 . S
O41 C35 1.208 . S
O42 Cd43 2.223 . S
O42 C50 1.315 . S
Cd43 O42 2.223 . S
Cd43 O46 2.297 . S
Cd43 O47 2.439 . S
Cd43 O53 2.240 . S
Cd44 O45 2.240 . S
Cd44 O52 2.223 . S
Cd44 O54 2.297 . S
Cd44 O55 2.439 . S
O45 Cd44 2.240 . S
O45 C50 1.279 . S
O46 Cd43 2.297 . S
O46 C48 1.247 . S
O47 Cd43 2.439 . S
O47 C48 1.208 . S
C48 O46 1.247 . S
C48 O47 1.208 . S
C49 O54 1.247 . S
C49 O55 1.208 . S
C50 O42 1.315 . S
C50 O45 1.279 . S
C51 O52 1.315 . S
C51 O53 1.279 . S
O52 Cd44 2.223 . S
O52 C51 1.315 . S
O53 Cd43 2.240 . S
O53 C51 1.279 . S
O54 Cd44 2.297 . S
O54 C49 1.247 . S
O55 Cd44 2.439 . S
O55 C49 1.208 . S
O56 Cd57 2.223 . S
O56 C64 1.315 . S
Cd57 O56 2.223 . S
Cd57 O60 2.297 . S
Cd57 O61 2.439 . S
Cd57 O67 2.240 . S
Cd58 O59 2.240 . S
Cd58 O66 2.223 . S
Cd58 O68 2.297 . S
Cd58 O69 2.439 . S
O59 Cd58 2.240 . S
O59 C64 1.279 . S
O60 Cd57 2.297 . S
O60 C62 1.247 . S
O61 Cd57 2.439 . S
O61 C62 1.208 . S
C62 O60 1.247 . S
C62 O61 1.208 . S
C63 O68 1.247 . S
C63 O69 1.208 . S
C64 O56 1.315 . S
C64 O59 1.279 . S
C65 O66 1.315 . S
C65 O67 1.279 . S
O66 Cd58 2.223 . S
O66 C65 1.315 . S
O67 Cd57 2.240 . S
O67 C65 1.279 . S
O68 Cd58 2.297 . S
O68 C63 1.247 . S
O69 Cd58 2.439 . S
O69 C63 1.208 . S
O70 Cd71 2.223 . S
O70 C78 1.315 . S
Cd71 O70 2.223 . S
Cd71 O74 2.297 . S
Cd71 O75 2.439 . S
Cd71 O81 2.240 . S
Cd72 O73 2.240 . S
Cd72 O80 2.223 . S
Cd72 O82 2.297 . S
Cd72 O83 2.439 . S
O73 Cd72 2.240 . S
O73 C78 1.279 . S
O74 Cd71 2.297 . S
O74 C76 1.247 . S
O75 Cd71 2.439 . S
O75 C76 1.208 . S
C76 O74 1.247 . S
C76 O75 1.208 . S
C77 O82 1.247 . S
C77 O83 1.208 . S
C78 O70 1.315 . S
C78 O73 1.279 . S
C79 O80 1.315 . S
C79 O81 1.279 . S
O80 Cd72 2.223 . S
O80 C79 1.315 . S
O81 Cd71 2.240 . S
O81 C79 1.279 . S
O82 Cd72 2.297 . S
O82 C77 1.247 . S
O83 Cd72 2.439 . S
O83 C77 1.208 . S
C84 C85 1.391 . S
C84 C86 1.394 . S
C84 H100 0.931 . S
C85 C84 1.391 . S
C85 C89 1.376 . S
C86 C84 1.394 . S
C86 C87 1.369 . S
C86 C90 1.531 . S
C87 C86 1.369 . S
C87 C88 1.410 . S
C87 C95 1.503 . S
C88 C87 1.410 . S
C88 C89 1.392 . S
C88 C91 1.511 . S
C89 C85 1.376 . S
C89 C88 1.392 . S
C89 H101 0.929 . S
C90 C86 1.531 . S
C90 H102 0.960 . S
C90 H103 0.962 . S
C90 H104 0.960 . S
C91 C88 1.511 . S
C91 H105 0.961 . S
C91 H106 0.961 . S
C91 H107 0.961 . S
C92 C93 1.370 . S
C92 C94 1.363 . S
C92 H108 0.931 . S
C93 C92 1.370 . S
C93 C97 1.408 . S
C94 C92 1.363 . S
C94 C95 1.370 . S
C94 C98 1.524 . S
C95 C87 1.503 . S
C95 C94 1.370 . S
C95 C96 1.403 . S
C96 C95 1.403 . S
C96 C97 1.404 . S
C96 C99 1.539 . S
C97 C93 1.408 . S
C97 C96 1.404 . S
C97 H109 0.930 . S
C98 C94 1.524 . S
C98 H110 0.956 . S
C98 H111 0.961 . S
C98 H112 0.961 . S
C99 C96 1.539 . S
C99 H113 0.958 . S
C99 H114 0.961 . S
C99 H115 0.960 . S
H100 C84 0.931 . S
H101 C89 0.929 . S
H102 C90 0.960 . S
H103 C90 0.962 . S
H104 C90 0.960 . S
H105 C91 0.961 . S
H106 C91 0.961 . S
H107 C91 0.961 . S
H108 C92 0.931 . S
H109 C97 0.930 . S
H110 C98 0.956 . S
H111 C98 0.961 . S
H112 C98 0.961 . S
H113 C99 0.958 . S
H114 C99 0.961 . S
H115 C99 0.960 . S
C116 C117 1.391 . S
C116 C118 1.394 . S
C116 H132 0.931 . S
C117 C116 1.391 . S
C117 C121 1.376 . S
C118 C116 1.394 . S
C118 C119 1.369 . S
C118 C122 1.531 . S
C119 C118 1.369 . S
C119 C120 1.410 . S
C119 C127 1.503 . S
C120 C119 1.410 . S
C120 C121 1.392 . S
C120 C123 1.511 . S
C121 C117 1.376 . S
C121 C120 1.392 . S
C121 H133 0.929 . S
C122 C118 1.531 . S
C122 H134 0.960 . S
C122 H135 0.962 . S
C122 H136 0.960 . S
C123 C120 1.511 . S
C123 H137 0.961 . S
C123 H138 0.961 . S
C123 H139 0.961 . S
C124 C125 1.370 . S
C124 C126 1.363 . S
C124 H140 0.931 . S
C125 C124 1.370 . S
C125 C129 1.408 . S
C126 C124 1.363 . S
C126 C127 1.370 . S
C126 C130 1.524 . S
C127 C119 1.503 . S
C127 C126 1.370 . S
C127 C128 1.403 . S
C128 C127 1.403 . S
C128 C129 1.404 . S
C128 C131 1.539 . S
C129 C125 1.408 . S
C129 C128 1.404 . S
C129 H141 0.930 . S
C130 C126 1.524 . S
C130 H142 0.956 . S
C130 H143 0.961 . S
C130 H144 0.961 . S
C131 C128 1.539 . S
C131 H145 0.958 . S
C131 H146 0.961 . S
C131 H147 0.960 . S
H132 C116 0.931 . S
H133 C121 0.929 . S
H134 C122 0.960 . S
H135 C122 0.962 . S
H136 C122 0.960 . S
H137 C123 0.961 . S
H138 C123 0.961 . S
H139 C123 0.961 . S
H140 C124 0.931 . S
H141 C129 0.930 . S
H142 C130 0.956 . S
H143 C130 0.961 . S
H144 C130 0.961 . S
H145 C131 0.958 . S
H146 C131 0.961 . S
H147 C131 0.960 . S
C148 C149 1.391 . S
C148 C150 1.394 . S
C148 H164 0.931 . S
C149 C148 1.391 . S
C149 C153 1.376 . S
C150 C148 1.394 . S
C150 C151 1.369 . S
C150 C154 1.531 . S
C151 C150 1.369 . S
C151 C152 1.410 . S
C151 C159 1.503 . S
C152 C151 1.410 . S
C152 C153 1.392 . S
C152 C155 1.511 . S
C153 C149 1.376 . S
C153 C152 1.392 . S
C153 H165 0.929 . S
C154 C150 1.531 . S
C154 H166 0.960 . S
C154 H167 0.962 . S
C154 H168 0.960 . S
C155 C152 1.511 . S
C155 H169 0.961 . S
C155 H170 0.961 . S
C155 H171 0.961 . S
C156 C157 1.370 . S
C156 C158 1.363 . S
C156 H172 0.931 . S
C157 C156 1.370 . S
C157 C161 1.408 . S
C158 C156 1.363 . S
C158 C159 1.370 . S
C158 C162 1.524 . S
C159 C151 1.503 . S
C159 C158 1.370 . S
C159 C160 1.403 . S
C160 C159 1.403 . S
C160 C161 1.404 . S
C160 C163 1.539 . S
C161 C157 1.408 . S
C161 C160 1.404 . S
C161 H173 0.930 . S
C162 C158 1.524 . S
C162 H174 0.956 . S
C162 H175 0.961 . S
C162 H176 0.961 . S
C163 C160 1.539 . S
C163 H177 0.958 . S
C163 H178 0.961 . S
C163 H179 0.960 . S
H164 C148 0.931 . S
H165 C153 0.929 . S
H166 C154 0.960 . S
H167 C154 0.962 . S
H168 C154 0.960 . S
H169 C155 0.961 . S
H170 C155 0.961 . S
H171 C155 0.961 . S
H172 C156 0.931 . S
H173 C161 0.930 . S
H174 C162 0.956 . S
H175 C162 0.961 . S
H176 C162 0.961 . S
H177 C163 0.958 . S
H178 C163 0.961 . S
H179 C163 0.960 . S
C180 C181 1.391 . S
C180 C182 1.394 . S
C180 H196 0.931 . S
C181 C180 1.391 . S
C181 C185 1.376 . S
C182 C180 1.394 . S
C182 C183 1.369 . S
C182 C186 1.531 . S
C183 C182 1.369 . S
C183 C184 1.410 . S
C183 C191 1.503 . S
C184 C183 1.410 . S
C184 C185 1.392 . S
C184 C187 1.511 . S
C185 C181 1.376 . S
C185 C184 1.392 . S
C185 H197 0.929 . S
C186 C182 1.531 . S
C186 H198 0.960 . S
C186 H199 0.962 . S
C186 H200 0.960 . S
C187 C184 1.511 . S
C187 H201 0.961 . S
C187 H202 0.961 . S
C187 H203 0.961 . S
C188 C189 1.370 . S
C188 C190 1.363 . S
C188 H204 0.931 . S
C189 C188 1.370 . S
C189 C193 1.408 . S
C190 C188 1.363 . S
C190 C191 1.370 . S
C190 C194 1.524 . S
C191 C183 1.503 . S
C191 C190 1.370 . S
C191 C192 1.403 . S
C192 C191 1.403 . S
C192 C193 1.404 . S
C192 C195 1.539 . S
C193 C189 1.408 . S
C193 C192 1.404 . S
C193 H205 0.930 . S
C194 C190 1.524 . S
C194 H206 0.956 . S
C194 H207 0.961 . S
C194 H208 0.961 . S
C195 C192 1.539 . S
C195 H209 0.958 . S
C195 H210 0.961 . S
C195 H211 0.960 . S
H196 C180 0.931 . S
H197 C185 0.929 . S
H198 C186 0.960 . S
H199 C186 0.962 . S
H200 C186 0.960 . S
H201 C187 0.961 . S
H202 C187 0.961 . S
H203 C187 0.961 . S
H204 C188 0.931 . S
H205 C193 0.930 . S
H206 C194 0.956 . S
H207 C194 0.961 . S
H208 C194 0.961 . S
H209 C195 0.958 . S
H210 C195 0.961 . S
H211 C195 0.960 . S
C212 C213 1.391 . S
C212 C214 1.394 . S
C212 H228 0.931 . S
C213 C212 1.391 . S
C213 C217 1.376 . S
C214 C212 1.394 . S
C214 C215 1.369 . S
C214 C218 1.531 . S
C215 C214 1.369 . S
C215 C216 1.410 . S
C215 C223 1.503 . S
C216 C215 1.410 . S
C216 C217 1.392 . S
C216 C219 1.511 . S
C217 C213 1.376 . S
C217 C216 1.392 . S
C217 H229 0.929 . S
C218 C214 1.531 . S
C218 H230 0.960 . S
C218 H231 0.962 . S
C218 H232 0.960 . S
C219 C216 1.511 . S
C219 H233 0.961 . S
C219 H234 0.961 . S
C219 H235 0.961 . S
C220 C221 1.370 . S
C220 C222 1.363 . S
C220 H236 0.931 . S
C221 C220 1.370 . S
C221 C225 1.408 . S
C222 C220 1.363 . S
C222 C223 1.370 . S
C222 C226 1.524 . S
C223 C215 1.503 . S
C223 C222 1.370 . S
C223 C224 1.403 . S
C224 C223 1.403 . S
C224 C225 1.404 . S
C224 C227 1.539 . S
C225 C221 1.408 . S
C225 C224 1.404 . S
C225 H237 0.930 . S
C226 C222 1.524 . S
C226 H238 0.956 . S
C226 H239 0.961 . S
C226 H240 0.961 . S
C227 C224 1.539 . S
C227 H241 0.958 . S
C227 H242 0.961 . S
C227 H243 0.960 . S
H228 C212 0.931 . S
H229 C217 0.929 . S
H230 C218 0.960 . S
H231 C218 0.962 . S
H232 C218 0.960 . S
H233 C219 0.961 . S
H234 C219 0.961 . S
H235 C219 0.961 . S
H236 C220 0.931 . S
H237 C225 0.930 . S
H238 C226 0.956 . S
H239 C226 0.961 . S
H240 C226 0.961 . S
H241 C227 0.958 . S
H242 C227 0.961 . S
H243 C227 0.960 . S
C244 C245 1.391 . S
C244 C246 1.394 . S
C244 H260 0.931 . S
C245 C244 1.391 . S
C245 C249 1.376 . S
C246 C244 1.394 . S
C246 C247 1.369 . S
C246 C250 1.531 . S
C247 C246 1.369 . S
C247 C248 1.410 . S
C247 C255 1.503 . S
C248 C247 1.410 . S
C248 C249 1.392 . S
C248 C251 1.511 . S
C249 C245 1.376 . S
C249 C248 1.392 . S
C249 H261 0.929 . S
C250 C246 1.531 . S
C250 H262 0.960 . S
C250 H263 0.962 . S
C250 H264 0.960 . S
C251 C248 1.511 . S
C251 H265 0.961 . S
C251 H266 0.961 . S
C251 H267 0.961 . S
C252 C253 1.370 . S
C252 C254 1.363 . S
C252 H268 0.931 . S
C253 C252 1.370 . S
C253 C257 1.408 . S
C254 C252 1.363 . S
C254 C255 1.370 . S
C254 C258 1.524 . S
C255 C247 1.503 . S
C255 C254 1.370 . S
C255 C256 1.403 . S
C256 C255 1.403 . S
C256 C257 1.404 . S
C256 C259 1.539 . S
C257 C253 1.408 . S
C257 C256 1.404 . S
C257 H269 0.930 . S
C258 C254 1.524 . S
C258 H270 0.956 . S
C258 H271 0.961 . S
C258 H272 0.961 . S
C259 C256 1.539 . S
C259 H273 0.958 . S
C259 H274 0.961 . S
C259 H275 0.960 . S
H260 C244 0.931 . S
H261 C249 0.929 . S
H262 C250 0.960 . S
H263 C250 0.962 . S
H264 C250 0.960 . S
H265 C251 0.961 . S
H266 C251 0.961 . S
H267 C251 0.961 . S
H268 C252 0.931 . S
H269 C257 0.930 . S
H270 C258 0.956 . S
H271 C258 0.961 . S
H272 C258 0.961 . S
H273 C259 0.958 . S
H274 C259 0.961 . S
H275 C259 0.960 . S
C276 C277 1.391 . S
C276 C278 1.394 1_565 S
C276 H292 0.931 . S
C277 C276 1.391 . S
C277 C281 1.376 . S
C278 C276 1.394 1_545 S
C278 C279 1.369 1_545 S
C278 C282 1.531 . S
C279 C278 1.369 1_565 S
C279 C280 1.410 . S
C279 C287 1.503 1_566 S
C280 C279 1.410 . S
C280 C281 1.392 . S
C280 C283 1.511 1_556 S
C281 C277 1.376 . S
C281 C280 1.392 . S
C281 H293 0.929 . S
C282 C278 1.531 . S
C282 H294 0.960 . S
C282 H295 0.962 . S
C282 H296 0.960 . S
C283 C280 1.511 1_554 S
C283 H297 0.961 . S
C283 H298 0.961 . S
C283 H299 0.961 . S
C284 C285 1.370 . S
C284 C286 1.363 . S
C284 H300 0.931 . S
C285 C284 1.370 . S
C285 C289 1.408 . S
C286 C284 1.363 . S
C286 C287 1.370 . S
C286 C290 1.524 1_545 S
C287 C279 1.503 1_544 S
C287 C286 1.370 . S
C287 C288 1.403 . S
C288 C287 1.403 . S
C288 C289 1.404 . S
C288 C291 1.539 1_554 S
C289 C285 1.408 . S
C289 C288 1.404 . S
C289 H301 0.930 . S
C290 C286 1.524 1_565 S
C290 H302 0.956 . S
C290 H303 0.961 . S
C290 H304 0.961 . S
C291 C288 1.539 1_556 S
C291 H305 0.958 . S
C291 H306 0.961 1_556 S
C291 H307 0.960 . S
H292 C276 0.931 . S
H293 C281 0.929 . S
H294 C282 0.960 . S
H295 C282 0.962 . S
H296 C282 0.960 . S
H297 C283 0.961 . S
H298 C283 0.961 . S
H299 C283 0.961 . S
H300 C284 0.931 . S
H301 C289 0.930 . S
H302 C290 0.956 . S
H303 C290 0.961 . S
H304 C290 0.961 . S
H305 C291 0.958 . S
H306 C291 0.961 1_554 S
H307 C291 0.960 . S
C308 C309 1.391 . S
C308 C310 1.394 . S
C308 H324 0.931 . S
C309 C308 1.391 . S
C309 C313 1.376 . S
C310 C308 1.394 . S
C310 C311 1.369 . S
C310 C314 1.531 . S
C311 C310 1.369 . S
C311 C312 1.410 . S
C311 C319 1.503 . S
C312 C311 1.410 . S
C312 C313 1.392 . S
C312 C315 1.511 . S
C313 C309 1.376 . S
C313 C312 1.392 . S
C313 H325 0.929 . S
C314 C310 1.531 . S
C314 H326 0.960 . S
C314 H327 0.962 . S
C314 H328 0.960 . S
C315 C312 1.511 . S
C315 H329 0.961 . S
C315 H330 0.961 . S
C315 H331 0.961 . S
C316 C317 1.370 . S
C316 C318 1.363 . S
C316 H332 0.931 . S
C317 C316 1.370 . S
C317 C321 1.408 . S
C318 C316 1.363 . S
C318 C319 1.370 . S
C318 C322 1.524 . S
C319 C311 1.503 . S
C319 C318 1.370 . S
C319 C320 1.403 . S
C320 C319 1.403 . S
C320 C321 1.404 . S
C320 C323 1.539 . S
C321 C317 1.408 . S
C321 C320 1.404 . S
C321 H333 0.930 . S
C322 C318 1.524 . S
C322 H334 0.956 . S
C322 H335 0.961 . S
C322 H336 0.961 . S
C323 C320 1.539 . S
C323 H337 0.958 . S
C323 H338 0.961 . S
C323 H339 0.960 . S
H324 C308 0.931 . S
H325 C313 0.929 . S
H326 C314 0.960 . S
H327 C314 0.962 . S
H328 C314 0.960 . S
H329 C315 0.961 . S
H330 C315 0.961 . S
H331 C315 0.961 . S
H332 C316 0.931 . S
H333 C321 0.930 . S
H334 C322 0.956 . S
H335 C322 0.961 . S
H336 C322 0.961 . S
H337 C323 0.958 . S
H338 C323 0.961 . S
H339 C323 0.960 . S
C340 C341 1.391 . S
C340 C342 1.394 . S
C340 H356 0.931 . S
C341 C340 1.391 . S
C341 C345 1.376 . S
C342 C340 1.394 . S
C342 C343 1.369 . S
C342 C346 1.531 . S
C343 C342 1.369 . S
C343 C344 1.410 . S
C343 C351 1.503 1_456 S
C344 C343 1.410 . S
C344 C345 1.392 . S
C344 C347 1.511 1_455 S
C345 C341 1.376 . S
C345 C344 1.392 . S
C345 H357 0.929 . S
C346 C342 1.531 . S
C346 H358 0.960 1_455 S
C346 H359 0.962 1_556 S
C346 H360 0.960 . S
C347 C344 1.511 1_655 S
C347 H361 0.961 1_655 S
C347 H362 0.961 . S
C347 H363 0.961 . S
C348 C349 1.370 . S
C348 C350 1.363 1_655 S
C348 H364 0.915 1_655 S
C349 C348 1.370 . S
C349 C353 1.408 . S
C350 C348 1.363 1_455 S
C350 C351 1.370 1_455 S
C350 C354 1.524 . S
C351 C343 1.503 1_654 S
C351 C350 1.370 1_655 S
C351 C352 1.403 . S
C352 C351 1.403 . S
C352 C353 1.404 . S
C352 C355 1.539 1_554 S
C353 C349 1.408 . S
C353 C352 1.404 . S
C353 H365 0.930 . S
C354 C350 1.524 . S
C354 H366 0.956 . S
C354 H367 0.961 . S
C354 H368 0.961 . S
C355 C352 1.539 1_556 S
C355 H369 0.958 . S
C355 H370 0.961 . S
C355 H371 0.960 . S
H356 C340 0.931 . S
H357 C345 0.929 . S
H358 C346 0.960 1_655 S
H359 C346 0.962 1_554 S
H360 C346 0.960 . S
H361 C347 0.961 1_455 S
H362 C347 0.961 . S
H363 C347 0.961 . S
H364 C348 0.915 1_455 S
H365 C353 0.930 . S
H366 C354 0.956 . S
H367 C354 0.961 . S
H368 C354 0.961 . S
H369 C355 0.958 . S
H370 C355 0.961 . S
H371 C355 0.960 . S
C372 C373 1.391 . S
C372 C374 1.379 1_545 S
C372 H388 0.931 . S
C373 C372 1.391 . S
C373 C377 1.376 . S
C374 C372 1.379 1_565 S
C374 C375 1.377 1_565 S
C374 C378 1.538 . S
C375 C374 1.377 1_545 S
C375 C376 1.410 . S
C375 C383 1.503 1_545 S
C376 C375 1.410 . S
C376 C377 1.392 . S
C376 C379 1.511 . S
C377 C373 1.376 . S
C377 C376 1.392 . S
C377 H389 0.929 . S
C378 C374 1.538 . S
C378 H390 0.960 . S
C378 H391 0.962 . S
C378 H392 0.960 . S
C379 C376 1.511 . S
C379 H393 0.961 . S
C379 H394 0.961 . S
C379 H395 0.961 . S
C380 C381 1.370 . S
C380 C382 1.356 1_565 S
C380 H396 0.931 . S
C381 C380 1.370 . S
C381 C385 1.408 . S
C382 C380 1.356 1_545 S
C382 C383 1.359 1_545 S
C382 C386 1.543 . S
C383 C375 1.503 1_565 S
C383 C382 1.359 1_565 S
C383 C384 1.403 . S
C384 C383 1.403 . S
C384 C385 1.404 . S
C384 C387 1.539 . S
C385 C381 1.408 . S
C385 C384 1.404 . S
C385 H397 0.930 . S
C386 C382 1.543 . S
C386 H398 0.956 . S
C386 H399 0.961 . S
C386 H400 0.961 . S
C387 C384 1.539 . S
C387 H401 0.958 . S
C387 H402 0.961 . S
C387 H403 0.960 . S
H388 C372 0.931 . S
H389 C377 0.929 . S
H390 C378 0.960 . S
H391 C378 0.962 . S
H392 C378 0.960 . S
H393 C379 0.961 . S
H394 C379 0.961 . S
H395 C379 0.961 . S
H396 C380 0.931 . S
H397 C385 0.930 . S
H398 C386 0.956 . S
H399 C386 0.961 . S
H400 C386 0.961 . S
H401 C387 0.958 . S
H402 C387 0.961 . S
H403 C387 0.960 . S
C404 C405 1.391 . S
C404 C406 1.394 . S
C404 H420 0.931 . S
C405 C404 1.391 . S
C405 C409 1.376 . S
C406 C404 1.394 . S
C406 C407 1.369 . S
C406 C410 1.531 1_556 S
C407 C406 1.369 . S
C407 C408 1.410 . S
C407 C415 1.503 1_556 S
C408 C407 1.410 . S
C408 C409 1.392 . S
C408 C411 1.511 . S
C409 C405 1.376 . S
C409 C408 1.392 . S
C409 H421 0.929 . S
C410 C406 1.531 1_554 S
C410 H422 0.960 . S
C410 H423 0.962 1_554 S
C410 H424 0.963 . S
C411 C408 1.511 . S
C411 H425 0.961 . S
C411 H426 0.961 . S
C411 H427 0.961 . S
C412 C413 1.370 . S
C412 C414 1.363 . S
C412 H428 0.931 . S
C413 C412 1.370 . S
C413 C417 1.408 . S
C414 C412 1.363 . S
C414 C415 1.370 . S
C414 C418 1.524 1_554 S
C415 C407 1.503 1_554 S
C415 C414 1.370 . S
C415 C416 1.403 . S
C416 C415 1.403 . S
C416 C417 1.404 . S
C416 C419 1.539 . S
C417 C413 1.408 . S
C417 C416 1.404 . S
C417 H429 0.930 . S
C418 C414 1.524 1_556 S
C418 H430 0.956 . S
C418 H431 0.961 . S
C418 H432 0.961 . S
C419 C416 1.539 . S
C419 H433 0.958 . S
C419 H434 0.961 . S
C419 H435 0.960 . S
H420 C404 0.931 . S
H421 C409 0.929 . S
H422 C410 0.960 . S
H423 C410 0.962 1_556 S
H424 C410 0.963 . S
H425 C411 0.961 . S
H426 C411 0.961 . S
H427 C411 0.961 . S
H428 C412 0.931 . S
H429 C417 0.930 . S
H430 C418 0.956 . S
H431 C418 0.961 . S
H432 C418 0.961 . S
H433 C419 0.958 . S
H434 C419 0.961 . S
H435 C419 0.960 . S
C436 C437 1.391 . S
C436 C438 1.394 . S
C436 H452 0.931 . S
C437 C436 1.391 . S
C437 C441 1.376 . S
C438 C436 1.394 . S
C438 C439 1.369 . S
C438 C442 1.531 1_455 S
C439 C438 1.369 . S
C439 C440 1.410 . S
C439 C447 1.503 1_455 S
C440 C439 1.410 . S
C440 C441 1.392 . S
C440 C443 1.511 . S
C441 C437 1.376 . S
C441 C440 1.392 . S
C441 H453 0.929 . S
C442 C438 1.531 1_655 S
C442 H454 0.960 . S
C442 H455 0.962 . S
C442 H456 0.960 . S
C443 C440 1.511 . S
C443 H457 0.961 . S
C443 H458 0.961 . S
C443 H459 0.961 . S
C444 C445 1.370 . S
C444 C446 1.363 . S
C444 H460 0.931 . S
C445 C444 1.370 . S
C445 C449 1.408 . S
C446 C444 1.363 . S
C446 C447 1.370 . S
C446 C450 1.524 . S
C447 C439 1.503 1_655 S
C447 C446 1.370 . S
C447 C448 1.403 1_655 S
C448 C447 1.403 1_455 S
C448 C449 1.404 1_455 S
C448 C451 1.539 . S
C449 C445 1.408 . S
C449 C448 1.404 1_655 S
C449 H461 0.930 . S
C450 C446 1.524 . S
C450 H462 0.956 . S
C450 H463 0.961 . S
C450 H464 0.961 . S
C451 C448 1.539 . S
C451 H465 0.958 . S
C451 H466 0.961 . S
C451 H467 0.960 . S
H452 C436 0.931 . S
H453 C441 0.929 . S
H454 C442 0.960 . S
H455 C442 0.962 . S
H456 C442 0.960 . S
H457 C443 0.961 . S
H458 C443 0.961 . S
H459 C443 0.961 . S
H460 C444 0.931 . S
H461 C449 0.930 . S
H462 C450 0.956 . S
H463 C450 0.961 . S
H464 C450 0.961 . S
H465 C451 0.958 . S
H466 C451 0.961 . S
H467 C451 0.960 . S
C85 C9 1.312 . S
C93 C64 1.303 . S
C117 C23 1.305 . S
C125 C78 1.309 . S
C149 C8 1.309 . S
C157 C36 1.310 . S
C181 C50 1.290 . S
C189 C22 1.303 . S
C213 C65 1.280 . S
C221 C37 1.294 . S
C245 C51 1.284 . S
C253 C79 1.294 . S
C277 C49 1.471 . S
C285 C7 1.448 . S
C309 C62 1.437 . S
C317 C21 1.457 . S
C341 C76 1.460 . S
C349 C34 1.434 . S
C373 C6 1.472 . S
C381 C48 1.443 . S
C405 C20 1.409 . S
C413 C63 1.446 . S
C437 C77 1.434 . S
C445 C35 1.457 . S
