# Generated by pormake.
# Topology unn, (4)-cn, num edge types: 1
# Building blocks:
#     Node 0, Type 0, BuildingBlock: NAWXER_clean_sbu_0, # of connection points: 4
#     Node 1, Type 0, BuildingBlock: NAWXER_clean_sbu_0, # of connection points: 4
#     Node 2, Type 0, BuildingBlock: NAWXER_clean_sbu_0, # of connection points: 4
#     Node 3, Type 0, BuildingBlock: NAWXER_clean_sbu_0, # of connection points: 4
#     Node 4, Type 0, BuildingBlock: NAWXER_clean_sbu_0, # of connection points: 4
#     Node 5, Type 0, BuildingBlock: NAWXER_clean_sbu_0, # of connection points: 4
#     Node 6, Type 0, BuildingBlock: NAWXER_clean_sbu_0, # of connection points: 4
#     Node 7, Type 0, BuildingBlock: NAWXER_clean_sbu_0, # of connection points: 4
#     Node 8, Type 0, BuildingBlock: NAWXER_clean_sbu_0, # of connection points: 4
#     Node 9, Type 0, BuildingBlock: NAWXER_clean_sbu_0, # of connection points: 4
#     Node 10, Type 0, BuildingBlock: NAWXER_clean_sbu_0, # of connection points: 4
#     Node 11, Type 0, BuildingBlock: NAWXER_clean_sbu_0, # of connection points: 4
#     Node 12, Type 0, BuildingBlock: NAWXER_clean_sbu_0, # of connection points: 4
#     Node 13, Type 0, BuildingBlock: NAWXER_clean_sbu_0, # of connection points: 4
#     Node 14, Type 0, BuildingBlock: NAWXER_clean_sbu_0, # of connection points: 4
#     Node 15, Type 0, BuildingBlock: NAWXER_clean_sbu_0, # of connection points: 4
#     Node 16, Type 0, BuildingBlock: NAWXER_clean_sbu_0, # of connection points: 4
#     Node 17, Type 0, BuildingBlock: NAWXER_clean_sbu_0, # of connection points: 4
#     Edge 18, Type (0, 0), BuildingBlock: KIFKEQ_clean_linker_1, # of connection points: 2
#     Edge 19, Type (0, 0), BuildingBlock: KIFKEQ_clean_linker_1, # of connection points: 2
#     Edge 20, Type (0, 0), BuildingBlock: KIFKEQ_clean_linker_1, # of connection points: 2
#     Edge 21, Type (0, 0), BuildingBlock: KIFKEQ_clean_linker_1, # of connection points: 2
#     Edge 22, Type (0, 0), BuildingBlock: KIFKEQ_clean_linker_1, # of connection points: 2
#     Edge 23, Type (0, 0), BuildingBlock: KIFKEQ_clean_linker_1, # of connection points: 2
#     Edge 24, Type (0, 0), BuildingBlock: KIFKEQ_clean_linker_1, # of connection points: 2
#     Edge 25, Type (0, 0), BuildingBlock: KIFKEQ_clean_linker_1, # of connection points: 2
#     Edge 26, Type (0, 0), BuildingBlock: KIFKEQ_clean_linker_1, # of connection points: 2
#     Edge 27, Type (0, 0), BuildingBlock: KIFKEQ_clean_linker_1, # of connection points: 2
#     Edge 28, Type (0, 0), BuildingBlock: KIFKEQ_clean_linker_1, # of connection points: 2
#     Edge 29, Type (0, 0), BuildingBlock: KIFKEQ_clean_linker_1, # of connection points: 2
#     Edge 30, Type (0, 0), BuildingBlock: KIFKEQ_clean_linker_1, # of connection points: 2
#     Edge 31, Type (0, 0), BuildingBlock: KIFKEQ_clean_linker_1, # of connection points: 2
#     Edge 32, Type (0, 0), BuildingBlock: KIFKEQ_clean_linker_1, # of connection points: 2
#     Edge 33, Type (0, 0), BuildingBlock: KIFKEQ_clean_linker_1, # of connection points: 2
#     Edge 34, Type (0, 0), BuildingBlock: KIFKEQ_clean_linker_1, # of connection points: 2
#     Edge 35, Type (0, 0), BuildingBlock: KIFKEQ_clean_linker_1, # of connection points: 2
#     Edge 36, Type (0, 0), BuildingBlock: KIFKEQ_clean_linker_1, # of connection points: 2
#     Edge 37, Type (0, 0), BuildingBlock: KIFKEQ_clean_linker_1, # of connection points: 2
#     Edge 38, Type (0, 0), BuildingBlock: KIFKEQ_clean_linker_1, # of connection points: 2
#     Edge 39, Type (0, 0), BuildingBlock: KIFKEQ_clean_linker_1, # of connection points: 2
#     Edge 40, Type (0, 0), BuildingBlock: KIFKEQ_clean_linker_1, # of connection points: 2
#     Edge 41, Type (0, 0), BuildingBlock: KIFKEQ_clean_linker_1, # of connection points: 2
#     Edge 42, Type (0, 0), BuildingBlock: KIFKEQ_clean_linker_1, # of connection points: 2
#     Edge 43, Type (0, 0), BuildingBlock: KIFKEQ_clean_linker_1, # of connection points: 2
#     Edge 44, Type (0, 0), BuildingBlock: KIFKEQ_clean_linker_1, # of connection points: 2
#     Edge 45, Type (0, 0), BuildingBlock: KIFKEQ_clean_linker_1, # of connection points: 2
#     Edge 46, Type (0, 0), BuildingBlock: KIFKEQ_clean_linker_1, # of connection points: 2
#     Edge 47, Type (0, 0), BuildingBlock: KIFKEQ_clean_linker_1, # of connection points: 2
#     Edge 48, Type (0, 0), BuildingBlock: KIFKEQ_clean_linker_1, # of connection points: 2
#     Edge 49, Type (0, 0), BuildingBlock: KIFKEQ_clean_linker_1, # of connection points: 2
#     Edge 50, Type (0, 0), BuildingBlock: KIFKEQ_clean_linker_1, # of connection points: 2
#     Edge 51, Type (0, 0), BuildingBlock: KIFKEQ_clean_linker_1, # of connection points: 2
#     Edge 52, Type (0, 0), BuildingBlock: KIFKEQ_clean_linker_1, # of connection points: 2
#     Edge 53, Type (0, 0), BuildingBlock: KIFKEQ_clean_linker_1, # of connection points: 2
# Relax obj value: 0.039
# Max RMSD: 0.205
# Mean RMSD: 0.205
data_MOF--net-unn--node1-NAWXER_clean_sbu_0--edge1-KIFKEQ_clean_linker_1
_symmetry_space_group_name_H-M    P1
_symmetry_Int_Tables_number       1
_symmetry_cell_setting            triclinic
loop_
_symmetry_equiv_pos_as_xyz
'x, y, z'
_cell_length_a     46.064594
_cell_length_b     46.061066
_cell_length_c     42.844126
_cell_angle_alpha  89.998603
_cell_angle_beta   90.007585
_cell_angle_gamma 119.99833
loop_
_atom_site_label
_atom_site_type_symbol
_atom_site_fract_x
_atom_site_fract_y
_atom_site_fract_z
_atom_type_partial_charge
C0 C 0.97435 0.73734 0.21456 0.0
C1 C 0.08688 0.7934 0.264 0.0
O2 O 0.99091 0.76811 0.22254 0.0
Zn3 Zn 0.03054 0.76768 0.2394 0.0
O4 O 0.98648 0.71825 0.22036 0.0
Zn5 Zn 0.02996 0.72066 0.2404 0.0
O6 O 1.01211 0.69174 0.27614 0.0
O7 O 1.0116 0.73922 0.2811 0.0
O8 O 0.07408 0.76188 0.25938 0.0
O9 O 0.07076 0.80782 0.25524 0.0
O10 O 0.04877 0.75585 0.19851 0.0
O11 O 0.04706 0.70749 0.20549 0.0
C12 C 1.00597 0.71114 0.29243 0.0
C13 C 0.05362 0.7325 0.18821 0.0
C14 C 0.3099 0.25011 0.21387 0.0
C15 C 0.25403 0.30567 0.26526 0.0
O16 O 0.27929 0.23577 0.22235 0.0
Zn17 Zn 0.27978 0.27571 0.23955 0.0
O18 O 0.32897 0.28137 0.21956 0.0
Zn19 Zn 0.32654 0.32222 0.24018 0.0
O20 O 0.3562 0.33353 0.27534 0.0
O21 O 0.309 0.28538 0.28092 0.0
O22 O 0.28545 0.32463 0.26027 0.0
O23 O 0.23966 0.27525 0.25618 0.0
O24 O 0.29071 0.3059 0.1987 0.0
O25 O 0.33895 0.3527 0.20553 0.0
C26 C 0.33725 0.30801 0.29185 0.0
C27 C 0.31378 0.33427 0.18842 0.0
C28 C 0.74215 0.96105 0.26303 0.0
C29 C 0.8016 0.07453 0.21599 0.0
O30 O 0.77272 0.97669 0.25439 0.0
Zn31 Zn 0.77379 0.01747 0.23902 0.0
O32 O 0.72396 0.97446 0.25845 0.0
Zn33 Zn 0.72819 0.0194 0.23978 0.0
O34 O 0.69856 1.00367 0.20427 0.0
O35 O 0.7444 1.00045 0.19773 0.0
O36 O 0.77049 0.06332 0.22164 0.0
O37 O 0.81453 0.05646 0.22268 0.0
O38 O 0.76409 0.03607 0.28114 0.0
O39 O 0.71665 0.03662 0.27555 0.0
C40 C 0.71669 0.99657 0.18713 0.0
C41 C 0.74165 0.04188 0.29227 0.0
C42 C 1.00555 0.30461 0.79225 0.0
C43 C 0.05206 0.33195 0.68779 0.0
O44 O 1.01169 0.2825 0.78085 0.0
Zn45 Zn 0.03107 0.27387 0.73866 0.0
O46 O 1.01107 0.32998 0.77599 0.0
Zn47 Zn 0.0289 0.31929 0.74022 0.0
O48 O 0.98528 0.27719 0.72135 0.0
O49 O 0.99239 0.2333 0.72162 0.0
O50 O 0.04477 0.34965 0.70533 0.0
O51 O 0.04825 0.30407 0.69783 0.0
O52 O 0.07182 0.27489 0.75408 0.0
O53 O 0.07373 0.32343 0.75904 0.0
C54 C 0.97426 0.24621 0.71518 0.0
C55 C 0.08725 0.30528 0.76328 0.0
C56 C 0.74055 0.71387 0.79108 0.0
C57 C 0.71604 0.73523 0.6865 0.0
O58 O 0.76308 0.74225 0.78038 0.0
Zn59 Zn 0.77358 0.77044 0.73829 0.0
O60 O 0.71574 0.69415 0.77421 0.0
Zn61 Zn 0.72761 0.72342 0.73874 0.0
O62 O 0.76936 0.72102 0.72035 0.0
O63 O 0.814 0.77144 0.72203 0.0
O64 O 0.69795 0.70986 0.7035 0.0
O65 O 0.74396 0.75886 0.69702 0.0
O66 O 0.77379 0.81045 0.75406 0.0
O67 O 0.72398 0.76492 0.75691 0.0
C68 C 0.8006 0.74051 0.71497 0.0
C69 C 0.74297 0.79642 0.76175 0.0
C70 C 0.30974 0.07446 0.71542 0.0
C71 C 0.2508 0.96155 0.76364 0.0
O72 O 0.32801 0.06108 0.71986 0.0
Zn73 Zn 0.32388 0.01621 0.73912 0.0
O74 O 0.2793 0.05897 0.72449 0.0
Zn75 Zn 0.27844 0.01842 0.73998 0.0
O76 O 0.30841 0.03621 0.78085 0.0
O77 O 0.35397 0.03249 0.77425 0.0
O78 O 0.2378 0.97949 0.75676 0.0
O79 O 0.28186 0.97273 0.75787 0.0
O80 O 0.33479 0.99788 0.7038 0.0
O81 O 0.28812 0.99999 0.69774 0.0
C82 C 0.33622 0.04019 0.79127 0.0
C83 C 0.31015 0.99341 0.68697 0.0
C84 C 0.64099 0.07346 0.54836 0.0
C85 C 0.75383 0.12678 0.59671 0.0
O86 O 0.65921 0.10444 0.555 0.0
Zn87 Zn 0.69768 0.10228 0.57217 0.0
O88 O 0.65184 0.05334 0.55448 0.0
Zn89 Zn 0.69527 0.05455 0.57349 0.0
O90 O 0.67729 0.02596 0.6093 0.0
O91 O 0.67813 0.07415 0.61424 0.0
O92 O 0.74024 0.09512 0.59235 0.0
O93 O 0.7384 0.14182 0.58775 0.0
O94 O 0.7152 0.08953 0.53143 0.0
O95 O 0.71124 0.0402 0.53846 0.0
C96 C 0.67185 0.04583 0.62561 0.0
C97 C 0.71897 0.0655 0.52121 0.0
C98 C 1.0048 0.64247 0.62501 0.0
C99 C 0.98118 0.66812 0.52142 0.0
O100 O 0.02372 0.66802 0.60853 0.0
Zn101 Zn 0.99413 0.65653 0.57326 0.0
O102 O 0.97659 0.6198 0.61408 0.0
Zn103 Zn 0.94734 0.6099 0.57281 0.0
O104 O 0.94696 0.56995 0.55581 0.0
O105 O 0.99661 0.61557 0.553 0.0
O106 O 0.95819 0.63983 0.53191 0.0
O107 O 1.00646 0.6867 0.53835 0.0
O108 O 0.953 0.65906 0.59304 0.0
O109 O 0.90726 0.60959 0.58932 0.0
C110 C 0.9776 0.58429 0.54742 0.0
C111 C 0.92159 0.64012 0.59807 0.0
C112 C 0.46614 0.40798 0.54942 0.0
C113 C 0.40996 0.29455 0.59638 0.0
O114 O 0.47993 0.39085 0.55664 0.0
Zn115 Zn 0.43992 0.35129 0.57297 0.0
O116 O 0.43482 0.39586 0.55482 0.0
Zn117 Zn 0.39335 0.35113 0.57317 0.0
O118 O 0.38057 0.36743 0.60892 0.0
O119 O 0.42915 0.36936 0.61469 0.0
O120 O 0.39058 0.30651 0.59124 0.0
O121 O 0.44084 0.31187 0.58904 0.0
O122 O 0.41074 0.33305 0.53144 0.0
O123 O 0.36398 0.33469 0.53762 0.0
C124 C 0.40593 0.37403 0.62567 0.0
C125 C 0.3827 0.32821 0.52069 0.0
C126 C 0.67701 0.64351 0.1247 0.0
C127 C 0.72065 0.66359 0.01947 0.0
O128 O 0.68163 0.62004 0.11446 0.0
Zn129 Zn 0.69731 0.60718 0.07263 0.0
O130 O 0.68244 0.668 0.10722 0.0
Zn131 Zn 0.69871 0.65447 0.07189 0.0
O132 O 0.65394 0.61356 0.05319 0.0
O133 O 0.65629 0.56715 0.05799 0.0
O134 O 0.71614 0.68361 0.03646 0.0
O135 O 0.71464 0.63513 0.03018 0.0
O136 O 0.73685 0.60595 0.08814 0.0
O137 O 0.74297 0.65656 0.08981 0.0
C138 C 0.6406 0.58191 0.04897 0.0
C139 C 0.75459 0.63693 0.09506 0.0
C140 C 0.40775 0.04859 0.12549 0.0
C141 C 0.38494 0.06908 0.01978 0.0
O142 O 0.43087 0.07646 0.11437 0.0
Zn143 Zn 0.44166 0.10465 0.07224 0.0
O144 O 0.38261 0.0294 0.10869 0.0
Zn145 Zn 0.39537 0.05798 0.07269 0.0
O146 O 0.43725 0.055 0.05512 0.0
O147 O 0.48206 0.10538 0.05661 0.0
O148 O 0.36623 0.04419 0.03705 0.0
O149 O 0.4128 0.09269 0.03042 0.0
O150 O 0.4419 0.14494 0.08751 0.0
O151 O 0.39189 0.0997 0.0899 0.0
C152 C 0.46856 0.07436 0.04984 0.0
C153 C 0.41097 0.13116 0.09471 0.0
C154 C 0.97714 0.40651 0.04655 0.0
C155 C 0.92209 0.29442 0.09679 0.0
O156 O 0.99641 0.39452 0.05197 0.0
Zn157 Zn 0.9946 0.35156 0.07227 0.0
O158 O 0.94658 0.38993 0.05509 0.0
Zn159 Zn 0.94732 0.35033 0.07182 0.0
O160 O 0.97573 0.36866 0.11366 0.0
O161 O 0.02427 0.37037 0.10745 0.0
O162 O 0.90743 0.31026 0.0879 0.0
O163 O 0.95362 0.30732 0.09197 0.0
O164 O 1.00745 0.33402 0.03754 0.0
O165 O 0.95859 0.33137 0.03102 0.0
C166 C 1.00431 0.37511 0.12432 0.0
C167 C 0.98194 0.32655 0.02065 0.0
C168 C 0.307 0.40628 0.88296 0.0
C169 C 0.42046 0.46261 0.92989 0.0
O170 O 0.32448 0.43727 0.88985 0.0
Zn171 Zn 0.36373 0.43633 0.90639 0.0
O172 O 0.31874 0.38682 0.88868 0.0
Zn173 Zn 0.36317 0.38955 0.90721 0.0
O174 O 0.3465 0.36089 0.94319 0.0
O175 O 0.34529 0.40799 0.94834 0.0
O176 O 0.4081 0.43116 0.92506 0.0
O177 O 0.40352 0.47649 0.92223 0.0
O178 O 0.38147 0.42446 0.86506 0.0
O179 O 0.37915 0.37581 0.87189 0.0
C180 C 0.3402 0.38006 0.95964 0.0
C181 C 0.38584 0.40085 0.85462 0.0
C182 C 0.64742 1.00138 0.85441 0.0
C183 C 0.67101 0.97575 0.95806 0.0
O184 O 0.6728 0.01976 0.8713 0.0
Zn185 Zn 0.6604 0.98952 0.90614 0.0
O186 O 0.62432 0.97313 0.86487 0.0
Zn187 Zn 0.61349 0.94315 0.90586 0.0
O188 O 0.57354 0.94299 0.92246 0.0
O189 O 0.61946 0.99234 0.92609 0.0
O190 O 0.64271 0.95312 0.94723 0.0
O191 O 0.69009 1.00102 0.94133 0.0
O192 O 0.66252 0.94837 0.88581 0.0
O193 O 0.61274 0.90296 0.88901 0.0
C194 C 0.58804 0.97352 0.93124 0.0
C195 C 0.64329 0.91707 0.8804 0.0
C196 C 0.13139 0.74122 0.8823 0.0
C197 C 0.07664 0.62762 0.92927 0.0
O198 O 0.14607 0.72519 0.89045 0.0
Zn199 Zn 0.10633 0.68469 0.90626 0.0
O200 O 0.09991 0.7282 0.88736 0.0
Zn201 Zn 0.05912 0.68358 0.90635 0.0
O202 O 0.04628 0.69972 0.94232 0.0
O203 O 0.09506 0.70205 0.94784 0.0
O204 O 0.05703 0.63929 0.92408 0.0
O205 O 0.10759 0.64532 0.92226 0.0
O206 O 0.07719 0.66623 0.86467 0.0
O207 O 0.02977 0.66669 0.8709 0.0
C208 C 0.07173 0.70642 0.95898 0.0
C209 C 0.04894 0.66083 0.85393 0.0
C210 C 0.33916 0.97334 0.45855 0.0
C211 C 0.38554 1.00088 0.35417 0.0
O212 O 0.3461 0.95167 0.44746 0.0
Zn213 Zn 0.36478 0.94281 0.40499 0.0
O214 O 0.34348 0.99815 0.44208 0.0
Zn215 Zn 0.36205 0.98795 0.40648 0.0
O216 O 0.31875 0.9458 0.38758 0.0
O217 O 0.32606 0.90206 0.38809 0.0
O218 O 0.37778 0.01833 0.37156 0.0
O219 O 0.38197 0.97311 0.36428 0.0
O220 O 0.40563 0.94406 0.42008 0.0
O221 O 0.40728 0.99249 0.42528 0.0
C222 C 0.30783 0.91483 0.38153 0.0
C223 C 0.42097 0.97444 0.42932 0.0
C224 C 0.07823 0.46462 0.42879 0.0
C225 C 0.13446 0.40637 0.38405 0.0
O226 O 0.05881 0.43329 0.42381 0.0
Zn227 Zn 0.06137 0.39128 0.40641 0.0
O228 O 0.10917 0.47799 0.42177 0.0
Zn229 Zn 0.10836 0.43734 0.40645 0.0
O230 O 0.08044 0.42588 0.36412 0.0
O231 O 0.03231 0.37869 0.37067 0.0
O232 O 0.14846 0.43731 0.39132 0.0
O233 O 0.10297 0.38743 0.3889 0.0
O234 O 0.04781 0.36234 0.44226 0.0
O235 O 0.09667 0.40864 0.44828 0.0
C236 C 0.05218 0.40308 0.35346 0.0
C237 C 0.07307 0.38094 0.45919 0.0
C238 C 0.64055 0.74117 0.38241 0.0
C239 C 0.58534 0.62788 0.42995 0.0
O240 O 0.66012 0.72953 0.38804 0.0
Zn241 Zn 0.65777 0.68519 0.40652 0.0
O242 O 0.60954 0.72356 0.38928 0.0
Zn243 Zn 0.61081 0.68436 0.4055 0.0
O244 O 0.63952 0.70334 0.44742 0.0
O245 O 0.68685 0.70253 0.44195 0.0
O246 O 0.57074 0.64367 0.42083 0.0
O247 O 0.61692 0.64096 0.42557 0.0
O248 O 0.67115 0.66852 0.3714 0.0
O249 O 0.6235 0.66822 0.36384 0.0
C250 C 0.6677 0.70883 0.45846 0.0
C251 C 0.64687 0.66336 0.35373 0.0
H252 H 0.0679 0.68892 0.15748 0.0
H253 H 0.05997 0.77782 0.14413 0.0
H254 H 0.07603 0.68682 0.1013 0.0
H255 H 0.06784 0.77539 0.08825 0.0
H256 H 0.02987 0.7223 -0.00927 0.0
H257 H 0.03017 0.73241 0.04682 0.0
H258 H 0.11755 0.72176 0.05784 0.0
H259 H 0.11756 0.7119 0.00206 0.0
C260 C 0.06839 0.70823 0.14269 0.0
C261 C 0.06309 0.73337 0.15521 0.0
C262 C 0.07309 0.70707 0.11061 0.0
C263 C 0.07222 0.7308 0.0906 0.0
C264 C 0.0682 0.75661 0.10322 0.0
C265 C 0.0639 0.75803 0.13524 0.0
C266 C 0.04938 0.72257 0.00506 0.0
C267 C 0.07355 0.71615 -0.00799 0.0
C268 C 0.04961 0.72844 0.03707 0.0
C269 C 0.07378 0.72761 0.05649 0.0
C270 C 0.09849 0.72218 0.04333 0.0
C271 C 0.09852 0.71673 0.01137 0.0
H272 H 0.3226 0.32183 -0.00884 0.0
H273 H 0.33534 0.42084 0.00276 0.0
H274 H 0.31192 0.31178 0.04709 0.0
H275 H 0.3248 0.41068 0.05849 0.0
H276 H 0.35695 0.39247 0.15798 0.0
H277 H 0.35864 0.40327 0.10197 0.0
H278 H 0.26983 0.30674 0.08868 0.0
H279 H 0.26788 0.29585 0.14444 0.0
C280 C 0.32269 0.34122 0.00553 0.0
C281 C 0.32998 0.37215 -0.00742 0.0
C282 C 0.31646 0.33544 0.03747 0.0
C283 C 0.31776 0.36059 0.05699 0.0
C284 C 0.32399 0.39106 0.04393 0.0
C285 C 0.32984 0.39672 0.012 0.0
C286 C 0.33748 0.37382 0.14319 0.0
C287 C 0.31247 0.34324 0.15561 0.0
C288 C 0.3384 0.38003 0.11119 0.0
C289 C 0.31451 0.35565 0.09112 0.0
C290 C 0.28873 0.32573 0.10368 0.0
C291 C 0.28759 0.31965 0.13563 0.0
H292 H 0.65917 0.98307 0.15619 0.0
H293 H 0.75523 0.98921 0.14325 0.0
H294 H 0.64858 0.97392 0.10012 0.0
H295 H 0.74457 0.98027 0.08747 0.0
H296 H 0.72959 0.01659 0.98906 0.0
H297 H 0.73981 0.01699 0.04509 0.0
H298 H 0.6408 0.93144 0.05748 0.0
H299 H 0.6305 0.93076 0.0017 0.0
C300 C 0.67777 0.98202 0.14151 0.0
C301 C 0.70807 0.98705 0.15412 0.0
C302 C 0.67168 0.9767 0.10949 0.0
C303 C 0.69593 0.97666 0.0896 0.0
C304 C 0.72568 0.98056 0.10233 0.0
C305 C 0.73162 0.9855 0.13429 0.0
C306 C 0.71023 0.99757 0.00366 0.0
C307 C 0.67922 0.97379 -0.00902 0.0
C308 C 0.71609 0.99775 0.03567 0.0
C309 C 0.69093 0.97437 0.05548 0.0
C310 C 0.66042 0.94992 0.04268 0.0
C311 C 0.65469 0.94948 0.01071 0.0
H312 H 0.73054 0.02 0.49051 0.0
H313 H 0.72986 0.11281 0.47757 0.0
H314 H 0.74042 0.01856 0.43459 0.0
H315 H 0.73953 0.11111 0.42198 0.0
H316 H 0.70253 0.0617 0.32329 0.0
H317 H 0.70198 0.07098 0.37939 0.0
H318 H 0.78391 0.05187 0.39219 0.0
H319 H 0.78471 0.04274 0.33628 0.0
C320 C 0.73298 0.04028 0.47588 0.0
C321 C 0.72916 0.06634 0.48843 0.0
C322 C 0.73871 0.0395 0.44395 0.0
C323 C 0.74041 0.06461 0.42409 0.0
C324 C 0.73791 0.09128 0.4368 0.0
C325 C 0.73253 0.09226 0.46867 0.0
C326 C 0.72071 0.05995 0.33801 0.0
C327 C 0.74354 0.05137 0.32539 0.0
C328 C 0.72047 0.06534 0.37005 0.0
C329 C 0.7428 0.06191 0.38999 0.0
C330 C 0.76626 0.05433 0.37729 0.0
C331 C 0.76678 0.04933 0.34526 0.0
H332 H 0.02438 0.72577 0.49023 0.0
H333 H 0.93457 0.62943 0.4781 0.0
H334 H 0.02545 0.73583 0.43411 0.0
H335 H 0.93594 0.63957 0.42225 0.0
H336 H 0.98819 0.6531 0.32443 0.0
H337 H 0.97782 0.64373 0.38048 0.0
H338 H 0.99082 0.74279 0.39082 0.0
H339 H 1.001 0.75226 0.33502 0.0
C340 C 1.00462 0.70704 0.47573 0.0
C341 C 0.97958 0.67674 0.48856 0.0
C342 C 1.00519 0.71282 0.44368 0.0
C343 C 0.98092 0.68827 0.42399 0.0
C344 C 0.95512 0.65866 0.43696 0.0
C345 C 0.95432 0.65302 0.46896 0.0
C346 C 0.98833 0.67266 0.33859 0.0
C347 C 0.99561 0.70344 0.32534 0.0
C348 C 0.9823 0.66727 0.37059 0.0
C349 C 0.98378 0.69269 0.38983 0.0
C350 C 0.98989 0.72298 0.37646 0.0
C351 C 0.99553 0.72824 0.34449 0.0
H352 H 0.42215 0.32204 0.47695 0.0
H353 H 0.32469 0.31274 0.4897 0.0
H354 H 0.41167 0.31284 0.42114 0.0
H355 H 0.3143 0.30339 0.43366 0.0
H356 H 0.29733 0.26187 0.33502 0.0
H357 H 0.30774 0.26195 0.39073 0.0
H358 H 0.40592 0.34893 0.37897 0.0
H359 H 0.39561 0.34911 0.32304 0.0
C360 C 0.39827 0.31755 0.46795 0.0
C361 C 0.37428 0.31834 0.48772 0.0
C362 C 0.39243 0.31246 0.43597 0.0
C363 C 0.36234 0.30766 0.42319 0.0
C364 C 0.33767 0.30686 0.44305 0.0
C365 C 0.34364 0.31231 0.47506 0.0
C366 C 0.32137 0.28078 0.34416 0.0
C367 C 0.34561 0.30568 0.32465 0.0
C368 C 0.32717 0.28086 0.37608 0.0
C369 C 0.35747 0.30555 0.38905 0.0
C370 C 0.38239 0.32949 0.36942 0.0
C371 C 0.37646 0.32965 0.33747 0.0
H372 H 0.98541 0.34326 0.8236 0.0
H373 H 1.00315 0.26014 0.83551 0.0
H374 H 0.97526 0.34277 0.87958 0.0
H375 H 0.99311 0.25988 0.89136 0.0
H376 H 0.02606 0.31316 -0.01019 0.0
H377 H 0.02667 0.30268 0.93396 0.0
H378 H 0.93498 0.30537 0.922 0.0
H379 H 0.93412 0.31571 0.97757 0.0
C380 C 0.98666 0.32462 0.83805 0.0
C381 C 0.99527 0.30191 0.82519 0.0
C382 C 0.98074 0.32425 0.87003 0.0
C383 C 0.98363 0.30138 0.88966 0.0
C384 C 0.99105 0.27792 0.87668 0.0
C385 C 0.9966 0.27803 0.8447 0.0
C386 C 1.00575 0.31095 0.97536 0.0
C387 C 0.98025 0.31557 0.98805 0.0
C388 C 1.00604 0.30485 0.94346 0.0
C389 C 0.981 0.30354 0.92379 0.0
C390 C 0.95475 0.30667 0.93668 0.0
C391 C 0.95426 0.31244 0.96853 0.0
H392 H 0.69149 0.62055 0.97198 0.0
H393 H 0.76686 0.72251 -0.0073 0.0
H394 H 0.69927 0.63244 0.91661 0.0
H395 H 0.7774 0.73411 0.93702 0.0
H396 H 0.75668 0.75657 0.83921 0.0
H397 H 0.75516 0.74437 0.89433 0.0
H398 H 0.72888 0.64231 0.87196 0.0
H399 H 0.7274 0.65428 0.81667 0.0
C400 C 0.71045 0.64536 0.96445 0.0
C401 C 0.7285 0.67074 0.9863 0.0
C402 C 0.71522 0.65219 0.93263 0.0
C403 C 0.73896 0.68435 0.92194 0.0
C404 C 0.75819 0.7093 0.94415 0.0
C405 C 0.75249 0.70272 0.97606 0.0
C406 C 0.7507 0.73158 0.84624 0.0
C407 C 0.74194 0.70624 0.824 0.0
C408 C 0.75017 0.72458 0.8779 0.0
C409 C 0.7419 0.69226 0.88799 0.0
C410 C 0.73449 0.66725 0.86533 0.0
C411 C 0.73387 0.67404 0.83364 0.0
H412 H 0.42553 0.11189 0.97484 0.0
H413 H 0.32616 0.02723 -0.01034 0.0
H414 H 0.41471 0.10918 0.91897 0.0
H415 H 0.31544 0.02478 0.93359 0.0
H416 H 0.29892 0.0498 0.83486 0.0
H417 H 0.31064 0.06064 0.89031 0.0
H418 H 0.40568 0.06493 0.87756 0.0
H419 H 0.39402 0.05387 0.82179 0.0
C420 C 0.4012 0.09299 0.96626 0.0
C421 C 0.37668 0.06963 0.98663 0.0
C422 C 0.39517 0.09139 0.93426 0.0
C423 C 0.36439 0.0667 0.92211 0.0
C424 C 0.33934 0.04419 0.94252 0.0
C425 C 0.3455 0.04552 0.97454 0.0
C426 C 0.32254 0.05345 0.8437 0.0
C427 C 0.3455 0.05074 0.82397 0.0
C428 C 0.32909 0.05948 0.87548 0.0
C429 C 0.35887 0.06334 0.88809 0.0
C430 C 0.38257 0.06218 0.86825 0.0
C431 C 0.37587 0.05577 0.83642 0.0
H432 H 0.2941 0.02073 0.63938 0.0
H433 H 0.3238 0.9477 0.66039 0.0
H434 H 0.29752 1.01231 0.58408 0.0
H435 H 0.32424 0.93649 0.60477 0.0
H436 H 0.36659 0.95779 0.50642 0.0
H437 H 0.3559 0.95881 0.56161 0.0
H438 H 0.27789 0.9821 0.53977 0.0
H439 H 0.29131 0.98414 0.48444 0.0
C440 C 0.30046 1.0021 0.63196 0.0
C441 C 0.30889 0.98495 0.65388 0.0
C442 C 0.30213 0.99696 0.60016 0.0
C443 C 0.31126 0.97371 0.58954 0.0
C444 C 0.31805 0.95531 0.61183 0.0
C445 C 0.31752 0.96139 0.64371 0.0
C446 C 0.34706 0.96296 0.51358 0.0
C447 C 0.32988 0.97113 0.49148 0.0
C448 C 0.3406 0.96321 0.54528 0.0
C449 C 0.31599 0.9706 0.55556 0.0
C450 C 0.29769 0.97723 0.53302 0.0
C451 C 0.30506 0.97814 0.50129 0.0
H452 H 0.05911 0.29417 0.64288 0.0
H453 H 0.06572 0.39015 0.65812 0.0
H454 H 0.06767 0.30583 0.58723 0.0
H455 H 0.0745 0.40175 0.60217 0.0
H456 H 0.11761 0.42104 0.5033 0.0
H457 H 0.11672 0.41004 0.55897 0.0
H458 H 0.03059 0.31157 0.54574 0.0
H459 H 0.0312 0.32248 0.48983 0.0
C460 C 0.06287 0.31798 0.63446 0.0
C461 C 0.06153 0.34121 0.65489 0.0
C462 C 0.06757 0.32449 0.60256 0.0
C463 C 0.07145 0.3545 0.59053 0.0
C464 C 0.07169 0.37845 0.61101 0.0
C465 C 0.0666 0.37179 0.64296 0.0
C466 C 0.09867 0.39685 0.51213 0.0
C467 C 0.07434 0.37262 0.4922 0.0
C468 C 0.09812 0.39072 0.54402 0.0
C469 C 0.07353 0.3601 0.55652 0.0
C470 C 0.04995 0.33534 0.53653 0.0
C471 C 0.05023 0.34161 0.50461 0.0
H472 H 0.72656 0.72744 0.48911 0.0
H473 H 0.62728 0.7136 0.50205 0.0
H474 H 0.73734 0.73832 0.54491 0.0
H475 H 0.63818 0.72439 0.55769 0.0
H476 H 0.65792 0.69173 0.65625 0.0
H477 H 0.64648 0.69044 0.60044 0.0
H478 H 0.74244 0.77993 0.58697 0.0
H479 H 0.75398 0.78144 0.64257 0.0
C480 C 0.70726 0.72718 0.50374 0.0
C481 C 0.67603 0.71944 0.49124 0.0
C482 C 0.71347 0.73354 0.5356 0.0
C483 C 0.68845 0.73196 0.55547 0.0
C484 C 0.65771 0.72542 0.54283 0.0
C485 C 0.65161 0.71942 0.51097 0.0
C486 C 0.67633 0.7114 0.64147 0.0
C487 C 0.70692 0.73649 0.65376 0.0
C488 C 0.66974 0.71073 0.60959 0.0
C489 C 0.69375 0.73498 0.58953 0.0
C490 C 0.72373 0.76079 0.60198 0.0
C491 C 0.73018 0.76166 0.63382 0.0
H492 H 0.39172 0.4457 0.81016 0.0
H493 H 0.40065 0.35749 0.82427 0.0
H494 H 0.40033 0.44334 0.75438 0.0
H495 H 0.40942 0.35538 0.76824 0.0
H496 H 0.45133 0.37948 0.66932 0.0
H497 H 0.45085 0.38969 0.72502 0.0
H498 H 0.36397 0.40093 0.71261 0.0
H499 H 0.3642 0.39057 0.65669 0.0
C500 C 0.396 0.42607 0.80146 0.0
C501 C 0.3953 0.4016 0.82162 0.0
C502 C 0.40073 0.42468 0.76949 0.0
C503 C 0.40527 0.39908 0.7571 0.0
C504 C 0.40613 0.3755 0.77733 0.0
C505 C 0.40102 0.37664 0.80933 0.0
C506 C 0.43233 0.38454 0.67833 0.0
C507 C 0.40764 0.38404 0.65862 0.0
C508 C 0.43202 0.39019 0.71024 0.0
C509 C 0.40729 0.39586 0.72302 0.0
C510 C 0.38344 0.39679 0.70322 0.0
C511 C 0.3835 0.39076 0.67128 0.0
H512 H 0.65232 0.98727 0.65724 0.0
H513 H 0.66863 0.08766 0.66862 0.0
H514 H 0.64198 0.97773 0.71323 0.0
H515 H 0.65838 0.078 0.72444 0.0
H516 H 0.69101 0.05901 0.82342 0.0
H517 H 0.69189 0.06966 0.76746 0.0
H518 H 0.60135 0.97427 0.75541 0.0
H519 H 0.60024 0.96352 0.81113 0.0
C520 C 0.65322 1.00708 0.67157 0.0
C521 C 0.66149 0.03825 0.65855 0.0
C522 C 0.64719 1.00159 0.70355 0.0
C523 C 0.64961 0.02725 0.72305 0.0
C524 C 0.65669 0.05796 0.7099 0.0
C525 C 0.66237 0.06335 0.67792 0.0
C526 C 0.671 0.04059 0.80892 0.0
C527 C 0.64575 1.01034 0.82166 0.0
C528 C 0.67145 0.04672 0.77695 0.0
C529 C 0.64682 0.02259 0.75722 0.0
C530 C 0.62081 0.99305 0.77013 0.0
C531 C 0.62017 0.98705 0.80206 0.0
H532 H 0.08909 0.65581 0.81024 0.0
H533 H 0.99086 0.64474 0.82277 0.0
H534 H 0.07908 0.64719 0.75434 0.0
H535 H 0.98095 0.63597 0.76664 0.0
H536 H 0.96524 0.59553 0.66772 0.0
H537 H 0.97545 0.59518 0.7234 0.0
H538 H 0.07286 0.68346 0.71252 0.0
H539 H 0.06275 0.68407 0.65658 0.0
C540 C 0.06515 0.65104 0.80117 0.0
C541 C 0.0408 0.65118 0.8209 0.0
C542 C 0.05958 0.6463 0.76914 0.0
C543 C 0.02941 0.64118 0.75629 0.0
C544 C 1.00439 0.6397 0.7761 0.0
C545 C 1.01009 0.64481 0.80816 0.0
C546 C 0.98907 0.61465 0.67704 0.0
C547 C 1.01315 0.64003 0.65778 0.0
C548 C 0.99476 0.61447 0.70894 0.0
C549 C 0.02476 0.6394 0.72215 0.0
C550 C 0.04955 0.66384 0.70277 0.0
C551 C 0.04374 0.66425 0.67083 0.0
H552 H 0.66451 0.6207 0.32668 0.0
H553 H 0.63096 0.69089 0.30627 0.0
H554 H 0.66687 0.61124 0.27092 0.0
H555 H 0.63619 0.68424 0.2509 0.0
H556 H 0.6295 0.65467 0.15091 0.0
H557 H 0.61736 0.65397 0.20647 0.0
H558 H 0.69835 0.63495 0.22786 0.0
H559 H 0.70783 0.63256 0.17254 0.0
C560 C 0.65788 0.6342 0.31012 0.0
C561 C 0.64747 0.65634 0.32048 0.0
C562 C 0.6595 0.62913 0.27815 0.0
C563 C 0.652 0.64717 0.25604 0.0
C564 C 0.64139 0.66919 0.26685 0.0
C565 C 0.63866 0.6733 0.29868 0.0
C566 C 0.6443 0.65007 0.16774 0.0
C567 C 0.66945 0.64363 0.15782 0.0
C568 C 0.63764 0.64989 0.19958 0.0
C569 C 0.65694 0.64454 0.22202 0.0
C570 C 0.68225 0.63826 0.21162 0.0
C571 C 0.68803 0.63727 0.17987 0.0
H572 H 0.45126 0.09004 0.16959 0.0
H573 H 0.36741 0.98985 0.15631 0.0
H574 H 0.45038 0.07964 0.22542 0.0
H575 H 0.36679 0.97956 0.21233 0.0
H576 H 0.39522 0.96418 0.30997 0.0
H577 H 0.40447 0.97582 0.25437 0.0
H578 H 0.40715 0.06998 0.26813 0.0
H579 H 0.39768 0.0584 0.32405 0.0
C580 C 0.43292 0.06563 0.1785 0.0
C581 C 0.40927 0.04075 0.15858 0.0
C582 C 0.43236 0.05984 0.21047 0.0
C583 C 0.40845 0.02894 0.22304 0.0
C584 C 0.38562 1.00357 0.20307 0.0
C585 C 0.3859 1.00948 0.17109 0.0
C586 C 0.3982 0.98761 0.30131 0.0
C587 C 0.39547 1.01031 0.32138 0.0
C588 C 0.40332 0.99411 0.26945 0.0
C589 C 0.40621 0.02359 0.25708 0.0
C590 C 0.40512 0.0471 0.27724 0.0
C591 C 0.39962 0.04044 0.30916 0.0
H592 H 0.993 0.38899 0.32619 0.0
H593 H 0.09568 0.41771 0.30625 0.0
H594 H 0.98189 0.38827 0.27042 0.0
H595 H 0.08434 0.414 0.25078 0.0
H596 H 0.06337 0.42179 0.15079 0.0
H597 H 0.07456 0.43418 0.20634 0.0
H598 H 0.97274 0.35676 0.22721 0.0
H599 H 0.96128 0.3471 0.17193 0.0
C600 C 1.01304 0.39489 0.30971 0.0
C601 C 0.04509 0.40342 0.3202 0.0
C602 C 1.00675 0.39423 0.27774 0.0
C603 C 0.0321 0.40077 0.25571 0.0
C604 C 0.06428 0.40959 0.26666 0.0
C605 C 0.07079 0.4114 0.29853 0.0
C606 C 0.04349 0.40793 0.16749 0.0
C607 C 1.01156 0.38365 0.15739 0.0
C608 C 0.04983 0.41471 0.19934 0.0
C609 C 0.02465 0.39635 0.22165 0.0
C610 C 0.99263 0.37214 0.21108 0.0
C611 C 0.98606 0.36628 0.17931 0.0
H612 H 0.28253 0.8554 0.34907 0.0
H613 H 0.25843 0.93073 0.37778 0.0
H614 H 0.23017 0.82696 0.31953 0.0
H615 H 0.20579 0.90188 0.3495 0.0
H616 H 0.12831 0.86167 0.27155 0.0
H617 H 0.18179 0.89037 0.29941 0.0
H618 H 0.17171 0.79459 0.32337 0.0
H619 H 0.11944 0.7663 0.29469 0.0
C620 C 0.26583 0.86559 0.34948 0.0
C621 C 0.27477 0.89536 0.36576 0.0
C622 C 0.2357 0.84929 0.33256 0.0
C623 C 0.21356 0.86214 0.33181 0.0
C624 C 0.22234 0.89153 0.34876 0.0
C625 C 0.25251 0.90795 0.36532 0.0
C626 C 0.13765 0.84684 0.28267 0.0
C627 C 0.11955 0.81169 0.28071 0.0
C628 C 0.16826 0.86324 0.29887 0.0
C629 C 0.18135 0.8449 0.3138 0.0
C630 C 0.16304 0.80974 0.31177 0.0
C631 C 0.13277 0.79345 0.29539 0.0
H632 H 0.28141 0.36326 0.29914 0.0
H633 H 0.18576 0.27991 0.27146 0.0
H634 H 0.25336 0.38697 0.32855 0.0
H635 H 0.1573 0.30454 0.3 0.0
H636 H 0.11556 0.3403 0.37789 0.0
H637 H 0.14388 0.31576 0.34975 0.0
H638 H 0.2232 0.41501 0.32477 0.0
H639 H 0.19537 0.43951 0.35418 0.0
C640 C 0.25426 0.35011 0.29902 0.0
C641 C 0.23585 0.31965 0.28277 0.0
C642 C 0.2381 0.36393 0.31582 0.0
C643 C 0.20292 0.348 0.31667 0.0
C644 C 0.18442 0.31744 0.30036 0.0
C645 C 0.20069 0.30333 0.28378 0.0
C646 C 0.13921 0.35693 0.3666 0.0
C647 C 0.15325 0.39194 0.36844 0.0
C648 C 0.15534 0.34279 0.35012 0.0
C649 C 0.18586 0.3632 0.33464 0.0
C650 C 0.20003 0.39832 0.33672 0.0
C651 C 0.18405 0.41249 0.35356 0.0
H652 H 0.68257 0.92951 0.29394 0.0
H653 H 0.76788 0.91871 0.27059 0.0
H654 H 0.65816 0.87758 0.32318 0.0
H655 H 0.74264 0.86554 0.29896 0.0
H656 H 0.70615 0.78972 0.37799 0.0
H657 H 0.7304 0.84211 0.34922 0.0
H658 H 0.63125 0.81912 0.32016 0.0
H659 H 0.60693 0.7671 0.3502 0.0
C660 C 0.69601 0.9158 0.29469 0.0
C661 C 0.72728 0.92839 0.2798 0.0
C662 C 0.68179 0.88573 0.31141 0.0
C663 C 0.69819 0.86699 0.31356 0.0
C664 C 0.72939 0.87942 0.29836 0.0
C665 C 0.74385 0.90984 0.28185 0.0
C666 C 0.68945 0.79593 0.36565 0.0
C667 C 0.65452 0.77418 0.3665 0.0
C668 C 0.70345 0.82594 0.3488 0.0
C669 C 0.68299 0.83501 0.33194 0.0
C670 C 0.64793 0.81337 0.33311 0.0
C671 C 0.63388 0.78344 0.35032 0.0
H672 H 0.78536 0.12368 0.2118 0.0
H673 H 0.86134 0.10013 0.18409 0.0
H674 H 0.81411 0.17622 0.18331 0.0
H675 H 0.88967 0.15235 0.15436 0.0
H676 H 0.94965 0.26277 0.12834 0.0
H677 H 0.92168 0.21089 0.15767 0.0
H678 H 0.82558 0.19964 0.13298 0.0
H679 H 0.85395 0.2527 0.10447 0.0
C680 C 0.80827 0.12971 0.19954 0.0
C681 C 0.82106 0.10763 0.2003 0.0
C682 C 0.82463 0.15981 0.18286 0.0
C683 C 0.85416 0.16868 0.1661 0.0
C684 C 0.86724 0.14675 0.16723 0.0
C685 C 0.851 0.1167 0.18426 0.0
C686 C 0.9225 0.24926 0.12902 0.0
C687 C 0.90406 0.262 0.11392 0.0
C688 C 0.90639 0.21922 0.14579 0.0
C689 C 0.87124 0.2007 0.1478 0.0
C690 C 0.85271 0.21334 0.13247 0.0
C691 C 0.86893 0.24371 0.1159 0.0
H692 H 0.8037 0.70238 0.09854 0.0
H693 H 0.78024 0.60326 0.1276 0.0
H694 H 0.85626 0.72659 0.12705 0.0
H695 H 0.83239 0.62756 0.15742 0.0
H696 H 0.94237 0.67775 0.18383 0.0
H697 H 0.89065 0.65375 0.15434 0.0
H698 H 0.88017 0.73951 0.17707 0.0
H699 H 0.93321 0.76435 0.20569 0.0
C700 C 0.80978 0.68569 0.11109 0.0
C701 C 0.78774 0.65081 0.11068 0.0
C702 C 0.83988 0.69968 0.1278 0.0
C703 C 0.84876 0.67925 0.14496 0.0
C704 C 0.82682 0.64422 0.14421 0.0
C705 C 0.79681 0.63017 0.12712 0.0
C706 C 0.92907 0.69158 0.18268 0.0
C707 C 0.94203 0.72306 0.19728 0.0
C708 C 0.8991 0.67759 0.16582 0.0
C709 C 0.88081 0.69441 0.16325 0.0
C710 C 0.89368 0.72591 0.17803 0.0
C711 C 0.92403 0.74015 0.19467 0.0
H712 H 0.2837 0.18192 0.20628 0.0
H713 H 0.36827 0.27783 0.18116 0.0
H714 H 0.3085 0.15374 0.17757 0.0
H715 H 0.39218 0.2501 0.15156 0.0
H716 H 0.44417 0.19155 0.1255 0.0
H717 H 0.41961 0.21931 0.15496 0.0
H718 H 0.3205 0.14139 0.12776 0.0
H719 H 0.34507 0.11311 0.0996 0.0
C720 C 0.30743 0.19698 0.19449 0.0
C721 C 0.32402 0.23212 0.19626 0.0
C722 C 0.32164 0.18087 0.1778 0.0
C723 C 0.35258 0.19953 0.16214 0.0
C724 C 0.36882 0.2347 0.16376 0.0
C725 C 0.35488 0.25068 0.18068 0.0
C726 C 0.41717 0.18055 0.12564 0.0
C727 C 0.39665 0.15012 0.11018 0.0
C728 C 0.40297 0.19648 0.14251 0.0
C729 C 0.36786 0.18264 0.14402 0.0
C730 C 0.3475 0.15255 0.12788 0.0
C731 C 0.36167 0.13646 0.11138 0.0
H732 H 0.78576 0.09887 0.62729 0.0
H733 H 0.79599 0.19483 0.60429 0.0
H734 H 0.83793 0.12658 0.65625 0.0
H735 H 0.84929 0.22292 0.6324 0.0
H736 H 0.92509 0.26242 0.7113 0.0
H737 H 0.8726 0.23389 0.68277 0.0
H738 H 0.89657 0.15867 0.65289 0.0
H739 H 0.9488 0.1868 0.68266 0.0
C740 C 0.79936 0.12601 0.62809 0.0
C741 C 0.78655 0.1446 0.61338 0.0
C742 C 0.82956 0.14197 0.64463 0.0
C743 C 0.84816 0.17711 0.64681 0.0
C744 C 0.83551 0.19579 0.63178 0.0
C745 C 0.80501 0.17973 0.61542 0.0
C746 C 0.91911 0.23965 0.69882 0.0
C747 C 0.94122 0.22689 0.69933 0.0
C748 C 0.88903 0.22341 0.68211 0.0
C749 C 0.8802 0.19405 0.66508 0.0
C750 C 0.90216 0.18099 0.66595 0.0
C751 C 0.93221 0.19712 0.68301 0.0
H752 H 0.85331 0.61378 0.60479 0.0
H753 H 0.94875 0.69884 0.63027 0.0
H754 H 0.82463 0.63858 0.63263 0.0
H755 H 0.92048 0.7228 0.65899 0.0
H756 H 0.86092 0.77413 0.68396 0.0
H757 H 0.88922 0.74985 0.65483 0.0
H758 H 0.81194 0.65059 0.68234 0.0
H759 H 0.78319 0.67481 0.71017 0.0
C760 C 0.86816 0.63762 0.61646 0.0
C761 C 0.90332 0.65431 0.61509 0.0
C762 C 0.85176 0.65184 0.63265 0.0
C763 C 0.87013 0.68291 0.64818 0.0
C764 C 0.90531 0.69931 0.64688 0.0
C765 C 0.9216 0.68534 0.63048 0.0
C766 C 0.85016 0.74717 0.68392 0.0
C767 C 0.81978 0.72649 0.69939 0.0
C768 C 0.8664 0.73313 0.66724 0.0
C769 C 0.85289 0.69806 0.66594 0.0
C770 C 0.82284 0.67756 0.68205 0.0
C771 C 0.80647 0.69154 0.69835 0.0
H772 H 0.2844 0.11723 0.70921 0.0
H773 H 0.36824 0.10524 0.68271 0.0
H774 H 0.30922 0.17035 0.68082 0.0
H775 H 0.39223 0.15718 0.65342 0.0
H776 H 0.44381 0.26782 0.62688 0.0
H777 H 0.41981 0.21564 0.65661 0.0
H778 H 0.32024 0.19405 0.63074 0.0
H779 H 0.34422 0.24664 0.60229 0.0
C780 C 0.30801 0.12582 0.69722 0.0
C781 C 0.32432 0.10698 0.69843 0.0
C782 C 0.32222 0.15622 0.68071 0.0
C783 C 0.35291 0.16834 0.66464 0.0
C784 C 0.36902 0.14927 0.66588 0.0
C785 C 0.35505 0.11921 0.68262 0.0
C786 C 0.41683 0.25177 0.6274 0.0
C787 C 0.39601 0.26149 0.61221 0.0
C788 C 0.40296 0.22173 0.64443 0.0
C789 C 0.3679 0.20041 0.64639 0.0
C790 C 0.34724 0.20995 0.63052 0.0
C791 C 0.36107 0.24008 0.61386 0.0
H792 H 0.1917 0.93638 0.7966 0.0
H793 H 0.26672 0.91218 0.76714 0.0
H794 H 0.1637 0.88425 0.82651 0.0
H795 H 0.23827 0.85973 0.79575 0.0
H796 H 0.19946 0.78284 0.87396 0.0
H797 H 0.22759 0.83615 0.84586 0.0
H798 H 0.13134 0.82581 0.82351 0.0
H799 H 0.10363 0.7737 0.8525 0.0
C800 C 0.20189 0.91969 0.79609 0.0
C801 C 0.23147 0.92853 0.77951 0.0
C802 C 0.18584 0.88969 0.81322 0.0
C803 C 0.19875 0.86759 0.81389 0.0
C804 C 0.22791 0.87626 0.79658 0.0
C805 C 0.24409 0.90631 0.77983 0.0
C806 C 0.1844 0.7921 0.86316 0.0
C807 C 0.1493 0.77395 0.86565 0.0
C808 C 0.20047 0.82261 0.84681 0.0
C809 C 0.18184 0.83555 0.8322 0.0
C810 C 0.14672 0.81725 0.83481 0.0
C811 C 0.13076 0.78707 0.85138 0.0
H812 H 0.11836 0.36426 0.7952 0.0
H813 H 0.12982 0.27973 0.77016 0.0
H814 H 0.17023 0.38843 0.82452 0.0
H815 H 0.18293 0.30474 0.79863 0.0
H816 H 0.25888 0.34053 0.87764 0.0
H817 H 0.20647 0.31637 0.84887 0.0
H818 H 0.22868 0.41572 0.82141 0.0
H819 H 0.28068 0.43993 0.85143 0.0
C820 C 0.13219 0.35095 0.79561 0.0
C821 C 0.11981 0.31997 0.7802 0.0
C822 C 0.16223 0.36503 0.81237 0.0
C823 C 0.18115 0.34879 0.81406 0.0
C824 C 0.16891 0.31785 0.79838 0.0
C825 C 0.13853 0.30353 0.78182 0.0
C826 C 0.25249 0.3573 0.86565 0.0
C827 C 0.27402 0.39224 0.86695 0.0
C828 C 0.22247 0.34335 0.84881 0.0
C829 C 0.21316 0.36389 0.83241 0.0
C830 C 0.2346 0.39896 0.834 0.0
C831 C 0.26453 0.41295 0.85121 0.0
H832 H 0.67701 0.77779 0.7681 0.0
H833 H 0.77641 0.85719 0.79183 0.0
H834 H 0.65274 0.80637 0.79622 0.0
H835 H 0.75219 0.88526 0.82129 0.0
H836 H 0.70112 0.94413 0.8469 0.0
H837 H 0.72462 0.91579 0.81764 0.0
H838 H 0.64145 0.81998 0.84571 0.0
H839 H 0.61703 0.84875 0.87404 0.0
C840 C 0.69374 0.80139 0.77943 0.0
C841 C 0.72872 0.81525 0.77758 0.0
C842 C 0.67975 0.81768 0.79589 0.0
C843 C 0.7003 0.84817 0.81138 0.0
C844 C 0.73539 0.86213 0.80933 0.0
C845 C 0.7494 0.846 0.79247 0.0
C846 C 0.68776 0.91697 0.84694 0.0
C847 C 0.65715 0.89873 0.86298 0.0
C848 C 0.70146 0.90063 0.83023 0.0
C849 C 0.68526 0.86544 0.82928 0.0
C850 C 0.65456 0.84711 0.84541 0.0
C851 C 0.64057 0.86356 0.86188 0.0
H852 H 0.52643 0.4348 0.51849 0.0
H853 H 0.44785 0.4556 0.54346 0.0
H854 H 0.55417 0.48682 0.48855 0.0
H855 H 0.47608 0.50811 0.51481 0.0
H856 H 0.5171 0.58536 0.4364 0.0
H857 H 0.48875 0.5322 0.46482 0.0
H858 H 0.58492 0.5451 0.49189 0.0
H859 H 0.61286 0.59694 0.4626 0.0
C860 C 0.51537 0.45074 0.51801 0.0
C861 C 0.48493 0.44097 0.5334 0.0
C862 C 0.53129 0.4807 0.50087 0.0
C863 C 0.51742 0.50192 0.49899 0.0
C864 C 0.48728 0.4923 0.51498 0.0
C865 C 0.47121 0.46222 0.53176 0.0
C866 C 0.53209 0.57668 0.44831 0.0
C867 C 0.56724 0.5954 0.447 0.0
C868 C 0.51587 0.54626 0.46485 0.0
C869 C 0.53443 0.53403 0.48079 0.0
C870 C 0.5696 0.55304 0.47949 0.0
C871 C 0.5857 0.58308 0.46274 0.0
H872 H 0.59175 1.00816 0.5436 0.0
H873 H 0.61581 0.10799 0.51637 0.0
H874 H 0.53939 0.98475 0.51491 0.0
H875 H 0.56371 0.08445 0.48645 0.0
H876 H 0.45289 0.03394 0.46054 0.0
H877 H 0.50502 0.05795 0.48961 0.0
H878 H 0.51632 0.97325 0.46445 0.0
H879 H 0.46312 0.9485 0.43625 0.0
C880 C 0.58588 0.02519 0.53139 0.0
C881 C 0.60806 0.06003 0.53235 0.0
C882 C 0.55587 1.01166 0.51459 0.0
C883 C 0.54718 0.03251 0.49791 0.0
C884 C 0.5692 0.06749 0.49923 0.0
C885 C 0.59918 0.08108 0.51637 0.0
C886 C 0.46649 0.02039 0.46107 0.0
C887 C 0.45369 0.98918 0.44598 0.0
C888 C 0.49665 0.03436 0.47768 0.0
C889 C 0.5152 0.01774 0.47954 0.0
C890 C 0.50258 0.98664 0.46409 0.0
C891 C 0.47213 0.97247 0.44768 0.0
H892 H 0.11177 0.52461 0.46028 0.0
H893 H 1.0126 0.4476 0.43283 0.0
H894 H 0.0874 0.5526 0.48974 0.0
H895 H 0.98828 0.47607 0.46099 0.0
H896 H 0.95105 0.51611 0.53942 0.0
H897 H 0.97589 0.48784 0.51091 0.0
H898 H 0.06058 0.58408 0.48631 0.0
H899 H 0.0366 0.6119 0.51568 0.0
C900 C 0.08482 0.51398 0.46008 0.0
C901 C 0.0642 0.48387 0.44421 0.0
C902 C 0.07073 0.53004 0.47696 0.0
C903 C 0.03566 0.51661 0.47806 0.0
C904 C 1.01524 0.48688 0.46145 0.0
C905 C 0.02928 0.47068 0.44496 0.0
C906 C 0.97501 0.53112 0.52799 0.0
C907 C 0.99183 0.56625 0.53005 0.0
C908 C 0.98925 0.51497 0.51142 0.0
C909 C 1.02046 0.53357 0.49617 0.0
C910 C 0.03698 0.56872 0.49816 0.0
C911 C 0.023 0.58475 0.51495 0.0
H912 H 0.44765 0.52335 0.96011 0.0
H913 H 0.46784 0.4441 0.93628 0.0
H914 H 0.49972 0.55121 -0.01002 0.0
H915 H 0.5204 0.47242 0.96485 0.0
H916 H 0.59761 0.51371 0.04314 0.0
H917 H 0.54442 0.48542 0.01479 0.0
H918 H 0.55804 0.58163 0.9868 0.0
H919 H 0.60995 0.60953 0.01603 0.0
C920 C 0.46347 0.51216 0.96082 0.0
C921 C 0.45351 0.4815 0.94579 0.0
C922 C 0.49346 0.52816 0.97793 0.0
C923 C 0.51451 0.51411 0.98012 0.0
C924 C 0.50471 0.48376 0.96445 0.0
C925 C 0.47461 0.46762 0.94771 0.0
C926 C 0.58908 0.52872 0.03105 0.0
C927 C 0.60803 0.56388 0.03209 0.0
C928 C 0.55864 0.51254 0.01455 0.0
C929 C 0.54662 0.53113 -0.00166 0.0
C930 C 0.56583 0.5663 -0.00061 0.0
C931 C 0.59589 0.58238 0.01611 0.0
H932 H 0.51986 0.94735 0.9386 0.0
H933 H 0.61568 0.03218 0.96355 0.0
H934 H 0.49159 0.97218 0.9671 0.0
H935 H 0.58783 0.05615 -0.00709 0.0
H936 H 0.52875 0.10777 0.0187 0.0
H937 H 0.55669 0.08334 0.98927 0.0
H938 H 0.47945 0.98419 0.01709 0.0
H939 H 0.45103 1.00857 0.04526 0.0
C940 C 0.53488 0.97115 0.95028 0.0
C941 C 0.57002 0.98778 0.94856 0.0
C942 C 0.51871 0.98537 0.96685 0.0
C943 C 0.53732 0.01639 0.98243 0.0
C944 C 0.57248 0.03271 0.98079 0.0
C945 C 0.58853 0.01874 0.96401 0.0
C946 C 0.51794 0.08079 0.0187 0.0
C947 C 0.48765 0.0602 0.03434 0.0
C948 C 0.53397 0.06667 0.00184 0.0
C949 C 0.52035 0.03159 0.00051 0.0
C950 C 0.49042 1.01117 0.01684 0.0
C951 C 0.47425 0.02524 0.03333 0.0
H952 H 1.01103 0.57904 0.93375 0.0
H953 H 0.1104 0.60111 0.96035 0.0
H954 H 0.98692 0.52609 0.9616 0.0
H955 H 0.08623 0.54854 -0.0105 0.0
H956 H 0.03577 0.4382 0.01431 0.0
H957 H 0.05946 0.49028 0.98541 0.0
H958 H 0.9748 0.50135 0.01131 0.0
H959 H 0.95026 0.44797 0.03936 0.0
C960 C 0.0278 0.5726 0.94564 0.0
C961 C 0.06273 0.59436 0.94472 0.0
C962 C 1.01388 0.54225 0.96196 0.0
C963 C 0.03442 0.53283 0.97819 0.0
C964 C 0.06947 0.55452 0.97698 0.0
C965 C 0.08345 0.58479 0.96029 0.0
C966 C 0.02211 0.45169 0.01396 0.0
C967 C 0.99105 0.43882 0.02931 0.0
C968 C 0.03592 0.48187 -0.00255 0.0
C969 C 1.01935 0.50047 -0.00401 0.0
C970 C 0.98821 0.48763 0.01143 0.0
C971 C 0.97414 0.45707 0.02773 0.0
loop_
_geom_bond_atom_site_label_1
_geom_bond_atom_site_label_2
_geom_bond_distance
_geom_bond_site_symmetry_2
_ccdc_geom_bond_type
C0 O2 1.247 . S
C0 O4 1.258 . S
C1 O8 1.247 . S
C1 O9 1.258 . S
O2 C0 1.247 . S
O2 Zn3 2.028 1_655 S
Zn3 O2 2.028 1_455 S
Zn3 O7 2.035 1_455 S
Zn3 O9 2.035 . S
Zn3 O10 2.028 . S
O4 C0 1.258 . S
O4 Zn5 2.035 1_655 S
Zn5 O4 2.035 1_455 S
Zn5 O6 2.028 1_455 S
Zn5 O8 2.028 . S
Zn5 O11 2.035 . S
O6 Zn5 2.028 1_655 S
O6 C12 1.247 . S
O7 Zn3 2.035 1_655 S
O7 C12 1.258 . S
O8 C1 1.247 . S
O8 Zn5 2.028 . S
O9 C1 1.258 . S
O9 Zn3 2.035 . S
O10 Zn3 2.028 . S
O10 C13 1.247 . S
O11 Zn5 2.035 . S
O11 C13 1.258 . S
C12 O6 1.247 . S
C12 O7 1.258 . S
C13 O10 1.247 . S
C13 O11 1.258 . S
C14 O16 1.247 . S
C14 O18 1.258 . S
C15 O22 1.247 . S
C15 O23 1.258 . S
O16 C14 1.247 . S
O16 Zn17 2.028 . S
Zn17 O16 2.028 . S
Zn17 O21 2.035 . S
Zn17 O23 2.035 . S
Zn17 O24 2.028 . S
O18 C14 1.258 . S
O18 Zn19 2.035 . S
Zn19 O18 2.035 . S
Zn19 O20 2.028 . S
Zn19 O22 2.028 . S
Zn19 O25 2.035 . S
O20 Zn19 2.028 . S
O20 C26 1.247 . S
O21 Zn17 2.035 . S
O21 C26 1.258 . S
O22 C15 1.247 . S
O22 Zn19 2.028 . S
O23 C15 1.258 . S
O23 Zn17 2.035 . S
O24 Zn17 2.028 . S
O24 C27 1.247 . S
O25 Zn19 2.035 . S
O25 C27 1.258 . S
C26 O20 1.247 . S
C26 O21 1.258 . S
C27 O24 1.247 . S
C27 O25 1.258 . S
C28 O30 1.247 . S
C28 O32 1.258 . S
C29 O36 1.247 . S
C29 O37 1.258 . S
O30 C28 1.247 . S
O30 Zn31 2.028 1_565 S
Zn31 O30 2.028 1_545 S
Zn31 O35 2.035 1_545 S
Zn31 O37 2.035 . S
Zn31 O38 2.028 . S
O32 C28 1.258 . S
O32 Zn33 2.035 1_565 S
Zn33 O32 2.035 1_545 S
Zn33 O34 2.028 1_545 S
Zn33 O36 2.028 . S
Zn33 O39 2.035 . S
O34 Zn33 2.028 1_565 S
O34 C40 1.247 . S
O35 Zn31 2.035 1_565 S
O35 C40 1.258 . S
O36 C29 1.247 . S
O36 Zn33 2.028 . S
O37 C29 1.258 . S
O37 Zn31 2.035 . S
O38 Zn31 2.028 . S
O38 C41 1.247 . S
O39 Zn33 2.035 . S
O39 C41 1.258 . S
C40 O34 1.247 . S
C40 O35 1.258 . S
C41 O38 1.247 . S
C41 O39 1.258 . S
C42 O44 1.247 . S
C42 O46 1.258 . S
C43 O50 1.247 . S
C43 O51 1.258 . S
O44 C42 1.247 . S
O44 Zn45 2.028 1_655 S
Zn45 O44 2.028 1_455 S
Zn45 O49 2.035 1_455 S
Zn45 O51 2.035 . S
Zn45 O52 2.028 . S
O46 C42 1.258 . S
O46 Zn47 2.035 1_655 S
Zn47 O46 2.035 1_455 S
Zn47 O48 2.028 1_455 S
Zn47 O50 2.028 . S
Zn47 O53 2.035 . S
O48 Zn47 2.028 1_655 S
O48 C54 1.247 . S
O49 Zn45 2.035 1_655 S
O49 C54 1.258 . S
O50 C43 1.247 . S
O50 Zn47 2.028 . S
O51 C43 1.258 . S
O51 Zn45 2.035 . S
O52 Zn45 2.028 . S
O52 C55 1.247 . S
O53 Zn47 2.035 . S
O53 C55 1.258 . S
C54 O48 1.247 . S
C54 O49 1.258 . S
C55 O52 1.247 . S
C55 O53 1.258 . S
C56 O58 1.247 . S
C56 O60 1.258 . S
C57 O64 1.247 . S
C57 O65 1.258 . S
O58 C56 1.247 . S
O58 Zn59 2.028 . S
Zn59 O58 2.028 . S
Zn59 O63 2.035 . S
Zn59 O65 2.035 . S
Zn59 O66 2.028 . S
O60 C56 1.258 . S
O60 Zn61 2.035 . S
Zn61 O60 2.035 . S
Zn61 O62 2.028 . S
Zn61 O64 2.028 . S
Zn61 O67 2.035 . S
O62 Zn61 2.028 . S
O62 C68 1.247 . S
O63 Zn59 2.035 . S
O63 C68 1.258 . S
O64 C57 1.247 . S
O64 Zn61 2.028 . S
O65 C57 1.258 . S
O65 Zn59 2.035 . S
O66 Zn59 2.028 . S
O66 C69 1.247 . S
O67 Zn61 2.035 . S
O67 C69 1.258 . S
C68 O62 1.247 . S
C68 O63 1.258 . S
C69 O66 1.247 . S
C69 O67 1.258 . S
C70 O72 1.247 . S
C70 O74 1.258 . S
C71 O78 1.247 . S
C71 O79 1.258 . S
O72 C70 1.247 . S
O72 Zn73 2.028 . S
Zn73 O72 2.028 . S
Zn73 O77 2.035 . S
Zn73 O79 2.035 1_545 S
Zn73 O80 2.028 1_545 S
O74 C70 1.258 . S
O74 Zn75 2.035 . S
Zn75 O74 2.035 . S
Zn75 O76 2.028 . S
Zn75 O78 2.028 1_545 S
Zn75 O81 2.035 1_545 S
O76 Zn75 2.028 . S
O76 C82 1.247 . S
O77 Zn73 2.035 . S
O77 C82 1.258 . S
O78 C71 1.247 . S
O78 Zn75 2.028 1_565 S
O79 C71 1.258 . S
O79 Zn73 2.035 1_565 S
O80 Zn73 2.028 1_565 S
O80 C83 1.247 . S
O81 Zn75 2.035 1_565 S
O81 C83 1.258 . S
C82 O76 1.247 . S
C82 O77 1.258 . S
C83 O80 1.247 . S
C83 O81 1.258 . S
C84 O86 1.247 . S
C84 O88 1.258 . S
C85 O92 1.247 . S
C85 O93 1.258 . S
O86 C84 1.247 . S
O86 Zn87 2.028 . S
Zn87 O86 2.028 . S
Zn87 O91 2.035 . S
Zn87 O93 2.035 . S
Zn87 O94 2.028 . S
O88 C84 1.258 . S
O88 Zn89 2.035 . S
Zn89 O88 2.035 . S
Zn89 O90 2.028 . S
Zn89 O92 2.028 . S
Zn89 O95 2.035 . S
O90 Zn89 2.028 . S
O90 C96 1.247 . S
O91 Zn87 2.035 . S
O91 C96 1.258 . S
O92 C85 1.247 . S
O92 Zn89 2.028 . S
O93 C85 1.258 . S
O93 Zn87 2.035 . S
O94 Zn87 2.028 . S
O94 C97 1.247 . S
O95 Zn89 2.035 . S
O95 C97 1.258 . S
C96 O90 1.247 . S
C96 O91 1.258 . S
C97 O94 1.247 . S
C97 O95 1.258 . S
C98 O100 1.247 . S
C98 O102 1.258 . S
C99 O106 1.247 . S
C99 O107 1.258 . S
O100 C98 1.247 . S
O100 Zn101 2.028 . S
Zn101 O100 2.028 . S
Zn101 O105 2.035 . S
Zn101 O107 2.035 . S
Zn101 O108 2.028 . S
O102 C98 1.258 . S
O102 Zn103 2.035 . S
Zn103 O102 2.035 . S
Zn103 O104 2.028 . S
Zn103 O106 2.028 . S
Zn103 O109 2.035 . S
O104 Zn103 2.028 . S
O104 C110 1.247 . S
O105 Zn101 2.035 . S
O105 C110 1.258 . S
O106 C99 1.247 . S
O106 Zn103 2.028 . S
O107 C99 1.258 . S
O107 Zn101 2.035 . S
O108 Zn101 2.028 . S
O108 C111 1.247 . S
O109 Zn103 2.035 . S
O109 C111 1.258 . S
C110 O104 1.247 . S
C110 O105 1.258 . S
C111 O108 1.247 . S
C111 O109 1.258 . S
C112 O114 1.247 . S
C112 O116 1.258 . S
C113 O120 1.247 . S
C113 O121 1.258 . S
O114 C112 1.247 . S
O114 Zn115 2.028 . S
Zn115 O114 2.028 . S
Zn115 O119 2.035 . S
Zn115 O121 2.035 . S
Zn115 O122 2.028 . S
O116 C112 1.258 . S
O116 Zn117 2.035 . S
Zn117 O116 2.035 . S
Zn117 O118 2.028 . S
Zn117 O120 2.028 . S
Zn117 O123 2.035 . S
O118 Zn117 2.028 . S
O118 C124 1.247 . S
O119 Zn115 2.035 . S
O119 C124 1.258 . S
O120 C113 1.247 . S
O120 Zn117 2.028 . S
O121 C113 1.258 . S
O121 Zn115 2.035 . S
O122 Zn115 2.028 . S
O122 C125 1.247 . S
O123 Zn117 2.035 . S
O123 C125 1.258 . S
C124 O118 1.247 . S
C124 O119 1.258 . S
C125 O122 1.247 . S
C125 O123 1.258 . S
C126 O128 1.247 . S
C126 O130 1.258 . S
C127 O134 1.247 . S
C127 O135 1.258 . S
O128 C126 1.247 . S
O128 Zn129 2.028 . S
Zn129 O128 2.028 . S
Zn129 O133 2.035 . S
Zn129 O135 2.035 . S
Zn129 O136 2.028 . S
O130 C126 1.258 . S
O130 Zn131 2.035 . S
Zn131 O130 2.035 . S
Zn131 O132 2.028 . S
Zn131 O134 2.028 . S
Zn131 O137 2.035 . S
O132 Zn131 2.028 . S
O132 C138 1.247 . S
O133 Zn129 2.035 . S
O133 C138 1.258 . S
O134 C127 1.247 . S
O134 Zn131 2.028 . S
O135 C127 1.258 . S
O135 Zn129 2.035 . S
O136 Zn129 2.028 . S
O136 C139 1.247 . S
O137 Zn131 2.035 . S
O137 C139 1.258 . S
C138 O132 1.247 . S
C138 O133 1.258 . S
C139 O136 1.247 . S
C139 O137 1.258 . S
C140 O142 1.247 . S
C140 O144 1.258 . S
C141 O148 1.247 . S
C141 O149 1.258 . S
O142 C140 1.247 . S
O142 Zn143 2.028 . S
Zn143 O142 2.028 . S
Zn143 O147 2.035 . S
Zn143 O149 2.035 . S
Zn143 O150 2.028 . S
O144 C140 1.258 . S
O144 Zn145 2.035 . S
Zn145 O144 2.035 . S
Zn145 O146 2.028 . S
Zn145 O148 2.028 . S
Zn145 O151 2.035 . S
O146 Zn145 2.028 . S
O146 C152 1.247 . S
O147 Zn143 2.035 . S
O147 C152 1.258 . S
O148 C141 1.247 . S
O148 Zn145 2.028 . S
O149 C141 1.258 . S
O149 Zn143 2.035 . S
O150 Zn143 2.028 . S
O150 C153 1.247 . S
O151 Zn145 2.035 . S
O151 C153 1.258 . S
C152 O146 1.247 . S
C152 O147 1.258 . S
C153 O150 1.247 . S
C153 O151 1.258 . S
C154 O156 1.247 . S
C154 O158 1.258 . S
C155 O162 1.247 . S
C155 O163 1.258 . S
O156 C154 1.247 . S
O156 Zn157 2.028 . S
Zn157 O156 2.028 . S
Zn157 O161 2.035 . S
Zn157 O163 2.035 . S
Zn157 O164 2.028 . S
O158 C154 1.258 . S
O158 Zn159 2.035 . S
Zn159 O158 2.035 . S
Zn159 O160 2.028 . S
Zn159 O162 2.028 . S
Zn159 O165 2.035 . S
O160 Zn159 2.028 . S
O160 C166 1.247 . S
O161 Zn157 2.035 . S
O161 C166 1.258 . S
O162 C155 1.247 . S
O162 Zn159 2.028 . S
O163 C155 1.258 . S
O163 Zn157 2.035 . S
O164 Zn157 2.028 . S
O164 C167 1.247 . S
O165 Zn159 2.035 . S
O165 C167 1.258 . S
C166 O160 1.247 . S
C166 O161 1.258 . S
C167 O164 1.247 . S
C167 O165 1.258 . S
C168 O170 1.247 . S
C168 O172 1.258 . S
C169 O176 1.247 . S
C169 O177 1.258 . S
O170 C168 1.247 . S
O170 Zn171 2.028 . S
Zn171 O170 2.028 . S
Zn171 O175 2.035 . S
Zn171 O177 2.035 . S
Zn171 O178 2.028 . S
O172 C168 1.258 . S
O172 Zn173 2.035 . S
Zn173 O172 2.035 . S
Zn173 O174 2.028 . S
Zn173 O176 2.028 . S
Zn173 O179 2.035 . S
O174 Zn173 2.028 . S
O174 C180 1.247 . S
O175 Zn171 2.035 . S
O175 C180 1.258 . S
O176 C169 1.247 . S
O176 Zn173 2.028 . S
O177 C169 1.258 . S
O177 Zn171 2.035 . S
O178 Zn171 2.028 . S
O178 C181 1.247 . S
O179 Zn173 2.035 . S
O179 C181 1.258 . S
C180 O174 1.247 . S
C180 O175 1.258 . S
C181 O178 1.247 . S
C181 O179 1.258 . S
C182 O184 1.247 . S
C182 O186 1.258 . S
C183 O190 1.247 . S
C183 O191 1.258 . S
O184 C182 1.247 . S
O184 Zn185 2.028 . S
Zn185 O184 2.028 . S
Zn185 O189 2.035 . S
Zn185 O191 2.035 . S
Zn185 O192 2.028 . S
O186 C182 1.258 . S
O186 Zn187 2.035 . S
Zn187 O186 2.035 . S
Zn187 O188 2.028 . S
Zn187 O190 2.028 . S
Zn187 O193 2.035 . S
O188 Zn187 2.028 . S
O188 C194 1.247 . S
O189 Zn185 2.035 . S
O189 C194 1.258 . S
O190 C183 1.247 . S
O190 Zn187 2.028 . S
O191 C183 1.258 . S
O191 Zn185 2.035 . S
O192 Zn185 2.028 . S
O192 C195 1.247 . S
O193 Zn187 2.035 . S
O193 C195 1.258 . S
C194 O188 1.247 . S
C194 O189 1.258 . S
C195 O192 1.247 . S
C195 O193 1.258 . S
C196 O198 1.247 . S
C196 O200 1.258 . S
C197 O204 1.247 . S
C197 O205 1.258 . S
O198 C196 1.247 . S
O198 Zn199 2.028 . S
Zn199 O198 2.028 . S
Zn199 O203 2.035 . S
Zn199 O205 2.035 . S
Zn199 O206 2.028 . S
O200 C196 1.258 . S
O200 Zn201 2.035 . S
Zn201 O200 2.035 . S
Zn201 O202 2.028 . S
Zn201 O204 2.028 . S
Zn201 O207 2.035 . S
O202 Zn201 2.028 . S
O202 C208 1.247 . S
O203 Zn199 2.035 . S
O203 C208 1.258 . S
O204 C197 1.247 . S
O204 Zn201 2.028 . S
O205 C197 1.258 . S
O205 Zn199 2.035 . S
O206 Zn199 2.028 . S
O206 C209 1.247 . S
O207 Zn201 2.035 . S
O207 C209 1.258 . S
C208 O202 1.247 . S
C208 O203 1.258 . S
C209 O206 1.247 . S
C209 O207 1.258 . S
C210 O212 1.247 . S
C210 O214 1.258 . S
C211 O218 1.247 . S
C211 O219 1.258 . S
O212 C210 1.247 . S
O212 Zn213 2.028 . S
Zn213 O212 2.028 . S
Zn213 O217 2.035 . S
Zn213 O219 2.035 . S
Zn213 O220 2.028 . S
O214 C210 1.258 . S
O214 Zn215 2.035 . S
Zn215 O214 2.035 . S
Zn215 O216 2.028 . S
Zn215 O218 2.028 . S
Zn215 O221 2.035 . S
O216 Zn215 2.028 . S
O216 C222 1.247 . S
O217 Zn213 2.035 . S
O217 C222 1.258 . S
O218 C211 1.247 . S
O218 Zn215 2.028 . S
O219 C211 1.258 . S
O219 Zn213 2.035 . S
O220 Zn213 2.028 . S
O220 C223 1.247 . S
O221 Zn215 2.035 . S
O221 C223 1.258 . S
C222 O216 1.247 . S
C222 O217 1.258 . S
C223 O220 1.247 . S
C223 O221 1.258 . S
C224 O226 1.247 . S
C224 O228 1.258 . S
C225 O232 1.247 . S
C225 O233 1.258 . S
O226 C224 1.247 . S
O226 Zn227 2.028 . S
Zn227 O226 2.028 . S
Zn227 O231 2.035 . S
Zn227 O233 2.035 . S
Zn227 O234 2.028 . S
O228 C224 1.258 . S
O228 Zn229 2.035 . S
Zn229 O228 2.035 . S
Zn229 O230 2.028 . S
Zn229 O232 2.028 . S
Zn229 O235 2.035 . S
O230 Zn229 2.028 . S
O230 C236 1.247 . S
O231 Zn227 2.035 . S
O231 C236 1.258 . S
O232 C225 1.247 . S
O232 Zn229 2.028 . S
O233 C225 1.258 . S
O233 Zn227 2.035 . S
O234 Zn227 2.028 . S
O234 C237 1.247 . S
O235 Zn229 2.035 . S
O235 C237 1.258 . S
C236 O230 1.247 . S
C236 O231 1.258 . S
C237 O234 1.247 . S
C237 O235 1.258 . S
C238 O240 1.247 . S
C238 O242 1.258 . S
C239 O246 1.247 . S
C239 O247 1.258 . S
O240 C238 1.247 . S
O240 Zn241 2.028 . S
Zn241 O240 2.028 . S
Zn241 O245 2.035 . S
Zn241 O247 2.035 . S
Zn241 O248 2.028 . S
O242 C238 1.258 . S
O242 Zn243 2.035 . S
Zn243 O242 2.035 . S
Zn243 O244 2.028 . S
Zn243 O246 2.028 . S
Zn243 O249 2.035 . S
O244 Zn243 2.028 . S
O244 C250 1.247 . S
O245 Zn241 2.035 . S
O245 C250 1.258 . S
O246 C239 1.247 . S
O246 Zn243 2.028 . S
O247 C239 1.258 . S
O247 Zn241 2.035 . S
O248 Zn241 2.028 . S
O248 C251 1.247 . S
O249 Zn243 2.035 . S
O249 C251 1.258 . S
C250 O244 1.247 . S
C250 O245 1.258 . S
C251 O248 1.247 . S
C251 O249 1.258 . S
H252 C260 0.950 . S
H253 C265 0.950 . S
H254 C262 0.950 . S
H255 C264 0.950 . S
H256 C266 0.950 1_556 S
H257 C268 0.950 . S
H258 C270 0.950 . S
H259 C271 0.950 . S
C260 H252 0.950 . S
C260 C261 1.386 . S
C260 C262 1.391 . S
C261 C260 1.386 . S
C261 C265 1.393 . S
C262 H254 0.950 . S
C262 C260 1.391 . S
C262 C263 1.400 . S
C263 C262 1.400 . S
C263 C264 1.398 . S
C263 C269 1.491 . S
C264 H255 0.950 . S
C264 C263 1.398 . S
C264 C265 1.391 . S
C265 H253 0.950 . S
C265 C261 1.393 . S
C265 C264 1.391 . S
C266 H256 0.950 1_554 S
C266 C267 1.386 . S
C266 C268 1.391 . S
C267 C266 1.386 . S
C267 C271 1.393 . S
C268 H257 0.950 . S
C268 C266 1.391 . S
C268 C269 1.400 . S
C269 C263 1.491 . S
C269 C268 1.400 . S
C269 C270 1.398 . S
C270 H258 0.950 . S
C270 C269 1.398 . S
C270 C271 1.391 . S
C271 H259 0.950 . S
C271 C267 1.393 . S
C271 C270 1.391 . S
H272 C280 0.950 . S
H273 C285 0.950 . S
H274 C282 0.950 . S
H275 C284 0.950 . S
H276 C286 0.950 . S
H277 C288 0.950 . S
H278 C290 0.950 . S
H279 C291 0.950 . S
C280 H272 0.950 . S
C280 C281 1.386 . S
C280 C282 1.391 . S
C281 C280 1.386 . S
C281 C285 1.393 . S
C282 H274 0.950 . S
C282 C280 1.391 . S
C282 C283 1.400 . S
C283 C282 1.400 . S
C283 C284 1.398 . S
C283 C289 1.491 . S
C284 H275 0.950 . S
C284 C283 1.398 . S
C284 C285 1.391 . S
C285 H273 0.950 . S
C285 C281 1.393 . S
C285 C284 1.391 . S
C286 H276 0.950 . S
C286 C287 1.386 . S
C286 C288 1.391 . S
C287 C286 1.386 . S
C287 C291 1.393 . S
C288 H277 0.950 . S
C288 C286 1.391 . S
C288 C289 1.400 . S
C289 C283 1.491 . S
C289 C288 1.400 . S
C289 C290 1.398 . S
C290 H278 0.950 . S
C290 C289 1.398 . S
C290 C291 1.391 . S
C291 H279 0.950 . S
C291 C287 1.393 . S
C291 C290 1.391 . S
H292 C300 0.950 . S
H293 C305 0.950 . S
H294 C302 0.950 . S
H295 C304 0.950 . S
H296 C306 0.950 . S
H297 C308 0.950 . S
H298 C310 0.950 . S
H299 C311 0.950 . S
C300 H292 0.950 . S
C300 C301 1.386 . S
C300 C302 1.391 . S
C301 C300 1.386 . S
C301 C305 1.393 . S
C302 H294 0.950 . S
C302 C300 1.391 . S
C302 C303 1.400 . S
C303 C302 1.400 . S
C303 C304 1.398 . S
C303 C309 1.491 . S
C304 H295 0.950 . S
C304 C303 1.398 . S
C304 C305 1.391 . S
C305 H293 0.950 . S
C305 C301 1.393 . S
C305 C304 1.391 . S
C306 H296 0.950 . S
C306 C307 1.386 . S
C306 C308 1.391 . S
C307 C306 1.386 . S
C307 C311 1.393 . S
C308 H297 0.950 . S
C308 C306 1.391 . S
C308 C309 1.400 . S
C309 C303 1.491 . S
C309 C308 1.400 . S
C309 C310 1.398 . S
C310 H298 0.950 . S
C310 C309 1.398 . S
C310 C311 1.391 . S
C311 H299 0.950 . S
C311 C307 1.393 . S
C311 C310 1.391 . S
H312 C320 0.950 . S
H313 C325 0.950 . S
H314 C322 0.950 . S
H315 C324 0.950 . S
H316 C326 0.950 . S
H317 C328 0.950 . S
H318 C330 0.950 . S
H319 C331 0.950 1_565 S
C320 H312 0.950 . S
C320 C321 1.386 . S
C320 C322 1.391 . S
C321 C320 1.386 . S
C321 C325 1.393 . S
C322 H314 0.950 . S
C322 C320 1.391 . S
C322 C323 1.400 . S
C323 C322 1.400 . S
C323 C324 1.398 . S
C323 C329 1.491 . S
C324 H315 0.950 . S
C324 C323 1.398 . S
C324 C325 1.391 . S
C325 H313 0.950 . S
C325 C321 1.393 . S
C325 C324 1.391 . S
C326 H316 0.950 . S
C326 C327 1.386 . S
C326 C328 1.391 . S
C327 C326 1.386 . S
C327 C331 1.393 . S
C328 H317 0.950 . S
C328 C326 1.391 . S
C328 C329 1.400 . S
C329 C323 1.491 . S
C329 C328 1.400 . S
C329 C330 1.398 . S
C330 H318 0.950 . S
C330 C329 1.398 . S
C330 C331 1.391 . S
C331 H319 0.950 1_545 S
C331 C327 1.393 . S
C331 C330 1.391 . S
H332 C340 0.950 . S
H333 C345 0.950 . S
H334 C342 0.950 . S
H335 C344 0.950 . S
H336 C346 0.950 . S
H337 C348 0.950 . S
H338 C350 0.950 1_455 S
H339 C351 0.950 1_455 S
C340 H332 0.950 . S
C340 C341 1.386 . S
C340 C342 1.391 . S
C341 C340 1.386 . S
C341 C345 1.393 . S
C342 H334 0.950 . S
C342 C340 1.391 . S
C342 C343 1.400 . S
C343 C342 1.400 . S
C343 C344 1.398 . S
C343 C349 1.491 . S
C344 H335 0.950 . S
C344 C343 1.398 . S
C344 C345 1.391 . S
C345 H333 0.950 . S
C345 C341 1.393 . S
C345 C344 1.391 . S
C346 H336 0.950 . S
C346 C347 1.386 . S
C346 C348 1.391 . S
C347 C346 1.386 . S
C347 C351 1.393 . S
C348 H337 0.950 . S
C348 C346 1.391 . S
C348 C349 1.400 . S
C349 C343 1.491 . S
C349 C348 1.400 . S
C349 C350 1.398 . S
C350 H338 0.950 1_655 S
C350 C349 1.398 . S
C350 C351 1.391 . S
C351 H339 0.950 1_655 S
C351 C347 1.393 . S
C351 C350 1.391 . S
H352 C360 0.950 . S
H353 C365 0.950 . S
H354 C362 0.950 . S
H355 C364 0.950 . S
H356 C366 0.950 . S
H357 C368 0.950 . S
H358 C370 0.950 . S
H359 C371 0.950 . S
C360 H352 0.950 . S
C360 C361 1.386 . S
C360 C362 1.391 . S
C361 C360 1.386 . S
C361 C365 1.393 . S
C362 H354 0.950 . S
C362 C360 1.391 . S
C362 C363 1.400 . S
C363 C362 1.400 . S
C363 C364 1.398 . S
C363 C369 1.491 . S
C364 H355 0.950 . S
C364 C363 1.398 . S
C364 C365 1.391 . S
C365 H353 0.950 . S
C365 C361 1.393 . S
C365 C364 1.391 . S
C366 H356 0.950 . S
C366 C367 1.386 . S
C366 C368 1.391 . S
C367 C366 1.386 . S
C367 C371 1.393 . S
C368 H357 0.950 . S
C368 C366 1.391 . S
C368 C369 1.400 . S
C369 C363 1.491 . S
C369 C368 1.400 . S
C369 C370 1.398 . S
C370 H358 0.950 . S
C370 C369 1.398 . S
C370 C371 1.391 . S
C371 H359 0.950 . S
C371 C367 1.393 . S
C371 C370 1.391 . S
H372 C380 0.950 . S
H373 C385 0.950 1_455 S
H374 C382 0.950 . S
H375 C384 0.950 1_455 S
H376 C386 0.950 . S
H377 C388 0.950 . S
H378 C390 0.950 . S
H379 C391 0.950 . S
C380 H372 0.950 . S
C380 C381 1.386 . S
C380 C382 1.391 . S
C381 C380 1.386 . S
C381 C385 1.393 . S
C382 H374 0.950 . S
C382 C380 1.391 . S
C382 C383 1.400 . S
C383 C382 1.400 . S
C383 C384 1.398 . S
C383 C389 1.491 . S
C384 H375 0.950 1_655 S
C384 C383 1.398 . S
C384 C385 1.391 . S
C385 H373 0.950 1_655 S
C385 C381 1.393 . S
C385 C384 1.391 . S
C386 H376 0.950 . S
C386 C387 1.386 . S
C386 C388 1.391 . S
C387 C386 1.386 . S
C387 C391 1.393 . S
C388 H377 0.950 . S
C388 C386 1.391 . S
C388 C389 1.400 . S
C389 C383 1.491 . S
C389 C388 1.400 . S
C389 C390 1.398 . S
C390 H378 0.950 . S
C390 C389 1.398 . S
C390 C391 1.391 . S
C391 H379 0.950 . S
C391 C387 1.393 . S
C391 C390 1.391 . S
H392 C400 0.950 . S
H393 C405 0.950 1_554 S
H394 C402 0.950 . S
H395 C404 0.950 . S
H396 C406 0.950 . S
H397 C408 0.950 . S
H398 C410 0.950 . S
H399 C411 0.950 . S
C400 H392 0.950 . S
C400 C401 1.386 . S
C400 C402 1.391 . S
C401 C400 1.386 . S
C401 C405 1.393 . S
C402 H394 0.950 . S
C402 C400 1.391 . S
C402 C403 1.400 . S
C403 C402 1.400 . S
C403 C404 1.398 . S
C403 C409 1.491 . S
C404 H395 0.950 . S
C404 C403 1.398 . S
C404 C405 1.391 . S
C405 H393 0.950 1_556 S
C405 C401 1.393 . S
C405 C404 1.391 . S
C406 H396 0.950 . S
C406 C407 1.386 . S
C406 C408 1.391 . S
C407 C406 1.386 . S
C407 C411 1.393 . S
C408 H397 0.950 . S
C408 C406 1.391 . S
C408 C409 1.400 . S
C409 C403 1.491 . S
C409 C408 1.400 . S
C409 C410 1.398 . S
C410 H398 0.950 . S
C410 C409 1.398 . S
C410 C411 1.391 . S
C411 H399 0.950 . S
C411 C407 1.393 . S
C411 C410 1.391 . S
H412 C420 0.950 . S
H413 C425 0.950 1_554 S
H414 C422 0.950 . S
H415 C424 0.950 . S
H416 C426 0.950 . S
H417 C428 0.950 . S
H418 C430 0.950 . S
H419 C431 0.950 . S
C420 H412 0.950 . S
C420 C421 1.386 . S
C420 C422 1.391 . S
C421 C420 1.386 . S
C421 C425 1.393 . S
C422 H414 0.950 . S
C422 C420 1.391 . S
C422 C423 1.400 . S
C423 C422 1.400 . S
C423 C424 1.398 . S
C423 C429 1.491 . S
C424 H415 0.950 . S
C424 C423 1.398 . S
C424 C425 1.391 . S
C425 H413 0.950 1_556 S
C425 C421 1.393 . S
C425 C424 1.391 . S
C426 H416 0.950 . S
C426 C427 1.386 . S
C426 C428 1.391 . S
C427 C426 1.386 . S
C427 C431 1.393 . S
C428 H417 0.950 . S
C428 C426 1.391 . S
C428 C429 1.400 . S
C429 C423 1.491 . S
C429 C428 1.400 . S
C429 C430 1.398 . S
C430 H418 0.950 . S
C430 C429 1.398 . S
C430 C431 1.391 . S
C431 H419 0.950 . S
C431 C427 1.393 . S
C431 C430 1.391 . S
H432 C440 0.950 1_545 S
H433 C445 0.950 . S
H434 C442 0.950 . S
H435 C444 0.950 . S
H436 C446 0.950 . S
H437 C448 0.950 . S
H438 C450 0.950 . S
H439 C451 0.950 . S
C440 H432 0.950 1_565 S
C440 C441 1.386 . S
C440 C442 1.391 . S
C441 C440 1.386 . S
C441 C445 1.393 . S
C442 H434 0.950 . S
C442 C440 1.391 . S
C442 C443 1.400 . S
C443 C442 1.400 . S
C443 C444 1.398 . S
C443 C449 1.491 . S
C444 H435 0.950 . S
C444 C443 1.398 . S
C444 C445 1.391 . S
C445 H433 0.950 . S
C445 C441 1.393 . S
C445 C444 1.391 . S
C446 H436 0.950 . S
C446 C447 1.386 . S
C446 C448 1.391 . S
C447 C446 1.386 . S
C447 C451 1.393 . S
C448 H437 0.950 . S
C448 C446 1.391 . S
C448 C449 1.400 . S
C449 C443 1.491 . S
C449 C448 1.400 . S
C449 C450 1.398 . S
C450 H438 0.950 . S
C450 C449 1.398 . S
C450 C451 1.391 . S
C451 H439 0.950 . S
C451 C447 1.393 . S
C451 C450 1.391 . S
H452 C460 0.950 1_655 S
H453 C465 0.950 . S
H454 C462 0.950 . S
H455 C464 0.950 . S
H456 C466 0.950 . S
H457 C468 0.950 . S
H458 C470 0.950 . S
H459 C471 0.950 . S
C460 H452 0.950 1_455 S
C460 C461 1.386 . S
C460 C462 1.391 . S
C461 C460 1.386 . S
C461 C465 1.393 . S
C462 H454 0.950 . S
C462 C460 1.391 . S
C462 C463 1.400 . S
C463 C462 1.400 . S
C463 C464 1.398 . S
C463 C469 1.491 . S
C464 H455 0.950 . S
C464 C463 1.398 . S
C464 C465 1.391 . S
C465 H453 0.950 . S
C465 C461 1.393 . S
C465 C464 1.391 . S
C466 H456 0.950 . S
C466 C467 1.386 . S
C466 C468 1.391 . S
C467 C466 1.386 . S
C467 C471 1.393 . S
C468 H457 0.950 . S
C468 C466 1.391 . S
C468 C469 1.400 . S
C469 C463 1.491 . S
C469 C468 1.400 . S
C469 C470 1.398 . S
C470 H458 0.950 . S
C470 C469 1.398 . S
C470 C471 1.391 . S
C471 H459 0.950 . S
C471 C467 1.393 . S
C471 C470 1.391 . S
H472 C480 0.950 . S
H473 C485 0.950 . S
H474 C482 0.950 . S
H475 C484 0.950 . S
H476 C486 0.950 . S
H477 C488 0.950 . S
H478 C490 0.950 . S
H479 C491 0.950 . S
C480 H472 0.950 . S
C480 C481 1.386 . S
C480 C482 1.391 . S
C481 C480 1.386 . S
C481 C485 1.393 . S
C482 H474 0.950 . S
C482 C480 1.391 . S
C482 C483 1.400 . S
C483 C482 1.400 . S
C483 C484 1.398 . S
C483 C489 1.491 . S
C484 H475 0.950 . S
C484 C483 1.398 . S
C484 C485 1.391 . S
C485 H473 0.950 . S
C485 C481 1.393 . S
C485 C484 1.391 . S
C486 H476 0.950 . S
C486 C487 1.386 . S
C486 C488 1.391 . S
C487 C486 1.386 . S
C487 C491 1.393 . S
C488 H477 0.950 . S
C488 C486 1.391 . S
C488 C489 1.400 . S
C489 C483 1.491 . S
C489 C488 1.400 . S
C489 C490 1.398 . S
C490 H478 0.950 . S
C490 C489 1.398 . S
C490 C491 1.391 . S
C491 H479 0.950 . S
C491 C487 1.393 . S
C491 C490 1.391 . S
H492 C500 0.950 . S
H493 C505 0.950 . S
H494 C502 0.950 . S
H495 C504 0.950 . S
H496 C506 0.950 . S
H497 C508 0.950 . S
H498 C510 0.950 . S
H499 C511 0.950 . S
C500 H492 0.950 . S
C500 C501 1.386 . S
C500 C502 1.391 . S
C501 C500 1.386 . S
C501 C505 1.393 . S
C502 H494 0.950 . S
C502 C500 1.391 . S
C502 C503 1.400 . S
C503 C502 1.400 . S
C503 C504 1.398 . S
C503 C509 1.491 . S
C504 H495 0.950 . S
C504 C503 1.398 . S
C504 C505 1.391 . S
C505 H493 0.950 . S
C505 C501 1.393 . S
C505 C504 1.391 . S
C506 H496 0.950 . S
C506 C507 1.386 . S
C506 C508 1.391 . S
C507 C506 1.386 . S
C507 C511 1.393 . S
C508 H497 0.950 . S
C508 C506 1.391 . S
C508 C509 1.400 . S
C509 C503 1.491 . S
C509 C508 1.400 . S
C509 C510 1.398 . S
C510 H498 0.950 . S
C510 C509 1.398 . S
C510 C511 1.391 . S
C511 H499 0.950 . S
C511 C507 1.393 . S
C511 C510 1.391 . S
H512 C520 0.950 . S
H513 C525 0.950 . S
H514 C522 0.950 1_565 S
H515 C524 0.950 . S
H516 C526 0.950 . S
H517 C528 0.950 . S
H518 C530 0.950 . S
H519 C531 0.950 . S
C520 H512 0.950 . S
C520 C521 1.386 . S
C520 C522 1.391 . S
C521 C520 1.386 . S
C521 C525 1.393 . S
C522 H514 0.950 1_545 S
C522 C520 1.391 . S
C522 C523 1.400 . S
C523 C522 1.400 . S
C523 C524 1.398 . S
C523 C529 1.491 1_545 S
C524 H515 0.950 . S
C524 C523 1.398 . S
C524 C525 1.391 . S
C525 H513 0.950 . S
C525 C521 1.393 . S
C525 C524 1.391 . S
C526 H516 0.950 . S
C526 C527 1.386 . S
C526 C528 1.391 1_565 S
C527 C526 1.386 . S
C527 C531 1.393 . S
C528 H517 0.950 . S
C528 C526 1.391 1_545 S
C528 C529 1.400 1_545 S
C529 C523 1.491 1_565 S
C529 C528 1.400 1_565 S
C529 C530 1.398 . S
C530 H518 0.950 . S
C530 C529 1.398 . S
C530 C531 1.391 . S
C531 H519 0.950 . S
C531 C527 1.393 . S
C531 C530 1.391 . S
H532 C540 0.950 . S
H533 C545 0.950 . S
H534 C542 0.950 . S
H535 C544 0.950 1_655 S
H536 C546 0.950 . S
H537 C548 0.950 . S
H538 C550 0.950 . S
H539 C551 0.950 . S
C540 H532 0.950 . S
C540 C541 1.386 . S
C540 C542 1.391 . S
C541 C540 1.386 . S
C541 C545 1.393 . S
C542 H534 0.950 . S
C542 C540 1.391 . S
C542 C543 1.400 . S
C543 C542 1.400 . S
C543 C544 1.398 . S
C543 C549 1.491 1_455 S
C544 H535 0.950 1_455 S
C544 C543 1.398 . S
C544 C545 1.391 . S
C545 H533 0.950 . S
C545 C541 1.393 . S
C545 C544 1.391 . S
C546 H536 0.950 . S
C546 C547 1.386 . S
C546 C548 1.391 . S
C547 C546 1.386 . S
C547 C551 1.393 . S
C548 H537 0.950 . S
C548 C546 1.391 . S
C548 C549 1.400 . S
C549 C543 1.491 1_655 S
C549 C548 1.400 . S
C549 C550 1.398 1_655 S
C550 H538 0.950 . S
C550 C549 1.398 1_455 S
C550 C551 1.391 1_455 S
C551 H539 0.950 . S
C551 C547 1.393 . S
C551 C550 1.391 1_655 S
H552 C560 0.950 . S
H553 C565 0.950 . S
H554 C562 0.950 . S
H555 C564 0.950 . S
H556 C566 0.950 . S
H557 C568 0.950 . S
H558 C570 0.950 . S
H559 C571 0.950 . S
C560 H552 0.950 . S
C560 C561 1.386 . S
C560 C562 1.391 . S
C561 C560 1.386 . S
C561 C565 1.393 . S
C562 H554 0.950 . S
C562 C560 1.391 . S
C562 C563 1.400 . S
C563 C562 1.400 . S
C563 C564 1.398 . S
C563 C569 1.491 . S
C564 H555 0.950 . S
C564 C563 1.398 . S
C564 C565 1.391 . S
C565 H553 0.950 . S
C565 C561 1.393 . S
C565 C564 1.391 . S
C566 H556 0.950 . S
C566 C567 1.386 . S
C566 C568 1.391 . S
C567 C566 1.386 . S
C567 C571 1.393 . S
C568 H557 0.950 . S
C568 C566 1.391 . S
C568 C569 1.400 . S
C569 C563 1.491 . S
C569 C568 1.400 . S
C569 C570 1.398 . S
C570 H558 0.950 . S
C570 C569 1.398 . S
C570 C571 1.391 . S
C571 H559 0.950 . S
C571 C567 1.393 . S
C571 C570 1.391 . S
H572 C580 0.950 . S
H573 C585 0.950 . S
H574 C582 0.950 . S
H575 C584 0.950 . S
H576 C586 0.950 . S
H577 C588 0.950 . S
H578 C590 0.950 1_545 S
H579 C591 0.950 . S
C580 H572 0.950 . S
C580 C581 1.386 . S
C580 C582 1.391 . S
C581 C580 1.386 . S
C581 C585 1.393 . S
C582 H574 0.950 . S
C582 C580 1.391 . S
C582 C583 1.400 . S
C583 C582 1.400 . S
C583 C584 1.398 . S
C583 C589 1.491 1_545 S
C584 H575 0.950 . S
C584 C583 1.398 . S
C584 C585 1.391 . S
C585 H573 0.950 . S
C585 C581 1.393 . S
C585 C584 1.391 . S
C586 H576 0.950 . S
C586 C587 1.386 . S
C586 C588 1.391 . S
C587 C586 1.386 . S
C587 C591 1.393 . S
C588 H577 0.950 . S
C588 C586 1.391 . S
C588 C589 1.400 . S
C589 C583 1.491 1_565 S
C589 C588 1.400 . S
C589 C590 1.398 . S
C590 H578 0.950 1_565 S
C590 C589 1.398 . S
C590 C591 1.391 . S
C591 H579 0.950 . S
C591 C587 1.393 . S
C591 C590 1.391 . S
H592 C600 0.950 . S
H593 C605 0.950 . S
H594 C602 0.950 1_655 S
H595 C604 0.950 . S
H596 C606 0.950 . S
H597 C608 0.950 . S
H598 C610 0.950 . S
H599 C611 0.950 . S
C600 H592 0.950 . S
C600 C601 1.386 . S
C600 C602 1.391 . S
C601 C600 1.386 . S
C601 C605 1.393 . S
C602 H594 0.950 1_455 S
C602 C600 1.391 . S
C602 C603 1.400 . S
C603 C602 1.400 . S
C603 C604 1.398 . S
C603 C609 1.491 1_455 S
C604 H595 0.950 . S
C604 C603 1.398 . S
C604 C605 1.391 . S
C605 H593 0.950 . S
C605 C601 1.393 . S
C605 C604 1.391 . S
C606 H596 0.950 . S
C606 C607 1.386 . S
C606 C608 1.391 1_655 S
C607 C606 1.386 . S
C607 C611 1.393 . S
C608 H597 0.950 . S
C608 C606 1.391 1_455 S
C608 C609 1.400 1_455 S
C609 C603 1.491 1_655 S
C609 C608 1.400 1_655 S
C609 C610 1.398 . S
C610 H598 0.950 . S
C610 C609 1.398 . S
C610 C611 1.391 . S
C611 H599 0.950 . S
C611 C607 1.393 . S
C611 C610 1.391 . S
H612 C620 0.950 . S
H613 C625 0.950 . S
H614 C622 0.950 . S
H615 C624 0.950 . S
H616 C626 0.950 . S
H617 C628 0.950 . S
H618 C630 0.950 . S
H619 C631 0.950 . S
C620 H612 0.950 . S
C620 C621 1.386 . S
C620 C622 1.391 . S
C621 C620 1.386 . S
C621 C625 1.393 . S
C622 H614 0.950 . S
C622 C620 1.391 . S
C622 C623 1.400 . S
C623 C622 1.400 . S
C623 C624 1.398 . S
C623 C629 1.491 . S
C624 H615 0.950 . S
C624 C623 1.398 . S
C624 C625 1.391 . S
C625 H613 0.950 . S
C625 C621 1.393 . S
C625 C624 1.391 . S
C626 H616 0.950 . S
C626 C627 1.386 . S
C626 C628 1.391 . S
C627 C626 1.386 . S
C627 C631 1.393 . S
C628 H617 0.950 . S
C628 C626 1.391 . S
C628 C629 1.400 . S
C629 C623 1.491 . S
C629 C628 1.400 . S
C629 C630 1.398 . S
C630 H618 0.950 . S
C630 C629 1.398 . S
C630 C631 1.391 . S
C631 H619 0.950 . S
C631 C627 1.393 . S
C631 C630 1.391 . S
H632 C640 0.950 . S
H633 C645 0.950 . S
H634 C642 0.950 . S
H635 C644 0.950 . S
H636 C646 0.950 . S
H637 C648 0.950 . S
H638 C650 0.950 . S
H639 C651 0.950 . S
C640 H632 0.950 . S
C640 C641 1.386 . S
C640 C642 1.391 . S
C641 C640 1.386 . S
C641 C645 1.393 . S
C642 H634 0.950 . S
C642 C640 1.391 . S
C642 C643 1.400 . S
C643 C642 1.400 . S
C643 C644 1.398 . S
C643 C649 1.491 . S
C644 H635 0.950 . S
C644 C643 1.398 . S
C644 C645 1.391 . S
C645 H633 0.950 . S
C645 C641 1.393 . S
C645 C644 1.391 . S
C646 H636 0.950 . S
C646 C647 1.386 . S
C646 C648 1.391 . S
C647 C646 1.386 . S
C647 C651 1.393 . S
C648 H637 0.950 . S
C648 C646 1.391 . S
C648 C649 1.400 . S
C649 C643 1.491 . S
C649 C648 1.400 . S
C649 C650 1.398 . S
C650 H638 0.950 . S
C650 C649 1.398 . S
C650 C651 1.391 . S
C651 H639 0.950 . S
C651 C647 1.393 . S
C651 C650 1.391 . S
H652 C660 0.950 . S
H653 C665 0.950 . S
H654 C662 0.950 . S
H655 C664 0.950 . S
H656 C666 0.950 . S
H657 C668 0.950 . S
H658 C670 0.950 . S
H659 C671 0.950 . S
C660 H652 0.950 . S
C660 C661 1.386 . S
C660 C662 1.391 . S
C661 C660 1.386 . S
C661 C665 1.393 . S
C662 H654 0.950 . S
C662 C660 1.391 . S
C662 C663 1.400 . S
C663 C662 1.400 . S
C663 C664 1.398 . S
C663 C669 1.491 . S
C664 H655 0.950 . S
C664 C663 1.398 . S
C664 C665 1.391 . S
C665 H653 0.950 . S
C665 C661 1.393 . S
C665 C664 1.391 . S
C666 H656 0.950 . S
C666 C667 1.386 . S
C666 C668 1.391 . S
C667 C666 1.386 . S
C667 C671 1.393 . S
C668 H657 0.950 . S
C668 C666 1.391 . S
C668 C669 1.400 . S
C669 C663 1.491 . S
C669 C668 1.400 . S
C669 C670 1.398 . S
C670 H658 0.950 . S
C670 C669 1.398 . S
C670 C671 1.391 . S
C671 H659 0.950 . S
C671 C667 1.393 . S
C671 C670 1.391 . S
H672 C680 0.950 . S
H673 C685 0.950 . S
H674 C682 0.950 . S
H675 C684 0.950 . S
H676 C686 0.950 . S
H677 C688 0.950 . S
H678 C690 0.950 . S
H679 C691 0.950 . S
C680 H672 0.950 . S
C680 C681 1.386 . S
C680 C682 1.391 . S
C681 C680 1.386 . S
C681 C685 1.393 . S
C682 H674 0.950 . S
C682 C680 1.391 . S
C682 C683 1.400 . S
C683 C682 1.400 . S
C683 C684 1.398 . S
C683 C689 1.491 . S
C684 H675 0.950 . S
C684 C683 1.398 . S
C684 C685 1.391 . S
C685 H673 0.950 . S
C685 C681 1.393 . S
C685 C684 1.391 . S
C686 H676 0.950 . S
C686 C687 1.386 . S
C686 C688 1.391 . S
C687 C686 1.386 . S
C687 C691 1.393 . S
C688 H677 0.950 . S
C688 C686 1.391 . S
C688 C689 1.400 . S
C689 C683 1.491 . S
C689 C688 1.400 . S
C689 C690 1.398 . S
C690 H678 0.950 . S
C690 C689 1.398 . S
C690 C691 1.391 . S
C691 H679 0.950 . S
C691 C687 1.393 . S
C691 C690 1.391 . S
H692 C700 0.950 . S
H693 C705 0.950 . S
H694 C702 0.950 . S
H695 C704 0.950 . S
H696 C706 0.950 . S
H697 C708 0.950 . S
H698 C710 0.950 . S
H699 C711 0.950 . S
C700 H692 0.950 . S
C700 C701 1.386 . S
C700 C702 1.391 . S
C701 C700 1.386 . S
C701 C705 1.393 . S
C702 H694 0.950 . S
C702 C700 1.391 . S
C702 C703 1.400 . S
C703 C702 1.400 . S
C703 C704 1.398 . S
C703 C709 1.491 . S
C704 H695 0.950 . S
C704 C703 1.398 . S
C704 C705 1.391 . S
C705 H693 0.950 . S
C705 C701 1.393 . S
C705 C704 1.391 . S
C706 H696 0.950 . S
C706 C707 1.386 . S
C706 C708 1.391 . S
C707 C706 1.386 . S
C707 C711 1.393 . S
C708 H697 0.950 . S
C708 C706 1.391 . S
C708 C709 1.400 . S
C709 C703 1.491 . S
C709 C708 1.400 . S
C709 C710 1.398 . S
C710 H698 0.950 . S
C710 C709 1.398 . S
C710 C711 1.391 . S
C711 H699 0.950 . S
C711 C707 1.393 . S
C711 C710 1.391 . S
H712 C720 0.950 . S
H713 C725 0.950 . S
H714 C722 0.950 . S
H715 C724 0.950 . S
H716 C726 0.950 . S
H717 C728 0.950 . S
H718 C730 0.950 . S
H719 C731 0.950 . S
C720 H712 0.950 . S
C720 C721 1.386 . S
C720 C722 1.391 . S
C721 C720 1.386 . S
C721 C725 1.393 . S
C722 H714 0.950 . S
C722 C720 1.391 . S
C722 C723 1.400 . S
C723 C722 1.400 . S
C723 C724 1.398 . S
C723 C729 1.491 . S
C724 H715 0.950 . S
C724 C723 1.398 . S
C724 C725 1.391 . S
C725 H713 0.950 . S
C725 C721 1.393 . S
C725 C724 1.391 . S
C726 H716 0.950 . S
C726 C727 1.386 . S
C726 C728 1.391 . S
C727 C726 1.386 . S
C727 C731 1.393 . S
C728 H717 0.950 . S
C728 C726 1.391 . S
C728 C729 1.400 . S
C729 C723 1.491 . S
C729 C728 1.400 . S
C729 C730 1.398 . S
C730 H718 0.950 . S
C730 C729 1.398 . S
C730 C731 1.391 . S
C731 H719 0.950 . S
C731 C727 1.393 . S
C731 C730 1.391 . S
H732 C740 0.950 . S
H733 C745 0.950 . S
H734 C742 0.950 . S
H735 C744 0.950 . S
H736 C746 0.950 . S
H737 C748 0.950 . S
H738 C750 0.950 . S
H739 C751 0.950 . S
C740 H732 0.950 . S
C740 C741 1.386 . S
C740 C742 1.391 . S
C741 C740 1.386 . S
C741 C745 1.393 . S
C742 H734 0.950 . S
C742 C740 1.391 . S
C742 C743 1.400 . S
C743 C742 1.400 . S
C743 C744 1.398 . S
C743 C749 1.491 . S
C744 H735 0.950 . S
C744 C743 1.398 . S
C744 C745 1.391 . S
C745 H733 0.950 . S
C745 C741 1.393 . S
C745 C744 1.391 . S
C746 H736 0.950 . S
C746 C747 1.386 . S
C746 C748 1.391 . S
C747 C746 1.386 . S
C747 C751 1.393 . S
C748 H737 0.950 . S
C748 C746 1.391 . S
C748 C749 1.400 . S
C749 C743 1.491 . S
C749 C748 1.400 . S
C749 C750 1.398 . S
C750 H738 0.950 . S
C750 C749 1.398 . S
C750 C751 1.391 . S
C751 H739 0.950 . S
C751 C747 1.393 . S
C751 C750 1.391 . S
H752 C760 0.950 . S
H753 C765 0.950 . S
H754 C762 0.950 . S
H755 C764 0.950 . S
H756 C766 0.950 . S
H757 C768 0.950 . S
H758 C770 0.950 . S
H759 C771 0.950 . S
C760 H752 0.950 . S
C760 C761 1.386 . S
C760 C762 1.391 . S
C761 C760 1.386 . S
C761 C765 1.393 . S
C762 H754 0.950 . S
C762 C760 1.391 . S
C762 C763 1.400 . S
C763 C762 1.400 . S
C763 C764 1.398 . S
C763 C769 1.491 . S
C764 H755 0.950 . S
C764 C763 1.398 . S
C764 C765 1.391 . S
C765 H753 0.950 . S
C765 C761 1.393 . S
C765 C764 1.391 . S
C766 H756 0.950 . S
C766 C767 1.386 . S
C766 C768 1.391 . S
C767 C766 1.386 . S
C767 C771 1.393 . S
C768 H757 0.950 . S
C768 C766 1.391 . S
C768 C769 1.400 . S
C769 C763 1.491 . S
C769 C768 1.400 . S
C769 C770 1.398 . S
C770 H758 0.950 . S
C770 C769 1.398 . S
C770 C771 1.391 . S
C771 H759 0.950 . S
C771 C767 1.393 . S
C771 C770 1.391 . S
H772 C780 0.950 . S
H773 C785 0.950 . S
H774 C782 0.950 . S
H775 C784 0.950 . S
H776 C786 0.950 . S
H777 C788 0.950 . S
H778 C790 0.950 . S
H779 C791 0.950 . S
C780 H772 0.950 . S
C780 C781 1.386 . S
C780 C782 1.391 . S
C781 C780 1.386 . S
C781 C785 1.393 . S
C782 H774 0.950 . S
C782 C780 1.391 . S
C782 C783 1.400 . S
C783 C782 1.400 . S
C783 C784 1.398 . S
C783 C789 1.491 . S
C784 H775 0.950 . S
C784 C783 1.398 . S
C784 C785 1.391 . S
C785 H773 0.950 . S
C785 C781 1.393 . S
C785 C784 1.391 . S
C786 H776 0.950 . S
C786 C787 1.386 . S
C786 C788 1.391 . S
C787 C786 1.386 . S
C787 C791 1.393 . S
C788 H777 0.950 . S
C788 C786 1.391 . S
C788 C789 1.400 . S
C789 C783 1.491 . S
C789 C788 1.400 . S
C789 C790 1.398 . S
C790 H778 0.950 . S
C790 C789 1.398 . S
C790 C791 1.391 . S
C791 H779 0.950 . S
C791 C787 1.393 . S
C791 C790 1.391 . S
H792 C800 0.950 . S
H793 C805 0.950 . S
H794 C802 0.950 . S
H795 C804 0.950 . S
H796 C806 0.950 . S
H797 C808 0.950 . S
H798 C810 0.950 . S
H799 C811 0.950 . S
C800 H792 0.950 . S
C800 C801 1.386 . S
C800 C802 1.391 . S
C801 C800 1.386 . S
C801 C805 1.393 . S
C802 H794 0.950 . S
C802 C800 1.391 . S
C802 C803 1.400 . S
C803 C802 1.400 . S
C803 C804 1.398 . S
C803 C809 1.491 . S
C804 H795 0.950 . S
C804 C803 1.398 . S
C804 C805 1.391 . S
C805 H793 0.950 . S
C805 C801 1.393 . S
C805 C804 1.391 . S
C806 H796 0.950 . S
C806 C807 1.386 . S
C806 C808 1.391 . S
C807 C806 1.386 . S
C807 C811 1.393 . S
C808 H797 0.950 . S
C808 C806 1.391 . S
C808 C809 1.400 . S
C809 C803 1.491 . S
C809 C808 1.400 . S
C809 C810 1.398 . S
C810 H798 0.950 . S
C810 C809 1.398 . S
C810 C811 1.391 . S
C811 H799 0.950 . S
C811 C807 1.393 . S
C811 C810 1.391 . S
H812 C820 0.950 . S
H813 C825 0.950 . S
H814 C822 0.950 . S
H815 C824 0.950 . S
H816 C826 0.950 . S
H817 C828 0.950 . S
H818 C830 0.950 . S
H819 C831 0.950 . S
C820 H812 0.950 . S
C820 C821 1.386 . S
C820 C822 1.391 . S
C821 C820 1.386 . S
C821 C825 1.393 . S
C822 H814 0.950 . S
C822 C820 1.391 . S
C822 C823 1.400 . S
C823 C822 1.400 . S
C823 C824 1.398 . S
C823 C829 1.491 . S
C824 H815 0.950 . S
C824 C823 1.398 . S
C824 C825 1.391 . S
C825 H813 0.950 . S
C825 C821 1.393 . S
C825 C824 1.391 . S
C826 H816 0.950 . S
C826 C827 1.386 . S
C826 C828 1.391 . S
C827 C826 1.386 . S
C827 C831 1.393 . S
C828 H817 0.950 . S
C828 C826 1.391 . S
C828 C829 1.400 . S
C829 C823 1.491 . S
C829 C828 1.400 . S
C829 C830 1.398 . S
C830 H818 0.950 . S
C830 C829 1.398 . S
C830 C831 1.391 . S
C831 H819 0.950 . S
C831 C827 1.393 . S
C831 C830 1.391 . S
H832 C840 0.950 . S
H833 C845 0.950 . S
H834 C842 0.950 . S
H835 C844 0.950 . S
H836 C846 0.950 . S
H837 C848 0.950 . S
H838 C850 0.950 . S
H839 C851 0.950 . S
C840 H832 0.950 . S
C840 C841 1.386 . S
C840 C842 1.391 . S
C841 C840 1.386 . S
C841 C845 1.393 . S
C842 H834 0.950 . S
C842 C840 1.391 . S
C842 C843 1.400 . S
C843 C842 1.400 . S
C843 C844 1.398 . S
C843 C849 1.491 . S
C844 H835 0.950 . S
C844 C843 1.398 . S
C844 C845 1.391 . S
C845 H833 0.950 . S
C845 C841 1.393 . S
C845 C844 1.391 . S
C846 H836 0.950 . S
C846 C847 1.386 . S
C846 C848 1.391 . S
C847 C846 1.386 . S
C847 C851 1.393 . S
C848 H837 0.950 . S
C848 C846 1.391 . S
C848 C849 1.400 . S
C849 C843 1.491 . S
C849 C848 1.400 . S
C849 C850 1.398 . S
C850 H838 0.950 . S
C850 C849 1.398 . S
C850 C851 1.391 . S
C851 H839 0.950 . S
C851 C847 1.393 . S
C851 C850 1.391 . S
H852 C860 0.950 . S
H853 C865 0.950 . S
H854 C862 0.950 . S
H855 C864 0.950 . S
H856 C866 0.950 . S
H857 C868 0.950 . S
H858 C870 0.950 . S
H859 C871 0.950 . S
C860 H852 0.950 . S
C860 C861 1.386 . S
C860 C862 1.391 . S
C861 C860 1.386 . S
C861 C865 1.393 . S
C862 H854 0.950 . S
C862 C860 1.391 . S
C862 C863 1.400 . S
C863 C862 1.400 . S
C863 C864 1.398 . S
C863 C869 1.491 . S
C864 H855 0.950 . S
C864 C863 1.398 . S
C864 C865 1.391 . S
C865 H853 0.950 . S
C865 C861 1.393 . S
C865 C864 1.391 . S
C866 H856 0.950 . S
C866 C867 1.386 . S
C866 C868 1.391 . S
C867 C866 1.386 . S
C867 C871 1.393 . S
C868 H857 0.950 . S
C868 C866 1.391 . S
C868 C869 1.400 . S
C869 C863 1.491 . S
C869 C868 1.400 . S
C869 C870 1.398 . S
C870 H858 0.950 . S
C870 C869 1.398 . S
C870 C871 1.391 . S
C871 H859 0.950 . S
C871 C867 1.393 . S
C871 C870 1.391 . S
H872 C880 0.950 1_565 S
H873 C885 0.950 . S
H874 C882 0.950 . S
H875 C884 0.950 . S
H876 C886 0.950 . S
H877 C888 0.950 . S
H878 C890 0.950 . S
H879 C891 0.950 . S
C880 H872 0.950 1_545 S
C880 C881 1.386 . S
C880 C882 1.391 1_545 S
C881 C880 1.386 . S
C881 C885 1.393 . S
C882 H874 0.950 . S
C882 C880 1.391 1_565 S
C882 C883 1.400 1_565 S
C883 C882 1.400 1_545 S
C883 C884 1.398 . S
C883 C889 1.491 1_545 S
C884 H875 0.950 . S
C884 C883 1.398 . S
C884 C885 1.391 . S
C885 H873 0.950 . S
C885 C881 1.393 . S
C885 C884 1.391 . S
C886 H876 0.950 . S
C886 C887 1.386 1_545 S
C886 C888 1.391 . S
C887 C886 1.386 1_565 S
C887 C891 1.393 . S
C888 H877 0.950 . S
C888 C886 1.391 . S
C888 C889 1.372 1_545 S
C889 C883 1.491 1_565 S
C889 C888 1.372 1_565 S
C889 C890 1.426 . S
C890 H878 0.950 . S
C890 C889 1.426 . S
C890 C891 1.391 . S
C891 H879 0.950 . S
C891 C887 1.393 . S
C891 C890 1.391 . S
H892 C900 0.950 . S
H893 C905 0.950 . S
H894 C902 0.950 . S
H895 C904 0.950 . S
H896 C906 0.950 . S
H897 C908 0.950 1_455 S
H898 C910 0.950 . S
H899 C911 0.950 . S
C900 H892 0.950 . S
C900 C901 1.386 . S
C900 C902 1.391 . S
C901 C900 1.386 . S
C901 C905 1.393 . S
C902 H894 0.950 . S
C902 C900 1.391 . S
C902 C903 1.400 . S
C903 C902 1.400 . S
C903 C904 1.398 . S
C903 C909 1.485 1_455 S
C904 H895 0.950 . S
C904 C903 1.398 . S
C904 C905 1.391 . S
C905 H893 0.950 . S
C905 C901 1.393 . S
C905 C904 1.391 . S
C906 H896 0.950 . S
C906 C907 1.386 . S
C906 C908 1.391 . S
C907 C906 1.386 . S
C907 C911 1.393 . S
C908 H897 0.950 1_655 S
C908 C906 1.391 . S
C908 C909 1.401 . S
C909 C903 1.485 1_655 S
C909 C908 1.401 . S
C909 C910 1.404 . S
C910 H898 0.950 . S
C910 C909 1.404 . S
C910 C911 1.391 . S
C911 H899 0.950 . S
C911 C907 1.393 . S
C911 C910 1.391 . S
H912 C920 0.950 . S
H913 C925 0.950 1_554 S
H914 C922 0.950 . S
H915 C924 0.950 . S
H916 C926 0.950 . S
H917 C928 0.950 . S
H918 C930 0.950 . S
H919 C931 0.950 1_556 S
C920 H912 0.950 . S
C920 C921 1.386 . S
C920 C922 1.391 . S
C921 C920 1.386 . S
C921 C925 1.393 . S
C922 H914 0.950 . S
C922 C920 1.391 . S
C922 C923 1.400 . S
C923 C922 1.400 . S
C923 C924 1.398 1_556 S
C923 C929 1.491 1_556 S
C924 H915 0.950 . S
C924 C923 1.398 1_554 S
C924 C925 1.391 1_554 S
C925 H913 0.950 1_556 S
C925 C921 1.393 . S
C925 C924 1.391 1_556 S
C926 H916 0.950 . S
C926 C927 1.386 . S
C926 C928 1.391 . S
C927 C926 1.386 . S
C927 C931 1.393 . S
C928 H917 0.950 . S
C928 C926 1.391 . S
C928 C929 1.400 . S
C929 C923 1.491 1_554 S
C929 C928 1.400 . S
C929 C930 1.398 1_554 S
C930 H918 0.950 . S
C930 C929 1.398 1_556 S
C930 C931 1.391 1_556 S
C931 H919 0.950 1_554 S
C931 C927 1.393 . S
C931 C930 1.391 1_554 S
H932 C940 0.950 . S
H933 C945 0.950 . S
H934 C942 0.950 . S
H935 C944 0.950 . S
H936 C946 0.950 . S
H937 C948 0.950 . S
H938 C950 0.950 1_565 S
H939 C951 0.950 . S
C940 H932 0.950 . S
C940 C941 1.386 . S
C940 C942 1.391 . S
C941 C940 1.386 . S
C941 C945 1.393 . S
C942 H934 0.950 . S
C942 C940 1.391 . S
C942 C943 1.400 . S
C943 C942 1.400 . S
C943 C944 1.398 1_566 S
C943 C949 1.491 1_566 S
C944 H935 0.950 . S
C944 C943 1.398 1_544 S
C944 C945 1.391 1_544 S
C945 H933 0.950 . S
C945 C941 1.393 . S
C945 C944 1.391 1_566 S
C946 H936 0.950 . S
C946 C947 1.386 . S
C946 C948 1.391 . S
C947 C946 1.386 . S
C947 C951 1.393 . S
C948 H937 0.950 . S
C948 C946 1.391 . S
C948 C949 1.400 . S
C949 C943 1.491 1_544 S
C949 C948 1.400 . S
C949 C950 1.398 1_554 S
C950 H938 0.950 1_545 S
C950 C949 1.398 1_556 S
C950 C951 1.391 1_556 S
C951 H939 0.950 . S
C951 C947 1.393 . S
C951 C950 1.391 1_554 S
H952 C960 0.950 1_554 S
H953 C965 0.950 . S
H954 C962 0.950 . S
H955 C964 0.950 . S
H956 C966 0.950 1_556 S
H957 C968 0.950 . S
H958 C970 0.950 1_455 S
H959 C971 0.950 . S
C960 H952 0.950 1_556 S
C960 C961 1.386 . S
C960 C962 1.391 1_556 S
C961 C960 1.386 . S
C961 C965 1.393 . S
C962 H954 0.950 . S
C962 C960 1.391 1_554 S
C962 C963 1.400 1_554 S
C963 C962 1.400 1_556 S
C963 C964 1.398 . S
C963 C969 1.491 1_456 S
C964 H955 0.950 . S
C964 C963 1.398 . S
C964 C965 1.391 . S
C965 H953 0.950 . S
C965 C961 1.393 . S
C965 C964 1.391 . S
C966 H956 0.950 1_554 S
C966 C967 1.386 . S
C966 C968 1.391 1_554 S
C967 C966 1.386 . S
C967 C971 1.393 . S
C968 H957 0.950 . S
C968 C966 1.391 1_556 S
C968 C969 1.400 1_556 S
C969 C963 1.491 1_654 S
C969 C968 1.400 1_554 S
C969 C970 1.398 . S
C970 H958 0.950 1_655 S
C970 C969 1.398 . S
C970 C971 1.391 . S
C971 H959 0.950 . S
C971 C967 1.393 . S
C971 C970 1.391 . S
C261 C13 1.894 . S
C267 C208 1.895 1_554 S
C281 C180 1.875 1_554 S
C287 C27 1.883 . S
C301 C40 1.892 . S
C307 C183 1.899 1_554 S
C321 C97 1.898 . S
C327 C41 1.899 . S
C341 C99 1.896 . S
C347 C12 1.896 . S
C361 C125 1.882 . S
C367 C26 1.875 . S
C381 C42 1.899 . S
C387 C167 1.894 1_556 S
C401 C127 1.881 1_556 S
C407 C56 1.891 . S
C421 C141 1.876 1_556 S
C427 C82 1.885 . S
C441 C83 1.878 . S
C447 C210 1.887 . S
C461 C43 1.875 . S
C467 C237 1.875 . S
C481 C250 1.888 . S
C487 C57 1.879 . S
C501 C181 1.897 . S
C507 C124 1.889 . S
C521 C96 1.878 . S
C527 C182 1.884 . S
C541 C209 1.884 . S
C547 C98 1.876 . S
C561 C251 1.886 . S
C567 C126 1.883 . S
C581 C140 1.878 . S
C587 C211 1.877 . S
C601 C236 1.896 . S
C607 C166 1.890 . S
C621 C222 1.561 . S
C627 C1 1.561 . S
C641 C15 1.561 . S
C647 C225 1.561 . S
C661 C28 1.561 . S
C667 C238 1.561 . S
C681 C29 1.561 . S
C687 C155 1.561 . S
C701 C139 1.561 . S
C707 C0 1.561 . S
C721 C14 1.561 . S
C727 C153 1.561 . S
C741 C85 1.561 . S
C747 C54 1.561 . S
C761 C111 1.561 . S
C767 C68 1.561 . S
C781 C70 1.561 . S
C787 C113 1.561 . S
C801 C71 1.560 . S
C807 C196 1.560 . S
C821 C55 1.560 . S
C827 C168 1.560 . S
C841 C69 1.560 . S
C847 C195 1.560 . S
C861 C112 1.561 . S
C867 C239 1.561 . S
C881 C84 1.560 . S
C887 C223 1.560 . S
C901 C224 1.561 . S
C907 C110 1.561 . S
C921 C169 1.560 . S
C927 C138 1.560 . S
C941 C194 1.560 . S
C947 C152 1.561 . S
C961 C197 1.561 . S
C967 C154 1.561 . S
