# Generated by pormake.
# Topology som, (6)-cn, num edge types: 1
# Building blocks:
#     Node 0, Type 0, BuildingBlock: CIFDUS_clean_sbu_1, # of connection points: 6
#     Node 1, Type 0, BuildingBlock: CIFDUS_clean_sbu_1, # of connection points: 6
#     Node 2, Type 0, BuildingBlock: CIFDUS_clean_sbu_1, # of connection points: 6
#     Node 3, Type 0, BuildingBlock: CIFDUS_clean_sbu_1, # of connection points: 6
#     Node 4, Type 0, BuildingBlock: CIFDUS_clean_sbu_1, # of connection points: 6
#     Node 5, Type 0, BuildingBlock: CIFDUS_clean_sbu_1, # of connection points: 6
#     Node 6, Type 0, BuildingBlock: CIFDUS_clean_sbu_1, # of connection points: 6
#     Node 7, Type 0, BuildingBlock: CIFDUS_clean_sbu_1, # of connection points: 6
#     Node 8, Type 0, BuildingBlock: CIFDUS_clean_sbu_1, # of connection points: 6
#     Node 9, Type 0, BuildingBlock: CIFDUS_clean_sbu_1, # of connection points: 6
#     Node 10, Type 0, BuildingBlock: CIFDUS_clean_sbu_1, # of connection points: 6
#     Node 11, Type 0, BuildingBlock: CIFDUS_clean_sbu_1, # of connection points: 6
#     Node 12, Type 0, BuildingBlock: CIFDUS_clean_sbu_1, # of connection points: 6
#     Node 13, Type 0, BuildingBlock: CIFDUS_clean_sbu_1, # of connection points: 6
#     Node 14, Type 0, BuildingBlock: CIFDUS_clean_sbu_1, # of connection points: 6
#     Node 15, Type 0, BuildingBlock: CIFDUS_clean_sbu_1, # of connection points: 6
#     Node 16, Type 0, BuildingBlock: CIFDUS_clean_sbu_1, # of connection points: 6
#     Node 17, Type 0, BuildingBlock: CIFDUS_clean_sbu_1, # of connection points: 6
#     Node 18, Type 0, BuildingBlock: CIFDUS_clean_sbu_1, # of connection points: 6
#     Node 19, Type 0, BuildingBlock: CIFDUS_clean_sbu_1, # of connection points: 6
#     Node 20, Type 0, BuildingBlock: CIFDUS_clean_sbu_1, # of connection points: 6
#     Node 21, Type 0, BuildingBlock: CIFDUS_clean_sbu_1, # of connection points: 6
#     Node 22, Type 0, BuildingBlock: CIFDUS_clean_sbu_1, # of connection points: 6
#     Node 23, Type 0, BuildingBlock: CIFDUS_clean_sbu_1, # of connection points: 6
#     Node 24, Type 0, BuildingBlock: CIFDUS_clean_sbu_1, # of connection points: 6
#     Node 25, Type 0, BuildingBlock: CIFDUS_clean_sbu_1, # of connection points: 6
#     Node 26, Type 0, BuildingBlock: CIFDUS_clean_sbu_1, # of connection points: 6
#     Node 27, Type 0, BuildingBlock: CIFDUS_clean_sbu_1, # of connection points: 6
#     Node 28, Type 0, BuildingBlock: CIFDUS_clean_sbu_1, # of connection points: 6
#     Node 29, Type 0, BuildingBlock: CIFDUS_clean_sbu_1, # of connection points: 6
#     Node 30, Type 0, BuildingBlock: CIFDUS_clean_sbu_1, # of connection points: 6
#     Node 31, Type 0, BuildingBlock: CIFDUS_clean_sbu_1, # of connection points: 6
#     Edge 32, Type (0, 0), None
#     Edge 33, Type (0, 0), None
#     Edge 34, Type (0, 0), None
#     Edge 35, Type (0, 0), None
#     Edge 36, Type (0, 0), None
#     Edge 37, Type (0, 0), None
#     Edge 38, Type (0, 0), None
#     Edge 39, Type (0, 0), None
#     Edge 40, Type (0, 0), None
#     Edge 41, Type (0, 0), None
#     Edge 42, Type (0, 0), None
#     Edge 43, Type (0, 0), None
#     Edge 44, Type (0, 0), None
#     Edge 45, Type (0, 0), None
#     Edge 46, Type (0, 0), None
#     Edge 47, Type (0, 0), None
#     Edge 48, Type (0, 0), None
#     Edge 49, Type (0, 0), None
#     Edge 50, Type (0, 0), None
#     Edge 51, Type (0, 0), None
#     Edge 52, Type (0, 0), None
#     Edge 53, Type (0, 0), None
#     Edge 54, Type (0, 0), None
#     Edge 55, Type (0, 0), None
#     Edge 56, Type (0, 0), None
#     Edge 57, Type (0, 0), None
#     Edge 58, Type (0, 0), None
#     Edge 59, Type (0, 0), None
#     Edge 60, Type (0, 0), None
#     Edge 61, Type (0, 0), None
#     Edge 62, Type (0, 0), None
#     Edge 63, Type (0, 0), None
#     Edge 64, Type (0, 0), None
#     Edge 65, Type (0, 0), None
#     Edge 66, Type (0, 0), None
#     Edge 67, Type (0, 0), None
#     Edge 68, Type (0, 0), None
#     Edge 69, Type (0, 0), None
#     Edge 70, Type (0, 0), None
#     Edge 71, Type (0, 0), None
#     Edge 72, Type (0, 0), None
#     Edge 73, Type (0, 0), None
#     Edge 74, Type (0, 0), None
#     Edge 75, Type (0, 0), None
#     Edge 76, Type (0, 0), None
#     Edge 77, Type (0, 0), None
#     Edge 78, Type (0, 0), None
#     Edge 79, Type (0, 0), None
#     Edge 80, Type (0, 0), None
#     Edge 81, Type (0, 0), None
#     Edge 82, Type (0, 0), None
#     Edge 83, Type (0, 0), None
#     Edge 84, Type (0, 0), None
#     Edge 85, Type (0, 0), None
#     Edge 86, Type (0, 0), None
#     Edge 87, Type (0, 0), None
#     Edge 88, Type (0, 0), None
#     Edge 89, Type (0, 0), None
#     Edge 90, Type (0, 0), None
#     Edge 91, Type (0, 0), None
#     Edge 92, Type (0, 0), None
#     Edge 93, Type (0, 0), None
#     Edge 94, Type (0, 0), None
#     Edge 95, Type (0, 0), None
#     Edge 96, Type (0, 0), None
#     Edge 97, Type (0, 0), None
#     Edge 98, Type (0, 0), None
#     Edge 99, Type (0, 0), None
#     Edge 100, Type (0, 0), None
#     Edge 101, Type (0, 0), None
#     Edge 102, Type (0, 0), None
#     Edge 103, Type (0, 0), None
#     Edge 104, Type (0, 0), None
#     Edge 105, Type (0, 0), None
#     Edge 106, Type (0, 0), None
#     Edge 107, Type (0, 0), None
#     Edge 108, Type (0, 0), None
#     Edge 109, Type (0, 0), None
#     Edge 110, Type (0, 0), None
#     Edge 111, Type (0, 0), None
#     Edge 112, Type (0, 0), None
#     Edge 113, Type (0, 0), None
#     Edge 114, Type (0, 0), None
#     Edge 115, Type (0, 0), None
#     Edge 116, Type (0, 0), None
#     Edge 117, Type (0, 0), None
#     Edge 118, Type (0, 0), None
#     Edge 119, Type (0, 0), None
#     Edge 120, Type (0, 0), None
#     Edge 121, Type (0, 0), None
#     Edge 122, Type (0, 0), None
#     Edge 123, Type (0, 0), None
#     Edge 124, Type (0, 0), None
#     Edge 125, Type (0, 0), None
#     Edge 126, Type (0, 0), None
#     Edge 127, Type (0, 0), None
# Relax obj value: 0.038
# Max RMSD: 0.078
# Mean RMSD: 0.077
data_MOF--net-som--node1-CIFDUS_clean_sbu_1--edge1-none
_symmetry_space_group_name_H-M    P1
_symmetry_Int_Tables_number       1
_symmetry_cell_setting            triclinic
loop_
_symmetry_equiv_pos_as_xyz
'x, y, z'
_cell_length_a     7.640803
_cell_length_b     28.968401
_cell_length_c     57.039266
_cell_angle_alpha  89.998189
_cell_angle_beta   89.9912
_cell_angle_gamma 90.000516
loop_
_atom_site_label
_atom_site_type_symbol
_atom_site_fract_x
_atom_site_fract_y
_atom_site_fract_z
_atom_type_partial_charge
O0 O -0.00375 0.43551 0.0646 0.0
Mn1 Mn 0.03545 0.50933 0.06475 0.0
O2 O 0.78249 0.42643 0.0921 0.0
Mn3 Mn 0.78658 0.48347 0.10676 0.0
O4 O 0.04952 0.58158 0.06589 0.0
O5 O 0.08716 0.51535 0.0296 0.0
Mn6 Mn 0.28173 0.54614 0.02487 0.0
O7 O 0.31057 0.50835 0.07132 0.0
O8 O 0.25243 0.60254 0.03908 0.0
O9 O 0.76407 0.51159 0.05837 0.0
O10 O 0.62612 0.52047 0.09285 0.0
O11 O 0.20202 0.53578 0.9954 0.0
O12 O 0.4574 0.51314 0.03726 0.0
C13 C 0.03136 0.50629 0.12146 0.0
C14 C 0.8723 0.41127 0.07484 0.0
C15 C 0.14705 0.61185 0.05569 0.0
C16 C 0.0741 0.51706 0.00688 0.0
C17 C 0.45456 0.51054 0.05928 0.0
C18 C 0.62342 0.51585 0.07079 0.0
O19 O 0.99091 0.50706 0.09951 0.0
O20 O 0.90438 0.49316 0.13475 0.0
O21 O 0.24579 0.83603 0.0646 0.0
Mn22 Mn 0.20658 0.76221 0.06475 0.0
O23 O 0.45947 0.8451 0.09211 0.0
Mn24 Mn 0.45536 0.78807 0.10677 0.0
O25 O 0.19252 0.68995 0.06589 0.0
O26 O 0.15496 0.75623 0.0296 0.0
Mn27 Mn 0.96053 0.7254 0.02486 0.0
O28 O 0.93145 0.76319 0.07132 0.0
O29 O 0.98991 0.66899 0.03904 0.0
O30 O 0.47798 0.75995 0.05837 0.0
O31 O 0.61585 0.75107 0.09285 0.0
O32 O 0.04018 0.73586 0.99539 0.0
O33 O 0.78468 0.75833 0.03726 0.0
C34 C 0.21054 0.76522 0.12146 0.0
C35 C 0.36972 0.86027 0.07484 0.0
C36 C 0.09497 0.6597 0.05569 0.0
C37 C 0.16794 0.75463 0.00688 0.0
C38 C 0.78748 0.76097 0.05928 0.0
C39 C 0.6186 0.75568 0.0708 0.0
O40 O 0.25107 0.76446 0.09951 0.0
O41 O 0.33746 0.77836 0.13475 0.0
O42 O -0.00391 0.83598 0.1871 0.0
Mn43 Mn 0.03528 0.76216 0.18695 0.0
O44 O 0.7824 0.84507 0.15959 0.0
Mn45 Mn 0.78654 0.78804 0.14493 0.0
O46 O 0.04928 0.6899 0.1858 0.0
O47 O 0.08686 0.75618 0.2221 0.0
Mn48 Mn 0.28116 0.72529 0.22684 0.0
O49 O 0.31042 0.76314 0.18038 0.0
O50 O 0.25148 0.66887 0.21268 0.0
O51 O 0.76389 0.7599 0.19332 0.0
O52 O 0.62602 0.75104 0.15884 0.0
O53 O 0.20161 0.7358 0.2563 0.0
O54 O 0.45721 0.75814 0.21443 0.0
C55 C 0.03135 0.76525 0.13024 0.0
C56 C 0.87217 0.86023 0.17685 0.0
C57 C 0.14643 0.65961 0.19603 0.0
C58 C 0.07392 0.75459 0.24481 0.0
C59 C 0.45439 0.76086 0.19241 0.0
C60 C 0.62327 0.75563 0.18089 0.0
O61 O 0.99083 0.76444 0.15218 0.0
O62 O 0.90443 0.77836 0.11694 0.0
O63 O 0.24565 0.43547 0.1871 0.0
Mn64 Mn 0.20641 0.50929 0.18696 0.0
O65 O 0.45938 0.4264 0.15959 0.0
Mn66 Mn 0.45529 0.48343 0.14493 0.0
O67 O 0.19227 0.58154 0.18582 0.0
O68 O 0.15466 0.5153 0.2221 0.0
Mn69 Mn 0.95996 0.54604 0.22683 0.0
O70 O 0.9313 0.5083 0.18038 0.0
O71 O 0.98897 0.60243 0.21259 0.0
O72 O 0.47779 0.51154 0.19334 0.0
O73 O 0.61574 0.52044 0.15885 0.0
O74 O 0.03979 0.53572 0.2563 0.0
O75 O 0.78449 0.51295 0.21444 0.0
C76 C 0.21053 0.50624 0.13024 0.0
C77 C 0.36959 0.41123 0.17686 0.0
C78 C 0.09434 0.61175 0.19598 0.0
C79 C 0.16777 0.51703 0.24482 0.0
C80 C 0.7873 0.51043 0.19241 0.0
C81 C 0.61845 0.51579 0.18091 0.0
O82 O 0.25097 0.50702 0.15219 0.0
O83 O 0.3375 0.49313 0.11695 0.0
O84 O 0.68135 0.51345 0.93038 0.0
Mn85 Mn 0.95646 0.51247 0.93695 0.0
O86 O 0.53452 0.50867 0.96444 0.0
Mn87 Mn 0.71018 0.47566 0.97683 0.0
O88 O 0.22784 0.51021 0.94333 0.0
O89 O 0.001 0.51474 0.90218 0.0
Mn90 Mn 0.20533 0.53834 0.89493 0.0
O91 O 0.99567 0.58629 0.9371 0.0
O92 O 0.36579 0.50133 0.90885 0.0
O93 O 0.94239 0.44022 0.93581 0.0
O94 O 0.73946 0.41927 0.96262 0.0
O95 O 0.08753 0.52865 0.86695 0.0
O96 O 0.20942 0.59537 0.9096 0.0
C97 C 0.91782 0.50473 0.99481 0.0
C98 C 0.53735 0.51127 0.94241 0.0
C99 C 0.3685 0.50596 0.9309 0.0
C100 C 0.96055 0.51551 0.88024 0.0
C101 C 0.11961 0.61053 0.92685 0.0
C102 C 0.84485 0.40996 0.946 0.0
O103 O 0.90475 0.50645 0.9721 0.0
O104 O 0.78989 0.48602 0.0063 0.0
O105 O 0.74611 0.18577 0.93709 0.0
Mn106 Mn 0.78532 0.2596 0.93695 0.0
O107 O 0.53243 0.1767 0.90959 0.0
Mn108 Mn 0.53655 0.23373 0.89493 0.0
O109 O 0.79938 0.33185 0.93581 0.0
O110 O 0.83694 0.26557 0.9721 0.0
Mn111 Mn 0.03138 0.29641 0.97684 0.0
O112 O 0.06045 0.25861 0.93038 0.0
O113 O 0.00198 0.35282 0.96265 0.0
O114 O 0.51393 0.26186 0.94333 0.0
O115 O 0.37605 0.27074 0.90884 0.0
O116 O 0.95172 0.28594 0.0063 0.0
O117 O 0.20723 0.26348 0.96444 0.0
C118 C 0.78136 0.25658 0.88024 0.0
C119 C 0.62219 0.16153 0.92685 0.0
C120 C 0.89693 0.3621 0.94601 0.0
C121 C 0.82396 0.26718 0.99481 0.0
C122 C 0.20442 0.26084 0.94241 0.0
C123 C 0.3733 0.26612 0.9309 0.0
O124 O 0.74084 0.25734 0.90218 0.0
O125 O 0.65445 0.24344 0.86695 0.0
O126 O 0.99582 0.18582 0.8146 0.0
Mn127 Mn 0.95663 0.25964 0.81475 0.0
O128 O 0.20951 0.17673 0.8421 0.0
Mn129 Mn 0.20537 0.23376 0.85677 0.0
O130 O 0.94263 0.3319 0.8159 0.0
O131 O 0.90505 0.26563 0.7796 0.0
Mn132 Mn 0.71075 0.29652 0.77485 0.0
O133 O 0.68149 0.25866 0.82132 0.0
O134 O 0.74043 0.35293 0.78902 0.0
O135 O 0.22802 0.26191 0.80837 0.0
O136 O 0.36589 0.27077 0.84286 0.0
O137 O 0.7903 0.28601 0.74539 0.0
O138 O 0.5347 0.26366 0.78726 0.0
C139 C 0.96056 0.25656 0.87146 0.0
C140 C 0.11974 0.16157 0.82484 0.0
C141 C 0.84548 0.3622 0.80567 0.0
C142 C 0.91799 0.26721 0.75688 0.0
C143 C 0.53752 0.26095 0.80929 0.0
C144 C 0.36864 0.26617 0.8208 0.0
O145 O 0.00108 0.25736 0.84951 0.0
O146 O 0.08748 0.24344 0.88475 0.0
O147 O 0.74626 0.58634 0.81459 0.0
Mn148 Mn 0.7855 0.51252 0.81474 0.0
O149 O 0.53253 0.59541 0.8421 0.0
Mn150 Mn 0.53662 0.53837 0.85676 0.0
O151 O 0.79964 0.44027 0.81588 0.0
O152 O 0.83725 0.5065 0.77959 0.0
Mn153 Mn 0.03195 0.47577 0.77487 0.0
O154 O 0.06061 0.51351 0.82132 0.0
O155 O 0.00294 0.41938 0.7891 0.0
O156 O 0.51412 0.51026 0.80836 0.0
O157 O 0.37618 0.50137 0.84284 0.0
O158 O 0.95212 0.48608 0.7454 0.0
O159 O 0.20742 0.50885 0.78726 0.0
C160 C 0.78138 0.51556 0.87145 0.0
C161 C 0.62232 0.61058 0.82484 0.0
C162 C 0.89757 0.41005 0.80572 0.0
C163 C 0.82414 0.50477 0.75688 0.0
C164 C 0.20461 0.51138 0.80928 0.0
C165 C 0.37347 0.50601 0.82079 0.0
O166 O 0.74094 0.51479 0.84951 0.0
O167 O 0.65442 0.52867 0.88475 0.0
O168 O -0.00375 0.93551 0.5646 0.0
Mn169 Mn 0.03545 1.00933 0.56474 0.0
O170 O 0.78249 0.92644 0.5921 0.0
Mn171 Mn 0.78658 0.98347 0.60676 0.0
O172 O 0.04952 0.08159 0.56589 0.0
O173 O 0.08716 0.01535 0.5296 0.0
Mn174 Mn 0.28172 0.04614 0.52487 0.0
O175 O 0.31057 1.00835 0.57132 0.0
O176 O 0.25243 0.10254 0.53908 0.0
O177 O 0.76407 0.01159 0.55836 0.0
O178 O 0.62612 0.02048 0.59285 0.0
O179 O 0.20202 0.03578 0.4954 0.0
O180 O 0.4574 0.01314 0.53726 0.0
C181 C 0.03136 1.00629 0.62146 0.0
C182 C 0.8723 0.91127 0.57484 0.0
C183 C 0.14705 0.11185 0.55569 0.0
C184 C 0.0741 0.01706 0.50688 0.0
C185 C 0.45456 1.01054 0.55928 0.0
C186 C 0.62342 0.01585 0.57079 0.0
O187 O 0.99091 1.00706 0.59951 0.0
O188 O 0.90438 0.99316 0.63475 0.0
O189 O 0.24579 0.33603 0.5646 0.0
Mn190 Mn 0.20658 0.26221 0.56475 0.0
O191 O 0.45947 0.34511 0.5921 0.0
Mn192 Mn 0.45535 0.28807 0.60677 0.0
O193 O 0.19251 0.18995 0.56589 0.0
O194 O 0.15496 0.25623 0.5296 0.0
Mn195 Mn 0.96052 0.2254 0.52485 0.0
O196 O 0.93145 0.26319 0.57132 0.0
O197 O 0.98991 0.16899 0.53904 0.0
O198 O 0.47797 0.25995 0.55837 0.0
O199 O 0.61585 0.25107 0.59285 0.0
O200 O 0.04018 0.23586 0.49539 0.0
O201 O 0.78467 0.25833 0.53726 0.0
C202 C 0.21054 0.26522 0.62146 0.0
C203 C 0.36972 0.36027 0.57484 0.0
C204 C 0.09497 0.1597 0.55569 0.0
C205 C 0.16794 0.25463 0.50688 0.0
C206 C 0.78748 0.26097 0.55928 0.0
C207 C 0.6186 0.25569 0.5708 0.0
O208 O 0.25106 0.26447 0.59951 0.0
O209 O 0.33745 0.27837 0.63475 0.0
O210 O -0.00392 0.33599 0.6871 0.0
Mn211 Mn 0.03527 0.26217 0.68695 0.0
O212 O 0.78239 0.34507 0.65959 0.0
Mn213 Mn 0.78653 0.28804 0.64493 0.0
O214 O 0.04928 0.1899 0.68579 0.0
O215 O 0.08685 0.25618 0.72209 0.0
Mn216 Mn 0.28116 0.22529 0.72684 0.0
O217 O 0.31041 0.26315 0.68038 0.0
O218 O 0.2515 0.16888 0.71267 0.0
O219 O 0.76388 0.2599 0.69332 0.0
O220 O 0.62601 0.25104 0.65883 0.0
O221 O 0.20161 0.2358 0.7563 0.0
O222 O 0.4572 0.25815 0.71443 0.0
C223 C 0.03134 0.26525 0.63024 0.0
C224 C 0.87216 0.36023 0.67685 0.0
C225 C 0.14644 0.15961 0.69603 0.0
C226 C 0.0739 0.25458 0.74481 0.0
C227 C 0.45438 0.26086 0.69241 0.0
C228 C 0.62326 0.25563 0.68089 0.0
O229 O 0.99082 0.26445 0.65218 0.0
O230 O 0.90442 0.27837 0.61694 0.0
O231 O 0.24565 0.93547 0.6871 0.0
Mn232 Mn 0.20641 1.00929 0.68695 0.0
O233 O 0.45938 0.9264 0.65959 0.0
Mn234 Mn 0.45529 0.98343 0.64493 0.0
O235 O 0.19227 0.08154 0.68582 0.0
O236 O 0.15466 0.01531 0.7221 0.0
Mn237 Mn 0.95997 0.04604 0.72683 0.0
O238 O 0.93131 1.0083 0.68038 0.0
O239 O 0.98898 0.10243 0.71259 0.0
O240 O 0.47779 0.01154 0.69334 0.0
O241 O 0.61574 0.02044 0.65885 0.0
O242 O 0.03979 0.03573 0.7563 0.0
O243 O 0.78449 0.01296 0.71444 0.0
C244 C 0.21053 1.00624 0.63024 0.0
C245 C 0.36959 0.91123 0.67686 0.0
C246 C 0.09435 0.11175 0.69598 0.0
C247 C 0.16777 0.01703 0.74482 0.0
C248 C 0.78731 1.01043 0.69241 0.0
C249 C 0.61845 0.01579 0.68091 0.0
O250 O 0.25098 1.00702 0.65219 0.0
O251 O 0.3375 0.99314 0.61695 0.0
O252 O 0.68135 0.01345 0.43038 0.0
Mn253 Mn 0.95646 0.01247 0.43695 0.0
O254 O 0.53452 1.00867 0.46444 0.0
Mn255 Mn 0.71018 0.97566 0.47683 0.0
O256 O 0.22784 1.01021 0.44333 0.0
O257 O 0.001 0.01474 0.40218 0.0
Mn258 Mn 0.20534 0.03833 0.39493 0.0
O259 O 0.99567 0.08629 0.4371 0.0
O260 O 0.36579 1.00133 0.40885 0.0
O261 O 0.94239 0.94022 0.43581 0.0
O262 O 0.73947 0.91926 0.46262 0.0
O263 O 0.08753 0.02865 0.36695 0.0
O264 O 0.20942 0.09537 0.40959 0.0
C265 C 0.91782 1.00473 0.49481 0.0
C266 C 0.53735 0.01127 0.44241 0.0
C267 C 0.3685 1.00595 0.4309 0.0
C268 C 0.96055 0.01551 0.38024 0.0
C269 C 0.11961 0.11053 0.42685 0.0
C270 C 0.84485 0.90995 0.44601 0.0
O271 O 0.90475 1.00644 0.4721 0.0
O272 O 0.78989 0.98602 0.5063 0.0
O273 O 0.74612 0.68577 0.4371 0.0
Mn274 Mn 0.78533 0.75959 0.43695 0.0
O275 O 0.53244 0.6767 0.40959 0.0
Mn276 Mn 0.53656 0.73373 0.39493 0.0
O277 O 0.79939 0.83185 0.43581 0.0
O278 O 0.83695 0.76557 0.4721 0.0
Mn279 Mn 0.03138 0.79641 0.47684 0.0
O280 O 0.06046 0.75861 0.43038 0.0
O281 O 0.00199 0.85282 0.46265 0.0
O282 O 0.51393 0.76185 0.44333 0.0
O283 O 0.37606 0.77073 0.40884 0.0
O284 O 0.95173 0.78594 0.5063 0.0
O285 O 0.20724 0.76347 0.46444 0.0
C286 C 0.78137 0.75658 0.38024 0.0
C287 C 0.62219 0.66153 0.42685 0.0
C288 C 0.89694 0.8621 0.44601 0.0
C289 C 0.82397 0.76718 0.49481 0.0
C290 C 0.20443 0.76084 0.44241 0.0
C291 C 0.37331 0.76612 0.4309 0.0
O292 O 0.74085 0.75734 0.40218 0.0
O293 O 0.65446 0.74344 0.36695 0.0
O294 O 0.99583 0.68582 0.3146 0.0
Mn295 Mn 0.95664 0.75964 0.31475 0.0
O296 O 0.20952 0.67673 0.3421 0.0
Mn297 Mn 0.20538 0.73376 0.35677 0.0
O298 O 0.94263 0.8319 0.3159 0.0
O299 O 0.90506 0.76563 0.2796 0.0
Mn300 Mn 0.71075 0.79651 0.27486 0.0
O301 O 0.6815 0.75866 0.32132 0.0
O302 O 0.74041 0.85293 0.28902 0.0
O303 O 0.22803 0.7619 0.30837 0.0
O304 O 0.3659 0.77076 0.34286 0.0
O305 O 0.7903 0.78601 0.24539 0.0
O306 O 0.53471 0.76365 0.28727 0.0
C307 C 0.96057 0.75655 0.37146 0.0
C308 C 0.11975 0.66157 0.32484 0.0
C309 C 0.84547 0.86219 0.30567 0.0
C310 C 0.918 0.76722 0.25689 0.0
C311 C 0.53753 0.76094 0.30929 0.0
C312 C 0.36865 0.76617 0.3208 0.0
O313 O 0.00109 0.75735 0.34951 0.0
O314 O 0.08749 0.74343 0.38475 0.0
O315 O 0.74626 0.08633 0.31459 0.0
Mn316 Mn 0.7855 0.01252 0.31474 0.0
O317 O 0.53253 0.09541 0.3421 0.0
Mn318 Mn 0.53662 0.03837 0.35676 0.0
O319 O 0.79964 0.94026 0.31588 0.0
O320 O 0.83725 1.0065 0.27959 0.0
Mn321 Mn 0.03194 0.97576 0.27487 0.0
O322 O 0.06061 0.01351 0.32132 0.0
O323 O 0.00293 0.91937 0.28911 0.0
O324 O 0.51412 1.01026 0.30836 0.0
O325 O 0.37618 1.00137 0.34284 0.0
O326 O 0.95212 0.98608 0.2454 0.0
O327 O 0.20742 1.00884 0.28726 0.0
C328 C 0.78138 0.01556 0.37145 0.0
C329 C 0.62232 0.11057 0.32484 0.0
C330 C 0.89756 0.91005 0.30572 0.0
C331 C 0.82414 1.00477 0.25688 0.0
C332 C 0.20461 0.01137 0.30928 0.0
C333 C 0.37346 1.00601 0.32079 0.0
O334 O 0.74094 0.01478 0.34951 0.0
O335 O 0.65442 0.02867 0.38475 0.0
O336 O 0.49621 0.43551 0.5646 0.0
Mn337 Mn 0.53546 0.50934 0.56474 0.0
O338 O 0.28238 0.42646 0.5921 0.0
Mn339 Mn 0.28654 0.48349 0.60677 0.0
O340 O 0.54953 0.58159 0.56589 0.0
O341 O 0.58717 0.51535 0.52959 0.0
Mn342 Mn 0.78173 0.54614 0.52486 0.0
O343 O 0.81057 0.50835 0.57132 0.0
O344 O 0.75242 0.60254 0.53907 0.0
O345 O 0.26407 0.5116 0.55836 0.0
O346 O 0.12613 0.52051 0.59285 0.0
O347 O 0.70202 0.53578 0.4954 0.0
O348 O 0.9574 0.51314 0.53726 0.0
C349 C 0.53136 0.5063 0.62146 0.0
C350 C 0.37213 0.41131 0.57483 0.0
C351 C 0.64705 0.61185 0.55569 0.0
C352 C 0.5741 0.51706 0.50688 0.0
C353 C 0.95457 0.51054 0.55928 0.0
C354 C 0.12342 0.51587 0.57079 0.0
O355 O 0.4909 0.50707 0.59951 0.0
O356 O 0.40438 0.49317 0.63475 0.0
O357 O 0.74583 0.83603 0.5646 0.0
Mn358 Mn 0.70659 0.76221 0.56475 0.0
O359 O 0.95958 0.84508 0.59211 0.0
Mn360 Mn 0.9554 0.78805 0.60677 0.0
O361 O 0.69251 0.68995 0.56589 0.0
O362 O 0.65497 0.75623 0.5296 0.0
Mn363 Mn 0.46052 0.7254 0.52485 0.0
O364 O 0.43146 0.76319 0.57132 0.0
O365 O 0.48991 0.66899 0.53904 0.0
O366 O 0.97798 0.75994 0.55837 0.0
O367 O 0.11585 0.75104 0.59285 0.0
O368 O 0.54018 0.73587 0.49539 0.0
O369 O 0.28468 0.75834 0.53726 0.0
C370 C 0.71055 0.76522 0.62146 0.0
C371 C 0.86989 0.86024 0.57484 0.0
C372 C 0.59496 0.6597 0.55569 0.0
C373 C 0.66795 0.75462 0.50688 0.0
C374 C 0.28749 0.76097 0.55929 0.0
C375 C 0.1186 0.75567 0.5708 0.0
O376 O 0.75108 0.76446 0.59951 0.0
O377 O 0.83747 0.77835 0.63475 0.0
O378 O 0.49606 0.83599 0.68709 0.0
Mn379 Mn 0.53528 0.76216 0.68695 0.0
O380 O 0.28229 0.84505 0.65959 0.0
Mn381 Mn 0.2865 0.78802 0.64492 0.0
O382 O 0.54928 0.6899 0.6858 0.0
O383 O 0.58686 0.75618 0.7221 0.0
Mn384 Mn 0.78116 0.72529 0.72684 0.0
O385 O 0.81042 0.76314 0.68038 0.0
O386 O 0.75147 0.66887 0.71268 0.0
O387 O 0.26389 0.75989 0.69332 0.0
O388 O 0.12602 0.75101 0.65884 0.0
O389 O 0.70161 0.7358 0.7563 0.0
O390 O 0.95721 0.75815 0.71443 0.0
C391 C 0.53135 0.76524 0.63024 0.0
C392 C 0.37199 0.8602 0.67686 0.0
C393 C 0.64643 0.65961 0.69603 0.0
C394 C 0.57392 0.7546 0.74481 0.0
C395 C 0.95439 0.76085 0.69241 0.0
C396 C 0.12327 0.75562 0.68089 0.0
O397 O 0.49082 0.76444 0.65218 0.0
O398 O 0.40442 0.77835 0.61694 0.0
O399 O 0.74568 0.43547 0.6871 0.0
Mn400 Mn 0.70641 0.50929 0.68695 0.0
O401 O 0.95949 0.42642 0.65959 0.0
Mn402 Mn 0.95534 0.48346 0.64493 0.0
O403 O 0.69226 0.58154 0.68582 0.0
O404 O 0.65467 0.51531 0.7221 0.0
Mn405 Mn 0.45996 0.54603 0.72683 0.0
O406 O 0.43131 0.5083 0.68037 0.0
O407 O 0.48897 0.60243 0.71259 0.0
O408 O 0.9778 0.51155 0.69334 0.0
O409 O 0.11573 0.52047 0.65885 0.0
O410 O 0.53978 0.53572 0.7563 0.0
O411 O 0.28449 0.51295 0.71444 0.0
C412 C 0.71053 0.50625 0.63024 0.0
C413 C 0.86976 0.41127 0.67686 0.0
C414 C 0.59434 0.61175 0.69598 0.0
C415 C 0.66778 0.51704 0.74481 0.0
C416 C 0.28731 0.51043 0.69241 0.0
C417 C 0.11845 0.51581 0.68091 0.0
O418 O 0.75099 0.50702 0.65219 0.0
O419 O 0.83751 0.49315 0.61695 0.0
O420 O 0.18135 0.51345 0.43038 0.0
Mn421 Mn 0.45646 0.51247 0.43695 0.0
O422 O 0.03452 0.50867 0.46444 0.0
Mn423 Mn 0.21018 0.47566 0.47683 0.0
O424 O 0.72784 0.51021 0.44333 0.0
O425 O 0.50101 0.51474 0.40218 0.0
Mn426 Mn 0.70537 0.53831 0.39493 0.0
O427 O 0.4957 0.58629 0.4371 0.0
O428 O 0.86578 0.5013 0.40885 0.0
O429 O 0.44238 0.44021 0.43581 0.0
O430 O 0.23947 0.41926 0.46262 0.0
O431 O 0.58754 0.52863 0.36695 0.0
O432 O 0.70953 0.59534 0.40959 0.0
C433 C 0.41782 0.50473 0.49481 0.0
C434 C 0.03735 0.51126 0.44241 0.0
C435 C 0.86849 0.50594 0.4309 0.0
C436 C 0.46055 0.51551 0.38024 0.0
C437 C 0.61979 0.6105 0.42686 0.0
C438 C 0.34485 0.40995 0.44601 0.0
O439 O 0.40475 0.50645 0.4721 0.0
O440 O 0.28989 0.48602 0.5063 0.0
O441 O 0.24608 0.18577 0.43709 0.0
Mn442 Mn 0.28532 0.25959 0.43695 0.0
O443 O 0.03232 0.17672 0.40959 0.0
Mn444 Mn 0.03651 0.23375 0.39493 0.0
O445 O 0.29939 0.33185 0.43581 0.0
O446 O 0.33694 0.26557 0.4721 0.0
Mn447 Mn 0.53138 0.2964 0.47684 0.0
O448 O 0.56045 0.25861 0.43038 0.0
O449 O 0.50199 0.35281 0.46265 0.0
O450 O 0.01392 0.26186 0.44333 0.0
O451 O 0.87606 0.27076 0.40884 0.0
O452 O 0.45173 0.28593 0.5063 0.0
O453 O 0.70723 0.26347 0.46443 0.0
C454 C 0.28136 0.25659 0.38024 0.0
C455 C 0.12202 0.16157 0.42686 0.0
C456 C 0.39694 0.3621 0.44601 0.0
C457 C 0.32395 0.26718 0.49481 0.0
C458 C 0.70442 0.26084 0.44241 0.0
C459 C 0.8733 0.26613 0.4309 0.0
O460 O 0.24083 0.25734 0.40218 0.0
O461 O 0.15444 0.24345 0.36695 0.0
O462 O 0.49585 0.18582 0.3146 0.0
Mn463 Mn 0.45663 0.25964 0.31475 0.0
O464 O 0.70962 0.17676 0.3421 0.0
Mn465 Mn 0.70541 0.23378 0.35677 0.0
O466 O 0.44262 0.3319 0.3159 0.0
O467 O 0.40505 0.26562 0.2796 0.0
Mn468 Mn 0.21075 0.29651 0.27485 0.0
O469 O 0.18149 0.25866 0.32132 0.0
O470 O 0.24044 0.35293 0.28902 0.0
O471 O 0.72802 0.26191 0.30837 0.0
O472 O 0.86588 0.2708 0.34286 0.0
O473 O 0.2903 0.286 0.24539 0.0
O474 O 0.0347 0.26366 0.28726 0.0
C475 C 0.46056 0.25656 0.37146 0.0
C476 C 0.61992 0.16161 0.32483 0.0
C477 C 0.34548 0.3622 0.30567 0.0
C478 C 0.41799 0.26721 0.25688 0.0
C479 C 0.03752 0.26095 0.30929 0.0
C480 C 0.86864 0.26619 0.3208 0.0
O481 O 0.50109 0.25736 0.34951 0.0
O482 O 0.58749 0.24345 0.38475 0.0
O483 O 0.24623 0.58633 0.3146 0.0
Mn484 Mn 0.2855 0.51251 0.31474 0.0
O485 O 0.03242 0.59538 0.3421 0.0
Mn486 Mn 0.03658 0.53835 0.35677 0.0
O487 O 0.29965 0.44026 0.31588 0.0
O488 O 0.33725 0.5065 0.27959 0.0
Mn489 Mn 0.53195 0.47577 0.27487 0.0
O490 O 0.56061 0.5135 0.32132 0.0
O491 O 0.50294 0.41938 0.2891 0.0
O492 O 0.01412 0.51026 0.30836 0.0
O493 O 0.87618 0.50133 0.34284 0.0
O494 O 0.45213 0.48608 0.2454 0.0
O495 O 0.70742 0.50885 0.28726 0.0
C496 C 0.28138 0.51556 0.37145 0.0
C497 C 0.12215 0.61054 0.32483 0.0
C498 C 0.39757 0.41005 0.30571 0.0
C499 C 0.32413 0.50476 0.25688 0.0
C500 C 0.70461 0.51137 0.30928 0.0
C501 C 0.87346 0.50599 0.32079 0.0
O502 O 0.24093 0.51478 0.34951 0.0
O503 O 0.15441 0.52865 0.38475 0.0
O504 O 0.49622 0.93551 0.0646 0.0
Mn505 Mn 0.53546 1.00933 0.06474 0.0
O506 O 0.28239 0.92646 0.0921 0.0
Mn507 Mn 0.28655 0.98349 0.10677 0.0
O508 O 0.54954 0.08159 0.06589 0.0
O509 O 0.58718 0.01535 0.02959 0.0
Mn510 Mn 0.78173 0.04614 0.02486 0.0
O511 O 0.81058 1.00835 0.07132 0.0
O512 O 0.75243 0.10254 0.03907 0.0
O513 O 0.26408 0.01159 0.05836 0.0
O514 O 0.12614 0.02051 0.09285 0.0
O515 O 0.70202 0.03577 0.9954 0.0
O516 O 0.95741 0.01314 0.03726 0.0
C517 C 0.53137 1.0063 0.12146 0.0
C518 C 0.37213 0.9113 0.07483 0.0
C519 C 0.64706 0.11185 0.05569 0.0
C520 C 0.5741 0.01706 0.00688 0.0
C521 C 0.95457 1.01054 0.05928 0.0
C522 C 0.12343 0.01586 0.07079 0.0
O523 O 0.49091 1.00706 0.09951 0.0
O524 O 0.40438 0.99317 0.13475 0.0
O525 O 0.74583 0.33603 0.0646 0.0
Mn526 Mn 0.70659 0.26221 0.06475 0.0
O527 O 0.95959 0.34508 0.09211 0.0
Mn528 Mn 0.9554 0.28805 0.10677 0.0
O529 O 0.69252 0.18995 0.06589 0.0
O530 O 0.65497 0.25623 0.0296 0.0
Mn531 Mn 0.46053 0.2254 0.02485 0.0
O532 O 0.43146 0.26319 0.07132 0.0
O533 O 0.48992 0.16899 0.03904 0.0
O534 O 0.97799 0.25994 0.05837 0.0
O535 O 0.11585 0.25104 0.09285 0.0
O536 O 0.54018 0.23587 0.99539 0.0
O537 O 0.28468 0.25833 0.03726 0.0
C538 C 0.71055 0.26522 0.12146 0.0
C539 C 0.8699 0.36023 0.07484 0.0
C540 C 0.59497 0.1597 0.05569 0.0
C541 C 0.66795 0.25462 0.00688 0.0
C542 C 0.28749 0.26096 0.05929 0.0
C543 C 0.11861 0.25567 0.0708 0.0
O544 O 0.75108 0.26446 0.09951 0.0
O545 O 0.83747 0.27835 0.13475 0.0
O546 O 0.49606 0.33598 0.18709 0.0
Mn547 Mn 0.53528 0.26216 0.18695 0.0
O548 O 0.28229 0.34505 0.15959 0.0
Mn549 Mn 0.2865 0.28802 0.14492 0.0
O550 O 0.54929 0.1899 0.1858 0.0
O551 O 0.58686 0.25617 0.22209 0.0
Mn552 Mn 0.78117 0.22529 0.22684 0.0
O553 O 0.81042 0.26314 0.18038 0.0
O554 O 0.7515 0.16887 0.21268 0.0
O555 O 0.26389 0.25989 0.19332 0.0
O556 O 0.12603 0.25101 0.15884 0.0
O557 O 0.70162 0.2358 0.2563 0.0
O558 O 0.95721 0.25815 0.21443 0.0
C559 C 0.53135 0.26524 0.13024 0.0
C560 C 0.37199 0.36019 0.17686 0.0
C561 C 0.64644 0.15961 0.19603 0.0
C562 C 0.57391 0.25458 0.24481 0.0
C563 C 0.95439 0.26085 0.19241 0.0
C564 C 0.12327 0.25562 0.18089 0.0
O565 O 0.49082 0.26444 0.15218 0.0
O566 O 0.40442 0.27835 0.11694 0.0
O567 O 0.74569 0.93547 0.1871 0.0
Mn568 Mn 0.70642 1.00929 0.18695 0.0
O569 O 0.9595 0.92642 0.15959 0.0
Mn570 Mn 0.95534 0.98345 0.14493 0.0
O571 O 0.69228 0.08154 0.18582 0.0
O572 O 0.65468 0.01531 0.2221 0.0
Mn573 Mn 0.45998 0.04604 0.22683 0.0
O574 O 0.43132 1.0083 0.18037 0.0
O575 O 0.48899 0.10243 0.21259 0.0
O576 O 0.97781 0.01154 0.19334 0.0
O577 O 0.11574 0.02047 0.15885 0.0
O578 O 0.53979 0.03572 0.2563 0.0
O579 O 0.2845 0.01295 0.21444 0.0
C580 C 0.71054 1.00624 0.13024 0.0
C581 C 0.86977 0.91126 0.17686 0.0
C582 C 0.59436 0.11175 0.19598 0.0
C583 C 0.66779 0.01704 0.24481 0.0
C584 C 0.28732 1.01043 0.19241 0.0
C585 C 0.11846 0.01581 0.18091 0.0
O586 O 0.75099 1.00702 0.15219 0.0
O587 O 0.83751 0.99315 0.11695 0.0
O588 O 0.18134 0.01345 0.93038 0.0
Mn589 Mn 0.45645 0.01247 0.93695 0.0
O590 O 0.03451 1.00867 0.96444 0.0
Mn591 Mn 0.21017 0.97566 0.97683 0.0
O592 O 0.72784 1.01021 0.94333 0.0
O593 O 0.501 0.01474 0.90218 0.0
Mn594 Mn 0.70537 0.03831 0.89493 0.0
O595 O 0.49569 0.08629 0.9371 0.0
O596 O 0.86577 1.0013 0.90885 0.0
O597 O 0.44237 0.94022 0.93581 0.0
O598 O 0.23946 0.91927 0.96262 0.0
O599 O 0.58753 0.02863 0.86695 0.0
O600 O 0.70953 0.09534 0.90959 0.0
C601 C 0.41782 1.00473 0.99481 0.0
C602 C 0.03734 0.01126 0.94241 0.0
C603 C 0.86849 1.00594 0.9309 0.0
C604 C 0.46054 0.01551 0.88024 0.0
C605 C 0.61978 0.1105 0.92686 0.0
C606 C 0.34484 0.90996 0.94601 0.0
O607 O 0.40474 1.00645 0.9721 0.0
O608 O 0.28988 0.98603 0.0063 0.0
O609 O 0.24608 0.68578 0.93709 0.0
Mn610 Mn 0.28532 0.7596 0.93695 0.0
O611 O 0.03232 0.67672 0.90959 0.0
Mn612 Mn 0.03651 0.73376 0.89493 0.0
O613 O 0.29939 0.83185 0.93581 0.0
O614 O 0.33693 0.76557 0.9721 0.0
Mn615 Mn 0.53137 0.7964 0.97684 0.0
O616 O 0.56045 0.75862 0.93038 0.0
O617 O 0.50198 0.85282 0.96266 0.0
O618 O 0.01392 0.76186 0.94333 0.0
O619 O 0.87606 0.77077 0.90884 0.0
O620 O 0.45173 0.78594 0.0063 0.0
O621 O 0.70722 0.76347 0.96444 0.0
C622 C 0.28136 0.75659 0.88024 0.0
C623 C 0.12201 0.66157 0.92686 0.0
C624 C 0.39693 0.8621 0.94601 0.0
C625 C 0.32395 0.76718 0.99481 0.0
C626 C 0.70442 0.76084 0.94241 0.0
C627 C 0.8733 0.76613 0.9309 0.0
O628 O 0.24083 0.75734 0.90218 0.0
O629 O 0.15444 0.74345 0.86695 0.0
O630 O 0.49585 0.68582 0.8146 0.0
Mn631 Mn 0.45663 0.75964 0.81475 0.0
O632 O 0.70962 0.67676 0.8421 0.0
Mn633 Mn 0.70541 0.73378 0.85677 0.0
O634 O 0.44262 0.8319 0.8159 0.0
O635 O 0.40505 0.76563 0.7796 0.0
Mn636 Mn 0.21074 0.79651 0.77485 0.0
O637 O 0.18149 0.75866 0.82132 0.0
O638 O 0.24042 0.85293 0.78902 0.0
O639 O 0.72802 0.76191 0.80837 0.0
O640 O 0.86588 0.7708 0.84286 0.0
O641 O 0.29029 0.786 0.74539 0.0
O642 O 0.0347 0.76365 0.78727 0.0
C643 C 0.46056 0.75656 0.87146 0.0
C644 C 0.61992 0.66161 0.82483 0.0
C645 C 0.34547 0.8622 0.80567 0.0
C646 C 0.418 0.76722 0.75689 0.0
C647 C 0.03752 0.76095 0.80929 0.0
C648 C 0.86864 0.76619 0.8208 0.0
O649 O 0.50109 0.75736 0.84951 0.0
O650 O 0.58749 0.74345 0.88475 0.0
O651 O 0.24622 0.08634 0.8146 0.0
Mn652 Mn 0.28549 0.01252 0.81474 0.0
O653 O 0.03242 0.09538 0.8421 0.0
Mn654 Mn 0.03657 0.03835 0.85677 0.0
O655 O 0.29964 0.94027 0.81588 0.0
O656 O 0.33724 1.0065 0.77959 0.0
Mn657 Mn 0.53193 0.97577 0.77487 0.0
O658 O 0.5606 0.01351 0.82132 0.0
O659 O 0.50293 0.91938 0.7891 0.0
O660 O 0.01411 1.01026 0.80836 0.0
O661 O 0.87617 1.00134 0.84284 0.0
O662 O 0.45212 0.98608 0.7454 0.0
O663 O 0.70741 1.00885 0.78726 0.0
C664 C 0.28137 0.01556 0.87145 0.0
C665 C 0.12214 0.11054 0.82483 0.0
C666 C 0.39756 0.91005 0.80571 0.0
C667 C 0.32413 1.00477 0.75688 0.0
C668 C 0.7046 0.01137 0.80928 0.0
C669 C 0.87346 1.006 0.82079 0.0
O670 O 0.24092 0.01478 0.84951 0.0
O671 O 0.1544 0.02866 0.88475 0.0
loop_
_geom_bond_atom_site_label_1
_geom_bond_atom_site_label_2
_geom_bond_distance
_geom_bond_site_symmetry_2
_ccdc_geom_bond_type
O0 Mn1 2.163 1_655 S
O0 C14 1.244 . S
Mn1 O0 2.163 1_455 S
Mn1 O4 2.160 . S
Mn1 O5 2.221 . S
Mn1 O7 2.163 . S
Mn1 O9 2.160 1_455 S
Mn1 O19 2.221 1_455 S
O2 Mn3 2.087 . S
O2 C14 1.256 . S
Mn3 O2 2.087 . S
Mn3 O10 2.089 . S
Mn3 O19 2.290 . S
Mn3 O20 2.251 . S
O4 Mn1 2.160 . S
O4 C15 1.239 . S
O5 Mn1 2.221 . S
O5 Mn6 2.290 . S
O5 C16 1.278 . S
Mn6 O5 2.290 . S
Mn6 O8 2.089 . S
Mn6 O11 2.251 1_554 S
Mn6 O12 2.087 . S
O7 Mn1 2.163 . S
O7 C17 1.244 . S
O8 Mn6 2.089 . S
O8 C15 1.256 . S
O9 Mn1 2.160 1_655 S
O9 C18 1.239 . S
O10 Mn3 2.089 . S
O10 C18 1.256 . S
O11 Mn6 2.251 1_556 S
O11 C16 1.241 1_556 S
O12 Mn6 2.087 . S
O12 C17 1.256 . S
C13 O19 1.278 1_455 S
C13 O20 1.241 1_455 S
C14 O0 1.244 . S
C14 O2 1.256 . S
C15 O4 1.239 . S
C15 O8 1.256 . S
C16 O5 1.278 . S
C16 O11 1.241 1_554 S
C17 O7 1.244 . S
C17 O12 1.256 . S
C18 O9 1.239 . S
C18 O10 1.256 . S
O19 Mn1 2.221 1_655 S
O19 Mn3 2.290 . S
O19 C13 1.278 1_655 S
O20 Mn3 2.251 . S
O20 C13 1.241 1_655 S
O21 Mn22 2.163 . S
O21 C35 1.244 . S
Mn22 O21 2.163 . S
Mn22 O25 2.160 . S
Mn22 O26 2.221 . S
Mn22 O28 2.163 1_455 S
Mn22 O30 2.160 . S
Mn22 O40 2.221 . S
O23 Mn24 2.087 . S
O23 C35 1.256 . S
Mn24 O23 2.087 . S
Mn24 O31 2.089 . S
Mn24 O40 2.290 . S
Mn24 O41 2.251 . S
O25 Mn22 2.160 . S
O25 C36 1.239 . S
O26 Mn22 2.221 . S
O26 Mn27 2.290 1_455 S
O26 C37 1.278 . S
Mn27 O26 2.290 1_655 S
Mn27 O29 2.089 1_655 S
Mn27 O32 2.251 1_654 S
Mn27 O33 2.087 . S
O28 Mn22 2.163 1_655 S
O28 C38 1.244 . S
O29 Mn27 2.089 1_455 S
O29 C36 1.256 . S
O30 Mn22 2.160 . S
O30 C39 1.239 . S
O31 Mn24 2.089 . S
O31 C39 1.256 . S
O32 Mn27 2.251 1_456 S
O32 C37 1.241 1_556 S
O33 Mn27 2.087 . S
O33 C38 1.256 . S
C34 O40 1.278 . S
C34 O41 1.241 . S
C35 O21 1.244 . S
C35 O23 1.256 . S
C36 O25 1.239 . S
C36 O29 1.256 . S
C37 O26 1.278 . S
C37 O32 1.241 1_554 S
C38 O28 1.244 . S
C38 O33 1.256 . S
C39 O30 1.239 . S
C39 O31 1.256 . S
O40 Mn22 2.221 . S
O40 Mn24 2.290 . S
O40 C34 1.278 . S
O41 Mn24 2.251 . S
O41 C34 1.241 . S
O42 Mn43 2.163 1_655 S
O42 C56 1.244 . S
Mn43 O42 2.163 1_455 S
Mn43 O46 2.160 . S
Mn43 O47 2.221 . S
Mn43 O49 2.163 . S
Mn43 O51 2.160 1_455 S
Mn43 O61 2.221 1_455 S
O44 Mn45 2.087 . S
O44 C56 1.256 . S
Mn45 O44 2.087 . S
Mn45 O52 2.089 . S
Mn45 O61 2.290 . S
Mn45 O62 2.251 . S
O46 Mn43 2.160 . S
O46 C57 1.239 . S
O47 Mn43 2.221 . S
O47 Mn48 2.290 . S
O47 C58 1.278 . S
Mn48 O47 2.290 . S
Mn48 O50 2.089 . S
Mn48 O53 2.251 . S
Mn48 O54 2.087 . S
O49 Mn43 2.163 . S
O49 C59 1.244 . S
O50 Mn48 2.089 . S
O50 C57 1.256 . S
O51 Mn43 2.160 1_655 S
O51 C60 1.239 . S
O52 Mn45 2.089 . S
O52 C60 1.256 . S
O53 Mn48 2.251 . S
O53 C58 1.241 . S
O54 Mn48 2.087 . S
O54 C59 1.256 . S
C55 O61 1.278 1_455 S
C55 O62 1.241 1_455 S
C56 O42 1.244 . S
C56 O44 1.256 . S
C57 O46 1.239 . S
C57 O50 1.256 . S
C58 O47 1.278 . S
C58 O53 1.241 . S
C59 O49 1.244 . S
C59 O54 1.256 . S
C60 O51 1.239 . S
C60 O52 1.256 . S
O61 Mn43 2.221 1_655 S
O61 Mn45 2.290 . S
O61 C55 1.278 1_655 S
O62 Mn45 2.251 . S
O62 C55 1.241 1_655 S
O63 Mn64 2.163 . S
O63 C77 1.244 . S
Mn64 O63 2.163 . S
Mn64 O67 2.160 . S
Mn64 O68 2.221 . S
Mn64 O70 2.163 1_455 S
Mn64 O72 2.160 . S
Mn64 O82 2.221 . S
O65 Mn66 2.087 . S
O65 C77 1.256 . S
Mn66 O65 2.087 . S
Mn66 O73 2.089 . S
Mn66 O82 2.290 . S
Mn66 O83 2.251 . S
O67 Mn64 2.160 . S
O67 C78 1.239 . S
O68 Mn64 2.221 . S
O68 Mn69 2.290 1_455 S
O68 C79 1.278 . S
Mn69 O68 2.290 1_655 S
Mn69 O71 2.089 1_655 S
Mn69 O74 2.251 1_655 S
Mn69 O75 2.087 . S
O70 Mn64 2.163 1_655 S
O70 C80 1.244 . S
O71 Mn69 2.089 1_455 S
O71 C78 1.256 . S
O72 Mn64 2.160 . S
O72 C81 1.239 . S
O73 Mn66 2.089 . S
O73 C81 1.256 . S
O74 Mn69 2.251 1_455 S
O74 C79 1.241 . S
O75 Mn69 2.087 . S
O75 C80 1.256 . S
C76 O82 1.278 . S
C76 O83 1.241 . S
C77 O63 1.244 . S
C77 O65 1.256 . S
C78 O67 1.239 . S
C78 O71 1.256 . S
C79 O68 1.278 . S
C79 O74 1.241 . S
C80 O70 1.244 . S
C80 O75 1.256 . S
C81 O72 1.239 . S
C81 O73 1.256 . S
O82 Mn64 2.221 . S
O82 Mn66 2.290 . S
O82 C76 1.278 . S
O83 Mn66 2.251 . S
O83 C76 1.241 . S
O84 Mn85 2.163 . S
O84 C98 1.244 . S
Mn85 O84 2.163 . S
Mn85 O88 2.160 1_655 S
Mn85 O89 2.221 1_655 S
Mn85 O91 2.163 1_655 S
Mn85 O93 2.160 . S
Mn85 O103 2.221 . S
O86 Mn87 2.087 . S
O86 C98 1.256 . S
Mn87 O86 2.087 . S
Mn87 O94 2.089 . S
Mn87 O103 2.290 . S
Mn87 O104 2.251 1_556 S
O88 Mn85 2.160 1_455 S
O88 C99 1.239 . S
O89 Mn85 2.221 1_455 S
O89 Mn90 2.290 . S
O89 C100 1.278 1_455 S
Mn90 O89 2.290 . S
Mn90 O92 2.089 . S
Mn90 O95 2.251 . S
Mn90 O96 2.087 . S
O91 Mn85 2.163 1_455 S
O91 C101 1.244 . S
O92 Mn90 2.089 . S
O92 C99 1.256 . S
O93 Mn85 2.160 . S
O93 C102 1.239 . S
O94 Mn87 2.089 . S
O94 C102 1.256 . S
O95 Mn90 2.251 . S
O95 C100 1.241 1_455 S
O96 Mn90 2.087 . S
O96 C101 1.256 . S
C97 O103 1.278 . S
C97 O104 1.241 1_556 S
C98 O84 1.244 . S
C98 O86 1.256 . S
C99 O88 1.239 . S
C99 O92 1.256 . S
C100 O89 1.278 1_655 S
C100 O95 1.241 1_655 S
C101 O91 1.244 . S
C101 O96 1.256 . S
C102 O93 1.239 . S
C102 O94 1.256 . S
O103 Mn85 2.221 . S
O103 Mn87 2.290 . S
O103 C97 1.278 . S
O104 Mn87 2.251 1_554 S
O104 C97 1.241 1_554 S
O105 Mn106 2.163 . S
O105 C119 1.244 . S
Mn106 O105 2.163 . S
Mn106 O109 2.160 . S
Mn106 O110 2.221 . S
Mn106 O112 2.163 1_655 S
Mn106 O114 2.160 . S
Mn106 O124 2.221 . S
O107 Mn108 2.087 . S
O107 C119 1.256 . S
Mn108 O107 2.087 . S
Mn108 O115 2.089 . S
Mn108 O124 2.290 . S
Mn108 O125 2.251 . S
O109 Mn106 2.160 . S
O109 C120 1.239 . S
O110 Mn106 2.221 . S
O110 Mn111 2.290 1_655 S
O110 C121 1.278 . S
Mn111 O110 2.290 1_455 S
Mn111 O113 2.089 1_455 S
Mn111 O116 2.251 1_456 S
Mn111 O117 2.087 . S
O112 Mn106 2.163 1_455 S
O112 C122 1.244 . S
O113 Mn111 2.089 1_655 S
O113 C120 1.256 . S
O114 Mn106 2.160 . S
O114 C123 1.239 . S
O115 Mn108 2.089 . S
O115 C123 1.256 . S
O116 Mn111 2.251 1_654 S
O116 C121 1.241 1_554 S
O117 Mn111 2.087 . S
O117 C122 1.256 . S
C118 O124 1.278 . S
C118 O125 1.241 . S
C119 O105 1.244 . S
C119 O107 1.256 . S
C120 O109 1.239 . S
C120 O113 1.256 . S
C121 O110 1.278 . S
C121 O116 1.241 1_556 S
C122 O112 1.244 . S
C122 O117 1.256 . S
C123 O114 1.239 . S
C123 O115 1.256 . S
O124 Mn106 2.221 . S
O124 Mn108 2.290 . S
O124 C118 1.278 . S
O125 Mn108 2.251 . S
O125 C118 1.241 . S
O126 Mn127 2.163 1_455 S
O126 C140 1.244 . S
Mn127 O126 2.163 1_655 S
Mn127 O130 2.160 . S
Mn127 O131 2.221 . S
Mn127 O133 2.163 . S
Mn127 O135 2.160 1_655 S
Mn127 O145 2.221 1_655 S
O128 Mn129 2.087 . S
O128 C140 1.256 . S
Mn129 O128 2.087 . S
Mn129 O136 2.089 . S
Mn129 O145 2.290 . S
Mn129 O146 2.251 . S
O130 Mn127 2.160 . S
O130 C141 1.239 . S
O131 Mn127 2.221 . S
O131 Mn132 2.290 . S
O131 C142 1.278 . S
Mn132 O131 2.290 . S
Mn132 O134 2.089 . S
Mn132 O137 2.251 . S
Mn132 O138 2.087 . S
O133 Mn127 2.163 . S
O133 C143 1.244 . S
O134 Mn132 2.089 . S
O134 C141 1.256 . S
O135 Mn127 2.160 1_455 S
O135 C144 1.239 . S
O136 Mn129 2.089 . S
O136 C144 1.256 . S
O137 Mn132 2.251 . S
O137 C142 1.241 . S
O138 Mn132 2.087 . S
O138 C143 1.256 . S
C139 O145 1.278 1_655 S
C139 O146 1.241 1_655 S
C140 O126 1.244 . S
C140 O128 1.256 . S
C141 O130 1.239 . S
C141 O134 1.256 . S
C142 O131 1.278 . S
C142 O137 1.241 . S
C143 O133 1.244 . S
C143 O138 1.256 . S
C144 O135 1.239 . S
C144 O136 1.256 . S
O145 Mn127 2.221 1_455 S
O145 Mn129 2.290 . S
O145 C139 1.278 1_455 S
O146 Mn129 2.251 . S
O146 C139 1.241 1_455 S
O147 Mn148 2.163 . S
O147 C161 1.244 . S
Mn148 O147 2.163 . S
Mn148 O151 2.160 . S
Mn148 O152 2.221 . S
Mn148 O154 2.163 1_655 S
Mn148 O156 2.160 . S
Mn148 O166 2.221 . S
O149 Mn150 2.087 . S
O149 C161 1.256 . S
Mn150 O149 2.087 . S
Mn150 O157 2.089 . S
Mn150 O166 2.290 . S
Mn150 O167 2.251 . S
O151 Mn148 2.160 . S
O151 C162 1.239 . S
O152 Mn148 2.221 . S
O152 Mn153 2.290 1_655 S
O152 C163 1.278 . S
Mn153 O152 2.290 1_455 S
Mn153 O155 2.089 1_455 S
Mn153 O158 2.251 1_455 S
Mn153 O159 2.087 . S
O154 Mn148 2.163 1_455 S
O154 C164 1.244 . S
O155 Mn153 2.089 1_655 S
O155 C162 1.256 . S
O156 Mn148 2.160 . S
O156 C165 1.239 . S
O157 Mn150 2.089 . S
O157 C165 1.256 . S
O158 Mn153 2.251 1_655 S
O158 C163 1.241 . S
O159 Mn153 2.087 . S
O159 C164 1.256 . S
C160 O166 1.278 . S
C160 O167 1.241 . S
C161 O147 1.244 . S
C161 O149 1.256 . S
C162 O151 1.239 . S
C162 O155 1.256 . S
C163 O152 1.278 . S
C163 O158 1.241 . S
C164 O154 1.244 . S
C164 O159 1.256 . S
C165 O156 1.239 . S
C165 O157 1.256 . S
O166 Mn148 2.221 . S
O166 Mn150 2.290 . S
O166 C160 1.278 . S
O167 Mn150 2.251 . S
O167 C160 1.241 . S
O168 Mn169 2.163 1_665 S
O168 C182 1.244 . S
Mn169 O168 2.163 1_445 S
Mn169 O172 2.160 . S
Mn169 O173 2.221 . S
Mn169 O175 2.163 1_545 S
Mn169 O177 2.160 1_455 S
Mn169 O187 2.221 1_445 S
O170 Mn171 2.087 . S
O170 C182 1.256 . S
Mn171 O170 2.087 . S
Mn171 O178 2.089 . S
Mn171 O187 2.290 . S
Mn171 O188 2.251 . S
O172 Mn169 2.160 . S
O172 C183 1.239 . S
O173 Mn169 2.221 . S
O173 Mn174 2.290 . S
O173 C184 1.278 1_545 S
Mn174 O173 2.290 . S
Mn174 O176 2.089 . S
Mn174 O179 2.251 . S
Mn174 O180 2.087 . S
O175 Mn169 2.163 1_565 S
O175 C185 1.244 1_565 S
O176 Mn174 2.089 . S
O176 C183 1.256 . S
O177 Mn169 2.160 1_655 S
O177 C186 1.232 1_545 S
O178 Mn171 2.089 . S
O178 C186 1.268 . S
O179 Mn174 2.251 . S
O179 C184 1.241 1_545 S
O180 Mn174 2.087 . S
O180 C185 1.256 . S
C181 O187 1.278 1_455 S
C181 O188 1.241 1_455 S
C182 O168 1.244 . S
C182 O170 1.256 . S
C183 O172 1.239 . S
C183 O176 1.256 . S
C184 O173 1.278 1_565 S
C184 O179 1.241 1_565 S
C185 O175 1.244 1_545 S
C185 O180 1.256 . S
C186 O177 1.232 1_565 S
C186 O178 1.268 . S
O187 Mn169 2.221 1_665 S
O187 Mn171 2.290 . S
O187 C181 1.278 1_655 S
O188 Mn171 2.251 . S
O188 C181 1.241 1_655 S
O189 Mn190 2.163 . S
O189 C203 1.244 . S
Mn190 O189 2.163 . S
Mn190 O193 2.160 . S
Mn190 O194 2.221 . S
Mn190 O196 2.163 1_455 S
Mn190 O198 2.160 . S
Mn190 O208 2.221 . S
O191 Mn192 2.087 . S
O191 C203 1.256 . S
Mn192 O191 2.087 . S
Mn192 O199 2.089 . S
Mn192 O208 2.290 . S
Mn192 O209 2.251 . S
O193 Mn190 2.160 . S
O193 C204 1.239 . S
O194 Mn190 2.221 . S
O194 Mn195 2.290 1_455 S
O194 C205 1.278 . S
Mn195 O194 2.290 1_655 S
Mn195 O197 2.089 1_655 S
Mn195 O200 2.251 1_655 S
Mn195 O201 2.087 . S
O196 Mn190 2.163 1_655 S
O196 C206 1.244 . S
O197 Mn195 2.089 1_455 S
O197 C204 1.256 . S
O198 Mn190 2.160 . S
O198 C207 1.239 . S
O199 Mn192 2.089 . S
O199 C207 1.256 . S
O200 Mn195 2.251 1_455 S
O200 C205 1.241 . S
O201 Mn195 2.087 . S
O201 C206 1.256 . S
C202 O208 1.278 . S
C202 O209 1.241 . S
C203 O189 1.244 . S
C203 O191 1.256 . S
C204 O193 1.239 . S
C204 O197 1.256 . S
C205 O194 1.278 . S
C205 O200 1.241 . S
C206 O196 1.244 . S
C206 O201 1.256 . S
C207 O198 1.239 . S
C207 O199 1.256 . S
O208 Mn190 2.221 . S
O208 Mn192 2.290 . S
O208 C202 1.278 . S
O209 Mn192 2.251 . S
O209 C202 1.241 . S
O210 Mn211 2.163 1_655 S
O210 C224 1.244 . S
Mn211 O210 2.163 1_455 S
Mn211 O214 2.160 . S
Mn211 O215 2.221 . S
Mn211 O217 2.163 . S
Mn211 O219 2.160 1_455 S
Mn211 O229 2.221 1_455 S
O212 Mn213 2.087 . S
O212 C224 1.256 . S
Mn213 O212 2.087 . S
Mn213 O220 2.089 . S
Mn213 O229 2.290 . S
Mn213 O230 2.251 . S
O214 Mn211 2.160 . S
O214 C225 1.239 . S
O215 Mn211 2.221 . S
O215 Mn216 2.290 . S
O215 C226 1.278 . S
Mn216 O215 2.290 . S
Mn216 O218 2.089 . S
Mn216 O221 2.251 . S
Mn216 O222 2.087 . S
O217 Mn211 2.163 . S
O217 C227 1.244 . S
O218 Mn216 2.089 . S
O218 C225 1.256 . S
O219 Mn211 2.160 1_655 S
O219 C228 1.239 . S
O220 Mn213 2.089 . S
O220 C228 1.256 . S
O221 Mn216 2.251 . S
O221 C226 1.241 . S
O222 Mn216 2.087 . S
O222 C227 1.256 . S
C223 O229 1.278 1_455 S
C223 O230 1.241 1_455 S
C224 O210 1.244 . S
C224 O212 1.256 . S
C225 O214 1.239 . S
C225 O218 1.256 . S
C226 O215 1.278 . S
C226 O221 1.241 . S
C227 O217 1.244 . S
C227 O222 1.256 . S
C228 O219 1.239 . S
C228 O220 1.256 . S
O229 Mn211 2.221 1_655 S
O229 Mn213 2.290 . S
O229 C223 1.278 1_655 S
O230 Mn213 2.251 . S
O230 C223 1.241 1_655 S
O231 Mn232 2.163 1_565 S
O231 C245 1.244 . S
Mn232 O231 2.163 1_545 S
Mn232 O235 2.160 . S
Mn232 O236 2.221 . S
Mn232 O238 2.163 1_445 S
Mn232 O240 2.160 . S
Mn232 O250 2.221 1_545 S
O233 Mn234 2.087 . S
O233 C245 1.256 . S
Mn234 O233 2.087 . S
Mn234 O241 2.089 . S
Mn234 O250 2.290 . S
Mn234 O251 2.251 . S
O235 Mn232 2.160 . S
O235 C246 1.239 . S
O236 Mn232 2.221 . S
O236 Mn237 2.290 1_455 S
O236 C247 1.278 1_545 S
Mn237 O236 2.290 1_655 S
Mn237 O239 2.089 1_655 S
Mn237 O242 2.251 1_655 S
Mn237 O243 2.087 . S
O238 Mn232 2.163 1_665 S
O238 C248 1.244 1_565 S
O239 Mn237 2.089 1_455 S
O239 C246 1.256 . S
O240 Mn232 2.160 . S
O240 C249 1.232 1_545 S
O241 Mn234 2.089 . S
O241 C249 1.268 . S
O242 Mn237 2.251 1_455 S
O242 C247 1.241 1_545 S
O243 Mn237 2.087 . S
O243 C248 1.256 . S
C244 O250 1.278 . S
C244 O251 1.241 . S
C245 O231 1.244 . S
C245 O233 1.256 . S
C246 O235 1.239 . S
C246 O239 1.256 . S
C247 O236 1.278 1_565 S
C247 O242 1.241 1_565 S
C248 O238 1.244 1_545 S
C248 O243 1.256 . S
C249 O240 1.232 1_565 S
C249 O241 1.268 . S
O250 Mn232 2.221 1_565 S
O250 Mn234 2.290 . S
O250 C244 1.278 . S
O251 Mn234 2.251 . S
O251 C244 1.241 . S
O252 Mn253 2.163 1_545 S
O252 C266 1.244 1_545 S
Mn253 O252 2.163 1_565 S
Mn253 O256 2.160 1_655 S
Mn253 O257 2.221 1_665 S
Mn253 O259 2.163 1_665 S
Mn253 O261 2.160 . S
Mn253 O271 2.221 . S
O254 Mn255 2.087 . S
O254 C266 1.256 . S
Mn255 O254 2.087 . S
Mn255 O262 2.089 . S
Mn255 O271 2.290 . S
Mn255 O272 2.251 . S
O256 Mn253 2.160 1_455 S
O256 C267 1.232 1_565 S
O257 Mn253 2.221 1_445 S
O257 Mn258 2.290 . S
O257 C268 1.278 1_455 S
Mn258 O257 2.290 . S
Mn258 O260 2.089 . S
Mn258 O263 2.251 . S
Mn258 O264 2.087 . S
O259 Mn253 2.163 1_445 S
O259 C269 1.244 . S
O260 Mn258 2.089 . S
O260 C267 1.268 . S
O261 Mn253 2.160 . S
O261 C270 1.239 . S
O262 Mn255 2.089 . S
O262 C270 1.256 . S
O263 Mn258 2.251 . S
O263 C268 1.241 1_455 S
O264 Mn258 2.087 . S
O264 C269 1.256 . S
C265 O271 1.278 1_545 S
C265 O272 1.241 1_545 S
C266 O252 1.244 1_565 S
C266 O254 1.256 . S
C267 O256 1.232 1_545 S
C267 O260 1.268 . S
C268 O257 1.278 1_655 S
C268 O263 1.241 1_655 S
C269 O259 1.244 . S
C269 O264 1.256 . S
C270 O261 1.239 . S
C270 O262 1.256 . S
O271 Mn253 2.221 . S
O271 Mn255 2.290 . S
O271 C265 1.278 1_565 S
O272 Mn255 2.251 . S
O272 C265 1.241 1_565 S
O273 Mn274 2.163 . S
O273 C287 1.244 . S
Mn274 O273 2.163 . S
Mn274 O277 2.160 . S
Mn274 O278 2.221 . S
Mn274 O280 2.163 1_655 S
Mn274 O282 2.160 . S
Mn274 O292 2.221 . S
O275 Mn276 2.087 . S
O275 C287 1.256 . S
Mn276 O275 2.087 . S
Mn276 O283 2.089 . S
Mn276 O292 2.290 . S
Mn276 O293 2.251 . S
O277 Mn274 2.160 . S
O277 C288 1.239 . S
O278 Mn274 2.221 . S
O278 Mn279 2.290 1_655 S
O278 C289 1.278 . S
Mn279 O278 2.290 1_455 S
Mn279 O281 2.089 1_455 S
Mn279 O284 2.251 1_455 S
Mn279 O285 2.087 . S
O280 Mn274 2.163 1_455 S
O280 C290 1.244 . S
O281 Mn279 2.089 1_655 S
O281 C288 1.256 . S
O282 Mn274 2.160 . S
O282 C291 1.239 . S
O283 Mn276 2.089 . S
O283 C291 1.256 . S
O284 Mn279 2.251 1_655 S
O284 C289 1.241 . S
O285 Mn279 2.087 . S
O285 C290 1.256 . S
C286 O292 1.278 . S
C286 O293 1.241 . S
C287 O273 1.244 . S
C287 O275 1.256 . S
C288 O277 1.239 . S
C288 O281 1.256 . S
C289 O278 1.278 . S
C289 O284 1.241 . S
C290 O280 1.244 . S
C290 O285 1.256 . S
C291 O282 1.239 . S
C291 O283 1.256 . S
O292 Mn274 2.221 . S
O292 Mn276 2.290 . S
O292 C286 1.278 . S
O293 Mn276 2.251 . S
O293 C286 1.241 . S
O294 Mn295 2.163 1_455 S
O294 C308 1.244 . S
Mn295 O294 2.163 1_655 S
Mn295 O298 2.160 . S
Mn295 O299 2.221 . S
Mn295 O301 2.163 . S
Mn295 O303 2.160 1_655 S
Mn295 O313 2.221 1_655 S
O296 Mn297 2.087 . S
O296 C308 1.256 . S
Mn297 O296 2.087 . S
Mn297 O304 2.089 . S
Mn297 O313 2.290 . S
Mn297 O314 2.251 . S
O298 Mn295 2.160 . S
O298 C309 1.239 . S
O299 Mn295 2.221 . S
O299 Mn300 2.290 . S
O299 C310 1.278 . S
Mn300 O299 2.290 . S
Mn300 O302 2.089 . S
Mn300 O305 2.251 . S
Mn300 O306 2.087 . S
O301 Mn295 2.163 . S
O301 C311 1.244 . S
O302 Mn300 2.089 . S
O302 C309 1.256 . S
O303 Mn295 2.160 1_455 S
O303 C312 1.239 . S
O304 Mn297 2.089 . S
O304 C312 1.256 . S
O305 Mn300 2.251 . S
O305 C310 1.241 . S
O306 Mn300 2.087 . S
O306 C311 1.256 . S
C307 O313 1.278 1_655 S
C307 O314 1.241 1_655 S
C308 O294 1.244 . S
C308 O296 1.256 . S
C309 O298 1.239 . S
C309 O302 1.256 . S
C310 O299 1.278 . S
C310 O305 1.241 . S
C311 O301 1.244 . S
C311 O306 1.256 . S
C312 O303 1.239 . S
C312 O304 1.256 . S
O313 Mn295 2.221 1_455 S
O313 Mn297 2.290 . S
O313 C307 1.278 1_455 S
O314 Mn297 2.251 . S
O314 C307 1.241 1_455 S
O315 Mn316 2.163 1_545 S
O315 C329 1.244 . S
Mn316 O315 2.163 1_565 S
Mn316 O319 2.160 . S
Mn316 O320 2.221 . S
Mn316 O322 2.163 1_665 S
Mn316 O324 2.160 . S
Mn316 O334 2.221 1_565 S
O317 Mn318 2.087 . S
O317 C329 1.256 . S
Mn318 O317 2.087 . S
Mn318 O325 2.089 . S
Mn318 O334 2.290 . S
Mn318 O335 2.251 . S
O319 Mn316 2.160 . S
O319 C330 1.239 . S
O320 Mn316 2.221 . S
O320 Mn321 2.290 1_655 S
O320 C331 1.278 1_565 S
Mn321 O320 2.290 1_455 S
Mn321 O323 2.089 1_455 S
Mn321 O326 2.251 1_455 S
Mn321 O327 2.087 . S
O322 Mn316 2.163 1_445 S
O322 C332 1.244 1_545 S
O323 Mn321 2.089 1_655 S
O323 C330 1.256 . S
O324 Mn316 2.160 . S
O324 C333 1.232 1_565 S
O325 Mn318 2.089 . S
O325 C333 1.268 . S
O326 Mn321 2.251 1_655 S
O326 C331 1.241 1_565 S
O327 Mn321 2.087 . S
O327 C332 1.256 . S
C328 O334 1.278 . S
C328 O335 1.241 . S
C329 O315 1.244 . S
C329 O317 1.256 . S
C330 O319 1.239 . S
C330 O323 1.256 . S
C331 O320 1.278 1_545 S
C331 O326 1.241 1_545 S
C332 O322 1.244 1_565 S
C332 O327 1.256 . S
C333 O324 1.232 1_545 S
C333 O325 1.268 . S
O334 Mn316 2.221 1_545 S
O334 Mn318 2.290 . S
O334 C328 1.278 . S
O335 Mn318 2.251 . S
O335 C328 1.241 . S
O336 Mn337 2.163 . S
O336 C350 1.244 . S
Mn337 O336 2.163 . S
Mn337 O340 2.160 . S
Mn337 O341 2.221 . S
Mn337 O343 2.163 . S
Mn337 O345 2.160 . S
Mn337 O355 2.221 . S
O338 Mn339 2.087 . S
O338 C350 1.256 . S
Mn339 O338 2.087 . S
Mn339 O346 2.089 . S
Mn339 O355 2.290 . S
Mn339 O356 2.251 . S
O340 Mn337 2.160 . S
O340 C351 1.239 . S
O341 Mn337 2.221 . S
O341 Mn342 2.290 . S
O341 C352 1.278 . S
Mn342 O341 2.290 . S
Mn342 O344 2.089 . S
Mn342 O347 2.251 . S
Mn342 O348 2.087 . S
O343 Mn337 2.163 . S
O343 C353 1.244 . S
O344 Mn342 2.089 . S
O344 C351 1.256 . S
O345 Mn337 2.160 . S
O345 C354 1.239 . S
O346 Mn339 2.089 . S
O346 C354 1.256 . S
O347 Mn342 2.251 . S
O347 C352 1.241 . S
O348 Mn342 2.087 . S
O348 C353 1.256 . S
C349 O355 1.278 . S
C349 O356 1.241 . S
C350 O336 1.244 . S
C350 O338 1.256 . S
C351 O340 1.239 . S
C351 O344 1.256 . S
C352 O341 1.278 . S
C352 O347 1.241 . S
C353 O343 1.244 . S
C353 O348 1.256 . S
C354 O345 1.239 . S
C354 O346 1.256 . S
O355 Mn337 2.221 . S
O355 Mn339 2.290 . S
O355 C349 1.278 . S
O356 Mn339 2.251 . S
O356 C349 1.241 . S
O357 Mn358 2.163 . S
O357 C371 1.244 . S
Mn358 O357 2.163 . S
Mn358 O361 2.160 . S
Mn358 O362 2.221 . S
Mn358 O364 2.163 . S
Mn358 O366 2.160 1_655 S
Mn358 O376 2.221 . S
O359 Mn360 2.087 . S
O359 C371 1.256 . S
Mn360 O359 2.087 . S
Mn360 O367 2.089 1_655 S
Mn360 O376 2.290 . S
Mn360 O377 2.251 . S
O361 Mn358 2.160 . S
O361 C372 1.239 . S
O362 Mn358 2.221 . S
O362 Mn363 2.290 . S
O362 C373 1.278 . S
Mn363 O362 2.290 . S
Mn363 O365 2.089 . S
Mn363 O368 2.251 . S
Mn363 O369 2.087 . S
O364 Mn358 2.163 . S
O364 C374 1.244 . S
O365 Mn363 2.089 . S
O365 C372 1.256 . S
O366 Mn358 2.160 1_455 S
O366 C375 1.239 . S
O367 Mn360 2.089 1_455 S
O367 C375 1.256 . S
O368 Mn363 2.251 . S
O368 C373 1.241 . S
O369 Mn363 2.087 . S
O369 C374 1.256 . S
C370 O376 1.278 . S
C370 O377 1.241 . S
C371 O357 1.244 . S
C371 O359 1.256 . S
C372 O361 1.239 . S
C372 O365 1.256 . S
C373 O362 1.278 . S
C373 O368 1.241 . S
C374 O364 1.244 . S
C374 O369 1.256 . S
C375 O366 1.239 . S
C375 O367 1.256 . S
O376 Mn358 2.221 . S
O376 Mn360 2.290 . S
O376 C370 1.278 . S
O377 Mn360 2.251 . S
O377 C370 1.241 . S
O378 Mn379 2.163 . S
O378 C392 1.244 . S
Mn379 O378 2.163 . S
Mn379 O382 2.160 . S
Mn379 O383 2.221 . S
Mn379 O385 2.163 . S
Mn379 O387 2.160 . S
Mn379 O397 2.221 . S
O380 Mn381 2.087 . S
O380 C392 1.256 . S
Mn381 O380 2.087 . S
Mn381 O388 2.089 . S
Mn381 O397 2.290 . S
Mn381 O398 2.251 . S
O382 Mn379 2.160 . S
O382 C393 1.239 . S
O383 Mn379 2.221 . S
O383 Mn384 2.290 . S
O383 C394 1.278 . S
Mn384 O383 2.290 . S
Mn384 O386 2.089 . S
Mn384 O389 2.251 . S
Mn384 O390 2.087 . S
O385 Mn379 2.163 . S
O385 C395 1.244 . S
O386 Mn384 2.089 . S
O386 C393 1.256 . S
O387 Mn379 2.160 . S
O387 C396 1.239 . S
O388 Mn381 2.089 . S
O388 C396 1.256 . S
O389 Mn384 2.251 . S
O389 C394 1.241 . S
O390 Mn384 2.087 . S
O390 C395 1.256 . S
C391 O397 1.278 . S
C391 O398 1.241 . S
C392 O378 1.244 . S
C392 O380 1.256 . S
C393 O382 1.239 . S
C393 O386 1.256 . S
C394 O383 1.278 . S
C394 O389 1.241 . S
C395 O385 1.244 . S
C395 O390 1.256 . S
C396 O387 1.239 . S
C396 O388 1.256 . S
O397 Mn379 2.221 . S
O397 Mn381 2.290 . S
O397 C391 1.278 . S
O398 Mn381 2.251 . S
O398 C391 1.241 . S
O399 Mn400 2.163 . S
O399 C413 1.244 . S
Mn400 O399 2.163 . S
Mn400 O403 2.160 . S
Mn400 O404 2.221 . S
Mn400 O406 2.163 . S
Mn400 O408 2.160 1_655 S
Mn400 O418 2.221 . S
O401 Mn402 2.087 . S
O401 C413 1.256 . S
Mn402 O401 2.087 . S
Mn402 O409 2.089 1_655 S
Mn402 O418 2.290 . S
Mn402 O419 2.251 . S
O403 Mn400 2.160 . S
O403 C414 1.239 . S
O404 Mn400 2.221 . S
O404 Mn405 2.290 . S
O404 C415 1.278 . S
Mn405 O404 2.290 . S
Mn405 O407 2.089 . S
Mn405 O410 2.251 . S
Mn405 O411 2.087 . S
O406 Mn400 2.163 . S
O406 C416 1.244 . S
O407 Mn405 2.089 . S
O407 C414 1.256 . S
O408 Mn400 2.160 1_455 S
O408 C417 1.239 . S
O409 Mn402 2.089 1_455 S
O409 C417 1.256 . S
O410 Mn405 2.251 . S
O410 C415 1.241 . S
O411 Mn405 2.087 . S
O411 C416 1.256 . S
C412 O418 1.278 . S
C412 O419 1.241 . S
C413 O399 1.244 . S
C413 O401 1.256 . S
C414 O403 1.239 . S
C414 O407 1.256 . S
C415 O404 1.278 . S
C415 O410 1.241 . S
C416 O406 1.244 . S
C416 O411 1.256 . S
C417 O408 1.239 . S
C417 O409 1.256 . S
O418 Mn400 2.221 . S
O418 Mn402 2.290 . S
O418 C412 1.278 . S
O419 Mn402 2.251 . S
O419 C412 1.241 . S
O420 Mn421 2.163 . S
O420 C434 1.244 . S
Mn421 O420 2.163 . S
Mn421 O424 2.160 . S
Mn421 O425 2.221 . S
Mn421 O427 2.163 . S
Mn421 O429 2.160 . S
Mn421 O439 2.221 . S
O422 Mn423 2.087 . S
O422 C434 1.256 . S
Mn423 O422 2.087 . S
Mn423 O430 2.089 . S
Mn423 O439 2.290 . S
Mn423 O440 2.251 . S
O424 Mn421 2.160 . S
O424 C435 1.239 . S
O425 Mn421 2.221 . S
O425 Mn426 2.290 . S
O425 C436 1.278 . S
Mn426 O425 2.290 . S
Mn426 O428 2.089 . S
Mn426 O431 2.251 . S
Mn426 O432 2.087 . S
O427 Mn421 2.163 . S
O427 C437 1.244 . S
O428 Mn426 2.089 . S
O428 C435 1.256 . S
O429 Mn421 2.160 . S
O429 C438 1.239 . S
O430 Mn423 2.089 . S
O430 C438 1.256 . S
O431 Mn426 2.251 . S
O431 C436 1.241 . S
O432 Mn426 2.087 . S
O432 C437 1.256 . S
C433 O439 1.278 . S
C433 O440 1.241 . S
C434 O420 1.244 . S
C434 O422 1.256 . S
C435 O424 1.239 . S
C435 O428 1.256 . S
C436 O425 1.278 . S
C436 O431 1.241 . S
C437 O427 1.244 . S
C437 O432 1.256 . S
C438 O429 1.239 . S
C438 O430 1.256 . S
O439 Mn421 2.221 . S
O439 Mn423 2.290 . S
O439 C433 1.278 . S
O440 Mn423 2.251 . S
O440 C433 1.241 . S
O441 Mn442 2.163 . S
O441 C455 1.244 . S
Mn442 O441 2.163 . S
Mn442 O445 2.160 . S
Mn442 O446 2.221 . S
Mn442 O448 2.163 . S
Mn442 O450 2.160 1_455 S
Mn442 O460 2.221 . S
O443 Mn444 2.087 . S
O443 C455 1.256 . S
Mn444 O443 2.087 . S
Mn444 O451 2.089 1_455 S
Mn444 O460 2.290 . S
Mn444 O461 2.251 . S
O445 Mn442 2.160 . S
O445 C456 1.239 . S
O446 Mn442 2.221 . S
O446 Mn447 2.290 . S
O446 C457 1.278 . S
Mn447 O446 2.290 . S
Mn447 O449 2.089 . S
Mn447 O452 2.251 . S
Mn447 O453 2.087 . S
O448 Mn442 2.163 . S
O448 C458 1.244 . S
O449 Mn447 2.089 . S
O449 C456 1.256 . S
O450 Mn442 2.160 1_655 S
O450 C459 1.239 . S
O451 Mn444 2.089 1_655 S
O451 C459 1.256 . S
O452 Mn447 2.251 . S
O452 C457 1.241 . S
O453 Mn447 2.087 . S
O453 C458 1.256 . S
C454 O460 1.278 . S
C454 O461 1.241 . S
C455 O441 1.244 . S
C455 O443 1.256 . S
C456 O445 1.239 . S
C456 O449 1.256 . S
C457 O446 1.278 . S
C457 O452 1.241 . S
C458 O448 1.244 . S
C458 O453 1.256 . S
C459 O450 1.239 . S
C459 O451 1.256 . S
O460 Mn442 2.221 . S
O460 Mn444 2.290 . S
O460 C454 1.278 . S
O461 Mn444 2.251 . S
O461 C454 1.241 . S
O462 Mn463 2.163 . S
O462 C476 1.244 . S
Mn463 O462 2.163 . S
Mn463 O466 2.160 . S
Mn463 O467 2.221 . S
Mn463 O469 2.163 . S
Mn463 O471 2.160 . S
Mn463 O481 2.221 . S
O464 Mn465 2.087 . S
O464 C476 1.256 . S
Mn465 O464 2.087 . S
Mn465 O472 2.089 . S
Mn465 O481 2.290 . S
Mn465 O482 2.251 . S
O466 Mn463 2.160 . S
O466 C477 1.239 . S
O467 Mn463 2.221 . S
O467 Mn468 2.290 . S
O467 C478 1.278 . S
Mn468 O467 2.290 . S
Mn468 O470 2.089 . S
Mn468 O473 2.251 . S
Mn468 O474 2.087 . S
O469 Mn463 2.163 . S
O469 C479 1.244 . S
O470 Mn468 2.089 . S
O470 C477 1.256 . S
O471 Mn463 2.160 . S
O471 C480 1.239 . S
O472 Mn465 2.089 . S
O472 C480 1.256 . S
O473 Mn468 2.251 . S
O473 C478 1.241 . S
O474 Mn468 2.087 . S
O474 C479 1.256 . S
C475 O481 1.278 . S
C475 O482 1.241 . S
C476 O462 1.244 . S
C476 O464 1.256 . S
C477 O466 1.239 . S
C477 O470 1.256 . S
C478 O467 1.278 . S
C478 O473 1.241 . S
C479 O469 1.244 . S
C479 O474 1.256 . S
C480 O471 1.239 . S
C480 O472 1.256 . S
O481 Mn463 2.221 . S
O481 Mn465 2.290 . S
O481 C475 1.278 . S
O482 Mn465 2.251 . S
O482 C475 1.241 . S
O483 Mn484 2.163 . S
O483 C497 1.244 . S
Mn484 O483 2.163 . S
Mn484 O487 2.160 . S
Mn484 O488 2.221 . S
Mn484 O490 2.163 . S
Mn484 O492 2.160 1_455 S
Mn484 O502 2.221 . S
O485 Mn486 2.087 . S
O485 C497 1.256 . S
Mn486 O485 2.087 . S
Mn486 O493 2.089 1_455 S
Mn486 O502 2.290 . S
Mn486 O503 2.251 . S
O487 Mn484 2.160 . S
O487 C498 1.239 . S
O488 Mn484 2.221 . S
O488 Mn489 2.290 . S
O488 C499 1.278 . S
Mn489 O488 2.290 . S
Mn489 O491 2.089 . S
Mn489 O494 2.251 . S
Mn489 O495 2.087 . S
O490 Mn484 2.163 . S
O490 C500 1.244 . S
O491 Mn489 2.089 . S
O491 C498 1.256 . S
O492 Mn484 2.160 1_655 S
O492 C501 1.239 . S
O493 Mn486 2.089 1_655 S
O493 C501 1.256 . S
O494 Mn489 2.251 . S
O494 C499 1.241 . S
O495 Mn489 2.087 . S
O495 C500 1.256 . S
C496 O502 1.278 . S
C496 O503 1.241 . S
C497 O483 1.244 . S
C497 O485 1.256 . S
C498 O487 1.239 . S
C498 O491 1.256 . S
C499 O488 1.278 . S
C499 O494 1.241 . S
C500 O490 1.244 . S
C500 O495 1.256 . S
C501 O492 1.239 . S
C501 O493 1.256 . S
O502 Mn484 2.221 . S
O502 Mn486 2.290 . S
O502 C496 1.278 . S
O503 Mn486 2.251 . S
O503 C496 1.241 . S
O504 Mn505 2.163 1_565 S
O504 C518 1.244 . S
Mn505 O504 2.163 1_545 S
Mn505 O508 2.160 . S
Mn505 O509 2.221 . S
Mn505 O511 2.163 1_545 S
Mn505 O513 2.160 . S
Mn505 O523 2.221 1_545 S
O506 Mn507 2.087 . S
O506 C518 1.256 . S
Mn507 O506 2.087 . S
Mn507 O514 2.089 . S
Mn507 O523 2.290 . S
Mn507 O524 2.251 . S
O508 Mn505 2.160 . S
O508 C519 1.239 . S
O509 Mn505 2.221 . S
O509 Mn510 2.290 . S
O509 C520 1.278 1_545 S
Mn510 O509 2.290 . S
Mn510 O512 2.089 . S
Mn510 O515 2.251 1_554 S
Mn510 O516 2.087 . S
O511 Mn505 2.163 1_565 S
O511 C521 1.244 1_565 S
O512 Mn510 2.089 . S
O512 C519 1.256 . S
O513 Mn505 2.160 . S
O513 C522 1.232 1_545 S
O514 Mn507 2.089 . S
O514 C522 1.268 . S
O515 Mn510 2.251 1_556 S
O515 C520 1.241 1_546 S
O516 Mn510 2.087 . S
O516 C521 1.256 . S
C517 O523 1.278 . S
C517 O524 1.241 . S
C518 O504 1.244 . S
C518 O506 1.256 . S
C519 O508 1.239 . S
C519 O512 1.256 . S
C520 O509 1.278 1_565 S
C520 O515 1.241 1_564 S
C521 O511 1.244 1_545 S
C521 O516 1.256 . S
C522 O513 1.232 1_565 S
C522 O514 1.268 . S
O523 Mn505 2.221 1_565 S
O523 Mn507 2.290 . S
O523 C517 1.278 . S
O524 Mn507 2.251 . S
O524 C517 1.241 . S
O525 Mn526 2.163 . S
O525 C539 1.244 . S
Mn526 O525 2.163 . S
Mn526 O529 2.160 . S
Mn526 O530 2.221 . S
Mn526 O532 2.163 . S
Mn526 O534 2.160 1_655 S
Mn526 O544 2.221 . S
O527 Mn528 2.087 . S
O527 C539 1.256 . S
Mn528 O527 2.087 . S
Mn528 O535 2.089 1_655 S
Mn528 O544 2.290 . S
Mn528 O545 2.251 . S
O529 Mn526 2.160 . S
O529 C540 1.239 . S
O530 Mn526 2.221 . S
O530 Mn531 2.290 . S
O530 C541 1.278 . S
Mn531 O530 2.290 . S
Mn531 O533 2.089 . S
Mn531 O536 2.251 1_554 S
Mn531 O537 2.087 . S
O532 Mn526 2.163 . S
O532 C542 1.244 . S
O533 Mn531 2.089 . S
O533 C540 1.256 . S
O534 Mn526 2.160 1_455 S
O534 C543 1.239 . S
O535 Mn528 2.089 1_455 S
O535 C543 1.256 . S
O536 Mn531 2.251 1_556 S
O536 C541 1.241 1_556 S
O537 Mn531 2.087 . S
O537 C542 1.256 . S
C538 O544 1.278 . S
C538 O545 1.241 . S
C539 O525 1.244 . S
C539 O527 1.256 . S
C540 O529 1.239 . S
C540 O533 1.256 . S
C541 O530 1.278 . S
C541 O536 1.241 1_554 S
C542 O532 1.244 . S
C542 O537 1.256 . S
C543 O534 1.239 . S
C543 O535 1.256 . S
O544 Mn526 2.221 . S
O544 Mn528 2.290 . S
O544 C538 1.278 . S
O545 Mn528 2.251 . S
O545 C538 1.241 . S
O546 Mn547 2.163 . S
O546 C560 1.244 . S
Mn547 O546 2.163 . S
Mn547 O550 2.160 . S
Mn547 O551 2.221 . S
Mn547 O553 2.163 . S
Mn547 O555 2.160 . S
Mn547 O565 2.221 . S
O548 Mn549 2.087 . S
O548 C560 1.256 . S
Mn549 O548 2.087 . S
Mn549 O556 2.089 . S
Mn549 O565 2.290 . S
Mn549 O566 2.251 . S
O550 Mn547 2.160 . S
O550 C561 1.239 . S
O551 Mn547 2.221 . S
O551 Mn552 2.290 . S
O551 C562 1.278 . S
Mn552 O551 2.290 . S
Mn552 O554 2.089 . S
Mn552 O557 2.251 . S
Mn552 O558 2.087 . S
O553 Mn547 2.163 . S
O553 C563 1.244 . S
O554 Mn552 2.089 . S
O554 C561 1.256 . S
O555 Mn547 2.160 . S
O555 C564 1.239 . S
O556 Mn549 2.089 . S
O556 C564 1.256 . S
O557 Mn552 2.251 . S
O557 C562 1.241 . S
O558 Mn552 2.087 . S
O558 C563 1.256 . S
C559 O565 1.278 . S
C559 O566 1.241 . S
C560 O546 1.244 . S
C560 O548 1.256 . S
C561 O550 1.239 . S
C561 O554 1.256 . S
C562 O551 1.278 . S
C562 O557 1.241 . S
C563 O553 1.244 . S
C563 O558 1.256 . S
C564 O555 1.239 . S
C564 O556 1.256 . S
O565 Mn547 2.221 . S
O565 Mn549 2.290 . S
O565 C559 1.278 . S
O566 Mn549 2.251 . S
O566 C559 1.241 . S
O567 Mn568 2.163 1_565 S
O567 C581 1.244 . S
Mn568 O567 2.163 1_545 S
Mn568 O571 2.160 . S
Mn568 O572 2.221 . S
Mn568 O574 2.163 1_545 S
Mn568 O576 2.160 1_655 S
Mn568 O586 2.221 1_545 S
O569 Mn570 2.087 . S
O569 C581 1.256 . S
Mn570 O569 2.087 . S
Mn570 O577 2.089 1_655 S
Mn570 O586 2.290 . S
Mn570 O587 2.251 . S
O571 Mn568 2.160 . S
O571 C582 1.239 . S
O572 Mn568 2.221 . S
O572 Mn573 2.290 . S
O572 C583 1.278 1_545 S
Mn573 O572 2.290 . S
Mn573 O575 2.089 . S
Mn573 O578 2.251 . S
Mn573 O579 2.087 . S
O574 Mn568 2.163 1_565 S
O574 C584 1.244 1_565 S
O575 Mn573 2.089 . S
O575 C582 1.256 . S
O576 Mn568 2.160 1_455 S
O576 C585 1.232 1_545 S
O577 Mn570 2.089 1_455 S
O577 C585 1.268 . S
O578 Mn573 2.251 . S
O578 C583 1.241 1_545 S
O579 Mn573 2.087 . S
O579 C584 1.256 . S
C580 O586 1.278 . S
C580 O587 1.241 . S
C581 O567 1.244 . S
C581 O569 1.256 . S
C582 O571 1.239 . S
C582 O575 1.256 . S
C583 O572 1.278 1_565 S
C583 O578 1.241 1_565 S
C584 O574 1.244 1_545 S
C584 O579 1.256 . S
C585 O576 1.232 1_565 S
C585 O577 1.268 . S
O586 Mn568 2.221 1_565 S
O586 Mn570 2.290 . S
O586 C580 1.278 . S
O587 Mn570 2.251 . S
O587 C580 1.241 . S
O588 Mn589 2.163 1_545 S
O588 C602 1.244 1_545 S
Mn589 O588 2.163 1_565 S
Mn589 O592 2.160 . S
Mn589 O593 2.221 1_565 S
Mn589 O595 2.163 1_565 S
Mn589 O597 2.160 . S
Mn589 O607 2.221 . S
O590 Mn591 2.087 . S
O590 C602 1.256 . S
Mn591 O590 2.087 . S
Mn591 O598 2.089 . S
Mn591 O607 2.290 . S
Mn591 O608 2.251 1_556 S
O592 Mn589 2.160 . S
O592 C603 1.232 1_565 S
O593 Mn589 2.221 1_545 S
O593 Mn594 2.290 . S
O593 C604 1.278 . S
Mn594 O593 2.290 . S
Mn594 O596 2.089 . S
Mn594 O599 2.251 . S
Mn594 O600 2.087 . S
O595 Mn589 2.163 1_545 S
O595 C605 1.244 . S
O596 Mn594 2.089 . S
O596 C603 1.268 . S
O597 Mn589 2.160 . S
O597 C606 1.239 . S
O598 Mn591 2.089 . S
O598 C606 1.256 . S
O599 Mn594 2.251 . S
O599 C604 1.241 . S
O600 Mn594 2.087 . S
O600 C605 1.256 . S
C601 O607 1.278 1_545 S
C601 O608 1.241 1_546 S
C602 O588 1.244 1_565 S
C602 O590 1.256 . S
C603 O592 1.232 1_545 S
C603 O596 1.268 . S
C604 O593 1.278 . S
C604 O599 1.241 . S
C605 O595 1.244 . S
C605 O600 1.256 . S
C606 O597 1.239 . S
C606 O598 1.256 . S
O607 Mn589 2.221 . S
O607 Mn591 2.290 . S
O607 C601 1.278 1_565 S
O608 Mn591 2.251 1_554 S
O608 C601 1.241 1_564 S
O609 Mn610 2.163 . S
O609 C623 1.244 . S
Mn610 O609 2.163 . S
Mn610 O613 2.160 . S
Mn610 O614 2.221 . S
Mn610 O616 2.163 . S
Mn610 O618 2.160 1_455 S
Mn610 O628 2.221 . S
O611 Mn612 2.087 . S
O611 C623 1.256 . S
Mn612 O611 2.087 . S
Mn612 O619 2.089 1_455 S
Mn612 O628 2.290 . S
Mn612 O629 2.251 . S
O613 Mn610 2.160 . S
O613 C624 1.239 . S
O614 Mn610 2.221 . S
O614 Mn615 2.290 . S
O614 C625 1.278 . S
Mn615 O614 2.290 . S
Mn615 O617 2.089 . S
Mn615 O620 2.251 1_556 S
Mn615 O621 2.087 . S
O616 Mn610 2.163 . S
O616 C626 1.244 . S
O617 Mn615 2.089 . S
O617 C624 1.256 . S
O618 Mn610 2.160 1_655 S
O618 C627 1.239 . S
O619 Mn612 2.089 1_655 S
O619 C627 1.256 . S
O620 Mn615 2.251 1_554 S
O620 C625 1.241 1_554 S
O621 Mn615 2.087 . S
O621 C626 1.256 . S
C622 O628 1.278 . S
C622 O629 1.241 . S
C623 O609 1.244 . S
C623 O611 1.256 . S
C624 O613 1.239 . S
C624 O617 1.256 . S
C625 O614 1.278 . S
C625 O620 1.241 1_556 S
C626 O616 1.244 . S
C626 O621 1.256 . S
C627 O618 1.239 . S
C627 O619 1.256 . S
O628 Mn610 2.221 . S
O628 Mn612 2.290 . S
O628 C622 1.278 . S
O629 Mn612 2.251 . S
O629 C622 1.241 . S
O630 Mn631 2.163 . S
O630 C644 1.244 . S
Mn631 O630 2.163 . S
Mn631 O634 2.160 . S
Mn631 O635 2.221 . S
Mn631 O637 2.163 . S
Mn631 O639 2.160 . S
Mn631 O649 2.221 . S
O632 Mn633 2.087 . S
O632 C644 1.256 . S
Mn633 O632 2.087 . S
Mn633 O640 2.089 . S
Mn633 O649 2.290 . S
Mn633 O650 2.251 . S
O634 Mn631 2.160 . S
O634 C645 1.239 . S
O635 Mn631 2.221 . S
O635 Mn636 2.290 . S
O635 C646 1.278 . S
Mn636 O635 2.290 . S
Mn636 O638 2.089 . S
Mn636 O641 2.251 . S
Mn636 O642 2.087 . S
O637 Mn631 2.163 . S
O637 C647 1.244 . S
O638 Mn636 2.089 . S
O638 C645 1.256 . S
O639 Mn631 2.160 . S
O639 C648 1.239 . S
O640 Mn633 2.089 . S
O640 C648 1.256 . S
O641 Mn636 2.251 . S
O641 C646 1.241 . S
O642 Mn636 2.087 . S
O642 C647 1.256 . S
C643 O649 1.278 . S
C643 O650 1.241 . S
C644 O630 1.244 . S
C644 O632 1.256 . S
C645 O634 1.239 . S
C645 O638 1.256 . S
C646 O635 1.278 . S
C646 O641 1.241 . S
C647 O637 1.244 . S
C647 O642 1.256 . S
C648 O639 1.239 . S
C648 O640 1.256 . S
O649 Mn631 2.221 . S
O649 Mn633 2.290 . S
O649 C643 1.278 . S
O650 Mn633 2.251 . S
O650 C643 1.241 . S
O651 Mn652 2.163 1_545 S
O651 C665 1.244 . S
Mn652 O651 2.163 1_565 S
Mn652 O655 2.160 . S
Mn652 O656 2.221 . S
Mn652 O658 2.163 1_565 S
Mn652 O660 2.160 1_455 S
Mn652 O670 2.221 1_565 S
O653 Mn654 2.087 . S
O653 C665 1.256 . S
Mn654 O653 2.087 . S
Mn654 O661 2.089 1_455 S
Mn654 O670 2.290 . S
Mn654 O671 2.251 . S
O655 Mn652 2.160 . S
O655 C666 1.239 . S
O656 Mn652 2.221 . S
O656 Mn657 2.290 . S
O656 C667 1.278 1_565 S
Mn657 O656 2.290 . S
Mn657 O659 2.089 . S
Mn657 O662 2.251 . S
Mn657 O663 2.087 . S
O658 Mn652 2.163 1_545 S
O658 C668 1.244 1_545 S
O659 Mn657 2.089 . S
O659 C666 1.256 . S
O660 Mn652 2.160 1_655 S
O660 C669 1.232 1_565 S
O661 Mn654 2.089 1_655 S
O661 C669 1.268 . S
O662 Mn657 2.251 . S
O662 C667 1.241 1_565 S
O663 Mn657 2.087 . S
O663 C668 1.256 . S
C664 O670 1.278 . S
C664 O671 1.241 . S
C665 O651 1.244 . S
C665 O653 1.256 . S
C666 O655 1.239 . S
C666 O659 1.256 . S
C667 O656 1.278 1_545 S
C667 O662 1.241 1_545 S
C668 O658 1.244 1_565 S
C668 O663 1.256 . S
C669 O660 1.232 1_545 S
C669 O661 1.268 . S
O670 Mn652 2.221 1_545 S
O670 Mn654 2.290 . S
O670 C664 1.278 . S
O671 Mn654 2.251 . S
O671 C664 1.241 . S
C14 C539 1.659 . S
C518 C35 1.651 . S
C581 C56 1.651 . S
C77 C560 1.659 . S
C101 C623 1.659 . S
C119 C605 1.651 . S
C140 C665 1.651 . S
C644 C161 1.659 . S
C182 C371 1.652 . S
C203 C350 1.659 . S
C224 C413 1.659 . S
C392 C245 1.652 . S
C269 C455 1.652 . S
C287 C437 1.659 . S
C497 C308 1.659 . S
C329 C476 1.652 . S
C13 C76 1.295 . S
C34 C55 1.294 . S
C160 C100 1.295 . S
C139 C118 1.294 . S
C181 C244 1.292 . S
C202 C223 1.294 . S
C268 C328 1.292 . S
C307 C286 1.294 . S
C349 C412 1.295 . S
C370 C391 1.295 . S
C496 C436 1.295 . S
C454 C475 1.295 . S
C580 C517 1.293 . S
C538 C559 1.294 . S
C664 C604 1.293 . S
C643 C622 1.294 . S
C36 C15 0.953 . S
C57 C78 0.953 . S
C120 C102 0.953 . S
C162 C141 0.953 . S
C183 C204 0.961 . S
C225 C246 0.962 . S
C288 C270 0.961 . S
C309 C330 0.962 . S
C351 C372 0.953 . S
C414 C393 0.953 . S
C438 C456 0.953 . S
C477 C498 0.953 . S
C519 C540 0.961 . S
C561 C582 0.961 . S
C624 C606 0.961 . S
C645 C666 0.961 . S
C18 C17 1.381 . S
C39 C38 1.380 . S
C60 C59 1.380 . S
C80 C81 1.381 . S
C98 C99 1.381 . S
C123 C122 1.380 . S
C143 C144 1.380 . S
C164 C165 1.381 . S
C185 C186 1.380 1_545 S
C207 C206 1.380 . S
C228 C227 1.381 . S
C248 C249 1.380 1_545 S
C266 C267 1.380 1_565 S
C291 C290 1.380 . S
C312 C311 1.381 . S
C332 C333 1.380 1_565 S
C354 C353 1.381 1_455 S
C374 C375 1.380 . S
C395 C396 1.380 1_655 S
C417 C416 1.381 . S
C435 C434 1.381 1_655 S
C459 C458 1.380 . S
C479 C480 1.380 1_455 S
C501 C500 1.381 . S
C521 C522 1.380 1_645 S
C543 C542 1.380 . S
C563 C564 1.381 1_655 S
C584 C585 1.380 1_545 S
C603 C602 1.380 1_645 S
C627 C626 1.380 . S
C647 C648 1.381 1_455 S
C668 C669 1.380 1_565 S
C16 C97 0.959 1_454 S
C625 C37 0.956 1_556 S
C310 C58 0.957 1_655 S
C79 C499 0.959 . S
C121 C541 0.956 1_556 S
C142 C226 0.957 1_655 S
C163 C415 0.959 . S
C184 C265 0.963 1_465 S
C457 C205 0.956 . S
C667 C247 0.963 1_545 S
C289 C373 0.956 . S
C583 C331 0.963 1_565 S
C352 C433 0.959 . S
C646 C394 0.957 . S
C478 C562 0.957 . S
C520 C601 0.963 1_564 S
