# Generated by pormake.
# Topology wns, (7)-cn, num edge types: 1
# Building blocks:
#     Node 0, Type 0, BuildingBlock: HICVOG_clean_sbu_0, # of connection points: 7
#     Node 1, Type 0, BuildingBlock: HICVOG_clean_sbu_0, # of connection points: 7
#     Node 2, Type 0, BuildingBlock: HICVOG_clean_sbu_0, # of connection points: 7
#     Node 3, Type 0, BuildingBlock: HICVOG_clean_sbu_0, # of connection points: 7
#     Node 4, Type 0, BuildingBlock: HICVOG_clean_sbu_0, # of connection points: 7
#     Node 5, Type 0, BuildingBlock: HICVOG_clean_sbu_0, # of connection points: 7
#     Node 6, Type 0, BuildingBlock: HICVOG_clean_sbu_0, # of connection points: 7
#     Node 7, Type 0, BuildingBlock: HICVOG_clean_sbu_0, # of connection points: 7
#     Node 8, Type 0, BuildingBlock: HICVOG_clean_sbu_0, # of connection points: 7
#     Node 9, Type 0, BuildingBlock: HICVOG_clean_sbu_0, # of connection points: 7
#     Node 10, Type 0, BuildingBlock: HICVOG_clean_sbu_0, # of connection points: 7
#     Node 11, Type 0, BuildingBlock: HICVOG_clean_sbu_0, # of connection points: 7
#     Edge 12, Type (0, 0), BuildingBlock: AJUNOK_clean_linker_0, # of connection points: 2
#     Edge 13, Type (0, 0), BuildingBlock: AJUNOK_clean_linker_0, # of connection points: 2
#     Edge 14, Type (0, 0), BuildingBlock: AJUNOK_clean_linker_0, # of connection points: 2
#     Edge 15, Type (0, 0), BuildingBlock: AJUNOK_clean_linker_0, # of connection points: 2
#     Edge 16, Type (0, 0), BuildingBlock: AJUNOK_clean_linker_0, # of connection points: 2
#     Edge 17, Type (0, 0), BuildingBlock: AJUNOK_clean_linker_0, # of connection points: 2
#     Edge 18, Type (0, 0), BuildingBlock: AJUNOK_clean_linker_0, # of connection points: 2
#     Edge 19, Type (0, 0), BuildingBlock: AJUNOK_clean_linker_0, # of connection points: 2
#     Edge 20, Type (0, 0), BuildingBlock: AJUNOK_clean_linker_0, # of connection points: 2
#     Edge 21, Type (0, 0), BuildingBlock: AJUNOK_clean_linker_0, # of connection points: 2
#     Edge 22, Type (0, 0), BuildingBlock: AJUNOK_clean_linker_0, # of connection points: 2
#     Edge 23, Type (0, 0), BuildingBlock: AJUNOK_clean_linker_0, # of connection points: 2
#     Edge 24, Type (0, 0), BuildingBlock: AJUNOK_clean_linker_0, # of connection points: 2
#     Edge 25, Type (0, 0), BuildingBlock: AJUNOK_clean_linker_0, # of connection points: 2
#     Edge 26, Type (0, 0), BuildingBlock: AJUNOK_clean_linker_0, # of connection points: 2
#     Edge 27, Type (0, 0), BuildingBlock: AJUNOK_clean_linker_0, # of connection points: 2
#     Edge 28, Type (0, 0), BuildingBlock: AJUNOK_clean_linker_0, # of connection points: 2
#     Edge 29, Type (0, 0), BuildingBlock: AJUNOK_clean_linker_0, # of connection points: 2
#     Edge 30, Type (0, 0), BuildingBlock: AJUNOK_clean_linker_0, # of connection points: 2
#     Edge 31, Type (0, 0), BuildingBlock: AJUNOK_clean_linker_0, # of connection points: 2
#     Edge 32, Type (0, 0), BuildingBlock: AJUNOK_clean_linker_0, # of connection points: 2
#     Edge 33, Type (0, 0), BuildingBlock: AJUNOK_clean_linker_0, # of connection points: 2
#     Edge 34, Type (0, 0), BuildingBlock: AJUNOK_clean_linker_0, # of connection points: 2
#     Edge 35, Type (0, 0), BuildingBlock: AJUNOK_clean_linker_0, # of connection points: 2
#     Edge 36, Type (0, 0), BuildingBlock: AJUNOK_clean_linker_0, # of connection points: 2
#     Edge 37, Type (0, 0), BuildingBlock: AJUNOK_clean_linker_0, # of connection points: 2
#     Edge 38, Type (0, 0), BuildingBlock: AJUNOK_clean_linker_0, # of connection points: 2
#     Edge 39, Type (0, 0), BuildingBlock: AJUNOK_clean_linker_0, # of connection points: 2
#     Edge 40, Type (0, 0), BuildingBlock: AJUNOK_clean_linker_0, # of connection points: 2
#     Edge 41, Type (0, 0), BuildingBlock: AJUNOK_clean_linker_0, # of connection points: 2
#     Edge 42, Type (0, 0), BuildingBlock: AJUNOK_clean_linker_0, # of connection points: 2
#     Edge 43, Type (0, 0), BuildingBlock: AJUNOK_clean_linker_0, # of connection points: 2
#     Edge 44, Type (0, 0), BuildingBlock: AJUNOK_clean_linker_0, # of connection points: 2
#     Edge 45, Type (0, 0), BuildingBlock: AJUNOK_clean_linker_0, # of connection points: 2
#     Edge 46, Type (0, 0), BuildingBlock: AJUNOK_clean_linker_0, # of connection points: 2
#     Edge 47, Type (0, 0), BuildingBlock: AJUNOK_clean_linker_0, # of connection points: 2
#     Edge 48, Type (0, 0), BuildingBlock: AJUNOK_clean_linker_0, # of connection points: 2
#     Edge 49, Type (0, 0), BuildingBlock: AJUNOK_clean_linker_0, # of connection points: 2
#     Edge 50, Type (0, 0), BuildingBlock: AJUNOK_clean_linker_0, # of connection points: 2
#     Edge 51, Type (0, 0), BuildingBlock: AJUNOK_clean_linker_0, # of connection points: 2
#     Edge 52, Type (0, 0), BuildingBlock: AJUNOK_clean_linker_0, # of connection points: 2
#     Edge 53, Type (0, 0), BuildingBlock: AJUNOK_clean_linker_0, # of connection points: 2
# Relax obj value: 0.159
# Max RMSD: 0.215
# Mean RMSD: 0.215
data_MOF--net-wns--node1-HICVOG_clean_sbu_0--edge1-AJUNOK_clean_linker_0
_symmetry_space_group_name_H-M    P1
_symmetry_Int_Tables_number       1
_symmetry_cell_setting            triclinic
loop_
_symmetry_equiv_pos_as_xyz
'x, y, z'
_cell_length_a     31.519496
_cell_length_b     31.429407
_cell_length_c     27.37166
_cell_angle_alpha  90.515936
_cell_angle_beta   89.642663
_cell_angle_gamma 119.81072
loop_
_atom_site_label
_atom_site_type_symbol
_atom_site_fract_x
_atom_site_fract_y
_atom_site_fract_z
_atom_type_partial_charge
Zn0 Zn 0.4601 0.30494 0.1786 0.0
C1 C 0.34212 0.25835 0.09265 0.0
N2 N 0.32744 0.2791 0.12681 0.0
C3 C 0.36142 0.29179 0.16176 0.0
N4 N 0.39552 0.27922 0.14948 0.0
N5 N 0.38275 0.25752 0.10605 0.0
C6 C 0.44148 0.23326 0.98245 0.0
O7 O 0.47937 0.26939 1.00441 0.0
O8 O 0.45385 0.30753 0.25197 0.0
Zn9 Zn 0.39728 0.20822 0.08111 0.0
N10 N 0.50225 0.36883 0.1493 0.0
C11 C 0.51006 0.42705 0.08977 0.0
C12 C 0.48164 0.38351 0.11455 0.0
C13 C 0.55092 0.39599 0.1597 0.0
N14 N 0.55837 0.45394 0.09989 0.0
C15 C 0.58019 0.43982 0.13389 0.0
O16 O 0.45578 0.20911 0.11053 0.0
C17 C 0.48962 0.22975 0.14199 0.0
O18 O 0.49409 0.26511 0.1685 0.0
H19 H 0.44337 0.36162 0.10576 0.0
H20 H 0.56618 0.3835 0.18764 0.0
C21 C 0.3205 0.11062 0.06477 0.0
C22 C 0.28441 0.06322 0.07794 0.0
C23 C 0.294 0.08817 0.16088 0.0
C24 C 0.33024 0.13537 0.14762 0.0
N25 N 0.34303 0.14544 0.09983 0.0
N26 N 0.27232 0.05289 0.12585 0.0
H27 H 0.33189 0.11916 0.02707 0.0
C28 C 0.43346 0.2658 0.27258 0.0
O29 O 0.4177 0.22635 0.24506 0.0
O30 O 0.40315 0.20606 0.00703 0.0
H31 H 0.34875 0.16345 0.17517 0.0
H32 H 0.49401 0.43922 0.06228 0.0
H33 H 0.28384 0.07943 0.19883 0.0
Zn34 Zn 0.75632 0.16658 0.18601 0.0
C35 C 0.80452 0.10117 0.09006 0.0
N36 N 0.78307 0.06275 0.11979 0.0
C37 C 0.76987 0.08013 0.1584 0.0
N38 N 0.78176 0.12787 0.15176 0.0
N39 N 0.80469 0.14087 0.10891 0.0
C40 C 0.87733 0.25506 0.99507 0.0
O41 O 0.89791 0.29386 0.02372 0.0
O42 O 0.76341 0.16452 0.25964 0.0
Zn43 Zn 0.8548 0.20508 0.08833 0.0
N44 N 0.68759 0.13913 0.16621 0.0
C45 C 0.61948 0.07362 0.1256 0.0
C46 C 0.66711 0.09501 0.14263 0.0
C47 C 0.66176 0.16312 0.1728 0.0
N48 N 0.59396 0.09733 0.13211 0.0
C49 C 0.6132 0.14155 0.1553 0.0
O50 O 0.8523 0.26122 0.1203 0.0
C51 C 0.82858 0.27284 0.15002 0.0
O52 O 0.79189 0.24071 0.17375 0.0
H53 H 0.68741 0.07632 0.13654 0.0
H54 H 0.67883 0.1983 0.19133 0.0
C55 C 0.95732 0.23956 0.07837 0.0
C56 C 1.00182 0.24145 0.08815 0.0
C57 C 0.96431 0.18598 0.1533 0.0
C58 C 0.91997 0.18421 0.14342 0.0
N59 N 0.91718 0.21061 0.10571 0.0
N60 N 1.00415 0.21408 0.12509 0.0
H61 H 0.95448 0.2598 0.04814 0.0
C62 C 0.80643 0.186 0.27725 0.0
O63 O 0.84363 0.20641 0.2469 0.0
O64 O 0.85466 0.21269 0.01438 0.0
H65 H 0.8879 0.16138 0.16515 0.0
H66 H 0.60296 0.03854 0.10688 0.0
H67 H 0.96684 0.16465 0.18277 0.0
Zn68 Zn 0.89142 0.60556 0.18858 0.0
C69 C 0.9655 0.72041 0.09739 0.0
N70 N 1.00208 0.73524 0.12932 0.0
C71 C 0.98161 0.70396 0.1667 0.0
N72 N 0.93411 0.66969 0.15685 0.0
N73 N 0.92434 0.68157 0.11356 0.0
C74 C 0.86321 0.63506 0.98575 0.0
O75 O 0.87384 0.60316 1.00448 0.0
O76 O 0.88471 0.61544 0.26157 0.0
Zn77 Zn 0.86259 0.66941 0.08761 0.0
N78 N 0.91903 0.56236 0.17446 0.0
C79 C 0.98587 0.55714 0.13986 0.0
C80 C 0.96421 0.58454 0.15346 0.0
C81 C 0.89397 0.51264 0.18121 0.0
N82 N 0.96122 0.50813 0.14669 0.0
C83 C 0.91576 0.48441 0.16699 0.0
O84 O 0.80404 0.60953 0.11207 0.0
C85 C 0.79023 0.57278 0.13977 0.0
O86 O 0.8201 0.56767 0.16673 0.0
H87 H 0.98344 0.62324 0.14661 0.0
H88 H 0.85772 0.4955 0.19713 0.0
C89 C 0.82664 0.73481 0.07354 0.0
C90 C 0.82362 0.77752 0.08023 0.0
C91 C 0.87611 0.79854 0.14867 0.0
C92 C 0.87913 0.75597 0.14175 0.0
N93 N 0.8548 0.72529 0.1039 0.0
N94 N 0.84896 0.80872 0.11744 0.0
H95 H 0.80811 0.7101 0.04334 0.0
C96 C 0.85248 0.62649 0.27461 0.0
O97 O 0.82704 0.63329 0.24088 0.0
O98 O 0.85975 0.66565 0.01374 0.0
H99 H 0.90159 0.7481 0.16557 0.0
H100 H 1.02184 0.57458 0.12331 0.0
H101 H 0.89586 0.8237 0.17817 0.0
Zn102 Zn 0.32924 0.44844 0.33004 0.0
C103 C 0.28322 0.33036 0.41663 0.0
N104 N 0.30222 0.31495 0.38136 0.0
C105 C 0.31497 0.3493 0.3469 0.0
N106 N 0.30415 0.38441 0.36048 0.0
N107 N 0.28354 0.37198 0.40436 0.0
C108 C 0.21173 0.41036 0.52556 0.0
O109 O 0.18671 0.42265 0.49638 0.0
O110 O 0.32872 0.44064 0.25631 0.0
Zn111 Zn 0.23739 0.38958 0.43217 0.0
N112 N 0.39476 0.49106 0.35607 0.0
C113 C 0.45755 0.49943 0.40985 0.0
C114 C 0.4127 0.47045 0.38732 0.0
C115 C 0.4198 0.54028 0.34727 0.0
N116 N 0.48227 0.54829 0.4014 0.0
C117 C 0.46481 0.57017 0.37112 0.0
O118 O 0.24123 0.45111 0.40597 0.0
C119 C 0.26044 0.48366 0.37315 0.0
O120 O 0.29163 0.48401 0.34327 0.0
H121 H 0.39235 0.43174 0.39505 0.0
H122 H 0.40462 0.55551 0.32216 0.0
C123 C 0.13788 0.31434 0.44793 0.0
C124 C 0.08924 0.28345 0.43379 0.0
C125 C 0.11359 0.29733 0.35078 0.0
C126 C 0.1618 0.32933 0.36505 0.0
N127 N 0.17281 0.33784 0.41336 0.0
N128 N 0.07815 0.27604 0.38541 0.0
H129 H 0.14716 0.32178 0.48616 0.0
C130 C 0.28738 0.42419 0.23553 0.0
O131 O 0.24881 0.41282 0.26285 0.0
O132 O 0.239 0.39532 0.50654 0.0
H133 H 0.18998 0.3484 0.33793 0.0
H134 H 0.47237 0.48338 0.43445 0.0
H135 H 0.10414 0.29081 0.31246 0.0
Zn136 Zn 0.61543 0.88289 0.32321 0.0
C137 C 0.73556 0.96392 0.40566 0.0
N138 N 0.74518 0.99714 0.37057 0.0
C139 C 0.70956 0.9717 0.33812 0.0
N140 N 0.67952 0.92504 0.35249 0.0
N141 N 0.69634 0.91994 0.39503 0.0
C142 C 0.65404 0.81562 0.51951 0.0
O143 O 0.63012 0.77559 0.49299 0.0
O144 O 0.62369 0.88283 0.24931 0.0
Zn145 Zn 0.68509 0.85868 0.42326 0.0
N146 N 0.57314 0.90978 0.34205 0.0
C147 C 0.5675 0.97429 0.38236 0.0
C148 C 0.59505 0.95364 0.36613 0.0
C149 C 0.52378 0.88525 0.33429 0.0
N150 N 0.5187 0.95002 0.37473 0.0
C151 C 0.49544 0.90596 0.35111 0.0
O152 O 0.62631 0.79876 0.39626 0.0
C153 C 0.58913 0.78265 0.36863 0.0
O154 O 0.58105 0.81103 0.34235 0.0
H155 H 0.63356 0.97251 0.37366 0.0
H156 H 0.50707 0.85024 0.31543 0.0
C157 C 0.74846 0.81982 0.43541 0.0
C158 C 0.79039 0.81564 0.42849 0.0
C159 C 0.81622 0.87488 0.36574 0.0
C160 C 0.77446 0.87904 0.37298 0.0
N161 N 0.74167 0.85179 0.40813 0.0
N162 N 0.8236 0.84376 0.394 0.0
H163 H 0.72218 0.79903 0.46354 0.0
C164 C 0.63573 0.8525 0.23208 0.0
O165 O 0.64313 0.82478 0.26252 0.0
O166 O 0.67885 0.85662 0.49788 0.0
H167 H 0.76864 0.9042 0.35121 0.0
H168 H 0.58466 1.00914 0.40151 0.0
H169 H 0.8429 0.89674 0.3383 0.0
Zn170 Zn 0.18261 0.74139 0.31473 0.0
C171 C 0.10286 0.76535 0.41723 0.0
N172 N 0.06648 0.74029 0.38526 0.0
C173 C 0.08978 0.73395 0.34717 0.0
N174 N 0.13836 0.75396 0.35566 0.0
N175 N 0.14681 0.77514 0.39942 0.0
C176 C 0.25893 0.84961 0.51605 0.0
O177 O 0.29734 0.86896 0.48718 0.0
O178 O 0.17629 0.75524 0.2443 0.0
Zn179 Zn 0.20896 0.82866 0.42321 0.0
N180 N 0.16126 0.67158 0.3167 0.0
C181 C 0.09749 0.59092 0.29735 0.0
C182 C 0.11646 0.64143 0.29726 0.0
C183 C 0.1893 0.65312 0.33409 0.0
N184 N 0.1249 0.57242 0.31529 0.0
C185 C 0.17065 0.602 0.33315 0.0
O186 O 0.26824 0.83203 0.39132 0.0
C187 C 0.28371 0.8136 0.35913 0.0
O188 O 0.25497 0.77929 0.33063 0.0
H189 H 0.09596 0.6566 0.2811 0.0
H190 H 0.22544 0.67776 0.34831 0.0
C191 C 0.24588 0.93154 0.43443 0.0
C192 C 0.24721 0.97659 0.42917 0.0
C193 C 0.18054 0.93859 0.37415 0.0
C194 C 0.17926 0.89379 0.37983 0.0
N195 N 0.2117 0.89099 0.41025 0.0
N196 N 0.21391 0.97875 0.39943 0.0
H197 H 0.27063 0.92842 0.4592 0.0
C198 C 0.20664 0.79412 0.22228 0.0
O199 O 0.24335 0.82889 0.24688 0.0
O200 O 0.21639 0.82697 0.49705 0.0
H201 H 0.15214 0.86142 0.36083 0.0
H202 H 0.06157 0.5666 0.28253 0.0
H203 H 0.15457 0.94119 0.35048 0.0
Zn204 Zn 0.6819 0.85316 0.92215 0.0
C205 C 0.71094 0.76445 0.84246 0.0
N206 N 0.74354 0.77342 0.878 0.0
C207 C 0.73162 0.79698 0.91173 0.0
N208 N 0.69366 0.80228 0.89745 0.0
N209 N 0.67996 0.78114 0.85392 0.0
C210 C 0.64633 0.79548 0.73198 0.0
O211 O 0.66776 0.83444 0.76034 0.0
O212 O 0.67895 0.85598 0.996 0.0
Zn213 Zn 0.61448 0.75516 0.8256 0.0
N214 N 0.73601 0.91549 0.90148 0.0
C215 C 0.79339 0.96725 0.84167 0.0
C216 C 0.75544 0.92122 0.8559 0.0
C217 C 0.75297 0.95383 0.93329 0.0
N218 N 0.81045 1.00566 0.87362 0.0
C219 C 0.79103 0.99993 0.91919 0.0
O220 O 0.58052 0.79498 0.83863 0.0
C221 C 0.58665 0.83079 0.8656 0.0
O222 O 0.622 0.85123 0.89551 0.0
H223 H 0.74143 0.89044 0.83081 0.0
H224 H 0.73681 0.94856 0.96931 0.0
C225 C 0.52423 0.66043 0.84311 0.0
C226 C 0.4973 0.61458 0.86663 0.0
C227 C 0.56935 0.62966 0.90847 0.0
C228 C 0.59552 0.67457 0.88543 0.0
N229 N 0.57302 0.6893 0.85288 0.0
N230 N 0.52121 0.60105 0.89871 0.0
H231 H 0.50687 0.673 0.81751 0.0
C232 C 0.64908 0.82178 0.02358 0.0
O233 O 0.61857 0.77875 0.00458 0.0
O234 O 0.62021 0.75379 0.75178 0.0
H235 H 0.63354 0.69751 0.89413 0.0
H236 H 0.80914 0.97238 0.80549 0.0
H237 H 0.58706 0.61773 0.93434 0.0
Zn238 Zn 0.21573 0.85486 0.91687 0.0
C239 C 0.30061 0.97305 0.83757 0.0
N240 N 0.28557 0.99406 0.87114 0.0
C241 C 0.26371 0.95883 0.90457 0.0
N242 N 0.2642 0.91764 0.8917 0.0
N243 N 0.2883 0.92656 0.84975 0.0
C244 C 0.279 0.87276 0.72794 0.0
O245 O 0.23922 0.85022 0.75475 0.0
O246 O 0.22187 0.85137 0.99013 0.0
Zn247 Zn 0.3157 0.88741 0.82304 0.0
N248 N 0.15202 0.8483 0.90403 0.0
C249 C 0.10075 0.87098 0.86102 0.0
C250 C 0.14606 0.87371 0.86728 0.0
C251 C 0.11406 0.8194 0.93386 0.0
N252 N 0.06313 0.8429 0.8917 0.0
C253 C 0.06859 0.81653 0.92776 0.0
O254 O 0.27605 0.81382 0.83384 0.0
C255 C 0.23874 0.78302 0.85771 0.0
O256 O 0.21606 0.79652 0.88683 0.0
H257 H 0.17636 0.89644 0.84347 0.0
H258 H 0.11945 0.79998 0.96327 0.0
C259 C 0.40891 0.89124 0.8438 0.0
C260 C 0.45306 0.9083 0.86987 0.0
C261 C 0.4344 0.96131 0.91606 0.0
C262 C 0.39093 0.94423 0.89056 0.0
N263 N 0.37904 0.91002 0.85454 0.0
N264 N 0.46415 0.94295 0.90526 0.0
H265 H 0.39842 0.86364 0.81544 0.0
C266 C 0.20124 0.80982 0.01094 0.0
O267 O 0.17907 0.76988 0.984 0.0
O268 O 0.32024 0.89463 0.74943 0.0
H269 H 0.36697 0.95844 0.89964 0.0
H270 H 0.09572 0.8915 0.83233 0.0
H271 H 0.44433 0.98872 0.94453 0.0
Zn272 Zn 0.21608 0.39025 0.93062 0.0
C273 C 0.09606 0.35421 0.85413 0.0
N274 N 0.07538 0.32224 0.89087 0.0
C275 C 0.11186 0.33756 0.92321 0.0
N276 N 0.15315 0.37659 0.90712 0.0
N277 N 0.14338 0.38788 0.86366 0.0
C278 C 0.19849 0.4238 0.73765 0.0
O279 O 0.22519 0.4122 0.76515 0.0
O280 O 0.22151 0.39646 0.0047 0.0
Zn281 Zn 0.18257 0.45141 0.83158 0.0
N282 N 0.22452 0.33568 0.91001 0.0
C283 C 0.22975 0.28689 0.8456 0.0
C284 C 0.21859 0.32248 0.86202 0.0
C285 C 0.24006 0.31388 0.94236 0.0
N286 N 0.24714 0.26649 0.87771 0.0
C287 C 0.25224 0.27898 0.92586 0.0
O288 O 0.25641 0.48663 0.84234 0.0
C289 C 0.28681 0.48285 0.86973 0.0
O290 O 0.27304 0.44936 0.90154 0.0
H291 H 0.20634 0.34023 0.8366 0.0
H292 H 0.24492 0.32496 0.98032 0.0
C293 C 0.18006 0.543 0.84378 0.0
C294 C 0.16436 0.57319 0.8669 0.0
C295 C 0.10925 0.50562 0.91544 0.0
C296 C 0.12566 0.47647 0.89349 0.0
N297 N 0.16022 0.4952 0.85767 0.0
N298 N 0.12896 0.55301 0.90182 0.0
H299 H 0.20744 0.55694 0.81524 0.0
C300 C 0.26364 0.41179 0.02337 0.0
O301 O 0.30105 0.4243 0.99395 0.0
O302 O 0.1743 0.44166 0.75811 0.0
H303 H 0.11064 0.43903 0.90517 0.0
H304 H 0.22572 0.27646 0.80742 0.0
H305 H 0.08143 0.49091 0.94358 0.0
Zn306 Zn 0.76201 0.60555 0.68902 0.0
C307 C 0.79571 0.71506 0.59409 0.0
N308 N 0.77423 0.73083 0.62586 0.0
C309 C 0.76589 0.70205 0.66494 0.0
N310 N 0.78077 0.66844 0.65642 0.0
N311 N 0.80067 0.67822 0.61203 0.0
C312 C 0.81428 0.63664 0.48163 0.0
O313 O 0.7719 0.6051 0.50076 0.0
O314 O 0.77674 0.61571 0.76249 0.0
Zn315 Zn 0.84799 0.66309 0.58342 0.0
N316 N 0.69322 0.56009 0.67106 0.0
C317 C 0.62116 0.54986 0.63214 0.0
C318 C 0.66756 0.57999 0.6511 0.0
C319 C 0.67427 0.51037 0.67099 0.0
N320 N 0.60279 0.50075 0.63142 0.0
C321 C 0.62805 0.47985 0.64979 0.0
O322 O 0.84247 0.59933 0.60131 0.0
C323 C 0.8242 0.56691 0.6342 0.0
O324 O 0.79648 0.5685 0.66716 0.0
H325 H 0.68301 0.61912 0.64901 0.0
H326 H 0.69593 0.49505 0.68469 0.0
C327 C 0.94924 0.72848 0.57077 0.0
C328 C 0.99743 0.76136 0.5848 0.0
C329 C 0.96991 0.76241 0.66525 0.0
C330 C 0.92185 0.7293 0.65115 0.0
N331 N 0.91259 0.71282 0.60421 0.0
N332 N 1.00676 0.77736 0.63193 0.0
H333 H 0.94119 0.71418 0.53382 0.0
C334 C 0.81748 0.62187 0.77806 0.0
O335 O 0.84928 0.62223 0.74661 0.0
O336 O 0.84913 0.66501 0.50958 0.0
H337 H 0.89235 0.71621 0.67751 0.0
H338 H 0.60044 0.56545 0.61669 0.0
H339 H 0.97794 0.77555 0.70258 0.0
Zn340 Zn 0.46809 0.16758 0.68143 0.0
C341 C 0.35622 0.09445 0.58749 0.0
N342 N 0.34027 0.05916 0.62121 0.0
C343 C 0.3714 0.08124 0.65838 0.0
N344 N 0.40522 0.12823 0.64786 0.0
N345 N 0.39495 0.13653 0.60321 0.0
C346 C 0.42535 0.2431 0.48444 0.0
O347 O 0.43753 0.28058 0.51396 0.0
O348 O 0.45794 0.16564 0.75573 0.0
Zn349 Zn 0.41136 0.19976 0.57729 0.0
N350 N 0.51058 0.14182 0.65999 0.0
C351 C 0.52017 0.08641 0.6074 0.0
C352 C 0.49098 0.10336 0.62803 0.0
C353 C 0.55932 0.16519 0.67086 0.0
N354 N 0.5685 0.10984 0.61776 0.0
C355 C 0.58968 0.14931 0.64844 0.0
O356 O 0.47573 0.25585 0.59939 0.0
C357 C 0.50868 0.26941 0.63183 0.0
O358 O 0.50724 0.23995 0.66416 0.0
H359 H 0.45295 0.08592 0.61802 0.0
H360 H 0.57383 0.19581 0.69609 0.0
C361 C 0.33554 0.22473 0.56843 0.0
C362 C 0.3064 0.24418 0.58495 0.0
C363 C 0.32871 0.23965 0.66641 0.0
C364 C 0.35885 0.2217 0.64959 0.0
N365 N 0.36232 0.21539 0.60084 0.0
N366 N 0.3041 0.25163 0.6337 0.0
H367 H 0.33912 0.21989 0.52979 0.0
C368 C 0.45379 0.2009 0.77402 0.0
O369 O 0.45455 0.23405 0.74463 0.0
O370 O 0.41197 0.20128 0.5031 0.0
H371 H 0.38043 0.21419 0.67499 0.0
H372 H 0.50478 0.05552 0.58239 0.0
H373 H 0.32621 0.24556 0.70506 0.0
Zn374 Zn 0.87562 0.21933 0.58482 0.0
C375 C 0.99016 0.29865 0.6721 0.0
N376 N 1.01289 0.28577 0.63843 0.0
C377 C 0.97933 0.26563 0.60304 0.0
N378 N 0.9376 0.26544 0.61448 0.0
N379 N 0.94441 0.28679 0.65799 0.0
C380 C 0.89024 0.27304 0.78247 0.0
O381 O 0.86608 0.23303 0.75594 0.0
O382 O 0.87367 0.22574 0.51057 0.0
Zn383 Zn 0.9039 0.31129 0.68711 0.0
N384 N 0.8654 0.15455 0.59855 0.0
C385 C 0.85481 0.09393 0.65656 0.0
C386 C 0.86824 0.14237 0.64547 0.0
C387 C 0.85089 0.12056 0.56218 0.0
N388 N 0.8383 0.05947 0.62041 0.0
C389 C 0.83645 0.07177 0.57328 0.0
O390 O 0.83083 0.2708 0.67568 0.0
C391 C 0.80157 0.2371 0.64694 0.0
O392 O 0.81664 0.21874 0.61429 0.0
H393 H 0.87955 0.16978 0.67414 0.0
H394 H 0.84821 0.13074 0.52522 0.0
C395 C 0.89671 0.3974 0.66273 0.0
C396 C 0.91124 0.44178 0.63802 0.0
C397 C 0.98067 0.43953 0.60703 0.0
C398 C 0.96571 0.39538 0.63068 0.0
N399 N 0.92461 0.37543 0.65876 0.0
N400 N 0.95309 0.46142 0.61102 0.0
H401 H 0.86284 0.37941 0.68314 0.0
C402 C 0.83212 0.20291 0.48958 0.0
O403 O 0.79293 0.17877 0.51688 0.0
O404 O 0.91198 0.31422 0.76082 0.0
H405 H 0.98669 0.37701 0.62617 0.0
H406 H 0.85623 0.08355 0.69383 0.0
H407 H 1.0135 0.45591 0.58492 0.0
C408 C 0.27344 0.963 0.99452 0.0
C409 C 0.25136 0.9699 0.95316 0.0
C410 C 0.27906 0.98963 0.03775 0.0
C411 C 0.26364 1.02454 0.04028 0.0
H412 H 0.29135 0.94126 0.99186 0.0
H413 H 0.29994 0.98654 0.06743 0.0
S414 S 0.19813 0.05137 0.94445 0.0
N415 N 0.20882 1.00953 0.91953 0.0
N416 N 0.22075 0.06068 1.0003 0.0
C417 C 0.23786 0.02862 1.00076 0.0
C418 C 0.23143 1.001 0.9572 0.0
C419 C 0.0563 0.24398 0.02102 0.0
C420 C 0.04392 0.26938 0.05552 0.0
C421 C 0.08483 0.26815 0.98001 0.0
C422 C 0.10267 0.31849 0.97315 0.0
H423 H 1.03998 0.2045 0.02322 0.0
H424 H 0.08927 0.24658 0.95144 0.0
S425 S 0.08576 0.40227 0.05655 0.0
N426 N 0.05535 0.34806 0.08287 0.0
N427 N 0.1103 0.39376 0.00653 0.0
C428 C 0.09476 0.34508 0.01001 0.0
C429 C 0.06487 0.32036 0.05111 0.0
C430 C 0.82106 0.83067 0.01445 0.0
C431 C 0.79604 0.78982 0.0451 0.0
C432 C 0.79812 0.8363 0.97309 0.0
C433 C 0.74924 0.80201 0.96215 0.0
H434 H 0.8596 0.85611 0.02019 0.0
H435 H 0.81967 0.86557 0.94772 0.0
S436 S 0.66679 0.69168 0.03377 0.0
N437 N 0.71899 0.71689 0.06399 0.0
N438 N 0.67584 0.72788 0.98681 0.0
C439 C 0.72293 0.76331 0.99471 0.0
C440 C 0.74637 0.75711 0.03616 0.0
C441 C 1.01917 0.28572 0.47277 0.0
C442 C 0.05025 0.26566 0.47094 0.0
C443 C 0.99026 0.27981 0.51411 0.0
C444 C 0.99218 0.25414 0.55496 0.0
H445 H 1.02059 0.30985 0.44403 0.0
H446 H 0.9705 0.29981 0.51604 0.0
S447 S 0.06392 0.1905 0.56613 0.0
N448 N 0.07796 0.2155 0.51133 0.0
N449 N 1.02415 0.20488 0.58946 0.0
C450 C 1.02037 0.23091 0.55204 0.0
C451 C 0.04951 0.23671 0.50993 0.0
C452 C 0.76439 0.71043 0.51135 0.0
C453 C 0.80434 0.73195 0.54343 0.0
C454 C 0.76213 0.73613 0.47088 0.0
C455 C 0.79983 0.78416 0.46131 0.0
H456 H 0.73263 0.6755 0.5202 0.0
H457 H 0.72906 0.71983 0.44914 0.0
S458 S 0.91563 0.8532 0.53028 0.0
N459 N 0.88471 0.80106 0.56017 0.0
N460 N 0.8811 0.84946 0.48339 0.0
C461 C 0.84224 0.80386 0.49016 0.0
C462 C 0.84426 0.77773 0.53165 0.0
C463 C 0.26085 0.04136 0.49068 0.0
C464 C 0.28048 1.01935 0.4599 0.0
C465 C 0.28842 0.07229 0.5294 0.0
C466 C 0.3368 0.08324 0.53752 0.0
H467 H 0.22265 0.03103 0.48774 0.0
H468 H 0.27045 0.08415 0.55561 0.0
S469 S 0.40753 0.04163 0.46243 0.0
N470 N 0.35309 1.01567 0.43643 0.0
N471 N 0.4049 0.07444 0.50861 0.0
C472 C 0.35835 0.06573 0.50389 0.0
C473 C 0.33015 0.03356 0.46515 0.0
C474 C 0.78763 0.06998 0.95814 0.0
C475 C 0.80993 0.0409 0.9544 0.0
C476 C 0.79263 0.09732 1.00077 0.0
C477 C 0.81972 0.09582 0.04066 0.0
H478 H 0.76256 0.06788 0.93007 0.0
H479 H 0.77055 0.11477 0.00465 0.0
S480 S 0.89108 0.03145 0.04539 0.0
N481 N 0.86493 1.01726 0.99103 0.0
N482 N 0.87421 0.06846 0.07114 0.0
C483 C 0.84638 0.07124 0.03494 0.0
C484 C 0.84134 0.04357 0.99175 0.0
C485 C 1.01397 0.73848 0.97068 0.0
C486 C 1.02879 0.78809 0.96276 0.0
C487 C 0.9869 0.7142 0.01225 0.0
C488 C 0.97436 0.73897 0.04731 0.0
H489 H 1.02644 0.71946 0.94647 0.0
H490 H 0.9799 0.67738 0.01932 0.0
S491 S 0.99946 0.86696 0.04071 0.0
N492 N 1.02436 0.85942 0.99042 0.0
N493 N 0.97472 0.81397 0.06957 0.0
C494 C 0.98554 0.7872 0.0379 0.0
C495 C 1.0124 0.81174 0.99515 0.0
C496 C 0.26978 0.22301 0.03893 0.0
C497 C 0.32098 0.24829 0.04341 0.0
C498 C 0.24716 0.2291 0.99778 0.0
C499 C 0.27516 0.26048 0.95988 0.0
H500 H 0.24709 0.20196 0.06936 0.0
H501 H 0.20768 0.21235 0.99739 0.0
S502 S 0.41011 0.3334 0.95313 0.0
N503 N 0.39884 0.30437 0.00575 0.0
N504 N 0.35623 0.31476 0.92773 0.0
C505 C 0.32626 0.28279 0.96205 0.0
C506 C 0.34929 0.27686 1.00408 0.0
C507 C 1.03911 0.80294 0.50797 0.0
C508 C 1.03733 0.77563 0.54903 0.0
C509 C 0.06667 0.80514 0.46673 0.0
C510 C 0.09312 0.77998 0.46525 0.0
H511 H 1.01611 0.8195 0.50632 0.0
H512 H 0.06375 0.82295 0.43422 0.0
S513 S 0.10184 0.70526 0.56427 0.0
N514 N 0.06643 0.72551 0.58708 0.0
N515 N 0.11775 0.72905 0.50907 0.0
C516 C 0.09462 0.75573 0.50743 0.0
C517 C 0.06667 0.75363 0.54955 0.0
C518 C 0.30035 0.3133 0.54851 0.0
C519 C 0.28481 0.26288 0.54918 0.0
C520 C 0.29385 0.33505 0.5067 0.0
C521 C 0.27102 0.30675 0.46486 0.0
H522 H 0.32203 0.33682 0.57834 0.0
H523 H 0.3116 0.37467 0.50529 0.0
S524 S 0.21455 0.17188 0.45264 0.0
N525 N 0.23886 0.18432 0.50783 0.0
N526 N 0.22593 0.22496 0.42967 0.0
C527 C 0.25021 0.25561 0.46755 0.0
C528 C 0.25727 0.23365 0.50969 0.0
C529 C 0.73894 0.9718 0.49596 0.0
C530 C 0.76355 0.97761 0.45142 0.0
C531 C 0.76402 0.99953 0.53726 0.0
C532 C 0.81423 0.03383 0.53497 0.0
H533 H 0.69948 0.94954 0.49766 0.0
H534 H 0.74324 0.99717 0.56981 0.0
S535 S 0.8961 0.05801 0.42867 0.0
N536 N 0.84154 1.01623 0.40885 0.0
N537 N 0.88851 0.06852 0.48641 0.0
C538 C 0.83981 0.03706 0.49182 0.0
C539 C 0.81443 1.0088 0.45 0.0
C540 C 0.3084 0.27996 0.23242 0.0
C541 C 0.35416 0.30847 0.2101 0.0
C542 C 0.29581 0.29543 0.27528 0.0
C543 C 0.32806 0.34054 0.29742 0.0
H544 H 0.28186 0.24507 0.21651 0.0
H545 H 0.26051 0.27137 0.29172 0.0
S546 S 0.45185 0.43024 0.2527 0.0
N547 N 0.43152 0.38494 0.21232 0.0
N548 N 0.40784 0.41409 0.2937 0.0
C549 C 0.37382 0.37003 0.27534 0.0
C550 C 0.38691 0.35394 0.23144 0.0
C551 C 0.71892 0.05637 0.23641 0.0
C552 C 0.74795 0.04862 0.20229 0.0
C553 C 0.70278 0.02878 0.27969 0.0
C554 C 0.71254 0.99046 0.28855 0.0
H555 H 0.70877 0.08385 0.22997 0.0
H556 H 0.68387 0.03841 0.30695 0.0
S557 S 0.78074 0.94987 0.20861 0.0
N558 N 0.78245 0.99651 0.17969 0.0
N559 N 0.74898 0.9433 0.25884 0.0
C560 C 0.73785 0.97961 0.25319 0.0
C561 C 0.75604 1.00873 0.21042 0.0
C562 C 0.99728 0.67149 0.24551 0.0
C563 C 1.01056 0.70965 0.21187 0.0
C564 C 1.02413 0.67863 0.2887 0.0
C565 C 0.06699 0.72333 0.29839 0.0
H566 H 0.96627 0.63589 0.23866 0.0
H567 H 1.01133 0.64898 0.31475 0.0
S568 S 0.1175 0.83594 0.22404 0.0
N569 N 0.0694 0.79512 0.19319 0.0
N570 N 0.12034 0.80692 0.2727 0.0
C571 C 0.08131 0.76147 0.26498 0.0
C572 C 0.05331 0.75492 0.22199 0.0
C573 C 0.75827 0.76252 0.71755 0.0
C574 C 0.74738 0.71337 0.71103 0.0
C575 C 0.74243 0.77769 0.75847 0.0
C576 C 0.71471 0.74451 0.79494 0.0
H577 H 0.78061 0.79043 0.69127 0.0
H578 H 0.75401 0.81629 0.76269 0.0
S579 S 0.67044 0.61121 0.79524 0.0
N580 N 0.70227 0.63088 0.74412 0.0
N581 N 0.67429 0.66023 0.8221 0.0
C582 C 0.70202 0.69522 0.78905 0.0
C583 C 0.71786 0.67941 0.74687 0.0
C584 C 0.31323 0.04638 0.72586 0.0
C585 C 0.35944 0.05879 0.70709 0.0
C586 C 0.29434 1.01677 0.76688 0.0
C587 C 0.32057 0.99774 0.79068 0.0
H588 H 0.2909 0.05895 0.70796 0.0
H589 H 0.25867 1.00873 0.78023 0.0
S590 S 0.44414 1.02047 0.7572 0.0
N591 N 0.43151 0.05028 0.71556 0.0
N592 N 0.39623 0.99522 0.79402 0.0
C593 C 0.3672 1.01027 0.77291 0.0
C594 C 0.38663 0.04073 0.73073 0.0
C595 C 1.02355 0.28201 0.74526 0.0
C596 C 1.01127 0.31368 0.72134 0.0
C597 C 0.05246 0.29682 0.78715 0.0
C598 C 0.07104 0.34425 0.80662 0.0
H599 H 1.01153 0.24556 0.73075 0.0
H600 H 0.06054 0.27077 0.80446 0.0
S601 S 0.04815 0.44097 0.75904 0.0
N602 N 1.01894 0.39449 0.7207 0.0
N603 N 0.07331 0.42234 0.80026 0.0
C604 C 0.05862 0.37632 0.78367 0.0
C605 C 1.02863 0.36099 0.74079 0.0
C606 C 0.5726 0.23781 0.15263 0.0
C607 C 0.52138 0.20841 0.15076 0.0
C608 C 0.60265 0.21652 0.15638 0.0
C609 C 0.58229 0.16517 0.15929 0.0
H610 H 0.58954 0.27724 0.14901 0.0
H611 H 0.64188 0.24034 0.15476 0.0
S612 S 0.44956 0.07345 0.16437 0.0
N613 N 0.4515 0.12646 0.1572 0.0
N614 N 0.50712 0.08648 0.16613 0.0
C615 C 0.53087 0.13602 0.16072 0.0
C616 C 0.50064 0.15758 0.15599 0.0
C617 C 0.81944 0.348 0.15913 0.0
C618 C 0.84858 0.32564 0.16094 0.0
C619 C 0.84054 0.39938 0.16375 0.0
C620 C 0.89132 0.42984 0.17111 0.0
H621 H 0.78066 0.32599 0.15172 0.0
H622 H 0.81729 0.41531 0.15906 0.0
S623 S 0.98144 0.38729 0.1868 0.0
N624 N 0.92927 0.33674 0.17564 0.0
N625 N 0.96859 0.43219 0.18613 0.0
C626 C 0.91983 0.40697 0.17642 0.0
C627 C 0.89859 0.35522 0.17088 0.0
C628 C 0.70415 0.5547 0.136 0.0
C629 C 0.73711 0.53744 0.14288 0.0
C630 C 0.65369 0.52277 0.1357 0.0
C631 C 0.63367 0.47192 0.1418 0.0
H632 H 0.71743 0.59341 0.13038 0.0
H633 H 0.63012 0.53816 0.12961 0.0
S634 S 0.70456 0.4079 0.16097 0.0
N635 N 0.74662 0.46644 0.15712 0.0
N636 N 0.65137 0.40568 0.15487 0.0
C637 C 0.66619 0.45405 0.14984 0.0
C638 C 0.71798 0.48699 0.15079 0.0
C639 C 0.17748 0.53912 0.38149 0.0
C640 C 0.19915 0.57885 0.34919 0.0
C641 C 0.19894 0.51024 0.39078 0.0
C642 C 0.2425 0.51917 0.36723 0.0
H643 H 0.14272 0.52931 0.39858 0.0
H644 H 0.17984 0.47927 0.415 0.0
S645 S 0.31444 0.62019 0.28015 0.0
N646 N 0.26731 0.6271 0.29486 0.0
N647 N 0.30767 0.57255 0.31153 0.0
C648 C 0.26546 0.56003 0.33599 0.0
C649 C 0.24381 0.58992 0.32716 0.0
C650 C 0.57576 0.69769 0.3695 0.0
C651 C 0.55601 0.72891 0.3656 0.0
C652 C 0.54578 0.64669 0.36896 0.0
C653 C 0.49454 0.62441 0.36515 0.0
H654 H 0.61488 0.71279 0.37317 0.0
H655 H 0.56308 0.62448 0.3724 0.0
S656 S 0.4245 0.69053 0.35646 0.0
N657 N 0.48227 0.73455 0.35802 0.0
N658 N 0.42531 0.63844 0.35905 0.0
C659 C 0.47419 0.65534 0.36086 0.0
C660 C 0.50507 0.7076 0.36061 0.0
C661 C 0.41142 0.82997 0.34805 0.0
C662 C 0.4412 0.88148 0.34608 0.0
C663 C 0.36009 0.80768 0.35053 0.0
C664 C 0.33704 0.83619 0.35212 0.0
H665 H 0.42769 0.80674 0.34981 0.0
H666 H 0.33848 0.76813 0.3533 0.0
S667 S 0.39694 0.97118 0.34065 0.0
N668 N 0.44248 0.95943 0.33979 0.0
N669 N 0.34677 0.91751 0.34658 0.0
C670 C 0.36598 0.8872 0.348 0.0
C671 C 0.41781 0.9098 0.34445 0.0
C672 C 0.47073 0.83943 0.85179 0.0
C673 C 0.48759 0.88946 0.86161 0.0
C674 C 0.5031 0.82066 0.85135 0.0
C675 C 0.55323 0.85113 0.86129 0.0
H676 H 0.43209 0.81416 0.84659 0.0
H677 H 0.48844 0.78173 0.84523 0.0
S678 S 0.61686 0.98576 0.88198 0.0
N679 N 0.55874 0.96979 0.87593 0.0
N680 N 0.61885 0.9345 0.87601 0.0
C681 C 0.57076 0.90148 0.86868 0.0
C682 C 0.53814 0.92059 0.86864 0.0
C683 C 0.17093 0.69639 0.85876 0.0
C684 C 0.22102 0.72975 0.85277 0.0
C685 C 0.15313 0.64583 0.86006 0.0
C686 C 0.1846 0.62618 0.85599 0.0
H687 H 0.14521 0.70951 0.86358 0.0
H688 H 0.11429 0.62191 0.86593 0.0
S689 S 0.31936 0.69818 0.83919 0.0
N690 N 0.30205 0.73989 0.84105 0.0
N691 N 0.26884 0.64466 0.84509 0.0
C692 C 0.23479 0.65907 0.8483 0.0
C693 C 0.25291 0.71087 0.84634 0.0
C694 C 0.35986 0.56639 0.85415 0.0
C695 C 0.3401 0.51594 0.86294 0.0
C696 C 0.41089 0.59834 0.85285 0.0
C697 C 0.44379 0.58069 0.85956 0.0
H698 H 0.33582 0.58159 0.8505 0.0
H699 H 0.42443 0.63724 0.84888 0.0
S700 S 0.40977 0.45008 0.87545 0.0
N701 N 0.35702 0.44913 0.87313 0.0
N702 N 0.45209 0.50819 0.86932 0.0
C703 C 0.42401 0.5297 0.8651 0.0
C704 C 0.37246 0.4976 0.86713 0.0
C705 C 0.85973 0.52039 0.5934 0.0
C706 C 0.83909 0.52885 0.6355 0.0
C707 C 0.88067 0.49028 0.59456 0.0
C708 C 0.88203 0.46714 0.63781 0.0
H709 H 0.86102 0.5383 0.55934 0.0
H710 H 0.89714 0.48612 0.56131 0.0
S711 S 0.83104 0.47524 0.75792 0.0
N712 N 0.81909 0.50952 0.72145 0.0
N713 N 0.85932 0.4534 0.72374 0.0
C714 C 0.85963 0.47337 0.67984 0.0
C715 C 0.83795 0.50407 0.67862 0.0
C716 C 0.5688 0.34422 0.67934 0.0
C717 C 0.54681 0.32213 0.63438 0.0
C718 C 0.5983 0.39551 0.68388 0.0
C719 C 0.60668 0.42619 0.64361 0.0
H720 H 0.56098 0.32209 0.71183 0.0
H721 H 0.61208 0.41132 0.7196 0.0
S722 S 0.56538 0.38645 0.51632 0.0
N723 N 0.5417 0.33496 0.54758 0.0
N724 N 0.59606 0.43076 0.55641 0.0
C725 C 0.58799 0.40434 0.59793 0.0
C726 C 0.55838 0.35246 0.59322 0.0
C727 C 0.71721 0.16566 0.6477 0.0
C728 C 0.74816 0.21646 0.65265 0.0
C729 C 0.66634 0.14473 0.64942 0.0
C730 C 0.64384 0.17364 0.65518 0.0
H731 H 0.73246 0.14177 0.64199 0.0
H732 H 0.6444 0.10534 0.64486 0.0
S733 S 0.70953 0.30948 0.66897 0.0
N734 N 0.75355 0.2956 0.66469 0.0
N735 N 0.65768 0.25681 0.66545 0.0
C736 C 0.67462 0.22477 0.66112 0.0
C737 C 0.7268 0.246 0.66039 0.0
C738 C 0.4698 0.25496 0.84703 0.0
C739 C 0.45086 0.20725 0.82757 0.0
C740 C 0.4671 0.26302 0.89716 0.0
C741 C 0.44387 0.22365 0.92967 0.0
H742 H 0.48747 0.28658 0.82336 0.0
H743 H 0.48272 0.30039 0.91042 0.0
S744 S 0.38975 0.09175 0.89811 0.0
N745 N 0.40975 0.1201 0.84534 0.0
N746 N 0.40284 0.13518 0.93941 0.0
C747 C 0.42471 0.17572 0.9109 0.0
C748 C 0.42872 0.16753 0.85992 0.0
C749 C 0.85412 0.22587 0.85937 0.0
C750 C 0.8891 0.26956 0.83669 0.0
C751 C 0.85076 0.22146 0.9104 0.0
C752 C 0.88221 0.26057 0.94105 0.0
H753 H 0.82847 0.1948 0.83759 0.0
H754 H 0.82281 0.18725 0.92588 0.0
S755 S 0.98378 0.38113 0.90019 0.0
N756 N 0.95804 0.35161 0.84899 0.0
N757 N 0.9521 0.3434 0.94478 0.0
C758 C 0.91829 0.3041 0.9189 0.0
C759 C 0.92164 0.30858 0.86683 0.0
C760 C 0.86969 0.61164 0.89934 0.0
C761 C 0.85213 0.63349 0.93283 0.0
C762 C 0.85863 0.60859 0.84938 0.0
C763 C 0.82875 0.62634 0.83103 0.0
H764 H 0.89237 0.59695 0.91174 0.0
H765 H 0.873 0.5914 0.82503 0.0
S766 S 0.77392 0.68741 0.9031 0.0
N767 N 0.80383 0.67394 0.94374 0.0
N768 N 0.7827 0.66749 0.85006 0.0
C769 C 0.81099 0.64834 0.86399 0.0
C770 C 0.82285 0.65217 0.91478 0.0
C771 C 0.2393 0.40795 0.61085 0.0
C772 C 0.2065 0.41232 0.57951 0.0
C773 C 0.23588 0.41108 0.66177 0.0
C774 C 0.19955 0.41873 0.68361 0.0
H775 H 0.26833 0.40271 0.59599 0.0
H776 H 0.26259 0.40822 0.68412 0.0
S777 S 0.10151 0.42762 0.61824 0.0
N778 N 0.1341 0.42118 0.57439 0.0
N779 N 0.12814 0.42739 0.66987 0.0
C780 C 0.16568 0.42183 0.65281 0.0
C781 C 0.16904 0.41853 0.6009 0.0
C782 C 0.6181 0.76834 0.59653 0.0
C783 C 0.65341 0.8118 0.57375 0.0
C784 C 0.61667 0.76294 0.64748 0.0
C785 C 0.65044 0.80082 0.67792 0.0
H786 H 0.59088 0.73818 0.57489 0.0
H787 H 0.58827 0.72907 0.6631 0.0
S788 S 0.75352 0.92007 0.63662 0.0
N789 N 0.72525 0.89204 0.5857 0.0
N790 N 0.72244 0.88215 0.68126 0.0
C791 C 0.68674 0.84403 0.65563 0.0
C792 C 0.68823 0.84949 0.60368 0.0
C793 C 0.23135 0.83284 0.65214 0.0
C794 C 0.27509 0.86906 0.67382 0.0
C795 C 0.22649 0.827 0.60129 0.0
C796 C 0.26517 0.85692 0.56984 0.0
H797 H 0.20056 0.80819 0.6746 0.0
H798 H 0.19223 0.79846 0.58658 0.0
S799 S 0.38551 0.96122 0.60773 0.0
N800 N 0.35662 0.93786 0.65965 0.0
N801 N 0.34761 0.92705 0.56407 0.0
C802 C 0.30877 0.89427 0.59092 0.0
C803 C 0.31369 0.90027 0.64284 0.0
C804 C 0.63656 0.79388 0.1103 0.0
C805 C 0.64706 0.83116 0.07644 0.0
C806 C 0.63361 0.80156 0.16047 0.0
C807 C 0.63966 0.84635 0.17867 0.0
H808 H 0.63106 0.75864 0.09799 0.0
H809 H 0.62572 0.77173 0.18512 0.0
S810 S 0.66647 0.95534 0.10473 0.0
N811 N 0.66372 0.91467 0.06435 0.0
N812 N 0.65593 0.92829 0.15843 0.0
C813 C 0.64962 0.88378 0.14506 0.0
C814 C 0.65398 0.87642 0.09404 0.0
C815 C 0.23781 0.84375 0.0929 0.0
C816 C 0.20044 0.80636 0.06486 0.0
C817 C 0.23894 0.83995 0.14385 0.0
C818 C 0.20247 0.79882 0.16878 0.0
H819 H 0.26711 0.87567 0.07527 0.0
H820 H 0.26918 0.86917 0.16365 0.0
S821 S 0.09288 0.69407 0.11246 0.0
N822 N 0.12359 0.72916 0.06594 0.0
N823 N 0.12544 0.72192 0.16147 0.0
C824 C 0.16365 0.7622 0.14122 0.0
C825 C 0.16272 0.76599 0.08935 0.0
C826 C 0.23281 0.40939 0.10861 0.0
C827 C 0.27039 0.414 0.07729 0.0
C828 C 0.23864 0.41229 0.15953 0.0
C829 C 0.28229 0.41993 0.18142 0.0
H830 H 0.19869 0.40403 0.09375 0.0
H831 H 0.2087 0.4091 0.18184 0.0
S832 S 0.39043 0.43012 0.116 0.0
N833 N 0.35189 0.42355 0.07215 0.0
N834 N 0.3628 0.42942 0.16765 0.0
C835 C 0.3198 0.42356 0.1506 0.0
C836 C 0.31386 0.42047 0.09867 0.0
C837 C 0.8706 0.64876 0.41158 0.0
C838 C 0.82339 0.63584 0.42851 0.0
C839 C 0.87973 0.6453 0.36183 0.0
C840 C 0.84226 0.62999 0.32699 0.0
H841 H 0.90059 0.66054 0.4371 0.0
H842 H 0.91646 0.65505 0.35055 0.0
S843 S 0.71269 0.59364 0.35211 0.0
N844 N 0.739 0.60779 0.40635 0.0
N845 N 0.75625 0.60246 0.31282 0.0
C846 C 0.79513 0.61796 0.3433 0.0
C847 C 0.78566 0.62054 0.39405 0.0
C848 C 0.41659 0.21033 0.39899 0.0
C849 C 0.42616 0.2496 0.43061 0.0
C850 C 0.41836 0.21589 0.34812 0.0
C851 C 0.42996 0.261 0.32662 0.0
H852 H 0.4081 0.175 0.41355 0.0
H853 H 0.41129 0.18457 0.32553 0.0
S854 S 0.45459 0.37449 0.3929 0.0
N855 N 0.44509 0.33472 0.43646 0.0
N856 N 0.44886 0.34502 0.34099 0.0
C857 C 0.43863 0.30032 0.35772 0.0
C858 C 0.4366 0.29466 0.4096 0.0
C859 C 0.78049 0.17301 0.41403 0.0
C860 C 0.82728 0.19984 0.43527 0.0
C861 C 0.77418 0.16827 0.36318 0.0
C862 C 0.81438 0.19016 0.3311 0.0
H863 H 0.74812 0.15531 0.43682 0.0
H864 H 0.73733 0.14734 0.34901 0.0
S865 S 0.94484 0.2634 0.36741 0.0
N866 N 0.91468 0.24799 0.41971 0.0
N867 N 0.90292 0.2391 0.32436 0.0
C868 C 0.86145 0.21674 0.35171 0.0
C869 C 0.86787 0.22162 0.40361 0.0
loop_
_geom_bond_atom_site_label_1
_geom_bond_atom_site_label_2
_geom_bond_distance
_geom_bond_site_symmetry_2
_ccdc_geom_bond_type
Zn0 N4 2.020 . S
Zn0 O8 2.019 . S
Zn0 N10 2.119 . S
Zn0 O18 1.975 . S
C1 N2 1.334 . S
C1 N5 1.336 . S
N2 C1 1.334 . S
N2 C3 1.334 . S
C3 N2 1.334 . S
C3 N4 1.336 . S
N4 Zn0 2.020 . S
N4 C3 1.336 . S
N4 N5 1.354 . S
N5 C1 1.336 . S
N5 N4 1.354 . S
N5 Zn9 2.020 . S
C6 O7 1.244 1_556 S
C6 O30 1.257 1_556 S
O7 C6 1.244 1_554 S
O8 Zn0 2.019 . S
O8 C28 1.257 . S
Zn9 N5 2.020 . S
Zn9 O16 1.975 . S
Zn9 N25 2.119 . S
Zn9 O30 2.019 . S
N10 Zn0 2.119 . S
N10 C12 1.334 . S
N10 C13 1.328 . S
C11 C12 1.391 . S
C11 N14 1.329 . S
C11 H32 0.930 . S
C12 N10 1.334 . S
C12 C11 1.391 . S
C12 H19 0.930 . S
C13 N10 1.328 . S
C13 C15 1.392 . S
C13 H20 0.930 . S
N14 C11 1.329 . S
N14 C15 1.331 . S
C15 C13 1.392 . S
C15 N14 1.331 . S
O16 Zn9 1.975 . S
O16 C17 1.252 . S
C17 O16 1.252 . S
C17 O18 1.252 . S
O18 Zn0 1.975 . S
O18 C17 1.252 . S
H19 C12 0.930 . S
H20 C13 0.930 . S
C21 C22 1.392 . S
C21 N25 1.328 . S
C21 H27 0.930 . S
C22 C21 1.392 . S
C22 N26 1.331 . S
C23 C24 1.391 . S
C23 N26 1.329 . S
C23 H33 0.930 . S
C24 C23 1.391 . S
C24 N25 1.334 . S
C24 H31 0.930 . S
N25 Zn9 2.119 . S
N25 C21 1.328 . S
N25 C24 1.334 . S
N26 C22 1.331 . S
N26 C23 1.329 . S
H27 C21 0.930 . S
C28 O8 1.257 . S
C28 O29 1.244 . S
O29 C28 1.244 . S
O30 C6 1.257 1_554 S
O30 Zn9 2.019 . S
H31 C24 0.930 . S
H32 C11 0.930 . S
H33 C23 0.930 . S
Zn34 N38 2.020 . S
Zn34 O42 2.019 . S
Zn34 N44 2.119 . S
Zn34 O52 1.975 . S
C35 N36 1.334 . S
C35 N39 1.336 . S
N36 C35 1.334 . S
N36 C37 1.334 . S
C37 N36 1.334 . S
C37 N38 1.336 . S
N38 Zn34 2.020 . S
N38 C37 1.336 . S
N38 N39 1.354 . S
N39 C35 1.336 . S
N39 N38 1.354 . S
N39 Zn43 2.020 . S
C40 O41 1.244 1_556 S
C40 O64 1.257 1_556 S
O41 C40 1.244 1_554 S
O42 Zn34 2.019 . S
O42 C62 1.257 . S
Zn43 N39 2.020 . S
Zn43 O50 1.975 . S
Zn43 N59 2.119 . S
Zn43 O64 2.019 . S
N44 Zn34 2.119 . S
N44 C46 1.334 . S
N44 C47 1.328 . S
C45 C46 1.391 . S
C45 N48 1.329 . S
C45 H66 0.930 . S
C46 N44 1.334 . S
C46 C45 1.391 . S
C46 H53 0.930 . S
C47 N44 1.328 . S
C47 C49 1.392 . S
C47 H54 0.930 . S
N48 C45 1.329 . S
N48 C49 1.331 . S
C49 C47 1.392 . S
C49 N48 1.331 . S
O50 Zn43 1.975 . S
O50 C51 1.252 . S
C51 O50 1.252 . S
C51 O52 1.252 . S
O52 Zn34 1.975 . S
O52 C51 1.252 . S
H53 C46 0.930 . S
H54 C47 0.930 . S
C55 C56 1.392 . S
C55 N59 1.328 . S
C55 H61 0.930 . S
C56 C55 1.392 . S
C56 N60 1.331 . S
C57 C58 1.391 . S
C57 N60 1.329 . S
C57 H67 0.930 . S
C58 C57 1.391 . S
C58 N59 1.334 . S
C58 H65 0.930 . S
N59 Zn43 2.119 . S
N59 C55 1.328 . S
N59 C58 1.334 . S
N60 C56 1.331 . S
N60 C57 1.329 . S
H61 C55 0.930 . S
C62 O42 1.257 . S
C62 O63 1.244 . S
O63 C62 1.244 . S
O64 C40 1.257 1_554 S
O64 Zn43 2.019 . S
H65 C58 0.930 . S
H66 C45 0.930 . S
H67 C57 0.930 . S
Zn68 N72 2.020 . S
Zn68 O76 2.019 . S
Zn68 N78 2.119 . S
Zn68 O86 1.975 . S
C69 N70 1.334 . S
C69 N73 1.336 . S
N70 C69 1.334 . S
N70 C71 1.334 . S
C71 N70 1.334 . S
C71 N72 1.336 . S
N72 Zn68 2.020 . S
N72 C71 1.336 . S
N72 N73 1.354 . S
N73 C69 1.336 . S
N73 N72 1.354 . S
N73 Zn77 2.020 . S
C74 O75 1.244 1_556 S
C74 O98 1.257 1_556 S
O75 C74 1.244 1_554 S
O76 Zn68 2.019 . S
O76 C96 1.257 . S
Zn77 N73 2.020 . S
Zn77 O84 1.975 . S
Zn77 N93 2.119 . S
Zn77 O98 2.019 . S
N78 Zn68 2.119 . S
N78 C80 1.334 . S
N78 C81 1.328 . S
C79 C80 1.391 . S
C79 N82 1.329 . S
C79 H100 0.930 . S
C80 N78 1.334 . S
C80 C79 1.391 . S
C80 H87 0.930 . S
C81 N78 1.328 . S
C81 C83 1.392 . S
C81 H88 0.930 . S
N82 C79 1.329 . S
N82 C83 1.331 . S
C83 C81 1.392 . S
C83 N82 1.331 . S
O84 Zn77 1.975 . S
O84 C85 1.252 . S
C85 O84 1.252 . S
C85 O86 1.252 . S
O86 Zn68 1.975 . S
O86 C85 1.252 . S
H87 C80 0.930 . S
H88 C81 0.930 . S
C89 C90 1.392 . S
C89 N93 1.328 . S
C89 H95 0.930 . S
C90 C89 1.392 . S
C90 N94 1.331 . S
C91 C92 1.391 . S
C91 N94 1.329 . S
C91 H101 0.930 . S
C92 C91 1.391 . S
C92 N93 1.334 . S
C92 H99 0.930 . S
N93 Zn77 2.119 . S
N93 C89 1.328 . S
N93 C92 1.334 . S
N94 C90 1.331 . S
N94 C91 1.329 . S
H95 C89 0.930 . S
C96 O76 1.257 . S
C96 O97 1.244 . S
O97 C96 1.244 . S
O98 C74 1.257 1_554 S
O98 Zn77 2.019 . S
H99 C92 0.930 . S
H100 C79 0.930 . S
H101 C91 0.930 . S
Zn102 N106 2.020 . S
Zn102 O110 2.019 . S
Zn102 N112 2.119 . S
Zn102 O120 1.975 . S
C103 N104 1.334 . S
C103 N107 1.336 . S
N104 C103 1.334 . S
N104 C105 1.334 . S
C105 N104 1.334 . S
C105 N106 1.336 . S
N106 Zn102 2.020 . S
N106 C105 1.336 . S
N106 N107 1.354 . S
N107 C103 1.336 . S
N107 N106 1.354 . S
N107 Zn111 2.020 . S
C108 O109 1.244 . S
C108 O132 1.257 . S
O109 C108 1.244 . S
O110 Zn102 2.019 . S
O110 C130 1.257 . S
Zn111 N107 2.020 . S
Zn111 O118 1.975 . S
Zn111 N127 2.119 . S
Zn111 O132 2.019 . S
N112 Zn102 2.119 . S
N112 C114 1.334 . S
N112 C115 1.328 . S
C113 C114 1.391 . S
C113 N116 1.329 . S
C113 H134 0.930 . S
C114 N112 1.334 . S
C114 C113 1.391 . S
C114 H121 0.930 . S
C115 N112 1.328 . S
C115 C117 1.392 . S
C115 H122 0.930 . S
N116 C113 1.329 . S
N116 C117 1.331 . S
C117 C115 1.392 . S
C117 N116 1.331 . S
O118 Zn111 1.975 . S
O118 C119 1.252 . S
C119 O118 1.252 . S
C119 O120 1.252 . S
O120 Zn102 1.975 . S
O120 C119 1.252 . S
H121 C114 0.930 . S
H122 C115 0.930 . S
C123 C124 1.392 . S
C123 N127 1.328 . S
C123 H129 0.930 . S
C124 C123 1.392 . S
C124 N128 1.331 . S
C125 C126 1.391 . S
C125 N128 1.329 . S
C125 H135 0.930 . S
C126 C125 1.391 . S
C126 N127 1.334 . S
C126 H133 0.930 . S
N127 Zn111 2.119 . S
N127 C123 1.328 . S
N127 C126 1.334 . S
N128 C124 1.331 . S
N128 C125 1.329 . S
H129 C123 0.930 . S
C130 O110 1.257 . S
C130 O131 1.244 . S
O131 C130 1.244 . S
O132 C108 1.257 . S
O132 Zn111 2.019 . S
H133 C126 0.930 . S
H134 C113 0.930 . S
H135 C125 0.930 . S
Zn136 N140 2.020 . S
Zn136 O144 2.019 . S
Zn136 N146 2.119 . S
Zn136 O154 1.975 . S
C137 N138 1.334 . S
C137 N141 1.336 . S
N138 C137 1.334 . S
N138 C139 1.334 . S
C139 N138 1.334 . S
C139 N140 1.336 . S
N140 Zn136 2.020 . S
N140 C139 1.336 . S
N140 N141 1.354 . S
N141 C137 1.336 . S
N141 N140 1.354 . S
N141 Zn145 2.020 . S
C142 O143 1.244 . S
C142 O166 1.257 . S
O143 C142 1.244 . S
O144 Zn136 2.019 . S
O144 C164 1.257 . S
Zn145 N141 2.020 . S
Zn145 O152 1.975 . S
Zn145 N161 2.119 . S
Zn145 O166 2.019 . S
N146 Zn136 2.119 . S
N146 C148 1.334 . S
N146 C149 1.328 . S
C147 C148 1.391 . S
C147 N150 1.329 . S
C147 H168 0.930 . S
C148 N146 1.334 . S
C148 C147 1.391 . S
C148 H155 0.930 . S
C149 N146 1.328 . S
C149 C151 1.392 . S
C149 H156 0.930 . S
N150 C147 1.329 . S
N150 C151 1.331 . S
C151 C149 1.392 . S
C151 N150 1.331 . S
O152 Zn145 1.975 . S
O152 C153 1.252 . S
C153 O152 1.252 . S
C153 O154 1.252 . S
O154 Zn136 1.975 . S
O154 C153 1.252 . S
H155 C148 0.930 . S
H156 C149 0.930 . S
C157 C158 1.392 . S
C157 N161 1.328 . S
C157 H163 0.930 . S
C158 C157 1.392 . S
C158 N162 1.331 . S
C159 C160 1.391 . S
C159 N162 1.329 . S
C159 H169 0.930 . S
C160 C159 1.391 . S
C160 N161 1.334 . S
C160 H167 0.930 . S
N161 Zn145 2.119 . S
N161 C157 1.328 . S
N161 C160 1.334 . S
N162 C158 1.331 . S
N162 C159 1.329 . S
H163 C157 0.930 . S
C164 O144 1.257 . S
C164 O165 1.244 . S
O165 C164 1.244 . S
O166 C142 1.257 . S
O166 Zn145 2.019 . S
H167 C160 0.930 . S
H168 C147 0.930 . S
H169 C159 0.930 . S
Zn170 N174 2.020 . S
Zn170 O178 2.019 . S
Zn170 N180 2.119 . S
Zn170 O188 1.975 . S
C171 N172 1.334 . S
C171 N175 1.336 . S
N172 C171 1.334 . S
N172 C173 1.334 . S
C173 N172 1.334 . S
C173 N174 1.336 . S
N174 Zn170 2.020 . S
N174 C173 1.336 . S
N174 N175 1.354 . S
N175 C171 1.336 . S
N175 N174 1.354 . S
N175 Zn179 2.020 . S
C176 O177 1.244 . S
C176 O200 1.257 . S
O177 C176 1.244 . S
O178 Zn170 2.019 . S
O178 C198 1.257 . S
Zn179 N175 2.020 . S
Zn179 O186 1.975 . S
Zn179 N195 2.119 . S
Zn179 O200 2.019 . S
N180 Zn170 2.119 . S
N180 C182 1.334 . S
N180 C183 1.328 . S
C181 C182 1.391 . S
C181 N184 1.329 . S
C181 H202 0.930 . S
C182 N180 1.334 . S
C182 C181 1.391 . S
C182 H189 0.930 . S
C183 N180 1.328 . S
C183 C185 1.392 . S
C183 H190 0.930 . S
N184 C181 1.329 . S
N184 C185 1.331 . S
C185 C183 1.392 . S
C185 N184 1.331 . S
O186 Zn179 1.975 . S
O186 C187 1.252 . S
C187 O186 1.252 . S
C187 O188 1.252 . S
O188 Zn170 1.975 . S
O188 C187 1.252 . S
H189 C182 0.930 . S
H190 C183 0.930 . S
C191 C192 1.392 . S
C191 N195 1.328 . S
C191 H197 0.930 . S
C192 C191 1.392 . S
C192 N196 1.331 . S
C193 C194 1.391 . S
C193 N196 1.329 . S
C193 H203 0.930 . S
C194 C193 1.391 . S
C194 N195 1.334 . S
C194 H201 0.930 . S
N195 Zn179 2.119 . S
N195 C191 1.328 . S
N195 C194 1.334 . S
N196 C192 1.331 . S
N196 C193 1.329 . S
H197 C191 0.930 . S
C198 O178 1.257 . S
C198 O199 1.244 . S
O199 C198 1.244 . S
O200 C176 1.257 . S
O200 Zn179 2.019 . S
H201 C194 0.930 . S
H202 C181 0.930 . S
H203 C193 0.930 . S
Zn204 N208 2.020 . S
Zn204 O212 2.019 . S
Zn204 N214 2.119 . S
Zn204 O222 1.975 . S
C205 N206 1.334 . S
C205 N209 1.336 . S
N206 C205 1.334 . S
N206 C207 1.334 . S
C207 N206 1.334 . S
C207 N208 1.336 . S
N208 Zn204 2.020 . S
N208 C207 1.336 . S
N208 N209 1.354 . S
N209 C205 1.336 . S
N209 N208 1.354 . S
N209 Zn213 2.020 . S
C210 O211 1.244 . S
C210 O234 1.257 . S
O211 C210 1.244 . S
O212 Zn204 2.019 . S
O212 C232 1.257 1_556 S
Zn213 N209 2.020 . S
Zn213 O220 1.975 . S
Zn213 N229 2.119 . S
Zn213 O234 2.019 . S
N214 Zn204 2.119 . S
N214 C216 1.334 . S
N214 C217 1.328 . S
C215 C216 1.391 . S
C215 N218 1.329 . S
C215 H236 0.930 . S
C216 N214 1.334 . S
C216 C215 1.391 . S
C216 H223 0.930 . S
C217 N214 1.328 . S
C217 C219 1.392 . S
C217 H224 0.930 . S
N218 C215 1.329 . S
N218 C219 1.331 . S
C219 C217 1.392 . S
C219 N218 1.331 . S
O220 Zn213 1.975 . S
O220 C221 1.252 . S
C221 O220 1.252 . S
C221 O222 1.252 . S
O222 Zn204 1.975 . S
O222 C221 1.252 . S
H223 C216 0.930 . S
H224 C217 0.930 . S
C225 C226 1.392 . S
C225 N229 1.328 . S
C225 H231 0.930 . S
C226 C225 1.392 . S
C226 N230 1.331 . S
C227 C228 1.391 . S
C227 N230 1.329 . S
C227 H237 0.930 . S
C228 C227 1.391 . S
C228 N229 1.334 . S
C228 H235 0.930 . S
N229 Zn213 2.119 . S
N229 C225 1.328 . S
N229 C228 1.334 . S
N230 C226 1.331 . S
N230 C227 1.329 . S
H231 C225 0.930 . S
C232 O212 1.257 1_554 S
C232 O233 1.244 1_554 S
O233 C232 1.244 1_556 S
O234 C210 1.257 . S
O234 Zn213 2.019 . S
H235 C228 0.930 . S
H236 C215 0.930 . S
H237 C227 0.930 . S
Zn238 N242 2.020 . S
Zn238 O246 2.019 . S
Zn238 N248 2.119 . S
Zn238 O256 1.975 . S
C239 N240 1.334 . S
C239 N243 1.336 . S
N240 C239 1.334 . S
N240 C241 1.334 . S
C241 N240 1.334 . S
C241 N242 1.336 . S
N242 Zn238 2.020 . S
N242 C241 1.336 . S
N242 N243 1.354 . S
N243 C239 1.336 . S
N243 N242 1.354 . S
N243 Zn247 2.020 . S
C244 O245 1.244 . S
C244 O268 1.257 . S
O245 C244 1.244 . S
O246 Zn238 2.019 . S
O246 C266 1.257 1_556 S
Zn247 N243 2.020 . S
Zn247 O254 1.975 . S
Zn247 N263 2.119 . S
Zn247 O268 2.019 . S
N248 Zn238 2.119 . S
N248 C250 1.334 . S
N248 C251 1.328 . S
C249 C250 1.391 . S
C249 N252 1.329 . S
C249 H270 0.930 . S
C250 N248 1.334 . S
C250 C249 1.391 . S
C250 H257 0.930 . S
C251 N248 1.328 . S
C251 C253 1.392 . S
C251 H258 0.930 . S
N252 C249 1.329 . S
N252 C253 1.331 . S
C253 C251 1.392 . S
C253 N252 1.331 . S
O254 Zn247 1.975 . S
O254 C255 1.252 . S
C255 O254 1.252 . S
C255 O256 1.252 . S
O256 Zn238 1.975 . S
O256 C255 1.252 . S
H257 C250 0.930 . S
H258 C251 0.930 . S
C259 C260 1.392 . S
C259 N263 1.328 . S
C259 H265 0.930 . S
C260 C259 1.392 . S
C260 N264 1.331 . S
C261 C262 1.391 . S
C261 N264 1.329 . S
C261 H271 0.930 . S
C262 C261 1.391 . S
C262 N263 1.334 . S
C262 H269 0.930 . S
N263 Zn247 2.119 . S
N263 C259 1.328 . S
N263 C262 1.334 . S
N264 C260 1.331 . S
N264 C261 1.329 . S
H265 C259 0.930 . S
C266 O246 1.257 1_554 S
C266 O267 1.244 1_554 S
O267 C266 1.244 1_556 S
O268 C244 1.257 . S
O268 Zn247 2.019 . S
H269 C262 0.930 . S
H270 C249 0.930 . S
H271 C261 0.930 . S
Zn272 N276 2.020 . S
Zn272 O280 2.019 . S
Zn272 N282 2.119 . S
Zn272 O290 1.975 . S
C273 N274 1.334 . S
C273 N277 1.336 . S
N274 C273 1.334 . S
N274 C275 1.334 . S
C275 N274 1.334 . S
C275 N276 1.336 . S
N276 Zn272 2.020 . S
N276 C275 1.336 . S
N276 N277 1.354 . S
N277 C273 1.336 . S
N277 N276 1.354 . S
N277 Zn281 2.020 . S
C278 O279 1.244 . S
C278 O302 1.257 . S
O279 C278 1.244 . S
O280 Zn272 2.019 . S
O280 C300 1.257 1_556 S
Zn281 N277 2.020 . S
Zn281 O288 1.975 . S
Zn281 N297 2.119 . S
Zn281 O302 2.019 . S
N282 Zn272 2.119 . S
N282 C284 1.334 . S
N282 C285 1.328 . S
C283 C284 1.391 . S
C283 N286 1.329 . S
C283 H304 0.930 . S
C284 N282 1.334 . S
C284 C283 1.391 . S
C284 H291 0.930 . S
C285 N282 1.328 . S
C285 C287 1.392 . S
C285 H292 0.930 . S
N286 C283 1.329 . S
N286 C287 1.331 . S
C287 C285 1.392 . S
C287 N286 1.331 . S
O288 Zn281 1.975 . S
O288 C289 1.252 . S
C289 O288 1.252 . S
C289 O290 1.252 . S
O290 Zn272 1.975 . S
O290 C289 1.252 . S
H291 C284 0.930 . S
H292 C285 0.930 . S
C293 C294 1.392 . S
C293 N297 1.328 . S
C293 H299 0.930 . S
C294 C293 1.392 . S
C294 N298 1.331 . S
C295 C296 1.391 . S
C295 N298 1.329 . S
C295 H305 0.930 . S
C296 C295 1.391 . S
C296 N297 1.334 . S
C296 H303 0.930 . S
N297 Zn281 2.119 . S
N297 C293 1.328 . S
N297 C296 1.334 . S
N298 C294 1.331 . S
N298 C295 1.329 . S
H299 C293 0.930 . S
C300 O280 1.257 1_554 S
C300 O301 1.244 1_554 S
O301 C300 1.244 1_556 S
O302 C278 1.257 . S
O302 Zn281 2.019 . S
H303 C296 0.930 . S
H304 C283 0.930 . S
H305 C295 0.930 . S
Zn306 N310 2.020 . S
Zn306 O314 2.019 . S
Zn306 N316 2.119 . S
Zn306 O324 1.975 . S
C307 N308 1.334 . S
C307 N311 1.336 . S
N308 C307 1.334 . S
N308 C309 1.334 . S
C309 N308 1.334 . S
C309 N310 1.336 . S
N310 Zn306 2.020 . S
N310 C309 1.336 . S
N310 N311 1.354 . S
N311 C307 1.336 . S
N311 N310 1.354 . S
N311 Zn315 2.020 . S
C312 O313 1.244 . S
C312 O336 1.257 . S
O313 C312 1.244 . S
O314 Zn306 2.019 . S
O314 C334 1.257 . S
Zn315 N311 2.020 . S
Zn315 O322 1.975 . S
Zn315 N331 2.119 . S
Zn315 O336 2.019 . S
N316 Zn306 2.119 . S
N316 C318 1.334 . S
N316 C319 1.328 . S
C317 C318 1.391 . S
C317 N320 1.329 . S
C317 H338 0.930 . S
C318 N316 1.334 . S
C318 C317 1.391 . S
C318 H325 0.930 . S
C319 N316 1.328 . S
C319 C321 1.392 . S
C319 H326 0.930 . S
N320 C317 1.329 . S
N320 C321 1.331 . S
C321 C319 1.392 . S
C321 N320 1.331 . S
O322 Zn315 1.975 . S
O322 C323 1.252 . S
C323 O322 1.252 . S
C323 O324 1.252 . S
O324 Zn306 1.975 . S
O324 C323 1.252 . S
H325 C318 0.930 . S
H326 C319 0.930 . S
C327 C328 1.392 . S
C327 N331 1.328 . S
C327 H333 0.930 . S
C328 C327 1.392 . S
C328 N332 1.331 . S
C329 C330 1.391 . S
C329 N332 1.329 . S
C329 H339 0.930 . S
C330 C329 1.391 . S
C330 N331 1.334 . S
C330 H337 0.930 . S
N331 Zn315 2.119 . S
N331 C327 1.328 . S
N331 C330 1.334 . S
N332 C328 1.331 . S
N332 C329 1.329 . S
H333 C327 0.930 . S
C334 O314 1.257 . S
C334 O335 1.244 . S
O335 C334 1.244 . S
O336 C312 1.257 . S
O336 Zn315 2.019 . S
H337 C330 0.930 . S
H338 C317 0.930 . S
H339 C329 0.930 . S
Zn340 N344 2.020 . S
Zn340 O348 2.019 . S
Zn340 N350 2.119 . S
Zn340 O358 1.975 . S
C341 N342 1.334 . S
C341 N345 1.336 . S
N342 C341 1.334 . S
N342 C343 1.334 . S
C343 N342 1.334 . S
C343 N344 1.336 . S
N344 Zn340 2.020 . S
N344 C343 1.336 . S
N344 N345 1.354 . S
N345 C341 1.336 . S
N345 N344 1.354 . S
N345 Zn349 2.020 . S
C346 O347 1.244 . S
C346 O370 1.257 . S
O347 C346 1.244 . S
O348 Zn340 2.019 . S
O348 C368 1.257 . S
Zn349 N345 2.020 . S
Zn349 O356 1.975 . S
Zn349 N365 2.119 . S
Zn349 O370 2.019 . S
N350 Zn340 2.119 . S
N350 C352 1.334 . S
N350 C353 1.328 . S
C351 C352 1.391 . S
C351 N354 1.329 . S
C351 H372 0.930 . S
C352 N350 1.334 . S
C352 C351 1.391 . S
C352 H359 0.930 . S
C353 N350 1.328 . S
C353 C355 1.392 . S
C353 H360 0.930 . S
N354 C351 1.329 . S
N354 C355 1.331 . S
C355 C353 1.392 . S
C355 N354 1.331 . S
O356 Zn349 1.975 . S
O356 C357 1.252 . S
C357 O356 1.252 . S
C357 O358 1.252 . S
O358 Zn340 1.975 . S
O358 C357 1.252 . S
H359 C352 0.930 . S
H360 C353 0.930 . S
C361 C362 1.392 . S
C361 N365 1.328 . S
C361 H367 0.930 . S
C362 C361 1.392 . S
C362 N366 1.331 . S
C363 C364 1.391 . S
C363 N366 1.329 . S
C363 H373 0.930 . S
C364 C363 1.391 . S
C364 N365 1.334 . S
C364 H371 0.930 . S
N365 Zn349 2.119 . S
N365 C361 1.328 . S
N365 C364 1.334 . S
N366 C362 1.331 . S
N366 C363 1.329 . S
H367 C361 0.930 . S
C368 O348 1.257 . S
C368 O369 1.244 . S
O369 C368 1.244 . S
O370 C346 1.257 . S
O370 Zn349 2.019 . S
H371 C364 0.930 . S
H372 C351 0.930 . S
H373 C363 0.930 . S
Zn374 N378 2.020 . S
Zn374 O382 2.019 . S
Zn374 N384 2.119 . S
Zn374 O392 1.975 . S
C375 N376 1.334 . S
C375 N379 1.336 . S
N376 C375 1.334 . S
N376 C377 1.334 . S
C377 N376 1.334 . S
C377 N378 1.336 . S
N378 Zn374 2.020 . S
N378 C377 1.336 . S
N378 N379 1.354 . S
N379 C375 1.336 . S
N379 N378 1.354 . S
N379 Zn383 2.020 . S
C380 O381 1.244 . S
C380 O404 1.257 . S
O381 C380 1.244 . S
O382 Zn374 2.019 . S
O382 C402 1.257 . S
Zn383 N379 2.020 . S
Zn383 O390 1.975 . S
Zn383 N399 2.119 . S
Zn383 O404 2.019 . S
N384 Zn374 2.119 . S
N384 C386 1.334 . S
N384 C387 1.328 . S
C385 C386 1.391 . S
C385 N388 1.329 . S
C385 H406 0.930 . S
C386 N384 1.334 . S
C386 C385 1.391 . S
C386 H393 0.930 . S
C387 N384 1.328 . S
C387 C389 1.392 . S
C387 H394 0.930 . S
N388 C385 1.329 . S
N388 C389 1.331 . S
C389 C387 1.392 . S
C389 N388 1.331 . S
O390 Zn383 1.975 . S
O390 C391 1.252 . S
C391 O390 1.252 . S
C391 O392 1.252 . S
O392 Zn374 1.975 . S
O392 C391 1.252 . S
H393 C386 0.930 . S
H394 C387 0.930 . S
C395 C396 1.392 . S
C395 N399 1.328 . S
C395 H401 0.930 . S
C396 C395 1.392 . S
C396 N400 1.331 . S
C397 C398 1.391 . S
C397 N400 1.329 . S
C397 H407 0.930 . S
C398 C397 1.391 . S
C398 N399 1.334 . S
C398 H405 0.930 . S
N399 Zn383 2.119 . S
N399 C395 1.328 . S
N399 C398 1.334 . S
N400 C396 1.331 . S
N400 C397 1.329 . S
H401 C395 0.930 . S
C402 O382 1.257 . S
C402 O403 1.244 . S
O403 C402 1.244 . S
O404 C380 1.257 . S
O404 Zn383 2.019 . S
H405 C398 0.930 . S
H406 C385 0.930 . S
H407 C397 0.930 . S
C408 C409 1.369 . S
C408 C410 1.419 1_556 S
C408 H412 0.930 . S
C409 C408 1.369 . S
C409 C418 1.429 . S
C410 C408 1.419 1_554 S
C410 C411 1.363 1_565 S
C410 H413 0.929 . S
C411 C410 1.363 1_545 S
C411 C417 1.428 1_544 S
H412 C408 0.930 . S
H413 C410 0.929 . S
S414 N415 1.613 1_545 S
S414 N416 1.610 . S
N415 S414 1.613 1_565 S
N415 C418 1.350 . S
N416 S414 1.610 . S
N416 C417 1.351 1_545 S
C417 C411 1.428 1_566 S
C417 N416 1.351 1_565 S
C417 C418 1.434 . S
C418 C409 1.429 . S
C418 N415 1.350 . S
C418 C417 1.434 . S
C419 C420 1.369 1_455 S
C419 C421 1.419 1_554 S
C419 H423 0.930 . S
C420 C419 1.369 1_655 S
C420 C429 1.429 1_554 S
C421 C419 1.419 1_556 S
C421 C422 1.363 . S
C421 H424 0.929 . S
C422 C421 1.363 . S
C422 C428 1.428 . S
H423 C419 0.930 . S
H424 C421 0.929 . S
S425 N426 1.613 . S
S425 N427 1.610 1_655 S
N426 S425 1.613 . S
N426 C429 1.350 . S
N427 S425 1.610 1_455 S
N427 C428 1.351 . S
C428 C422 1.428 . S
C428 N427 1.351 . S
C428 C429 1.434 1_455 S
C429 C420 1.429 1_556 S
C429 N426 1.350 . S
C429 C428 1.434 1_655 S
C430 C431 1.369 . S
C430 C432 1.419 1_554 S
C430 H434 0.930 . S
C431 C430 1.369 . S
C431 C440 1.429 1_554 S
C432 C430 1.419 1_556 S
C432 C433 1.363 . S
C432 H435 0.929 . S
C433 C432 1.363 . S
C433 C439 1.428 . S
H434 C430 0.930 . S
H435 C432 0.929 . S
S436 N437 1.613 . S
S436 N438 1.610 . S
N437 S436 1.613 . S
N437 C440 1.350 . S
N438 S436 1.610 . S
N438 C439 1.351 . S
C439 C433 1.428 . S
C439 N438 1.351 . S
C439 C440 1.434 . S
C440 C431 1.429 1_556 S
C440 N437 1.350 . S
C440 C439 1.434 . S
C441 C442 1.369 1_655 S
C441 C443 1.419 . S
C441 H445 0.930 . S
C442 C441 1.369 1_455 S
C442 C451 1.429 . S
C443 C441 1.419 . S
C443 C444 1.363 . S
C443 H446 0.929 . S
C444 C443 1.363 . S
C444 C450 1.428 . S
H445 C441 0.930 . S
H446 C443 0.929 . S
S447 N448 1.613 . S
S447 N449 1.610 . S
N448 S447 1.613 . S
N448 C451 1.350 . S
N449 S447 1.610 . S
N449 C450 1.351 1_455 S
C450 C444 1.428 . S
C450 N449 1.351 1_655 S
C450 C451 1.434 1_655 S
C451 C442 1.429 . S
C451 N448 1.350 . S
C451 C450 1.434 1_455 S
C452 C453 1.369 . S
C452 C454 1.419 . S
C452 H456 0.930 . S
C453 C452 1.369 . S
C453 C462 1.429 . S
C454 C452 1.419 . S
C454 C455 1.363 . S
C454 H457 0.929 . S
C455 C454 1.363 . S
C455 C461 1.428 . S
H456 C452 0.930 . S
H457 C454 0.929 . S
S458 N459 1.613 . S
S458 N460 1.610 . S
N459 S458 1.613 . S
N459 C462 1.350 . S
N460 S458 1.610 . S
N460 C461 1.351 . S
C461 C455 1.428 . S
C461 N460 1.351 . S
C461 C462 1.434 . S
C462 C453 1.429 . S
C462 N459 1.350 . S
C462 C461 1.434 . S
C463 C464 1.369 1_545 S
C463 C465 1.419 . S
C463 H467 0.930 . S
C464 C463 1.369 1_565 S
C464 C473 1.429 . S
C465 C463 1.419 . S
C465 C466 1.363 . S
C465 H468 0.929 . S
C466 C465 1.363 . S
C466 C472 1.428 . S
H467 C463 0.930 . S
H468 C465 0.929 . S
S469 N470 1.613 . S
S469 N471 1.610 1_565 S
N470 S469 1.613 . S
N470 C473 1.350 . S
N471 S469 1.610 1_545 S
N471 C472 1.351 . S
C472 C466 1.428 . S
C472 N471 1.351 . S
C472 C473 1.434 1_545 S
C473 C464 1.429 . S
C473 N470 1.350 . S
C473 C472 1.434 1_565 S
C474 C475 1.369 1_545 S
C474 C476 1.419 1_556 S
C474 H478 0.930 . S
C475 C474 1.369 1_565 S
C475 C484 1.429 1_556 S
C476 C474 1.419 1_554 S
C476 C477 1.363 . S
C476 H479 0.929 . S
C477 C476 1.363 . S
C477 C483 1.428 . S
H478 C474 0.930 . S
H479 C476 0.929 . S
S480 N481 1.613 . S
S480 N482 1.610 1_565 S
N481 S480 1.613 . S
N481 C484 1.350 . S
N482 S480 1.610 1_545 S
N482 C483 1.351 . S
C483 C477 1.428 . S
C483 N482 1.351 . S
C483 C484 1.434 1_545 S
C484 C475 1.429 1_554 S
C484 N481 1.350 . S
C484 C483 1.434 1_565 S
C485 C486 1.369 1_655 S
C485 C487 1.419 1_556 S
C485 H489 0.936 . S
C486 C485 1.369 1_455 S
C486 C495 1.429 1_456 S
C487 C485 1.419 1_554 S
C487 C488 1.363 . S
C487 H490 0.929 . S
C488 C487 1.363 . S
C488 C494 1.428 . S
H489 C485 0.936 . S
H490 C487 0.929 . S
S491 N492 1.613 1_654 S
S491 N493 1.610 . S
N492 S491 1.613 1_456 S
N492 C495 1.350 1_456 S
N493 S491 1.610 . S
N493 C494 1.351 . S
C494 C488 1.428 . S
C494 N493 1.351 . S
C494 C495 1.434 . S
C495 C486 1.429 1_654 S
C495 N492 1.350 1_654 S
C495 C494 1.434 . S
C496 C497 1.369 . S
C496 C498 1.419 . S
C496 H500 0.930 . S
C497 C496 1.369 . S
C497 C506 1.429 . S
C498 C496 1.419 . S
C498 C499 1.363 1_554 S
C498 H501 0.929 . S
C499 C498 1.363 1_556 S
C499 C505 1.428 . S
H500 C496 0.930 . S
H501 C498 0.929 . S
S502 N503 1.613 . S
S502 N504 1.610 . S
N503 S502 1.613 . S
N503 C506 1.350 1_556 S
N504 S502 1.610 . S
N504 C505 1.351 . S
C505 C499 1.428 . S
C505 N504 1.351 . S
C505 C506 1.434 1_556 S
C506 C497 1.429 . S
C506 N503 1.350 1_554 S
C506 C505 1.434 1_554 S
C507 C508 1.369 . S
C507 C509 1.419 1_655 S
C507 H511 0.930 . S
C508 C507 1.369 . S
C508 C517 1.429 1_655 S
C509 C507 1.419 1_455 S
C509 C510 1.363 . S
C509 H512 0.929 . S
C510 C509 1.363 . S
C510 C516 1.428 . S
H511 C507 0.930 . S
H512 C509 0.929 . S
S513 N514 1.613 . S
S513 N515 1.610 . S
N514 S513 1.613 . S
N514 C517 1.350 . S
N515 S513 1.610 . S
N515 C516 1.351 . S
C516 C510 1.428 . S
C516 N515 1.351 . S
C516 C517 1.434 . S
C517 C508 1.429 1_455 S
C517 N514 1.350 . S
C517 C516 1.434 . S
C518 C519 1.369 . S
C518 C520 1.419 . S
C518 H522 0.930 . S
C519 C518 1.369 . S
C519 C528 1.429 . S
C520 C518 1.419 . S
C520 C521 1.363 . S
C520 H523 0.929 . S
C521 C520 1.363 . S
C521 C527 1.428 . S
H522 C518 0.930 . S
H523 C520 0.929 . S
S524 N525 1.613 . S
S524 N526 1.610 . S
N525 S524 1.613 . S
N525 C528 1.350 . S
N526 S524 1.610 . S
N526 C527 1.351 . S
C527 C521 1.428 . S
C527 N526 1.351 . S
C527 C528 1.434 . S
C528 C519 1.429 . S
C528 N525 1.350 . S
C528 C527 1.434 . S
C529 C530 1.369 . S
C529 C531 1.419 . S
C529 H533 0.930 . S
C530 C529 1.369 . S
C530 C539 1.429 . S
C531 C529 1.419 . S
C531 C532 1.363 1_565 S
C531 H534 0.929 . S
C532 C531 1.363 1_545 S
C532 C538 1.428 . S
H533 C529 0.930 . S
H534 C531 0.929 . S
S535 N536 1.613 . S
S535 N537 1.610 . S
N536 S535 1.613 . S
N536 C539 1.350 1_545 S
N537 S535 1.610 . S
N537 C538 1.351 . S
C538 C532 1.428 . S
C538 N537 1.351 . S
C538 C539 1.434 1_545 S
C539 C530 1.429 . S
C539 N536 1.350 1_565 S
C539 C538 1.434 1_565 S
C540 C541 1.369 . S
C540 C542 1.419 . S
C540 H544 0.930 . S
C541 C540 1.369 . S
C541 C550 1.429 . S
C542 C540 1.419 . S
C542 C543 1.363 . S
C542 H545 0.929 . S
C543 C542 1.363 . S
C543 C549 1.428 . S
H544 C540 0.930 . S
H545 C542 0.929 . S
S546 N547 1.613 . S
S546 N548 1.610 . S
N547 S546 1.613 . S
N547 C550 1.350 . S
N548 S546 1.610 . S
N548 C549 1.351 . S
C549 C543 1.428 . S
C549 N548 1.351 . S
C549 C550 1.434 . S
C550 C541 1.429 . S
C550 N547 1.350 . S
C550 C549 1.434 . S
C551 C552 1.369 . S
C551 C553 1.419 1_545 S
C551 H555 0.930 . S
C552 C551 1.369 . S
C552 C561 1.429 . S
C553 C551 1.419 1_565 S
C553 C554 1.363 . S
C553 H556 0.929 . S
C554 C553 1.363 . S
C554 C560 1.428 . S
H555 C551 0.930 . S
H556 C553 0.929 . S
S557 N558 1.613 1_565 S
S557 N559 1.610 . S
N558 S557 1.613 1_545 S
N558 C561 1.350 . S
N559 S557 1.610 . S
N559 C560 1.351 . S
C560 C554 1.428 . S
C560 N559 1.351 . S
C560 C561 1.434 1_565 S
C561 C552 1.429 . S
C561 N558 1.350 . S
C561 C560 1.434 1_545 S
C562 C563 1.369 . S
C562 C564 1.419 1_655 S
C562 H566 0.930 . S
C563 C562 1.369 . S
C563 C572 1.429 . S
C564 C562 1.419 1_455 S
C564 C565 1.363 . S
C564 H567 0.929 . S
C565 C564 1.363 . S
C565 C571 1.428 . S
H566 C562 0.930 . S
H567 C564 0.929 . S
S568 N569 1.617 . S
S568 N570 1.610 . S
N569 S568 1.617 . S
N569 C572 1.351 1_455 S
N570 S568 1.610 . S
N570 C571 1.351 . S
C571 C565 1.428 . S
C571 N570 1.351 . S
C571 C572 1.434 1_455 S
C572 C563 1.429 . S
C572 N569 1.351 1_655 S
C572 C571 1.434 1_655 S
C573 C574 1.369 . S
C573 C575 1.419 . S
C573 H577 0.930 . S
C574 C573 1.369 . S
C574 C583 1.429 . S
C575 C573 1.419 . S
C575 C576 1.363 . S
C575 H578 0.929 . S
C576 C575 1.363 . S
C576 C582 1.428 . S
H577 C573 0.930 . S
H578 C575 0.929 . S
S579 N580 1.613 . S
S579 N581 1.610 . S
N580 S579 1.613 . S
N580 C583 1.350 . S
N581 S579 1.610 . S
N581 C582 1.351 . S
C582 C576 1.428 . S
C582 N581 1.351 . S
C582 C583 1.434 . S
C583 C574 1.429 . S
C583 N580 1.350 . S
C583 C582 1.434 . S
C584 C585 1.369 . S
C584 C586 1.419 1_545 S
C584 H588 0.930 . S
C585 C584 1.369 . S
C585 C594 1.444 . S
C586 C584 1.419 1_565 S
C586 C587 1.363 . S
C586 H589 0.929 . S
C587 C586 1.363 . S
C587 C593 1.428 . S
H588 C584 0.930 . S
H589 C586 0.929 . S
S590 N591 1.613 . S
S590 N592 1.610 . S
N591 S590 1.613 . S
N591 C594 1.345 1_565 S
N592 S590 1.610 . S
N592 C593 1.351 . S
C593 C587 1.428 . S
C593 N592 1.351 . S
C593 C594 1.422 1_565 S
C594 C585 1.444 . S
C594 N591 1.345 1_545 S
C594 C593 1.422 1_545 S
C595 C596 1.369 . S
C595 C597 1.419 1_655 S
C595 H599 0.930 . S
C596 C595 1.369 . S
C596 C605 1.429 . S
C597 C595 1.419 1_455 S
C597 C598 1.363 . S
C597 H600 0.929 . S
C598 C597 1.363 . S
C598 C604 1.428 . S
H599 C595 0.930 . S
H600 C597 0.929 . S
S601 N602 1.613 . S
S601 N603 1.610 1_655 S
N602 S601 1.613 . S
N602 C605 1.350 . S
N603 S601 1.610 1_455 S
N603 C604 1.351 . S
C604 C598 1.428 . S
C604 N603 1.351 . S
C604 C605 1.434 1_455 S
C605 C596 1.429 . S
C605 N602 1.350 . S
C605 C604 1.434 1_655 S
C606 C607 1.369 . S
C606 C608 1.419 . S
C606 H610 0.930 . S
C607 C606 1.369 . S
C607 C616 1.429 . S
C608 C606 1.419 . S
C608 C609 1.363 . S
C608 H611 0.929 . S
C609 C608 1.363 . S
C609 C615 1.428 . S
H610 C606 0.930 . S
H611 C608 0.929 . S
S612 N613 1.613 . S
S612 N614 1.610 . S
N613 S612 1.613 . S
N613 C616 1.350 . S
N614 S612 1.610 . S
N614 C615 1.351 . S
C615 C609 1.428 . S
C615 N614 1.351 . S
C615 C616 1.434 . S
C616 C607 1.429 . S
C616 N613 1.350 . S
C616 C615 1.434 . S
C617 C618 1.369 . S
C617 C619 1.419 . S
C617 H621 0.930 . S
C618 C617 1.369 . S
C618 C627 1.429 . S
C619 C617 1.419 . S
C619 C620 1.363 . S
C619 H622 0.929 . S
C620 C619 1.363 . S
C620 C626 1.428 . S
H621 C617 0.930 . S
H622 C619 0.929 . S
S623 N624 1.613 . S
S623 N625 1.610 . S
N624 S623 1.613 . S
N624 C627 1.350 . S
N625 S623 1.610 . S
N625 C626 1.351 . S
C626 C620 1.428 . S
C626 N625 1.351 . S
C626 C627 1.434 . S
C627 C618 1.429 . S
C627 N624 1.350 . S
C627 C626 1.434 . S
C628 C629 1.369 . S
C628 C630 1.419 . S
C628 H632 0.930 . S
C629 C628 1.369 . S
C629 C638 1.429 . S
C630 C628 1.419 . S
C630 C631 1.363 . S
C630 H633 0.929 . S
C631 C630 1.363 . S
C631 C637 1.428 . S
H632 C628 0.930 . S
H633 C630 0.929 . S
S634 N635 1.613 . S
S634 N636 1.610 . S
N635 S634 1.613 . S
N635 C638 1.350 . S
N636 S634 1.610 . S
N636 C637 1.351 . S
C637 C631 1.428 . S
C637 N636 1.351 . S
C637 C638 1.434 . S
C638 C629 1.429 . S
C638 N635 1.350 . S
C638 C637 1.434 . S
C639 C640 1.369 . S
C639 C641 1.419 . S
C639 H643 0.930 . S
C640 C639 1.369 . S
C640 C649 1.429 . S
C641 C639 1.419 . S
C641 C642 1.363 . S
C641 H644 0.929 . S
C642 C641 1.363 . S
C642 C648 1.428 . S
H643 C639 0.930 . S
H644 C641 0.929 . S
S645 N646 1.613 . S
S645 N647 1.610 . S
N646 S645 1.613 . S
N646 C649 1.350 . S
N647 S645 1.610 . S
N647 C648 1.351 . S
C648 C642 1.428 . S
C648 N647 1.351 . S
C648 C649 1.434 . S
C649 C640 1.429 . S
C649 N646 1.350 . S
C649 C648 1.434 . S
C650 C651 1.369 . S
C650 C652 1.419 . S
C650 H654 0.930 . S
C651 C650 1.369 . S
C651 C660 1.429 . S
C652 C650 1.419 . S
C652 C653 1.363 . S
C652 H655 0.929 . S
C653 C652 1.363 . S
C653 C659 1.428 . S
H654 C650 0.930 . S
H655 C652 0.929 . S
S656 N657 1.613 . S
S656 N658 1.610 . S
N657 S656 1.613 . S
N657 C660 1.350 . S
N658 S656 1.610 . S
N658 C659 1.351 . S
C659 C653 1.428 . S
C659 N658 1.351 . S
C659 C660 1.434 . S
C660 C651 1.429 . S
C660 N657 1.350 . S
C660 C659 1.434 . S
C661 C662 1.369 . S
C661 C663 1.419 . S
C661 H665 0.930 . S
C662 C661 1.369 . S
C662 C671 1.429 . S
C663 C661 1.419 . S
C663 C664 1.363 . S
C663 H666 0.929 . S
C664 C663 1.363 . S
C664 C670 1.428 . S
H665 C661 0.930 . S
H666 C663 0.929 . S
S667 N668 1.613 . S
S667 N669 1.610 . S
N668 S667 1.613 . S
N668 C671 1.350 . S
N669 S667 1.610 . S
N669 C670 1.351 . S
C670 C664 1.428 . S
C670 N669 1.351 . S
C670 C671 1.434 . S
C671 C662 1.429 . S
C671 N668 1.350 . S
C671 C670 1.434 . S
C672 C673 1.369 . S
C672 C674 1.419 . S
C672 H676 0.930 . S
C673 C672 1.369 . S
C673 C682 1.429 . S
C674 C672 1.419 . S
C674 C675 1.363 . S
C674 H677 0.929 . S
C675 C674 1.363 . S
C675 C681 1.428 . S
H676 C672 0.930 . S
H677 C674 0.929 . S
S678 N679 1.613 . S
S678 N680 1.610 . S
N679 S678 1.613 . S
N679 C682 1.350 . S
N680 S678 1.610 . S
N680 C681 1.351 . S
C681 C675 1.428 . S
C681 N680 1.351 . S
C681 C682 1.434 . S
C682 C673 1.429 . S
C682 N679 1.350 . S
C682 C681 1.434 . S
C683 C684 1.369 . S
C683 C685 1.419 . S
C683 H687 0.930 . S
C684 C683 1.369 . S
C684 C693 1.429 . S
C685 C683 1.419 . S
C685 C686 1.363 . S
C685 H688 0.929 . S
C686 C685 1.363 . S
C686 C692 1.428 . S
H687 C683 0.930 . S
H688 C685 0.929 . S
S689 N690 1.613 . S
S689 N691 1.610 . S
N690 S689 1.613 . S
N690 C693 1.350 . S
N691 S689 1.610 . S
N691 C692 1.351 . S
C692 C686 1.428 . S
C692 N691 1.351 . S
C692 C693 1.434 . S
C693 C684 1.429 . S
C693 N690 1.350 . S
C693 C692 1.434 . S
C694 C695 1.369 . S
C694 C696 1.419 . S
C694 H698 0.930 . S
C695 C694 1.369 . S
C695 C704 1.429 . S
C696 C694 1.419 . S
C696 C697 1.363 . S
C696 H699 0.929 . S
C697 C696 1.363 . S
C697 C703 1.428 . S
H698 C694 0.930 . S
H699 C696 0.929 . S
S700 N701 1.613 . S
S700 N702 1.610 . S
N701 S700 1.613 . S
N701 C704 1.350 . S
N702 S700 1.610 . S
N702 C703 1.351 . S
C703 C697 1.428 . S
C703 N702 1.351 . S
C703 C704 1.434 . S
C704 C695 1.429 . S
C704 N701 1.350 . S
C704 C703 1.434 . S
C705 C706 1.369 . S
C705 C707 1.419 . S
C705 H709 0.930 . S
C706 C705 1.369 . S
C706 C715 1.429 . S
C707 C705 1.419 . S
C707 C708 1.363 . S
C707 H710 0.929 . S
C708 C707 1.363 . S
C708 C714 1.428 . S
H709 C705 0.930 . S
H710 C707 0.929 . S
S711 N712 1.613 . S
S711 N713 1.610 . S
N712 S711 1.613 . S
N712 C715 1.350 . S
N713 S711 1.610 . S
N713 C714 1.351 . S
C714 C708 1.428 . S
C714 N713 1.351 . S
C714 C715 1.434 . S
C715 C706 1.429 . S
C715 N712 1.350 . S
C715 C714 1.434 . S
C716 C717 1.369 . S
C716 C718 1.419 . S
C716 H720 0.930 . S
C717 C716 1.369 . S
C717 C726 1.429 . S
C718 C716 1.419 . S
C718 C719 1.363 . S
C718 H721 0.929 . S
C719 C718 1.363 . S
C719 C725 1.428 . S
H720 C716 0.930 . S
H721 C718 0.929 . S
S722 N723 1.613 . S
S722 N724 1.610 . S
N723 S722 1.613 . S
N723 C726 1.350 . S
N724 S722 1.610 . S
N724 C725 1.351 . S
C725 C719 1.428 . S
C725 N724 1.351 . S
C725 C726 1.434 . S
C726 C717 1.429 . S
C726 N723 1.350 . S
C726 C725 1.434 . S
C727 C728 1.369 . S
C727 C729 1.419 . S
C727 H731 0.930 . S
C728 C727 1.369 . S
C728 C737 1.429 . S
C729 C727 1.419 . S
C729 C730 1.363 . S
C729 H732 0.929 . S
C730 C729 1.363 . S
C730 C736 1.428 . S
H731 C727 0.930 . S
H732 C729 0.929 . S
S733 N734 1.613 . S
S733 N735 1.610 . S
N734 S733 1.613 . S
N734 C737 1.350 . S
N735 S733 1.610 . S
N735 C736 1.351 . S
C736 C730 1.428 . S
C736 N735 1.351 . S
C736 C737 1.434 . S
C737 C728 1.429 . S
C737 N734 1.350 . S
C737 C736 1.434 . S
C738 C739 1.369 . S
C738 C740 1.419 . S
C738 H742 0.930 . S
C739 C738 1.369 . S
C739 C748 1.429 . S
C740 C738 1.419 . S
C740 C741 1.363 . S
C740 H743 0.929 . S
C741 C740 1.363 . S
C741 C747 1.428 . S
H742 C738 0.930 . S
H743 C740 0.929 . S
S744 N745 1.613 . S
S744 N746 1.610 . S
N745 S744 1.613 . S
N745 C748 1.350 . S
N746 S744 1.610 . S
N746 C747 1.351 . S
C747 C741 1.428 . S
C747 N746 1.351 . S
C747 C748 1.434 . S
C748 C739 1.429 . S
C748 N745 1.350 . S
C748 C747 1.434 . S
C749 C750 1.369 . S
C749 C751 1.419 . S
C749 H753 0.930 . S
C750 C749 1.369 . S
C750 C759 1.429 . S
C751 C749 1.419 . S
C751 C752 1.363 . S
C751 H754 0.929 . S
C752 C751 1.363 . S
C752 C758 1.428 . S
H753 C749 0.930 . S
H754 C751 0.929 . S
S755 N756 1.613 . S
S755 N757 1.610 . S
N756 S755 1.613 . S
N756 C759 1.350 . S
N757 S755 1.610 . S
N757 C758 1.351 . S
C758 C752 1.428 . S
C758 N757 1.351 . S
C758 C759 1.434 . S
C759 C750 1.429 . S
C759 N756 1.350 . S
C759 C758 1.434 . S
C760 C761 1.369 . S
C760 C762 1.419 . S
C760 H764 0.930 . S
C761 C760 1.369 . S
C761 C770 1.429 . S
C762 C760 1.419 . S
C762 C763 1.363 . S
C762 H765 0.929 . S
C763 C762 1.363 . S
C763 C769 1.428 . S
H764 C760 0.930 . S
H765 C762 0.929 . S
S766 N767 1.613 . S
S766 N768 1.610 . S
N767 S766 1.613 . S
N767 C770 1.350 . S
N768 S766 1.610 . S
N768 C769 1.351 . S
C769 C763 1.428 . S
C769 N768 1.351 . S
C769 C770 1.434 . S
C770 C761 1.429 . S
C770 N767 1.350 . S
C770 C769 1.434 . S
C771 C772 1.369 . S
C771 C773 1.419 . S
C771 H775 0.930 . S
C772 C771 1.369 . S
C772 C781 1.429 . S
C773 C771 1.419 . S
C773 C774 1.363 . S
C773 H776 0.929 . S
C774 C773 1.363 . S
C774 C780 1.428 . S
H775 C771 0.930 . S
H776 C773 0.929 . S
S777 N778 1.613 . S
S777 N779 1.610 . S
N778 S777 1.613 . S
N778 C781 1.350 . S
N779 S777 1.610 . S
N779 C780 1.351 . S
C780 C774 1.428 . S
C780 N779 1.351 . S
C780 C781 1.434 . S
C781 C772 1.429 . S
C781 N778 1.350 . S
C781 C780 1.434 . S
C782 C783 1.369 . S
C782 C784 1.419 . S
C782 H786 0.930 . S
C783 C782 1.369 . S
C783 C792 1.429 . S
C784 C782 1.419 . S
C784 C785 1.363 . S
C784 H787 0.929 . S
C785 C784 1.363 . S
C785 C791 1.428 . S
H786 C782 0.930 . S
H787 C784 0.929 . S
S788 N789 1.613 . S
S788 N790 1.610 . S
N789 S788 1.613 . S
N789 C792 1.350 . S
N790 S788 1.610 . S
N790 C791 1.351 . S
C791 C785 1.428 . S
C791 N790 1.351 . S
C791 C792 1.434 . S
C792 C783 1.429 . S
C792 N789 1.350 . S
C792 C791 1.434 . S
C793 C794 1.369 . S
C793 C795 1.419 . S
C793 H797 0.930 . S
C794 C793 1.369 . S
C794 C803 1.429 . S
C795 C793 1.419 . S
C795 C796 1.363 . S
C795 H798 0.929 . S
C796 C795 1.363 . S
C796 C802 1.428 . S
H797 C793 0.930 . S
H798 C795 0.929 . S
S799 N800 1.613 . S
S799 N801 1.610 . S
N800 S799 1.613 . S
N800 C803 1.350 . S
N801 S799 1.610 . S
N801 C802 1.351 . S
C802 C796 1.428 . S
C802 N801 1.351 . S
C802 C803 1.434 . S
C803 C794 1.429 . S
C803 N800 1.350 . S
C803 C802 1.434 . S
C804 C805 1.369 . S
C804 C806 1.419 . S
C804 H808 0.930 . S
C805 C804 1.369 . S
C805 C814 1.429 . S
C806 C804 1.419 . S
C806 C807 1.363 . S
C806 H809 0.929 . S
C807 C806 1.363 . S
C807 C813 1.428 . S
H808 C804 0.930 . S
H809 C806 0.929 . S
S810 N811 1.613 . S
S810 N812 1.610 . S
N811 S810 1.613 . S
N811 C814 1.350 . S
N812 S810 1.610 . S
N812 C813 1.351 . S
C813 C807 1.428 . S
C813 N812 1.351 . S
C813 C814 1.434 . S
C814 C805 1.429 . S
C814 N811 1.350 . S
C814 C813 1.434 . S
C815 C816 1.369 . S
C815 C817 1.419 . S
C815 H819 0.930 . S
C816 C815 1.369 . S
C816 C825 1.429 . S
C817 C815 1.419 . S
C817 C818 1.363 . S
C817 H820 0.929 . S
C818 C817 1.363 . S
C818 C824 1.428 . S
H819 C815 0.930 . S
H820 C817 0.929 . S
S821 N822 1.613 . S
S821 N823 1.610 . S
N822 S821 1.613 . S
N822 C825 1.350 . S
N823 S821 1.610 . S
N823 C824 1.351 . S
C824 C818 1.428 . S
C824 N823 1.351 . S
C824 C825 1.434 . S
C825 C816 1.429 . S
C825 N822 1.350 . S
C825 C824 1.434 . S
C826 C827 1.369 . S
C826 C828 1.419 . S
C826 H830 0.930 . S
C827 C826 1.369 . S
C827 C836 1.429 . S
C828 C826 1.419 . S
C828 C829 1.363 . S
C828 H831 0.929 . S
C829 C828 1.363 . S
C829 C835 1.428 . S
H830 C826 0.930 . S
H831 C828 0.929 . S
S832 N833 1.613 . S
S832 N834 1.610 . S
N833 S832 1.613 . S
N833 C836 1.350 . S
N834 S832 1.610 . S
N834 C835 1.351 . S
C835 C829 1.428 . S
C835 N834 1.351 . S
C835 C836 1.434 . S
C836 C827 1.429 . S
C836 N833 1.350 . S
C836 C835 1.434 . S
C837 C838 1.369 . S
C837 C839 1.419 . S
C837 H841 0.930 . S
C838 C837 1.369 . S
C838 C847 1.429 . S
C839 C837 1.419 . S
C839 C840 1.363 . S
C839 H842 0.929 . S
C840 C839 1.363 . S
C840 C846 1.428 . S
H841 C837 0.930 . S
H842 C839 0.929 . S
S843 N844 1.613 . S
S843 N845 1.610 . S
N844 S843 1.613 . S
N844 C847 1.350 . S
N845 S843 1.610 . S
N845 C846 1.351 . S
C846 C840 1.428 . S
C846 N845 1.351 . S
C846 C847 1.434 . S
C847 C838 1.429 . S
C847 N844 1.350 . S
C847 C846 1.434 . S
C848 C849 1.369 . S
C848 C850 1.419 . S
C848 H852 0.930 . S
C849 C848 1.369 . S
C849 C858 1.429 . S
C850 C848 1.419 . S
C850 C851 1.363 . S
C850 H853 0.929 . S
C851 C850 1.363 . S
C851 C857 1.428 . S
H852 C848 0.930 . S
H853 C850 0.929 . S
S854 N855 1.613 . S
S854 N856 1.610 . S
N855 S854 1.613 . S
N855 C858 1.350 . S
N856 S854 1.610 . S
N856 C857 1.351 . S
C857 C851 1.428 . S
C857 N856 1.351 . S
C857 C858 1.434 . S
C858 C849 1.429 . S
C858 N855 1.350 . S
C858 C857 1.434 . S
C859 C860 1.369 . S
C859 C861 1.419 . S
C859 H863 0.930 . S
C860 C859 1.369 . S
C860 C869 1.429 . S
C861 C859 1.419 . S
C861 C862 1.363 . S
C861 H864 0.929 . S
C862 C861 1.363 . S
C862 C868 1.428 . S
H863 C859 0.930 . S
H864 C861 0.929 . S
S865 N866 1.613 . S
S865 N867 1.610 . S
N866 S865 1.613 . S
N866 C869 1.350 . S
N867 S865 1.610 . S
N867 C868 1.351 . S
C868 C862 1.428 . S
C868 N867 1.351 . S
C868 C869 1.434 . S
C869 C860 1.429 . S
C869 N866 1.350 . S
C869 C868 1.434 . S
C409 C241 1.753 . S
C411 C22 1.795 . S
C420 C56 1.793 . S
C422 C275 1.751 . S
C431 C90 1.793 . S
C433 C207 1.751 . S
C442 C124 1.795 . S
C444 C377 1.753 . S
C453 C307 1.757 . S
C455 C158 1.795 . S
C464 C192 1.792 . S
C466 C341 1.751 . S
C475 C219 1.795 . S
C477 C35 1.753 . S
C486 C253 1.796 . S
C488 C69 1.755 . S
C497 C1 1.755 . S
C499 C287 1.793 . S
C508 C328 1.794 . S
C510 C171 1.755 . S
C519 C362 1.795 . S
C521 C103 1.753 . S
C530 C137 1.753 . S
C532 C389 1.795 . S
C541 C3 1.595 . S
C543 C105 1.587 . S
C552 C37 1.585 . S
C554 C139 1.590 . S
C563 C71 1.585 . S
C565 C173 1.592 . S
C574 C309 1.595 . S
C576 C205 1.588 . S
C585 C343 1.585 . S
C587 C239 1.594 . S
C596 C375 1.594 . S
C598 C273 1.589 . S
C607 C17 2.061 . S
C609 C49 1.705 . S
C618 C51 2.061 . S
C620 C83 1.706 . S
C629 C85 2.059 . S
C631 C15 1.705 . S
C640 C185 1.709 . S
C642 C119 2.058 . S
C651 C153 2.060 . S
C653 C117 1.704 . S
C662 C151 1.703 . S
C664 C187 2.061 . S
C673 C260 1.715 . S
C675 C221 2.058 . S
C684 C255 2.056 . S
C686 C294 1.715 . S
C695 C289 2.061 . S
C697 C226 1.704 . S
C706 C323 2.055 . S
C708 C396 1.715 . S
C717 C357 2.059 . S
C719 C321 1.704 . S
C728 C391 2.058 . S
C730 C355 1.707 . S
C739 C368 1.260 . S
C741 C6 1.252 . S
C750 C380 1.260 . S
C752 C40 1.253 . S
C761 C74 1.254 . S
C763 C334 1.260 . S
C772 C108 1.252 . S
C774 C278 1.260 . S
C783 C142 1.253 . S
C785 C210 1.259 . S
C794 C244 1.260 . S
C796 C176 1.252 . S
C805 C232 1.252 . S
C807 C164 1.260 . S
C816 C266 1.253 . S
C818 C198 1.260 . S
C827 C300 1.253 . S
C829 C130 1.260 . S
C838 C312 1.255 . S
C840 C96 1.260 . S
C849 C346 1.253 . S
C851 C28 1.260 . S
C860 C402 1.255 . S
C862 C62 1.259 . S
