# Generated by pormake.
# Topology sxb, (6)-cn, num edge types: 1
# Building blocks:
#     Node 0, Type 0, BuildingBlock: KUMBOL_clean_sbu_1, # of connection points: 6
#     Node 1, Type 0, BuildingBlock: KUMBOL_clean_sbu_1, # of connection points: 6
#     Node 2, Type 0, BuildingBlock: KUMBOL_clean_sbu_1, # of connection points: 6
#     Node 3, Type 0, BuildingBlock: KUMBOL_clean_sbu_1, # of connection points: 6
#     Edge 4, Type (0, 0), BuildingBlock: OJICUG_clean_linker_0, # of connection points: 2
#     Edge 5, Type (0, 0), BuildingBlock: OJICUG_clean_linker_0, # of connection points: 2
#     Edge 6, Type (0, 0), BuildingBlock: OJICUG_clean_linker_0, # of connection points: 2
#     Edge 7, Type (0, 0), BuildingBlock: OJICUG_clean_linker_0, # of connection points: 2
#     Edge 8, Type (0, 0), BuildingBlock: OJICUG_clean_linker_0, # of connection points: 2
#     Edge 9, Type (0, 0), BuildingBlock: OJICUG_clean_linker_0, # of connection points: 2
#     Edge 10, Type (0, 0), BuildingBlock: OJICUG_clean_linker_0, # of connection points: 2
#     Edge 11, Type (0, 0), BuildingBlock: OJICUG_clean_linker_0, # of connection points: 2
#     Edge 12, Type (0, 0), BuildingBlock: OJICUG_clean_linker_0, # of connection points: 2
#     Edge 13, Type (0, 0), BuildingBlock: OJICUG_clean_linker_0, # of connection points: 2
#     Edge 14, Type (0, 0), BuildingBlock: OJICUG_clean_linker_0, # of connection points: 2
#     Edge 15, Type (0, 0), BuildingBlock: OJICUG_clean_linker_0, # of connection points: 2
# Relax obj value: 0.022
# Max RMSD: 0.074
# Mean RMSD: 0.074
data_MOF--net-sxb--node1-KUMBOL_clean_sbu_1--edge1-OJICUG_clean_linker_0
_symmetry_space_group_name_H-M    P1
_symmetry_Int_Tables_number       1
_symmetry_cell_setting            triclinic
loop_
_symmetry_equiv_pos_as_xyz
'x, y, z'
_cell_length_a     10.93936
_cell_length_b     39.955547
_cell_length_c     21.527911
_cell_angle_alpha  112.02517
_cell_angle_beta   90.00138
_cell_angle_gamma 89.999379
loop_
_atom_site_label
_atom_site_type_symbol
_atom_site_fract_x
_atom_site_fract_y
_atom_site_fract_z
_atom_type_partial_charge
C0 C 0.32097 0.1 0.10332 0.0
C1 C 0.45548 0.10477 0.01724 0.0
C2 C 0.34097 0.09582 0.03684 0.0
C3 C 0.55014 0.11671 0.0644 0.0
C4 C 0.41536 0.11256 0.15102 0.0
C5 C 0.53013 0.12067 0.1311 0.0
N6 N 0.21086 0.09014 0.12052 0.0
C7 C 0.18679 0.094 0.18501 0.0
C8 C 0.39238 0.11578 0.21703 0.0
C9 C 0.27733 0.10668 0.23416 0.0
Gd10 Gd 1.03654 0.96027 0.95106 0.0
Gd11 Gd 0.06675 0.06865 0.03424 0.0
N12 N 0.24922 0.0826 0.99131 0.0
C13 C 0.47142 0.10158 0.95077 0.0
C14 C 0.26094 0.08271 0.9283 0.0
C15 C 0.37285 0.09123 0.9065 0.0
H16 H 0.18356 0.07755 0.89526 0.0
H17 H 0.38232 0.09042 0.8559 0.0
H18 H 0.91863 0.95154 0.08994 0.0
H19 H 0.09727 0.08771 0.19873 0.0
H20 H 0.71953 0.9387 0.12896 0.0
H21 H 0.55808 0.10818 0.93377 0.0
H22 H 0.63917 0.1228 0.04945 0.0
H23 H 1.00725 0.94102 0.78641 0.0
H24 H 0.46268 0.12529 0.25511 0.0
H25 H 0.25832 0.10945 0.28519 0.0
H26 H 0.46411 0.90608 0.93488 0.0
H27 H 0.60419 0.1297 0.16689 0.0
H28 H 0.64234 0.90318 0.7293 0.0
H29 H 0.84696 0.91902 0.69956 0.0
N30 N 0.89304 0.93868 0.86447 0.0
C31 C 0.78278 0.92881 0.88149 0.0
C32 C 0.91762 0.93472 0.79998 0.0
C33 C 0.7123 0.9128 0.76755 0.0
C34 C 0.82751 0.92189 0.75062 0.0
C35 C 0.68875 0.91615 0.83358 0.0
H36 H 0.49998 0.89895 0.81738 0.0
N37 N 0.85374 0.94632 -0.00634 0.0
C38 C 0.7623 0.93305 0.94796 0.0
C39 C 0.63116 0.92739 0.03385 0.0
C40 C 0.64762 0.92411 0.96737 0.0
C41 C 0.84151 0.94632 0.05671 0.0
C42 C 0.72941 0.93781 0.07834 0.0
O43 O 0.22543 0.0331 0.0421 0.0
O44 O 0.22799 0.98185 0.94641 0.0
O45 O 0.09729 0.91722 0.98315 0.0
O46 O 0.08207 0.9075 0.87756 0.0
O47 O 1.02509 0.04171 0.92307 0.0
O48 O 0.12393 0.98629 0.8858 0.0
O49 O 0.87779 0.9958 0.94325 0.0
O50 O 0.8753 0.04707 0.03892 0.0
O51 O 1.00576 0.11173 0.00228 0.0
O52 O 1.02146 0.12143 0.10783 0.0
O53 O 0.07802 0.98718 0.06227 0.0
O54 O 0.97948 0.04267 0.09961 0.0
C55 C 0.28562 1.00832 -0.00645 0.0
C56 C 0.07934 0.01446 0.8759 0.0
C57 C 0.20853 0.86701 0.90702 0.0
C58 C 0.30009 0.81549 0.92549 0.0
C59 C 0.37528 0.83367 0.83641 0.0
C60 C 0.28867 0.86133 0.8531 0.0
C61 C 0.38126 0.81092 0.87224 0.0
C62 C 0.21464 0.84397 0.94289 0.0
C63 C 0.10892 0.89387 0.92204 0.0
C64 C 0.55329 0.91212 0.92004 0.0
C65 C 0.57379 0.90806 0.85331 0.0
H66 H 0.54434 0.92081 0.05071 0.0
C67 C 0.81765 0.02059 0.9918 0.0
C68 C 1.02393 0.01447 0.10948 0.0
C69 C 0.89475 0.16194 0.07857 0.0
C70 C 0.80406 0.21384 0.06102 0.0
C71 C 0.7285 0.19531 0.14961 0.0
C72 C 0.81466 0.16751 0.13248 0.0
C73 C 0.72299 0.21831 0.11428 0.0
C74 C 0.88892 0.18519 0.04309 0.0
C75 C 0.99437 0.13508 0.0634 0.0
H76 H 0.43703 0.82952 0.79489 0.0
H77 H 0.28421 0.87815 0.82371 0.0
H78 H 0.44717 0.78911 0.85693 0.0
H79 H 0.15129 0.84792 0.98377 0.0
H80 H 0.66632 0.19924 0.19087 0.0
H81 H 0.81885 0.15052 0.16152 0.0
H82 H 0.65532 0.23965 0.12876 0.0
H83 H 0.95415 0.18185 0.00329 0.0
C84 C 0.32088 0.92888 0.38201 0.0
C85 C 0.45547 0.92411 0.46807 0.0
C86 C 0.34094 0.93307 0.44849 0.0
C87 C 0.55009 0.91217 0.4209 0.0
C88 C 0.41524 0.91631 0.33429 0.0
C89 C 0.53003 0.9082 0.35419 0.0
N90 N 0.21075 0.93874 0.36483 0.0
C91 C 0.18662 0.93486 0.30034 0.0
C92 C 0.39219 0.91308 0.26828 0.0
C93 C 0.27712 0.92217 0.25117 0.0
Gd94 Gd 1.0365 0.06861 0.53434 0.0
Gd95 Gd 0.06671 0.96024 0.45114 0.0
N96 N 0.24922 0.94629 0.49404 0.0
C97 C 0.47147 0.92732 0.53454 0.0
C98 C 0.261 0.94619 0.55704 0.0
C99 C 0.37293 0.93767 0.57883 0.0
H100 H 0.18365 0.95135 0.59011 0.0
H101 H 0.38245 0.93849 0.62943 0.0
H102 H 0.91865 0.07737 0.39547 0.0
H103 H 0.09709 0.94116 0.28663 0.0
H104 H 0.71957 0.09023 0.35644 0.0
H105 H 0.55814 0.92072 0.55153 0.0
H106 H 0.63914 0.90608 0.43584 0.0
H107 H 1.00715 0.08783 0.69897 0.0
H108 H 0.46246 0.90356 0.23019 0.0
H109 H 0.25807 0.91941 0.20014 0.0
H110 H 0.46408 0.12281 0.55049 0.0
H111 H 0.60406 0.89916 0.31838 0.0
H112 H 0.64221 0.12566 0.75605 0.0
H113 H 0.84682 0.10982 0.7858 0.0
N114 N 0.89297 0.09019 0.62092 0.0
C115 C 0.78272 0.10006 0.60389 0.0
C116 C 0.91753 0.09414 0.6854 0.0
C117 C 0.7122 0.11605 0.71781 0.0
C118 C 0.82739 0.10695 0.73475 0.0
C119 C 0.68868 0.11271 0.65179 0.0
H120 H 0.4999 0.12991 0.66798 0.0
N121 N 0.85372 0.08257 0.49173 0.0
C122 C 0.76227 0.09584 0.53742 0.0
C123 C 0.63117 0.10152 0.45153 0.0
C124 C 0.6476 0.10478 0.518 0.0
C125 C 0.84152 0.08259 0.42868 0.0
C126 C 0.72943 0.0911 0.40706 0.0
O127 O 0.22538 0.99579 0.44328 0.0
O128 O 0.22795 0.04703 0.53898 0.0
O129 O 0.09733 0.11167 0.50229 0.0
O130 O 0.08196 0.12139 0.60786 0.0
O131 O 1.02505 0.98717 0.56231 0.0
O132 O 0.1239 0.04259 0.59959 0.0
O133 O 0.87775 0.03308 0.54214 0.0
O134 O 0.87525 0.98182 0.44646 0.0
O135 O 1.00581 0.91716 0.48313 0.0
O136 O 1.02132 0.90746 0.37757 0.0
O137 O 0.07796 0.04171 0.42313 0.0
O138 O 0.97944 0.98623 0.38578 0.0
C139 C 0.28557 0.02056 0.49184 0.0
C140 C 0.0793 1.01442 0.60948 0.0
C141 C 0.20849 0.16188 0.5785 0.0
C142 C 0.30006 0.21344 0.56016 0.0
C143 C 0.37522 0.19519 0.64917 0.0
C144 C 0.28862 0.16752 0.63241 0.0
C145 C 0.38121 0.21798 0.61342 0.0
C146 C 0.21462 0.18496 0.54269 0.0
C147 C 0.10889 0.13502 0.56341 0.0
C148 C 0.55325 0.11676 0.56533 0.0
C149 C 0.57373 0.12081 0.63205 0.0
H150 H 0.54435 0.1081 0.43467 0.0
C151 C 0.81761 1.00829 0.49357 0.0
C152 C 1.02389 1.01443 0.37591 0.0
C153 C 0.89471 0.86695 0.4069 0.0
C154 C 0.80402 0.81509 0.42459 0.0
C155 C 0.72844 0.83355 0.33591 0.0
C156 C 0.81461 0.86134 0.35298 0.0
C157 C 0.72295 0.81059 0.37132 0.0
C158 C 0.88888 0.84373 0.44245 0.0
C159 C 0.99433 0.89381 0.42201 0.0
H160 H 0.43697 0.19931 0.69069 0.0
H161 H 0.28415 0.15068 0.66174 0.0
H162 H 0.44712 0.23979 0.62877 0.0
H163 H 0.15127 0.18103 0.50182 0.0
H164 H 0.66625 0.82958 0.29464 0.0
H165 H 0.81878 0.87831 0.32388 0.0
H166 H 0.65527 0.78925 0.35689 0.0
H167 H 0.95413 0.8471 0.48226 0.0
C168 C 0.82278 0.60019 0.10432 0.0
C169 C 0.95793 0.6049 0.01843 0.0
C170 C 0.84325 0.59596 0.03784 0.0
C171 C 1.05227 0.61689 0.06577 0.0
C172 C 0.91681 0.61285 0.15222 0.0
C173 C 1.03177 0.62095 0.13249 0.0
N174 N 0.71253 0.59032 0.12134 0.0
C175 C 0.68795 0.59428 0.18582 0.0
C176 C 0.89327 0.6162 0.21825 0.0
C177 C 0.77807 0.6071 0.23518 0.0
Gd178 Gd 0.5388 0.46036 0.95156 0.0
Gd179 Gd 0.56902 0.56873 0.03475 0.0
N180 N 0.75181 0.58268 0.99214 0.0
C181 C 0.97438 0.60163 0.95195 0.0
C182 C 0.76403 0.5827 0.9291 0.0
C183 C 0.87613 0.59121 0.90747 0.0
H184 H 0.6869 0.57748 0.89587 0.0
H185 H 0.886 0.59033 0.85685 0.0
H186 H 0.42196 0.45146 0.09052 0.0
H187 H 0.59833 0.58798 0.19939 0.0
H188 H 0.22319 0.43859 0.12987 0.0
H189 H 0.06119 0.60821 0.9351 0.0
H190 H 0.14144 0.62293 0.05092 0.0
H191 H 0.50831 0.4413 0.78706 0.0
H192 H 0.96324 0.62582 0.2565 0.0
H193 H 0.75863 0.60998 0.28624 0.0
H194 H 0.96637 0.40621 0.93631 0.0
H195 H 0.10558 0.63006 0.16842 0.0
H196 H 0.14292 0.40373 0.73066 0.0
H197 H 0.34728 0.41957 0.70059 0.0
N198 N 0.39471 0.43887 0.86526 0.0
C199 C 0.28459 0.42901 0.88246 0.0
C200 C 0.4188 0.43501 0.80078 0.0
C201 C 0.21321 0.41324 0.76874 0.0
C202 C 0.32827 0.42233 0.75162 0.0
C203 C 0.19021 0.41645 0.83475 0.0
H204 H 1.00138 0.39931 0.81886 0.0
N205 N 0.35632 0.4464 -0.00554 0.0
C206 C 0.26458 0.43319 0.94894 0.0
C207 C 0.13411 0.42743 0.035 0.0
C208 C 0.15007 0.42423 0.96853 0.0
C209 C 0.34459 0.4463 0.05747 0.0
C210 C 0.23267 0.43778 0.07927 0.0
O211 O 0.72777 0.5332 0.04256 0.0
O212 O 0.73026 0.48194 0.94688 0.0
O213 O 0.59979 0.41727 0.98351 0.0
O214 O 0.5841 0.40758 0.87796 0.0
O215 O 0.52753 0.54183 0.92354 0.0
O216 O 0.62607 0.48635 0.88619 0.0
O217 O 0.38013 0.49591 0.9437 0.0
O218 O 0.37756 0.54715 0.0394 0.0
O219 O 0.50827 0.61179 0.00267 0.0
O220 O 0.52348 0.62151 0.10825 0.0
O221 O 0.58046 0.48729 0.06272 0.0
O222 O 0.48163 0.54272 0.1 0.0
C223 C 0.78791 0.50842 -0.006 0.0
C224 C 0.58162 0.51455 0.87633 0.0
C225 C 0.71081 0.36707 0.90721 0.0
C226 C 0.8015 0.31517 0.92476 0.0
C227 C 0.87706 0.3337 0.83617 0.0
C228 C 0.79089 0.3615 0.85331 0.0
C229 C 0.88256 0.3107 0.8715 0.0
C230 C 0.71664 0.34381 0.94269 0.0
C231 C 0.61119 0.39393 0.92238 0.0
C232 C 0.05542 0.4123 0.92136 0.0
C233 C 0.07543 0.40834 0.85466 0.0
H234 H 1.04745 0.42083 0.05199 0.0
C235 C 0.31994 0.52069 0.99226 0.0
C236 C 0.52622 0.51455 0.1099 0.0
C237 C 0.39703 0.66199 0.07881 0.0
C238 C 0.30547 0.71352 0.06034 0.0
C239 C 0.23028 0.69534 0.14942 0.0
C240 C 0.31689 0.66767 0.13273 0.0
C241 C 0.2243 0.71809 0.1136 0.0
C242 C 0.39092 0.68504 0.04294 0.0
C243 C 0.49664 0.63514 0.06378 0.0
H244 H 0.93924 0.32976 0.79491 0.0
H245 H 0.78671 0.37849 0.82427 0.0
H246 H 0.95024 0.28936 0.85703 0.0
H247 H 0.6514 0.34715 0.98249 0.0
H248 H 0.16853 0.69949 0.19094 0.0
H249 H 0.32135 0.65086 0.16212 0.0
H250 H 0.15839 0.7399 0.1289 0.0
H251 H 0.45427 0.68109 0.00206 0.0
C252 C 0.82284 0.42895 0.38194 0.0
C253 C 0.95794 0.42423 0.46784 0.0
C254 C 0.84328 0.43318 0.44841 0.0
C255 C 1.0523 0.41224 0.42052 0.0
C256 C 0.9169 0.4163 0.33405 0.0
C257 C 1.03184 0.40819 0.3538 0.0
N258 N 0.7126 0.43882 0.36491 0.0
C259 C 0.68806 0.43487 0.30042 0.0
C260 C 0.89339 0.41296 0.26802 0.0
C261 C 0.7782 0.42205 0.25107 0.0
Gd262 Gd 0.53884 0.56877 0.53466 0.0
Gd263 Gd 0.56906 0.4604 0.45148 0.0
N264 N 0.75182 0.44644 0.49411 0.0
C265 C 0.97436 0.42749 0.53432 0.0
C266 C 0.764 0.44642 0.55714 0.0
C267 C 0.87609 0.43791 0.57878 0.0
H268 H 0.68687 0.45164 0.59036 0.0
H269 H 0.88593 0.43878 0.6294 0.0
H270 H 0.42188 0.57764 0.39569 0.0
H271 H 0.59844 0.44117 0.28684 0.0
H272 H 0.22307 0.5905 0.35636 0.0
H273 H 0.06116 0.4209 0.55118 0.0
H274 H 0.14147 0.4062 0.43537 0.0
H275 H 0.50848 0.58786 0.69917 0.0
H276 H 0.96338 0.40334 0.22979 0.0
H277 H 0.75879 0.41918 0.20002 0.0
H278 H 0.9664 0.62292 0.54997 0.0
H279 H 0.10567 0.3991 0.31787 0.0
H280 H 0.14312 0.62545 0.75563 0.0
H281 H 0.34751 0.60962 0.78567 0.0
N282 N 0.39481 0.59028 0.62098 0.0
C283 C 0.28468 0.60014 0.60379 0.0
C284 C 0.41895 0.59415 0.68546 0.0
C285 C 0.21338 0.61593 0.71753 0.0
C286 C 0.32846 0.60684 0.73463 0.0
C287 C 0.19033 0.61271 0.65152 0.0
H288 H 1.0015 0.62985 0.66743 0.0
N289 N 0.35632 0.58272 0.49177 0.0
C290 C 0.26461 0.59594 0.53731 0.0
C291 C 0.13407 0.60168 0.45126 0.0
C292 C 0.15008 0.60489 0.51773 0.0
C293 C 0.34454 0.58281 0.42875 0.0
C294 C 0.2326 0.59132 0.40696 0.0
O295 O 0.7278 0.49593 0.44367 0.0
O296 O 0.7303 0.54719 0.53934 0.0
O297 O 0.59975 0.61185 0.50266 0.0
O298 O 0.58423 0.62155 0.60822 0.0
O299 O 0.52758 0.4873 0.56269 0.0
O300 O 0.62611 0.54279 0.60003 0.0
O301 O 0.38017 0.53323 0.54252 0.0
O302 O 0.3776 0.48198 0.44682 0.0
O303 O 0.50822 0.41734 0.48353 0.0
O304 O 0.5236 0.40762 0.37795 0.0
O305 O 0.58049 0.54184 0.42349 0.0
O306 O 0.48166 0.48641 0.38621 0.0
C307 C 0.78794 0.52072 0.49223 0.0
C308 C 0.58167 0.51459 0.60989 0.0
C309 C 0.71085 0.66206 0.57889 0.0
C310 C 0.80152 0.71392 0.56119 0.0
C311 C 0.87711 0.69546 0.64987 0.0
C312 C 0.79095 0.66767 0.6328 0.0
C313 C 0.8826 0.71842 0.61446 0.0
C314 C 0.71666 0.68528 0.54333 0.0
C315 C 0.61123 0.6352 0.56378 0.0
C316 C 0.05546 0.61684 0.56491 0.0
C317 C 0.07553 0.62081 0.63162 0.0
H318 H 1.04738 0.60828 0.43428 0.0
C319 C 0.31998 0.50845 0.49397 0.0
C320 C 0.52625 0.51458 0.37632 0.0
C321 C 0.39706 0.36713 0.40733 0.0
C322 C 0.3055 0.31557 0.42566 0.0
C323 C 0.23033 0.33382 0.33665 0.0
C324 C 0.31693 0.36149 0.35341 0.0
C325 C 0.22434 0.31103 0.37241 0.0
C326 C 0.39094 0.34405 0.44313 0.0
C327 C 0.49667 0.39399 0.42241 0.0
H328 H 0.93931 0.69943 0.69113 0.0
H329 H 0.78678 0.6507 0.6619 0.0
H330 H 0.95028 0.73976 0.62888 0.0
H331 H 0.65142 0.68191 0.50352 0.0
H332 H 0.16859 0.3297 0.29514 0.0
H333 H 0.32141 0.37833 0.32408 0.0
H334 H 0.15843 0.28922 0.35705 0.0
H335 H 0.45428 0.34798 0.484 0.0
C336 C 0.41394 0.75201 0.00788 0.0
C337 C 0.30401 0.7393 0.02501 0.0
H338 H 0.49911 0.7864 0.96455 0.0
C339 C 0.19284 0.75214 0.00962 0.0
H340 H 0.50127 0.74325 0.02007 0.0
C341 C 0.19162 0.77701 0.97795 0.0
C342 C 0.30155 0.78971 0.96083 0.0
H343 H 0.10645 0.74261 0.02129 0.0
H344 H 0.10429 0.78576 0.96576 0.0
C345 C 0.41272 0.77687 0.97621 0.0
C346 C 0.78751 0.30144 0.02967 0.0
C347 C 0.80266 0.28926 0.95981 0.0
H348 H 0.77796 0.28745 0.11631 0.0
C349 C 0.81784 0.25199 0.92347 0.0
H350 H 0.77728 0.32996 0.05936 0.0
C351 C 0.81805 0.22757 0.95611 0.0
C352 C 0.8029 0.23975 0.02597 0.0
H353 H 0.82759 0.24155 0.86947 0.0
H354 H 0.82828 0.19905 0.92642 0.0
C355 C 0.78771 0.27701 0.06231 0.0
C356 C 0.41271 0.25212 0.50959 0.0
C357 C 0.30153 0.23926 0.52492 0.0
H358 H 0.50128 0.28579 0.46585 0.0
C359 C 0.19162 0.25199 0.50782 0.0
H360 H 0.4991 0.24258 0.52123 0.0
C361 C 0.19285 0.27689 0.47624 0.0
C362 C 0.30402 0.28975 0.46091 0.0
H363 H 0.10427 0.24322 0.51997 0.0
H364 H 0.10646 0.28643 0.4646 0.0
C365 C 0.41394 0.27703 0.478 0.0
C366 C 0.78769 0.75195 0.42346 0.0
C367 C 0.80287 0.78922 0.45973 0.0
H368 H 0.77727 0.69904 0.42656 0.0
C369 C 0.81804 0.80145 0.52959 0.0
H370 H 0.77792 0.74147 0.36947 0.0
C371 C 0.81785 0.77706 0.56232 0.0
C372 C 0.80266 0.73979 0.52605 0.0
H373 H 0.82827 0.82997 0.55922 0.0
H374 H 0.82762 0.78754 0.61631 0.0
C375 C 0.78749 0.72756 0.45619 0.0
C376 C 0.48872 0.02431 0.05332 0.0
C377 C 0.42217 1.01028 -0.00702 0.0
H378 H 0.66464 0.03907 0.1004 0.0
C379 C 0.48693 1.00032 0.93231 0.0
H380 H 0.44187 0.03199 0.10097 0.0
C381 C 0.61455 1.00459 0.93203 0.0
C382 C 0.6811 0.01863 0.99238 0.0
H383 H 0.43863 0.98983 0.88496 0.0
H384 H 0.6614 0.99689 0.88438 0.0
C385 C 0.61634 0.02858 0.05305 0.0
C386 C 0.48867 1.00458 0.43206 0.0
C387 C 0.42213 0.0186 0.4924 0.0
H388 H 0.66459 0.98982 0.38498 0.0
C389 C 0.48689 0.02856 0.55307 0.0
H390 H 0.44182 0.99689 0.38441 0.0
C391 C 0.61452 0.02429 0.55335 0.0
C392 C 0.68106 1.01026 0.493 0.0
H393 H 0.4386 0.03905 0.60042 0.0
H394 H 0.66137 0.03199 0.60099 0.0
C395 C 0.6163 1.0003 0.43233 0.0
C396 C 0.991 0.52441 0.05377 0.0
C397 C 0.92446 0.51038 -0.00657 0.0
H398 H 0.16692 0.53917 0.10084 0.0
C399 C 0.98921 0.50043 0.93275 0.0
H400 H 0.94415 0.53212 0.10142 0.0
C401 C 0.11684 0.50471 0.93248 0.0
C402 C 0.18338 0.51872 0.99282 0.0
H403 H 0.94091 0.48995 0.88541 0.0
H404 H 0.16368 0.49702 0.88483 0.0
C405 C 0.11863 0.52868 0.0535 0.0
C406 C 0.11866 0.50045 0.43273 0.0
C407 C 0.18342 0.51041 0.49341 0.0
H408 H 0.94418 0.49701 0.38481 0.0
C409 C 0.11688 0.52443 0.55375 0.0
H410 H 0.16695 0.48996 0.38538 0.0
C411 C 0.98926 0.52871 0.55347 0.0
C412 C 0.9245 0.51875 0.4928 0.0
H413 H 0.16373 0.53212 0.60139 0.0
H414 H 0.94096 0.53919 0.60082 0.0
C415 C 0.99103 0.50472 0.43246 0.0
C416 C 0.91226 1.01376 0.27466 0.0
C417 C 1.02317 1.01407 0.30757 0.0
H418 H 0.82598 0.01559 0.18633 0.0
C419 C 0.134 0.0147 0.2753 0.0
H420 H 0.82596 1.01334 0.29907 0.0
C421 C 0.13401 1.01417 0.21009 0.0
C422 C 1.02319 0.01483 0.17783 0.0
H423 H 0.22037 0.01489 0.3001 0.0
H424 H 0.22039 1.01397 0.18529 0.0
C425 C 0.91227 0.01515 0.21073 0.0
C426 C 0.9692 0.0147 0.77529 0.0
C427 C 0.08004 1.01407 0.80755 0.0
H428 H 0.88282 1.01395 0.68527 0.0
C429 C 0.19096 1.01376 0.77466 0.0
H430 H 0.88284 0.01489 0.8001 0.0
C431 C 0.19095 0.01513 0.71073 0.0
C432 C 0.08002 0.0148 0.67782 0.0
H433 H 0.27725 1.01334 0.79908 0.0
H434 H 0.27724 0.01556 0.68632 0.0
C435 C 0.9692 1.01415 0.71007 0.0
C436 C 0.41461 0.51387 0.27507 0.0
C437 C 0.52553 0.5142 0.30797 0.0
H438 H 0.3283 0.51566 0.18672 0.0
C439 C 0.63636 0.51485 0.27572 0.0
H440 H 0.32832 0.51344 0.29948 0.0
C441 C 0.63635 0.5143 0.2105 0.0
C442 C 0.52552 0.51493 0.17824 0.0
H443 H 0.72273 0.51505 0.30053 0.0
H444 H 0.72272 0.51411 0.1857 0.0
C445 C 0.4146 0.51524 0.21114 0.0
C446 C 0.6933 0.51526 0.71115 0.0
C447 C 0.58238 0.51495 0.67824 0.0
H448 H 0.77957 0.51343 0.79948 0.0
C449 C 0.47155 0.51432 0.71051 0.0
H450 H 0.77959 0.51568 0.68674 0.0
C451 C 0.47154 0.51485 0.77572 0.0
C452 C 0.58236 0.51419 0.80798 0.0
H453 H 0.38518 0.51413 0.68571 0.0
H454 H 0.38517 0.51504 0.80052 0.0
C455 C 0.69328 0.51386 0.77508 0.0
loop_
_geom_bond_atom_site_label_1
_geom_bond_atom_site_label_2
_geom_bond_distance
_geom_bond_site_symmetry_2
_ccdc_geom_bond_type
C0 C2 1.422 . S
C0 C4 1.415 . S
C0 N6 1.369 . S
C1 C2 1.421 . S
C1 C3 1.417 . S
C1 C13 1.405 1_554 S
C2 C0 1.422 . S
C2 C1 1.421 . S
C2 N12 1.359 . S
C3 C1 1.417 . S
C3 C5 1.329 . S
C3 H22 0.930 . S
C4 C0 1.415 . S
C4 C5 1.437 . S
C4 C8 1.413 . S
C5 C3 1.329 . S
C5 C4 1.437 . S
C5 H27 0.929 . S
N6 C0 1.369 . S
N6 C7 1.338 . S
N6 Gd11 2.622 . S
C7 N6 1.338 . S
C7 C9 1.378 . S
C7 H19 0.929 . S
C8 C4 1.413 . S
C8 C9 1.348 . S
C8 H24 0.931 . S
C9 C7 1.378 . S
C9 C8 1.348 . S
C9 H25 0.930 . S
Gd10 N30 2.622 . S
Gd10 N37 2.570 . S
Gd10 O44 2.353 1_655 S
Gd10 O45 2.468 1_655 S
Gd10 O46 2.427 1_655 S
Gd10 O48 2.388 1_655 S
Gd10 O49 2.386 . S
Gd10 O53 2.307 1_556 S
Gd10 C63 2.805 1_655 S
Gd11 N6 2.622 . S
Gd11 N12 2.570 . S
Gd11 O43 2.386 . S
Gd11 O47 2.307 1_554 S
Gd11 O50 2.353 1_455 S
Gd11 O51 2.468 1_455 S
Gd11 O52 2.427 1_455 S
Gd11 O54 2.388 1_455 S
Gd11 C75 2.805 1_455 S
N12 C2 1.359 . S
N12 Gd11 2.570 . S
N12 C14 1.343 1_554 S
C13 C1 1.405 1_556 S
C13 C15 1.331 . S
C13 H21 0.938 . S
C14 N12 1.343 1_556 S
C14 C15 1.390 . S
C14 H16 0.931 . S
C15 C13 1.331 . S
C15 C14 1.390 . S
C15 H17 0.930 . S
H16 C14 0.931 . S
H17 C15 0.930 . S
H18 C41 0.931 . S
H19 C7 0.929 . S
H20 C42 0.930 . S
H21 C13 0.938 . S
H22 C3 0.930 . S
H23 C32 0.929 . S
H24 C8 0.931 . S
H25 C9 0.930 . S
H26 C64 0.930 . S
H27 C5 0.929 . S
H28 C33 0.931 . S
H29 C34 0.930 . S
N30 Gd10 2.622 . S
N30 C31 1.369 . S
N30 C32 1.338 . S
C31 N30 1.369 . S
C31 C35 1.415 . S
C31 C38 1.422 . S
C32 H23 0.929 . S
C32 N30 1.338 . S
C32 C34 1.378 . S
C33 H28 0.931 . S
C33 C34 1.348 . S
C33 C35 1.413 . S
C34 H29 0.930 . S
C34 C32 1.378 . S
C34 C33 1.348 . S
C35 C31 1.415 . S
C35 C33 1.413 . S
C35 C65 1.437 . S
H36 C65 0.929 . S
N37 Gd10 2.570 . S
N37 C38 1.359 . S
N37 C41 1.343 1_556 S
C38 C31 1.422 . S
C38 N37 1.359 . S
C38 C40 1.421 . S
C39 C40 1.422 1_554 S
C39 C42 1.321 . S
C39 H66 0.931 . S
C40 C38 1.421 . S
C40 C39 1.422 1_556 S
C40 C64 1.417 . S
C41 H18 0.931 . S
C41 N37 1.343 1_554 S
C41 C42 1.390 . S
C42 H20 0.930 . S
C42 C39 1.321 . S
C42 C41 1.390 . S
O43 Gd11 2.386 . S
O43 C55 1.265 1_545 S
O44 Gd10 2.353 1_455 S
O44 C55 1.242 1_556 S
O45 Gd10 2.468 1_455 S
O45 C63 1.263 . S
O46 Gd10 2.427 1_455 S
O46 C63 1.252 . S
O47 Gd11 2.307 1_556 S
O47 C56 1.261 1_545 S
O48 Gd10 2.388 1_455 S
O48 C56 1.252 . S
O49 Gd10 2.386 . S
O49 C67 1.265 1_565 S
O50 Gd11 2.353 1_655 S
O50 C67 1.242 1_554 S
O51 Gd11 2.468 1_655 S
O51 C75 1.263 . S
O52 Gd11 2.427 1_655 S
O52 C75 1.252 . S
O53 Gd10 2.307 1_554 S
O53 C68 1.261 1_565 S
O54 Gd11 2.388 1_655 S
O54 C68 1.252 . S
C55 O43 1.265 1_565 S
C55 O44 1.242 1_554 S
C56 O47 1.261 1_565 S
C56 O48 1.252 . S
C57 C60 1.394 . S
C57 C62 1.370 . S
C57 C63 1.500 . S
C58 C61 1.383 . S
C58 C62 1.395 . S
C59 C60 1.396 . S
C59 C61 1.365 . S
C59 H76 0.929 . S
C60 C57 1.394 . S
C60 C59 1.396 . S
C60 H77 0.930 . S
C61 C58 1.383 . S
C61 C59 1.365 . S
C61 H78 0.931 . S
C62 C57 1.370 . S
C62 C58 1.395 . S
C62 H79 0.930 1_556 S
C63 Gd10 2.805 1_455 S
C63 O45 1.263 . S
C63 O46 1.252 . S
C63 C57 1.500 . S
C64 H26 0.930 . S
C64 C40 1.417 . S
C64 C65 1.329 . S
C65 C35 1.437 . S
C65 H36 0.929 . S
C65 C64 1.329 . S
H66 C39 0.931 . S
C67 O49 1.265 1_545 S
C67 O50 1.242 1_556 S
C68 O53 1.261 1_545 S
C68 O54 1.252 . S
C69 C72 1.394 . S
C69 C74 1.370 . S
C69 C75 1.500 . S
C70 C73 1.383 . S
C70 C74 1.395 . S
C71 C72 1.396 . S
C71 C73 1.365 . S
C71 H80 0.929 . S
C72 C69 1.394 . S
C72 C71 1.396 . S
C72 H81 0.930 . S
C73 C70 1.383 . S
C73 C71 1.365 . S
C73 H82 0.931 . S
C74 C69 1.370 . S
C74 C70 1.395 . S
C74 H83 0.930 1_554 S
C75 Gd11 2.805 1_655 S
C75 O51 1.263 . S
C75 O52 1.252 . S
C75 C69 1.500 . S
H76 C59 0.929 . S
H77 C60 0.930 . S
H78 C61 0.931 . S
H79 C62 0.930 1_554 S
H80 C71 0.929 . S
H81 C72 0.930 . S
H82 C73 0.931 . S
H83 C74 0.930 1_556 S
C84 C86 1.422 . S
C84 C88 1.415 . S
C84 N90 1.369 . S
C85 C86 1.421 . S
C85 C87 1.417 . S
C85 C97 1.422 . S
C86 C84 1.422 . S
C86 C85 1.421 . S
C86 N96 1.359 . S
C87 C85 1.417 . S
C87 C89 1.329 . S
C87 H106 0.930 . S
C88 C84 1.415 . S
C88 C89 1.437 . S
C88 C92 1.413 . S
C89 C87 1.329 . S
C89 C88 1.437 . S
C89 H111 0.929 . S
N90 C84 1.369 . S
N90 C91 1.338 . S
N90 Gd95 2.622 . S
C91 N90 1.338 . S
C91 C93 1.378 . S
C91 H103 0.929 . S
C92 C88 1.413 . S
C92 C93 1.348 . S
C92 H108 0.931 . S
C93 C91 1.378 . S
C93 C92 1.348 . S
C93 H109 0.930 . S
Gd94 N114 2.622 . S
Gd94 N121 2.570 . S
Gd94 O128 2.353 1_655 S
Gd94 O129 2.468 1_655 S
Gd94 O130 2.427 1_655 S
Gd94 O132 2.388 1_655 S
Gd94 O133 2.386 . S
Gd94 O137 2.307 . S
Gd94 C147 2.805 1_655 S
Gd95 N90 2.622 . S
Gd95 N96 2.570 . S
Gd95 O127 2.386 . S
Gd95 O131 2.307 . S
Gd95 O134 2.353 1_455 S
Gd95 O135 2.468 1_455 S
Gd95 O136 2.427 1_455 S
Gd95 O138 2.388 1_455 S
Gd95 C159 2.805 1_455 S
N96 C86 1.359 . S
N96 Gd95 2.570 . S
N96 C98 1.343 . S
C97 C85 1.422 . S
C97 C99 1.321 . S
C97 H105 0.931 . S
C98 N96 1.343 . S
C98 C99 1.390 . S
C98 H100 0.931 . S
C99 C97 1.321 . S
C99 C98 1.390 . S
C99 H101 0.930 . S
H100 C98 0.931 . S
H101 C99 0.930 . S
H102 C125 0.931 . S
H103 C91 0.929 . S
H104 C126 0.930 . S
H105 C97 0.931 . S
H106 C87 0.930 . S
H107 C116 0.929 . S
H108 C92 0.931 . S
H109 C93 0.930 . S
H110 C148 0.930 . S
H111 C89 0.929 . S
H112 C117 0.931 . S
H113 C118 0.930 . S
N114 Gd94 2.622 . S
N114 C115 1.369 . S
N114 C116 1.338 . S
C115 N114 1.369 . S
C115 C119 1.415 . S
C115 C122 1.422 . S
C116 H107 0.929 . S
C116 N114 1.338 . S
C116 C118 1.378 . S
C117 H112 0.931 . S
C117 C118 1.348 . S
C117 C119 1.413 . S
C118 H113 0.930 . S
C118 C116 1.378 . S
C118 C117 1.348 . S
C119 C115 1.415 . S
C119 C117 1.413 . S
C119 C149 1.437 . S
H120 C149 0.929 . S
N121 Gd94 2.570 . S
N121 C122 1.359 . S
N121 C125 1.343 . S
C122 C115 1.422 . S
C122 N121 1.359 . S
C122 C124 1.421 . S
C123 C124 1.422 . S
C123 C126 1.321 . S
C123 H150 0.931 . S
C124 C122 1.421 . S
C124 C123 1.422 . S
C124 C148 1.417 . S
C125 H102 0.931 . S
C125 N121 1.343 . S
C125 C126 1.390 . S
C126 H104 0.930 . S
C126 C123 1.321 . S
C126 C125 1.390 . S
O127 Gd95 2.386 . S
O127 C139 1.265 1_565 S
O128 Gd94 2.353 1_455 S
O128 C139 1.242 . S
O129 Gd94 2.468 1_455 S
O129 C147 1.263 . S
O130 Gd94 2.427 1_455 S
O130 C147 1.252 . S
O131 Gd95 2.307 . S
O131 C140 1.261 1_565 S
O132 Gd94 2.388 1_455 S
O132 C140 1.252 . S
O133 Gd94 2.386 . S
O133 C151 1.265 1_545 S
O134 Gd95 2.353 1_655 S
O134 C151 1.242 . S
O135 Gd95 2.468 1_655 S
O135 C159 1.263 . S
O136 Gd95 2.427 1_655 S
O136 C159 1.252 . S
O137 Gd94 2.307 . S
O137 C152 1.261 1_545 S
O138 Gd95 2.388 1_655 S
O138 C152 1.252 . S
C139 O127 1.265 1_545 S
C139 O128 1.242 . S
C140 O131 1.261 1_545 S
C140 O132 1.252 . S
C141 C144 1.394 . S
C141 C146 1.370 . S
C141 C147 1.500 . S
C142 C145 1.383 . S
C142 C146 1.395 . S
C143 C144 1.396 . S
C143 C145 1.365 . S
C143 H160 0.929 . S
C144 C141 1.394 . S
C144 C143 1.396 . S
C144 H161 0.930 . S
C145 C142 1.383 . S
C145 C143 1.365 . S
C145 H162 0.931 . S
C146 C141 1.370 . S
C146 C142 1.395 . S
C146 H163 0.930 . S
C147 Gd94 2.805 1_455 S
C147 O129 1.263 . S
C147 O130 1.252 . S
C147 C141 1.500 . S
C148 H110 0.930 . S
C148 C124 1.417 . S
C148 C149 1.329 . S
C149 C119 1.437 . S
C149 H120 0.929 . S
C149 C148 1.329 . S
H150 C123 0.931 . S
C151 O133 1.265 1_565 S
C151 O134 1.242 . S
C152 O137 1.261 1_565 S
C152 O138 1.252 . S
C153 C156 1.394 . S
C153 C158 1.370 . S
C153 C159 1.500 . S
C154 C157 1.383 . S
C154 C158 1.395 . S
C155 C156 1.396 . S
C155 C157 1.365 . S
C155 H164 0.929 . S
C156 C153 1.394 . S
C156 C155 1.396 . S
C156 H165 0.930 . S
C157 C154 1.383 . S
C157 C155 1.365 . S
C157 H166 0.931 . S
C158 C153 1.370 . S
C158 C154 1.395 . S
C158 H167 0.930 . S
C159 Gd95 2.805 1_655 S
C159 O135 1.263 . S
C159 O136 1.252 . S
C159 C153 1.500 . S
H160 C143 0.929 . S
H161 C144 0.930 . S
H162 C145 0.931 . S
H163 C146 0.930 . S
H164 C155 0.929 . S
H165 C156 0.930 . S
H166 C157 0.931 . S
H167 C158 0.930 . S
C168 C170 1.422 . S
C168 C172 1.415 . S
C168 N174 1.369 . S
C169 C170 1.421 . S
C169 C171 1.417 . S
C169 C181 1.405 1_554 S
C170 C168 1.422 . S
C170 C169 1.421 . S
C170 N180 1.359 . S
C171 C169 1.417 . S
C171 C173 1.329 . S
C171 H190 0.930 . S
C172 C168 1.415 . S
C172 C173 1.437 . S
C172 C176 1.413 . S
C173 C171 1.329 . S
C173 C172 1.437 . S
C173 H195 0.929 . S
N174 C168 1.369 . S
N174 C175 1.338 . S
N174 Gd179 2.622 . S
C175 N174 1.338 . S
C175 C177 1.378 . S
C175 H187 0.929 . S
C176 C172 1.413 . S
C176 C177 1.348 . S
C176 H192 0.931 . S
C177 C175 1.378 . S
C177 C176 1.348 . S
C177 H193 0.930 . S
Gd178 N198 2.622 . S
Gd178 N205 2.570 . S
Gd178 O212 2.353 . S
Gd178 O213 2.468 . S
Gd178 O214 2.427 . S
Gd178 O216 2.388 . S
Gd178 O217 2.386 . S
Gd178 O221 2.307 1_556 S
Gd178 C231 2.805 . S
Gd179 N174 2.622 . S
Gd179 N180 2.570 . S
Gd179 O211 2.386 . S
Gd179 O215 2.307 1_554 S
Gd179 O218 2.353 . S
Gd179 O219 2.468 . S
Gd179 O220 2.427 . S
Gd179 O222 2.388 . S
Gd179 C243 2.805 . S
N180 C170 1.359 . S
N180 Gd179 2.570 . S
N180 C182 1.343 1_554 S
C181 C169 1.405 1_556 S
C181 C183 1.331 . S
C181 H189 0.938 . S
C182 N180 1.343 1_556 S
C182 C183 1.390 . S
C182 H184 0.931 . S
C183 C181 1.331 . S
C183 C182 1.390 . S
C183 H185 0.930 . S
H184 C182 0.931 . S
H185 C183 0.930 . S
H186 C209 0.931 . S
H187 C175 0.929 . S
H188 C210 0.930 . S
H189 C181 0.938 . S
H190 C171 0.930 . S
H191 C200 0.929 . S
H192 C176 0.931 . S
H193 C177 0.930 . S
H194 C232 0.930 . S
H195 C173 0.929 . S
H196 C201 0.931 . S
H197 C202 0.930 . S
N198 Gd178 2.622 . S
N198 C199 1.369 . S
N198 C200 1.338 . S
C199 N198 1.369 . S
C199 C203 1.415 . S
C199 C206 1.422 . S
C200 H191 0.929 . S
C200 N198 1.338 . S
C200 C202 1.378 . S
C201 H196 0.931 . S
C201 C202 1.348 . S
C201 C203 1.413 . S
C202 H197 0.930 . S
C202 C200 1.378 . S
C202 C201 1.348 . S
C203 C199 1.415 . S
C203 C201 1.413 . S
C203 C233 1.437 . S
H204 C233 0.929 . S
N205 Gd178 2.570 . S
N205 C206 1.359 . S
N205 C209 1.343 1_556 S
C206 C199 1.422 . S
C206 N205 1.359 . S
C206 C208 1.421 . S
C207 C208 1.422 1_554 S
C207 C210 1.321 . S
C207 H234 0.931 . S
C208 C206 1.421 . S
C208 C207 1.422 1_556 S
C208 C232 1.417 . S
C209 H186 0.931 . S
C209 N205 1.343 1_554 S
C209 C210 1.390 . S
C210 H188 0.930 . S
C210 C207 1.321 . S
C210 C209 1.390 . S
O211 Gd179 2.386 . S
O211 C223 1.265 . S
O212 Gd178 2.353 . S
O212 C223 1.242 1_556 S
O213 Gd178 2.468 . S
O213 C231 1.263 . S
O214 Gd178 2.427 . S
O214 C231 1.252 . S
O215 Gd179 2.307 1_556 S
O215 C224 1.261 . S
O216 Gd178 2.388 . S
O216 C224 1.252 . S
O217 Gd178 2.386 . S
O217 C235 1.265 . S
O218 Gd179 2.353 . S
O218 C235 1.242 1_554 S
O219 Gd179 2.468 . S
O219 C243 1.263 . S
O220 Gd179 2.427 . S
O220 C243 1.252 . S
O221 Gd178 2.307 1_554 S
O221 C236 1.261 . S
O222 Gd179 2.388 . S
O222 C236 1.252 . S
C223 O211 1.265 . S
C223 O212 1.242 1_554 S
C224 O215 1.261 . S
C224 O216 1.252 . S
C225 C228 1.394 . S
C225 C230 1.370 . S
C225 C231 1.500 . S
C226 C229 1.383 . S
C226 C230 1.395 . S
C227 C228 1.396 . S
C227 C229 1.365 . S
C227 H244 0.929 . S
C228 C225 1.394 . S
C228 C227 1.396 . S
C228 H245 0.930 . S
C229 C226 1.383 . S
C229 C227 1.365 . S
C229 H246 0.931 . S
C230 C225 1.370 . S
C230 C226 1.395 . S
C230 H247 0.930 1_556 S
C231 Gd178 2.805 . S
C231 O213 1.263 . S
C231 O214 1.252 . S
C231 C225 1.500 . S
C232 H194 0.930 . S
C232 C208 1.417 . S
C232 C233 1.329 . S
C233 C203 1.437 . S
C233 H204 0.929 . S
C233 C232 1.329 . S
H234 C207 0.931 . S
C235 O217 1.265 . S
C235 O218 1.242 1_556 S
C236 O221 1.261 . S
C236 O222 1.252 . S
C237 C240 1.394 . S
C237 C242 1.370 . S
C237 C243 1.500 . S
C238 C241 1.383 . S
C238 C242 1.395 . S
C239 C240 1.396 . S
C239 C241 1.365 . S
C239 H248 0.929 . S
C240 C237 1.394 . S
C240 C239 1.396 . S
C240 H249 0.930 . S
C241 C238 1.383 . S
C241 C239 1.365 . S
C241 H250 0.931 . S
C242 C237 1.370 . S
C242 C238 1.395 . S
C242 H251 0.930 1_554 S
C243 Gd179 2.805 . S
C243 O219 1.263 . S
C243 O220 1.252 . S
C243 C237 1.500 . S
H244 C227 0.929 . S
H245 C228 0.930 . S
H246 C229 0.931 . S
H247 C230 0.930 1_554 S
H248 C239 0.929 . S
H249 C240 0.930 . S
H250 C241 0.931 . S
H251 C242 0.930 1_556 S
C252 C254 1.422 . S
C252 C256 1.415 . S
C252 N258 1.369 . S
C253 C254 1.421 . S
C253 C255 1.417 . S
C253 C265 1.422 . S
C254 C252 1.422 . S
C254 C253 1.421 . S
C254 N264 1.359 . S
C255 C253 1.417 . S
C255 C257 1.329 . S
C255 H274 0.930 . S
C256 C252 1.415 . S
C256 C257 1.437 . S
C256 C260 1.413 . S
C257 C255 1.329 . S
C257 C256 1.437 . S
C257 H279 0.929 . S
N258 C252 1.369 . S
N258 C259 1.338 . S
N258 Gd263 2.622 . S
C259 N258 1.338 . S
C259 C261 1.378 . S
C259 H271 0.929 . S
C260 C256 1.413 . S
C260 C261 1.348 . S
C260 H276 0.931 . S
C261 C259 1.378 . S
C261 C260 1.348 . S
C261 H277 0.930 . S
Gd262 N282 2.622 . S
Gd262 N289 2.570 . S
Gd262 O296 2.353 . S
Gd262 O297 2.468 . S
Gd262 O298 2.427 . S
Gd262 O300 2.388 . S
Gd262 O301 2.386 . S
Gd262 O305 2.307 . S
Gd262 C315 2.805 . S
Gd263 N258 2.622 . S
Gd263 N264 2.570 . S
Gd263 O295 2.386 . S
Gd263 O299 2.307 . S
Gd263 O302 2.353 . S
Gd263 O303 2.468 . S
Gd263 O304 2.427 . S
Gd263 O306 2.388 . S
Gd263 C327 2.805 . S
N264 C254 1.359 . S
N264 Gd263 2.570 . S
N264 C266 1.343 . S
C265 C253 1.422 . S
C265 C267 1.321 . S
C265 H273 0.931 . S
C266 N264 1.343 . S
C266 C267 1.390 . S
C266 H268 0.931 . S
C267 C265 1.321 . S
C267 C266 1.390 . S
C267 H269 0.930 . S
H268 C266 0.931 . S
H269 C267 0.930 . S
H270 C293 0.931 . S
H271 C259 0.929 . S
H272 C294 0.930 . S
H273 C265 0.931 . S
H274 C255 0.930 . S
H275 C284 0.929 . S
H276 C260 0.931 . S
H277 C261 0.930 . S
H278 C316 0.930 . S
H279 C257 0.929 . S
H280 C285 0.931 . S
H281 C286 0.930 . S
N282 Gd262 2.622 . S
N282 C283 1.369 . S
N282 C284 1.338 . S
C283 N282 1.369 . S
C283 C287 1.415 . S
C283 C290 1.422 . S
C284 H275 0.929 . S
C284 N282 1.338 . S
C284 C286 1.378 . S
C285 H280 0.931 . S
C285 C286 1.348 . S
C285 C287 1.413 . S
C286 H281 0.930 . S
C286 C284 1.378 . S
C286 C285 1.348 . S
C287 C283 1.415 . S
C287 C285 1.413 . S
C287 C317 1.437 . S
H288 C317 0.929 . S
N289 Gd262 2.570 . S
N289 C290 1.359 . S
N289 C293 1.343 . S
C290 C283 1.422 . S
C290 N289 1.359 . S
C290 C292 1.421 . S
C291 C292 1.422 . S
C291 C294 1.321 . S
C291 H318 0.931 . S
C292 C290 1.421 . S
C292 C291 1.422 . S
C292 C316 1.417 . S
C293 H270 0.931 . S
C293 N289 1.343 . S
C293 C294 1.390 . S
C294 H272 0.930 . S
C294 C291 1.321 . S
C294 C293 1.390 . S
O295 Gd263 2.386 . S
O295 C307 1.265 . S
O296 Gd262 2.353 . S
O296 C307 1.242 . S
O297 Gd262 2.468 . S
O297 C315 1.263 . S
O298 Gd262 2.427 . S
O298 C315 1.252 . S
O299 Gd263 2.307 . S
O299 C308 1.261 . S
O300 Gd262 2.388 . S
O300 C308 1.252 . S
O301 Gd262 2.386 . S
O301 C319 1.265 . S
O302 Gd263 2.353 . S
O302 C319 1.242 . S
O303 Gd263 2.468 . S
O303 C327 1.263 . S
O304 Gd263 2.427 . S
O304 C327 1.252 . S
O305 Gd262 2.307 . S
O305 C320 1.261 . S
O306 Gd263 2.388 . S
O306 C320 1.252 . S
C307 O295 1.265 . S
C307 O296 1.242 . S
C308 O299 1.261 . S
C308 O300 1.252 . S
C309 C312 1.394 . S
C309 C314 1.370 . S
C309 C315 1.500 . S
C310 C313 1.383 . S
C310 C314 1.395 . S
C311 C312 1.396 . S
C311 C313 1.365 . S
C311 H328 0.929 . S
C312 C309 1.394 . S
C312 C311 1.396 . S
C312 H329 0.930 . S
C313 C310 1.383 . S
C313 C311 1.365 . S
C313 H330 0.931 . S
C314 C309 1.370 . S
C314 C310 1.395 . S
C314 H331 0.930 . S
C315 Gd262 2.805 . S
C315 O297 1.263 . S
C315 O298 1.252 . S
C315 C309 1.500 . S
C316 H278 0.930 . S
C316 C292 1.417 . S
C316 C317 1.329 . S
C317 C287 1.437 . S
C317 H288 0.929 . S
C317 C316 1.329 . S
H318 C291 0.931 . S
C319 O301 1.265 . S
C319 O302 1.242 . S
C320 O305 1.261 . S
C320 O306 1.252 . S
C321 C324 1.394 . S
C321 C326 1.370 . S
C321 C327 1.500 . S
C322 C325 1.383 . S
C322 C326 1.395 . S
C323 C324 1.396 . S
C323 C325 1.365 . S
C323 H332 0.929 . S
C324 C321 1.394 . S
C324 C323 1.396 . S
C324 H333 0.930 . S
C325 C322 1.383 . S
C325 C323 1.365 . S
C325 H334 0.931 . S
C326 C321 1.370 . S
C326 C322 1.395 . S
C326 H335 0.930 . S
C327 Gd263 2.805 . S
C327 O303 1.263 . S
C327 O304 1.252 . S
C327 C321 1.500 . S
H328 C311 0.929 . S
H329 C312 0.930 . S
H330 C313 0.931 . S
H331 C314 0.930 . S
H332 C323 0.929 . S
H333 C324 0.930 . S
H334 C325 0.931 . S
H335 C326 0.930 . S
C336 C337 1.387 1_554 S
C336 H340 0.950 . S
C336 C345 1.390 . S
C337 C336 1.387 1_556 S
C337 C339 1.387 . S
H338 C345 0.950 . S
C339 C337 1.387 . S
C339 C341 1.390 . S
C339 H343 0.950 . S
H340 C336 0.950 . S
C341 C339 1.390 . S
C341 C342 1.387 1_556 S
C341 H344 0.950 . S
C342 C341 1.387 1_554 S
C342 C345 1.387 . S
H343 C339 0.950 . S
H344 C341 0.950 . S
C345 C336 1.390 . S
C345 H338 0.950 . S
C345 C342 1.387 . S
C346 C347 1.387 . S
C346 H350 0.950 . S
C346 C355 1.390 . S
C347 C346 1.387 . S
C347 C349 1.387 1_554 S
H348 C355 0.950 . S
C349 C347 1.387 1_556 S
C349 C351 1.390 . S
C349 H353 0.950 . S
H350 C346 0.950 . S
C351 C349 1.390 . S
C351 C352 1.387 . S
C351 H354 0.950 . S
C352 C351 1.387 . S
C352 C355 1.387 1_556 S
H353 C349 0.950 . S
H354 C351 0.950 . S
C355 C346 1.390 . S
C355 H348 0.950 . S
C355 C352 1.387 1_554 S
C356 C357 1.387 . S
C356 H360 0.950 . S
C356 C365 1.390 . S
C357 C356 1.387 . S
C357 C359 1.387 . S
H358 C365 0.950 . S
C359 C357 1.387 . S
C359 C361 1.390 . S
C359 H363 0.950 . S
H360 C356 0.950 . S
C361 C359 1.390 . S
C361 C362 1.387 . S
C361 H364 0.950 . S
C362 C361 1.387 . S
C362 C365 1.387 . S
H363 C359 0.950 . S
H364 C361 0.950 . S
C365 C356 1.390 . S
C365 H358 0.950 . S
C365 C362 1.387 . S
C366 C367 1.387 . S
C366 H370 0.950 . S
C366 C375 1.390 . S
C367 C366 1.387 . S
C367 C369 1.387 . S
H368 C375 0.950 . S
C369 C367 1.387 . S
C369 C371 1.390 . S
C369 H373 0.950 . S
H370 C366 0.950 . S
C371 C369 1.390 . S
C371 C372 1.387 . S
C371 H374 0.950 . S
C372 C371 1.387 . S
C372 C375 1.387 . S
H373 C369 0.950 . S
H374 C371 0.950 . S
C375 C366 1.390 . S
C375 H368 0.950 . S
C375 C372 1.387 . S
C376 C377 1.379 1_544 S
C376 H380 0.950 . S
C376 C385 1.390 . S
C377 C376 1.379 1_566 S
C377 C379 1.397 . S
H378 C385 0.950 . S
C379 C377 1.397 . S
C379 C381 1.390 . S
C379 H383 0.950 . S
H380 C376 0.950 . S
C381 C379 1.390 . S
C381 C382 1.375 1_566 S
C381 H384 0.950 . S
C382 C381 1.375 1_544 S
C382 C385 1.401 . S
H383 C379 0.950 . S
H384 C381 0.950 . S
C385 C376 1.390 . S
C385 H378 0.950 . S
C385 C382 1.401 . S
C386 C387 1.387 1_565 S
C386 H390 0.950 . S
C386 C395 1.390 . S
C387 C386 1.387 1_545 S
C387 C389 1.387 . S
H388 C395 0.950 . S
C389 C387 1.387 . S
C389 C391 1.390 . S
C389 H393 0.950 . S
H390 C386 0.950 . S
C391 C389 1.390 . S
C391 C392 1.387 1_545 S
C391 H394 0.950 . S
C392 C391 1.387 1_565 S
C392 C395 1.387 . S
H393 C389 0.950 . S
H394 C391 0.950 . S
C395 C386 1.390 . S
C395 H388 0.950 . S
C395 C392 1.387 . S
C396 C397 1.379 1_554 S
C396 H400 0.950 . S
C396 C405 1.390 1_655 S
C397 C396 1.379 1_556 S
C397 C399 1.397 . S
H398 C405 0.950 . S
C399 C397 1.397 . S
C399 C401 1.390 1_655 S
C399 H403 0.950 . S
H400 C396 0.950 . S
C401 C399 1.390 1_455 S
C401 C402 1.375 1_556 S
C401 H404 0.950 . S
C402 C401 1.375 1_554 S
C402 C405 1.401 . S
H403 C399 0.950 . S
H404 C401 0.950 . S
C405 C396 1.390 1_455 S
C405 H398 0.950 . S
C405 C402 1.401 . S
C406 C407 1.387 . S
C406 H410 0.950 . S
C406 C415 1.390 1_455 S
C407 C406 1.387 . S
C407 C409 1.387 . S
H408 C415 0.950 . S
C409 C407 1.387 . S
C409 C411 1.390 1_455 S
C409 H413 0.950 . S
H410 C406 0.950 . S
C411 C409 1.390 1_655 S
C411 C412 1.387 . S
C411 H414 0.950 . S
C412 C411 1.387 . S
C412 C415 1.387 . S
H413 C409 0.950 . S
H414 C411 0.950 . S
C415 C406 1.390 1_655 S
C415 H408 0.950 . S
C415 C412 1.387 . S
C416 C417 1.389 . S
C416 H420 0.950 . S
C416 C425 1.391 1_545 S
C417 C416 1.389 . S
C417 C419 1.389 1_655 S
H418 C425 0.950 . S
C419 C417 1.389 1_455 S
C419 C421 1.391 1_545 S
C419 H423 0.950 . S
H420 C416 0.950 . S
C421 C419 1.391 1_565 S
C421 C422 1.389 1_455 S
C421 H424 0.950 . S
C422 C421 1.389 1_655 S
C422 C425 1.389 . S
H423 C419 0.950 . S
H424 C421 0.950 . S
C425 C416 1.391 1_565 S
C425 H418 0.950 . S
C425 C422 1.389 . S
C426 C427 1.389 1_655 S
C426 H430 0.950 . S
C426 C435 1.391 1_545 S
C427 C426 1.389 1_455 S
C427 C429 1.389 . S
H428 C435 0.951 1_545 S
C429 C427 1.389 . S
C429 C431 1.391 1_545 S
C429 H433 0.950 . S
H430 C426 0.950 . S
C431 C429 1.391 1_565 S
C431 C432 1.389 . S
C431 H434 0.950 . S
C432 C431 1.389 . S
C432 C435 1.389 1_455 S
H433 C429 0.950 . S
H434 C431 0.950 . S
C435 C426 1.391 1_565 S
C435 H428 0.951 1_565 S
C435 C432 1.389 1_655 S
C436 C437 1.387 . S
C436 H440 0.950 . S
C436 C445 1.390 . S
C437 C436 1.387 . S
C437 C439 1.387 . S
H438 C445 0.950 . S
C439 C437 1.387 . S
C439 C441 1.390 . S
C439 H443 0.950 . S
H440 C436 0.950 . S
C441 C439 1.390 . S
C441 C442 1.387 . S
C441 H444 0.950 . S
C442 C441 1.387 . S
C442 C445 1.387 . S
H443 C439 0.950 . S
H444 C441 0.950 . S
C445 C436 1.390 . S
C445 H438 0.950 . S
C445 C442 1.387 . S
C446 C447 1.387 . S
C446 H450 0.950 . S
C446 C455 1.390 . S
C447 C446 1.387 . S
C447 C449 1.387 . S
H448 C455 0.950 . S
C449 C447 1.387 . S
C449 C451 1.390 . S
C449 H453 0.950 . S
H450 C446 0.950 . S
C451 C449 1.390 . S
C451 C452 1.387 . S
C451 H454 0.950 . S
C452 C451 1.387 . S
C452 C455 1.387 . S
H453 C449 0.950 . S
H454 C451 0.950 . S
C455 C446 1.390 . S
C455 H448 0.950 . S
C455 C452 1.387 . S
C337 C238 1.473 1_556 S
C342 C58 1.477 1_554 S
C347 C226 1.476 1_554 S
C352 C70 1.473 1_556 S
C357 C142 1.474 . S
C362 C322 1.471 . S
C367 C154 1.475 . S
C372 C310 1.479 . S
C377 C55 2.006 1_556 S
C382 C67 2.006 1_554 S
C387 C139 2.007 . S
C392 C151 2.007 . S
C397 C223 2.006 1_556 S
C402 C235 2.006 1_554 S
C407 C319 2.007 . S
C412 C307 2.007 . S
C417 C152 1.471 1_545 S
C422 C68 1.473 1_565 S
C427 C56 1.471 1_545 S
C432 C140 1.477 1_565 S
C437 C320 1.478 . S
C442 C236 1.476 . S
C447 C308 1.480 . S
C452 C224 1.482 . S
