# Generated by pormake.
# Topology ato, (4)-cn, num edge types: 1
# Building blocks:
#     Node 0, Type 0, BuildingBlock: QUQFOY_clean_sbu_3, # of connection points: 4
#     Node 1, Type 0, BuildingBlock: QUQFOY_clean_sbu_3, # of connection points: 4
#     Node 2, Type 0, BuildingBlock: QUQFOY_clean_sbu_3, # of connection points: 4
#     Node 3, Type 0, BuildingBlock: QUQFOY_clean_sbu_3, # of connection points: 4
#     Node 4, Type 0, BuildingBlock: QUQFOY_clean_sbu_3, # of connection points: 4
#     Node 5, Type 0, BuildingBlock: QUQFOY_clean_sbu_3, # of connection points: 4
#     Node 6, Type 0, BuildingBlock: QUQFOY_clean_sbu_3, # of connection points: 4
#     Node 7, Type 0, BuildingBlock: QUQFOY_clean_sbu_3, # of connection points: 4
#     Node 8, Type 0, BuildingBlock: QUQFOY_clean_sbu_3, # of connection points: 4
#     Node 9, Type 0, BuildingBlock: QUQFOY_clean_sbu_3, # of connection points: 4
#     Node 10, Type 0, BuildingBlock: QUQFOY_clean_sbu_3, # of connection points: 4
#     Node 11, Type 0, BuildingBlock: QUQFOY_clean_sbu_3, # of connection points: 4
#     Node 12, Type 0, BuildingBlock: QUQFOY_clean_sbu_3, # of connection points: 4
#     Node 13, Type 0, BuildingBlock: QUQFOY_clean_sbu_3, # of connection points: 4
#     Node 14, Type 0, BuildingBlock: QUQFOY_clean_sbu_3, # of connection points: 4
#     Node 15, Type 0, BuildingBlock: QUQFOY_clean_sbu_3, # of connection points: 4
#     Node 16, Type 0, BuildingBlock: QUQFOY_clean_sbu_3, # of connection points: 4
#     Node 17, Type 0, BuildingBlock: QUQFOY_clean_sbu_3, # of connection points: 4
#     Node 18, Type 0, BuildingBlock: QUQFOY_clean_sbu_3, # of connection points: 4
#     Node 19, Type 0, BuildingBlock: QUQFOY_clean_sbu_3, # of connection points: 4
#     Node 20, Type 0, BuildingBlock: QUQFOY_clean_sbu_3, # of connection points: 4
#     Node 21, Type 0, BuildingBlock: QUQFOY_clean_sbu_3, # of connection points: 4
#     Node 22, Type 0, BuildingBlock: QUQFOY_clean_sbu_3, # of connection points: 4
#     Node 23, Type 0, BuildingBlock: QUQFOY_clean_sbu_3, # of connection points: 4
#     Node 24, Type 0, BuildingBlock: QUQFOY_clean_sbu_3, # of connection points: 4
#     Node 25, Type 0, BuildingBlock: QUQFOY_clean_sbu_3, # of connection points: 4
#     Node 26, Type 0, BuildingBlock: QUQFOY_clean_sbu_3, # of connection points: 4
#     Node 27, Type 0, BuildingBlock: QUQFOY_clean_sbu_3, # of connection points: 4
#     Node 28, Type 0, BuildingBlock: QUQFOY_clean_sbu_3, # of connection points: 4
#     Node 29, Type 0, BuildingBlock: QUQFOY_clean_sbu_3, # of connection points: 4
#     Node 30, Type 0, BuildingBlock: QUQFOY_clean_sbu_3, # of connection points: 4
#     Node 31, Type 0, BuildingBlock: QUQFOY_clean_sbu_3, # of connection points: 4
#     Node 32, Type 0, BuildingBlock: QUQFOY_clean_sbu_3, # of connection points: 4
#     Node 33, Type 0, BuildingBlock: QUQFOY_clean_sbu_3, # of connection points: 4
#     Node 34, Type 0, BuildingBlock: QUQFOY_clean_sbu_3, # of connection points: 4
#     Node 35, Type 0, BuildingBlock: QUQFOY_clean_sbu_3, # of connection points: 4
#     Edge 36, Type (0, 0), BuildingBlock: MIFKUJ_clean_linker_0, # of connection points: 2
#     Edge 37, Type (0, 0), BuildingBlock: MIFKUJ_clean_linker_0, # of connection points: 2
#     Edge 38, Type (0, 0), BuildingBlock: MIFKUJ_clean_linker_0, # of connection points: 2
#     Edge 39, Type (0, 0), BuildingBlock: MIFKUJ_clean_linker_0, # of connection points: 2
#     Edge 40, Type (0, 0), BuildingBlock: MIFKUJ_clean_linker_0, # of connection points: 2
#     Edge 41, Type (0, 0), BuildingBlock: MIFKUJ_clean_linker_0, # of connection points: 2
#     Edge 42, Type (0, 0), BuildingBlock: MIFKUJ_clean_linker_0, # of connection points: 2
#     Edge 43, Type (0, 0), BuildingBlock: MIFKUJ_clean_linker_0, # of connection points: 2
#     Edge 44, Type (0, 0), BuildingBlock: MIFKUJ_clean_linker_0, # of connection points: 2
#     Edge 45, Type (0, 0), BuildingBlock: MIFKUJ_clean_linker_0, # of connection points: 2
#     Edge 46, Type (0, 0), BuildingBlock: MIFKUJ_clean_linker_0, # of connection points: 2
#     Edge 47, Type (0, 0), BuildingBlock: MIFKUJ_clean_linker_0, # of connection points: 2
#     Edge 48, Type (0, 0), BuildingBlock: MIFKUJ_clean_linker_0, # of connection points: 2
#     Edge 49, Type (0, 0), BuildingBlock: MIFKUJ_clean_linker_0, # of connection points: 2
#     Edge 50, Type (0, 0), BuildingBlock: MIFKUJ_clean_linker_0, # of connection points: 2
#     Edge 51, Type (0, 0), BuildingBlock: MIFKUJ_clean_linker_0, # of connection points: 2
#     Edge 52, Type (0, 0), BuildingBlock: MIFKUJ_clean_linker_0, # of connection points: 2
#     Edge 53, Type (0, 0), BuildingBlock: MIFKUJ_clean_linker_0, # of connection points: 2
#     Edge 54, Type (0, 0), BuildingBlock: MIFKUJ_clean_linker_0, # of connection points: 2
#     Edge 55, Type (0, 0), BuildingBlock: MIFKUJ_clean_linker_0, # of connection points: 2
#     Edge 56, Type (0, 0), BuildingBlock: MIFKUJ_clean_linker_0, # of connection points: 2
#     Edge 57, Type (0, 0), BuildingBlock: MIFKUJ_clean_linker_0, # of connection points: 2
#     Edge 58, Type (0, 0), BuildingBlock: MIFKUJ_clean_linker_0, # of connection points: 2
#     Edge 59, Type (0, 0), BuildingBlock: MIFKUJ_clean_linker_0, # of connection points: 2
#     Edge 60, Type (0, 0), BuildingBlock: MIFKUJ_clean_linker_0, # of connection points: 2
#     Edge 61, Type (0, 0), BuildingBlock: MIFKUJ_clean_linker_0, # of connection points: 2
#     Edge 62, Type (0, 0), BuildingBlock: MIFKUJ_clean_linker_0, # of connection points: 2
#     Edge 63, Type (0, 0), BuildingBlock: MIFKUJ_clean_linker_0, # of connection points: 2
#     Edge 64, Type (0, 0), BuildingBlock: MIFKUJ_clean_linker_0, # of connection points: 2
#     Edge 65, Type (0, 0), BuildingBlock: MIFKUJ_clean_linker_0, # of connection points: 2
#     Edge 66, Type (0, 0), BuildingBlock: MIFKUJ_clean_linker_0, # of connection points: 2
#     Edge 67, Type (0, 0), BuildingBlock: MIFKUJ_clean_linker_0, # of connection points: 2
#     Edge 68, Type (0, 0), BuildingBlock: MIFKUJ_clean_linker_0, # of connection points: 2
#     Edge 69, Type (0, 0), BuildingBlock: MIFKUJ_clean_linker_0, # of connection points: 2
#     Edge 70, Type (0, 0), BuildingBlock: MIFKUJ_clean_linker_0, # of connection points: 2
#     Edge 71, Type (0, 0), BuildingBlock: MIFKUJ_clean_linker_0, # of connection points: 2
#     Edge 72, Type (0, 0), BuildingBlock: MIFKUJ_clean_linker_0, # of connection points: 2
#     Edge 73, Type (0, 0), BuildingBlock: MIFKUJ_clean_linker_0, # of connection points: 2
#     Edge 74, Type (0, 0), BuildingBlock: MIFKUJ_clean_linker_0, # of connection points: 2
#     Edge 75, Type (0, 0), BuildingBlock: MIFKUJ_clean_linker_0, # of connection points: 2
#     Edge 76, Type (0, 0), BuildingBlock: MIFKUJ_clean_linker_0, # of connection points: 2
#     Edge 77, Type (0, 0), BuildingBlock: MIFKUJ_clean_linker_0, # of connection points: 2
#     Edge 78, Type (0, 0), BuildingBlock: MIFKUJ_clean_linker_0, # of connection points: 2
#     Edge 79, Type (0, 0), BuildingBlock: MIFKUJ_clean_linker_0, # of connection points: 2
#     Edge 80, Type (0, 0), BuildingBlock: MIFKUJ_clean_linker_0, # of connection points: 2
#     Edge 81, Type (0, 0), BuildingBlock: MIFKUJ_clean_linker_0, # of connection points: 2
#     Edge 82, Type (0, 0), BuildingBlock: MIFKUJ_clean_linker_0, # of connection points: 2
#     Edge 83, Type (0, 0), BuildingBlock: MIFKUJ_clean_linker_0, # of connection points: 2
#     Edge 84, Type (0, 0), BuildingBlock: MIFKUJ_clean_linker_0, # of connection points: 2
#     Edge 85, Type (0, 0), BuildingBlock: MIFKUJ_clean_linker_0, # of connection points: 2
#     Edge 86, Type (0, 0), BuildingBlock: MIFKUJ_clean_linker_0, # of connection points: 2
#     Edge 87, Type (0, 0), BuildingBlock: MIFKUJ_clean_linker_0, # of connection points: 2
#     Edge 88, Type (0, 0), BuildingBlock: MIFKUJ_clean_linker_0, # of connection points: 2
#     Edge 89, Type (0, 0), BuildingBlock: MIFKUJ_clean_linker_0, # of connection points: 2
#     Edge 90, Type (0, 0), BuildingBlock: MIFKUJ_clean_linker_0, # of connection points: 2
#     Edge 91, Type (0, 0), BuildingBlock: MIFKUJ_clean_linker_0, # of connection points: 2
#     Edge 92, Type (0, 0), BuildingBlock: MIFKUJ_clean_linker_0, # of connection points: 2
#     Edge 93, Type (0, 0), BuildingBlock: MIFKUJ_clean_linker_0, # of connection points: 2
#     Edge 94, Type (0, 0), BuildingBlock: MIFKUJ_clean_linker_0, # of connection points: 2
#     Edge 95, Type (0, 0), BuildingBlock: MIFKUJ_clean_linker_0, # of connection points: 2
#     Edge 96, Type (0, 0), BuildingBlock: MIFKUJ_clean_linker_0, # of connection points: 2
#     Edge 97, Type (0, 0), BuildingBlock: MIFKUJ_clean_linker_0, # of connection points: 2
#     Edge 98, Type (0, 0), BuildingBlock: MIFKUJ_clean_linker_0, # of connection points: 2
#     Edge 99, Type (0, 0), BuildingBlock: MIFKUJ_clean_linker_0, # of connection points: 2
#     Edge 100, Type (0, 0), BuildingBlock: MIFKUJ_clean_linker_0, # of connection points: 2
#     Edge 101, Type (0, 0), BuildingBlock: MIFKUJ_clean_linker_0, # of connection points: 2
#     Edge 102, Type (0, 0), BuildingBlock: MIFKUJ_clean_linker_0, # of connection points: 2
#     Edge 103, Type (0, 0), BuildingBlock: MIFKUJ_clean_linker_0, # of connection points: 2
#     Edge 104, Type (0, 0), BuildingBlock: MIFKUJ_clean_linker_0, # of connection points: 2
#     Edge 105, Type (0, 0), BuildingBlock: MIFKUJ_clean_linker_0, # of connection points: 2
#     Edge 106, Type (0, 0), BuildingBlock: MIFKUJ_clean_linker_0, # of connection points: 2
#     Edge 107, Type (0, 0), BuildingBlock: MIFKUJ_clean_linker_0, # of connection points: 2
# Relax obj value: 0.073
# Max RMSD: 0.087
# Mean RMSD: 0.087
data_MOF--net-ato--node1-QUQFOY_clean_sbu_3--edge1-MIFKUJ_clean_linker_0
_symmetry_space_group_name_H-M    P1
_symmetry_Int_Tables_number       1
_symmetry_cell_setting            triclinic
loop_
_symmetry_equiv_pos_as_xyz
'x, y, z'
_cell_length_a     135.19796
_cell_length_b     135.36888
_cell_length_c     31.522617
_cell_angle_alpha  89.97865
_cell_angle_beta   90.083185
_cell_angle_gamma 120.01251
loop_
_atom_site_label
_atom_site_type_symbol
_atom_site_fract_x
_atom_site_fract_y
_atom_site_fract_z
_atom_type_partial_charge
C0 C 0.23083 0.06331 0.22846 0.0
O1 O 0.23012 0.06072 0.18943 0.0
Cd2 Cd 0.2386 0.05076 0.15783 0.0
O3 O 0.23584 0.0601 0.25469 0.0
Cd4 Cd 0.24463 0.04783 0.25308 0.0
C5 C 0.26635 0.06709 0.19368 0.0
O6 O 0.23217 0.03426 0.20084 0.0
O7 O 0.24755 0.03378 0.21405 0.0
O8 O 0.2339 0.03886 0.31641 0.0
C9 C 0.238 0.0294 0.19523 0.0
O10 O 0.2594 0.06339 0.16251 0.0
C11 C 0.24212 0.039 0.33638 0.0
O12 O 0.26301 0.0634 0.23111 0.0
O13 O 0.25181 0.04381 0.31823 0.0
C14 C 0.92438 0.16162 0.22254 0.0
O15 O 0.9236 0.16199 0.18248 0.0
Cd16 Cd 0.93075 0.17898 0.14118 0.0
O17 O 0.92984 0.17076 0.24409 0.0
Cd18 Cd 0.94164 0.19147 0.23001 0.0
C19 C 0.91878 0.19277 0.19406 0.0
O20 O 0.95 0.19079 0.16291 0.0
O21 O 0.95233 0.20721 0.18096 0.0
O22 O 0.95645 0.1925 0.27588 0.0
C23 C 0.95437 0.20133 0.15488 0.0
O24 O 0.91942 0.18774 0.1609 0.0
C25 C 0.9566 0.19991 0.3009 0.0
O26 O 0.92548 0.19472 0.22537 0.0
O27 O 0.94948 0.20325 0.29363 0.0
C28 C 0.82592 0.75397 0.24528 0.0
O29 O 0.82637 0.75452 0.20503 0.0
Cd30 Cd 0.81033 0.7488 0.1592 0.0
O31 O 0.81651 0.75056 0.26472 0.0
Cd32 Cd 0.7965 0.74484 0.24712 0.0
C33 C 0.79253 0.72135 0.19372 0.0
O34 O 0.80108 0.75821 0.18923 0.0
O35 O 0.78313 0.7469 0.20045 0.0
O36 O 0.79785 0.75605 0.30868 0.0
C37 C 0.79086 0.75505 0.17927 0.0
O38 O 0.79903 0.72804 0.16495 0.0
C39 C 0.78851 0.7486 0.32522 0.0
O40 O 0.79047 0.72523 0.2273 0.0
O41 O 0.78291 0.73917 0.3057 0.0
C42 C 0.06199 0.23521 0.77037 0.0
O43 O 0.05911 0.23524 0.80868 0.0
Cd44 Cd 0.04609 0.24091 0.83382 0.0
O45 O 0.05752 0.23798 0.74036 0.0
Cd46 Cd 0.04269 0.24361 0.73285 0.0
C47 C 0.05859 0.26779 0.78958 0.0
O48 O 0.03011 0.23158 0.78789 0.0
O49 O 0.02599 0.24384 0.76261 0.0
O50 O 0.03445 0.23115 0.67213 0.0
C51 C 0.02348 0.23565 0.78788 0.0
O52 O 0.05602 0.26151 0.82246 0.0
C53 C 0.0349 0.23882 0.64765 0.0
O54 O 0.05526 0.26346 0.75283 0.0
O55 O 0.03952 0.2489 0.66232 0.0
C56 C 0.75413 0.82731 0.74964 0.0
O57 O 0.7542 0.82719 0.78995 0.0
Cd58 Cd 0.74935 0.81091 0.83378 0.0
O59 O 0.75153 0.81833 0.72847 0.0
Cd60 Cd 0.74656 0.79849 0.7438 0.0
C61 C 0.72236 0.79244 0.79693 0.0
O62 O 0.75961 0.80267 0.80317 0.0
O63 O 0.74825 0.78485 0.78919 0.0
O64 O 0.7582 0.79957 0.68374 0.0
C65 C 0.75638 0.79233 0.81128 0.0
O66 O 0.72871 0.79827 0.82774 0.0
C67 C 0.75057 0.79047 0.66628 0.0
O68 O 0.72669 0.79175 0.762 0.0
O69 O 0.74087 0.7853 0.68423 0.0
C70 C 0.16592 0.9293 0.7601 0.0
O71 O 0.16622 0.93078 0.79997 0.0
Cd72 Cd 0.18335 0.94055 0.84091 0.0
O73 O 0.17509 0.93377 0.73842 0.0
Cd74 Cd 0.19571 0.94689 0.74996 0.0
C75 C 0.19722 0.92649 0.80557 0.0
O76 O 0.19465 0.95836 0.80666 0.0
O77 O 0.2112 0.96008 0.79607 0.0
O78 O 0.19494 0.95736 0.68957 0.0
C79 C 0.20517 0.96328 0.8161 0.0
O80 O 0.19251 0.92889 0.83574 0.0
C81 C 0.20361 0.9581 0.67102 0.0
O82 O 0.19879 0.93129 0.76948 0.0
O83 O 0.2085 0.95322 0.68865 0.0
C84 C 0.74697 0.92025 0.75034 0.0
O85 O 0.74597 0.9199 0.79046 0.0
Cd86 Cd 0.74336 0.93281 0.83442 0.0
O87 O 0.74642 0.92791 0.7287 0.0
Cd88 Cd 0.74294 0.9438 0.74438 0.0
C89 C 0.71759 0.92677 0.79366 0.0
O90 O 0.7555 0.95123 0.80553 0.0
O91 O 0.74542 0.95914 0.79211 0.0
O92 O 0.75559 0.95423 0.68607 0.0
C93 C 0.75301 0.95883 0.8147 0.0
O94 O 0.72332 0.92689 0.82592 0.0
C95 C 0.7487 0.95675 0.66835 0.0
O96 O 0.72256 0.93153 0.75907 0.0
O97 O 0.73893 0.95287 0.6853 0.0
C98 C 0.06864 0.82655 0.77292 0.0
O99 O 0.06706 0.82538 0.81277 0.0
Cd100 Cd 0.05194 0.80936 0.84881 0.0
O101 O 0.06205 0.81867 0.74748 0.0
Cd102 Cd 0.04535 0.79932 0.75357 0.0
C103 C 0.05863 0.78928 0.81818 0.0
O104 O 0.03541 0.80409 0.80663 0.0
O105 O 0.0274 0.78636 0.78873 0.0
O106 O 0.03845 0.80271 0.68728 0.0
C107 C 0.02704 0.79404 0.81036 0.0
O108 O 0.05746 0.7948 0.84855 0.0
C109 C 0.03659 0.79346 0.66994 0.0
O110 O 0.05565 0.79008 0.78056 0.0
O111 O 0.03932 0.78718 0.69099 0.0
C112 C 0.16672 0.23654 0.77076 0.0
O113 O 0.16936 0.2365 0.80941 0.0
Cd114 Cd 0.18807 0.24285 0.83616 0.0
O115 O 0.17429 0.23978 0.7418 0.0
Cd116 Cd 0.19499 0.24622 0.73815 0.0
C117 C 0.20179 0.26998 0.79432 0.0
O118 O 0.19561 0.23388 0.79246 0.0
O119 O 0.21194 0.24772 0.77271 0.0
O120 O 0.19136 0.23433 0.67589 0.0
C121 C 0.20639 0.23875 0.79463 0.0
O122 O 0.19847 0.26359 0.82701 0.0
C123 C 0.19939 0.24202 0.65395 0.0
O124 O 0.20078 0.26576 0.7574 0.0
O125 O 0.20504 0.25186 0.67057 0.0
C126 C 0.92202 0.75605 0.25077 0.0
O127 O 0.92171 0.75598 0.21047 0.0
Cd128 Cd 0.93198 0.75054 0.16379 0.0
O129 O 0.92855 0.75337 0.27075 0.0
Cd130 Cd 0.94336 0.74834 0.25286 0.0
C131 C 0.92404 0.72385 0.20353 0.0
O132 O 0.95068 0.76085 0.19252 0.0
O133 O 0.95848 0.75058 0.20368 0.0
O134 O 0.95423 0.76055 0.31124 0.0
C135 C 0.95798 0.75812 0.18149 0.0
O136 O 0.92356 0.73 0.1739 0.0
C137 C 0.95643 0.75338 0.32844 0.0
O138 O 0.93028 0.72834 0.23613 0.0
O139 O 0.95224 0.74364 0.311 0.0
C140 C 0.23278 0.1653 0.21903 0.0
O141 O 0.23328 0.16677 0.17917 0.0
Cd142 Cd 0.24314 0.18473 0.14528 0.0
O143 O 0.23701 0.17378 0.2444 0.0
Cd144 Cd 0.24551 0.1949 0.23774 0.0
C145 C 0.26936 0.19711 0.19586 0.0
O146 O 0.23487 0.1949 0.17631 0.0
O147 O 0.24937 0.21122 0.19163 0.0
O148 O 0.23234 0.19344 0.29263 0.0
C149 C 0.24059 0.20547 0.16881 0.0
O150 O 0.26341 0.19262 0.16263 0.0
C151 C 0.23968 0.20173 0.31462 0.0
O152 O 0.26492 0.19865 0.22897 0.0
O153 O 0.24994 0.20668 0.30158 0.0
C154 C 0.827 0.06669 0.23172 0.0
O155 O 0.82604 0.06597 0.19157 0.0
Cd156 Cd 0.8087 0.05475 0.15283 0.0
O157 O 0.81832 0.06117 0.2555 0.0
Cd158 Cd 0.79775 0.04732 0.24645 0.0
C159 C 0.79237 0.06566 0.19095 0.0
O160 O 0.80039 0.037 0.18907 0.0
O161 O 0.78288 0.03115 0.20586 0.0
O162 O 0.79988 0.03823 0.30922 0.0
C163 C 0.78992 0.02996 0.18308 0.0
O164 O 0.7973 0.06407 0.15946 0.0
C165 C 0.79103 0.03707 0.32775 0.0
O166 O 0.79198 0.06117 0.22686 0.0
O167 O 0.78547 0.04107 0.30894 0.0
C168 C 0.89779 0.39911 0.56916 0.0
O169 O 0.89768 0.3989 0.5289 0.0
Cd170 Cd 0.90602 0.39044 0.48649 0.0
O171 O 0.90199 0.39402 0.59017 0.0
Cd172 Cd 0.90997 0.3814 0.57457 0.0
C173 C 0.93321 0.40302 0.52851 0.0
O174 O 0.89833 0.37154 0.51323 0.0
O175 O 0.9128 0.36926 0.52459 0.0
O176 O 0.89774 0.36882 0.62968 0.0
C177 C 0.90388 0.36662 0.50321 0.0
O178 O 0.92668 0.40196 0.49756 0.0
C179 C 0.90555 0.36817 0.64956 0.0
O180 O 0.92928 0.39692 0.56171 0.0
O181 O 0.91564 0.37397 0.63512 0.0
C182 C 0.58765 0.49632 0.57254 0.0
O183 O 0.58672 0.49564 0.53244 0.0
Cd184 Cd 0.59411 0.51165 0.48603 0.0
O185 O 0.59354 0.50595 0.59068 0.0
Cd186 Cd 0.60617 0.52603 0.56787 0.0
C187 C 0.5838 0.52791 0.53096 0.0
O188 O 0.61389 0.5232 0.50237 0.0
O189 O 0.61611 0.54001 0.51203 0.0
O190 O 0.62233 0.52865 0.60937 0.0
C191 C 0.61833 0.53348 0.49023 0.0
O192 O 0.58347 0.52149 0.5008 0.0
C193 C 0.62245 0.53601 0.63449 0.0
O194 O 0.59104 0.5307 0.56094 0.0
O195 O 0.61471 0.53864 0.62956 0.0
C196 C 0.49117 0.09058 0.55387 0.0
O197 O 0.49066 0.09058 0.51363 0.0
Cd198 Cd 0.47342 0.08218 0.4731 0.0
O199 O 0.4821 0.08636 0.57608 0.0
Cd200 Cd 0.4613 0.07789 0.56412 0.0
C201 C 0.45995 0.05506 0.51531 0.0
O202 O 0.46209 0.08928 0.50349 0.0
O203 O 0.44558 0.07476 0.5174 0.0
O204 O 0.46146 0.08966 0.62206 0.0
C205 C 0.45152 0.08353 0.49495 0.0
O206 O 0.46467 0.06156 0.48355 0.0
C207 C 0.45306 0.08168 0.64164 0.0
O208 O 0.45831 0.05896 0.54969 0.0
O209 O 0.44861 0.07175 0.62564 0.0
C210 C 0.72907 0.56706 0.08433 0.0
O211 O 0.72734 0.56625 0.12407 0.0
Cd212 Cd 0.71656 0.57315 0.1603 0.0
O213 O 0.72424 0.57098 0.06039 0.0
Cd214 Cd 0.71001 0.57736 0.068 0.0
C215 C 0.72929 0.60064 0.12163 0.0
O216 O 0.69851 0.56503 0.12531 0.0
O217 O 0.69612 0.57932 0.11128 0.0
O218 O 0.69824 0.56499 0.01161 0.0
C219 C 0.69299 0.57018 0.13189 0.0
O220 O 0.72773 0.59392 0.15242 0.0
C221 C 0.69897 0.57288 0.98776 0.0
O222 O 0.72415 0.59688 0.08639 0.0
O223 O 0.70519 0.58307 0.00066 0.0
C224 C 0.42204 0.15649 0.08464 0.0
O225 O 0.42289 0.15486 0.1238 0.0
Cd226 Cd 0.41422 0.13663 0.15676 0.0
O227 O 0.41695 0.14812 0.05915 0.0
Cd228 Cd 0.40841 0.12706 0.06263 0.0
C229 C 0.38652 0.12506 0.11927 0.0
O230 O 0.42075 0.12623 0.1164 0.0
O231 O 0.40533 0.11036 0.10388 0.0
O232 O 0.41973 0.12894 0.00094 0.0
C233 C 0.41487 0.1156 0.12279 0.0
O234 O 0.39351 0.12867 0.15032 0.0
C235 C 0.41182 0.12068 0.98058 0.0
O236 O 0.38982 0.12424 0.08228 0.0
O237 O 0.402 0.11559 -0.00231 0.0
C238 C 0.83189 0.25957 0.08948 0.0
O239 O 0.83285 0.26161 0.12904 0.0
Cd240 Cd 0.85049 0.27269 0.16525 0.0
O241 O 0.84064 0.26407 0.06546 0.0
Cd242 Cd 0.86138 0.27804 0.0721 0.0
C243 C 0.86476 0.25905 0.13011 0.0
O244 O 0.85999 0.28999 0.12599 0.0
O245 O 0.87691 0.29274 0.11497 0.0
O246 O 0.85917 0.28682 0.00878 0.0
C247 C 0.87059 0.29579 0.1337 0.0
O248 O 0.86009 0.26144 0.16042 0.0
C249 C 0.86804 0.28803 0.9903 0.0
O250 O 0.86585 0.26349 0.09356 0.0
O251 O 0.87369 0.28416 0.00931 0.0
C252 C 0.42428 0.25912 0.10154 0.0
O253 O 0.42492 0.26085 0.14131 0.0
Cd254 Cd 0.41787 0.27122 0.17892 0.0
O255 O 0.42001 0.2635 0.07694 0.0
Cd256 Cd 0.41273 0.27712 0.08344 0.0
C257 C 0.39012 0.25791 0.14165 0.0
O258 O 0.42585 0.28826 0.13846 0.0
O259 O 0.41327 0.29304 0.12421 0.0
O260 O 0.42319 0.28589 0.0189 0.0
C261 C 0.42195 0.29484 0.14566 0.0
O262 O 0.39704 0.25972 0.17209 0.0
C263 C 0.4151 0.28647 0.00088 0.0
O264 O 0.39365 0.26289 0.10605 0.0
O265 O 0.4057 0.28235 0.02086 0.0
C266 C 0.7318 0.15976 0.09949 0.0
O267 O 0.73076 0.15897 0.13959 0.0
Cd268 Cd 0.71948 0.14164 0.17815 0.0
O269 O 0.72624 0.15103 0.07595 0.0
Cd270 Cd 0.71169 0.13067 0.08481 0.0
C271 C 0.73039 0.12544 0.13743 0.0
O272 O 0.7014 0.13278 0.14393 0.0
O273 O 0.69687 0.11554 0.12796 0.0
O274 O 0.70165 0.13294 0.02538 0.0
C275 C 0.69508 0.1222 0.15067 0.0
O276 O 0.72887 0.13033 0.16925 0.0
C277 C 0.70027 0.12421 0.00532 0.0
O278 O 0.72573 0.125 0.10179 0.0
O279 O 0.70462 0.11866 0.02157 0.0
C280 C 0.83233 0.57124 0.10083 0.0
O281 O 0.83349 0.57046 0.14047 0.0
Cd282 Cd 0.8507 0.57505 0.17659 0.0
O283 O 0.84075 0.57426 0.07573 0.0
Cd284 Cd 0.86113 0.57925 0.08226 0.0
C285 C 0.8671 0.60259 0.14029 0.0
O286 O 0.85882 0.56581 0.13752 0.0
O287 O 0.87612 0.57893 0.12456 0.0
O288 O 0.85903 0.56791 0.01975 0.0
C289 C 0.86938 0.56993 0.14459 0.0
O290 O 0.86193 0.59582 0.17094 0.0
C291 C 0.86783 0.5756 0.001 0.0
O292 O 0.8677 0.59883 0.10392 0.0
O293 O 0.87328 0.58522 0.01934 0.0
C294 C 0.58856 0.08999 0.57003 0.0
O295 O 0.58915 0.0894 0.52999 0.0
Cd296 Cd 0.59944 0.08204 0.49292 0.0
O297 O 0.59397 0.08681 0.59442 0.0
Cd298 Cd 0.60759 0.07971 0.58605 0.0
C299 C 0.58786 0.0554 0.53826 0.0
O300 O 0.61778 0.09144 0.52551 0.0
O301 O 0.62198 0.07854 0.54207 0.0
O302 O 0.61819 0.09211 0.64479 0.0
C303 C 0.62388 0.08694 0.51879 0.0
O304 O 0.58933 0.06145 0.50536 0.0
C305 C 0.61937 0.08464 0.66488 0.0
O306 O 0.59294 0.05999 0.5729 0.0
O307 O 0.61472 0.07469 0.64891 0.0
C308 C 0.89847 0.49613 0.57409 0.0
O309 O 0.89779 0.49672 0.53408 0.0
Cd310 Cd 0.90455 0.5139 0.49417 0.0
O311 O 0.90277 0.50512 0.59681 0.0
Cd312 Cd 0.91048 0.52582 0.5857 0.0
C313 C 0.9326 0.52848 0.52752 0.0
O314 O 0.89733 0.52434 0.5304 0.0
O315 O 0.9119 0.54108 0.53994 0.0
O316 O 0.89948 0.52501 0.64718 0.0
C317 C 0.9025 0.53484 0.52108 0.0
O318 O 0.92542 0.52391 0.49739 0.0
C319 C 0.90739 0.53381 0.6652 0.0
O320 O 0.92937 0.52945 0.56449 0.0
O321 O 0.91707 0.53874 0.64699 0.0
C322 C 0.49202 0.40066 0.58469 0.0
O323 O 0.49207 0.40037 0.54441 0.0
Cd324 Cd 0.47589 0.3897 0.49939 0.0
O325 O 0.48285 0.39461 0.60544 0.0
Cd326 Cd 0.46286 0.38003 0.58804 0.0
C327 C 0.45777 0.39879 0.53566 0.0
O328 O 0.46664 0.37104 0.52829 0.0
O329 O 0.44901 0.36614 0.53856 0.0
O330 O 0.46341 0.36843 0.64535 0.0
C331 C 0.45627 0.36483 0.51774 0.0
O332 O 0.46361 0.39808 0.50535 0.0
C333 C 0.45425 0.36675 0.66289 0.0
O334 O 0.45681 0.39374 0.57083 0.0
O335 O 0.44929 0.3717 0.64654 0.0
C336 C 0.57111 0.73668 0.89058 0.0
O337 O 0.57097 0.73415 0.85167 0.0
Cd338 Cd 0.57363 0.71936 0.82278 0.0
O339 O 0.573 0.73123 0.91946 0.0
Cd340 Cd 0.57731 0.71544 0.92123 0.0
C341 C 0.60084 0.72936 0.85867 0.0
O342 O 0.56318 0.70368 0.8692 0.0
O343 O 0.57452 0.69771 0.88851 0.0
O344 O 0.56678 0.7087 0.98724 0.0
C345 C 0.56593 0.69605 0.8668 0.0
O346 O 0.59415 0.72672 0.82693 0.0
C347 C 0.5745 0.7077 0.00643 0.0
O348 O 0.59693 0.72699 0.89631 0.0
O349 O 0.58379 0.71092 0.98661 0.0
C350 C 0.26197 0.83572 0.88783 0.0
O351 O 0.26506 0.83809 0.84944 0.0
Cd352 Cd 0.27539 0.8573 0.82412 0.0
O353 O 0.2654 0.84354 0.91578 0.0
Cd354 Cd 0.27914 0.86427 0.92066 0.0
C355 C 0.26006 0.86879 0.86994 0.0
O356 O 0.29244 0.86694 0.86465 0.0
O357 O 0.29244 0.88216 0.8853 0.0
O358 O 0.29007 0.86129 0.97416 0.0
C359 C 0.29699 0.8777 0.86301 0.0
O360 O 0.26321 0.86568 0.83685 0.0
C361 C 0.2893 0.86762 0.00206 0.0
O362 O 0.26406 0.86857 0.9063 0.0
O363 O 0.28328 0.87214 0.99288 0.0
C364 C 0.15075 0.41789 0.89582 0.0
O365 O 0.14867 0.41945 0.85787 0.0
Cd366 Cd 0.13077 0.41618 0.83159 0.0
O367 O 0.14312 0.41483 0.92445 0.0
Cd368 Cd 0.12315 0.41091 0.92935 0.0
C369 C 0.11458 0.38826 0.86418 0.0
O370 O 0.12463 0.42541 0.88059 0.0
O371 O 0.10754 0.41257 0.89762 0.0
O372 O 0.12793 0.42137 0.9956 0.0
C373 C 0.11402 0.4218 0.87837 0.0
O374 O 0.11889 0.39539 0.83382 0.0
C375 C 0.11933 0.41383 0.01578 0.0
O376 O 0.11537 0.39163 0.9024 0.0
O377 O 0.11276 0.40463 -0.0038 0.0
C378 C 0.39583 0.89712 0.45745 0.0
O379 O 0.39491 0.89834 0.4969 0.0
Cd380 Cd 0.38702 0.90896 0.52693 0.0
O381 O 0.39157 0.90092 0.43024 0.0
Cd382 Cd 0.37941 0.90993 0.43152 0.0
C383 C 0.40136 0.93416 0.47007 0.0
O384 O 0.36878 0.90164 0.4955 0.0
O385 O 0.36826 0.9164 0.47291 0.0
O386 O 0.3651 0.89564 0.38583 0.0
C387 C 0.36482 0.90831 0.4995 0.0
O388 O 0.39954 0.92873 0.50489 0.0
C389 C 0.36591 0.90246 0.35667 0.0
O390 O 0.39555 0.92927 0.43695 0.0
O391 O 0.37346 0.9129 0.36128 0.0
C392 C 0.09017 0.4969 0.42846 0.0
O393 O 0.0897 0.49721 0.46863 0.0
Cd394 Cd 0.08092 0.4809 0.51355 0.0
O395 O 0.08634 0.48743 0.40903 0.0
Cd396 Cd 0.07834 0.46705 0.42846 0.0
C397 C 0.05436 0.4655 0.46696 0.0
O398 O 0.08907 0.46955 0.49333 0.0
O399 O 0.07492 0.45264 0.48177 0.0
O400 O 0.0914 0.46642 0.37771 0.0
C401 C 0.08343 0.4592 0.50459 0.0
O402 O 0.06044 0.47136 0.49825 0.0
C403 C 0.08391 0.45771 0.35791 0.0
O404 O 0.05879 0.46309 0.43589 0.0
O405 O 0.07364 0.45341 0.37039 0.0
C406 C 0.49675 0.59485 0.41739 0.0
O407 O 0.49587 0.59528 0.45736 0.0
Cd408 Cd 0.51173 0.60418 0.50474 0.0
O409 O 0.50648 0.60016 0.39944 0.0
Cd410 Cd 0.52655 0.61378 0.41907 0.0
C411 C 0.52757 0.5922 0.46848 0.0
O412 O 0.52319 0.62302 0.47868 0.0
O413 O 0.54051 0.6265 0.47082 0.0
O414 O 0.52615 0.62547 0.36233 0.0
C415 C 0.53349 0.62833 0.49109 0.0
O416 O 0.5214 0.59307 0.49712 0.0
C417 C 0.53528 0.62713 0.34458 0.0
O418 O 0.53044 0.59845 0.43542 0.0
O419 O 0.54033 0.62226 0.36098 0.0
C420 C 0.08928 0.59086 0.41387 0.0
O421 O 0.08909 0.59096 0.45413 0.0
Cd422 Cd 0.08046 0.59939 0.49538 0.0
O423 O 0.08518 0.59594 0.39235 0.0
Cd424 Cd 0.07692 0.6083 0.40689 0.0
C425 C 0.05333 0.5871 0.45213 0.0
O426 O 0.08778 0.61821 0.46936 0.0
O427 O 0.07273 0.61949 0.45701 0.0
O428 O 0.09053 0.62303 0.36135 0.0
C429 C 0.08172 0.62262 0.47876 0.0
O430 O 0.05987 0.58846 0.48342 0.0
C431 C 0.08339 0.62273 0.33455 0.0
O432 O 0.05734 0.59274 0.41793 0.0
O433 O 0.07294 0.61536 0.34044 0.0
C434 C 0.40405 0.49344 0.42346 0.0
O435 O 0.4039 0.49292 0.46374 0.0
Cd436 Cd 0.39023 0.47815 0.50856 0.0
O437 O 0.39634 0.48539 0.40133 0.0
Cd438 Cd 0.37943 0.46654 0.41624 0.0
C439 C 0.39481 0.45706 0.47111 0.0
O440 O 0.37247 0.47253 0.47574 0.0
O441 O 0.36342 0.4545 0.46334 0.0
O442 O 0.36957 0.46913 0.35659 0.0
C443 C 0.36443 0.46273 0.48566 0.0
O444 O 0.39482 0.46302 0.50237 0.0
C445 C 0.36675 0.45959 0.33947 0.0
O446 O 0.39062 0.45745 0.43531 0.0
O447 O 0.37028 0.45349 0.35725 0.0
C448 C 0.49974 0.90041 0.43366 0.0
O449 O 0.50291 0.8993 0.47043 0.0
Cd450 Cd 0.52231 0.90711 0.49194 0.0
O451 O 0.50704 0.90562 0.40448 0.0
Cd452 Cd 0.52801 0.91463 0.39543 0.0
C453 C 0.53272 0.93531 0.46532 0.0
O454 O 0.53062 0.90131 0.43797 0.0
O455 O 0.54607 0.9168 0.42277 0.0
O456 O 0.52368 0.905 0.32796 0.0
C457 C 0.54141 0.90697 0.43934 0.0
O458 O 0.5305 0.92787 0.4941 0.0
C459 C 0.5315 0.9133 0.30749 0.0
O460 O 0.53173 0.9326 0.42621 0.0
O461 O 0.53736 0.9226 0.32756 0.0
C462 C 0.25549 0.41946 0.88611 0.0
O463 O 0.25815 0.42027 0.8471 0.0
Cd464 Cd 0.27328 0.41842 0.8167 0.0
O465 O 0.26123 0.41767 0.91411 0.0
Cd466 Cd 0.27813 0.4151 0.91497 0.0
C467 C 0.26445 0.39142 0.85298 0.0
O468 O 0.28893 0.42947 0.86259 0.0
O469 O 0.29632 0.41931 0.8816 0.0
O470 O 0.2843 0.4258 0.98091 0.0
C471 C 0.29715 0.42756 0.85986 0.0
O472 O 0.26643 0.39801 0.82135 0.0
C473 C 0.28605 0.41855 8e-05 0.0
O474 O 0.26726 0.39542 0.89039 0.0
O475 O 0.28356 0.40944 0.98019 0.0
C476 C 0.56219 0.83365 0.87696 0.0
O477 O 0.56171 0.83456 0.837 0.0
Cd478 Cd 0.56831 0.85204 0.79878 0.0
O479 O 0.56589 0.84239 0.90079 0.0
Cd480 Cd 0.57262 0.86294 0.89293 0.0
C481 C 0.59574 0.86676 0.83847 0.0
O482 O 0.56087 0.86238 0.83401 0.0
O483 O 0.57496 0.87894 0.84989 0.0
O484 O 0.56077 0.86182 0.95205 0.0
C485 C 0.56634 0.873 0.8266 0.0
O486 O 0.58909 0.86234 0.80674 0.0
C487 C 0.56867 0.87016 0.97222 0.0
O488 O 0.59185 0.86728 0.87471 0.0
O489 O 0.57863 0.87488 0.95623 0.0
C490 C 0.15538 0.73435 0.87209 0.0
O491 O 0.15183 0.73289 0.83404 0.0
Cd492 Cd 0.13392 0.71824 0.80762 0.0
O493 O 0.14906 0.72792 0.90184 0.0
Cd494 Cd 0.12897 0.71203 0.90578 0.0
C495 C 0.11722 0.72647 0.8604 0.0
O496 O 0.12942 0.70129 0.84531 0.0
O497 O 0.11266 0.69623 0.86972 0.0
O498 O 0.13258 0.70127 0.95904 0.0
C499 C 0.11878 0.6943 0.84443 0.0
O500 O 0.12054 0.72463 0.82501 0.0
C501 C 0.1258 0.70146 0.9864 0.0
O502 O 0.11994 0.72364 0.8952 0.0
O503 O 0.12092 0.70712 0.97714 0.0
H504 H 0.19336 0.96696 0.62232 0.0
H505 H 0.2017 0.98035 0.5637 0.0
H506 H 0.23267 0.97872 0.57426 0.0
H507 H 0.22436 0.96526 0.63348 0.0
H508 H 0.23662 0.00085 0.57196 0.0
H509 H 0.21616 0.96686 0.49056 0.0
H510 H 0.19965 0.94843 0.46939 0.0
H511 H 0.18049 0.96504 0.44019 0.0
H512 H 0.19682 0.98355 0.46177 0.0
H513 H 0.25673 0.03388 0.37826 0.0
H514 H 0.25185 0.02021 0.43641 0.0
H515 H 0.21806 0.01598 0.44224 0.0
H516 H 0.2228 0.02947 0.38405 0.0
H517 H 0.21753 -0.00414 0.43274 0.0
H518 H 0.23723 0.0294 0.52079 0.0
H519 H 0.25357 0.04785 0.54293 0.0
H520 H 0.27408 0.03208 0.55964 0.0
H521 H 0.2579 0.01356 0.53704 0.0
C522 C 0.20189 0.96931 0.61185 0.0
C523 C 0.20822 0.96508 0.63247 0.0
C524 C 0.20663 0.97694 0.57827 0.0
C525 C 0.21777 0.98046 0.56459 0.0
C526 C 0.22405 0.97607 0.58443 0.0
C527 C 0.21927 0.96835 0.618 0.0
C528 C 0.22294 0.9892 0.53105 0.0
C529 C 0.23261 -0.0003 0.54112 0.0
C530 C 0.21756 0.98772 0.49125 0.0
C531 C 0.20771 0.97659 0.47805 0.0
C532 C 0.2084 0.96657 0.47992 0.0
C533 C 0.19907 0.95611 0.46779 0.0
C534 C 0.18902 0.95556 0.45352 0.0
C535 C 0.18828 0.96548 0.45126 0.0
C536 C 0.19758 0.97596 0.46338 0.0
C537 C 0.24835 0.03023 0.39262 0.0
C538 C 0.2401 0.03264 0.37639 0.0
C539 C 0.24559 0.02243 0.42579 0.0
C540 C 0.23457 0.01704 0.4433 0.0
C541 C 0.22657 0.01998 0.42883 0.0
C542 C 0.22931 0.02772 0.3957 0.0
C543 C 0.23098 0.00763 0.47412 0.0
C544 C 0.22163 -0.00302 0.46337 0.0
C545 C 0.23666 0.009 0.51321 0.0
C546 C 0.2464 0.02013 0.52673 0.0
C547 C 0.24526 0.02989 0.52879 0.0
C548 C 0.25448 0.04036 0.54151 0.0
C549 C 0.26487 0.04115 0.55255 0.0
C550 C 0.26604 0.03146 0.551 0.0
C551 C 0.25684 0.02098 0.53827 0.0
H552 H 0.272 0.04925 0.5624 0.0
H553 H 0.18181 0.94745 0.44414 0.0
H554 H 0.0344 0.25332 0.58835 0.0
H555 H 0.02211 0.24804 0.52549 0.0
H556 H 0.00986 0.21247 0.55084 0.0
H557 H 0.02212 0.21762 0.61343 0.0
H558 H 0.01901 0.2345 0.45138 0.0
H559 H 0.98063 0.19925 0.54298 0.0
H560 H 0.97375 0.19454 0.61673 0.0
H561 H 0.99188 0.23011 0.64931 0.0
H562 H -0.00129 0.23504 0.57564 0.0
H563 H 0.97436 0.19631 0.31628 0.0
H564 H 0.98865 0.20463 0.37251 0.0
H565 H 0.97219 0.22261 0.42055 0.0
H566 H 0.95781 0.21433 0.36411 0.0
H567 H 0.97755 0.2117 0.48337 0.0
H568 H -0.00399 0.23726 0.36778 0.0
H569 H 0.00291 0.24258 0.29436 0.0
H570 H 0.02453 0.228 0.30983 0.0
H571 H 0.01763 0.22244 0.38317 0.0
C572 C 0.02927 0.24439 0.58002 0.0
C573 C 0.02913 0.23588 0.60603 0.0
C574 C 0.02228 0.2414 0.54413 0.0
C575 C 0.01499 0.22988 0.5341 0.0
C576 C 0.01536 0.2214 0.55847 0.0
C577 C 0.02239 0.22437 0.59413 0.0
C578 C 0.00634 0.22663 0.50033 0.0
C579 C 0.00995 0.22953 0.45824 0.0
C580 C -0.00547 0.22035 0.50967 0.0
C581 C 0.99027 0.2175 0.55388 0.0
C582 C 0.9831 0.20607 0.56584 0.0
C583 C 0.97921 0.20336 0.60764 0.0
C584 C 0.9824 0.21202 0.63772 0.0
C585 C 0.98945 0.22341 0.62602 0.0
C586 C 0.99334 0.22616 0.58426 0.0
C587 C 0.97375 0.20201 0.33884 0.0
C588 C 0.96497 0.20468 0.33581 0.0
C589 C 0.98196 0.2068 0.37077 0.0
C590 C 0.98152 0.21432 0.40028 0.0
C591 C 0.97267 0.21686 0.39786 0.0
C592 C 0.96449 0.21213 0.36567 0.0
C593 C 0.99021 0.2193 0.43416 0.0
C594 C 0.98661 0.21672 0.47639 0.0
C595 C 0.00201 0.22596 0.42491 0.0
C596 C 0.00623 0.22935 0.38088 0.0
C597 C 0.00217 0.2351 0.35542 0.0
C598 C 0.00609 0.23818 0.31384 0.0
C599 C 0.01414 0.23561 0.29741 0.0
C600 C 0.01829 0.22998 0.32258 0.0
C601 C 0.01439 0.22688 0.36418 0.0
H602 H 0.01717 0.238 0.2652 0.0
H603 H 0.9794 0.2099 0.67007 0.0
H604 H 0.76751 0.73574 0.36185 0.0
H605 H 0.75978 0.74101 0.42247 0.0
H606 H 0.79182 0.77246 0.43618 0.0
H607 H 0.79961 0.76725 0.37604 0.0
H608 H 0.78295 0.76237 0.51263 0.0
H609 H 0.77015 0.77226 0.38424 0.0
H610 H 0.76046 0.76822 0.3148 0.0
H611 H 0.72886 0.74375 0.37292 0.0
H612 H 0.73842 0.74754 0.44266 0.0
H613 H 0.77064 0.7996 0.62291 0.0
H614 H 0.7757 0.79067 0.56624 0.0
H615 H 0.74165 0.76148 0.56883 0.0
H616 H 0.73645 0.77042 0.62545 0.0
H617 H 0.74981 0.76795 0.48753 0.0
H618 H 0.76229 0.75959 0.61752 0.0
H619 H 0.77204 0.76394 0.68687 0.0
H620 H 0.80423 0.78551 0.62615 0.0
H621 H 0.79465 0.78143 0.55646 0.0
C622 C 0.77294 0.74371 0.37814 0.0
C623 C 0.78413 0.75113 0.36407 0.0
C624 C 0.7685 0.74672 0.41259 0.0
C625 C 0.7752 0.75717 0.43338 0.0
C626 C 0.78652 0.76435 0.42047 0.0
C627 C 0.79094 0.76138 0.38603 0.0
C628 C 0.77036 0.76097 0.4674 0.0
C629 C 0.77574 0.76364 0.50714 0.0
C630 C 0.76078 0.76234 0.46038 0.0
C631 C 0.75502 0.76008 0.41853 0.0
C632 C 0.76116 0.76595 0.38214 0.0
C633 C 0.75569 0.76371 0.34275 0.0
C634 C 0.74406 0.7557 0.33943 0.0
C635 C 0.73787 0.74993 0.37553 0.0
C636 C 0.74331 0.75212 0.41499 0.0
C637 C 0.76418 0.79134 0.61114 0.0
C638 C 0.75318 0.78566 0.62884 0.0
C639 C 0.7671 0.78623 0.57893 0.0
C640 C 0.75911 0.77533 0.56405 0.0
C641 C 0.74795 0.76987 0.58018 0.0
C642 C 0.74501 0.77498 0.61247 0.0
C643 C 0.76256 0.76959 0.53247 0.0
C644 C 0.75692 0.76653 0.49324 0.0
C645 C 0.77191 0.76786 0.53995 0.0
C646 C 0.77773 0.77027 0.58179 0.0
C647 C 0.77144 0.76533 0.61898 0.0
C648 C 0.77693 0.76774 0.65835 0.0
C649 C 0.78874 0.77502 0.66092 0.0
C650 C 0.79508 0.77988 0.62411 0.0
C651 C 0.78962 0.77751 0.58466 0.0
H652 H 0.79298 0.77687 0.69144 0.0
H653 H 0.73984 0.75399 0.30891 0.0
H654 H 0.76899 0.96621 0.62611 0.0
H655 H 0.77551 0.98052 0.56992 0.0
H656 H 0.74306 0.97942 0.57198 0.0
H657 H 0.73639 0.96496 0.6279 0.0
H658 H 0.75062 0.98032 0.49164 0.0
H659 H 0.76566 0.00077 0.62136 0.0
H660 H 0.77591 0.0053 0.6897 0.0
H661 H 0.8068 0.01249 0.62545 0.0
H662 H 0.79669 0.00785 0.55675 0.0
H663 H 0.771 0.0308 0.36925 0.0
H664 H 0.76326 0.01797 0.43024 0.0
H665 H 0.7939 0.01561 0.43644 0.0
H666 H 0.80173 0.02847 0.37584 0.0
H667 H 0.7863 0.0172 0.51521 0.0
H668 H 0.77084 0.99537 0.38651 0.0
H669 H 0.7606 0.99074 0.31813 0.0
H670 H 0.73043 0.98619 0.38094 0.0
H671 H 0.74056 0.99095 0.44966 0.0
C672 C 0.76319 0.96893 0.61434 0.0
C673 C 0.75221 0.96452 0.63159 0.0
C674 C 0.76696 0.97715 0.58242 0.0
C675 C 0.75984 0.98118 0.56745 0.0
C676 C 0.7487 0.97646 0.58335 0.0
C677 C 0.74491 0.96821 0.61526 0.0
C678 C 0.76414 0.99046 0.53573 0.0
C679 C 0.75831 0.98846 0.49704 0.0
C680 C 0.77426 0.001 0.54268 0.0
C681 C 0.78039 0.00387 0.58393 0.0
C682 C 0.77462 0.00324 0.62183 0.0
C683 C 0.78041 0.00584 0.66063 0.0
C684 C 0.79199 0.00916 0.66193 0.0
C685 C 0.79782 0.00991 0.6244 0.0
C686 C 0.79207 0.00731 0.58552 0.0
C687 C 0.77616 0.02768 0.38402 0.0
C688 C 0.78693 0.03056 0.36759 0.0
C689 C 0.77171 0.02033 0.4187 0.0
C690 C 0.77796 0.01573 0.43734 0.0
C691 C 0.78894 0.01905 0.42236 0.0
C692 C 0.79338 0.02637 0.38768 0.0
C693 C 0.77287 0.007 0.47098 0.0
C694 C 0.77855 0.0091 0.51002 0.0
C695 C 0.76261 -0.00344 0.46437 0.0
C696 C 0.7565 0.99364 0.42313 0.0
C697 C 0.76205 0.99347 0.38568 0.0
C698 C 0.75626 0.99081 0.34688 0.0
C699 C 0.74488 0.98821 0.34517 0.0
C700 C 0.73925 0.98823 0.3823 0.0
C701 C 0.74501 0.9909 0.42118 0.0
H702 H 0.74041 0.98614 0.3151 0.0
H703 H 0.79646 0.01117 0.692 0.0
H704 H 0.02944 0.80502 0.61937 0.0
H705 H 0.01632 0.79741 0.55929 0.0
H706 H 0.0162 0.76557 0.56936 0.0
H707 H 0.02944 0.77315 0.62937 0.0
H708 H 0.01588 0.77197 0.4857 0.0
H709 H -0.00452 0.7674 0.61513 0.0
H710 H 0.99123 0.7737 0.68263 0.0
H711 H 0.98448 0.7973 0.61543 0.0
H712 H 0.98886 0.79126 0.54754 0.0
H713 H 0.96417 0.74055 0.36807 0.0
H714 H 0.9781 0.74653 0.42597 0.0
H715 H 0.98003 0.77932 0.42959 0.0
H716 H 0.96606 0.77339 0.37226 0.0
H717 H 0.97905 0.77098 0.50828 0.0
H718 H 0.00027 0.77605 0.37908 0.0
H719 H 0.00463 0.76978 0.31174 0.0
H720 H 0.00972 0.74503 0.37869 0.0
H721 H 0.00522 0.75106 0.4464 0.0
C722 C 0.0268 0.79647 0.60834 0.0
C723 C 0.03035 0.78962 0.6294 0.0
C724 C 0.01928 0.79213 0.57412 0.0
C725 C 0.01514 0.78086 0.56059 0.0
C726 C 0.01927 0.77427 0.57959 0.0
C727 C 0.02682 0.77861 0.61386 0.0
C728 C 0.00587 0.77574 0.52884 0.0
C729 C 0.00776 0.7716 0.49077 0.0
C730 C -0.00466 0.77536 0.53554 0.0
C731 C 0.9926 0.77895 0.57629 0.0
C732 C 0.99317 0.77399 0.61477 0.0
C733 C 0.99073 0.77751 0.6531 0.0
C734 C 0.98761 0.78592 0.65332 0.0
C735 C 0.9869 0.7908 0.6152 0.0
C736 C 0.98936 0.78733 0.57679 0.0
C737 C 0.96749 0.74899 0.3815 0.0
C738 C 0.96408 0.75653 0.36553 0.0
C739 C 0.97548 0.75241 0.41437 0.0
C740 C 0.98019 0.76342 0.43158 0.0
C741 C 0.97651 0.7708 0.41662 0.0
C742 C 0.96854 0.7674 0.38382 0.0
C743 C 0.98912 0.7674 0.46469 0.0
C744 C 0.98714 0.77129 0.5032 0.0
C745 C -0.00046 0.76751 0.45837 0.0
C746 C 0.00229 0.76392 0.41772 0.0
C747 C 0.00223 0.76921 0.37939 0.0
C748 C 0.00474 0.76571 0.34117 0.0
C749 C 0.00742 0.75699 0.34092 0.0
C750 C 0.00762 0.75177 0.37892 0.0
C751 C 0.0051 0.75523 0.41723 0.0
H752 H 0.00936 0.75429 0.31129 0.0
H753 H 0.98573 0.78863 0.68303 0.0
H754 H 0.21893 0.19146 0.35355 0.0
H755 H 0.21247 0.19928 0.40973 0.0
H756 H 0.24587 0.2294 0.4147 0.0
H757 H 0.2525 0.22149 0.35901 0.0
H758 H 0.23734 0.2228 0.49261 0.0
H759 H 0.22407 0.22969 0.36134 0.0
H760 H 0.21441 0.22469 0.29176 0.0
H761 H 0.18259 0.20168 0.35205 0.0
H762 H 0.19209 0.20642 0.42197 0.0
H763 H 0.21882 0.25528 0.60873 0.0
H764 H 0.22586 0.24943 0.5478 0.0
H765 H 0.19486 0.21674 0.5466 0.0
H766 H 0.18776 0.22248 0.60764 0.0
H767 H 0.20285 0.22596 0.46491 0.0
H768 H 0.21669 0.21847 0.59564 0.0
H769 H 0.22647 0.22372 0.66495 0.0
H770 H 0.25754 0.24846 0.60444 0.0
H771 H 0.24788 0.24346 0.53479 0.0
C772 C 0.22494 0.1997 0.36689 0.0
C773 C 0.2362 0.20591 0.35167 0.0
C774 C 0.22122 0.20419 0.39881 0.0
C775 C 0.22862 0.21504 0.41564 0.0
C776 C 0.24001 0.22105 0.40187 0.0
C777 C 0.24378 0.21652 0.37011 0.0
C778 C 0.22436 0.22017 0.44695 0.0
C779 C 0.22991 0.22367 0.48628 0.0
C780 C 0.21458 0.22115 0.43884 0.0
C781 C 0.20882 0.21834 0.39686 0.0
C782 C 0.21503 0.2235 0.35973 0.0
C783 C 0.20958 0.22073 0.32024 0.0
C784 C 0.1979 0.21286 0.31748 0.0
C785 C 0.19164 0.20777 0.35424 0.0
C786 C 0.19705 0.2105 0.39381 0.0
C787 C 0.2134 0.24693 0.59498 0.0
C788 C 0.20278 0.23929 0.61314 0.0
C789 C 0.21746 0.2436 0.56032 0.0
C790 C 0.21093 0.23261 0.54324 0.0
C791 C 0.20002 0.22524 0.55953 0.0
C792 C 0.19599 0.22853 0.59441 0.0
C793 C 0.21578 0.22848 0.51047 0.0
C794 C 0.21034 0.22518 0.47095 0.0
C795 C 0.22569 0.22773 0.51829 0.0
C796 C 0.23153 0.23069 0.56009 0.0
C797 C 0.22558 0.2251 0.59716 0.0
C798 C 0.23111 0.22801 0.6365 0.0
C799 C 0.24261 0.23644 0.63912 0.0
C800 C 0.24862 0.24195 0.60238 0.0
C801 C 0.24313 0.23907 0.56296 0.0
H802 H 0.24688 0.23869 0.6696 0.0
H803 H 0.1937 0.21072 0.28687 0.0
H804 H 0.88495 0.35578 0.68825 0.0
H805 H 0.88006 0.3423 0.74657 0.0
H806 H 0.91499 0.34969 0.75282 0.0
H807 H 0.91997 0.3632 0.69388 0.0
H808 H 0.89951 0.32661 0.75448 0.0
H809 H 0.90541 0.35998 0.82804 0.0
H810 H 0.90319 0.37668 0.842 0.0
H811 H 0.86711 0.35471 0.85938 0.0
H812 H 0.86908 0.33788 0.84493 0.0
H813 H 0.88903 0.29657 0.95318 0.0
H814 H 0.89657 0.31002 0.89388 0.0
H815 H 0.86377 0.30779 0.87876 0.0
H816 H 0.85629 0.29459 0.93843 0.0
H817 H 0.8803 0.32931 0.88431 0.0
H818 H 0.87416 0.29606 0.80625 0.0
H819 H 0.87626 0.27932 0.79146 0.0
H820 H 0.91263 0.30094 0.78242 0.0
H821 H 0.91076 0.31781 0.79772 0.0
C822 C 0.89162 0.35462 0.70217 0.0
C823 C 0.90285 0.36057 0.68658 0.0
C824 C 0.88882 0.34693 0.73557 0.0
C825 C 0.89719 0.34509 0.75418 0.0
C826 C 0.90842 0.35103 0.73885 0.0
C827 C 0.91126 0.35877 0.70539 0.0
C828 C 0.89402 0.33674 0.78907 0.0
C829 C 0.89549 0.32727 0.78327 0.0
C830 C 0.88861 0.33756 0.82617 0.0
C831 C 0.88739 0.34767 0.83509 0.0
C832 C 0.89699 0.35871 0.83453 0.0
C833 C 0.89577 0.3682 0.84258 0.0
C834 C 0.88501 0.36676 0.85149 0.0
C835 C 0.87544 0.35582 0.85245 0.0
C836 C 0.87661 0.3463 0.84439 0.0
C837 C 0.88338 0.29879 0.93666 0.0
C838 C 0.8721 0.2946 0.95057 0.0
C839 C 0.88769 0.30646 0.90277 0.0
C840 C 0.88073 0.30992 0.88199 0.0
C841 C 0.86931 0.30529 0.89457 0.0
C842 C 0.86503 0.29772 0.92857 0.0
C843 C 0.88548 0.31898 0.8493 0.0
C844 C 0.88438 0.32864 0.85568 0.0
C845 C 0.8912 0.31831 0.8128 0.0
C846 C 0.89233 0.30818 0.80361 0.0
C847 C 0.88261 0.29723 0.80148 0.0
C848 C 0.88376 0.28772 0.79293 0.0
C849 C 0.89458 0.28906 0.78614 0.0
C850 C 0.90426 0.29992 0.78776 0.0
C851 C 0.90317 0.30946 0.79634 0.0
H852 H 0.89545 0.28169 0.77951 0.0
H853 H 0.88409 0.37412 0.85771 0.0
H854 H 0.62129 0.54532 0.70996 0.0
H855 H 0.63592 0.55323 0.76549 0.0
H856 H 0.65853 0.54725 0.68672 0.0
H857 H 0.6437 0.53874 0.63256 0.0
H858 H 0.65969 0.54084 0.7591 0.0
H859 H 0.6623 0.57497 0.70729 0.0
H860 H 0.65558 0.5881 0.68518 0.0
H861 H 0.64361 0.58782 0.81151 0.0
H862 H 0.65012 0.57457 0.83426 0.0
H863 H 0.70227 0.58712 0.92085 0.0
H864 H 0.69109 0.58237 0.85508 0.0
H865 H 0.66933 0.54807 0.90083 0.0
H866 H 0.68074 0.55259 0.9652 0.0
H867 H 0.67032 0.57649 0.83804 0.0
H868 H 0.6592 0.529 0.82466 0.0
H869 H 0.66822 0.51742 0.84003 0.0
H870 H 0.70144 0.54727 0.83061 0.0
H871 H 0.69264 0.55899 0.8146 0.0
C872 C 0.62941 0.54576 0.70459 0.0
C873 C 0.63137 0.54137 0.66721 0.0
C874 C 0.63781 0.55036 0.73614 0.0
C875 C 0.64842 0.55099 0.73017 0.0
C876 C 0.65042 0.54683 0.69227 0.0
C877 C 0.64194 0.54197 0.6613 0.0
C878 C 0.6572 0.55534 0.76426 0.0
C879 C 0.66205 0.54868 0.7761 0.0
C880 C 0.66056 0.56572 0.78588 0.0
C881 C 0.65663 0.5737 0.77239 0.0
C882 C 0.65817 0.57764 0.73029 0.0
C883 C 0.65441 0.58512 0.71765 0.0
C884 C 0.64915 0.58877 0.7469 0.0
C885 C 0.64767 0.58498 0.78888 0.0
C886 C 0.65141 0.57749 0.80168 0.0
C887 C 0.69516 0.57854 0.91654 0.0
C888 C 0.69245 0.57018 0.94783 0.0
C889 C 0.68876 0.57585 0.87909 0.0
C890 C 0.67949 0.5648 0.87264 0.0
C891 C 0.67664 0.55655 0.90443 0.0
C892 C 0.68315 0.55916 0.94134 0.0
C893 C 0.67257 0.56185 0.83323 0.0
C894 C 0.66805 0.56874 0.82055 0.0
C895 C 0.66987 0.55192 0.80964 0.0
C896 C 0.67524 0.54489 0.81874 0.0
C897 C 0.66843 0.53308 0.82564 0.0
C898 C 0.67351 0.52649 0.83452 0.0
C899 C 0.68539 0.53161 0.8364 0.0
C900 C 0.69223 0.54332 0.82928 0.0
C901 C 0.6872 0.54994 0.82035 0.0
H902 H 0.6893 0.5265 0.84332 0.0
H903 H 0.64625 0.59456 0.73705 0.0
H904 H 0.4626 0.10127 0.68786 0.0
H905 H 0.45413 0.10595 0.74725 0.0
H906 H 0.42432 0.07238 0.74087 0.0
H907 H 0.43278 0.06759 0.68114 0.0
H908 H 0.41914 0.08989 0.74361 0.0
H909 H 0.44169 0.07808 0.82142 0.0
H910 H 0.45899 0.07731 0.84031 0.0
H911 H 0.47658 0.11309 0.86944 0.0
H912 H 0.45943 0.11412 0.85012 0.0
H913 H 0.39815 0.10065 0.93871 0.0
H914 H 0.40377 0.09254 0.88044 0.0
H915 H 0.4368 0.12315 0.87569 0.0
H916 H 0.43133 0.13121 0.93413 0.0
H917 H 0.43877 0.10449 0.88164 0.0
H918 H 0.41694 0.11668 0.79765 0.0
H919 H 0.39981 0.11767 0.77782 0.0
H920 H 0.381 0.08136 0.76003 0.0
H921 H 0.39799 0.08013 0.78031 0.0
C922 C 0.4543 0.09483 0.69935 0.0
C923 C 0.44834 0.08407 0.67989 0.0
C924 C 0.44949 0.09751 0.73334 0.0
C925 C 0.43864 0.08948 0.74848 0.0
C926 C 0.43272 0.07866 0.72957 0.0
C927 C 0.43758 0.07594 0.69568 0.0
C928 C 0.43338 0.09269 0.78285 0.0
C929 C 0.42329 0.09287 0.77417 0.0
C930 C 0.43894 0.09676 0.82228 0.0
C931 C 0.44928 0.09619 0.83401 0.0
C932 C 0.44927 0.0858 0.83152 0.0
C933 C 0.45905 0.08532 0.84238 0.0
C934 C 0.46888 0.09515 0.856 0.0
C935 C 0.46895 0.10548 0.85887 0.0
C936 C 0.4592 0.10602 0.84802 0.0
C937 C 0.40652 0.10573 0.92464 0.0
C938 C 0.41434 0.11653 0.94111 0.0
C939 C 0.40972 0.10109 0.8914 0.0
C940 C 0.42072 0.10723 0.87394 0.0
C941 C 0.4283 0.11824 0.88899 0.0
C942 C 0.42515 0.12285 0.92225 0.0
C943 C 0.4247 0.102 0.842 0.0
C944 C 0.43454 0.1014 0.85128 0.0
C945 C 0.41891 0.09757 0.80315 0.0
C946 C 0.4087 0.0983 0.79098 0.0
C947 C 0.40912 0.10889 0.78989 0.0
C948 C 0.39945 0.1095 0.77849 0.0
C949 C 0.38931 0.09958 0.76781 0.0
C950 C 0.38885 0.08903 0.76839 0.0
C951 C 0.3985 0.08838 0.77981 0.0
H952 H 0.38183 0.10007 0.75898 0.0
H953 H 0.47644 0.09475 0.86439 0.0
H954 H 0.46341 0.35557 0.70443 0.0
H955 H 0.45431 0.34075 0.75819 0.0
H956 H 0.42448 0.34454 0.75502 0.0
H957 H 0.43361 0.35955 0.70136 0.0
H958 H 0.43025 0.34227 0.83552 0.0
H959 H 0.42375 0.32245 0.70469 0.0
H960 H 0.42878 0.31777 0.63532 0.0
H961 H 0.45114 0.30821 0.69657 0.0
H962 H 0.44638 0.31299 0.76629 0.0
H963 H 0.40064 0.29215 0.96109 0.0
H964 H 0.40482 0.30441 0.89874 0.0
H965 H 0.43776 0.30685 0.88709 0.0
H966 H 0.43365 0.2946 0.94911 0.0
H967 H 0.42733 0.30473 0.80943 0.0
H968 H 0.43553 0.32713 0.93862 0.0
H969 H 0.43053 0.33194 0.0078 0.0
H970 H 0.4045 0.33649 0.94823 0.0
H971 H 0.40926 0.33156 0.87874 0.0
C972 C 0.45495 0.35333 0.7154 0.0
C973 C 0.44919 0.35867 0.6985 0.0
C974 C 0.44974 0.34481 0.74591 0.0
C975 C 0.43863 0.34139 0.75984 0.0
C976 C 0.43302 0.34701 0.74437 0.0
C977 C 0.43826 0.35558 0.71381 0.0
C978 C 0.43295 0.33189 0.79045 0.0
C979 C 0.42939 0.33398 0.8295 0.0
C980 C 0.43192 0.32112 0.78261 0.0
C981 C 0.43476 0.31816 0.74073 0.0
C982 C 0.4298 0.31942 0.70336 0.0
C983 C 0.43259 0.31675 0.66397 0.0
C984 C 0.44029 0.31272 0.66153 0.0
C985 C 0.44518 0.31134 0.6985 0.0
C986 C 0.44243 0.31402 0.73798 0.0
C987 C 0.40869 0.29514 0.9448 0.0
C988 C 0.41687 0.29251 0.96018 0.0
C989 C 0.41107 0.30216 0.90932 0.0
C990 C 0.42165 0.30663 0.88876 0.0
C991 C 0.42955 0.30349 0.90262 0.0
C992 C 0.42721 0.29653 0.93814 0.0
C993 C 0.42491 0.31522 0.85475 0.0
C994 C 0.42801 0.31296 0.81508 0.0
C995 C 0.42547 0.32581 0.86193 0.0
C996 C 0.42266 0.32884 0.90362 0.0
C997 C 0.42868 0.32907 0.94035 0.0
C998 C 0.4259 0.33183 0.97959 0.0
C999 C 0.41718 0.33448 0.98243 0.0
C1000 C 0.41124 0.33441 0.946 0.0
C1001 C 0.41398 0.33164 0.90668 0.0
H1002 H 0.41504 0.33663 0.01284 0.0
H1003 H 0.44244 0.31065 0.631 0.0
H1004 H 0.69107 0.1351 0.96192 0.0
H1005 H 0.67725 0.12749 0.90397 0.0
H1006 H 0.67909 0.09657 0.90458 0.0
H1007 H 0.6931 0.10422 0.96226 0.0
H1008 H 0.67797 0.10327 0.82447 0.0
H1009 H 0.65741 0.09713 0.95418 0.0
H1010 H 0.65272 0.10247 0.02289 0.0
H1011 H 0.64502 0.12597 0.95999 0.0
H1012 H 0.64982 0.12089 0.89093 0.0
H1013 H 0.62652 0.07161 0.70653 0.0
H1014 H 0.64007 0.07747 0.76563 0.0
H1015 H 0.64207 0.11028 0.76859 0.0
H1016 H 0.62855 0.10451 0.70962 0.0
H1017 H 0.64071 0.10122 0.84871 0.0
H1018 H 0.66226 0.10785 0.71937 0.0
H1019 H 0.66688 0.10231 0.65094 0.0
H1020 H 0.67245 0.07738 0.71401 0.0
H1021 H 0.6677 0.08267 0.78279 0.0
C1022 C 0.68865 0.12674 0.9494 0.0
C1023 C 0.69308 0.1202 0.96688 0.0
C1024 C 0.68071 0.12238 0.91644 0.0
C1025 C 0.67697 0.11137 0.90069 0.0
C1026 C 0.68182 0.10506 0.91655 0.0
C1027 C 0.68982 0.10944 0.94945 0.0
C1028 C 0.6677 0.10634 0.86882 0.0
C1029 C 0.66976 0.10265 0.82999 0.0
C1030 C 0.65704 0.10567 0.87595 0.0
C1031 C 0.65407 0.1087 0.91742 0.0
C1032 C 0.6548 0.1035 0.95503 0.0
C1033 C 0.65211 0.10647 0.99403 0.0
C1034 C 0.6486 0.11458 -0.00419 0.0
C1035 C 0.64775 0.11971 0.95857 0.0
C1036 C 0.65044 0.11678 0.91948 0.0
C1037 C 0.62974 0.08002 0.72013 0.0
C1038 C 0.62653 0.08763 0.70333 0.0
C1039 C 0.63751 0.08336 0.75371 0.0
C1040 C 0.64215 0.09435 0.77101 0.0
C1041 C 0.63859 0.10178 0.75552 0.0
C1042 C 0.63089 0.09848 0.72181 0.0
C1043 C 0.65104 0.0983 0.80424 0.0
C1044 C 0.6489 0.10177 0.84336 0.0
C1045 C 0.66159 0.09871 0.79743 0.0
C1046 C 0.66449 0.09556 0.75614 0.0
C1047 C 0.66437 0.10112 0.7186 0.0
C1048 C 0.66703 0.09804 0.67976 0.0
C1049 C 0.66992 0.08947 0.67811 0.0
C1050 C 0.67019 0.084 0.71532 0.0
C1051 C 0.66752 0.08703 0.75424 0.0
H1052 H 0.67199 0.0871 0.64801 0.0
H1053 H 0.64652 0.11687 0.02604 0.0
H1054 H 0.88813 0.52396 0.71324 0.0
H1055 H 0.88287 0.53287 0.76928 0.0
H1056 H 0.91572 0.56349 0.75871 0.0
H1057 H 0.92114 0.55455 0.70267 0.0
H1058 H 0.90847 0.55823 0.8419 0.0
H1059 H 0.89365 0.5627 0.71022 0.0
H1060 H 0.88336 0.55641 0.64209 0.0
H1061 H 0.8523 0.534 0.70799 0.0
H1062 H 0.86244 0.54002 0.77653 0.0
H1063 H 0.88801 0.58924 0.96015 0.0
H1064 H 0.896 0.58396 0.90044 0.0
H1065 H 0.86537 0.551 0.89418 0.0
H1066 H 0.85731 0.55621 0.95349 0.0
H1067 H 0.87315 0.55997 0.81556 0.0
H1068 H 0.8885 0.55417 0.94621 0.0
H1069 H 0.89881 0.56022 0.01439 0.0
H1070 H 0.92897 0.58527 0.94994 0.0
H1071 H 0.91878 0.57946 0.8814 0.0
C1072 C 0.89431 0.53253 0.7232 0.0
C1073 C 0.905 0.53861 0.70326 0.0
C1074 C 0.89128 0.53762 0.7551 0.0
C1075 C 0.89882 0.54892 0.76737 0.0
C1076 C 0.90976 0.55479 0.74938 0.0
C1077 C 0.91284 0.54967 0.71745 0.0
C1078 C 0.89497 0.55467 0.79751 0.0
C1079 C 0.90088 0.55881 0.83587 0.0
C1080 C 0.885 0.55532 0.78965 0.0
C1081 C 0.87883 0.55176 0.74851 0.0
C1082 C 0.88464 0.55637 0.71018 0.0
C1083 C 0.87883 0.55286 0.67149 0.0
C1084 C 0.86719 0.5448 0.67071 0.0
C1085 C 0.86132 0.54024 0.70864 0.0
C1086 C 0.86709 0.54371 0.74743 0.0
C1087 C 0.88291 0.58093 0.9456 0.0
C1088 C 0.87207 0.5731 0.96166 0.0
C1089 C 0.88751 0.57792 0.91168 0.0
C1090 C 0.88134 0.56704 0.89338 0.0
C1091 C 0.87029 0.55943 0.90799 0.0
C1092 C 0.8657 0.56241 0.94192 0.0
C1093 C 0.8865 0.56328 0.86036 0.0
C1094 C 0.88084 0.55953 0.82136 0.0
C1095 C 0.8967 0.56302 0.86763 0.0
C1096 C 0.90284 0.56648 0.90877 0.0
C1097 C 0.8973 0.56103 0.94663 0.0
C1098 C 0.90312 0.56441 0.98532 0.0
C1099 C 0.91452 0.57315 0.98651 0.0
C1100 C 0.92013 0.57851 0.94898 0.0
C1101 C 0.91434 0.57518 0.9102 0.0
H1102 H 0.91902 0.57575 0.0165 0.0
H1103 H 0.86271 0.54209 0.64072 0.0
H1104 H 0.52512 0.63687 0.30029 0.0
H1105 H 0.53328 0.65078 0.24319 0.0
H1106 H 0.56425 0.64902 0.24882 0.0
H1107 H 0.55613 0.63505 0.30661 0.0
H1108 H 0.56838 0.67117 0.24703 0.0
H1109 H 0.54677 0.63701 0.16734 0.0
H1110 H 0.52989 0.61867 0.14781 0.0
H1111 H 0.51097 0.63573 0.12205 0.0
H1112 H 0.52768 0.65416 0.14202 0.0
H1113 H 0.5884 0.70198 0.05009 0.0
H1114 H 0.58307 0.68894 0.11038 0.0
H1115 H 0.55012 0.68671 0.11539 0.0
H1116 H 0.55531 0.69961 0.05485 0.0
H1117 H 0.54831 0.66598 0.10988 0.0
H1118 H 0.56983 0.70006 0.19324 0.0
H1119 H 0.5868 0.71832 0.2128 0.0
H1120 H 0.60611 0.70133 0.23082 0.0
H1121 H 0.58929 0.68297 0.2108 0.0
C1122 C 0.53363 0.63935 0.28921 0.0
C1123 C 0.53999 0.63485 0.30786 0.0
C1124 C 0.53827 0.64728 0.25649 0.0
C1125 C 0.54932 0.65085 0.24163 0.0
C1126 C 0.55569 0.64633 0.25989 0.0
C1127 C 0.55102 0.63833 0.29265 0.0
C1128 C 0.55423 0.65956 0.20783 0.0
C1129 C 0.56413 0.66998 0.21669 0.0
C1130 C 0.54854 0.65804 0.16865 0.0
C1131 C 0.53846 0.64697 0.1565 0.0
C1132 C 0.53898 0.63685 0.15783 0.0
C1133 C 0.52945 0.62643 0.14662 0.0
C1134 C 0.51936 0.62603 0.13378 0.0
C1135 C 0.51879 0.63605 0.13203 0.0
C1136 C 0.5283 0.64649 0.14324 0.0
C1137 C 0.58011 0.69892 0.06464 0.0
C1138 C 0.57223 0.70173 0.04753 0.0
C1139 C 0.57709 0.69148 0.09912 0.0
C1140 C 0.56618 0.68683 0.11717 0.0
C1141 C 0.55856 0.69016 0.10169 0.0
C1142 C 0.56156 0.69757 0.06722 0.0
C1143 C 0.5623 0.67771 0.14944 0.0
C1144 C 0.55261 0.66716 0.14012 0.0
C1145 C 0.56821 0.67913 0.18803 0.0
C1146 C 0.57833 0.69016 0.20006 0.0
C1147 C 0.57772 0.70023 0.20099 0.0
C1148 C 0.58731 0.7106 0.21225 0.0
C1149 C 0.59753 0.71099 0.22292 0.0
C1150 C 0.59819 0.70101 0.22248 0.0
C1151 C 0.58863 0.69062 0.21121 0.0
H1152 H 0.60494 0.71902 0.23164 0.0
H1153 H 0.51199 0.61796 0.12512 0.0
H1154 H 0.3682 0.91292 0.28004 0.0
H1155 H 0.35426 0.9064 0.22205 0.0
H1156 H 0.33123 0.87689 0.29601 0.0
H1157 H 0.34534 0.88304 0.3527 0.0
H1158 H 0.33027 0.87036 0.22135 0.0
H1159 H 0.32802 0.9013 0.28314 0.0
H1160 H 0.33514 0.92088 0.30936 0.0
H1161 H 0.3469 0.93413 0.18434 0.0
H1162 H 0.33999 0.91463 0.15747 0.0
H1163 H 0.28656 0.87712 0.0747 0.0
H1164 H 0.29824 0.8821 0.13927 0.0
H1165 H 0.31894 0.86969 0.08193 0.0
H1166 H 0.30704 0.86422 0.01874 0.0
H1167 H 0.31924 0.89654 0.15368 0.0
H1168 H 0.33008 0.8599 0.15161 0.0
H1169 H 0.32081 0.83953 0.13228 0.0
H1170 H 0.2878 0.83612 0.15115 0.0
H1171 H 0.29687 0.85642 0.17115 0.0
C1172 C 0.36019 0.90501 0.28365 0.0
C1173 C 0.35785 0.89848 0.32075 0.0
C1174 C 0.35219 0.90133 0.25071 0.0
C1175 C 0.34159 0.89125 0.25494 0.0
C1176 C 0.33933 0.88468 0.29189 0.0
C1177 C 0.34741 0.88821 0.32431 0.0
C1178 C 0.33285 0.88741 0.22085 0.0
C1179 C 0.32784 0.87609 0.20667 0.0
C1180 C 0.32942 0.89477 0.2024 0.0
C1181 C 0.33357 0.90651 0.21839 0.0
C1182 C 0.3322 0.9084 0.2613 0.0
C1183 C 0.33618 0.91948 0.27627 0.0
C1184 C 0.34149 0.92874 0.24856 0.0
C1185 C 0.3428 0.92694 0.20578 0.0
C1186 C 0.33884 0.91588 0.19066 0.0
C1187 C 0.29351 0.87532 0.07628 0.0
C1188 C 0.29583 0.87018 0.04194 0.0
C1189 C 0.3002 0.87821 0.11302 0.0
C1190 C 0.30937 0.87612 0.11574 0.0
C1191 C 0.31173 0.87109 0.08118 0.0
C1192 C 0.30493 0.86801 0.04494 0.0
C1193 C 0.3168 0.87954 0.15389 0.0
C1194 C 0.32159 0.89079 0.16867 0.0
C1195 C 0.3197 0.87198 0.17407 0.0
C1196 C 0.31417 0.85971 0.16255 0.0
C1197 C 0.32085 0.85479 0.15184 0.0
C1198 C 0.31563 0.84326 0.14072 0.0
C1199 C 0.30372 0.83655 0.14038 0.0
C1200 C 0.29702 0.84134 0.15129 0.0
C1201 C 0.30219 0.85286 0.16247 0.0
H1202 H 0.2997 0.82762 0.13173 0.0
H1203 H 0.34458 0.93732 0.26021 0.0
H1204 H 0.07039 0.43755 0.31656 0.0
H1205 H 0.0762 0.42885 0.26093 0.0
H1206 H 0.11048 0.45763 0.26542 0.0
H1207 H 0.10477 0.46638 0.32074 0.0
H1208 H 0.1024 0.45152 0.18416 0.0
H1209 H 0.10462 0.43326 0.31262 0.0
H1210 H 0.09706 0.42222 0.3786 0.0
H1211 H 0.07142 0.39391 0.30737 0.0
H1212 H 0.07874 0.40485 0.24098 0.0
H1213 H 0.13255 0.43194 0.06701 0.0
H1214 H 0.12634 0.43801 0.12952 0.0
H1215 H 0.09315 0.40771 0.12152 0.0
H1216 H 0.09937 0.40144 0.05936 0.0
H1217 H 0.09972 0.41386 0.20389 0.0
H1218 H 0.0971 0.43158 0.07615 0.0
H1219 H 0.1041 0.44233 0.0093 0.0
H1220 H 0.12956 0.47137 0.078 0.0
H1221 H 0.12282 0.46072 0.14524 0.0
C1222 C 0.07915 0.44204 0.30551 0.0
C1223 C 0.08714 0.45263 0.32301 0.0
C1224 C 0.08246 0.43704 0.27396 0.0
C1225 C 0.09379 0.44256 0.25948 0.0
C1226 C 0.1017 0.45323 0.2763 0.0
C1227 C 0.09843 0.4582 0.30792 0.0
C1228 C 0.09746 0.43733 0.22652 0.0
C1229 C 0.10194 0.44335 0.18866 0.0
C1230 C 0.09652 0.42652 0.23203 0.0
C1231 C 0.09215 0.41992 0.27189 0.0
C1232 C 0.09731 0.42472 0.31106 0.0
C1233 C 0.09308 0.41847 0.34853 0.0
C1234 C 0.08375 0.40738 0.34719 0.0
C1235 C 0.07864 0.40251 0.30836 0.0
C1236 C 0.08283 0.40872 0.27081 0.0
C1237 C 0.12401 0.42644 0.0791 0.0
C1238 C 0.11639 0.4163 0.05796 0.0
C1239 C 0.12047 0.42994 0.11471 0.0
C1240 C 0.10921 0.42343 0.1294 0.0
C1241 C 0.10185 0.41288 0.11043 0.0
C1242 C 0.10542 0.40932 0.07493 0.0
C1243 C 0.10484 0.42816 0.16189 0.0
C1244 C 0.10018 0.42203 0.19945 0.0
C1245 C 0.1055 0.43885 0.15602 0.0
C1246 C 0.10952 0.44531 0.11568 0.0
C1247 C 0.10424 0.44023 0.07697 0.0
C1248 C 0.10816 0.44631 0.03901 0.0
C1249 C 0.11729 0.45751 0.03939 0.0
C1250 C 0.1225 0.46268 0.07775 0.0
C1251 C 0.11863 0.45663 0.1158 0.0
H1252 H 0.1203 0.46221 0.00997 0.0
H1253 H 0.08048 0.40256 0.37624 0.0
H1254 H 0.07285 0.62049 0.25795 0.0
H1255 H 0.0802 0.6338 0.1979 0.0
H1256 H 0.1096 0.65684 0.27257 0.0
H1257 H 0.10262 0.64338 0.33136 0.0
H1258 H 0.08463 0.65425 0.18341 0.0
H1259 H 0.13295 0.67094 0.21469 0.0
H1260 H 0.14518 0.66382 0.24371 0.0
H1261 H 0.11953 0.62946 0.21342 0.0
H1262 H 0.10722 0.63637 0.18372 0.0
H1263 H 0.11569 0.70342 0.05848 0.0
H1264 H 0.10882 0.69029 0.11882 0.0
H1265 H 0.12146 0.66998 0.05977 0.0
H1266 H 0.12887 0.6834 0.00084 0.0
H1267 H 0.12487 0.67007 0.13777 0.0
H1268 H 0.09233 0.663 0.05545 0.0
H1269 H 0.07914 0.66772 0.01836 0.0
H1270 H 0.07156 0.67848 0.13603 0.0
H1271 H 0.08482 0.67396 0.17375 0.0
C1272 C 0.08089 0.62839 0.26132 0.0
C1273 C 0.08726 0.63085 0.29893 0.0
C1274 C 0.08506 0.636 0.22714 0.0
C1275 C 0.09558 0.64621 0.23039 0.0
C1276 C 0.10165 0.64886 0.26876 0.0
C1277 C 0.09763 0.64118 0.30243 0.0
C1278 C 0.10032 0.65411 0.1938 0.0
C1279 C 0.09342 0.65768 0.17335 0.0
C1280 C 0.11171 0.65841 0.17994 0.0
C1281 C 0.11912 0.65418 0.19735 0.0
C1282 C 0.12994 0.66187 0.21406 0.0
C1283 C 0.13689 0.65787 0.23066 0.0
C1284 C 0.13312 0.64619 0.23053 0.0
C1285 C 0.12242 0.63849 0.21365 0.0
C1286 C 0.11545 0.64245 0.19698 0.0
C1287 C 0.11714 0.69624 0.05881 0.0
C1288 C 0.12278 0.6944 0.025 0.0
C1289 C 0.11312 0.68868 0.09306 0.0
C1290 C 0.11436 0.67897 0.09338 0.0
C1291 C 0.12037 0.67738 0.06029 0.0
C1292 C 0.12461 0.68507 0.02659 0.0
C1293 C 0.10923 0.67032 0.12759 0.0
C1294 C 0.11607 0.66663 0.14771 0.0
C1295 C 0.09765 0.66555 0.13986 0.0
C1296 C 0.08965 0.66825 0.11734 0.0
C1297 C 0.0879 0.66645 0.07336 0.0
C1298 C 0.08041 0.66908 0.05224 0.0
C1299 C 0.07454 0.67342 0.07481 0.0
C1300 C 0.07613 0.67513 0.11858 0.0
C1301 C 0.08362 0.67252 0.13985 0.0
H1302 H 0.06874 0.67545 0.0584 0.0
H1303 H 0.13851 0.64311 0.24342 0.0
H1304 H 0.35834 0.43906 0.29927 0.0
H1305 H 0.34389 0.43135 0.24332 0.0
H1306 H 0.343 0.46276 0.24083 0.0
H1307 H 0.35735 0.47049 0.29717 0.0
H1308 H 0.32178 0.44441 0.24448 0.0
H1309 H 0.35568 0.45631 0.16165 0.0
H1310 H 0.37383 0.45738 0.14191 0.0
H1311 H 0.35638 0.42109 0.12358 0.0
H1312 H 0.33813 0.41978 0.14378 0.0
H1313 H 0.29313 0.43771 0.04805 0.0
H1314 H 0.30572 0.44347 0.10981 0.0
H1315 H 0.30508 0.41129 0.10709 0.0
H1316 H 0.29257 0.4055 0.04495 0.0
H1317 H 0.32658 0.42911 0.1079 0.0
H1318 H 0.2924 0.41742 0.1874 0.0
H1319 H 0.2743 0.41657 0.20622 0.0
H1320 H 0.29226 0.45264 0.23003 0.0
H1321 H 0.31047 0.45374 0.21077 0.0
C1322 C 0.35518 0.44438 0.28646 0.0
C1323 C 0.35898 0.45538 0.30261 0.0
C1324 C 0.34693 0.43996 0.25447 0.0
C1325 C 0.3424 0.4465 0.23791 0.0
C1326 C 0.34636 0.45757 0.25333 0.0
C1327 C 0.35461 0.462 0.28533 0.0
C1328 C 0.33326 0.44165 0.20548 0.0
C1329 C 0.32286 0.44118 0.21437 0.0
C1330 C 0.33459 0.43716 0.1668 0.0
C1331 C 0.34556 0.43793 0.15467 0.0
C1332 C 0.35573 0.44854 0.15377 0.0
C1333 C 0.36603 0.4492 0.14242 0.0
C1334 C 0.36627 0.43931 0.13162 0.0
C1335 C 0.35619 0.42874 0.13203 0.0
C1336 C 0.34586 0.42804 0.14339 0.0
C1337 C 0.29548 0.43176 0.06111 0.0
C1338 C 0.29193 0.42119 0.04149 0.0
C1339 C 0.30265 0.43506 0.09649 0.0
C1340 C 0.30632 0.4278 0.11299 0.0
C1341 C 0.30235 0.41702 0.09472 0.0
C1342 C 0.29517 0.41371 0.05935 0.0
C1343 C 0.3151 0.4319 0.14678 0.0
C1344 C 0.32545 0.43225 0.13812 0.0
C1345 C 0.31373 0.4363 0.18559 0.0
C1346 C 0.30279 0.43567 0.19728 0.0
C1347 C 0.29248 0.42519 0.19631 0.0
C1348 C 0.2822 0.42466 0.20713 0.0
C1349 C 0.28213 0.43454 0.21922 0.0
C1350 C 0.29233 0.44498 0.22062 0.0
C1351 C 0.30264 0.44556 0.2098 0.0
H1352 H 0.27416 0.43411 0.22758 0.0
H1353 H 0.37425 0.43984 0.12283 0.0
H1354 H 0.51905 0.89551 0.25427 0.0
H1355 H 0.52634 0.88989 0.1937 0.0
H1356 H 0.55872 0.92104 0.20475 0.0
H1357 H 0.55143 0.92684 0.26516 0.0
H1358 H 0.55285 0.91367 0.12057 0.0
H1359 H 0.556 0.89889 0.25479 0.0
H1360 H 0.54901 0.88925 0.32365 0.0
H1361 H 0.52492 0.85847 0.25975 0.0
H1362 H 0.53164 0.868 0.19047 0.0
H1363 H 0.58277 0.89013 0.01351 0.0
H1364 H 0.57751 0.89892 0.07046 0.0
H1365 H 0.54355 0.8696 0.07294 0.0
H1366 H 0.54872 0.86074 0.01633 0.0
H1367 H 0.55211 0.87737 0.1527 0.0
H1368 H 0.54855 0.89278 0.01838 0.0
H1369 H 0.55572 0.90264 0.94996 0.0
H1370 H 0.5812 0.93246 0.01499 0.0
H1371 H 0.57427 0.92271 0.08381 0.0
C1372 C 0.52761 0.90132 0.24304 0.0
C1373 C 0.53475 0.91151 0.26483 0.0
C1374 C 0.53177 0.89809 0.20855 0.0
C1375 C 0.54315 0.90492 0.19567 0.0
C1376 C 0.54994 0.91563 0.21456 0.0
C1377 C 0.54575 0.91892 0.249 0.0
C1378 C 0.54827 0.90024 0.16628 0.0
C1379 C 0.55285 0.90582 0.12775 0.0
C1380 C 0.54822 0.89 0.17585 0.0
C1381 C 0.54426 0.88419 0.21745 0.0
C1382 C 0.54916 0.89009 0.25542 0.0
C1383 C 0.54525 0.88465 0.29453 0.0
C1384 C 0.53651 0.87326 0.29608 0.0
C1385 C 0.53168 0.86729 0.2585 0.0
C1386 C 0.53554 0.87271 0.2193 0.0
C1387 C 0.57424 0.88548 0.0267 0.0
C1388 C 0.56612 0.87479 0.01031 0.0
C1389 C 0.57124 0.89054 0.05899 0.0
C1390 C 0.5601 0.88497 0.07531 0.0
C1391 C 0.55218 0.87404 0.06056 0.0
C1392 C 0.55514 0.86901 0.0282 0.0
C1393 C 0.55645 0.89064 0.1065 0.0
C1394 C 0.5522 0.88526 0.14559 0.0
C1395 C 0.55687 0.90109 0.09749 0.0
C1396 C 0.56098 0.90697 0.05618 0.0
C1397 C 0.55574 0.90141 0.01806 0.0
C1398 C 0.55975 0.90698 0.97922 0.0
C1399 C 0.56893 0.91816 0.97812 0.0
C1400 C 0.5741 0.9238 0.01588 0.0
C1401 C 0.57013 0.91825 0.05481 0.0
H1402 H 0.57202 0.92246 0.94801 0.0
H1403 H 0.53349 0.86906 0.32639 0.0
H1404 H 0.22669 0.973 0.84944 0.0
H1405 H 0.23362 0.98429 0.91454 0.0
H1406 H 0.20072 0.98162 0.93224 0.0
H1407 H 0.19377 0.97045 0.86713 0.0
H1408 H 0.21829 0.0031 0.94688 0.0
H1409 H 0.20771 0.96442 0.98617 0.0
H1410 H 0.20865 0.94674 0.97988 0.0
H1411 H 0.24452 0.96535 0.00832 0.0
H1412 H 0.24382 0.98318 0.01423 0.0
H1413 H 0.21738 0.01714 0.15681 0.0
H1414 H 0.21296 0.00527 0.0936 0.0
H1415 H 0.24726 0.01074 0.09301 0.0
H1416 H 0.2517 0.02248 0.15709 0.0
H1417 H 0.23118 0.98883 0.06792 0.0
H1418 H 0.24167 0.02724 0.03311 0.0
H1419 H 0.24093 0.04502 0.03918 0.0
H1420 H 0.20572 0.02721 0.00081 0.0
H1421 H 0.20619 0.00928 0.99524 0.0
C1422 C 0.22097 0.9749 0.86704 0.0
C1423 C 0.20967 0.9708 0.85339 0.0
C1424 C 0.22492 0.9813 0.90426 0.0
C1425 C 0.21762 0.98364 0.92835 0.0
C1426 C 0.20646 0.97986 0.91406 0.0
C1427 C 0.20251 0.97347 0.87692 0.0
C1428 C 0.22146 0.98987 0.9689 0.0
C1429 C 0.22102 -6e-05 0.97345 0.0
C1430 C 0.22535 0.98589 0.00301 0.0
C1431 C 0.22573 0.97515 0.00021 0.0
C1432 C 0.21581 0.96475 0.99082 0.0
C1433 C 0.2163 0.95471 0.98736 0.0
C1434 C 0.22664 0.95493 0.99358 0.0
C1435 C 0.23651 0.96519 0.00345 0.0
C1436 C 0.23608 0.97527 0.0069 0.0
C1437 C 0.22393 0.01567 0.14366 0.0
C1438 C 0.23493 0.02087 0.16137 0.0
C1439 C 0.2214 0.0089 0.10756 0.0
C1440 C 0.22988 0.00738 0.08821 0.0
C1441 C 0.24064 0.0119 0.10744 0.0
C1442 C 0.24316 0.01861 0.14392 0.0
C1443 C 0.2277 0.00188 0.04615 0.0
C1444 C 0.22852 0.99203 0.04123 0.0
C1445 C 0.22421 0.00607 0.0115 0.0
C1446 C 0.22395 0.0169 0.01407 0.0
C1447 C 0.23375 0.0271 0.02622 0.0
C1448 C 0.23338 0.03721 0.02956 0.0
C1449 C 0.22328 0.03724 0.02046 0.0
C1450 C 0.21353 0.02717 0.00788 0.0
C1451 C 0.21385 0.01703 0.00459 0.0
H1452 H 0.223 0.04507 0.02308 0.0
H1453 H 0.227 0.94714 0.99085 0.0
H1454 H 0.96609 0.2238 0.13211 0.0
H1455 H 0.97642 0.23188 0.0657 0.0
H1456 H 0.96689 0.1981 0.02165 0.0
H1457 H 0.95659 0.18997 0.08769 0.0
H1458 H -0.00544 0.23039 0.03424 0.0
H1459 H 0.9621 0.19687 0.91545 0.0
H1460 H 0.94122 0.185 0.90701 0.0
H1461 H 0.93645 0.20884 0.98144 0.0
H1462 H 0.9573 0.22095 0.98979 0.0
H1463 H 0.01999 0.22214 0.85653 0.0
H1464 H 0.007 0.21856 0.91563 0.0
H1465 H -0.00556 0.23865 0.85447 0.0
H1466 H 0.00756 0.2424 0.79497 0.0
H1467 H 0.97712 0.21729 0.89181 0.0
H1468 H 0.0116 0.25131 0.9278 0.0
H1469 H 0.03245 0.26353 0.93575 0.0
H1470 H 0.03289 0.24013 0.02668 0.0
H1471 H 0.01206 0.22767 0.01875 0.0
C1472 C 0.96617 0.21811 0.10816 0.0
C1473 C 0.96057 0.20626 0.11504 0.0
C1474 C 0.97206 0.22273 0.07035 0.0
C1475 C 0.97228 0.21556 0.03873 0.0
C1476 C 0.96665 0.20374 0.04547 0.0
C1477 C 0.96085 0.19913 0.08332 0.0
C1478 C 0.97891 0.22038 -0.00051 0.0
C1479 C 0.99074 0.22764 0.00308 0.0
C1480 C 0.97384 0.21693 0.95891 0.0
C1481 C 0.96128 0.20978 0.95346 0.0
C1482 C 0.95661 0.19962 0.9298 0.0
C1483 C 0.94477 0.19284 0.92508 0.0
C1484 C 0.93751 0.19615 0.94376 0.0
C1485 C 0.94208 0.20627 0.9671 0.0
C1486 C 0.9539 0.21308 0.97188 0.0
C1487 C 0.0144 0.22571 0.85536 0.0
C1488 C 0.01484 0.23261 0.82131 0.0
C1489 C 0.00702 0.22369 0.88919 0.0
C1490 C -9e-05 0.22847 0.88943 0.0
C1491 C -6e-05 0.23495 0.85473 0.0
C1492 C 0.00742 0.23709 0.82093 0.0
C1493 C 0.99277 0.22689 0.92688 0.0
C1494 C 0.98088 0.22022 0.92295 0.0
C1495 C -0.00225 0.23098 0.96716 0.0
C1496 C 0.01027 0.23852 0.97247 0.0
C1497 C 0.01615 0.24873 0.94927 0.0
C1498 C 0.02797 0.2557 0.9538 0.0
C1499 C 0.034 0.2526 0.98165 0.0
C1500 C 0.02821 0.24252 0.00511 0.0
C1501 C 0.0164 0.23551 0.00065 0.0
H1502 H 0.04315 0.25801 0.98511 0.0
H1503 H 0.92836 0.19088 0.94009 0.0
H1504 H 0.7661 0.80456 0.88298 0.0
H1505 H 0.77282 0.79863 0.94461 0.0
H1506 H 0.76453 0.76714 0.881 0.0
H1507 H 0.75716 0.77278 0.82043 0.0
H1508 H 0.75776 0.76231 0.9558 0.0
H1509 H 0.79307 0.79029 0.8956 0.0
H1510 H 0.8072 0.80899 0.86617 0.0
H1511 H 0.80822 0.82512 0.98464 0.0
H1512 H 0.79398 0.80653 0.01462 0.0
H1513 H 0.8044 0.76562 0.11121 0.0
H1514 H 0.79931 0.77227 0.04718 0.0
H1515 H 0.76632 0.76253 0.1011 0.0
H1516 H 0.77116 0.75528 0.16414 0.0
H1517 H 0.79453 0.78758 0.02832 0.0
H1518 H 0.74612 0.75382 0.02723 0.0
H1519 H 0.73339 0.73396 0.0502 0.0
H1520 H 0.76117 0.72722 0.04175 0.0
H1521 H 0.77402 0.74699 0.0182 0.0
C1522 C 0.7658 0.79641 0.88215 0.0
C1523 C 0.76114 0.78911 0.84712 0.0
C1524 C 0.7697 0.79305 0.91725 0.0
C1525 C 0.76935 0.7825 0.91727 0.0
C1526 C 0.76486 0.7753 0.88182 0.0
C1527 C 0.76069 0.77853 0.84721 0.0
C1528 C 0.77317 0.77873 0.95493 0.0
C1529 C 0.76583 0.76783 0.97149 0.0
C1530 C 0.78379 0.78583 0.97509 0.0
C1531 C 0.79238 0.79703 0.95723 0.0
C1532 C 0.79625 0.79784 0.91528 0.0
C1533 C 0.80429 0.80841 0.89852 0.0
C1534 C 0.80858 0.81824 0.92349 0.0
C1535 C 0.80487 0.8175 0.96532 0.0
C1536 C 0.79683 0.80695 0.98223 0.0
C1537 C 0.79607 0.76493 0.10935 0.0
C1538 C 0.78811 0.75984 0.14227 0.0
C1539 C 0.79318 0.76875 0.07284 0.0
C1540 C 0.78235 0.76771 0.06896 0.0
C1541 C 0.7746 0.76313 0.10282 0.0
C1542 C 0.77739 0.75905 0.13889 0.0
C1543 C 0.77909 0.77119 0.02916 0.0
C1544 C 0.7865 0.78205 0.01239 0.0
C1545 C 0.76876 0.76387 0.00772 0.0
C1546 C 0.76105 0.75192 0.02136 0.0
C1547 C 0.7495 0.74808 0.03012 0.0
C1548 C 0.74226 0.73684 0.04327 0.0
C1549 C 0.74647 0.72934 0.04756 0.0
C1550 C 0.75792 0.73305 0.03856 0.0
C1551 C 0.76519 0.74427 0.02535 0.0
H1552 H 0.74086 0.72065 0.05779 0.0
H1553 H 0.81481 0.82642 0.91045 0.0
H1554 H 0.76256 0.95462 0.88345 0.0
H1555 H 0.76841 0.96529 0.95003 0.0
H1556 H 0.75965 0.98955 0.89902 0.0
H1557 H 0.75328 0.97858 0.83318 0.0
H1558 H 0.78376 0.98513 0.97255 0.0
H1559 H 0.74992 -0.00015 0.97339 0.0
H1560 H 0.73012 0.99275 0.94931 0.0
H1561 H 0.72362 0.95831 0.954 0.0
H1562 H 0.74332 0.96518 0.97868 0.0
H1563 H 0.8014 0.0314 0.11075 0.0
H1564 H 0.79488 0.018 0.05159 0.0
H1565 H 0.76364 -0.00401 0.11902 0.0
H1566 H 0.76989 0.0098 0.17728 0.0
H1567 H 0.75843 -0.00326 0.04348 0.0
H1568 H 0.78629 0.9898 0.10598 0.0
H1569 H 0.80492 0.99437 0.13633 0.0
H1570 H 0.82122 0.0085 0.01713 0.0
H1571 H 0.8027 0.00416 0.98619 0.0
C1572 C 0.76192 0.96225 0.88646 0.0
C1573 C 0.75739 0.96575 0.85341 0.0
C1574 C 0.76527 0.96834 0.92448 0.0
C1575 C 0.76427 0.9781 0.92983 0.0
C1576 C 0.7602 0.98186 0.89607 0.0
C1577 C 0.75663 0.97565 0.85839 0.0
C1578 C 0.76745 0.98434 0.97071 0.0
C1579 C 0.77821 0.98763 0.98818 0.0
C1580 C 0.76005 0.98728 0.99189 0.0
C1581 C 0.74813 0.98306 0.97753 0.0
C1582 C 0.74425 0.99076 0.96948 0.0
C1583 C 0.73304 0.98677 0.95568 0.0
C1584 C 0.72563 0.97509 0.95001 0.0
C1585 C 0.72939 0.96736 0.95827 0.0
C1586 C 0.74057 0.9713 0.97212 0.0
C1587 C 0.79317 0.02366 0.11299 0.0
C1588 C 0.78614 0.02158 0.14848 0.0
C1589 C 0.78948 0.01597 0.07931 0.0
C1590 C 0.77886 0.00585 0.08114 0.0
C1591 C 0.77187 0.00372 0.11687 0.0
C1592 C 0.77544 0.01158 0.15014 0.0
C1593 C 0.77488 -0.00222 0.04489 0.0
C1594 C 0.76396 0.99415 0.02819 0.0
C1595 C 0.78194 0.99413 0.02547 0.0
C1596 C 0.79311 -0.00328 0.04386 0.0
C1597 C 0.79385 0.99395 0.08631 0.0
C1598 C 0.8044 -0.00351 0.10361 0.0
C1599 C 0.81425 0.00174 0.0787 0.0
C1600 C 0.81358 0.00444 0.03639 0.0
C1601 C 0.80306 0.00192 0.01894 0.0
H1602 H 0.8224 0.0037 0.09215 0.0
H1603 H 0.71696 0.97202 0.93929 0.0
H1604 H 0.00599 0.77506 0.81418 0.0
H1605 H 0.99215 0.76939 0.87201 0.0
H1606 H 0.01492 0.8004 0.93927 0.0
H1607 H 0.02847 0.80633 0.88069 0.0
H1608 H 0.99405 0.76418 0.94709 0.0
H1609 H 0.00123 0.80808 0.00746 0.0
H1610 H 0.00501 0.82649 0.97765 0.0
H1611 H 0.99005 0.81018 0.85915 0.0
H1612 H 0.98604 0.79165 0.88839 0.0
H1613 H 0.97769 0.7586 0.15989 0.0
H1614 H 0.98813 0.7652 0.09304 0.0
H1615 H 0.96301 0.77337 0.04653 0.0
H1616 H 0.9529 0.76734 0.11414 0.0
H1617 H 0.98255 0.789 0.02251 0.0
H1618 H 0.96324 0.74846 0.01613 0.0
H1619 H 0.95716 0.72893 0.04056 0.0
H1620 H 0.99203 0.7365 0.04016 0.0
H1621 H -0.00167 0.75612 0.01626 0.0
C1622 C 0.00792 0.78075 0.84104 0.0
C1623 C 0.01827 0.79112 0.84312 0.0
C1624 C 4e-05 0.77749 0.87404 0.0
C1625 C 0.00245 0.78449 0.90989 0.0
C1626 C 0.01272 0.79498 0.91155 0.0
C1627 C 0.0205 0.79834 0.87816 0.0
C1628 C -0.00529 0.78043 0.947 0.0
C1629 C 0.99147 0.76958 0.96335 0.0
C1630 C 0.99114 0.78737 0.9678 0.0
C1631 C 0.99342 0.79848 0.95006 0.0
C1632 C -0.0013 0.80841 0.97511 0.0
C1633 C 0.00089 0.81887 0.95829 0.0
C1634 C -0.0022 0.81951 0.9165 0.0
C1635 C 0.99248 0.80968 0.89147 0.0
C1636 C 0.99026 0.7992 0.90813 0.0
C1637 C 0.97445 0.76186 0.13542 0.0
C1638 C 0.96449 0.76242 0.14195 0.0
C1639 C 0.98037 0.76556 0.09718 0.0
C1640 C 0.97621 0.76955 0.06442 0.0
C1641 C 0.96636 0.77031 0.0713 0.0
C1642 C 0.96059 0.76685 0.10988 0.0
C1643 C 0.9821 0.77285 0.02291 0.0
C1644 C 0.98503 0.78356 0.00589 0.0
C1645 C 0.98502 0.76561 0.00055 0.0
C1646 C 0.98126 0.75379 0.01471 0.0
C1647 C 0.96962 0.74598 0.0215 0.0
C1648 C 0.96613 0.73489 0.03523 0.0
C1649 C 0.9742 0.73148 0.04199 0.0
C1650 C 0.98578 0.73915 0.03494 0.0
C1651 C 0.98932 0.75025 0.02126 0.0
H1652 H 0.97149 0.7229 0.05262 0.0
H1653 H -0.00049 0.82762 0.90354 0.0
H1654 H 0.25455 0.22607 0.1309 0.0
H1655 H 0.25115 0.23295 0.06355 0.0
H1656 H 0.21801 0.20259 0.054 0.0
H1657 H 0.22145 0.19557 0.1204 0.0
H1658 H 0.22923 0.20653 0.9817 0.0
H1659 H 0.22142 0.22881 0.08209 0.0
H1660 H 0.22595 0.24235 0.1412 0.0
H1661 H 0.25423 0.26826 0.07085 0.0
H1662 H 0.24994 0.25482 0.01151 0.0
H1663 H 0.19667 0.21959 0.84312 0.0
H1664 H 0.20534 0.21503 0.90231 0.0
H1665 H 0.23733 0.24593 0.87987 0.0
H1666 H 0.2287 0.25059 0.82037 0.0
H1667 H 0.2302 0.24341 0.96345 0.0
H1668 H 0.23577 0.22131 0.85852 0.0
H1669 H 0.23035 0.20758 0.7996 0.0
H1670 H 0.20542 0.18101 0.8789 0.0
H1671 H 0.21057 0.19462 0.93813 0.0
C1672 C 0.24649 0.22093 0.11456 0.0
C1673 C 0.23827 0.21027 0.1307 0.0
C1674 C 0.24457 0.22487 0.07618 0.0
C1675 C 0.23433 0.21827 0.05383 0.0
C1676 C 0.22601 0.20777 0.07059 0.0
C1677 C 0.22796 0.20379 0.10861 0.0
C1678 C 0.23227 0.22204 0.01237 0.0
C1679 C 0.22937 0.21457 0.97775 0.0
C1680 C 0.23286 0.23269 0.00694 0.0
C1681 C 0.23545 0.24077 0.04261 0.0
C1682 C 0.22866 0.23736 0.07939 0.0
C1683 C 0.23117 0.24503 0.1129 0.0
C1684 C 0.2404 0.25615 0.10985 0.0
C1685 C 0.2471 0.25964 0.07321 0.0
C1686 C 0.24463 0.252 0.03963 0.0
C1687 C 0.2056 0.22534 0.8504 0.0
C1688 C 0.212 0.23546 0.82728 0.0
C1689 C 0.21054 0.22271 0.8841 0.0
C1690 C 0.22198 0.23012 0.89521 0.0
C1691 C 0.22849 0.24011 0.87161 0.0
C1692 C 0.22356 0.24272 0.83762 0.0
C1693 C 0.22678 0.22772 0.9333 0.0
C1694 C 0.23025 0.23546 0.96722 0.0
C1695 C 0.22661 0.21727 0.93823 0.0
C1696 C 0.22352 0.20902 0.90273 0.0
C1697 C 0.22908 0.21256 0.86332 0.0
C1698 C 0.22606 0.20479 0.82987 0.0
C1699 C 0.21753 0.19343 0.83549 0.0
C1700 C 0.21202 0.18981 0.87459 0.0
C1701 C 0.215 0.19755 0.90814 0.0
H1702 H 0.21521 0.18743 0.80955 0.0
H1703 H 0.24233 0.26207 0.13582 0.0
H1704 H 0.88485 0.35901 0.45407 0.0
H1705 H 0.87994 0.34712 0.39055 0.0
H1706 H 0.91095 0.34564 0.40362 0.0
H1707 H 0.91595 0.35757 0.4673 0.0
H1708 H 0.90717 0.3506 0.32129 0.0
H1709 H 0.88678 0.32309 0.43026 0.0
H1710 H 0.87377 0.31498 0.49132 0.0
H1711 H 0.84616 0.31282 0.41671 0.0
H1712 H 0.85905 0.32108 0.35534 0.0
H1713 H 0.89163 0.30562 0.17128 0.0
H1714 H 0.89804 0.31823 0.23309 0.0
H1715 H 0.86592 0.31782 0.23518 0.0
H1716 H 0.85934 0.30498 0.1742 0.0
H1717 H 0.87092 0.31365 0.31112 0.0
H1718 H 0.89113 0.34152 0.20269 0.0
H1719 H 0.90402 0.34992 0.14148 0.0
H1720 H 0.93177 0.35173 0.21415 0.0
H1721 H 0.919 0.34319 0.27566 0.0
C1722 C 0.89061 0.35612 0.44353 0.0
C1723 C 0.90077 0.35919 0.46564 0.0
C1724 C 0.88778 0.34933 0.40733 0.0
C1725 C 0.89506 0.34548 0.3927 0.0
C1726 C 0.90524 0.34855 0.41455 0.0
C1727 C 0.90805 0.35531 0.45094 0.0
C1728 C 0.89204 0.33831 0.35432 0.0
C1729 C 0.89933 0.34244 0.31913 0.0
C1730 C 0.88169 0.32781 0.35149 0.0
C1731 C 0.87391 0.3228 0.38832 0.0
C1732 C 0.87796 0.32098 0.42697 0.0
C1733 C 0.8706 0.31634 0.46162 0.0
C1734 C 0.85915 0.31341 0.45793 0.0
C1735 C 0.85503 0.3151 0.41954 0.0
C1736 C 0.86236 0.31975 0.3848 0.0
C1737 C 0.88599 0.30833 0.18464 0.0
C1738 C 0.87497 0.30428 0.16813 0.0
C1739 C 0.88968 0.31556 0.21984 0.0
C1740 C 0.88247 0.319 0.23857 0.0
C1741 C 0.87159 0.31523 0.22128 0.0
C1742 C 0.86786 0.30792 0.18641 0.0
C1743 C 0.88597 0.326 0.27762 0.0
C1744 C 0.87877 0.32181 0.31311 0.0
C1745 C 0.89638 0.33646 0.28058 0.0
C1746 C 0.90407 0.3416 0.24363 0.0
C1747 C 0.89995 0.34362 0.20551 0.0
C1748 C 0.90725 0.34842 0.17078 0.0
C1749 C 0.9187 0.35133 0.17388 0.0
C1750 C 0.92289 0.34946 0.21177 0.0
C1751 C 0.91563 0.34465 0.24659 0.0
H1752 H 0.92433 0.35505 0.14696 0.0
H1753 H 0.85347 0.30982 0.48479 0.0
H1754 H 0.68258 0.58152 0.1629 0.0
H1755 H 0.66873 0.57553 0.2209 0.0
H1756 H 0.66975 0.54433 0.23396 0.0
H1757 H 0.68359 0.55024 0.17613 0.0
H1758 H 0.6476 0.54115 0.23693 0.0
H1759 H 0.68479 0.56521 0.29982 0.0
H1760 H 0.70337 0.5829 0.3072 0.0
H1761 H 0.68625 0.60182 0.33156 0.0
H1762 H 0.66756 0.58425 0.3237 0.0
H1763 H 0.62586 0.52192 0.44179 0.0
H1764 H 0.63746 0.52858 0.37765 0.0
H1765 H 0.63774 0.56054 0.38572 0.0
H1766 H 0.62637 0.55405 0.45068 0.0
H1767 H 0.65836 0.56418 0.36904 0.0
H1768 H 0.62117 0.54013 0.31176 0.0
H1769 H 0.60247 0.52261 0.30401 0.0
H1770 H 0.6191 0.50392 0.2681 0.0
H1771 H 0.63792 0.5213 0.27621 0.0
C1772 C 0.67979 0.57335 0.17796 0.0
C1773 C 0.68421 0.56637 0.16523 0.0
C1774 C 0.67192 0.56997 0.21107 0.0
C1775 C 0.66832 0.55954 0.23176 0.0
C1776 C 0.67244 0.55241 0.21828 0.0
C1777 C 0.68038 0.55582 0.18542 0.0
C1778 C 0.66054 0.5562 0.26849 0.0
C1779 C 0.64996 0.54611 0.26598 0.0
C1780 C 0.66355 0.56289 0.30577 0.0
C1781 C 0.67478 0.57344 0.31068 0.0
C1782 C 0.68499 0.57316 0.30637 0.0
C1783 C 0.69554 0.58316 0.31072 0.0
C1784 C 0.69599 0.59349 0.31972 0.0
C1785 C 0.68589 0.59382 0.32451 0.0
C1786 C 0.67531 0.58385 0.32014 0.0
C1787 C 0.62836 0.53036 0.42983 0.0
C1788 C 0.6252 0.53746 0.45115 0.0
C1789 C 0.63493 0.53412 0.39304 0.0
C1790 C 0.6383 0.54498 0.37654 0.0
C1791 C 0.63519 0.55211 0.39786 0.0
C1792 C 0.62869 0.54839 0.4349 0.0
C1793 C 0.64541 0.54901 0.33782 0.0
C1794 C 0.6559 0.55924 0.3399 0.0
C1795 C 0.64228 0.54248 0.30004 0.0
C1796 C 0.63096 0.53201 0.29492 0.0
C1797 C 0.62085 0.53227 0.3025 0.0
C1798 C 0.61022 0.52237 0.298 0.0
C1799 C 0.6096 0.51216 0.28566 0.0
C1800 C 0.6196 0.51184 0.27769 0.0
C1801 C 0.63025 0.52172 0.28218 0.0
H1802 H 0.60136 0.5045 0.28219 0.0
H1803 H 0.70417 0.60122 0.32308 0.0
H1804 H 0.43544 0.12429 0.16207 0.0
H1805 H 0.44038 0.11618 0.222 0.0
H1806 H 0.40657 0.08661 0.21969 0.0
H1807 H 0.40153 0.09469 0.15937 0.0
H1808 H 0.41323 0.09659 0.29945 0.0
H1809 H 0.42799 0.08327 0.19037 0.0
H1810 H 0.43889 0.08462 0.12587 0.0
H1811 H 0.47001 0.10907 0.18719 0.0
H1812 H 0.45927 0.10799 0.25188 0.0
H1813 H 0.42981 0.07119 0.46374 0.0
H1814 H 0.42238 0.07458 0.39791 0.0
H1815 H 0.455 0.10467 0.37451 0.0
H1816 H 0.46255 0.10124 0.43982 0.0
H1817 H 0.4471 0.09151 0.30496 0.0
H1818 H 0.43229 0.10665 0.40996 0.0
H1819 H 0.42162 0.10596 0.47431 0.0
H1820 H 0.39084 0.07867 0.4205 0.0
H1821 H 0.40138 0.0791 0.35601 0.0
C1822 C 0.42909 0.116 0.17397 0.0
C1823 C 0.41809 0.11013 0.15621 0.0
C1824 C 0.43194 0.11136 0.20806 0.0
C1825 C 0.42385 0.10078 0.225 0.0
C1826 C 0.41292 0.09478 0.20686 0.0
C1827 C 0.41008 0.09938 0.17241 0.0
C1828 C 0.42669 0.09646 0.26339 0.0
C1829 C 0.42048 0.09522 0.30055 0.0
C1830 C 0.43629 0.09494 0.26474 0.0
C1831 C 0.4428 0.0956 0.22591 0.0
C1832 C 0.43715 0.089 0.19001 0.0
C1833 C 0.4433 0.08971 0.15342 0.0
C1834 C 0.45513 0.09694 0.15241 0.0
C1835 C 0.46084 0.10347 0.18802 0.0
C1836 C 0.45473 0.1028 0.22468 0.0
C1837 C 0.43537 0.07856 0.44469 0.0
C1838 C 0.44677 0.08595 0.45685 0.0
C1839 C 0.43111 0.0805 0.40717 0.0
C1840 C 0.43814 0.08989 0.38149 0.0
C1841 C 0.44946 0.09734 0.39386 0.0
C1842 C 0.45374 0.0954 0.43125 0.0
C1843 C 0.43382 0.09191 0.34126 0.0
C1844 C 0.43975 0.09271 0.30376 0.0
C1845 C 0.424 0.09308 0.33964 0.0
C1846 C 0.41766 0.09281 0.3784 0.0
C1847 C 0.42327 0.10043 0.41201 0.0
C1848 C 0.41724 0.1001 0.44847 0.0
C1849 C 0.40557 0.09225 0.45155 0.0
C1850 C 0.39989 0.08473 0.41811 0.0
C1851 C 0.40589 0.08502 0.38159 0.0
H1852 H 0.40091 0.09201 0.4798 0.0
H1853 H 0.45988 0.09748 0.12405 0.0
H1854 H 0.41598 0.31074 0.16743 0.0
H1855 H 0.42236 0.32321 0.22995 0.0
H1856 H 0.44357 0.30927 0.26773 0.0
H1857 H 0.43733 0.29688 0.20554 0.0
H1858 H 0.4298 0.30958 0.33284 0.0
H1859 H 0.45599 0.33466 0.22673 0.0
H1860 H 0.4612 0.34483 0.15826 0.0
H1861 H 0.44306 0.36218 0.19202 0.0
H1862 H 0.4376 0.35199 0.26049 0.0
H1863 H 0.47034 0.36412 0.45745 0.0
H1864 H 0.46478 0.35251 0.39295 0.0
H1865 H 0.42928 0.33765 0.4273 0.0
H1866 H 0.43475 0.34927 0.49183 0.0
H1867 H 0.45063 0.35188 0.32592 0.0
H1868 H 0.41653 0.30918 0.3981 0.0
H1869 H 0.41195 0.29907 0.46672 0.0
H1870 H 0.44748 0.31698 0.50072 0.0
H1871 H 0.45228 0.32707 0.43209 0.0
C1872 C 0.42206 0.3104 0.18895 0.0
C1873 C 0.42615 0.30284 0.1817 0.0
C1874 C 0.42569 0.31752 0.22451 0.0
C1875 C 0.43341 0.31711 0.25328 0.0
C1876 C 0.43758 0.30965 0.24587 0.0
C1877 C 0.43404 0.30263 0.21025 0.0
C1878 C 0.437 0.32427 0.29176 0.0
C1879 C 0.43433 0.31882 0.33137 0.0
C1880 C 0.44297 0.33631 0.2896 0.0
C1881 C 0.44629 0.34247 0.24854 0.0
C1882 C 0.45303 0.34057 0.2194 0.0
C1883 C 0.45605 0.34635 0.18062 0.0
C1884 C 0.45244 0.35412 0.17074 0.0
C1885 C 0.44583 0.35615 0.19969 0.0
C1886 C 0.44278 0.35038 0.2385 0.0
C1887 C 0.46135 0.35835 0.45135 0.0
C1888 C 0.45297 0.35756 0.47965 0.0
C1889 C 0.4582 0.35179 0.41443 0.0
C1890 C 0.44665 0.34425 0.40559 0.0
C1891 C 0.43825 0.34341 0.43383 0.0
C1892 C 0.44139 0.35003 0.47058 0.0
C1893 C 0.44337 0.33718 0.36694 0.0
C1894 C 0.44606 0.34263 0.32734 0.0
C1895 C 0.43749 0.32514 0.36908 0.0
C1896 C 0.43474 0.31897 0.41014 0.0
C1897 C 0.42336 0.31093 0.42016 0.0
C1898 C 0.42073 0.3052 0.45906 0.0
C1899 C 0.42942 0.30741 0.48813 0.0
C1900 C 0.44076 0.31531 0.47826 0.0
C1901 C 0.44344 0.32105 0.43939 0.0
H1902 H 0.42736 0.30299 0.51825 0.0
H1903 H 0.45479 0.35859 0.14071 0.0
H1904 H 0.69325 0.13465 0.21493 0.0
H1905 H 0.68101 0.12746 0.27753 0.0
H1906 H 0.66688 0.09301 0.23125 0.0
H1907 H 0.67916 0.10013 0.16852 0.0
H1908 H 0.65042 0.0981 0.26266 0.0
H1909 H 0.68577 0.10082 0.30478 0.0
H1910 H 0.70668 0.11038 0.31341 0.0
H1911 H 0.70594 0.13558 0.3939 0.0
H1912 H 0.68503 0.12627 0.3852 0.0
H1913 H 0.63867 0.07946 0.49837 0.0
H1914 H 0.65078 0.08439 0.4352 0.0
H1915 H 0.63865 0.10681 0.39347 0.0
H1916 H 0.62656 0.10198 0.45634 0.0
H1917 H 0.66814 0.1055 0.40576 0.0
H1918 H 0.63462 0.10326 0.28588 0.0
H1919 H 0.61368 0.0931 0.27701 0.0
H1920 H 0.61071 0.06524 0.35192 0.0
H1921 H 0.63163 0.07515 0.3607 0.0
C1922 C 0.68749 0.12555 0.21792 0.0
C1923 C 0.68719 0.11793 0.18699 0.0
C1924 C 0.68055 0.12147 0.25373 0.0
C1925 C 0.67316 0.10972 0.25903 0.0
C1926 C 0.67257 0.10211 0.22763 0.0
C1927 C 0.67959 0.10618 0.19196 0.0
C1928 C 0.6662 0.1054 0.2978 0.0
C1929 C 0.65427 0.09968 0.29396 0.0
C1930 C 0.67128 0.10733 0.33844 0.0
C1931 C 0.68384 0.1129 0.34404 0.0
C1932 C 0.69008 0.10845 0.32405 0.0
C1933 C 0.70193 0.11382 0.329 0.0
C1934 C 0.70764 0.1236 0.35411 0.0
C1935 C 0.70151 0.12801 0.37442 0.0
C1936 C 0.68965 0.12269 0.36953 0.0
C1937 C 0.63863 0.08548 0.4758 0.0
C1938 C 0.63164 0.0903 0.48211 0.0
C1939 C 0.64556 0.08829 0.43988 0.0
C1940 C 0.64547 0.09585 0.40962 0.0
C1941 C 0.6387 0.10085 0.41631 0.0
C1942 C 0.63184 0.09811 0.45229 0.0
C1943 C 0.65237 0.09845 0.37067 0.0
C1944 C 0.66429 0.10386 0.37446 0.0
C1945 C 0.64727 0.09613 0.32997 0.0
C1946 C 0.63469 0.09001 0.32425 0.0
C1947 C 0.6295 0.09494 0.30028 0.0
C1948 C 0.61763 0.08923 0.2953 0.0
C1949 C 0.61086 0.07855 0.314 0.0
C1950 C 0.61595 0.07354 0.33759 0.0
C1951 C 0.62782 0.0792 0.34262 0.0
H1952 H 0.60168 0.07415 0.31015 0.0
H1953 H 0.71682 0.12774 0.35791 0.0
H1954 H 0.88241 0.52365 0.47782 0.0
H1955 H 0.8771 0.52992 0.41342 0.0
H1956 H 0.90919 0.56163 0.41676 0.0
H1957 H 0.91444 0.55554 0.48189 0.0
H1958 H 0.89227 0.56522 0.39431 0.0
H1959 H 0.9055 0.53991 0.35177 0.0
H1960 H 0.90631 0.52211 0.35234 0.0
H1961 H 0.87125 0.50321 0.31251 0.0
H1962 H 0.87018 0.52088 0.31233 0.0
H1963 H 0.89071 0.58018 0.17967 0.0
H1964 H 0.89674 0.57419 0.24315 0.0
H1965 H 0.86325 0.54439 0.25315 0.0
H1966 H 0.85711 0.55034 0.18983 0.0
H1967 H 0.88154 0.54016 0.26754 0.0
H1968 H 0.86861 0.56595 0.3121 0.0
H1969 H 0.86838 0.58405 0.31049 0.0
H1970 H 0.90386 0.60244 0.34507 0.0
H1971 H 0.90435 0.58445 0.34622 0.0
C1972 C 0.88829 0.532 0.46504 0.0
C1973 C 0.89889 0.53907 0.48458 0.0
C1974 C 0.88527 0.53555 0.42817 0.0
C1975 C 0.89286 0.54613 0.40987 0.0
C1976 C 0.90324 0.5534 0.43028 0.0
C1977 C 0.90623 0.5499 0.46743 0.0
C1978 C 0.89008 0.54947 0.36887 0.0
C1979 C 0.89008 0.55982 0.36645 0.0
C1980 C 0.88709 0.54234 0.33268 0.0
C1981 C 0.88773 0.53171 0.33241 0.0
C1982 C 0.89794 0.53195 0.34343 0.0
C1983 C 0.89844 0.52188 0.34364 0.0
C1984 C 0.88883 0.51153 0.33256 0.0
C1985 C 0.87869 0.51123 0.32113 0.0
C1986 C 0.87813 0.52127 0.32093 0.0
C1987 C 0.88467 0.57229 0.19511 0.0
C1988 C 0.87341 0.56577 0.18008 0.0
C1989 C 0.88812 0.56891 0.23136 0.0
C1990 C 0.88039 0.55893 0.25289 0.0
C1991 C 0.86931 0.55213 0.23689 0.0
C1992 C 0.86581 0.55556 0.20086 0.0
C1993 C 0.88368 0.55584 0.29322 0.0
C1994 C 0.88378 0.54556 0.29544 0.0
C1995 C 0.88685 0.56307 0.32908 0.0
C1996 C 0.88655 0.57387 0.32879 0.0
C1997 C 0.87639 0.57387 0.31901 0.0
C1998 C 0.87621 0.5841 0.31824 0.0
C1999 C 0.88611 0.59439 0.32755 0.0
C2000 C 0.8962 0.59446 0.33779 0.0
C2001 C 0.89644 0.58425 0.33853 0.0
H2002 H 0.88595 0.6023 0.32694 0.0
H2003 H 0.88924 0.50375 0.33275 0.0
H2004 H 0.55504 0.64191 0.52167 0.0
H2005 H 0.5605 0.65247 0.58869 0.0
H2006 H 0.52505 0.64055 0.6162 0.0
H2007 H 0.5195 0.63 0.5493 0.0
H2008 H 0.55652 0.66958 0.61707 0.0
H2009 H 0.52159 0.63501 0.72398 0.0
H2010 H 0.50996 0.61403 0.72787 0.0
H2011 H 0.53596 0.61097 0.66112 0.0
H2012 H 0.54782 0.63192 0.65739 0.0
H2013 H 0.55073 0.69359 0.80528 0.0
H2014 H 0.54484 0.68075 0.74434 0.0
H2015 H 0.56432 0.66579 0.7918 0.0
H2016 H 0.57035 0.67869 0.85301 0.0
H2017 H 0.54223 0.64979 0.75508 0.0
H2018 H 0.57688 0.68485 0.72392 0.0
H2019 H 0.58898 0.70579 0.72097 0.0
H2020 H 0.56504 0.70763 0.63631 0.0
H2021 H 0.5527 0.6867 0.63937 0.0
C2022 C 0.54841 0.64157 0.54197 0.0
C2023 C 0.53684 0.63512 0.53039 0.0
C2024 C 0.55155 0.64761 0.5801 0.0
C2025 C 0.54316 0.64717 0.60739 0.0
C2026 C 0.53162 0.64087 0.59567 0.0
C2027 C 0.52848 0.6349 0.55739 0.0
C2028 C 0.54647 0.65336 0.64811 0.0
C2029 C 0.55341 0.66525 0.64723 0.0
C2030 C 0.54251 0.64765 0.68737 0.0
C2031 C 0.53553 0.63504 0.69007 0.0
C2032 C 0.52484 0.62986 0.7103 0.0
C2033 C 0.51821 0.61797 0.71246 0.0
C2034 C 0.5222 0.61117 0.69464 0.0
C2035 C 0.53286 0.61625 0.67477 0.0
C2036 C 0.53953 0.62813 0.67258 0.0
C2037 C 0.55362 0.68745 0.80318 0.0
C2038 C 0.56112 0.68723 0.83358 0.0
C2039 C 0.55024 0.68014 0.76838 0.0
C2040 C 0.55426 0.67246 0.76358 0.0
C2041 C 0.56116 0.6717 0.79514 0.0
C2042 C 0.56463 0.67909 0.82988 0.0
C2043 C 0.55206 0.66599 0.7238 0.0
C2044 C 0.54533 0.65408 0.72487 0.0
C2045 C 0.55632 0.67165 0.68469 0.0
C2046 C 0.56382 0.68422 0.68218 0.0
C2047 C 0.57416 0.68972 0.70493 0.0
C2048 C 0.58106 0.70159 0.70321 0.0
C2049 C 0.57776 0.70804 0.67854 0.0
C2050 C 0.56757 0.70262 0.65544 0.0
C2051 C 0.56062 0.69076 0.65713 0.0
H2052 H 0.58312 0.71722 0.67726 0.0
H2053 H 0.51705 0.60197 0.6963 0.0
H2054 H 0.304 0.89933 0.83459 0.0
H2055 H 0.31767 0.90949 0.77735 0.0
H2056 H 0.32378 0.88126 0.76418 0.0
H2057 H 0.31017 0.87109 0.82084 0.0
H2058 H 0.34373 0.9027 0.75982 0.0
H2059 H 0.30474 0.88254 0.70237 0.0
H2060 H 0.28493 0.87878 0.69774 0.0
H2061 H 0.29726 0.91389 0.66602 0.0
H2062 H 0.31715 0.91788 0.67105 0.0
H2063 H 0.35719 0.89229 0.56149 0.0
H2064 H 0.34761 0.89204 0.62708 0.0
H2065 H 0.34817 0.923 0.59005 0.0
H2066 H 0.35776 0.92329 0.52355 0.0
H2067 H 0.32733 0.90666 0.62415 0.0
H2068 H 0.3663 0.92528 0.66374 0.0
H2069 H 0.38594 0.92856 0.66652 0.0
H2070 H 0.37402 0.89672 0.73158 0.0
H2071 H 0.35427 0.89315 0.72861 0.0
C2072 C 0.30839 0.89538 0.81982 0.0
C2073 C 0.30597 0.88439 0.83181 0.0
C2074 C 0.31616 0.90118 0.78721 0.0
C2075 C 0.32166 0.89608 0.76659 0.0
C2076 C 0.31963 0.88534 0.77989 0.0
C2077 C 0.31181 0.87951 0.81205 0.0
C2078 C 0.32889 0.90136 0.72901 0.0
C2079 C 0.34021 0.90366 0.73018 0.0
C2080 C 0.32436 0.90297 0.69086 0.0
C2081 C 0.31241 0.90054 0.68766 0.0
C2082 C 0.30322 0.88948 0.69477 0.0
C2083 C 0.29198 0.8873 0.69201 0.0
C2084 C 0.28984 0.8961 0.68174 0.0
C2085 C 0.29893 0.90709 0.67408 0.0
C2086 C 0.31019 0.90931 0.67688 0.0
C2087 C 0.35525 0.89904 0.56711 0.0
C2088 C 0.3583 0.90786 0.53756 0.0
C2089 C 0.34984 0.89892 0.60472 0.0
C2090 C 0.34743 0.90764 0.61371 0.0
C2091 C 0.35008 0.91627 0.58373 0.0
C2092 C 0.35553 0.9164 0.54586 0.0
C2093 C 0.34201 0.90746 0.65452 0.0
C2094 C 0.33104 0.90613 0.65403 0.0
C2095 C 0.34688 0.90677 0.69337 0.0
C2096 C 0.35878 0.90894 0.69586 0.0
C2097 C 0.36785 0.91895 0.67846 0.0
C2098 C 0.37901 0.92086 0.68007 0.0
C2099 C 0.38123 0.91286 0.6992 0.0
C2100 C 0.37229 0.90293 0.71682 0.0
C2101 C 0.36111 0.90096 0.71525 0.0
H2102 H 0.38987 0.91435 0.70039 0.0
H2103 H 0.28113 0.8944 0.67961 0.0
H2104 H 0.09223 0.41207 0.84784 0.0
H2105 H 0.08551 0.41887 0.78866 0.0
H2106 H 0.11866 0.44916 0.77979 0.0
H2107 H 0.12552 0.44237 0.83864 0.0
H2108 H 0.09914 0.4526 0.76812 0.0
H2109 H 0.11469 0.42914 0.71923 0.0
H2110 H 0.11603 0.41163 0.71893 0.0
H2111 H 0.08071 0.39192 0.68302 0.0
H2112 H 0.07912 0.40931 0.68386 0.0
H2113 H 0.10152 0.47113 0.55762 0.0
H2114 H 0.10522 0.46483 0.62538 0.0
H2115 H 0.07431 0.43233 0.61103 0.0
H2116 H 0.0707 0.43847 0.54265 0.0
H2117 H 0.09114 0.42939 0.63726 0.0
H2118 H 0.07561 0.45264 0.67969 0.0
H2119 H 0.0737 0.46981 0.68131 0.0
H2120 H 0.1078 0.48947 0.73035 0.0
H2121 H 0.10999 0.47244 0.72845 0.0
C2122 C 0.09803 0.42027 0.83382 0.0
C2123 C 0.10944 0.42664 0.84741 0.0
C2124 C 0.09417 0.42413 0.80008 0.0
C2125 C 0.10164 0.43444 0.77985 0.0
C2126 C 0.1128 0.44117 0.79516 0.0
C2127 C 0.11671 0.43726 0.82855 0.0
C2128 C 0.0982 0.43765 0.74019 0.0
C2129 C 0.09745 0.4476 0.73935 0.0
C2130 C 0.09576 0.43092 0.70319 0.0
C2131 C 0.09675 0.4205 0.70211 0.0
C2132 C 0.10718 0.42106 0.71164 0.0
C2133 C 0.10799 0.41116 0.71131 0.0
C2134 C 0.09845 0.40066 0.70108 0.0
C2135 C 0.08809 0.40005 0.69102 0.0
C2136 C 0.08723 0.40993 0.69141 0.0
C2137 C 0.09552 0.46264 0.56888 0.0
C2138 C 0.08581 0.4553 0.54495 0.0
C2139 C 0.0976 0.45908 0.60772 0.0
C2140 C 0.08993 0.44819 0.62355 0.0
C2141 C 0.08031 0.44079 0.59944 0.0
C2142 C 0.07826 0.44431 0.56042 0.0
C2143 C 0.09212 0.44444 0.66481 0.0
C2144 C 0.09268 0.43437 0.666 0.0
C2145 C 0.09429 0.45102 0.70218 0.0
C2146 C 0.093 0.46128 0.70358 0.0
C2147 C 0.08274 0.46064 0.69052 0.0
C2148 C 0.0816 0.47035 0.69154 0.0
C2149 C 0.09063 0.48073 0.70583 0.0
C2150 C 0.10081 0.48142 0.71925 0.0
C2151 C 0.102 0.47174 0.71825 0.0
H2152 H 0.08973 0.48824 0.7066 0.0
H2153 H 0.09909 0.39301 0.70085 0.0
H2154 H 0.09638 0.68241 0.81984 0.0
H2155 H 0.08851 0.66989 0.75806 0.0
H2156 H 0.12182 0.6745 0.73044 0.0
H2157 H 0.12979 0.68723 0.79129 0.0
H2158 H 0.11277 0.6778 0.66189 0.0
H2159 H 0.09987 0.64936 0.77233 0.0
H2160 H 0.08989 0.63995 0.83851 0.0
H2161 H 0.05815 0.63424 0.78575 0.0
H2162 H 0.06797 0.64375 0.71941 0.0
H2163 H 0.10162 0.63285 0.52306 0.0
H2164 H 0.10622 0.64509 0.58536 0.0
H2165 H 0.07272 0.64158 0.58109 0.0
H2166 H 0.06804 0.62934 0.51822 0.0
H2167 H 0.07991 0.63824 0.66346 0.0
H2168 H 0.09302 0.66542 0.55029 0.0
H2169 H 0.10328 0.67436 0.48405 0.0
H2170 H 0.13506 0.68209 0.5426 0.0
H2171 H 0.12496 0.67303 0.60904 0.0
C2172 C 0.10199 0.68064 0.80083 0.0
C2173 C 0.11371 0.68583 0.81015 0.0
C2174 C 0.09747 0.67347 0.76564 0.0
C2175 C 0.10458 0.67126 0.73975 0.0
C2176 C 0.11621 0.67616 0.74988 0.0
C2177 C 0.12074 0.6834 0.78471 0.0
C2178 C 0.10013 0.6643 0.70084 0.0
C2179 C 0.10565 0.66912 0.66235 0.0
C2180 C 0.09059 0.65311 0.70125 0.0
C2181 C 0.08468 0.64739 0.7411 0.0
C2182 C 0.09078 0.64619 0.77497 0.0
C2183 C 0.08515 0.64081 0.81249 0.0
C2184 C 0.0734 0.63653 0.81638 0.0
C2185 C 0.06726 0.63758 0.78272 0.0
C2186 C 0.07285 0.64295 0.74515 0.0
C2187 C 0.09523 0.6347 0.53528 0.0
C2188 C 0.08448 0.63017 0.51581 0.0
C2189 C 0.09788 0.6417 0.57076 0.0
C2190 C 0.08982 0.64425 0.58748 0.0
C2191 C 0.07903 0.63968 0.56844 0.0
C2192 C 0.07641 0.63276 0.53254 0.0
C2193 C 0.09277 0.65167 0.62506 0.0
C2194 C 0.08695 0.64697 0.66312 0.0
C2195 C 0.10209 0.66295 0.62441 0.0
C2196 C 0.10821 0.66846 0.58456 0.0
C2197 C 0.10218 0.66894 0.54895 0.0
C2198 C 0.10797 0.67405 0.51138 0.0
C2199 C 0.11981 0.67877 0.50909 0.0
C2200 C 0.12589 0.67842 0.54441 0.0
C2201 C 0.12013 0.67331 0.58205 0.0
H2202 H 0.12428 0.68272 0.47997 0.0
H2203 H 0.06906 0.63237 0.84545 0.0
H2204 H 0.31758 0.42812 0.85453 0.0
H2205 H 0.33182 0.43667 0.79798 0.0
H2206 H 0.31063 0.4477 0.73481 0.0
H2207 H 0.29676 0.43971 0.79198 0.0
H2208 H 0.3305 0.43132 0.72082 0.0
H2209 H 0.32503 0.47024 0.67426 0.0
H2210 H 0.3221 0.48477 0.71005 0.0
H2211 H 0.33648 0.4802 0.82482 0.0
H2212 H 0.33966 0.46576 0.78959 0.0
H2213 H 0.34436 0.44407 0.508 0.0
H2214 H 0.33495 0.44003 0.57708 0.0
H2215 H 0.36165 0.47247 0.62414 0.0
H2216 H 0.37076 0.47678 0.55445 0.0
H2217 H 0.34279 0.46897 0.65467 0.0
H2218 H 0.36094 0.44689 0.64781 0.0
H2219 H 0.36639 0.43351 0.61744 0.0
H2220 H 0.33137 0.40662 0.62053 0.0
H2221 H 0.32568 0.41989 0.65034 0.0
C2222 C 0.31609 0.43254 0.82885 0.0
C2223 C 0.3061 0.43328 0.8276 0.0
C2224 C 0.3242 0.4374 0.79657 0.0
C2225 C 0.32238 0.44295 0.76236 0.0
C2226 C 0.31242 0.44375 0.76139 0.0
C2227 C 0.30443 0.4391 0.79397 0.0
C2228 C 0.33036 0.44714 0.72593 0.0
C2229 C 0.33327 0.4396 0.70663 0.0
C2230 C 0.33428 0.45807 0.70801 0.0
C2231 C 0.33251 0.46685 0.7293 0.0
C2232 C 0.32763 0.47238 0.70706 0.0
C2233 C 0.32591 0.48059 0.72727 0.0
C2234 C 0.32908 0.48338 0.7697 0.0
C2235 C 0.334 0.478 0.79199 0.0
C2236 C 0.33575 0.46979 0.77192 0.0
C2237 C 0.34814 0.45037 0.53301 0.0
C2238 C 0.35829 0.46069 0.52606 0.0
C2239 C 0.34283 0.44803 0.57254 0.0
C2240 C 0.34776 0.45583 0.60612 0.0
C2241 C 0.35772 0.46631 0.59878 0.0
C2242 C 0.36291 0.46875 0.55897 0.0
C2243 C 0.34253 0.45298 0.64885 0.0
C2244 C 0.34015 0.46077 0.66928 0.0
C2245 C 0.3395 0.44247 0.66875 0.0
C2246 C 0.34288 0.43441 0.65107 0.0
C2247 C 0.35439 0.43814 0.64178 0.0
C2248 C 0.35753 0.43058 0.62468 0.0
C2249 C 0.34923 0.41923 0.617 0.0
C2250 C 0.33779 0.41542 0.62648 0.0
C2251 C 0.3346 0.42295 0.64353 0.0
H2252 H 0.35167 0.41338 0.60375 0.0
H2253 H 0.32773 0.48973 0.7853 0.0
H2254 H 0.55072 0.86152 0.76443 0.0
H2255 H 0.54953 0.86878 0.69483 0.0
H2256 H 0.577 0.90221 0.72891 0.0
H2257 H 0.5782 0.89505 0.79891 0.0
H2258 H 0.55975 0.90301 0.68571 0.0
H2259 H 0.58302 0.88607 0.66887 0.0
H2260 H 0.58815 0.87106 0.67656 0.0
H2261 H 0.55905 0.84823 0.60156 0.0
H2262 H 0.55362 0.86304 0.59403 0.0
H2263 H 0.56244 0.92062 0.47456 0.0
H2264 H 0.57043 0.91594 0.53597 0.0
H2265 H 0.54239 0.88128 0.53261 0.0
H2266 H 0.53433 0.88588 0.47148 0.0
H2267 H 0.56354 0.88335 0.55899 0.0
H2268 H 0.53886 0.89932 0.58714 0.0
H2269 H 0.5336 0.91423 0.57887 0.0
H2270 H 0.56575 0.93902 0.63285 0.0
H2271 H 0.57129 0.92428 0.64064 0.0
C2272 C 0.55641 0.87045 0.75734 0.0
C2273 C 0.56462 0.87769 0.78692 0.0
C2274 C 0.55577 0.87456 0.71751 0.0
C2275 C 0.56335 0.88596 0.70659 0.0
C2276 C 0.57116 0.89337 0.73675 0.0
C2277 C 0.57182 0.88926 0.77665 0.0
C2278 C 0.56321 0.89001 0.66325 0.0
C2279 C 0.56082 0.89888 0.658 0.0
C2280 C 0.56456 0.88455 0.62723 0.0
C2281 C 0.56787 0.87565 0.63112 0.0
C2282 C 0.57767 0.87783 0.65424 0.0
C2283 C 0.58063 0.86936 0.65856 0.0
C2284 C 0.57392 0.8587 0.63961 0.0
C2285 C 0.56424 0.8565 0.61623 0.0
C2286 C 0.56122 0.86493 0.61189 0.0
C2287 C 0.55818 0.91192 0.48611 0.0
C2288 C 0.54766 0.90365 0.46892 0.0
C2289 C 0.56275 0.90928 0.52112 0.0
C2290 C 0.55688 0.89833 0.53899 0.0
C2291 C 0.54701 0.88978 0.5192 0.0
C2292 C 0.54239 0.89244 0.48451 0.0
C2293 C 0.55987 0.89617 0.58162 0.0
C2294 C 0.56275 0.88764 0.58675 0.0
C2295 C 0.559 0.90195 0.61758 0.0
C2296 C 0.55555 0.91074 0.614 0.0
C2297 C 0.54484 0.90797 0.59699 0.0
C2298 C 0.5418 0.91638 0.59239 0.0
C2299 C 0.54935 0.92758 0.60521 0.0
C2300 C 0.55993 0.93035 0.62283 0.0
C2301 C 0.56302 0.92197 0.62734 0.0
H2302 H 0.547 0.93409 0.60158 0.0
H2303 H 0.57623 0.85215 0.643 0.0
H2304 H 0.36927 0.1176 0.06067 0.0
H2305 H 0.34894 0.11001 0.07419 0.0
H2306 H 0.35584 0.11639 0.20803 0.0
H2307 H 0.37617 0.12394 0.19497 0.0
H2308 H 0.33899 0.09469 0.1916 0.0
H2309 H 0.34825 0.1325 0.15103 0.0
H2310 H 0.35624 0.14949 0.10501 0.0
H2311 H 0.33335 0.1296 0.00486 0.0
H2312 H 0.32533 0.11244 0.0501 0.0
H2313 H 0.28307 0.07855 0.25278 0.0
H2314 H 0.30354 0.09058 0.24039 0.0
H2315 H 0.29788 0.08599 0.10534 0.0
H2316 H 0.27734 0.07413 0.11736 0.0
H2317 H 0.31422 0.10755 0.12374 0.0
H2318 H 0.30593 0.06973 0.16065 0.0
H2319 H 0.29798 0.05235 0.20456 0.0
H2320 H 0.31923 0.07184 0.30895 0.0
H2321 H 0.32719 0.08938 0.26581 0.0
C2322 C 0.36649 0.1175 0.09295 0.0
C2323 C 0.37435 0.12132 0.12677 0.0
C2324 C 0.35487 0.11321 0.10057 0.0
C2325 C 0.35091 0.11269 0.14208 0.0
C2326 C 0.35875 0.11673 0.17576 0.0
C2327 C 0.37036 0.12105 0.16819 0.0
C2328 C 0.33852 0.1072 0.15074 0.0
C2329 C 0.33361 0.09763 0.17738 0.0
C2330 C 0.33147 0.11085 0.13109 0.0
C2331 C 0.33626 0.12116 0.10385 0.0
C2332 C 0.34499 0.13172 0.11908 0.0
C2333 C 0.34951 0.14139 0.09315 0.0
C2334 C 0.34533 0.14062 0.052 0.0
C2335 C 0.33659 0.13018 0.03673 0.0
C2336 C 0.33204 0.12048 0.06252 0.0
C2337 C 0.28615 0.08018 0.2204 0.0
C2338 C 0.27859 0.07526 0.18607 0.0
C2339 C 0.29786 0.08705 0.2134 0.0
C2340 C 0.30224 0.089 0.17199 0.0
C2341 C 0.29467 0.08456 0.13756 0.0
C2342 C 0.28294 0.07775 0.14451 0.0
C2343 C 0.31473 0.09508 0.16476 0.0
C2344 C 0.31964 0.10469 0.13825 0.0
C2345 C 0.3218 0.09143 0.18421 0.0
C2346 C 0.31707 0.08088 0.21015 0.0
C2347 C 0.30884 0.07032 0.19308 0.0
C2348 C 0.30434 0.06044 0.2178 0.0
C2349 C 0.30807 0.06099 0.25955 0.0
C2350 C 0.31633 0.07143 0.27662 0.0
C2351 C 0.32085 0.08134 0.25205 0.0
H2352 H 0.30458 0.05333 0.27865 0.0
H2353 H 0.34884 0.14811 0.03198 0.0
H2354 H 0.87824 0.25465 0.07793 0.0
H2355 H 0.88586 0.24195 0.09152 0.0
H2356 H 0.86886 0.23286 0.21278 0.0
H2357 H 0.86119 0.24555 0.19959 0.0
H2358 H 0.9 0.24313 0.15684 0.0
H2359 H 0.8604 0.20415 0.22908 0.0
H2360 H 0.83939 0.19466 0.22471 0.0
H2361 H 0.8418 0.20756 0.0984 0.0
H2362 H 0.8628 0.21696 0.10175 0.0
H2363 H 0.91802 0.2077 0.25072 0.0
H2364 H 0.90693 0.2174 0.24425 0.0
H2365 H 0.89063 0.19795 0.13154 0.0
H2366 H 0.90163 0.18818 0.13769 0.0
H2367 H 0.87575 0.20155 0.18287 0.0
H2368 H 0.9131 0.22276 0.11879 0.0
H2369 H 0.93412 0.23208 0.11835 0.0
H2370 H 0.93611 0.2545 0.21851 0.0
H2371 H 0.91507 0.24519 0.21995 0.0
C2372 C 0.87607 0.24991 0.10742 0.0
C2373 C 0.86912 0.25112 0.13771 0.0
C2374 C 0.88046 0.2427 0.11516 0.0
C2375 C 0.87788 0.23646 0.15304 0.0
C2376 C 0.87087 0.23754 0.18319 0.0
C2377 C 0.86654 0.24483 0.17564 0.0
C2378 C 0.88278 0.22903 0.1614 0.0
C2379 C 0.8947 0.23405 0.16267 0.0
C2380 C 0.87583 0.21717 0.1686 0.0
C2381 C 0.86319 0.21137 0.16591 0.0
C2382 C 0.85644 0.20492 0.20032 0.0
C2383 C 0.84453 0.19956 0.19801 0.0
C2384 C 0.83926 0.20054 0.16136 0.0
C2385 C 0.84589 0.20685 0.12684 0.0
C2386 C 0.8578 0.2122 0.12895 0.0
C2387 C 0.91191 0.20531 0.22504 0.0
C2388 C 0.91083 0.19729 0.19435 0.0
C2389 C 0.90559 0.21087 0.2214 0.0
C2390 C 0.89809 0.20847 0.18713 0.0
C2391 C 0.89639 0.19991 0.15818 0.0
C2392 C 0.90274 0.19439 0.16163 0.0
C2393 C 0.89295 0.21569 0.17882 0.0
C2394 C 0.88102 0.21065 0.17748 0.0
C2395 C 0.89988 0.22752 0.1709 0.0
C2396 C 0.91252 0.2332 0.16978 0.0
C2397 C 0.91802 0.22962 0.14093 0.0
C2398 C 0.92994 0.23491 0.14047 0.0
C2399 C 0.93645 0.24386 0.16846 0.0
C2400 C 0.93105 0.24756 0.19689 0.0
C2401 C 0.91913 0.24228 0.19753 0.0
H2402 H 0.94567 0.24794 0.16806 0.0
H2403 H 0.83004 0.1964 0.15966 0.0
H2404 H 0.72811 0.61797 0.08256 0.0
H2405 H 0.74023 0.63841 0.09502 0.0
H2406 H 0.7603 0.63164 0.18468 0.0
H2407 H 0.74775 0.61115 0.17406 0.0
H2408 H 0.75723 0.64685 0.21616 0.0
H2409 H 0.76996 0.64275 0.08052 0.0
H2410 H 0.76837 0.63674 0.00581 0.0
H2411 H 0.75374 0.65751 0.97305 0.0
H2412 H 0.75509 0.66353 0.0477 0.0
H2413 H 0.79998 0.70998 0.1436 0.0
H2414 H 0.79093 0.68939 0.13265 0.0
H2415 H 0.76353 0.68415 0.21673 0.0
H2416 H 0.77287 0.70467 0.22946 0.0
H2417 H 0.77251 0.6749 0.09854 0.0
H2418 H 0.75166 0.65898 0.26482 0.0
H2419 H 0.75588 0.66491 0.33973 0.0
H2420 H 0.79173 0.68401 0.3117 0.0
H2421 H 0.78775 0.67808 0.23676 0.0
C2422 C 0.73515 0.62086 0.10472 0.0
C2423 C 0.73701 0.613 0.12734 0.0
C2424 C 0.74213 0.63256 0.11167 0.0
C2425 C 0.75132 0.63663 0.14031 0.0
C2426 C 0.75326 0.62874 0.1625 0.0
C2427 C 0.74611 0.61704 0.15635 0.0
C2428 C 0.75865 0.64906 0.14827 0.0
C2429 C 0.76062 0.65297 0.19039 0.0
C2430 C 0.76335 0.65708 0.1148 0.0
C2431 C 0.76255 0.65352 0.06979 0.0
C2432 C 0.76633 0.64598 0.05744 0.0
C2433 C 0.76548 0.64258 0.01509 0.0
C2434 C 0.76094 0.64673 0.98472 0.0
C2435 C 0.75725 0.6543 -0.00338 0.0
C2436 C 0.75807 0.65772 0.03894 0.0
C2437 C 0.79207 0.70441 0.16001 0.0
C2438 C 0.78715 0.70891 0.18758 0.0
C2439 C 0.78689 0.69265 0.15364 0.0
C2440 C 0.77661 0.68517 0.17425 0.0
C2441 C 0.77161 0.68969 0.20134 0.0
C2442 C 0.77692 0.70143 0.20844 0.0
C2443 C 0.77093 0.67268 0.1664 0.0
C2444 C 0.76922 0.66877 0.1243 0.0
C2445 C 0.7669 0.66465 0.19993 0.0
C2446 C 0.76938 0.66816 0.24508 0.0
C2447 C 0.76045 0.66441 0.27468 0.0
C2448 C 0.7628 0.66778 0.31714 0.0
C2449 C 0.77406 0.67486 0.33044 0.0
C2450 C 0.78301 0.67856 0.30133 0.0
C2451 C 0.7807 0.67521 0.25885 0.0
H2452 H 0.77586 0.67747 0.36331 0.0
H2453 H 0.76029 0.64408 0.95195 0.0
H2454 H 0.07184 0.27984 0.85687 0.0
H2455 H 0.08192 0.30052 0.86701 0.0
H2456 H 0.07029 0.30472 0.74446 0.0
H2457 H 0.0603 0.28402 0.73367 0.0
H2458 H 0.09908 0.31876 0.81543 0.0
H2459 H 0.06198 0.32517 0.76339 0.0
H2460 H 0.04095 0.31423 0.75833 0.0
H2461 H 0.03956 0.293 0.86203 0.0
H2462 H 0.06056 0.30391 0.86809 0.0
H2463 H 0.11627 0.37788 0.79248 0.0
H2464 H 0.10706 0.35738 0.77829 0.0
H2465 H 0.09048 0.3503 0.90024 0.0
H2466 H 0.09977 0.37076 0.91506 0.0
H2467 H 0.07589 0.33769 0.82974 0.0
H2468 H 0.11199 0.34713 0.89464 0.0
H2469 H 0.13298 0.358 0.9014 0.0
H2470 H 0.13633 0.34731 0.7766 0.0
H2471 H 0.11535 0.33651 0.76887 0.0
C2472 C 0.0715 0.28516 0.83191 0.0
C2473 C 0.06524 0.28031 0.79454 0.0
C2474 C 0.07731 0.29696 0.83769 0.0
C2475 C 0.07678 0.30408 0.80656 0.0
C2476 C 0.07074 0.29931 0.76884 0.0
C2477 C 0.06507 0.28751 0.76274 0.0
C2478 C 0.08212 0.31644 0.81452 0.0
C2479 C 0.09404 0.32292 0.81836 0.0
C2480 C 0.07548 0.32179 0.81869 0.0
C2481 C 0.06284 0.31528 0.81582 0.0
C2482 C 0.05718 0.31819 0.78518 0.0
C2483 C 0.04526 0.31199 0.78214 0.0
C2484 C 0.03892 0.3029 0.80974 0.0
C2485 C 0.04448 0.30001 0.84055 0.0
C2486 C 0.05639 0.30619 0.84376 0.0
C2487 C 0.11063 0.37196 0.81622 0.0
C2488 C 0.10876 0.37592 0.85495 0.0
C2489 C 0.10541 0.36028 0.80808 0.0
C2490 C 0.09815 0.35239 0.83831 0.0
C2491 C 0.09607 0.3563 0.87658 0.0
C2492 C 0.10141 0.36797 0.88503 0.0
C2493 C 0.09286 0.34003 0.83034 0.0
C2494 C 0.08095 0.33355 0.82645 0.0
C2495 C 0.0995 0.33468 0.82631 0.0
C2496 C 0.11211 0.34112 0.83101 0.0
C2497 C 0.11721 0.34718 0.86849 0.0
C2498 C 0.1291 0.35331 0.87253 0.0
C2499 C 0.13598 0.35337 0.8394 0.0
C2500 C 0.13099 0.34727 0.80221 0.0
C2501 C 0.1191 0.34114 0.798 0.0
H2502 H 0.14519 0.35812 0.84259 0.0
H2503 H 0.0297 0.29811 0.8073 0.0
H2504 H 0.70607 0.7807 0.73647 0.0
H2505 H 0.68536 0.76985 0.74598 0.0
H2506 H 0.6895 0.77903 0.87847 0.0
H2507 H 0.71021 0.78987 0.86941 0.0
H2508 H 0.67474 0.75603 0.8649 0.0
H2509 H 0.68064 0.79198 0.81156 0.0
H2510 H 0.68774 0.80796 0.76082 0.0
H2511 H 0.6676 0.78481 0.66172 0.0
H2512 H 0.6605 0.76867 0.71176 0.0
H2513 H 0.61778 0.73949 0.91804 0.0
H2514 H 0.63837 0.7499 0.90605 0.0
H2515 H 0.63277 0.74315 0.77178 0.0
H2516 H 0.61215 0.73297 0.78335 0.0
H2517 H 0.64833 0.76456 0.78443 0.0
H2518 H 0.64211 0.72868 0.83571 0.0
H2519 H 0.63504 0.71231 0.88458 0.0
H2520 H 0.65574 0.73456 0.98481 0.0
H2521 H 0.66283 0.7511 0.93667 0.0
C2522 C 0.70259 0.78045 0.76762 0.0
C2523 C 0.7098 0.78616 0.80218 0.0
C2524 C 0.69075 0.77428 0.77294 0.0
C2525 C 0.68593 0.77371 0.81287 0.0
C2526 C 0.69308 0.77938 0.84741 0.0
C2527 C 0.70491 0.7856 0.8421 0.0
C2528 C 0.67341 0.76706 0.81884 0.0
C2529 C 0.66896 0.75797 0.84774 0.0
C2530 C 0.66589 0.7694 0.79539 0.0
C2531 C 0.67013 0.7791 0.76531 0.0
C2532 C 0.6778 0.79029 0.77887 0.0
C2533 C 0.68181 0.79937 0.75025 0.0
C2534 C 0.67815 0.7974 0.70805 0.0
C2535 C 0.67044 0.78633 0.6944 0.0
C2536 C 0.66641 0.77721 0.72289 0.0
C2537 C 0.62092 0.74017 0.88597 0.0
C2538 C 0.61332 0.73538 0.85166 0.0
C2539 C 0.6327 0.74609 0.87918 0.0
C2540 C 0.63711 0.74718 0.83807 0.0
C2541 C 0.62955 0.74241 0.80376 0.0
C2542 C 0.61777 0.73657 0.81046 0.0
C2543 C 0.64961 0.75354 0.83076 0.0
C2544 C 0.65409 0.76258 0.80156 0.0
C2545 C 0.65714 0.75108 0.85364 0.0
C2546 C 0.65292 0.74114 0.88267 0.0
C2547 C 0.64509 0.7301 0.86826 0.0
C2548 C 0.64109 0.72079 0.89581 0.0
C2549 C 0.64491 0.7224 0.9378 0.0
C2550 C 0.65277 0.73333 0.95229 0.0
C2551 C 0.6568 0.74267 0.92487 0.0
H2552 H 0.64181 0.71518 0.95909 0.0
H2553 H 0.68126 0.80444 0.68594 0.0
H2554 H 0.19774 0.91668 0.8808 0.0
H2555 H 0.20633 0.90484 0.89461 0.0
H2556 H 0.21494 0.90635 0.76218 0.0
H2557 H 0.20633 0.91816 0.74789 0.0
H2558 H 0.20676 0.8847 0.79793 0.0
H2559 H 0.23464 0.92411 0.8287 0.0
H2560 H 0.24127 0.94262 0.86413 0.0
H2561 H 0.23625 0.92656 0.98586 0.0
H2562 H 0.22945 0.90791 0.9511 0.0
H2563 H 0.25215 0.87325 0.79682 0.0
H2564 H 0.23949 0.8811 0.78968 0.0
H2565 H 0.23669 0.88164 0.92591 0.0
H2566 H 0.24963 0.87403 0.93341 0.0
H2567 H 0.24046 0.90109 0.89365 0.0
H2568 H 0.21432 0.86197 0.86395 0.0
H2569 H 0.20722 0.84326 0.82956 0.0
H2570 H 0.20829 0.85814 0.70812 0.0
H2571 H 0.21555 0.87699 0.7417 0.0
C2572 C 0.20134 0.9144 0.85447 0.0
C2573 C 0.20146 0.91847 0.81328 0.0
C2574 C 0.20626 0.90765 0.86247 0.0
C2575 C 0.21137 0.90485 0.82948 0.0
C2576 C 0.21104 0.90845 0.78804 0.0
C2577 C 0.20617 0.91524 0.78 0.0
C2578 C 0.21768 0.89878 0.83849 0.0
C2579 C 0.21418 0.88828 0.81859 0.0
C2580 C 0.22714 0.90337 0.86642 0.0
C2581 C 0.23143 0.9146 0.88732 0.0
C2582 C 0.23489 0.92452 0.86302 0.0
C2583 C 0.23868 0.93503 0.88298 0.0
C2584 C 0.23915 0.93576 0.92723 0.0
C2585 C 0.23587 0.92598 0.95159 0.0
C2586 C 0.23206 0.91544 0.93178 0.0
C2587 C 0.24878 0.87494 0.82532 0.0
C2588 C 0.2519 0.87301 0.86571 0.0
C2589 C 0.24148 0.87938 0.82116 0.0
C2590 C 0.23701 0.88181 0.85725 0.0
C2591 C 0.24002 0.8798 0.89763 0.0
C2592 C 0.2474 0.87543 0.90185 0.0
C2593 C 0.22965 0.88699 0.85269 0.0
C2594 C 0.23296 0.89737 0.87338 0.0
C2595 C 0.21997 0.88225 0.82568 0.0
C2596 C 0.21557 0.87092 0.80533 0.0
C2597 C 0.21312 0.86128 0.82987 0.0
C2598 C 0.20906 0.85064 0.81052 0.0
C2599 C 0.20733 0.84952 0.76667 0.0
C2600 C 0.20964 0.85903 0.74208 0.0
C2601 C 0.21372 0.86968 0.76126 0.0
H2602 H 0.20418 0.84128 0.75176 0.0
H2603 H 0.24208 0.94391 0.94262 0.0
H2604 H 0.70449 0.91876 0.86484 0.0
H2605 H 0.68373 0.90805 0.86937 0.0
H2606 H 0.68133 0.91007 0.73345 0.0
H2607 H 0.70219 0.92108 0.72869 0.0
H2608 H 0.66604 0.91378 0.77162 0.0
H2609 H 0.67713 0.88547 0.7812 0.0
H2610 H 0.68786 0.87648 0.80823 0.0
H2611 H 0.6736 0.87379 0.93219 0.0
H2612 H 0.6629 0.88292 0.90605 0.0
H2613 H 0.60739 0.87096 0.76374 0.0
H2614 H 0.62807 0.88057 0.75388 0.0
H2615 H 0.63295 0.88373 0.88947 0.0
H2616 H 0.61226 0.87414 0.89978 0.0
H2617 H 0.64676 0.87668 0.84748 0.0
H2618 H 0.63631 0.90591 0.83648 0.0
H2619 H 0.62542 0.91453 0.80753 0.0
H2620 H 0.63838 0.91485 0.68295 0.0
H2621 H 0.64923 0.90607 0.71109 0.0
C2622 C 0.69957 0.91695 0.83586 0.0
C2623 C 0.705 0.9207 0.79635 0.0
C2624 C 0.68769 0.91078 0.83851 0.0
C2625 C 0.68099 0.90807 0.80167 0.0
C2626 C 0.68636 0.91203 0.76225 0.0
C2627 C 0.69827 0.9183 0.75959 0.0
C2628 C 0.66839 0.90114 0.80453 0.0
C2629 C 0.66182 0.90558 0.78759 0.0
C2630 C 0.6629 0.89051 0.8259 0.0
C2631 C 0.66929 0.88497 0.84173 0.0
C2632 C 0.67635 0.88304 0.8143 0.0
C2633 C 0.68242 0.8779 0.82945 0.0
C2634 C 0.68144 0.87459 0.87192 0.0
C2635 C 0.67436 0.87637 0.89931 0.0
C2636 C 0.66828 0.88152 0.88433 0.0
C2637 C 0.61284 0.87361 0.79152 0.0
C2638 C 0.60819 0.87185 0.83258 0.0
C2639 C 0.62465 0.87913 0.78578 0.0
C2640 C 0.63199 0.88294 0.82095 0.0
C2641 C 0.62739 0.88086 0.86197 0.0
C2642 C 0.61558 0.87542 0.86777 0.0
C2643 C 0.64449 0.88939 0.81496 0.0
C2644 C 0.65102 0.88485 0.83129 0.0
C2645 C 0.64994 0.89986 0.79271 0.0
C2646 C 0.64348 0.90522 0.77582 0.0
C2647 C 0.63676 0.90773 0.80286 0.0
C2648 C 0.63061 0.91266 0.7866 0.0
C2649 C 0.63118 0.9152 0.7434 0.0
C2650 C 0.63793 0.91285 0.71639 0.0
C2651 C 0.64409 0.90791 0.73248 0.0
H2652 H 0.62641 0.91902 0.73088 0.0
H2653 H 0.68614 0.87061 0.88359 0.0
H2654 H 0.06316 0.77685 0.76112 0.0
H2655 H 0.07175 0.76505 0.77525 0.0
H2656 H 0.07382 0.77309 0.90855 0.0
H2657 H 0.06539 0.78508 0.89469 0.0
H2658 H 0.0934 0.77517 0.88083 0.0
H2659 H 0.05404 0.74685 0.87282 0.0
H2660 H 0.03464 0.73667 0.84232 0.0
H2661 H 0.04746 0.72805 0.73226 0.0
H2662 H 0.06697 0.73833 0.76182 0.0
H2663 H 0.11065 0.73427 0.92902 0.0
H2664 H 0.09937 0.74387 0.92837 0.0
H2665 H 0.09661 0.74075 0.79211 0.0
H2666 H 0.10779 0.73115 0.79235 0.0
H2667 H 0.07616 0.73521 0.83019 0.0
H2668 H 0.11575 0.76537 0.83591 0.0
H2669 H 0.13512 0.77562 0.86672 0.0
H2670 H 0.12151 0.78056 0.98265 0.0
H2671 H 0.10203 0.7702 0.95268 0.0
C2672 C 0.06539 0.77608 0.79349 0.0
C2673 C 0.06359 0.78191 0.82677 0.0
C2674 C 0.07025 0.76928 0.80154 0.0
C2675 C 0.07329 0.76809 0.84304 0.0
C2676 C 0.0715 0.77388 0.87633 0.0
C2677 C 0.06667 0.78071 0.86831 0.0
C2678 C 0.07872 0.76112 0.85125 0.0
C2679 C 0.08953 0.76635 0.87053 0.0
C2680 C 0.07372 0.74967 0.8373 0.0
C2681 C 0.06199 0.74344 0.81942 0.0
C2682 C 0.05274 0.74286 0.84197 0.0
C2683 C 0.04172 0.73706 0.82487 0.0
C2684 C 0.03982 0.73174 0.78534 0.0
C2685 C 0.04894 0.73219 0.76287 0.0
C2686 C 0.05998 0.73799 0.77981 0.0
C2687 C 0.1076 0.73559 0.89895 0.0
C2688 C 0.11018 0.732 0.86071 0.0
C2689 C 0.10118 0.74108 0.89865 0.0
C2690 C 0.09723 0.74306 0.86016 0.0
C2691 C 0.09957 0.73928 0.82213 0.0
C2692 C 0.10602 0.73385 0.82235 0.0
C2693 C 0.0909 0.74934 0.85897 0.0
C2694 C 0.07993 0.74396 0.84103 0.0
C2695 C 0.09573 0.76064 0.87428 0.0
C2696 C 0.10743 0.76689 0.89225 0.0
C2697 C 0.11688 0.76855 0.8681 0.0
C2698 C 0.12788 0.7744 0.88538 0.0
C2699 C 0.12954 0.7787 0.92667 0.0
C2700 C 0.12021 0.7772 0.95071 0.0
C2701 C 0.10919 0.77135 0.93359 0.0
H2702 H 0.13806 0.78323 0.93999 0.0
H2703 H 0.03128 0.72725 0.77216 0.0
H2704 H 0.21019 0.28629 0.73221 0.0
H2705 H 0.22035 0.30698 0.74136 0.0
H2706 H 0.2162 0.30274 0.87699 0.0
H2707 H 0.2059 0.28203 0.86821 0.0
H2708 H 0.2125 0.3196 0.84888 0.0
H2709 H 0.24112 0.30872 0.83177 0.0
H2710 H 0.25059 0.29947 0.7961 0.0
H2711 H 0.25635 0.32032 0.68593 0.0
H2712 H 0.24677 0.32959 0.72075 0.0
H2713 H 0.25577 0.37465 0.91328 0.0
H2714 H 0.24474 0.35404 0.90187 0.0
H2715 H 0.24815 0.35929 0.76651 0.0
H2716 H 0.25921 0.37992 0.7775 0.0
H2717 H 0.25202 0.34205 0.79321 0.0
H2718 H 0.22387 0.35333 0.81116 0.0
H2719 H 0.21459 0.36271 0.84717 0.0
H2720 H 0.20803 0.34121 0.95596 0.0
H2721 H 0.21745 0.33182 0.92086 0.0
C2722 C 0.21137 0.28974 0.76399 0.0
C2723 C 0.20731 0.2825 0.79951 0.0
C2724 C 0.2172 0.30157 0.76915 0.0
C2725 C 0.21916 0.30637 0.80989 0.0
C2726 C 0.2148 0.29919 0.84529 0.0
C2727 C 0.20894 0.28736 0.84019 0.0
C2728 C 0.22605 0.31888 0.81571 0.0
C2729 C 0.22119 0.3245 0.83715 0.0
C2730 C 0.2373 0.32528 0.79961 0.0
C2731 C 0.24312 0.31976 0.7787 0.0
C2732 C 0.24433 0.31127 0.79981 0.0
C2733 C 0.24973 0.30603 0.77977 0.0
C2734 C 0.25404 0.30928 0.73873 0.0
C2735 C 0.25299 0.3178 0.71769 0.0
C2736 C 0.24758 0.32305 0.73758 0.0
C2737 C 0.25424 0.37143 0.88107 0.0
C2738 C 0.25833 0.37893 0.84628 0.0
C2739 C 0.24789 0.35966 0.87463 0.0
C2740 C 0.24554 0.35519 0.83336 0.0
C2741 C 0.24986 0.36261 0.7986 0.0
C2742 C 0.25615 0.37439 0.80497 0.0
C2743 C 0.23849 0.34275 0.82646 0.0
C2744 C 0.24333 0.33715 0.80484 0.0
C2745 C 0.22723 0.33638 0.84243 0.0
C2746 C 0.22148 0.34195 0.86353 0.0
C2747 C 0.22054 0.35066 0.8429 0.0
C2748 C 0.21523 0.35597 0.86313 0.0
C2749 C 0.21074 0.35258 0.90387 0.0
C2750 C 0.21152 0.34384 0.92442 0.0
C2751 C 0.21684 0.33852 0.90436 0.0
H2752 H 0.20664 0.3567 0.91946 0.0
H2753 H 0.25822 0.30522 0.72327 0.0
H2754 H 0.90449 0.7112 0.15829 0.0
H2755 H 0.89371 0.69048 0.15025 0.0
H2756 H 0.91831 0.68762 0.22907 0.0
H2757 H 0.92875 0.70829 0.23903 0.0
H2758 H 0.89814 0.67654 0.11515 0.0
H2759 H 0.90697 0.66261 0.27917 0.0
H2760 H 0.9098 0.66902 0.35371 0.0
H2761 H 0.89114 0.6865 0.33101 0.0
H2762 H 0.88806 0.68007 0.25651 0.0
H2763 H 0.88549 0.61956 0.09917 0.0
H2764 H 0.89453 0.64009 0.11171 0.0
H2765 H 0.86943 0.63408 0.20802 0.0
H2766 H 0.86081 0.61353 0.19725 0.0
H2767 H 0.88833 0.64949 0.23505 0.0
H2768 H 0.86884 0.64415 0.10372 0.0
H2769 H 0.86316 0.63754 0.03011 0.0
H2770 H 0.89792 0.65832 0.98935 0.0
H2771 H 0.90383 0.66494 0.06283 0.0
C2772 C 0.90753 0.70613 0.17419 0.0
C2773 C 0.91742 0.71133 0.19946 0.0
C2774 C 0.90138 0.69429 0.16949 0.0
C2775 C 0.90511 0.68744 0.1894 0.0
C2776 C 0.91508 0.69266 0.21427 0.0
C2777 C 0.92108 0.70448 0.21979 0.0
C2778 C 0.89876 0.67488 0.183 0.0
C2779 C 0.89596 0.67063 0.14143 0.0
C2780 C 0.89566 0.66712 0.21725 0.0
C2781 C 0.89739 0.67094 0.26214 0.0
C2782 C 0.90343 0.66778 0.29013 0.0
C2783 C 0.90509 0.67143 0.33237 0.0
C2784 C 0.90068 0.67819 0.34705 0.0
C2785 C 0.89458 0.68129 0.31956 0.0
C2786 C 0.89289 0.67766 0.27731 0.0
C2787 C 0.88191 0.62265 0.12296 0.0
C2788 C 0.87244 0.61498 0.14715 0.0
C2789 C 0.88703 0.63438 0.12996 0.0
C2790 C 0.88254 0.63868 0.16028 0.0
C2791 C 0.87308 0.63099 0.18449 0.0
C2792 C 0.86813 0.61925 0.17824 0.0
C2793 C 0.88779 0.65116 0.16719 0.0
C2794 C 0.89044 0.6554 0.20881 0.0
C2795 C 0.89031 0.65889 0.13314 0.0
C2796 C 0.88679 0.65496 0.08885 0.0
C2797 C 0.87528 0.64725 0.0791 0.0
C2798 C 0.87202 0.64351 0.0374 0.0
C2799 C 0.88018 0.64749 0.00509 0.0
C2800 C 0.89161 0.65523 0.01441 0.0
C2801 C 0.89492 0.65899 0.05608 0.0
H2802 H 0.87764 0.64458 0.97282 0.0
H2803 H 0.90198 0.68101 0.37974 0.0
H2804 H 0.37999 0.23981 0.19592 0.0
H2805 H 0.35952 0.22676 0.2059 0.0
H2806 H 0.35209 0.24577 0.11371 0.0
H2807 H 0.37249 0.25837 0.1019 0.0
H2808 H 0.34349 0.2288 0.23501 0.0
H2809 H 0.32781 0.23037 0.0634 0.0
H2810 H 0.33443 0.23158 0.9897 0.0
H2811 H 0.35553 0.21775 0.028 0.0
H2812 H 0.34893 0.21632 0.10181 0.0
H2813 H 0.28621 0.21514 0.23859 0.0
H2814 H 0.30677 0.22303 0.23165 0.0
H2815 H 0.3009 0.19577 0.14565 0.0
H2816 H 0.2803 0.18831 0.15045 0.0
H2817 H 0.31632 0.21347 0.11441 0.0
H2818 H 0.31161 0.19827 0.25247 0.0
H2819 H 0.30509 0.19424 0.32674 0.0
H2820 H 0.32485 0.22992 0.3565 0.0
H2821 H 0.33136 0.2342 0.28226 0.0
C2822 C 0.37396 0.24112 0.17757 0.0
C2823 C 0.3778 0.25003 0.1479 0.0
C2824 C 0.36227 0.23368 0.18334 0.0
C2825 C 0.35422 0.23513 0.16006 0.0
C2826 C 0.35809 0.24421 0.1311 0.0
C2827 C 0.36976 0.25147 0.12455 0.0
C2828 C 0.34177 0.22743 0.16695 0.0
C2829 C 0.33755 0.22538 0.20864 0.0
C2830 C 0.33401 0.2226 0.1327 0.0
C2831 C 0.33793 0.22332 0.08823 0.0
C2832 C 0.33382 0.22753 0.05607 0.0
C2833 C 0.33758 0.22827 0.01428 0.0
C2834 C 0.34542 0.22477 0.0042 0.0
C2835 C 0.34949 0.22049 0.03588 0.0
C2836 C 0.34575 0.21973 0.0777 0.0
C2837 C 0.28932 0.21076 0.21862 0.0
C2838 C 0.2817 0.20113 0.19504 0.0
C2839 C 0.30109 0.21523 0.21487 0.0
C2840 C 0.30545 0.20991 0.18862 0.0
C2841 C 0.29778 0.20006 0.16602 0.0
C2842 C 0.28602 0.19578 0.16886 0.0
C2843 C 0.31799 0.2151 0.18247 0.0
C2844 C 0.32224 0.21672 0.14088 0.0
C2845 C 0.32579 0.21907 0.2169 0.0
C2846 C 0.32191 0.21656 0.26168 0.0
C2847 C 0.3145 0.20527 0.27478 0.0
C2848 C 0.31082 0.20294 0.31689 0.0
C2849 C 0.31454 0.21182 0.3463 0.0
C2850 C 0.32197 0.22305 0.33368 0.0
C2851 C 0.32567 0.22543 0.29159 0.0
H2852 H 0.31167 0.20999 0.37889 0.0
H2853 H 0.34832 0.22536 0.97184 0.0
H2854 H 0.73818 0.11699 0.07505 0.0
H2855 H 0.74942 0.10754 0.08372 0.0
H2856 H 0.74957 0.11181 0.21941 0.0
H2857 H 0.73862 0.12155 0.21098 0.0
H2858 H 0.76988 0.11625 0.19404 0.0
H2859 H 0.73151 0.08603 0.17094 0.0
H2860 H 0.71302 0.07564 0.13371 0.0
H2861 H 0.7298 0.07219 0.02387 0.0
H2862 H 0.74842 0.0827 0.06027 0.0
H2863 H 0.7839 0.07368 0.25247 0.0
H2864 H 0.77415 0.08463 0.24252 0.0
H2865 H 0.77829 0.08412 0.10706 0.0
H2866 H 0.78809 0.07322 0.11659 0.0
H2867 H 0.75607 0.07787 0.13183 0.0
H2868 H 0.7946 0.1079 0.15833 0.0
H2869 H 0.81269 0.11783 0.19834 0.0
H2870 H 0.79491 0.12093 0.30572 0.0
H2871 H 0.77669 0.11086 0.26653 0.0
C2872 C 0.74062 0.11595 0.10674 0.0
C2873 C 0.73745 0.11997 0.14234 0.0
C2874 C 0.74701 0.1105 0.11165 0.0
C2875 C 0.75018 0.10881 0.15228 0.0
C2876 C 0.74721 0.11301 0.18778 0.0
C2877 C 0.74092 0.11855 0.18288 0.0
C2878 C 0.75651 0.10257 0.15786 0.0
C2879 C 0.76679 0.1078 0.18086 0.0
C2880 C 0.75256 0.09161 0.14011 0.0
C2881 C 0.74137 0.08526 0.11818 0.0
C2882 C 0.73127 0.08313 0.13873 0.0
C2883 C 0.72076 0.07721 0.1178 0.0
C2884 C 0.72024 0.07328 0.07641 0.0
C2885 C 0.73022 0.07525 0.05591 0.0
C2886 C 0.74075 0.08118 0.07669 0.0
C2887 C 0.78278 0.07593 0.22056 0.0
C2888 C 0.78678 0.07258 0.18532 0.0
C2889 C 0.77725 0.08222 0.21497 0.0
C2890 C 0.77557 0.08521 0.17407 0.0
C2891 C 0.77953 0.08189 0.13886 0.0
C2892 C 0.78515 0.0757 0.14442 0.0
C2893 C 0.76941 0.09156 0.16791 0.0
C2894 C 0.75916 0.08633 0.14488 0.0
C2895 C 0.77331 0.10245 0.18605 0.0
C2896 C 0.78426 0.10853 0.20963 0.0
C2897 C 0.79453 0.11061 0.1906 0.0
C2898 C 0.80481 0.11628 0.21311 0.0
C2899 C 0.80494 0.11998 0.25459 0.0
C2900 C 0.7948 0.11804 0.27361 0.0
C2901 C 0.78449 0.11236 0.25125 0.0
H2902 H 0.81291 0.12437 0.27195 0.0
H2903 H 0.7121 0.0687 0.06026 0.0
H2904 H 0.04257 0.47382 0.50997 0.0
H2905 H 0.02186 0.46481 0.51805 0.0
H2906 H 0.01736 0.43701 0.4378 0.0
H2907 H 0.038 0.4463 0.42782 0.0
H2908 H 0.00122 0.44075 0.42195 0.0
H2909 H 0.01711 0.43578 0.55051 0.0
H2910 H 0.02974 0.44177 0.61318 0.0
H2911 H 0.01484 0.46136 0.65799 0.0
H2912 H 0.00221 0.4556 0.59527 0.0
H2913 H 0.95036 0.40207 0.57038 0.0
H2914 H 0.97087 0.41394 0.55855 0.0
H2915 H 0.96461 0.43403 0.46745 0.0
H2916 H 0.94404 0.42179 0.47763 0.0
H2917 H 0.9861 0.43457 0.56879 0.0
H2918 H 0.98422 0.44352 0.38977 0.0
H2919 H 0.97172 0.43446 0.32783 0.0
H2920 H 0.95877 0.4015 0.38526 0.0
H2921 H 0.9713 0.41035 0.44725 0.0
C2922 C 0.03713 0.46586 0.49363 0.0
C2923 C 0.04188 0.46071 0.46851 0.0
C2924 C 0.02531 0.46068 0.49847 0.0
C2925 C 0.01804 0.45008 0.47939 0.0
C2926 C 0.02277 0.44517 0.45293 0.0
C2927 C 0.03457 0.45048 0.44728 0.0
C2928 C 0.00558 0.44385 0.48828 0.0
C2929 C -0.00208 0.43944 0.45407 0.0
C2930 C 0.00124 0.44189 0.53021 0.0
C2931 C 0.00881 0.44536 0.56799 0.0
C2932 C 0.01658 0.44143 0.57359 0.0
C2933 C 0.02373 0.44477 0.60913 0.0
C2934 C 0.02312 0.45197 0.63949 0.0
C2935 C 0.01532 0.4558 0.63441 0.0
C2936 C 0.00816 0.4525 0.59889 0.0
C2937 C 0.95336 0.40906 0.54803 0.0
C2938 C 0.94561 0.41094 0.52461 0.0
C2939 C 0.9651 0.41586 0.54133 0.0
C2940 C 0.96931 0.42477 0.51153 0.0
C2941 C 0.96158 0.42702 0.48976 0.0
C2942 C 0.94983 0.42007 0.49577 0.0
C2943 C 0.98174 0.43142 0.50249 0.0
C2944 C 0.9894 0.43595 0.53666 0.0
C2945 C 0.98609 0.43303 0.46063 0.0
C2946 C 0.97859 0.42762 0.42334 0.0
C2947 C 0.97872 0.43434 0.3891 0.0
C2948 C 0.97163 0.42924 0.354 0.0
C2949 C 0.96442 0.41741 0.35269 0.0
C2950 C 0.96432 0.41066 0.3864 0.0
C2951 C 0.97141 0.41571 0.42153 0.0
H2952 H 0.95894 0.41348 0.32551 0.0
H2953 H 0.02866 0.45454 0.66699 0.0
H2954 H 0.58716 0.54767 0.56681 0.0
H2955 H 0.57536 0.55651 0.55834 0.0
H2956 H 0.55103 0.52756 0.4847 0.0
H2957 H 0.56315 0.51899 0.49125 0.0
H2958 H 0.55423 0.54519 0.44681 0.0
H2959 H 0.54558 0.53328 0.58992 0.0
H2960 H 0.54927 0.53084 0.66473 0.0
H2961 H 0.56717 0.56717 0.68227 0.0
H2962 H 0.56372 0.56983 0.60739 0.0
H2963 H 0.51925 0.57419 0.52328 0.0
H2964 H 0.52632 0.56095 0.53476 0.0
H2965 H 0.55237 0.57868 0.44012 0.0
H2966 H 0.54508 0.59167 0.4274 0.0
H2967 H 0.54523 0.56389 0.56388 0.0
H2968 H 0.55961 0.56143 0.39153 0.0
H2969 H 0.55332 0.56151 0.31809 0.0
H2970 H 0.51907 0.54939 0.3616 0.0
H2971 H 0.52511 0.5491 0.43521 0.0
C2972 C 0.57922 0.54314 0.54927 0.0
C2973 C 0.57607 0.53266 0.52965 0.0
C2974 C 0.57244 0.54816 0.5446 0.0
C2975 C 0.5622 0.54265 0.52131 0.0
C2976 C 0.5589 0.53201 0.50271 0.0
C2977 C 0.56581 0.5271 0.50658 0.0
C2978 C 0.55533 0.5483 0.51423 0.0
C2979 C 0.5522 0.54921 0.4725 0.0
C2980 C 0.55238 0.5533 0.54777 0.0
C2981 C 0.55445 0.55175 0.59292 0.0
C2982 C 0.55037 0.54075 0.60965 0.0
C2983 C 0.55241 0.53933 0.65208 0.0
C2984 C 0.55847 0.54884 0.67821 0.0
C2985 C 0.56248 0.5598 0.66198 0.0
C2986 C 0.56047 0.56128 0.61956 0.0
C2987 C 0.52644 0.57521 0.50467 0.0
C2988 C 0.5316 0.58396 0.47436 0.0
C2989 C 0.53048 0.56765 0.51134 0.0
C2990 C 0.53981 0.56873 0.48805 0.0
C2991 C 0.545 0.57749 0.45782 0.0
C2992 C 0.54086 0.58496 0.4507 0.0
C2993 C 0.54441 0.561 0.49641 0.0
C2994 C 0.54714 0.55974 0.53831 0.0
C2995 C 0.54658 0.5553 0.46326 0.0
C2996 C 0.54285 0.55534 0.41895 0.0
C2997 C 0.55073 0.55873 0.38541 0.0
C2998 C 0.54721 0.55883 0.34376 0.0
C2999 C 0.53581 0.5555 0.33521 0.0
C3000 C 0.5279 0.55202 0.36829 0.0
C3001 C 0.53138 0.5519 0.40999 0.0
H3002 H 0.53311 0.55558 0.30295 0.0
H3003 H 0.56004 0.54773 0.71106 0.0
H3004 H 0.44659 0.03817 0.57119 0.0
H3005 H 0.43849 0.01763 0.56207 0.0
H3006 H 0.45561 0.02338 0.44162 0.0
H3007 H 0.46377 0.04396 0.45035 0.0
H3008 H 0.4241 0.00462 0.49766 0.0
H3009 H 0.46218 0.00159 0.42992 0.0
H3010 H 0.48322 0.01198 0.43406 0.0
H3011 H 0.4818 0.02444 0.55784 0.0
H3012 H 0.46075 0.01399 0.55471 0.0
H3013 H 0.4036 0.94984 0.4104 0.0
H3014 H 0.41563 0.97059 0.41499 0.0
H3015 H 0.43 0.96716 0.53249 0.0
H3016 H 0.41799 0.94643 0.52838 0.0
H3017 H 0.44619 0.98469 0.47823 0.0
H3018 H 0.40889 0.97137 0.54036 0.0
H3019 H 0.38782 0.96084 0.53983 0.0
H3020 H 0.38779 0.98114 0.43518 0.0
H3021 H 0.40887 0.99168 0.4347 0.0
C3022 C 0.44874 0.0351 0.54293 0.0
C3023 C 0.45579 0.04271 0.5114 0.0
C3024 C 0.44407 0.02336 0.53774 0.0
C3025 C 0.44647 0.01902 0.50122 0.0
C3026 C 0.45373 0.02658 0.47017 0.0
C3027 C 0.45835 0.03833 0.47518 0.0
C3028 C 0.4409 0.00656 0.49477 0.0
C3029 C 0.42894 0.00028 0.49332 0.0
C3030 C 0.44724 0.00092 0.4893 0.0
C3031 C 0.45989 0.0071 0.49183 0.0
C3032 C 0.46636 0.00651 0.45808 0.0
C3033 C 0.47829 0.01242 0.46024 0.0
C3034 C 0.48385 0.0189 0.49612 0.0
C3035 C 0.47749 0.01945 0.52999 0.0
C3036 C 0.46555 0.01355 0.528 0.0
C3037 C 0.40948 0.95348 0.43679 0.0
C3038 C 0.40975 0.9465 0.46931 0.0
C3039 C 0.41633 0.96533 0.43935 0.0
C3040 C 0.4236 0.97036 0.47426 0.0
C3041 C 0.42444 0.96341 0.50531 0.0
C3042 C 0.41752 0.95157 0.50302 0.0
C3043 C 0.42942 0.98283 0.48076 0.0
C3044 C 0.4414 0.98909 0.48221 0.0
C3045 C 0.42311 0.98847 0.4867 0.0
C3046 C 0.41045 0.98222 0.4872 0.0
C3047 C 0.40439 0.97352 0.51702 0.0
C3048 C 0.39245 0.96756 0.51694 0.0
C3049 C 0.38647 0.9703 0.48741 0.0
C3050 C 0.39243 0.97902 0.45799 0.0
C3051 C 0.40437 0.98499 0.45789 0.0
H3052 H 0.37722 0.96568 0.4874 0.0
H3053 H 0.49308 0.02347 0.49772 0.0
H3054 H 0.58221 0.03972 0.60207 0.0
H3055 H 0.57104 0.01894 0.59622 0.0
H3056 H 0.56589 0.0219 0.46276 0.0
H3057 H 0.57685 0.04264 0.4684 0.0
H3058 H 0.54668 0.00553 0.49878 0.0
H3059 H 0.58658 0.01636 0.49745 0.0
H3060 H 0.60623 0.02555 0.52567 0.0
H3061 H 0.59415 0.00493 0.63798 0.0
H3062 H 0.5744 0.99572 0.61063 0.0
H3063 H 0.53641 0.953 0.41334 0.0
H3064 H 0.54393 0.97294 0.43286 0.0
H3065 H 0.54578 0.96479 0.56389 0.0
H3066 H 0.53833 0.94479 0.54466 0.0
H3067 H 0.56545 0.98327 0.53715 0.0
H3068 H 0.52565 0.97088 0.53371 0.0
H3069 H 0.5062 0.96154 0.50367 0.0
H3070 H 0.51813 0.98493 0.39889 0.0
H3071 H 0.5377 0.99431 0.42796 0.0
C3072 C 0.57863 0.03596 0.57153 0.0
C3073 C 0.58051 0.04285 0.53562 0.0
C3074 C 0.57227 0.02408 0.56824 0.0
C3075 C 0.56777 0.01888 0.52893 0.0
C3076 C 0.5693 0.02574 0.49339 0.0
C3077 C 0.57561 0.03761 0.49667 0.0
C3078 C 0.56185 0.00632 0.52421 0.0
C3079 C 0.5508 0.00066 0.50691 0.0
C3080 C 0.56713 -6e-05 0.53582 0.0
C3081 C 0.579 0.00545 0.55223 0.0
C3082 C 0.58811 0.01385 0.52831 0.0
C3083 C 0.59926 0.01905 0.54412 0.0
C3084 C 0.60143 0.01585 0.58365 0.0
C3085 C 0.59245 0.00742 0.6074 0.0
C3086 C 0.58128 0.0022 0.59176 0.0
C3087 C 0.53834 0.95541 0.44637 0.0
C3088 C 0.53677 0.94729 0.47743 0.0
C3089 C 0.54258 0.96681 0.4575 0.0
C3090 C 0.5453 0.97031 0.49988 0.0
C3091 C 0.54369 0.96224 0.53103 0.0
C3092 C 0.5394 0.95081 0.51996 0.0
C3093 C 0.55035 0.98251 0.5111 0.0
C3094 C 0.56125 0.9881 0.52958 0.0
C3095 C 0.54494 0.98882 0.50039 0.0
C3096 C 0.53317 0.98325 0.48288 0.0
C3097 C 0.52415 0.97398 0.50409 0.0
C3098 C 0.51309 0.96869 0.48726 0.0
C3099 C 0.51094 0.97263 0.44936 0.0
C3100 C 0.51982 0.98189 0.42824 0.0
C3101 C 0.53089 0.9872 0.44491 0.0
H3102 H 0.50237 0.96852 0.43638 0.0
H3103 H 0.61007 0.01989 0.59583 0.0
H3104 H 0.9499 0.53453 0.58492 0.0
H3105 H 0.97031 0.54315 0.5702 0.0
H3106 H 0.96354 0.54201 0.43591 0.0
H3107 H 0.94311 0.533 0.45031 0.0
H3108 H 0.97944 0.53685 0.44817 0.0
H3109 H 0.97322 0.56687 0.49547 0.0
H3110 H 0.96641 0.57662 0.54334 0.0
H3111 H 0.98811 0.57648 0.64265 0.0
H3112 H -0.00506 0.56659 0.59553 0.0
H3113 H 0.03653 0.5808 0.39179 0.0
H3114 H 0.01583 0.56941 0.40259 0.0
H3115 H 0.02128 0.56488 0.53428 0.0
H3116 H 0.04187 0.57614 0.52394 0.0
H3117 H 0.00614 0.57299 0.52144 0.0
H3118 H 0.01255 0.54308 0.46976 0.0
H3119 H 0.01942 0.53412 0.41848 0.0
H3120 H -0.00258 0.53527 0.32261 0.0
H3121 H 0.99053 0.54439 0.37318 0.0
C3122 C 0.95276 0.53606 0.55226 0.0
C3123 C 0.9449 0.53316 0.51881 0.0
C3124 C 0.96443 0.54103 0.54387 0.0
C3125 C 0.96848 0.54344 0.50196 0.0
C3126 C 0.96062 0.54025 0.46849 0.0
C3127 C 0.94894 0.53513 0.47681 0.0
C3128 C 0.98093 0.54955 0.49307 0.0
C3129 C 0.98525 0.54482 0.46383 0.0
C3130 C 0.98856 0.55991 0.51371 0.0
C3131 C 0.9845 0.56589 0.5421 0.0
C3132 C 0.97648 0.56885 0.52762 0.0
C3133 C 0.97263 0.57441 0.5546 0.0
C3134 C 0.97681 0.57714 0.59604 0.0
C3135 C 0.98487 0.57434 0.61056 0.0
C3136 C 0.98874 0.56877 0.58372 0.0
C3137 C 0.03332 0.57727 0.42292 0.0
C3138 C 0.04087 0.57942 0.45703 0.0
C3139 C 0.02151 0.57075 0.42899 0.0
C3140 C 0.01706 0.56633 0.46924 0.0
C3141 C 0.02456 0.56825 0.50301 0.0
C3142 C 0.03634 0.57466 0.49695 0.0
C3143 C 0.00461 0.56023 0.47698 0.0
C3144 C 0.0003 0.565 0.50587 0.0
C3145 C -0.003 0.55004 0.45551 0.0
C3146 C 0.00111 0.54452 0.42514 0.0
C3147 C 0.00925 0.54152 0.43764 0.0
C3148 C 0.01313 0.53639 0.40872 0.0
C3149 C 0.00888 0.53415 0.36728 0.0
C3150 C 0.00072 0.53702 0.3547 0.0
C3151 C -0.00319 0.54216 0.38349 0.0
H3152 H 0.0119 0.53018 0.34494 0.0
H3153 H 0.97381 0.58144 0.61689 0.0
H3154 H 0.39898 0.44943 0.54512 0.0
H3155 H 0.40925 0.43905 0.55479 0.0
H3156 H 0.41354 0.43868 0.41926 0.0
H3157 H 0.40288 0.44875 0.40924 0.0
H3158 H 0.40914 0.41902 0.45196 0.0
H3159 H 0.43527 0.45818 0.48424 0.0
H3160 H 0.44196 0.47673 0.51946 0.0
H3161 H 0.43927 0.46122 0.64094 0.0
H3162 H 0.43241 0.44254 0.60647 0.0
H3163 H 0.45511 0.40769 0.46154 0.0
H3164 H 0.4441 0.41727 0.44999 0.0
H3165 H 0.43541 0.41379 0.58284 0.0
H3166 H 0.44641 0.40417 0.59485 0.0
H3167 H 0.44234 0.43551 0.55009 0.0
H3168 H 0.41619 0.39614 0.51504 0.0
H3169 H 0.41012 0.37801 0.47753 0.0
H3170 H 0.41382 0.39466 0.35784 0.0
H3171 H 0.42008 0.41294 0.39464 0.0
C3172 C 0.40205 0.44708 0.51733 0.0
C3173 C 0.40023 0.45 0.47643 0.0
C3174 C 0.40796 0.44119 0.52292 0.0
C3175 C 0.41241 0.43834 0.48782 0.0
C3176 C 0.41024 0.44086 0.44681 0.0
C3177 C 0.40416 0.44662 0.44113 0.0
C3178 C 0.41953 0.43297 0.49411 0.0
C3179 C 0.41649 0.42271 0.47296 0.0
C3180 C 0.42904 0.43771 0.52197 0.0
C3181 C 0.43323 0.44894 0.54279 0.0
C3182 C 0.43603 0.45871 0.51849 0.0
C3183 C 0.43986 0.46925 0.53831 0.0
C3184 C 0.44101 0.47015 0.58241 0.0
C3185 C 0.43836 0.46051 0.60678 0.0
C3186 C 0.43451 0.44995 0.58712 0.0
C3187 C 0.45092 0.40901 0.48841 0.0
C3188 C 0.45161 0.40513 0.52913 0.0
C3189 C 0.44459 0.41443 0.48166 0.0
C3190 C 0.43886 0.41611 0.51548 0.0
C3191 C 0.43976 0.41252 0.55634 0.0
C3192 C 0.44603 0.40702 0.5631 0.0
C3193 C 0.4319 0.42157 0.50819 0.0
C3194 C 0.43499 0.43185 0.52909 0.0
C3195 C 0.42254 0.41693 0.47973 0.0
C3196 C 0.41872 0.40593 0.45759 0.0
C3197 C 0.4158 0.39596 0.48071 0.0
C3198 C 0.41231 0.38565 0.45958 0.0
C3199 C 0.41161 0.38519 0.41532 0.0
C3200 C 0.41438 0.39504 0.39212 0.0
C3201 C 0.41789 0.40537 0.4131 0.0
H3202 H 0.4089 0.3772 0.39902 0.0
H3203 H 0.44398 0.47831 0.5977 0.0
H3204 H 0.21392 0.06575 0.1923 0.0
H3205 H 0.20951 0.08086 0.20617 0.0
H3206 H 0.23391 0.09332 0.30886 0.0
H3207 H 0.23811 0.07794 0.29601 0.0
H3208 H 0.21558 0.09742 0.32209 0.0
H3209 H 0.24339 0.1033 0.21469 0.0
H3210 H 0.25041 0.09818 0.15094 0.0
H3211 H 0.22348 0.09768 0.07685 0.0
H3212 H 0.2162 0.10262 0.14039 0.0
H3213 H 0.23866 0.15806 0.29083 0.0
H3214 H 0.23351 0.13834 0.30711 0.0
H3215 H 0.21052 0.12651 0.19999 0.0
H3216 H 0.21585 0.14613 0.18301 0.0
H3217 H 0.22704 0.12145 0.19256 0.0
H3218 H 0.20074 0.11819 0.30094 0.0
H3219 H 0.19456 0.12381 0.36562 0.0
H3220 H 0.21951 0.12044 0.43885 0.0
H3221 H 0.22597 0.11495 0.37447 0.0
C3222 C 0.21812 0.07152 0.21856 0.0
C3223 C 0.22654 0.07086 0.24248 0.0
C3224 C 0.21555 0.0801 0.2266 0.0
C3225 C 0.22157 0.08832 0.25792 0.0
C3226 C 0.22919 0.08705 0.2845 0.0
C3227 C 0.23163 0.07832 0.27694 0.0
C3228 C 0.22144 0.09917 0.25756 0.0
C3229 C 0.21812 0.10274 0.29395 0.0
C3230 C 0.22474 0.10605 0.22072 0.0
C3231 C 0.22918 0.10321 0.18236 0.0
C3232 C 0.23892 0.10202 0.18486 0.0
C3233 C 0.24295 0.09916 0.14877 0.0
C3234 C 0.23737 0.09758 0.10989 0.0
C3235 C 0.22778 0.09889 0.10701 0.0
C3236 C 0.2237 0.10172 0.14304 0.0
C3237 C 0.23224 0.1512 0.27163 0.0
C3238 C 0.22781 0.15358 0.2352 0.0
C3239 C 0.22927 0.13994 0.28106 0.0
C3240 C 0.22169 0.13099 0.25454 0.0
C3241 C 0.21644 0.13331 0.22067 0.0
C3242 C 0.21952 0.14451 0.21091 0.0
C3243 C 0.22089 0.1197 0.25677 0.0
C3244 C 0.22427 0.1161 0.22066 0.0
C3245 C 0.21777 0.11296 0.294 0.0
C3246 C 0.21391 0.11626 0.33276 0.0
C3247 C 0.20499 0.11875 0.33075 0.0
C3248 C 0.20142 0.12189 0.36739 0.0
C3249 C 0.20666 0.12251 0.4063 0.0
C3250 C 0.21547 0.11996 0.40867 0.0
C3251 C 0.21908 0.11682 0.37212 0.0
H3252 H 0.20388 0.12494 0.43463 0.0
H3253 H 0.2405 0.09536 0.08198 0.0
H3254 H 0.84763 0.07563 0.19272 0.0
H3255 H 0.86629 0.08895 0.2219 0.0
H3256 H 0.85093 0.08788 0.34297 0.0
H3257 H 0.83206 0.07442 0.31377 0.0
H3258 H 0.86401 0.1094 0.3137 0.0
H3259 H 0.8699 0.07867 0.33956 0.0
H3260 H 0.86923 0.06038 0.32683 0.0
H3261 H 0.89145 0.07482 0.21956 0.0
H3262 H 0.89212 0.09314 0.23114 0.0
H3263 H 0.9193 0.15751 0.30725 0.0
H3264 H 0.90574 0.13919 0.33963 0.0
H3265 H 0.90162 0.12245 0.21909 0.0
H3266 H 0.91514 0.14056 0.18683 0.0
H3267 H 0.8996 0.10843 0.28542 0.0
H3268 H 0.88515 0.13446 0.24459 0.0
H3269 H 0.88505 0.15257 0.25209 0.0
H3270 H 0.87847 0.14639 0.38553 0.0
H3271 H 0.87865 0.12829 0.37877 0.0
C3272 C 0.8482 0.07809 0.22572 0.0
C3273 C 0.83836 0.07406 0.25081 0.0
C3274 C 0.85891 0.0856 0.24256 0.0
C3275 C 0.86002 0.08926 0.28483 0.0
C3276 C 0.85025 0.08504 0.31043 0.0
C3277 C 0.8395 0.0774 0.29365 0.0
C3278 C 0.87117 0.0987 0.29933 0.0
C3279 C 0.87181 0.1091 0.30926 0.0
C3280 C 0.88134 0.09831 0.29352 0.0
C3281 C 0.88107 0.08732 0.28635 0.0
C3282 C 0.87461 0.07794 0.31313 0.0
C3283 C 0.87423 0.06756 0.30611 0.0
C3284 C 0.88031 0.06645 0.27243 0.0
C3285 C 0.88678 0.07571 0.24571 0.0
C3286 C 0.88718 0.08611 0.25257 0.0
C3287 C 0.91573 0.14987 0.28798 0.0
C3288 C 0.91807 0.1505 0.24426 0.0
C3289 C 0.90801 0.13942 0.30657 0.0
C3290 C 0.90257 0.12951 0.28161 0.0
C3291 C 0.90572 0.12999 0.23896 0.0
C3292 C 0.91337 0.14039 0.22042 0.0
C3293 C 0.89228 0.11911 0.29665 0.0
C3294 C 0.89182 0.10857 0.29231 0.0
C3295 C 0.88223 0.11934 0.30732 0.0
C3296 C 0.88205 0.13014 0.3113 0.0
C3297 C 0.88374 0.13701 0.27553 0.0
C3298 C 0.88367 0.14726 0.27965 0.0
C3299 C 0.88179 0.15064 0.31929 0.0
C3300 C 0.87995 0.14377 0.35487 0.0
C3301 C 0.88004 0.13352 0.35093 0.0
H3302 H 0.88174 0.15858 0.32242 0.0
H3303 H 0.88 0.0584 0.26704 0.0
H3304 H 0.91498 0.75125 0.33372 0.0
H3305 H 0.90055 0.75441 0.36866 0.0
H3306 H 0.89789 0.7709 0.25553 0.0
H3307 H 0.91214 0.76783 0.22082 0.0
H3308 H 0.89586 0.78109 0.32869 0.0
H3309 H 0.88086 0.74193 0.26827 0.0
H3310 H 0.88009 0.72332 0.26784 0.0
H3311 H 0.87175 0.71911 0.4005 0.0
H3312 H 0.87258 0.73776 0.40166 0.0
H3313 H 0.84777 0.76674 0.21764 0.0
H3314 H 0.86515 0.77063 0.25444 0.0
H3315 H 0.84549 0.75248 0.36449 0.0
H3316 H 0.82788 0.74854 0.32755 0.0
H3317 H 0.85918 0.74452 0.33646 0.0
H3318 H 0.86511 0.78023 0.3779 0.0
H3319 H 0.86526 0.79847 0.37254 0.0
H3320 H 0.89043 0.8095 0.27387 0.0
H3321 H 0.89032 0.79128 0.27806 0.0
C3322 C 0.91146 0.75575 0.31673 0.0
C3323 C 0.91452 0.75912 0.2743 0.0
C3324 C 0.90327 0.75758 0.33676 0.0
C3325 C 0.89814 0.76285 0.31461 0.0
C3326 C 0.90179 0.76688 0.27331 0.0
C3327 C 0.90984 0.76499 0.2533 0.0
C3328 C 0.88785 0.7628 0.33064 0.0
C3329 C 0.88782 0.77315 0.33128 0.0
C3330 C 0.87746 0.75244 0.33595 0.0
C3331 C 0.87691 0.74125 0.33517 0.0
C3332 C 0.87891 0.73704 0.29734 0.0
C3333 C 0.87846 0.7265 0.29697 0.0
C3334 C 0.87591 0.72005 0.33416 0.0
C3335 C 0.87376 0.72413 0.37176 0.0
C3336 C 0.87423 0.73468 0.3723 0.0
C3337 C 0.84712 0.76371 0.2499 0.0
C3338 C 0.83646 0.75723 0.26954 0.0
C3339 C 0.85709 0.76608 0.27117 0.0
C3340 C 0.85663 0.762 0.31249 0.0
C3341 C 0.84603 0.75582 0.33282 0.0
C3342 C 0.836 0.75355 0.31163 0.0
C3343 C 0.86709 0.76279 0.33068 0.0
C3344 C 0.86718 0.75257 0.33664 0.0
C3345 C 0.87751 0.77329 0.33116 0.0
C3346 C 0.87773 0.78436 0.32848 0.0
C3347 C 0.87065 0.78652 0.35493 0.0
C3348 C 0.87073 0.79687 0.35209 0.0
C3349 C 0.87786 0.80515 0.32293 0.0
C3350 C 0.88494 0.8031 0.29654 0.0
C3351 C 0.88489 0.79277 0.29924 0.0
H3352 H 0.8779 0.81315 0.32076 0.0
H3353 H 0.87556 0.71189 0.33381 0.0
H3354 H 0.0722 0.23627 0.69378 0.0
H3355 H 0.08914 0.23443 0.68181 0.0
H3356 H 0.08956 0.22671 0.81431 0.0
H3357 H 0.07276 0.22849 0.82664 0.0
H3358 H 0.10983 0.24522 0.78521 0.0
H3359 H 0.08247 0.20645 0.7443 0.0
H3360 H 0.06667 0.19176 0.70155 0.0
H3361 H 0.08662 0.20519 0.58831 0.0
H3362 H 0.10249 0.22007 0.63037 0.0
H3363 H 0.14834 0.22753 0.8235 0.0
H3364 H 0.12966 0.22542 0.80989 0.0
H3365 H 0.13943 0.23663 0.68091 0.0
H3366 H 0.15832 0.23881 0.69415 0.0
H3367 H 0.11492 0.21788 0.69596 0.0
H3368 H 0.14266 0.25604 0.73728 0.0
H3369 H 0.15854 0.27049 0.78044 0.0
H3370 H 0.13772 0.25836 0.89223 0.0
H3371 H 0.12177 0.2437 0.84982 0.0
C3372 C 0.07579 0.23399 0.7202 0.0
C3373 C 0.07122 0.23267 0.76129 0.0
C3374 C 0.08544 0.23292 0.71325 0.0
C3375 C 0.09059 0.23051 0.74726 0.0
C3376 C 0.08571 0.22864 0.78774 0.0
C3377 C 0.0761 0.22967 0.79469 0.0
C3378 C 0.10166 0.23097 0.74222 0.0
C3379 C 0.11092 0.23921 0.76578 0.0
C3380 C 0.10315 0.2234 0.71566 0.0
C3381 C 0.09361 0.21447 0.69041 0.0
C3382 C 0.08345 0.20635 0.71023 0.0
C3383 C 0.07449 0.19797 0.68614 0.0
C3384 C 0.07562 0.19757 0.64222 0.0
C3385 C 0.08574 0.20553 0.62232 0.0
C3386 C 0.09472 0.21393 0.64627 0.0
C3387 C 0.14651 0.22938 0.79197 0.0
C3388 C 0.15489 0.23354 0.76012 0.0
C3389 C 0.1358 0.2281 0.78423 0.0
C3390 C 0.13327 0.23099 0.74459 0.0
C3391 C 0.14127 0.23436 0.71168 0.0
C3392 C 0.15205 0.23565 0.7194 0.0
C3393 C 0.12288 0.23187 0.74009 0.0
C3394 C 0.11383 0.22398 0.71473 0.0
C3395 C 0.12153 0.23981 0.76482 0.0
C3396 C 0.13105 0.24872 0.79041 0.0
C3397 C 0.1415 0.25639 0.77112 0.0
C3398 C 0.15051 0.26463 0.79544 0.0
C3399 C 0.14915 0.26533 0.83907 0.0
C3400 C 0.13876 0.2578 0.85844 0.0
C3401 C 0.12973 0.24954 0.83426 0.0
H3402 H 0.15614 0.27171 0.85785 0.0
H3403 H 0.06868 0.19107 0.62363 0.0
H3404 H 0.74951 0.82973 0.66679 0.0
H3405 H 0.75136 0.84693 0.63332 0.0
H3406 H 0.766 0.8658 0.74879 0.0
H3407 H 0.76421 0.84879 0.78219 0.0
H3408 H 0.73994 0.85696 0.66095 0.0
H3409 H 0.78343 0.89278 0.73233 0.0
H3410 H 0.80309 0.89638 0.74041 0.0
H3411 H 0.79777 0.87344 0.63763 0.0
H3412 H 0.77812 0.86981 0.6284 0.0
H3413 H 0.7406 0.89909 0.77948 0.0
H3414 H 0.74344 0.88452 0.74577 0.0
H3415 H 0.75978 0.90682 0.63927 0.0
H3416 H 0.75673 0.92152 0.67272 0.0
H3417 H 0.77217 0.89646 0.67971 0.0
H3418 H 0.7373 0.88563 0.61195 0.0
H3419 H 0.71761 0.88202 0.60458 0.0
H3420 H 0.70601 0.85512 0.69663 0.0
H3421 H 0.72564 0.85867 0.70511 0.0
C3422 C 0.75336 0.83762 0.68467 0.0
C3423 C 0.75659 0.83789 0.72731 0.0
C3424 C 0.75443 0.84743 0.66545 0.0
C3425 C 0.75894 0.85766 0.68836 0.0
C3426 C 0.76272 0.85806 0.73015 0.0
C3427 C 0.76156 0.84828 0.74943 0.0
C3428 C 0.75802 0.86744 0.67218 0.0
C3429 C 0.74704 0.86561 0.6639 0.0
C3430 C 0.76736 0.87872 0.67454 0.0
C3431 C 0.77927 0.88103 0.67962 0.0
C3432 C 0.78647 0.88858 0.71112 0.0
C3433 C 0.79761 0.8906 0.716 0.0
C3434 C 0.80167 0.88515 0.68955 0.0
C3435 C 0.79461 0.87765 0.65814 0.0
C3436 C 0.78346 0.8756 0.6531 0.0
C3437 C 0.74474 0.9009 0.74879 0.0
C3438 C 0.74849 0.91144 0.72879 0.0
C3439 C 0.74628 0.89254 0.72943 0.0
C3440 C 0.75171 0.89459 0.68993 0.0
C3441 C 0.75548 0.90509 0.66963 0.0
C3442 C 0.75374 0.91344 0.68873 0.0
C3443 C 0.75399 0.88583 0.67244 0.0
C3444 C 0.7652 0.88784 0.67455 0.0
C3445 C 0.74488 0.87472 0.66415 0.0
C3446 C 0.73298 0.87241 0.65907 0.0
C3447 C 0.73056 0.87897 0.63077 0.0
C3448 C 0.7194 0.87693 0.62639 0.0
C3449 C 0.71056 0.86834 0.65009 0.0
C3450 C 0.71286 0.86176 0.67821 0.0
C3451 C 0.72401 0.86376 0.68273 0.0
H3452 H 0.70193 0.86678 0.64667 0.0
H3453 H 0.8103 0.88672 0.69341 0.0
H3454 H 0.14456 0.92142 0.79195 0.0
H3455 H 0.12698 0.90502 0.76665 0.0
H3456 H 0.14476 0.90255 0.65728 0.0
H3457 H 0.16248 0.91901 0.68245 0.0
H3458 H 0.11277 0.89631 0.69471 0.0
H3459 H 0.13806 0.87466 0.65613 0.0
H3460 H 0.1573 0.87717 0.6664 0.0
H3461 H 0.16018 0.89337 0.78651 0.0
H3462 H 0.14091 0.89082 0.77711 0.0
H3463 H 0.07153 0.83513 0.69223 0.0
H3464 H 0.08751 0.85315 0.66585 0.0
H3465 H 0.10345 0.85968 0.78915 0.0
H3466 H 0.08757 0.84191 0.81582 0.0
H3467 H 0.11839 0.86322 0.71913 0.0
H3468 H 0.08893 0.87187 0.76735 0.0
H3469 H 0.06968 0.86964 0.76377 0.0
H3470 H 0.07496 0.87959 0.63267 0.0
H3471 H 0.0942 0.88174 0.63542 0.0
C3472 C 0.14468 0.9176 0.7619 0.0
C3473 C 0.15494 0.92131 0.73973 0.0
C3474 C 0.13459 0.9083 0.74723 0.0
C3475 C 0.13464 0.90251 0.71042 0.0
C3476 C 0.1446 0.9069 0.68586 0.0
C3477 C 0.15471 0.91628 0.70041 0.0
C3478 C 0.12508 0.89081 0.70356 0.0
C3479 C 0.11398 0.88903 0.6988 0.0
C3480 C 0.12669 0.88133 0.70917 0.0
C3481 C 0.13814 0.88267 0.71565 0.0
C3482 C 0.1428 0.87872 0.68475 0.0
C3483 C 0.15371 0.88015 0.69042 0.0
C3484 C 0.15998 0.88546 0.72701 0.0
C3485 C 0.15533 0.88929 0.75813 0.0
C3486 C 0.14442 0.88785 0.75266 0.0
C3487 C 0.07849 0.8404 0.71357 0.0
C3488 C 0.0783 0.83715 0.75614 0.0
C3489 C 0.08757 0.85065 0.69846 0.0
C3490 C 0.09662 0.85765 0.72559 0.0
C3491 C 0.09654 0.85431 0.76774 0.0
C3492 C 0.08744 0.84421 0.78298 0.0
C3493 C 0.10608 0.86876 0.71148 0.0
C3494 C 0.11716 0.87041 0.71259 0.0
C3495 C 0.10443 0.87809 0.70295 0.0
C3496 C 0.09291 0.87681 0.70142 0.0
C3497 C 0.08593 0.87348 0.73768 0.0
C3498 C 0.07504 0.87225 0.73582 0.0
C3499 C 0.07108 0.87443 0.69797 0.0
C3500 C 0.07802 0.87787 0.66193 0.0
C3501 C 0.08892 0.8791 0.66362 0.0
H3502 H 0.06265 0.87348 0.6966 0.0
H3503 H 0.16843 0.88659 0.7313 0.0
H3504 H 0.90157 0.4065 0.6518 0.0
H3505 H 0.897 0.42022 0.68405 0.0
H3506 H 0.88018 0.4208 0.56838 0.0
H3507 H 0.88457 0.40715 0.53641 0.0
H3508 H 0.90573 0.44121 0.65449 0.0
H3509 H 0.86068 0.4277 0.5815 0.0
H3510 H 0.84204 0.41014 0.57371 0.0
H3511 H 0.84993 0.395 0.67855 0.0
H3512 H 0.86856 0.41253 0.68749 0.0
H3513 H 0.88641 0.47525 0.53695 0.0
H3514 H 0.88208 0.45691 0.56636 0.0
H3515 H 0.89718 0.47301 0.68575 0.0
H3516 H 0.9017 0.49156 0.65626 0.0
H3517 H 0.87039 0.44321 0.63405 0.0
H3518 H 0.91255 0.46034 0.71884 0.0
H3519 H 0.93164 0.4776 0.72275 0.0
H3520 H 0.92953 0.48433 0.59087 0.0
H3521 H 0.91049 0.46706 0.58619 0.0
C3522 C 0.89663 0.40934 0.63372 0.0
C3523 C 0.89357 0.40588 0.59135 0.0
C3524 C 0.89402 0.41715 0.65223 0.0
C3525 C 0.88816 0.42146 0.62883 0.0
C3526 C 0.88449 0.41744 0.58747 0.0
C3527 C 0.88715 0.40972 0.56896 0.0
C3528 C 0.88755 0.43152 0.64373 0.0
C3529 C 0.89791 0.44156 0.65175 0.0
C3530 C 0.87736 0.432 0.64009 0.0
C3531 C 0.86606 0.42147 0.6352 0.0
C3532 C 0.85842 0.42068 0.60321 0.0
C3533 C 0.84785 0.41071 0.5985 0.0
C3534 C 0.84481 0.40146 0.62561 0.0
C3535 C 0.85231 0.40217 0.65752 0.0
C3536 C 0.86289 0.41212 0.66239 0.0
C3537 C 0.88869 0.47491 0.56966 0.0
C3538 C 0.89459 0.48489 0.59401 0.0
C3539 C 0.88609 0.46438 0.58659 0.0
C3540 C 0.88937 0.46362 0.62813 0.0
C3541 C 0.89463 0.47345 0.65354 0.0
C3542 C 0.89722 0.48403 0.63659 0.0
C3543 C 0.88865 0.45281 0.64168 0.0
C3544 C 0.87806 0.4427 0.63909 0.0
C3545 C 0.89861 0.45222 0.65012 0.0
C3546 C 0.91007 0.46254 0.65238 0.0
C3547 C 0.91618 0.46552 0.69073 0.0
C3548 C 0.92699 0.47529 0.69306 0.0
C3549 C 0.93178 0.48208 0.65712 0.0
C3550 C 0.9258 0.47909 0.61872 0.0
C3551 C 0.915 0.46932 0.61621 0.0
H3552 H 0.94014 0.48965 0.65901 0.0
H3553 H 0.83663 0.39375 0.62188 0.0
H3554 H 0.5136 0.40881 0.55572 0.0
H3555 H 0.5313 0.4232 0.58834 0.0
H3556 H 0.51257 0.42453 0.69684 0.0
H3557 H 0.49465 0.40991 0.66418 0.0
H3558 H 0.52587 0.44536 0.66019 0.0
H3559 H 0.53223 0.41693 0.71517 0.0
H3560 H 0.53251 0.39888 0.71772 0.0
H3561 H 0.55722 0.41057 0.61726 0.0
H3562 H 0.55697 0.42862 0.61355 0.0
H3563 H 0.5808 0.49458 0.65539 0.0
H3564 H 0.56673 0.47713 0.6918 0.0
H3565 H 0.56554 0.4572 0.58312 0.0
H3566 H 0.57949 0.47445 0.54686 0.0
H3567 H 0.56266 0.44554 0.65888 0.0
H3568 H 0.54818 0.46857 0.58728 0.0
H3569 H 0.54732 0.48627 0.57971 0.0
H3570 H 0.5375 0.48411 0.71041 0.0
H3571 H 0.53844 0.46644 0.71877 0.0
C3572 C 0.51324 0.412 0.58686 0.0
C3573 C 0.50275 0.40833 0.60722 0.0
C3574 C 0.52339 0.42014 0.60575 0.0
C3575 C 0.52327 0.42484 0.64529 0.0
C3576 C 0.51284 0.4209 0.66653 0.0
C3577 C 0.50264 0.41259 0.64782 0.0
C3578 C 0.53385 0.435 0.66019 0.0
C3579 C 0.5339 0.44538 0.66176 0.0
C3580 C 0.54431 0.43501 0.66217 0.0
C3581 C 0.54459 0.42418 0.66418 0.0
C3582 C 0.53769 0.41565 0.69346 0.0
C3583 C 0.53784 0.40541 0.69512 0.0
C3584 C 0.54488 0.40359 0.6677 0.0
C3585 C 0.55179 0.41201 0.63856 0.0
C3586 C 0.55167 0.42227 0.63675 0.0
C3587 C 0.57777 0.48643 0.63983 0.0
C3588 C 0.58106 0.48587 0.59799 0.0
C3589 C 0.56975 0.47649 0.66068 0.0
C3590 C 0.56503 0.4659 0.63996 0.0
C3591 C 0.5691 0.46527 0.59974 0.0
C3592 C 0.57699 0.47516 0.57885 0.0
C3593 C 0.55459 0.45577 0.65583 0.0
C3594 C 0.5546 0.44546 0.65994 0.0
C3595 C 0.54415 0.45577 0.65889 0.0
C3596 C 0.54352 0.46631 0.65379 0.0
C3597 C 0.5459 0.47192 0.61442 0.0
C3598 C 0.54539 0.48193 0.60999 0.0
C3599 C 0.54239 0.48633 0.6446 0.0
C3600 C 0.53986 0.48071 0.68367 0.0
C3601 C 0.54038 0.4707 0.68829 0.0
H3602 H 0.542 0.49409 0.64111 0.0
H3603 H 0.54499 0.39565 0.66902 0.0
H3604 H 0.58028 0.10208 0.52971 0.0
H3605 H 0.56622 0.10675 0.55583 0.0
H3606 H 0.56587 0.09179 0.67711 0.0
H3607 H 0.58006 0.08702 0.65093 0.0
H3608 H 0.54485 0.08274 0.64287 0.0
H3609 H 0.57414 0.11991 0.67417 0.0
H3610 H 0.59208 0.13812 0.66443 0.0
H3611 H 0.57811 0.14544 0.55438 0.0
H3612 H 0.56014 0.1272 0.56299 0.0
H3613 H 0.49553 0.08832 0.63731 0.0
H3614 H 0.51395 0.09279 0.6682 0.0
H3615 H 0.53042 0.10673 0.54831 0.0
H3616 H 0.5122 0.10243 0.51748 0.0
H3617 H 0.54427 0.11853 0.61535 0.0
H3618 H 0.5196 0.07849 0.5705 0.0
H3619 H 0.50195 0.05976 0.57498 0.0
H3620 H 0.50783 0.05792 0.70792 0.0
H3621 H 0.52547 0.07671 0.70422 0.0
C3622 C 0.57738 0.09995 0.5622 0.0
C3623 C 0.58117 0.09406 0.58811 0.0
C3624 C 0.56943 0.10276 0.5773 0.0
C3625 C 0.56509 0.09975 0.61862 0.0
C3626 C 0.5692 0.09428 0.64527 0.0
C3627 C 0.57728 0.09155 0.63024 0.0
C3628 C 0.55507 0.10078 0.63062 0.0
C3629 C 0.54479 0.09067 0.63855 0.0
C3630 C 0.55498 0.1111 0.62468 0.0
C3631 C 0.56576 0.12216 0.61931 0.0
C3632 C 0.5749 0.12537 0.64776 0.0
C3633 C 0.58508 0.13571 0.64244 0.0
C3634 C 0.58623 0.14294 0.60883 0.0
C3635 C 0.5772 0.13984 0.58047 0.0
C3636 C 0.56699 0.12952 0.58563 0.0
C3637 C 0.50312 0.09257 0.61783 0.0
C3638 C 0.50238 0.09482 0.57471 0.0
C3639 C 0.51363 0.09513 0.63557 0.0
C3640 C 0.52351 0.09997 0.61039 0.0
C3641 C 0.5229 0.10301 0.56834 0.0
C3642 C 0.51244 0.10044 0.55062 0.0
C3643 C 0.53412 0.1004 0.62489 0.0
C3644 C 0.54446 0.11076 0.62193 0.0
C3645 C 0.5343 0.09031 0.63504 0.0
C3646 C 0.52374 0.07904 0.63722 0.0
C3647 C 0.51708 0.07411 0.60072 0.0
C3648 C 0.50709 0.06349 0.6031 0.0
C3649 C 0.50375 0.05767 0.64175 0.0
C3650 C 0.51041 0.06245 0.67805 0.0
C3651 C 0.5204 0.07308 0.67583 0.0
H3652 H 0.49601 0.04945 0.64354 0.0
H3653 H 0.59412 0.15093 0.60475 0.0
H3654 H 0.73894 0.55631 0.12416 0.0
H3655 H 0.75584 0.5557 0.10155 0.0
H3656 H 0.75582 0.57142 0.98269 0.0
H3657 H 0.73884 0.57218 0.00514 0.0
H3658 H 0.7633 0.54961 0.00352 0.0
H3659 H 0.7732 0.59034 0.00958 0.0
H3660 H 0.77011 0.60531 0.04066 0.0
H3661 H 0.77652 0.59685 0.16515 0.0
H3662 H 0.77951 0.58173 0.13473 0.0
H3663 H 0.82567 0.57078 0.0178 0.0
H3664 H 0.80761 0.56903 0.99286 0.0
H3665 H 0.7961 0.56581 0.12227 0.0
H3666 H 0.81383 0.56739 0.14735 0.0
H3667 H 0.79549 0.58348 0.07204 0.0
H3668 H 0.78519 0.54326 0.06875 0.0
H3669 H 0.78726 0.5272 0.04277 0.0
H3670 H 0.78127 0.53404 0.91511 0.0
H3671 H 0.77932 0.55024 0.94035 0.0
C3672 C 0.74232 0.55939 0.09276 0.0
C3673 C 0.73768 0.5645 0.06678 0.0
C3674 C 0.75192 0.55894 0.07977 0.0
C3675 C 0.75703 0.56355 0.04061 0.0
C3676 C 0.75191 0.56778 0.01295 0.0
C3677 C 0.74225 0.56824 0.02595 0.0
C3678 C 0.76875 0.56583 0.03346 0.0
C3679 C 0.77047 0.55719 0.01699 0.0
C3680 C 0.778 0.57564 0.0517 0.0
C3681 C 0.7765 0.58489 0.06994 0.0
C3682 C 0.7739 0.59165 0.04359 0.0
C3683 C 0.77217 0.60016 0.06107 0.0
C3684 C 0.7731 0.60202 0.10487 0.0
C3685 C 0.7758 0.5954 0.13124 0.0
C3686 C 0.77752 0.58687 0.1139 0.0
C3687 C 0.81923 0.56959 0.04085 0.0
C3688 C 0.82123 0.5693 0.08459 0.0
C3689 C 0.80895 0.56858 0.02653 0.0
C3690 C 0.80062 0.56738 0.05584 0.0
C3691 C 0.80249 0.56681 0.09925 0.0
C3692 C 0.81263 0.56769 0.11348 0.0
C3693 C 0.79008 0.56721 0.0425 0.0
C3694 C 0.78855 0.5762 0.05609 0.0
C3695 C 0.78109 0.55776 0.02135 0.0
C3696 C 0.78229 0.54805 0.00632 0.0
C3697 C 0.78445 0.54141 0.03509 0.0
C3698 C 0.78556 0.53227 0.02052 0.0
C3699 C 0.78445 0.52963 0.97729 0.0
C3700 C 0.78217 0.53611 0.94857 0.0
C3701 C 0.78105 0.54527 0.96298 0.0
H3702 H 0.78531 0.52254 0.96608 0.0
H3703 H 0.77174 0.6086 0.11835 0.0
H3704 H 0.43934 0.17594 0.11824 0.0
H3705 H 0.44355 0.19538 0.10413 0.0
H3706 H 0.41822 0.18305 0.00462 0.0
H3707 H 0.41418 0.16352 0.01779 0.0
H3708 H 0.43695 0.20592 0.99063 0.0
H3709 H 0.40905 0.18358 0.09703 0.0
H3710 H 0.40197 0.17104 0.15974 0.0
H3711 H 0.429 0.19684 0.23531 0.0
H3712 H 0.43636 0.20946 0.17281 0.0
H3713 H 0.41683 0.24595 0.02977 0.0
H3714 H 0.42029 0.23034 0.01113 0.0
H3715 H 0.44369 0.23939 0.11642 0.0
H3716 H 0.4401 0.25474 0.13564 0.0
H3717 H 0.42596 0.21809 0.12237 0.0
H3718 H 0.45284 0.24129 0.01506 0.0
H3719 H 0.45932 0.25353 0.95151 0.0
H3720 H 0.43343 0.22633 0.87683 0.0
H3721 H 0.42669 0.21397 0.94009 0.0
C3722 C 0.4349 0.17741 0.09253 0.0
C3723 C 0.42626 0.16824 0.06972 0.0
C3724 C 0.43736 0.18851 0.08434 0.0
C3725 C 0.43102 0.19057 0.05394 0.0
C3726 C 0.42318 0.1816 0.02823 0.0
C3727 C 0.42084 0.17045 0.03596 0.0
C3728 C 0.43105 0.20149 0.055 0.0
C3729 C 0.43448 0.20861 0.01921 0.0
C3730 C 0.42782 0.20491 0.09238 0.0
C3731 C 0.42332 0.19741 0.13017 0.0
C3732 C 0.41353 0.18654 0.12695 0.0
C3733 C 0.40946 0.17942 0.16246 0.0
C3734 C 0.41505 0.18313 0.20146 0.0
C3735 C 0.4247 0.19397 0.20506 0.0
C3736 C 0.42881 0.20111 0.16962 0.0
C3737 C 0.42294 0.24478 0.04817 0.0
C3738 C 0.42802 0.25137 0.08464 0.0
C3739 C 0.42495 0.2359 0.03738 0.0
C3740 C 0.43219 0.23368 0.0626 0.0
C3741 C 0.43802 0.24093 0.09673 0.0
C3742 C 0.43592 0.24966 0.10778 0.0
C3743 C 0.43222 0.22283 0.05844 0.0
C3744 C 0.42857 0.21556 0.09374 0.0
C3745 C 0.43514 0.21932 0.0205 0.0
C3746 C 0.43918 0.22674 0.98244 0.0
C3747 C 0.44846 0.23795 0.98519 0.0
C3748 C 0.45219 0.24491 0.94919 0.0
C3749 C 0.44677 0.24072 0.91018 0.0
C3750 C 0.43762 0.22957 0.90708 0.0
C3751 C 0.43384 0.22258 0.94299 0.0
H3752 H 0.44968 0.24612 0.88235 0.0
H3753 H 0.41189 0.17761 0.22892 0.0
H3754 H 0.74072 0.18075 0.13568 0.0
H3755 H 0.75575 0.19884 0.10763 0.0
H3756 H 0.75651 0.18206 0.99238 0.0
H3757 H 0.74133 0.16381 0.02026 0.0
H3758 H 0.7775 0.19414 0.03146 0.0
H3759 H 0.74882 0.20166 0.98391 0.0
H3760 H 0.73104 0.20249 0.987 0.0
H3761 H 0.74467 0.22647 0.08977 0.0
H3762 H 0.76248 0.22566 0.08779 0.0
H3763 H 0.82691 0.24898 0.01185 0.0
H3764 H 0.80833 0.23345 0.98792 0.0
H3765 H 0.79287 0.23614 0.10376 0.0
H3766 H 0.81125 0.25161 0.12766 0.0
H3767 H 0.77855 0.23129 0.03564 0.0
H3768 H 0.80314 0.21807 0.09798 0.0
H3769 H 0.82063 0.21664 0.10096 0.0
H3770 H 0.81421 0.20298 0.97453 0.0
H3771 H 0.79674 0.20445 0.97071 0.0
C3772 C 0.74394 0.18092 0.10408 0.0
C3773 C 0.73992 0.17085 0.08032 0.0
C3774 C 0.75245 0.19129 0.0879 0.0
C3775 C 0.75715 0.19179 0.04776 0.0
C3776 C 0.75291 0.18184 0.02328 0.0
C3777 C 0.74426 0.17144 0.03927 0.0
C3778 C 0.76746 0.20244 0.0346 0.0
C3779 C 0.7777 0.20225 0.0308 0.0
C3780 C 0.76769 0.213 0.03435 0.0
C3781 C 0.757 0.21358 0.0357 0.0
C3782 C 0.74801 0.20706 0.00735 0.0
C3783 C 0.73792 0.20754 0.00888 0.0
C3784 C 0.73673 0.21453 0.03856 0.0
C3785 C 0.74562 0.22107 0.06675 0.0
C3786 C 0.75573 0.22062 0.06537 0.0
C3787 C 0.81949 0.24641 0.03179 0.0
C3788 C 0.82056 0.25139 0.07195 0.0
C3789 C 0.8089 0.23755 0.01806 0.0
C3790 C 0.79927 0.2336 0.04427 0.0
C3791 C 0.8002 0.23909 0.08301 0.0
C3792 C 0.81074 0.24786 0.0968 0.0
C3793 C 0.78854 0.22294 0.03464 0.0
C3794 C 0.77827 0.22315 0.03428 0.0
C3795 C 0.78826 0.21237 0.03158 0.0
C3796 C 0.79875 0.21152 0.03382 0.0
C3797 C 0.80552 0.21485 0.07071 0.0
C3798 C 0.81541 0.21401 0.07258 0.0
C3799 C 0.81855 0.20976 0.03789 0.0
C3800 C 0.81178 0.2063 0.00132 0.0
C3801 C 0.80189 0.20714 -0.00072 0.0
H3802 H 0.82621 0.20911 0.03941 0.0
H3803 H 0.72891 0.21488 0.0397 0.0
H3804 H 0.56629 0.74213 0.96894 0.0
H3805 H 0.56341 0.75822 0.98638 0.0
H3806 H 0.56913 0.76883 0.85541 0.0
H3807 H 0.57189 0.75289 0.83768 0.0
H3808 H 0.5818 0.78654 0.91384 0.0
H3809 H 0.5431 0.75497 0.88898 0.0
H3810 H 0.5266 0.73597 0.90421 0.0
H3811 H 0.52523 0.74642 0.03163 0.0
H3812 H 0.54183 0.76545 0.01726 0.0
H3813 H 0.55254 0.81303 0.83698 0.0
H3814 H 0.55198 0.79575 0.86235 0.0
H3815 H 0.56548 0.81174 0.98323 0.0
H3816 H 0.56616 0.82919 0.95815 0.0
H3817 H 0.54386 0.78137 0.95177 0.0
H3818 H 0.58538 0.81298 0.97549 0.0
H3819 H 0.60096 0.83193 0.95337 0.0
H3820 H 0.5958 0.82095 0.82337 0.0
H3821 H 0.58013 0.80196 0.84487 0.0
C3822 C 0.56694 0.74791 0.94394 0.0
C3823 C 0.56931 0.74625 0.90192 0.0
C3824 C 0.56527 0.75705 0.95395 0.0
C3825 C 0.5661 0.76468 0.92215 0.0
C3826 C 0.56851 0.76305 0.88038 0.0
C3827 C 0.57004 0.7539 0.87029 0.0
C3828 C 0.56446 0.77444 0.93144 0.0
C3829 C 0.57358 0.78542 0.9232 0.0
C3830 C 0.55374 0.77298 0.9437 0.0
C3831 C 0.54379 0.76156 0.95225 0.0
C3832 C 0.53935 0.75317 0.92037 0.0
C3833 C 0.52996 0.74241 0.92881 0.0
C3834 C 0.52489 0.73997 0.96892 0.0
C3835 C 0.52918 0.74831 0.00062 0.0
C3836 C 0.53857 0.75908 0.99234 0.0
C3837 C 0.55512 0.81281 0.86934 0.0
C3838 C 0.5596 0.82256 0.89527 0.0
C3839 C 0.5547 0.80289 0.88389 0.0
C3840 C 0.55872 0.80254 0.92451 0.0
C3841 C 0.56231 0.81189 0.95181 0.0
C3842 C 0.56272 0.82185 0.93731 0.0
C3843 C 0.5612 0.79337 0.93421 0.0
C3844 C 0.55223 0.78251 0.94502 0.0
C3845 C 0.57206 0.79489 0.92454 0.0
C3846 C 0.58163 0.80613 0.91172 0.0
C3847 C 0.5876 0.81464 0.94222 0.0
C3848 C 0.59642 0.82537 0.9298 0.0
C3849 C 0.59936 0.82765 0.88698 0.0
C3850 C 0.59351 0.81918 0.85651 0.0
C3851 C 0.58467 0.80843 0.86879 0.0
H3852 H 0.60618 0.83597 0.87741 0.0
H3853 H 0.51763 0.73164 0.97539 0.0
H3854 H 0.17097 0.7351 0.92945 0.0
H3855 H 0.19059 0.75084 0.94021 0.0
H3856 H 0.18469 0.77103 0.84827 0.0
H3857 H 0.16552 0.75515 0.83568 0.0
H3858 H 0.20359 0.77314 0.83214 0.0
H3859 H 0.18583 0.77511 0.96175 0.0
H3860 H 0.17526 0.76787 0.02886 0.0
H3861 H 0.20127 0.76132 0.07579 0.0
H3862 H 0.21193 0.7684 0.00871 0.0
H3863 H 0.24447 0.82907 0.94339 0.0
H3864 H 0.22778 0.81003 0.94981 0.0
H3865 H 0.24348 0.79674 0.86548 0.0
H3866 H 0.25983 0.81599 0.85657 0.0
H3867 H 0.22085 0.78957 0.97194 0.0
H3868 H 0.2245 0.7778 0.79881 0.0
H3869 H 0.23329 0.78725 0.73103 0.0
H3870 H 0.23222 0.81709 0.7701 0.0
H3871 H 0.22331 0.80776 0.83784 0.0
C3872 C 0.17392 0.74294 0.9118 0.0
C3873 C 0.16683 0.74394 0.88155 0.0
C3874 C 0.18509 0.75194 0.91805 0.0
C3875 C 0.18914 0.76216 0.89513 0.0
C3876 C 0.18185 0.7632 0.86596 0.0
C3877 C 0.17088 0.75414 0.85886 0.0
C3878 C 0.20105 0.77174 0.89989 0.0
C3879 C 0.20735 0.77667 0.86282 0.0
C3880 C 0.206 0.77643 0.93979 0.0
C3881 C 0.1996 0.77215 0.98005 0.0
C3882 C 0.18925 0.77204 0.98626 0.0
C3883 C 0.18325 0.76798 0.02431 0.0
C3884 C 0.18757 0.7641 0.05651 0.0
C3885 C 0.19792 0.7643 0.05078 0.0
C3886 C 0.20395 0.76834 0.01277 0.0
C3887 C 0.24444 0.82203 0.92689 0.0
C3888 C 0.25329 0.82397 0.89888 0.0
C3889 C 0.23491 0.81114 0.93069 0.0
C3890 C 0.23422 0.80199 0.90721 0.0
C3891 C 0.24366 0.80373 0.88286 0.0
C3892 C 0.25301 0.8147 0.87791 0.0
C3893 C 0.22315 0.79116 0.90413 0.0
C3894 C 0.21709 0.78592 0.94139 0.0
C3895 C 0.21812 0.78649 0.86429 0.0
C3896 C 0.22339 0.79214 0.82354 0.0
C3897 C 0.22613 0.78637 0.79285 0.0
C3898 C 0.23113 0.7917 0.75447 0.0
C3899 C 0.23335 0.80278 0.74634 0.0
C3900 C 0.23053 0.80853 0.7765 0.0
C3901 C 0.22552 0.80322 0.81488 0.0
H3902 H 0.23723 0.80689 0.71663 0.0
H3903 H 0.18292 0.76096 0.08595 0.0
H3904 H 0.15891 0.41592 0.9735 0.0
H3905 H 0.17676 0.41585 0.98757 0.0
H3906 H 0.18538 0.42181 0.85482 0.0
H3907 H 0.16781 0.42199 0.84045 0.0
H3908 H 0.18579 0.4026 0.89099 0.0
H3909 H 0.19872 0.44281 0.91961 0.0
H3910 H 0.19823 0.45833 0.95878 0.0
H3911 H 0.20485 0.44625 0.07541 0.0
H3912 H 0.20523 0.43056 0.03693 0.0
H3913 H 0.24136 0.42282 0.83414 0.0
H3914 H 0.22346 0.4219 0.85247 0.0
H3915 H 0.2282 0.41632 0.9838 0.0
H3916 H 0.2463 0.41721 0.96576 0.0
H3917 H 0.21977 0.43225 0.96803 0.0
H3918 H 0.21047 0.39423 0.93758 0.0
H3919 H 0.21127 0.37887 0.89853 0.0
H3920 H 0.19753 0.38618 0.78776 0.0
H3921 H 0.19682 0.40171 0.82589 0.0
C3922 C 0.16468 0.41734 0.94742 0.0
C3923 C 0.1619 0.41889 0.9058 0.0
C3924 C 0.17485 0.4173 0.95555 0.0
C3925 C 0.18228 0.41874 0.92213 0.0
C3926 C 0.17968 0.4206 0.88093 0.0
C3927 C 0.16963 0.42074 0.87284 0.0
C3928 C 0.19261 0.41786 0.92886 0.0
C3929 C 0.19321 0.40904 0.908 0.0
C3930 C 0.20207 0.42601 0.95252 0.0
C3931 C 0.20183 0.43543 0.97551 0.0
C3932 C 0.19995 0.4434 0.95367 0.0
C3933 C 0.19972 0.45224 0.97572 0.0
C3934 C 0.20147 0.45325 0.01959 0.0
C3935 C 0.20347 0.44544 0.04146 0.0
C3936 C 0.2037 0.43658 0.01954 0.0
C3937 C 0.2387 0.42148 0.86703 0.0
C3938 C 0.24521 0.41996 0.89842 0.0
C3939 C 0.22846 0.42095 0.87742 0.0
C3940 C 0.22449 0.41888 0.91932 0.0
C3941 C 0.23115 0.41787 0.95125 0.0
C3942 C 0.24145 0.41836 0.94084 0.0
C3943 C 0.21309 0.4173 0.92839 0.0
C3944 C 0.21225 0.4256 0.9522 0.0
C3945 C 0.20333 0.4086 0.90772 0.0
C3946 C 0.20364 0.39918 0.88461 0.0
C3947 C 0.20769 0.39262 0.9048 0.0
C3948 C 0.20812 0.38387 0.88284 0.0
C3949 C 0.20446 0.38155 0.84069 0.0
C3950 C 0.20036 0.38797 0.82043 0.0
C3951 C 0.19992 0.39674 0.84223 0.0
H3952 H 0.20479 0.37478 0.82373 0.0
H3953 H 0.20129 0.46011 0.0366 0.0
H3954 H 0.40707 0.90053 0.38195 0.0
H3955 H 0.42249 0.8965 0.36732 0.0
H3956 H 0.41621 0.87899 0.48725 0.0
H3957 H 0.40099 0.88317 0.50239 0.0
H3958 H 0.43735 0.89697 0.48195 0.0
H3959 H 0.41284 0.86497 0.39414 0.0
H3960 H 0.39928 0.855 0.33583 0.0
H3961 H 0.4241 0.87736 0.24522 0.0
H3962 H 0.43776 0.88758 0.30306 0.0
H3963 H 0.48176 0.88584 0.48288 0.0
H3964 H 0.46191 0.88108 0.47572 0.0
H3965 H 0.47007 0.90059 0.35996 0.0
H3966 H 0.49002 0.90528 0.36644 0.0
H3967 H 0.44775 0.8809 0.35976 0.0
H3968 H 0.47121 0.9139 0.44535 0.0
H3969 H 0.48503 0.92465 0.5021 0.0
H3970 H 0.46205 0.90128 0.59509 0.0
H3971 H 0.44816 0.89029 0.53875 0.0
C3972 C 0.40875 0.89551 0.40455 0.0
C3973 C 0.40301 0.89235 0.44368 0.0
C3974 C 0.41753 0.89318 0.39608 0.0
C3975 C 0.42053 0.88752 0.42638 0.0
C3976 C 0.41406 0.88343 0.4636 0.0
C3977 C 0.40539 0.88585 0.47224 0.0
C3978 C 0.4315 0.88766 0.42315 0.0
C3979 C 0.4395 0.89323 0.45561 0.0
C3980 C 0.43449 0.88324 0.38786 0.0
C3981 C 0.42629 0.87711 0.35301 0.0
C3982 C 0.41537 0.86783 0.36183 0.0
C3983 C 0.40768 0.86212 0.32884 0.0
C3984 C 0.41082 0.86556 0.28686 0.0
C3985 C 0.42167 0.87471 0.27776 0.0
C3986 C 0.4294 0.88046 0.31064 0.0
C3987 C 0.47932 0.88896 0.45545 0.0
C3988 C 0.4875 0.89614 0.42568 0.0
C3989 C 0.46796 0.88618 0.45131 0.0
C3990 C 0.4646 0.89064 0.41768 0.0
C3991 C 0.47253 0.89708 0.38613 0.0
C3992 C 0.48392 0.89981 0.39006 0.0
C3993 C 0.45335 0.88993 0.4191 0.0
C3994 C 0.44545 0.88446 0.38623 0.0
C3995 C 0.45041 0.89455 0.45379 0.0
C3996 C 0.4587 0.9012 0.4878 0.0
C3997 C 0.46915 0.911 0.47787 0.0
C3998 C 0.47699 0.91715 0.50995 0.0
C3999 C 0.47444 0.91363 0.55216 0.0
C4000 C 0.46402 0.90398 0.56237 0.0
C4001 C 0.45616 0.89779 0.53038 0.0
H4002 H 0.48052 0.9184 0.57697 0.0
H4003 H 0.40485 0.86113 0.26136 0.0
H4004 H 0.10279 0.5833 0.44769 0.0
H4005 H 0.10794 0.57015 0.41602 0.0
H4006 H 0.09125 0.57028 0.29937 0.0
H4007 H 0.08598 0.58353 0.33123 0.0
H4008 H 0.08299 0.54927 0.32949 0.0
H4009 H 0.11971 0.57859 0.29594 0.0
H4010 H 0.138 0.59653 0.30412 0.0
H4011 H 0.14663 0.58253 0.41064 0.0
H4012 H 0.12833 0.56456 0.40362 0.0
H4013 H 0.08771 0.49967 0.34348 0.0
H4014 H 0.09255 0.51757 0.30727 0.0
H4015 H 0.10746 0.53614 0.42308 0.0
H4016 H 0.10278 0.51847 0.45905 0.0
H4017 H 0.11897 0.54867 0.35295 0.0
H4018 H 0.07873 0.52491 0.40222 0.0
H4019 H 0.05993 0.50727 0.39936 0.0
H4020 H 0.05816 0.51155 0.26505 0.0
H4021 H 0.07702 0.52916 0.26718 0.0
C4022 C 0.10041 0.58073 0.415 0.0
C4023 C 0.09384 0.58431 0.39217 0.0
C4024 C 0.1035 0.57332 0.39666 0.0
C4025 C 0.1001 0.56932 0.35509 0.0
C4026 C 0.09406 0.57335 0.33134 0.0
C4027 C 0.09103 0.58088 0.34964 0.0
C4028 C 0.10113 0.55948 0.34043 0.0
C4029 C 0.09096 0.54922 0.33279 0.0
C4030 C 0.1115 0.5594 0.34465 0.0
C4031 C 0.12262 0.57017 0.3491 0.0
C4032 C 0.12548 0.57933 0.32123 0.0
C4033 C 0.13586 0.58952 0.32567 0.0
C4034 C 0.14348 0.59066 0.35784 0.0
C4035 C 0.14073 0.58162 0.38565 0.0
C4036 C 0.13036 0.57141 0.38136 0.0
C4037 C 0.09227 0.50761 0.36086 0.0
C4038 C 0.09465 0.50765 0.40435 0.0
C4039 C 0.09505 0.51782 0.3401 0.0
C4040 C 0.10026 0.52816 0.36262 0.0
C4041 C 0.10347 0.52827 0.40503 0.0
C4042 C 0.10066 0.51813 0.42573 0.0
C4043 C 0.10074 0.53856 0.34551 0.0
C4044 C 0.11117 0.54887 0.34707 0.0
C4045 C 0.0906 0.53874 0.33598 0.0
C4046 C 0.07929 0.52822 0.33475 0.0
C4047 C 0.07434 0.52203 0.37208 0.0
C4048 C 0.06368 0.51206 0.3706 0.0
C4049 C 0.05787 0.50827 0.33202 0.0
C4050 C 0.06269 0.51447 0.29488 0.0
C4051 C 0.07336 0.52444 0.2962 0.0
H4052 H 0.04962 0.50055 0.33092 0.0
H4053 H 0.1515 0.59856 0.36124 0.0
H4054 H 0.47453 0.58546 0.44142 0.0
H4055 H 0.45816 0.56932 0.40852 0.0
H4056 H 0.47926 0.57043 0.30402 0.0
H4057 H 0.49583 0.58665 0.33709 0.0
H4058 H 0.44571 0.56167 0.33455 0.0
H4059 H 0.47358 0.54321 0.29269 0.0
H4060 H 0.49304 0.54643 0.30517 0.0
H4061 H 0.49315 0.55923 0.42993 0.0
H4062 H 0.47367 0.55595 0.41825 0.0
H4063 H 0.405 0.50078 0.34139 0.0
H4064 H 0.42049 0.5182 0.30896 0.0
H4065 H 0.4396 0.526 0.42585 0.0
H4066 H 0.42434 0.50886 0.45822 0.0
H4067 H 0.45306 0.52954 0.35461 0.0
H4068 H 0.42323 0.53751 0.40705 0.0
H4069 H 0.40368 0.53458 0.40555 0.0
H4070 H 0.40728 0.543 0.27298 0.0
H4071 H 0.42682 0.54586 0.27371 0.0
C4072 C 0.47565 0.58249 0.41087 0.0
C4073 C 0.48652 0.58711 0.39241 0.0
C4074 C 0.46624 0.57333 0.39181 0.0
C4075 C 0.46754 0.56858 0.35415 0.0
C4076 C 0.47812 0.57395 0.33324 0.0
C4077 C 0.48757 0.58318 0.35227 0.0
C4078 C 0.45857 0.55688 0.3429 0.0
C4079 C 0.44733 0.55461 0.33742 0.0
C4080 C 0.46068 0.54767 0.34676 0.0
C4081 C 0.47227 0.54947 0.35438 0.0
C4082 C 0.47777 0.54668 0.32277 0.0
C4083 C 0.48879 0.54852 0.32971 0.0
C4084 C 0.49434 0.55307 0.36826 0.0
C4085 C 0.48886 0.55573 0.40005 0.0
C4086 C 0.47783 0.55388 0.3933 0.0
C4087 C 0.41257 0.50618 0.35992 0.0
C4088 C 0.41343 0.50352 0.40246 0.0
C4089 C 0.42138 0.51608 0.34135 0.0
C4090 C 0.43118 0.52332 0.365 0.0
C4091 C 0.43215 0.52046 0.40694 0.0
C4092 C 0.42336 0.51071 0.42554 0.0
C4093 C 0.44019 0.53439 0.34839 0.0
C4094 C 0.45146 0.53652 0.34869 0.0
C4095 C 0.43808 0.54346 0.34065 0.0
C4096 C 0.42638 0.54175 0.34029 0.0
C4097 C 0.4198 0.53865 0.37754 0.0
C4098 C 0.40874 0.53702 0.37684 0.0
C4099 C 0.40423 0.53856 0.33915 0.0
C4100 C 0.41078 0.54177 0.30211 0.0
C4101 C 0.42184 0.5434 0.30264 0.0
H4102 H 0.39566 0.53729 0.33867 0.0
H4103 H 0.50287 0.55452 0.37354 0.0
loop_
_geom_bond_atom_site_label_1
_geom_bond_atom_site_label_2
_geom_bond_distance
_geom_bond_site_symmetry_2
_ccdc_geom_bond_type
C0 O1 1.306 . S
C0 O3 1.160 . S
O1 C0 1.306 . S
O1 Cd2 2.228 . S
Cd2 O1 2.228 . S
Cd2 O6 2.273 . S
Cd2 O10 2.277 . S
O3 C0 1.160 . S
O3 Cd4 2.203 . S
Cd4 O3 2.203 . S
Cd4 O6 2.411 . S
Cd4 O7 2.333 . S
Cd4 O8 2.352 . S
Cd4 O12 2.277 . S
Cd4 O13 2.356 . S
C5 O10 1.209 . S
C5 O12 1.226 . S
O6 Cd2 2.273 . S
O6 Cd4 2.411 . S
O6 C9 1.320 . S
O7 Cd4 2.333 . S
O7 C9 1.214 . S
O8 Cd4 2.352 . S
O8 C11 1.258 . S
C9 O6 1.320 . S
C9 O7 1.214 . S
O10 Cd2 2.277 . S
O10 C5 1.209 . S
C11 O8 1.258 . S
C11 O13 1.282 . S
O12 Cd4 2.277 . S
O12 C5 1.226 . S
O13 Cd4 2.356 . S
O13 C11 1.282 . S
C14 O15 1.306 . S
C14 O17 1.160 . S
O15 C14 1.306 . S
O15 Cd16 2.228 . S
Cd16 O15 2.228 . S
Cd16 O20 2.273 . S
Cd16 O24 2.277 . S
O17 C14 1.160 . S
O17 Cd18 2.203 . S
Cd18 O17 2.203 . S
Cd18 O20 2.411 . S
Cd18 O21 2.333 . S
Cd18 O22 2.352 . S
Cd18 O26 2.277 . S
Cd18 O27 2.356 . S
C19 O24 1.209 . S
C19 O26 1.226 . S
O20 Cd16 2.273 . S
O20 Cd18 2.411 . S
O20 C23 1.320 . S
O21 Cd18 2.333 . S
O21 C23 1.214 . S
O22 Cd18 2.352 . S
O22 C25 1.258 . S
C23 O20 1.320 . S
C23 O21 1.214 . S
O24 Cd16 2.277 . S
O24 C19 1.209 . S
C25 O22 1.258 . S
C25 O27 1.282 . S
O26 Cd18 2.277 . S
O26 C19 1.226 . S
O27 Cd18 2.356 . S
O27 C25 1.282 . S
C28 O29 1.306 . S
C28 O31 1.160 . S
O29 C28 1.306 . S
O29 Cd30 2.228 . S
Cd30 O29 2.228 . S
Cd30 O34 2.273 . S
Cd30 O38 2.277 . S
O31 C28 1.160 . S
O31 Cd32 2.203 . S
Cd32 O31 2.203 . S
Cd32 O34 2.411 . S
Cd32 O35 2.333 . S
Cd32 O36 2.352 . S
Cd32 O40 2.277 . S
Cd32 O41 2.356 . S
C33 O38 1.209 . S
C33 O40 1.226 . S
O34 Cd30 2.273 . S
O34 Cd32 2.411 . S
O34 C37 1.320 . S
O35 Cd32 2.333 . S
O35 C37 1.214 . S
O36 Cd32 2.352 . S
O36 C39 1.258 . S
C37 O34 1.320 . S
C37 O35 1.214 . S
O38 Cd30 2.277 . S
O38 C33 1.209 . S
C39 O36 1.258 . S
C39 O41 1.282 . S
O40 Cd32 2.277 . S
O40 C33 1.226 . S
O41 Cd32 2.356 . S
O41 C39 1.282 . S
C42 O43 1.306 . S
C42 O45 1.160 . S
O43 C42 1.306 . S
O43 Cd44 2.228 . S
Cd44 O43 2.228 . S
Cd44 O48 2.273 . S
Cd44 O52 2.277 . S
O45 C42 1.160 . S
O45 Cd46 2.203 . S
Cd46 O45 2.203 . S
Cd46 O48 2.411 . S
Cd46 O49 2.333 . S
Cd46 O50 2.352 . S
Cd46 O54 2.277 . S
Cd46 O55 2.356 . S
C47 O52 1.209 . S
C47 O54 1.226 . S
O48 Cd44 2.273 . S
O48 Cd46 2.411 . S
O48 C51 1.320 . S
O49 Cd46 2.333 . S
O49 C51 1.214 . S
O50 Cd46 2.352 . S
O50 C53 1.258 . S
C51 O48 1.320 . S
C51 O49 1.214 . S
O52 Cd44 2.277 . S
O52 C47 1.209 . S
C53 O50 1.258 . S
C53 O55 1.282 . S
O54 Cd46 2.277 . S
O54 C47 1.226 . S
O55 Cd46 2.356 . S
O55 C53 1.282 . S
C56 O57 1.306 . S
C56 O59 1.160 . S
O57 C56 1.306 . S
O57 Cd58 2.228 . S
Cd58 O57 2.228 . S
Cd58 O62 2.273 . S
Cd58 O66 2.277 . S
O59 C56 1.160 . S
O59 Cd60 2.203 . S
Cd60 O59 2.203 . S
Cd60 O62 2.411 . S
Cd60 O63 2.333 . S
Cd60 O64 2.352 . S
Cd60 O68 2.277 . S
Cd60 O69 2.356 . S
C61 O66 1.209 . S
C61 O68 1.226 . S
O62 Cd58 2.273 . S
O62 Cd60 2.411 . S
O62 C65 1.320 . S
O63 Cd60 2.333 . S
O63 C65 1.214 . S
O64 Cd60 2.352 . S
O64 C67 1.258 . S
C65 O62 1.320 . S
C65 O63 1.214 . S
O66 Cd58 2.277 . S
O66 C61 1.209 . S
C67 O64 1.258 . S
C67 O69 1.282 . S
O68 Cd60 2.277 . S
O68 C61 1.226 . S
O69 Cd60 2.356 . S
O69 C67 1.282 . S
C70 O71 1.306 . S
C70 O73 1.160 . S
O71 C70 1.306 . S
O71 Cd72 2.228 . S
Cd72 O71 2.228 . S
Cd72 O76 2.273 . S
Cd72 O80 2.277 . S
O73 C70 1.160 . S
O73 Cd74 2.203 . S
Cd74 O73 2.203 . S
Cd74 O76 2.411 . S
Cd74 O77 2.333 . S
Cd74 O78 2.352 . S
Cd74 O82 2.277 . S
Cd74 O83 2.356 . S
C75 O80 1.209 . S
C75 O82 1.226 . S
O76 Cd72 2.273 . S
O76 Cd74 2.411 . S
O76 C79 1.320 . S
O77 Cd74 2.333 . S
O77 C79 1.214 . S
O78 Cd74 2.352 . S
O78 C81 1.258 . S
C79 O76 1.320 . S
C79 O77 1.214 . S
O80 Cd72 2.277 . S
O80 C75 1.209 . S
C81 O78 1.258 . S
C81 O83 1.282 . S
O82 Cd74 2.277 . S
O82 C75 1.226 . S
O83 Cd74 2.356 . S
O83 C81 1.282 . S
C84 O85 1.306 . S
C84 O87 1.160 . S
O85 C84 1.306 . S
O85 Cd86 2.228 . S
Cd86 O85 2.228 . S
Cd86 O90 2.273 . S
Cd86 O94 2.277 . S
O87 C84 1.160 . S
O87 Cd88 2.203 . S
Cd88 O87 2.203 . S
Cd88 O90 2.411 . S
Cd88 O91 2.333 . S
Cd88 O92 2.352 . S
Cd88 O96 2.277 . S
Cd88 O97 2.356 . S
C89 O94 1.209 . S
C89 O96 1.226 . S
O90 Cd86 2.273 . S
O90 Cd88 2.411 . S
O90 C93 1.320 . S
O91 Cd88 2.333 . S
O91 C93 1.214 . S
O92 Cd88 2.352 . S
O92 C95 1.258 . S
C93 O90 1.320 . S
C93 O91 1.214 . S
O94 Cd86 2.277 . S
O94 C89 1.209 . S
C95 O92 1.258 . S
C95 O97 1.282 . S
O96 Cd88 2.277 . S
O96 C89 1.226 . S
O97 Cd88 2.356 . S
O97 C95 1.282 . S
C98 O99 1.306 . S
C98 O101 1.160 . S
O99 C98 1.306 . S
O99 Cd100 2.228 . S
Cd100 O99 2.228 . S
Cd100 O104 2.273 . S
Cd100 O108 2.277 . S
O101 C98 1.160 . S
O101 Cd102 2.203 . S
Cd102 O101 2.203 . S
Cd102 O104 2.411 . S
Cd102 O105 2.333 . S
Cd102 O106 2.352 . S
Cd102 O110 2.277 . S
Cd102 O111 2.356 . S
C103 O108 1.209 . S
C103 O110 1.226 . S
O104 Cd100 2.273 . S
O104 Cd102 2.411 . S
O104 C107 1.320 . S
O105 Cd102 2.333 . S
O105 C107 1.214 . S
O106 Cd102 2.352 . S
O106 C109 1.258 . S
C107 O104 1.320 . S
C107 O105 1.214 . S
O108 Cd100 2.277 . S
O108 C103 1.209 . S
C109 O106 1.258 . S
C109 O111 1.282 . S
O110 Cd102 2.277 . S
O110 C103 1.226 . S
O111 Cd102 2.356 . S
O111 C109 1.282 . S
C112 O113 1.306 . S
C112 O115 1.160 . S
O113 C112 1.306 . S
O113 Cd114 2.228 . S
Cd114 O113 2.228 . S
Cd114 O118 2.273 . S
Cd114 O122 2.277 . S
O115 C112 1.160 . S
O115 Cd116 2.203 . S
Cd116 O115 2.203 . S
Cd116 O118 2.411 . S
Cd116 O119 2.333 . S
Cd116 O120 2.352 . S
Cd116 O124 2.277 . S
Cd116 O125 2.356 . S
C117 O122 1.209 . S
C117 O124 1.226 . S
O118 Cd114 2.273 . S
O118 Cd116 2.411 . S
O118 C121 1.320 . S
O119 Cd116 2.333 . S
O119 C121 1.214 . S
O120 Cd116 2.352 . S
O120 C123 1.258 . S
C121 O118 1.320 . S
C121 O119 1.214 . S
O122 Cd114 2.277 . S
O122 C117 1.209 . S
C123 O120 1.258 . S
C123 O125 1.282 . S
O124 Cd116 2.277 . S
O124 C117 1.226 . S
O125 Cd116 2.356 . S
O125 C123 1.282 . S
C126 O127 1.306 . S
C126 O129 1.160 . S
O127 C126 1.306 . S
O127 Cd128 2.228 . S
Cd128 O127 2.228 . S
Cd128 O132 2.273 . S
Cd128 O136 2.277 . S
O129 C126 1.160 . S
O129 Cd130 2.203 . S
Cd130 O129 2.203 . S
Cd130 O132 2.411 . S
Cd130 O133 2.333 . S
Cd130 O134 2.352 . S
Cd130 O138 2.277 . S
Cd130 O139 2.356 . S
C131 O136 1.209 . S
C131 O138 1.226 . S
O132 Cd128 2.273 . S
O132 Cd130 2.411 . S
O132 C135 1.320 . S
O133 Cd130 2.333 . S
O133 C135 1.214 . S
O134 Cd130 2.352 . S
O134 C137 1.258 . S
C135 O132 1.320 . S
C135 O133 1.214 . S
O136 Cd128 2.277 . S
O136 C131 1.209 . S
C137 O134 1.258 . S
C137 O139 1.282 . S
O138 Cd130 2.277 . S
O138 C131 1.226 . S
O139 Cd130 2.356 . S
O139 C137 1.282 . S
C140 O141 1.306 . S
C140 O143 1.160 . S
O141 C140 1.306 . S
O141 Cd142 2.228 . S
Cd142 O141 2.228 . S
Cd142 O146 2.273 . S
Cd142 O150 2.277 . S
O143 C140 1.160 . S
O143 Cd144 2.203 . S
Cd144 O143 2.203 . S
Cd144 O146 2.411 . S
Cd144 O147 2.333 . S
Cd144 O148 2.352 . S
Cd144 O152 2.277 . S
Cd144 O153 2.356 . S
C145 O150 1.209 . S
C145 O152 1.226 . S
O146 Cd142 2.273 . S
O146 Cd144 2.411 . S
O146 C149 1.320 . S
O147 Cd144 2.333 . S
O147 C149 1.214 . S
O148 Cd144 2.352 . S
O148 C151 1.258 . S
C149 O146 1.320 . S
C149 O147 1.214 . S
O150 Cd142 2.277 . S
O150 C145 1.209 . S
C151 O148 1.258 . S
C151 O153 1.282 . S
O152 Cd144 2.277 . S
O152 C145 1.226 . S
O153 Cd144 2.356 . S
O153 C151 1.282 . S
C154 O155 1.306 . S
C154 O157 1.160 . S
O155 C154 1.306 . S
O155 Cd156 2.228 . S
Cd156 O155 2.228 . S
Cd156 O160 2.273 . S
Cd156 O164 2.277 . S
O157 C154 1.160 . S
O157 Cd158 2.203 . S
Cd158 O157 2.203 . S
Cd158 O160 2.411 . S
Cd158 O161 2.333 . S
Cd158 O162 2.352 . S
Cd158 O166 2.277 . S
Cd158 O167 2.356 . S
C159 O164 1.209 . S
C159 O166 1.226 . S
O160 Cd156 2.273 . S
O160 Cd158 2.411 . S
O160 C163 1.320 . S
O161 Cd158 2.333 . S
O161 C163 1.214 . S
O162 Cd158 2.352 . S
O162 C165 1.258 . S
C163 O160 1.320 . S
C163 O161 1.214 . S
O164 Cd156 2.277 . S
O164 C159 1.209 . S
C165 O162 1.258 . S
C165 O167 1.282 . S
O166 Cd158 2.277 . S
O166 C159 1.226 . S
O167 Cd158 2.356 . S
O167 C165 1.282 . S
C168 O169 1.306 . S
C168 O171 1.160 . S
O169 C168 1.306 . S
O169 Cd170 2.228 . S
Cd170 O169 2.228 . S
Cd170 O174 2.273 . S
Cd170 O178 2.277 . S
O171 C168 1.160 . S
O171 Cd172 2.203 . S
Cd172 O171 2.203 . S
Cd172 O174 2.411 . S
Cd172 O175 2.333 . S
Cd172 O176 2.352 . S
Cd172 O180 2.277 . S
Cd172 O181 2.356 . S
C173 O178 1.209 . S
C173 O180 1.226 . S
O174 Cd170 2.273 . S
O174 Cd172 2.411 . S
O174 C177 1.320 . S
O175 Cd172 2.333 . S
O175 C177 1.214 . S
O176 Cd172 2.352 . S
O176 C179 1.258 . S
C177 O174 1.320 . S
C177 O175 1.214 . S
O178 Cd170 2.277 . S
O178 C173 1.209 . S
C179 O176 1.258 . S
C179 O181 1.282 . S
O180 Cd172 2.277 . S
O180 C173 1.226 . S
O181 Cd172 2.356 . S
O181 C179 1.282 . S
C182 O183 1.306 . S
C182 O185 1.160 . S
O183 C182 1.306 . S
O183 Cd184 2.228 . S
Cd184 O183 2.228 . S
Cd184 O188 2.273 . S
Cd184 O192 2.277 . S
O185 C182 1.160 . S
O185 Cd186 2.203 . S
Cd186 O185 2.203 . S
Cd186 O188 2.411 . S
Cd186 O189 2.333 . S
Cd186 O190 2.352 . S
Cd186 O194 2.277 . S
Cd186 O195 2.356 . S
C187 O192 1.209 . S
C187 O194 1.226 . S
O188 Cd184 2.273 . S
O188 Cd186 2.411 . S
O188 C191 1.320 . S
O189 Cd186 2.333 . S
O189 C191 1.214 . S
O190 Cd186 2.352 . S
O190 C193 1.258 . S
C191 O188 1.320 . S
C191 O189 1.214 . S
O192 Cd184 2.277 . S
O192 C187 1.209 . S
C193 O190 1.258 . S
C193 O195 1.282 . S
O194 Cd186 2.277 . S
O194 C187 1.226 . S
O195 Cd186 2.356 . S
O195 C193 1.282 . S
C196 O197 1.306 . S
C196 O199 1.160 . S
O197 C196 1.306 . S
O197 Cd198 2.228 . S
Cd198 O197 2.228 . S
Cd198 O202 2.273 . S
Cd198 O206 2.277 . S
O199 C196 1.160 . S
O199 Cd200 2.203 . S
Cd200 O199 2.203 . S
Cd200 O202 2.411 . S
Cd200 O203 2.333 . S
Cd200 O204 2.352 . S
Cd200 O208 2.277 . S
Cd200 O209 2.356 . S
C201 O206 1.209 . S
C201 O208 1.226 . S
O202 Cd198 2.273 . S
O202 Cd200 2.411 . S
O202 C205 1.320 . S
O203 Cd200 2.333 . S
O203 C205 1.214 . S
O204 Cd200 2.352 . S
O204 C207 1.258 . S
C205 O202 1.320 . S
C205 O203 1.214 . S
O206 Cd198 2.277 . S
O206 C201 1.209 . S
C207 O204 1.258 . S
C207 O209 1.282 . S
O208 Cd200 2.277 . S
O208 C201 1.226 . S
O209 Cd200 2.356 . S
O209 C207 1.282 . S
C210 O211 1.306 . S
C210 O213 1.160 . S
O211 C210 1.306 . S
O211 Cd212 2.228 . S
Cd212 O211 2.228 . S
Cd212 O216 2.273 . S
Cd212 O220 2.277 . S
O213 C210 1.160 . S
O213 Cd214 2.203 . S
Cd214 O213 2.203 . S
Cd214 O216 2.411 . S
Cd214 O217 2.333 . S
Cd214 O218 2.352 . S
Cd214 O222 2.277 . S
Cd214 O223 2.356 . S
C215 O220 1.209 . S
C215 O222 1.226 . S
O216 Cd212 2.273 . S
O216 Cd214 2.411 . S
O216 C219 1.320 . S
O217 Cd214 2.333 . S
O217 C219 1.214 . S
O218 Cd214 2.352 . S
O218 C221 1.258 . S
C219 O216 1.320 . S
C219 O217 1.214 . S
O220 Cd212 2.277 . S
O220 C215 1.209 . S
C221 O218 1.258 . S
C221 O223 1.282 . S
O222 Cd214 2.277 . S
O222 C215 1.226 . S
O223 Cd214 2.356 . S
O223 C221 1.282 . S
C224 O225 1.306 . S
C224 O227 1.160 . S
O225 C224 1.306 . S
O225 Cd226 2.228 . S
Cd226 O225 2.228 . S
Cd226 O230 2.273 . S
Cd226 O234 2.277 . S
O227 C224 1.160 . S
O227 Cd228 2.203 . S
Cd228 O227 2.203 . S
Cd228 O230 2.411 . S
Cd228 O231 2.333 . S
Cd228 O232 2.352 . S
Cd228 O236 2.277 . S
Cd228 O237 2.356 . S
C229 O234 1.209 . S
C229 O236 1.226 . S
O230 Cd226 2.273 . S
O230 Cd228 2.411 . S
O230 C233 1.320 . S
O231 Cd228 2.333 . S
O231 C233 1.214 . S
O232 Cd228 2.352 . S
O232 C235 1.258 . S
C233 O230 1.320 . S
C233 O231 1.214 . S
O234 Cd226 2.277 . S
O234 C229 1.209 . S
C235 O232 1.258 . S
C235 O237 1.282 . S
O236 Cd228 2.277 . S
O236 C229 1.226 . S
O237 Cd228 2.356 . S
O237 C235 1.282 . S
C238 O239 1.306 . S
C238 O241 1.160 . S
O239 C238 1.306 . S
O239 Cd240 2.228 . S
Cd240 O239 2.228 . S
Cd240 O244 2.273 . S
Cd240 O248 2.277 . S
O241 C238 1.160 . S
O241 Cd242 2.203 . S
Cd242 O241 2.203 . S
Cd242 O244 2.411 . S
Cd242 O245 2.333 . S
Cd242 O246 2.352 . S
Cd242 O250 2.277 . S
Cd242 O251 2.356 . S
C243 O248 1.209 . S
C243 O250 1.226 . S
O244 Cd240 2.273 . S
O244 Cd242 2.411 . S
O244 C247 1.320 . S
O245 Cd242 2.333 . S
O245 C247 1.214 . S
O246 Cd242 2.352 . S
O246 C249 1.258 . S
C247 O244 1.320 . S
C247 O245 1.214 . S
O248 Cd240 2.277 . S
O248 C243 1.209 . S
C249 O246 1.258 . S
C249 O251 1.282 . S
O250 Cd242 2.277 . S
O250 C243 1.226 . S
O251 Cd242 2.356 . S
O251 C249 1.282 . S
C252 O253 1.306 . S
C252 O255 1.160 . S
O253 C252 1.306 . S
O253 Cd254 2.228 . S
Cd254 O253 2.228 . S
Cd254 O258 2.273 . S
Cd254 O262 2.277 . S
O255 C252 1.160 . S
O255 Cd256 2.203 . S
Cd256 O255 2.203 . S
Cd256 O258 2.411 . S
Cd256 O259 2.333 . S
Cd256 O260 2.352 . S
Cd256 O264 2.277 . S
Cd256 O265 2.356 . S
C257 O262 1.209 . S
C257 O264 1.226 . S
O258 Cd254 2.273 . S
O258 Cd256 2.411 . S
O258 C261 1.320 . S
O259 Cd256 2.333 . S
O259 C261 1.214 . S
O260 Cd256 2.352 . S
O260 C263 1.258 . S
C261 O258 1.320 . S
C261 O259 1.214 . S
O262 Cd254 2.277 . S
O262 C257 1.209 . S
C263 O260 1.258 . S
C263 O265 1.282 . S
O264 Cd256 2.277 . S
O264 C257 1.226 . S
O265 Cd256 2.356 . S
O265 C263 1.282 . S
C266 O267 1.306 . S
C266 O269 1.160 . S
O267 C266 1.306 . S
O267 Cd268 2.228 . S
Cd268 O267 2.228 . S
Cd268 O272 2.273 . S
Cd268 O276 2.277 . S
O269 C266 1.160 . S
O269 Cd270 2.203 . S
Cd270 O269 2.203 . S
Cd270 O272 2.411 . S
Cd270 O273 2.333 . S
Cd270 O274 2.352 . S
Cd270 O278 2.277 . S
Cd270 O279 2.356 . S
C271 O276 1.209 . S
C271 O278 1.226 . S
O272 Cd268 2.273 . S
O272 Cd270 2.411 . S
O272 C275 1.320 . S
O273 Cd270 2.333 . S
O273 C275 1.214 . S
O274 Cd270 2.352 . S
O274 C277 1.258 . S
C275 O272 1.320 . S
C275 O273 1.214 . S
O276 Cd268 2.277 . S
O276 C271 1.209 . S
C277 O274 1.258 . S
C277 O279 1.282 . S
O278 Cd270 2.277 . S
O278 C271 1.226 . S
O279 Cd270 2.356 . S
O279 C277 1.282 . S
C280 O281 1.306 . S
C280 O283 1.160 . S
O281 C280 1.306 . S
O281 Cd282 2.228 . S
Cd282 O281 2.228 . S
Cd282 O286 2.273 . S
Cd282 O290 2.277 . S
O283 C280 1.160 . S
O283 Cd284 2.203 . S
Cd284 O283 2.203 . S
Cd284 O286 2.411 . S
Cd284 O287 2.333 . S
Cd284 O288 2.352 . S
Cd284 O292 2.277 . S
Cd284 O293 2.356 . S
C285 O290 1.209 . S
C285 O292 1.226 . S
O286 Cd282 2.273 . S
O286 Cd284 2.411 . S
O286 C289 1.320 . S
O287 Cd284 2.333 . S
O287 C289 1.214 . S
O288 Cd284 2.352 . S
O288 C291 1.258 . S
C289 O286 1.320 . S
C289 O287 1.214 . S
O290 Cd282 2.277 . S
O290 C285 1.209 . S
C291 O288 1.258 . S
C291 O293 1.282 . S
O292 Cd284 2.277 . S
O292 C285 1.226 . S
O293 Cd284 2.356 . S
O293 C291 1.282 . S
C294 O295 1.306 . S
C294 O297 1.160 . S
O295 C294 1.306 . S
O295 Cd296 2.228 . S
Cd296 O295 2.228 . S
Cd296 O300 2.273 . S
Cd296 O304 2.277 . S
O297 C294 1.160 . S
O297 Cd298 2.203 . S
Cd298 O297 2.203 . S
Cd298 O300 2.411 . S
Cd298 O301 2.333 . S
Cd298 O302 2.352 . S
Cd298 O306 2.277 . S
Cd298 O307 2.356 . S
C299 O304 1.209 . S
C299 O306 1.226 . S
O300 Cd296 2.273 . S
O300 Cd298 2.411 . S
O300 C303 1.320 . S
O301 Cd298 2.333 . S
O301 C303 1.214 . S
O302 Cd298 2.352 . S
O302 C305 1.258 . S
C303 O300 1.320 . S
C303 O301 1.214 . S
O304 Cd296 2.277 . S
O304 C299 1.209 . S
C305 O302 1.258 . S
C305 O307 1.282 . S
O306 Cd298 2.277 . S
O306 C299 1.226 . S
O307 Cd298 2.356 . S
O307 C305 1.282 . S
C308 O309 1.306 . S
C308 O311 1.160 . S
O309 C308 1.306 . S
O309 Cd310 2.228 . S
Cd310 O309 2.228 . S
Cd310 O314 2.273 . S
Cd310 O318 2.277 . S
O311 C308 1.160 . S
O311 Cd312 2.203 . S
Cd312 O311 2.203 . S
Cd312 O314 2.411 . S
Cd312 O315 2.333 . S
Cd312 O316 2.352 . S
Cd312 O320 2.277 . S
Cd312 O321 2.356 . S
C313 O318 1.209 . S
C313 O320 1.226 . S
O314 Cd310 2.273 . S
O314 Cd312 2.411 . S
O314 C317 1.320 . S
O315 Cd312 2.333 . S
O315 C317 1.214 . S
O316 Cd312 2.352 . S
O316 C319 1.258 . S
C317 O314 1.320 . S
C317 O315 1.214 . S
O318 Cd310 2.277 . S
O318 C313 1.209 . S
C319 O316 1.258 . S
C319 O321 1.282 . S
O320 Cd312 2.277 . S
O320 C313 1.226 . S
O321 Cd312 2.356 . S
O321 C319 1.282 . S
C322 O323 1.306 . S
C322 O325 1.160 . S
O323 C322 1.306 . S
O323 Cd324 2.228 . S
Cd324 O323 2.228 . S
Cd324 O328 2.273 . S
Cd324 O332 2.277 . S
O325 C322 1.160 . S
O325 Cd326 2.203 . S
Cd326 O325 2.203 . S
Cd326 O328 2.411 . S
Cd326 O329 2.333 . S
Cd326 O330 2.352 . S
Cd326 O334 2.277 . S
Cd326 O335 2.356 . S
C327 O332 1.209 . S
C327 O334 1.226 . S
O328 Cd324 2.273 . S
O328 Cd326 2.411 . S
O328 C331 1.320 . S
O329 Cd326 2.333 . S
O329 C331 1.214 . S
O330 Cd326 2.352 . S
O330 C333 1.258 . S
C331 O328 1.320 . S
C331 O329 1.214 . S
O332 Cd324 2.277 . S
O332 C327 1.209 . S
C333 O330 1.258 . S
C333 O335 1.282 . S
O334 Cd326 2.277 . S
O334 C327 1.226 . S
O335 Cd326 2.356 . S
O335 C333 1.282 . S
C336 O337 1.306 . S
C336 O339 1.160 . S
O337 C336 1.306 . S
O337 Cd338 2.228 . S
Cd338 O337 2.228 . S
Cd338 O342 2.273 . S
Cd338 O346 2.277 . S
O339 C336 1.160 . S
O339 Cd340 2.203 . S
Cd340 O339 2.203 . S
Cd340 O342 2.411 . S
Cd340 O343 2.333 . S
Cd340 O344 2.352 . S
Cd340 O348 2.277 . S
Cd340 O349 2.356 . S
C341 O346 1.209 . S
C341 O348 1.226 . S
O342 Cd338 2.273 . S
O342 Cd340 2.411 . S
O342 C345 1.320 . S
O343 Cd340 2.333 . S
O343 C345 1.214 . S
O344 Cd340 2.352 . S
O344 C347 1.258 . S
C345 O342 1.320 . S
C345 O343 1.214 . S
O346 Cd338 2.277 . S
O346 C341 1.209 . S
C347 O344 1.258 . S
C347 O349 1.282 . S
O348 Cd340 2.277 . S
O348 C341 1.226 . S
O349 Cd340 2.356 . S
O349 C347 1.282 . S
C350 O351 1.306 . S
C350 O353 1.160 . S
O351 C350 1.306 . S
O351 Cd352 2.228 . S
Cd352 O351 2.228 . S
Cd352 O356 2.273 . S
Cd352 O360 2.277 . S
O353 C350 1.160 . S
O353 Cd354 2.203 . S
Cd354 O353 2.203 . S
Cd354 O356 2.411 . S
Cd354 O357 2.333 . S
Cd354 O358 2.352 . S
Cd354 O362 2.277 . S
Cd354 O363 2.356 . S
C355 O360 1.209 . S
C355 O362 1.226 . S
O356 Cd352 2.273 . S
O356 Cd354 2.411 . S
O356 C359 1.320 . S
O357 Cd354 2.333 . S
O357 C359 1.214 . S
O358 Cd354 2.352 . S
O358 C361 1.258 . S
C359 O356 1.320 . S
C359 O357 1.214 . S
O360 Cd352 2.277 . S
O360 C355 1.209 . S
C361 O358 1.258 . S
C361 O363 1.282 . S
O362 Cd354 2.277 . S
O362 C355 1.226 . S
O363 Cd354 2.356 . S
O363 C361 1.282 . S
C364 O365 1.306 . S
C364 O367 1.160 . S
O365 C364 1.306 . S
O365 Cd366 2.228 . S
Cd366 O365 2.228 . S
Cd366 O370 2.273 . S
Cd366 O374 2.277 . S
O367 C364 1.160 . S
O367 Cd368 2.203 . S
Cd368 O367 2.203 . S
Cd368 O370 2.411 . S
Cd368 O371 2.333 . S
Cd368 O372 2.352 . S
Cd368 O376 2.277 . S
Cd368 O377 2.356 . S
C369 O374 1.209 . S
C369 O376 1.226 . S
O370 Cd366 2.273 . S
O370 Cd368 2.411 . S
O370 C373 1.320 . S
O371 Cd368 2.333 . S
O371 C373 1.214 . S
O372 Cd368 2.352 . S
O372 C375 1.258 . S
C373 O370 1.320 . S
C373 O371 1.214 . S
O374 Cd366 2.277 . S
O374 C369 1.209 . S
C375 O372 1.258 . S
C375 O377 1.282 . S
O376 Cd368 2.277 . S
O376 C369 1.226 . S
O377 Cd368 2.356 . S
O377 C375 1.282 . S
C378 O379 1.306 . S
C378 O381 1.160 . S
O379 C378 1.306 . S
O379 Cd380 2.228 . S
Cd380 O379 2.228 . S
Cd380 O384 2.273 . S
Cd380 O388 2.277 . S
O381 C378 1.160 . S
O381 Cd382 2.203 . S
Cd382 O381 2.203 . S
Cd382 O384 2.411 . S
Cd382 O385 2.333 . S
Cd382 O386 2.352 . S
Cd382 O390 2.277 . S
Cd382 O391 2.356 . S
C383 O388 1.209 . S
C383 O390 1.226 . S
O384 Cd380 2.273 . S
O384 Cd382 2.411 . S
O384 C387 1.320 . S
O385 Cd382 2.333 . S
O385 C387 1.214 . S
O386 Cd382 2.352 . S
O386 C389 1.258 . S
C387 O384 1.320 . S
C387 O385 1.214 . S
O388 Cd380 2.277 . S
O388 C383 1.209 . S
C389 O386 1.258 . S
C389 O391 1.282 . S
O390 Cd382 2.277 . S
O390 C383 1.226 . S
O391 Cd382 2.356 . S
O391 C389 1.282 . S
C392 O393 1.306 . S
C392 O395 1.160 . S
O393 C392 1.306 . S
O393 Cd394 2.228 . S
Cd394 O393 2.228 . S
Cd394 O398 2.273 . S
Cd394 O402 2.277 . S
O395 C392 1.160 . S
O395 Cd396 2.203 . S
Cd396 O395 2.203 . S
Cd396 O398 2.411 . S
Cd396 O399 2.333 . S
Cd396 O400 2.352 . S
Cd396 O404 2.277 . S
Cd396 O405 2.356 . S
C397 O402 1.209 . S
C397 O404 1.226 . S
O398 Cd394 2.273 . S
O398 Cd396 2.411 . S
O398 C401 1.320 . S
O399 Cd396 2.333 . S
O399 C401 1.214 . S
O400 Cd396 2.352 . S
O400 C403 1.258 . S
C401 O398 1.320 . S
C401 O399 1.214 . S
O402 Cd394 2.277 . S
O402 C397 1.209 . S
C403 O400 1.258 . S
C403 O405 1.282 . S
O404 Cd396 2.277 . S
O404 C397 1.226 . S
O405 Cd396 2.356 . S
O405 C403 1.282 . S
C406 O407 1.306 . S
C406 O409 1.160 . S
O407 C406 1.306 . S
O407 Cd408 2.228 . S
Cd408 O407 2.228 . S
Cd408 O412 2.273 . S
Cd408 O416 2.277 . S
O409 C406 1.160 . S
O409 Cd410 2.203 . S
Cd410 O409 2.203 . S
Cd410 O412 2.411 . S
Cd410 O413 2.333 . S
Cd410 O414 2.352 . S
Cd410 O418 2.277 . S
Cd410 O419 2.356 . S
C411 O416 1.209 . S
C411 O418 1.226 . S
O412 Cd408 2.273 . S
O412 Cd410 2.411 . S
O412 C415 1.320 . S
O413 Cd410 2.333 . S
O413 C415 1.214 . S
O414 Cd410 2.352 . S
O414 C417 1.258 . S
C415 O412 1.320 . S
C415 O413 1.214 . S
O416 Cd408 2.277 . S
O416 C411 1.209 . S
C417 O414 1.258 . S
C417 O419 1.282 . S
O418 Cd410 2.277 . S
O418 C411 1.226 . S
O419 Cd410 2.356 . S
O419 C417 1.282 . S
C420 O421 1.306 . S
C420 O423 1.160 . S
O421 C420 1.306 . S
O421 Cd422 2.228 . S
Cd422 O421 2.228 . S
Cd422 O426 2.273 . S
Cd422 O430 2.277 . S
O423 C420 1.160 . S
O423 Cd424 2.203 . S
Cd424 O423 2.203 . S
Cd424 O426 2.411 . S
Cd424 O427 2.333 . S
Cd424 O428 2.352 . S
Cd424 O432 2.277 . S
Cd424 O433 2.356 . S
C425 O430 1.209 . S
C425 O432 1.226 . S
O426 Cd422 2.273 . S
O426 Cd424 2.411 . S
O426 C429 1.320 . S
O427 Cd424 2.333 . S
O427 C429 1.214 . S
O428 Cd424 2.352 . S
O428 C431 1.258 . S
C429 O426 1.320 . S
C429 O427 1.214 . S
O430 Cd422 2.277 . S
O430 C425 1.209 . S
C431 O428 1.258 . S
C431 O433 1.282 . S
O432 Cd424 2.277 . S
O432 C425 1.226 . S
O433 Cd424 2.356 . S
O433 C431 1.282 . S
C434 O435 1.306 . S
C434 O437 1.160 . S
O435 C434 1.306 . S
O435 Cd436 2.228 . S
Cd436 O435 2.228 . S
Cd436 O440 2.273 . S
Cd436 O444 2.277 . S
O437 C434 1.160 . S
O437 Cd438 2.203 . S
Cd438 O437 2.203 . S
Cd438 O440 2.411 . S
Cd438 O441 2.333 . S
Cd438 O442 2.352 . S
Cd438 O446 2.277 . S
Cd438 O447 2.356 . S
C439 O444 1.209 . S
C439 O446 1.226 . S
O440 Cd436 2.273 . S
O440 Cd438 2.411 . S
O440 C443 1.320 . S
O441 Cd438 2.333 . S
O441 C443 1.214 . S
O442 Cd438 2.352 . S
O442 C445 1.258 . S
C443 O440 1.320 . S
C443 O441 1.214 . S
O444 Cd436 2.277 . S
O444 C439 1.209 . S
C445 O442 1.258 . S
C445 O447 1.282 . S
O446 Cd438 2.277 . S
O446 C439 1.226 . S
O447 Cd438 2.356 . S
O447 C445 1.282 . S
C448 O449 1.306 . S
C448 O451 1.160 . S
O449 C448 1.306 . S
O449 Cd450 2.228 . S
Cd450 O449 2.228 . S
Cd450 O454 2.273 . S
Cd450 O458 2.277 . S
O451 C448 1.160 . S
O451 Cd452 2.203 . S
Cd452 O451 2.203 . S
Cd452 O454 2.411 . S
Cd452 O455 2.333 . S
Cd452 O456 2.352 . S
Cd452 O460 2.277 . S
Cd452 O461 2.356 . S
C453 O458 1.209 . S
C453 O460 1.226 . S
O454 Cd450 2.273 . S
O454 Cd452 2.411 . S
O454 C457 1.320 . S
O455 Cd452 2.333 . S
O455 C457 1.214 . S
O456 Cd452 2.352 . S
O456 C459 1.258 . S
C457 O454 1.320 . S
C457 O455 1.214 . S
O458 Cd450 2.277 . S
O458 C453 1.209 . S
C459 O456 1.258 . S
C459 O461 1.282 . S
O460 Cd452 2.277 . S
O460 C453 1.226 . S
O461 Cd452 2.356 . S
O461 C459 1.282 . S
C462 O463 1.306 . S
C462 O465 1.160 . S
O463 C462 1.306 . S
O463 Cd464 2.228 . S
Cd464 O463 2.228 . S
Cd464 O468 2.273 . S
Cd464 O472 2.277 . S
O465 C462 1.160 . S
O465 Cd466 2.203 . S
Cd466 O465 2.203 . S
Cd466 O468 2.411 . S
Cd466 O469 2.333 . S
Cd466 O470 2.352 . S
Cd466 O474 2.277 . S
Cd466 O475 2.356 . S
C467 O472 1.209 . S
C467 O474 1.226 . S
O468 Cd464 2.273 . S
O468 Cd466 2.411 . S
O468 C471 1.320 . S
O469 Cd466 2.333 . S
O469 C471 1.214 . S
O470 Cd466 2.352 . S
O470 C473 1.258 . S
C471 O468 1.320 . S
C471 O469 1.214 . S
O472 Cd464 2.277 . S
O472 C467 1.209 . S
C473 O470 1.258 . S
C473 O475 1.282 . S
O474 Cd466 2.277 . S
O474 C467 1.226 . S
O475 Cd466 2.356 . S
O475 C473 1.282 . S
C476 O477 1.306 . S
C476 O479 1.160 . S
O477 C476 1.306 . S
O477 Cd478 2.228 . S
Cd478 O477 2.228 . S
Cd478 O482 2.273 . S
Cd478 O486 2.277 . S
O479 C476 1.160 . S
O479 Cd480 2.203 . S
Cd480 O479 2.203 . S
Cd480 O482 2.411 . S
Cd480 O483 2.333 . S
Cd480 O484 2.352 . S
Cd480 O488 2.277 . S
Cd480 O489 2.356 . S
C481 O486 1.209 . S
C481 O488 1.226 . S
O482 Cd478 2.273 . S
O482 Cd480 2.411 . S
O482 C485 1.320 . S
O483 Cd480 2.333 . S
O483 C485 1.214 . S
O484 Cd480 2.352 . S
O484 C487 1.258 . S
C485 O482 1.320 . S
C485 O483 1.214 . S
O486 Cd478 2.277 . S
O486 C481 1.209 . S
C487 O484 1.258 . S
C487 O489 1.282 . S
O488 Cd480 2.277 . S
O488 C481 1.226 . S
O489 Cd480 2.356 . S
O489 C487 1.282 . S
C490 O491 1.306 . S
C490 O493 1.160 . S
O491 C490 1.306 . S
O491 Cd492 2.228 . S
Cd492 O491 2.228 . S
Cd492 O496 2.273 . S
Cd492 O500 2.277 . S
O493 C490 1.160 . S
O493 Cd494 2.203 . S
Cd494 O493 2.203 . S
Cd494 O496 2.411 . S
Cd494 O497 2.333 . S
Cd494 O498 2.352 . S
Cd494 O502 2.277 . S
Cd494 O503 2.356 . S
C495 O500 1.209 . S
C495 O502 1.226 . S
O496 Cd492 2.273 . S
O496 Cd494 2.411 . S
O496 C499 1.320 . S
O497 Cd494 2.333 . S
O497 C499 1.214 . S
O498 Cd494 2.352 . S
O498 C501 1.258 . S
C499 O496 1.320 . S
C499 O497 1.214 . S
O500 Cd492 2.277 . S
O500 C495 1.209 . S
C501 O498 1.258 . S
C501 O503 1.282 . S
O502 Cd494 2.277 . S
O502 C495 1.226 . S
O503 Cd494 2.356 . S
O503 C501 1.282 . S
H504 C522 0.951 . S
H505 C524 0.951 . S
H506 C526 0.950 . S
H507 C527 0.950 . S
H508 C529 0.950 . S
H509 C532 0.950 . S
H510 C533 0.950 . S
H511 C535 0.950 . S
H512 C536 0.950 . S
H513 C537 0.951 . S
H514 C539 0.951 . S
H515 C541 0.950 . S
H516 C542 0.950 . S
H517 C544 0.950 . S
H518 C547 0.950 . S
H519 C548 0.950 . S
H520 C550 0.950 . S
H521 C551 0.950 . S
C522 H504 0.951 . S
C522 C523 1.366 . S
C522 C524 1.388 . S
C523 C522 1.366 . S
C523 C527 1.385 . S
C524 H505 0.951 . S
C524 C522 1.388 . S
C524 C525 1.366 . S
C525 C524 1.366 . S
C525 C526 1.414 . S
C525 C528 1.499 . S
C526 H506 0.950 . S
C526 C525 1.414 . S
C526 C527 1.374 . S
C527 H507 0.950 . S
C527 C523 1.385 . S
C527 C526 1.374 . S
C528 C525 1.499 . S
C528 C529 1.373 1_565 S
C528 C530 1.389 . S
C529 H508 0.950 . S
C529 C528 1.373 1_545 S
C529 C545 1.377 . S
C530 C528 1.389 . S
C530 C531 1.524 . S
C530 C544 1.377 . S
C531 C530 1.524 . S
C531 C532 1.397 . S
C531 C536 1.363 . S
C532 H509 0.950 . S
C532 C531 1.397 . S
C532 C533 1.334 . S
C533 H510 0.950 . S
C533 C532 1.334 . S
C533 C534 1.287 . S
C534 C533 1.287 . S
C534 C535 1.524 . S
C534 H553 0.913 . S
C535 H511 0.950 . S
C535 C534 1.524 . S
C535 C536 1.415 . S
C536 H512 0.950 . S
C536 C531 1.363 . S
C536 C535 1.415 . S
C537 H513 0.951 . S
C537 C538 1.366 . S
C537 C539 1.388 . S
C538 C537 1.366 . S
C538 C542 1.385 . S
C539 H514 0.951 . S
C539 C537 1.388 . S
C539 C540 1.366 . S
C540 C539 1.366 . S
C540 C541 1.414 . S
C540 C543 1.499 . S
C541 H515 0.950 . S
C541 C540 1.414 . S
C541 C542 1.374 . S
C542 H516 0.950 . S
C542 C538 1.385 . S
C542 C541 1.374 . S
C543 C540 1.499 . S
C543 C544 1.373 1_545 S
C543 C545 1.389 . S
C544 H517 0.950 . S
C544 C530 1.377 . S
C544 C543 1.373 1_565 S
C545 C529 1.377 . S
C545 C543 1.389 . S
C545 C546 1.524 . S
C546 C545 1.524 . S
C546 C547 1.397 . S
C546 C551 1.363 . S
C547 H518 0.950 . S
C547 C546 1.397 . S
C547 C548 1.334 . S
C548 H519 0.950 . S
C548 C547 1.334 . S
C548 C549 1.287 . S
C549 C548 1.287 . S
C549 C550 1.524 . S
C549 H552 0.999 . S
C550 H520 0.950 . S
C550 C549 1.524 . S
C550 C551 1.415 . S
C551 H521 0.950 . S
C551 C546 1.363 . S
C551 C550 1.415 . S
H552 C549 0.999 . S
H553 C534 0.913 . S
H554 C572 0.951 . S
H555 C574 0.951 . S
H556 C576 0.950 . S
H557 C577 0.950 . S
H558 C579 0.950 . S
H559 C582 0.869 1_455 S
H560 C583 0.856 1_455 S
H561 C585 0.950 . S
H562 C586 0.950 . S
H563 C587 0.951 . S
H564 C589 0.951 . S
H565 C591 0.950 . S
H566 C592 0.950 . S
H567 C594 0.950 . S
H568 C597 0.868 1_655 S
H569 C598 0.857 1_655 S
H570 C600 0.950 . S
H571 C601 0.950 . S
C572 H554 0.951 . S
C572 C573 1.366 . S
C572 C574 1.388 . S
C573 C572 1.366 . S
C573 C577 1.385 . S
C574 H555 0.951 . S
C574 C572 1.388 . S
C574 C575 1.366 . S
C575 C574 1.366 . S
C575 C576 1.414 . S
C575 C578 1.499 . S
C576 H556 0.950 . S
C576 C575 1.414 . S
C576 C577 1.374 . S
C577 H557 0.950 . S
C577 C573 1.385 . S
C577 C576 1.374 . S
C578 C575 1.499 . S
C578 C579 1.373 . S
C578 C580 1.389 1_455 S
C579 H558 0.950 . S
C579 C578 1.373 . S
C579 C595 1.377 . S
C580 C578 1.389 1_655 S
C580 C581 1.524 . S
C580 C594 1.377 . S
C581 C580 1.524 . S
C581 C582 1.484 . S
C581 C586 1.363 . S
C582 H559 0.869 1_655 S
C582 C581 1.484 . S
C582 C583 1.332 . S
C583 H560 0.856 1_655 S
C583 C582 1.332 . S
C583 C584 1.287 . S
C584 C583 1.287 . S
C584 C585 1.524 . S
C584 H603 0.913 . S
C585 H561 0.950 . S
C585 C584 1.524 . S
C585 C586 1.415 . S
C586 H562 0.950 . S
C586 C581 1.363 . S
C586 C585 1.415 . S
C587 H563 0.951 . S
C587 C588 1.366 . S
C587 C589 1.388 . S
C588 C587 1.366 . S
C588 C592 1.385 . S
C589 H564 0.951 . S
C589 C587 1.388 . S
C589 C590 1.366 . S
C590 C589 1.366 . S
C590 C591 1.414 . S
C590 C593 1.499 . S
C591 H565 0.950 . S
C591 C590 1.414 . S
C591 C592 1.374 . S
C592 H566 0.950 . S
C592 C588 1.385 . S
C592 C591 1.374 . S
C593 C590 1.499 . S
C593 C594 1.373 . S
C593 C595 1.389 1_655 S
C594 H567 0.950 . S
C594 C580 1.377 . S
C594 C593 1.373 . S
C595 C579 1.377 . S
C595 C593 1.389 1_455 S
C595 C596 1.524 . S
C596 C595 1.524 . S
C596 C597 1.484 . S
C596 C601 1.363 . S
C597 H568 0.868 1_455 S
C597 C596 1.484 . S
C597 C598 1.332 . S
C598 H569 0.857 1_455 S
C598 C597 1.332 . S
C598 C599 1.287 . S
C599 C598 1.287 . S
C599 C600 1.524 . S
C599 H602 0.999 . S
C600 H570 0.950 . S
C600 C599 1.524 . S
C600 C601 1.415 . S
C601 H571 0.950 . S
C601 C596 1.363 . S
C601 C600 1.415 . S
H602 C599 0.999 . S
H603 C584 0.913 . S
H604 C622 0.951 . S
H605 C624 0.951 . S
H606 C626 0.950 . S
H607 C627 0.950 . S
H608 C629 0.950 . S
H609 C632 0.950 . S
H610 C633 0.950 . S
H611 C635 0.950 . S
H612 C636 0.950 . S
H613 C637 0.951 . S
H614 C639 0.951 . S
H615 C641 0.950 . S
H616 C642 0.950 . S
H617 C644 0.950 . S
H618 C647 0.950 . S
H619 C648 0.950 . S
H620 C650 0.950 . S
H621 C651 0.950 . S
C622 H604 0.951 . S
C622 C623 1.366 . S
C622 C624 1.388 . S
C623 C622 1.366 . S
C623 C627 1.385 . S
C624 H605 0.951 . S
C624 C622 1.388 . S
C624 C625 1.366 . S
C625 C624 1.366 . S
C625 C626 1.414 . S
C625 C628 1.499 . S
C626 H606 0.950 . S
C626 C625 1.414 . S
C626 C627 1.374 . S
C627 H607 0.950 . S
C627 C623 1.385 . S
C627 C626 1.374 . S
C628 C625 1.499 . S
C628 C629 1.373 . S
C628 C630 1.389 . S
C629 H608 0.950 . S
C629 C628 1.373 . S
C629 C645 1.377 . S
C630 C628 1.389 . S
C630 C631 1.524 . S
C630 C644 1.377 . S
C631 C630 1.524 . S
C631 C632 1.397 . S
C631 C636 1.363 . S
C632 H609 0.950 . S
C632 C631 1.397 . S
C632 C633 1.334 . S
C633 H610 0.950 . S
C633 C632 1.334 . S
C633 C634 1.287 . S
C634 C633 1.287 . S
C634 C635 1.524 . S
C634 H653 0.913 . S
C635 H611 0.950 . S
C635 C634 1.524 . S
C635 C636 1.415 . S
C636 H612 0.950 . S
C636 C631 1.363 . S
C636 C635 1.415 . S
C637 H613 0.951 . S
C637 C638 1.366 . S
C637 C639 1.388 . S
C638 C637 1.366 . S
C638 C642 1.385 . S
C639 H614 0.951 . S
C639 C637 1.388 . S
C639 C640 1.366 . S
C640 C639 1.366 . S
C640 C641 1.414 . S
C640 C643 1.499 . S
C641 H615 0.950 . S
C641 C640 1.414 . S
C641 C642 1.374 . S
C642 H616 0.950 . S
C642 C638 1.385 . S
C642 C641 1.374 . S
C643 C640 1.499 . S
C643 C644 1.373 . S
C643 C645 1.389 . S
C644 H617 0.950 . S
C644 C630 1.377 . S
C644 C643 1.373 . S
C645 C629 1.377 . S
C645 C643 1.389 . S
C645 C646 1.524 . S
C646 C645 1.524 . S
C646 C647 1.397 . S
C646 C651 1.363 . S
C647 H618 0.950 . S
C647 C646 1.397 . S
C647 C648 1.334 . S
C648 H619 0.950 . S
C648 C647 1.334 . S
C648 C649 1.287 . S
C649 C648 1.287 . S
C649 C650 1.524 . S
C649 H652 0.999 . S
C650 H620 0.950 . S
C650 C649 1.524 . S
C650 C651 1.415 . S
C651 H621 0.950 . S
C651 C646 1.363 . S
C651 C650 1.415 . S
H652 C649 0.999 . S
H653 C634 0.913 . S
H654 C672 0.951 . S
H655 C674 0.951 . S
H656 C676 0.950 . S
H657 C677 0.950 . S
H658 C679 0.950 . S
H659 C682 0.950 . S
H660 C683 0.950 . S
H661 C685 0.950 . S
H662 C686 0.950 . S
H663 C687 0.951 . S
H664 C689 0.951 . S
H665 C691 0.950 . S
H666 C692 0.950 . S
H667 C694 0.950 . S
H668 C697 0.950 . S
H669 C698 0.950 . S
H670 C700 0.950 . S
H671 C701 0.950 . S
C672 H654 0.951 . S
C672 C673 1.366 . S
C672 C674 1.388 . S
C673 C672 1.366 . S
C673 C677 1.385 . S
C674 H655 0.951 . S
C674 C672 1.388 . S
C674 C675 1.366 . S
C675 C674 1.366 . S
C675 C676 1.414 . S
C675 C678 1.499 . S
C676 H656 0.950 . S
C676 C675 1.414 . S
C676 C677 1.374 . S
C677 H657 0.950 . S
C677 C673 1.385 . S
C677 C676 1.374 . S
C678 C675 1.499 . S
C678 C679 1.373 . S
C678 C680 1.389 1_565 S
C679 H658 0.950 . S
C679 C678 1.373 . S
C679 C695 1.377 . S
C680 C678 1.389 1_545 S
C680 C681 1.524 . S
C680 C694 1.377 . S
C681 C680 1.524 . S
C681 C682 1.397 . S
C681 C686 1.363 . S
C682 H659 0.950 . S
C682 C681 1.397 . S
C682 C683 1.334 . S
C683 H660 0.950 . S
C683 C682 1.334 . S
C683 C684 1.287 . S
C684 C683 1.287 . S
C684 C685 1.524 . S
C684 H703 0.913 . S
C685 H661 0.950 . S
C685 C684 1.524 . S
C685 C686 1.415 . S
C686 H662 0.950 . S
C686 C681 1.363 . S
C686 C685 1.415 . S
C687 H663 0.951 . S
C687 C688 1.366 . S
C687 C689 1.388 . S
C688 C687 1.366 . S
C688 C692 1.385 . S
C689 H664 0.951 . S
C689 C687 1.388 . S
C689 C690 1.366 . S
C690 C689 1.366 . S
C690 C691 1.414 . S
C690 C693 1.499 . S
C691 H665 0.950 . S
C691 C690 1.414 . S
C691 C692 1.374 . S
C692 H666 0.950 . S
C692 C688 1.385 . S
C692 C691 1.374 . S
C693 C690 1.499 . S
C693 C694 1.373 . S
C693 C695 1.389 1_545 S
C694 H667 0.950 . S
C694 C680 1.377 . S
C694 C693 1.373 . S
C695 C679 1.377 . S
C695 C693 1.389 1_565 S
C695 C696 1.524 . S
C696 C695 1.524 . S
C696 C697 1.397 . S
C696 C701 1.363 . S
C697 H668 0.950 . S
C697 C696 1.397 . S
C697 C698 1.334 . S
C698 H669 0.950 . S
C698 C697 1.334 . S
C698 C699 1.287 . S
C699 C698 1.287 . S
C699 C700 1.524 . S
C699 H702 0.999 . S
C700 H670 0.950 . S
C700 C699 1.524 . S
C700 C701 1.415 . S
C701 H671 0.950 . S
C701 C696 1.363 . S
C701 C700 1.415 . S
H702 C699 0.999 . S
H703 C684 0.913 . S
H704 C722 0.951 . S
H705 C724 0.951 . S
H706 C726 0.950 . S
H707 C727 0.950 . S
H708 C729 0.950 . S
H709 C732 0.950 . S
H710 C733 0.950 . S
H711 C735 0.919 . S
H712 C736 0.950 . S
H713 C737 0.951 . S
H714 C739 0.951 . S
H715 C741 0.950 . S
H716 C742 0.950 . S
H717 C744 0.950 . S
H718 C747 0.950 . S
H719 C748 0.950 . S
H720 C750 0.919 . S
H721 C751 0.950 . S
C722 H704 0.951 . S
C722 C723 1.366 . S
C722 C724 1.388 . S
C723 C722 1.366 . S
C723 C727 1.385 . S
C724 H705 0.951 . S
C724 C722 1.388 . S
C724 C725 1.366 . S
C725 C724 1.366 . S
C725 C726 1.414 . S
C725 C728 1.499 . S
C726 H706 0.950 . S
C726 C725 1.414 . S
C726 C727 1.374 . S
C727 H707 0.950 . S
C727 C723 1.385 . S
C727 C726 1.374 . S
C728 C725 1.499 . S
C728 C729 1.373 . S
C728 C730 1.463 . S
C729 H708 0.950 . S
C729 C728 1.373 . S
C729 C745 1.336 1_455 S
C730 C728 1.463 . S
C730 C731 1.500 . S
C730 C744 1.336 1_455 S
C731 C730 1.500 . S
C731 C732 1.392 1_455 S
C731 C736 1.353 . S
C732 H709 0.950 . S
C732 C731 1.392 1_655 S
C732 C733 1.334 . S
C733 H710 0.950 . S
C733 C732 1.334 . S
C733 C734 1.287 . S
C734 C733 1.287 . S
C734 C735 1.514 1_655 S
C734 H753 0.913 . S
C735 H711 0.919 . S
C735 C734 1.514 1_455 S
C735 C736 1.475 . S
C736 H712 0.950 . S
C736 C731 1.353 . S
C736 C735 1.475 . S
C737 H713 0.951 . S
C737 C738 1.366 . S
C737 C739 1.388 . S
C738 C737 1.366 . S
C738 C742 1.385 . S
C739 H714 0.951 . S
C739 C737 1.388 . S
C739 C740 1.366 . S
C740 C739 1.366 . S
C740 C741 1.414 . S
C740 C743 1.499 . S
C741 H715 0.950 . S
C741 C740 1.414 . S
C741 C742 1.374 . S
C742 H716 0.950 . S
C742 C738 1.385 . S
C742 C741 1.374 . S
C743 C740 1.499 . S
C743 C744 1.373 . S
C743 C745 1.463 . S
C744 H717 0.950 . S
C744 C730 1.336 1_655 S
C744 C743 1.373 . S
C745 C729 1.336 1_655 S
C745 C743 1.463 . S
C745 C746 1.500 . S
C746 C745 1.500 . S
C746 C747 1.392 1_655 S
C746 C751 1.353 . S
C747 H718 0.950 . S
C747 C746 1.392 1_455 S
C747 C748 1.334 . S
C748 H719 0.950 . S
C748 C747 1.334 . S
C748 C749 1.287 . S
C749 C748 1.287 . S
C749 C750 1.514 1_455 S
C749 H752 0.999 . S
C750 H720 0.919 . S
C750 C749 1.514 1_655 S
C750 C751 1.476 . S
C751 H721 0.950 . S
C751 C746 1.353 . S
C751 C750 1.476 . S
H752 C749 0.999 . S
H753 C734 0.913 . S
H754 C772 0.951 . S
H755 C774 0.951 . S
H756 C776 0.950 . S
H757 C777 0.950 . S
H758 C779 0.950 . S
H759 C782 0.950 . S
H760 C783 0.950 . S
H761 C785 0.950 . S
H762 C786 0.950 . S
H763 C787 0.951 . S
H764 C789 0.951 . S
H765 C791 0.950 . S
H766 C792 0.950 . S
H767 C794 0.950 . S
H768 C797 0.950 . S
H769 C798 0.950 . S
H770 C800 0.950 . S
H771 C801 0.950 . S
C772 H754 0.951 . S
C772 C773 1.366 . S
C772 C774 1.388 . S
C773 C772 1.366 . S
C773 C777 1.385 . S
C774 H755 0.951 . S
C774 C772 1.388 . S
C774 C775 1.366 . S
C775 C774 1.366 . S
C775 C776 1.414 . S
C775 C778 1.499 . S
C776 H756 0.950 . S
C776 C775 1.414 . S
C776 C777 1.374 . S
C777 H757 0.950 . S
C777 C773 1.385 . S
C777 C776 1.374 . S
C778 C775 1.499 . S
C778 C779 1.373 . S
C778 C780 1.389 . S
C779 H758 0.950 . S
C779 C778 1.373 . S
C779 C795 1.377 . S
C780 C778 1.389 . S
C780 C781 1.524 . S
C780 C794 1.377 . S
C781 C780 1.524 . S
C781 C782 1.397 . S
C781 C786 1.363 . S
C782 H759 0.950 . S
C782 C781 1.397 . S
C782 C783 1.334 . S
C783 H760 0.950 . S
C783 C782 1.334 . S
C783 C784 1.287 . S
C784 C783 1.287 . S
C784 C785 1.524 . S
C784 H803 0.913 . S
C785 H761 0.950 . S
C785 C784 1.524 . S
C785 C786 1.415 . S
C786 H762 0.950 . S
C786 C781 1.363 . S
C786 C785 1.415 . S
C787 H763 0.951 . S
C787 C788 1.366 . S
C787 C789 1.388 . S
C788 C787 1.366 . S
C788 C792 1.385 . S
C789 H764 0.951 . S
C789 C787 1.388 . S
C789 C790 1.366 . S
C790 C789 1.366 . S
C790 C791 1.414 . S
C790 C793 1.499 . S
C791 H765 0.950 . S
C791 C790 1.414 . S
C791 C792 1.374 . S
C792 H766 0.950 . S
C792 C788 1.385 . S
C792 C791 1.374 . S
C793 C790 1.499 . S
C793 C794 1.373 . S
C793 C795 1.389 . S
C794 H767 0.950 . S
C794 C780 1.377 . S
C794 C793 1.373 . S
C795 C779 1.377 . S
C795 C793 1.389 . S
C795 C796 1.524 . S
C796 C795 1.524 . S
C796 C797 1.397 . S
C796 C801 1.363 . S
C797 H768 0.950 . S
C797 C796 1.397 . S
C797 C798 1.334 . S
C798 H769 0.950 . S
C798 C797 1.334 . S
C798 C799 1.287 . S
C799 C798 1.287 . S
C799 C800 1.524 . S
C799 H802 0.999 . S
C800 H770 0.950 . S
C800 C799 1.524 . S
C800 C801 1.415 . S
C801 H771 0.950 . S
C801 C796 1.363 . S
C801 C800 1.415 . S
H802 C799 0.999 . S
H803 C784 0.913 . S
H804 C822 0.951 . S
H805 C824 0.951 . S
H806 C826 0.950 . S
H807 C827 0.950 . S
H808 C829 0.950 . S
H809 C832 0.950 . S
H810 C833 0.950 . S
H811 C835 0.950 . S
H812 C836 0.950 . S
H813 C837 0.951 1_554 S
H814 C839 0.951 . S
H815 C841 0.950 . S
H816 C842 0.950 . S
H817 C844 0.950 . S
H818 C847 0.950 . S
H819 C848 0.950 . S
H820 C850 0.950 . S
H821 C851 0.950 . S
C822 H804 0.951 . S
C822 C823 1.366 . S
C822 C824 1.388 . S
C823 C822 1.366 . S
C823 C827 1.385 . S
C824 H805 0.951 . S
C824 C822 1.388 . S
C824 C825 1.366 . S
C825 C824 1.366 . S
C825 C826 1.414 . S
C825 C828 1.499 . S
C826 H806 0.950 . S
C826 C825 1.414 . S
C826 C827 1.374 . S
C827 H807 0.950 . S
C827 C823 1.385 . S
C827 C826 1.374 . S
C828 C825 1.499 . S
C828 C829 1.373 . S
C828 C830 1.389 . S
C829 H808 0.950 . S
C829 C828 1.373 . S
C829 C845 1.377 . S
C830 C828 1.389 . S
C830 C831 1.524 . S
C830 C844 1.377 . S
C831 C830 1.524 . S
C831 C832 1.397 . S
C831 C836 1.363 . S
C832 H809 0.950 . S
C832 C831 1.397 . S
C832 C833 1.334 . S
C833 H810 0.950 . S
C833 C832 1.334 . S
C833 C834 1.287 . S
C834 C833 1.287 . S
C834 C835 1.524 . S
C834 H853 0.913 . S
C835 H811 0.950 . S
C835 C834 1.524 . S
C835 C836 1.415 . S
C836 H812 0.950 . S
C836 C831 1.363 . S
C836 C835 1.415 . S
C837 H813 0.951 1_556 S
C837 C838 1.366 . S
C837 C839 1.388 . S
C838 C837 1.366 . S
C838 C842 1.385 . S
C839 H814 0.951 . S
C839 C837 1.388 . S
C839 C840 1.366 . S
C840 C839 1.366 . S
C840 C841 1.414 . S
C840 C843 1.499 . S
C841 H815 0.950 . S
C841 C840 1.414 . S
C841 C842 1.374 . S
C842 H816 0.950 . S
C842 C838 1.385 . S
C842 C841 1.374 . S
C843 C840 1.499 . S
C843 C844 1.373 . S
C843 C845 1.389 . S
C844 H817 0.950 . S
C844 C830 1.377 . S
C844 C843 1.373 . S
C845 C829 1.377 . S
C845 C843 1.389 . S
C845 C846 1.524 . S
C846 C845 1.524 . S
C846 C847 1.397 . S
C846 C851 1.363 . S
C847 H818 0.950 . S
C847 C846 1.397 . S
C847 C848 1.334 . S
C848 H819 0.950 . S
C848 C847 1.334 . S
C848 C849 1.287 . S
C849 C848 1.287 . S
C849 C850 1.524 . S
C849 H852 0.999 . S
C850 H820 0.950 . S
C850 C849 1.524 . S
C850 C851 1.415 . S
C851 H821 0.950 . S
C851 C846 1.363 . S
C851 C850 1.415 . S
H852 C849 0.999 . S
H853 C834 0.913 . S
H854 C872 0.951 . S
H855 C874 0.951 . S
H856 C876 0.950 . S
H857 C877 0.950 . S
H858 C879 0.950 . S
H859 C882 0.950 . S
H860 C883 0.950 . S
H861 C885 0.950 . S
H862 C886 0.950 . S
H863 C887 0.951 . S
H864 C889 0.951 . S
H865 C891 0.950 . S
H866 C892 0.950 1_554 S
H867 C894 0.950 . S
H868 C897 0.950 . S
H869 C898 0.950 . S
H870 C900 0.950 . S
H871 C901 0.950 . S
C872 H854 0.951 . S
C872 C873 1.366 . S
C872 C874 1.388 . S
C873 C872 1.366 . S
C873 C877 1.385 . S
C874 H855 0.951 . S
C874 C872 1.388 . S
C874 C875 1.366 . S
C875 C874 1.366 . S
C875 C876 1.414 . S
C875 C878 1.499 . S
C876 H856 0.950 . S
C876 C875 1.414 . S
C876 C877 1.374 . S
C877 H857 0.950 . S
C877 C873 1.385 . S
C877 C876 1.374 . S
C878 C875 1.499 . S
C878 C879 1.373 . S
C878 C880 1.389 . S
C879 H858 0.950 . S
C879 C878 1.373 . S
C879 C895 1.377 . S
C880 C878 1.389 . S
C880 C881 1.524 . S
C880 C894 1.377 . S
C881 C880 1.524 . S
C881 C882 1.397 . S
C881 C886 1.363 . S
C882 H859 0.950 . S
C882 C881 1.397 . S
C882 C883 1.334 . S
C883 H860 0.950 . S
C883 C882 1.334 . S
C883 C884 1.287 . S
C884 C883 1.287 . S
C884 C885 1.524 . S
C884 H903 0.913 . S
C885 H861 0.950 . S
C885 C884 1.524 . S
C885 C886 1.415 . S
C886 H862 0.950 . S
C886 C881 1.363 . S
C886 C885 1.415 . S
C887 H863 0.951 . S
C887 C888 1.366 . S
C887 C889 1.388 . S
C888 C887 1.366 . S
C888 C892 1.385 . S
C889 H864 0.951 . S
C889 C887 1.388 . S
C889 C890 1.366 . S
C890 C889 1.366 . S
C890 C891 1.414 . S
C890 C893 1.499 . S
C891 H865 0.950 . S
C891 C890 1.414 . S
C891 C892 1.374 . S
C892 H866 0.950 1_556 S
C892 C888 1.385 . S
C892 C891 1.374 . S
C893 C890 1.499 . S
C893 C894 1.373 . S
C893 C895 1.389 . S
C894 H867 0.950 . S
C894 C880 1.377 . S
C894 C893 1.373 . S
C895 C879 1.377 . S
C895 C893 1.389 . S
C895 C896 1.524 . S
C896 C895 1.524 . S
C896 C897 1.397 . S
C896 C901 1.363 . S
C897 H868 0.950 . S
C897 C896 1.397 . S
C897 C898 1.334 . S
C898 H869 0.950 . S
C898 C897 1.334 . S
C898 C899 1.287 . S
C899 C898 1.287 . S
C899 C900 1.524 . S
C899 H902 0.999 . S
C900 H870 0.950 . S
C900 C899 1.524 . S
C900 C901 1.415 . S
C901 H871 0.950 . S
C901 C896 1.363 . S
C901 C900 1.415 . S
H902 C899 0.999 . S
H903 C884 0.913 . S
H904 C922 0.951 . S
H905 C924 0.951 . S
H906 C926 0.950 . S
H907 C927 0.950 . S
H908 C929 0.950 . S
H909 C932 0.950 . S
H910 C933 0.950 . S
H911 C935 0.950 . S
H912 C936 0.950 . S
H913 C937 0.951 . S
H914 C939 0.951 . S
H915 C941 0.950 . S
H916 C942 0.950 . S
H917 C944 0.950 . S
H918 C947 0.950 . S
H919 C948 0.950 . S
H920 C950 0.950 . S
H921 C951 0.950 . S
C922 H904 0.951 . S
C922 C923 1.366 . S
C922 C924 1.388 . S
C923 C922 1.366 . S
C923 C927 1.385 . S
C924 H905 0.951 . S
C924 C922 1.388 . S
C924 C925 1.366 . S
C925 C924 1.366 . S
C925 C926 1.414 . S
C925 C928 1.499 . S
C926 H906 0.950 . S
C926 C925 1.414 . S
C926 C927 1.374 . S
C927 H907 0.950 . S
C927 C923 1.385 . S
C927 C926 1.374 . S
C928 C925 1.499 . S
C928 C929 1.373 . S
C928 C930 1.389 . S
C929 H908 0.950 . S
C929 C928 1.373 . S
C929 C945 1.377 . S
C930 C928 1.389 . S
C930 C931 1.524 . S
C930 C944 1.377 . S
C931 C930 1.524 . S
C931 C932 1.397 . S
C931 C936 1.363 . S
C932 H909 0.950 . S
C932 C931 1.397 . S
C932 C933 1.334 . S
C933 H910 0.950 . S
C933 C932 1.334 . S
C933 C934 1.287 . S
C934 C933 1.287 . S
C934 C935 1.524 . S
C934 H953 0.913 . S
C935 H911 0.950 . S
C935 C934 1.524 . S
C935 C936 1.415 . S
C936 H912 0.950 . S
C936 C931 1.363 . S
C936 C935 1.415 . S
C937 H913 0.951 . S
C937 C938 1.366 . S
C937 C939 1.388 . S
C938 C937 1.366 . S
C938 C942 1.385 . S
C939 H914 0.951 . S
C939 C937 1.388 . S
C939 C940 1.366 . S
C940 C939 1.366 . S
C940 C941 1.414 . S
C940 C943 1.499 . S
C941 H915 0.950 . S
C941 C940 1.414 . S
C941 C942 1.374 . S
C942 H916 0.950 . S
C942 C938 1.385 . S
C942 C941 1.374 . S
C943 C940 1.499 . S
C943 C944 1.373 . S
C943 C945 1.389 . S
C944 H917 0.950 . S
C944 C930 1.377 . S
C944 C943 1.373 . S
C945 C929 1.377 . S
C945 C943 1.389 . S
C945 C946 1.524 . S
C946 C945 1.524 . S
C946 C947 1.397 . S
C946 C951 1.363 . S
C947 H918 0.950 . S
C947 C946 1.397 . S
C947 C948 1.334 . S
C948 H919 0.950 . S
C948 C947 1.334 . S
C948 C949 1.287 . S
C949 C948 1.287 . S
C949 C950 1.524 . S
C949 H952 0.999 . S
C950 H920 0.950 . S
C950 C949 1.524 . S
C950 C951 1.415 . S
C951 H921 0.950 . S
C951 C946 1.363 . S
C951 C950 1.415 . S
H952 C949 0.999 . S
H953 C934 0.913 . S
H954 C972 0.951 . S
H955 C974 0.951 . S
H956 C976 0.950 . S
H957 C977 0.950 . S
H958 C979 0.950 . S
H959 C982 0.950 . S
H960 C983 0.950 . S
H961 C985 0.950 . S
H962 C986 0.950 . S
H963 C987 0.951 . S
H964 C989 0.951 . S
H965 C991 0.950 . S
H966 C992 0.950 1_554 S
H967 C994 0.950 . S
H968 C997 0.950 . S
H969 C998 0.950 . S
H970 C1000 0.950 . S
H971 C1001 0.950 . S
C972 H954 0.951 . S
C972 C973 1.366 . S
C972 C974 1.388 . S
C973 C972 1.366 . S
C973 C977 1.385 . S
C974 H955 0.951 . S
C974 C972 1.388 . S
C974 C975 1.366 . S
C975 C974 1.366 . S
C975 C976 1.414 . S
C975 C978 1.499 . S
C976 H956 0.950 . S
C976 C975 1.414 . S
C976 C977 1.374 . S
C977 H957 0.950 . S
C977 C973 1.385 . S
C977 C976 1.374 . S
C978 C975 1.499 . S
C978 C979 1.373 . S
C978 C980 1.389 . S
C979 H958 0.950 . S
C979 C978 1.373 . S
C979 C995 1.377 . S
C980 C978 1.389 . S
C980 C981 1.524 . S
C980 C994 1.377 . S
C981 C980 1.524 . S
C981 C982 1.397 . S
C981 C986 1.363 . S
C982 H959 0.950 . S
C982 C981 1.397 . S
C982 C983 1.334 . S
C983 H960 0.950 . S
C983 C982 1.334 . S
C983 C984 1.287 . S
C984 C983 1.287 . S
C984 C985 1.524 . S
C984 H1003 0.913 . S
C985 H961 0.950 . S
C985 C984 1.524 . S
C985 C986 1.415 . S
C986 H962 0.950 . S
C986 C981 1.363 . S
C986 C985 1.415 . S
C987 H963 0.951 . S
C987 C988 1.366 . S
C987 C989 1.388 . S
C988 C987 1.366 . S
C988 C992 1.385 . S
C989 H964 0.951 . S
C989 C987 1.388 . S
C989 C990 1.366 . S
C990 C989 1.366 . S
C990 C991 1.414 . S
C990 C993 1.499 . S
C991 H965 0.950 . S
C991 C990 1.414 . S
C991 C992 1.374 . S
C992 H966 0.950 1_556 S
C992 C988 1.385 . S
C992 C991 1.374 . S
C993 C990 1.499 . S
C993 C994 1.373 . S
C993 C995 1.389 . S
C994 H967 0.950 . S
C994 C980 1.377 . S
C994 C993 1.373 . S
C995 C979 1.377 . S
C995 C993 1.389 . S
C995 C996 1.524 . S
C996 C995 1.524 . S
C996 C997 1.397 . S
C996 C1001 1.363 . S
C997 H968 0.950 . S
C997 C996 1.397 . S
C997 C998 1.334 . S
C998 H969 0.950 . S
C998 C997 1.334 . S
C998 C999 1.287 . S
C999 C998 1.287 . S
C999 C1000 1.524 . S
C999 H1002 0.999 . S
C1000 H970 0.950 . S
C1000 C999 1.524 . S
C1000 C1001 1.415 . S
C1001 H971 0.950 . S
C1001 C996 1.363 . S
C1001 C1000 1.415 . S
H1002 C999 0.999 . S
H1003 C984 0.913 . S
H1004 C1022 0.949 . S
H1005 C1024 0.951 . S
H1006 C1026 0.950 . S
H1007 C1027 0.950 . S
H1008 C1029 0.950 . S
H1009 C1032 0.950 . S
H1010 C1033 0.950 . S
H1011 C1035 0.950 . S
H1012 C1036 0.950 . S
H1013 C1037 0.951 . S
H1014 C1039 0.951 . S
H1015 C1041 0.950 . S
H1016 C1042 0.950 . S
H1017 C1044 0.950 . S
H1018 C1047 0.950 . S
H1019 C1048 0.950 . S
H1020 C1050 0.950 . S
H1021 C1051 0.950 . S
C1022 H1004 0.949 . S
C1022 C1023 1.366 . S
C1022 C1024 1.388 . S
C1023 C1022 1.366 . S
C1023 C1027 1.385 . S
C1024 H1005 0.951 . S
C1024 C1022 1.388 . S
C1024 C1025 1.366 . S
C1025 C1024 1.366 . S
C1025 C1026 1.414 . S
C1025 C1028 1.499 . S
C1026 H1006 0.950 . S
C1026 C1025 1.414 . S
C1026 C1027 1.374 . S
C1027 H1007 0.950 . S
C1027 C1023 1.385 . S
C1027 C1026 1.374 . S
C1028 C1025 1.499 . S
C1028 C1029 1.373 . S
C1028 C1030 1.389 . S
C1029 H1008 0.950 . S
C1029 C1028 1.373 . S
C1029 C1045 1.377 . S
C1030 C1028 1.389 . S
C1030 C1031 1.524 . S
C1030 C1044 1.377 . S
C1031 C1030 1.524 . S
C1031 C1032 1.397 . S
C1031 C1036 1.363 . S
C1032 H1009 0.950 . S
C1032 C1031 1.397 . S
C1032 C1033 1.334 . S
C1033 H1010 0.950 . S
C1033 C1032 1.334 . S
C1033 C1034 1.287 . S
C1034 C1033 1.287 . S
C1034 C1035 1.524 . S
C1034 H1053 0.913 1_556 S
C1035 H1011 0.950 . S
C1035 C1034 1.524 . S
C1035 C1036 1.415 . S
C1036 H1012 0.950 . S
C1036 C1031 1.363 . S
C1036 C1035 1.415 . S
C1037 H1013 0.951 . S
C1037 C1038 1.366 . S
C1037 C1039 1.388 . S
C1038 C1037 1.366 . S
C1038 C1042 1.385 . S
C1039 H1014 0.951 . S
C1039 C1037 1.388 . S
C1039 C1040 1.366 . S
C1040 C1039 1.366 . S
C1040 C1041 1.414 . S
C1040 C1043 1.499 . S
C1041 H1015 0.950 . S
C1041 C1040 1.414 . S
C1041 C1042 1.374 . S
C1042 H1016 0.950 . S
C1042 C1038 1.385 . S
C1042 C1041 1.374 . S
C1043 C1040 1.499 . S
C1043 C1044 1.373 . S
C1043 C1045 1.389 . S
C1044 H1017 0.950 . S
C1044 C1030 1.377 . S
C1044 C1043 1.373 . S
C1045 C1029 1.377 . S
C1045 C1043 1.389 . S
C1045 C1046 1.524 . S
C1046 C1045 1.524 . S
C1046 C1047 1.397 . S
C1046 C1051 1.363 . S
C1047 H1018 0.950 . S
C1047 C1046 1.397 . S
C1047 C1048 1.334 . S
C1048 H1019 0.950 . S
C1048 C1047 1.334 . S
C1048 C1049 1.287 . S
C1049 C1048 1.287 . S
C1049 C1050 1.524 . S
C1049 H1052 0.999 . S
C1050 H1020 0.950 . S
C1050 C1049 1.524 . S
C1050 C1051 1.415 . S
C1051 H1021 0.950 . S
C1051 C1046 1.363 . S
C1051 C1050 1.415 . S
H1052 C1049 0.999 . S
H1053 C1034 0.913 1_554 S
H1054 C1072 0.951 . S
H1055 C1074 0.951 . S
H1056 C1076 0.950 . S
H1057 C1077 0.950 . S
H1058 C1079 0.950 . S
H1059 C1082 0.950 . S
H1060 C1083 0.950 . S
H1061 C1085 0.950 . S
H1062 C1086 0.950 . S
H1063 C1087 0.951 . S
H1064 C1089 0.951 . S
H1065 C1091 0.950 . S
H1066 C1092 0.972 . S
H1067 C1094 0.950 . S
H1068 C1097 0.950 . S
H1069 C1098 0.950 . S
H1070 C1100 0.950 . S
H1071 C1101 0.950 . S
C1072 H1054 0.951 . S
C1072 C1073 1.366 . S
C1072 C1074 1.388 . S
C1073 C1072 1.366 . S
C1073 C1077 1.385 . S
C1074 H1055 0.951 . S
C1074 C1072 1.388 . S
C1074 C1075 1.366 . S
C1075 C1074 1.366 . S
C1075 C1076 1.414 . S
C1075 C1078 1.499 . S
C1076 H1056 0.950 . S
C1076 C1075 1.414 . S
C1076 C1077 1.374 . S
C1077 H1057 0.950 . S
C1077 C1073 1.385 . S
C1077 C1076 1.374 . S
C1078 C1075 1.499 . S
C1078 C1079 1.373 . S
C1078 C1080 1.389 . S
C1079 H1058 0.950 . S
C1079 C1078 1.373 . S
C1079 C1095 1.377 . S
C1080 C1078 1.389 . S
C1080 C1081 1.524 . S
C1080 C1094 1.377 . S
C1081 C1080 1.524 . S
C1081 C1082 1.397 . S
C1081 C1086 1.363 . S
C1082 H1059 0.950 . S
C1082 C1081 1.397 . S
C1082 C1083 1.334 . S
C1083 H1060 0.950 . S
C1083 C1082 1.334 . S
C1083 C1084 1.287 . S
C1084 C1083 1.287 . S
C1084 C1085 1.524 . S
C1084 H1103 0.913 . S
C1085 H1061 0.950 . S
C1085 C1084 1.524 . S
C1085 C1086 1.415 . S
C1086 H1062 0.950 . S
C1086 C1081 1.363 . S
C1086 C1085 1.415 . S
C1087 H1063 0.951 . S
C1087 C1088 1.366 . S
C1087 C1089 1.388 . S
C1088 C1087 1.366 . S
C1088 C1092 1.385 . S
C1089 H1064 0.951 . S
C1089 C1087 1.388 . S
C1089 C1090 1.366 . S
C1090 C1089 1.366 . S
C1090 C1091 1.414 . S
C1090 C1093 1.499 . S
C1091 H1065 0.950 . S
C1091 C1090 1.414 . S
C1091 C1092 1.374 . S
C1092 H1066 0.972 . S
C1092 C1088 1.385 . S
C1092 C1091 1.374 . S
C1093 C1090 1.499 . S
C1093 C1094 1.373 . S
C1093 C1095 1.389 . S
C1094 H1067 0.950 . S
C1094 C1080 1.377 . S
C1094 C1093 1.373 . S
C1095 C1079 1.377 . S
C1095 C1093 1.389 . S
C1095 C1096 1.524 . S
C1096 C1095 1.524 . S
C1096 C1097 1.397 . S
C1096 C1101 1.363 . S
C1097 H1068 0.950 . S
C1097 C1096 1.397 . S
C1097 C1098 1.334 . S
C1098 H1069 0.950 . S
C1098 C1097 1.334 . S
C1098 C1099 1.287 . S
C1099 C1098 1.287 . S
C1099 C1100 1.524 . S
C1099 H1102 0.999 . S
C1100 H1070 0.950 . S
C1100 C1099 1.524 . S
C1100 C1101 1.415 . S
C1101 H1071 0.950 . S
C1101 C1096 1.363 . S
C1101 C1100 1.415 . S
H1102 C1099 0.999 . S
H1103 C1084 0.913 . S
H1104 C1122 0.951 . S
H1105 C1124 0.951 . S
H1106 C1126 0.950 . S
H1107 C1127 0.950 . S
H1108 C1129 0.950 . S
H1109 C1132 0.950 . S
H1110 C1133 0.950 . S
H1111 C1135 0.950 . S
H1112 C1136 0.950 . S
H1113 C1137 0.951 . S
H1114 C1139 0.951 . S
H1115 C1141 0.950 . S
H1116 C1142 0.950 . S
H1117 C1144 0.950 . S
H1118 C1147 0.950 . S
H1119 C1148 0.950 . S
H1120 C1150 0.950 . S
H1121 C1151 0.950 . S
C1122 H1104 0.951 . S
C1122 C1123 1.366 . S
C1122 C1124 1.388 . S
C1123 C1122 1.366 . S
C1123 C1127 1.385 . S
C1124 H1105 0.951 . S
C1124 C1122 1.388 . S
C1124 C1125 1.366 . S
C1125 C1124 1.366 . S
C1125 C1126 1.414 . S
C1125 C1128 1.499 . S
C1126 H1106 0.950 . S
C1126 C1125 1.414 . S
C1126 C1127 1.374 . S
C1127 H1107 0.950 . S
C1127 C1123 1.385 . S
C1127 C1126 1.374 . S
C1128 C1125 1.499 . S
C1128 C1129 1.373 . S
C1128 C1130 1.389 . S
C1129 H1108 0.950 . S
C1129 C1128 1.373 . S
C1129 C1145 1.377 . S
C1130 C1128 1.389 . S
C1130 C1131 1.524 . S
C1130 C1144 1.377 . S
C1131 C1130 1.524 . S
C1131 C1132 1.397 . S
C1131 C1136 1.363 . S
C1132 H1109 0.950 . S
C1132 C1131 1.397 . S
C1132 C1133 1.334 . S
C1133 H1110 0.950 . S
C1133 C1132 1.334 . S
C1133 C1134 1.287 . S
C1134 C1133 1.287 . S
C1134 C1135 1.524 . S
C1134 H1153 0.913 . S
C1135 H1111 0.950 . S
C1135 C1134 1.524 . S
C1135 C1136 1.415 . S
C1136 H1112 0.950 . S
C1136 C1131 1.363 . S
C1136 C1135 1.415 . S
C1137 H1113 0.951 . S
C1137 C1138 1.366 . S
C1137 C1139 1.388 . S
C1138 C1137 1.366 . S
C1138 C1142 1.385 . S
C1139 H1114 0.951 . S
C1139 C1137 1.388 . S
C1139 C1140 1.366 . S
C1140 C1139 1.366 . S
C1140 C1141 1.414 . S
C1140 C1143 1.499 . S
C1141 H1115 0.950 . S
C1141 C1140 1.414 . S
C1141 C1142 1.374 . S
C1142 H1116 0.950 . S
C1142 C1138 1.385 . S
C1142 C1141 1.374 . S
C1143 C1140 1.499 . S
C1143 C1144 1.373 . S
C1143 C1145 1.389 . S
C1144 H1117 0.950 . S
C1144 C1130 1.377 . S
C1144 C1143 1.373 . S
C1145 C1129 1.377 . S
C1145 C1143 1.389 . S
C1145 C1146 1.524 . S
C1146 C1145 1.524 . S
C1146 C1147 1.397 . S
C1146 C1151 1.363 . S
C1147 H1118 0.950 . S
C1147 C1146 1.397 . S
C1147 C1148 1.334 . S
C1148 H1119 0.950 . S
C1148 C1147 1.334 . S
C1148 C1149 1.287 . S
C1149 C1148 1.287 . S
C1149 C1150 1.524 . S
C1149 H1152 0.999 . S
C1150 H1120 0.950 . S
C1150 C1149 1.524 . S
C1150 C1151 1.415 . S
C1151 H1121 0.950 . S
C1151 C1146 1.363 . S
C1151 C1150 1.415 . S
H1152 C1149 0.999 . S
H1153 C1134 0.913 . S
H1154 C1172 0.951 . S
H1155 C1174 0.951 . S
H1156 C1176 0.950 . S
H1157 C1177 0.950 . S
H1158 C1179 0.950 . S
H1159 C1182 0.950 . S
H1160 C1183 0.950 . S
H1161 C1185 0.950 . S
H1162 C1186 0.950 . S
H1163 C1187 0.951 . S
H1164 C1189 0.951 . S
H1165 C1191 0.950 . S
H1166 C1192 0.950 1_556 S
H1167 C1194 0.950 . S
H1168 C1197 0.950 . S
H1169 C1198 0.950 . S
H1170 C1200 0.950 . S
H1171 C1201 0.950 . S
C1172 H1154 0.951 . S
C1172 C1173 1.366 . S
C1172 C1174 1.388 . S
C1173 C1172 1.366 . S
C1173 C1177 1.385 . S
C1174 H1155 0.951 . S
C1174 C1172 1.388 . S
C1174 C1175 1.366 . S
C1175 C1174 1.366 . S
C1175 C1176 1.414 . S
C1175 C1178 1.499 . S
C1176 H1156 0.950 . S
C1176 C1175 1.414 . S
C1176 C1177 1.374 . S
C1177 H1157 0.950 . S
C1177 C1173 1.385 . S
C1177 C1176 1.374 . S
C1178 C1175 1.499 . S
C1178 C1179 1.373 . S
C1178 C1180 1.389 . S
C1179 H1158 0.950 . S
C1179 C1178 1.373 . S
C1179 C1195 1.377 . S
C1180 C1178 1.389 . S
C1180 C1181 1.524 . S
C1180 C1194 1.377 . S
C1181 C1180 1.524 . S
C1181 C1182 1.397 . S
C1181 C1186 1.363 . S
C1182 H1159 0.950 . S
C1182 C1181 1.397 . S
C1182 C1183 1.334 . S
C1183 H1160 0.950 . S
C1183 C1182 1.334 . S
C1183 C1184 1.287 . S
C1184 C1183 1.287 . S
C1184 C1185 1.524 . S
C1184 H1203 0.913 . S
C1185 H1161 0.950 . S
C1185 C1184 1.524 . S
C1185 C1186 1.415 . S
C1186 H1162 0.950 . S
C1186 C1181 1.363 . S
C1186 C1185 1.415 . S
C1187 H1163 0.951 . S
C1187 C1188 1.366 . S
C1187 C1189 1.388 . S
C1188 C1187 1.366 . S
C1188 C1192 1.385 . S
C1189 H1164 0.951 . S
C1189 C1187 1.388 . S
C1189 C1190 1.366 . S
C1190 C1189 1.366 . S
C1190 C1191 1.414 . S
C1190 C1193 1.499 . S
C1191 H1165 0.950 . S
C1191 C1190 1.414 . S
C1191 C1192 1.374 . S
C1192 H1166 0.950 1_554 S
C1192 C1188 1.385 . S
C1192 C1191 1.374 . S
C1193 C1190 1.499 . S
C1193 C1194 1.373 . S
C1193 C1195 1.389 . S
C1194 H1167 0.950 . S
C1194 C1180 1.377 . S
C1194 C1193 1.373 . S
C1195 C1179 1.377 . S
C1195 C1193 1.389 . S
C1195 C1196 1.524 . S
C1196 C1195 1.524 . S
C1196 C1197 1.397 . S
C1196 C1201 1.363 . S
C1197 H1168 0.950 . S
C1197 C1196 1.397 . S
C1197 C1198 1.334 . S
C1198 H1169 0.950 . S
C1198 C1197 1.334 . S
C1198 C1199 1.287 . S
C1199 C1198 1.287 . S
C1199 C1200 1.524 . S
C1199 H1202 0.999 . S
C1200 H1170 0.950 . S
C1200 C1199 1.524 . S
C1200 C1201 1.415 . S
C1201 H1171 0.950 . S
C1201 C1196 1.363 . S
C1201 C1200 1.415 . S
H1202 C1199 0.999 . S
H1203 C1184 0.913 . S
H1204 C1222 0.951 . S
H1205 C1224 0.951 . S
H1206 C1226 0.950 . S
H1207 C1227 0.950 . S
H1208 C1229 0.950 . S
H1209 C1232 0.950 . S
H1210 C1233 0.950 . S
H1211 C1235 0.950 . S
H1212 C1236 0.950 . S
H1213 C1237 0.951 . S
H1214 C1239 0.951 . S
H1215 C1241 0.950 . S
H1216 C1242 0.950 1_556 S
H1217 C1244 0.950 . S
H1218 C1247 0.950 . S
H1219 C1248 0.950 . S
H1220 C1250 0.950 . S
H1221 C1251 0.950 . S
C1222 H1204 0.951 . S
C1222 C1223 1.366 . S
C1222 C1224 1.388 . S
C1223 C1222 1.366 . S
C1223 C1227 1.385 . S
C1224 H1205 0.951 . S
C1224 C1222 1.388 . S
C1224 C1225 1.366 . S
C1225 C1224 1.366 . S
C1225 C1226 1.414 . S
C1225 C1228 1.499 . S
C1226 H1206 0.950 . S
C1226 C1225 1.414 . S
C1226 C1227 1.374 . S
C1227 H1207 0.950 . S
C1227 C1223 1.385 . S
C1227 C1226 1.374 . S
C1228 C1225 1.499 . S
C1228 C1229 1.373 . S
C1228 C1230 1.389 . S
C1229 H1208 0.950 . S
C1229 C1228 1.373 . S
C1229 C1245 1.377 . S
C1230 C1228 1.389 . S
C1230 C1231 1.524 . S
C1230 C1244 1.377 . S
C1231 C1230 1.524 . S
C1231 C1232 1.397 . S
C1231 C1236 1.363 . S
C1232 H1209 0.950 . S
C1232 C1231 1.397 . S
C1232 C1233 1.334 . S
C1233 H1210 0.950 . S
C1233 C1232 1.334 . S
C1233 C1234 1.287 . S
C1234 C1233 1.287 . S
C1234 C1235 1.524 . S
C1234 H1253 0.913 . S
C1235 H1211 0.950 . S
C1235 C1234 1.524 . S
C1235 C1236 1.415 . S
C1236 H1212 0.950 . S
C1236 C1231 1.363 . S
C1236 C1235 1.415 . S
C1237 H1213 0.951 . S
C1237 C1238 1.366 . S
C1237 C1239 1.388 . S
C1238 C1237 1.366 . S
C1238 C1242 1.385 . S
C1239 H1214 0.951 . S
C1239 C1237 1.388 . S
C1239 C1240 1.366 . S
C1240 C1239 1.366 . S
C1240 C1241 1.414 . S
C1240 C1243 1.499 . S
C1241 H1215 0.950 . S
C1241 C1240 1.414 . S
C1241 C1242 1.374 . S
C1242 H1216 0.950 1_554 S
C1242 C1238 1.385 . S
C1242 C1241 1.374 . S
C1243 C1240 1.499 . S
C1243 C1244 1.373 . S
C1243 C1245 1.389 . S
C1244 H1217 0.950 . S
C1244 C1230 1.377 . S
C1244 C1243 1.373 . S
C1245 C1229 1.377 . S
C1245 C1243 1.389 . S
C1245 C1246 1.524 . S
C1246 C1245 1.524 . S
C1246 C1247 1.397 . S
C1246 C1251 1.363 . S
C1247 H1218 0.950 . S
C1247 C1246 1.397 . S
C1247 C1248 1.334 . S
C1248 H1219 0.950 . S
C1248 C1247 1.334 . S
C1248 C1249 1.287 . S
C1249 C1248 1.287 . S
C1249 C1250 1.524 . S
C1249 H1252 0.999 . S
C1250 H1220 0.950 . S
C1250 C1249 1.524 . S
C1250 C1251 1.415 . S
C1251 H1221 0.950 . S
C1251 C1246 1.363 . S
C1251 C1250 1.415 . S
H1252 C1249 0.999 . S
H1253 C1234 0.913 . S
H1254 C1272 0.951 . S
H1255 C1274 0.951 . S
H1256 C1276 0.950 . S
H1257 C1277 0.950 . S
H1258 C1279 0.950 . S
H1259 C1282 0.950 . S
H1260 C1283 0.950 . S
H1261 C1285 0.950 . S
H1262 C1286 0.950 . S
H1263 C1287 0.951 . S
H1264 C1289 0.951 . S
H1265 C1291 0.950 . S
H1266 C1292 0.950 1_556 S
H1267 C1294 0.950 . S
H1268 C1297 0.950 . S
H1269 C1298 0.950 . S
H1270 C1300 0.950 . S
H1271 C1301 0.950 . S
C1272 H1254 0.951 . S
C1272 C1273 1.366 . S
C1272 C1274 1.388 . S
C1273 C1272 1.366 . S
C1273 C1277 1.385 . S
C1274 H1255 0.951 . S
C1274 C1272 1.388 . S
C1274 C1275 1.366 . S
C1275 C1274 1.366 . S
C1275 C1276 1.414 . S
C1275 C1278 1.499 . S
C1276 H1256 0.950 . S
C1276 C1275 1.414 . S
C1276 C1277 1.374 . S
C1277 H1257 0.950 . S
C1277 C1273 1.385 . S
C1277 C1276 1.374 . S
C1278 C1275 1.499 . S
C1278 C1279 1.373 . S
C1278 C1280 1.389 . S
C1279 H1258 0.950 . S
C1279 C1278 1.373 . S
C1279 C1295 1.377 . S
C1280 C1278 1.389 . S
C1280 C1281 1.524 . S
C1280 C1294 1.377 . S
C1281 C1280 1.524 . S
C1281 C1282 1.397 . S
C1281 C1286 1.363 . S
C1282 H1259 0.950 . S
C1282 C1281 1.397 . S
C1282 C1283 1.334 . S
C1283 H1260 0.950 . S
C1283 C1282 1.334 . S
C1283 C1284 1.287 . S
C1284 C1283 1.287 . S
C1284 C1285 1.524 . S
C1284 H1303 0.913 . S
C1285 H1261 0.950 . S
C1285 C1284 1.524 . S
C1285 C1286 1.415 . S
C1286 H1262 0.950 . S
C1286 C1281 1.363 . S
C1286 C1285 1.415 . S
C1287 H1263 0.951 . S
C1287 C1288 1.366 . S
C1287 C1289 1.388 . S
C1288 C1287 1.366 . S
C1288 C1292 1.385 . S
C1289 H1264 0.951 . S
C1289 C1287 1.388 . S
C1289 C1290 1.366 . S
C1290 C1289 1.366 . S
C1290 C1291 1.414 . S
C1290 C1293 1.499 . S
C1291 H1265 0.950 . S
C1291 C1290 1.414 . S
C1291 C1292 1.374 . S
C1292 H1266 0.950 1_554 S
C1292 C1288 1.385 . S
C1292 C1291 1.374 . S
C1293 C1290 1.499 . S
C1293 C1294 1.373 . S
C1293 C1295 1.389 . S
C1294 H1267 0.950 . S
C1294 C1280 1.377 . S
C1294 C1293 1.373 . S
C1295 C1279 1.377 . S
C1295 C1293 1.389 . S
C1295 C1296 1.524 . S
C1296 C1295 1.524 . S
C1296 C1297 1.397 . S
C1296 C1301 1.363 . S
C1297 H1268 0.950 . S
C1297 C1296 1.397 . S
C1297 C1298 1.334 . S
C1298 H1269 0.950 . S
C1298 C1297 1.334 . S
C1298 C1299 1.287 . S
C1299 C1298 1.287 . S
C1299 C1300 1.524 . S
C1299 H1302 0.999 . S
C1300 H1270 0.950 . S
C1300 C1299 1.524 . S
C1300 C1301 1.415 . S
C1301 H1271 0.950 . S
C1301 C1296 1.363 . S
C1301 C1300 1.415 . S
H1302 C1299 0.999 . S
H1303 C1284 0.913 . S
H1304 C1322 0.951 . S
H1305 C1324 0.951 . S
H1306 C1326 0.950 . S
H1307 C1327 0.950 . S
H1308 C1329 0.950 . S
H1309 C1332 0.950 . S
H1310 C1333 0.950 . S
H1311 C1335 0.950 . S
H1312 C1336 0.950 . S
H1313 C1337 0.951 . S
H1314 C1339 0.951 . S
H1315 C1341 0.950 . S
H1316 C1342 0.950 . S
H1317 C1344 0.950 . S
H1318 C1347 0.950 . S
H1319 C1348 0.950 . S
H1320 C1350 0.950 . S
H1321 C1351 0.950 . S
C1322 H1304 0.951 . S
C1322 C1323 1.366 . S
C1322 C1324 1.388 . S
C1323 C1322 1.366 . S
C1323 C1327 1.385 . S
C1324 H1305 0.951 . S
C1324 C1322 1.388 . S
C1324 C1325 1.366 . S
C1325 C1324 1.366 . S
C1325 C1326 1.414 . S
C1325 C1328 1.499 . S
C1326 H1306 0.950 . S
C1326 C1325 1.414 . S
C1326 C1327 1.374 . S
C1327 H1307 0.950 . S
C1327 C1323 1.385 . S
C1327 C1326 1.374 . S
C1328 C1325 1.499 . S
C1328 C1329 1.373 . S
C1328 C1330 1.389 . S
C1329 H1308 0.950 . S
C1329 C1328 1.373 . S
C1329 C1345 1.377 . S
C1330 C1328 1.389 . S
C1330 C1331 1.524 . S
C1330 C1344 1.377 . S
C1331 C1330 1.524 . S
C1331 C1332 1.397 . S
C1331 C1336 1.363 . S
C1332 H1309 0.950 . S
C1332 C1331 1.397 . S
C1332 C1333 1.334 . S
C1333 H1310 0.950 . S
C1333 C1332 1.334 . S
C1333 C1334 1.287 . S
C1334 C1333 1.287 . S
C1334 C1335 1.524 . S
C1334 H1353 0.913 . S
C1335 H1311 0.950 . S
C1335 C1334 1.524 . S
C1335 C1336 1.415 . S
C1336 H1312 0.950 . S
C1336 C1331 1.363 . S
C1336 C1335 1.415 . S
C1337 H1313 0.951 . S
C1337 C1338 1.366 . S
C1337 C1339 1.388 . S
C1338 C1337 1.366 . S
C1338 C1342 1.385 . S
C1339 H1314 0.951 . S
C1339 C1337 1.388 . S
C1339 C1340 1.366 . S
C1340 C1339 1.366 . S
C1340 C1341 1.414 . S
C1340 C1343 1.499 . S
C1341 H1315 0.950 . S
C1341 C1340 1.414 . S
C1341 C1342 1.374 . S
C1342 H1316 0.950 . S
C1342 C1338 1.385 . S
C1342 C1341 1.374 . S
C1343 C1340 1.499 . S
C1343 C1344 1.373 . S
C1343 C1345 1.389 . S
C1344 H1317 0.950 . S
C1344 C1330 1.377 . S
C1344 C1343 1.373 . S
C1345 C1329 1.377 . S
C1345 C1343 1.389 . S
C1345 C1346 1.524 . S
C1346 C1345 1.524 . S
C1346 C1347 1.397 . S
C1346 C1351 1.363 . S
C1347 H1318 0.950 . S
C1347 C1346 1.397 . S
C1347 C1348 1.334 . S
C1348 H1319 0.950 . S
C1348 C1347 1.334 . S
C1348 C1349 1.287 . S
C1349 C1348 1.287 . S
C1349 C1350 1.524 . S
C1349 H1352 0.999 . S
C1350 H1320 0.950 . S
C1350 C1349 1.524 . S
C1350 C1351 1.415 . S
C1351 H1321 0.950 . S
C1351 C1346 1.363 . S
C1351 C1350 1.415 . S
H1352 C1349 0.999 . S
H1353 C1334 0.913 . S
H1354 C1372 0.951 . S
H1355 C1374 0.951 . S
H1356 C1376 0.950 . S
H1357 C1377 0.950 . S
H1358 C1379 0.950 . S
H1359 C1382 0.950 . S
H1360 C1383 0.950 . S
H1361 C1385 0.950 . S
H1362 C1386 0.950 . S
H1363 C1387 0.951 . S
H1364 C1389 0.951 . S
H1365 C1391 0.950 . S
H1366 C1392 0.950 1_556 S
H1367 C1394 0.950 . S
H1368 C1397 0.950 . S
H1369 C1398 0.950 . S
H1370 C1400 0.950 . S
H1371 C1401 0.950 . S
C1372 H1354 0.951 . S
C1372 C1373 1.366 . S
C1372 C1374 1.388 . S
C1373 C1372 1.366 . S
C1373 C1377 1.385 . S
C1374 H1355 0.951 . S
C1374 C1372 1.388 . S
C1374 C1375 1.366 . S
C1375 C1374 1.366 . S
C1375 C1376 1.414 . S
C1375 C1378 1.499 . S
C1376 H1356 0.950 . S
C1376 C1375 1.414 . S
C1376 C1377 1.374 . S
C1377 H1357 0.950 . S
C1377 C1373 1.385 . S
C1377 C1376 1.374 . S
C1378 C1375 1.499 . S
C1378 C1379 1.373 . S
C1378 C1380 1.389 . S
C1379 H1358 0.950 . S
C1379 C1378 1.373 . S
C1379 C1395 1.377 . S
C1380 C1378 1.389 . S
C1380 C1381 1.524 . S
C1380 C1394 1.377 . S
C1381 C1380 1.524 . S
C1381 C1382 1.397 . S
C1381 C1386 1.363 . S
C1382 H1359 0.950 . S
C1382 C1381 1.397 . S
C1382 C1383 1.334 . S
C1383 H1360 0.950 . S
C1383 C1382 1.334 . S
C1383 C1384 1.287 . S
C1384 C1383 1.287 . S
C1384 C1385 1.524 . S
C1384 H1403 0.913 . S
C1385 H1361 0.950 . S
C1385 C1384 1.524 . S
C1385 C1386 1.415 . S
C1386 H1362 0.950 . S
C1386 C1381 1.363 . S
C1386 C1385 1.415 . S
C1387 H1363 0.951 . S
C1387 C1388 1.366 . S
C1387 C1389 1.388 . S
C1388 C1387 1.366 . S
C1388 C1392 1.385 . S
C1389 H1364 0.951 . S
C1389 C1387 1.388 . S
C1389 C1390 1.366 . S
C1390 C1389 1.366 . S
C1390 C1391 1.414 . S
C1390 C1393 1.499 . S
C1391 H1365 0.950 . S
C1391 C1390 1.414 . S
C1391 C1392 1.374 . S
C1392 H1366 0.950 1_554 S
C1392 C1388 1.385 . S
C1392 C1391 1.374 . S
C1393 C1390 1.499 . S
C1393 C1394 1.373 . S
C1393 C1395 1.389 . S
C1394 H1367 0.950 . S
C1394 C1380 1.377 . S
C1394 C1393 1.373 . S
C1395 C1379 1.377 . S
C1395 C1393 1.389 . S
C1395 C1396 1.524 . S
C1396 C1395 1.524 . S
C1396 C1397 1.397 . S
C1396 C1401 1.363 . S
C1397 H1368 0.950 . S
C1397 C1396 1.397 . S
C1397 C1398 1.334 . S
C1398 H1369 0.950 . S
C1398 C1397 1.334 . S
C1398 C1399 1.287 . S
C1399 C1398 1.287 . S
C1399 C1400 1.524 . S
C1399 H1402 0.999 . S
C1400 H1370 0.950 . S
C1400 C1399 1.524 . S
C1400 C1401 1.415 . S
C1401 H1371 0.950 . S
C1401 C1396 1.363 . S
C1401 C1400 1.415 . S
H1402 C1399 0.999 . S
H1403 C1384 0.913 . S
H1404 C1422 0.951 . S
H1405 C1424 0.951 . S
H1406 C1426 0.950 . S
H1407 C1427 0.950 . S
H1408 C1429 0.950 . S
H1409 C1432 0.950 . S
H1410 C1433 0.950 . S
H1411 C1435 0.950 . S
H1412 C1436 0.950 . S
H1413 C1437 0.951 . S
H1414 C1439 0.951 . S
H1415 C1441 0.950 . S
H1416 C1442 0.950 . S
H1417 C1444 0.950 . S
H1418 C1447 0.950 . S
H1419 C1448 0.950 . S
H1420 C1450 0.950 . S
H1421 C1451 0.950 . S
C1422 H1404 0.951 . S
C1422 C1423 1.366 . S
C1422 C1424 1.388 . S
C1423 C1422 1.366 . S
C1423 C1427 1.385 . S
C1424 H1405 0.951 . S
C1424 C1422 1.388 . S
C1424 C1425 1.366 . S
C1425 C1424 1.366 . S
C1425 C1426 1.414 . S
C1425 C1428 1.499 . S
C1426 H1406 0.950 . S
C1426 C1425 1.414 . S
C1426 C1427 1.374 . S
C1427 H1407 0.950 . S
C1427 C1423 1.385 . S
C1427 C1426 1.374 . S
C1428 C1425 1.499 . S
C1428 C1429 1.373 . S
C1428 C1430 1.389 . S
C1429 H1408 0.950 . S
C1429 C1428 1.373 . S
C1429 C1445 1.377 1_566 S
C1430 C1428 1.389 . S
C1430 C1431 1.524 . S
C1430 C1444 1.377 1_566 S
C1431 C1430 1.524 . S
C1431 C1432 1.397 . S
C1431 C1436 1.363 1_565 S
C1432 H1409 0.950 . S
C1432 C1431 1.397 . S
C1432 C1433 1.334 . S
C1433 H1410 0.950 . S
C1433 C1432 1.334 . S
C1433 C1434 1.287 . S
C1434 C1433 1.287 . S
C1434 C1435 1.524 1_565 S
C1434 H1453 0.913 . S
C1435 H1411 0.950 . S
C1435 C1434 1.524 1_545 S
C1435 C1436 1.415 . S
C1436 H1412 0.950 . S
C1436 C1431 1.363 1_545 S
C1436 C1435 1.415 . S
C1437 H1413 0.951 . S
C1437 C1438 1.366 . S
C1437 C1439 1.388 . S
C1438 C1437 1.366 . S
C1438 C1442 1.385 . S
C1439 H1414 0.951 . S
C1439 C1437 1.388 . S
C1439 C1440 1.366 . S
C1440 C1439 1.366 . S
C1440 C1441 1.414 . S
C1440 C1443 1.499 . S
C1441 H1415 0.950 . S
C1441 C1440 1.414 . S
C1441 C1442 1.374 . S
C1442 H1416 0.950 . S
C1442 C1438 1.385 . S
C1442 C1441 1.374 . S
C1443 C1440 1.499 . S
C1443 C1444 1.373 . S
C1443 C1445 1.389 . S
C1444 H1417 0.950 . S
C1444 C1430 1.377 1_544 S
C1444 C1443 1.373 . S
C1445 C1429 1.377 1_544 S
C1445 C1443 1.389 . S
C1445 C1446 1.524 . S
C1446 C1445 1.524 . S
C1446 C1447 1.397 . S
C1446 C1451 1.363 1_545 S
C1447 H1418 0.950 . S
C1447 C1446 1.397 . S
C1447 C1448 1.334 . S
C1448 H1419 0.950 . S
C1448 C1447 1.334 . S
C1448 C1449 1.287 . S
C1449 C1448 1.287 . S
C1449 C1450 1.524 1_545 S
C1449 H1452 0.999 . S
C1450 H1420 0.950 . S
C1450 C1449 1.524 1_565 S
C1450 C1451 1.415 . S
C1451 H1421 0.950 . S
C1451 C1446 1.363 1_565 S
C1451 C1450 1.415 . S
H1452 C1449 0.999 . S
H1453 C1434 0.913 . S
H1454 C1472 0.951 . S
H1455 C1474 0.951 . S
H1456 C1476 0.950 . S
H1457 C1477 0.950 . S
H1458 C1479 0.950 . S
H1459 C1482 0.950 . S
H1460 C1483 0.950 . S
H1461 C1485 0.950 . S
H1462 C1486 0.950 . S
H1463 C1487 0.951 . S
H1464 C1489 0.951 . S
H1465 C1491 0.950 . S
H1466 C1492 0.950 . S
H1467 C1494 0.950 . S
H1468 C1497 0.950 . S
H1469 C1498 0.950 . S
H1470 C1500 0.950 . S
H1471 C1501 0.950 . S
C1472 H1454 0.951 . S
C1472 C1473 1.366 . S
C1472 C1474 1.388 . S
C1473 C1472 1.366 . S
C1473 C1477 1.385 . S
C1474 H1455 0.951 . S
C1474 C1472 1.388 . S
C1474 C1475 1.366 . S
C1475 C1474 1.366 . S
C1475 C1476 1.414 . S
C1475 C1478 1.499 . S
C1476 H1456 0.950 . S
C1476 C1475 1.414 . S
C1476 C1477 1.374 . S
C1477 H1457 0.950 . S
C1477 C1473 1.385 . S
C1477 C1476 1.374 . S
C1478 C1475 1.499 . S
C1478 C1479 1.373 1_655 S
C1478 C1480 1.389 1_554 S
C1479 H1458 0.950 . S
C1479 C1478 1.373 1_455 S
C1479 C1495 1.377 . S
C1480 C1478 1.389 1_556 S
C1480 C1481 1.524 . S
C1480 C1494 1.377 . S
C1481 C1480 1.524 . S
C1481 C1482 1.397 1_556 S
C1481 C1486 1.363 . S
C1482 H1459 0.950 . S
C1482 C1481 1.397 1_554 S
C1482 C1483 1.334 . S
C1483 H1460 0.950 . S
C1483 C1482 1.334 . S
C1483 C1484 1.287 1_554 S
C1484 C1483 1.287 1_556 S
C1484 C1485 1.524 . S
C1484 H1503 0.913 . S
C1485 H1461 0.950 . S
C1485 C1484 1.524 . S
C1485 C1486 1.415 . S
C1486 H1462 0.950 . S
C1486 C1481 1.363 . S
C1486 C1485 1.415 . S
C1487 H1463 0.951 . S
C1487 C1488 1.366 . S
C1487 C1489 1.388 . S
C1488 C1487 1.366 . S
C1488 C1492 1.385 . S
C1489 H1464 0.951 . S
C1489 C1487 1.388 . S
C1489 C1490 1.366 . S
C1490 C1489 1.366 . S
C1490 C1491 1.414 . S
C1490 C1493 1.499 . S
C1491 H1465 0.950 . S
C1491 C1490 1.414 . S
C1491 C1492 1.374 . S
C1492 H1466 0.950 . S
C1492 C1488 1.385 . S
C1492 C1491 1.374 . S
C1493 C1490 1.499 . S
C1493 C1494 1.373 1_455 S
C1493 C1495 1.389 1_556 S
C1494 H1467 0.950 . S
C1494 C1480 1.377 . S
C1494 C1493 1.373 1_655 S
C1495 C1479 1.377 . S
C1495 C1493 1.389 1_554 S
C1495 C1496 1.524 . S
C1496 C1495 1.524 . S
C1496 C1497 1.397 1_554 S
C1496 C1501 1.363 . S
C1497 H1468 0.950 . S
C1497 C1496 1.397 1_556 S
C1497 C1498 1.334 . S
C1498 H1469 0.950 . S
C1498 C1497 1.334 . S
C1498 C1499 1.287 1_556 S
C1499 C1498 1.287 1_554 S
C1499 C1500 1.524 . S
C1499 H1502 0.999 . S
C1500 H1470 0.950 . S
C1500 C1499 1.524 . S
C1500 C1501 1.415 . S
C1501 H1471 0.950 . S
C1501 C1496 1.363 . S
C1501 C1500 1.415 . S
H1502 C1499 0.999 . S
H1503 C1484 0.913 . S
H1504 C1522 0.951 . S
H1505 C1524 0.951 . S
H1506 C1526 0.950 . S
H1507 C1527 0.950 . S
H1508 C1529 0.950 . S
H1509 C1532 0.950 . S
H1510 C1533 0.950 . S
H1511 C1535 0.950 1_554 S
H1512 C1536 0.950 . S
H1513 C1537 0.951 . S
H1514 C1539 0.951 . S
H1515 C1541 0.950 . S
H1516 C1542 0.950 . S
H1517 C1544 0.950 . S
H1518 C1547 0.950 . S
H1519 C1548 0.950 . S
H1520 C1550 0.950 1_556 S
H1521 C1551 0.950 . S
C1522 H1504 0.951 . S
C1522 C1523 1.366 . S
C1522 C1524 1.388 . S
C1523 C1522 1.366 . S
C1523 C1527 1.385 . S
C1524 H1505 0.951 . S
C1524 C1522 1.388 . S
C1524 C1525 1.366 . S
C1525 C1524 1.366 . S
C1525 C1526 1.414 . S
C1525 C1528 1.499 . S
C1526 H1506 0.950 . S
C1526 C1525 1.414 . S
C1526 C1527 1.374 . S
C1527 H1507 0.950 . S
C1527 C1523 1.385 . S
C1527 C1526 1.374 . S
C1528 C1525 1.499 . S
C1528 C1529 1.373 . S
C1528 C1530 1.389 . S
C1529 H1508 0.950 . S
C1529 C1528 1.373 . S
C1529 C1545 1.377 1_556 S
C1530 C1528 1.389 . S
C1530 C1531 1.524 . S
C1530 C1544 1.377 1_556 S
C1531 C1530 1.524 . S
C1531 C1532 1.397 . S
C1531 C1536 1.363 1_556 S
C1532 H1509 0.950 . S
C1532 C1531 1.397 . S
C1532 C1533 1.334 . S
C1533 H1510 0.950 . S
C1533 C1532 1.334 . S
C1533 C1534 1.287 . S
C1534 C1533 1.287 . S
C1534 C1535 1.524 . S
C1534 H1553 0.913 . S
C1535 H1511 0.950 1_556 S
C1535 C1534 1.524 . S
C1535 C1536 1.415 1_556 S
C1536 H1512 0.950 . S
C1536 C1531 1.363 1_554 S
C1536 C1535 1.415 1_554 S
C1537 H1513 0.951 . S
C1537 C1538 1.366 . S
C1537 C1539 1.388 . S
C1538 C1537 1.366 . S
C1538 C1542 1.385 . S
C1539 H1514 0.951 . S
C1539 C1537 1.388 . S
C1539 C1540 1.366 . S
C1540 C1539 1.366 . S
C1540 C1541 1.414 . S
C1540 C1543 1.499 . S
C1541 H1515 0.950 . S
C1541 C1540 1.414 . S
C1541 C1542 1.374 . S
C1542 H1516 0.950 . S
C1542 C1538 1.385 . S
C1542 C1541 1.374 . S
C1543 C1540 1.499 . S
C1543 C1544 1.373 . S
C1543 C1545 1.389 . S
C1544 H1517 0.950 . S
C1544 C1530 1.377 1_554 S
C1544 C1543 1.373 . S
C1545 C1529 1.377 1_554 S
C1545 C1543 1.389 . S
C1545 C1546 1.524 . S
C1546 C1545 1.524 . S
C1546 C1547 1.397 . S
C1546 C1551 1.363 1_554 S
C1547 H1518 0.950 . S
C1547 C1546 1.397 . S
C1547 C1548 1.334 . S
C1548 H1519 0.950 . S
C1548 C1547 1.334 . S
C1548 C1549 1.287 . S
C1549 C1548 1.287 . S
C1549 C1550 1.524 . S
C1549 H1552 0.999 . S
C1550 H1520 0.950 1_554 S
C1550 C1549 1.524 . S
C1550 C1551 1.415 1_554 S
C1551 H1521 0.950 . S
C1551 C1546 1.363 1_556 S
C1551 C1550 1.415 1_556 S
H1552 C1549 0.999 . S
H1553 C1534 0.913 . S
H1554 C1572 0.951 . S
H1555 C1574 0.951 . S
H1556 C1576 0.950 . S
H1557 C1577 0.950 . S
H1558 C1579 0.950 . S
H1559 C1582 0.950 . S
H1560 C1583 0.950 . S
H1561 C1585 0.950 . S
H1562 C1586 0.950 . S
H1563 C1587 0.951 . S
H1564 C1589 0.951 . S
H1565 C1591 0.950 . S
H1566 C1592 0.950 . S
H1567 C1594 0.950 . S
H1568 C1597 0.950 . S
H1569 C1598 0.950 . S
H1570 C1600 0.950 . S
H1571 C1601 0.950 . S
C1572 H1554 0.951 . S
C1572 C1573 1.366 . S
C1572 C1574 1.388 . S
C1573 C1572 1.366 . S
C1573 C1577 1.385 . S
C1574 H1555 0.951 . S
C1574 C1572 1.388 . S
C1574 C1575 1.366 . S
C1575 C1574 1.366 . S
C1575 C1576 1.414 . S
C1575 C1578 1.499 . S
C1576 H1556 0.950 . S
C1576 C1575 1.414 . S
C1576 C1577 1.374 . S
C1577 H1557 0.950 . S
C1577 C1573 1.385 . S
C1577 C1576 1.374 . S
C1578 C1575 1.499 . S
C1578 C1579 1.373 1_565 S
C1578 C1580 1.402 . S
C1579 H1558 0.950 . S
C1579 C1578 1.373 1_545 S
C1579 C1595 1.363 1_556 S
C1580 C1578 1.402 . S
C1580 C1581 1.524 1_556 S
C1580 C1594 1.363 1_556 S
C1581 C1580 1.524 1_554 S
C1581 C1582 1.390 1_554 S
C1581 C1586 1.370 . S
C1582 H1559 0.950 . S
C1582 C1581 1.390 1_556 S
C1582 C1583 1.334 . S
C1583 H1560 0.950 . S
C1583 C1582 1.334 . S
C1583 C1584 1.287 . S
C1584 C1583 1.287 . S
C1584 C1585 1.524 1_556 S
C1584 H1603 0.913 . S
C1585 H1561 0.950 . S
C1585 C1584 1.524 1_554 S
C1585 C1586 1.415 . S
C1586 H1562 0.950 . S
C1586 C1581 1.370 . S
C1586 C1585 1.415 . S
C1587 H1563 0.951 . S
C1587 C1588 1.366 . S
C1587 C1589 1.388 . S
C1588 C1587 1.366 . S
C1588 C1592 1.385 . S
C1589 H1564 0.951 . S
C1589 C1587 1.388 . S
C1589 C1590 1.366 . S
C1590 C1589 1.366 . S
C1590 C1591 1.414 . S
C1590 C1593 1.499 . S
C1591 H1565 0.950 . S
C1591 C1590 1.414 . S
C1591 C1592 1.374 . S
C1592 H1566 0.950 . S
C1592 C1588 1.385 . S
C1592 C1591 1.374 . S
C1593 C1590 1.499 . S
C1593 C1594 1.373 1_545 S
C1593 C1595 1.403 . S
C1594 H1567 0.950 . S
C1594 C1580 1.363 1_554 S
C1594 C1593 1.373 1_565 S
C1595 C1579 1.363 1_554 S
C1595 C1593 1.403 . S
C1595 C1596 1.524 1_554 S
C1596 C1595 1.524 1_556 S
C1596 C1597 1.391 1_556 S
C1596 C1601 1.369 . S
C1597 H1568 0.950 . S
C1597 C1596 1.391 1_554 S
C1597 C1598 1.334 . S
C1598 H1569 0.950 . S
C1598 C1597 1.334 . S
C1598 C1599 1.287 . S
C1599 C1598 1.287 . S
C1599 C1600 1.524 1_554 S
C1599 H1602 0.999 . S
C1600 H1570 0.950 . S
C1600 C1599 1.524 1_556 S
C1600 C1601 1.415 . S
C1601 H1571 0.950 . S
C1601 C1596 1.369 . S
C1601 C1600 1.415 . S
H1602 C1599 0.999 . S
H1603 C1584 0.913 . S
H1604 C1622 0.951 . S
H1605 C1624 0.951 . S
H1606 C1626 0.950 . S
H1607 C1627 0.950 . S
H1608 C1629 0.950 . S
H1609 C1632 0.950 . S
H1610 C1633 0.950 . S
H1611 C1635 0.950 . S
H1612 C1636 0.950 . S
H1613 C1637 0.951 . S
H1614 C1639 0.951 . S
H1615 C1641 0.950 . S
H1616 C1642 0.950 . S
H1617 C1644 0.950 . S
H1618 C1647 0.950 . S
H1619 C1648 0.950 . S
H1620 C1650 0.950 . S
H1621 C1651 0.950 . S
C1622 H1604 0.951 . S
C1622 C1623 1.366 . S
C1622 C1624 1.388 . S
C1623 C1622 1.366 . S
C1623 C1627 1.385 . S
C1624 H1605 0.951 . S
C1624 C1622 1.388 . S
C1624 C1625 1.366 . S
C1625 C1624 1.366 . S
C1625 C1626 1.414 . S
C1625 C1628 1.499 . S
C1626 H1606 0.950 . S
C1626 C1625 1.414 . S
C1626 C1627 1.374 . S
C1627 H1607 0.950 . S
C1627 C1623 1.385 . S
C1627 C1626 1.374 . S
C1628 C1625 1.499 . S
C1628 C1629 1.373 . S
C1628 C1630 1.389 1_455 S
C1629 H1608 0.950 . S
C1629 C1628 1.373 . S
C1629 C1645 1.377 1_556 S
C1630 C1628 1.389 1_655 S
C1630 C1631 1.524 . S
C1630 C1644 1.377 1_556 S
C1631 C1630 1.524 . S
C1631 C1632 1.397 1_655 S
C1631 C1636 1.363 . S
C1632 H1609 0.950 . S
C1632 C1631 1.397 1_455 S
C1632 C1633 1.334 . S
C1633 H1610 0.950 . S
C1633 C1632 1.334 . S
C1633 C1634 1.287 1_455 S
C1634 C1633 1.287 1_655 S
C1634 C1635 1.524 . S
C1634 H1653 0.913 . S
C1635 H1611 0.950 . S
C1635 C1634 1.524 . S
C1635 C1636 1.415 . S
C1636 H1612 0.950 . S
C1636 C1631 1.363 . S
C1636 C1635 1.415 . S
C1637 H1613 0.951 . S
C1637 C1638 1.366 . S
C1637 C1639 1.388 . S
C1638 C1637 1.366 . S
C1638 C1642 1.385 . S
C1639 H1614 0.951 . S
C1639 C1637 1.388 . S
C1639 C1640 1.366 . S
C1640 C1639 1.366 . S
C1640 C1641 1.414 . S
C1640 C1643 1.499 . S
C1641 H1615 0.950 . S
C1641 C1640 1.414 . S
C1641 C1642 1.374 . S
C1642 H1616 0.950 . S
C1642 C1638 1.385 . S
C1642 C1641 1.374 . S
C1643 C1640 1.499 . S
C1643 C1644 1.373 . S
C1643 C1645 1.389 1_655 S
C1644 H1617 0.950 . S
C1644 C1630 1.377 1_554 S
C1644 C1643 1.373 . S
C1645 C1629 1.377 1_554 S
C1645 C1643 1.389 1_455 S
C1645 C1646 1.524 . S
C1646 C1645 1.524 . S
C1646 C1647 1.397 1_455 S
C1646 C1651 1.363 . S
C1647 H1618 0.950 . S
C1647 C1646 1.397 1_655 S
C1647 C1648 1.334 . S
C1648 H1619 0.950 . S
C1648 C1647 1.334 . S
C1648 C1649 1.287 1_655 S
C1649 C1648 1.287 1_455 S
C1649 C1650 1.524 . S
C1649 H1652 0.999 . S
C1650 H1620 0.950 . S
C1650 C1649 1.524 . S
C1650 C1651 1.415 . S
C1651 H1621 0.950 . S
C1651 C1646 1.363 . S
C1651 C1650 1.415 . S
H1652 C1649 0.999 . S
H1653 C1634 0.913 . S
H1654 C1672 0.951 . S
H1655 C1674 0.951 . S
H1656 C1676 0.950 . S
H1657 C1677 0.950 . S
H1658 C1679 0.950 . S
H1659 C1682 0.950 . S
H1660 C1683 0.950 . S
H1661 C1685 0.950 . S
H1662 C1686 0.950 1_556 S
H1663 C1687 0.951 . S
H1664 C1689 0.951 . S
H1665 C1691 0.950 . S
H1666 C1692 0.950 . S
H1667 C1694 0.950 . S
H1668 C1697 0.950 . S
H1669 C1698 0.950 . S
H1670 C1700 0.950 . S
H1671 C1701 0.950 1_554 S
C1672 H1654 0.951 . S
C1672 C1673 1.366 . S
C1672 C1674 1.388 . S
C1673 C1672 1.366 . S
C1673 C1677 1.385 . S
C1674 H1655 0.951 . S
C1674 C1672 1.388 . S
C1674 C1675 1.366 . S
C1675 C1674 1.366 . S
C1675 C1676 1.414 . S
C1675 C1678 1.499 . S
C1676 H1656 0.950 . S
C1676 C1675 1.414 . S
C1676 C1677 1.374 . S
C1677 H1657 0.950 . S
C1677 C1673 1.385 . S
C1677 C1676 1.374 . S
C1678 C1675 1.499 . S
C1678 C1679 1.373 . S
C1678 C1680 1.389 . S
C1679 H1658 0.950 . S
C1679 C1678 1.373 . S
C1679 C1695 1.377 1_554 S
C1680 C1678 1.389 . S
C1680 C1681 1.524 . S
C1680 C1694 1.377 1_554 S
C1681 C1680 1.524 . S
C1681 C1682 1.397 . S
C1681 C1686 1.363 . S
C1682 H1659 0.950 . S
C1682 C1681 1.397 . S
C1682 C1683 1.334 . S
C1683 H1660 0.950 . S
C1683 C1682 1.334 . S
C1683 C1684 1.287 . S
C1684 C1683 1.287 . S
C1684 C1685 1.524 . S
C1684 H1703 0.913 . S
C1685 H1661 0.950 . S
C1685 C1684 1.524 . S
C1685 C1686 1.415 . S
C1686 H1662 0.950 1_554 S
C1686 C1681 1.363 . S
C1686 C1685 1.415 . S
C1687 H1663 0.951 . S
C1687 C1688 1.366 . S
C1687 C1689 1.388 . S
C1688 C1687 1.366 . S
C1688 C1692 1.385 . S
C1689 H1664 0.951 . S
C1689 C1687 1.388 . S
C1689 C1690 1.366 . S
C1690 C1689 1.366 . S
C1690 C1691 1.414 . S
C1690 C1693 1.499 . S
C1691 H1665 0.950 . S
C1691 C1690 1.414 . S
C1691 C1692 1.374 . S
C1692 H1666 0.950 . S
C1692 C1688 1.385 . S
C1692 C1691 1.374 . S
C1693 C1690 1.499 . S
C1693 C1694 1.373 . S
C1693 C1695 1.389 . S
C1694 H1667 0.950 . S
C1694 C1680 1.377 1_556 S
C1694 C1693 1.373 . S
C1695 C1679 1.377 1_556 S
C1695 C1693 1.389 . S
C1695 C1696 1.524 . S
C1696 C1695 1.524 . S
C1696 C1697 1.397 . S
C1696 C1701 1.363 . S
C1697 H1668 0.950 . S
C1697 C1696 1.397 . S
C1697 C1698 1.334 . S
C1698 H1669 0.950 . S
C1698 C1697 1.334 . S
C1698 C1699 1.287 . S
C1699 C1698 1.287 . S
C1699 C1700 1.524 . S
C1699 H1702 0.999 . S
C1700 H1670 0.950 . S
C1700 C1699 1.524 . S
C1700 C1701 1.415 . S
C1701 H1671 0.950 1_556 S
C1701 C1696 1.363 . S
C1701 C1700 1.415 . S
H1702 C1699 0.999 . S
H1703 C1684 0.913 . S
H1704 C1722 0.951 . S
H1705 C1724 0.951 . S
H1706 C1726 0.950 . S
H1707 C1727 0.950 . S
H1708 C1729 0.950 . S
H1709 C1732 0.950 . S
H1710 C1733 0.950 . S
H1711 C1735 0.950 . S
H1712 C1736 0.950 . S
H1713 C1737 0.951 . S
H1714 C1739 0.951 . S
H1715 C1741 0.950 . S
H1716 C1742 0.950 . S
H1717 C1744 0.950 . S
H1718 C1747 0.950 . S
H1719 C1748 0.950 . S
H1720 C1750 0.950 . S
H1721 C1751 0.950 . S
C1722 H1704 0.951 . S
C1722 C1723 1.366 . S
C1722 C1724 1.388 . S
C1723 C1722 1.366 . S
C1723 C1727 1.385 . S
C1724 H1705 0.951 . S
C1724 C1722 1.388 . S
C1724 C1725 1.366 . S
C1725 C1724 1.366 . S
C1725 C1726 1.414 . S
C1725 C1728 1.499 . S
C1726 H1706 0.950 . S
C1726 C1725 1.414 . S
C1726 C1727 1.374 . S
C1727 H1707 0.950 . S
C1727 C1723 1.385 . S
C1727 C1726 1.374 . S
C1728 C1725 1.499 . S
C1728 C1729 1.373 . S
C1728 C1730 1.389 . S
C1729 H1708 0.950 . S
C1729 C1728 1.373 . S
C1729 C1745 1.377 . S
C1730 C1728 1.389 . S
C1730 C1731 1.524 . S
C1730 C1744 1.377 . S
C1731 C1730 1.524 . S
C1731 C1732 1.397 . S
C1731 C1736 1.363 . S
C1732 H1709 0.950 . S
C1732 C1731 1.397 . S
C1732 C1733 1.334 . S
C1733 H1710 0.950 . S
C1733 C1732 1.334 . S
C1733 C1734 1.287 . S
C1734 C1733 1.287 . S
C1734 C1735 1.524 . S
C1734 H1753 0.913 . S
C1735 H1711 0.950 . S
C1735 C1734 1.524 . S
C1735 C1736 1.415 . S
C1736 H1712 0.950 . S
C1736 C1731 1.363 . S
C1736 C1735 1.415 . S
C1737 H1713 0.951 . S
C1737 C1738 1.366 . S
C1737 C1739 1.388 . S
C1738 C1737 1.366 . S
C1738 C1742 1.385 . S
C1739 H1714 0.951 . S
C1739 C1737 1.388 . S
C1739 C1740 1.366 . S
C1740 C1739 1.366 . S
C1740 C1741 1.414 . S
C1740 C1743 1.499 . S
C1741 H1715 0.950 . S
C1741 C1740 1.414 . S
C1741 C1742 1.374 . S
C1742 H1716 0.950 . S
C1742 C1738 1.385 . S
C1742 C1741 1.374 . S
C1743 C1740 1.499 . S
C1743 C1744 1.373 . S
C1743 C1745 1.389 . S
C1744 H1717 0.950 . S
C1744 C1730 1.377 . S
C1744 C1743 1.373 . S
C1745 C1729 1.377 . S
C1745 C1743 1.389 . S
C1745 C1746 1.524 . S
C1746 C1745 1.524 . S
C1746 C1747 1.397 . S
C1746 C1751 1.363 . S
C1747 H1718 0.950 . S
C1747 C1746 1.397 . S
C1747 C1748 1.334 . S
C1748 H1719 0.950 . S
C1748 C1747 1.334 . S
C1748 C1749 1.287 . S
C1749 C1748 1.287 . S
C1749 C1750 1.524 . S
C1749 H1752 0.999 . S
C1750 H1720 0.950 . S
C1750 C1749 1.524 . S
C1750 C1751 1.415 . S
C1751 H1721 0.950 . S
C1751 C1746 1.363 . S
C1751 C1750 1.415 . S
H1752 C1749 0.999 . S
H1753 C1734 0.913 . S
H1754 C1772 0.951 . S
H1755 C1774 0.951 . S
H1756 C1776 0.950 . S
H1757 C1777 0.950 . S
H1758 C1779 0.950 . S
H1759 C1782 0.950 . S
H1760 C1783 0.950 . S
H1761 C1785 0.950 . S
H1762 C1786 0.950 . S
H1763 C1787 0.951 . S
H1764 C1789 0.951 . S
H1765 C1791 0.950 . S
H1766 C1792 0.950 . S
H1767 C1794 0.950 . S
H1768 C1797 0.950 . S
H1769 C1798 0.950 . S
H1770 C1800 0.950 . S
H1771 C1801 0.950 . S
C1772 H1754 0.951 . S
C1772 C1773 1.366 . S
C1772 C1774 1.388 . S
C1773 C1772 1.366 . S
C1773 C1777 1.385 . S
C1774 H1755 0.951 . S
C1774 C1772 1.388 . S
C1774 C1775 1.366 . S
C1775 C1774 1.366 . S
C1775 C1776 1.414 . S
C1775 C1778 1.499 . S
C1776 H1756 0.950 . S
C1776 C1775 1.414 . S
C1776 C1777 1.374 . S
C1777 H1757 0.950 . S
C1777 C1773 1.385 . S
C1777 C1776 1.374 . S
C1778 C1775 1.499 . S
C1778 C1779 1.373 . S
C1778 C1780 1.389 . S
C1779 H1758 0.950 . S
C1779 C1778 1.373 . S
C1779 C1795 1.377 . S
C1780 C1778 1.389 . S
C1780 C1781 1.524 . S
C1780 C1794 1.377 . S
C1781 C1780 1.524 . S
C1781 C1782 1.397 . S
C1781 C1786 1.363 . S
C1782 H1759 0.950 . S
C1782 C1781 1.397 . S
C1782 C1783 1.334 . S
C1783 H1760 0.950 . S
C1783 C1782 1.334 . S
C1783 C1784 1.287 . S
C1784 C1783 1.287 . S
C1784 C1785 1.524 . S
C1784 H1803 0.913 . S
C1785 H1761 0.950 . S
C1785 C1784 1.524 . S
C1785 C1786 1.415 . S
C1786 H1762 0.950 . S
C1786 C1781 1.363 . S
C1786 C1785 1.415 . S
C1787 H1763 0.951 . S
C1787 C1788 1.366 . S
C1787 C1789 1.388 . S
C1788 C1787 1.366 . S
C1788 C1792 1.385 . S
C1789 H1764 0.951 . S
C1789 C1787 1.388 . S
C1789 C1790 1.366 . S
C1790 C1789 1.366 . S
C1790 C1791 1.414 . S
C1790 C1793 1.499 . S
C1791 H1765 0.950 . S
C1791 C1790 1.414 . S
C1791 C1792 1.374 . S
C1792 H1766 0.950 . S
C1792 C1788 1.385 . S
C1792 C1791 1.374 . S
C1793 C1790 1.499 . S
C1793 C1794 1.373 . S
C1793 C1795 1.389 . S
C1794 H1767 0.950 . S
C1794 C1780 1.377 . S
C1794 C1793 1.373 . S
C1795 C1779 1.377 . S
C1795 C1793 1.389 . S
C1795 C1796 1.524 . S
C1796 C1795 1.524 . S
C1796 C1797 1.397 . S
C1796 C1801 1.363 . S
C1797 H1768 0.950 . S
C1797 C1796 1.397 . S
C1797 C1798 1.334 . S
C1798 H1769 0.950 . S
C1798 C1797 1.334 . S
C1798 C1799 1.287 . S
C1799 C1798 1.287 . S
C1799 C1800 1.524 . S
C1799 H1802 0.999 . S
C1800 H1770 0.950 . S
C1800 C1799 1.524 . S
C1800 C1801 1.415 . S
C1801 H1771 0.950 . S
C1801 C1796 1.363 . S
C1801 C1800 1.415 . S
H1802 C1799 0.999 . S
H1803 C1784 0.913 . S
H1804 C1822 0.951 . S
H1805 C1824 0.951 . S
H1806 C1826 0.950 . S
H1807 C1827 0.950 . S
H1808 C1829 0.950 . S
H1809 C1832 0.950 . S
H1810 C1833 0.950 . S
H1811 C1835 0.950 . S
H1812 C1836 0.950 . S
H1813 C1837 0.951 . S
H1814 C1839 0.951 . S
H1815 C1841 0.950 . S
H1816 C1842 0.950 . S
H1817 C1844 0.950 . S
H1818 C1847 0.950 . S
H1819 C1848 0.950 . S
H1820 C1850 0.950 . S
H1821 C1851 0.950 . S
C1822 H1804 0.951 . S
C1822 C1823 1.366 . S
C1822 C1824 1.388 . S
C1823 C1822 1.366 . S
C1823 C1827 1.385 . S
C1824 H1805 0.951 . S
C1824 C1822 1.388 . S
C1824 C1825 1.366 . S
C1825 C1824 1.366 . S
C1825 C1826 1.414 . S
C1825 C1828 1.499 . S
C1826 H1806 0.950 . S
C1826 C1825 1.414 . S
C1826 C1827 1.374 . S
C1827 H1807 0.950 . S
C1827 C1823 1.385 . S
C1827 C1826 1.374 . S
C1828 C1825 1.499 . S
C1828 C1829 1.373 . S
C1828 C1830 1.389 . S
C1829 H1808 0.950 . S
C1829 C1828 1.373 . S
C1829 C1845 1.377 . S
C1830 C1828 1.389 . S
C1830 C1831 1.524 . S
C1830 C1844 1.377 . S
C1831 C1830 1.524 . S
C1831 C1832 1.397 . S
C1831 C1836 1.363 . S
C1832 H1809 0.950 . S
C1832 C1831 1.397 . S
C1832 C1833 1.334 . S
C1833 H1810 0.950 . S
C1833 C1832 1.334 . S
C1833 C1834 1.287 . S
C1834 C1833 1.287 . S
C1834 C1835 1.524 . S
C1834 H1853 0.913 . S
C1835 H1811 0.950 . S
C1835 C1834 1.524 . S
C1835 C1836 1.415 . S
C1836 H1812 0.950 . S
C1836 C1831 1.363 . S
C1836 C1835 1.415 . S
C1837 H1813 0.951 . S
C1837 C1838 1.366 . S
C1837 C1839 1.388 . S
C1838 C1837 1.366 . S
C1838 C1842 1.385 . S
C1839 H1814 0.951 . S
C1839 C1837 1.388 . S
C1839 C1840 1.366 . S
C1840 C1839 1.366 . S
C1840 C1841 1.414 . S
C1840 C1843 1.499 . S
C1841 H1815 0.950 . S
C1841 C1840 1.414 . S
C1841 C1842 1.374 . S
C1842 H1816 0.950 . S
C1842 C1838 1.385 . S
C1842 C1841 1.374 . S
C1843 C1840 1.499 . S
C1843 C1844 1.373 . S
C1843 C1845 1.389 . S
C1844 H1817 0.950 . S
C1844 C1830 1.377 . S
C1844 C1843 1.373 . S
C1845 C1829 1.377 . S
C1845 C1843 1.389 . S
C1845 C1846 1.524 . S
C1846 C1845 1.524 . S
C1846 C1847 1.397 . S
C1846 C1851 1.363 . S
C1847 H1818 0.950 . S
C1847 C1846 1.397 . S
C1847 C1848 1.334 . S
C1848 H1819 0.950 . S
C1848 C1847 1.334 . S
C1848 C1849 1.287 . S
C1849 C1848 1.287 . S
C1849 C1850 1.524 . S
C1849 H1852 0.999 . S
C1850 H1820 0.950 . S
C1850 C1849 1.524 . S
C1850 C1851 1.415 . S
C1851 H1821 0.950 . S
C1851 C1846 1.363 . S
C1851 C1850 1.415 . S
H1852 C1849 0.999 . S
H1853 C1834 0.913 . S
H1854 C1872 0.951 . S
H1855 C1874 0.951 . S
H1856 C1876 0.950 . S
H1857 C1877 0.950 . S
H1858 C1879 0.950 . S
H1859 C1882 0.950 . S
H1860 C1883 0.950 . S
H1861 C1885 0.950 . S
H1862 C1886 0.950 . S
H1863 C1887 0.951 . S
H1864 C1889 0.951 . S
H1865 C1891 0.950 . S
H1866 C1892 0.950 . S
H1867 C1894 0.950 . S
H1868 C1897 0.950 . S
H1869 C1898 0.950 . S
H1870 C1900 0.950 . S
H1871 C1901 0.950 . S
C1872 H1854 0.951 . S
C1872 C1873 1.366 . S
C1872 C1874 1.388 . S
C1873 C1872 1.366 . S
C1873 C1877 1.385 . S
C1874 H1855 0.951 . S
C1874 C1872 1.388 . S
C1874 C1875 1.366 . S
C1875 C1874 1.366 . S
C1875 C1876 1.414 . S
C1875 C1878 1.499 . S
C1876 H1856 0.950 . S
C1876 C1875 1.414 . S
C1876 C1877 1.374 . S
C1877 H1857 0.950 . S
C1877 C1873 1.385 . S
C1877 C1876 1.374 . S
C1878 C1875 1.499 . S
C1878 C1879 1.373 . S
C1878 C1880 1.389 . S
C1879 H1858 0.950 . S
C1879 C1878 1.373 . S
C1879 C1895 1.377 . S
C1880 C1878 1.389 . S
C1880 C1881 1.524 . S
C1880 C1894 1.377 . S
C1881 C1880 1.524 . S
C1881 C1882 1.397 . S
C1881 C1886 1.363 . S
C1882 H1859 0.950 . S
C1882 C1881 1.397 . S
C1882 C1883 1.334 . S
C1883 H1860 0.950 . S
C1883 C1882 1.334 . S
C1883 C1884 1.287 . S
C1884 C1883 1.287 . S
C1884 C1885 1.524 . S
C1884 H1903 0.913 . S
C1885 H1861 0.950 . S
C1885 C1884 1.524 . S
C1885 C1886 1.415 . S
C1886 H1862 0.950 . S
C1886 C1881 1.363 . S
C1886 C1885 1.415 . S
C1887 H1863 0.951 . S
C1887 C1888 1.366 . S
C1887 C1889 1.388 . S
C1888 C1887 1.366 . S
C1888 C1892 1.385 . S
C1889 H1864 0.951 . S
C1889 C1887 1.388 . S
C1889 C1890 1.366 . S
C1890 C1889 1.366 . S
C1890 C1891 1.414 . S
C1890 C1893 1.499 . S
C1891 H1865 0.950 . S
C1891 C1890 1.414 . S
C1891 C1892 1.374 . S
C1892 H1866 0.950 . S
C1892 C1888 1.385 . S
C1892 C1891 1.374 . S
C1893 C1890 1.499 . S
C1893 C1894 1.373 . S
C1893 C1895 1.389 . S
C1894 H1867 0.950 . S
C1894 C1880 1.377 . S
C1894 C1893 1.373 . S
C1895 C1879 1.377 . S
C1895 C1893 1.389 . S
C1895 C1896 1.524 . S
C1896 C1895 1.524 . S
C1896 C1897 1.397 . S
C1896 C1901 1.363 . S
C1897 H1868 0.950 . S
C1897 C1896 1.397 . S
C1897 C1898 1.334 . S
C1898 H1869 0.950 . S
C1898 C1897 1.334 . S
C1898 C1899 1.287 . S
C1899 C1898 1.287 . S
C1899 C1900 1.524 . S
C1899 H1902 0.999 . S
C1900 H1870 0.950 . S
C1900 C1899 1.524 . S
C1900 C1901 1.415 . S
C1901 H1871 0.950 . S
C1901 C1896 1.363 . S
C1901 C1900 1.415 . S
H1902 C1899 0.999 . S
H1903 C1884 0.913 . S
H1904 C1922 0.951 . S
H1905 C1924 0.951 . S
H1906 C1926 0.950 . S
H1907 C1927 0.950 . S
H1908 C1929 0.950 . S
H1909 C1932 0.950 . S
H1910 C1933 0.950 . S
H1911 C1935 0.950 . S
H1912 C1936 0.950 . S
H1913 C1937 0.951 . S
H1914 C1939 0.951 . S
H1915 C1941 0.950 . S
H1916 C1942 0.950 . S
H1917 C1944 0.950 . S
H1918 C1947 0.950 . S
H1919 C1948 0.950 . S
H1920 C1950 0.950 . S
H1921 C1951 0.950 . S
C1922 H1904 0.951 . S
C1922 C1923 1.366 . S
C1922 C1924 1.388 . S
C1923 C1922 1.366 . S
C1923 C1927 1.385 . S
C1924 H1905 0.951 . S
C1924 C1922 1.388 . S
C1924 C1925 1.366 . S
C1925 C1924 1.366 . S
C1925 C1926 1.414 . S
C1925 C1928 1.499 . S
C1926 H1906 0.950 . S
C1926 C1925 1.414 . S
C1926 C1927 1.374 . S
C1927 H1907 0.950 . S
C1927 C1923 1.385 . S
C1927 C1926 1.374 . S
C1928 C1925 1.499 . S
C1928 C1929 1.373 . S
C1928 C1930 1.389 . S
C1929 H1908 0.950 . S
C1929 C1928 1.373 . S
C1929 C1945 1.377 . S
C1930 C1928 1.389 . S
C1930 C1931 1.524 . S
C1930 C1944 1.377 . S
C1931 C1930 1.524 . S
C1931 C1932 1.397 . S
C1931 C1936 1.363 . S
C1932 H1909 0.950 . S
C1932 C1931 1.397 . S
C1932 C1933 1.334 . S
C1933 H1910 0.950 . S
C1933 C1932 1.334 . S
C1933 C1934 1.287 . S
C1934 C1933 1.287 . S
C1934 C1935 1.524 . S
C1934 H1953 0.913 . S
C1935 H1911 0.950 . S
C1935 C1934 1.524 . S
C1935 C1936 1.415 . S
C1936 H1912 0.950 . S
C1936 C1931 1.363 . S
C1936 C1935 1.415 . S
C1937 H1913 0.951 . S
C1937 C1938 1.366 . S
C1937 C1939 1.388 . S
C1938 C1937 1.366 . S
C1938 C1942 1.385 . S
C1939 H1914 0.951 . S
C1939 C1937 1.388 . S
C1939 C1940 1.366 . S
C1940 C1939 1.366 . S
C1940 C1941 1.414 . S
C1940 C1943 1.499 . S
C1941 H1915 0.950 . S
C1941 C1940 1.414 . S
C1941 C1942 1.374 . S
C1942 H1916 0.950 . S
C1942 C1938 1.385 . S
C1942 C1941 1.374 . S
C1943 C1940 1.499 . S
C1943 C1944 1.373 . S
C1943 C1945 1.389 . S
C1944 H1917 0.950 . S
C1944 C1930 1.377 . S
C1944 C1943 1.373 . S
C1945 C1929 1.377 . S
C1945 C1943 1.389 . S
C1945 C1946 1.524 . S
C1946 C1945 1.524 . S
C1946 C1947 1.397 . S
C1946 C1951 1.363 . S
C1947 H1918 0.950 . S
C1947 C1946 1.397 . S
C1947 C1948 1.334 . S
C1948 H1919 0.950 . S
C1948 C1947 1.334 . S
C1948 C1949 1.287 . S
C1949 C1948 1.287 . S
C1949 C1950 1.524 . S
C1949 H1952 0.999 . S
C1950 H1920 0.950 . S
C1950 C1949 1.524 . S
C1950 C1951 1.415 . S
C1951 H1921 0.950 . S
C1951 C1946 1.363 . S
C1951 C1950 1.415 . S
H1952 C1949 0.999 . S
H1953 C1934 0.913 . S
H1954 C1972 0.951 . S
H1955 C1974 0.951 . S
H1956 C1976 0.950 . S
H1957 C1977 0.950 . S
H1958 C1979 0.950 . S
H1959 C1982 0.950 . S
H1960 C1983 0.950 . S
H1961 C1985 0.950 . S
H1962 C1986 0.950 . S
H1963 C1987 0.951 . S
H1964 C1989 0.951 . S
H1965 C1991 0.950 . S
H1966 C1992 0.950 . S
H1967 C1994 0.950 . S
H1968 C1997 0.950 . S
H1969 C1998 0.950 . S
H1970 C2000 0.950 . S
H1971 C2001 0.950 . S
C1972 H1954 0.951 . S
C1972 C1973 1.366 . S
C1972 C1974 1.388 . S
C1973 C1972 1.366 . S
C1973 C1977 1.385 . S
C1974 H1955 0.951 . S
C1974 C1972 1.388 . S
C1974 C1975 1.366 . S
C1975 C1974 1.366 . S
C1975 C1976 1.414 . S
C1975 C1978 1.499 . S
C1976 H1956 0.950 . S
C1976 C1975 1.414 . S
C1976 C1977 1.374 . S
C1977 H1957 0.950 . S
C1977 C1973 1.385 . S
C1977 C1976 1.374 . S
C1978 C1975 1.499 . S
C1978 C1979 1.373 . S
C1978 C1980 1.389 . S
C1979 H1958 0.950 . S
C1979 C1978 1.373 . S
C1979 C1995 1.377 . S
C1980 C1978 1.389 . S
C1980 C1981 1.524 . S
C1980 C1994 1.377 . S
C1981 C1980 1.524 . S
C1981 C1982 1.397 . S
C1981 C1986 1.363 . S
C1982 H1959 0.950 . S
C1982 C1981 1.397 . S
C1982 C1983 1.334 . S
C1983 H1960 0.950 . S
C1983 C1982 1.334 . S
C1983 C1984 1.287 . S
C1984 C1983 1.287 . S
C1984 C1985 1.524 . S
C1984 H2003 0.913 . S
C1985 H1961 0.950 . S
C1985 C1984 1.524 . S
C1985 C1986 1.415 . S
C1986 H1962 0.950 . S
C1986 C1981 1.363 . S
C1986 C1985 1.415 . S
C1987 H1963 0.951 . S
C1987 C1988 1.366 . S
C1987 C1989 1.388 . S
C1988 C1987 1.366 . S
C1988 C1992 1.385 . S
C1989 H1964 0.951 . S
C1989 C1987 1.388 . S
C1989 C1990 1.366 . S
C1990 C1989 1.366 . S
C1990 C1991 1.414 . S
C1990 C1993 1.499 . S
C1991 H1965 0.950 . S
C1991 C1990 1.414 . S
C1991 C1992 1.374 . S
C1992 H1966 0.950 . S
C1992 C1988 1.385 . S
C1992 C1991 1.374 . S
C1993 C1990 1.499 . S
C1993 C1994 1.373 . S
C1993 C1995 1.389 . S
C1994 H1967 0.950 . S
C1994 C1980 1.377 . S
C1994 C1993 1.373 . S
C1995 C1979 1.377 . S
C1995 C1993 1.389 . S
C1995 C1996 1.524 . S
C1996 C1995 1.524 . S
C1996 C1997 1.397 . S
C1996 C2001 1.363 . S
C1997 H1968 0.950 . S
C1997 C1996 1.397 . S
C1997 C1998 1.334 . S
C1998 H1969 0.950 . S
C1998 C1997 1.334 . S
C1998 C1999 1.287 . S
C1999 C1998 1.287 . S
C1999 C2000 1.524 . S
C1999 H2002 0.999 . S
C2000 H1970 0.950 . S
C2000 C1999 1.524 . S
C2000 C2001 1.415 . S
C2001 H1971 0.950 . S
C2001 C1996 1.363 . S
C2001 C2000 1.415 . S
H2002 C1999 0.999 . S
H2003 C1984 0.913 . S
H2004 C2022 0.951 . S
H2005 C2024 0.951 . S
H2006 C2026 0.950 . S
H2007 C2027 0.950 . S
H2008 C2029 0.950 . S
H2009 C2032 0.950 . S
H2010 C2033 0.950 . S
H2011 C2035 0.950 . S
H2012 C2036 0.950 . S
H2013 C2037 0.951 . S
H2014 C2039 0.951 . S
H2015 C2041 0.950 . S
H2016 C2042 0.950 . S
H2017 C2044 0.950 . S
H2018 C2047 0.950 . S
H2019 C2048 0.950 . S
H2020 C2050 0.950 . S
H2021 C2051 0.950 . S
C2022 H2004 0.951 . S
C2022 C2023 1.366 . S
C2022 C2024 1.388 . S
C2023 C2022 1.366 . S
C2023 C2027 1.385 . S
C2024 H2005 0.951 . S
C2024 C2022 1.388 . S
C2024 C2025 1.366 . S
C2025 C2024 1.366 . S
C2025 C2026 1.414 . S
C2025 C2028 1.499 . S
C2026 H2006 0.950 . S
C2026 C2025 1.414 . S
C2026 C2027 1.374 . S
C2027 H2007 0.950 . S
C2027 C2023 1.385 . S
C2027 C2026 1.374 . S
C2028 C2025 1.499 . S
C2028 C2029 1.373 . S
C2028 C2030 1.389 . S
C2029 H2008 0.950 . S
C2029 C2028 1.373 . S
C2029 C2045 1.377 . S
C2030 C2028 1.389 . S
C2030 C2031 1.524 . S
C2030 C2044 1.377 . S
C2031 C2030 1.524 . S
C2031 C2032 1.397 . S
C2031 C2036 1.363 . S
C2032 H2009 0.950 . S
C2032 C2031 1.397 . S
C2032 C2033 1.334 . S
C2033 H2010 0.950 . S
C2033 C2032 1.334 . S
C2033 C2034 1.287 . S
C2034 C2033 1.287 . S
C2034 C2035 1.524 . S
C2034 H2053 0.913 . S
C2035 H2011 0.950 . S
C2035 C2034 1.524 . S
C2035 C2036 1.415 . S
C2036 H2012 0.950 . S
C2036 C2031 1.363 . S
C2036 C2035 1.415 . S
C2037 H2013 0.951 . S
C2037 C2038 1.366 . S
C2037 C2039 1.388 . S
C2038 C2037 1.366 . S
C2038 C2042 1.385 . S
C2039 H2014 0.951 . S
C2039 C2037 1.388 . S
C2039 C2040 1.366 . S
C2040 C2039 1.366 . S
C2040 C2041 1.414 . S
C2040 C2043 1.499 . S
C2041 H2015 0.950 . S
C2041 C2040 1.414 . S
C2041 C2042 1.374 . S
C2042 H2016 0.950 . S
C2042 C2038 1.385 . S
C2042 C2041 1.374 . S
C2043 C2040 1.499 . S
C2043 C2044 1.373 . S
C2043 C2045 1.389 . S
C2044 H2017 0.950 . S
C2044 C2030 1.377 . S
C2044 C2043 1.373 . S
C2045 C2029 1.377 . S
C2045 C2043 1.389 . S
C2045 C2046 1.524 . S
C2046 C2045 1.524 . S
C2046 C2047 1.397 . S
C2046 C2051 1.363 . S
C2047 H2018 0.950 . S
C2047 C2046 1.397 . S
C2047 C2048 1.334 . S
C2048 H2019 0.950 . S
C2048 C2047 1.334 . S
C2048 C2049 1.287 . S
C2049 C2048 1.287 . S
C2049 C2050 1.524 . S
C2049 H2052 0.999 . S
C2050 H2020 0.950 . S
C2050 C2049 1.524 . S
C2050 C2051 1.415 . S
C2051 H2021 0.950 . S
C2051 C2046 1.363 . S
C2051 C2050 1.415 . S
H2052 C2049 0.999 . S
H2053 C2034 0.913 . S
H2054 C2072 0.951 . S
H2055 C2074 0.951 . S
H2056 C2076 0.950 . S
H2057 C2077 0.950 . S
H2058 C2079 0.950 . S
H2059 C2082 0.950 . S
H2060 C2083 0.950 . S
H2061 C2085 0.950 . S
H2062 C2086 0.950 . S
H2063 C2087 0.951 . S
H2064 C2089 0.951 . S
H2065 C2091 0.950 . S
H2066 C2092 0.950 . S
H2067 C2094 0.950 . S
H2068 C2097 0.950 . S
H2069 C2098 0.950 . S
H2070 C2100 0.950 . S
H2071 C2101 0.950 . S
C2072 H2054 0.951 . S
C2072 C2073 1.366 . S
C2072 C2074 1.388 . S
C2073 C2072 1.366 . S
C2073 C2077 1.385 . S
C2074 H2055 0.951 . S
C2074 C2072 1.388 . S
C2074 C2075 1.366 . S
C2075 C2074 1.366 . S
C2075 C2076 1.414 . S
C2075 C2078 1.499 . S
C2076 H2056 0.950 . S
C2076 C2075 1.414 . S
C2076 C2077 1.374 . S
C2077 H2057 0.950 . S
C2077 C2073 1.385 . S
C2077 C2076 1.374 . S
C2078 C2075 1.499 . S
C2078 C2079 1.373 . S
C2078 C2080 1.389 . S
C2079 H2058 0.950 . S
C2079 C2078 1.373 . S
C2079 C2095 1.377 . S
C2080 C2078 1.389 . S
C2080 C2081 1.524 . S
C2080 C2094 1.377 . S
C2081 C2080 1.524 . S
C2081 C2082 1.397 . S
C2081 C2086 1.363 . S
C2082 H2059 0.950 . S
C2082 C2081 1.397 . S
C2082 C2083 1.334 . S
C2083 H2060 0.950 . S
C2083 C2082 1.334 . S
C2083 C2084 1.287 . S
C2084 C2083 1.287 . S
C2084 C2085 1.524 . S
C2084 H2103 0.913 . S
C2085 H2061 0.950 . S
C2085 C2084 1.524 . S
C2085 C2086 1.415 . S
C2086 H2062 0.950 . S
C2086 C2081 1.363 . S
C2086 C2085 1.415 . S
C2087 H2063 0.951 . S
C2087 C2088 1.366 . S
C2087 C2089 1.388 . S
C2088 C2087 1.366 . S
C2088 C2092 1.385 . S
C2089 H2064 0.951 . S
C2089 C2087 1.388 . S
C2089 C2090 1.366 . S
C2090 C2089 1.366 . S
C2090 C2091 1.414 . S
C2090 C2093 1.499 . S
C2091 H2065 0.950 . S
C2091 C2090 1.414 . S
C2091 C2092 1.374 . S
C2092 H2066 0.950 . S
C2092 C2088 1.385 . S
C2092 C2091 1.374 . S
C2093 C2090 1.499 . S
C2093 C2094 1.373 . S
C2093 C2095 1.389 . S
C2094 H2067 0.950 . S
C2094 C2080 1.377 . S
C2094 C2093 1.373 . S
C2095 C2079 1.377 . S
C2095 C2093 1.389 . S
C2095 C2096 1.524 . S
C2096 C2095 1.524 . S
C2096 C2097 1.397 . S
C2096 C2101 1.363 . S
C2097 H2068 0.950 . S
C2097 C2096 1.397 . S
C2097 C2098 1.334 . S
C2098 H2069 0.950 . S
C2098 C2097 1.334 . S
C2098 C2099 1.287 . S
C2099 C2098 1.287 . S
C2099 C2100 1.524 . S
C2099 H2102 0.999 . S
C2100 H2070 0.950 . S
C2100 C2099 1.524 . S
C2100 C2101 1.415 . S
C2101 H2071 0.950 . S
C2101 C2096 1.363 . S
C2101 C2100 1.415 . S
H2102 C2099 0.999 . S
H2103 C2084 0.913 . S
H2104 C2122 0.951 . S
H2105 C2124 0.951 . S
H2106 C2126 0.950 . S
H2107 C2127 0.950 . S
H2108 C2129 0.950 . S
H2109 C2132 0.950 . S
H2110 C2133 0.950 . S
H2111 C2135 0.950 . S
H2112 C2136 0.950 . S
H2113 C2137 0.951 . S
H2114 C2139 0.951 . S
H2115 C2141 0.950 . S
H2116 C2142 0.950 . S
H2117 C2144 0.950 . S
H2118 C2147 0.950 . S
H2119 C2148 0.950 . S
H2120 C2150 0.950 . S
H2121 C2151 0.950 . S
C2122 H2104 0.951 . S
C2122 C2123 1.366 . S
C2122 C2124 1.388 . S
C2123 C2122 1.366 . S
C2123 C2127 1.385 . S
C2124 H2105 0.951 . S
C2124 C2122 1.388 . S
C2124 C2125 1.366 . S
C2125 C2124 1.366 . S
C2125 C2126 1.414 . S
C2125 C2128 1.499 . S
C2126 H2106 0.950 . S
C2126 C2125 1.414 . S
C2126 C2127 1.374 . S
C2127 H2107 0.950 . S
C2127 C2123 1.385 . S
C2127 C2126 1.374 . S
C2128 C2125 1.499 . S
C2128 C2129 1.373 . S
C2128 C2130 1.389 . S
C2129 H2108 0.950 . S
C2129 C2128 1.373 . S
C2129 C2145 1.377 . S
C2130 C2128 1.389 . S
C2130 C2131 1.524 . S
C2130 C2144 1.377 . S
C2131 C2130 1.524 . S
C2131 C2132 1.397 . S
C2131 C2136 1.363 . S
C2132 H2109 0.950 . S
C2132 C2131 1.397 . S
C2132 C2133 1.334 . S
C2133 H2110 0.950 . S
C2133 C2132 1.334 . S
C2133 C2134 1.287 . S
C2134 C2133 1.287 . S
C2134 C2135 1.524 . S
C2134 H2153 0.913 . S
C2135 H2111 0.950 . S
C2135 C2134 1.524 . S
C2135 C2136 1.415 . S
C2136 H2112 0.950 . S
C2136 C2131 1.363 . S
C2136 C2135 1.415 . S
C2137 H2113 0.951 . S
C2137 C2138 1.366 . S
C2137 C2139 1.388 . S
C2138 C2137 1.366 . S
C2138 C2142 1.385 . S
C2139 H2114 0.951 . S
C2139 C2137 1.388 . S
C2139 C2140 1.366 . S
C2140 C2139 1.366 . S
C2140 C2141 1.414 . S
C2140 C2143 1.499 . S
C2141 H2115 0.950 . S
C2141 C2140 1.414 . S
C2141 C2142 1.374 . S
C2142 H2116 0.950 . S
C2142 C2138 1.385 . S
C2142 C2141 1.374 . S
C2143 C2140 1.499 . S
C2143 C2144 1.373 . S
C2143 C2145 1.389 . S
C2144 H2117 0.950 . S
C2144 C2130 1.377 . S
C2144 C2143 1.373 . S
C2145 C2129 1.377 . S
C2145 C2143 1.389 . S
C2145 C2146 1.524 . S
C2146 C2145 1.524 . S
C2146 C2147 1.397 . S
C2146 C2151 1.363 . S
C2147 H2118 0.950 . S
C2147 C2146 1.397 . S
C2147 C2148 1.334 . S
C2148 H2119 0.950 . S
C2148 C2147 1.334 . S
C2148 C2149 1.287 . S
C2149 C2148 1.287 . S
C2149 C2150 1.524 . S
C2149 H2152 0.999 . S
C2150 H2120 0.950 . S
C2150 C2149 1.524 . S
C2150 C2151 1.415 . S
C2151 H2121 0.950 . S
C2151 C2146 1.363 . S
C2151 C2150 1.415 . S
H2152 C2149 0.999 . S
H2153 C2134 0.913 . S
H2154 C2172 0.951 . S
H2155 C2174 0.951 . S
H2156 C2176 0.950 . S
H2157 C2177 0.950 . S
H2158 C2179 0.950 . S
H2159 C2182 0.950 . S
H2160 C2183 0.950 . S
H2161 C2185 0.950 . S
H2162 C2186 0.950 . S
H2163 C2187 0.951 . S
H2164 C2189 0.951 . S
H2165 C2191 0.950 . S
H2166 C2192 0.950 . S
H2167 C2194 0.950 . S
H2168 C2197 0.950 . S
H2169 C2198 0.950 . S
H2170 C2200 0.950 . S
H2171 C2201 0.950 . S
C2172 H2154 0.951 . S
C2172 C2173 1.366 . S
C2172 C2174 1.388 . S
C2173 C2172 1.366 . S
C2173 C2177 1.385 . S
C2174 H2155 0.951 . S
C2174 C2172 1.388 . S
C2174 C2175 1.366 . S
C2175 C2174 1.366 . S
C2175 C2176 1.414 . S
C2175 C2178 1.499 . S
C2176 H2156 0.950 . S
C2176 C2175 1.414 . S
C2176 C2177 1.374 . S
C2177 H2157 0.950 . S
C2177 C2173 1.385 . S
C2177 C2176 1.374 . S
C2178 C2175 1.499 . S
C2178 C2179 1.373 . S
C2178 C2180 1.389 . S
C2179 H2158 0.950 . S
C2179 C2178 1.373 . S
C2179 C2195 1.377 . S
C2180 C2178 1.389 . S
C2180 C2181 1.524 . S
C2180 C2194 1.377 . S
C2181 C2180 1.524 . S
C2181 C2182 1.397 . S
C2181 C2186 1.363 . S
C2182 H2159 0.950 . S
C2182 C2181 1.397 . S
C2182 C2183 1.334 . S
C2183 H2160 0.950 . S
C2183 C2182 1.334 . S
C2183 C2184 1.287 . S
C2184 C2183 1.287 . S
C2184 C2185 1.524 . S
C2184 H2203 0.913 . S
C2185 H2161 0.950 . S
C2185 C2184 1.524 . S
C2185 C2186 1.415 . S
C2186 H2162 0.950 . S
C2186 C2181 1.363 . S
C2186 C2185 1.415 . S
C2187 H2163 0.951 . S
C2187 C2188 1.366 . S
C2187 C2189 1.388 . S
C2188 C2187 1.366 . S
C2188 C2192 1.385 . S
C2189 H2164 0.951 . S
C2189 C2187 1.388 . S
C2189 C2190 1.366 . S
C2190 C2189 1.366 . S
C2190 C2191 1.414 . S
C2190 C2193 1.499 . S
C2191 H2165 0.950 . S
C2191 C2190 1.414 . S
C2191 C2192 1.374 . S
C2192 H2166 0.950 . S
C2192 C2188 1.385 . S
C2192 C2191 1.374 . S
C2193 C2190 1.499 . S
C2193 C2194 1.373 . S
C2193 C2195 1.389 . S
C2194 H2167 0.950 . S
C2194 C2180 1.377 . S
C2194 C2193 1.373 . S
C2195 C2179 1.377 . S
C2195 C2193 1.389 . S
C2195 C2196 1.524 . S
C2196 C2195 1.524 . S
C2196 C2197 1.397 . S
C2196 C2201 1.363 . S
C2197 H2168 0.950 . S
C2197 C2196 1.397 . S
C2197 C2198 1.334 . S
C2198 H2169 0.950 . S
C2198 C2197 1.334 . S
C2198 C2199 1.287 . S
C2199 C2198 1.287 . S
C2199 C2200 1.524 . S
C2199 H2202 0.999 . S
C2200 H2170 0.950 . S
C2200 C2199 1.524 . S
C2200 C2201 1.415 . S
C2201 H2171 0.950 . S
C2201 C2196 1.363 . S
C2201 C2200 1.415 . S
H2202 C2199 0.999 . S
H2203 C2184 0.913 . S
H2204 C2222 0.951 . S
H2205 C2224 0.951 . S
H2206 C2226 0.950 . S
H2207 C2227 0.950 . S
H2208 C2229 0.950 . S
H2209 C2232 0.950 . S
H2210 C2233 0.950 . S
H2211 C2235 0.950 . S
H2212 C2236 0.950 . S
H2213 C2237 0.951 . S
H2214 C2239 0.951 . S
H2215 C2241 0.950 . S
H2216 C2242 0.950 . S
H2217 C2244 0.950 . S
H2218 C2247 0.950 . S
H2219 C2248 0.950 . S
H2220 C2250 0.950 . S
H2221 C2251 0.950 . S
C2222 H2204 0.951 . S
C2222 C2223 1.366 . S
C2222 C2224 1.388 . S
C2223 C2222 1.366 . S
C2223 C2227 1.385 . S
C2224 H2205 0.951 . S
C2224 C2222 1.388 . S
C2224 C2225 1.366 . S
C2225 C2224 1.366 . S
C2225 C2226 1.414 . S
C2225 C2228 1.499 . S
C2226 H2206 0.950 . S
C2226 C2225 1.414 . S
C2226 C2227 1.374 . S
C2227 H2207 0.950 . S
C2227 C2223 1.385 . S
C2227 C2226 1.374 . S
C2228 C2225 1.499 . S
C2228 C2229 1.373 . S
C2228 C2230 1.389 . S
C2229 H2208 0.950 . S
C2229 C2228 1.373 . S
C2229 C2245 1.377 . S
C2230 C2228 1.389 . S
C2230 C2231 1.524 . S
C2230 C2244 1.377 . S
C2231 C2230 1.524 . S
C2231 C2232 1.397 . S
C2231 C2236 1.363 . S
C2232 H2209 0.950 . S
C2232 C2231 1.397 . S
C2232 C2233 1.334 . S
C2233 H2210 0.950 . S
C2233 C2232 1.334 . S
C2233 C2234 1.287 . S
C2234 C2233 1.287 . S
C2234 C2235 1.524 . S
C2234 H2253 0.913 . S
C2235 H2211 0.950 . S
C2235 C2234 1.524 . S
C2235 C2236 1.415 . S
C2236 H2212 0.950 . S
C2236 C2231 1.363 . S
C2236 C2235 1.415 . S
C2237 H2213 0.951 . S
C2237 C2238 1.366 . S
C2237 C2239 1.388 . S
C2238 C2237 1.366 . S
C2238 C2242 1.385 . S
C2239 H2214 0.951 . S
C2239 C2237 1.388 . S
C2239 C2240 1.366 . S
C2240 C2239 1.366 . S
C2240 C2241 1.414 . S
C2240 C2243 1.499 . S
C2241 H2215 0.950 . S
C2241 C2240 1.414 . S
C2241 C2242 1.374 . S
C2242 H2216 0.950 . S
C2242 C2238 1.385 . S
C2242 C2241 1.374 . S
C2243 C2240 1.499 . S
C2243 C2244 1.373 . S
C2243 C2245 1.389 . S
C2244 H2217 0.950 . S
C2244 C2230 1.377 . S
C2244 C2243 1.373 . S
C2245 C2229 1.377 . S
C2245 C2243 1.389 . S
C2245 C2246 1.524 . S
C2246 C2245 1.524 . S
C2246 C2247 1.397 . S
C2246 C2251 1.363 . S
C2247 H2218 0.950 . S
C2247 C2246 1.397 . S
C2247 C2248 1.334 . S
C2248 H2219 0.950 . S
C2248 C2247 1.334 . S
C2248 C2249 1.287 . S
C2249 C2248 1.287 . S
C2249 C2250 1.524 . S
C2249 H2252 0.999 . S
C2250 H2220 0.950 . S
C2250 C2249 1.524 . S
C2250 C2251 1.415 . S
C2251 H2221 0.950 . S
C2251 C2246 1.363 . S
C2251 C2250 1.415 . S
H2252 C2249 0.999 . S
H2253 C2234 0.913 . S
H2254 C2272 0.951 . S
H2255 C2274 0.951 . S
H2256 C2276 0.950 . S
H2257 C2277 0.950 . S
H2258 C2279 0.950 . S
H2259 C2282 0.950 . S
H2260 C2283 0.950 . S
H2261 C2285 0.950 . S
H2262 C2286 0.950 . S
H2263 C2287 0.951 . S
H2264 C2289 0.951 . S
H2265 C2291 0.950 . S
H2266 C2292 0.950 . S
H2267 C2294 0.950 . S
H2268 C2297 0.950 . S
H2269 C2298 0.950 . S
H2270 C2300 0.950 . S
H2271 C2301 0.950 . S
C2272 H2254 0.951 . S
C2272 C2273 1.366 . S
C2272 C2274 1.388 . S
C2273 C2272 1.366 . S
C2273 C2277 1.385 . S
C2274 H2255 0.951 . S
C2274 C2272 1.388 . S
C2274 C2275 1.366 . S
C2275 C2274 1.366 . S
C2275 C2276 1.414 . S
C2275 C2278 1.499 . S
C2276 H2256 0.950 . S
C2276 C2275 1.414 . S
C2276 C2277 1.374 . S
C2277 H2257 0.950 . S
C2277 C2273 1.385 . S
C2277 C2276 1.374 . S
C2278 C2275 1.499 . S
C2278 C2279 1.373 . S
C2278 C2280 1.389 . S
C2279 H2258 0.950 . S
C2279 C2278 1.373 . S
C2279 C2295 1.377 . S
C2280 C2278 1.389 . S
C2280 C2281 1.524 . S
C2280 C2294 1.377 . S
C2281 C2280 1.524 . S
C2281 C2282 1.397 . S
C2281 C2286 1.363 . S
C2282 H2259 0.950 . S
C2282 C2281 1.397 . S
C2282 C2283 1.334 . S
C2283 H2260 0.950 . S
C2283 C2282 1.334 . S
C2283 C2284 1.287 . S
C2284 C2283 1.287 . S
C2284 C2285 1.524 . S
C2284 H2303 0.913 . S
C2285 H2261 0.950 . S
C2285 C2284 1.524 . S
C2285 C2286 1.415 . S
C2286 H2262 0.950 . S
C2286 C2281 1.363 . S
C2286 C2285 1.415 . S
C2287 H2263 0.951 . S
C2287 C2288 1.366 . S
C2287 C2289 1.388 . S
C2288 C2287 1.366 . S
C2288 C2292 1.385 . S
C2289 H2264 0.951 . S
C2289 C2287 1.388 . S
C2289 C2290 1.366 . S
C2290 C2289 1.366 . S
C2290 C2291 1.414 . S
C2290 C2293 1.499 . S
C2291 H2265 0.950 . S
C2291 C2290 1.414 . S
C2291 C2292 1.374 . S
C2292 H2266 0.950 . S
C2292 C2288 1.385 . S
C2292 C2291 1.374 . S
C2293 C2290 1.499 . S
C2293 C2294 1.373 . S
C2293 C2295 1.389 . S
C2294 H2267 0.950 . S
C2294 C2280 1.377 . S
C2294 C2293 1.373 . S
C2295 C2279 1.377 . S
C2295 C2293 1.389 . S
C2295 C2296 1.524 . S
C2296 C2295 1.524 . S
C2296 C2297 1.397 . S
C2296 C2301 1.363 . S
C2297 H2268 0.950 . S
C2297 C2296 1.397 . S
C2297 C2298 1.334 . S
C2298 H2269 0.950 . S
C2298 C2297 1.334 . S
C2298 C2299 1.287 . S
C2299 C2298 1.287 . S
C2299 C2300 1.524 . S
C2299 H2302 0.999 . S
C2300 H2270 0.950 . S
C2300 C2299 1.524 . S
C2300 C2301 1.415 . S
C2301 H2271 0.950 . S
C2301 C2296 1.363 . S
C2301 C2300 1.415 . S
H2302 C2299 0.999 . S
H2303 C2284 0.913 . S
H2304 C2322 0.951 . S
H2305 C2324 0.951 . S
H2306 C2326 0.950 . S
H2307 C2327 0.950 . S
H2308 C2329 0.950 . S
H2309 C2332 0.950 . S
H2310 C2333 0.950 . S
H2311 C2335 0.950 . S
H2312 C2336 0.950 . S
H2313 C2337 0.951 . S
H2314 C2339 0.951 . S
H2315 C2341 0.950 . S
H2316 C2342 0.950 . S
H2317 C2344 0.950 . S
H2318 C2347 0.950 . S
H2319 C2348 0.950 . S
H2320 C2350 0.950 . S
H2321 C2351 0.950 . S
C2322 H2304 0.951 . S
C2322 C2323 1.366 . S
C2322 C2324 1.388 . S
C2323 C2322 1.366 . S
C2323 C2327 1.385 . S
C2324 H2305 0.951 . S
C2324 C2322 1.388 . S
C2324 C2325 1.366 . S
C2325 C2324 1.366 . S
C2325 C2326 1.414 . S
C2325 C2328 1.499 . S
C2326 H2306 0.950 . S
C2326 C2325 1.414 . S
C2326 C2327 1.374 . S
C2327 H2307 0.950 . S
C2327 C2323 1.385 . S
C2327 C2326 1.374 . S
C2328 C2325 1.499 . S
C2328 C2329 1.373 . S
C2328 C2330 1.389 . S
C2329 H2308 0.950 . S
C2329 C2328 1.373 . S
C2329 C2345 1.377 . S
C2330 C2328 1.389 . S
C2330 C2331 1.524 . S
C2330 C2344 1.377 . S
C2331 C2330 1.524 . S
C2331 C2332 1.397 . S
C2331 C2336 1.363 . S
C2332 H2309 0.950 . S
C2332 C2331 1.397 . S
C2332 C2333 1.334 . S
C2333 H2310 0.950 . S
C2333 C2332 1.334 . S
C2333 C2334 1.287 . S
C2334 C2333 1.287 . S
C2334 C2335 1.524 . S
C2334 H2353 0.913 . S
C2335 H2311 0.950 . S
C2335 C2334 1.524 . S
C2335 C2336 1.415 . S
C2336 H2312 0.950 . S
C2336 C2331 1.363 . S
C2336 C2335 1.415 . S
C2337 H2313 0.951 . S
C2337 C2338 1.366 . S
C2337 C2339 1.388 . S
C2338 C2337 1.366 . S
C2338 C2342 1.385 . S
C2339 H2314 0.951 . S
C2339 C2337 1.388 . S
C2339 C2340 1.366 . S
C2340 C2339 1.366 . S
C2340 C2341 1.414 . S
C2340 C2343 1.499 . S
C2341 H2315 0.950 . S
C2341 C2340 1.414 . S
C2341 C2342 1.374 . S
C2342 H2316 0.950 . S
C2342 C2338 1.385 . S
C2342 C2341 1.374 . S
C2343 C2340 1.499 . S
C2343 C2344 1.373 . S
C2343 C2345 1.389 . S
C2344 H2317 0.950 . S
C2344 C2330 1.377 . S
C2344 C2343 1.373 . S
C2345 C2329 1.377 . S
C2345 C2343 1.389 . S
C2345 C2346 1.524 . S
C2346 C2345 1.524 . S
C2346 C2347 1.397 . S
C2346 C2351 1.363 . S
C2347 H2318 0.950 . S
C2347 C2346 1.397 . S
C2347 C2348 1.334 . S
C2348 H2319 0.950 . S
C2348 C2347 1.334 . S
C2348 C2349 1.287 . S
C2349 C2348 1.287 . S
C2349 C2350 1.524 . S
C2349 H2352 0.999 . S
C2350 H2320 0.950 . S
C2350 C2349 1.524 . S
C2350 C2351 1.415 . S
C2351 H2321 0.950 . S
C2351 C2346 1.363 . S
C2351 C2350 1.415 . S
H2352 C2349 0.999 . S
H2353 C2334 0.913 . S
H2354 C2372 0.951 . S
H2355 C2374 0.951 . S
H2356 C2376 0.950 . S
H2357 C2377 0.950 . S
H2358 C2379 0.950 . S
H2359 C2382 0.950 . S
H2360 C2383 0.950 . S
H2361 C2385 0.950 . S
H2362 C2386 0.950 . S
H2363 C2387 0.951 . S
H2364 C2389 0.951 . S
H2365 C2391 0.950 . S
H2366 C2392 0.950 . S
H2367 C2394 0.950 . S
H2368 C2397 0.950 . S
H2369 C2398 0.950 . S
H2370 C2400 0.950 . S
H2371 C2401 0.950 . S
C2372 H2354 0.951 . S
C2372 C2373 1.366 . S
C2372 C2374 1.388 . S
C2373 C2372 1.366 . S
C2373 C2377 1.385 . S
C2374 H2355 0.951 . S
C2374 C2372 1.388 . S
C2374 C2375 1.366 . S
C2375 C2374 1.366 . S
C2375 C2376 1.414 . S
C2375 C2378 1.499 . S
C2376 H2356 0.950 . S
C2376 C2375 1.414 . S
C2376 C2377 1.374 . S
C2377 H2357 0.950 . S
C2377 C2373 1.385 . S
C2377 C2376 1.374 . S
C2378 C2375 1.499 . S
C2378 C2379 1.373 . S
C2378 C2380 1.389 . S
C2379 H2358 0.950 . S
C2379 C2378 1.373 . S
C2379 C2395 1.377 . S
C2380 C2378 1.389 . S
C2380 C2381 1.524 . S
C2380 C2394 1.377 . S
C2381 C2380 1.524 . S
C2381 C2382 1.397 . S
C2381 C2386 1.363 . S
C2382 H2359 0.950 . S
C2382 C2381 1.397 . S
C2382 C2383 1.334 . S
C2383 H2360 0.950 . S
C2383 C2382 1.334 . S
C2383 C2384 1.287 . S
C2384 C2383 1.287 . S
C2384 C2385 1.524 . S
C2384 H2403 0.913 . S
C2385 H2361 0.950 . S
C2385 C2384 1.524 . S
C2385 C2386 1.415 . S
C2386 H2362 0.950 . S
C2386 C2381 1.363 . S
C2386 C2385 1.415 . S
C2387 H2363 0.951 . S
C2387 C2388 1.366 . S
C2387 C2389 1.388 . S
C2388 C2387 1.366 . S
C2388 C2392 1.385 . S
C2389 H2364 0.951 . S
C2389 C2387 1.388 . S
C2389 C2390 1.366 . S
C2390 C2389 1.366 . S
C2390 C2391 1.414 . S
C2390 C2393 1.499 . S
C2391 H2365 0.950 . S
C2391 C2390 1.414 . S
C2391 C2392 1.374 . S
C2392 H2366 0.950 . S
C2392 C2388 1.385 . S
C2392 C2391 1.374 . S
C2393 C2390 1.499 . S
C2393 C2394 1.373 . S
C2393 C2395 1.389 . S
C2394 H2367 0.950 . S
C2394 C2380 1.377 . S
C2394 C2393 1.373 . S
C2395 C2379 1.377 . S
C2395 C2393 1.389 . S
C2395 C2396 1.524 . S
C2396 C2395 1.524 . S
C2396 C2397 1.397 . S
C2396 C2401 1.363 . S
C2397 H2368 0.950 . S
C2397 C2396 1.397 . S
C2397 C2398 1.334 . S
C2398 H2369 0.950 . S
C2398 C2397 1.334 . S
C2398 C2399 1.287 . S
C2399 C2398 1.287 . S
C2399 C2400 1.524 . S
C2399 H2402 0.999 . S
C2400 H2370 0.950 . S
C2400 C2399 1.524 . S
C2400 C2401 1.415 . S
C2401 H2371 0.950 . S
C2401 C2396 1.363 . S
C2401 C2400 1.415 . S
H2402 C2399 0.999 . S
H2403 C2384 0.913 . S
H2404 C2422 0.951 . S
H2405 C2424 0.951 . S
H2406 C2426 0.950 . S
H2407 C2427 0.950 . S
H2408 C2429 0.950 . S
H2409 C2432 0.950 . S
H2410 C2433 0.950 . S
H2411 C2435 0.950 . S
H2412 C2436 0.950 . S
H2413 C2437 0.951 . S
H2414 C2439 0.951 . S
H2415 C2441 0.950 . S
H2416 C2442 0.950 . S
H2417 C2444 0.950 . S
H2418 C2447 0.950 . S
H2419 C2448 0.950 . S
H2420 C2450 0.950 . S
H2421 C2451 0.950 . S
C2422 H2404 0.951 . S
C2422 C2423 1.366 . S
C2422 C2424 1.388 . S
C2423 C2422 1.366 . S
C2423 C2427 1.385 . S
C2424 H2405 0.951 . S
C2424 C2422 1.388 . S
C2424 C2425 1.366 . S
C2425 C2424 1.366 . S
C2425 C2426 1.414 . S
C2425 C2428 1.499 . S
C2426 H2406 0.950 . S
C2426 C2425 1.414 . S
C2426 C2427 1.374 . S
C2427 H2407 0.950 . S
C2427 C2423 1.385 . S
C2427 C2426 1.374 . S
C2428 C2425 1.499 . S
C2428 C2429 1.373 . S
C2428 C2430 1.389 . S
C2429 H2408 0.950 . S
C2429 C2428 1.373 . S
C2429 C2445 1.377 . S
C2430 C2428 1.389 . S
C2430 C2431 1.524 . S
C2430 C2444 1.377 . S
C2431 C2430 1.524 . S
C2431 C2432 1.397 . S
C2431 C2436 1.363 . S
C2432 H2409 0.950 . S
C2432 C2431 1.397 . S
C2432 C2433 1.334 . S
C2433 H2410 0.950 . S
C2433 C2432 1.334 . S
C2433 C2434 1.287 . S
C2434 C2433 1.287 . S
C2434 C2435 1.524 . S
C2434 H2453 0.913 1_554 S
C2435 H2411 0.950 . S
C2435 C2434 1.524 . S
C2435 C2436 1.415 . S
C2436 H2412 0.950 . S
C2436 C2431 1.363 . S
C2436 C2435 1.415 . S
C2437 H2413 0.951 . S
C2437 C2438 1.366 . S
C2437 C2439 1.388 . S
C2438 C2437 1.366 . S
C2438 C2442 1.385 . S
C2439 H2414 0.951 . S
C2439 C2437 1.388 . S
C2439 C2440 1.366 . S
C2440 C2439 1.366 . S
C2440 C2441 1.414 . S
C2440 C2443 1.499 . S
C2441 H2415 0.950 . S
C2441 C2440 1.414 . S
C2441 C2442 1.374 . S
C2442 H2416 0.950 . S
C2442 C2438 1.385 . S
C2442 C2441 1.374 . S
C2443 C2440 1.499 . S
C2443 C2444 1.373 . S
C2443 C2445 1.389 . S
C2444 H2417 0.950 . S
C2444 C2430 1.377 . S
C2444 C2443 1.373 . S
C2445 C2429 1.377 . S
C2445 C2443 1.389 . S
C2445 C2446 1.524 . S
C2446 C2445 1.524 . S
C2446 C2447 1.397 . S
C2446 C2451 1.363 . S
C2447 H2418 0.950 . S
C2447 C2446 1.397 . S
C2447 C2448 1.334 . S
C2448 H2419 0.950 . S
C2448 C2447 1.334 . S
C2448 C2449 1.287 . S
C2449 C2448 1.287 . S
C2449 C2450 1.524 . S
C2449 H2452 0.999 . S
C2450 H2420 0.950 . S
C2450 C2449 1.524 . S
C2450 C2451 1.415 . S
C2451 H2421 0.950 . S
C2451 C2446 1.363 . S
C2451 C2450 1.415 . S
H2452 C2449 0.999 . S
H2453 C2434 0.913 1_556 S
H2454 C2472 0.951 . S
H2455 C2474 0.951 . S
H2456 C2476 0.950 . S
H2457 C2477 0.950 . S
H2458 C2479 0.950 . S
H2459 C2482 0.950 . S
H2460 C2483 0.950 . S
H2461 C2485 0.950 . S
H2462 C2486 0.950 . S
H2463 C2487 0.951 . S
H2464 C2489 0.951 . S
H2465 C2491 0.950 . S
H2466 C2492 0.950 . S
H2467 C2494 0.950 . S
H2468 C2497 0.950 . S
H2469 C2498 0.950 . S
H2470 C2500 0.950 . S
H2471 C2501 0.950 . S
C2472 H2454 0.951 . S
C2472 C2473 1.366 . S
C2472 C2474 1.388 . S
C2473 C2472 1.366 . S
C2473 C2477 1.385 . S
C2474 H2455 0.951 . S
C2474 C2472 1.388 . S
C2474 C2475 1.366 . S
C2475 C2474 1.366 . S
C2475 C2476 1.414 . S
C2475 C2478 1.499 . S
C2476 H2456 0.950 . S
C2476 C2475 1.414 . S
C2476 C2477 1.374 . S
C2477 H2457 0.950 . S
C2477 C2473 1.385 . S
C2477 C2476 1.374 . S
C2478 C2475 1.499 . S
C2478 C2479 1.373 . S
C2478 C2480 1.389 . S
C2479 H2458 0.950 . S
C2479 C2478 1.373 . S
C2479 C2495 1.377 . S
C2480 C2478 1.389 . S
C2480 C2481 1.524 . S
C2480 C2494 1.377 . S
C2481 C2480 1.524 . S
C2481 C2482 1.397 . S
C2481 C2486 1.363 . S
C2482 H2459 0.950 . S
C2482 C2481 1.397 . S
C2482 C2483 1.334 . S
C2483 H2460 0.950 . S
C2483 C2482 1.334 . S
C2483 C2484 1.287 . S
C2484 C2483 1.287 . S
C2484 C2485 1.524 . S
C2484 H2503 0.913 . S
C2485 H2461 0.950 . S
C2485 C2484 1.524 . S
C2485 C2486 1.415 . S
C2486 H2462 0.950 . S
C2486 C2481 1.363 . S
C2486 C2485 1.415 . S
C2487 H2463 0.951 . S
C2487 C2488 1.366 . S
C2487 C2489 1.388 . S
C2488 C2487 1.366 . S
C2488 C2492 1.385 . S
C2489 H2464 0.951 . S
C2489 C2487 1.388 . S
C2489 C2490 1.366 . S
C2490 C2489 1.366 . S
C2490 C2491 1.414 . S
C2490 C2493 1.499 . S
C2491 H2465 0.950 . S
C2491 C2490 1.414 . S
C2491 C2492 1.374 . S
C2492 H2466 0.950 . S
C2492 C2488 1.385 . S
C2492 C2491 1.374 . S
C2493 C2490 1.499 . S
C2493 C2494 1.373 . S
C2493 C2495 1.389 . S
C2494 H2467 0.950 . S
C2494 C2480 1.377 . S
C2494 C2493 1.373 . S
C2495 C2479 1.377 . S
C2495 C2493 1.389 . S
C2495 C2496 1.524 . S
C2496 C2495 1.524 . S
C2496 C2497 1.397 . S
C2496 C2501 1.363 . S
C2497 H2468 0.950 . S
C2497 C2496 1.397 . S
C2497 C2498 1.334 . S
C2498 H2469 0.950 . S
C2498 C2497 1.334 . S
C2498 C2499 1.287 . S
C2499 C2498 1.287 . S
C2499 C2500 1.524 . S
C2499 H2502 0.999 . S
C2500 H2470 0.950 . S
C2500 C2499 1.524 . S
C2500 C2501 1.415 . S
C2501 H2471 0.950 . S
C2501 C2496 1.363 . S
C2501 C2500 1.415 . S
H2502 C2499 0.999 . S
H2503 C2484 0.913 . S
H2504 C2522 0.951 . S
H2505 C2524 0.951 . S
H2506 C2526 0.950 . S
H2507 C2527 0.950 . S
H2508 C2529 0.950 . S
H2509 C2532 0.950 . S
H2510 C2533 0.950 . S
H2511 C2535 0.950 . S
H2512 C2536 0.950 . S
H2513 C2537 0.951 . S
H2514 C2539 0.951 . S
H2515 C2541 0.950 . S
H2516 C2542 0.950 . S
H2517 C2544 0.950 . S
H2518 C2547 0.950 . S
H2519 C2548 0.950 . S
H2520 C2550 0.950 1_554 S
H2521 C2551 0.950 . S
C2522 H2504 0.951 . S
C2522 C2523 1.366 . S
C2522 C2524 1.388 . S
C2523 C2522 1.366 . S
C2523 C2527 1.385 . S
C2524 H2505 0.951 . S
C2524 C2522 1.388 . S
C2524 C2525 1.366 . S
C2525 C2524 1.366 . S
C2525 C2526 1.414 . S
C2525 C2528 1.499 . S
C2526 H2506 0.950 . S
C2526 C2525 1.414 . S
C2526 C2527 1.374 . S
C2527 H2507 0.950 . S
C2527 C2523 1.385 . S
C2527 C2526 1.374 . S
C2528 C2525 1.499 . S
C2528 C2529 1.373 . S
C2528 C2530 1.389 . S
C2529 H2508 0.950 . S
C2529 C2528 1.373 . S
C2529 C2545 1.377 . S
C2530 C2528 1.389 . S
C2530 C2531 1.524 . S
C2530 C2544 1.377 . S
C2531 C2530 1.524 . S
C2531 C2532 1.397 . S
C2531 C2536 1.363 . S
C2532 H2509 0.950 . S
C2532 C2531 1.397 . S
C2532 C2533 1.334 . S
C2533 H2510 0.950 . S
C2533 C2532 1.334 . S
C2533 C2534 1.287 . S
C2534 C2533 1.287 . S
C2534 C2535 1.524 . S
C2534 H2553 0.913 . S
C2535 H2511 0.950 . S
C2535 C2534 1.524 . S
C2535 C2536 1.415 . S
C2536 H2512 0.950 . S
C2536 C2531 1.363 . S
C2536 C2535 1.415 . S
C2537 H2513 0.951 . S
C2537 C2538 1.366 . S
C2537 C2539 1.388 . S
C2538 C2537 1.366 . S
C2538 C2542 1.385 . S
C2539 H2514 0.951 . S
C2539 C2537 1.388 . S
C2539 C2540 1.366 . S
C2540 C2539 1.366 . S
C2540 C2541 1.414 . S
C2540 C2543 1.499 . S
C2541 H2515 0.950 . S
C2541 C2540 1.414 . S
C2541 C2542 1.374 . S
C2542 H2516 0.950 . S
C2542 C2538 1.385 . S
C2542 C2541 1.374 . S
C2543 C2540 1.499 . S
C2543 C2544 1.373 . S
C2543 C2545 1.389 . S
C2544 H2517 0.950 . S
C2544 C2530 1.377 . S
C2544 C2543 1.373 . S
C2545 C2529 1.377 . S
C2545 C2543 1.389 . S
C2545 C2546 1.524 . S
C2546 C2545 1.524 . S
C2546 C2547 1.397 . S
C2546 C2551 1.363 . S
C2547 H2518 0.950 . S
C2547 C2546 1.397 . S
C2547 C2548 1.334 . S
C2548 H2519 0.950 . S
C2548 C2547 1.334 . S
C2548 C2549 1.287 1_556 S
C2549 C2548 1.287 1_554 S
C2549 C2550 1.524 1_554 S
C2549 H2552 0.999 . S
C2550 H2520 0.950 1_556 S
C2550 C2549 1.524 1_556 S
C2550 C2551 1.415 . S
C2551 H2521 0.950 . S
C2551 C2546 1.363 . S
C2551 C2550 1.415 . S
H2552 C2549 0.999 . S
H2553 C2534 0.913 . S
H2554 C2572 0.951 . S
H2555 C2574 0.951 . S
H2556 C2576 0.950 . S
H2557 C2577 0.950 . S
H2558 C2579 0.950 . S
H2559 C2582 0.950 . S
H2560 C2583 0.950 . S
H2561 C2585 0.950 . S
H2562 C2586 0.950 . S
H2563 C2587 0.951 . S
H2564 C2589 0.951 . S
H2565 C2591 0.950 . S
H2566 C2592 0.950 . S
H2567 C2594 0.950 . S
H2568 C2597 0.950 . S
H2569 C2598 0.950 . S
H2570 C2600 0.950 . S
H2571 C2601 0.950 . S
C2572 H2554 0.951 . S
C2572 C2573 1.366 . S
C2572 C2574 1.388 . S
C2573 C2572 1.366 . S
C2573 C2577 1.385 . S
C2574 H2555 0.951 . S
C2574 C2572 1.388 . S
C2574 C2575 1.366 . S
C2575 C2574 1.366 . S
C2575 C2576 1.414 . S
C2575 C2578 1.499 . S
C2576 H2556 0.950 . S
C2576 C2575 1.414 . S
C2576 C2577 1.374 . S
C2577 H2557 0.950 . S
C2577 C2573 1.385 . S
C2577 C2576 1.374 . S
C2578 C2575 1.499 . S
C2578 C2579 1.373 . S
C2578 C2580 1.389 . S
C2579 H2558 0.950 . S
C2579 C2578 1.373 . S
C2579 C2595 1.377 . S
C2580 C2578 1.389 . S
C2580 C2581 1.524 . S
C2580 C2594 1.377 . S
C2581 C2580 1.524 . S
C2581 C2582 1.397 . S
C2581 C2586 1.363 . S
C2582 H2559 0.950 . S
C2582 C2581 1.397 . S
C2582 C2583 1.334 . S
C2583 H2560 0.950 . S
C2583 C2582 1.334 . S
C2583 C2584 1.287 . S
C2584 C2583 1.287 . S
C2584 C2585 1.524 . S
C2584 H2603 0.913 . S
C2585 H2561 0.950 . S
C2585 C2584 1.524 . S
C2585 C2586 1.415 . S
C2586 H2562 0.950 . S
C2586 C2581 1.363 . S
C2586 C2585 1.415 . S
C2587 H2563 0.951 . S
C2587 C2588 1.366 . S
C2587 C2589 1.388 . S
C2588 C2587 1.366 . S
C2588 C2592 1.385 . S
C2589 H2564 0.951 . S
C2589 C2587 1.388 . S
C2589 C2590 1.366 . S
C2590 C2589 1.366 . S
C2590 C2591 1.414 . S
C2590 C2593 1.499 . S
C2591 H2565 0.950 . S
C2591 C2590 1.414 . S
C2591 C2592 1.374 . S
C2592 H2566 0.950 . S
C2592 C2588 1.385 . S
C2592 C2591 1.374 . S
C2593 C2590 1.499 . S
C2593 C2594 1.373 . S
C2593 C2595 1.389 . S
C2594 H2567 0.950 . S
C2594 C2580 1.377 . S
C2594 C2593 1.373 . S
C2595 C2579 1.377 . S
C2595 C2593 1.389 . S
C2595 C2596 1.524 . S
C2596 C2595 1.524 . S
C2596 C2597 1.397 . S
C2596 C2601 1.363 . S
C2597 H2568 0.950 . S
C2597 C2596 1.397 . S
C2597 C2598 1.334 . S
C2598 H2569 0.950 . S
C2598 C2597 1.334 . S
C2598 C2599 1.287 . S
C2599 C2598 1.287 . S
C2599 C2600 1.524 . S
C2599 H2602 0.999 . S
C2600 H2570 0.950 . S
C2600 C2599 1.524 . S
C2600 C2601 1.415 . S
C2601 H2571 0.950 . S
C2601 C2596 1.363 . S
C2601 C2600 1.415 . S
H2602 C2599 0.999 . S
H2603 C2584 0.913 . S
H2604 C2622 0.951 . S
H2605 C2624 0.951 . S
H2606 C2626 0.950 . S
H2607 C2627 0.950 . S
H2608 C2629 0.950 . S
H2609 C2632 0.950 . S
H2610 C2633 0.950 . S
H2611 C2635 0.950 . S
H2612 C2636 0.950 . S
H2613 C2637 0.951 . S
H2614 C2639 0.951 . S
H2615 C2641 0.950 . S
H2616 C2642 0.950 . S
H2617 C2644 0.950 . S
H2618 C2647 0.950 . S
H2619 C2648 0.950 . S
H2620 C2650 0.950 . S
H2621 C2651 0.950 . S
C2622 H2604 0.951 . S
C2622 C2623 1.366 . S
C2622 C2624 1.388 . S
C2623 C2622 1.366 . S
C2623 C2627 1.385 . S
C2624 H2605 0.951 . S
C2624 C2622 1.388 . S
C2624 C2625 1.366 . S
C2625 C2624 1.366 . S
C2625 C2626 1.414 . S
C2625 C2628 1.499 . S
C2626 H2606 0.950 . S
C2626 C2625 1.414 . S
C2626 C2627 1.374 . S
C2627 H2607 0.950 . S
C2627 C2623 1.385 . S
C2627 C2626 1.374 . S
C2628 C2625 1.499 . S
C2628 C2629 1.373 . S
C2628 C2630 1.389 . S
C2629 H2608 0.950 . S
C2629 C2628 1.373 . S
C2629 C2645 1.377 . S
C2630 C2628 1.389 . S
C2630 C2631 1.524 . S
C2630 C2644 1.377 . S
C2631 C2630 1.524 . S
C2631 C2632 1.397 . S
C2631 C2636 1.363 . S
C2632 H2609 0.950 . S
C2632 C2631 1.397 . S
C2632 C2633 1.334 . S
C2633 H2610 0.950 . S
C2633 C2632 1.334 . S
C2633 C2634 1.287 . S
C2634 C2633 1.287 . S
C2634 C2635 1.524 . S
C2634 H2653 0.913 . S
C2635 H2611 0.950 . S
C2635 C2634 1.524 . S
C2635 C2636 1.415 . S
C2636 H2612 0.950 . S
C2636 C2631 1.363 . S
C2636 C2635 1.415 . S
C2637 H2613 0.951 . S
C2637 C2638 1.366 . S
C2637 C2639 1.388 . S
C2638 C2637 1.366 . S
C2638 C2642 1.385 . S
C2639 H2614 0.951 . S
C2639 C2637 1.388 . S
C2639 C2640 1.366 . S
C2640 C2639 1.366 . S
C2640 C2641 1.414 . S
C2640 C2643 1.499 . S
C2641 H2615 0.950 . S
C2641 C2640 1.414 . S
C2641 C2642 1.374 . S
C2642 H2616 0.950 . S
C2642 C2638 1.385 . S
C2642 C2641 1.374 . S
C2643 C2640 1.499 . S
C2643 C2644 1.373 . S
C2643 C2645 1.389 . S
C2644 H2617 0.950 . S
C2644 C2630 1.377 . S
C2644 C2643 1.373 . S
C2645 C2629 1.377 . S
C2645 C2643 1.389 . S
C2645 C2646 1.524 . S
C2646 C2645 1.524 . S
C2646 C2647 1.397 . S
C2646 C2651 1.363 . S
C2647 H2618 0.950 . S
C2647 C2646 1.397 . S
C2647 C2648 1.334 . S
C2648 H2619 0.950 . S
C2648 C2647 1.334 . S
C2648 C2649 1.287 . S
C2649 C2648 1.287 . S
C2649 C2650 1.524 . S
C2649 H2652 0.999 . S
C2650 H2620 0.950 . S
C2650 C2649 1.524 . S
C2650 C2651 1.415 . S
C2651 H2621 0.950 . S
C2651 C2646 1.363 . S
C2651 C2650 1.415 . S
H2652 C2649 0.999 . S
H2653 C2634 0.913 . S
H2654 C2672 0.951 . S
H2655 C2674 0.951 . S
H2656 C2676 0.950 . S
H2657 C2677 0.950 . S
H2658 C2679 0.950 . S
H2659 C2682 0.950 . S
H2660 C2683 0.950 . S
H2661 C2685 0.950 . S
H2662 C2686 0.950 . S
H2663 C2687 0.951 . S
H2664 C2689 0.951 . S
H2665 C2691 0.950 . S
H2666 C2692 0.950 . S
H2667 C2694 0.950 . S
H2668 C2697 0.950 . S
H2669 C2698 0.950 . S
H2670 C2700 0.950 . S
H2671 C2701 0.950 . S
C2672 H2654 0.951 . S
C2672 C2673 1.366 . S
C2672 C2674 1.388 . S
C2673 C2672 1.366 . S
C2673 C2677 1.385 . S
C2674 H2655 0.951 . S
C2674 C2672 1.388 . S
C2674 C2675 1.366 . S
C2675 C2674 1.366 . S
C2675 C2676 1.414 . S
C2675 C2678 1.499 . S
C2676 H2656 0.950 . S
C2676 C2675 1.414 . S
C2676 C2677 1.374 . S
C2677 H2657 0.950 . S
C2677 C2673 1.385 . S
C2677 C2676 1.374 . S
C2678 C2675 1.499 . S
C2678 C2679 1.373 . S
C2678 C2680 1.389 . S
C2679 H2658 0.950 . S
C2679 C2678 1.373 . S
C2679 C2695 1.377 . S
C2680 C2678 1.389 . S
C2680 C2681 1.524 . S
C2680 C2694 1.377 . S
C2681 C2680 1.524 . S
C2681 C2682 1.397 . S
C2681 C2686 1.363 . S
C2682 H2659 0.950 . S
C2682 C2681 1.397 . S
C2682 C2683 1.334 . S
C2683 H2660 0.950 . S
C2683 C2682 1.334 . S
C2683 C2684 1.287 . S
C2684 C2683 1.287 . S
C2684 C2685 1.524 . S
C2684 H2703 0.913 . S
C2685 H2661 0.950 . S
C2685 C2684 1.524 . S
C2685 C2686 1.415 . S
C2686 H2662 0.950 . S
C2686 C2681 1.363 . S
C2686 C2685 1.415 . S
C2687 H2663 0.951 . S
C2687 C2688 1.366 . S
C2687 C2689 1.388 . S
C2688 C2687 1.366 . S
C2688 C2692 1.385 . S
C2689 H2664 0.951 . S
C2689 C2687 1.388 . S
C2689 C2690 1.366 . S
C2690 C2689 1.366 . S
C2690 C2691 1.414 . S
C2690 C2693 1.499 . S
C2691 H2665 0.950 . S
C2691 C2690 1.414 . S
C2691 C2692 1.374 . S
C2692 H2666 0.950 . S
C2692 C2688 1.385 . S
C2692 C2691 1.374 . S
C2693 C2690 1.499 . S
C2693 C2694 1.373 . S
C2693 C2695 1.389 . S
C2694 H2667 0.950 . S
C2694 C2680 1.377 . S
C2694 C2693 1.373 . S
C2695 C2679 1.377 . S
C2695 C2693 1.389 . S
C2695 C2696 1.524 . S
C2696 C2695 1.524 . S
C2696 C2697 1.397 . S
C2696 C2701 1.363 . S
C2697 H2668 0.950 . S
C2697 C2696 1.397 . S
C2697 C2698 1.334 . S
C2698 H2669 0.950 . S
C2698 C2697 1.334 . S
C2698 C2699 1.287 . S
C2699 C2698 1.287 . S
C2699 C2700 1.524 . S
C2699 H2702 0.999 . S
C2700 H2670 0.950 . S
C2700 C2699 1.524 . S
C2700 C2701 1.415 . S
C2701 H2671 0.950 . S
C2701 C2696 1.363 . S
C2701 C2700 1.415 . S
H2702 C2699 0.999 . S
H2703 C2684 0.913 . S
H2704 C2722 0.951 . S
H2705 C2724 0.951 . S
H2706 C2726 0.950 . S
H2707 C2727 0.950 . S
H2708 C2729 0.950 . S
H2709 C2732 0.950 . S
H2710 C2733 0.950 . S
H2711 C2735 0.950 . S
H2712 C2736 0.950 . S
H2713 C2737 0.951 . S
H2714 C2739 0.951 . S
H2715 C2741 0.950 . S
H2716 C2742 0.950 . S
H2717 C2744 0.950 . S
H2718 C2747 0.950 . S
H2719 C2748 0.950 . S
H2720 C2750 0.950 . S
H2721 C2751 0.950 . S
C2722 H2704 0.951 . S
C2722 C2723 1.366 . S
C2722 C2724 1.388 . S
C2723 C2722 1.366 . S
C2723 C2727 1.385 . S
C2724 H2705 0.951 . S
C2724 C2722 1.388 . S
C2724 C2725 1.366 . S
C2725 C2724 1.366 . S
C2725 C2726 1.414 . S
C2725 C2728 1.499 . S
C2726 H2706 0.950 . S
C2726 C2725 1.414 . S
C2726 C2727 1.374 . S
C2727 H2707 0.950 . S
C2727 C2723 1.385 . S
C2727 C2726 1.374 . S
C2728 C2725 1.499 . S
C2728 C2729 1.373 . S
C2728 C2730 1.389 . S
C2729 H2708 0.950 . S
C2729 C2728 1.373 . S
C2729 C2745 1.377 . S
C2730 C2728 1.389 . S
C2730 C2731 1.524 . S
C2730 C2744 1.377 . S
C2731 C2730 1.524 . S
C2731 C2732 1.397 . S
C2731 C2736 1.363 . S
C2732 H2709 0.950 . S
C2732 C2731 1.397 . S
C2732 C2733 1.334 . S
C2733 H2710 0.950 . S
C2733 C2732 1.334 . S
C2733 C2734 1.287 . S
C2734 C2733 1.287 . S
C2734 C2735 1.524 . S
C2734 H2753 0.913 . S
C2735 H2711 0.950 . S
C2735 C2734 1.524 . S
C2735 C2736 1.415 . S
C2736 H2712 0.950 . S
C2736 C2731 1.363 . S
C2736 C2735 1.415 . S
C2737 H2713 0.951 . S
C2737 C2738 1.366 . S
C2737 C2739 1.388 . S
C2738 C2737 1.366 . S
C2738 C2742 1.385 . S
C2739 H2714 0.951 . S
C2739 C2737 1.388 . S
C2739 C2740 1.366 . S
C2740 C2739 1.366 . S
C2740 C2741 1.414 . S
C2740 C2743 1.499 . S
C2741 H2715 0.950 . S
C2741 C2740 1.414 . S
C2741 C2742 1.374 . S
C2742 H2716 0.950 . S
C2742 C2738 1.385 . S
C2742 C2741 1.374 . S
C2743 C2740 1.499 . S
C2743 C2744 1.373 . S
C2743 C2745 1.389 . S
C2744 H2717 0.950 . S
C2744 C2730 1.377 . S
C2744 C2743 1.373 . S
C2745 C2729 1.377 . S
C2745 C2743 1.389 . S
C2745 C2746 1.524 . S
C2746 C2745 1.524 . S
C2746 C2747 1.397 . S
C2746 C2751 1.363 . S
C2747 H2718 0.950 . S
C2747 C2746 1.397 . S
C2747 C2748 1.334 . S
C2748 H2719 0.950 . S
C2748 C2747 1.334 . S
C2748 C2749 1.287 . S
C2749 C2748 1.287 . S
C2749 C2750 1.524 . S
C2749 H2752 0.999 . S
C2750 H2720 0.950 . S
C2750 C2749 1.524 . S
C2750 C2751 1.415 . S
C2751 H2721 0.950 . S
C2751 C2746 1.363 . S
C2751 C2750 1.415 . S
H2752 C2749 0.999 . S
H2753 C2734 0.913 . S
H2754 C2772 0.951 . S
H2755 C2774 0.951 . S
H2756 C2776 0.950 . S
H2757 C2777 0.950 . S
H2758 C2779 0.950 . S
H2759 C2782 0.950 . S
H2760 C2783 0.950 . S
H2761 C2785 0.950 . S
H2762 C2786 0.950 . S
H2763 C2787 0.951 . S
H2764 C2789 0.951 . S
H2765 C2791 0.950 . S
H2766 C2792 0.950 . S
H2767 C2794 0.950 . S
H2768 C2797 0.950 . S
H2769 C2798 0.950 1_556 S
H2770 C2800 0.950 . S
H2771 C2801 0.950 . S
C2772 H2754 0.951 . S
C2772 C2773 1.366 . S
C2772 C2774 1.388 . S
C2773 C2772 1.366 . S
C2773 C2777 1.385 . S
C2774 H2755 0.951 . S
C2774 C2772 1.388 . S
C2774 C2775 1.366 . S
C2775 C2774 1.366 . S
C2775 C2776 1.414 . S
C2775 C2778 1.499 . S
C2776 H2756 0.950 . S
C2776 C2775 1.414 . S
C2776 C2777 1.374 . S
C2777 H2757 0.950 . S
C2777 C2773 1.385 . S
C2777 C2776 1.374 . S
C2778 C2775 1.499 . S
C2778 C2779 1.373 . S
C2778 C2780 1.389 . S
C2779 H2758 0.950 . S
C2779 C2778 1.373 . S
C2779 C2795 1.377 . S
C2780 C2778 1.389 . S
C2780 C2781 1.524 . S
C2780 C2794 1.377 . S
C2781 C2780 1.524 . S
C2781 C2782 1.397 . S
C2781 C2786 1.363 . S
C2782 H2759 0.950 . S
C2782 C2781 1.397 . S
C2782 C2783 1.334 . S
C2783 H2760 0.950 . S
C2783 C2782 1.334 . S
C2783 C2784 1.287 . S
C2784 C2783 1.287 . S
C2784 C2785 1.524 . S
C2784 H2803 0.913 . S
C2785 H2761 0.950 . S
C2785 C2784 1.524 . S
C2785 C2786 1.415 . S
C2786 H2762 0.950 . S
C2786 C2781 1.363 . S
C2786 C2785 1.415 . S
C2787 H2763 0.951 . S
C2787 C2788 1.366 . S
C2787 C2789 1.388 . S
C2788 C2787 1.366 . S
C2788 C2792 1.385 . S
C2789 H2764 0.951 . S
C2789 C2787 1.388 . S
C2789 C2790 1.366 . S
C2790 C2789 1.366 . S
C2790 C2791 1.414 . S
C2790 C2793 1.499 . S
C2791 H2765 0.950 . S
C2791 C2790 1.414 . S
C2791 C2792 1.374 . S
C2792 H2766 0.950 . S
C2792 C2788 1.385 . S
C2792 C2791 1.374 . S
C2793 C2790 1.499 . S
C2793 C2794 1.373 . S
C2793 C2795 1.389 . S
C2794 H2767 0.950 . S
C2794 C2780 1.377 . S
C2794 C2793 1.373 . S
C2795 C2779 1.377 . S
C2795 C2793 1.389 . S
C2795 C2796 1.524 . S
C2796 C2795 1.524 . S
C2796 C2797 1.397 . S
C2796 C2801 1.363 . S
C2797 H2768 0.950 . S
C2797 C2796 1.397 . S
C2797 C2798 1.334 . S
C2798 H2769 0.950 1_554 S
C2798 C2797 1.334 . S
C2798 C2799 1.287 . S
C2799 C2798 1.287 . S
C2799 C2800 1.524 . S
C2799 H2802 0.999 1_554 S
C2800 H2770 0.950 . S
C2800 C2799 1.524 . S
C2800 C2801 1.415 . S
C2801 H2771 0.950 . S
C2801 C2796 1.363 . S
C2801 C2800 1.415 . S
H2802 C2799 0.999 1_556 S
H2803 C2784 0.913 . S
H2804 C2822 0.951 . S
H2805 C2824 0.951 . S
H2806 C2826 0.950 . S
H2807 C2827 0.950 . S
H2808 C2829 0.950 . S
H2809 C2832 0.950 . S
H2810 C2833 0.950 . S
H2811 C2835 0.950 . S
H2812 C2836 0.950 . S
H2813 C2837 0.951 . S
H2814 C2839 0.951 . S
H2815 C2841 0.950 . S
H2816 C2842 0.950 . S
H2817 C2844 0.950 . S
H2818 C2847 0.950 . S
H2819 C2848 0.950 . S
H2820 C2850 0.950 . S
H2821 C2851 0.950 . S
C2822 H2804 0.951 . S
C2822 C2823 1.366 . S
C2822 C2824 1.388 . S
C2823 C2822 1.366 . S
C2823 C2827 1.385 . S
C2824 H2805 0.951 . S
C2824 C2822 1.388 . S
C2824 C2825 1.366 . S
C2825 C2824 1.366 . S
C2825 C2826 1.414 . S
C2825 C2828 1.499 . S
C2826 H2806 0.950 . S
C2826 C2825 1.414 . S
C2826 C2827 1.374 . S
C2827 H2807 0.950 . S
C2827 C2823 1.385 . S
C2827 C2826 1.374 . S
C2828 C2825 1.499 . S
C2828 C2829 1.373 . S
C2828 C2830 1.389 . S
C2829 H2808 0.950 . S
C2829 C2828 1.373 . S
C2829 C2845 1.377 . S
C2830 C2828 1.389 . S
C2830 C2831 1.524 . S
C2830 C2844 1.377 . S
C2831 C2830 1.524 . S
C2831 C2832 1.397 . S
C2831 C2836 1.363 . S
C2832 H2809 0.950 . S
C2832 C2831 1.397 . S
C2832 C2833 1.334 . S
C2833 H2810 0.950 . S
C2833 C2832 1.334 . S
C2833 C2834 1.287 . S
C2834 C2833 1.287 . S
C2834 C2835 1.524 . S
C2834 H2853 0.913 1_554 S
C2835 H2811 0.950 . S
C2835 C2834 1.524 . S
C2835 C2836 1.415 . S
C2836 H2812 0.950 . S
C2836 C2831 1.363 . S
C2836 C2835 1.415 . S
C2837 H2813 0.951 . S
C2837 C2838 1.366 . S
C2837 C2839 1.388 . S
C2838 C2837 1.366 . S
C2838 C2842 1.385 . S
C2839 H2814 0.951 . S
C2839 C2837 1.388 . S
C2839 C2840 1.366 . S
C2840 C2839 1.366 . S
C2840 C2841 1.414 . S
C2840 C2843 1.499 . S
C2841 H2815 0.950 . S
C2841 C2840 1.414 . S
C2841 C2842 1.374 . S
C2842 H2816 0.950 . S
C2842 C2838 1.385 . S
C2842 C2841 1.374 . S
C2843 C2840 1.499 . S
C2843 C2844 1.373 . S
C2843 C2845 1.389 . S
C2844 H2817 0.950 . S
C2844 C2830 1.377 . S
C2844 C2843 1.373 . S
C2845 C2829 1.377 . S
C2845 C2843 1.389 . S
C2845 C2846 1.524 . S
C2846 C2845 1.524 . S
C2846 C2847 1.397 . S
C2846 C2851 1.363 . S
C2847 H2818 0.950 . S
C2847 C2846 1.397 . S
C2847 C2848 1.334 . S
C2848 H2819 0.950 . S
C2848 C2847 1.334 . S
C2848 C2849 1.287 . S
C2849 C2848 1.287 . S
C2849 C2850 1.524 . S
C2849 H2852 0.999 . S
C2850 H2820 0.950 . S
C2850 C2849 1.524 . S
C2850 C2851 1.415 . S
C2851 H2821 0.950 . S
C2851 C2846 1.363 . S
C2851 C2850 1.415 . S
H2852 C2849 0.999 . S
H2853 C2834 0.913 1_556 S
H2854 C2872 0.951 . S
H2855 C2874 0.951 . S
H2856 C2876 0.950 . S
H2857 C2877 0.950 . S
H2858 C2879 0.950 . S
H2859 C2882 0.950 . S
H2860 C2883 0.950 . S
H2861 C2885 0.950 . S
H2862 C2886 0.950 . S
H2863 C2887 0.951 . S
H2864 C2889 0.951 . S
H2865 C2891 0.950 . S
H2866 C2892 0.950 . S
H2867 C2894 0.950 . S
H2868 C2897 0.950 . S
H2869 C2898 0.950 . S
H2870 C2900 0.950 . S
H2871 C2901 0.950 . S
C2872 H2854 0.951 . S
C2872 C2873 1.366 . S
C2872 C2874 1.388 . S
C2873 C2872 1.366 . S
C2873 C2877 1.385 . S
C2874 H2855 0.951 . S
C2874 C2872 1.388 . S
C2874 C2875 1.366 . S
C2875 C2874 1.366 . S
C2875 C2876 1.414 . S
C2875 C2878 1.499 . S
C2876 H2856 0.950 . S
C2876 C2875 1.414 . S
C2876 C2877 1.374 . S
C2877 H2857 0.950 . S
C2877 C2873 1.385 . S
C2877 C2876 1.374 . S
C2878 C2875 1.499 . S
C2878 C2879 1.373 . S
C2878 C2880 1.389 . S
C2879 H2858 0.950 . S
C2879 C2878 1.373 . S
C2879 C2895 1.377 . S
C2880 C2878 1.389 . S
C2880 C2881 1.524 . S
C2880 C2894 1.377 . S
C2881 C2880 1.524 . S
C2881 C2882 1.397 . S
C2881 C2886 1.363 . S
C2882 H2859 0.950 . S
C2882 C2881 1.397 . S
C2882 C2883 1.334 . S
C2883 H2860 0.950 . S
C2883 C2882 1.334 . S
C2883 C2884 1.287 . S
C2884 C2883 1.287 . S
C2884 C2885 1.524 . S
C2884 H2903 0.913 . S
C2885 H2861 0.950 . S
C2885 C2884 1.524 . S
C2885 C2886 1.415 . S
C2886 H2862 0.950 . S
C2886 C2881 1.363 . S
C2886 C2885 1.415 . S
C2887 H2863 0.951 . S
C2887 C2888 1.366 . S
C2887 C2889 1.388 . S
C2888 C2887 1.366 . S
C2888 C2892 1.385 . S
C2889 H2864 0.951 . S
C2889 C2887 1.388 . S
C2889 C2890 1.366 . S
C2890 C2889 1.366 . S
C2890 C2891 1.414 . S
C2890 C2893 1.499 . S
C2891 H2865 0.950 . S
C2891 C2890 1.414 . S
C2891 C2892 1.374 . S
C2892 H2866 0.950 . S
C2892 C2888 1.385 . S
C2892 C2891 1.374 . S
C2893 C2890 1.499 . S
C2893 C2894 1.373 . S
C2893 C2895 1.389 . S
C2894 H2867 0.950 . S
C2894 C2880 1.377 . S
C2894 C2893 1.373 . S
C2895 C2879 1.377 . S
C2895 C2893 1.389 . S
C2895 C2896 1.524 . S
C2896 C2895 1.524 . S
C2896 C2897 1.397 . S
C2896 C2901 1.363 . S
C2897 H2868 0.950 . S
C2897 C2896 1.397 . S
C2897 C2898 1.334 . S
C2898 H2869 0.950 . S
C2898 C2897 1.334 . S
C2898 C2899 1.287 . S
C2899 C2898 1.287 . S
C2899 C2900 1.524 . S
C2899 H2902 0.999 . S
C2900 H2870 0.950 . S
C2900 C2899 1.524 . S
C2900 C2901 1.415 . S
C2901 H2871 0.950 . S
C2901 C2896 1.363 . S
C2901 C2900 1.415 . S
H2902 C2899 0.999 . S
H2903 C2884 0.913 . S
H2904 C2922 0.951 . S
H2905 C2924 0.951 . S
H2906 C2926 0.950 . S
H2907 C2927 0.950 . S
H2908 C2929 0.950 . S
H2909 C2932 0.950 . S
H2910 C2933 0.950 . S
H2911 C2935 0.950 . S
H2912 C2936 0.950 . S
H2913 C2937 0.951 . S
H2914 C2939 0.951 . S
H2915 C2941 0.950 . S
H2916 C2942 0.950 . S
H2917 C2944 0.950 . S
H2918 C2947 0.950 . S
H2919 C2948 0.950 . S
H2920 C2950 0.950 . S
H2921 C2951 0.950 . S
C2922 H2904 0.951 . S
C2922 C2923 1.366 . S
C2922 C2924 1.388 . S
C2923 C2922 1.366 . S
C2923 C2927 1.385 . S
C2924 H2905 0.951 . S
C2924 C2922 1.388 . S
C2924 C2925 1.366 . S
C2925 C2924 1.366 . S
C2925 C2926 1.414 . S
C2925 C2928 1.499 . S
C2926 H2906 0.950 . S
C2926 C2925 1.414 . S
C2926 C2927 1.374 . S
C2927 H2907 0.950 . S
C2927 C2923 1.385 . S
C2927 C2926 1.374 . S
C2928 C2925 1.499 . S
C2928 C2929 1.373 . S
C2928 C2930 1.389 . S
C2929 H2908 0.950 . S
C2929 C2928 1.373 . S
C2929 C2945 1.377 1_455 S
C2930 C2928 1.389 . S
C2930 C2931 1.524 . S
C2930 C2944 1.377 1_455 S
C2931 C2930 1.524 . S
C2931 C2932 1.397 . S
C2931 C2936 1.363 . S
C2932 H2909 0.950 . S
C2932 C2931 1.397 . S
C2932 C2933 1.334 . S
C2933 H2910 0.950 . S
C2933 C2932 1.334 . S
C2933 C2934 1.287 . S
C2934 C2933 1.287 . S
C2934 C2935 1.524 . S
C2934 H2953 0.913 . S
C2935 H2911 0.950 . S
C2935 C2934 1.524 . S
C2935 C2936 1.415 . S
C2936 H2912 0.950 . S
C2936 C2931 1.363 . S
C2936 C2935 1.415 . S
C2937 H2913 0.951 . S
C2937 C2938 1.366 . S
C2937 C2939 1.388 . S
C2938 C2937 1.366 . S
C2938 C2942 1.385 . S
C2939 H2914 0.951 . S
C2939 C2937 1.388 . S
C2939 C2940 1.366 . S
C2940 C2939 1.366 . S
C2940 C2941 1.414 . S
C2940 C2943 1.499 . S
C2941 H2915 0.950 . S
C2941 C2940 1.414 . S
C2941 C2942 1.374 . S
C2942 H2916 0.950 . S
C2942 C2938 1.385 . S
C2942 C2941 1.374 . S
C2943 C2940 1.499 . S
C2943 C2944 1.373 . S
C2943 C2945 1.389 . S
C2944 H2917 0.950 . S
C2944 C2930 1.377 1_655 S
C2944 C2943 1.373 . S
C2945 C2929 1.377 1_655 S
C2945 C2943 1.389 . S
C2945 C2946 1.524 . S
C2946 C2945 1.524 . S
C2946 C2947 1.397 . S
C2946 C2951 1.363 . S
C2947 H2918 0.950 . S
C2947 C2946 1.397 . S
C2947 C2948 1.334 . S
C2948 H2919 0.950 . S
C2948 C2947 1.334 . S
C2948 C2949 1.287 . S
C2949 C2948 1.287 . S
C2949 C2950 1.524 . S
C2949 H2952 0.999 . S
C2950 H2920 0.950 . S
C2950 C2949 1.524 . S
C2950 C2951 1.415 . S
C2951 H2921 0.950 . S
C2951 C2946 1.363 . S
C2951 C2950 1.415 . S
H2952 C2949 0.999 . S
H2953 C2934 0.913 . S
H2954 C2972 0.951 . S
H2955 C2974 0.951 . S
H2956 C2976 0.950 . S
H2957 C2977 0.950 . S
H2958 C2979 0.950 . S
H2959 C2982 0.950 . S
H2960 C2983 0.950 . S
H2961 C2985 0.950 . S
H2962 C2986 0.950 . S
H2963 C2987 0.951 . S
H2964 C2989 0.951 . S
H2965 C2991 0.950 . S
H2966 C2992 0.950 . S
H2967 C2994 0.950 . S
H2968 C2997 0.950 . S
H2969 C2998 0.950 . S
H2970 C3000 0.950 . S
H2971 C3001 0.950 . S
C2972 H2954 0.951 . S
C2972 C2973 1.366 . S
C2972 C2974 1.388 . S
C2973 C2972 1.366 . S
C2973 C2977 1.385 . S
C2974 H2955 0.951 . S
C2974 C2972 1.388 . S
C2974 C2975 1.366 . S
C2975 C2974 1.366 . S
C2975 C2976 1.414 . S
C2975 C2978 1.499 . S
C2976 H2956 0.950 . S
C2976 C2975 1.414 . S
C2976 C2977 1.374 . S
C2977 H2957 0.950 . S
C2977 C2973 1.385 . S
C2977 C2976 1.374 . S
C2978 C2975 1.499 . S
C2978 C2979 1.373 . S
C2978 C2980 1.389 . S
C2979 H2958 0.950 . S
C2979 C2978 1.373 . S
C2979 C2995 1.377 . S
C2980 C2978 1.389 . S
C2980 C2981 1.524 . S
C2980 C2994 1.377 . S
C2981 C2980 1.524 . S
C2981 C2982 1.397 . S
C2981 C2986 1.363 . S
C2982 H2959 0.950 . S
C2982 C2981 1.397 . S
C2982 C2983 1.334 . S
C2983 H2960 0.950 . S
C2983 C2982 1.334 . S
C2983 C2984 1.287 . S
C2984 C2983 1.287 . S
C2984 C2985 1.524 . S
C2984 H3003 0.913 . S
C2985 H2961 0.950 . S
C2985 C2984 1.524 . S
C2985 C2986 1.415 . S
C2986 H2962 0.950 . S
C2986 C2981 1.363 . S
C2986 C2985 1.415 . S
C2987 H2963 0.951 . S
C2987 C2988 1.366 . S
C2987 C2989 1.388 . S
C2988 C2987 1.366 . S
C2988 C2992 1.385 . S
C2989 H2964 0.951 . S
C2989 C2987 1.388 . S
C2989 C2990 1.366 . S
C2990 C2989 1.366 . S
C2990 C2991 1.414 . S
C2990 C2993 1.499 . S
C2991 H2965 0.950 . S
C2991 C2990 1.414 . S
C2991 C2992 1.374 . S
C2992 H2966 0.950 . S
C2992 C2988 1.385 . S
C2992 C2991 1.374 . S
C2993 C2990 1.499 . S
C2993 C2994 1.373 . S
C2993 C2995 1.389 . S
C2994 H2967 0.950 . S
C2994 C2980 1.377 . S
C2994 C2993 1.373 . S
C2995 C2979 1.377 . S
C2995 C2993 1.389 . S
C2995 C2996 1.524 . S
C2996 C2995 1.524 . S
C2996 C2997 1.397 . S
C2996 C3001 1.363 . S
C2997 H2968 0.950 . S
C2997 C2996 1.397 . S
C2997 C2998 1.334 . S
C2998 H2969 0.950 . S
C2998 C2997 1.334 . S
C2998 C2999 1.287 . S
C2999 C2998 1.287 . S
C2999 C3000 1.524 . S
C2999 H3002 0.999 . S
C3000 H2970 0.950 . S
C3000 C2999 1.524 . S
C3000 C3001 1.415 . S
C3001 H2971 0.950 . S
C3001 C2996 1.363 . S
C3001 C3000 1.415 . S
H3002 C2999 0.999 . S
H3003 C2984 0.913 . S
H3004 C3022 0.951 . S
H3005 C3024 0.951 . S
H3006 C3026 0.950 . S
H3007 C3027 0.950 . S
H3008 C3029 0.950 . S
H3009 C3032 0.950 . S
H3010 C3033 0.950 . S
H3011 C3035 0.950 . S
H3012 C3036 0.950 . S
H3013 C3037 0.951 . S
H3014 C3039 0.951 . S
H3015 C3041 0.950 . S
H3016 C3042 0.950 . S
H3017 C3044 0.950 . S
H3018 C3047 0.950 . S
H3019 C3048 0.950 . S
H3020 C3050 0.950 . S
H3021 C3051 0.950 . S
C3022 H3004 0.951 . S
C3022 C3023 1.366 . S
C3022 C3024 1.388 . S
C3023 C3022 1.366 . S
C3023 C3027 1.385 . S
C3024 H3005 0.951 . S
C3024 C3022 1.388 . S
C3024 C3025 1.366 . S
C3025 C3024 1.366 . S
C3025 C3026 1.414 . S
C3025 C3028 1.499 . S
C3026 H3006 0.950 . S
C3026 C3025 1.414 . S
C3026 C3027 1.374 . S
C3027 H3007 0.950 . S
C3027 C3023 1.385 . S
C3027 C3026 1.374 . S
C3028 C3025 1.499 . S
C3028 C3029 1.373 . S
C3028 C3030 1.389 . S
C3029 H3008 0.950 . S
C3029 C3028 1.373 . S
C3029 C3045 1.377 1_545 S
C3030 C3028 1.389 . S
C3030 C3031 1.524 . S
C3030 C3044 1.377 1_545 S
C3031 C3030 1.524 . S
C3031 C3032 1.397 . S
C3031 C3036 1.363 . S
C3032 H3009 0.950 . S
C3032 C3031 1.397 . S
C3032 C3033 1.334 . S
C3033 H3010 0.950 . S
C3033 C3032 1.334 . S
C3033 C3034 1.287 . S
C3034 C3033 1.287 . S
C3034 C3035 1.524 . S
C3034 H3053 0.913 . S
C3035 H3011 0.950 . S
C3035 C3034 1.524 . S
C3035 C3036 1.415 . S
C3036 H3012 0.950 . S
C3036 C3031 1.363 . S
C3036 C3035 1.415 . S
C3037 H3013 0.951 . S
C3037 C3038 1.366 . S
C3037 C3039 1.388 . S
C3038 C3037 1.366 . S
C3038 C3042 1.385 . S
C3039 H3014 0.951 . S
C3039 C3037 1.388 . S
C3039 C3040 1.366 . S
C3040 C3039 1.366 . S
C3040 C3041 1.414 . S
C3040 C3043 1.499 . S
C3041 H3015 0.950 . S
C3041 C3040 1.414 . S
C3041 C3042 1.374 . S
C3042 H3016 0.950 . S
C3042 C3038 1.385 . S
C3042 C3041 1.374 . S
C3043 C3040 1.499 . S
C3043 C3044 1.373 . S
C3043 C3045 1.389 . S
C3044 H3017 0.950 . S
C3044 C3030 1.377 1_565 S
C3044 C3043 1.373 . S
C3045 C3029 1.377 1_565 S
C3045 C3043 1.389 . S
C3045 C3046 1.524 . S
C3046 C3045 1.524 . S
C3046 C3047 1.397 . S
C3046 C3051 1.363 . S
C3047 H3018 0.950 . S
C3047 C3046 1.397 . S
C3047 C3048 1.334 . S
C3048 H3019 0.950 . S
C3048 C3047 1.334 . S
C3048 C3049 1.287 . S
C3049 C3048 1.287 . S
C3049 C3050 1.524 . S
C3049 H3052 0.999 . S
C3050 H3020 0.950 . S
C3050 C3049 1.524 . S
C3050 C3051 1.415 . S
C3051 H3021 0.950 . S
C3051 C3046 1.363 . S
C3051 C3050 1.415 . S
H3052 C3049 0.999 . S
H3053 C3034 0.913 . S
H3054 C3072 0.951 . S
H3055 C3074 0.951 . S
H3056 C3076 0.950 . S
H3057 C3077 0.950 . S
H3058 C3079 0.950 . S
H3059 C3082 0.950 . S
H3060 C3083 0.950 . S
H3061 C3085 0.950 . S
H3062 C3086 0.950 1_565 S
H3063 C3087 0.951 . S
H3064 C3089 0.951 . S
H3065 C3091 0.950 . S
H3066 C3092 0.950 . S
H3067 C3094 0.950 . S
H3068 C3097 0.950 . S
H3069 C3098 0.950 . S
H3070 C3100 0.950 . S
H3071 C3101 0.950 1_545 S
C3072 H3054 0.951 . S
C3072 C3073 1.366 . S
C3072 C3074 1.388 . S
C3073 C3072 1.366 . S
C3073 C3077 1.385 . S
C3074 H3055 0.951 . S
C3074 C3072 1.388 . S
C3074 C3075 1.366 . S
C3075 C3074 1.366 . S
C3075 C3076 1.414 . S
C3075 C3078 1.499 . S
C3076 H3056 0.950 . S
C3076 C3075 1.414 . S
C3076 C3077 1.374 . S
C3077 H3057 0.950 . S
C3077 C3073 1.385 . S
C3077 C3076 1.374 . S
C3078 C3075 1.499 . S
C3078 C3079 1.373 . S
C3078 C3080 1.389 . S
C3079 H3058 0.950 . S
C3079 C3078 1.373 . S
C3079 C3095 1.377 1_545 S
C3080 C3078 1.389 . S
C3080 C3081 1.524 . S
C3080 C3094 1.377 1_545 S
C3081 C3080 1.524 . S
C3081 C3082 1.397 . S
C3081 C3086 1.363 . S
C3082 H3059 0.950 . S
C3082 C3081 1.397 . S
C3082 C3083 1.334 . S
C3083 H3060 0.950 . S
C3083 C3082 1.334 . S
C3083 C3084 1.287 . S
C3084 C3083 1.287 . S
C3084 C3085 1.524 . S
C3084 H3103 0.913 . S
C3085 H3061 0.950 . S
C3085 C3084 1.524 . S
C3085 C3086 1.415 . S
C3086 H3062 0.950 1_545 S
C3086 C3081 1.363 . S
C3086 C3085 1.415 . S
C3087 H3063 0.951 . S
C3087 C3088 1.366 . S
C3087 C3089 1.388 . S
C3088 C3087 1.366 . S
C3088 C3092 1.385 . S
C3089 H3064 0.951 . S
C3089 C3087 1.388 . S
C3089 C3090 1.366 . S
C3090 C3089 1.366 . S
C3090 C3091 1.414 . S
C3090 C3093 1.499 . S
C3091 H3065 0.950 . S
C3091 C3090 1.414 . S
C3091 C3092 1.374 . S
C3092 H3066 0.950 . S
C3092 C3088 1.385 . S
C3092 C3091 1.374 . S
C3093 C3090 1.499 . S
C3093 C3094 1.373 . S
C3093 C3095 1.389 . S
C3094 H3067 0.950 . S
C3094 C3080 1.377 1_565 S
C3094 C3093 1.373 . S
C3095 C3079 1.377 1_565 S
C3095 C3093 1.389 . S
C3095 C3096 1.524 . S
C3096 C3095 1.524 . S
C3096 C3097 1.397 . S
C3096 C3101 1.363 . S
C3097 H3068 0.950 . S
C3097 C3096 1.397 . S
C3097 C3098 1.334 . S
C3098 H3069 0.950 . S
C3098 C3097 1.334 . S
C3098 C3099 1.287 . S
C3099 C3098 1.287 . S
C3099 C3100 1.524 . S
C3099 H3102 0.999 . S
C3100 H3070 0.950 . S
C3100 C3099 1.524 . S
C3100 C3101 1.415 . S
C3101 H3071 0.950 1_565 S
C3101 C3096 1.363 . S
C3101 C3100 1.415 . S
H3102 C3099 0.999 . S
H3103 C3084 0.913 . S
H3104 C3122 0.951 . S
H3105 C3124 0.951 . S
H3106 C3126 0.950 . S
H3107 C3127 0.950 . S
H3108 C3129 0.950 . S
H3109 C3132 0.950 . S
H3110 C3133 0.950 . S
H3111 C3135 0.979 . S
H3112 C3136 0.950 1_455 S
H3113 C3137 0.951 . S
H3114 C3139 0.951 . S
H3115 C3141 0.950 . S
H3116 C3142 0.950 . S
H3117 C3144 0.950 . S
H3118 C3147 0.950 . S
H3119 C3148 0.950 . S
H3120 C3150 0.981 . S
H3121 C3151 0.950 1_655 S
C3122 H3104 0.951 . S
C3122 C3123 1.366 . S
C3122 C3124 1.388 . S
C3123 C3122 1.366 . S
C3123 C3127 1.385 . S
C3124 H3105 0.951 . S
C3124 C3122 1.388 . S
C3124 C3125 1.366 . S
C3125 C3124 1.366 . S
C3125 C3126 1.414 . S
C3125 C3128 1.499 . S
C3126 H3106 0.950 . S
C3126 C3125 1.414 . S
C3126 C3127 1.374 . S
C3127 H3107 0.950 . S
C3127 C3123 1.385 . S
C3127 C3126 1.374 . S
C3128 C3125 1.499 . S
C3128 C3129 1.373 . S
C3128 C3130 1.389 . S
C3129 H3108 0.950 . S
C3129 C3128 1.373 . S
C3129 C3145 1.377 1_655 S
C3130 C3128 1.389 . S
C3130 C3131 1.524 . S
C3130 C3144 1.377 1_655 S
C3131 C3130 1.524 . S
C3131 C3132 1.397 . S
C3131 C3136 1.363 . S
C3132 H3109 0.950 . S
C3132 C3131 1.397 . S
C3132 C3133 1.334 . S
C3133 H3110 0.950 . S
C3133 C3132 1.334 . S
C3133 C3134 1.287 . S
C3134 C3133 1.287 . S
C3134 C3135 1.524 . S
C3134 H3153 0.913 . S
C3135 H3111 0.979 . S
C3135 C3134 1.524 . S
C3135 C3136 1.415 . S
C3136 H3112 0.950 1_655 S
C3136 C3131 1.363 . S
C3136 C3135 1.415 . S
C3137 H3113 0.951 . S
C3137 C3138 1.366 . S
C3137 C3139 1.388 . S
C3138 C3137 1.366 . S
C3138 C3142 1.385 . S
C3139 H3114 0.951 . S
C3139 C3137 1.388 . S
C3139 C3140 1.366 . S
C3140 C3139 1.366 . S
C3140 C3141 1.414 . S
C3140 C3143 1.499 . S
C3141 H3115 0.950 . S
C3141 C3140 1.414 . S
C3141 C3142 1.374 . S
C3142 H3116 0.950 . S
C3142 C3138 1.385 . S
C3142 C3141 1.374 . S
C3143 C3140 1.499 . S
C3143 C3144 1.373 . S
C3143 C3145 1.389 . S
C3144 H3117 0.950 . S
C3144 C3130 1.377 1_455 S
C3144 C3143 1.373 . S
C3145 C3129 1.377 1_455 S
C3145 C3143 1.389 . S
C3145 C3146 1.524 . S
C3146 C3145 1.524 . S
C3146 C3147 1.397 . S
C3146 C3151 1.363 . S
C3147 H3118 0.950 . S
C3147 C3146 1.397 . S
C3147 C3148 1.334 . S
C3148 H3119 0.950 . S
C3148 C3147 1.334 . S
C3148 C3149 1.287 . S
C3149 C3148 1.287 . S
C3149 C3150 1.524 . S
C3149 H3152 0.999 . S
C3150 H3120 0.981 . S
C3150 C3149 1.524 . S
C3150 C3151 1.415 . S
C3151 H3121 0.950 1_455 S
C3151 C3146 1.363 . S
C3151 C3150 1.415 . S
H3152 C3149 0.999 . S
H3153 C3134 0.913 . S
H3154 C3172 0.951 . S
H3155 C3174 0.951 . S
H3156 C3176 0.950 . S
H3157 C3177 0.950 . S
H3158 C3179 0.950 . S
H3159 C3182 0.950 . S
H3160 C3183 0.950 . S
H3161 C3185 0.950 . S
H3162 C3186 0.950 . S
H3163 C3187 0.951 . S
H3164 C3189 0.951 . S
H3165 C3191 0.950 . S
H3166 C3192 0.950 . S
H3167 C3194 0.950 . S
H3168 C3197 0.950 . S
H3169 C3198 0.950 . S
H3170 C3200 0.950 . S
H3171 C3201 0.950 . S
C3172 H3154 0.951 . S
C3172 C3173 1.366 . S
C3172 C3174 1.388 . S
C3173 C3172 1.366 . S
C3173 C3177 1.385 . S
C3174 H3155 0.951 . S
C3174 C3172 1.388 . S
C3174 C3175 1.366 . S
C3175 C3174 1.366 . S
C3175 C3176 1.414 . S
C3175 C3178 1.499 . S
C3176 H3156 0.950 . S
C3176 C3175 1.414 . S
C3176 C3177 1.374 . S
C3177 H3157 0.950 . S
C3177 C3173 1.385 . S
C3177 C3176 1.374 . S
C3178 C3175 1.499 . S
C3178 C3179 1.373 . S
C3178 C3180 1.389 . S
C3179 H3158 0.950 . S
C3179 C3178 1.373 . S
C3179 C3195 1.377 . S
C3180 C3178 1.389 . S
C3180 C3181 1.524 . S
C3180 C3194 1.377 . S
C3181 C3180 1.524 . S
C3181 C3182 1.397 . S
C3181 C3186 1.363 . S
C3182 H3159 0.950 . S
C3182 C3181 1.397 . S
C3182 C3183 1.334 . S
C3183 H3160 0.950 . S
C3183 C3182 1.334 . S
C3183 C3184 1.287 . S
C3184 C3183 1.287 . S
C3184 C3185 1.524 . S
C3184 H3203 0.913 . S
C3185 H3161 0.950 . S
C3185 C3184 1.524 . S
C3185 C3186 1.415 . S
C3186 H3162 0.950 . S
C3186 C3181 1.363 . S
C3186 C3185 1.415 . S
C3187 H3163 0.951 . S
C3187 C3188 1.366 . S
C3187 C3189 1.388 . S
C3188 C3187 1.366 . S
C3188 C3192 1.385 . S
C3189 H3164 0.951 . S
C3189 C3187 1.388 . S
C3189 C3190 1.366 . S
C3190 C3189 1.366 . S
C3190 C3191 1.414 . S
C3190 C3193 1.499 . S
C3191 H3165 0.950 . S
C3191 C3190 1.414 . S
C3191 C3192 1.374 . S
C3192 H3166 0.950 . S
C3192 C3188 1.385 . S
C3192 C3191 1.374 . S
C3193 C3190 1.499 . S
C3193 C3194 1.373 . S
C3193 C3195 1.389 . S
C3194 H3167 0.950 . S
C3194 C3180 1.377 . S
C3194 C3193 1.373 . S
C3195 C3179 1.377 . S
C3195 C3193 1.389 . S
C3195 C3196 1.524 . S
C3196 C3195 1.524 . S
C3196 C3197 1.397 . S
C3196 C3201 1.363 . S
C3197 H3168 0.950 . S
C3197 C3196 1.397 . S
C3197 C3198 1.334 . S
C3198 H3169 0.950 . S
C3198 C3197 1.334 . S
C3198 C3199 1.287 . S
C3199 C3198 1.287 . S
C3199 C3200 1.524 . S
C3199 H3202 0.999 . S
C3200 H3170 0.950 . S
C3200 C3199 1.524 . S
C3200 C3201 1.415 . S
C3201 H3171 0.950 . S
C3201 C3196 1.363 . S
C3201 C3200 1.415 . S
H3202 C3199 0.999 . S
H3203 C3184 0.913 . S
H3204 C3222 0.951 . S
H3205 C3224 0.951 . S
H3206 C3226 0.950 . S
H3207 C3227 0.950 . S
H3208 C3229 0.950 . S
H3209 C3232 0.950 . S
H3210 C3233 0.950 . S
H3211 C3235 0.950 . S
H3212 C3236 0.950 . S
H3213 C3237 0.951 . S
H3214 C3239 0.951 . S
H3215 C3241 0.950 . S
H3216 C3242 0.950 . S
H3217 C3244 0.950 . S
H3218 C3247 0.950 . S
H3219 C3248 0.950 . S
H3220 C3250 0.950 . S
H3221 C3251 0.950 . S
C3222 H3204 0.951 . S
C3222 C3223 1.366 . S
C3222 C3224 1.388 . S
C3223 C3222 1.366 . S
C3223 C3227 1.385 . S
C3224 H3205 0.951 . S
C3224 C3222 1.388 . S
C3224 C3225 1.366 . S
C3225 C3224 1.366 . S
C3225 C3226 1.414 . S
C3225 C3228 1.499 . S
C3226 H3206 0.950 . S
C3226 C3225 1.414 . S
C3226 C3227 1.374 . S
C3227 H3207 0.950 . S
C3227 C3223 1.385 . S
C3227 C3226 1.374 . S
C3228 C3225 1.499 . S
C3228 C3229 1.373 . S
C3228 C3230 1.389 . S
C3229 H3208 0.950 . S
C3229 C3228 1.373 . S
C3229 C3245 1.377 . S
C3230 C3228 1.389 . S
C3230 C3231 1.524 . S
C3230 C3244 1.377 . S
C3231 C3230 1.524 . S
C3231 C3232 1.397 . S
C3231 C3236 1.363 . S
C3232 H3209 0.950 . S
C3232 C3231 1.397 . S
C3232 C3233 1.334 . S
C3233 H3210 0.950 . S
C3233 C3232 1.334 . S
C3233 C3234 1.287 . S
C3234 C3233 1.287 . S
C3234 C3235 1.524 . S
C3234 H3253 0.913 . S
C3235 H3211 0.950 . S
C3235 C3234 1.524 . S
C3235 C3236 1.415 . S
C3236 H3212 0.950 . S
C3236 C3231 1.363 . S
C3236 C3235 1.415 . S
C3237 H3213 0.951 . S
C3237 C3238 1.366 . S
C3237 C3239 1.388 . S
C3238 C3237 1.366 . S
C3238 C3242 1.385 . S
C3239 H3214 0.951 . S
C3239 C3237 1.388 . S
C3239 C3240 1.366 . S
C3240 C3239 1.366 . S
C3240 C3241 1.414 . S
C3240 C3243 1.499 . S
C3241 H3215 0.950 . S
C3241 C3240 1.414 . S
C3241 C3242 1.374 . S
C3242 H3216 0.950 . S
C3242 C3238 1.385 . S
C3242 C3241 1.374 . S
C3243 C3240 1.499 . S
C3243 C3244 1.373 . S
C3243 C3245 1.389 . S
C3244 H3217 0.950 . S
C3244 C3230 1.377 . S
C3244 C3243 1.373 . S
C3245 C3229 1.377 . S
C3245 C3243 1.389 . S
C3245 C3246 1.524 . S
C3246 C3245 1.524 . S
C3246 C3247 1.397 . S
C3246 C3251 1.363 . S
C3247 H3218 0.950 . S
C3247 C3246 1.397 . S
C3247 C3248 1.334 . S
C3248 H3219 0.950 . S
C3248 C3247 1.334 . S
C3248 C3249 1.287 . S
C3249 C3248 1.287 . S
C3249 C3250 1.524 . S
C3249 H3252 0.999 . S
C3250 H3220 0.950 . S
C3250 C3249 1.524 . S
C3250 C3251 1.415 . S
C3251 H3221 0.950 . S
C3251 C3246 1.363 . S
C3251 C3250 1.415 . S
H3252 C3249 0.999 . S
H3253 C3234 0.913 . S
H3254 C3272 0.951 . S
H3255 C3274 0.951 . S
H3256 C3276 0.950 . S
H3257 C3277 0.950 . S
H3258 C3279 0.950 . S
H3259 C3282 0.950 . S
H3260 C3283 0.950 . S
H3261 C3285 0.950 . S
H3262 C3286 0.950 . S
H3263 C3287 0.951 . S
H3264 C3289 0.951 . S
H3265 C3291 0.950 . S
H3266 C3292 0.950 . S
H3267 C3294 0.950 . S
H3268 C3297 0.950 . S
H3269 C3298 0.950 . S
H3270 C3300 0.950 . S
H3271 C3301 0.950 . S
C3272 H3254 0.951 . S
C3272 C3273 1.366 . S
C3272 C3274 1.388 . S
C3273 C3272 1.366 . S
C3273 C3277 1.385 . S
C3274 H3255 0.951 . S
C3274 C3272 1.388 . S
C3274 C3275 1.366 . S
C3275 C3274 1.366 . S
C3275 C3276 1.414 . S
C3275 C3278 1.499 . S
C3276 H3256 0.950 . S
C3276 C3275 1.414 . S
C3276 C3277 1.374 . S
C3277 H3257 0.950 . S
C3277 C3273 1.385 . S
C3277 C3276 1.374 . S
C3278 C3275 1.499 . S
C3278 C3279 1.373 . S
C3278 C3280 1.389 . S
C3279 H3258 0.950 . S
C3279 C3278 1.373 . S
C3279 C3295 1.377 . S
C3280 C3278 1.389 . S
C3280 C3281 1.524 . S
C3280 C3294 1.377 . S
C3281 C3280 1.524 . S
C3281 C3282 1.397 . S
C3281 C3286 1.363 . S
C3282 H3259 0.950 . S
C3282 C3281 1.397 . S
C3282 C3283 1.334 . S
C3283 H3260 0.950 . S
C3283 C3282 1.334 . S
C3283 C3284 1.287 . S
C3284 C3283 1.287 . S
C3284 C3285 1.524 . S
C3284 H3303 0.913 . S
C3285 H3261 0.950 . S
C3285 C3284 1.524 . S
C3285 C3286 1.415 . S
C3286 H3262 0.950 . S
C3286 C3281 1.363 . S
C3286 C3285 1.415 . S
C3287 H3263 0.951 . S
C3287 C3288 1.366 . S
C3287 C3289 1.388 . S
C3288 C3287 1.366 . S
C3288 C3292 1.385 . S
C3289 H3264 0.951 . S
C3289 C3287 1.388 . S
C3289 C3290 1.366 . S
C3290 C3289 1.366 . S
C3290 C3291 1.414 . S
C3290 C3293 1.499 . S
C3291 H3265 0.950 . S
C3291 C3290 1.414 . S
C3291 C3292 1.374 . S
C3292 H3266 0.950 . S
C3292 C3288 1.385 . S
C3292 C3291 1.374 . S
C3293 C3290 1.499 . S
C3293 C3294 1.373 . S
C3293 C3295 1.389 . S
C3294 H3267 0.950 . S
C3294 C3280 1.377 . S
C3294 C3293 1.373 . S
C3295 C3279 1.377 . S
C3295 C3293 1.389 . S
C3295 C3296 1.524 . S
C3296 C3295 1.524 . S
C3296 C3297 1.397 . S
C3296 C3301 1.363 . S
C3297 H3268 0.950 . S
C3297 C3296 1.397 . S
C3297 C3298 1.334 . S
C3298 H3269 0.950 . S
C3298 C3297 1.334 . S
C3298 C3299 1.287 . S
C3299 C3298 1.287 . S
C3299 C3300 1.524 . S
C3299 H3302 0.999 . S
C3300 H3270 0.950 . S
C3300 C3299 1.524 . S
C3300 C3301 1.415 . S
C3301 H3271 0.950 . S
C3301 C3296 1.363 . S
C3301 C3300 1.415 . S
H3302 C3299 0.999 . S
H3303 C3284 0.913 . S
H3304 C3322 0.951 . S
H3305 C3324 0.951 . S
H3306 C3326 0.950 . S
H3307 C3327 0.950 . S
H3308 C3329 0.950 . S
H3309 C3332 0.950 . S
H3310 C3333 0.950 . S
H3311 C3335 0.950 . S
H3312 C3336 0.950 . S
H3313 C3337 0.951 . S
H3314 C3339 0.951 . S
H3315 C3341 0.950 . S
H3316 C3342 0.950 . S
H3317 C3344 0.950 . S
H3318 C3347 0.950 . S
H3319 C3348 0.950 . S
H3320 C3350 0.950 . S
H3321 C3351 0.950 . S
C3322 H3304 0.951 . S
C3322 C3323 1.366 . S
C3322 C3324 1.388 . S
C3323 C3322 1.366 . S
C3323 C3327 1.385 . S
C3324 H3305 0.951 . S
C3324 C3322 1.388 . S
C3324 C3325 1.366 . S
C3325 C3324 1.366 . S
C3325 C3326 1.414 . S
C3325 C3328 1.499 . S
C3326 H3306 0.950 . S
C3326 C3325 1.414 . S
C3326 C3327 1.374 . S
C3327 H3307 0.950 . S
C3327 C3323 1.385 . S
C3327 C3326 1.374 . S
C3328 C3325 1.499 . S
C3328 C3329 1.373 . S
C3328 C3330 1.389 . S
C3329 H3308 0.950 . S
C3329 C3328 1.373 . S
C3329 C3345 1.377 . S
C3330 C3328 1.389 . S
C3330 C3331 1.524 . S
C3330 C3344 1.377 . S
C3331 C3330 1.524 . S
C3331 C3332 1.397 . S
C3331 C3336 1.363 . S
C3332 H3309 0.950 . S
C3332 C3331 1.397 . S
C3332 C3333 1.334 . S
C3333 H3310 0.950 . S
C3333 C3332 1.334 . S
C3333 C3334 1.287 . S
C3334 C3333 1.287 . S
C3334 C3335 1.524 . S
C3334 H3353 0.913 . S
C3335 H3311 0.950 . S
C3335 C3334 1.524 . S
C3335 C3336 1.415 . S
C3336 H3312 0.950 . S
C3336 C3331 1.363 . S
C3336 C3335 1.415 . S
C3337 H3313 0.951 . S
C3337 C3338 1.366 . S
C3337 C3339 1.388 . S
C3338 C3337 1.366 . S
C3338 C3342 1.385 . S
C3339 H3314 0.951 . S
C3339 C3337 1.388 . S
C3339 C3340 1.366 . S
C3340 C3339 1.366 . S
C3340 C3341 1.414 . S
C3340 C3343 1.499 . S
C3341 H3315 0.950 . S
C3341 C3340 1.414 . S
C3341 C3342 1.374 . S
C3342 H3316 0.950 . S
C3342 C3338 1.385 . S
C3342 C3341 1.374 . S
C3343 C3340 1.499 . S
C3343 C3344 1.373 . S
C3343 C3345 1.389 . S
C3344 H3317 0.950 . S
C3344 C3330 1.377 . S
C3344 C3343 1.373 . S
C3345 C3329 1.377 . S
C3345 C3343 1.389 . S
C3345 C3346 1.524 . S
C3346 C3345 1.524 . S
C3346 C3347 1.397 . S
C3346 C3351 1.363 . S
C3347 H3318 0.950 . S
C3347 C3346 1.397 . S
C3347 C3348 1.334 . S
C3348 H3319 0.950 . S
C3348 C3347 1.334 . S
C3348 C3349 1.287 . S
C3349 C3348 1.287 . S
C3349 C3350 1.524 . S
C3349 H3352 0.999 . S
C3350 H3320 0.950 . S
C3350 C3349 1.524 . S
C3350 C3351 1.415 . S
C3351 H3321 0.950 . S
C3351 C3346 1.363 . S
C3351 C3350 1.415 . S
H3352 C3349 0.999 . S
H3353 C3334 0.913 . S
H3354 C3372 0.951 . S
H3355 C3374 0.951 . S
H3356 C3376 0.950 . S
H3357 C3377 0.950 . S
H3358 C3379 0.950 . S
H3359 C3382 0.950 . S
H3360 C3383 0.950 . S
H3361 C3385 0.950 . S
H3362 C3386 0.950 . S
H3363 C3387 0.951 . S
H3364 C3389 0.951 . S
H3365 C3391 0.950 . S
H3366 C3392 0.950 . S
H3367 C3394 0.950 . S
H3368 C3397 0.950 . S
H3369 C3398 0.950 . S
H3370 C3400 0.950 . S
H3371 C3401 0.950 . S
C3372 H3354 0.951 . S
C3372 C3373 1.366 . S
C3372 C3374 1.388 . S
C3373 C3372 1.366 . S
C3373 C3377 1.385 . S
C3374 H3355 0.951 . S
C3374 C3372 1.388 . S
C3374 C3375 1.366 . S
C3375 C3374 1.366 . S
C3375 C3376 1.414 . S
C3375 C3378 1.499 . S
C3376 H3356 0.950 . S
C3376 C3375 1.414 . S
C3376 C3377 1.374 . S
C3377 H3357 0.950 . S
C3377 C3373 1.385 . S
C3377 C3376 1.374 . S
C3378 C3375 1.499 . S
C3378 C3379 1.373 . S
C3378 C3380 1.389 . S
C3379 H3358 0.950 . S
C3379 C3378 1.373 . S
C3379 C3395 1.377 . S
C3380 C3378 1.389 . S
C3380 C3381 1.524 . S
C3380 C3394 1.377 . S
C3381 C3380 1.524 . S
C3381 C3382 1.397 . S
C3381 C3386 1.363 . S
C3382 H3359 0.950 . S
C3382 C3381 1.397 . S
C3382 C3383 1.334 . S
C3383 H3360 0.950 . S
C3383 C3382 1.334 . S
C3383 C3384 1.287 . S
C3384 C3383 1.287 . S
C3384 C3385 1.524 . S
C3384 H3403 0.913 . S
C3385 H3361 0.950 . S
C3385 C3384 1.524 . S
C3385 C3386 1.415 . S
C3386 H3362 0.950 . S
C3386 C3381 1.363 . S
C3386 C3385 1.415 . S
C3387 H3363 0.951 . S
C3387 C3388 1.366 . S
C3387 C3389 1.388 . S
C3388 C3387 1.366 . S
C3388 C3392 1.385 . S
C3389 H3364 0.951 . S
C3389 C3387 1.388 . S
C3389 C3390 1.366 . S
C3390 C3389 1.366 . S
C3390 C3391 1.414 . S
C3390 C3393 1.499 . S
C3391 H3365 0.950 . S
C3391 C3390 1.414 . S
C3391 C3392 1.374 . S
C3392 H3366 0.950 . S
C3392 C3388 1.385 . S
C3392 C3391 1.374 . S
C3393 C3390 1.499 . S
C3393 C3394 1.373 . S
C3393 C3395 1.389 . S
C3394 H3367 0.950 . S
C3394 C3380 1.377 . S
C3394 C3393 1.373 . S
C3395 C3379 1.377 . S
C3395 C3393 1.389 . S
C3395 C3396 1.524 . S
C3396 C3395 1.524 . S
C3396 C3397 1.397 . S
C3396 C3401 1.363 . S
C3397 H3368 0.950 . S
C3397 C3396 1.397 . S
C3397 C3398 1.334 . S
C3398 H3369 0.950 . S
C3398 C3397 1.334 . S
C3398 C3399 1.287 . S
C3399 C3398 1.287 . S
C3399 C3400 1.524 . S
C3399 H3402 0.999 . S
C3400 H3370 0.950 . S
C3400 C3399 1.524 . S
C3400 C3401 1.415 . S
C3401 H3371 0.950 . S
C3401 C3396 1.363 . S
C3401 C3400 1.415 . S
H3402 C3399 0.999 . S
H3403 C3384 0.913 . S
H3404 C3422 0.951 . S
H3405 C3424 0.951 . S
H3406 C3426 0.950 . S
H3407 C3427 0.950 . S
H3408 C3429 0.950 . S
H3409 C3432 0.950 . S
H3410 C3433 0.950 . S
H3411 C3435 0.950 . S
H3412 C3436 0.950 . S
H3413 C3437 0.951 . S
H3414 C3439 0.951 . S
H3415 C3441 0.950 . S
H3416 C3442 0.950 . S
H3417 C3444 0.950 . S
H3418 C3447 0.950 . S
H3419 C3448 0.950 . S
H3420 C3450 0.950 . S
H3421 C3451 0.950 . S
C3422 H3404 0.951 . S
C3422 C3423 1.366 . S
C3422 C3424 1.388 . S
C3423 C3422 1.366 . S
C3423 C3427 1.385 . S
C3424 H3405 0.951 . S
C3424 C3422 1.388 . S
C3424 C3425 1.366 . S
C3425 C3424 1.366 . S
C3425 C3426 1.414 . S
C3425 C3428 1.499 . S
C3426 H3406 0.950 . S
C3426 C3425 1.414 . S
C3426 C3427 1.374 . S
C3427 H3407 0.950 . S
C3427 C3423 1.385 . S
C3427 C3426 1.374 . S
C3428 C3425 1.499 . S
C3428 C3429 1.373 . S
C3428 C3430 1.389 . S
C3429 H3408 0.950 . S
C3429 C3428 1.373 . S
C3429 C3445 1.377 . S
C3430 C3428 1.389 . S
C3430 C3431 1.524 . S
C3430 C3444 1.377 . S
C3431 C3430 1.524 . S
C3431 C3432 1.397 . S
C3431 C3436 1.363 . S
C3432 H3409 0.950 . S
C3432 C3431 1.397 . S
C3432 C3433 1.334 . S
C3433 H3410 0.950 . S
C3433 C3432 1.334 . S
C3433 C3434 1.287 . S
C3434 C3433 1.287 . S
C3434 C3435 1.524 . S
C3434 H3453 0.913 . S
C3435 H3411 0.950 . S
C3435 C3434 1.524 . S
C3435 C3436 1.415 . S
C3436 H3412 0.950 . S
C3436 C3431 1.363 . S
C3436 C3435 1.415 . S
C3437 H3413 0.951 . S
C3437 C3438 1.366 . S
C3437 C3439 1.388 . S
C3438 C3437 1.366 . S
C3438 C3442 1.385 . S
C3439 H3414 0.951 . S
C3439 C3437 1.388 . S
C3439 C3440 1.366 . S
C3440 C3439 1.366 . S
C3440 C3441 1.414 . S
C3440 C3443 1.499 . S
C3441 H3415 0.950 . S
C3441 C3440 1.414 . S
C3441 C3442 1.374 . S
C3442 H3416 0.950 . S
C3442 C3438 1.385 . S
C3442 C3441 1.374 . S
C3443 C3440 1.499 . S
C3443 C3444 1.373 . S
C3443 C3445 1.389 . S
C3444 H3417 0.950 . S
C3444 C3430 1.377 . S
C3444 C3443 1.373 . S
C3445 C3429 1.377 . S
C3445 C3443 1.389 . S
C3445 C3446 1.524 . S
C3446 C3445 1.524 . S
C3446 C3447 1.397 . S
C3446 C3451 1.363 . S
C3447 H3418 0.950 . S
C3447 C3446 1.397 . S
C3447 C3448 1.334 . S
C3448 H3419 0.950 . S
C3448 C3447 1.334 . S
C3448 C3449 1.287 . S
C3449 C3448 1.287 . S
C3449 C3450 1.524 . S
C3449 H3452 0.999 . S
C3450 H3420 0.950 . S
C3450 C3449 1.524 . S
C3450 C3451 1.415 . S
C3451 H3421 0.950 . S
C3451 C3446 1.363 . S
C3451 C3450 1.415 . S
H3452 C3449 0.999 . S
H3453 C3434 0.913 . S
H3454 C3472 0.951 . S
H3455 C3474 0.951 . S
H3456 C3476 0.950 . S
H3457 C3477 0.950 . S
H3458 C3479 0.950 . S
H3459 C3482 0.950 . S
H3460 C3483 0.950 . S
H3461 C3485 0.950 . S
H3462 C3486 0.950 . S
H3463 C3487 0.951 . S
H3464 C3489 0.951 . S
H3465 C3491 0.950 . S
H3466 C3492 0.950 . S
H3467 C3494 0.950 . S
H3468 C3497 0.950 . S
H3469 C3498 0.950 . S
H3470 C3500 0.950 . S
H3471 C3501 0.950 . S
C3472 H3454 0.951 . S
C3472 C3473 1.366 . S
C3472 C3474 1.388 . S
C3473 C3472 1.366 . S
C3473 C3477 1.385 . S
C3474 H3455 0.951 . S
C3474 C3472 1.388 . S
C3474 C3475 1.366 . S
C3475 C3474 1.366 . S
C3475 C3476 1.414 . S
C3475 C3478 1.499 . S
C3476 H3456 0.950 . S
C3476 C3475 1.414 . S
C3476 C3477 1.374 . S
C3477 H3457 0.950 . S
C3477 C3473 1.385 . S
C3477 C3476 1.374 . S
C3478 C3475 1.499 . S
C3478 C3479 1.373 . S
C3478 C3480 1.389 . S
C3479 H3458 0.950 . S
C3479 C3478 1.373 . S
C3479 C3495 1.377 . S
C3480 C3478 1.389 . S
C3480 C3481 1.524 . S
C3480 C3494 1.377 . S
C3481 C3480 1.524 . S
C3481 C3482 1.397 . S
C3481 C3486 1.363 . S
C3482 H3459 0.950 . S
C3482 C3481 1.397 . S
C3482 C3483 1.334 . S
C3483 H3460 0.950 . S
C3483 C3482 1.334 . S
C3483 C3484 1.287 . S
C3484 C3483 1.287 . S
C3484 C3485 1.524 . S
C3484 H3503 0.913 . S
C3485 H3461 0.950 . S
C3485 C3484 1.524 . S
C3485 C3486 1.415 . S
C3486 H3462 0.950 . S
C3486 C3481 1.363 . S
C3486 C3485 1.415 . S
C3487 H3463 0.951 . S
C3487 C3488 1.366 . S
C3487 C3489 1.388 . S
C3488 C3487 1.366 . S
C3488 C3492 1.385 . S
C3489 H3464 0.951 . S
C3489 C3487 1.388 . S
C3489 C3490 1.366 . S
C3490 C3489 1.366 . S
C3490 C3491 1.414 . S
C3490 C3493 1.499 . S
C3491 H3465 0.950 . S
C3491 C3490 1.414 . S
C3491 C3492 1.374 . S
C3492 H3466 0.950 . S
C3492 C3488 1.385 . S
C3492 C3491 1.374 . S
C3493 C3490 1.499 . S
C3493 C3494 1.373 . S
C3493 C3495 1.389 . S
C3494 H3467 0.950 . S
C3494 C3480 1.377 . S
C3494 C3493 1.373 . S
C3495 C3479 1.377 . S
C3495 C3493 1.389 . S
C3495 C3496 1.524 . S
C3496 C3495 1.524 . S
C3496 C3497 1.397 . S
C3496 C3501 1.363 . S
C3497 H3468 0.950 . S
C3497 C3496 1.397 . S
C3497 C3498 1.334 . S
C3498 H3469 0.950 . S
C3498 C3497 1.334 . S
C3498 C3499 1.287 . S
C3499 C3498 1.287 . S
C3499 C3500 1.524 . S
C3499 H3502 0.999 . S
C3500 H3470 0.950 . S
C3500 C3499 1.524 . S
C3500 C3501 1.415 . S
C3501 H3471 0.950 . S
C3501 C3496 1.363 . S
C3501 C3500 1.415 . S
H3502 C3499 0.999 . S
H3503 C3484 0.913 . S
H3504 C3522 0.951 . S
H3505 C3524 0.951 . S
H3506 C3526 0.950 . S
H3507 C3527 0.950 . S
H3508 C3529 0.950 . S
H3509 C3532 0.950 . S
H3510 C3533 0.950 . S
H3511 C3535 0.950 . S
H3512 C3536 0.950 . S
H3513 C3537 0.951 . S
H3514 C3539 0.951 . S
H3515 C3541 0.950 . S
H3516 C3542 0.950 . S
H3517 C3544 0.950 . S
H3518 C3547 0.950 . S
H3519 C3548 0.950 . S
H3520 C3550 0.950 . S
H3521 C3551 0.950 . S
C3522 H3504 0.951 . S
C3522 C3523 1.366 . S
C3522 C3524 1.388 . S
C3523 C3522 1.366 . S
C3523 C3527 1.385 . S
C3524 H3505 0.951 . S
C3524 C3522 1.388 . S
C3524 C3525 1.366 . S
C3525 C3524 1.366 . S
C3525 C3526 1.414 . S
C3525 C3528 1.499 . S
C3526 H3506 0.950 . S
C3526 C3525 1.414 . S
C3526 C3527 1.374 . S
C3527 H3507 0.950 . S
C3527 C3523 1.385 . S
C3527 C3526 1.374 . S
C3528 C3525 1.499 . S
C3528 C3529 1.373 . S
C3528 C3530 1.389 . S
C3529 H3508 0.950 . S
C3529 C3528 1.373 . S
C3529 C3545 1.377 . S
C3530 C3528 1.389 . S
C3530 C3531 1.524 . S
C3530 C3544 1.377 . S
C3531 C3530 1.524 . S
C3531 C3532 1.397 . S
C3531 C3536 1.363 . S
C3532 H3509 0.950 . S
C3532 C3531 1.397 . S
C3532 C3533 1.334 . S
C3533 H3510 0.950 . S
C3533 C3532 1.334 . S
C3533 C3534 1.287 . S
C3534 C3533 1.287 . S
C3534 C3535 1.524 . S
C3534 H3553 0.913 . S
C3535 H3511 0.950 . S
C3535 C3534 1.524 . S
C3535 C3536 1.415 . S
C3536 H3512 0.950 . S
C3536 C3531 1.363 . S
C3536 C3535 1.415 . S
C3537 H3513 0.951 . S
C3537 C3538 1.366 . S
C3537 C3539 1.388 . S
C3538 C3537 1.366 . S
C3538 C3542 1.385 . S
C3539 H3514 0.951 . S
C3539 C3537 1.388 . S
C3539 C3540 1.366 . S
C3540 C3539 1.366 . S
C3540 C3541 1.414 . S
C3540 C3543 1.499 . S
C3541 H3515 0.950 . S
C3541 C3540 1.414 . S
C3541 C3542 1.374 . S
C3542 H3516 0.950 . S
C3542 C3538 1.385 . S
C3542 C3541 1.374 . S
C3543 C3540 1.499 . S
C3543 C3544 1.373 . S
C3543 C3545 1.389 . S
C3544 H3517 0.950 . S
C3544 C3530 1.377 . S
C3544 C3543 1.373 . S
C3545 C3529 1.377 . S
C3545 C3543 1.389 . S
C3545 C3546 1.524 . S
C3546 C3545 1.524 . S
C3546 C3547 1.397 . S
C3546 C3551 1.363 . S
C3547 H3518 0.950 . S
C3547 C3546 1.397 . S
C3547 C3548 1.334 . S
C3548 H3519 0.950 . S
C3548 C3547 1.334 . S
C3548 C3549 1.287 . S
C3549 C3548 1.287 . S
C3549 C3550 1.524 . S
C3549 H3552 0.999 . S
C3550 H3520 0.950 . S
C3550 C3549 1.524 . S
C3550 C3551 1.415 . S
C3551 H3521 0.950 . S
C3551 C3546 1.363 . S
C3551 C3550 1.415 . S
H3552 C3549 0.999 . S
H3553 C3534 0.913 . S
H3554 C3572 0.951 . S
H3555 C3574 0.951 . S
H3556 C3576 0.950 . S
H3557 C3577 0.950 . S
H3558 C3579 0.950 . S
H3559 C3582 0.950 . S
H3560 C3583 0.950 . S
H3561 C3585 0.950 . S
H3562 C3586 0.950 . S
H3563 C3587 0.951 . S
H3564 C3589 0.951 . S
H3565 C3591 0.950 . S
H3566 C3592 0.950 . S
H3567 C3594 0.950 . S
H3568 C3597 0.950 . S
H3569 C3598 0.950 . S
H3570 C3600 0.950 . S
H3571 C3601 0.950 . S
C3572 H3554 0.951 . S
C3572 C3573 1.366 . S
C3572 C3574 1.388 . S
C3573 C3572 1.366 . S
C3573 C3577 1.385 . S
C3574 H3555 0.951 . S
C3574 C3572 1.388 . S
C3574 C3575 1.366 . S
C3575 C3574 1.366 . S
C3575 C3576 1.414 . S
C3575 C3578 1.499 . S
C3576 H3556 0.950 . S
C3576 C3575 1.414 . S
C3576 C3577 1.374 . S
C3577 H3557 0.950 . S
C3577 C3573 1.385 . S
C3577 C3576 1.374 . S
C3578 C3575 1.499 . S
C3578 C3579 1.373 . S
C3578 C3580 1.389 . S
C3579 H3558 0.950 . S
C3579 C3578 1.373 . S
C3579 C3595 1.377 . S
C3580 C3578 1.389 . S
C3580 C3581 1.524 . S
C3580 C3594 1.377 . S
C3581 C3580 1.524 . S
C3581 C3582 1.397 . S
C3581 C3586 1.363 . S
C3582 H3559 0.950 . S
C3582 C3581 1.397 . S
C3582 C3583 1.334 . S
C3583 H3560 0.950 . S
C3583 C3582 1.334 . S
C3583 C3584 1.287 . S
C3584 C3583 1.287 . S
C3584 C3585 1.524 . S
C3584 H3603 0.913 . S
C3585 H3561 0.950 . S
C3585 C3584 1.524 . S
C3585 C3586 1.415 . S
C3586 H3562 0.950 . S
C3586 C3581 1.363 . S
C3586 C3585 1.415 . S
C3587 H3563 0.951 . S
C3587 C3588 1.366 . S
C3587 C3589 1.388 . S
C3588 C3587 1.366 . S
C3588 C3592 1.385 . S
C3589 H3564 0.951 . S
C3589 C3587 1.388 . S
C3589 C3590 1.366 . S
C3590 C3589 1.366 . S
C3590 C3591 1.414 . S
C3590 C3593 1.499 . S
C3591 H3565 0.950 . S
C3591 C3590 1.414 . S
C3591 C3592 1.374 . S
C3592 H3566 0.950 . S
C3592 C3588 1.385 . S
C3592 C3591 1.374 . S
C3593 C3590 1.499 . S
C3593 C3594 1.373 . S
C3593 C3595 1.389 . S
C3594 H3567 0.950 . S
C3594 C3580 1.377 . S
C3594 C3593 1.373 . S
C3595 C3579 1.377 . S
C3595 C3593 1.389 . S
C3595 C3596 1.524 . S
C3596 C3595 1.524 . S
C3596 C3597 1.397 . S
C3596 C3601 1.363 . S
C3597 H3568 0.950 . S
C3597 C3596 1.397 . S
C3597 C3598 1.334 . S
C3598 H3569 0.950 . S
C3598 C3597 1.334 . S
C3598 C3599 1.287 . S
C3599 C3598 1.287 . S
C3599 C3600 1.524 . S
C3599 H3602 0.999 . S
C3600 H3570 0.950 . S
C3600 C3599 1.524 . S
C3600 C3601 1.415 . S
C3601 H3571 0.950 . S
C3601 C3596 1.363 . S
C3601 C3600 1.415 . S
H3602 C3599 0.999 . S
H3603 C3584 0.913 . S
H3604 C3622 0.951 . S
H3605 C3624 0.951 . S
H3606 C3626 0.950 . S
H3607 C3627 0.950 . S
H3608 C3629 0.950 . S
H3609 C3632 0.950 . S
H3610 C3633 0.950 . S
H3611 C3635 0.950 . S
H3612 C3636 0.950 . S
H3613 C3637 0.951 . S
H3614 C3639 0.951 . S
H3615 C3641 0.950 . S
H3616 C3642 0.950 . S
H3617 C3644 0.950 . S
H3618 C3647 0.950 . S
H3619 C3648 0.950 . S
H3620 C3650 0.950 . S
H3621 C3651 0.950 . S
C3622 H3604 0.951 . S
C3622 C3623 1.366 . S
C3622 C3624 1.388 . S
C3623 C3622 1.366 . S
C3623 C3627 1.385 . S
C3624 H3605 0.951 . S
C3624 C3622 1.388 . S
C3624 C3625 1.366 . S
C3625 C3624 1.366 . S
C3625 C3626 1.414 . S
C3625 C3628 1.499 . S
C3626 H3606 0.950 . S
C3626 C3625 1.414 . S
C3626 C3627 1.374 . S
C3627 H3607 0.950 . S
C3627 C3623 1.385 . S
C3627 C3626 1.374 . S
C3628 C3625 1.499 . S
C3628 C3629 1.373 . S
C3628 C3630 1.389 . S
C3629 H3608 0.950 . S
C3629 C3628 1.373 . S
C3629 C3645 1.377 . S
C3630 C3628 1.389 . S
C3630 C3631 1.524 . S
C3630 C3644 1.377 . S
C3631 C3630 1.524 . S
C3631 C3632 1.397 . S
C3631 C3636 1.363 . S
C3632 H3609 0.950 . S
C3632 C3631 1.397 . S
C3632 C3633 1.334 . S
C3633 H3610 0.950 . S
C3633 C3632 1.334 . S
C3633 C3634 1.287 . S
C3634 C3633 1.287 . S
C3634 C3635 1.524 . S
C3634 H3653 0.913 . S
C3635 H3611 0.950 . S
C3635 C3634 1.524 . S
C3635 C3636 1.415 . S
C3636 H3612 0.950 . S
C3636 C3631 1.363 . S
C3636 C3635 1.415 . S
C3637 H3613 0.951 . S
C3637 C3638 1.366 . S
C3637 C3639 1.388 . S
C3638 C3637 1.366 . S
C3638 C3642 1.385 . S
C3639 H3614 0.951 . S
C3639 C3637 1.388 . S
C3639 C3640 1.366 . S
C3640 C3639 1.366 . S
C3640 C3641 1.414 . S
C3640 C3643 1.499 . S
C3641 H3615 0.950 . S
C3641 C3640 1.414 . S
C3641 C3642 1.374 . S
C3642 H3616 0.950 . S
C3642 C3638 1.385 . S
C3642 C3641 1.374 . S
C3643 C3640 1.499 . S
C3643 C3644 1.373 . S
C3643 C3645 1.389 . S
C3644 H3617 0.950 . S
C3644 C3630 1.377 . S
C3644 C3643 1.373 . S
C3645 C3629 1.377 . S
C3645 C3643 1.389 . S
C3645 C3646 1.524 . S
C3646 C3645 1.524 . S
C3646 C3647 1.397 . S
C3646 C3651 1.363 . S
C3647 H3618 0.950 . S
C3647 C3646 1.397 . S
C3647 C3648 1.334 . S
C3648 H3619 0.950 . S
C3648 C3647 1.334 . S
C3648 C3649 1.287 . S
C3649 C3648 1.287 . S
C3649 C3650 1.524 . S
C3649 H3652 0.999 . S
C3650 H3620 0.950 . S
C3650 C3649 1.524 . S
C3650 C3651 1.415 . S
C3651 H3621 0.950 . S
C3651 C3646 1.363 . S
C3651 C3650 1.415 . S
H3652 C3649 0.999 . S
H3653 C3634 0.913 . S
H3654 C3672 0.951 . S
H3655 C3674 0.951 . S
H3656 C3676 0.950 . S
H3657 C3677 0.950 . S
H3658 C3679 0.950 . S
H3659 C3682 0.950 . S
H3660 C3683 0.950 . S
H3661 C3685 0.950 . S
H3662 C3686 0.950 . S
H3663 C3687 0.951 . S
H3664 C3689 0.951 . S
H3665 C3691 0.950 . S
H3666 C3692 0.950 . S
H3667 C3694 0.950 . S
H3668 C3697 0.950 . S
H3669 C3698 0.950 . S
H3670 C3700 0.950 . S
H3671 C3701 0.950 1_556 S
C3672 H3654 0.951 . S
C3672 C3673 1.366 . S
C3672 C3674 1.388 . S
C3673 C3672 1.366 . S
C3673 C3677 1.385 . S
C3674 H3655 0.951 . S
C3674 C3672 1.388 . S
C3674 C3675 1.366 . S
C3675 C3674 1.366 . S
C3675 C3676 1.414 . S
C3675 C3678 1.499 . S
C3676 H3656 0.950 . S
C3676 C3675 1.414 . S
C3676 C3677 1.374 . S
C3677 H3657 0.950 . S
C3677 C3673 1.385 . S
C3677 C3676 1.374 . S
C3678 C3675 1.499 . S
C3678 C3679 1.373 . S
C3678 C3680 1.389 . S
C3679 H3658 0.950 . S
C3679 C3678 1.373 . S
C3679 C3695 1.377 . S
C3680 C3678 1.389 . S
C3680 C3681 1.524 . S
C3680 C3694 1.377 . S
C3681 C3680 1.524 . S
C3681 C3682 1.397 . S
C3681 C3686 1.363 . S
C3682 H3659 0.950 . S
C3682 C3681 1.397 . S
C3682 C3683 1.334 . S
C3683 H3660 0.950 . S
C3683 C3682 1.334 . S
C3683 C3684 1.287 . S
C3684 C3683 1.287 . S
C3684 C3685 1.524 . S
C3684 H3703 0.913 . S
C3685 H3661 0.950 . S
C3685 C3684 1.524 . S
C3685 C3686 1.415 . S
C3686 H3662 0.950 . S
C3686 C3681 1.363 . S
C3686 C3685 1.415 . S
C3687 H3663 0.951 . S
C3687 C3688 1.366 . S
C3687 C3689 1.388 . S
C3688 C3687 1.366 . S
C3688 C3692 1.385 . S
C3689 H3664 0.951 . S
C3689 C3687 1.388 . S
C3689 C3690 1.366 . S
C3690 C3689 1.366 . S
C3690 C3691 1.414 . S
C3690 C3693 1.499 . S
C3691 H3665 0.950 . S
C3691 C3690 1.414 . S
C3691 C3692 1.374 . S
C3692 H3666 0.950 . S
C3692 C3688 1.385 . S
C3692 C3691 1.374 . S
C3693 C3690 1.499 . S
C3693 C3694 1.373 . S
C3693 C3695 1.389 . S
C3694 H3667 0.950 . S
C3694 C3680 1.377 . S
C3694 C3693 1.373 . S
C3695 C3679 1.377 . S
C3695 C3693 1.389 . S
C3695 C3696 1.524 . S
C3696 C3695 1.524 . S
C3696 C3697 1.397 . S
C3696 C3701 1.363 . S
C3697 H3668 0.950 . S
C3697 C3696 1.397 . S
C3697 C3698 1.334 . S
C3698 H3669 0.950 . S
C3698 C3697 1.334 . S
C3698 C3699 1.287 . S
C3699 C3698 1.287 . S
C3699 C3700 1.524 1_554 S
C3699 H3702 0.999 . S
C3700 H3670 0.950 . S
C3700 C3699 1.524 1_556 S
C3700 C3701 1.415 1_556 S
C3701 H3671 0.950 1_554 S
C3701 C3696 1.363 . S
C3701 C3700 1.415 1_554 S
H3702 C3699 0.999 . S
H3703 C3684 0.913 . S
H3704 C3722 0.951 . S
H3705 C3724 0.951 . S
H3706 C3726 0.950 . S
H3707 C3727 0.950 . S
H3708 C3729 0.950 . S
H3709 C3732 0.950 . S
H3710 C3733 0.950 . S
H3711 C3735 0.950 . S
H3712 C3736 0.950 . S
H3713 C3737 0.951 . S
H3714 C3739 0.951 . S
H3715 C3741 0.950 . S
H3716 C3742 0.950 . S
H3717 C3744 0.950 . S
H3718 C3747 0.950 . S
H3719 C3748 0.950 . S
H3720 C3750 0.950 . S
H3721 C3751 0.950 . S
C3722 H3704 0.951 . S
C3722 C3723 1.366 . S
C3722 C3724 1.388 . S
C3723 C3722 1.366 . S
C3723 C3727 1.385 . S
C3724 H3705 0.951 . S
C3724 C3722 1.388 . S
C3724 C3725 1.366 . S
C3725 C3724 1.366 . S
C3725 C3726 1.414 . S
C3725 C3728 1.499 . S
C3726 H3706 0.950 . S
C3726 C3725 1.414 . S
C3726 C3727 1.374 . S
C3727 H3707 0.950 . S
C3727 C3723 1.385 . S
C3727 C3726 1.374 . S
C3728 C3725 1.499 . S
C3728 C3729 1.373 . S
C3728 C3730 1.389 . S
C3729 H3708 0.950 . S
C3729 C3728 1.373 . S
C3729 C3745 1.377 . S
C3730 C3728 1.389 . S
C3730 C3731 1.524 . S
C3730 C3744 1.377 . S
C3731 C3730 1.524 . S
C3731 C3732 1.397 . S
C3731 C3736 1.363 . S
C3732 H3709 0.950 . S
C3732 C3731 1.397 . S
C3732 C3733 1.334 . S
C3733 H3710 0.950 . S
C3733 C3732 1.334 . S
C3733 C3734 1.287 . S
C3734 C3733 1.287 . S
C3734 C3735 1.524 . S
C3734 H3753 0.913 . S
C3735 H3711 0.950 . S
C3735 C3734 1.524 . S
C3735 C3736 1.415 . S
C3736 H3712 0.950 . S
C3736 C3731 1.363 . S
C3736 C3735 1.415 . S
C3737 H3713 0.951 . S
C3737 C3738 1.366 . S
C3737 C3739 1.388 . S
C3738 C3737 1.366 . S
C3738 C3742 1.385 . S
C3739 H3714 0.951 . S
C3739 C3737 1.388 . S
C3739 C3740 1.366 . S
C3740 C3739 1.366 . S
C3740 C3741 1.414 . S
C3740 C3743 1.499 . S
C3741 H3715 0.950 . S
C3741 C3740 1.414 . S
C3741 C3742 1.374 . S
C3742 H3716 0.950 . S
C3742 C3738 1.385 . S
C3742 C3741 1.374 . S
C3743 C3740 1.499 . S
C3743 C3744 1.373 . S
C3743 C3745 1.389 . S
C3744 H3717 0.950 . S
C3744 C3730 1.377 . S
C3744 C3743 1.373 . S
C3745 C3729 1.377 . S
C3745 C3743 1.389 . S
C3745 C3746 1.524 1_554 S
C3746 C3745 1.524 1_556 S
C3746 C3747 1.397 . S
C3746 C3751 1.363 . S
C3747 H3718 0.950 . S
C3747 C3746 1.397 . S
C3747 C3748 1.334 . S
C3748 H3719 0.950 . S
C3748 C3747 1.334 . S
C3748 C3749 1.287 . S
C3749 C3748 1.287 . S
C3749 C3750 1.524 . S
C3749 H3752 0.999 . S
C3750 H3720 0.950 . S
C3750 C3749 1.524 . S
C3750 C3751 1.415 . S
C3751 H3721 0.950 . S
C3751 C3746 1.363 . S
C3751 C3750 1.415 . S
H3752 C3749 0.999 . S
H3753 C3734 0.913 . S
H3754 C3772 0.951 . S
H3755 C3774 0.951 . S
H3756 C3776 0.950 . S
H3757 C3777 0.950 . S
H3758 C3779 0.950 . S
H3759 C3782 0.950 . S
H3760 C3783 0.950 . S
H3761 C3785 0.950 . S
H3762 C3786 0.950 . S
H3763 C3787 0.951 . S
H3764 C3789 0.951 . S
H3765 C3791 0.950 . S
H3766 C3792 0.950 . S
H3767 C3794 0.950 . S
H3768 C3797 0.950 . S
H3769 C3798 0.950 . S
H3770 C3800 0.950 . S
H3771 C3801 0.950 . S
C3772 H3754 0.951 . S
C3772 C3773 1.366 . S
C3772 C3774 1.388 . S
C3773 C3772 1.366 . S
C3773 C3777 1.385 . S
C3774 H3755 0.951 . S
C3774 C3772 1.388 . S
C3774 C3775 1.366 . S
C3775 C3774 1.366 . S
C3775 C3776 1.414 . S
C3775 C3778 1.499 . S
C3776 H3756 0.950 . S
C3776 C3775 1.414 . S
C3776 C3777 1.374 . S
C3777 H3757 0.950 . S
C3777 C3773 1.385 . S
C3777 C3776 1.374 . S
C3778 C3775 1.499 . S
C3778 C3779 1.373 . S
C3778 C3780 1.389 . S
C3779 H3758 0.950 . S
C3779 C3778 1.373 . S
C3779 C3795 1.377 . S
C3780 C3778 1.389 . S
C3780 C3781 1.524 . S
C3780 C3794 1.377 . S
C3781 C3780 1.524 . S
C3781 C3782 1.397 1_554 S
C3781 C3786 1.363 . S
C3782 H3759 0.950 . S
C3782 C3781 1.397 1_556 S
C3782 C3783 1.334 . S
C3783 H3760 0.950 . S
C3783 C3782 1.334 . S
C3783 C3784 1.287 . S
C3784 C3783 1.287 . S
C3784 C3785 1.524 1_556 S
C3784 H3803 0.913 . S
C3785 H3761 0.950 . S
C3785 C3784 1.524 1_554 S
C3785 C3786 1.415 . S
C3786 H3762 0.950 . S
C3786 C3781 1.363 . S
C3786 C3785 1.415 . S
C3787 H3763 0.951 . S
C3787 C3788 1.366 . S
C3787 C3789 1.388 . S
C3788 C3787 1.366 . S
C3788 C3792 1.385 . S
C3789 H3764 0.951 . S
C3789 C3787 1.388 . S
C3789 C3790 1.366 . S
C3790 C3789 1.366 . S
C3790 C3791 1.414 . S
C3790 C3793 1.499 . S
C3791 H3765 0.950 . S
C3791 C3790 1.414 . S
C3791 C3792 1.374 . S
C3792 H3766 0.950 . S
C3792 C3788 1.385 . S
C3792 C3791 1.374 . S
C3793 C3790 1.499 . S
C3793 C3794 1.373 . S
C3793 C3795 1.389 . S
C3794 H3767 0.950 . S
C3794 C3780 1.377 . S
C3794 C3793 1.373 . S
C3795 C3779 1.377 . S
C3795 C3793 1.389 . S
C3795 C3796 1.524 . S
C3796 C3795 1.524 . S
C3796 C3797 1.397 . S
C3796 C3801 1.363 . S
C3797 H3768 0.950 . S
C3797 C3796 1.397 . S
C3797 C3798 1.334 . S
C3798 H3769 0.950 . S
C3798 C3797 1.334 . S
C3798 C3799 1.287 . S
C3799 C3798 1.287 . S
C3799 C3800 1.524 . S
C3799 H3802 0.999 . S
C3800 H3770 0.950 . S
C3800 C3799 1.524 . S
C3800 C3801 1.415 . S
C3801 H3771 0.950 . S
C3801 C3796 1.363 . S
C3801 C3800 1.415 . S
H3802 C3799 0.999 . S
H3803 C3784 0.913 . S
H3804 C3822 0.951 . S
H3805 C3824 0.951 . S
H3806 C3826 0.950 . S
H3807 C3827 0.950 . S
H3808 C3829 0.950 . S
H3809 C3832 0.950 . S
H3810 C3833 0.950 . S
H3811 C3835 0.950 . S
H3812 C3836 0.950 . S
H3813 C3837 0.951 . S
H3814 C3839 0.951 . S
H3815 C3841 0.950 . S
H3816 C3842 0.950 . S
H3817 C3844 0.950 . S
H3818 C3847 0.950 . S
H3819 C3848 0.950 . S
H3820 C3850 0.950 . S
H3821 C3851 0.950 . S
C3822 H3804 0.951 . S
C3822 C3823 1.366 . S
C3822 C3824 1.388 . S
C3823 C3822 1.366 . S
C3823 C3827 1.385 . S
C3824 H3805 0.951 . S
C3824 C3822 1.388 . S
C3824 C3825 1.366 . S
C3825 C3824 1.366 . S
C3825 C3826 1.414 . S
C3825 C3828 1.499 . S
C3826 H3806 0.950 . S
C3826 C3825 1.414 . S
C3826 C3827 1.374 . S
C3827 H3807 0.950 . S
C3827 C3823 1.385 . S
C3827 C3826 1.374 . S
C3828 C3825 1.499 . S
C3828 C3829 1.373 . S
C3828 C3830 1.389 . S
C3829 H3808 0.950 . S
C3829 C3828 1.373 . S
C3829 C3845 1.377 . S
C3830 C3828 1.389 . S
C3830 C3831 1.524 . S
C3830 C3844 1.377 . S
C3831 C3830 1.524 . S
C3831 C3832 1.397 . S
C3831 C3836 1.363 . S
C3832 H3809 0.950 . S
C3832 C3831 1.397 . S
C3832 C3833 1.334 . S
C3833 H3810 0.950 . S
C3833 C3832 1.334 . S
C3833 C3834 1.287 . S
C3834 C3833 1.287 . S
C3834 C3835 1.524 . S
C3834 H3853 0.913 . S
C3835 H3811 0.950 . S
C3835 C3834 1.524 . S
C3835 C3836 1.415 . S
C3836 H3812 0.950 . S
C3836 C3831 1.363 . S
C3836 C3835 1.415 . S
C3837 H3813 0.951 . S
C3837 C3838 1.366 . S
C3837 C3839 1.388 . S
C3838 C3837 1.366 . S
C3838 C3842 1.385 . S
C3839 H3814 0.951 . S
C3839 C3837 1.388 . S
C3839 C3840 1.366 . S
C3840 C3839 1.366 . S
C3840 C3841 1.414 . S
C3840 C3843 1.499 . S
C3841 H3815 0.950 . S
C3841 C3840 1.414 . S
C3841 C3842 1.374 . S
C3842 H3816 0.950 . S
C3842 C3838 1.385 . S
C3842 C3841 1.374 . S
C3843 C3840 1.499 . S
C3843 C3844 1.373 . S
C3843 C3845 1.389 . S
C3844 H3817 0.950 . S
C3844 C3830 1.377 . S
C3844 C3843 1.373 . S
C3845 C3829 1.377 . S
C3845 C3843 1.389 . S
C3845 C3846 1.524 . S
C3846 C3845 1.524 . S
C3846 C3847 1.397 1_556 S
C3846 C3851 1.363 . S
C3847 H3818 0.950 . S
C3847 C3846 1.397 1_554 S
C3847 C3848 1.334 . S
C3848 H3819 0.950 . S
C3848 C3847 1.334 . S
C3848 C3849 1.287 . S
C3849 C3848 1.287 . S
C3849 C3850 1.524 1_554 S
C3849 H3852 0.999 . S
C3850 H3820 0.950 . S
C3850 C3849 1.524 1_556 S
C3850 C3851 1.415 . S
C3851 H3821 0.950 . S
C3851 C3846 1.363 . S
C3851 C3850 1.415 . S
H3852 C3849 0.999 . S
H3853 C3834 0.913 . S
H3854 C3872 0.951 . S
H3855 C3874 0.951 . S
H3856 C3876 0.950 . S
H3857 C3877 0.950 . S
H3858 C3879 0.950 . S
H3859 C3882 0.950 . S
H3860 C3883 0.950 . S
H3861 C3885 0.950 . S
H3862 C3886 0.950 . S
H3863 C3887 0.951 . S
H3864 C3889 0.951 . S
H3865 C3891 0.950 . S
H3866 C3892 0.950 . S
H3867 C3894 0.950 . S
H3868 C3897 0.950 . S
H3869 C3898 0.950 . S
H3870 C3900 0.950 . S
H3871 C3901 0.950 . S
C3872 H3854 0.951 . S
C3872 C3873 1.366 . S
C3872 C3874 1.388 . S
C3873 C3872 1.366 . S
C3873 C3877 1.385 . S
C3874 H3855 0.951 . S
C3874 C3872 1.388 . S
C3874 C3875 1.366 . S
C3875 C3874 1.366 . S
C3875 C3876 1.414 . S
C3875 C3878 1.499 . S
C3876 H3856 0.950 . S
C3876 C3875 1.414 . S
C3876 C3877 1.374 . S
C3877 H3857 0.950 . S
C3877 C3873 1.385 . S
C3877 C3876 1.374 . S
C3878 C3875 1.499 . S
C3878 C3879 1.373 . S
C3878 C3880 1.389 . S
C3879 H3858 0.950 . S
C3879 C3878 1.373 . S
C3879 C3895 1.377 . S
C3880 C3878 1.389 . S
C3880 C3881 1.524 1_556 S
C3880 C3894 1.377 . S
C3881 C3880 1.524 1_554 S
C3881 C3882 1.397 . S
C3881 C3886 1.363 . S
C3882 H3859 0.950 . S
C3882 C3881 1.397 . S
C3882 C3883 1.334 . S
C3883 H3860 0.950 . S
C3883 C3882 1.334 . S
C3883 C3884 1.287 . S
C3884 C3883 1.287 . S
C3884 C3885 1.524 . S
C3884 H3903 0.913 . S
C3885 H3861 0.950 . S
C3885 C3884 1.524 . S
C3885 C3886 1.415 . S
C3886 H3862 0.950 . S
C3886 C3881 1.363 . S
C3886 C3885 1.415 . S
C3887 H3863 0.951 . S
C3887 C3888 1.366 . S
C3887 C3889 1.388 . S
C3888 C3887 1.366 . S
C3888 C3892 1.385 . S
C3889 H3864 0.951 . S
C3889 C3887 1.388 . S
C3889 C3890 1.366 . S
C3890 C3889 1.366 . S
C3890 C3891 1.414 . S
C3890 C3893 1.499 . S
C3891 H3865 0.950 . S
C3891 C3890 1.414 . S
C3891 C3892 1.374 . S
C3892 H3866 0.950 . S
C3892 C3888 1.385 . S
C3892 C3891 1.374 . S
C3893 C3890 1.499 . S
C3893 C3894 1.373 . S
C3893 C3895 1.389 . S
C3894 H3867 0.950 . S
C3894 C3880 1.377 . S
C3894 C3893 1.373 . S
C3895 C3879 1.377 . S
C3895 C3893 1.389 . S
C3895 C3896 1.524 . S
C3896 C3895 1.524 . S
C3896 C3897 1.397 . S
C3896 C3901 1.363 . S
C3897 H3868 0.950 . S
C3897 C3896 1.397 . S
C3897 C3898 1.334 . S
C3898 H3869 0.950 . S
C3898 C3897 1.334 . S
C3898 C3899 1.287 . S
C3899 C3898 1.287 . S
C3899 C3900 1.524 . S
C3899 H3902 0.999 . S
C3900 H3870 0.950 . S
C3900 C3899 1.524 . S
C3900 C3901 1.415 . S
C3901 H3871 0.950 . S
C3901 C3896 1.363 . S
C3901 C3900 1.415 . S
H3902 C3899 0.999 . S
H3903 C3884 0.913 . S
H3904 C3922 0.951 . S
H3905 C3924 0.951 . S
H3906 C3926 0.950 . S
H3907 C3927 0.950 . S
H3908 C3929 0.950 . S
H3909 C3932 0.950 1_556 S
H3910 C3933 0.950 . S
H3911 C3935 0.950 . S
H3912 C3936 0.950 . S
H3913 C3937 0.951 . S
H3914 C3939 0.951 . S
H3915 C3941 0.950 . S
H3916 C3942 0.950 . S
H3917 C3944 0.950 . S
H3918 C3947 0.950 . S
H3919 C3948 0.950 . S
H3920 C3950 0.950 . S
H3921 C3951 0.950 . S
C3922 H3904 0.951 . S
C3922 C3923 1.366 . S
C3922 C3924 1.388 . S
C3923 C3922 1.366 . S
C3923 C3927 1.385 . S
C3924 H3905 0.951 . S
C3924 C3922 1.388 . S
C3924 C3925 1.366 . S
C3925 C3924 1.366 . S
C3925 C3926 1.414 . S
C3925 C3928 1.499 . S
C3926 H3906 0.950 . S
C3926 C3925 1.414 . S
C3926 C3927 1.374 . S
C3927 H3907 0.950 . S
C3927 C3923 1.385 . S
C3927 C3926 1.374 . S
C3928 C3925 1.499 . S
C3928 C3929 1.373 . S
C3928 C3930 1.389 . S
C3929 H3908 0.950 . S
C3929 C3928 1.373 . S
C3929 C3945 1.377 . S
C3930 C3928 1.389 . S
C3930 C3931 1.524 1_556 S
C3930 C3944 1.377 . S
C3931 C3930 1.524 1_554 S
C3931 C3932 1.397 . S
C3931 C3936 1.363 . S
C3932 H3909 0.950 1_554 S
C3932 C3931 1.397 . S
C3932 C3933 1.334 . S
C3933 H3910 0.950 . S
C3933 C3932 1.334 . S
C3933 C3934 1.287 . S
C3934 C3933 1.287 . S
C3934 C3935 1.524 . S
C3934 H3953 0.913 . S
C3935 H3911 0.950 . S
C3935 C3934 1.524 . S
C3935 C3936 1.415 . S
C3936 H3912 0.950 . S
C3936 C3931 1.363 . S
C3936 C3935 1.415 . S
C3937 H3913 0.951 . S
C3937 C3938 1.366 . S
C3937 C3939 1.388 . S
C3938 C3937 1.366 . S
C3938 C3942 1.385 . S
C3939 H3914 0.951 . S
C3939 C3937 1.388 . S
C3939 C3940 1.366 . S
C3940 C3939 1.366 . S
C3940 C3941 1.414 . S
C3940 C3943 1.499 . S
C3941 H3915 0.950 . S
C3941 C3940 1.414 . S
C3941 C3942 1.374 . S
C3942 H3916 0.950 . S
C3942 C3938 1.385 . S
C3942 C3941 1.374 . S
C3943 C3940 1.499 . S
C3943 C3944 1.373 . S
C3943 C3945 1.389 . S
C3944 H3917 0.950 . S
C3944 C3930 1.377 . S
C3944 C3943 1.373 . S
C3945 C3929 1.377 . S
C3945 C3943 1.389 . S
C3945 C3946 1.524 . S
C3946 C3945 1.524 . S
C3946 C3947 1.397 . S
C3946 C3951 1.363 . S
C3947 H3918 0.950 . S
C3947 C3946 1.397 . S
C3947 C3948 1.334 . S
C3948 H3919 0.950 . S
C3948 C3947 1.334 . S
C3948 C3949 1.287 . S
C3949 C3948 1.287 . S
C3949 C3950 1.524 . S
C3949 H3952 0.999 . S
C3950 H3920 0.950 . S
C3950 C3949 1.524 . S
C3950 C3951 1.415 . S
C3951 H3921 0.950 . S
C3951 C3946 1.363 . S
C3951 C3950 1.415 . S
H3952 C3949 0.999 . S
H3953 C3934 0.913 . S
H3954 C3972 0.951 . S
H3955 C3974 0.951 . S
H3956 C3976 0.950 . S
H3957 C3977 0.950 . S
H3958 C3979 0.950 . S
H3959 C3982 0.950 . S
H3960 C3983 0.950 . S
H3961 C3985 0.950 . S
H3962 C3986 0.950 . S
H3963 C3987 0.951 . S
H3964 C3989 0.951 . S
H3965 C3991 0.950 . S
H3966 C3992 0.950 . S
H3967 C3994 0.950 . S
H3968 C3997 0.950 . S
H3969 C3998 0.950 . S
H3970 C4000 0.950 . S
H3971 C4001 0.950 . S
C3972 H3954 0.951 . S
C3972 C3973 1.366 . S
C3972 C3974 1.388 . S
C3973 C3972 1.366 . S
C3973 C3977 1.385 . S
C3974 H3955 0.951 . S
C3974 C3972 1.388 . S
C3974 C3975 1.366 . S
C3975 C3974 1.366 . S
C3975 C3976 1.414 . S
C3975 C3978 1.499 . S
C3976 H3956 0.950 . S
C3976 C3975 1.414 . S
C3976 C3977 1.374 . S
C3977 H3957 0.950 . S
C3977 C3973 1.385 . S
C3977 C3976 1.374 . S
C3978 C3975 1.499 . S
C3978 C3979 1.373 . S
C3978 C3980 1.389 . S
C3979 H3958 0.950 . S
C3979 C3978 1.373 . S
C3979 C3995 1.377 . S
C3980 C3978 1.389 . S
C3980 C3981 1.524 . S
C3980 C3994 1.377 . S
C3981 C3980 1.524 . S
C3981 C3982 1.397 . S
C3981 C3986 1.363 . S
C3982 H3959 0.950 . S
C3982 C3981 1.397 . S
C3982 C3983 1.334 . S
C3983 H3960 0.950 . S
C3983 C3982 1.334 . S
C3983 C3984 1.287 . S
C3984 C3983 1.287 . S
C3984 C3985 1.524 . S
C3984 H4003 0.913 . S
C3985 H3961 0.950 . S
C3985 C3984 1.524 . S
C3985 C3986 1.415 . S
C3986 H3962 0.950 . S
C3986 C3981 1.363 . S
C3986 C3985 1.415 . S
C3987 H3963 0.951 . S
C3987 C3988 1.366 . S
C3987 C3989 1.388 . S
C3988 C3987 1.366 . S
C3988 C3992 1.385 . S
C3989 H3964 0.951 . S
C3989 C3987 1.388 . S
C3989 C3990 1.366 . S
C3990 C3989 1.366 . S
C3990 C3991 1.414 . S
C3990 C3993 1.499 . S
C3991 H3965 0.950 . S
C3991 C3990 1.414 . S
C3991 C3992 1.374 . S
C3992 H3966 0.950 . S
C3992 C3988 1.385 . S
C3992 C3991 1.374 . S
C3993 C3990 1.499 . S
C3993 C3994 1.373 . S
C3993 C3995 1.389 . S
C3994 H3967 0.950 . S
C3994 C3980 1.377 . S
C3994 C3993 1.373 . S
C3995 C3979 1.377 . S
C3995 C3993 1.389 . S
C3995 C3996 1.524 . S
C3996 C3995 1.524 . S
C3996 C3997 1.397 . S
C3996 C4001 1.363 . S
C3997 H3968 0.950 . S
C3997 C3996 1.397 . S
C3997 C3998 1.334 . S
C3998 H3969 0.950 . S
C3998 C3997 1.334 . S
C3998 C3999 1.287 . S
C3999 C3998 1.287 . S
C3999 C4000 1.524 . S
C3999 H4002 0.999 . S
C4000 H3970 0.950 . S
C4000 C3999 1.524 . S
C4000 C4001 1.415 . S
C4001 H3971 0.950 . S
C4001 C3996 1.363 . S
C4001 C4000 1.415 . S
H4002 C3999 0.999 . S
H4003 C3984 0.913 . S
H4004 C4022 0.951 . S
H4005 C4024 0.951 . S
H4006 C4026 0.950 . S
H4007 C4027 0.950 . S
H4008 C4029 0.950 . S
H4009 C4032 0.950 . S
H4010 C4033 0.950 . S
H4011 C4035 0.950 . S
H4012 C4036 0.950 . S
H4013 C4037 0.951 . S
H4014 C4039 0.951 . S
H4015 C4041 0.950 . S
H4016 C4042 0.950 . S
H4017 C4044 0.950 . S
H4018 C4047 0.950 . S
H4019 C4048 0.950 . S
H4020 C4050 0.950 . S
H4021 C4051 0.950 . S
C4022 H4004 0.951 . S
C4022 C4023 1.366 . S
C4022 C4024 1.388 . S
C4023 C4022 1.366 . S
C4023 C4027 1.385 . S
C4024 H4005 0.951 . S
C4024 C4022 1.388 . S
C4024 C4025 1.366 . S
C4025 C4024 1.366 . S
C4025 C4026 1.414 . S
C4025 C4028 1.499 . S
C4026 H4006 0.950 . S
C4026 C4025 1.414 . S
C4026 C4027 1.374 . S
C4027 H4007 0.950 . S
C4027 C4023 1.385 . S
C4027 C4026 1.374 . S
C4028 C4025 1.499 . S
C4028 C4029 1.373 . S
C4028 C4030 1.389 . S
C4029 H4008 0.950 . S
C4029 C4028 1.373 . S
C4029 C4045 1.377 . S
C4030 C4028 1.389 . S
C4030 C4031 1.524 . S
C4030 C4044 1.377 . S
C4031 C4030 1.524 . S
C4031 C4032 1.397 . S
C4031 C4036 1.363 . S
C4032 H4009 0.950 . S
C4032 C4031 1.397 . S
C4032 C4033 1.334 . S
C4033 H4010 0.950 . S
C4033 C4032 1.334 . S
C4033 C4034 1.287 . S
C4034 C4033 1.287 . S
C4034 C4035 1.524 . S
C4034 H4053 0.913 . S
C4035 H4011 0.950 . S
C4035 C4034 1.524 . S
C4035 C4036 1.415 . S
C4036 H4012 0.950 . S
C4036 C4031 1.363 . S
C4036 C4035 1.415 . S
C4037 H4013 0.951 . S
C4037 C4038 1.366 . S
C4037 C4039 1.388 . S
C4038 C4037 1.366 . S
C4038 C4042 1.385 . S
C4039 H4014 0.951 . S
C4039 C4037 1.388 . S
C4039 C4040 1.366 . S
C4040 C4039 1.366 . S
C4040 C4041 1.414 . S
C4040 C4043 1.499 . S
C4041 H4015 0.950 . S
C4041 C4040 1.414 . S
C4041 C4042 1.374 . S
C4042 H4016 0.950 . S
C4042 C4038 1.385 . S
C4042 C4041 1.374 . S
C4043 C4040 1.499 . S
C4043 C4044 1.373 . S
C4043 C4045 1.389 . S
C4044 H4017 0.950 . S
C4044 C4030 1.377 . S
C4044 C4043 1.373 . S
C4045 C4029 1.377 . S
C4045 C4043 1.389 . S
C4045 C4046 1.524 . S
C4046 C4045 1.524 . S
C4046 C4047 1.397 . S
C4046 C4051 1.363 . S
C4047 H4018 0.950 . S
C4047 C4046 1.397 . S
C4047 C4048 1.334 . S
C4048 H4019 0.950 . S
C4048 C4047 1.334 . S
C4048 C4049 1.287 . S
C4049 C4048 1.287 . S
C4049 C4050 1.524 . S
C4049 H4052 0.999 . S
C4050 H4020 0.950 . S
C4050 C4049 1.524 . S
C4050 C4051 1.415 . S
C4051 H4021 0.950 . S
C4051 C4046 1.363 . S
C4051 C4050 1.415 . S
H4052 C4049 0.999 . S
H4053 C4034 0.913 . S
H4054 C4072 0.951 . S
H4055 C4074 0.951 . S
H4056 C4076 0.950 . S
H4057 C4077 0.950 . S
H4058 C4079 0.950 . S
H4059 C4082 0.950 . S
H4060 C4083 0.950 . S
H4061 C4085 0.950 . S
H4062 C4086 0.950 . S
H4063 C4087 0.951 . S
H4064 C4089 0.951 . S
H4065 C4091 0.950 . S
H4066 C4092 0.950 . S
H4067 C4094 0.950 . S
H4068 C4097 0.950 . S
H4069 C4098 0.950 . S
H4070 C4100 0.950 . S
H4071 C4101 0.950 . S
C4072 H4054 0.951 . S
C4072 C4073 1.366 . S
C4072 C4074 1.388 . S
C4073 C4072 1.366 . S
C4073 C4077 1.385 . S
C4074 H4055 0.951 . S
C4074 C4072 1.388 . S
C4074 C4075 1.366 . S
C4075 C4074 1.366 . S
C4075 C4076 1.414 . S
C4075 C4078 1.499 . S
C4076 H4056 0.950 . S
C4076 C4075 1.414 . S
C4076 C4077 1.374 . S
C4077 H4057 0.950 . S
C4077 C4073 1.385 . S
C4077 C4076 1.374 . S
C4078 C4075 1.499 . S
C4078 C4079 1.373 . S
C4078 C4080 1.389 . S
C4079 H4058 0.950 . S
C4079 C4078 1.373 . S
C4079 C4095 1.377 . S
C4080 C4078 1.389 . S
C4080 C4081 1.524 . S
C4080 C4094 1.377 . S
C4081 C4080 1.524 . S
C4081 C4082 1.397 . S
C4081 C4086 1.363 . S
C4082 H4059 0.950 . S
C4082 C4081 1.397 . S
C4082 C4083 1.334 . S
C4083 H4060 0.950 . S
C4083 C4082 1.334 . S
C4083 C4084 1.287 . S
C4084 C4083 1.287 . S
C4084 C4085 1.524 . S
C4084 H4103 0.913 . S
C4085 H4061 0.950 . S
C4085 C4084 1.524 . S
C4085 C4086 1.415 . S
C4086 H4062 0.950 . S
C4086 C4081 1.363 . S
C4086 C4085 1.415 . S
C4087 H4063 0.951 . S
C4087 C4088 1.366 . S
C4087 C4089 1.388 . S
C4088 C4087 1.366 . S
C4088 C4092 1.385 . S
C4089 H4064 0.951 . S
C4089 C4087 1.388 . S
C4089 C4090 1.366 . S
C4090 C4089 1.366 . S
C4090 C4091 1.414 . S
C4090 C4093 1.499 . S
C4091 H4065 0.950 . S
C4091 C4090 1.414 . S
C4091 C4092 1.374 . S
C4092 H4066 0.950 . S
C4092 C4088 1.385 . S
C4092 C4091 1.374 . S
C4093 C4090 1.499 . S
C4093 C4094 1.373 . S
C4093 C4095 1.389 . S
C4094 H4067 0.950 . S
C4094 C4080 1.377 . S
C4094 C4093 1.373 . S
C4095 C4079 1.377 . S
C4095 C4093 1.389 . S
C4095 C4096 1.524 . S
C4096 C4095 1.524 . S
C4096 C4097 1.397 . S
C4096 C4101 1.363 . S
C4097 H4068 0.950 . S
C4097 C4096 1.397 . S
C4097 C4098 1.334 . S
C4098 H4069 0.950 . S
C4098 C4097 1.334 . S
C4098 C4099 1.287 . S
C4099 C4098 1.287 . S
C4099 C4100 1.524 . S
C4099 H4102 0.999 . S
C4100 H4070 0.950 . S
C4100 C4099 1.524 . S
C4100 C4101 1.415 . S
C4101 H4071 0.950 . S
C4101 C4096 1.363 . S
C4101 C4100 1.415 . S
H4102 C4099 0.999 . S
H4103 C4084 0.913 . S
C523 C81 1.474 . S
C538 C11 1.473 . S
C573 C53 1.473 . S
C588 C25 1.474 . S
C623 C39 1.473 . S
C638 C67 1.473 . S
C673 C95 1.473 . S
C688 C165 1.474 . S
C723 C109 1.473 . S
C738 C137 1.474 . S
C773 C151 1.473 . S
C788 C123 1.473 . S
C823 C179 1.473 . S
C838 C249 1.474 1_556 S
C873 C193 1.474 . S
C888 C221 1.473 1_556 S
C923 C207 1.473 . S
C938 C235 1.473 1_556 S
C973 C333 1.473 . S
C988 C263 1.474 1_556 S
C1023 C277 1.474 1_556 S
C1038 C305 1.473 . S
C1073 C319 1.472 . S
C1088 C291 1.473 1_556 S
C1123 C417 1.474 . S
C1138 C347 1.474 1_554 S
C1173 C389 1.474 . S
C1188 C361 1.473 1_554 S
C1223 C403 1.473 . S
C1238 C375 1.473 1_554 S
C1273 C431 1.473 . S
C1288 C501 1.474 1_554 S
C1323 C445 1.473 . S
C1338 C473 1.473 1_554 S
C1373 C459 1.473 . S
C1388 C487 1.474 1_554 S
C1423 C79 1.584 . S
C1438 C9 1.584 . S
C1473 C23 1.584 . S
C1488 C51 1.584 . S
C1523 C65 1.583 . S
C1538 C37 1.583 . S
C1573 C93 1.584 . S
C1588 C163 1.584 . S
C1623 C107 1.584 . S
C1638 C135 1.584 . S
C1673 C149 1.583 . S
C1688 C121 1.583 . S
C1723 C177 1.584 . S
C1738 C247 1.584 . S
C1773 C219 1.584 . S
C1788 C191 1.584 . S
C1823 C233 1.583 . S
C1838 C205 1.583 . S
C1873 C261 1.584 . S
C1888 C331 1.584 . S
C1923 C275 1.584 . S
C1938 C303 1.584 . S
C1973 C317 1.583 . S
C1988 C289 1.583 . S
C2023 C415 1.584 . S
C2038 C345 1.584 . S
C2073 C359 1.584 . S
C2088 C387 1.584 . S
C2123 C373 1.583 . S
C2138 C401 1.583 . S
C2173 C499 1.584 . S
C2188 C429 1.584 . S
C2223 C471 1.584 . S
C2238 C443 1.584 . S
C2273 C485 1.584 . S
C2288 C457 1.583 . S
C2323 C229 1.675 . S
C2338 C5 1.675 . S
C2373 C243 1.675 . S
C2388 C19 1.675 . S
C2423 C215 1.675 . S
C2438 C33 1.675 . S
C2473 C47 1.675 . S
C2488 C369 1.675 . S
C2523 C61 1.675 . S
C2538 C341 1.675 . S
C2573 C75 1.675 . S
C2588 C355 1.675 . S
C2623 C89 1.674 . S
C2638 C481 1.674 . S
C2673 C103 1.675 . S
C2688 C495 1.675 . S
C2723 C117 1.675 . S
C2738 C467 1.675 . S
C2773 C131 1.675 . S
C2788 C285 1.675 . S
C2823 C257 1.675 . S
C2838 C145 1.675 . S
C2873 C271 1.675 . S
C2888 C159 1.675 . S
C2923 C397 1.675 . S
C2938 C173 1.675 . S
C2973 C187 1.674 . S
C2988 C411 1.674 . S
C3023 C201 1.675 . S
C3038 C383 1.675 . S
C3073 C299 1.675 . S
C3088 C453 1.675 . S
C3123 C313 1.675 . S
C3138 C425 1.675 . S
C3173 C439 1.675 . S
C3188 C327 1.675 . S
C3223 C0 1.258 . S
C3238 C140 1.258 . S
C3273 C154 1.259 . S
C3288 C14 1.259 . S
C3323 C126 1.258 . S
C3338 C28 1.258 . S
C3373 C42 1.258 . S
C3388 C112 1.258 . S
C3423 C56 1.259 . S
C3438 C84 1.258 . S
C3473 C70 1.258 . S
C3488 C98 1.259 . S
C3523 C168 1.258 . S
C3538 C308 1.258 . S
C3573 C322 1.258 . S
C3588 C182 1.259 . S
C3623 C294 1.258 . S
C3638 C196 1.258 . S
C3673 C210 1.258 . S
C3688 C280 1.258 . S
C3723 C224 1.258 . S
C3738 C252 1.257 . S
C3773 C266 1.258 . S
C3788 C238 1.259 . S
C3823 C336 1.257 . S
C3838 C476 1.257 . S
C3873 C490 1.258 . S
C3888 C350 1.259 . S
C3923 C364 1.257 . S
C3938 C462 1.258 . S
C3973 C378 1.257 . S
C3988 C448 1.258 . S
C4023 C420 1.257 . S
C4038 C392 1.258 . S
C4073 C406 1.259 . S
C4088 C434 1.259 . S
