# Generated by pormake.
# Topology afw, (4)-cn, num edge types: 1
# Building blocks:
#     Node 0, Type 0, BuildingBlock: UXUYUI_clean_sbu_0, # of connection points: 4
#     Node 1, Type 0, BuildingBlock: UXUYUI_clean_sbu_0, # of connection points: 4
#     Node 2, Type 0, BuildingBlock: UXUYUI_clean_sbu_0, # of connection points: 4
#     Node 3, Type 0, BuildingBlock: UXUYUI_clean_sbu_0, # of connection points: 4
#     Node 4, Type 0, BuildingBlock: UXUYUI_clean_sbu_0, # of connection points: 4
#     Node 5, Type 0, BuildingBlock: UXUYUI_clean_sbu_0, # of connection points: 4
#     Node 6, Type 0, BuildingBlock: UXUYUI_clean_sbu_0, # of connection points: 4
#     Node 7, Type 0, BuildingBlock: UXUYUI_clean_sbu_0, # of connection points: 4
#     Node 8, Type 0, BuildingBlock: UXUYUI_clean_sbu_0, # of connection points: 4
#     Edge 9, Type (0, 0), BuildingBlock: ZUJKAS_clean_linker_0, # of connection points: 2
#     Edge 10, Type (0, 0), BuildingBlock: ZUJKAS_clean_linker_0, # of connection points: 2
#     Edge 11, Type (0, 0), BuildingBlock: ZUJKAS_clean_linker_0, # of connection points: 2
#     Edge 12, Type (0, 0), BuildingBlock: ZUJKAS_clean_linker_0, # of connection points: 2
#     Edge 13, Type (0, 0), BuildingBlock: ZUJKAS_clean_linker_0, # of connection points: 2
#     Edge 14, Type (0, 0), BuildingBlock: ZUJKAS_clean_linker_0, # of connection points: 2
#     Edge 15, Type (0, 0), BuildingBlock: ZUJKAS_clean_linker_0, # of connection points: 2
#     Edge 16, Type (0, 0), BuildingBlock: ZUJKAS_clean_linker_0, # of connection points: 2
#     Edge 17, Type (0, 0), BuildingBlock: ZUJKAS_clean_linker_0, # of connection points: 2
#     Edge 18, Type (0, 0), BuildingBlock: ZUJKAS_clean_linker_0, # of connection points: 2
#     Edge 19, Type (0, 0), BuildingBlock: ZUJKAS_clean_linker_0, # of connection points: 2
#     Edge 20, Type (0, 0), BuildingBlock: ZUJKAS_clean_linker_0, # of connection points: 2
#     Edge 21, Type (0, 0), BuildingBlock: ZUJKAS_clean_linker_0, # of connection points: 2
#     Edge 22, Type (0, 0), BuildingBlock: ZUJKAS_clean_linker_0, # of connection points: 2
#     Edge 23, Type (0, 0), BuildingBlock: ZUJKAS_clean_linker_0, # of connection points: 2
#     Edge 24, Type (0, 0), BuildingBlock: ZUJKAS_clean_linker_0, # of connection points: 2
#     Edge 25, Type (0, 0), BuildingBlock: ZUJKAS_clean_linker_0, # of connection points: 2
#     Edge 26, Type (0, 0), BuildingBlock: ZUJKAS_clean_linker_0, # of connection points: 2
# Relax obj value: 0.350
# Max RMSD: 0.270
# Mean RMSD: 0.270
data_MOF--net-afw--node1-UXUYUI_clean_sbu_0--edge1-ZUJKAS_clean_linker_0
_symmetry_space_group_name_H-M    P1
_symmetry_Int_Tables_number       1
_symmetry_cell_setting            triclinic
loop_
_symmetry_equiv_pos_as_xyz
'x, y, z'
_cell_length_a     68.75128
_cell_length_b     68.734591
_cell_length_c     64.450676
_cell_angle_alpha  89.993971
_cell_angle_beta   90.034044
_cell_angle_gamma 120.01807
loop_
_atom_site_label
_atom_site_type_symbol
_atom_site_fract_x
_atom_site_fract_y
_atom_site_fract_z
_atom_type_partial_charge
Li0 Li 0.01394 0.24254 0.01785 0.0
Li1 Li 0.99112 0.20559 0.002 0.0
Li2 Li 0.03208 0.22461 0.00186 0.0
Li3 Li 0.01177 0.23788 0.98053 0.0
C4 C 0.02008 0.2032 0.03736 0.0
N5 N 0.03877 0.18148 0.05839 0.0
C6 C 0.01015 0.17984 0.03617 0.0
C7 C 0.0394 0.2155 0.04938 0.0
C8 C 0.01987 0.16917 0.04691 0.0
C9 C 0.04863 0.20422 0.05983 0.0
C10 C 0.96498 0.22313 0.00312 0.0
C11 C 0.92657 0.20033 0.9918 0.0
N12 N 0.9194 0.20303 0.01068 0.0
C13 C 0.95723 0.22573 0.02239 0.0
C14 C 0.94954 0.2104 0.98766 0.0
C15 C 0.93412 0.21543 0.02591 0.0
C16 C 0.01257 0.27947 0.03429 0.0
N17 N 0.01475 0.26148 0.03938 0.0
C18 C 0.01466 0.26909 0.07545 0.0
C19 C 0.01598 0.25617 0.05944 0.0
C20 C 0.01208 0.28765 0.07071 0.0
C21 C 0.01147 0.29302 0.04977 0.0
H22 H 0.01119 0.28298 0.01817 0.0
H23 H 0.01723 0.24147 0.063 0.0
C24 C 0.9596 0.1621 0.98888 0.0
N25 N 0.96467 0.17718 0.00445 0.0
C26 C 0.9409 0.14065 0.99041 0.0
C27 C 0.9328 0.15069 0.02395 0.0
C28 C 0.95179 0.17195 0.02181 0.0
C29 C 0.92726 0.13462 0.00819 0.0
H30 H 0.97042 0.16654 0.97547 0.0
H31 H 0.95646 0.1842 0.0341 0.0
C32 C 0.05104 0.27741 0.00402 0.0
N33 N 0.07403 0.32129 0.01798 0.0
C34 C 0.05002 0.29434 0.9929 0.0
C35 C 0.06387 0.28282 0.02216 0.0
C36 C 0.06175 0.31643 0.00023 0.0
C37 C 0.07532 0.30509 0.029 0.0
C38 C 0.01337 0.20713 0.95802 0.0
C39 C 0.03423 0.21225 0.94984 0.0
C40 C 0.99524 0.20126 0.94466 0.0
C41 C 0.03662 0.21152 0.92838 0.0
C42 C -0.00167 0.20078 0.92328 0.0
N43 N 0.01878 0.20587 0.91565 0.0
C44 C 0.0517 0.1978 3e-05 0.0
C45 C 0.07784 0.23603 0.00721 0.0
C46 C 0.06851 0.19222 0.00159 0.0
N47 N 0.05657 0.21932 0.00308 0.0
C48 C 0.09526 0.23121 0.00885 0.0
C49 C 0.09061 0.209 0.00622 0.0
H50 H 0.03464 0.18494 -0.00348 0.0
H51 H 0.08125 0.25303 0.00939 0.0
C52 C 0.99355 0.25379 0.95042 0.0
N53 N 0.0117 0.25181 0.95534 0.0
C54 C 0.99343 0.26472 0.93224 0.0
C55 C 0.0307 0.2713 0.92458 0.0
C56 C 0.03013 0.26036 0.94296 0.0
C57 C 0.01222 0.27368 0.91911 0.0
H58 H 0.97928 0.24716 0.96074 0.0
H59 H 0.0445 0.25893 0.94755 0.0
O60 O 0.01115 0.21402 0.02655 0.0
O61 O 0.98754 0.23282 -0.00055 0.0
O62 O 0.03946 0.25565 -0.00278 0.0
O63 O 0.01078 0.2081 0.97897 0.0
H64 H 0.99527 0.17006 0.02687 0.0
H65 H 0.04736 0.2336 0.05037 0.0
H66 H 0.01245 0.15112 0.04603 0.0
H67 H 0.06369 0.21354 0.06905 0.0
H68 H 0.91444 0.1903 0.98003 0.0
H69 H 0.9689 0.23543 0.03458 0.0
H70 H 0.95523 0.20804 0.97272 0.0
H71 H 0.92789 0.21724 0.04077 0.0
H72 H 0.0147 0.26399 0.09134 0.0
H73 H 0.00971 0.30727 0.04538 0.0
H74 H 0.93768 0.12868 0.97811 0.0
H75 H 0.92272 0.14683 0.03788 0.0
H76 H 0.04012 0.29048 0.97888 0.0
H77 H 0.06468 0.2699 0.03106 0.0
H78 H 0.06104 0.32968 0.99184 0.0
H79 H 0.08516 0.30949 0.0431 0.0
H80 H 0.04849 0.21697 0.95992 0.0
H81 H 0.97903 0.19745 0.95071 0.0
H82 H 0.05269 0.21553 0.92183 0.0
H83 H 0.98448 0.19642 0.91276 0.0
H84 H 0.06429 0.17497 -0.00096 0.0
H85 H 0.11207 0.24461 0.01247 0.0
H86 H 0.97885 0.26617 0.92852 0.0
H87 H 0.04567 0.27835 0.91504 0.0
Li88 Li 0.82063 0.80575 -0.0005 0.0
Li89 Li 0.78605 0.79143 0.01995 0.0
Li90 Li 0.78576 0.79139 0.98111 0.0
Li91 Li 0.79905 0.82647 0.0003 0.0
C92 C 0.80436 0.76155 0.00158 0.0
N93 N 0.82471 0.73568 0.0041 0.0
C94 C 0.80396 0.75093 0.0202 0.0
C95 C 0.81487 0.7588 0.98417 0.0
C96 C 0.81439 0.73796 0.02117 0.0
C97 C 0.82514 0.74573 0.98578 0.0
C98 C 0.81947 0.82811 0.04309 0.0
C99 C 0.81241 0.84464 0.0731 0.0
N100 N 0.82942 0.84406 0.08333 0.0
C101 C 0.83706 0.82794 0.05381 0.0
C102 C 0.80719 0.83675 0.05273 0.0
C103 C 0.84176 0.83597 0.07417 0.0
C104 C 0.864 0.82343 0.98365 0.0
N105 N 0.85011 0.80995 -0.00115 0.0
C106 C 0.87942 0.80493 0.01308 0.0
C107 C 0.85732 0.80067 0.01342 0.0
C108 C 0.89424 0.81916 -0.00222 0.0
C109 C 0.88623 0.82827 0.98281 0.0
H110 H 0.85795 0.83081 0.97241 0.0
H111 H 0.84606 0.79036 0.02558 0.0
C112 C 0.74775 0.76368 0.04359 0.0
N113 N 0.77056 0.77583 0.04414 0.0
C114 C 0.73567 0.75255 0.06133 0.0
C115 C 0.77085 0.76635 0.07969 0.0
C116 C 0.78222 0.77699 0.06157 0.0
C117 C 0.74729 0.75405 0.07971 0.0
H118 H 0.73894 0.76276 0.02939 0.0
H119 H 0.80033 0.78598 0.06139 0.0
C120 C 0.81461 0.8237 0.95555 0.0
N121 N 0.81572 0.82946 0.91306 0.0
C122 C 0.80957 0.83934 0.94697 0.0
C123 C 0.82051 0.81121 0.94254 0.0
C124 C 0.81016 0.84196 0.92544 0.0
C125 C 0.82087 0.81429 0.92109 0.0
C126 C 0.75215 0.80482 0.00392 0.0
C127 C 0.73862 0.80428 0.98748 0.0
C128 C 0.74852 0.81047 0.0238 0.0
C129 C 0.72201 0.80992 0.99112 0.0
C130 C 0.73174 0.816 0.02682 0.0
N131 N 0.71897 0.81565 0.01055 0.0
C132 C 0.76496 0.75323 0.95554 0.0
C133 C 0.7628 0.78452 0.94298 0.0
C134 C 0.75327 0.74053 0.93826 0.0
N135 N 0.76959 0.77483 0.95748 0.0
C136 C 0.75124 0.77252 0.92539 0.0
C137 C 0.74638 0.75024 0.92288 0.0
H138 H 0.7703 0.74584 0.96744 0.0
H139 H 0.76635 0.80158 0.94508 0.0
C140 C 0.82104 0.87123 0.01163 0.0
N141 N 0.80237 0.8556 0.00154 0.0
C142 C 0.8248 0.89291 0.01445 0.0
C143 C 0.79064 0.88252 0.99544 0.0
C144 C 0.7874 0.86086 0.99318 0.0
C145 C 0.80941 0.89873 0.00646 0.0
H146 H 0.83302 0.86681 0.01757 0.0
H147 H 0.77305 0.84836 0.98467 0.0
O148 O 0.79435 0.77442 0.00036 0.0
O149 O 0.81461 0.82022 0.02315 0.0
O150 O 0.81397 0.82081 0.97658 0.0
O151 O 0.76851 0.79937 0.00059 0.0
H152 H 0.79576 0.75275 0.03377 0.0
H153 H 0.81518 0.76677 0.96962 0.0
H154 H 0.81431 0.72973 0.0355 0.0
H155 H 0.83346 0.74358 0.97247 0.0
H156 H 0.803 0.85133 0.08074 0.0
H157 H 0.84692 0.82156 0.04655 0.0
H158 H 0.79398 0.83764 0.04451 0.0
H159 H 0.85522 0.83578 0.08269 0.0
H160 H 0.88507 0.79785 0.02506 0.0
H161 H 0.89711 0.83921 0.97069 0.0
H162 H 0.71749 0.7431 0.06076 0.0
H163 H 0.78039 0.76738 0.09344 0.0
H164 H 0.8051 0.84924 0.95682 0.0
H165 H 0.82464 0.79918 0.94894 0.0
H166 H 0.80617 0.85391 0.91858 0.0
H167 H 0.82525 0.80463 0.91083 0.0
H168 H 0.74096 0.79968 0.97205 0.0
H169 H 0.75834 0.81035 0.03682 0.0
H170 H 0.71154 0.80973 0.9785 0.0
H171 H 0.72882 0.82048 0.04213 0.0
H172 H 0.74986 0.7234 0.93685 0.0
H173 H 0.74584 0.78047 0.91405 0.0
H174 H 0.83981 0.90511 0.02254 0.0
H175 H 0.77853 0.88647 0.98887 0.0
Li176 Li 0.22369 0.03164 0.00091 0.0
Li177 Li 0.24031 0.01268 0.01964 0.0
Li178 Li 0.23757 0.01176 0.98104 0.0
Li179 Li 0.20404 0.98955 0.00214 0.0
C180 C 0.26683 0.06084 0.0002 0.0
N181 N 0.28943 0.10723 0.00188 0.0
C182 C 0.27826 0.07199 0.01823 0.0
C183 C 0.26711 0.07329 0.98293 0.0
C184 C 0.28955 0.09545 0.01879 0.0
C185 C 0.27856 0.09672 0.98412 0.0
C186 C 0.20344 0.00646 0.04503 0.0
C187 C 0.18584 0.97977 0.07284 0.0
N188 N 0.18701 0.99642 0.08511 0.0
C189 C 0.20416 0.02323 0.05783 0.0
C190 C 0.19394 0.98449 0.05252 0.0
C191 C 0.19591 0.01786 0.07807 0.0
C192 C 0.2062 0.05777 0.98557 0.0
N193 N 0.21865 0.05639 0.00124 0.0
C194 C 0.22177 0.08916 0.01733 0.0
C195 C 0.2266 0.07169 0.01691 0.0
C196 C 0.20854 0.09073 0.00153 0.0
C197 C 0.20102 0.07494 0.98534 0.0
H198 H 0.19994 0.04531 0.97339 0.0
H199 H 0.23641 0.07014 0.02923 0.0
C200 C 0.27158 0.00496 0.04076 0.0
N201 N 0.25841 0.01447 0.04244 0.0
C202 C 0.2855 0.0064 0.05715 0.0
C203 C 0.27246 0.02789 0.07642 0.0
C204 C 0.25869 0.02588 0.05974 0.0
C205 C 0.28612 0.0181 0.07521 0.0
H206 H 0.27139 0.99643 0.02661 0.0
H207 H 0.24859 0.03385 0.06042 0.0
C208 C 0.20294 0.00582 0.95782 0.0
N209 N 0.19388 0.99794 0.91591 0.0
C210 C 0.18726 0.98434 0.95078 0.0
C211 C 0.21382 0.02334 0.94355 0.0
C212 C 0.18295 0.98069 0.92953 0.0
C213 C 0.20908 0.019 0.92242 0.0
C214 C 0.2281 0.96597 0.00512 0.0
C215 C 0.22872 0.95222 0.98946 0.0
C216 C 0.22441 0.95839 0.02565 0.0
C217 C 0.2252 0.93094 0.99455 0.0
C218 C 0.22097 0.93701 0.03012 0.0
N219 N 0.22139 0.92382 0.0146 0.0
C220 C 0.27208 0.03017 0.9511 0.0
C221 C 0.24165 0.99397 0.9431 0.0
C222 C 0.2823 0.03107 0.93214 0.0
N223 N 0.25201 0.01192 0.95604 0.0
C224 C 0.25113 0.99423 0.92395 0.0
C225 C 0.27163 0.01304 0.91822 0.0
H226 H 0.28006 0.0441 0.96179 0.0
H227 H 0.22582 0.97959 0.94753 0.0
C228 C 0.15873 0.96863 0.00885 0.0
N229 N 0.17501 0.96377 0.00391 0.0
C230 C 0.13639 0.95159 0.01014 0.0
C231 C 0.14791 0.92467 0.00128 0.0
C232 C 0.1701 0.94233 7e-05 0.0
C233 C 0.13069 0.92922 0.00632 0.0
H234 H 0.16314 0.9859 0.01155 0.0
H235 H 0.18322 0.93886 0.99582 0.0
O236 O 0.25543 0.03786 -0.00055 0.0
O237 O 0.21132 0.01146 0.02511 0.0
O238 O 0.20758 0.00966 0.97855 0.0
O239 O 0.23153 0.98687 0.00035 0.0
H240 H 0.27836 0.06265 0.03168 0.0
H241 H 0.2584 0.06494 0.96884 0.0
H242 H 0.29838 0.10429 0.03269 0.0
H243 H 0.27877 0.10656 0.97093 0.0
H244 H 0.17851 0.96284 0.07882 0.0
H245 H 0.21114 0.04026 0.05225 0.0
H246 H 0.19256 0.97112 0.04272 0.0
H247 H 0.19653 0.03073 0.08818 0.0
H248 H 0.22772 0.10085 0.03021 0.0
H249 H 0.19104 0.07569 0.97269 0.0
H250 H 0.29604 -0.00108 0.05554 0.0
H251 H 0.27243 0.03699 0.09012 0.0
H252 H 0.17864 0.97059 0.96158 0.0
H253 H 0.22597 0.04007 0.94871 0.0
H254 H 0.17095 0.96412 0.92386 0.0
H255 H 0.21752 0.03236 0.9112 0.0
H256 H 0.23182 0.95787 0.97353 0.0
H257 H 0.22447 0.96897 0.03806 0.0
H258 H 0.2255 0.92008 0.98256 0.0
H259 H 0.21805 0.93094 0.04593 0.0
H260 H 0.29812 0.04585 0.92825 0.0
H261 H 0.24259 0.97982 0.91378 0.0
H262 H 0.12368 0.95602 0.01359 0.0
H263 H 0.1443 0.90768 -0.00173 0.0
Li264 Li 0.65614 0.53828 0.33213 0.0
Li265 Li 0.6778 0.57258 0.3525 0.0
Li266 Li 0.67835 0.57406 0.31367 0.0
Li267 Li 0.69838 0.55896 0.33312 0.0
C268 C 0.63095 0.56009 0.33028 0.0
N269 N 0.58692 0.5498 0.32485 0.0
C270 C 0.61789 0.55882 0.34739 0.0
C271 C 0.62173 0.55658 0.31036 0.0
C272 C 0.59563 0.55345 0.34434 0.0
C273 C 0.59942 0.55128 0.30794 0.0
C274 C 0.67504 0.53952 0.37682 0.0
C275 C 0.69124 0.5493 0.4111 0.0
N276 N 0.67183 0.53245 0.41921 0.0
C277 C 0.65533 0.52216 0.38548 0.0
C278 C 0.69323 0.55307 0.38971 0.0
C279 C 0.65401 0.51891 0.40694 0.0
C280 C 0.63052 0.49391 0.3183 0.0
N281 N 0.62987 0.50942 0.33091 0.0
C282 C 0.59266 0.4827 0.34189 0.0
C283 C 0.61151 0.50422 0.34272 0.0
C284 C 0.59277 0.46654 0.32867 0.0
C285 C 0.61198 0.47236 0.31673 0.0
H286 H 0.64558 0.49816 0.30965 0.0
H287 H 0.61168 0.51658 0.35317 0.0
C288 C 0.69348 0.61023 0.37865 0.0
N289 N 0.6777 0.58816 0.37664 0.0
C290 C 0.6937 0.62223 0.3962 0.0
C291 C 0.66155 0.58846 0.40928 0.0
C292 C 0.66176 0.57724 0.39138 0.0
C293 C 0.67764 0.61124 0.41179 0.0
H294 H 0.70579 0.61855 0.36654 0.0
H295 H 0.64913 0.55982 0.3892 0.0
C296 C 0.67442 0.53879 0.28865 0.0
N297 N 0.6673 0.52576 0.24748 0.0
C298 C 0.69157 0.53882 0.27699 0.0
C299 C 0.65353 0.53177 0.27944 0.0
C300 C 0.68768 0.53228 0.25618 0.0
C301 C 0.65029 0.52534 0.2586 0.0
C302 C 0.72641 0.60286 0.33228 0.0
C303 C 0.73662 0.6123 0.31331 0.0
C304 C 0.7397 0.60644 0.34985 0.0
C305 C 0.76003 0.62488 0.31217 0.0
C306 C 0.76306 0.61909 0.34807 0.0
N307 N 0.77266 0.62795 0.32942 0.0
C308 C 0.66936 0.60447 0.2933 0.0
C309 C 0.68867 0.59114 0.27249 0.0
C310 C 0.66939 0.61795 0.27711 0.0
N311 N 0.67877 0.59133 0.29066 0.0
C312 C 0.68898 0.60424 0.25586 0.0
C313 C 0.67928 0.61789 0.25809 0.0
H314 H 0.66192 0.60455 0.30807 0.0
H315 H 0.69678 0.58124 0.271 0.0
C316 C 0.72561 0.54344 0.34972 0.0
N317 N 0.72389 0.55511 0.33351 0.0
C318 C 0.74335 0.53918 0.35077 0.0
C319 C 0.75743 0.55907 0.31837 0.0
C320 C 0.73941 0.56308 0.31803 0.0
C321 C 0.75936 0.54668 0.33479 0.0
H322 H 0.71297 0.53704 0.36169 0.0
H323 H 0.73757 0.57217 0.30521 0.0
O324 O 0.65282 0.56539 0.333 0.0
O325 O 0.67657 0.54305 0.35583 0.0
O326 O 0.67802 0.54529 0.30903 0.0
O327 O 0.70351 0.59028 0.33364 0.0
H328 H 0.62478 0.56177 0.36289 0.0
H329 H 0.63174 0.55821 0.29687 0.0
H330 H 0.58529 0.55223 0.35748 0.0
H331 H 0.59207 0.54846 0.29261 0.0
H332 H 0.70512 0.55979 0.42126 0.0
H333 H 0.6412 0.51132 0.37575 0.0
H334 H 0.70865 0.56647 0.38328 0.0
H335 H 0.63882 0.5056 0.41385 0.0
H336 H 0.57821 0.47871 0.3515 0.0
H337 H 0.61291 0.46017 0.30676 0.0
H338 H 0.70629 0.63983 0.39762 0.0
H339 H 0.64863 0.57956 0.42082 0.0
H340 H 0.70775 0.5439 0.28389 0.0
H341 H 0.63988 0.53099 0.28836 0.0
H342 H 0.70086 0.53236 0.24694 0.0
H343 H 0.63421 0.51993 0.25129 0.0
H344 H 0.7266 0.6098 0.29958 0.0
H345 H 0.73208 0.59948 0.36469 0.0
H346 H 0.76816 0.63216 0.29756 0.0
H347 H 0.77356 0.62187 0.36152 0.0
H348 H 0.66177 0.62828 0.27943 0.0
H349 H 0.69728 0.60417 0.2416 0.0
H350 H 0.74435 0.52986 0.36388 0.0
H351 H 0.76927 0.56495 0.30562 0.0
Li352 Li 0.48723 0.13763 0.33508 0.0
Li353 Li 0.45253 0.12334 0.35498 0.0
Li354 Li 0.45275 0.12323 0.31634 0.0
Li355 Li 0.46582 0.15838 0.33526 0.0
C356 C 0.47181 0.09412 0.33769 0.0
N357 N 0.49389 0.07002 0.34188 0.0
C358 C 0.47184 0.08445 0.35675 0.0
C359 C 0.48279 0.09131 0.32069 0.0
C360 C 0.48314 0.07237 0.35857 0.0
C361 C 0.49394 0.07915 0.32315 0.0
C362 C 0.48456 0.16078 0.37846 0.0
C363 C 0.47656 0.17947 0.40605 0.0
N364 N 0.49211 0.17828 0.4182 0.0
C365 C 0.50072 0.16007 0.39112 0.0
C366 C 0.47259 0.17083 0.38591 0.0
C367 C 0.50418 0.16886 0.41119 0.0
C368 C 0.52961 0.15114 0.31791 0.0
N369 N 0.5165 0.14123 0.33478 0.0
C370 C 0.54567 0.13723 0.35079 0.0
C371 C 0.524 0.13415 0.35102 0.0
C372 C 0.55972 0.14769 0.33366 0.0
C373 C 0.55129 0.15441 0.31696 0.0
H374 H 0.5233 0.1567 0.30525 0.0
H375 H 0.51319 0.12622 0.36421 0.0
C376 C 0.41374 0.09247 0.37567 0.0
N377 N 0.43615 0.10648 0.37836 0.0
C378 C 0.40074 0.07829 0.39168 0.0
C379 C 0.43418 0.09315 0.41291 0.0
C380 C 0.4465 0.10714 0.39652 0.0
C381 C 0.411 0.07831 0.41053 0.0
H382 H 0.40604 0.09205 0.36092 0.0
H383 H 0.46444 0.11782 0.39803 0.0
C384 C 0.4807 0.15465 0.29063 0.0
N385 N 0.47959 0.15853 0.24801 0.0
C386 C 0.47556 0.17015 0.2819 0.0
C387 C 0.48555 0.14131 0.27767 0.0
C388 C 0.47503 0.17182 0.26032 0.0
C389 C 0.4848 0.14345 0.25617 0.0
C390 C 0.41852 0.1358 0.34038 0.0
C391 C 0.40361 0.13486 0.32512 0.0
C392 C 0.41575 0.14062 0.36087 0.0
C393 C 0.38657 0.13936 0.33051 0.0
C394 C 0.39849 0.145 0.36566 0.0
N395 N 0.38441 0.14433 0.3505 0.0
C396 C 0.43385 0.0861 0.28917 0.0
C397 C 0.42777 0.11598 0.27972 0.0
C398 C 0.422 0.07377 0.27178 0.0
N399 N 0.43656 0.1068 0.29271 0.0
C400 C 0.41572 0.10423 0.26222 0.0
C401 C 0.4127 0.08283 0.25811 0.0
H402 H 0.44077 0.07908 0.29991 0.0
H403 H 0.43025 0.13251 0.2829 0.0
C404 C 0.48793 0.20421 0.34377 0.0
N405 N 0.46889 0.18742 0.33512 0.0
C406 C 0.49187 0.22616 0.34388 0.0
C407 C 0.45675 0.21329 0.32569 0.0
C408 C 0.45341 0.19151 0.32609 0.0
C409 C 0.4762 0.23094 0.33468 0.0
H410 H 0.50021 0.20056 0.35041 0.0
H411 H 0.43875 0.17801 0.31875 0.0
O412 O 0.4611 0.10628 0.33568 0.0
O413 O 0.48107 0.15231 0.3587 0.0
O414 O 0.48102 0.15257 0.31173 0.0
O415 O 0.43529 0.13139 0.33532 0.0
H416 H 0.46334 0.08632 0.37003 0.0
H417 H 0.48291 0.09862 0.30582 0.0
H418 H 0.4834 0.06489 0.37327 0.0
H419 H 0.50265 0.07699 0.31016 0.0
H420 H 0.46736 0.18724 0.41199 0.0
H421 H 0.51041 0.1527 0.38558 0.0
H422 H 0.46062 0.1723 0.37617 0.0
H423 H 0.51651 0.16825 0.42119 0.0
H424 H 0.55152 0.13202 0.36413 0.0
H425 H 0.56137 0.16223 0.30329 0.0
H426 H 0.38291 0.06724 0.38922 0.0
H427 H 0.4429 0.09335 0.42698 0.0
H428 H 0.47193 0.18072 0.29165 0.0
H429 H 0.48961 0.12927 0.28413 0.0
H430 H 0.47096 0.18367 0.25337 0.0
H431 H 0.48833 0.1331 0.24597 0.0
H432 H 0.40522 0.13083 0.30925 0.0
H433 H 0.42654 0.14064 0.37304 0.0
H434 H 0.37505 0.13887 0.31881 0.0
H435 H 0.39623 0.14881 0.38145 0.0
H436 H 0.41982 0.05722 0.26923 0.0
H437 H 0.40907 0.11192 0.2519 0.0
H438 H 0.50733 0.23936 0.35056 0.0
H439 H 0.44433 0.21632 0.31836 0.0
Li440 Li 0.90106 0.34498 0.35055 0.0
Li441 Li 0.88449 0.36499 0.33349 0.0
Li442 Li 0.86498 0.32275 0.33513 0.0
Li443 Li 0.89698 0.34353 0.31219 0.0
C444 C 0.87482 0.34813 0.37891 0.0
N445 N 0.87999 0.3553 0.42124 0.0
C446 C 0.87977 0.36891 0.38718 0.0
C447 C 0.87222 0.3309 0.3922 0.0
C448 C 0.88237 0.37222 0.40862 0.0
C449 C 0.875 0.3349 0.41354 0.0
C450 C 0.93135 0.39052 0.32311 0.0
C451 C 0.94661 0.41822 0.29581 0.0
N452 N 0.96387 0.43204 0.30848 0.0
C453 C 0.94943 0.40489 0.33576 0.0
C454 C 0.93007 0.39716 0.30289 0.0
C455 C 0.96562 0.42585 0.32812 0.0
C456 C 0.92382 0.33067 0.37807 0.0
N457 N 0.91993 0.3476 0.37287 0.0
C458 C 0.94163 0.36966 0.40152 0.0
C459 C 0.92877 0.36695 0.38396 0.0
C460 C 0.94556 0.35232 0.4076 0.0
C461 C 0.93678 0.33273 0.39551 0.0
H462 H 0.91663 0.31551 0.36885 0.0
H463 H 0.92542 0.38012 0.37936 0.0
C464 C 0.85926 0.38626 0.33073 0.0
N465 N 0.88034 0.3902 0.33461 0.0
C466 C 0.85466 0.40383 0.33146 0.0
C467 C 0.89355 0.4292 0.3403 0.0
C468 C 0.89737 0.41109 0.33952 0.0
C469 C 0.87194 0.42562 0.33632 0.0
H470 H 0.84602 0.36942 0.32704 0.0
H471 H 0.91382 0.41368 0.34314 0.0
C472 C 0.88195 0.2962 0.33042 0.0
N473 N 0.86119 0.24997 0.32748 0.0
C474 C 0.88017 0.28602 0.3112 0.0
C475 C 0.87339 0.2829 0.34817 0.0
C476 C 0.86957 0.26261 0.31003 0.0
C477 C 0.86288 0.25955 0.34635 0.0
C478 C 0.86054 0.34614 0.29273 0.0
C479 C 0.84362 0.32818 0.28158 0.0
C480 C 0.86963 0.36796 0.28491 0.0
C481 C 0.83658 0.33226 0.26256 0.0
C482 C 0.86213 0.37137 0.26585 0.0
N483 N 0.84592 0.35359 0.25513 0.0
C484 C 0.8248 0.29363 0.35578 0.0
C485 C 0.82765 0.28118 0.32224 0.0
C486 C 0.80329 0.2752 0.35822 0.0
N487 N 0.8364 0.29638 0.33793 0.0
C488 C 0.80608 0.26257 0.32393 0.0
C489 C 0.79344 0.25959 0.342 0.0
H490 H 0.83206 0.30598 0.36799 0.0
H491 H 0.83727 0.28371 0.30823 0.0
C492 C 0.93373 0.3534 0.28699 0.0
N493 N 0.91097 0.34351 0.28696 0.0
C494 C 0.94517 0.35436 0.26883 0.0
C495 C 0.90944 0.33426 0.25111 0.0
C496 C 0.89872 0.3338 0.2696 0.0
C497 C 0.933 0.34474 0.25055 0.0
H498 H 0.94302 0.36065 0.30115 0.0
H499 H 0.88063 0.32537 0.27015 0.0
O500 O 0.87261 0.34471 0.35792 0.0
O501 O 0.91533 0.36995 0.33043 0.0
O502 O 0.89202 0.31908 0.33183 0.0
O503 O 0.86748 0.3424 0.3115 0.0
H504 H 0.88176 0.3824 0.37716 0.0
H505 H 0.86839 0.31472 0.38607 0.0
H506 H 0.88633 0.38826 0.41522 0.0
H507 H 0.87324 0.32179 0.42398 0.0
H508 H 0.94577 0.42354 0.28019 0.0
H509 H 0.95096 0.39997 0.35133 0.0
H510 H 0.91673 0.38603 0.29262 0.0
H511 H 0.97961 0.43717 0.33781 0.0
H512 H 0.94844 0.38518 0.41026 0.0
H513 H 0.93947 0.31902 0.39977 0.0
H514 H 0.83779 0.40042 0.32812 0.0
H515 H 0.90722 0.4457 0.34443 0.0
H516 H 0.88677 0.29605 0.29733 0.0
H517 H 0.87464 0.29051 0.36316 0.0
H518 H 0.86797 0.25449 0.29525 0.0
H519 H 0.85603 0.24904 0.35994 0.0
H520 H 0.83609 0.31123 0.28745 0.0
H521 H 0.88213 0.3822 0.29355 0.0
H522 H 0.82364 0.31847 0.25371 0.0
H523 H 0.8691 0.38817 0.25963 0.0
H524 H 0.79434 0.27341 0.37256 0.0
H525 H 0.79912 0.25115 0.31092 0.0
H526 H 0.96334 0.36266 0.26908 0.0
H527 H 0.89936 0.32609 0.23752 0.0
Li528 Li 0.35339 0.91387 0.68612 0.0
Li529 Li 0.33081 0.8753 0.67361 0.0
Li530 Li 0.37137 0.89541 0.67258 0.0
Li531 Li 0.35026 0.90646 0.64963 0.0
C532 C 0.36291 0.87985 0.71077 0.0
N533 N 0.38616 0.86643 0.7366 0.0
C534 C 0.35339 0.85734 0.71666 0.0
C535 C 0.38406 0.8956 0.71844 0.0
C536 C 0.36545 0.85087 0.72964 0.0
C537 C 0.39561 0.88848 0.73134 0.0
C538 C 0.30774 0.89872 0.68003 0.0
C539 C 0.27385 0.90082 0.68299 0.0
N540 N 0.27191 0.89435 0.70317 0.0
C541 C 0.30537 0.89206 0.70083 0.0
C542 C 0.29185 0.90315 0.67105 0.0
C543 C 0.28717 0.88996 0.71226 0.0
C544 C 0.34829 0.94977 0.69983 0.0
N545 N 0.35427 0.93458 0.706 0.0
C546 C 0.35755 0.94667 0.74114 0.0
C547 C 0.35909 0.93292 0.72613 0.0
C548 C 0.35082 0.96213 0.73535 0.0
C549 C 0.34655 0.96388 0.71432 0.0
H550 H 0.34422 0.95043 0.68373 0.0
H551 H 0.36328 0.92034 0.73067 0.0
C552 C 0.31086 0.82926 0.67627 0.0
N553 N 0.3055 0.84578 0.67612 0.0
C554 C 0.2941 0.8068 0.67767 0.0
C555 C 0.26634 0.81857 0.67786 0.0
C556 C 0.28371 0.84087 0.67649 0.0
C557 C 0.27148 0.80122 0.67865 0.0
H558 H 0.32828 0.83359 0.67516 0.0
H559 H 0.27966 0.8541 0.67551 0.0
C560 C 0.38841 0.94845 0.66979 0.0
N561 N 0.40824 0.99362 0.67937 0.0
C562 C 0.38379 0.96262 0.65783 0.0
C563 C 0.40335 0.95733 0.68648 0.0
C564 C 0.39393 0.98539 0.66295 0.0
C565 C 0.41312 0.98018 0.69112 0.0
C566 C 0.33736 0.86406 0.63423 0.0
C567 C 0.34413 0.85082 0.62347 0.0
C568 C 0.31731 0.86332 0.62877 0.0
C569 C 0.33073 0.83704 0.60735 0.0
C570 C 0.30438 0.84932 0.61256 0.0
N571 N 0.3113 0.83658 0.60227 0.0
C572 C 0.39132 0.86896 0.67352 0.0
C573 C 0.41758 0.90795 0.676 0.0
C574 C 0.40844 0.86385 0.67543 0.0
N575 N 0.39615 0.89067 0.67401 0.0
C576 C 0.43528 0.9036 0.678 0.0
C577 C 0.43077 0.88127 0.67787 0.0
H578 H 0.37407 0.85562 0.67184 0.0
H579 H 0.42088 0.92506 0.67629 0.0
C580 C 0.33558 0.92583 0.61952 0.0
N581 N 0.34904 0.91694 0.62299 0.0
C582 C 0.33551 0.93483 0.60015 0.0
C583 C 0.36272 0.92479 0.58826 0.0
C584 C 0.3623 0.91603 0.60788 0.0
C585 C 0.34944 0.93464 0.58431 0.0
H586 H 0.32543 0.92649 0.63197 0.0
H587 H 0.37277 0.90879 0.61119 0.0
O588 O 0.35154 0.88644 0.69772 0.0
O589 O 0.32565 0.90136 0.66853 0.0
O590 O 0.37832 0.92601 0.66523 0.0
O591 O 0.35028 0.87747 0.65016 0.0
H592 H 0.33681 0.84499 0.71144 0.0
H593 H 0.39162 0.9131 0.7142 0.0
H594 H 0.35831 0.83347 0.73421 0.0
H595 H 0.41211 0.90048 0.73714 0.0
H596 H 0.26143 0.90418 0.6762 0.0
H597 H 0.31738 0.88851 0.70816 0.0
H598 H 0.29336 0.9083 0.65499 0.0
H599 H 0.28516 0.88485 0.72835 0.0
H600 H 0.36051 0.94441 0.75723 0.0
H601 H 0.3414 0.97563 0.70921 0.0
H602 H 0.29879 0.79392 0.67765 0.0
H603 H 0.24911 0.81496 0.67844 0.0
H604 H 0.37236 0.95613 0.64484 0.0
H605 H 0.40724 0.94671 0.69587 0.0
H606 H 0.39039 0.99651 0.65389 0.0
H607 H 0.42457 0.98723 0.70408 0.0
H608 H 0.35958 0.85117 0.62758 0.0
H609 H 0.31172 0.87336 0.63696 0.0
H610 H 0.33577 0.8267 0.59888 0.0
H611 H 0.28883 0.84857 0.60817 0.0
H612 H 0.40423 0.84642 0.67482 0.0
H613 H 0.45223 0.91751 0.67995 0.0
H614 H 0.32528 0.94256 0.59785 0.0
H615 H 0.37348 0.92405 0.5764 0.0
Li616 Li 0.12202 0.45539 0.68615 0.0
Li617 Li 0.15679 0.4686 0.66684 0.0
Li618 Li 0.1383 0.49092 0.66906 0.0
Li619 Li 0.12238 0.45643 0.6487 0.0
C620 C 0.16342 0.5015 0.70247 0.0
N621 N 0.18756 0.5426 0.72207 0.0
C622 C 0.18672 0.51424 0.70004 0.0
C623 C 0.15242 0.50962 0.71497 0.0
C624 C 0.19862 0.53498 0.71007 0.0
C625 C 0.16491 0.53046 0.7247 0.0
C626 C 0.13982 0.42543 0.66902 0.0
C627 C 0.16119 0.40932 0.65509 0.0
N628 N 0.16176 0.40132 0.67425 0.0
C629 C 0.14062 0.41705 0.68857 0.0
C630 C 0.15015 0.42152 0.65212 0.0
C631 C 0.15178 0.40489 0.69089 0.0
C632 C 0.08861 0.41656 0.70471 0.0
N633 N 0.10485 0.43801 0.70887 0.0
C634 C 0.0955 0.43317 0.74484 0.0
C635 C 0.10855 0.44652 0.72841 0.0
C636 C 0.07869 0.41086 0.74103 0.0
C637 C 0.07522 0.40261 0.72064 0.0
H638 H 0.08616 0.4103 0.68897 0.0
H639 H 0.12175 0.46357 0.73126 0.0
C640 C 0.19751 0.47766 0.64858 0.0
N641 N 0.1852 0.47038 0.66627 0.0
C642 C 0.21907 0.48063 0.64788 0.0
C643 C 0.21481 0.46822 0.68355 0.0
C644 C 0.19325 0.46545 0.68355 0.0
C645 C 0.22815 0.47631 0.66564 0.0
H646 H 0.1908 0.48167 0.63517 0.0
H647 H 0.18314 0.45996 0.69748 0.0
C648 C 0.08605 0.45703 0.67635 0.0
N649 N 0.04431 0.4358 0.69509 0.0
C650 C 0.06852 0.43738 0.66776 0.0
C651 C 0.08232 0.46594 0.69442 0.0
C652 C 0.04755 0.4269 0.67747 0.0
C653 C 0.06111 0.45493 0.70369 0.0
C654 C 0.15012 0.48787 0.62367 0.0
C655 C 0.14452 0.50374 0.6168 0.0
C656 C 0.15352 0.4747 0.60919 0.0
C657 C 0.14234 0.50612 0.59554 0.0
C658 C 0.15111 0.47755 0.58807 0.0
N659 N 0.14562 0.49307 0.58174 0.0
C660 C 0.16535 0.53737 0.66644 0.0
C661 C 0.12739 0.5256 0.67455 0.0
C662 C 0.17114 0.55984 0.668 0.0
N663 N 0.1439 0.52085 0.67008 0.0
C664 C 0.13241 0.54791 0.6761 0.0
C665 C 0.1546 0.56533 0.67308 0.0
H666 H 0.17801 0.53303 0.66256 0.0
H667 H 0.11042 0.5121 0.67708 0.0
C668 C 0.10326 0.42218 0.61833 0.0
N669 N 0.10539 0.44195 0.62487 0.0
C670 C 0.09044 0.4115 0.60079 0.0
C671 C 0.08213 0.44165 0.59731 0.0
C672 C 0.09507 0.45171 0.6149 0.0
C673 C 0.07965 0.42124 0.59009 0.0
H674 H 0.11133 0.41463 0.62683 0.0
H675 H 0.09692 0.46732 0.62066 0.0
O676 O 0.1514 0.48136 0.69244 0.0
O677 O 0.12934 0.43775 0.66649 0.0
O678 O 0.10686 0.46726 0.66735 0.0
O679 O 0.15194 0.48499 0.64445 0.0
H680 H 0.19552 0.50835 0.69031 0.0
H681 H 0.13437 0.50014 0.71682 0.0
H682 H 0.21664 0.54506 0.70825 0.0
H683 H 0.15659 0.53703 0.73426 0.0
H684 H 0.16938 0.4063 0.64219 0.0
H685 H 0.13293 0.4201 0.70187 0.0
H686 H 0.14999 0.42816 0.63694 0.0
H687 H 0.15259 0.39837 0.70594 0.0
H688 H 0.09892 0.44002 0.76041 0.0
H689 H 0.06233 0.38556 0.71705 0.0
H690 H 0.22872 0.48668 0.6337 0.0
H691 H 0.22128 0.46498 0.69766 0.0
H692 H 0.07113 0.43012 0.65389 0.0
H693 H 0.09575 0.48098 0.70143 0.0
H694 H 0.03386 0.41162 0.67105 0.0
H695 H 0.05804 0.46154 0.71776 0.0
H696 H 0.14167 0.51397 0.62775 0.0
H697 H 0.15753 0.4621 0.61423 0.0
H698 H 0.13793 0.51828 0.59001 0.0
H699 H 0.15351 0.46735 0.57672 0.0
H700 H 0.18836 0.57279 0.66517 0.0
H701 H 0.11921 0.5515 0.68005 0.0
H702 H 0.08869 0.39563 0.59588 0.0
H703 H 0.07432 0.44987 0.58936 0.0
Li704 Li 0.55538 0.6987 0.66905 0.0
Li705 Li 0.56977 0.67748 0.68729 0.0
Li706 Li 0.57025 0.67938 0.64974 0.0
Li707 Li 0.53523 0.65767 0.66886 0.0
C708 C 0.59834 0.72668 0.67272 0.0
N709 N 0.6205 0.77241 0.68002 0.0
C710 C 0.60576 0.73498 0.6927 0.0
C711 C 0.60228 0.74163 0.65642 0.0
C712 C 0.61694 0.75817 0.69608 0.0
C713 C 0.61347 0.76469 0.66044 0.0
C714 C 0.5216 0.66875 0.70234 0.0
C715 C 0.49222 0.63902 0.72253 0.0
N716 N 0.47905 0.64833 0.71944 0.0
C717 C 0.50779 0.67806 0.69942 0.0
C718 C 0.5138 0.64912 0.71406 0.0
C719 C 0.48633 0.66749 0.70819 0.0
C720 C 0.54385 0.72939 0.65257 0.0
N721 N 0.55179 0.72433 0.66981 0.0
C722 C 0.55274 0.75494 0.68829 0.0
C723 C 0.55629 0.73663 0.6875 0.0
C724 C 0.54425 0.76036 0.67076 0.0
C725 C 0.54003 0.74747 0.65266 0.0
H726 H 0.54007 0.71914 0.63884 0.0
H727 H 0.56223 0.73195 0.7011 0.0
C728 C 0.60838 0.68344 0.70725 0.0
N729 N 0.58652 0.67734 0.71044 0.0
C730 C 0.62161 0.6837 0.72374 0.0
C731 C 0.58955 0.67136 0.74646 0.0
C732 C 0.57694 0.67139 0.72951 0.0
C733 C 0.61222 0.67771 0.74368 0.0
H734 H 0.6155 0.68817 0.69186 0.0
H735 H 0.55961 0.6669 0.7316 0.0
C736 C 0.53866 0.67622 0.6244 0.0
N737 N 0.53478 0.6712 0.58179 0.0
C738 C 0.52335 0.65548 0.61568 0.0
C739 C 0.55192 0.69444 0.61143 0.0
C740 C 0.52164 0.65329 0.5941 0.0
C741 C 0.54975 0.69155 0.58994 0.0
C742 C 0.57174 0.64225 0.67511 0.0
C743 C 0.59178 0.64596 0.66603 0.0
C744 C 0.56361 0.62879 0.69282 0.0
C745 C 0.60342 0.63623 0.67492 0.0
C746 C 0.57578 0.61941 0.70127 0.0
N747 N 0.59527 0.62329 0.69222 0.0
C748 C 0.60657 0.6981 0.62139 0.0
C749 C 0.57649 0.6618 0.61297 0.0
C750 C 0.61791 0.6986 0.60326 0.0
N751 N 0.58616 0.67999 0.62569 0.0
C752 C 0.58699 0.66177 0.59453 0.0
C753 C 0.60788 0.68038 0.58951 0.0
H754 H 0.61401 0.71214 0.63202 0.0
H755 H 0.56051 0.64742 0.61711 0.0
C756 C 0.48889 0.63555 0.66355 0.0
N757 N 0.50609 0.63204 0.66848 0.0
C758 C 0.4668 0.61791 0.66441 0.0
C759 C 0.48054 0.59314 0.67485 0.0
C760 C 0.50244 0.61133 0.67376 0.0
C761 C 0.46237 0.59641 0.67042 0.0
H762 H 0.49239 0.65221 0.65924 0.0
H763 H 0.51646 0.60901 0.67747 0.0
O764 O 0.58699 0.70402 0.66916 0.0
O765 O 0.54245 0.67853 0.69344 0.0
O766 O 0.5408 0.67863 0.6455 0.0
O767 O 0.56033 0.652 0.66688 0.0
H768 H 0.60271 0.72366 0.70553 0.0
H769 H 0.5965 0.73548 0.64089 0.0
H770 H 0.62269 0.76483 0.71148 0.0
H771 H 0.6165 0.77645 0.64801 0.0
H772 H 0.48589 0.6237 0.73145 0.0
H773 H 0.51343 0.69313 0.69027 0.0
H774 H 0.5241 0.64146 0.71621 0.0
H775 H 0.47543 0.67445 0.70597 0.0
H776 H 0.5559 0.76424 0.70264 0.0
H777 H 0.53364 0.75119 0.63876 0.0
H778 H 0.63899 0.68856 0.72094 0.0
H779 H 0.58181 0.66701 0.76165 0.0
H780 H 0.51307 0.64114 0.62542 0.0
H781 H 0.56405 0.71054 0.61789 0.0
H782 H 0.50993 0.63731 0.58715 0.0
H783 H 0.56003 0.70545 0.57973 0.0
H784 H 0.59839 0.6564 0.65238 0.0
H785 H 0.54831 0.626 0.70023 0.0
H786 H 0.619 0.63904 0.6681 0.0
H787 H 0.56979 0.60913 0.71508 0.0
H788 H 0.63411 0.71313 0.59986 0.0
H789 H 0.579 0.64725 0.58441 0.0
H790 H 0.45334 0.62109 0.66043 0.0
H791 H 0.47784 0.57686 0.6796 0.0
H792 H 0.23385 0.13525 0.01252 0.0
H793 H 0.2215 0.16314 0.01419 0.0
H794 H 0.15527 0.11285 0.99414 0.0
H795 H 0.16726 0.08499 0.99269 0.0
H796 H 0.17447 0.15517 0.97245 0.0
H797 H 0.1775 0.1639 0.05857 0.0
H798 H 0.20218 0.16747 0.04544 0.0
H799 H 0.17726 0.14035 0.04591 0.0
C800 C 0.21663 0.13015 0.0086 0.0
C801 C 0.20155 0.10794 0.00238 0.0
C802 C 0.20964 0.14608 0.00953 0.0
C803 C 0.18748 0.13997 0.00435 0.0
C804 C 0.17249 0.11789 -0.00192 0.0
H805 H 0.0883 0.1729 0.02605 0.0
H806 H 0.11626 0.16092 0.02609 0.0
C807 C 0.17941 0.10202 -0.00284 0.0
C808 C 0.17941 0.15622 0.00548 0.0
H809 H 0.16157 0.18176 0.03982 0.0
C810 C 0.17203 0.16141 0.98711 0.0
C811 C 0.17623 0.16416 0.02468 0.0
C812 C 0.18357 0.15868 0.04486 0.0
C813 C 0.16041 0.17333 0.98751 0.0
C814 C 0.1564 0.1805 0.0068 0.0
C815 C 0.16481 0.17631 0.02508 0.0
C816 C 0.14092 0.18949 0.00852 0.0
C817 C 0.15125 0.17687 0.96745 0.0
C818 C 0.14578 0.20981 -0.00095 0.0
C819 C 0.12969 0.2166 -0.00118 0.0
C820 C 0.10856 0.20315 0.00809 0.0
C821 C 0.10425 0.18337 0.01841 0.0
C822 C 0.12028 0.17662 0.01863 0.0
H823 H 0.15292 0.16728 0.95437 0.0
H824 H 0.13324 0.17174 0.96919 0.0
H825 H 0.16057 0.19497 0.96334 0.0
H826 H 0.16175 0.22009 0.99139 0.0
H827 H 0.13348 0.23192 0.99074 0.0
H828 H 0.82163 0.9236 0.04191 0.0
H829 H 0.83437 0.96364 0.0453 0.0
H830 H 0.82003 0.96635 0.98053 0.0
H831 H 0.80712 0.9262 0.97708 0.0
H832 H 0.87085 0.99427 0.02257 0.0
H833 H 0.79747 0.00537 0.00777 0.0
H834 H 0.7946 0.97861 0.01485 0.0
H835 H 0.80157 0.98874 0.98866 0.0
C836 C 0.82082 0.93267 0.02849 0.0
C837 C 0.81361 0.9219 0.00918 0.0
C838 C 0.82797 0.95547 0.03047 0.0
C839 C 0.82799 0.9679 0.01321 0.0
C840 C 0.8197 0.95695 0.99415 0.0
H841 H 0.8976 0.10689 0.97864 0.0
H842 H 0.87129 0.06656 0.98164 0.0
C843 C 0.81242 0.93406 0.99217 0.0
C844 C 0.83971 0.9927 0.01446 0.0
H845 H 0.83369 0.03856 0.00676 0.0
C846 C 0.86266 0.00396 0.0194 0.0
C847 C 0.829 0.00522 0.01006 0.0
C848 C 0.80425 0.9939 0.00521 0.0
C849 C 0.87539 0.02744 0.01954 0.0
C850 C 0.86474 0.04003 0.01509 0.0
C851 C 0.84172 0.02882 0.01032 0.0
C852 C 0.87774 0.06485 0.01425 0.0
C853 C 0.90032 0.03851 0.02365 0.0
C854 C 0.88936 0.07734 0.03179 0.0
C855 C 0.90472 0.10029 0.03006 0.0
C856 C 0.9085 0.11119 0.01077 0.0
C857 C 0.89549 0.0989 0.9936 0.0
C858 C 0.88027 0.07591 0.99532 0.0
H859 H 0.90663 0.02654 0.02189 0.0
H860 H 0.9099 0.05287 0.01295 0.0
H861 H 0.90383 0.045 0.03979 0.0
H862 H 0.88732 0.06912 0.04663 0.0
H863 H 0.91447 0.10915 0.04359 0.0
H864 H 0.91239 0.79187 0.00289 0.0
H865 H 0.95241 0.80319 0.00342 0.0
H866 H 0.96995 0.87228 0.99434 0.0
H867 H 0.93025 0.86109 0.99349 0.0
H868 H 0.99343 0.85975 0.96889 0.0
H869 H 0.99655 0.83512 0.05056 0.0
H870 H 0.97663 0.81326 0.03389 0.0
H871 H 0.97289 0.83659 0.04035 0.0
C872 C 0.92486 0.80947 0.00109 0.0
C873 C 0.91826 0.82561 -0.00192 0.0
C874 C 0.94766 0.8159 0.00146 0.0
C875 C 0.96413 0.8386 -0.00087 0.0
C876 C 0.95751 0.85466 0.99609 0.0
H877 H 0.09804 0.92428 0.03355 0.0
H878 H 0.05779 0.8981 0.03105 0.0
C879 C 0.93483 0.84825 0.99555 0.0
C880 C 0.98839 0.84604 -0.00029 0.0
H881 H 0.03058 0.85269 0.03212 0.0
C882 C 0.00158 0.85798 0.9826 0.0
C883 C -0.00112 0.84372 0.01768 0.0
C884 C 0.98561 0.83164 0.03676 0.0
C885 C 0.02508 0.86871 0.98332 0.0
C886 C 0.03564 0.86683 0.00146 0.0
C887 C 0.0224 0.85395 0.01821 0.0
C888 C 0.06029 0.88044 0.0043 0.0
C889 C 0.03834 0.88311 0.96514 0.0
C890 C 0.07515 0.8787 0.99053 0.0
C891 C 0.09821 0.89401 0.99164 0.0
C892 C 0.10677 0.91111 0.00673 0.0
C893 C 0.09195 0.91171 0.0214 0.0
C894 C 0.06894 0.89658 0.02014 0.0
H895 H 0.02771 0.88641 0.95434 0.0
H896 H 0.05239 0.89949 0.97053 0.0
H897 H 0.04555 0.87437 0.9563 0.0
H898 H 0.06885 0.86603 0.97847 0.0
H899 H 0.10913 0.89305 0.98009 0.0
H900 H 0.89671 0.46803 0.32025 0.0
H901 H 0.88754 0.49829 0.32109 0.0
H902 H 0.82723 0.45538 0.35558 0.0
H903 H 0.83641 0.4254 0.3551 0.0
H904 H 0.84825 0.49533 0.30448 0.0
H905 H 0.8551 0.51436 0.38832 0.0
H906 H 0.86804 0.49981 0.37646 0.0
H907 H 0.83877 0.48472 0.38352 0.0
C908 C 0.8817 0.46525 0.3283 0.0
C909 C 0.86721 0.44437 0.33757 0.0
C910 C 0.87648 0.48249 0.32872 0.0
C911 C 0.85692 0.47916 0.33869 0.0
C912 C 0.84266 0.45844 0.34818 0.0
H913 H 0.75495 0.50641 0.34567 0.0
H914 H 0.78383 0.49579 0.3463 0.0
C915 C 0.84776 0.44123 0.34767 0.0
C916 C 0.85007 0.49638 0.33786 0.0
H917 H 0.82939 0.52206 0.36877 0.0
C918 C 0.84476 0.50181 0.31847 0.0
C919 C 0.84574 0.50492 0.35614 0.0
C920 C 0.85244 0.50084 0.37727 0.0
C921 C 0.83323 0.51381 0.31704 0.0
C922 C 0.82709 0.52052 0.33543 0.0
C923 C 0.83406 0.51672 0.35471 0.0
C924 C 0.81031 0.52789 0.33521 0.0
C925 C 0.82609 0.51769 0.29603 0.0
C926 C 0.81577 0.54951 0.32875 0.0
C927 C 0.79926 0.55577 0.32856 0.0
C928 C 0.77714 0.54045 0.33485 0.0
C929 C 0.77189 0.51878 0.34117 0.0
C930 C 0.78833 0.51263 0.34143 0.0
H931 H 0.83209 0.51124 0.2832 0.0
H932 H 0.80748 0.50928 0.2953 0.0
H933 H 0.83281 0.53594 0.29364 0.0
H934 H 0.83273 0.56149 0.32396 0.0
H935 H 0.80384 0.57263 0.32374 0.0
H936 H 0.4711 0.25254 0.30131 0.0
H937 H 0.48337 0.2926 0.29836 0.0
H938 H 0.50472 0.30251 0.36229 0.0
H939 H 0.49222 0.26245 0.36548 0.0
H940 H 0.48114 0.32708 0.34659 0.0
H941 H 0.55369 0.33746 0.29942 0.0
H942 H 0.52604 0.31603 0.29156 0.0
H943 H 0.53751 0.31316 0.31562 0.0
C944 C 0.47792 0.26315 0.31487 0.0
C945 C 0.48092 0.25444 0.33358 0.0
C946 C 0.48499 0.286 0.31313 0.0
C947 C 0.49508 0.30042 0.33006 0.0
C948 C 0.49697 0.29158 0.34906 0.0
H949 H 0.57115 0.43928 0.36152 0.0
H950 H 0.54368 0.39912 0.36054 0.0
C951 C 0.49 0.26877 0.3508 0.0
C952 C 0.50572 0.32498 0.32753 0.0
H953 H 0.55231 0.36995 0.30733 0.0
C954 C 0.49657 0.33653 0.33784 0.0
C955 C 0.5258 0.33711 0.31607 0.0
C956 C 0.53652 0.32544 0.30509 0.0
C957 C 0.50721 0.36008 0.33716 0.0
C958 C 0.52777 0.37229 0.32633 0.0
C959 C 0.53651 0.3606 0.31557 0.0
C960 C 0.54149 0.39713 0.327 0.0
C961 C 0.4963 0.37161 0.34802 0.0
C962 C 0.54945 0.40941 0.30849 0.0
C963 C 0.56543 0.43225 0.30904 0.0
C964 C 0.57364 0.44325 0.32811 0.0
C965 C 0.56486 0.43125 0.34663 0.0
C966 C 0.54907 0.40832 0.34607 0.0
H967 H 0.47781 0.36043 0.34904 0.0
H968 H 0.50292 0.37592 0.36408 0.0
H969 H 0.49989 0.38733 0.33992 0.0
H970 H 0.5439 0.4011 0.2936 0.0
H971 H 0.57185 0.4412 0.29456 0.0
H972 H 0.59666 0.18546 0.31933 0.0
H973 H 0.63566 0.19442 0.32024 0.0
H974 H 0.61592 0.13081 0.34954 0.0
H975 H 0.57647 0.12132 0.34824 0.0
H976 H 0.65108 0.1685 0.3699 0.0
H977 H 0.6689 0.16935 0.28617 0.0
H978 H 0.65516 0.18509 0.29189 0.0
H979 H 0.64068 0.15526 0.29651 0.0
C980 C 0.60044 0.17307 0.32551 0.0
C981 C 0.58336 0.15258 0.33357 0.0
C982 C 0.62278 0.17825 0.32603 0.0
C983 C 0.62859 0.1631 0.3346 0.0
C984 C 0.6117 0.14261 0.34268 0.0
H985 H 0.77451 0.21609 0.32771 0.0
H986 H 0.73454 0.1874 0.32745 0.0
C987 C 0.58922 0.13732 0.34206 0.0
C988 C 0.65257 0.16981 0.3365 0.0
H989 H 0.7009 0.1924 0.30822 0.0
C990 C 0.66195 0.17321 0.35642 0.0
C991 C 0.66665 0.17554 0.31891 0.0
C992 C 0.6573 0.1709 0.29716 0.0
C993 C 0.6853 0.18406 0.35921 0.0
C994 C 0.69947 0.19187 0.34163 0.0
C995 C 0.69 0.18665 0.3217 0.0
C996 C 0.72379 0.20802 0.34352 0.0
C997 C 0.69461 0.18789 0.38095 0.0
C998 C 0.73088 0.22909 0.35251 0.0
C999 C 0.75352 0.24555 0.35244 0.0
C1000 C 0.76963 0.2413 0.34335 0.0
C1001 C 0.76252 0.21998 0.33467 0.0
C1002 C 0.73975 0.20352 0.33464 0.0
H1003 H 0.68256 0.17481 0.39175 0.0
H1004 H 0.71077 0.18792 0.38145 0.0
H1005 H 0.69762 0.20443 0.38659 0.0
H1006 H 0.71876 0.23315 0.35889 0.0
H1007 H 0.75824 0.2619 0.35881 0.0
H1008 H 0.43027 0.84727 0.7002 0.0
H1009 H 0.45852 0.83581 0.70052 0.0
H1010 H 0.50148 0.89212 0.66144 0.0
H1011 H 0.47268 0.90313 0.66022 0.0
H1012 H 0.49692 0.85449 0.6462 0.0
H1013 H 0.51748 0.85761 0.72916 0.0
H1014 H 0.48765 0.84166 0.72572 0.0
H1015 H 0.50268 0.87107 0.71898 0.0
C1016 C 0.44576 0.8573 0.69173 0.0
C1017 C 0.44913 0.87598 0.68 0.0
C1018 C 0.4621 0.85095 0.69223 0.0
C1019 C 0.48232 0.86334 0.68132 0.0
C1020 C 0.48609 0.88246 0.67015 0.0
H1021 H 0.56865 0.80233 0.68813 0.0
H1022 H 0.55833 0.83173 0.68983 0.0
C1023 C 0.46966 0.88877 0.66954 0.0
C1024 C 0.49806 0.85459 0.67964 0.0
H1025 H 0.5219 0.83028 0.70834 0.0
C1026 C 0.50286 0.8497 0.6598 0.0
C1027 C 0.50627 0.84876 0.69731 0.0
C1028 C 0.50345 0.85531 0.71896 0.0
C1029 C 0.51398 0.83746 0.65722 0.0
C1030 C 0.51993 0.82947 0.67495 0.0
C1031 C 0.5169 0.83602 0.69475 0.0
C1032 C 0.52695 0.81239 0.67331 0.0
C1033 C 0.51859 0.83261 0.6355 0.0
C1034 C 0.51255 0.79171 0.66381 0.0
C1035 C 0.51833 0.77499 0.66286 0.0
C1036 C 0.53857 0.7785 0.67158 0.0
C1037 C 0.55291 0.79914 0.68133 0.0
C1038 C 0.54711 0.81596 0.68222 0.0
H1039 H 0.52068 0.84602 0.62456 0.0
H1040 H 0.53391 0.83108 0.63493 0.0
H1041 H 0.5041 0.81658 0.63006 0.0
H1042 H 0.49656 0.78831 0.65745 0.0
H1043 H 0.50666 0.75909 0.6557 0.0
H1044 H 0.2314 0.77998 0.65771 0.0
H1045 H 0.20316 0.73989 0.65855 0.0
H1046 H 0.24331 0.72854 0.70307 0.0
H1047 H 0.27112 0.76849 0.70281 0.0
H1048 H 0.21075 0.70607 0.64711 0.0
H1049 H 0.18127 0.69306 0.72831 0.0
H1050 H 0.19645 0.72063 0.71668 0.0
H1051 H 0.21135 0.70742 0.727 0.0
C1052 C 0.23392 0.769 0.66804 0.0
C1053 C 0.2535 0.77736 0.68016 0.0
C1054 C 0.21783 0.74612 0.66843 0.0
C1055 C 0.22096 0.73131 0.68112 0.0
C1056 C 0.24027 0.73973 0.69354 0.0
H1057 H 0.19054 0.59833 0.69368 0.0
H1058 H 0.20235 0.63825 0.69545 0.0
C1059 C 0.25632 0.76252 0.69315 0.0
C1060 C 0.20541 0.70676 0.67996 0.0
H1061 H 0.17708 0.66014 0.71031 0.0
C1062 C 0.20289 0.69602 0.66081 0.0
C1063 C 0.19512 0.69372 0.69785 0.0
C1064 C 0.19599 0.70434 0.71856 0.0
C1065 C 0.19174 0.67251 0.65937 0.0
C1066 C 0.18276 0.65953 0.67754 0.0
C1067 C 0.18413 0.67022 0.69645 0.0
C1068 C 0.17426 0.6351 0.67758 0.0
C1069 C 0.19086 0.66173 0.63873 0.0
C1070 C 0.15435 0.62012 0.66724 0.0
C1071 C 0.14758 0.59727 0.66616 0.0
C1072 C 0.16073 0.58917 0.67532 0.0
C1073 C 0.18029 0.60417 0.68619 0.0
C1074 C 0.18695 0.62691 0.68735 0.0
H1075 H 0.20085 0.67432 0.62663 0.0
H1076 H 0.19725 0.64982 0.64034 0.0
H1077 H 0.17317 0.65202 0.63337 0.0
H1078 H 0.14429 0.62618 0.65973 0.0
H1079 H 0.13245 0.58607 0.65765 0.0
H1080 H 0.24621 0.45207 0.68248 0.0
H1081 H 0.28613 0.46307 0.6842 0.0
H1082 H 0.30347 0.52439 0.65148 0.0
H1083 H 0.26398 0.51364 0.64971 0.0
H1084 H 0.32612 0.50266 0.63698 0.0
H1085 H 0.33132 0.51276 0.72298 0.0
H1086 H 0.31079 0.48589 0.71267 0.0
H1087 H 0.30766 0.50997 0.70838 0.0
C1088 C 0.25859 0.46788 0.67565 0.0
C1089 C 0.25197 0.48198 0.66592 0.0
C1090 C 0.28133 0.47411 0.67665 0.0
C1091 C 0.29771 0.4946 0.66809 0.0
C1092 C 0.29106 0.50843 0.65806 0.0
H1093 H 0.42682 0.59814 0.68693 0.0
H1094 H 0.3875 0.56861 0.68721 0.0
C1095 C 0.26846 0.50222 0.657 0.0
C1096 C 0.32197 0.50254 0.67007 0.0
H1097 H 0.36511 0.52607 0.70487 0.0
C1098 C 0.3347 0.50737 0.65183 0.0
C1099 C 0.33299 0.50865 0.6895 0.0
C1100 C 0.32011 0.50422 0.70955 0.0
C1101 C 0.35825 0.51958 0.65237 0.0
C1102 C 0.36927 0.52671 0.67174 0.0
C1103 C 0.35655 0.5205 0.69007 0.0
C1104 C 0.39348 0.5435 0.67311 0.0
C1105 C 0.37102 0.5262 0.63214 0.0
C1106 C 0.40995 0.53902 0.66546 0.0
C1107 C 0.4325 0.55605 0.66497 0.0
C1108 C 0.43886 0.57775 0.67223 0.0
C1109 C 0.42239 0.58178 0.68076 0.0
C1110 C 0.39995 0.56484 0.68115 0.0
H1111 H 0.35974 0.52223 0.61852 0.0
H1112 H 0.38345 0.54446 0.63198 0.0
H1113 H 0.38032 0.51696 0.63038 0.0
H1114 H 0.40532 0.52254 0.65948 0.0
H1115 H 0.44481 0.55243 0.65833 0.0
H1116 H 0.02687 0.27058 0.88059 0.0
H1117 H 0.03114 0.29374 0.85017 0.0
H1118 H 0.00343 0.32808 0.88447 0.0
H1119 H -0.00058 0.30524 0.9151 0.0
H1120 H -0.00302 0.30176 0.82853 0.0
H1121 H 0.06841 0.3773 0.86511 0.0
H1122 H 0.05927 0.3492 0.87427 0.0
H1123 H 0.04279 0.36218 0.87972 0.0
C1124 C 0.02163 0.28303 0.88162 0.0
C1125 C 0.01299 0.28626 0.90022 0.0
C1126 C 0.02391 0.29608 0.86423 0.0
C1127 C 0.01772 0.31263 0.86524 0.0
C1128 C 0.00837 0.31541 0.88352 0.0
H1129 H 0.05972 0.42048 0.77389 0.0
H1130 H 0.04058 0.3964 0.80381 0.0
C1131 C 0.00599 0.30229 0.90092 0.0
C1132 C 0.02247 0.32785 0.84749 0.0
H1133 H 0.05957 0.38071 0.8307 0.0
C1134 C 0.01047 0.31911 0.829 0.0
C1135 C 0.03996 0.35047 0.84834 0.0
C1136 C 0.05351 0.36046 0.86785 0.0
C1137 C 0.01595 0.33233 0.81104 0.0
C1138 C 0.03424 0.35462 0.81158 0.0
C1139 C 0.04556 0.36362 0.83035 0.0
C1140 C 0.04337 0.36822 0.79257 0.0
C1141 C 0.00228 0.32224 0.79163 0.0
C1142 C 0.05127 0.36033 0.77642 0.0
C1143 C 0.06218 0.374 0.75942 0.0
C1144 C 0.06563 0.39592 0.75837 0.0
C1145 C 0.05742 0.4037 0.7744 0.0
C1146 C 0.0464 0.38995 0.79139 0.0
H1147 H 0.98493 0.3088 0.79544 0.0
H1148 H 0.00138 0.33517 0.78203 0.0
H1149 H 0.01021 0.31453 0.78228 0.0
H1150 H 0.04976 0.3439 0.77733 0.0
H1151 H 0.06869 0.3677 0.74749 0.0
H1152 H 0.71118 0.70713 0.92176 0.0
H1153 H 0.68853 0.68667 0.8915 0.0
H1154 H 0.7301 0.74362 0.85255 0.0
H1155 H 0.75299 0.76397 0.88257 0.0
H1156 H 0.66495 0.70223 0.86771 0.0
H1157 H 0.72429 0.69022 0.81883 0.0
H1158 H 0.72876 0.69635 0.84626 0.0
H1159 H 0.73579 0.71859 0.82785 0.0
C1160 C 0.71576 0.71506 0.90665 0.0
C1161 C 0.73378 0.73715 0.90447 0.0
C1162 C 0.7028 0.70339 0.88944 0.0
C1163 C 0.70788 0.71353 0.8698 0.0
C1164 C 0.72621 0.73534 0.86751 0.0
H1165 H 0.65464 0.7113 0.75243 0.0
H1166 H 0.67685 0.71554 0.78342 0.0
C1167 C 0.73908 0.74704 0.8847 0.0
C1168 C 0.69272 0.7025 0.85205 0.0
H1169 H 0.6924 0.68831 0.80131 0.0
C1170 C 0.67072 0.69868 0.8533 0.0
C1171 C 0.7004 0.69796 0.83335 0.0
C1172 C 0.72355 0.70078 0.83151 0.0
C1173 C 0.65663 0.69187 0.83587 0.0
C1174 C 0.66471 0.68837 0.81687 0.0
C1175 C 0.68631 0.69106 0.81591 0.0
C1176 C 0.65191 0.68428 0.7974 0.0
C1177 C 0.63379 0.68985 0.83762 0.0
C1178 C 0.63076 0.66504 0.79483 0.0
C1179 C 0.61798 0.66259 0.77714 0.0
C1180 C 0.6263 0.67927 0.76168 0.0
C1181 C 0.64788 0.69807 0.76397 0.0
C1182 C 0.66056 0.70054 0.78167 0.0
H1183 H 0.63183 0.6971 0.85234 0.0
H1184 H 0.63082 0.69844 0.82444 0.0
H1185 H 0.62063 0.67184 0.83715 0.0
H1186 H 0.62399 0.65213 0.80667 0.0
H1187 H 0.60154 0.64776 0.7756 0.0
H1188 H 0.37548 0.98274 0.77017 0.0
H1189 H 0.364 0.99742 0.79947 0.0
H1190 H 0.30423 0.9844 0.76623 0.0
H1191 H 0.31518 0.96917 0.73717 0.0
H1192 H 0.34937 0.03203 0.80294 0.0
H1193 H 0.2835 0.94381 0.81984 0.0
H1194 H 0.30715 0.95067 0.80315 0.0
H1195 H 0.28404 0.9534 0.79378 0.0
C1196 C 0.36002 0.98325 0.76902 0.0
C1197 C 0.34611 0.97458 0.75147 0.0
C1198 C 0.35361 0.99179 0.78567 0.0
C1199 C 0.3332 0.99172 0.78498 0.0
C1200 C 0.32 0.98445 0.76699 0.0
H1201 H 0.25072 0.00159 0.88066 0.0
H1202 H 0.26667 -0.00056 0.84742 0.0
C1203 C 0.32637 0.9759 0.75037 0.0
C1204 C 0.32451 0.99688 0.80383 0.0
H1205 H 0.28416 0.97201 0.84096 0.0
C1206 C 0.3351 0.019 0.8113 0.0
C1207 C 0.30598 0.97971 0.81462 0.0
C1208 C 0.29455 0.95551 0.8076 0.0
C1209 C 0.32732 0.02449 0.82927 0.0
C1210 C 0.30879 0.00727 0.84008 0.0
C1211 C 0.29827 0.98518 0.83254 0.0
C1212 C 0.30013 0.01143 0.85955 0.0
C1213 C 0.33873 0.04863 0.83634 0.0
C1214 C 0.31375 0.01907 0.87731 0.0
C1215 C 0.30467 0.02031 0.89632 0.0
C1216 C 0.28178 0.01363 0.89786 0.0
C1217 C 0.26835 0.00655 0.87993 0.0
C1218 C 0.27745 0.00546 0.86095 0.0
H1219 H 0.34824 0.06039 0.82352 0.0
H1220 H 0.32633 0.05301 0.84252 0.0
H1221 H 0.3508 0.05114 0.84891 0.0
H1222 H 0.33115 0.02323 0.87666 0.0
H1223 H 0.31532 0.0256 0.90995 0.0
H1224 H 0.37292 0.07746 0.24419 0.0
H1225 H 0.35288 0.05871 0.21249 0.0
H1226 H 0.40306 0.04042 0.19874 0.0
H1227 H 0.42353 0.05962 0.23039 0.0
H1228 H 0.39446 0.06146 0.16605 0.0
H1229 H 0.31503 0.99214 0.19732 0.0
H1230 H 0.32209 0.01863 0.20884 0.0
H1231 H 0.34018 0.00702 0.21286 0.0
C1232 C 0.37963 0.06935 0.23447 0.0
C1233 C 0.39982 0.07007 0.23968 0.0
C1234 C 0.36802 0.05839 0.21652 0.0
C1235 C 0.3763 0.04786 0.2035 0.0
C1236 C 0.39628 0.04823 0.20877 0.0
H1237 H 0.29299 0.98574 0.09267 0.0
H1238 H 0.31726 0.99 0.12234 0.0
C1239 C 0.4079 0.05914 0.22683 0.0
C1240 C 0.36509 0.03847 0.18347 0.0
H1241 H 0.31339 0.00444 0.16242 0.0
C1242 C 0.37687 0.0486 0.16518 0.0
C1243 C 0.34227 0.02146 0.18237 0.0
C1244 C 0.32922 0.00902 0.2014 0.0
C1245 C 0.36591 0.04344 0.14594 0.0
C1246 C 0.34259 0.02799 0.14513 0.0
C1247 C 0.33123 0.01651 0.16316 0.0
C1248 C 0.32925 0.02547 0.12635 0.0
C1249 C 0.37918 0.05517 0.12676 0.0
C1250 C 0.32792 0.04397 0.11899 0.0
C1251 C 0.31411 0.04159 0.10222 0.0
C1252 C 0.30131 0.02062 0.09254 0.0
C1253 C 0.30285 0.00213 0.09977 0.0
C1254 C 0.31661 0.00451 0.11668 0.0
H1255 H 0.39724 0.06055 0.12869 0.0
H1256 H 0.37257 0.04412 0.11292 0.0
H1257 H 0.37792 0.07042 0.12391 0.0
H1258 H 0.33722 0.06019 0.12653 0.0
H1259 H 0.31341 0.05616 0.09685 0.0
H1260 H 0.03177 0.29905 0.1092 0.0
H1261 H 0.02099 0.31446 0.13832 0.0
H1262 H 0.9736 0.32076 0.09911 0.0
H1263 H 0.98326 0.30425 0.0703 0.0
H1264 H 0.01987 0.35412 0.14523 0.0
H1265 H 0.93425 0.27902 0.14514 0.0
H1266 H 0.95707 0.28032 0.13027 0.0
H1267 H 0.94223 0.29394 0.12095 0.0
C1268 C 0.01904 0.30369 0.10677 0.0
C1269 C 0.00814 0.30006 0.08749 0.0
C1270 C 0.01307 0.31269 0.12336 0.0
C1271 C 0.99619 0.31829 0.12091 0.0
C1272 C 0.98637 0.31612 0.10137 0.0
H1273 H 0.92347 0.35164 0.21092 0.0
H1274 H 0.94056 0.34842 0.17877 0.0
C1275 C 0.99213 0.30692 0.08485 0.0
C1276 C 0.98773 0.32481 0.13913 0.0
H1277 H 0.9409 0.30786 0.16879 0.0
C1278 C 0.0026 0.34408 0.15038 0.0
C1279 C 0.96522 0.31153 0.14583 0.0
C1280 C 0.9488 0.28994 0.13506 0.0
C1281 C 0.99546 0.35049 0.16819 0.0
C1282 C 0.97298 0.33718 0.17483 0.0
C1283 C 0.95808 0.3181 0.16346 0.0
C1284 C 0.96466 0.34188 0.19418 0.0
C1285 C 0.0119 0.37142 0.17974 0.0
C1286 C 0.97266 0.3393 0.21339 0.0
C1287 C 0.96277 0.34083 0.23175 0.0
C1288 C 0.94466 0.3449 0.23117 0.0
C1289 C 0.93716 0.34815 0.21186 0.0
C1290 C 0.94701 0.34652 0.19352 0.0
H1291 H 0.02676 0.38253 0.17007 0.0
H1292 H 0.00374 0.38103 0.18491 0.0
H1293 H 0.01788 0.36657 0.19375 0.0
H1294 H 0.98595 0.33521 0.21415 0.0
H1295 H 0.96872 0.33791 0.24634 0.0
H1296 H 0.67101 0.60744 0.217 0.0
H1297 H 0.67758 0.63331 0.18822 0.0
H1298 H 0.69702 0.68769 0.23164 0.0
H1299 H 0.69075 0.66202 0.26052 0.0
H1300 H 0.66078 0.66715 0.1812 0.0
H1301 H 0.75292 0.70267 0.19211 0.0
H1302 H 0.73257 0.67534 0.20195 0.0
H1303 H 0.73628 0.70022 0.21457 0.0
C1304 C 0.67649 0.62487 0.2204 0.0
C1305 C 0.68058 0.63279 0.24095 0.0
C1306 C 0.68004 0.63953 0.20401 0.0
C1307 C 0.68784 0.66231 0.20793 0.0
C1308 C 0.69097 0.6701 0.22842 0.0
H1309 H 0.75396 0.77099 0.1189 0.0
H1310 H 0.73666 0.75045 0.15093 0.0
C1311 C 0.68732 0.65543 0.24485 0.0
C1312 C 0.69482 0.67822 0.19047 0.0
H1313 H 0.74144 0.71656 0.16441 0.0
C1314 C 0.67839 0.67815 0.17755 0.0
C1315 C 0.7178 0.69247 0.18594 0.0
C1316 C 0.73602 0.69274 0.19924 0.0
C1317 C 0.68441 0.69199 0.15994 0.0
C1318 C 0.70743 0.7057 0.15499 0.0
C1319 C 0.72381 0.70609 0.16827 0.0
C1320 C 0.71514 0.71879 0.13553 0.0
C1321 C 0.66612 0.6918 0.14687 0.0
C1322 C 0.70854 0.70786 0.11626 0.0
C1323 C 0.71829 0.71959 0.09797 0.0
C1324 C 0.73509 0.74232 0.09873 0.0
C1325 C 0.74118 0.75341 0.11796 0.0
C1326 C 0.73126 0.74174 0.1362 0.0
H1327 H 0.65069 0.68674 0.15615 0.0
H1328 H 0.67167 0.70855 0.1399 0.0
H1329 H 0.66166 0.67942 0.13414 0.0
H1330 H 0.69661 0.69003 0.1154 0.0
H1331 H 0.71351 0.71062 0.08335 0.0
H1332 H 0.03902 0.4167 0.58021 0.0
H1333 H 0.01733 0.40099 0.54844 0.0
H1334 H 0.06682 0.38491 0.52639 0.0
H1335 H 0.08895 0.40098 0.55806 0.0
H1336 H 0.03765 0.4181 0.50699 0.0
H1337 H 0.00306 0.32612 0.51809 0.0
H1338 H 0.0116 0.34541 0.53973 0.0
H1339 H 0.03242 0.34491 0.52337 0.0
C1340 C 0.04531 0.40983 0.56861 0.0
C1341 C 0.06577 0.41024 0.57153 0.0
C1342 C 0.03283 0.40072 0.55059 0.0
C1343 C 0.04047 0.39171 0.53526 0.0
C1344 C 0.06056 0.39153 0.53826 0.0
H1345 H 0.9796 0.34301 0.41277 0.0
H1346 H 0.0037 0.35116 0.44347 0.0
C1347 C 0.07313 0.4007 0.55632 0.0
C1348 C 0.02815 0.3842 0.5155 0.0
H1349 H 0.99279 0.33758 0.48747 0.0
C1350 C 0.02797 0.40052 0.50261 0.0
C1351 C 0.0158 0.36129 0.50988 0.0
C1352 C 0.01553 0.34329 0.52346 0.0
C1353 C 0.01523 0.39447 0.48439 0.0
C1354 C 0.00204 0.37148 0.4792 0.0
C1355 C 0.00287 0.35517 0.49165 0.0
C1356 C 0.9863 0.36424 0.46157 0.0
C1357 C 0.01578 0.41272 0.47093 0.0
C1358 C 0.96823 0.36826 0.46201 0.0
C1359 C 0.95457 0.36368 0.44465 0.0
C1360 C 0.9587 0.3549 0.42658 0.0
C1361 C 0.97609 0.34977 0.42653 0.0
C1362 C 0.98984 0.35443 0.44397 0.0
H1363 H 0.03097 0.42927 0.47398 0.0
H1364 H 0.01541 0.40862 0.45421 0.0
H1365 H 0.00079 0.41428 0.47431 0.0
H1366 H 0.96505 0.37546 0.47565 0.0
H1367 H 0.94098 0.36735 0.44523 0.0
H1368 H 0.67466 0.59862 0.45218 0.0
H1369 H 0.66785 0.61612 0.48227 0.0
H1370 H 0.67127 0.66857 0.44298 0.0
H1371 H 0.67853 0.65133 0.41286 0.0
H1372 H 0.69084 0.6839 0.48263 0.0
H1373 H 0.60528 0.60928 0.48704 0.0
H1374 H 0.6273 0.60252 0.48852 0.0
H1375 H 0.62359 0.6146 0.46514 0.0
C1376 C 0.67425 0.61405 0.45006 0.0
C1377 C 0.6768 0.6235 0.43024 0.0
C1378 C 0.67037 0.624 0.46719 0.0
C1379 C 0.66859 0.64333 0.46469 0.0
C1380 C 0.67252 0.6536 0.44515 0.0
H1381 H 0.59065 0.673 0.55059 0.0
H1382 H 0.60738 0.66811 0.51894 0.0
C1383 C 0.67666 0.64377 0.42801 0.0
C1384 C 0.66064 0.65155 0.48204 0.0
H1385 H 0.61626 0.63527 0.51475 0.0
C1386 C 0.67451 0.67338 0.48965 0.0
C1387 C 0.63913 0.6379 0.49078 0.0
C1388 C 0.62285 0.61486 0.48234 0.0
C1389 C 0.66759 0.68173 0.50624 0.0
C1390 C 0.64646 0.66766 0.51557 0.0
C1391 C 0.6325 0.64602 0.50763 0.0
C1392 C 0.63832 0.67458 0.53381 0.0
C1393 C 0.68279 0.70556 0.51341 0.0
C1394 C 0.65041 0.6804 0.55252 0.0
C1395 C 0.64097 0.68348 0.57054 0.0
C1396 C 0.61917 0.68033 0.57011 0.0
C1397 C 0.60744 0.67535 0.55125 0.0
C1398 C 0.617 0.67262 0.53322 0.0
H1399 H 0.69456 0.71601 0.50095 0.0
H1400 H 0.67296 0.7135 0.5185 0.0
H1401 H 0.69298 0.70548 0.52674 0.0
H1402 H 0.66663 0.68145 0.55346 0.0
H1403 H 0.65019 0.68713 0.585 0.0
H1404 H 0.31536 0.93356 0.56125 0.0
H1405 H 0.3188 0.95391 0.52894 0.0
H1406 H 0.3906 0.98149 0.53004 0.0
H1407 H 0.38738 0.96148 0.56223 0.0
H1408 H 0.3431 0.00022 0.52278 0.0
H1409 H 0.37371 0.95708 0.47101 0.0
H1410 H 0.36062 0.94559 0.49573 0.0
H1411 H 0.38986 0.96678 0.49446 0.0
C1412 C 0.33186 0.94392 0.55454 0.0
C1413 C 0.35109 0.9458 0.56419 0.0
C1414 C 0.33377 0.95542 0.53608 0.0
C1415 C 0.3549 0.96885 0.52697 0.0
C1416 C 0.37408 0.97073 0.53655 0.0
H1417 H 0.41425 0.08532 0.45251 0.0
H1418 H 0.39619 0.0572 0.47973 0.0
C1419 C 0.3722 0.95926 0.55494 0.0
C1420 C 0.35733 0.98203 0.50807 0.0
H1421 H 0.38135 0.99375 0.46011 0.0
C1422 C 0.35109 -0.00142 0.5089 0.0
C1423 C 0.36737 0.97957 0.48989 0.0
C1424 C 0.37306 0.96112 0.4876 0.0
C1425 C 0.35593 0.01368 0.49245 0.0
C1426 C 0.36765 0.01237 0.47498 0.0
C1427 C 0.3726 0.99492 0.47364 0.0
C1428 C 0.37646 0.02976 0.4586 0.0
C1429 C 0.34877 0.03109 0.4941 0.0
C1430 C 0.37155 0.02364 0.43768 0.0
C1431 C 0.3822 0.03959 0.42207 0.0
C1432 C 0.39801 0.06196 0.42711 0.0
C1433 C 0.40233 0.06819 0.44812 0.0
C1434 C 0.39176 0.0522 0.46371 0.0
H1435 H 0.33384 0.02521 0.50431 0.0
H1436 H 0.36263 0.04664 0.50105 0.0
H1437 H 0.34476 0.0353 0.47863 0.0
H1438 H 0.35996 0.00635 0.43342 0.0
H1439 H 0.37873 0.03415 0.40606 0.0
loop_
_geom_bond_atom_site_label_1
_geom_bond_atom_site_label_2
_geom_bond_distance
_geom_bond_site_symmetry_2
_ccdc_geom_bond_type
Li0 N17 1.990 . S
Li0 O60 1.956 . S
Li0 O61 2.012 1_455 S
Li0 O62 1.961 . S
Li1 N25 1.986 1_554 S
Li1 O60 1.989 1_655 S
Li1 O61 1.956 . S
Li1 O63 1.949 1_654 S
Li2 N47 1.990 . S
Li2 O60 1.961 . S
Li2 O62 1.956 . S
Li2 O63 1.970 1_554 S
Li3 N53 1.990 . S
Li3 O61 1.934 1_456 S
Li3 O62 1.970 1_556 S
Li3 O63 1.956 . S
C4 C6 1.348 1_455 S
C4 C7 1.356 . S
C4 O60 1.325 . S
N5 C8 1.314 . S
N5 C9 1.279 1_655 S
C6 C4 1.348 1_655 S
C6 C8 1.353 . S
C6 H64 0.929 . S
C7 C4 1.356 . S
C7 C9 1.358 . S
C7 H65 0.930 . S
C8 N5 1.314 . S
C8 C6 1.353 . S
C8 H66 0.930 . S
C9 N5 1.279 1_455 S
C9 C7 1.358 . S
C9 H67 0.930 . S
C10 C13 1.348 1_556 S
C10 C14 1.356 . S
C10 O61 1.317 1_556 S
C11 N12 1.279 . S
C11 C14 1.358 . S
C11 H68 0.930 . S
N12 C11 1.279 . S
N12 C15 1.314 1_556 S
C13 C10 1.348 1_554 S
C13 C15 1.353 . S
C13 H69 0.929 . S
C14 C10 1.356 . S
C14 C11 1.358 . S
C14 H70 0.930 . S
C15 N12 1.314 1_554 S
C15 C13 1.353 . S
C15 H71 0.930 . S
C16 N17 1.314 . S
C16 C21 1.353 . S
C16 H22 0.930 . S
N17 Li0 1.990 . S
N17 C16 1.314 . S
N17 C19 1.279 1_455 S
C18 C19 1.358 . S
C18 C20 1.356 . S
C18 H72 0.930 . S
C19 N17 1.279 1_655 S
C19 C18 1.358 . S
C19 H23 0.930 . S
C20 C18 1.356 . S
C20 C21 1.348 1_655 S
C21 C16 1.353 . S
C21 C20 1.348 1_455 S
C21 H73 0.929 . S
H22 C16 0.930 . S
H23 C19 0.930 . S
C24 N25 1.314 . S
C24 C26 1.353 . S
C24 H30 0.930 . S
N25 Li1 1.986 1_556 S
N25 C24 1.314 . S
N25 C28 1.279 . S
C26 C24 1.353 . S
C26 C29 1.348 . S
C26 H74 0.929 . S
C27 C28 1.358 . S
C27 C29 1.356 . S
C27 H75 0.930 . S
C28 N25 1.279 . S
C28 C27 1.358 . S
C28 H31 0.930 . S
C29 C26 1.348 . S
C29 C27 1.356 . S
H30 C24 0.930 . S
H31 C28 0.930 . S
C32 C34 1.348 1_554 S
C32 C35 1.356 . S
C32 O62 1.325 . S
N33 C36 1.314 . S
N33 C37 1.279 . S
C34 C32 1.348 1_556 S
C34 C36 1.353 1_556 S
C34 H76 0.929 . S
C35 C32 1.356 . S
C35 C37 1.358 . S
C35 H77 0.930 . S
C36 N33 1.314 . S
C36 C34 1.353 1_554 S
C36 H78 0.930 1_554 S
C37 N33 1.279 . S
C37 C35 1.358 . S
C37 H79 0.930 . S
C38 C39 1.348 . S
C38 C40 1.356 . S
C38 O63 1.325 . S
C39 C38 1.348 . S
C39 C41 1.353 . S
C39 H80 0.929 . S
C40 C38 1.356 . S
C40 C42 1.358 . S
C40 H81 0.930 1_455 S
C41 C39 1.353 . S
C41 N43 1.314 . S
C41 H82 0.930 . S
C42 C40 1.358 . S
C42 N43 1.279 . S
C42 H83 0.934 . S
N43 C41 1.314 . S
N43 C42 1.279 . S
C44 C46 1.353 . S
C44 N47 1.314 . S
C44 H50 0.930 . S
C45 N47 1.279 . S
C45 C48 1.358 . S
C45 H51 0.930 . S
C46 C44 1.353 . S
C46 C49 1.348 . S
C46 H84 0.929 . S
N47 Li2 1.990 . S
N47 C44 1.314 . S
N47 C45 1.279 . S
C48 C45 1.358 . S
C48 C49 1.356 . S
C48 H85 0.930 . S
C49 C46 1.348 . S
C49 C48 1.356 . S
H50 C44 0.930 . S
H51 C45 0.930 . S
C52 N53 1.314 . S
C52 C54 1.353 . S
C52 H58 0.930 . S
N53 Li3 1.990 . S
N53 C52 1.314 . S
N53 C56 1.279 . S
C54 C52 1.353 . S
C54 C57 1.348 . S
C54 H86 0.929 . S
C55 C56 1.358 . S
C55 C57 1.356 . S
C55 H87 0.930 . S
C56 N53 1.279 . S
C56 C55 1.358 . S
C56 H59 0.930 . S
C57 C54 1.348 . S
C57 C55 1.356 . S
H58 C52 0.930 . S
H59 C56 0.930 . S
O60 Li0 1.956 . S
O60 Li1 1.989 1_455 S
O60 Li2 1.961 . S
O60 C4 1.325 . S
O61 Li0 2.012 1_655 S
O61 Li1 1.956 . S
O61 Li3 1.934 1_654 S
O61 C10 1.317 1_554 S
O62 Li0 1.961 . S
O62 Li2 1.956 . S
O62 Li3 1.970 1_554 S
O62 C32 1.325 . S
O63 Li1 1.949 1_456 S
O63 Li2 1.970 1_556 S
O63 Li3 1.956 . S
O63 C38 1.325 . S
H64 C6 0.929 . S
H65 C7 0.930 . S
H66 C8 0.930 . S
H67 C9 0.930 . S
H68 C11 0.930 . S
H69 C13 0.929 . S
H70 C14 0.930 . S
H71 C15 0.930 . S
H72 C18 0.930 . S
H73 C21 0.929 . S
H74 C26 0.929 . S
H75 C27 0.930 . S
H76 C34 0.929 . S
H77 C35 0.930 . S
H78 C36 0.930 1_556 S
H79 C37 0.930 . S
H80 C39 0.929 . S
H81 C40 0.930 1_655 S
H82 C41 0.930 . S
H83 C42 0.934 . S
H84 C46 0.929 . S
H85 C48 0.930 . S
H86 C54 0.929 . S
H87 C55 0.930 . S
Li88 N105 1.986 1_554 S
Li88 O148 1.956 . S
Li88 O149 1.989 . S
Li88 O150 1.949 1_554 S
Li89 N113 1.990 . S
Li89 O148 2.012 . S
Li89 O149 1.956 . S
Li89 O151 1.961 . S
Li90 N135 1.990 . S
Li90 O148 1.934 1_556 S
Li90 O150 1.956 . S
Li90 O151 1.970 1_556 S
Li91 N141 1.990 . S
Li91 O149 1.961 . S
Li91 O150 1.970 1_554 S
Li91 O151 1.956 . S
C92 C94 1.348 1_556 S
C92 C95 1.356 . S
C92 O148 1.317 1_556 S
N93 C96 1.314 1_556 S
N93 C97 1.279 . S
C94 C92 1.348 1_554 S
C94 C96 1.353 . S
C94 H152 0.929 . S
C95 C92 1.356 . S
C95 C97 1.358 . S
C95 H153 0.930 . S
C96 N93 1.314 1_554 S
C96 C94 1.353 . S
C96 H154 0.930 . S
C97 N93 1.279 . S
C97 C95 1.358 . S
C97 H155 0.930 . S
C98 C101 1.348 . S
C98 C102 1.356 . S
C98 O149 1.325 . S
C99 N100 1.279 . S
C99 C102 1.358 . S
C99 H156 0.930 . S
N100 C99 1.279 . S
N100 C103 1.314 . S
C101 C98 1.348 . S
C101 C103 1.353 . S
C101 H157 0.929 . S
C102 C98 1.356 . S
C102 C99 1.358 . S
C102 H158 0.930 . S
C103 N100 1.314 . S
C103 C101 1.353 . S
C103 H159 0.930 . S
C104 N105 1.314 . S
C104 C109 1.353 . S
C104 H110 0.930 . S
N105 Li88 1.986 1_556 S
N105 C104 1.314 . S
N105 C107 1.279 . S
C106 C107 1.358 . S
C106 C108 1.356 . S
C106 H160 0.930 . S
C107 N105 1.279 . S
C107 C106 1.358 . S
C107 H111 0.930 . S
C108 C106 1.356 . S
C108 C109 1.348 . S
C109 C104 1.353 . S
C109 C108 1.348 . S
C109 H161 0.929 . S
H110 C104 0.930 . S
H111 C107 0.930 . S
C112 N113 1.314 . S
C112 C114 1.353 . S
C112 H118 0.930 . S
N113 Li89 1.990 . S
N113 C112 1.314 . S
N113 C116 1.279 . S
C114 C112 1.353 . S
C114 C117 1.348 . S
C114 H162 0.929 . S
C115 C116 1.358 . S
C115 C117 1.356 . S
C115 H163 0.930 . S
C116 N113 1.279 . S
C116 C115 1.358 . S
C116 H119 0.930 . S
C117 C114 1.348 . S
C117 C115 1.356 . S
H118 C112 0.930 . S
H119 C116 0.930 . S
C120 C122 1.348 . S
C120 C123 1.356 . S
C120 O150 1.325 . S
N121 C124 1.314 . S
N121 C125 1.279 . S
C122 C120 1.348 . S
C122 C124 1.353 . S
C122 H164 0.929 . S
C123 C120 1.356 . S
C123 C125 1.358 . S
C123 H165 0.930 . S
C124 N121 1.314 . S
C124 C122 1.353 . S
C124 H166 0.930 . S
C125 N121 1.279 . S
C125 C123 1.358 . S
C125 H167 0.930 . S
C126 C127 1.348 1_554 S
C126 C128 1.356 . S
C126 O151 1.325 . S
C127 C126 1.348 1_556 S
C127 C129 1.353 1_556 S
C127 H168 0.929 . S
C128 C126 1.356 . S
C128 C130 1.358 . S
C128 H169 0.930 . S
C129 C127 1.353 1_554 S
C129 N131 1.314 . S
C129 H170 0.930 1_554 S
C130 C128 1.358 . S
C130 N131 1.279 . S
C130 H171 0.930 . S
N131 C129 1.314 . S
N131 C130 1.279 . S
C132 C134 1.353 . S
C132 N135 1.314 . S
C132 H138 0.930 . S
C133 N135 1.279 . S
C133 C136 1.358 . S
C133 H139 0.930 . S
C134 C132 1.353 . S
C134 C137 1.348 . S
C134 H172 0.929 . S
N135 Li90 1.990 . S
N135 C132 1.314 . S
N135 C133 1.279 . S
C136 C133 1.358 . S
C136 C137 1.356 . S
C136 H173 0.930 . S
C137 C134 1.348 . S
C137 C136 1.356 . S
H138 C132 0.930 . S
H139 C133 0.930 . S
C140 N141 1.314 . S
C140 C142 1.353 . S
C140 H146 0.930 . S
N141 Li91 1.990 . S
N141 C140 1.314 . S
N141 C144 1.279 . S
C142 C140 1.353 . S
C142 C145 1.348 . S
C142 H174 0.929 . S
C143 C144 1.358 . S
C143 C145 1.356 . S
C143 H175 0.930 . S
C144 N141 1.279 . S
C144 C143 1.358 . S
C144 H147 0.930 . S
C145 C142 1.348 . S
C145 C143 1.356 . S
H146 C140 0.930 . S
H147 C144 0.930 . S
O148 Li88 1.956 . S
O148 Li89 2.012 . S
O148 Li90 1.934 1_554 S
O148 C92 1.317 1_554 S
O149 Li88 1.989 . S
O149 Li89 1.956 . S
O149 Li91 1.961 . S
O149 C98 1.325 . S
O150 Li88 1.949 1_556 S
O150 Li90 1.956 . S
O150 Li91 1.970 1_556 S
O150 C120 1.325 . S
O151 Li89 1.961 . S
O151 Li90 1.970 1_554 S
O151 Li91 1.956 . S
O151 C126 1.325 . S
H152 C94 0.929 . S
H153 C95 0.930 . S
H154 C96 0.930 . S
H155 C97 0.930 . S
H156 C99 0.930 . S
H157 C101 0.929 . S
H158 C102 0.930 . S
H159 C103 0.930 . S
H160 C106 0.930 . S
H161 C109 0.929 . S
H162 C114 0.929 . S
H163 C115 0.930 . S
H164 C122 0.929 . S
H165 C123 0.930 . S
H166 C124 0.930 . S
H167 C125 0.930 . S
H168 C127 0.929 . S
H169 C128 0.930 . S
H170 C129 0.930 1_556 S
H171 C130 0.930 . S
H172 C134 0.929 . S
H173 C136 0.930 . S
H174 C142 0.929 . S
H175 C143 0.930 . S
Li176 N193 1.986 1_554 S
Li176 O236 1.956 . S
Li176 O237 1.989 . S
Li176 O238 1.949 1_554 S
Li177 N201 1.990 . S
Li177 O236 2.012 . S
Li177 O237 1.956 . S
Li177 O239 1.961 1_545 S
Li178 N223 1.990 . S
Li178 O236 1.934 1_556 S
Li178 O238 1.956 . S
Li178 O239 1.970 1_546 S
Li179 N229 1.990 . S
Li179 O237 1.961 1_565 S
Li179 O238 1.970 1_564 S
Li179 O239 1.956 . S
C180 C182 1.348 1_556 S
C180 C183 1.356 . S
C180 O236 1.317 1_556 S
N181 C184 1.314 1_556 S
N181 C185 1.279 . S
C182 C180 1.348 1_554 S
C182 C184 1.353 . S
C182 H240 0.929 . S
C183 C180 1.356 . S
C183 C185 1.358 . S
C183 H241 0.930 . S
C184 N181 1.314 1_554 S
C184 C182 1.353 . S
C184 H242 0.930 . S
C185 N181 1.279 . S
C185 C183 1.358 . S
C185 H243 0.930 . S
C186 C189 1.348 . S
C186 C190 1.356 . S
C186 O237 1.325 . S
C187 N188 1.279 . S
C187 C190 1.358 . S
C187 H244 0.930 . S
N188 C187 1.279 . S
N188 C191 1.314 . S
C189 C186 1.348 . S
C189 C191 1.353 . S
C189 H245 0.929 . S
C190 C186 1.356 . S
C190 C187 1.358 . S
C190 H246 0.930 1_545 S
C191 N188 1.314 . S
C191 C189 1.353 . S
C191 H247 0.930 . S
C192 N193 1.314 . S
C192 C197 1.353 . S
C192 H198 0.930 . S
N193 Li176 1.986 1_556 S
N193 C192 1.314 . S
N193 C195 1.279 . S
C194 C195 1.358 . S
C194 C196 1.356 . S
C194 H248 0.930 . S
C195 N193 1.279 . S
C195 C194 1.358 . S
C195 H199 0.930 . S
C196 C194 1.356 . S
C196 C197 1.348 . S
C197 C192 1.353 . S
C197 C196 1.348 . S
C197 H249 0.929 . S
H198 C192 0.930 . S
H199 C195 0.930 . S
C200 N201 1.314 . S
C200 C202 1.353 . S
C200 H206 0.930 . S
N201 Li177 1.990 . S
N201 C200 1.314 . S
N201 C204 1.279 . S
C202 C200 1.353 . S
C202 C205 1.348 . S
C202 H250 0.929 . S
C203 C204 1.358 . S
C203 C205 1.356 . S
C203 H251 0.930 . S
C204 N201 1.279 . S
C204 C203 1.358 . S
C204 H207 0.930 . S
C205 C202 1.348 . S
C205 C203 1.356 . S
H206 C200 0.930 . S
H207 C204 0.930 . S
C208 C210 1.348 1_545 S
C208 C211 1.356 . S
C208 O238 1.325 . S
N209 C212 1.304 1_545 S
N209 C213 1.287 . S
C210 C208 1.348 1_565 S
C210 C212 1.353 . S
C210 H252 0.929 . S
C211 C208 1.356 . S
C211 C213 1.358 . S
C211 H253 0.930 . S
C212 N209 1.304 1_565 S
C212 C210 1.353 . S
C212 H254 0.930 . S
C213 N209 1.287 . S
C213 C211 1.358 . S
C213 H255 0.930 . S
C214 C215 1.348 1_554 S
C214 C216 1.356 . S
C214 O239 1.325 . S
C215 C214 1.348 1_556 S
C215 C217 1.353 1_556 S
C215 H256 0.929 . S
C216 C214 1.356 . S
C216 C218 1.358 . S
C216 H257 0.930 . S
C217 C215 1.353 1_554 S
C217 N219 1.314 . S
C217 H258 0.930 1_554 S
C218 C216 1.358 . S
C218 N219 1.279 . S
C218 H259 0.930 . S
N219 C217 1.314 . S
N219 C218 1.279 . S
C220 C222 1.353 . S
C220 N223 1.314 . S
C220 H226 0.930 . S
C221 N223 1.279 1_565 S
C221 C224 1.358 . S
C221 H227 0.930 . S
C222 C220 1.353 . S
C222 C225 1.348 1_545 S
C222 H260 0.929 . S
N223 Li178 1.990 . S
N223 C220 1.314 . S
N223 C221 1.279 1_545 S
C224 C221 1.358 . S
C224 C225 1.356 . S
C224 H261 0.930 . S
C225 C222 1.348 1_565 S
C225 C224 1.356 . S
H226 C220 0.930 . S
H227 C221 0.930 . S
C228 N229 1.314 . S
C228 C230 1.353 . S
C228 H234 0.930 . S
N229 Li179 1.990 . S
N229 C228 1.314 . S
N229 C232 1.279 . S
C230 C228 1.353 . S
C230 C233 1.348 . S
C230 H262 0.929 . S
C231 C232 1.358 . S
C231 C233 1.356 . S
C231 H263 0.930 . S
C232 N229 1.279 . S
C232 C231 1.358 . S
C232 H235 0.930 . S
C233 C230 1.348 . S
C233 C231 1.356 . S
H234 C228 0.930 . S
H235 C232 0.930 . S
O236 Li176 1.956 . S
O236 Li177 2.012 . S
O236 Li178 1.934 1_554 S
O236 C180 1.317 1_554 S
O237 Li176 1.989 . S
O237 Li177 1.956 . S
O237 Li179 1.961 1_545 S
O237 C186 1.325 . S
O238 Li176 1.949 1_556 S
O238 Li178 1.956 . S
O238 Li179 1.970 1_546 S
O238 C208 1.325 . S
O239 Li177 1.961 1_565 S
O239 Li178 1.970 1_564 S
O239 Li179 1.956 . S
O239 C214 1.325 . S
H240 C182 0.929 . S
H241 C183 0.930 . S
H242 C184 0.930 . S
H243 C185 0.930 . S
H244 C187 0.930 . S
H245 C189 0.929 . S
H246 C190 0.930 1_565 S
H247 C191 0.930 . S
H248 C194 0.930 . S
H249 C197 0.929 . S
H250 C202 0.929 . S
H251 C203 0.930 . S
H252 C210 0.929 . S
H253 C211 0.930 . S
H254 C212 0.930 . S
H255 C213 0.930 . S
H256 C215 0.929 . S
H257 C216 0.930 . S
H258 C217 0.930 1_556 S
H259 C218 0.930 . S
H260 C222 0.929 . S
H261 C224 0.930 . S
H262 C230 0.929 . S
H263 C231 0.930 . S
Li264 N281 1.990 . S
Li264 O324 1.956 . S
Li264 O325 1.970 . S
Li264 O326 1.961 . S
Li265 N289 1.990 . S
Li265 O324 1.970 . S
Li265 O325 1.956 . S
Li265 O327 1.961 . S
Li266 N311 1.990 . S
Li266 O324 1.961 . S
Li266 O326 1.956 . S
Li266 O327 1.970 . S
Li267 N317 1.990 . S
Li267 O325 1.961 . S
Li267 O326 1.970 . S
Li267 O327 1.956 . S
C268 C270 1.348 . S
C268 C271 1.356 . S
C268 O324 1.325 . S
N269 C272 1.314 . S
N269 C273 1.279 . S
C270 C268 1.348 . S
C270 C272 1.353 . S
C270 H328 0.929 . S
C271 C268 1.356 . S
C271 C273 1.358 . S
C271 H329 0.930 . S
C272 N269 1.314 . S
C272 C270 1.353 . S
C272 H330 0.930 . S
C273 N269 1.279 . S
C273 C271 1.358 . S
C273 H331 0.930 . S
C274 C277 1.348 . S
C274 C278 1.356 . S
C274 O325 1.325 . S
C275 N276 1.279 . S
C275 C278 1.358 . S
C275 H332 0.930 . S
N276 C275 1.279 . S
N276 C279 1.314 . S
C277 C274 1.348 . S
C277 C279 1.353 . S
C277 H333 0.929 . S
C278 C274 1.356 . S
C278 C275 1.358 . S
C278 H334 0.930 . S
C279 N276 1.314 . S
C279 C277 1.353 . S
C279 H335 0.930 . S
C280 N281 1.314 . S
C280 C285 1.353 . S
C280 H286 0.930 . S
N281 Li264 1.990 . S
N281 C280 1.314 . S
N281 C283 1.279 . S
C282 C283 1.358 . S
C282 C284 1.356 . S
C282 H336 0.930 . S
C283 N281 1.279 . S
C283 C282 1.358 . S
C283 H287 0.930 . S
C284 C282 1.356 . S
C284 C285 1.348 . S
C285 C280 1.353 . S
C285 C284 1.348 . S
C285 H337 0.929 . S
H286 C280 0.930 . S
H287 C283 0.930 . S
C288 N289 1.314 . S
C288 C290 1.353 . S
C288 H294 0.930 . S
N289 Li265 1.990 . S
N289 C288 1.314 . S
N289 C292 1.279 . S
C290 C288 1.353 . S
C290 C293 1.348 . S
C290 H338 0.929 . S
C291 C292 1.358 . S
C291 C293 1.356 . S
C291 H339 0.930 . S
C292 N289 1.279 . S
C292 C291 1.358 . S
C292 H295 0.930 . S
C293 C290 1.348 . S
C293 C291 1.356 . S
H294 C288 0.930 . S
H295 C292 0.930 . S
C296 C298 1.348 . S
C296 C299 1.356 . S
C296 O326 1.325 . S
N297 C300 1.314 . S
N297 C301 1.279 . S
C298 C296 1.348 . S
C298 C300 1.353 . S
C298 H340 0.929 . S
C299 C296 1.356 . S
C299 C301 1.358 . S
C299 H341 0.930 . S
C300 N297 1.314 . S
C300 C298 1.353 . S
C300 H342 0.930 . S
C301 N297 1.279 . S
C301 C299 1.358 . S
C301 H343 0.930 . S
C302 C303 1.348 . S
C302 C304 1.356 . S
C302 O327 1.325 . S
C303 C302 1.348 . S
C303 C305 1.353 . S
C303 H344 0.929 . S
C304 C302 1.356 . S
C304 C306 1.358 . S
C304 H345 0.930 . S
C305 C303 1.353 . S
C305 N307 1.314 . S
C305 H346 0.930 . S
C306 C304 1.358 . S
C306 N307 1.279 . S
C306 H347 0.930 . S
N307 C305 1.314 . S
N307 C306 1.279 . S
C308 C310 1.353 . S
C308 N311 1.314 . S
C308 H314 0.930 . S
C309 N311 1.279 . S
C309 C312 1.358 . S
C309 H315 0.930 . S
C310 C308 1.353 . S
C310 C313 1.348 . S
C310 H348 0.929 . S
N311 Li266 1.990 . S
N311 C308 1.314 . S
N311 C309 1.279 . S
C312 C309 1.358 . S
C312 C313 1.356 . S
C312 H349 0.930 . S
C313 C310 1.348 . S
C313 C312 1.356 . S
H314 C308 0.930 . S
H315 C309 0.930 . S
C316 N317 1.314 . S
C316 C318 1.353 . S
C316 H322 0.930 . S
N317 Li267 1.990 . S
N317 C316 1.314 . S
N317 C320 1.279 . S
C318 C316 1.353 . S
C318 C321 1.348 . S
C318 H350 0.929 . S
C319 C320 1.358 . S
C319 C321 1.356 . S
C319 H351 0.930 . S
C320 N317 1.279 . S
C320 C319 1.358 . S
C320 H323 0.930 . S
C321 C318 1.348 . S
C321 C319 1.356 . S
H322 C316 0.930 . S
H323 C320 0.930 . S
O324 Li264 1.956 . S
O324 Li265 1.970 . S
O324 Li266 1.961 . S
O324 C268 1.325 . S
O325 Li264 1.970 . S
O325 Li265 1.956 . S
O325 Li267 1.961 . S
O325 C274 1.325 . S
O326 Li264 1.961 . S
O326 Li266 1.956 . S
O326 Li267 1.970 . S
O326 C296 1.325 . S
O327 Li265 1.961 . S
O327 Li266 1.970 . S
O327 Li267 1.956 . S
O327 C302 1.325 . S
H328 C270 0.929 . S
H329 C271 0.930 . S
H330 C272 0.930 . S
H331 C273 0.930 . S
H332 C275 0.930 . S
H333 C277 0.929 . S
H334 C278 0.930 . S
H335 C279 0.930 . S
H336 C282 0.930 . S
H337 C285 0.929 . S
H338 C290 0.929 . S
H339 C291 0.930 . S
H340 C298 0.929 . S
H341 C299 0.930 . S
H342 C300 0.930 . S
H343 C301 0.930 . S
H344 C303 0.929 . S
H345 C304 0.930 . S
H346 C305 0.930 . S
H347 C306 0.930 . S
H348 C310 0.929 . S
H349 C312 0.930 . S
H350 C318 0.929 . S
H351 C319 0.930 . S
Li352 N369 1.990 . S
Li352 O412 1.956 . S
Li352 O413 1.970 . S
Li352 O414 1.961 . S
Li353 N377 1.990 . S
Li353 O412 1.970 . S
Li353 O413 1.956 . S
Li353 O415 1.961 . S
Li354 N399 1.990 . S
Li354 O412 1.961 . S
Li354 O414 1.956 . S
Li354 O415 1.970 . S
Li355 N405 1.990 . S
Li355 O413 1.961 . S
Li355 O414 1.970 . S
Li355 O415 1.956 . S
C356 C358 1.348 . S
C356 C359 1.356 . S
C356 O412 1.325 . S
N357 C360 1.314 . S
N357 C361 1.279 . S
C358 C356 1.348 . S
C358 C360 1.353 . S
C358 H416 0.929 . S
C359 C356 1.356 . S
C359 C361 1.358 . S
C359 H417 0.930 . S
C360 N357 1.314 . S
C360 C358 1.353 . S
C360 H418 0.930 . S
C361 N357 1.279 . S
C361 C359 1.358 . S
C361 H419 0.930 . S
C362 C365 1.348 . S
C362 C366 1.356 . S
C362 O413 1.325 . S
C363 N364 1.279 . S
C363 C366 1.358 . S
C363 H420 0.930 . S
N364 C363 1.279 . S
N364 C367 1.314 . S
C365 C362 1.348 . S
C365 C367 1.353 . S
C365 H421 0.929 . S
C366 C362 1.356 . S
C366 C363 1.358 . S
C366 H422 0.930 . S
C367 N364 1.314 . S
C367 C365 1.353 . S
C367 H423 0.930 . S
C368 N369 1.314 . S
C368 C373 1.353 . S
C368 H374 0.930 . S
N369 Li352 1.990 . S
N369 C368 1.314 . S
N369 C371 1.279 . S
C370 C371 1.358 . S
C370 C372 1.356 . S
C370 H424 0.930 . S
C371 N369 1.279 . S
C371 C370 1.358 . S
C371 H375 0.930 . S
C372 C370 1.356 . S
C372 C373 1.348 . S
C373 C368 1.353 . S
C373 C372 1.348 . S
C373 H425 0.929 . S
H374 C368 0.930 . S
H375 C371 0.930 . S
C376 N377 1.314 . S
C376 C378 1.353 . S
C376 H382 0.930 . S
N377 Li353 1.990 . S
N377 C376 1.314 . S
N377 C380 1.279 . S
C378 C376 1.353 . S
C378 C381 1.348 . S
C378 H426 0.929 . S
C379 C380 1.358 . S
C379 C381 1.356 . S
C379 H427 0.930 . S
C380 N377 1.279 . S
C380 C379 1.358 . S
C380 H383 0.930 . S
C381 C378 1.348 . S
C381 C379 1.356 . S
H382 C376 0.930 . S
H383 C380 0.930 . S
C384 C386 1.348 . S
C384 C387 1.356 . S
C384 O414 1.325 . S
N385 C388 1.314 . S
N385 C389 1.279 . S
C386 C384 1.348 . S
C386 C388 1.353 . S
C386 H428 0.929 . S
C387 C384 1.356 . S
C387 C389 1.358 . S
C387 H429 0.930 . S
C388 N385 1.314 . S
C388 C386 1.353 . S
C388 H430 0.930 . S
C389 N385 1.279 . S
C389 C387 1.358 . S
C389 H431 0.930 . S
C390 C391 1.348 . S
C390 C392 1.356 . S
C390 O415 1.325 . S
C391 C390 1.348 . S
C391 C393 1.353 . S
C391 H432 0.929 . S
C392 C390 1.356 . S
C392 C394 1.358 . S
C392 H433 0.930 . S
C393 C391 1.353 . S
C393 N395 1.314 . S
C393 H434 0.930 . S
C394 C392 1.358 . S
C394 N395 1.279 . S
C394 H435 0.930 . S
N395 C393 1.314 . S
N395 C394 1.279 . S
C396 C398 1.353 . S
C396 N399 1.314 . S
C396 H402 0.930 . S
C397 N399 1.279 . S
C397 C400 1.358 . S
C397 H403 0.930 . S
C398 C396 1.353 . S
C398 C401 1.348 . S
C398 H436 0.929 . S
N399 Li354 1.990 . S
N399 C396 1.314 . S
N399 C397 1.279 . S
C400 C397 1.358 . S
C400 C401 1.356 . S
C400 H437 0.930 . S
C401 C398 1.348 . S
C401 C400 1.356 . S
H402 C396 0.930 . S
H403 C397 0.930 . S
C404 N405 1.314 . S
C404 C406 1.353 . S
C404 H410 0.930 . S
N405 Li355 1.990 . S
N405 C404 1.314 . S
N405 C408 1.279 . S
C406 C404 1.353 . S
C406 C409 1.348 . S
C406 H438 0.929 . S
C407 C408 1.358 . S
C407 C409 1.356 . S
C407 H439 0.930 . S
C408 N405 1.279 . S
C408 C407 1.358 . S
C408 H411 0.930 . S
C409 C406 1.348 . S
C409 C407 1.356 . S
H410 C404 0.930 . S
H411 C408 0.930 . S
O412 Li352 1.956 . S
O412 Li353 1.970 . S
O412 Li354 1.961 . S
O412 C356 1.325 . S
O413 Li352 1.970 . S
O413 Li353 1.956 . S
O413 Li355 1.961 . S
O413 C362 1.325 . S
O414 Li352 1.961 . S
O414 Li354 1.956 . S
O414 Li355 1.970 . S
O414 C384 1.325 . S
O415 Li353 1.961 . S
O415 Li354 1.970 . S
O415 Li355 1.956 . S
O415 C390 1.325 . S
H416 C358 0.929 . S
H417 C359 0.930 . S
H418 C360 0.930 . S
H419 C361 0.930 . S
H420 C363 0.930 . S
H421 C365 0.929 . S
H422 C366 0.930 . S
H423 C367 0.930 . S
H424 C370 0.930 . S
H425 C373 0.929 . S
H426 C378 0.929 . S
H427 C379 0.930 . S
H428 C386 0.929 . S
H429 C387 0.930 . S
H430 C388 0.930 . S
H431 C389 0.930 . S
H432 C391 0.929 . S
H433 C392 0.930 . S
H434 C393 0.930 . S
H435 C394 0.930 . S
H436 C398 0.929 . S
H437 C400 0.930 . S
H438 C406 0.929 . S
H439 C407 0.930 . S
Li440 N457 1.990 . S
Li440 O500 1.956 . S
Li440 O501 1.970 . S
Li440 O502 1.961 . S
Li441 N465 1.990 . S
Li441 O500 1.970 . S
Li441 O501 1.956 . S
Li441 O503 1.961 . S
Li442 N487 1.990 . S
Li442 O500 1.961 . S
Li442 O502 1.956 . S
Li442 O503 1.970 . S
Li443 N493 1.990 . S
Li443 O501 1.961 . S
Li443 O502 1.970 . S
Li443 O503 1.956 . S
C444 C446 1.348 . S
C444 C447 1.356 . S
C444 O500 1.325 . S
N445 C448 1.314 . S
N445 C449 1.279 . S
C446 C444 1.348 . S
C446 C448 1.353 . S
C446 H504 0.929 . S
C447 C444 1.356 . S
C447 C449 1.358 . S
C447 H505 0.930 . S
C448 N445 1.314 . S
C448 C446 1.353 . S
C448 H506 0.930 . S
C449 N445 1.279 . S
C449 C447 1.358 . S
C449 H507 0.930 . S
C450 C453 1.348 . S
C450 C454 1.356 . S
C450 O501 1.325 . S
C451 N452 1.279 . S
C451 C454 1.358 . S
C451 H508 0.930 . S
N452 C451 1.279 . S
N452 C455 1.314 . S
C453 C450 1.348 . S
C453 C455 1.353 . S
C453 H509 0.929 . S
C454 C450 1.356 . S
C454 C451 1.358 . S
C454 H510 0.930 . S
C455 N452 1.314 . S
C455 C453 1.353 . S
C455 H511 0.930 . S
C456 N457 1.314 . S
C456 C461 1.353 . S
C456 H462 0.930 . S
N457 Li440 1.990 . S
N457 C456 1.314 . S
N457 C459 1.279 . S
C458 C459 1.358 . S
C458 C460 1.356 . S
C458 H512 0.930 . S
C459 N457 1.279 . S
C459 C458 1.358 . S
C459 H463 0.930 . S
C460 C458 1.356 . S
C460 C461 1.348 . S
C461 C456 1.353 . S
C461 C460 1.348 . S
C461 H513 0.929 . S
H462 C456 0.930 . S
H463 C459 0.930 . S
C464 N465 1.314 . S
C464 C466 1.353 . S
C464 H470 0.930 . S
N465 Li441 1.990 . S
N465 C464 1.314 . S
N465 C468 1.279 . S
C466 C464 1.353 . S
C466 C469 1.348 . S
C466 H514 0.929 . S
C467 C468 1.358 . S
C467 C469 1.356 . S
C467 H515 0.930 . S
C468 N465 1.279 . S
C468 C467 1.358 . S
C468 H471 0.930 . S
C469 C466 1.348 . S
C469 C467 1.356 . S
H470 C464 0.930 . S
H471 C468 0.930 . S
C472 C474 1.348 . S
C472 C475 1.356 . S
C472 O502 1.325 . S
N473 C476 1.314 . S
N473 C477 1.279 . S
C474 C472 1.348 . S
C474 C476 1.353 . S
C474 H516 0.929 . S
C475 C472 1.356 . S
C475 C477 1.358 . S
C475 H517 0.930 . S
C476 N473 1.314 . S
C476 C474 1.353 . S
C476 H518 0.930 . S
C477 N473 1.279 . S
C477 C475 1.358 . S
C477 H519 0.930 . S
C478 C479 1.348 . S
C478 C480 1.356 . S
C478 O503 1.325 . S
C479 C478 1.348 . S
C479 C481 1.353 . S
C479 H520 0.929 . S
C480 C478 1.356 . S
C480 C482 1.358 . S
C480 H521 0.930 . S
C481 C479 1.353 . S
C481 N483 1.314 . S
C481 H522 0.930 . S
C482 C480 1.358 . S
C482 N483 1.279 . S
C482 H523 0.930 . S
N483 C481 1.314 . S
N483 C482 1.279 . S
C484 C486 1.353 . S
C484 N487 1.314 . S
C484 H490 0.930 . S
C485 N487 1.279 . S
C485 C488 1.358 . S
C485 H491 0.930 . S
C486 C484 1.353 . S
C486 C489 1.348 . S
C486 H524 0.929 . S
N487 Li442 1.990 . S
N487 C484 1.314 . S
N487 C485 1.279 . S
C488 C485 1.358 . S
C488 C489 1.356 . S
C488 H525 0.930 . S
C489 C486 1.348 . S
C489 C488 1.356 . S
H490 C484 0.930 . S
H491 C485 0.930 . S
C492 N493 1.314 . S
C492 C494 1.353 . S
C492 H498 0.930 . S
N493 Li443 1.990 . S
N493 C492 1.314 . S
N493 C496 1.279 . S
C494 C492 1.353 . S
C494 C497 1.348 . S
C494 H526 0.929 . S
C495 C496 1.358 . S
C495 C497 1.356 . S
C495 H527 0.930 . S
C496 N493 1.279 . S
C496 C495 1.358 . S
C496 H499 0.930 . S
C497 C494 1.348 . S
C497 C495 1.356 . S
H498 C492 0.930 . S
H499 C496 0.930 . S
O500 Li440 1.956 . S
O500 Li441 1.970 . S
O500 Li442 1.961 . S
O500 C444 1.325 . S
O501 Li440 1.970 . S
O501 Li441 1.956 . S
O501 Li443 1.961 . S
O501 C450 1.325 . S
O502 Li440 1.961 . S
O502 Li442 1.956 . S
O502 Li443 1.970 . S
O502 C472 1.325 . S
O503 Li441 1.961 . S
O503 Li442 1.970 . S
O503 Li443 1.956 . S
O503 C478 1.325 . S
H504 C446 0.929 . S
H505 C447 0.930 . S
H506 C448 0.930 . S
H507 C449 0.930 . S
H508 C451 0.930 . S
H509 C453 0.929 . S
H510 C454 0.930 . S
H511 C455 0.930 . S
H512 C458 0.930 . S
H513 C461 0.929 . S
H514 C466 0.929 . S
H515 C467 0.930 . S
H516 C474 0.929 . S
H517 C475 0.930 . S
H518 C476 0.930 . S
H519 C477 0.930 . S
H520 C479 0.929 . S
H521 C480 0.930 . S
H522 C481 0.930 . S
H523 C482 0.930 . S
H524 C486 0.929 . S
H525 C488 0.930 . S
H526 C494 0.929 . S
H527 C495 0.930 . S
Li528 N545 1.990 . S
Li528 O588 1.956 . S
Li528 O589 1.970 . S
Li528 O590 1.961 . S
Li529 N553 1.990 . S
Li529 O588 1.970 . S
Li529 O589 1.956 . S
Li529 O591 1.961 . S
Li530 N575 1.990 . S
Li530 O588 1.961 . S
Li530 O590 1.956 . S
Li530 O591 1.970 . S
Li531 N581 1.990 . S
Li531 O589 1.961 . S
Li531 O590 1.970 . S
Li531 O591 1.956 . S
C532 C534 1.348 . S
C532 C535 1.356 . S
C532 O588 1.325 . S
N533 C536 1.314 . S
N533 C537 1.279 . S
C534 C532 1.348 . S
C534 C536 1.353 . S
C534 H592 0.929 . S
C535 C532 1.356 . S
C535 C537 1.358 . S
C535 H593 0.930 . S
C536 N533 1.314 . S
C536 C534 1.353 . S
C536 H594 0.930 . S
C537 N533 1.279 . S
C537 C535 1.358 . S
C537 H595 0.930 . S
C538 C541 1.348 . S
C538 C542 1.356 . S
C538 O589 1.325 . S
C539 N540 1.279 . S
C539 C542 1.358 . S
C539 H596 0.930 . S
N540 C539 1.279 . S
N540 C543 1.314 . S
C541 C538 1.348 . S
C541 C543 1.353 . S
C541 H597 0.929 . S
C542 C538 1.356 . S
C542 C539 1.358 . S
C542 H598 0.930 . S
C543 N540 1.314 . S
C543 C541 1.353 . S
C543 H599 0.930 . S
C544 N545 1.314 . S
C544 C549 1.353 . S
C544 H550 0.930 . S
N545 Li528 1.990 . S
N545 C544 1.314 . S
N545 C547 1.279 . S
C546 C547 1.358 . S
C546 C548 1.356 . S
C546 H600 0.930 . S
C547 N545 1.279 . S
C547 C546 1.358 . S
C547 H551 0.930 . S
C548 C546 1.356 . S
C548 C549 1.348 . S
C549 C544 1.353 . S
C549 C548 1.348 . S
C549 H601 0.929 . S
H550 C544 0.930 . S
H551 C547 0.930 . S
C552 N553 1.314 . S
C552 C554 1.353 . S
C552 H558 0.930 . S
N553 Li529 1.990 . S
N553 C552 1.314 . S
N553 C556 1.279 . S
C554 C552 1.353 . S
C554 C557 1.348 . S
C554 H602 0.929 . S
C555 C556 1.358 . S
C555 C557 1.356 . S
C555 H603 0.930 . S
C556 N553 1.279 . S
C556 C555 1.358 . S
C556 H559 0.930 . S
C557 C554 1.348 . S
C557 C555 1.356 . S
H558 C552 0.930 . S
H559 C556 0.930 . S
C560 C562 1.348 . S
C560 C563 1.356 . S
C560 O590 1.325 . S
N561 C564 1.314 . S
N561 C565 1.279 . S
C562 C560 1.348 . S
C562 C564 1.353 . S
C562 H604 0.929 . S
C563 C560 1.356 . S
C563 C565 1.358 . S
C563 H605 0.930 . S
C564 N561 1.314 . S
C564 C562 1.353 . S
C564 H606 0.930 . S
C565 N561 1.279 . S
C565 C563 1.358 . S
C565 H607 0.930 . S
C566 C567 1.348 . S
C566 C568 1.356 . S
C566 O591 1.325 . S
C567 C566 1.348 . S
C567 C569 1.353 . S
C567 H608 0.929 . S
C568 C566 1.356 . S
C568 C570 1.358 . S
C568 H609 0.930 . S
C569 C567 1.353 . S
C569 N571 1.314 . S
C569 H610 0.930 . S
C570 C568 1.358 . S
C570 N571 1.279 . S
C570 H611 0.930 . S
N571 C569 1.314 . S
N571 C570 1.279 . S
C572 C574 1.353 . S
C572 N575 1.314 . S
C572 H578 0.930 . S
C573 N575 1.279 . S
C573 C576 1.358 . S
C573 H579 0.930 . S
C574 C572 1.353 . S
C574 C577 1.348 . S
C574 H612 0.929 . S
N575 Li530 1.990 . S
N575 C572 1.314 . S
N575 C573 1.279 . S
C576 C573 1.358 . S
C576 C577 1.356 . S
C576 H613 0.930 . S
C577 C574 1.348 . S
C577 C576 1.356 . S
H578 C572 0.930 . S
H579 C573 0.930 . S
C580 N581 1.314 . S
C580 C582 1.353 . S
C580 H586 0.930 . S
N581 Li531 1.990 . S
N581 C580 1.314 . S
N581 C584 1.279 . S
C582 C580 1.353 . S
C582 C585 1.348 . S
C582 H614 0.929 . S
C583 C584 1.358 . S
C583 C585 1.356 . S
C583 H615 0.930 . S
C584 N581 1.279 . S
C584 C583 1.358 . S
C584 H587 0.930 . S
C585 C582 1.348 . S
C585 C583 1.356 . S
H586 C580 0.930 . S
H587 C584 0.930 . S
O588 Li528 1.956 . S
O588 Li529 1.970 . S
O588 Li530 1.961 . S
O588 C532 1.325 . S
O589 Li528 1.970 . S
O589 Li529 1.956 . S
O589 Li531 1.961 . S
O589 C538 1.325 . S
O590 Li528 1.961 . S
O590 Li530 1.956 . S
O590 Li531 1.970 . S
O590 C560 1.325 . S
O591 Li529 1.961 . S
O591 Li530 1.970 . S
O591 Li531 1.956 . S
O591 C566 1.325 . S
H592 C534 0.929 . S
H593 C535 0.930 . S
H594 C536 0.930 . S
H595 C537 0.930 . S
H596 C539 0.930 . S
H597 C541 0.929 . S
H598 C542 0.930 . S
H599 C543 0.930 . S
H600 C546 0.930 . S
H601 C549 0.929 . S
H602 C554 0.929 . S
H603 C555 0.930 . S
H604 C562 0.929 . S
H605 C563 0.930 . S
H606 C564 0.930 . S
H607 C565 0.930 . S
H608 C567 0.929 . S
H609 C568 0.930 . S
H610 C569 0.930 . S
H611 C570 0.930 . S
H612 C574 0.929 . S
H613 C576 0.930 . S
H614 C582 0.929 . S
H615 C583 0.930 . S
Li616 N633 1.990 . S
Li616 O676 1.956 . S
Li616 O677 1.970 . S
Li616 O678 1.961 . S
Li617 N641 1.990 . S
Li617 O676 1.970 . S
Li617 O677 1.956 . S
Li617 O679 1.961 . S
Li618 N663 1.990 . S
Li618 O676 1.961 . S
Li618 O678 1.956 . S
Li618 O679 1.970 . S
Li619 N669 1.990 . S
Li619 O677 1.961 . S
Li619 O678 1.970 . S
Li619 O679 1.956 . S
C620 C622 1.348 . S
C620 C623 1.356 . S
C620 O676 1.325 . S
N621 C624 1.314 . S
N621 C625 1.279 . S
C622 C620 1.348 . S
C622 C624 1.353 . S
C622 H680 0.929 . S
C623 C620 1.356 . S
C623 C625 1.358 . S
C623 H681 0.930 . S
C624 N621 1.314 . S
C624 C622 1.353 . S
C624 H682 0.930 . S
C625 N621 1.279 . S
C625 C623 1.358 . S
C625 H683 0.930 . S
C626 C629 1.348 . S
C626 C630 1.356 . S
C626 O677 1.325 . S
C627 N628 1.279 . S
C627 C630 1.358 . S
C627 H684 0.930 . S
N628 C627 1.279 . S
N628 C631 1.314 . S
C629 C626 1.348 . S
C629 C631 1.353 . S
C629 H685 0.929 . S
C630 C626 1.356 . S
C630 C627 1.358 . S
C630 H686 0.930 . S
C631 N628 1.314 . S
C631 C629 1.353 . S
C631 H687 0.930 . S
C632 N633 1.314 . S
C632 C637 1.353 . S
C632 H638 0.930 . S
N633 Li616 1.990 . S
N633 C632 1.314 . S
N633 C635 1.279 . S
C634 C635 1.358 . S
C634 C636 1.356 . S
C634 H688 0.930 . S
C635 N633 1.279 . S
C635 C634 1.358 . S
C635 H639 0.930 . S
C636 C634 1.356 . S
C636 C637 1.348 . S
C637 C632 1.353 . S
C637 C636 1.348 . S
C637 H689 0.929 . S
H638 C632 0.930 . S
H639 C635 0.930 . S
C640 N641 1.314 . S
C640 C642 1.353 . S
C640 H646 0.930 . S
N641 Li617 1.990 . S
N641 C640 1.314 . S
N641 C644 1.279 . S
C642 C640 1.353 . S
C642 C645 1.348 . S
C642 H690 0.929 . S
C643 C644 1.358 . S
C643 C645 1.356 . S
C643 H691 0.930 . S
C644 N641 1.279 . S
C644 C643 1.358 . S
C644 H647 0.930 . S
C645 C642 1.348 . S
C645 C643 1.356 . S
H646 C640 0.930 . S
H647 C644 0.930 . S
C648 C650 1.348 . S
C648 C651 1.356 . S
C648 O678 1.325 . S
N649 C652 1.314 . S
N649 C653 1.279 . S
C650 C648 1.348 . S
C650 C652 1.353 . S
C650 H692 0.929 . S
C651 C648 1.356 . S
C651 C653 1.358 . S
C651 H693 0.930 . S
C652 N649 1.314 . S
C652 C650 1.353 . S
C652 H694 0.930 . S
C653 N649 1.279 . S
C653 C651 1.358 . S
C653 H695 0.930 . S
C654 C655 1.348 . S
C654 C656 1.356 . S
C654 O679 1.325 . S
C655 C654 1.348 . S
C655 C657 1.353 . S
C655 H696 0.929 . S
C656 C654 1.356 . S
C656 C658 1.358 . S
C656 H697 0.930 . S
C657 C655 1.353 . S
C657 N659 1.314 . S
C657 H698 0.930 . S
C658 C656 1.358 . S
C658 N659 1.279 . S
C658 H699 0.930 . S
N659 C657 1.314 . S
N659 C658 1.279 . S
C660 C662 1.353 . S
C660 N663 1.314 . S
C660 H666 0.930 . S
C661 N663 1.279 . S
C661 C664 1.358 . S
C661 H667 0.930 . S
C662 C660 1.353 . S
C662 C665 1.348 . S
C662 H700 0.929 . S
N663 Li618 1.990 . S
N663 C660 1.314 . S
N663 C661 1.279 . S
C664 C661 1.358 . S
C664 C665 1.356 . S
C664 H701 0.930 . S
C665 C662 1.348 . S
C665 C664 1.356 . S
H666 C660 0.930 . S
H667 C661 0.930 . S
C668 N669 1.314 . S
C668 C670 1.353 . S
C668 H674 0.930 . S
N669 Li619 1.990 . S
N669 C668 1.314 . S
N669 C672 1.279 . S
C670 C668 1.353 . S
C670 C673 1.348 . S
C670 H702 0.929 . S
C671 C672 1.358 . S
C671 C673 1.356 . S
C671 H703 0.930 . S
C672 N669 1.279 . S
C672 C671 1.358 . S
C672 H675 0.930 . S
C673 C670 1.348 . S
C673 C671 1.356 . S
H674 C668 0.930 . S
H675 C672 0.930 . S
O676 Li616 1.956 . S
O676 Li617 1.970 . S
O676 Li618 1.961 . S
O676 C620 1.325 . S
O677 Li616 1.970 . S
O677 Li617 1.956 . S
O677 Li619 1.961 . S
O677 C626 1.325 . S
O678 Li616 1.961 . S
O678 Li618 1.956 . S
O678 Li619 1.970 . S
O678 C648 1.325 . S
O679 Li617 1.961 . S
O679 Li618 1.970 . S
O679 Li619 1.956 . S
O679 C654 1.325 . S
H680 C622 0.929 . S
H681 C623 0.930 . S
H682 C624 0.930 . S
H683 C625 0.930 . S
H684 C627 0.930 . S
H685 C629 0.929 . S
H686 C630 0.930 . S
H687 C631 0.930 . S
H688 C634 0.930 . S
H689 C637 0.929 . S
H690 C642 0.929 . S
H691 C643 0.930 . S
H692 C650 0.929 . S
H693 C651 0.930 . S
H694 C652 0.930 . S
H695 C653 0.930 . S
H696 C655 0.929 . S
H697 C656 0.930 . S
H698 C657 0.930 . S
H699 C658 0.930 . S
H700 C662 0.929 . S
H701 C664 0.930 . S
H702 C670 0.929 . S
H703 C671 0.930 . S
Li704 N721 1.990 . S
Li704 O764 1.956 . S
Li704 O765 1.970 . S
Li704 O766 1.961 . S
Li705 N729 1.990 . S
Li705 O764 1.970 . S
Li705 O765 1.956 . S
Li705 O767 1.961 . S
Li706 N751 1.990 . S
Li706 O764 1.961 . S
Li706 O766 1.956 . S
Li706 O767 1.970 . S
Li707 N757 1.990 . S
Li707 O765 1.961 . S
Li707 O766 1.970 . S
Li707 O767 1.956 . S
C708 C710 1.348 . S
C708 C711 1.356 . S
C708 O764 1.325 . S
N709 C712 1.314 . S
N709 C713 1.279 . S
C710 C708 1.348 . S
C710 C712 1.353 . S
C710 H768 0.929 . S
C711 C708 1.356 . S
C711 C713 1.358 . S
C711 H769 0.930 . S
C712 N709 1.314 . S
C712 C710 1.353 . S
C712 H770 0.930 . S
C713 N709 1.279 . S
C713 C711 1.358 . S
C713 H771 0.930 . S
C714 C717 1.348 . S
C714 C718 1.356 . S
C714 O765 1.325 . S
C715 N716 1.279 . S
C715 C718 1.358 . S
C715 H772 0.930 . S
N716 C715 1.279 . S
N716 C719 1.314 . S
C717 C714 1.348 . S
C717 C719 1.353 . S
C717 H773 0.929 . S
C718 C714 1.356 . S
C718 C715 1.358 . S
C718 H774 0.930 . S
C719 N716 1.314 . S
C719 C717 1.353 . S
C719 H775 0.930 . S
C720 N721 1.314 . S
C720 C725 1.353 . S
C720 H726 0.930 . S
N721 Li704 1.990 . S
N721 C720 1.314 . S
N721 C723 1.279 . S
C722 C723 1.358 . S
C722 C724 1.356 . S
C722 H776 0.930 . S
C723 N721 1.279 . S
C723 C722 1.358 . S
C723 H727 0.930 . S
C724 C722 1.356 . S
C724 C725 1.348 . S
C725 C720 1.353 . S
C725 C724 1.348 . S
C725 H777 0.929 . S
H726 C720 0.930 . S
H727 C723 0.930 . S
C728 N729 1.314 . S
C728 C730 1.353 . S
C728 H734 0.930 . S
N729 Li705 1.990 . S
N729 C728 1.314 . S
N729 C732 1.279 . S
C730 C728 1.353 . S
C730 C733 1.348 . S
C730 H778 0.929 . S
C731 C732 1.358 . S
C731 C733 1.356 . S
C731 H779 0.930 . S
C732 N729 1.279 . S
C732 C731 1.358 . S
C732 H735 0.930 . S
C733 C730 1.348 . S
C733 C731 1.356 . S
H734 C728 0.930 . S
H735 C732 0.930 . S
C736 C738 1.348 . S
C736 C739 1.356 . S
C736 O766 1.325 . S
N737 C740 1.314 . S
N737 C741 1.279 . S
C738 C736 1.348 . S
C738 C740 1.353 . S
C738 H780 0.929 . S
C739 C736 1.356 . S
C739 C741 1.358 . S
C739 H781 0.930 . S
C740 N737 1.314 . S
C740 C738 1.353 . S
C740 H782 0.930 . S
C741 N737 1.279 . S
C741 C739 1.358 . S
C741 H783 0.930 . S
C742 C743 1.348 . S
C742 C744 1.356 . S
C742 O767 1.325 . S
C743 C742 1.348 . S
C743 C745 1.353 . S
C743 H784 0.929 . S
C744 C742 1.356 . S
C744 C746 1.358 . S
C744 H785 0.930 . S
C745 C743 1.353 . S
C745 N747 1.314 . S
C745 H786 0.930 . S
C746 C744 1.358 . S
C746 N747 1.279 . S
C746 H787 0.930 . S
N747 C745 1.314 . S
N747 C746 1.279 . S
C748 C750 1.353 . S
C748 N751 1.314 . S
C748 H754 0.930 . S
C749 N751 1.279 . S
C749 C752 1.358 . S
C749 H755 0.930 . S
C750 C748 1.353 . S
C750 C753 1.348 . S
C750 H788 0.929 . S
N751 Li706 1.990 . S
N751 C748 1.314 . S
N751 C749 1.279 . S
C752 C749 1.358 . S
C752 C753 1.356 . S
C752 H789 0.930 . S
C753 C750 1.348 . S
C753 C752 1.356 . S
H754 C748 0.930 . S
H755 C749 0.930 . S
C756 N757 1.314 . S
C756 C758 1.353 . S
C756 H762 0.930 . S
N757 Li707 1.990 . S
N757 C756 1.314 . S
N757 C760 1.279 . S
C758 C756 1.353 . S
C758 C761 1.348 . S
C758 H790 0.929 . S
C759 C760 1.358 . S
C759 C761 1.356 . S
C759 H791 0.930 . S
C760 N757 1.279 . S
C760 C759 1.358 . S
C760 H763 0.930 . S
C761 C758 1.348 . S
C761 C759 1.356 . S
H762 C756 0.930 . S
H763 C760 0.930 . S
O764 Li704 1.956 . S
O764 Li705 1.970 . S
O764 Li706 1.961 . S
O764 C708 1.325 . S
O765 Li704 1.970 . S
O765 Li705 1.956 . S
O765 Li707 1.961 . S
O765 C714 1.325 . S
O766 Li704 1.961 . S
O766 Li706 1.956 . S
O766 Li707 1.970 . S
O766 C736 1.325 . S
O767 Li705 1.961 . S
O767 Li706 1.970 . S
O767 Li707 1.956 . S
O767 C742 1.325 . S
H768 C710 0.929 . S
H769 C711 0.930 . S
H770 C712 0.930 . S
H771 C713 0.930 . S
H772 C715 0.930 . S
H773 C717 0.929 . S
H774 C718 0.930 . S
H775 C719 0.930 . S
H776 C722 0.930 . S
H777 C725 0.929 . S
H778 C730 0.929 . S
H779 C731 0.930 . S
H780 C738 0.929 . S
H781 C739 0.930 . S
H782 C740 0.930 . S
H783 C741 0.930 . S
H784 C743 0.929 . S
H785 C744 0.930 . S
H786 C745 0.930 . S
H787 C746 0.930 . S
H788 C750 0.929 . S
H789 C752 0.930 . S
H790 C758 0.929 . S
H791 C759 0.930 . S
H792 C800 0.929 . S
H793 C802 0.930 . S
H794 C804 0.957 . S
H795 C807 0.930 1_554 S
H796 C810 0.930 . S
H797 C812 0.960 . S
H798 C812 0.960 . S
H799 C812 0.960 . S
C800 H792 0.929 . S
C800 C801 1.377 . S
C800 C802 1.384 . S
C801 C800 1.377 . S
C801 C807 1.390 . S
C802 H793 0.930 . S
C802 C800 1.384 . S
C802 C803 1.372 . S
C803 C802 1.372 . S
C803 C804 1.387 1_556 S
C803 C808 1.492 . S
C804 H794 0.957 . S
C804 C803 1.387 1_554 S
C804 C807 1.375 1_554 S
H805 C821 0.930 . S
H806 C822 0.931 . S
C807 H795 0.930 1_556 S
C807 C801 1.390 . S
C807 C804 1.375 1_556 S
C808 C803 1.492 . S
C808 C810 1.405 . S
C808 C811 1.390 1_556 S
H809 C815 0.930 . S
C810 H796 0.930 . S
C810 C808 1.405 . S
C810 C813 1.403 . S
C811 C808 1.390 1_554 S
C811 C812 1.524 . S
C811 C815 1.400 . S
C812 H797 0.960 . S
C812 H798 0.960 . S
C812 H799 0.960 . S
C812 C811 1.524 . S
C813 C810 1.403 . S
C813 C814 1.392 1_556 S
C813 C817 1.495 . S
C814 C813 1.392 1_554 S
C814 C815 1.385 . S
C814 C816 1.478 . S
C815 H809 0.930 . S
C815 C811 1.400 . S
C815 C814 1.385 . S
C816 C814 1.478 . S
C816 C818 1.381 . S
C816 C822 1.383 . S
C817 C813 1.495 . S
C817 H823 0.959 . S
C817 H824 0.961 . S
C817 H825 0.960 . S
C818 C816 1.381 . S
C818 C819 1.394 . S
C818 H826 0.930 . S
C819 C818 1.394 . S
C819 C820 1.383 . S
C819 H827 0.929 . S
C820 C819 1.383 . S
C820 C821 1.377 . S
C821 H805 0.930 . S
C821 C820 1.377 . S
C821 C822 1.379 . S
C822 H806 0.931 . S
C822 C816 1.383 . S
C822 C821 1.379 . S
H823 C817 0.959 . S
H824 C817 0.961 . S
H825 C817 0.960 . S
H826 C818 0.930 . S
H827 C819 0.929 . S
H828 C836 0.929 . S
H829 C838 0.930 . S
H830 C840 0.930 . S
H831 C843 0.929 1_556 S
H832 C846 0.906 1_565 S
H833 C848 0.960 1_545 S
H834 C848 0.977 . S
H835 C848 0.960 . S
C836 H828 0.929 . S
C836 C837 1.377 . S
C836 C838 1.384 . S
C837 C836 1.377 . S
C837 C843 1.390 . S
C838 H829 0.930 . S
C838 C836 1.384 . S
C838 C839 1.372 . S
C839 C838 1.372 . S
C839 C840 1.400 1_554 S
C839 C844 1.490 . S
C840 H830 0.930 . S
C840 C839 1.400 1_556 S
C840 C843 1.386 1_556 S
H841 C857 0.930 . S
H842 C858 0.931 . S
C843 H831 0.929 1_554 S
C843 C837 1.390 . S
C843 C840 1.386 1_554 S
C844 C839 1.490 . S
C844 C846 1.395 1_565 S
C844 C847 1.403 1_564 S
H845 C851 0.930 . S
C846 H832 0.906 1_545 S
C846 C844 1.395 1_545 S
C846 C849 1.403 . S
C847 C844 1.403 1_546 S
C847 C848 1.524 1_545 S
C847 C851 1.400 . S
C848 H833 0.960 1_565 S
C848 H834 0.977 . S
C848 H835 0.960 . S
C848 C847 1.524 1_565 S
C849 C846 1.403 . S
C849 C850 1.392 . S
C849 C853 1.495 . S
C850 C849 1.392 . S
C850 C851 1.385 1_554 S
C850 C852 1.478 1_554 S
C851 H845 0.930 . S
C851 C847 1.400 . S
C851 C850 1.385 1_556 S
C852 C850 1.478 1_556 S
C852 C854 1.381 1_556 S
C852 C858 1.383 . S
C853 C849 1.495 . S
C853 H859 0.959 . S
C853 H860 0.961 . S
C853 H861 0.960 . S
C854 C852 1.381 1_554 S
C854 C855 1.394 . S
C854 H862 0.930 . S
C855 C854 1.394 . S
C855 C856 1.383 1_554 S
C855 H863 0.929 . S
C856 C855 1.383 1_556 S
C856 C857 1.377 . S
C857 H841 0.930 . S
C857 C856 1.377 . S
C857 C858 1.379 . S
C858 H842 0.931 . S
C858 C852 1.383 . S
C858 C857 1.379 . S
H859 C853 0.959 . S
H860 C853 0.961 . S
H861 C853 0.960 . S
H862 C854 0.930 . S
H863 C855 0.929 . S
H864 C872 0.929 . S
H865 C874 0.930 . S
H866 C876 0.930 . S
H867 C879 0.952 . S
H868 C882 0.946 . S
H869 C884 0.960 . S
H870 C884 0.960 . S
H871 C884 0.960 . S
C872 H864 0.929 . S
C872 C873 1.377 . S
C872 C874 1.384 . S
C873 C872 1.377 . S
C873 C879 1.360 1_556 S
C874 H865 0.930 . S
C874 C872 1.384 . S
C874 C875 1.372 . S
C875 C874 1.372 . S
C875 C876 1.400 1_556 S
C875 C880 1.496 . S
C876 H866 0.930 . S
C876 C875 1.400 1_554 S
C876 C879 1.396 . S
H877 C893 0.930 . S
H878 C894 0.931 . S
C879 H867 0.952 . S
C879 C873 1.360 1_554 S
C879 C876 1.396 . S
C880 C875 1.496 . S
C880 C882 1.420 1_655 S
C880 C883 1.358 1_656 S
H881 C887 0.930 . S
C882 H868 0.946 . S
C882 C880 1.420 1_455 S
C882 C885 1.403 . S
C883 C880 1.358 1_454 S
C883 C884 1.509 1_455 S
C883 C887 1.432 . S
C884 H869 0.960 . S
C884 H870 0.960 . S
C884 H871 0.960 . S
C884 C883 1.509 1_655 S
C885 C882 1.403 . S
C885 C886 1.392 1_556 S
C885 C889 1.495 . S
C886 C885 1.392 1_554 S
C886 C887 1.385 . S
C886 C888 1.478 . S
C887 H881 0.930 . S
C887 C883 1.432 . S
C887 C886 1.385 . S
C888 C886 1.478 . S
C888 C890 1.381 . S
C888 C894 1.383 . S
C889 C885 1.495 . S
C889 H895 0.959 . S
C889 H896 0.961 . S
C889 H897 0.960 . S
C890 C888 1.381 . S
C890 C891 1.394 . S
C890 H898 0.930 1_554 S
C891 C890 1.394 . S
C891 C892 1.383 . S
C891 H899 0.929 . S
C892 C891 1.383 . S
C892 C893 1.377 . S
C893 H877 0.930 . S
C893 C892 1.377 . S
C893 C894 1.379 . S
C894 H878 0.931 . S
C894 C888 1.383 . S
C894 C893 1.379 . S
H895 C889 0.959 . S
H896 C889 0.961 . S
H897 C889 0.960 . S
H898 C890 0.930 1_556 S
H899 C891 0.929 . S
H900 C908 0.929 . S
H901 C910 0.930 . S
H902 C912 0.930 . S
H903 C915 0.929 . S
H904 C918 0.930 . S
H905 C920 0.960 . S
H906 C920 0.960 . S
H907 C920 0.960 . S
C908 H900 0.929 . S
C908 C909 1.377 . S
C908 C910 1.384 . S
C909 C908 1.377 . S
C909 C915 1.390 . S
C910 H901 0.930 . S
C910 C908 1.384 . S
C910 C911 1.372 . S
C911 C910 1.372 . S
C911 C912 1.400 . S
C911 C916 1.490 . S
C912 H902 0.930 . S
C912 C911 1.400 . S
C912 C915 1.386 . S
H913 C929 0.930 . S
H914 C930 0.931 . S
C915 H903 0.929 . S
C915 C909 1.390 . S
C915 C912 1.386 . S
C916 C911 1.490 . S
C916 C918 1.395 . S
C916 C919 1.403 . S
H917 C923 0.930 . S
C918 H904 0.930 . S
C918 C916 1.395 . S
C918 C921 1.403 . S
C919 C916 1.403 . S
C919 C920 1.524 . S
C919 C923 1.400 . S
C920 H905 0.960 . S
C920 H906 0.960 . S
C920 H907 0.960 . S
C920 C919 1.524 . S
C921 C918 1.403 . S
C921 C922 1.392 . S
C921 C925 1.495 . S
C922 C921 1.392 . S
C922 C923 1.385 . S
C922 C924 1.478 . S
C923 H917 0.930 . S
C923 C919 1.400 . S
C923 C922 1.385 . S
C924 C922 1.478 . S
C924 C926 1.381 . S
C924 C930 1.383 . S
C925 C921 1.495 . S
C925 H931 0.959 . S
C925 H932 0.961 . S
C925 H933 0.960 . S
C926 C924 1.381 . S
C926 C927 1.394 . S
C926 H934 0.930 . S
C927 C926 1.394 . S
C927 C928 1.383 . S
C927 H935 0.929 . S
C928 C927 1.383 . S
C928 C929 1.377 . S
C929 H913 0.930 . S
C929 C928 1.377 . S
C929 C930 1.379 . S
C930 H914 0.931 . S
C930 C924 1.383 . S
C930 C929 1.379 . S
H931 C925 0.959 . S
H932 C925 0.961 . S
H933 C925 0.960 . S
H934 C926 0.930 . S
H935 C927 0.929 . S
H936 C944 0.929 . S
H937 C946 0.930 . S
H938 C948 0.930 . S
H939 C951 0.929 . S
H940 C954 0.930 . S
H941 C956 0.960 . S
H942 C956 0.960 . S
H943 C956 0.960 . S
C944 H936 0.929 . S
C944 C945 1.377 . S
C944 C946 1.384 . S
C945 C944 1.377 . S
C945 C951 1.390 . S
C946 H937 0.930 . S
C946 C944 1.384 . S
C946 C947 1.372 . S
C947 C946 1.372 . S
C947 C948 1.400 . S
C947 C952 1.490 . S
C948 H938 0.930 . S
C948 C947 1.400 . S
C948 C951 1.386 . S
H949 C965 0.930 . S
H950 C966 0.931 . S
C951 H939 0.929 . S
C951 C945 1.390 . S
C951 C948 1.386 . S
C952 C947 1.490 . S
C952 C954 1.395 . S
C952 C955 1.403 . S
H953 C959 0.930 . S
C954 H940 0.930 . S
C954 C952 1.395 . S
C954 C957 1.403 . S
C955 C952 1.403 . S
C955 C956 1.524 . S
C955 C959 1.400 . S
C956 H941 0.960 . S
C956 H942 0.960 . S
C956 H943 0.960 . S
C956 C955 1.524 . S
C957 C954 1.403 . S
C957 C958 1.392 . S
C957 C961 1.495 . S
C958 C957 1.392 . S
C958 C959 1.385 . S
C958 C960 1.478 . S
C959 H953 0.930 . S
C959 C955 1.400 . S
C959 C958 1.385 . S
C960 C958 1.478 . S
C960 C962 1.381 . S
C960 C966 1.383 . S
C961 C957 1.495 . S
C961 H967 0.959 . S
C961 H968 0.961 . S
C961 H969 0.960 . S
C962 C960 1.381 . S
C962 C963 1.394 . S
C962 H970 0.930 . S
C963 C962 1.394 . S
C963 C964 1.383 . S
C963 H971 0.929 . S
C964 C963 1.383 . S
C964 C965 1.377 . S
C965 H949 0.930 . S
C965 C964 1.377 . S
C965 C966 1.379 . S
C966 H950 0.931 . S
C966 C960 1.383 . S
C966 C965 1.379 . S
H967 C961 0.959 . S
H968 C961 0.961 . S
H969 C961 0.960 . S
H970 C962 0.930 . S
H971 C963 0.929 . S
H972 C980 0.929 . S
H973 C982 0.930 . S
H974 C984 0.930 . S
H975 C987 0.929 . S
H976 C990 0.930 . S
H977 C992 0.960 . S
H978 C992 0.960 . S
H979 C992 0.960 . S
C980 H972 0.929 . S
C980 C981 1.377 . S
C980 C982 1.384 . S
C981 C980 1.377 . S
C981 C987 1.390 . S
C982 H973 0.930 . S
C982 C980 1.384 . S
C982 C983 1.372 . S
C983 C982 1.372 . S
C983 C984 1.400 . S
C983 C988 1.490 . S
C984 H974 0.930 . S
C984 C983 1.400 . S
C984 C987 1.386 . S
H985 C1001 0.930 . S
H986 C1002 0.931 . S
C987 H975 0.929 . S
C987 C981 1.390 . S
C987 C984 1.386 . S
C988 C983 1.490 . S
C988 C990 1.395 . S
C988 C991 1.403 . S
H989 C995 0.930 . S
C990 H976 0.930 . S
C990 C988 1.395 . S
C990 C993 1.403 . S
C991 C988 1.403 . S
C991 C992 1.524 . S
C991 C995 1.400 . S
C992 H977 0.960 . S
C992 H978 0.960 . S
C992 H979 0.960 . S
C992 C991 1.524 . S
C993 C990 1.403 . S
C993 C994 1.392 . S
C993 C997 1.495 . S
C994 C993 1.392 . S
C994 C995 1.385 . S
C994 C996 1.478 . S
C995 H989 0.930 . S
C995 C991 1.400 . S
C995 C994 1.385 . S
C996 C994 1.478 . S
C996 C998 1.381 . S
C996 C1002 1.383 . S
C997 C993 1.495 . S
C997 H1003 0.959 . S
C997 H1004 0.961 . S
C997 H1005 0.960 . S
C998 C996 1.381 . S
C998 C999 1.394 . S
C998 H1006 0.930 . S
C999 C998 1.394 . S
C999 C1000 1.383 . S
C999 H1007 0.929 . S
C1000 C999 1.383 . S
C1000 C1001 1.377 . S
C1001 H985 0.930 . S
C1001 C1000 1.377 . S
C1001 C1002 1.379 . S
C1002 H986 0.931 . S
C1002 C996 1.383 . S
C1002 C1001 1.379 . S
H1003 C997 0.959 . S
H1004 C997 0.961 . S
H1005 C997 0.960 . S
H1006 C998 0.930 . S
H1007 C999 0.929 . S
H1008 C1016 0.929 . S
H1009 C1018 0.930 . S
H1010 C1020 0.930 . S
H1011 C1023 0.929 . S
H1012 C1026 0.930 . S
H1013 C1028 0.960 . S
H1014 C1028 0.960 . S
H1015 C1028 0.960 . S
C1016 H1008 0.929 . S
C1016 C1017 1.377 . S
C1016 C1018 1.384 . S
C1017 C1016 1.377 . S
C1017 C1023 1.390 . S
C1018 H1009 0.930 . S
C1018 C1016 1.384 . S
C1018 C1019 1.372 . S
C1019 C1018 1.372 . S
C1019 C1020 1.400 . S
C1019 C1024 1.490 . S
C1020 H1010 0.930 . S
C1020 C1019 1.400 . S
C1020 C1023 1.386 . S
H1021 C1037 0.930 . S
H1022 C1038 0.931 . S
C1023 H1011 0.929 . S
C1023 C1017 1.390 . S
C1023 C1020 1.386 . S
C1024 C1019 1.490 . S
C1024 C1026 1.395 . S
C1024 C1027 1.403 . S
H1025 C1031 0.930 . S
C1026 H1012 0.930 . S
C1026 C1024 1.395 . S
C1026 C1029 1.403 . S
C1027 C1024 1.403 . S
C1027 C1028 1.524 . S
C1027 C1031 1.400 . S
C1028 H1013 0.960 . S
C1028 H1014 0.960 . S
C1028 H1015 0.960 . S
C1028 C1027 1.524 . S
C1029 C1026 1.403 . S
C1029 C1030 1.392 . S
C1029 C1033 1.495 . S
C1030 C1029 1.392 . S
C1030 C1031 1.385 . S
C1030 C1032 1.478 . S
C1031 H1025 0.930 . S
C1031 C1027 1.400 . S
C1031 C1030 1.385 . S
C1032 C1030 1.478 . S
C1032 C1034 1.381 . S
C1032 C1038 1.383 . S
C1033 C1029 1.495 . S
C1033 H1039 0.959 . S
C1033 H1040 0.961 . S
C1033 H1041 0.960 . S
C1034 C1032 1.381 . S
C1034 C1035 1.394 . S
C1034 H1042 0.930 . S
C1035 C1034 1.394 . S
C1035 C1036 1.383 . S
C1035 H1043 0.929 . S
C1036 C1035 1.383 . S
C1036 C1037 1.377 . S
C1037 H1021 0.930 . S
C1037 C1036 1.377 . S
C1037 C1038 1.379 . S
C1038 H1022 0.931 . S
C1038 C1032 1.383 . S
C1038 C1037 1.379 . S
H1039 C1033 0.959 . S
H1040 C1033 0.961 . S
H1041 C1033 0.960 . S
H1042 C1034 0.930 . S
H1043 C1035 0.929 . S
H1044 C1052 0.929 . S
H1045 C1054 0.930 . S
H1046 C1056 0.930 . S
H1047 C1059 0.929 . S
H1048 C1062 0.930 . S
H1049 C1064 0.960 . S
H1050 C1064 0.960 . S
H1051 C1064 0.960 . S
C1052 H1044 0.929 . S
C1052 C1053 1.377 . S
C1052 C1054 1.384 . S
C1053 C1052 1.377 . S
C1053 C1059 1.390 . S
C1054 H1045 0.930 . S
C1054 C1052 1.384 . S
C1054 C1055 1.372 . S
C1055 C1054 1.372 . S
C1055 C1056 1.400 . S
C1055 C1060 1.490 . S
C1056 H1046 0.930 . S
C1056 C1055 1.400 . S
C1056 C1059 1.386 . S
H1057 C1073 0.930 . S
H1058 C1074 0.931 . S
C1059 H1047 0.929 . S
C1059 C1053 1.390 . S
C1059 C1056 1.386 . S
C1060 C1055 1.490 . S
C1060 C1062 1.395 . S
C1060 C1063 1.403 . S
H1061 C1067 0.930 . S
C1062 H1048 0.930 . S
C1062 C1060 1.395 . S
C1062 C1065 1.403 . S
C1063 C1060 1.403 . S
C1063 C1064 1.524 . S
C1063 C1067 1.400 . S
C1064 H1049 0.960 . S
C1064 H1050 0.960 . S
C1064 H1051 0.960 . S
C1064 C1063 1.524 . S
C1065 C1062 1.403 . S
C1065 C1066 1.392 . S
C1065 C1069 1.495 . S
C1066 C1065 1.392 . S
C1066 C1067 1.385 . S
C1066 C1068 1.478 . S
C1067 H1061 0.930 . S
C1067 C1063 1.400 . S
C1067 C1066 1.385 . S
C1068 C1066 1.478 . S
C1068 C1070 1.381 . S
C1068 C1074 1.383 . S
C1069 C1065 1.495 . S
C1069 H1075 0.959 . S
C1069 H1076 0.961 . S
C1069 H1077 0.960 . S
C1070 C1068 1.381 . S
C1070 C1071 1.394 . S
C1070 H1078 0.930 . S
C1071 C1070 1.394 . S
C1071 C1072 1.383 . S
C1071 H1079 0.929 . S
C1072 C1071 1.383 . S
C1072 C1073 1.377 . S
C1073 H1057 0.930 . S
C1073 C1072 1.377 . S
C1073 C1074 1.379 . S
C1074 H1058 0.931 . S
C1074 C1068 1.383 . S
C1074 C1073 1.379 . S
H1075 C1069 0.959 . S
H1076 C1069 0.961 . S
H1077 C1069 0.960 . S
H1078 C1070 0.930 . S
H1079 C1071 0.929 . S
H1080 C1088 0.929 . S
H1081 C1090 0.930 . S
H1082 C1092 0.930 . S
H1083 C1095 0.929 . S
H1084 C1098 0.930 . S
H1085 C1100 0.960 . S
H1086 C1100 0.960 . S
H1087 C1100 0.960 . S
C1088 H1080 0.929 . S
C1088 C1089 1.377 . S
C1088 C1090 1.384 . S
C1089 C1088 1.377 . S
C1089 C1095 1.390 . S
C1090 H1081 0.930 . S
C1090 C1088 1.384 . S
C1090 C1091 1.372 . S
C1091 C1090 1.372 . S
C1091 C1092 1.400 . S
C1091 C1096 1.490 . S
C1092 H1082 0.930 . S
C1092 C1091 1.400 . S
C1092 C1095 1.386 . S
H1093 C1109 0.930 . S
H1094 C1110 0.931 . S
C1095 H1083 0.929 . S
C1095 C1089 1.390 . S
C1095 C1092 1.386 . S
C1096 C1091 1.490 . S
C1096 C1098 1.395 . S
C1096 C1099 1.403 . S
H1097 C1103 0.930 . S
C1098 H1084 0.930 . S
C1098 C1096 1.395 . S
C1098 C1101 1.403 . S
C1099 C1096 1.403 . S
C1099 C1100 1.524 . S
C1099 C1103 1.400 . S
C1100 H1085 0.960 . S
C1100 H1086 0.960 . S
C1100 H1087 0.960 . S
C1100 C1099 1.524 . S
C1101 C1098 1.403 . S
C1101 C1102 1.392 . S
C1101 C1105 1.495 . S
C1102 C1101 1.392 . S
C1102 C1103 1.385 . S
C1102 C1104 1.478 . S
C1103 H1097 0.930 . S
C1103 C1099 1.400 . S
C1103 C1102 1.385 . S
C1104 C1102 1.478 . S
C1104 C1106 1.381 . S
C1104 C1110 1.383 . S
C1105 C1101 1.495 . S
C1105 H1111 0.959 . S
C1105 H1112 0.961 . S
C1105 H1113 0.960 . S
C1106 C1104 1.381 . S
C1106 C1107 1.394 . S
C1106 H1114 0.930 . S
C1107 C1106 1.394 . S
C1107 C1108 1.383 . S
C1107 H1115 0.929 . S
C1108 C1107 1.383 . S
C1108 C1109 1.377 . S
C1109 H1093 0.930 . S
C1109 C1108 1.377 . S
C1109 C1110 1.379 . S
C1110 H1094 0.931 . S
C1110 C1104 1.383 . S
C1110 C1109 1.379 . S
H1111 C1105 0.959 . S
H1112 C1105 0.961 . S
H1113 C1105 0.960 . S
H1114 C1106 0.930 . S
H1115 C1107 0.929 . S
H1116 C1124 0.929 . S
H1117 C1126 0.930 . S
H1118 C1128 0.930 . S
H1119 C1131 0.929 . S
H1120 C1134 0.930 . S
H1121 C1136 0.960 . S
H1122 C1136 0.960 . S
H1123 C1136 0.960 . S
C1124 H1116 0.929 . S
C1124 C1125 1.377 . S
C1124 C1126 1.384 . S
C1125 C1124 1.377 . S
C1125 C1131 1.390 . S
C1126 H1117 0.930 . S
C1126 C1124 1.384 . S
C1126 C1127 1.372 . S
C1127 C1126 1.372 . S
C1127 C1128 1.400 . S
C1127 C1132 1.490 . S
C1128 H1118 0.930 . S
C1128 C1127 1.400 . S
C1128 C1131 1.386 . S
H1129 C1145 0.930 . S
H1130 C1146 0.931 . S
C1131 H1119 0.929 . S
C1131 C1125 1.390 . S
C1131 C1128 1.386 . S
C1132 C1127 1.490 . S
C1132 C1134 1.395 . S
C1132 C1135 1.403 . S
H1133 C1139 0.930 . S
C1134 H1120 0.930 . S
C1134 C1132 1.395 . S
C1134 C1137 1.403 . S
C1135 C1132 1.403 . S
C1135 C1136 1.524 . S
C1135 C1139 1.400 . S
C1136 H1121 0.960 . S
C1136 H1122 0.960 . S
C1136 H1123 0.960 . S
C1136 C1135 1.524 . S
C1137 C1134 1.403 . S
C1137 C1138 1.392 . S
C1137 C1141 1.495 . S
C1138 C1137 1.392 . S
C1138 C1139 1.385 . S
C1138 C1140 1.478 . S
C1139 H1133 0.930 . S
C1139 C1135 1.400 . S
C1139 C1138 1.385 . S
C1140 C1138 1.478 . S
C1140 C1142 1.381 . S
C1140 C1146 1.383 . S
C1141 C1137 1.495 . S
C1141 H1147 0.959 . S
C1141 H1148 0.961 . S
C1141 H1149 0.960 . S
C1142 C1140 1.381 . S
C1142 C1143 1.394 . S
C1142 H1150 0.930 . S
C1143 C1142 1.394 . S
C1143 C1144 1.383 . S
C1143 H1151 0.929 . S
C1144 C1143 1.383 . S
C1144 C1145 1.377 . S
C1145 H1129 0.930 . S
C1145 C1144 1.377 . S
C1145 C1146 1.379 . S
C1146 H1130 0.931 . S
C1146 C1140 1.383 . S
C1146 C1145 1.379 . S
H1147 C1141 0.959 . S
H1148 C1141 0.961 . S
H1149 C1141 0.960 . S
H1150 C1142 0.930 . S
H1151 C1143 0.929 . S
H1152 C1160 0.929 . S
H1153 C1162 0.930 . S
H1154 C1164 0.930 . S
H1155 C1167 0.929 . S
H1156 C1170 0.930 . S
H1157 C1172 0.960 . S
H1158 C1172 0.960 . S
H1159 C1172 0.960 . S
C1160 H1152 0.929 . S
C1160 C1161 1.377 . S
C1160 C1162 1.384 . S
C1161 C1160 1.377 . S
C1161 C1167 1.390 . S
C1162 H1153 0.930 . S
C1162 C1160 1.384 . S
C1162 C1163 1.372 . S
C1163 C1162 1.372 . S
C1163 C1164 1.400 . S
C1163 C1168 1.490 . S
C1164 H1154 0.930 . S
C1164 C1163 1.400 . S
C1164 C1167 1.386 . S
H1165 C1181 0.930 . S
H1166 C1182 0.931 . S
C1167 H1155 0.929 . S
C1167 C1161 1.390 . S
C1167 C1164 1.386 . S
C1168 C1163 1.490 . S
C1168 C1170 1.395 . S
C1168 C1171 1.403 . S
H1169 C1175 0.930 . S
C1170 H1156 0.930 . S
C1170 C1168 1.395 . S
C1170 C1173 1.403 . S
C1171 C1168 1.403 . S
C1171 C1172 1.524 . S
C1171 C1175 1.400 . S
C1172 H1157 0.960 . S
C1172 H1158 0.960 . S
C1172 H1159 0.960 . S
C1172 C1171 1.524 . S
C1173 C1170 1.403 . S
C1173 C1174 1.392 . S
C1173 C1177 1.495 . S
C1174 C1173 1.392 . S
C1174 C1175 1.385 . S
C1174 C1176 1.478 . S
C1175 H1169 0.930 . S
C1175 C1171 1.400 . S
C1175 C1174 1.385 . S
C1176 C1174 1.478 . S
C1176 C1178 1.381 . S
C1176 C1182 1.383 . S
C1177 C1173 1.495 . S
C1177 H1183 0.959 . S
C1177 H1184 0.961 . S
C1177 H1185 0.960 . S
C1178 C1176 1.381 . S
C1178 C1179 1.394 . S
C1178 H1186 0.930 . S
C1179 C1178 1.394 . S
C1179 C1180 1.383 . S
C1179 H1187 0.929 . S
C1180 C1179 1.383 . S
C1180 C1181 1.377 . S
C1181 H1165 0.930 . S
C1181 C1180 1.377 . S
C1181 C1182 1.379 . S
C1182 H1166 0.931 . S
C1182 C1176 1.383 . S
C1182 C1181 1.379 . S
H1183 C1177 0.959 . S
H1184 C1177 0.961 . S
H1185 C1177 0.960 . S
H1186 C1178 0.930 . S
H1187 C1179 0.929 . S
H1188 C1196 0.929 . S
H1189 C1198 0.930 . S
H1190 C1200 0.930 . S
H1191 C1203 0.929 . S
H1192 C1206 0.930 . S
H1193 C1208 0.960 . S
H1194 C1208 0.960 . S
H1195 C1208 0.960 . S
C1196 H1188 0.929 . S
C1196 C1197 1.377 . S
C1196 C1198 1.384 . S
C1197 C1196 1.377 . S
C1197 C1203 1.390 . S
C1198 H1189 0.930 . S
C1198 C1196 1.384 . S
C1198 C1199 1.372 . S
C1199 C1198 1.372 . S
C1199 C1200 1.400 . S
C1199 C1204 1.490 . S
C1200 H1190 0.930 . S
C1200 C1199 1.400 . S
C1200 C1203 1.386 . S
H1201 C1217 0.930 . S
H1202 C1218 0.931 . S
C1203 H1191 0.929 . S
C1203 C1197 1.390 . S
C1203 C1200 1.386 . S
C1204 C1199 1.490 . S
C1204 C1206 1.395 . S
C1204 C1207 1.403 . S
H1205 C1211 0.930 . S
C1206 H1192 0.930 . S
C1206 C1204 1.395 . S
C1206 C1209 1.403 . S
C1207 C1204 1.403 . S
C1207 C1208 1.524 . S
C1207 C1211 1.400 . S
C1208 H1193 0.960 . S
C1208 H1194 0.960 . S
C1208 H1195 0.960 . S
C1208 C1207 1.524 . S
C1209 C1206 1.403 . S
C1209 C1210 1.392 . S
C1209 C1213 1.495 1_565 S
C1210 C1209 1.392 . S
C1210 C1211 1.385 . S
C1210 C1212 1.478 . S
C1211 H1205 0.930 . S
C1211 C1207 1.400 . S
C1211 C1210 1.385 . S
C1212 C1210 1.478 . S
C1212 C1214 1.381 . S
C1212 C1218 1.383 . S
C1213 C1209 1.495 1_545 S
C1213 H1219 0.959 . S
C1213 H1220 0.961 . S
C1213 H1221 0.960 . S
C1214 C1212 1.381 . S
C1214 C1215 1.394 . S
C1214 H1222 0.930 . S
C1215 C1214 1.394 . S
C1215 C1216 1.383 . S
C1215 H1223 0.929 . S
C1216 C1215 1.383 . S
C1216 C1217 1.377 . S
C1217 H1201 0.930 . S
C1217 C1216 1.377 . S
C1217 C1218 1.379 . S
C1218 H1202 0.931 . S
C1218 C1212 1.383 . S
C1218 C1217 1.379 . S
H1219 C1213 0.959 . S
H1220 C1213 0.961 . S
H1221 C1213 0.960 . S
H1222 C1214 0.930 . S
H1223 C1215 0.929 . S
H1224 C1232 0.929 . S
H1225 C1234 0.930 . S
H1226 C1236 0.930 . S
H1227 C1239 0.929 . S
H1228 C1242 0.930 . S
H1229 C1244 0.960 . S
H1230 C1244 0.960 . S
H1231 C1244 0.960 . S
C1232 H1224 0.929 . S
C1232 C1233 1.377 . S
C1232 C1234 1.384 . S
C1233 C1232 1.377 . S
C1233 C1239 1.390 . S
C1234 H1225 0.930 . S
C1234 C1232 1.384 . S
C1234 C1235 1.372 . S
C1235 C1234 1.372 . S
C1235 C1236 1.400 . S
C1235 C1240 1.490 . S
C1236 H1226 0.930 . S
C1236 C1235 1.400 . S
C1236 C1239 1.386 . S
H1237 C1253 0.930 . S
H1238 C1254 0.931 . S
C1239 H1227 0.929 . S
C1239 C1233 1.390 . S
C1239 C1236 1.386 . S
C1240 C1235 1.490 . S
C1240 C1242 1.395 . S
C1240 C1243 1.403 . S
H1241 C1247 0.930 . S
C1242 H1228 0.930 . S
C1242 C1240 1.395 . S
C1242 C1245 1.403 . S
C1243 C1240 1.403 . S
C1243 C1244 1.524 . S
C1243 C1247 1.400 . S
C1244 H1229 0.960 . S
C1244 H1230 0.960 . S
C1244 H1231 0.960 . S
C1244 C1243 1.524 . S
C1245 C1242 1.403 . S
C1245 C1246 1.392 . S
C1245 C1249 1.495 . S
C1246 C1245 1.392 . S
C1246 C1247 1.385 . S
C1246 C1248 1.478 . S
C1247 H1241 0.930 . S
C1247 C1243 1.400 . S
C1247 C1246 1.385 . S
C1248 C1246 1.478 . S
C1248 C1250 1.381 . S
C1248 C1254 1.383 . S
C1249 C1245 1.495 . S
C1249 H1255 0.959 . S
C1249 H1256 0.961 . S
C1249 H1257 0.960 . S
C1250 C1248 1.381 . S
C1250 C1251 1.394 . S
C1250 H1258 0.930 . S
C1251 C1250 1.394 . S
C1251 C1252 1.383 . S
C1251 H1259 0.929 . S
C1252 C1251 1.383 . S
C1252 C1253 1.377 . S
C1253 H1237 0.930 . S
C1253 C1252 1.377 . S
C1253 C1254 1.379 . S
C1254 H1238 0.931 . S
C1254 C1248 1.383 . S
C1254 C1253 1.379 . S
H1255 C1249 0.959 . S
H1256 C1249 0.961 . S
H1257 C1249 0.960 . S
H1258 C1250 0.930 . S
H1259 C1251 0.929 . S
H1260 C1268 0.931 1_455 S
H1261 C1270 0.955 . S
H1262 C1272 0.930 . S
H1263 C1275 0.929 . S
H1264 C1278 0.930 1_455 S
H1265 C1280 0.960 . S
H1266 C1280 0.960 . S
H1267 C1280 0.960 . S
C1268 H1260 0.931 1_655 S
C1268 C1269 1.377 . S
C1268 C1270 1.383 . S
C1269 C1268 1.377 . S
C1269 C1275 1.390 . S
C1270 H1261 0.955 . S
C1270 C1268 1.383 . S
C1270 C1271 1.372 . S
C1271 C1270 1.372 . S
C1271 C1272 1.400 . S
C1271 C1276 1.490 . S
C1272 H1262 0.930 . S
C1272 C1271 1.400 . S
C1272 C1275 1.386 . S
H1273 C1289 0.930 . S
H1274 C1290 0.931 . S
C1275 H1263 0.929 . S
C1275 C1269 1.390 . S
C1275 C1272 1.386 . S
C1276 C1271 1.490 . S
C1276 C1278 1.395 . S
C1276 C1279 1.403 . S
H1277 C1283 0.930 . S
C1278 H1264 0.930 1_655 S
C1278 C1276 1.395 . S
C1278 C1281 1.403 . S
C1279 C1276 1.403 . S
C1279 C1280 1.524 . S
C1279 C1283 1.400 . S
C1280 H1265 0.960 . S
C1280 H1266 0.960 . S
C1280 H1267 0.960 . S
C1280 C1279 1.524 . S
C1281 C1278 1.403 . S
C1281 C1282 1.392 . S
C1281 C1285 1.495 1_655 S
C1282 C1281 1.392 . S
C1282 C1283 1.385 . S
C1282 C1284 1.478 . S
C1283 H1277 0.930 . S
C1283 C1279 1.400 . S
C1283 C1282 1.385 . S
C1284 C1282 1.478 . S
C1284 C1286 1.381 . S
C1284 C1290 1.383 . S
C1285 C1281 1.495 1_455 S
C1285 H1291 0.959 . S
C1285 H1292 0.961 . S
C1285 H1293 0.960 . S
C1286 C1284 1.381 . S
C1286 C1287 1.394 . S
C1286 H1294 0.930 . S
C1287 C1286 1.394 . S
C1287 C1288 1.383 . S
C1287 H1295 0.929 . S
C1288 C1287 1.383 . S
C1288 C1289 1.377 . S
C1289 H1273 0.930 . S
C1289 C1288 1.377 . S
C1289 C1290 1.379 . S
C1290 H1274 0.931 . S
C1290 C1284 1.383 . S
C1290 C1289 1.379 . S
H1291 C1285 0.959 . S
H1292 C1285 0.961 . S
H1293 C1285 0.960 . S
H1294 C1286 0.930 . S
H1295 C1287 0.929 . S
H1296 C1304 0.929 . S
H1297 C1306 0.930 . S
H1298 C1308 0.930 . S
H1299 C1311 0.929 . S
H1300 C1314 0.930 . S
H1301 C1316 0.960 . S
H1302 C1316 0.960 . S
H1303 C1316 0.960 . S
C1304 H1296 0.929 . S
C1304 C1305 1.377 . S
C1304 C1306 1.384 . S
C1305 C1304 1.377 . S
C1305 C1311 1.390 . S
C1306 H1297 0.930 . S
C1306 C1304 1.384 . S
C1306 C1307 1.372 . S
C1307 C1306 1.372 . S
C1307 C1308 1.400 . S
C1307 C1312 1.490 . S
C1308 H1298 0.930 . S
C1308 C1307 1.400 . S
C1308 C1311 1.386 . S
H1309 C1325 0.930 . S
H1310 C1326 0.931 . S
C1311 H1299 0.929 . S
C1311 C1305 1.390 . S
C1311 C1308 1.386 . S
C1312 C1307 1.490 . S
C1312 C1314 1.395 . S
C1312 C1315 1.403 . S
H1313 C1319 0.930 . S
C1314 H1300 0.930 . S
C1314 C1312 1.395 . S
C1314 C1317 1.403 . S
C1315 C1312 1.403 . S
C1315 C1316 1.524 . S
C1315 C1319 1.400 . S
C1316 H1301 0.960 . S
C1316 H1302 0.960 . S
C1316 H1303 0.960 . S
C1316 C1315 1.524 . S
C1317 C1314 1.403 . S
C1317 C1318 1.392 . S
C1317 C1321 1.495 . S
C1318 C1317 1.392 . S
C1318 C1319 1.385 . S
C1318 C1320 1.478 . S
C1319 H1313 0.930 . S
C1319 C1315 1.400 . S
C1319 C1318 1.385 . S
C1320 C1318 1.478 . S
C1320 C1322 1.381 . S
C1320 C1326 1.383 . S
C1321 C1317 1.495 . S
C1321 H1327 0.959 . S
C1321 H1328 0.961 . S
C1321 H1329 0.960 . S
C1322 C1320 1.381 . S
C1322 C1323 1.394 . S
C1322 H1330 0.930 . S
C1323 C1322 1.394 . S
C1323 C1324 1.383 . S
C1323 H1331 0.929 . S
C1324 C1323 1.383 . S
C1324 C1325 1.377 . S
C1325 H1309 0.930 . S
C1325 C1324 1.377 . S
C1325 C1326 1.379 . S
C1326 H1310 0.931 . S
C1326 C1320 1.383 . S
C1326 C1325 1.379 . S
H1327 C1321 0.959 . S
H1328 C1321 0.961 . S
H1329 C1321 0.960 . S
H1330 C1322 0.930 . S
H1331 C1323 0.929 . S
H1332 C1340 0.929 . S
H1333 C1342 0.930 . S
H1334 C1344 0.930 . S
H1335 C1347 0.929 . S
H1336 C1350 0.930 . S
H1337 C1352 0.960 . S
H1338 C1352 0.960 . S
H1339 C1352 0.960 . S
C1340 H1332 0.929 . S
C1340 C1341 1.377 . S
C1340 C1342 1.384 . S
C1341 C1340 1.377 . S
C1341 C1347 1.390 . S
C1342 H1333 0.930 . S
C1342 C1340 1.384 . S
C1342 C1343 1.372 . S
C1343 C1342 1.372 . S
C1343 C1344 1.400 . S
C1343 C1348 1.490 . S
C1344 H1334 0.930 . S
C1344 C1343 1.400 . S
C1344 C1347 1.386 . S
H1345 C1361 0.930 . S
H1346 C1362 0.931 1_455 S
C1347 H1335 0.929 . S
C1347 C1341 1.390 . S
C1347 C1344 1.386 . S
C1348 C1343 1.490 . S
C1348 C1350 1.395 . S
C1348 C1351 1.403 . S
H1349 C1355 0.930 1_655 S
C1350 H1336 0.930 . S
C1350 C1348 1.395 . S
C1350 C1353 1.403 . S
C1351 C1348 1.403 . S
C1351 C1352 1.524 . S
C1351 C1355 1.400 . S
C1352 H1337 0.960 . S
C1352 H1338 0.960 . S
C1352 H1339 0.960 . S
C1352 C1351 1.524 . S
C1353 C1350 1.403 . S
C1353 C1354 1.392 . S
C1353 C1357 1.495 . S
C1354 C1353 1.392 . S
C1354 C1355 1.385 . S
C1354 C1356 1.478 1_455 S
C1355 H1349 0.930 1_455 S
C1355 C1351 1.400 . S
C1355 C1354 1.385 . S
C1356 C1354 1.478 1_655 S
C1356 C1358 1.381 . S
C1356 C1362 1.383 . S
C1357 C1353 1.495 . S
C1357 H1363 0.959 . S
C1357 H1364 0.961 . S
C1357 H1365 0.960 . S
C1358 C1356 1.381 . S
C1358 C1359 1.394 . S
C1358 H1366 0.930 . S
C1359 C1358 1.394 . S
C1359 C1360 1.383 . S
C1359 H1367 0.929 . S
C1360 C1359 1.383 . S
C1360 C1361 1.377 . S
C1361 H1345 0.930 . S
C1361 C1360 1.377 . S
C1361 C1362 1.379 . S
C1362 H1346 0.931 1_655 S
C1362 C1356 1.383 . S
C1362 C1361 1.379 . S
H1363 C1357 0.959 . S
H1364 C1357 0.961 . S
H1365 C1357 0.960 . S
H1366 C1358 0.930 . S
H1367 C1359 0.929 . S
H1368 C1376 0.929 . S
H1369 C1378 0.930 . S
H1370 C1380 0.930 . S
H1371 C1383 0.929 . S
H1372 C1386 0.930 . S
H1373 C1388 0.960 . S
H1374 C1388 0.960 . S
H1375 C1388 0.960 . S
C1376 H1368 0.929 . S
C1376 C1377 1.377 . S
C1376 C1378 1.384 . S
C1377 C1376 1.377 . S
C1377 C1383 1.390 . S
C1378 H1369 0.930 . S
C1378 C1376 1.384 . S
C1378 C1379 1.372 . S
C1379 C1378 1.372 . S
C1379 C1380 1.400 . S
C1379 C1384 1.490 . S
C1380 H1370 0.930 . S
C1380 C1379 1.400 . S
C1380 C1383 1.386 . S
H1381 C1397 0.930 . S
H1382 C1398 0.931 . S
C1383 H1371 0.929 . S
C1383 C1377 1.390 . S
C1383 C1380 1.386 . S
C1384 C1379 1.490 . S
C1384 C1386 1.395 . S
C1384 C1387 1.403 . S
H1385 C1391 0.930 . S
C1386 H1372 0.930 . S
C1386 C1384 1.395 . S
C1386 C1389 1.403 . S
C1387 C1384 1.403 . S
C1387 C1388 1.524 . S
C1387 C1391 1.400 . S
C1388 H1373 0.960 . S
C1388 H1374 0.960 . S
C1388 H1375 0.960 . S
C1388 C1387 1.524 . S
C1389 C1386 1.403 . S
C1389 C1390 1.392 . S
C1389 C1393 1.495 . S
C1390 C1389 1.392 . S
C1390 C1391 1.385 . S
C1390 C1392 1.478 . S
C1391 H1385 0.930 . S
C1391 C1387 1.400 . S
C1391 C1390 1.385 . S
C1392 C1390 1.478 . S
C1392 C1394 1.381 . S
C1392 C1398 1.383 . S
C1393 C1389 1.495 . S
C1393 H1399 0.959 . S
C1393 H1400 0.961 . S
C1393 H1401 0.960 . S
C1394 C1392 1.381 . S
C1394 C1395 1.394 . S
C1394 H1402 0.930 . S
C1395 C1394 1.394 . S
C1395 C1396 1.383 . S
C1395 H1403 0.929 . S
C1396 C1395 1.383 . S
C1396 C1397 1.377 . S
C1397 H1381 0.930 . S
C1397 C1396 1.377 . S
C1397 C1398 1.379 . S
C1398 H1382 0.931 . S
C1398 C1392 1.383 . S
C1398 C1397 1.379 . S
H1399 C1393 0.959 . S
H1400 C1393 0.961 . S
H1401 C1393 0.960 . S
H1402 C1394 0.930 . S
H1403 C1395 0.929 . S
H1404 C1412 0.929 . S
H1405 C1414 0.930 . S
H1406 C1416 0.930 1_545 S
H1407 C1419 0.929 . S
H1408 C1422 0.930 . S
H1409 C1424 0.964 1_545 S
H1410 C1424 0.960 . S
H1411 C1424 0.963 . S
C1412 H1404 0.929 . S
C1412 C1413 1.377 . S
C1412 C1414 1.384 . S
C1413 C1412 1.377 . S
C1413 C1419 1.390 . S
C1414 H1405 0.930 . S
C1414 C1412 1.384 . S
C1414 C1415 1.372 . S
C1415 C1414 1.372 . S
C1415 C1416 1.400 . S
C1415 C1420 1.490 1_565 S
C1416 H1406 0.930 1_565 S
C1416 C1415 1.400 . S
C1416 C1419 1.386 . S
H1417 C1433 0.930 . S
H1418 C1434 0.931 . S
C1419 H1407 0.929 . S
C1419 C1413 1.390 . S
C1419 C1416 1.386 . S
C1420 C1415 1.490 1_545 S
C1420 C1422 1.395 . S
C1420 C1423 1.403 . S
H1421 C1427 0.930 . S
C1422 H1408 0.930 . S
C1422 C1420 1.395 . S
C1422 C1425 1.403 . S
C1423 C1420 1.403 . S
C1423 C1424 1.524 1_545 S
C1423 C1427 1.400 . S
C1424 H1409 0.964 1_565 S
C1424 H1410 0.960 . S
C1424 H1411 0.963 . S
C1424 C1423 1.524 1_565 S
C1425 C1422 1.403 . S
C1425 C1426 1.392 . S
C1425 C1429 1.495 . S
C1426 C1425 1.392 . S
C1426 C1427 1.385 . S
C1426 C1428 1.478 . S
C1427 H1421 0.930 . S
C1427 C1423 1.400 . S
C1427 C1426 1.385 . S
C1428 C1426 1.478 . S
C1428 C1430 1.381 . S
C1428 C1434 1.383 . S
C1429 C1425 1.495 . S
C1429 H1435 0.959 . S
C1429 H1436 0.961 . S
C1429 H1437 0.960 . S
C1430 C1428 1.381 . S
C1430 C1431 1.394 . S
C1430 H1438 0.930 . S
C1431 C1430 1.394 . S
C1431 C1432 1.383 . S
C1431 H1439 0.929 . S
C1432 C1431 1.383 . S
C1432 C1433 1.377 . S
C1433 H1417 0.930 . S
C1433 C1432 1.377 . S
C1433 C1434 1.379 . S
C1434 H1418 0.931 . S
C1434 C1428 1.383 . S
C1434 C1433 1.379 . S
H1435 C1429 0.959 . S
H1436 C1429 0.961 . S
H1437 C1429 0.960 . S
H1438 C1430 0.930 . S
H1439 C1431 0.929 . S
C801 C196 0.752 . S
C820 C49 0.717 . S
C837 C145 0.758 . S
C856 C29 0.698 . S
C873 C108 0.754 . S
C892 C233 0.707 . S
C909 C469 0.750 . S
C928 C321 0.723 . S
C945 C409 0.738 . S
C964 C284 0.786 . S
C981 C372 0.747 . S
C1000 C489 0.768 . S
C1017 C577 0.754 . S
C1036 C724 0.736 . S
C1053 C557 0.757 . S
C1072 C665 0.698 . S
C1089 C645 0.754 . S
C1108 C761 0.706 . S
C1125 C57 1.139 . S
C1144 C636 1.148 . S
C1161 C137 1.143 . S
C1180 C733 1.129 . S
C1197 C548 1.139 . S
C1216 C225 1.146 . S
C1233 C401 1.139 . S
C1252 C205 1.143 . S
C1269 C20 1.139 . S
C1288 C497 1.148 . S
C1305 C313 1.139 . S
C1324 C117 1.148 . S
C1341 C673 1.141 . S
C1360 C460 1.132 . S
C1377 C293 1.139 . S
C1396 C753 1.148 . S
C1413 C585 1.140 . S
C1432 C381 1.147 . S
