# Generated by pormake.
# Topology why, (6)-cn, num edge types: 1
# Building blocks:
#     Node 0, Type 0, BuildingBlock: MIDCAF_clean_sbu_0, # of connection points: 6
#     Node 1, Type 0, BuildingBlock: MIDCAF_clean_sbu_0, # of connection points: 6
#     Node 2, Type 0, BuildingBlock: MIDCAF_clean_sbu_0, # of connection points: 6
#     Node 3, Type 0, BuildingBlock: MIDCAF_clean_sbu_0, # of connection points: 6
#     Node 4, Type 0, BuildingBlock: MIDCAF_clean_sbu_0, # of connection points: 6
#     Node 5, Type 0, BuildingBlock: MIDCAF_clean_sbu_0, # of connection points: 6
#     Node 6, Type 0, BuildingBlock: MIDCAF_clean_sbu_0, # of connection points: 6
#     Node 7, Type 0, BuildingBlock: MIDCAF_clean_sbu_0, # of connection points: 6
#     Node 8, Type 0, BuildingBlock: MIDCAF_clean_sbu_0, # of connection points: 6
#     Node 9, Type 0, BuildingBlock: MIDCAF_clean_sbu_0, # of connection points: 6
#     Node 10, Type 0, BuildingBlock: MIDCAF_clean_sbu_0, # of connection points: 6
#     Node 11, Type 0, BuildingBlock: MIDCAF_clean_sbu_0, # of connection points: 6
#     Node 12, Type 0, BuildingBlock: MIDCAF_clean_sbu_0, # of connection points: 6
#     Node 13, Type 0, BuildingBlock: MIDCAF_clean_sbu_0, # of connection points: 6
#     Node 14, Type 0, BuildingBlock: MIDCAF_clean_sbu_0, # of connection points: 6
#     Node 15, Type 0, BuildingBlock: MIDCAF_clean_sbu_0, # of connection points: 6
#     Edge 16, Type (0, 0), BuildingBlock: MIFKUJ_clean_linker_0, # of connection points: 2
#     Edge 17, Type (0, 0), BuildingBlock: MIFKUJ_clean_linker_0, # of connection points: 2
#     Edge 18, Type (0, 0), BuildingBlock: MIFKUJ_clean_linker_0, # of connection points: 2
#     Edge 19, Type (0, 0), BuildingBlock: MIFKUJ_clean_linker_0, # of connection points: 2
#     Edge 20, Type (0, 0), BuildingBlock: MIFKUJ_clean_linker_0, # of connection points: 2
#     Edge 21, Type (0, 0), BuildingBlock: MIFKUJ_clean_linker_0, # of connection points: 2
#     Edge 22, Type (0, 0), BuildingBlock: MIFKUJ_clean_linker_0, # of connection points: 2
#     Edge 23, Type (0, 0), BuildingBlock: MIFKUJ_clean_linker_0, # of connection points: 2
#     Edge 24, Type (0, 0), BuildingBlock: MIFKUJ_clean_linker_0, # of connection points: 2
#     Edge 25, Type (0, 0), BuildingBlock: MIFKUJ_clean_linker_0, # of connection points: 2
#     Edge 26, Type (0, 0), BuildingBlock: MIFKUJ_clean_linker_0, # of connection points: 2
#     Edge 27, Type (0, 0), BuildingBlock: MIFKUJ_clean_linker_0, # of connection points: 2
#     Edge 28, Type (0, 0), BuildingBlock: MIFKUJ_clean_linker_0, # of connection points: 2
#     Edge 29, Type (0, 0), BuildingBlock: MIFKUJ_clean_linker_0, # of connection points: 2
#     Edge 30, Type (0, 0), BuildingBlock: MIFKUJ_clean_linker_0, # of connection points: 2
#     Edge 31, Type (0, 0), BuildingBlock: MIFKUJ_clean_linker_0, # of connection points: 2
#     Edge 32, Type (0, 0), BuildingBlock: MIFKUJ_clean_linker_0, # of connection points: 2
#     Edge 33, Type (0, 0), BuildingBlock: MIFKUJ_clean_linker_0, # of connection points: 2
#     Edge 34, Type (0, 0), BuildingBlock: MIFKUJ_clean_linker_0, # of connection points: 2
#     Edge 35, Type (0, 0), BuildingBlock: MIFKUJ_clean_linker_0, # of connection points: 2
#     Edge 36, Type (0, 0), BuildingBlock: MIFKUJ_clean_linker_0, # of connection points: 2
#     Edge 37, Type (0, 0), BuildingBlock: MIFKUJ_clean_linker_0, # of connection points: 2
#     Edge 38, Type (0, 0), BuildingBlock: MIFKUJ_clean_linker_0, # of connection points: 2
#     Edge 39, Type (0, 0), BuildingBlock: MIFKUJ_clean_linker_0, # of connection points: 2
#     Edge 40, Type (0, 0), BuildingBlock: MIFKUJ_clean_linker_0, # of connection points: 2
#     Edge 41, Type (0, 0), BuildingBlock: MIFKUJ_clean_linker_0, # of connection points: 2
#     Edge 42, Type (0, 0), BuildingBlock: MIFKUJ_clean_linker_0, # of connection points: 2
#     Edge 43, Type (0, 0), BuildingBlock: MIFKUJ_clean_linker_0, # of connection points: 2
#     Edge 44, Type (0, 0), BuildingBlock: MIFKUJ_clean_linker_0, # of connection points: 2
#     Edge 45, Type (0, 0), BuildingBlock: MIFKUJ_clean_linker_0, # of connection points: 2
#     Edge 46, Type (0, 0), BuildingBlock: MIFKUJ_clean_linker_0, # of connection points: 2
#     Edge 47, Type (0, 0), BuildingBlock: MIFKUJ_clean_linker_0, # of connection points: 2
#     Edge 48, Type (0, 0), BuildingBlock: MIFKUJ_clean_linker_0, # of connection points: 2
#     Edge 49, Type (0, 0), BuildingBlock: MIFKUJ_clean_linker_0, # of connection points: 2
#     Edge 50, Type (0, 0), BuildingBlock: MIFKUJ_clean_linker_0, # of connection points: 2
#     Edge 51, Type (0, 0), BuildingBlock: MIFKUJ_clean_linker_0, # of connection points: 2
#     Edge 52, Type (0, 0), BuildingBlock: MIFKUJ_clean_linker_0, # of connection points: 2
#     Edge 53, Type (0, 0), BuildingBlock: MIFKUJ_clean_linker_0, # of connection points: 2
#     Edge 54, Type (0, 0), BuildingBlock: MIFKUJ_clean_linker_0, # of connection points: 2
#     Edge 55, Type (0, 0), BuildingBlock: MIFKUJ_clean_linker_0, # of connection points: 2
#     Edge 56, Type (0, 0), BuildingBlock: MIFKUJ_clean_linker_0, # of connection points: 2
#     Edge 57, Type (0, 0), BuildingBlock: MIFKUJ_clean_linker_0, # of connection points: 2
#     Edge 58, Type (0, 0), BuildingBlock: MIFKUJ_clean_linker_0, # of connection points: 2
#     Edge 59, Type (0, 0), BuildingBlock: MIFKUJ_clean_linker_0, # of connection points: 2
#     Edge 60, Type (0, 0), BuildingBlock: MIFKUJ_clean_linker_0, # of connection points: 2
#     Edge 61, Type (0, 0), BuildingBlock: MIFKUJ_clean_linker_0, # of connection points: 2
#     Edge 62, Type (0, 0), BuildingBlock: MIFKUJ_clean_linker_0, # of connection points: 2
#     Edge 63, Type (0, 0), BuildingBlock: MIFKUJ_clean_linker_0, # of connection points: 2
# Relax obj value: 0.310
# Max RMSD: 0.221
# Mean RMSD: 0.221
data_MOF--net-why--node1-MIDCAF_clean_sbu_0--edge1-MIFKUJ_clean_linker_0
_symmetry_space_group_name_H-M    P1
_symmetry_Int_Tables_number       1
_symmetry_cell_setting            triclinic
loop_
_symmetry_equiv_pos_as_xyz
'x, y, z'
_cell_length_a     58.948675
_cell_length_b     58.949004
_cell_length_c     35.211034
_cell_angle_alpha  89.948551
_cell_angle_beta   90.064708
_cell_angle_gamma 89.977252
loop_
_atom_site_label
_atom_site_type_symbol
_atom_site_fract_x
_atom_site_fract_y
_atom_site_fract_z
_atom_type_partial_charge
Zn0 Zn 0.36482 0.19254 0.13896 0.0
Zn1 Zn 0.34238 0.15058 0.0294 0.0
Zn2 Zn 0.35079 0.1717 0.08274 0.0
C3 C 0.38601 0.15128 0.02541 0.0
C4 C 0.35321 0.19474 0.00515 0.0
O5 O 0.32027 0.1904 0.09735 0.0
O6 O 0.33617 0.21052 0.14299 0.0
C7 C 0.36603 0.14415 0.15197 0.0
O8 O 0.37951 0.16947 0.04251 0.0
O9 O 0.3727 0.13443 0.02423 0.0
O10 O 0.33889 0.17977 0.99547 0.0
O11 O 0.36488 0.1913 0.03571 0.0
O12 O 0.36803 0.16314 0.16849 0.0
O13 O 0.35998 0.1434 0.11717 0.0
O14 O 0.38187 0.19114 0.06537 0.0
O15 O 0.39326 0.20716 0.11905 0.0
C16 C 0.39643 0.20316 0.08425 0.0
O17 O 0.31412 0.17262 0.06711 0.0
O18 O 0.31369 0.13697 0.04934 0.0
C19 C 0.31896 0.20579 0.12298 0.0
C20 C 0.30283 0.15497 0.05664 0.0
Zn21 Zn 0.58182 0.59528 0.37043 0.0
Zn22 Zn 0.55354 0.57924 0.24996 0.0
Zn23 Zn 0.56558 0.5922 0.31055 0.0
C24 C 0.57612 0.62088 0.23794 0.0
C25 C 0.51383 0.58955 0.28904 0.0
O26 O 0.5382 0.59262 0.35261 0.0
O27 O 0.5595 0.57514 0.39487 0.0
C28 C 0.61557 0.59789 0.31875 0.0
O29 O 0.58052 0.61847 0.27359 0.0
O30 O 0.56402 0.60641 0.22092 0.0
O31 O 0.52021 0.57783 0.26094 0.0
O32 O 0.52874 0.59763 0.31201 0.0
O33 O 0.61127 0.5848 0.34632 0.0
O34 O 0.59901 0.60897 0.30348 0.0
O35 O 0.58089 0.6266 0.31271 0.0
O36 O 0.5751 0.62963 0.37405 0.0
C37 C 0.57811 0.63923 0.3423 0.0
O38 O 0.57922 0.55846 0.31101 0.0
O39 O 0.57269 0.55129 0.25077 0.0
C40 C 0.54008 0.58136 0.38367 0.0
C41 C 0.58123 0.54551 0.28227 0.0
Zn42 Zn 0.17876 0.80439 0.51858 0.0
Zn43 Zn 0.13691 0.81119 0.62908 0.0
Zn44 Zn 0.15562 0.81339 0.56807 0.0
C45 C 0.10515 0.79519 0.57541 0.0
C46 C 0.14802 0.85768 0.61374 0.0
O47 O 0.17511 0.84331 0.55122 0.0
O48 O 0.20386 0.81997 0.54733 0.0
C49 C 0.15082 0.76951 0.51851 0.0
O50 O 0.12182 0.80005 0.55302 0.0
O51 O 0.10716 0.79859 0.61073 0.0
O52 O 0.14007 0.84464 0.63897 0.0
O53 O 0.15496 0.84954 0.58205 0.0
O54 O 0.17228 0.77028 0.51889 0.0
O55 O 0.1397 0.78691 0.53066 0.0
O56 O 0.13261 0.81113 0.51969 0.0
O57 O 0.15881 0.82406 0.48129 0.0
C58 C 0.1379 0.82171 0.48881 0.0
O59 O 0.17866 0.79125 0.59747 0.0
O60 O 0.15994 0.78995 0.65132 0.0
C61 C 0.1966 0.84016 0.54864 0.0
C62 C 0.17686 0.78408 0.63153 0.0
Zn63 Zn 0.93029 0.38658 0.86658 0.0
Zn64 Zn 0.92746 0.43705 0.75188 0.0
Zn65 Zn 0.92553 0.4109 0.80521 0.0
C66 C 0.90954 0.39595 0.72711 0.0
C67 C 0.97103 0.43007 0.76942 0.0
O68 O 0.95584 0.42261 0.83804 0.0
O69 O 0.95509 0.40357 0.89209 0.0
C70 C 0.88698 0.40902 0.86613 0.0
O71 O 0.92021 0.38946 0.75706 0.0
O72 O 0.90691 0.4169 0.7206 0.0
O73 O 0.96004 0.43604 0.74036 0.0
O74 O 0.9603 0.42394 0.79957 0.0
O75 O 0.89871 0.39397 0.88263 0.0
O76 O 0.89455 0.41898 0.83626 0.0
O77 O 0.9269 0.37491 0.78657 0.0
O78 O 0.93712 0.35743 0.83957 0.0
C79 C 0.93311 0.35682 0.80434 0.0
O80 O 0.89606 0.43518 0.80356 0.0
O81 O 0.91477 0.46375 0.77863 0.0
C82 C 0.96372 0.41896 0.87177 0.0
C83 C 0.89692 0.45628 0.79383 0.0
Zn84 Zn 0.67758 0.81418 0.96871 0.0
Zn85 Zn 0.61729 0.82611 0.89076 0.0
Zn86 Zn 0.64488 0.82691 0.93996 0.0
C87 C 0.59421 0.80986 0.95503 0.0
C88 C 0.62959 0.87206 0.90763 0.0
O89 O 0.66432 0.85549 0.96066 0.0
O90 O 0.69556 0.83874 0.94217 0.0
C91 C 0.64977 0.77766 0.96245 0.0
O92 O 0.61456 0.81118 0.96867 0.0
O93 O 0.59078 0.81514 0.9207 0.0
O94 O 0.61903 0.85961 0.88437 0.0
O95 O 0.64098 0.86322 0.9348 0.0
O96 O 0.67035 0.78126 0.95355 0.0
O97 O 0.63634 0.79482 0.9662 0.0
O98 O 0.63417 0.81426 0.99599 0.0
O99 O 0.66701 0.82212 0.02293 0.0
C100 C 0.64608 0.81788 0.02619 0.0
O101 O 0.663 0.81076 0.89538 0.0
O102 O 0.63508 0.80621 0.85484 0.0
C103 C 0.68585 0.85621 0.95557 0.0
C104 C 0.6557 0.80329 0.86371 0.0
Zn105 Zn 0.42087 0.42611 0.73402 0.0
Zn106 Zn 0.40889 0.37957 0.62897 0.0
Zn107 Zn 0.41228 0.40111 0.68729 0.0
C108 C 0.43402 0.35206 0.6783 0.0
C109 C 0.36513 0.38525 0.66379 0.0
O110 O 0.38207 0.41896 0.7083 0.0
O111 O 0.40184 0.45039 0.7093 0.0
C112 C 0.45827 0.40208 0.73206 0.0
O113 O 0.42955 0.36877 0.70076 0.0
O114 O 0.42793 0.35274 0.64388 0.0
O115 O 0.37554 0.37584 0.6367 0.0
O116 O 0.3758 0.39776 0.68746 0.0
O117 O 0.45516 0.42334 0.73087 0.0
O118 O 0.44205 0.38897 0.72096 0.0
O119 O 0.41958 0.37896 0.73446 0.0
O120 O 0.40475 0.40422 0.77288 0.0
C121 C 0.40899 0.38358 0.76558 0.0
O122 O 0.4289 0.42404 0.65027 0.0
O123 O 0.42081 0.40576 0.59758 0.0
C124 C 0.3827 0.4407 0.71082 0.0
C125 C 0.42897 0.42301 0.61411 0.0
Zn126 Zn 0.80268 0.19644 0.487 0.0
Zn127 Zn 0.89182 0.19067 0.3614 0.0
Zn128 Zn 0.85823 0.18533 0.41348 0.0
C129 C 0.90079 0.21872 0.4241 0.0
C130 C 0.88899 0.14469 0.38873 0.0
O131 O 0.8247 0.18469 0.38582 0.0
O132 O 0.81241 0.20553 0.43196 0.0
C133 C 0.84445 0.22251 0.47225 0.0
O134 O 0.88173 0.21059 0.43507 0.0
O135 O 0.90924 0.21292 0.39262 0.0
O136 O 0.89931 0.15743 0.36548 0.0
O137 O 0.87334 0.15266 0.40978 0.0
O138 O 0.82482 0.219 0.4581 0.0
O139 O 0.86138 0.211 0.45937 0.0
O140 O 0.84038 0.17612 0.46253 0.0
O141 O 0.82166 0.17109 0.51469 0.0
C142 C 0.83962 0.16755 0.49563 0.0
O143 O 0.84213 0.19653 0.36056 0.0
O144 O 0.87068 0.20229 0.32117 0.0
C145 C 0.80792 0.19144 0.40596 0.0
C146 C 0.84964 0.20308 0.32814 0.0
Zn147 Zn 0.09841 0.62359 0.1207 0.0
Zn148 Zn 0.04354 0.56237 0.26066 0.0
Zn149 Zn 0.08452 0.60003 0.18163 0.0
C150 C 0.08153 0.58999 0.27455 0.0
C151 C 0.03733 0.60588 0.21901 0.0
O152 O 0.07879 0.57896 0.13035 0.0
O153 O 0.08838 0.60069 0.08185 0.0
C154 C 0.13519 0.61378 0.17231 0.0
O155 O 0.07949 0.58907 0.23856 0.0
O156 O 0.06888 0.57698 0.29427 0.0
O157 O 0.03642 0.58443 0.21395 0.0
O158 O 0.05536 0.61659 0.20883 0.0
O159 O 0.13022 0.62287 0.14079 0.0
O160 O 0.11979 0.60471 0.19265 0.0
O161 O 0.06537 0.63166 0.1792 0.0
O162 O 0.07927 0.65069 0.13052 0.0
C163 C 0.06593 0.64955 0.15852 0.0
O164 O 0.07787 0.56544 0.1636 0.0
O165 O 0.04968 0.56444 0.20289 0.0
C166 C 0.08062 0.58212 0.0943 0.0
C167 C 0.0653 0.55371 0.18582 0.0
Zn168 Zn 0.85954 0.67947 0.60612 0.0
Zn169 Zn 0.81683 0.69097 0.49938 0.0
Zn170 Zn 0.84089 0.68173 0.54648 0.0
C171 C 0.85868 0.6771 0.46729 0.0
C172 C 0.84267 0.72737 0.50395 0.0
O173 O 0.8186 0.70275 0.57854 0.0
O174 O 0.83663 0.69901 0.63276 0.0
C175 C 0.84743 0.63456 0.58533 0.0
O176 O 0.86387 0.68665 0.49911 0.0
O177 O 0.83782 0.67436 0.45965 0.0
O178 O 0.82139 0.7247 0.50555 0.0
O179 O 0.85561 0.71045 0.51266 0.0
O180 O 0.85755 0.64565 0.61096 0.0
O181 O 0.83921 0.64493 0.55637 0.0
O182 O 0.87546 0.69548 0.53251 0.0
O183 O 0.889 0.69312 0.59081 0.0
C184 C 0.89186 0.69854 0.55641 0.0
O185 O 0.82143 0.6522 0.52546 0.0
O186 O 0.7911 0.67359 0.52263 0.0
C187 C 0.82027 0.70716 0.61385 0.0
C188 C 0.79982 0.65402 0.52108 0.0
Zn189 Zn 0.07751 0.07165 0.69515 0.0
Zn190 Zn 0.0571 0.13401 0.84668 0.0
Zn191 Zn 0.06679 0.10824 0.78918 0.0
C192 C 0.03003 0.14967 0.78825 0.0
C193 C 0.10441 0.1379 0.83073 0.0
O194 O 0.06452 0.07179 0.80233 0.0
O195 O 0.05968 0.07428 0.74236 0.0
C196 C 0.03814 0.10926 0.70907 0.0
O197 O 0.03981 0.13267 0.77224 0.0
O198 O 0.0346 0.15465 0.82225 0.0
O199 O 0.0889 0.14519 0.85228 0.0
O200 O 0.09961 0.12368 0.8043 0.0
O201 O 0.04886 0.0931 0.69272 0.0
O202 O 0.04331 0.11674 0.74253 0.0
O203 O 0.09232 0.10641 0.74713 0.0
O204 O 0.10737 0.08951 0.69757 0.0
C205 C 0.10777 0.10549 0.72187 0.0
O206 O 0.05611 0.08408 0.83313 0.0
O207 O 0.04651 0.10788 0.8789 0.0
C208 C 0.06384 0.06181 0.77027 0.0
C209 C 0.04813 0.08778 0.86654 0.0
Zn210 Zn 0.64527 0.35921 0.95684 0.0
Zn211 Zn 0.62681 0.2945 0.10734 0.0
Zn212 Zn 0.63893 0.32011 0.05313 0.0
C213 C 0.61216 0.27471 0.03872 0.0
C214 C 0.6075 0.33617 0.12368 0.0
O215 O 0.67534 0.32812 0.05113 0.0
O216 O 0.65882 0.34556 0.00534 0.0
C217 C 0.63203 0.30888 0.95717 0.0
O218 O 0.62243 0.29196 0.02472 0.0
O219 O 0.6117 0.27175 0.07426 0.0
O220 O 0.60863 0.31656 0.13807 0.0
O221 O 0.61672 0.34002 0.09112 0.0
O222 O 0.63519 0.3276 0.93939 0.0
O223 O 0.63333 0.30696 0.99391 0.0
O224 O 0.61675 0.34933 0.05519 0.0
O225 O 0.6394 0.36313 0.01348 0.0
C226 C 0.6194 0.36212 0.02636 0.0
O227 O 0.67138 0.31349 0.0825 0.0
O228 O 0.65823 0.28928 0.12507 0.0
C229 C 0.67728 0.34016 0.02126 0.0
C230 C 0.67466 0.3001 0.11085 0.0
Zn231 Zn 0.44087 0.87132 0.39233 0.0
Zn232 Zn 0.44009 0.89529 0.24904 0.0
Zn233 Zn 0.44073 0.88604 0.32165 0.0
C234 C 0.39987 0.87301 0.26423 0.0
C235 C 0.47604 0.8664 0.25879 0.0
O236 O 0.44742 0.91694 0.35406 0.0
O237 O 0.44839 0.90203 0.4118 0.0
C238 C 0.397 0.86547 0.36806 0.0
O239 O 0.40877 0.87282 0.29765 0.0
O240 O 0.40978 0.88296 0.2372 0.0
O241 O 0.4669 0.87773 0.23254 0.0
O242 O 0.46844 0.86746 0.29304 0.0
O243 O 0.40901 0.8617 0.39707 0.0
O244 O 0.40619 0.8736 0.33772 0.0
O245 O 0.46901 0.86127 0.3314 0.0
O246 O 0.46494 0.84796 0.38975 0.0
C247 C 0.47546 0.84801 0.35857 0.0
O248 O 0.44442 0.92384 0.31586 0.0
O249 O 0.44354 0.928 0.2535 0.0
C250 C 0.45007 0.91908 0.39016 0.0
C251 C 0.44498 0.93667 0.28615 0.0
Zn252 Zn 0.16761 0.34417 0.48094 0.0
Zn253 Zn 0.11555 0.30461 0.40006 0.0
Zn254 Zn 0.14353 0.31999 0.4437 0.0
C255 C 0.09887 0.29646 0.47382 0.0
C256 C 0.12259 0.35259 0.38711 0.0
O257 O 0.17885 0.31128 0.4385 0.0
O258 O 0.18614 0.34725 0.43276 0.0
C259 C 0.15683 0.30497 0.52347 0.0
O260 O 0.11756 0.30648 0.48268 0.0
O261 O 0.09353 0.29367 0.43938 0.0
O262 O 0.11133 0.33555 0.37586 0.0
O263 O 0.13657 0.35042 0.41445 0.0
O264 O 0.17444 0.31672 0.51736 0.0
O265 O 0.13927 0.30832 0.50222 0.0
O266 O 0.12564 0.33001 0.49603 0.0
O267 O 0.14075 0.36413 0.49603 0.0
C268 C 0.12543 0.35075 0.50769 0.0
O269 O 0.16391 0.29462 0.41489 0.0
O270 O 0.13721 0.28246 0.37616 0.0
C271 C 0.19351 0.32708 0.43355 0.0
C272 C 0.15755 0.2817 0.38764 0.0
Zn273 Zn 0.96579 0.93477 0.2646 0.0
Zn274 Zn 0.91514 0.87888 0.11377 0.0
Zn275 Zn 0.92345 0.9012 0.18055 0.0
C276 C 0.94461 0.8524 0.155 0.0
C277 C 0.87428 0.88559 0.1578 0.0
O278 O 0.93108 0.93673 0.16909 0.0
O279 O 0.96023 0.93482 0.20658 0.0
C280 C 0.96936 0.89221 0.22189 0.0
O281 O 0.94206 0.86931 0.17748 0.0
O282 O 0.9347 0.85197 0.12322 0.0
O283 O 0.88219 0.87746 0.1273 0.0
O284 O 0.88738 0.89512 0.1819 0.0
O285 O 0.97169 0.91354 0.21701 0.0
O286 O 0.95094 0.88276 0.21013 0.0
O287 O 0.92748 0.91024 0.23915 0.0
O288 O 0.93837 0.92191 0.29533 0.0
C289 C 0.92483 0.91011 0.27511 0.0
O290 O 0.9333 0.92397 0.13319 0.0
O291 O 0.92727 0.90392 0.08122 0.0
C292 C 0.94406 0.94659 0.19316 0.0
C293 C 0.93425 0.92192 0.09687 0.0
Zn294 Zn 0.32001 0.67452 0.9945 0.0
Zn295 Zn 0.37941 0.66161 0.90908 0.0
Zn296 Zn 0.35123 0.66534 0.96016 0.0
C297 C 0.40127 0.68299 0.97175 0.0
C298 C 0.36304 0.61736 0.92959 0.0
O299 O 0.33098 0.63596 0.97718 0.0
O300 O 0.29843 0.65333 0.96813 0.0
C301 C 0.3453 0.71193 0.99574 0.0
O302 O 0.38138 0.6809 0.98655 0.0
O303 O 0.40508 0.67593 0.93846 0.0
O304 O 0.37653 0.62741 0.90723 0.0
O305 O 0.35172 0.62884 0.95396 0.0
O306 O 0.3249 0.7084 0.98581 0.0
O307 O 0.35937 0.69518 0.99466 0.0
O308 O 0.3655 0.67341 0.017 0.0
O309 O 0.33423 0.66104 0.04387 0.0
C310 C 0.35527 0.66507 0.04629 0.0
O311 O 0.33392 0.68376 0.91759 0.0
O312 O 0.35997 0.68078 0.87328 0.0
C313 C 0.30916 0.63527 0.97605 0.0
C314 C 0.34074 0.68797 0.884 0.0
Zn315 Zn 0.60054 0.09481 0.74302 0.0
Zn316 Zn 0.57317 0.13006 0.61397 0.0
Zn317 Zn 0.58619 0.11073 0.67806 0.0
C318 C 0.54553 0.14812 0.66877 0.0
C319 C 0.619 0.13949 0.62167 0.0
O320 O 0.58478 0.07293 0.67406 0.0
O321 O 0.60191 0.06312 0.72764 0.0
C322 C 0.56058 0.11839 0.75755 0.0
O323 O 0.55774 0.13443 0.68876 0.0
O324 O 0.54841 0.14948 0.63334 0.0
O325 O 0.60247 0.14389 0.60007 0.0
O326 O 0.61583 0.12793 0.65233 0.0
O327 O 0.57447 0.10552 0.77431 0.0
O328 O 0.56274 0.1227 0.72193 0.0
O329 O 0.61978 0.12548 0.69182 0.0
O330 O 0.62907 0.11168 0.74801 0.0
C331 C 0.63315 0.12501 0.72083 0.0
O332 O 0.57607 0.08263 0.64048 0.0
O333 O 0.56565 0.10125 0.5886 0.0
C334 C 0.593 0.05767 0.69641 0.0
C335 C 0.56844 0.08279 0.60619 0.0
H336 H 0.4285 0.17344 0.0628 0.0
H337 H 0.46617 0.18153 0.03675 0.0
H338 H 0.45295 0.25324 0.04694 0.0
H339 H 0.41454 0.24504 0.07051 0.0
H340 H 0.48306 0.20905 0.97267 0.0
H341 H 0.50021 0.2744 0.08984 0.0
H342 H 0.48753 0.28341 0.1549 0.0
H343 H 0.47226 0.21314 0.17451 0.0
H344 H 0.48518 0.2037 0.10983 0.0
H345 H 0.58296 0.28886 0.98351 0.0
H346 H 0.54647 0.27039 0.97094 0.0
H347 H 0.56902 0.21112 0.03196 0.0
H348 H 0.60529 0.22949 0.04479 0.0
H349 H 0.53432 0.24595 0.06578 0.0
H350 H 0.55437 0.19911 0.95818 0.0
H351 H 0.56688 0.19299 0.89229 0.0
H352 H 0.50796 0.22804 0.85089 0.0
H353 H 0.4955 0.23514 0.91658 0.0
C354 C 0.43336 0.19091 0.05792 0.0
C355 C 0.41848 0.20864 0.06715 0.0
C356 C 0.45487 0.1955 0.04324 0.0
C357 C 0.46219 0.21795 0.03919 0.0
C358 C 0.4474 0.23577 0.04897 0.0
C359 C 0.42562 0.23114 0.06273 0.0
C360 C 0.48615 0.22266 0.02923 0.0
C361 C 0.49435 0.21714 0.99288 0.0
C362 C 0.50082 0.233 0.05576 0.0
C363 C 0.49342 0.23841 0.09492 0.0
C364 C 0.49422 0.26088 0.10813 0.0
C365 C 0.487 0.26606 0.14492 0.0
C366 C 0.47902 0.24887 0.16878 0.0
C367 C 0.47835 0.22645 0.15596 0.0
C368 C 0.4856 0.22119 0.11924 0.0
C369 C 0.58067 0.27135 0.99209 0.0
C370 C 0.59673 0.26068 0.01565 0.0
C371 C 0.55976 0.26083 0.98498 0.0
C372 C 0.55502 0.2395 1.00087 0.0
C373 C 0.5724 0.22756 0.01935 0.0
C374 C 0.59315 0.23806 0.02663 0.0
C375 C 0.53127 0.23297 0.00882 0.0
C376 C 0.5231 0.23801 0.04524 0.0
C377 C 0.51674 0.22258 0.98201 0.0
C378 C 0.52418 0.218 0.94249 0.0
C379 C 0.54428 0.20592 0.93512 0.0
C380 C 0.55137 0.20226 0.89776 0.0
C381 C 0.53834 0.21032 0.86743 0.0
C382 C 0.51812 0.22193 0.87441 0.0
C383 C 0.51105 0.2258 0.91173 0.0
H384 H 0.54382 0.20738 0.83851 0.0
H385 H 0.47341 0.25292 0.19723 0.0
H386 H 0.55708 0.66881 0.3896 0.0
H387 H 0.54933 0.70889 0.37788 0.0
H388 H 0.58914 0.7064 0.27533 0.0
H389 H 0.59694 0.66599 0.28703 0.0
H390 H 0.58908 0.75078 0.33684 0.0
H391 H 0.54903 0.70682 0.24499 0.0
H392 H 0.52798 0.6736 0.22174 0.0
H393 H 0.47539 0.68599 0.30331 0.0
H394 H 0.49621 0.71933 0.32729 0.0
H395 H 0.51704 0.85227 0.32383 0.0
H396 H 0.5431 0.82127 0.30669 0.0
H397 H 0.49921 0.77364 0.36394 0.0
H398 H 0.47308 0.80418 0.37936 0.0
H399 H 0.50858 0.75784 0.29742 0.0
H400 H 0.55602 0.79676 0.397 0.0
H401 H 0.57822 0.82992 0.41832 0.0
H402 H 0.61766 0.82745 0.31591 0.0
H403 H 0.59559 0.79438 0.29395 0.0
C404 C 0.56467 0.67687 0.36505 0.0
C405 C 0.57723 0.66419 0.33873 0.0
C406 C 0.56024 0.69977 0.3584 0.0
C407 C 0.56853 0.71047 0.32564 0.0
C408 C 0.58257 0.69838 0.30074 0.0
C409 C 0.58678 0.67529 0.30719 0.0
C410 C 0.55965 0.73318 0.31589 0.0
C411 C 0.57166 0.75252 0.32734 0.0
C412 C 0.53714 0.7354 0.30272 0.0
C413 C 0.52428 0.71557 0.28807 0.0
C414 C 0.53303 0.70247 0.25811 0.0
C415 C 0.52115 0.68359 0.24479 0.0
C416 C 0.50045 0.6776 0.26117 0.0
C417 C 0.49147 0.69062 0.2907 0.0
C418 C 0.50328 0.70957 0.3041 0.0
C419 C 0.51304 0.83508 0.33232 0.0
C420 C 0.49279 0.83042 0.35181 0.0
C421 C 0.52802 0.81742 0.32294 0.0
C422 C 0.52296 0.79494 0.33331 0.0
C423 C 0.50331 0.7907 0.35474 0.0
C424 C 0.48844 0.8082 0.36389 0.0
C425 C 0.53727 0.77528 0.32178 0.0
C426 C 0.52624 0.75641 0.30584 0.0
C427 C 0.56074 0.77368 0.33016 0.0
C428 C 0.57406 0.7933 0.34376 0.0
C429 C 0.56938 0.80336 0.37904 0.0
C430 C 0.58194 0.82213 0.39122 0.0
C431 C 0.5993 0.83083 0.36843 0.0
C432 C 0.60419 0.82073 0.33349 0.0
C433 C 0.59169 0.80197 0.3212 0.0
H434 H 0.60898 0.84536 0.3779 0.0
H435 H 0.49144 0.66286 0.25098 0.0
H436 H 0.06846 0.781 0.61594 0.0
H437 H 0.03569 0.75993 0.59283 0.0
H438 H 0.0625 0.76183 0.479 0.0
H439 H 0.09593 0.78201 0.50219 0.0
H440 H 0.01372 0.77724 0.49398 0.0
H441 H 0.06522 0.71723 0.51019 0.0
H442 H 0.09407 0.69339 0.54078 0.0
H443 H 0.04705 0.67621 0.62926 0.0
H444 H 0.01788 0.70024 0.59946 0.0
H445 H 0.90669 0.71315 0.48553 0.0
H446 H 0.94474 0.72697 0.46896 0.0
H447 H 0.96511 0.72006 0.58606 0.0
H448 H 0.92787 0.70619 0.60245 0.0
H449 H 0.99507 0.70034 0.54143 0.0
H450 H 0.9542 0.77207 0.54526 0.0
H451 H 0.92971 0.80408 0.52749 0.0
H452 H 0.95771 0.80411 0.41497 0.0
H453 H 0.98319 0.77263 0.43276 0.0
C454 C 0.06749 0.77695 0.58598 0.0
C455 C 0.08476 0.7835 0.56078 0.0
C456 C 0.04881 0.76481 0.5729 0.0
C457 C 0.0469 0.75922 0.53437 0.0
C458 C 0.06382 0.76593 0.5089 0.0
C459 C 0.08281 0.77764 0.52218 0.0
C460 C 0.02645 0.74727 0.52129 0.0
C461 C 0.00969 0.76012 0.50321 0.0
C462 C 0.02153 0.72509 0.53394 0.0
C463 C 0.03915 0.71055 0.55221 0.0
C464 C 0.06091 0.70844 0.53612 0.0
C465 C 0.0774 0.69487 0.55341 0.0
C466 C 0.07239 0.68323 0.58691 0.0
C467 C 0.05088 0.68518 0.60321 0.0
C468 C 0.03433 0.69875 0.58603 0.0
C469 C 0.91926 0.71466 0.50762 0.0
C470 C 0.91417 0.7082 0.54515 0.0
C471 C 0.94102 0.72259 0.49812 0.0
C472 C 0.95792 0.72425 0.52615 0.0
C473 C 0.95253 0.71857 0.56373 0.0
C474 C 0.93106 0.71065 0.57309 0.0
C475 C 0.98158 0.73123 0.51761 0.0
C476 C 0.99917 0.71715 0.53094 0.0
C477 C 0.98712 0.75266 0.50202 0.0
C478 C 0.96989 0.76937 0.48984 0.0
C479 C 0.95467 0.77846 0.51641 0.0
C480 C 0.94081 0.79673 0.50646 0.0
C481 C 0.94176 0.80587 0.46983 0.0
C482 C 0.95677 0.79686 0.44318 0.0
C483 C 0.971 0.77886 0.45325 0.0
H484 H 0.9311 0.82013 0.46223 0.0
H485 H 0.08518 0.67274 0.60029 0.0
H486 H 0.90357 0.32309 0.78485 0.0
H487 H 0.9135 0.2852 0.76061 0.0
H488 H 0.98395 0.30487 0.75603 0.0
H489 H 0.97391 0.34276 0.77915 0.0
H490 H 0.97269 0.27568 0.69692 0.0
H491 H 0.96301 0.28 0.83462 0.0
H492 H 0.9409 0.28792 0.89258 0.0
H493 H 0.89026 0.23993 0.85748 0.0
H494 H 0.91197 0.23197 0.79904 0.0
H495 H 0.04426 0.18732 0.75244 0.0
H496 H 0.02093 0.21947 0.73303 0.0
H497 H 0.96046 0.18061 0.75659 0.0
H498 H 0.98415 0.14859 0.77738 0.0
H499 H 0.95851 0.21669 0.79449 0.0
H500 H 0.97115 0.20568 0.6638 0.0
H501 H 0.99124 0.19784 0.60382 0.0
H502 H 0.0334 0.25628 0.62113 0.0
H503 H 0.01359 0.2645 0.68125 0.0
C504 C 0.92105 0.31939 0.77764 0.0
C505 C 0.93803 0.33565 0.78378 0.0
C506 C 0.92673 0.2978 0.76386 0.0
C507 C 0.94953 0.29209 0.75682 0.0
C508 C 0.96626 0.30887 0.76101 0.0
C509 C 0.96056 0.33044 0.77444 0.0
C510 C 0.95653 0.26812 0.75019 0.0
C511 C 0.9695 0.26267 0.71802 0.0
C512 C 0.95186 0.25095 0.77716 0.0
C513 C 0.93894 0.2556 0.81236 0.0
C514 C 0.94708 0.27126 0.83919 0.0
C515 C 0.93464 0.27574 0.87211 0.0
C516 C 0.91415 0.26448 0.87865 0.0
C517 C 0.9061 0.24867 0.85233 0.0
C518 C 0.91846 0.24417 0.81932 0.0
C519 C 0.02598 0.1854 0.75204 0.0
C520 C 0.01592 0.16559 0.76625 0.0
C521 C 0.01257 0.20377 0.7407 0.0
C522 C 0.98878 0.20265 0.74317 0.0
C523 C 0.97874 0.18201 0.75443 0.0
C524 C 0.99222 0.16367 0.76613 0.0
C525 C 0.9751 0.22401 0.74126 0.0
C526 C 0.96104 0.22919 0.77227 0.0
C527 C 0.97851 0.24073 0.71283 0.0
C528 C 0.99097 0.23559 0.67723 0.0
C529 C 0.98485 0.21674 0.65502 0.0
C530 C 0.99613 0.21227 0.62092 0.0
C531 C 0.01364 0.22649 0.60878 0.0
C532 C 0.01988 0.24524 0.63066 0.0
C533 C 0.00857 0.24986 0.66468 0.0
H534 H 0.02233 0.22301 0.58235 0.0
H535 H 0.90454 0.26796 0.90416 0.0
H536 H 0.59448 0.78327 0.01975 0.0
H537 H 0.56224 0.76189 0.04577 0.0
H538 H 0.5175 0.79605 0.96741 0.0
H539 H 0.54955 0.81642 0.94055 0.0
H540 H 0.4985 0.78749 0.04303 0.0
H541 H 0.54182 0.75093 0.93973 0.0
H542 H 0.57499 0.73197 0.91135 0.0
H543 H 0.57471 0.68256 1.00104 0.0
H544 H 0.54196 0.7017 0.03064 0.0
H545 H 0.40468 0.72845 0.97423 0.0
H546 H 0.43788 0.7505 0.99231 0.0
H547 H 0.47178 0.689 0.02746 0.0
H548 H 0.43859 0.66694 0.00804 0.0
H549 H 0.49951 0.7088 0.99363 0.0
H550 H 0.45545 0.73837 0.094 0.0
H551 H 0.42287 0.75473 0.12818 0.0
H552 H 0.42402 0.81283 0.05461 0.0
H553 H 0.45702 0.79698 0.02049 0.0
C554 C 0.57778 0.78637 0.00855 0.0
C555 C 0.57479 0.8008 0.97716 0.0
C556 C 0.55934 0.77426 0.02352 0.0
C557 C 0.53753 0.77717 0.00806 0.0
C558 C 0.53419 0.79345 0.97961 0.0
C559 C 0.55261 0.80497 0.96409 0.0
C560 C 0.51867 0.76143 0.01683 0.0
C561 C 0.49867 0.77015 0.03277 0.0
C562 C 0.51918 0.7386 0.00457 0.0
C563 C 0.5397 0.72801 0.9878 0.0
C564 C 0.5491 0.73631 0.95383 0.0
C565 C 0.56775 0.72544 0.93739 0.0
C566 C 0.57691 0.70603 0.9543 0.0
C567 C 0.56755 0.69755 0.98788 0.0
C568 C 0.54905 0.70849 0.00463 0.0
C569 C 0.41894 0.71984 0.98729 0.0
C570 C 0.41901 0.69617 0.9908 0.0
C571 C 0.43795 0.73246 0.99798 0.0
C572 C 0.45733 0.72168 0.01297 0.0
C573 C 0.45698 0.69792 0.01715 0.0
C574 C 0.43802 0.68528 0.00612 0.0
C575 C 0.47874 0.73475 0.01947 0.0
C576 C 0.49925 0.72567 0.00585 0.0
C577 C 0.47884 0.75693 0.03511 0.0
C578 C 0.45872 0.76646 0.05476 0.0
C579 C 0.4487 0.75457 0.08502 0.0
C580 C 0.43027 0.76382 0.10452 0.0
C581 C 0.42142 0.78481 0.09357 0.0
C582 C 0.43094 0.79658 0.06303 0.0
C583 C 0.44966 0.78757 0.04386 0.0
H584 H 0.40729 0.792 0.10893 0.0
H585 H 0.59133 0.69763 0.94149 0.0
H586 H 0.41648 0.30994 0.68111 0.0
H587 H 0.43586 0.27496 0.69965 0.0
H588 H 0.49626 0.31334 0.72591 0.0
H589 H 0.47704 0.34821 0.70521 0.0
H590 H 0.50623 0.2795 0.68209 0.0
H591 H 0.46614 0.28402 0.80025 0.0
H592 H 0.4328 0.29012 0.84104 0.0
H593 H 0.39791 0.23553 0.78526 0.0
H594 H 0.43128 0.22883 0.74459 0.0
H595 H 0.55113 0.16876 0.73735 0.0
H596 H 0.53066 0.20208 0.76065 0.0
H597 H 0.48703 0.19972 0.66241 0.0
H598 H 0.50667 0.16576 0.63997 0.0
H599 H 0.47396 0.21691 0.75955 0.0
H600 H 0.5109 0.24803 0.62195 0.0
H601 H 0.54363 0.24072 0.57998 0.0
H602 H 0.58513 0.22555 0.67707 0.0
H603 H 0.55273 0.23315 0.71955 0.0
C604 C 0.43379 0.31083 0.69141 0.0
C605 C 0.44524 0.33163 0.69269 0.0
C606 C 0.44476 0.29093 0.70248 0.0
C607 C 0.46737 0.29154 0.71512 0.0
C608 C 0.47871 0.31249 0.71687 0.0
C609 C 0.46773 0.33239 0.70547 0.0
C610 C 0.47985 0.27002 0.72149 0.0
C611 C 0.49945 0.2661 0.69991 0.0
C612 C 0.47107 0.25235 0.74451 0.0
C613 C 0.45117 0.25596 0.76941 0.0
C614 C 0.45136 0.2733 0.79676 0.0
C615 C 0.43248 0.2768 0.81995 0.0
C616 C 0.41323 0.26319 0.81577 0.0
C617 C 0.41287 0.246 0.78852 0.0
C618 C 0.43183 0.24221 0.76564 0.0
C619 C 0.53628 0.17447 0.72201 0.0
C620 C 0.53023 0.16449 0.68719 0.0
C621 C 0.52476 0.19364 0.73516 0.0
C622 C 0.50745 0.20325 0.71311 0.0
C623 C 0.50028 0.19235 0.67985 0.0
C624 C 0.51159 0.17308 0.66697 0.0
C625 C 0.49992 0.2267 0.71993 0.0
C626 C 0.48115 0.23077 0.74324 0.0
C627 C 0.50961 0.24468 0.69899 0.0
C628 C 0.52939 0.24097 0.67382 0.0
C629 C 0.52706 0.24328 0.63429 0.0
C630 C 0.54554 0.23906 0.61043 0.0
C631 C 0.56643 0.23261 0.62584 0.0
C632 C 0.56892 0.23049 0.66516 0.0
C633 C 0.55051 0.23473 0.68913 0.0
H634 H 0.58069 0.2293 0.60732 0.0
H635 H 0.39858 0.2659 0.83358 0.0
H636 H 0.91069 0.20794 0.49688 0.0
H637 H 0.94211 0.22323 0.53457 0.0
H638 H 0.95551 0.27246 0.44705 0.0
H639 H 0.9242 0.25721 0.40912 0.0
H640 H 0.98828 0.2325 0.46648 0.0
H641 H 0.94174 0.29365 0.51521 0.0
H642 H 0.90977 0.30816 0.55261 0.0
H643 H 0.93952 0.28144 0.65452 0.0
H644 H 0.97149 0.26601 0.61738 0.0
H645 H 0.0643 0.32304 0.49506 0.0
H646 H 0.02852 0.30926 0.52086 0.0
H647 H 0.05917 0.24399 0.54244 0.0
H648 H 0.09495 0.25781 0.51536 0.0
H649 H 0.00344 0.28549 0.57293 0.0
H650 H 0.02999 0.20654 0.49243 0.0
H651 H 0.05925 0.19265 0.44791 0.0
H652 H 0.06667 0.25975 0.40205 0.0
H653 H 0.03726 0.27391 0.44592 0.0
C654 C 0.91953 0.22286 0.48674 0.0
C655 C 0.91489 0.23175 0.45051 0.0
C656 C 0.93742 0.23153 0.50833 0.0
C657 C 0.95073 0.24916 0.49388 0.0
C658 C 0.94506 0.25909 0.45888 0.0
C659 C 0.9273 0.25037 0.43723 0.0
C660 C 0.97341 0.2535 0.50974 0.0
C661 C 0.9916 0.2437 0.49033 0.0
C662 C 0.97752 0.26802 0.5409 0.0
C663 C 0.95874 0.27806 0.5633 0.0
C664 C 0.94133 0.29044 0.54546 0.0
C665 C 0.92322 0.29892 0.56667 0.0
C666 C 0.92253 0.2955 0.60588 0.0
C667 C 0.94011 0.28396 0.6241 0.0
C668 C 0.95822 0.27532 0.60296 0.0
C669 C 0.06363 0.30612 0.50708 0.0
C670 C 0.08193 0.29121 0.50271 0.0
C671 C 0.04326 0.29829 0.52217 0.0
C672 C 0.04102 0.27539 0.53241 0.0
C673 C 0.06051 0.26164 0.53409 0.0
C674 C 0.08087 0.26943 0.51851 0.0
C675 C 0.01829 0.26501 0.52876 0.0
C676 C 8e-05 0.27352 0.55024 0.0
C677 C 0.01389 0.24957 0.49884 0.0
C678 C 0.03176 0.24129 0.47278 0.0
C679 C 0.03791 0.21828 0.47283 0.0
C680 C 0.05445 0.21037 0.44766 0.0
C681 C 0.06488 0.22534 0.42231 0.0
C682 C 0.05868 0.24821 0.42186 0.0
C683 C 0.04207 0.25618 0.44681 0.0
H684 H 0.07773 0.21919 0.40295 0.0
H685 H 0.90841 0.30181 0.62217 0.0
H686 H 0.04681 0.66042 0.22717 0.0
H687 H 0.0263 0.69535 0.24341 0.0
H688 H 0.03466 0.71912 0.12834 0.0
H689 H 0.0545 0.68429 0.11184 0.0
H690 H 0.04888 0.74996 0.18419 0.0
H691 H 0.98794 0.69619 0.1597 0.0
H692 H 0.96385 0.66302 0.17279 0.0
H693 H 0.94257 0.69279 0.27798 0.0
H694 H 0.96792 0.72535 0.26716 0.0
H695 H 0.97283 0.82783 0.11047 0.0
H696 H 0.99525 0.79467 0.12892 0.0
H697 H 0.9701 0.80001 0.24363 0.0
H698 H 0.94731 0.83313 0.22493 0.0
H699 H 0.96665 0.7562 0.21173 0.0
H700 H 0.02296 0.81228 0.23198 0.0
H701 H 0.04596 0.84615 0.21764 0.0
H702 H 0.07337 0.81336 0.11918 0.0
H703 H 0.05026 0.77943 0.13225 0.0
C704 C 0.04369 0.67283 0.20518 0.0
C705 C 0.052 0.66951 0.16814 0.0
C706 C 0.03224 0.69285 0.21461 0.0
C707 C 0.02914 0.70978 0.18708 0.0
C708 C 0.03708 0.70628 0.15003 0.0
C709 C 0.04835 0.68635 0.14062 0.0
C710 C 0.01813 0.73159 0.19607 0.0
C711 C 0.03092 0.75138 0.19047 0.0
C712 C 0.99491 0.73326 0.20592 0.0
C713 C 0.98041 0.71304 0.21304 0.0
C714 C 0.97875 0.69539 0.18625 0.0
C715 C 0.96485 0.67664 0.19331 0.0
C716 C 0.95196 0.67562 0.22652 0.0
C717 C 0.95293 0.69337 0.2527 0.0
C718 C 0.96722 0.71189 0.24627 0.0
C719 C 0.97227 0.82202 0.13966 0.0
C720 C 0.95878 0.83314 0.16655 0.0
C721 C 0.98514 0.80323 0.15023 0.0
C722 C 0.98454 0.79518 0.18776 0.0
C723 C 0.97096 0.8062 0.21469 0.0
C724 C 0.95821 0.82517 0.20413 0.0
C725 C 0.99716 0.77436 0.19749 0.0
C726 C 0.98477 0.75482 0.20683 0.0
C727 C 0.02074 0.77282 0.19104 0.0
C728 C 0.03479 0.79324 0.18311 0.0
C729 C 0.03376 0.8123 0.20711 0.0
C730 C 0.04683 0.83152 0.19923 0.0
C731 C 0.06111 0.83189 0.16761 0.0
C732 C 0.06234 0.81304 0.14373 0.0
C733 C 0.04927 0.79378 0.15137 0.0
H734 H 0.07122 0.84679 0.16163 0.0
H735 H 0.94105 0.6612 0.23181 0.0
H736 H 0.14163 0.11018 0.83342 0.0
H737 H 0.17618 0.11716 0.87077 0.0
H738 H 0.15456 0.18588 0.89126 0.0
H739 H 0.11989 0.17887 0.85474 0.0
H740 H 0.2067 0.17628 0.87956 0.0
H741 H 0.13971 0.1579 0.95532 0.0
H742 H 0.10592 0.13465 0.96915 0.0
H743 H 0.14777 0.07528 0.9789 0.0
H744 H 0.18178 0.09817 0.96454 0.0
H745 H 0.27782 0.19321 0.03978 0.0
H746 H 0.24296 0.19448 0.00166 0.0
H747 H 0.23999 0.12136 0.00273 0.0
H748 H 0.27408 0.12004 0.0416 0.0
H749 H 0.19913 0.13651 0.00327 0.0
H750 H 0.26603 0.15302 0.92973 0.0
H751 H 0.30081 0.17451 0.91483 0.0
H752 H 0.26135 0.23496 0.89833 0.0
H753 H 0.22635 0.2139 0.91381 0.0
C754 C 0.14473 0.12704 0.84446 0.0
C755 C 0.12806 0.14396 0.84109 0.0
C756 C 0.16439 0.13098 0.86605 0.0
C757 C 0.16788 0.15202 0.88398 0.0
C758 C 0.15229 0.16958 0.8776 0.0
C759 C 0.1325 0.16554 0.85661 0.0
C760 C 0.18566 0.15455 0.91378 0.0
C761 C 0.205 0.16783 0.90678 0.0
C762 C 0.18354 0.14337 0.94916 0.0
C763 C 0.16322 0.12968 0.95849 0.0
C764 C 0.14167 0.13986 0.96012 0.0
C765 C 0.12249 0.12676 0.96811 0.0
C766 C 0.12469 0.10349 0.9748 0.0
C767 C 0.14609 0.0933 0.97366 0.0
C768 C 0.16532 0.10633 0.96563 0.0
C769 C 0.26929 0.17746 0.03297 0.0
C770 C 0.27892 0.15651 0.04338 0.0
C771 C 0.2495 0.17818 0.01069 0.0
C772 C 0.23915 0.15797 0.99818 0.0
C773 C 0.24767 0.1372 0.01152 0.0
C774 C 0.26725 0.13648 0.03387 0.0
C775 C 0.22058 0.15801 0.96917 0.0
C776 C 0.20094 0.14518 0.97626 0.0
C777 C 0.22267 0.16939 0.93374 0.0
C778 C 0.24359 0.18193 0.92329 0.0
C779 C 0.26478 0.17092 0.92307 0.0
C780 C 0.28453 0.18302 0.91456 0.0
C781 C 0.28329 0.2061 0.90573 0.0
C782 C 0.26228 0.21709 0.90524 0.0
C783 C 0.24248 0.20508 0.91388 0.0
H784 H 0.29861 0.21545 0.89921 0.0
H785 H 0.10982 0.09337 0.98095 0.0
H786 H 0.60914 0.38138 0.10655 0.0
H787 H 0.60445 0.41275 0.15063 0.0
H788 H 0.58278 0.36636 0.238 0.0
H789 H 0.58759 0.33451 0.19402 0.0
H790 H 0.55902 0.41332 0.23082 0.0
H791 H 0.63121 0.37692 0.24932 0.0
H792 H 0.66641 0.35879 0.22678 0.0
H793 H 0.68572 0.42049 0.17058 0.0
H794 H 0.65042 0.43887 0.19221 0.0
H795 H 0.57416 0.51341 0.33697 0.0
H796 H 0.58082 0.47251 0.32892 0.0
H797 H 0.61658 0.48594 0.22438 0.0
H798 H 0.60994 0.52642 0.23236 0.0
H799 H 0.63355 0.44869 0.25947 0.0
H800 H 0.55926 0.48026 0.22438 0.0
H801 H 0.52339 0.49976 0.23977 0.0
H802 H 0.50784 0.44842 0.32235 0.0
H803 H 0.54382 0.42879 0.30772 0.0
C804 C 0.60277 0.37774 0.13471 0.0
C805 C 0.59906 0.35532 0.14686 0.0
C806 C 0.60019 0.39575 0.15993 0.0
C807 C 0.59368 0.39172 0.19761 0.0
C808 C 0.58795 0.36969 0.20902 0.0
C809 C 0.59071 0.35156 0.18382 0.0
C810 C 0.59525 0.41038 0.22539 0.0
C811 C 0.57529 0.42071 0.2382 0.0
C812 C 0.61653 0.42001 0.23452 0.0
C813 C 0.6381 0.40923 0.22227 0.0
C814 C 0.6429 0.38658 0.23197 0.0
C815 C 0.66287 0.37626 0.21937 0.0
C816 C 0.67828 0.38848 0.19723 0.0
C817 C 0.67377 0.41106 0.18775 0.0
C818 C 0.65379 0.42144 0.20022 0.0
C819 C 0.58432 0.50759 0.31328 0.0
C820 C 0.5914 0.52285 0.28505 0.0
C821 C 0.58797 0.48428 0.30855 0.0
C822 C 0.59881 0.4762 0.27567 0.0
C823 C 0.60813 0.49176 0.2499 0.0
C824 C 0.60431 0.51489 0.25441 0.0
C825 C 0.59729 0.45211 0.26404 0.0
C826 C 0.61729 0.44077 0.25383 0.0
C827 C 0.57603 0.44168 0.25696 0.0
C828 C 0.55429 0.45324 0.26531 0.0
C829 C 0.54823 0.47321 0.24594 0.0
C830 C 0.52789 0.48428 0.25452 0.0
C831 C 0.51337 0.47537 0.28211 0.0
C832 C 0.51913 0.45533 0.30106 0.0
C833 C 0.53949 0.44423 0.29265 0.0
H834 H 0.49764 0.48396 0.28873 0.0
H835 H 0.69372 0.38045 0.18746 0.0
H836 H 0.37445 0.8368 0.41475 0.0
H837 H 0.33482 0.83903 0.43331 0.0
H838 H 0.32342 0.89149 0.34989 0.0
H839 H 0.36358 0.88939 0.3312 0.0
H840 H 0.30814 0.90425 0.41976 0.0
H841 H 0.2968 0.84112 0.33981 0.0
H842 H 0.30482 0.80406 0.31038 0.0
H843 H 0.29731 0.77127 0.41856 0.0
H844 H 0.28963 0.80816 0.44882 0.0
H845 H 0.18938 0.86975 0.49058 0.0
H846 H 0.21973 0.88314 0.44847 0.0
H847 H 0.26966 0.86111 0.52999 0.0
H848 H 0.23955 0.84771 0.57186 0.0
H849 H 0.2587 0.8378 0.44433 0.0
H850 H 0.28012 0.90452 0.52313 0.0
H851 H 0.27145 0.94209 0.55028 0.0
H852 H 0.25749 0.96809 0.43871 0.0
H853 H 0.26578 0.93053 0.41099 0.0
C854 C 0.3634 0.84838 0.39955 0.0
C855 C 0.37213 0.86295 0.3716 0.0
C856 C 0.34068 0.84963 0.41017 0.0
C857 C 0.32607 0.86543 0.39301 0.0
C858 C 0.33439 0.87918 0.36352 0.0
C859 C 0.35725 0.87779 0.35259 0.0
C860 C 0.30292 0.86859 0.40887 0.0
C861 C 0.29706 0.88982 0.42429 0.0
C862 C 0.28831 0.84986 0.41468 0.0
C863 C 0.29268 0.82749 0.39662 0.0
C864 C 0.29697 0.82604 0.3574 0.0
C865 C 0.30146 0.80504 0.34055 0.0
C866 C 0.30158 0.78532 0.36259 0.0
C867 C 0.29718 0.78656 0.40152 0.0
C868 C 0.29272 0.80751 0.41852 0.0
C869 C 0.20675 0.86918 0.50059 0.0
C870 C 0.21218 0.85774 0.53447 0.0
C871 C 0.22409 0.87662 0.47631 0.0
C872 C 0.24689 0.87302 0.48613 0.0
C873 C 0.25216 0.86423 0.52209 0.0
C874 C 0.23493 0.85673 0.54616 0.0
C875 C 0.26478 0.87301 0.45671 0.0
C876 C 0.26951 0.85232 0.43873 0.0
C877 C 0.27816 0.8922 0.44835 0.0
C878 C 0.27319 0.91466 0.4651 0.0
C879 C 0.2749 0.91816 0.50446 0.0
C880 C 0.27015 0.93947 0.51994 0.0
C881 C 0.26382 0.95744 0.49626 0.0
C882 C 0.26232 0.95414 0.45703 0.0
C883 C 0.26705 0.93286 0.44144 0.0
H884 H 0.26016 0.97393 0.50828 0.0
H885 H 0.30507 0.76909 0.3495 0.0
H886 H 0.87933 0.60226 0.59535 0.0
H887 H 0.8741 0.56587 0.6275 0.0
H888 H 0.80175 0.57671 0.629 0.0
H889 H 0.80701 0.61308 0.59568 0.0
H890 H 0.82022 0.56932 0.70101 0.0
H891 H 0.81978 0.53218 0.58254 0.0
H892 H 0.83202 0.52303 0.51743 0.0
H893 H 0.89641 0.50011 0.55979 0.0
H894 H 0.88471 0.50946 0.62512 0.0
H895 H 0.85768 0.44361 0.7594 0.0
H896 H 0.83402 0.46964 0.72217 0.0
H897 H 0.86789 0.52661 0.77402 0.0
H898 H 0.89147 0.50071 0.8108 0.0
H899 H 0.85453 0.49479 0.67008 0.0
H900 H 0.83852 0.57454 0.76512 0.0
H901 H 0.82504 0.58299 0.82981 0.0
H902 H 0.79005 0.51916 0.83352 0.0
H903 H 0.803 0.51046 0.76861 0.0
C904 C 0.86225 0.59634 0.6009 0.0
C905 C 0.84356 0.61021 0.59244 0.0
C906 C 0.85925 0.57561 0.61951 0.0
C907 C 0.83753 0.56853 0.63075 0.0
C908 C 0.81865 0.58178 0.62046 0.0
C909 C 0.82163 0.60239 0.60104 0.0
C910 C 0.83529 0.54888 0.65714 0.0
C911 C 0.82741 0.55289 0.69417 0.0
C912 C 0.84415 0.52727 0.648 0.0
C913 C 0.85138 0.52163 0.60876 0.0
C914 C 0.83662 0.52535 0.57796 0.0
C915 C 0.84345 0.5201 0.541 0.0
C916 C 0.86499 0.51101 0.53447 0.0
C917 C 0.87973 0.50714 0.5649 0.0
C918 C 0.87299 0.51238 0.60192 0.0
C919 C 0.85905 0.46167 0.76459 0.0
C920 C 0.87636 0.47016 0.78808 0.0
C921 C 0.84575 0.47657 0.74282 0.0
C922 C 0.84927 0.50014 0.74491 0.0
C923 C 0.8646 0.50857 0.77203 0.0
C924 C 0.87802 0.49372 0.79337 0.0
C925 C 0.84061 0.51561 0.71461 0.0
C926 C 0.84667 0.51093 0.67682 0.0
C927 C 0.82994 0.53653 0.72305 0.0
C928 C 0.82183 0.54181 0.76197 0.0
C929 C 0.82781 0.56237 0.77958 0.0
C930 C 0.82029 0.56719 0.81634 0.0
C931 C 0.80673 0.55161 0.83578 0.0
C932 C 0.80061 0.53119 0.81847 0.0
C933 C 0.80806 0.52629 0.7817 0.0
H934 H 0.80095 0.55536 0.86426 0.0
H935 H 0.87025 0.50695 0.50583 0.0
H936 H 0.73044 0.86604 0.94428 0.0
H937 H 0.75636 0.88134 0.99167 0.0
H938 H 0.69973 0.89785 0.06407 0.0
H939 H 0.67362 0.88219 0.01675 0.0
H940 H 0.76575 0.91837 0.03143 0.0
H941 H 0.7149 0.88276 0.15513 0.0
H942 H 0.68423 0.8554 0.16889 0.0
H943 H 0.70398 0.81547 0.07251 0.0
H944 H 0.73472 0.84258 0.05823 0.0
H945 H 0.84793 0.92224 0.1749 0.0
H946 H 0.80811 0.92676 0.15567 0.0
H947 H 0.80527 0.85579 0.12628 0.0
H948 H 0.84481 0.85132 0.14534 0.0
H949 H 0.76348 0.87132 0.14834 0.0
H950 H 0.82536 0.89359 0.06282 0.0
H951 H 0.85903 0.91656 0.04686 0.0
H952 H 0.82029 0.97763 0.06161 0.0
H953 H 0.78647 0.95497 0.07819 0.0
C954 C 0.72341 0.87368 0.96964 0.0
C955 C 0.7 0.87262 0.9769 0.0
C956 C 0.73827 0.88242 0.99684 0.0
C957 C 0.73006 0.89024 0.0319 0.0
C958 C 0.70649 0.89154 0.03751 0.0
C959 C 0.69155 0.88281 0.01017 0.0
C960 C 0.74639 0.89403 0.06354 0.0
C961 C 0.76494 0.9085 0.05742 0.0
C962 C 0.74551 0.88107 0.09749 0.0
C963 C 0.7269 0.86483 0.10541 0.0
C964 C 0.71263 0.86816 0.13686 0.0
C965 C 0.69524 0.85272 0.14472 0.0
C966 C 0.6921 0.83377 0.1215 0.0
C967 C 0.70633 0.83023 0.09034 0.0
C968 C 0.72371 0.84565 0.0823 0.0
C969 C 0.8384 0.9074 0.16624 0.0
C970 C 0.84938 0.88646 0.16136 0.0
C971 C 0.81571 0.91003 0.15493 0.0
C972 C 0.80384 0.8917 0.13881 0.0
C973 C 0.81405 0.87019 0.13852 0.0
C974 C 0.83667 0.86763 0.14944 0.0
C975 C 0.78298 0.89528 0.11575 0.0
C976 C 0.7637 0.88207 0.1233 0.0
C977 C 0.78334 0.90905 0.08274 0.0
C978 C 0.8035 0.92264 0.07212 0.0
C979 C 0.82408 0.91192 0.06281 0.0
C980 C 0.84317 0.92487 0.05367 0.0
C981 C 0.84181 0.94854 0.05331 0.0
C982 C 0.82133 0.9593 0.06198 0.0
C983 C 0.80219 0.94642 0.07126 0.0
H984 H 0.85661 0.95854 0.04624 0.0
H985 H 0.67871 0.82177 0.12776 0.0
H986 H 0.32216 0.59581 0.936 0.0
H987 H 0.31195 0.55903 0.90882 0.0
H988 H 0.38177 0.5482 0.87711 0.0
H989 H 0.39199 0.58494 0.90413 0.0
H990 H 0.31727 0.55029 0.83243 0.0
H991 H 0.39334 0.49276 0.87698 0.0
H992 H 0.41616 0.48519 0.9343 0.0
H993 H 0.36131 0.50805 0.00472 0.0
H994 H 0.338 0.51541 0.94787 0.0
H995 H 0.373 0.48503 0.69882 0.0
H996 H 0.35339 0.50949 0.74365 0.0
H997 H 0.33119 0.45074 0.80663 0.0
H998 H 0.35094 0.42609 0.76148 0.0
H999 H 0.35731 0.47695 0.84885 0.0
H1000 H 0.2919 0.48998 0.77556 0.0
H1001 H 0.26902 0.49765 0.71834 0.0
H1002 H 0.30075 0.56281 0.70634 0.0
H1003 H 0.32409 0.55542 0.7631 0.0
C1004 C 0.33548 0.58521 0.92473 0.0
C1005 C 0.35792 0.59319 0.92248 0.0
C1006 C 0.32956 0.56428 0.90878 0.0
C1007 C 0.34609 0.55086 0.89101 0.0
C1008 C 0.36877 0.55814 0.89109 0.0
C1009 C 0.37461 0.57915 0.90651 0.0
C1010 C 0.33964 0.53076 0.86811 0.0
C1011 C 0.32569 0.53409 0.83624 0.0
C1012 C 0.35011 0.50947 0.87374 0.0
C1013 C 0.36393 0.5047 0.9081 0.0
C1014 C 0.38606 0.496 0.90469 0.0
C1015 C 0.39911 0.49179 0.93711 0.0
C1016 C 0.39021 0.49616 0.97312 0.0
C1017 C 0.36821 0.50471 0.9768 0.0
C1018 C 0.35508 0.50893 0.94448 0.0
C1019 C 0.36295 0.47728 0.72108 0.0
C1020 C 0.36368 0.45373 0.72695 0.0
C1021 C 0.35168 0.49129 0.74677 0.0
C1022 C 0.34095 0.48199 0.77879 0.0
C1023 C 0.33939 0.45828 0.78216 0.0
C1024 C 0.35053 0.44419 0.75615 0.0
C1025 C 0.33615 0.49696 0.81174 0.0
C1026 C 0.34814 0.49278 0.84554 0.0
C1027 C 0.32384 0.51744 0.80783 0.0
C1028 C 0.30978 0.52211 0.77368 0.0
C1029 C 0.2941 0.5059 0.76062 0.0
C1030 C 0.28104 0.5102 0.72826 0.0
C1031 C 0.28343 0.5307 0.70872 0.0
C1032 C 0.29888 0.54695 0.72154 0.0
C1033 C 0.312 0.54273 0.75388 0.0
H1034 H 0.2733 0.53399 0.68366 0.0
H1035 H 0.40035 0.49292 0.99818 0.0
H1036 H 0.6302 0.1692 0.56587 0.0
H1037 H 0.66646 0.17196 0.5332 0.0
H1038 H 0.69652 0.126 0.61413 0.0
H1039 H 0.6599 0.12261 0.64688 0.0
H1040 H 0.7227 0.17153 0.5813 0.0
H1041 H 0.68915 0.09868 0.55115 0.0
H1042 H 0.6565 0.07411 0.53614 0.0
H1043 H 0.64277 0.11349 0.43607 0.0
H1044 H 0.67513 0.13855 0.45088 0.0
H1045 H 0.80844 0.14837 0.43378 0.0
H1046 H 0.77872 0.13388 0.47617 0.0
H1047 H 0.73412 0.18764 0.43986 0.0
H1048 H 0.76412 0.20284 0.39919 0.0
H1049 H 0.72009 0.13084 0.45783 0.0
H1050 H 0.74278 0.20937 0.50248 0.0
H1051 H 0.77119 0.23808 0.52108 0.0
H1052 H 0.80367 0.18956 0.59413 0.0
H1053 H 0.77555 0.1605 0.57553 0.0
C1054 C 0.64458 0.16001 0.57735 0.0
C1055 C 0.64208 0.14542 0.60867 0.0
C1056 C 0.66528 0.16163 0.55861 0.0
C1057 C 0.68391 0.14891 0.57101 0.0
C1058 C 0.68218 0.13586 0.6042 0.0
C1059 C 0.66129 0.13405 0.62293 0.0
C1060 C 0.70419 0.14788 0.54662 0.0
C1061 C 0.72252 0.16212 0.55483 0.0
C1062 C 0.70358 0.13591 0.51182 0.0
C1063 C 0.68447 0.12056 0.50227 0.0
C1064 C 0.67907 0.10219 0.52609 0.0
C1065 C 0.66063 0.08816 0.5176 0.0
C1066 C 0.64754 0.09226 0.4852 0.0
C1067 C 0.65292 0.11034 0.46116 0.0
C1068 C 0.67133 0.12444 0.46956 0.0
C1069 C 0.79193 0.15642 0.43353 0.0
C1070 C 0.78845 0.17668 0.41328 0.0
C1071 C 0.77512 0.14833 0.45813 0.0
C1072 C 0.75457 0.16011 0.46165 0.0
C1073 C 0.75006 0.17858 0.43776 0.0
C1074 C 0.767 0.18696 0.41398 0.0
C1075 C 0.73851 0.15466 0.49239 0.0
C1076 C 0.72082 0.13945 0.48503 0.0
C1077 C 0.73962 0.16583 0.52792 0.0
C1078 C 0.75743 0.18267 0.53697 0.0
C1079 C 0.75622 0.20474 0.52199 0.0
C1080 C 0.77213 0.22112 0.53278 0.0
C1081 C 0.78926 0.21562 0.55868 0.0
C1082 C 0.79044 0.19377 0.57399 0.0
C1083 C 0.77456 0.17732 0.56324 0.0
H1084 H 0.80164 0.22828 0.56682 0.0
H1085 H 0.63326 0.0814 0.4787 0.0
H1086 H 0.0927 0.36256 0.33063 0.0
H1087 H 0.08914 0.39778 0.29517 0.0
H1088 H 0.14282 0.42752 0.36193 0.0
H1089 H 0.14637 0.39213 0.39826 0.0
H1090 H 0.10813 0.45671 0.35249 0.0
H1091 H 0.15381 0.41134 0.2726 0.0
H1092 H 0.16549 0.37684 0.23824 0.0
H1093 H 0.10498 0.38001 0.17044 0.0
H1094 H 0.09273 0.41432 0.20481 0.0
H1095 H 0.10664 0.53364 0.17333 0.0
H1096 H 0.12218 0.50029 0.20589 0.0
H1097 H 0.05904 0.49177 0.26599 0.0
H1098 H 0.04329 0.52473 0.23331 0.0
H1099 H 0.10847 0.45498 0.21146 0.0
H1100 H 0.07149 0.48199 0.35786 0.0
H1101 H 0.06277 0.51746 0.39204 0.0
H1102 H 0.11297 0.55281 0.32644 0.0
H1103 H 0.12212 0.51758 0.29222 0.0
C1104 C 0.10377 0.37655 0.33794 0.0
C1105 C 0.11992 0.37449 0.36716 0.0
C1106 C 0.10179 0.39665 0.31744 0.0
C1107 C 0.11602 0.41508 0.32542 0.0
C1108 C 0.13181 0.41338 0.35518 0.0
C1109 C 0.13379 0.39319 0.37588 0.0
C1110 C 0.11384 0.43616 0.30284 0.0
C1111 C 0.10841 0.45638 0.32169 0.0
C1112 C 0.11488 0.43586 0.26264 0.0
C1113 C 0.1223 0.41538 0.24144 0.0
C1114 C 0.14292 0.40462 0.25051 0.0
C1115 C 0.14965 0.38509 0.23102 0.0
C1116 C 0.13597 0.37622 0.20221 0.0
C1117 C 0.11556 0.3869 0.19277 0.0
C1118 C 0.10873 0.40641 0.21221 0.0
C1119 C 0.09598 0.5245 0.19316 0.0
C1120 C 0.0739 0.53211 0.20148 0.0
C1121 C 0.1049 0.50549 0.2117 0.0
C1122 C 0.0919 0.49394 0.23886 0.0
C1123 C 0.06949 0.50079 0.24567 0.0
C1124 C 0.06053 0.51964 0.22705 0.0
C1125 C 0.10171 0.47508 0.26117 0.0
C1126 C 0.10857 0.45534 0.24226 0.0
C1127 C 0.10257 0.47596 0.30129 0.0
C1128 C 0.09739 0.49715 0.32233 0.0
C1129 C 0.08075 0.49731 0.3509 0.0
C1130 C 0.07569 0.5174 0.37023 0.0
C1131 C 0.08726 0.5374 0.36138 0.0
C1132 C 0.10394 0.53735 0.33322 0.0
C1133 C 0.10904 0.51734 0.31379 0.0
H1134 H 0.0833 0.55292 0.37638 0.0
H1135 H 0.1412 0.3611 0.18717 0.0
H1136 H 0.63428 0.6386 0.33416 0.0
H1137 H 0.67315 0.64352 0.35619 0.0
H1138 H 0.68967 0.57606 0.31721 0.0
H1139 H 0.65023 0.57073 0.29757 0.0
H1140 H 0.69986 0.57764 0.38578 0.0
H1141 H 0.71764 0.62758 0.2844 0.0
H1142 H 0.71239 0.65925 0.23944 0.0
H1143 H 0.71229 0.70663 0.33198 0.0
H1144 H 0.7172 0.67524 0.37757 0.0
H1145 H 0.81316 0.62577 0.46421 0.0
H1146 H 0.78744 0.60953 0.41652 0.0
H1147 H 0.73005 0.628 0.48559 0.0
H1148 H 0.75553 0.64439 0.53295 0.0
H1149 H 0.74832 0.6463 0.39077 0.0
H1150 H 0.71168 0.58812 0.4846 0.0
H1151 H 0.71896 0.55577 0.52763 0.0
H1152 H 0.76007 0.52405 0.44214 0.0
H1153 H 0.75313 0.55635 0.39885 0.0
C1154 C 0.64655 0.62534 0.32841 0.0
C1155 C 0.63941 0.60438 0.31392 0.0
C1156 C 0.66886 0.62808 0.34119 0.0
C1157 C 0.68454 0.61011 0.33864 0.0
C1158 C 0.67795 0.59012 0.31989 0.0
C1159 C 0.6555 0.58719 0.30805 0.0
C1160 C 0.70605 0.61072 0.36104 0.0
C1161 C 0.71065 0.59254 0.38595 0.0
C1162 C 0.72044 0.62999 0.36175 0.0
C1163 C 0.7177 0.649 0.33443 0.0
C1164 C 0.71638 0.64474 0.29519 0.0
C1165 C 0.71347 0.66265 0.26959 0.0
C1166 C 0.71198 0.68493 0.28285 0.0
C1167 C 0.71346 0.68936 0.32175 0.0
C1168 C 0.71635 0.67151 0.34748 0.0
C1169 C 0.79514 0.62522 0.47017 0.0
C1170 C 0.78629 0.63626 0.5023 0.0
C1171 C 0.78048 0.6162 0.44268 0.0
C1172 C 0.75691 0.61771 0.44756 0.0
C1173 C 0.74821 0.62654 0.4815 0.0
C1174 C 0.76278 0.63574 0.50868 0.0
C1175 C 0.74122 0.6137 0.41548 0.0
C1176 C 0.73775 0.63126 0.38921 0.0
C1177 C 0.72805 0.59389 0.413 0.0
C1178 C 0.732 0.57456 0.43876 0.0
C1179 C 0.72232 0.57424 0.47514 0.0
C1180 C 0.72638 0.55595 0.49953 0.0
C1181 C 0.73999 0.53788 0.48765 0.0
C1182 C 0.74955 0.53806 0.45133 0.0
C1183 C 0.74558 0.55634 0.42689 0.0
H1184 H 0.74311 0.52373 0.50655 0.0
H1185 H 0.70971 0.69877 0.26298 0.0
H1186 H 0.10232 0.04207 0.80025 0.0
H1187 H 0.12111 0.0075 0.77645 0.0
H1188 H 0.06549 0.99659 0.69883 0.0
H1189 H 0.04699 0.03083 0.72228 0.0
H1190 H 0.07889 0.95728 0.72819 0.0
H1191 H 0.11475 0.0219 0.66806 0.0
H1192 H 0.13564 0.05814 0.66623 0.0
H1193 H 0.19063 0.02798 0.7284 0.0
H1194 H 0.1701 0.99148 0.73036 0.0
H1195 H 0.12102 0.88973 0.58175 0.0
H1196 H 0.111 0.92623 0.61084 0.0
H1197 H 0.16299 0.91655 0.69548 0.0
H1198 H 0.1726 0.87979 0.66701 0.0
H1199 H 0.1546 0.96523 0.66798 0.0
H1200 H 0.11839 0.89915 0.72276 0.0
H1201 H 0.09752 0.863 0.71852 0.0
H1202 H 0.04203 0.89696 0.66348 0.0
H1203 H 0.0628 0.93326 0.66675 0.0
C1204 C 0.0939 0.03185 0.77894 0.0
C1205 C 0.07313 0.03893 0.76329 0.0
C1206 C 0.10475 0.0123 0.76498 0.0
C1207 C 0.09486 -0.00045 0.73543 0.0
C1208 C 0.07351 0.00606 0.72153 0.0
C1209 C 0.06289 0.02559 0.73506 0.0
C1210 C 0.10679 0.98 0.71744 0.0
C1211 C 0.09542 0.95911 0.71502 0.0
C1212 C 0.12852 0.98215 0.70053 0.0
C1213 C 0.14079 0.00407 0.69976 0.0
C1214 C 0.13122 0.02306 0.6816 0.0
C1215 C 0.14301 0.04363 0.68047 0.0
C1216 C 0.16436 0.04542 0.69745 0.0
C1217 C 0.17405 0.02659 0.71537 0.0
C1218 C 0.16238 0.00594 0.71639 0.0
C1219 C 0.13099 0.89593 0.60543 0.0
C1220 C 0.14779 0.88219 0.62184 0.0
C1221 C 0.12515 0.91667 0.62223 0.0
C1222 C 0.13618 0.92402 0.65546 0.0
C1223 C 0.15438 0.91128 0.66976 0.0
C1224 C 0.15992 0.89035 0.65339 0.0
C1225 C 0.12643 0.94286 0.6783 0.0
C1226 C 0.13821 0.96344 0.68164 0.0
C1227 C 0.10498 0.94055 0.69589 0.0
C1228 C 0.09224 0.91886 0.69465 0.0
C1229 C 0.10182 0.89887 0.70947 0.0
C1230 C 0.09 0.87836 0.70728 0.0
C1231 C 0.06848 0.87767 0.69065 0.0
C1232 C 0.05871 0.89751 0.6763 0.0
C1233 C 0.0705 0.91806 0.67833 0.0
H1234 H 0.05936 0.86177 0.68896 0.0
H1235 H 0.17344 0.06137 0.69658 0.0
H1236 H 0.68553 0.35132 0.94806 0.0
H1237 H 0.72011 0.36709 0.92108 0.0
H1238 H 0.75319 0.36164 0.03005 0.0
H1239 H 0.71817 0.34589 0.05759 0.0
H1240 H 0.75895 0.4044 0.99437 0.0
H1241 H 0.76743 0.32544 0.96319 0.0
H1242 H 0.75485 0.28862 0.93754 0.0
H1243 H 0.74616 0.31857 0.82727 0.0
H1244 H 0.75849 0.35566 0.85237 0.0
H1245 H 0.87398 0.41085 0.93944 0.0
H1246 H 0.83575 0.40505 0.96373 0.0
H1247 H 0.80924 0.40817 0.84956 0.0
H1248 H 0.84786 0.41412 0.82503 0.0
H1249 H 0.79824 0.36875 0.88508 0.0
H1250 H 0.79271 0.44704 0.91448 0.0
H1251 H 0.8046 0.48415 0.93981 0.0
H1252 H 0.80708 0.45634 0.05248 0.0
H1253 H 0.79553 0.41895 0.02778 0.0
C1254 C 0.70016 0.35339 0.96635 0.0
C1255 C 0.69916 0.34745 0.00498 0.0
C1256 C 0.71995 0.36233 0.95081 0.0
C1257 C 0.73921 0.36553 0.97352 0.0
C1258 C 0.73845 0.35933 0.01208 0.0
C1259 C 0.71857 0.35015 0.02768 0.0
C1260 C 0.75993 0.37567 0.95672 0.0
C1261 C 0.76779 0.39649 0.97083 0.0
C1262 C 0.77083 0.36574 0.92505 0.0
C1263 C 0.76372 0.34338 0.90974 0.0
C1264 C 0.76272 0.32421 0.93352 0.0
C1265 C 0.75567 0.30328 0.91906 0.0
C1266 C 0.74971 0.30126 0.8808 0.0
C1267 C 0.75083 0.32016 0.85689 0.0
C1268 C 0.75787 0.34113 0.8712 0.0
C1269 C 0.85989 0.41117 0.91964 0.0
C1270 C 0.86381 0.41286 0.8804 0.0
C1271 C 0.83802 0.40786 0.93356 0.0
C1272 C 0.81961 0.40606 0.90848 0.0
C1273 C 0.82324 0.40949 0.8694 0.0
C1274 C 0.84522 0.41311 0.85543 0.0
C1275 C 0.79755 0.39748 0.92291 0.0
C1276 C 0.78937 0.37685 0.9084 0.0
C1277 C 0.78636 0.40765 0.95415 0.0
C1278 C 0.7934 0.43011 0.9692 0.0
C1279 C 0.79598 0.44876 0.94462 0.0
C1280 C 0.80262 0.46987 0.95888 0.0
C1281 C 0.80664 0.47259 0.99772 0.0
C1282 C 0.80398 0.45421 0.02239 0.0
C1283 C 0.79735 0.43306 0.00828 0.0
H1284 H 0.81177 0.48894 0.00871 0.0
H1285 H 0.74421 0.28506 0.86968 0.0
H1286 H 0.46101 0.96497 0.23268 0.0
H1287 H 0.45089 0.00414 0.22369 0.0
H1288 H 0.41996 0.00555 0.33486 0.0
H1289 H 0.42852 0.96494 0.34254 0.0
H1290 H 0.39173 0.02164 0.28941 0.0
H1291 H 0.4687 0.03828 0.30467 0.0
H1292 H 0.51024 0.03623 0.29884 0.0
H1293 H 0.50526 0.05169 0.17997 0.0
H1294 H 0.46366 0.05364 0.18503 0.0
H1295 H 0.3659 0.13746 0.22853 0.0
H1296 H 0.38181 0.10525 0.26363 0.0
H1297 H 0.39845 0.07239 0.15793 0.0
H1298 H 0.38213 0.10437 0.12253 0.0
H1299 H 0.43563 0.07816 0.21547 0.0
H1300 H 0.35736 0.05173 0.20216 0.0
H1301 H 0.31606 0.0556 0.21123 0.0
H1302 H 0.32571 0.06085 0.3318 0.0
H1303 H 0.36713 0.05732 0.32337 0.0
C1304 C 0.45253 0.97367 0.25576 0.0
C1305 C 0.44526 0.96174 0.28809 0.0
C1306 C 0.44696 0.99636 0.25075 0.0
C1307 C 0.43473 0.00816 0.27862 0.0
C1308 C 0.42931 0.99686 0.31276 0.0
C1309 C 0.43446 0.97372 0.31743 0.0
C1310 C 0.42504 0.03086 0.26905 0.0
C1311 C 0.4016 0.03423 0.27421 0.0
C1312 C 0.43771 0.04747 0.24887 0.0
C1313 C 0.4629 0.0463 0.24545 0.0
C1314 C 0.47641 0.04131 0.27734 0.0
C1315 C 0.50001 0.04011 0.27412 0.0
C1316 C 0.5104 0.04389 0.23906 0.0
C1317 C 0.49719 0.04885 0.20716 0.0
C1318 C 0.47358 0.05008 0.21025 0.0
C1319 C 0.37263 0.1232 0.21276 0.0
C1320 C 0.37276 0.1234 0.17277 0.0
C1321 C 0.38173 0.10487 0.23286 0.0
C1322 C 0.39141 0.08658 0.21333 0.0
C1323 C 0.3911 0.08645 0.17344 0.0
C1324 C 0.38161 0.1046 0.15328 0.0
C1325 C 0.40258 0.06789 0.23435 0.0
C1326 C 0.42618 0.06559 0.23145 0.0
C1327 C 0.39024 0.05252 0.2571 0.0
C1328 C 0.36535 0.05455 0.26209 0.0
C1329 C 0.3507 0.05394 0.23057 0.0
C1330 C 0.32726 0.05601 0.2356 0.0
C1331 C 0.31827 0.05855 0.27206 0.0
C1332 C 0.3327 0.05893 0.30357 0.0
C1333 C 0.35615 0.05688 0.29868 0.0
H1334 H 0.30013 0.06015 0.2759 0.0
H1335 H 0.52867 0.04292 0.2366 0.0
H1336 H 0.20828 0.29299 0.48047 0.0
H1337 H 0.2368 0.29873 0.52982 0.0
H1338 H 0.25925 0.35976 0.47379 0.0
H1339 H 0.23011 0.35474 0.4252 0.0
H1340 H 0.29447 0.33418 0.51015 0.0
H1341 H 0.2212 0.36882 0.53597 0.0
H1342 H 0.17981 0.37061 0.54602 0.0
H1343 H 0.18479 0.31939 0.63239 0.0
H1344 H 0.22627 0.31743 0.62298 0.0
H1345 H 0.33306 0.41273 0.63478 0.0
H1346 H 0.2988 0.3977 0.60488 0.0
H1347 H 0.3089 0.33384 0.66212 0.0
H1348 H 0.3433 0.34881 0.6918 0.0
H1349 H 0.25672 0.35611 0.63087 0.0
H1350 H 0.33274 0.32077 0.59756 0.0
H1351 H 0.37409 0.32578 0.58985 0.0
H1352 H 0.36255 0.3833 0.51741 0.0
H1353 H 0.32113 0.37858 0.52482 0.0
C1354 C 0.21984 0.30717 0.47769 0.0
C1355 C 0.21644 0.32391 0.44966 0.0
C1356 C 0.23598 0.3105 0.50621 0.0
C1357 C 0.2495 0.33005 0.50595 0.0
C1358 C 0.24864 0.34476 0.47469 0.0
C1359 C 0.23216 0.34174 0.44669 0.0
C1360 C 0.26264 0.33666 0.53985 0.0
C1361 C 0.28621 0.33864 0.53664 0.0
C1362 C 0.25181 0.3427 0.57436 0.0
C1363 C 0.22677 0.34279 0.57846 0.0
C1364 C 0.21343 0.35777 0.55681 0.0
C1365 C 0.18999 0.35897 0.56264 0.0
C1366 C 0.17968 0.34519 0.58993 0.0
C1367 C 0.1928 0.33013 0.61137 0.0
C1368 C 0.21628 0.32899 0.60585 0.0
C1369 C 0.32702 0.3961 0.64315 0.0
C1370 C 0.34064 0.38188 0.66547 0.0
C1371 C 0.30754 0.38746 0.62588 0.0
C1372 C 0.3016 0.36462 0.63105 0.0
C1373 C 0.3132 0.35154 0.65804 0.0
C1374 C 0.33276 0.36016 0.67517 0.0
C1375 C 0.28841 0.35322 0.60108 0.0
C1376 C 0.26493 0.35072 0.60483 0.0
C1377 C 0.2992 0.34678 0.56692 0.0
C1378 C 0.32397 0.34935 0.56176 0.0
C1379 C 0.33908 0.33445 0.57997 0.0
C1380 C 0.36249 0.33722 0.57562 0.0
C1381 C 0.37094 0.35482 0.55307 0.0
C1382 C 0.35598 0.36965 0.53477 0.0
C1383 C 0.33255 0.36691 0.53896 0.0
H1384 H 0.38907 0.35701 0.5499 0.0
H1385 H 0.16152 0.34608 0.59428 0.0
H1386 H 0.92908 0.12355 0.3755 0.0
H1387 H 0.93414 0.08429 0.35481 0.0
H1388 H 0.863 0.07147 0.37344 0.0
H1389 H 0.85795 0.11068 0.39526 0.0
H1390 H 0.92172 0.03787 0.38296 0.0
H1391 H 0.84676 0.04859 0.28504 0.0
H1392 H 0.82214 0.07876 0.25901 0.0
H1393 H 0.87821 0.12526 0.25996 0.0
H1394 H 0.90318 0.09526 0.28537 0.0
H1395 H 0.89981 0.95963 0.20386 0.0
H1396 H 0.88589 0.98832 0.24851 0.0
H1397 H 0.9549 0.00507 0.27849 0.0
H1398 H 0.96878 0.97615 0.23473 0.0
H1399 H 0.88979 0.03187 0.25282 0.0
H1400 H 0.96047 0.02018 0.36869 0.0
H1401 H 0.98179 0.98936 0.39984 0.0
H1402 H 0.93048 0.94153 0.36717 0.0
H1403 H 0.90875 0.97207 0.33593 0.0
C1404 C 0.91472 0.1121 0.37657 0.0
C1405 C 0.89312 0.12009 0.38672 0.0
C1406 C 0.91763 0.08969 0.36486 0.0
C1407 C 0.89889 0.07514 0.36229 0.0
C1408 C 0.87764 0.08251 0.37531 0.0
C1409 C 0.87481 0.10485 0.38786 0.0
C1410 C 0.90113 0.05391 0.34031 0.0
C1411 C 0.91478 0.03641 0.35452 0.0
C1412 C 0.89133 0.05181 0.30383 0.0
C1413 C 0.87671 0.06979 0.2875 0.0
C1414 C 0.85381 0.06524 0.27953 0.0
C1415 C 0.83981 0.0823 0.26489 0.0
C1416 C 0.84859 0.10394 0.25798 0.0
C1417 C 0.87141 0.10852 0.26546 0.0
C1418 C 0.88549 0.0915 0.27999 0.0
C1419 C 0.91197 0.96962 0.21972 0.0
C1420 C 0.93538 0.96567 0.21598 0.0
C1421 C 0.90401 0.98588 0.24542 0.0
C1422 C 0.91932 0.99845 0.26761 0.0
C1423 C 0.94271 0.9951 0.26264 0.0
C1424 C 0.95065 0.97878 0.23729 0.0
C1425 C 0.91113 0.01585 0.29483 0.0
C1426 C 0.89638 0.03279 0.28156 0.0
C1427 C 0.91958 0.01714 0.3325 0.0
C1428 C 0.93301 0.99846 0.34984 0.0
C1429 C 0.95372 0.0031 0.36811 0.0
C1430 C 0.9659 0.98566 0.38574 0.0
C1431 C 0.95749 0.96352 0.38546 0.0
C1432 C 0.937 0.95869 0.36721 0.0
C1433 C 0.92478 0.97605 0.34942 0.0
H1434 H 0.9668 0.95014 0.39962 0.0
H1435 H 0.83771 0.11713 0.24673 0.0
H1436 H 0.15514 0.5746 0.19581 0.0
H1437 H 0.19446 0.56403 0.18157 0.0
H1438 H 0.20855 0.63322 0.14909 0.0
H1439 H 0.16954 0.64363 0.16304 0.0
H1440 H 0.20661 0.56635 0.10956 0.0
H1441 H 0.26267 0.64561 0.14825 0.0
H1442 H 0.26941 0.6699 0.20396 0.0
H1443 H 0.24552 0.61704 0.27769 0.0
H1444 H 0.23913 0.59215 0.22253 0.0
H1445 H 0.26422 0.62485 0.97096 0.0
H1446 H 0.24236 0.60489 0.01918 0.0
H1447 H 0.30426 0.5852 0.07581 0.0
H1448 H 0.3263 0.60498 0.02726 0.0
H1449 H 0.27774 0.61065 0.12081 0.0
H1450 H 0.26783 0.54401 0.051 0.0
H1451 H 0.26092 0.51984 0.99511 0.0
H1452 H 0.19333 0.54638 0.98532 0.0
H1453 H 0.19992 0.57103 0.0407 0.0
C1454 C 0.16703 0.58776 0.18773 0.0
C1455 C 0.15938 0.6099 0.18026 0.0
C1456 C 0.18943 0.58166 0.17925 0.0
C1457 C 0.20446 0.59776 0.16399 0.0
C1458 C 0.19746 0.62049 0.16123 0.0
C1459 C 0.17509 0.62649 0.16921 0.0
C1460 C 0.22517 0.59061 0.1432 0.0
C1461 C 0.22237 0.57566 0.11247 0.0
C1462 C 0.24602 0.60217 0.14765 0.0
C1463 C 0.2504 0.61694 0.1811 0.0
C1464 C 0.25909 0.639 0.17634 0.0
C1465 C 0.26281 0.65293 0.20785 0.0
C1466 C 0.25789 0.64502 0.24434 0.0
C1467 C 0.24931 0.62314 0.2494 0.0
C1468 C 0.24563 0.60912 0.218 0.0
C1469 C 0.27322 0.61541 0.99268 0.0
C1470 C 0.29692 0.61679 0.99563 0.0
C1471 C 0.26071 0.60393 0.02028 0.0
C1472 C 0.27168 0.5937 0.05133 0.0
C1473 C 0.29546 0.59301 0.05213 0.0
C1474 C 0.30803 0.60424 0.02418 0.0
C1475 C 0.25821 0.58804 0.08562 0.0
C1476 C 0.26237 0.60061 0.11878 0.0
C1477 C 0.23864 0.57428 0.08345 0.0
C1478 C 0.23439 0.55938 0.05016 0.0
C1479 C 0.25152 0.54479 0.03684 0.0
C1480 C 0.24766 0.53099 0.00523 0.0
C1481 C 0.2267 0.53156 0.9867 0.0
C1482 C 0.20955 0.54592 0.99976 0.0
C1483 C 0.21332 0.55978 0.03134 0.0
H1484 H 0.22375 0.52087 0.96221 0.0
H1485 H 0.26072 0.65586 0.26869 0.0
H1486 H 0.62709 0.03057 0.67384 0.0
H1487 H 0.63269 0.99415 0.70492 0.0
H1488 H 0.56225 0.99351 0.73792 0.0
H1489 H 0.55684 0.03028 0.70717 0.0
H1490 H 0.58973 0.99855 0.79773 0.0
H1491 H 0.58692 0.94636 0.69319 0.0
H1492 H 0.59617 0.9317 0.62931 0.0
H1493 H 0.66682 0.92983 0.65881 0.0
H1494 H 0.65795 0.94455 0.72268 0.0
H1495 H 0.59367 0.89989 0.91199 0.0
H1496 H 0.58803 0.93269 0.87093 0.0
H1497 H 0.65867 0.93056 0.83908 0.0
H1498 H 0.6642 0.8974 0.88028 0.0
H1499 H 0.6322 0.92695 0.77836 0.0
H1500 H 0.63581 0.97755 0.88291 0.0
H1501 H 0.62758 0.99268 0.94666 0.0
H1502 H 0.55712 0.99911 0.91751 0.0
H1503 H 0.56486 0.9837 0.85374 0.0
C1504 C 0.6124 0.02183 0.68516 0.0
C1505 C 0.59164 0.03331 0.68868 0.0
C1506 C 0.61567 0.00103 0.7034 0.0
C1507 C 0.59803 0.99136 0.72469 0.0
C1508 C 0.57619 0.00083 0.72208 0.0
C1509 C 0.57298 0.0217 0.70388 0.0
C1510 C 0.6036 0.97553 0.75623 0.0
C1511 C 0.59854 0.9826 0.79339 0.0
C1512 C 0.61629 0.95545 0.75084 0.0
C1513 C 0.62176 0.94681 0.71243 0.0
C1514 C 0.60442 0.94305 0.68579 0.0
C1515 C 0.60959 0.93467 0.64969 0.0
C1516 C 0.63207 0.92997 0.63994 0.0
C1517 C 0.64942 0.93353 0.66636 0.0
C1518 C 0.64432 0.94183 0.70254 0.0
C1519 C 0.60827 0.9073 0.89802 0.0
C1520 C 0.62942 0.89644 0.89966 0.0
C1521 C 0.60501 0.92594 0.87421 0.0
C1522 C 0.62289 0.93402 0.85164 0.0
C1523 C 0.64463 0.92456 0.85617 0.0
C1524 C 0.6479 0.9059 0.88022 0.0
C1525 C 0.61794 0.9498 0.81977 0.0
C1526 C 0.62328 0.94284 0.78265 0.0
C1527 C 0.60569 0.97014 0.82518 0.0
C1528 C 0.60089 0.97925 0.86364 0.0
C1529 C 0.61852 0.98198 0.8902 0.0
C1530 C 0.61395 0.99065 0.92632 0.0
C1531 C 0.59183 0.9968 0.93616 0.0
C1532 C 0.57424 0.99432 0.90987 0.0
C1533 C 0.57871 0.98563 0.87371 0.0
H1534 H 0.58833 0.00353 0.96414 0.0
H1535 H 0.63605 0.9235 0.61198 0.0
H1536 H 0.40393 0.18802 0.98969 0.0
H1537 H 0.436 0.18904 0.94617 0.0
H1538 H 0.44433 0.11668 0.95854 0.0
H1539 H 0.41281 0.11575 0.00396 0.0
H1540 H 0.48521 0.13889 0.9564 0.0
H1541 H 0.41571 0.13657 0.87734 0.0
H1542 H 0.37735 0.15181 0.86513 0.0
H1543 H 0.40494 0.21872 0.85292 0.0
H1544 H 0.44358 0.20382 0.8641 0.0
H1545 H 0.51496 0.1126 0.75086 0.0
H1546 H 0.48595 0.12594 0.79571 0.0
H1547 H 0.53727 0.16287 0.85741 0.0
H1548 H 0.56614 0.14895 0.8137 0.0
H1549 H 0.46795 0.16366 0.82457 0.0
H1550 H 0.52879 0.159 0.9497 0.0
H1551 H 0.56665 0.14355 0.965 0.0
H1552 H 0.55504 0.08762 0.88935 0.0
H1553 H 0.51709 0.10274 0.87376 0.0
C1554 C 0.41286 0.17237 0.98378 0.0
C1555 C 0.40615 0.15182 1.00069 0.0
C1556 C 0.43107 0.17298 0.95862 0.0
C1557 C 0.44237 0.15291 0.94883 0.0
C1558 C 0.43587 0.13238 0.96594 0.0
C1559 C 0.41782 0.13182 0.99162 0.0
C1560 C 0.45998 0.15296 0.91896 0.0
C1561 C 0.48153 0.14443 0.92764 0.0
C1562 C 0.45517 0.16035 0.88158 0.0
C1563 C 0.43245 0.16906 0.87118 0.0
C1564 C 0.4136 0.15448 0.8714 0.0
C1565 C 0.39185 0.16306 0.86468 0.0
C1566 C 0.38877 0.18621 0.85788 0.0
C1567 C 0.40746 0.20078 0.85753 0.0
C1568 C 0.4293 0.19226 0.8638 0.0
C1569 C 0.51983 0.12386 0.77377 0.0
C1570 C 0.54268 0.1293 0.77979 0.0
C1571 C 0.50331 0.13161 0.79915 0.0
C1572 C 0.50954 0.14507 0.83044 0.0
C1573 C 0.53213 0.15224 0.83396 0.0
C1574 C 0.54864 0.1441 0.80924 0.0
C1575 C 0.49317 0.149 0.86172 0.0
C1576 C 0.47183 0.15839 0.85338 0.0
C1577 C 0.49813 0.14221 0.89951 0.0
C1578 C 0.52026 0.13212 0.91035 0.0
C1579 C 0.5343 0.14334 0.93655 0.0
C1580 C 0.55577 0.13467 0.94519 0.0
C1581 C 0.56328 0.11465 0.92806 0.0
C1582 C 0.54923 0.10315 0.90252 0.0
C1583 C 0.52774 0.11176 0.89379 0.0
H1584 H 0.57996 0.10803 0.93463 0.0
H1585 H 0.3719 0.19288 0.85308 0.0
H1586 H 0.61867 0.63959 0.23809 0.0
H1587 H 0.63299 0.66843 0.19337 0.0
H1588 H 0.56628 0.67405 0.14377 0.0
H1589 H 0.55214 0.64541 0.1877 0.0
H1590 H 0.62858 0.65933 0.11184 0.0
H1591 H 0.55616 0.71516 0.13134 0.0
H1592 H 0.53456 0.73733 0.17856 0.0
H1593 H 0.59662 0.75666 0.23365 0.0
H1594 H 0.61847 0.73369 0.18772 0.0
H1595 H 0.60767 0.75929 0.96718 0.0
H1596 H 0.59547 0.73237 0.016 0.0
H1597 H 0.66534 0.71938 0.04515 0.0
H1598 H 0.67745 0.74756 0.99864 0.0
H1599 H 0.60242 0.73813 0.08945 0.0
H1600 H 0.67014 0.66639 0.08445 0.0
H1601 H 0.6927 0.64565 0.03678 0.0
H1602 H 0.64262 0.66034 0.95157 0.0
H1603 H 0.61963 0.68086 0.99879 0.0
C1604 C 0.60704 0.64754 0.21828 0.0
C1605 C 0.58433 0.64051 0.21627 0.0
C1606 C 0.61517 0.66394 0.1929 0.0
C1607 C 0.60056 0.67362 0.1658 0.0
C1608 C 0.57767 0.66727 0.16511 0.0
C1609 C 0.56967 0.65078 0.18998 0.0
C1610 C 0.6095 0.68746 0.13429 0.0
C1611 C 0.62342 0.6768 0.10734 0.0
C1612 C 0.60203 0.70985 0.12787 0.0
C1613 C 0.58884 0.72254 0.15652 0.0
C1614 C 0.56513 0.72394 0.1538 0.0
C1615 C 0.55288 0.7367 0.18023 0.0
C1616 C 0.56423 0.74863 0.20881 0.0
C1617 C 0.58785 0.74743 0.21149 0.0
C1618 C 0.60015 0.73436 0.18553 0.0
C1619 C 0.62036 0.75037 0.98365 0.0
C1620 C 0.64335 0.75596 0.98005 0.0
C1621 C 0.61341 0.73484 0.01116 0.0
C1622 C 0.62946 0.72377 0.03402 0.0
C1623 C 0.65264 0.72756 0.02758 0.0
C1624 C 0.65956 0.74355 1.00073 0.0
C1625 C 0.62199 0.71029 0.06718 0.0
C1626 C 0.60814 0.72091 0.09425 0.0
C1627 C 0.62968 0.6879 0.07369 0.0
C1628 C 0.64329 0.67538 0.04512 0.0
C1629 C 0.66391 0.66512 0.05558 0.0
C1630 C 0.67677 0.65341 0.02862 0.0
C1631 C 0.66914 0.65175 0.99115 0.0
C1632 C 0.64857 0.66172 0.98057 0.0
C1633 C 0.63563 0.67343 0.00741 0.0
H1634 H 0.67913 0.64269 0.97032 0.0
H1635 H 0.55473 0.75873 0.22893 0.0
H1636 H 0.96113 0.85778 0.27273 0.0
H1637 H 0.98865 0.83972 0.31547 0.0
H1638 H 0.04176 0.8817 0.26917 0.0
H1639 H 0.01442 0.89957 0.22625 0.0
H1640 H 0.05336 0.83278 0.28429 0.0
H1641 H 0.0179 0.90049 0.34153 0.0
H1642 H 0.98267 0.92034 0.35897 0.0
H1643 H 0.96384 0.86483 0.4315 0.0
H1644 H 0.99869 0.84429 0.41335 0.0
H1645 H 0.14322 0.83668 0.41539 0.0
H1646 H 0.11337 0.84498 0.36922 0.0
H1647 H 0.06259 0.82688 0.45228 0.0
H1648 H 0.09218 0.82181 0.49954 0.0
H1649 H 0.04626 0.85798 0.41807 0.0
H1650 H 0.0826 0.79155 0.37133 0.0
H1651 H 0.11368 0.76683 0.34922 0.0
H1652 H 0.12684 0.81216 0.25652 0.0
H1653 H 0.0963 0.83751 0.27842 0.0
C1654 C 0.97875 0.86269 0.27099 0.0
C1655 C 0.98569 0.87997 0.2461 0.0
C1656 C 0.99442 0.85243 0.29546 0.0
C1657 C 0.01722 0.85932 0.2952 0.0
C1658 C 0.02428 0.87602 0.26947 0.0
C1659 C 0.00863 0.88634 0.24529 0.0
C1660 C 0.0333 0.85132 0.32453 0.0
C1661 C 0.05201 0.83825 0.31357 0.0
C1662 C 0.03086 0.85778 0.36289 0.0
C1663 C 0.01083 0.87083 0.37597 0.0
C1664 C 0.00624 0.89252 0.3612 0.0
C1665 C 0.98631 0.90388 0.37115 0.0
C1666 C 0.97103 0.89391 0.39647 0.0
C1667 C 0.9757 0.87256 0.41194 0.0
C1668 C 0.99553 0.86103 0.40178 0.0
C1669 C 0.12567 0.83466 0.42381 0.0
C1670 C 0.12009 0.82765 0.46077 0.0
C1671 C 0.10855 0.83906 0.39718 0.0
C1672 C 0.08556 0.8357 0.40651 0.0
C1673 C 0.08008 0.82933 0.44384 0.0
C1674 C 0.0971 0.82592 0.47079 0.0
C1675 C 0.06716 0.83958 0.37802 0.0
C1676 C 0.04783 0.852 0.38908 0.0
C1677 C 0.06875 0.83181 0.33991 0.0
C1678 C 0.08723 0.81657 0.32677 0.0
C1679 C 0.09222 0.79636 0.3464 0.0
C1680 C 0.10974 0.78222 0.3339 0.0
C1681 C 0.12219 0.78791 0.30156 0.0
C1682 C 0.11719 0.80778 0.28161 0.0
C1683 C 0.0998 0.82206 0.29407 0.0
H1684 H 0.13571 0.7769 0.29193 0.0
H1685 H 0.95557 0.90272 0.40405 0.0
H1686 H 0.879 0.22691 0.52393 0.0
H1687 H 0.88388 0.25761 0.5703 0.0
H1688 H 0.8193 0.28571 0.53765 0.0
H1689 H 0.81488 0.25605 0.48989 0.0
H1690 H 0.8628 0.31485 0.53717 0.0
H1691 H 0.81541 0.26595 0.60913 0.0
H1692 H 0.8021 0.2314 0.64137 0.0
H1693 H 0.86007 0.23298 0.71514 0.0
H1694 H 0.87421 0.26711 0.6826 0.0
H1695 H 0.87416 0.40189 0.67791 0.0
H1696 H 0.85641 0.37294 0.63769 0.0
H1697 H 0.9041 0.32322 0.67958 0.0
H1698 H 0.92217 0.35218 0.71826 0.0
H1699 H 0.86079 0.30672 0.67734 0.0
H1700 H 0.91234 0.34834 0.59603 0.0
H1701 H 0.92729 0.38274 0.5651 0.0
H1702 H 0.8628 0.39411 0.51151 0.0
H1703 H 0.84738 0.35985 0.54252 0.0
C1704 C 0.86601 0.23973 0.52646 0.0
C1705 C 0.84689 0.2394 0.50275 0.0
C1706 C 0.86849 0.25681 0.55361 0.0
C1707 C 0.85161 0.27336 0.558 0.0
C1708 C 0.83231 0.27282 0.53492 0.0
C1709 C 0.82987 0.25588 0.50769 0.0
C1710 C 0.85525 0.29253 0.58394 0.0
C1711 C 0.86194 0.31322 0.56785 0.0
C1712 C 0.85431 0.29009 0.62387 0.0
C1713 C 0.84621 0.26894 0.64262 0.0
C1714 C 0.82569 0.25867 0.63151 0.0
C1715 C 0.81789 0.23919 0.65005 0.0
C1716 C 0.83028 0.22992 0.68011 0.0
C1717 C 0.85047 0.24016 0.69181 0.0
C1718 C 0.85839 0.25957 0.67328 0.0
C1719 C 0.88089 0.38479 0.67824 0.0
C1720 C 0.89937 0.37906 0.70161 0.0
C1721 C 0.87067 0.3683 0.65551 0.0
C1722 C 0.8789 0.34596 0.65581 0.0
C1723 C 0.89732 0.34029 0.67915 0.0
C1724 C 0.90758 0.35678 0.70151 0.0
C1725 C 0.86924 0.32856 0.63051 0.0
C1726 C 0.86127 0.30832 0.64666 0.0
C1727 C 0.86934 0.33118 0.59064 0.0
C1728 C 0.87863 0.3517 0.57192 0.0
C1729 C 0.9013 0.35826 0.57787 0.0
C1730 C 0.90987 0.37771 0.56029 0.0
C1731 C 0.89598 0.39064 0.53645 0.0
C1732 C 0.87352 0.3841 0.53005 0.0
C1733 C 0.86486 0.36466 0.5476 0.0
H1734 H 0.90265 0.4057 0.52285 0.0
H1735 H 0.8242 0.21486 0.69444 0.0
H1736 H 0.6416 0.84868 0.08269 0.0
H1737 H 0.61835 0.84454 0.13998 0.0
H1738 H 0.60486 0.77482 0.11087 0.0
H1739 H 0.62854 0.77885 0.05385 0.0
H1740 H 0.56666 0.79934 0.11601 0.0
H1741 H 0.63001 0.78531 0.19405 0.0
H1742 H 0.66887 0.79056 0.21839 0.0
H1743 H 0.65144 0.85718 0.258 0.0
H1744 H 0.61257 0.85252 0.23336 0.0
H1745 H 0.48022 0.82065 0.25051 0.0
H1746 H 0.51416 0.80007 0.22856 0.0
H1747 H 0.55131 0.86316 0.22512 0.0
H1748 H 0.5176 0.88349 0.24702 0.0
H1749 H 0.57877 0.82751 0.24726 0.0
H1750 H 0.52321 0.84578 0.14732 0.0
H1751 H 0.48362 0.84344 0.12476 0.0
H1752 H 0.48746 0.77067 0.12624 0.0
H1753 H 0.52706 0.77273 0.14829 0.0
C1754 C 0.63414 0.83233 0.08922 0.0
C1755 C 0.63608 0.81425 0.06369 0.0
C1756 C 0.62102 0.82989 0.12197 0.0
C1757 C 0.60984 0.8093 0.12949 0.0
C1758 C 0.61333 0.79075 0.10537 0.0
C1759 C 0.62655 0.79316 0.07278 0.0
C1760 C 0.59156 0.8086 0.15821 0.0
C1761 C 0.56941 0.80474 0.14513 0.0
C1762 C 0.59512 0.81578 0.19605 0.0
C1763 C 0.61835 0.81857 0.21172 0.0
C1764 C 0.63448 0.80114 0.20779 0.0
C1765 C 0.65652 0.80401 0.22165 0.0
C1766 C 0.66263 0.8242 0.2397 0.0
C1767 C 0.64668 0.84154 0.24402 0.0
C1768 C 0.62462 0.83877 0.23017 0.0
C1769 C 0.49583 0.82989 0.2456 0.0
C1770 C 0.49657 0.85351 0.25016 0.0
C1771 C 0.51513 0.8182 0.23326 0.0
C1772 C 0.53522 0.83014 0.22516 0.0
C1773 C 0.5361 0.8536 0.23163 0.0
C1774 C 0.51685 0.86523 0.2437 0.0
C1775 C 0.55412 0.81935 0.20425 0.0
C1776 C 0.57625 0.82108 0.21872 0.0
C1777 C 0.55069 0.81049 0.16739 0.0
C1778 C 0.52786 0.80934 0.15009 0.0
C1779 C 0.5156 0.8293 0.1425 0.0
C1780 C 0.49318 0.82805 0.12981 0.0
C1781 C 0.48297 0.80693 0.12435 0.0
C1782 C 0.49532 0.78703 0.13059 0.0
C1783 C 0.51778 0.78822 0.14308 0.0
H1784 H 0.46547 0.80605 0.11549 0.0
H1785 H 0.67971 0.82641 0.25035 0.0
H1786 H 0.40557 0.33877 0.74921 0.0
H1787 H 0.39357 0.30816 0.79122 0.0
H1788 H 0.3857 0.35587 0.88301 0.0
H1789 H 0.39749 0.38691 0.84077 0.0
H1790 H 0.41415 0.31367 0.89481 0.0
H1791 H 0.34017 0.33832 0.85031 0.0
H1792 H 0.31383 0.3484 0.79849 0.0
H1793 H 0.32067 0.28154 0.75157 0.0
H1794 H 0.34735 0.27118 0.80277 0.0
H1795 H 0.37245 0.23455 0.02594 0.0
H1796 H 0.38135 0.26705 0.98603 0.0
H1797 H 0.35695 0.23069 0.88764 0.0
H1798 H 0.34677 0.19851 0.92822 0.0
H1799 H 0.34327 0.26938 0.87947 0.0
H1800 H 0.41646 0.24299 0.90684 0.0
H1801 H 0.4528 0.23144 0.93552 0.0
H1802 H 0.45697 0.29515 0.99415 0.0
H1803 H 0.42042 0.3069 0.96638 0.0
C1804 C 0.40143 0.34279 0.77838 0.0
C1805 C 0.4026 0.36521 0.79184 0.0
C1806 C 0.39438 0.3253 0.8022 0.0
C1807 C 0.38861 0.32988 0.83999 0.0
C1808 C 0.38997 0.35215 0.85375 0.0
C1809 C 0.39673 0.36979 0.82971 0.0
C1810 C 0.38244 0.31103 0.8655 0.0
C1811 C 0.39842 0.30421 0.89245 0.0
C1812 C 0.36257 0.29808 0.86012 0.0
C1813 C 0.34581 0.30401 0.8303 0.0
C1814 C 0.3361 0.3258 0.82887 0.0
C1815 C 0.32113 0.33156 0.7996 0.0
C1816 C 0.3156 0.31563 0.77172 0.0
C1817 C 0.32495 0.29386 0.77319 0.0
C1818 C 0.33997 0.28802 0.80237 0.0
C1819 C 0.36903 0.23347 0.99576 0.0
C1820 C 0.35884 0.21406 0.98018 0.0
C1821 C 0.37434 0.25202 0.97282 0.0
C1822 C 0.37021 0.25136 0.93353 0.0
C1823 C 0.36024 0.23177 0.91785 0.0
C1824 C 0.35443 0.21336 0.94101 0.0
C1825 C 0.37526 0.27151 0.90937 0.0
C1826 C 0.35896 0.27878 0.88273 0.0
C1827 C 0.39562 0.28415 0.9133 0.0
C1828 C 0.41558 0.27573 0.93474 0.0
C1829 C 0.42483 0.2543 0.92657 0.0
C1830 C 0.44558 0.2478 0.94244 0.0
C1831 C 0.45729 0.2627 0.96627 0.0
C1832 C 0.44793 0.28373 0.97545 0.0
C1833 C 0.42716 0.29026 0.95981 0.0
H1834 H 0.47367 0.25808 0.97763 0.0
H1835 H 0.30407 0.32015 0.74899 0.0
H1836 H -0.00044 0.08543 0.70385 0.0
H1837 H 0.96527 0.09544 0.66849 0.0
H1838 H 0.99556 0.15949 0.63717 0.0
H1839 H 0.02948 0.14984 0.67459 0.0
H1840 H 0.95336 0.16586 0.64801 0.0
H1841 H 0.99463 0.11137 0.57644 0.0
H1842 H 0.01493 0.0755 0.56455 0.0
H1843 H 0.95398 0.03791 0.58673 0.0
H1844 H 0.93338 0.07355 0.59935 0.0
H1845 H 0.88412 0.17309 0.47509 0.0
H1846 H 0.91771 0.16327 0.51241 0.0
H1847 H 0.87533 0.13075 0.59588 0.0
H1848 H 0.84145 0.14145 0.55954 0.0
H1849 H 0.92414 0.10921 0.55593 0.0
H1850 H 0.88482 0.16838 0.63112 0.0
H1851 H 0.86827 0.20628 0.64052 0.0
H1852 H 0.93065 0.23707 0.60487 0.0
H1853 H 0.94731 0.19935 0.59391 0.0
C1854 C 0.99865 0.10177 0.68978 0.0
C1855 C 0.01699 0.11684 0.69136 0.0
C1856 C 0.97921 0.10739 0.6693 0.0
C1857 C 0.97812 0.12787 0.64897 0.0
C1858 C 0.99611 0.14347 0.65218 0.0
C1859 C 0.01544 0.138 0.67343 0.0
C1860 C 0.9584 0.13268 0.6239 0.0
C1861 C 0.94717 0.15351 0.62766 0.0
C1862 C 0.95024 0.11661 0.59716 0.0
C1863 C 0.9625 0.09514 0.58914 0.0
C1864 C 0.98558 0.09545 0.579 0.0
C1865 C 0.99714 0.07515 0.57212 0.0
C1866 C 0.98577 0.05444 0.57496 0.0
C1867 C 0.96278 0.05397 0.58458 0.0
C1868 C 0.95115 0.07421 0.59157 0.0
C1869 C 0.88188 0.16369 0.50114 0.0
C1870 C 0.86007 0.15824 0.51449 0.0
C1871 C 0.90112 0.15816 0.52249 0.0
C1872 C 0.89887 0.14666 0.5571 0.0
C1873 C 0.8773 0.13991 0.56939 0.0
C1874 C 0.85801 0.14594 0.54855 0.0
C1875 C 0.91906 0.1421 0.58082 0.0
C1876 C 0.93043 0.12141 0.57644 0.0
C1877 C 0.92771 0.15847 0.60628 0.0
C1878 C 0.91714 0.18105 0.61096 0.0
C1879 C 0.89482 0.18322 0.62439 0.0
C1880 C 0.88549 0.20471 0.63032 0.0
C1881 C 0.8985 0.22411 0.62364 0.0
C1882 C 0.92067 0.22207 0.61031 0.0
C1883 C 0.93002 0.20066 0.60404 0.0
H1884 H 0.8915 0.24072 0.62889 0.0
H1885 H 0.99475 0.03874 0.56962 0.0
H1886 H 0.12625 0.77596 0.45449 0.0
H1887 H 0.11404 0.74725 0.40917 0.0
H1888 H 0.13849 0.69466 0.48404 0.0
H1889 H 0.15178 0.72368 0.52874 0.0
H1890 H 0.15498 0.68833 0.41752 0.0
H1891 H 0.06864 0.69244 0.4486 0.0
H1892 H 0.03298 0.7137 0.45811 0.0
H1893 H 0.05024 0.75831 0.36621 0.0
H1894 H 0.08527 0.73635 0.35471 0.0
H1895 H 0.09778 0.59054 0.34679 0.0
H1896 H 0.1118 0.62329 0.3822 0.0
H1897 H 0.10543 0.6649 0.28201 0.0
H1898 H 0.09233 0.63186 0.24582 0.0
H1899 H 0.08089 0.67982 0.3523 0.0
H1900 H 0.15378 0.661 0.30602 0.0
H1901 H 0.18626 0.63645 0.29021 0.0
H1902 H 0.19532 0.62052 0.40827 0.0
H1903 H 0.16263 0.64472 0.42477 0.0
C1904 C 0.12831 0.75823 0.46181 0.0
C1905 C 0.13957 0.75196 0.49538 0.0
C1906 C 0.12117 0.74175 0.43587 0.0
C1907 C 0.1249 0.71861 0.44314 0.0
C1908 C 0.13532 0.71236 0.47764 0.0
C1909 C 0.14283 0.72889 0.50329 0.0
C1910 C 0.12077 0.70118 0.41316 0.0
C1911 C 0.13865 0.68636 0.40372 0.0
C1912 C 0.09992 0.69917 0.3933 0.0
C1913 C 0.07993 0.71339 0.40184 0.0
C1914 C 0.06495 0.70701 0.43086 0.0
C1915 C 0.04474 0.71901 0.43633 0.0
C1916 C 0.03957 0.73767 0.41339 0.0
C1917 C 0.05438 0.74405 0.38432 0.0
C1918 C 0.07431 0.73172 0.37811 0.0
C1919 C 0.10002 0.60647 0.33196 0.0
C1920 C 0.09399 0.60857 0.29351 0.0
C1921 C 0.10795 0.62519 0.35226 0.0
C1922 C 0.10954 0.64648 0.33472 0.0
C1923 C 0.10432 0.64856 0.29598 0.0
C1924 C 0.09695 0.62964 0.27533 0.0
C1925 C 0.11479 0.66669 0.35809 0.0
C1926 C 0.09723 0.68198 0.3661 0.0
C1927 C 0.13597 0.66926 0.37629 0.0
C1928 C 0.15557 0.65452 0.36661 0.0
C1929 C 0.16252 0.65207 0.3286 0.0
C1930 C 0.18102 0.63826 0.31951 0.0
C1931 C 0.19282 0.62689 0.34821 0.0
C1932 C 0.18615 0.62933 0.38606 0.0
C1933 C 0.16764 0.64311 0.39531 0.0
H1934 H 0.20716 0.61623 0.34112 0.0
H1935 H 0.02398 0.747 0.41788 0.0
H1936 H 0.90369 0.67224 0.48169 0.0
H1937 H 0.93403 0.66381 0.43686 0.0
H1938 H 0.88483 0.65707 0.34691 0.0
H1939 H 0.8543 0.66701 0.39143 0.0
H1940 H 0.91826 0.61961 0.35763 0.0
H1941 H 0.91332 0.7001 0.34185 0.0
H1942 H 0.91256 0.74016 0.36168 0.0
H1943 H 0.9796 0.7335 0.40827 0.0
H1944 H 0.98055 0.69327 0.38954 0.0
H1945 H 0.99243 0.60483 0.20628 0.0
H1946 H 0.96227 0.61993 0.24656 0.0
H1947 H 0.01247 0.64551 0.32499 0.0
H1948 H 0.04279 0.63127 0.28336 0.0
H1949 H 0.97873 0.67405 0.32148 0.0
H1950 H 0.98421 0.59449 0.34038 0.0
H1951 H 0.98627 0.55416 0.32223 0.0
H1952 H 0.91963 0.55826 0.27332 0.0
H1953 H 0.91731 0.59874 0.29065 0.0
C1954 C 0.89935 0.66974 0.45215 0.0
C1955 C 0.87669 0.67113 0.43984 0.0
C1956 C 0.9167 0.66465 0.42667 0.0
C1957 C 0.91167 0.66015 0.38856 0.0
C1958 C 0.889 0.66073 0.37624 0.0
C1959 C 0.87163 0.66635 0.40166 0.0
C1960 C 0.93014 0.65399 0.36213 0.0
C1961 C 0.93125 0.63159 0.34905 0.0
C1962 C 0.94758 0.66944 0.35257 0.0
C1963 C 0.94687 0.69354 0.36473 0.0
C1964 C 0.92776 0.70706 0.35688 0.0
C1965 C 0.92732 0.72984 0.36779 0.0
C1966 C 0.94599 0.73938 0.38623 0.0
C1967 C 0.96514 0.72614 0.39393 0.0
C1968 C 0.96561 0.70332 0.38324 0.0
C1969 C 0.99695 0.61394 0.23191 0.0
C1970 C 0.01975 0.61689 0.24198 0.0
C1971 C 0.97976 0.62243 0.25502 0.0
C1972 C 0.98506 0.63328 0.2894 0.0
C1973 C 0.00796 0.63705 0.29875 0.0
C1974 C 0.02523 0.62894 0.27509 0.0
C1975 C 0.96663 0.63974 0.31605 0.0
C1976 C 0.96569 0.66206 0.32979 0.0
C1977 C 0.94946 0.62413 0.3267 0.0
C1978 C 0.95067 0.59971 0.31653 0.0
C1979 C 0.97005 0.58683 0.32554 0.0
C1980 C 0.97126 0.56394 0.31541 0.0
C1981 C 0.95311 0.55366 0.29656 0.0
C1982 C 0.93368 0.56625 0.28789 0.0
C1983 C 0.9324 0.58917 0.29788 0.0
H1984 H 0.95408 0.53594 0.28874 0.0
H1985 H 0.9456 0.75705 0.39438 0.0
H1986 H 0.14423 0.10915 0.67456 0.0
H1987 H 0.15935 0.14435 0.64757 0.0
H1988 H 0.11529 0.18336 0.72016 0.0
H1989 H 0.09951 0.14865 0.746 0.0
H1990 H 0.12962 0.1754 0.61002 0.0
H1991 H 0.14381 0.23361 0.7393 0.0
H1992 H 0.15495 0.22979 0.80658 0.0
H1993 H 0.19349 0.17007 0.78009 0.0
H1994 H 0.18303 0.17381 0.71257 0.0
H1995 H 0.11912 0.28788 0.55699 0.0
H1996 H 0.11662 0.25554 0.59966 0.0
H1997 H 0.18963 0.25128 0.6031 0.0
H1998 H 0.19223 0.28402 0.56 0.0
H1999 H 0.16627 0.24055 0.67501 0.0
H2000 H 0.16482 0.22088 0.5406 0.0
H2001 H 0.15023 0.22421 0.47516 0.0
H2002 H 0.08372 0.20527 0.5134 0.0
H2003 H 0.09779 0.20237 0.5791 0.0
C2004 C 0.13828 0.12524 0.68559 0.0
C2005 C 0.121 0.12603 0.71304 0.0
C2006 C 0.14684 0.14528 0.67003 0.0
C2007 C 0.1385 0.16634 0.68214 0.0
C2008 C 0.12222 0.16723 0.71102 0.0
C2009 C 0.11345 0.14727 0.72621 0.0
C2010 C 0.14481 0.18731 0.66191 0.0
C2011 C 0.13791 0.18954 0.62405 0.0
C2012 C 0.15529 0.20576 0.6806 0.0
C2013 C 0.16258 0.20399 0.72085 0.0
C2014 C 0.15487 0.21981 0.74775 0.0
C2015 C 0.16103 0.21763 0.78595 0.0
C2016 C 0.17495 0.19973 0.79756 0.0
C2017 C 0.18274 0.18395 0.77103 0.0
C2018 C 0.17671 0.18611 0.7328 0.0
C2019 C 0.13465 0.28035 0.56718 0.0
C2020 C 0.15582 0.28818 0.55452 0.0
C2021 C 0.1332 0.26193 0.59179 0.0
C2022 C 0.15293 0.25084 0.60398 0.0
C2023 C 0.17422 0.25964 0.59385 0.0
C2024 C 0.17567 0.27825 0.5692 0.0
C2025 C 0.15105 0.2286 0.6231 0.0
C2026 C 0.15845 0.22624 0.6608 0.0
C2027 C 0.14077 0.20997 0.60444 0.0
C2028 C 0.13235 0.21152 0.56479 0.0
C2029 C 0.14705 0.21759 0.53506 0.0
C2030 C 0.13887 0.21939 0.4979 0.0
C2031 C 0.11606 0.21492 0.49007 0.0
C2032 C 0.10139 0.20866 0.5194 0.0
C2033 C 0.10945 0.20698 0.55662 0.0
H2034 H 0.10977 0.21634 0.46128 0.0
H2035 H 0.17976 0.19812 0.8271 0.0
H2036 H 0.46067 0.36112 0.76825 0.0
H2037 H 0.48927 0.34864 0.81376 0.0
H2038 H 0.52548 0.41159 0.79803 0.0
H2039 H 0.49793 0.42327 0.75004 0.0
H2040 H 0.55451 0.37916 0.80867 0.0
H2041 H 0.48317 0.40069 0.87102 0.0
H2042 H 0.44222 0.39641 0.88383 0.0
H2043 H 0.45302 0.3275 0.91905 0.0
H2044 H 0.49392 0.33124 0.90589 0.0
H2045 H 0.61351 0.39685 0.97744 0.0
H2046 H 0.58631 0.39927 0.92516 0.0
H2047 H 0.55733 0.33513 0.95914 0.0
H2048 H 0.58394 0.33324 0.01258 0.0
H2049 H 0.52502 0.3617 0.93733 0.0
H2050 H 0.59512 0.33964 0.88154 0.0
H2051 H 0.63602 0.34079 0.86604 0.0
H2052 H 0.62796 0.40717 0.81783 0.0
H2053 H 0.58707 0.40634 0.83263 0.0
C2054 C 0.47526 0.37186 0.77317 0.0
C2055 C 0.47726 0.39301 0.75495 0.0
C2056 C 0.49138 0.36491 0.79988 0.0
C2057 C 0.50925 0.37942 0.81013 0.0
C2058 C 0.51181 0.40011 0.79076 0.0
C2059 C 0.49602 0.40681 0.76337 0.0
C2060 C 0.52454 0.37398 0.84247 0.0
C2061 C 0.54805 0.37552 0.83687 0.0
C2062 C 0.51618 0.36827 0.87901 0.0
C2063 C 0.49158 0.3662 0.88721 0.0
C2064 C 0.47678 0.3846 0.88132 0.0
C2065 C 0.45358 0.38226 0.88862 0.0
C2066 C 0.44503 0.3617 0.90225 0.0
C2067 C 0.45965 0.34341 0.90849 0.0
C2068 C 0.48283 0.34563 0.90112 0.0
C2069 C 0.60098 0.38355 0.97416 0.0
C2070 C 0.60064 0.36502 0.99914 0.0
C2071 C 0.58567 0.38474 0.94398 0.0
C2072 C 0.57015 0.36708 0.93753 0.0
C2073 C 0.56921 0.34892 0.96339 0.0
C2074 C 0.58429 0.34793 0.99408 0.0
C2075 C 0.55498 0.36772 0.90379 0.0
C2076 C 0.53152 0.36516 0.9091 0.0
C2077 C 0.56339 0.37221 0.86685 0.0
C2078 C 0.58807 0.37295 0.85842 0.0
C2079 C 0.60213 0.35451 0.86782 0.0
C2080 C 0.62528 0.35509 0.85912 0.0
C2081 C 0.63458 0.37407 0.84122 0.0
C2082 C 0.62074 0.39248 0.83176 0.0
C2083 C 0.59756 0.39192 0.84013 0.0
H2084 H 0.65249 0.37449 0.83457 0.0
H2085 H 0.42712 0.35996 0.90818 0.0
H2086 H 0.3823 0.71947 0.04047 0.0
H2087 H 0.38547 0.74793 0.09037 0.0
H2088 H 0.32426 0.78008 0.05051 0.0
H2089 H 0.32015 0.75078 0.00171 0.0
H2090 H 0.36499 0.80973 0.07371 0.0
H2091 H 0.31641 0.74721 0.11607 0.0
H2092 H 0.30964 0.70634 0.12598 0.0
H2093 H 0.36756 0.70268 0.19976 0.0
H2094 H 0.37508 0.74339 0.1894 0.0
H2095 H 0.36142 0.8815 0.22383 0.0
H2096 H 0.34354 0.85354 0.18221 0.0
H2097 H 0.38309 0.80055 0.23513 0.0
H2098 H 0.39938 0.8282 0.2787 0.0
H2099 H 0.34986 0.78127 0.20405 0.0
H2100 H 0.40498 0.83345 0.15982 0.0
H2101 H 0.42259 0.87077 0.14829 0.0
H2102 H 0.36612 0.8901 0.07818 0.0
H2103 H 0.34805 0.85293 0.08971 0.0
C2104 C 0.36971 0.73277 0.04183 0.0
C2105 C 0.35069 0.73253 0.01778 0.0
C2106 C 0.37161 0.74907 0.0703 0.0
C2107 C 0.35495 0.76584 0.07427 0.0
C2108 C 0.33716 0.76708 0.04795 0.0
C2109 C 0.33491 0.75039 0.02006 0.0
C2110 C 0.35523 0.78102 0.10753 0.0
C2111 C 0.36114 0.80375 0.10214 0.0
C2112 C 0.35138 0.77268 0.14465 0.0
C2113 C 0.34636 0.74835 0.1518 0.0
C2114 C 0.3278 0.73767 0.1342 0.0
C2115 C 0.32384 0.71452 0.13987 0.0
C2116 C 0.33817 0.70192 0.16346 0.0
C2117 C 0.35646 0.71246 0.1815 0.0
C2118 C 0.3606 0.73557 0.17571 0.0
C2119 C 0.3651 0.86368 0.22812 0.0
C2120 C 0.38189 0.85694 0.25403 0.0
C2121 C 0.35521 0.84773 0.20392 0.0
C2122 C 0.36288 0.82513 0.20419 0.0
C2123 C 0.37713 0.81792 0.23386 0.0
C2124 C 0.38635 0.83375 0.25902 0.0
C2125 C 0.35946 0.81033 0.17045 0.0
C2126 C 0.35312 0.78756 0.17563 0.0
C2127 C 0.36429 0.81823 0.13319 0.0
C2128 C 0.37504 0.84057 0.12603 0.0
C2129 C 0.39626 0.84573 0.14216 0.0
C2130 C 0.40633 0.86683 0.1356 0.0
C2131 C 0.39544 0.88283 0.11263 0.0
C2132 C 0.3745 0.87771 0.09605 0.0
C2133 C 0.36434 0.85663 0.10258 0.0
H2134 H 0.40325 0.89916 0.10758 0.0
H2135 H 0.33513 0.68399 0.16773 0.0
H2136 H 0.11632 0.39372 0.53218 0.0
H2137 H 0.09494 0.40478 0.58859 0.0
H2138 H 0.08125 0.33432 0.61299 0.0
H2139 H 0.10186 0.32334 0.55599 0.0
H2140 H 0.04548 0.35691 0.62573 0.0
H2141 H 0.12154 0.36541 0.66321 0.0
H2142 H 0.16146 0.37751 0.65878 0.0
H2143 H 0.1409 0.44732 0.66397 0.0
H2144 H 0.10078 0.43567 0.6677 0.0
H2145 H 0.9929 0.39243 0.79423 0.0
H2146 H 0.02578 0.37567 0.76238 0.0
H2147 H 0.03567 0.43776 0.6997 0.0
H2148 H 0.00254 0.45433 0.73071 0.0
H2149 H 0.0768 0.41338 0.71609 0.0
H2150 H 0.99847 0.40018 0.67206 0.0
H2151 H 0.95987 0.3841 0.67422 0.0
H2152 H 0.98761 0.31699 0.68341 0.0
H2153 H 0.02634 0.3327 0.68322 0.0
C2154 C 0.10857 0.38061 0.5494 0.0
C2155 C 0.11074 0.35763 0.53958 0.0
C2156 C 0.09657 0.38692 0.58188 0.0
C2157 C 0.08695 0.37035 0.60562 0.0
C2158 C 0.08862 0.34742 0.5953 0.0
C2159 C 0.10035 0.34115 0.56255 0.0
C2160 C 0.07464 0.37703 0.64062 0.0
C2161 C 0.05255 0.36884 0.64599 0.0
C2162 C 0.08393 0.39248 0.66723 0.0
C2163 C 0.10808 0.39965 0.66552 0.0
C2164 C 0.12549 0.38335 0.66318 0.0
C2165 C 0.14817 0.39013 0.66079 0.0
C2166 C 0.15371 0.41317 0.66105 0.0
C2167 C 0.13658 0.42947 0.66377 0.0
C2168 C 0.11385 0.42279 0.66606 0.0
C2169 C 0.00284 0.40291 0.77521 0.0
C2170 C 0.99516 0.42459 0.76457 0.0
C2171 C 0.02147 0.39322 0.75676 0.0
C2172 C 0.03277 0.40534 0.72813 0.0
C2173 C 0.02706 0.42811 0.72156 0.0
C2174 C 0.00822 0.43762 0.73941 0.0
C2175 C 0.04755 0.39363 0.70049 0.0
C2176 C 0.07006 0.40095 0.69637 0.0
C2177 C 0.03887 0.3768 0.67564 0.0
C2178 C 0.01539 0.36771 0.67841 0.0
C2179 C 0.99638 0.38206 0.67554 0.0
C2180 C 0.97444 0.37299 0.67634 0.0
C2181 C 0.97131 0.34955 0.67912 0.0
C2182 C 0.99006 0.33515 0.68159 0.0
C2183 C 0.01199 0.34414 0.6814 0.0
H2184 H 0.95439 0.34247 0.67901 0.0
H2185 H 0.17128 0.41838 0.6592 0.0
H2186 H 0.92192 0.8654 0.25867 0.0
H2187 H 0.90622 0.83586 0.2987 0.0
H2188 H 0.8774 0.88696 0.37239 0.0
H2189 H 0.89641 0.91641 0.33512 0.0
H2190 H 0.88964 0.85889 0.4151 0.0
H2191 H 0.84584 0.84805 0.30524 0.0
H2192 H 0.83728 0.8437 0.23708 0.0
H2193 H 0.87489 0.78132 0.23454 0.0
H2194 H 0.88403 0.78549 0.30255 0.0
H2195 H 0.82489 0.76981 0.50684 0.0
H2196 H 0.83497 0.80242 0.46713 0.0
H2197 H 0.88903 0.76356 0.41639 0.0
H2198 H 0.87822 0.73062 0.45475 0.0
H2199 H 0.85999 0.78647 0.36387 0.0
H2200 H 0.89365 0.80116 0.48834 0.0
H2201 H 0.89136 0.80981 0.55653 0.0
H2202 H 0.85624 0.87185 0.53178 0.0
H2203 H 0.85754 0.86322 0.46345 0.0
C2204 C 0.91206 0.8703 0.28321 0.0
C2205 C 0.91035 0.89314 0.29384 0.0
C2206 C 0.90273 0.85333 0.30602 0.0
C2207 C 0.88999 0.85885 0.33855 0.0
C2208 C 0.88722 0.88195 0.34782 0.0
C2209 C 0.89776 0.89887 0.32621 0.0
C2210 C 0.88094 0.84059 0.36402 0.0
C2211 C 0.88265 0.84333 0.40364 0.0
C2212 C 0.87161 0.8201 0.34971 0.0
C2213 C 0.86576 0.81718 0.30896 0.0
C2214 C 0.85237 0.83345 0.29011 0.0
C2215 C 0.84742 0.83102 0.2515 0.0
C2216 C 0.85557 0.81227 0.23148 0.0
C2217 C 0.8686 0.79585 0.25008 0.0
C2218 C 0.87366 0.79822 0.28869 0.0
C2219 C 0.8392 0.76839 0.48771 0.0
C2220 C 0.85136 0.74793 0.4849 0.0
C2221 C 0.84485 0.78697 0.46492 0.0
C2222 C 0.86287 0.78548 0.43905 0.0
C2223 C 0.87518 0.76512 0.43642 0.0
C2224 C 0.86943 0.74649 0.45908 0.0
C2225 C 0.86882 0.80499 0.41433 0.0
C2226 C 0.86663 0.80231 0.37492 0.0
C2227 C 0.87588 0.82621 0.42905 0.0
C2228 C 0.87568 0.83144 0.47044 0.0
C2229 C 0.88533 0.81659 0.49727 0.0
C2230 C 0.88416 0.82148 0.53606 0.0
C2231 C 0.87373 0.84139 0.54848 0.0
C2232 C 0.86436 0.85643 0.52214 0.0
C2233 C 0.86527 0.8515 0.48335 0.0
H2234 H 0.8729 0.84516 0.57853 0.0
H2235 H 0.85175 0.81044 0.20156 0.0
H2236 H 0.37884 0.69485 0.09097 0.0
H2237 H 0.39879 0.68656 0.15019 0.0
H2238 H 0.37985 0.61598 0.13978 0.0
H2239 H 0.35855 0.62487 0.08216 0.0
H2240 H 0.37822 0.62343 0.20724 0.0
H2241 H 0.43933 0.64109 0.11886 0.0
H2242 H 0.46437 0.66236 0.0759 0.0
H2243 H 0.46857 0.71672 0.15685 0.0
H2244 H 0.44398 0.69528 0.20084 0.0
H2245 H 0.47739 0.56651 0.26177 0.0
H2246 H 0.44148 0.58342 0.2428 0.0
H2247 H 0.45978 0.64545 0.29996 0.0
H2248 H 0.4961 0.62861 0.31867 0.0
H2249 H 0.45708 0.65026 0.22448 0.0
H2250 H 0.40817 0.62026 0.31866 0.0
H2251 H 0.3918 0.59109 0.36056 0.0
H2252 H 0.36983 0.55294 0.26355 0.0
H2253 H 0.38621 0.58177 0.22091 0.0
C2254 C 0.3791 0.67762 0.10134 0.0
C2255 C 0.3675 0.66043 0.08189 0.0
C2256 C 0.3906 0.67279 0.13521 0.0
C2257 C 0.39139 0.65048 0.14951 0.0
C2258 C 0.37952 0.63338 0.12989 0.0
C2259 C 0.36746 0.63838 0.09675 0.0
C2260 C 0.40478 0.64459 0.18427 0.0
C2261 C 0.39555 0.62922 0.21078 0.0
C2262 C 0.42706 0.65281 0.19049 0.0
C2263 C 0.43946 0.66686 0.16263 0.0
C2264 C 0.44524 0.65777 0.12711 0.0
C2265 C 0.45951 0.6698 0.10273 0.0
C2266 C 0.46789 0.69106 0.11339 0.0
C2267 C 0.46198 0.70032 0.14852 0.0
C2268 C 0.44794 0.68821 0.17324 0.0
C2269 C 0.47336 0.58342 0.27175 0.0
C2270 C 0.48973 0.59642 0.29097 0.0
C2271 C 0.45267 0.59304 0.26113 0.0
C2272 C 0.44798 0.61582 0.26958 0.0
C2273 C 0.46309 0.62786 0.29306 0.0
C2274 C 0.48383 0.61818 0.30386 0.0
C2275 C 0.4311 0.62817 0.24594 0.0
C2276 C 0.43956 0.64497 0.22165 0.0
C2277 C 0.40855 0.62056 0.24107 0.0
C2278 C 0.39851 0.6032 0.26656 0.0
C2279 C 0.39997 0.60559 0.30622 0.0
C2280 C 0.39067 0.58911 0.33012 0.0
C2281 C 0.37985 0.57014 0.31478 0.0
C2282 C 0.37821 0.56765 0.27543 0.0
C2283 C 0.38744 0.5841 0.25135 0.0
H2284 H 0.3727 0.55739 0.3334 0.0
H2285 H 0.47913 0.70028 0.09466 0.0
H2286 H 0.64754 0.26674 0.97614 0.0
H2287 H 0.65434 0.23517 0.93292 0.0
H2288 H 0.6223 0.27251 0.84207 0.0
H2289 H 0.61553 0.30421 0.88519 0.0
H2290 H 0.63045 0.20764 0.88962 0.0
H2291 H 0.65273 0.26573 0.76071 0.0
H2292 H 0.66764 0.3043 0.74984 0.0
H2293 H 0.70014 0.30311 0.85899 0.0
H2294 H 0.68598 0.26435 0.8701 0.0
H2295 H 0.63006 0.16809 0.69308 0.0
H2296 H 0.63893 0.20107 0.73176 0.0
H2297 H 0.67877 0.15922 0.80697 0.0
H2298 H 0.66961 0.12597 0.76867 0.0
H2299 H 0.67194 0.22584 0.77076 0.0
H2300 H 0.65575 0.16872 0.89921 0.0
H2301 H 0.64221 0.1303 0.91531 0.0
H2302 H 0.60186 0.12911 0.81398 0.0
H2303 H 0.61418 0.16789 0.79811 0.0
C2304 C 0.64126 0.26798 0.94731 0.0
C2305 C 0.63107 0.28805 0.934 0.0
C2306 C 0.64538 0.24998 0.92253 0.0
C2307 C 0.63942 0.25178 0.88406 0.0
C2308 C 0.62761 0.27104 0.87144 0.0
C2309 C 0.62359 0.28908 0.89615 0.0
C2310 C 0.64637 0.23397 0.8568 0.0
C2311 C 0.63987 0.21155 0.86397 0.0
C2312 C 0.65878 0.23913 0.82343 0.0
C2313 C 0.66807 0.26218 0.81636 0.0
C2314 C 0.66322 0.27361 0.78225 0.0
C2315 C 0.67155 0.29552 0.77605 0.0
C2316 C 0.68482 0.30615 0.80372 0.0
C2317 C 0.68989 0.29485 0.83756 0.0
C2318 C 0.68172 0.27291 0.84382 0.0
C2319 C 0.64182 0.16603 0.71648 0.0
C2320 C 0.64842 0.1443 0.72874 0.0
C2321 C 0.64677 0.18498 0.73883 0.0
C2322 C 0.65863 0.18234 0.77313 0.0
C2323 C 0.66904 0.16146 0.78112 0.0
C2324 C 0.66394 0.14248 0.75897 0.0
C2325 C 0.65575 0.19955 0.8034 0.0
C2326 C 0.66289 0.2219 0.79675 0.0
C2327 C 0.64437 0.19426 0.83781 0.0
C2328 C 0.63627 0.17106 0.84711 0.0
C2329 C 0.64386 0.1603 0.88045 0.0
C2330 C 0.63627 0.1385 0.88964 0.0
C2331 C 0.62112 0.12727 0.86565 0.0
C2332 C 0.61343 0.13788 0.83259 0.0
C2333 C 0.62067 0.1598 0.82352 0.0
H2334 H 0.61533 0.11036 0.87267 0.0
H2335 H 0.69118 0.32314 0.79893 0.0
H2336 H 0.31237 0.24731 0.15345 0.0
H2337 H 0.28068 0.25831 0.19385 0.0
H2338 H 0.24474 0.19758 0.16192 0.0
H2339 H 0.27674 0.18622 0.12147 0.0
H2340 H 0.21793 0.24421 0.17815 0.0
H2341 H 0.27002 0.18779 0.23069 0.0
H2342 H 0.30865 0.17329 0.2425 0.0
H2343 H 0.32532 0.23425 0.30308 0.0
H2344 H 0.2869 0.2493 0.29093 0.0
H2345 H 0.14877 0.24646 0.33996 0.0
H2346 H 0.17402 0.23088 0.29172 0.0
H2347 H 0.22873 0.27231 0.33424 0.0
H2348 H 0.20367 0.28761 0.38323 0.0
H2349 H 0.24464 0.23262 0.31065 0.0
H2350 H 0.19598 0.29009 0.25968 0.0
H2351 H 0.15956 0.30889 0.24552 0.0
H2352 H 0.13812 0.25091 0.18107 0.0
H2353 H 0.17433 0.23163 0.19528 0.0
C2354 C 0.29735 0.23671 0.15379 0.0
C2355 C 0.29711 0.21577 0.13471 0.0
C2356 C 0.27929 0.24302 0.17694 0.0
C2357 C 0.26063 0.22856 0.18127 0.0
C2358 C 0.25907 0.20893 0.15884 0.0
C2359 C 0.27729 0.20252 0.13559 0.0
C2360 C 0.24511 0.23223 0.21364 0.0
C2361 C 0.22347 0.24122 0.20711 0.0
C2362 C 0.25279 0.22903 0.25136 0.0
C2363 C 0.27567 0.21974 0.25962 0.0
C2364 C 0.28198 0.19817 0.24628 0.0
C2365 C 0.30383 0.18985 0.25305 0.0
C2366 C 0.31944 0.20286 0.27347 0.0
C2367 C 0.31321 0.22419 0.28725 0.0
C2368 C 0.2914 0.23262 0.28044 0.0
C2369 C 0.16633 0.25188 0.33964 0.0
C2370 C 0.17413 0.26852 0.36512 0.0
C2371 C 0.1807 0.24306 0.31185 0.0
C2372 C 0.20307 0.25093 0.30864 0.0
C2373 C 0.21145 0.26615 0.33596 0.0
C2374 C 0.19711 0.27484 0.36408 0.0
C2375 C 0.21718 0.24449 0.27542 0.0
C2376 C 0.23875 0.23519 0.28177 0.0
C2377 C 0.20953 0.24776 0.23755 0.0
C2378 C 0.18776 0.25932 0.22888 0.0
C2379 C 0.18343 0.28128 0.24273 0.0
C2380 C 0.16284 0.29203 0.23466 0.0
C2381 C 0.14651 0.28107 0.2125 0.0
C2382 C 0.15077 0.25936 0.19829 0.0
C2383 C 0.17133 0.24851 0.20632 0.0
H2384 H 0.13058 0.28943 0.20627 0.0
H2385 H 0.33635 0.19639 0.27867 0.0
H2386 H 0.50029 0.56178 0.36016 0.0
H2387 H 0.4746 0.53984 0.40121 0.0
H2388 H 0.51104 0.56327 0.49999 0.0
H2389 H 0.53661 0.58484 0.45934 0.0
H2390 H 0.513 0.51707 0.48997 0.0
H2391 H 0.45759 0.5761 0.49343 0.0
H2392 H 0.43079 0.60445 0.46818 0.0
H2393 H 0.39326 0.55179 0.41208 0.0
H2394 H 0.42002 0.52309 0.43674 0.0
H2395 H 0.45532 0.45881 0.63701 0.0
H2396 H 0.46906 0.49033 0.59774 0.0
H2397 H 0.43451 0.46247 0.50038 0.0
H2398 H 0.42099 0.43085 0.53907 0.0
H2399 H 0.42984 0.51114 0.50885 0.0
H2400 H 0.48667 0.45249 0.5042 0.0
H2401 H 0.51315 0.42447 0.53147 0.0
H2402 H 0.54842 0.47763 0.59028 0.0
H2403 H 0.5219 0.50595 0.56377 0.0
C2404 C 0.50208 0.563 0.3907 0.0
C2405 C 0.52044 0.57475 0.40676 0.0
C2406 C 0.4875 0.55042 0.41411 0.0
C2407 C 0.49117 0.54974 0.45358 0.0
C2408 C 0.50805 0.56345 0.46962 0.0
C2409 C 0.52258 0.5758 0.4464 0.0
C2410 C 0.48046 0.53206 0.4774 0.0
C2411 C 0.49483 0.51603 0.49453 0.0
C2412 C 0.45675 0.53029 0.48234 0.0
C2413 C 0.44095 0.54747 0.46662 0.0
C2414 C 0.44379 0.57058 0.47534 0.0
C2415 C 0.42856 0.5867 0.46126 0.0
C2416 C 0.41034 0.57992 0.43858 0.0
C2417 C 0.40738 0.557 0.42972 0.0
C2418 C 0.42256 0.5408 0.44377 0.0
C2419 C 0.45064 0.45943 0.60727 0.0
C2420 C 0.43731 0.44222 0.59104 0.0
C2421 C 0.4584 0.47745 0.58495 0.0
C2422 C 0.45274 0.47866 0.54624 0.0
C2423 C 0.43894 0.46186 0.53024 0.0
C2424 C 0.43145 0.44371 0.55235 0.0
C2425 C 0.46248 0.49659 0.52185 0.0
C2426 C 0.448 0.51239 0.50433 0.0
C2427 C 0.48615 0.49826 0.51646 0.0
C2428 C 0.50214 0.48129 0.53238 0.0
C2429 C 0.49993 0.45817 0.52324 0.0
C2430 C 0.51498 0.44225 0.5385 0.0
C2431 C 0.53242 0.44926 0.56269 0.0
C2432 C 0.53488 0.47222 0.57159 0.0
C2433 C 0.51985 0.48822 0.55645 0.0
H2434 H 0.54405 0.4369 0.57447 0.0
H2435 H 0.39845 0.59243 0.42809 0.0
H2436 H 0.17347 0.7592 0.69607 0.0
H2437 H 0.20422 0.74312 0.73358 0.0
H2438 H 0.25239 0.76289 0.64764 0.0
H2439 H 0.22141 0.7792 0.60945 0.0
H2440 H 0.26085 0.71898 0.68255 0.0
H2441 H 0.24808 0.79639 0.71825 0.0
H2442 H 0.22473 0.82937 0.7363 0.0
H2443 H 0.20195 0.79415 0.836 0.0
H2444 H 0.22489 0.76081 0.81823 0.0
H2445 H 0.35171 0.70357 0.81321 0.0
H2446 H 0.32642 0.72064 0.76621 0.0
H2447 H 0.27069 0.7158 0.84513 0.0
H2448 H 0.29601 0.69925 0.89268 0.0
H2449 H 0.26927 0.75496 0.80923 0.0
H2450 H 0.27889 0.67678 0.77175 0.0
H2451 H 0.30076 0.6428 0.75365 0.0
H2452 H 0.32845 0.67845 0.65795 0.0
H2453 H 0.30694 0.71275 0.67577 0.0
C2454 C 0.19054 0.75986 0.68472 0.0
C2455 C 0.19506 0.77075 0.64999 0.0
C2456 C 0.20809 0.75067 0.70626 0.0
C2457 C 0.23057 0.75224 0.69371 0.0
C2458 C 0.2351 0.76165 0.65785 0.0
C2459 C 0.21742 0.7709 0.63607 0.0
C2460 C 0.24917 0.74548 0.71968 0.0
C2461 C 0.26304 0.72708 0.70997 0.0
C2462 C 0.25168 0.75587 0.75567 0.0
C2463 C 0.2381 0.77603 0.76676 0.0
C2464 C 0.23797 0.79561 0.74389 0.0
C2465 C 0.22482 0.81438 0.75409 0.0
C2466 C 0.21183 0.81384 0.78724 0.0
C2467 C 0.21201 0.79455 0.81032 0.0
C2468 C 0.22511 0.77571 0.80022 0.0
C2469 C 0.3341 0.70628 0.8207 0.0
C2470 C 0.32583 0.69992 0.85664 0.0
C2471 C 0.31964 0.71594 0.79368 0.0
C2472 C 0.29656 0.71911 0.80185 0.0
C2473 C 0.28842 0.71344 0.83813 0.0
C2474 C 0.30292 0.70396 0.86529 0.0
C2475 C 0.28074 0.72806 0.77259 0.0
C2476 C 0.26735 0.74696 0.78167 0.0
C2477 C 0.27864 0.71803 0.73614 0.0
C2478 C 0.29149 0.6974 0.72532 0.0
C2479 C 0.28977 0.67742 0.74701 0.0
C2480 C 0.30208 0.6581 0.73677 0.0
C2481 C 0.31604 0.65849 0.70473 0.0
C2482 C 0.31766 0.67819 0.68279 0.0
C2483 C 0.3054 0.69757 0.69293 0.0
H2484 H 0.32555 0.64351 0.69685 0.0
H2485 H 0.20166 0.82839 0.79508 0.0
H2486 H 0.06628 0.53859 0.10977 0.0
H2487 H 0.05223 0.51049 0.06512 0.0
H2488 H 0.06425 0.55668 0.97226 0.0
H2489 H 0.07807 0.58522 0.01693 0.0
H2490 H 0.02246 0.53823 0.96864 0.0
H2491 H 0.09817 0.51051 0.98466 0.0
H2492 H 0.13181 0.49833 0.02103 0.0
H2493 H 0.09331 0.44443 0.07171 0.0
H2494 H 0.05934 0.45646 0.03602 0.0
H2495 H 0.98548 0.45518 0.83834 0.0
H2496 H 0.01167 0.48169 0.86867 0.0
H2497 H 0.00853 0.44272 0.97229 0.0
H2498 H 0.98307 0.41577 0.94194 0.0
H2499 H 0.04995 0.45873 0.96307 0.0
H2500 H 0.97384 0.48929 0.95648 0.0
H2501 H 0.93892 0.50144 0.92356 0.0
H2502 H 0.97708 0.54996 0.85882 0.0
H2503 H 0.01229 0.53787 0.89105 0.0
C2504 C 0.06608 0.5429 0.07997 0.0
C2505 C 0.07325 0.56433 0.06714 0.0
C2506 C 0.05818 0.52665 0.05433 0.0
C2507 C 0.05742 0.53139 0.01529 0.0
C2508 C 0.06477 0.55264 0.00227 0.0
C2509 C 0.0727 0.56891 0.02789 0.0
C2510 C 0.04772 0.5146 0.98846 0.0
C2511 C 0.02879 0.52098 0.96677 0.0
C2512 C 0.05567 0.49196 0.98669 0.0
C2513 C 0.07616 0.48448 0.00781 0.0
C2514 C 0.09683 0.49614 0.00372 0.0
C2515 C 0.11597 0.48925 0.0242 0.0
C2516 C 0.11469 0.47064 0.04872 0.0
C2517 C 0.09428 0.45884 0.05271 0.0
C2518 C 0.07509 0.46566 0.03231 0.0
C2519 C 0.99071 0.45194 0.86729 0.0
C2520 C 0.98194 0.43343 0.88778 0.0
C2521 C 0.00561 0.46722 0.88469 0.0
C2522 C 0.0117 0.46445 0.92301 0.0
C2523 C 0.00403 0.44527 0.94275 0.0
C2524 C 0.98935 0.4299 0.92533 0.0
C2525 C 0.02449 0.48229 0.94372 0.0
C2526 C 0.04392 0.4761 0.96436 0.0
C2527 C 0.01687 0.50507 0.94491 0.0
C2528 C 0.99571 0.51249 0.92581 0.0
C2529 C 0.97479 0.50245 0.93504 0.0
C2530 C 0.95495 0.50933 0.91653 0.0
C2531 C 0.95579 0.52641 0.88902 0.0
C2532 C 0.97647 0.5367 0.88007 0.0
C2533 C 0.99636 0.52984 0.89845 0.0
H2534 H 0.94042 0.53171 0.87471 0.0
H2535 H 0.12951 0.46535 0.06458 0.0
H2536 H 0.6466 0.79053 0.79075 0.0
H2537 H 0.67325 0.7761 0.74366 0.0
H2538 H 0.72692 0.77764 0.82705 0.0
H2539 H 0.70044 0.7926 0.87423 0.0
H2540 H 0.74052 0.79608 0.76181 0.0
H2541 H 0.70175 0.72755 0.79876 0.0
H2542 H 0.66839 0.70319 0.80976 0.0
H2543 H 0.64999 0.70874 0.69208 0.0
H2544 H 0.68311 0.73339 0.68048 0.0
H2545 H 0.82286 0.72397 0.68546 0.0
H2546 H 0.79332 0.74287 0.72155 0.0
H2547 H 0.74863 0.74001 0.62455 0.0
H2548 H 0.77832 0.7206 0.58792 0.0
H2549 H 0.72834 0.72481 0.68975 0.0
H2550 H 0.7701 0.79036 0.65215 0.0
H2551 H 0.80427 0.81369 0.64211 0.0
H2552 H 0.81776 0.8131 0.76196 0.0
H2553 H 0.78385 0.78948 0.7727 0.0
C2554 C 0.66403 0.78761 0.79924 0.0
C2555 C 0.67141 0.79271 0.83626 0.0
C2556 C 0.67923 0.77931 0.77225 0.0
C2557 C 0.70203 0.77566 0.7819 0.0
C2558 C 0.70939 0.7804 0.819 0.0
C2559 C 0.69422 0.78884 0.84597 0.0
C2560 C 0.7184 0.76747 0.75309 0.0
C2561 C 0.73798 0.78039 0.74631 0.0
C2562 C 0.71464 0.74741 0.73193 0.0
C2563 C 0.69477 0.73251 0.73884 0.0
C2564 C 0.69049 0.72372 0.77529 0.0
C2565 C 0.67165 0.70984 0.78162 0.0
C2566 C 0.65704 0.70448 0.75166 0.0
C2567 C 0.6613 0.71294 0.71528 0.0
C2568 C 0.68011 0.72685 0.7088 0.0
C2569 C 0.80686 0.72753 0.67151 0.0
C2570 C 0.8029 0.72071 0.63382 0.0
C2571 C 0.79001 0.73848 0.69219 0.0
C2572 C 0.76887 0.74304 0.67563 0.0
C2573 C 0.76491 0.73669 0.63775 0.0
C2574 C 0.78188 0.72572 0.61686 0.0
C2575 C 0.75068 0.75318 0.69909 0.0
C2576 C 0.73074 0.74067 0.70487 0.0
C2577 C 0.75415 0.77357 0.71948 0.0
C2578 C 0.77446 0.78802 0.7132 0.0
C2579 C 0.78042 0.79508 0.67636 0.0
C2580 C 0.79974 0.80838 0.67054 0.0
C2581 C 0.8132 0.81485 0.70137 0.0
C2582 C 0.80732 0.80808 0.7381 0.0
C2583 C 0.78802 0.79476 0.74408 0.0
H2584 H 0.82816 0.82513 0.69681 0.0
H2585 H 0.64246 0.69373 0.75662 0.0
H2586 H 0.71724 0.30394 0.07843 0.0
H2587 H 0.75362 0.29371 0.10866 0.0
H2588 H 0.71826 0.2788 0.21306 0.0
H2589 H 0.68264 0.28936 0.1838 0.0
H2590 H 0.75696 0.29862 0.22848 0.0
H2591 H 0.73082 0.23721 0.14469 0.0
H2592 H 0.72098 0.22155 0.08183 0.0
H2593 H 0.78748 0.23809 0.04054 0.0
H2594 H 0.7976 0.25407 0.10312 0.0
H2595 H 0.80398 0.21159 0.33488 0.0
H2596 H 0.77993 0.23257 0.291 0.0
H2597 H 0.836 0.23966 0.21335 0.0
H2598 H 0.86026 0.2183 0.25693 0.0
H2599 H 0.79551 0.23055 0.17652 0.0
H2600 H 0.82326 0.2834 0.26849 0.0
H2601 H 0.83176 0.29688 0.33324 0.0
H2602 H 0.76083 0.29538 0.3608 0.0
H2603 H 0.75193 0.28156 0.2964 0.0
C2604 C 0.71746 0.29897 0.10804 0.0
C2605 C 0.69714 0.29716 0.12865 0.0
C2606 C 0.73815 0.29299 0.12518 0.0
C2607 C 0.7386 0.28521 0.16301 0.0
C2608 C 0.71841 0.28473 0.18391 0.0
C2609 C 0.69798 0.29061 0.16698 0.0
C2610 C 0.75933 0.27576 0.18095 0.0
C2611 C 0.7655 0.28383 0.21699 0.0
C2612 C 0.77088 0.2568 0.16565 0.0
C2613 C 0.76485 0.24706 0.1283 0.0
C2614 C 0.74327 0.23761 0.1221 0.0
C2615 C 0.73766 0.22867 0.08656 0.0
C2616 C 0.75357 0.2289 0.05716 0.0
C2617 C 0.77516 0.23799 0.0633 0.0
C2618 C 0.78084 0.24698 0.09878 0.0
C2619 C 0.81123 0.21727 0.30837 0.0
C2620 C 0.83417 0.21337 0.29973 0.0
C2621 C 0.79745 0.22942 0.28335 0.0
C2622 C 0.80636 0.23809 0.24934 0.0
C2623 C 0.82888 0.23328 0.23963 0.0
C2624 C 0.8427 0.22108 0.26464 0.0
C2625 C 0.79217 0.25275 0.22475 0.0
C2626 C 0.78743 0.24572 0.18755 0.0
C2627 C 0.78172 0.27255 0.23915 0.0
C2628 C 0.78695 0.28137 0.27764 0.0
C2629 C 0.80948 0.28586 0.28841 0.0
C2630 C 0.81437 0.29356 0.32505 0.0
C2631 C 0.79685 0.29696 0.35113 0.0
C2632 C 0.77439 0.29274 0.34057 0.0
C2633 C 0.76941 0.28502 0.30397 0.0
H2634 H 0.80067 0.30289 0.3795 0.0
H2635 H 0.74919 0.22198 0.02966 0.0
H2636 H 0.03636 0.04478 0.84397 0.0
H2637 H 0.01832 0.01534 0.88266 0.0
H2638 H 0.0223 0.0588 0.98092 0.0
H2639 H 0.04036 0.08821 0.94266 0.0
H2640 H 0.03299 0.01439 0.99763 0.0
H2641 H 0.97423 0.0561 0.93211 0.0
H2642 H 0.95511 0.07167 0.87547 0.0
H2643 H 0.94662 0.00439 0.83099 0.0
H2644 H 0.96601 0.98845 0.88716 0.0
H2645 H 0.95224 0.96314 0.11888 0.0
H2646 H 0.97228 0.99054 0.0792 0.0
H2647 H 0.96091 0.94836 0.98099 0.0
H2648 H 0.94046 0.92116 0.02012 0.0
H2649 H 0.95482 0.99109 0.9627 0.0
H2650 H 0.01238 0.94892 0.02816 0.0
H2651 H 0.03222 0.93288 0.08372 0.0
H2652 H 0.04391 -5e-05 0.12703 0.0
H2653 H 0.02383 0.01638 0.07197 0.0
C2654 C 0.03373 0.04793 0.87392 0.0
C2655 C 0.03963 0.0689 0.89021 0.0
C2656 C 0.0233 0.03115 0.89593 0.0
C2657 C 0.01873 0.03504 0.93452 0.0
C2658 C 0.02561 0.0555 0.95117 0.0
C2659 C 0.03585 0.07231 0.9292 0.0
C2660 C 0.0058 0.01836 0.95735 0.0
C2661 C 0.01582 0.00942 0.99023 0.0
C2662 C 0.9836 0.01157 0.94719 0.0
C2663 C 0.97178 0.02111 0.91361 0.0
C2664 C 0.96844 0.04464 0.91011 0.0
C2665 C 0.95753 0.05353 0.87812 0.0
C2666 C 0.94971 0.03903 0.84959 0.0
C2667 C 0.95272 0.01561 0.85307 0.0
C2668 C 0.96366 0.00663 0.88498 0.0
C2669 C 0.9538 0.95971 0.08886 0.0
C2670 C 0.94481 0.93977 0.0729 0.0
C2671 C 0.96542 0.97537 0.06619 0.0
C2672 C 0.96848 0.9713 0.0272 0.0
C2673 C 0.95886 0.95184 0.011 0.0
C2674 C 0.94717 0.93626 0.03354 0.0
C2675 C 0.98194 0.98711 0.00327 0.0
C2676 C 0.97202 0.99593 0.97013 0.0
C2677 C 0.0043 0.99369 0.01309 0.0
C2678 C 0.01639 0.98386 0.04618 0.0
C2679 C 0.01901 0.96024 0.0497 0.0
C2680 C 0.03033 0.95108 0.08107 0.0
C2681 C 0.03926 0.96539 0.10895 0.0
C2682 C 0.03695 0.98889 0.10545 0.0
C2683 C 0.02561 0.99813 0.07417 0.0
H2684 H 0.04802 0.95826 0.13321 0.0
H2685 H 0.94127 0.04595 0.82484 0.0
H2686 H 0.54159 0.04933 0.63479 0.0
H2687 H 0.52039 0.02153 0.59709 0.0
H2688 H 0.55697 0.04224 0.49666 0.0
H2689 H 0.57723 0.07068 0.53396 0.0
H2690 H 0.51334 0.0435 0.48359 0.0
H2691 H 0.56404 0.98902 0.54352 0.0
H2692 H 0.58174 0.97075 0.59923 0.0
H2693 H 0.51615 0.95026 0.63955 0.0
H2694 H 0.49802 0.96881 0.58456 0.0
H2695 H 0.4776 0.95212 0.36044 0.0
H2696 H 0.49645 0.98226 0.39682 0.0
H2697 H 0.4572 0.9642 0.4957 0.0
H2698 H 0.43855 0.93422 0.45975 0.0
H2699 H 0.50156 0.96176 0.50985 0.0
H2700 H 0.45017 0.01388 0.45475 0.0
H2701 H 0.42907 0.03466 0.40531 0.0
H2702 H 0.49147 0.06142 0.3613 0.0
H2703 H 0.51305 0.04022 0.40976 0.0
C2704 C 0.54557 0.04733 0.60495 0.0
C2705 C 0.56098 0.06198 0.58713 0.0
C2706 C 0.53342 0.03154 0.58335 0.0
C2707 C 0.53704 0.02983 0.54394 0.0
C2708 C 0.55373 0.04338 0.52689 0.0
C2709 C 0.56547 0.05943 0.54824 0.0
C2710 C 0.52236 0.01536 0.51977 0.0
C2711 C 0.51109 0.02551 0.48887 0.0
C2712 C 0.51862 0.99216 0.52769 0.0
C2713 C 0.52968 0.98045 0.56007 0.0
C2714 C 0.5534 0.9807 0.56436 0.0
C2715 C 0.5635 0.97031 0.59582 0.0
C2716 C 0.55005 0.95939 0.62291 0.0
C2717 C 0.52652 0.95875 0.61855 0.0
C2718 C 0.51633 0.96919 0.58725 0.0
C2719 C 0.47247 0.95517 0.38952 0.0
C2720 C 0.45686 0.94075 0.4075 0.0
C2721 C 0.48329 0.9723 0.41032 0.0
C2722 C 0.47843 0.97519 0.44911 0.0
C2723 C 0.4614 0.96205 0.46597 0.0
C2724 C 0.45071 0.94499 0.44536 0.0
C2725 C 0.49279 0.98983 0.47338 0.0
C2726 C 0.50397 0.97971 0.50431 0.0
C2727 C 0.49611 0.01312 0.46584 0.0
C2728 C 0.48328 0.02521 0.43568 0.0
C2729 C 0.45945 0.02388 0.43416 0.0
C2730 C 0.44739 0.0358 0.40638 0.0
C2731 C 0.45891 0.04938 0.38026 0.0
C2732 C 0.48256 0.05091 0.38162 0.0
C2733 C 0.49473 0.03889 0.40916 0.0
H2734 H 0.44951 0.05872 0.35893 0.0
H2735 H 0.55781 0.95136 0.64726 0.0
loop_
_geom_bond_atom_site_label_1
_geom_bond_atom_site_label_2
_geom_bond_distance
_geom_bond_site_symmetry_2
_ccdc_geom_bond_type
Zn0 O6 1.920 . S
Zn0 O12 1.898 . S
Zn0 O15 1.905 . S
Zn1 O9 1.905 . S
Zn1 O10 1.898 . S
Zn1 O18 1.920 . S
Zn2 O5 2.080 . S
Zn2 O8 2.114 . S
Zn2 O11 2.120 . S
Zn2 O13 2.120 . S
Zn2 O14 2.114 . S
Zn2 O17 2.080 . S
C3 O8 1.166 1_556 S
C3 O9 1.182 . S
C4 O10 1.167 . S
C4 O11 1.299 1_556 S
O5 Zn2 2.080 . S
O5 C19 1.305 . S
O6 Zn0 1.920 . S
O6 C19 1.234 . S
C7 O12 1.167 . S
C7 O13 1.299 . S
O8 Zn2 2.114 . S
O8 C3 1.166 1_554 S
O9 Zn1 1.905 . S
O9 C3 1.182 . S
O10 Zn1 1.898 . S
O10 C4 1.167 . S
O11 Zn2 2.120 . S
O11 C4 1.299 1_554 S
O12 Zn0 1.898 . S
O12 C7 1.167 . S
O13 Zn2 2.120 . S
O13 C7 1.299 . S
O14 Zn2 2.114 . S
O14 C16 1.166 . S
O15 Zn0 1.905 . S
O15 C16 1.182 . S
C16 O14 1.166 . S
C16 O15 1.182 . S
O17 Zn2 2.080 . S
O17 C20 1.305 . S
O18 Zn1 1.920 . S
O18 C20 1.234 1_556 S
C19 O5 1.305 . S
C19 O6 1.234 . S
C20 O17 1.305 . S
C20 O18 1.234 1_554 S
Zn21 O27 1.920 . S
Zn21 O33 1.898 . S
Zn21 O36 1.905 . S
Zn22 O30 1.905 . S
Zn22 O31 1.898 . S
Zn22 O39 1.920 . S
Zn23 O26 2.080 . S
Zn23 O29 2.114 . S
Zn23 O32 2.120 . S
Zn23 O34 2.120 . S
Zn23 O35 2.114 . S
Zn23 O38 2.080 . S
C24 O29 1.166 . S
C24 O30 1.182 . S
C25 O31 1.167 . S
C25 O32 1.299 . S
O26 Zn23 2.080 . S
O26 C40 1.305 . S
O27 Zn21 1.920 . S
O27 C40 1.234 . S
C28 O33 1.167 . S
C28 O34 1.299 . S
O29 Zn23 2.114 . S
O29 C24 1.166 . S
O30 Zn22 1.905 . S
O30 C24 1.182 . S
O31 Zn22 1.898 . S
O31 C25 1.167 . S
O32 Zn23 2.120 . S
O32 C25 1.299 . S
O33 Zn21 1.898 . S
O33 C28 1.167 . S
O34 Zn23 2.120 . S
O34 C28 1.299 . S
O35 Zn23 2.114 . S
O35 C37 1.166 . S
O36 Zn21 1.905 . S
O36 C37 1.182 . S
C37 O35 1.166 . S
C37 O36 1.182 . S
O38 Zn23 2.080 . S
O38 C41 1.305 . S
O39 Zn22 1.920 . S
O39 C41 1.234 . S
C40 O26 1.305 . S
C40 O27 1.234 . S
C41 O38 1.305 . S
C41 O39 1.234 . S
Zn42 O48 1.920 . S
Zn42 O54 1.898 . S
Zn42 O57 1.905 . S
Zn43 O51 1.905 . S
Zn43 O52 1.898 . S
Zn43 O60 1.920 . S
Zn44 O47 2.080 . S
Zn44 O50 2.114 . S
Zn44 O53 2.120 . S
Zn44 O55 2.120 . S
Zn44 O56 2.114 . S
Zn44 O59 2.080 . S
C45 O50 1.166 . S
C45 O51 1.182 . S
C46 O52 1.167 . S
C46 O53 1.299 . S
O47 Zn44 2.080 . S
O47 C61 1.305 . S
O48 Zn42 1.920 . S
O48 C61 1.234 . S
C49 O54 1.167 . S
C49 O55 1.299 . S
O50 Zn44 2.114 . S
O50 C45 1.166 . S
O51 Zn43 1.905 . S
O51 C45 1.182 . S
O52 Zn43 1.898 . S
O52 C46 1.167 . S
O53 Zn44 2.120 . S
O53 C46 1.299 . S
O54 Zn42 1.898 . S
O54 C49 1.167 . S
O55 Zn44 2.120 . S
O55 C49 1.299 . S
O56 Zn44 2.114 . S
O56 C58 1.166 . S
O57 Zn42 1.905 . S
O57 C58 1.182 . S
C58 O56 1.166 . S
C58 O57 1.182 . S
O59 Zn44 2.080 . S
O59 C62 1.305 . S
O60 Zn43 1.920 . S
O60 C62 1.234 . S
C61 O47 1.305 . S
C61 O48 1.234 . S
C62 O59 1.305 . S
C62 O60 1.234 . S
Zn63 O69 1.920 . S
Zn63 O75 1.898 . S
Zn63 O78 1.905 . S
Zn64 O72 1.905 . S
Zn64 O73 1.898 . S
Zn64 O81 1.920 . S
Zn65 O68 2.080 . S
Zn65 O71 2.114 . S
Zn65 O74 2.120 . S
Zn65 O76 2.120 . S
Zn65 O77 2.114 . S
Zn65 O80 2.080 . S
C66 O71 1.166 . S
C66 O72 1.182 . S
C67 O73 1.167 . S
C67 O74 1.299 . S
O68 Zn65 2.080 . S
O68 C82 1.305 . S
O69 Zn63 1.920 . S
O69 C82 1.234 . S
C70 O75 1.167 . S
C70 O76 1.299 . S
O71 Zn65 2.114 . S
O71 C66 1.166 . S
O72 Zn64 1.905 . S
O72 C66 1.182 . S
O73 Zn64 1.898 . S
O73 C67 1.167 . S
O74 Zn65 2.120 . S
O74 C67 1.299 . S
O75 Zn63 1.898 . S
O75 C70 1.167 . S
O76 Zn65 2.120 . S
O76 C70 1.299 . S
O77 Zn65 2.114 . S
O77 C79 1.166 . S
O78 Zn63 1.905 . S
O78 C79 1.182 . S
C79 O77 1.166 . S
C79 O78 1.182 . S
O80 Zn65 2.080 . S
O80 C83 1.305 . S
O81 Zn64 1.920 . S
O81 C83 1.234 . S
C82 O68 1.305 . S
C82 O69 1.234 . S
C83 O80 1.305 . S
C83 O81 1.234 . S
Zn84 O90 1.920 . S
Zn84 O96 1.898 . S
Zn84 O99 1.905 . S
Zn85 O93 1.905 . S
Zn85 O94 1.898 . S
Zn85 O102 1.920 . S
Zn86 O89 2.080 . S
Zn86 O92 2.114 . S
Zn86 O95 2.120 . S
Zn86 O97 2.120 . S
Zn86 O98 2.114 . S
Zn86 O101 2.080 . S
C87 O92 1.166 . S
C87 O93 1.182 . S
C88 O94 1.167 . S
C88 O95 1.299 . S
O89 Zn86 2.080 . S
O89 C103 1.305 . S
O90 Zn84 1.920 . S
O90 C103 1.234 1_554 S
C91 O96 1.167 . S
C91 O97 1.299 1_554 S
O92 Zn86 2.114 . S
O92 C87 1.166 . S
O93 Zn85 1.905 . S
O93 C87 1.182 . S
O94 Zn85 1.898 . S
O94 C88 1.167 . S
O95 Zn86 2.120 . S
O95 C88 1.299 . S
O96 Zn84 1.898 . S
O96 C91 1.167 . S
O97 Zn86 2.120 . S
O97 C91 1.299 1_556 S
O98 Zn86 2.114 . S
O98 C100 1.166 1_556 S
O99 Zn84 1.905 . S
O99 C100 1.182 . S
C100 O98 1.166 1_554 S
C100 O99 1.182 . S
O101 Zn86 2.080 . S
O101 C104 1.305 . S
O102 Zn85 1.920 . S
O102 C104 1.234 . S
C103 O89 1.305 . S
C103 O90 1.234 1_556 S
C104 O101 1.305 . S
C104 O102 1.234 . S
Zn105 O111 1.920 . S
Zn105 O117 1.898 . S
Zn105 O120 1.905 . S
Zn106 O114 1.905 . S
Zn106 O115 1.898 . S
Zn106 O123 1.920 . S
Zn107 O110 2.080 . S
Zn107 O113 2.114 . S
Zn107 O116 2.120 . S
Zn107 O118 2.120 . S
Zn107 O119 2.114 . S
Zn107 O122 2.080 . S
C108 O113 1.166 . S
C108 O114 1.182 . S
C109 O115 1.167 . S
C109 O116 1.299 . S
O110 Zn107 2.080 . S
O110 C124 1.305 . S
O111 Zn105 1.920 . S
O111 C124 1.234 . S
C112 O117 1.167 . S
C112 O118 1.299 . S
O113 Zn107 2.114 . S
O113 C108 1.166 . S
O114 Zn106 1.905 . S
O114 C108 1.182 . S
O115 Zn106 1.898 . S
O115 C109 1.167 . S
O116 Zn107 2.120 . S
O116 C109 1.299 . S
O117 Zn105 1.898 . S
O117 C112 1.167 . S
O118 Zn107 2.120 . S
O118 C112 1.299 . S
O119 Zn107 2.114 . S
O119 C121 1.166 . S
O120 Zn105 1.905 . S
O120 C121 1.182 . S
C121 O119 1.166 . S
C121 O120 1.182 . S
O122 Zn107 2.080 . S
O122 C125 1.305 . S
O123 Zn106 1.920 . S
O123 C125 1.234 . S
C124 O110 1.305 . S
C124 O111 1.234 . S
C125 O122 1.305 . S
C125 O123 1.234 . S
Zn126 O132 1.920 . S
Zn126 O138 1.898 . S
Zn126 O141 1.905 . S
Zn127 O135 1.905 . S
Zn127 O136 1.898 . S
Zn127 O144 1.920 . S
Zn128 O131 2.080 . S
Zn128 O134 2.114 . S
Zn128 O137 2.120 . S
Zn128 O139 2.120 . S
Zn128 O140 2.114 . S
Zn128 O143 2.080 . S
C129 O134 1.166 . S
C129 O135 1.182 . S
C130 O136 1.167 . S
C130 O137 1.299 . S
O131 Zn128 2.080 . S
O131 C145 1.305 . S
O132 Zn126 1.920 . S
O132 C145 1.234 . S
C133 O138 1.167 . S
C133 O139 1.299 . S
O134 Zn128 2.114 . S
O134 C129 1.166 . S
O135 Zn127 1.905 . S
O135 C129 1.182 . S
O136 Zn127 1.898 . S
O136 C130 1.167 . S
O137 Zn128 2.120 . S
O137 C130 1.299 . S
O138 Zn126 1.898 . S
O138 C133 1.167 . S
O139 Zn128 2.120 . S
O139 C133 1.299 . S
O140 Zn128 2.114 . S
O140 C142 1.166 . S
O141 Zn126 1.905 . S
O141 C142 1.182 . S
C142 O140 1.166 . S
C142 O141 1.182 . S
O143 Zn128 2.080 . S
O143 C146 1.305 . S
O144 Zn127 1.920 . S
O144 C146 1.234 . S
C145 O131 1.305 . S
C145 O132 1.234 . S
C146 O143 1.305 . S
C146 O144 1.234 . S
Zn147 O153 1.920 . S
Zn147 O159 1.898 . S
Zn147 O162 1.905 . S
Zn148 O156 1.905 . S
Zn148 O157 1.898 . S
Zn148 O165 1.920 . S
Zn149 O152 2.080 . S
Zn149 O155 2.114 . S
Zn149 O158 2.120 . S
Zn149 O160 2.120 . S
Zn149 O161 2.114 . S
Zn149 O164 2.080 . S
C150 O155 1.166 . S
C150 O156 1.182 . S
C151 O157 1.167 . S
C151 O158 1.299 . S
O152 Zn149 2.080 . S
O152 C166 1.305 . S
O153 Zn147 1.920 . S
O153 C166 1.234 . S
C154 O159 1.167 . S
C154 O160 1.299 . S
O155 Zn149 2.114 . S
O155 C150 1.166 . S
O156 Zn148 1.905 . S
O156 C150 1.182 . S
O157 Zn148 1.898 . S
O157 C151 1.167 . S
O158 Zn149 2.120 . S
O158 C151 1.299 . S
O159 Zn147 1.898 . S
O159 C154 1.167 . S
O160 Zn149 2.120 . S
O160 C154 1.299 . S
O161 Zn149 2.114 . S
O161 C163 1.166 . S
O162 Zn147 1.905 . S
O162 C163 1.182 . S
C163 O161 1.166 . S
C163 O162 1.182 . S
O164 Zn149 2.080 . S
O164 C167 1.305 . S
O165 Zn148 1.920 . S
O165 C167 1.234 . S
C166 O152 1.305 . S
C166 O153 1.234 . S
C167 O164 1.305 . S
C167 O165 1.234 . S
Zn168 O174 1.920 . S
Zn168 O180 1.898 . S
Zn168 O183 1.905 . S
Zn169 O177 1.905 . S
Zn169 O178 1.898 . S
Zn169 O186 1.920 . S
Zn170 O173 2.080 . S
Zn170 O176 2.114 . S
Zn170 O179 2.120 . S
Zn170 O181 2.120 . S
Zn170 O182 2.114 . S
Zn170 O185 2.080 . S
C171 O176 1.166 . S
C171 O177 1.182 . S
C172 O178 1.167 . S
C172 O179 1.299 . S
O173 Zn170 2.080 . S
O173 C187 1.305 . S
O174 Zn168 1.920 . S
O174 C187 1.234 . S
C175 O180 1.167 . S
C175 O181 1.299 . S
O176 Zn170 2.114 . S
O176 C171 1.166 . S
O177 Zn169 1.905 . S
O177 C171 1.182 . S
O178 Zn169 1.898 . S
O178 C172 1.167 . S
O179 Zn170 2.120 . S
O179 C172 1.299 . S
O180 Zn168 1.898 . S
O180 C175 1.167 . S
O181 Zn170 2.120 . S
O181 C175 1.299 . S
O182 Zn170 2.114 . S
O182 C184 1.166 . S
O183 Zn168 1.905 . S
O183 C184 1.182 . S
C184 O182 1.166 . S
C184 O183 1.182 . S
O185 Zn170 2.080 . S
O185 C188 1.305 . S
O186 Zn169 1.920 . S
O186 C188 1.234 . S
C187 O173 1.305 . S
C187 O174 1.234 . S
C188 O185 1.305 . S
C188 O186 1.234 . S
Zn189 O195 1.920 . S
Zn189 O201 1.898 . S
Zn189 O204 1.905 . S
Zn190 O198 1.905 . S
Zn190 O199 1.898 . S
Zn190 O207 1.920 . S
Zn191 O194 2.080 . S
Zn191 O197 2.114 . S
Zn191 O200 2.120 . S
Zn191 O202 2.120 . S
Zn191 O203 2.114 . S
Zn191 O206 2.080 . S
C192 O197 1.166 . S
C192 O198 1.182 . S
C193 O199 1.167 . S
C193 O200 1.299 . S
O194 Zn191 2.080 . S
O194 C208 1.305 . S
O195 Zn189 1.920 . S
O195 C208 1.234 . S
C196 O201 1.167 . S
C196 O202 1.299 . S
O197 Zn191 2.114 . S
O197 C192 1.166 . S
O198 Zn190 1.905 . S
O198 C192 1.182 . S
O199 Zn190 1.898 . S
O199 C193 1.167 . S
O200 Zn191 2.120 . S
O200 C193 1.299 . S
O201 Zn189 1.898 . S
O201 C196 1.167 . S
O202 Zn191 2.120 . S
O202 C196 1.299 . S
O203 Zn191 2.114 . S
O203 C205 1.166 . S
O204 Zn189 1.905 . S
O204 C205 1.182 . S
C205 O203 1.166 . S
C205 O204 1.182 . S
O206 Zn191 2.080 . S
O206 C209 1.305 . S
O207 Zn190 1.920 . S
O207 C209 1.234 . S
C208 O194 1.305 . S
C208 O195 1.234 . S
C209 O206 1.305 . S
C209 O207 1.234 . S
Zn210 O216 1.920 . S
Zn210 O222 1.898 . S
Zn210 O225 1.905 . S
Zn211 O219 1.905 . S
Zn211 O220 1.898 . S
Zn211 O228 1.920 . S
Zn212 O215 2.080 . S
Zn212 O218 2.114 . S
Zn212 O221 2.120 . S
Zn212 O223 2.120 . S
Zn212 O224 2.114 . S
Zn212 O227 2.080 . S
C213 O218 1.166 . S
C213 O219 1.182 . S
C214 O220 1.167 . S
C214 O221 1.299 . S
O215 Zn212 2.080 . S
O215 C229 1.305 . S
O216 Zn210 1.920 . S
O216 C229 1.234 1_556 S
C217 O222 1.167 . S
C217 O223 1.299 1_556 S
O218 Zn212 2.114 . S
O218 C213 1.166 . S
O219 Zn211 1.905 . S
O219 C213 1.182 . S
O220 Zn211 1.898 . S
O220 C214 1.167 . S
O221 Zn212 2.120 . S
O221 C214 1.299 . S
O222 Zn210 1.898 . S
O222 C217 1.167 . S
O223 Zn212 2.120 . S
O223 C217 1.299 1_554 S
O224 Zn212 2.114 . S
O224 C226 1.166 1_554 S
O225 Zn210 1.905 . S
O225 C226 1.182 . S
C226 O224 1.166 1_556 S
C226 O225 1.182 . S
O227 Zn212 2.080 . S
O227 C230 1.305 . S
O228 Zn211 1.920 . S
O228 C230 1.234 . S
C229 O215 1.305 . S
C229 O216 1.234 1_554 S
C230 O227 1.305 . S
C230 O228 1.234 . S
Zn231 O237 1.920 . S
Zn231 O243 1.898 . S
Zn231 O246 1.905 . S
Zn232 O240 1.905 . S
Zn232 O241 1.898 . S
Zn232 O249 1.920 . S
Zn233 O236 2.080 . S
Zn233 O239 2.114 . S
Zn233 O242 2.120 . S
Zn233 O244 2.120 . S
Zn233 O245 2.114 . S
Zn233 O248 2.080 . S
C234 O239 1.166 . S
C234 O240 1.182 . S
C235 O241 1.167 . S
C235 O242 1.299 . S
O236 Zn233 2.080 . S
O236 C250 1.305 . S
O237 Zn231 1.920 . S
O237 C250 1.234 . S
C238 O243 1.167 . S
C238 O244 1.299 . S
O239 Zn233 2.114 . S
O239 C234 1.166 . S
O240 Zn232 1.905 . S
O240 C234 1.182 . S
O241 Zn232 1.898 . S
O241 C235 1.167 . S
O242 Zn233 2.120 . S
O242 C235 1.299 . S
O243 Zn231 1.898 . S
O243 C238 1.167 . S
O244 Zn233 2.120 . S
O244 C238 1.299 . S
O245 Zn233 2.114 . S
O245 C247 1.166 . S
O246 Zn231 1.905 . S
O246 C247 1.182 . S
C247 O245 1.166 . S
C247 O246 1.182 . S
O248 Zn233 2.080 . S
O248 C251 1.305 . S
O249 Zn232 1.920 . S
O249 C251 1.234 . S
C250 O236 1.305 . S
C250 O237 1.234 . S
C251 O248 1.305 . S
C251 O249 1.234 . S
Zn252 O258 1.920 . S
Zn252 O264 1.898 . S
Zn252 O267 1.905 . S
Zn253 O261 1.905 . S
Zn253 O262 1.898 . S
Zn253 O270 1.920 . S
Zn254 O257 2.080 . S
Zn254 O260 2.114 . S
Zn254 O263 2.120 . S
Zn254 O265 2.120 . S
Zn254 O266 2.114 . S
Zn254 O269 2.080 . S
C255 O260 1.166 . S
C255 O261 1.182 . S
C256 O262 1.167 . S
C256 O263 1.299 . S
O257 Zn254 2.080 . S
O257 C271 1.305 . S
O258 Zn252 1.920 . S
O258 C271 1.234 . S
C259 O264 1.167 . S
C259 O265 1.299 . S
O260 Zn254 2.114 . S
O260 C255 1.166 . S
O261 Zn253 1.905 . S
O261 C255 1.182 . S
O262 Zn253 1.898 . S
O262 C256 1.167 . S
O263 Zn254 2.120 . S
O263 C256 1.299 . S
O264 Zn252 1.898 . S
O264 C259 1.167 . S
O265 Zn254 2.120 . S
O265 C259 1.299 . S
O266 Zn254 2.114 . S
O266 C268 1.166 . S
O267 Zn252 1.905 . S
O267 C268 1.182 . S
C268 O266 1.166 . S
C268 O267 1.182 . S
O269 Zn254 2.080 . S
O269 C272 1.305 . S
O270 Zn253 1.920 . S
O270 C272 1.234 . S
C271 O257 1.305 . S
C271 O258 1.234 . S
C272 O269 1.305 . S
C272 O270 1.234 . S
Zn273 O279 1.920 . S
Zn273 O285 1.898 . S
Zn273 O288 1.905 . S
Zn274 O282 1.905 . S
Zn274 O283 1.898 . S
Zn274 O291 1.920 . S
Zn275 O278 2.080 . S
Zn275 O281 2.114 . S
Zn275 O284 2.120 . S
Zn275 O286 2.120 . S
Zn275 O287 2.114 . S
Zn275 O290 2.080 . S
C276 O281 1.166 . S
C276 O282 1.182 . S
C277 O283 1.167 . S
C277 O284 1.299 . S
O278 Zn275 2.080 . S
O278 C292 1.305 . S
O279 Zn273 1.920 . S
O279 C292 1.234 . S
C280 O285 1.167 . S
C280 O286 1.299 . S
O281 Zn275 2.114 . S
O281 C276 1.166 . S
O282 Zn274 1.905 . S
O282 C276 1.182 . S
O283 Zn274 1.898 . S
O283 C277 1.167 . S
O284 Zn275 2.120 . S
O284 C277 1.299 . S
O285 Zn273 1.898 . S
O285 C280 1.167 . S
O286 Zn275 2.120 . S
O286 C280 1.299 . S
O287 Zn275 2.114 . S
O287 C289 1.166 . S
O288 Zn273 1.905 . S
O288 C289 1.182 . S
C289 O287 1.166 . S
C289 O288 1.182 . S
O290 Zn275 2.080 . S
O290 C293 1.305 . S
O291 Zn274 1.920 . S
O291 C293 1.234 . S
C292 O278 1.305 . S
C292 O279 1.234 . S
C293 O290 1.305 . S
C293 O291 1.234 . S
Zn294 O300 1.920 . S
Zn294 O306 1.898 . S
Zn294 O309 1.905 . S
Zn295 O303 1.905 . S
Zn295 O304 1.898 . S
Zn295 O312 1.920 . S
Zn296 O299 2.080 . S
Zn296 O302 2.114 . S
Zn296 O305 2.120 . S
Zn296 O307 2.120 . S
Zn296 O308 2.114 . S
Zn296 O311 2.080 . S
C297 O302 1.166 . S
C297 O303 1.182 . S
C298 O304 1.167 . S
C298 O305 1.299 . S
O299 Zn296 2.080 . S
O299 C313 1.305 . S
O300 Zn294 1.920 . S
O300 C313 1.234 1_554 S
C301 O306 1.167 . S
C301 O307 1.299 1_554 S
O302 Zn296 2.114 . S
O302 C297 1.166 . S
O303 Zn295 1.905 . S
O303 C297 1.182 . S
O304 Zn295 1.898 . S
O304 C298 1.167 . S
O305 Zn296 2.120 . S
O305 C298 1.299 . S
O306 Zn294 1.898 . S
O306 C301 1.167 . S
O307 Zn296 2.120 . S
O307 C301 1.299 1_556 S
O308 Zn296 2.114 . S
O308 C310 1.166 1_556 S
O309 Zn294 1.905 . S
O309 C310 1.182 . S
C310 O308 1.166 1_554 S
C310 O309 1.182 . S
O311 Zn296 2.080 . S
O311 C314 1.305 . S
O312 Zn295 1.920 . S
O312 C314 1.234 . S
C313 O299 1.305 . S
C313 O300 1.234 1_556 S
C314 O311 1.305 . S
C314 O312 1.234 . S
Zn315 O321 1.920 . S
Zn315 O327 1.898 . S
Zn315 O330 1.905 . S
Zn316 O324 1.905 . S
Zn316 O325 1.898 . S
Zn316 O333 1.920 . S
Zn317 O320 2.080 . S
Zn317 O323 2.114 . S
Zn317 O326 2.120 . S
Zn317 O328 2.120 . S
Zn317 O329 2.114 . S
Zn317 O332 2.080 . S
C318 O323 1.166 . S
C318 O324 1.182 . S
C319 O325 1.167 . S
C319 O326 1.299 . S
O320 Zn317 2.080 . S
O320 C334 1.305 . S
O321 Zn315 1.920 . S
O321 C334 1.234 . S
C322 O327 1.167 . S
C322 O328 1.299 . S
O323 Zn317 2.114 . S
O323 C318 1.166 . S
O324 Zn316 1.905 . S
O324 C318 1.182 . S
O325 Zn316 1.898 . S
O325 C319 1.167 . S
O326 Zn317 2.120 . S
O326 C319 1.299 . S
O327 Zn315 1.898 . S
O327 C322 1.167 . S
O328 Zn317 2.120 . S
O328 C322 1.299 . S
O329 Zn317 2.114 . S
O329 C331 1.166 . S
O330 Zn315 1.905 . S
O330 C331 1.182 . S
C331 O329 1.166 . S
C331 O330 1.182 . S
O332 Zn317 2.080 . S
O332 C335 1.305 . S
O333 Zn316 1.920 . S
O333 C335 1.234 . S
C334 O320 1.305 . S
C334 O321 1.234 . S
C335 O332 1.305 . S
C335 O333 1.234 . S
H336 C354 0.951 . S
H337 C356 0.951 . S
H338 C358 0.950 . S
H339 C359 0.950 . S
H340 C361 0.950 . S
H341 C364 0.950 . S
H342 C365 0.950 . S
H343 C367 0.950 . S
H344 C368 0.950 . S
H345 C369 0.951 . S
H346 C371 0.951 . S
H347 C373 0.950 . S
H348 C374 0.950 . S
H349 C376 0.950 . S
H350 C379 0.950 . S
H351 C380 0.950 . S
H352 C382 0.950 . S
H353 C383 0.950 . S
C354 H336 0.951 . S
C354 C355 1.366 . S
C354 C356 1.388 . S
C355 C354 1.366 . S
C355 C359 1.385 . S
C356 H337 0.951 . S
C356 C354 1.388 . S
C356 C357 1.366 . S
C357 C356 1.366 . S
C357 C358 1.414 . S
C357 C360 1.499 . S
C358 H338 0.950 . S
C358 C357 1.414 . S
C358 C359 1.374 . S
C359 H339 0.950 . S
C359 C355 1.385 . S
C359 C358 1.374 . S
C360 C357 1.499 . S
C360 C361 1.373 . S
C360 C362 1.389 . S
C361 H340 0.950 . S
C361 C360 1.373 . S
C361 C377 1.377 . S
C362 C360 1.389 . S
C362 C363 1.524 . S
C362 C376 1.377 . S
C363 C362 1.524 . S
C363 C364 1.397 . S
C363 C368 1.363 . S
C364 H341 0.950 . S
C364 C363 1.397 . S
C364 C365 1.334 . S
C365 H342 0.950 . S
C365 C364 1.334 . S
C365 C366 1.287 . S
C366 C365 1.287 . S
C366 C367 1.524 . S
C366 H385 0.913 . S
C367 H343 0.950 . S
C367 C366 1.524 . S
C367 C368 1.415 . S
C368 H344 0.950 . S
C368 C363 1.363 . S
C368 C367 1.415 . S
C369 H345 0.951 . S
C369 C370 1.366 . S
C369 C371 1.388 . S
C370 C369 1.366 . S
C370 C374 1.385 . S
C371 H346 0.951 . S
C371 C369 1.388 . S
C371 C372 1.366 . S
C372 C371 1.366 . S
C372 C373 1.414 . S
C372 C375 1.499 . S
C373 H347 0.950 . S
C373 C372 1.414 . S
C373 C374 1.374 . S
C374 H348 0.950 . S
C374 C370 1.385 . S
C374 C373 1.374 . S
C375 C372 1.499 . S
C375 C376 1.373 . S
C375 C377 1.389 . S
C376 H349 0.950 . S
C376 C362 1.377 . S
C376 C375 1.373 . S
C377 C361 1.377 . S
C377 C375 1.389 . S
C377 C378 1.524 . S
C378 C377 1.524 . S
C378 C379 1.397 . S
C378 C383 1.363 1_554 S
C379 H350 0.950 . S
C379 C378 1.397 . S
C379 C380 1.334 1_554 S
C380 H351 0.950 . S
C380 C379 1.334 1_556 S
C380 C381 1.287 . S
C381 C380 1.287 . S
C381 C382 1.524 . S
C381 H384 0.999 . S
C382 H352 0.950 . S
C382 C381 1.524 . S
C382 C383 1.415 . S
C383 H353 0.950 . S
C383 C378 1.363 1_556 S
C383 C382 1.415 . S
H384 C381 0.999 . S
H385 C366 0.913 . S
H386 C404 0.951 . S
H387 C406 0.951 . S
H388 C408 0.950 . S
H389 C409 0.950 . S
H390 C411 0.950 . S
H391 C414 0.950 . S
H392 C415 0.950 . S
H393 C417 0.950 . S
H394 C418 0.950 . S
H395 C419 0.951 . S
H396 C421 0.951 . S
H397 C423 0.950 . S
H398 C424 0.950 . S
H399 C426 0.950 . S
H400 C429 0.950 . S
H401 C430 0.950 . S
H402 C432 0.950 . S
H403 C433 0.950 . S
C404 H386 0.951 . S
C404 C405 1.366 . S
C404 C406 1.388 . S
C405 C404 1.366 . S
C405 C409 1.385 . S
C406 H387 0.951 . S
C406 C404 1.388 . S
C406 C407 1.366 . S
C407 C406 1.366 . S
C407 C408 1.414 . S
C407 C410 1.499 . S
C408 H388 0.950 . S
C408 C407 1.414 . S
C408 C409 1.374 . S
C409 H389 0.950 . S
C409 C405 1.385 . S
C409 C408 1.374 . S
C410 C407 1.499 . S
C410 C411 1.373 . S
C410 C412 1.389 . S
C411 H390 0.950 . S
C411 C410 1.373 . S
C411 C427 1.377 . S
C412 C410 1.389 . S
C412 C413 1.524 . S
C412 C426 1.377 . S
C413 C412 1.524 . S
C413 C414 1.397 . S
C413 C418 1.363 . S
C414 H391 0.950 . S
C414 C413 1.397 . S
C414 C415 1.334 . S
C415 H392 0.950 . S
C415 C414 1.334 . S
C415 C416 1.287 . S
C416 C415 1.287 . S
C416 C417 1.524 . S
C416 H435 0.913 . S
C417 H393 0.950 . S
C417 C416 1.524 . S
C417 C418 1.415 . S
C418 H394 0.950 . S
C418 C413 1.363 . S
C418 C417 1.415 . S
C419 H395 0.951 . S
C419 C420 1.366 . S
C419 C421 1.388 . S
C420 C419 1.366 . S
C420 C424 1.385 . S
C421 H396 0.951 . S
C421 C419 1.388 . S
C421 C422 1.366 . S
C422 C421 1.366 . S
C422 C423 1.414 . S
C422 C425 1.499 . S
C423 H397 0.950 . S
C423 C422 1.414 . S
C423 C424 1.374 . S
C424 H398 0.950 . S
C424 C420 1.385 . S
C424 C423 1.374 . S
C425 C422 1.499 . S
C425 C426 1.373 . S
C425 C427 1.389 . S
C426 H399 0.950 . S
C426 C412 1.377 . S
C426 C425 1.373 . S
C427 C411 1.377 . S
C427 C425 1.389 . S
C427 C428 1.524 . S
C428 C427 1.524 . S
C428 C429 1.397 . S
C428 C433 1.363 . S
C429 H400 0.950 . S
C429 C428 1.397 . S
C429 C430 1.334 . S
C430 H401 0.950 . S
C430 C429 1.334 . S
C430 C431 1.287 . S
C431 C430 1.287 . S
C431 C432 1.524 . S
C431 H434 0.999 . S
C432 H402 0.950 . S
C432 C431 1.524 . S
C432 C433 1.415 . S
C433 H403 0.950 . S
C433 C428 1.363 . S
C433 C432 1.415 . S
H434 C431 0.999 . S
H435 C416 0.913 . S
H436 C454 0.951 . S
H437 C456 0.951 . S
H438 C458 0.950 . S
H439 C459 0.950 . S
H440 C461 0.950 . S
H441 C464 0.950 . S
H442 C465 0.950 . S
H443 C467 0.950 . S
H444 C468 0.950 . S
H445 C469 0.951 . S
H446 C471 0.951 . S
H447 C473 0.950 . S
H448 C474 0.950 . S
H449 C476 0.950 . S
H450 C479 0.950 . S
H451 C480 0.950 . S
H452 C482 0.950 . S
H453 C483 0.950 . S
C454 H436 0.951 . S
C454 C455 1.366 . S
C454 C456 1.388 . S
C455 C454 1.366 . S
C455 C459 1.385 . S
C456 H437 0.951 . S
C456 C454 1.388 . S
C456 C457 1.366 . S
C457 C456 1.366 . S
C457 C458 1.414 . S
C457 C460 1.499 . S
C458 H438 0.950 . S
C458 C457 1.414 . S
C458 C459 1.374 . S
C459 H439 0.950 . S
C459 C455 1.385 . S
C459 C458 1.374 . S
C460 C457 1.499 . S
C460 C461 1.373 . S
C460 C462 1.389 . S
C461 H440 0.950 . S
C461 C460 1.373 . S
C461 C477 1.377 1_455 S
C462 C460 1.389 . S
C462 C463 1.524 . S
C462 C476 1.377 1_455 S
C463 C462 1.524 . S
C463 C464 1.397 . S
C463 C468 1.363 . S
C464 H441 0.950 . S
C464 C463 1.397 . S
C464 C465 1.334 . S
C465 H442 0.950 . S
C465 C464 1.334 . S
C465 C466 1.287 . S
C466 C465 1.287 . S
C466 C467 1.524 . S
C466 H485 0.913 . S
C467 H443 0.950 . S
C467 C466 1.524 . S
C467 C468 1.415 . S
C468 H444 0.950 . S
C468 C463 1.363 . S
C468 C467 1.415 . S
C469 H445 0.951 . S
C469 C470 1.366 . S
C469 C471 1.388 . S
C470 C469 1.366 . S
C470 C474 1.385 . S
C471 H446 0.951 . S
C471 C469 1.388 . S
C471 C472 1.366 . S
C472 C471 1.366 . S
C472 C473 1.414 . S
C472 C475 1.499 . S
C473 H447 0.950 . S
C473 C472 1.414 . S
C473 C474 1.374 . S
C474 H448 0.950 . S
C474 C470 1.385 . S
C474 C473 1.374 . S
C475 C472 1.499 . S
C475 C476 1.373 . S
C475 C477 1.389 . S
C476 H449 0.950 . S
C476 C462 1.377 1_655 S
C476 C475 1.373 . S
C477 C461 1.377 1_655 S
C477 C475 1.389 . S
C477 C478 1.524 . S
C478 C477 1.524 . S
C478 C479 1.397 . S
C478 C483 1.363 . S
C479 H450 0.950 . S
C479 C478 1.397 . S
C479 C480 1.334 . S
C480 H451 0.950 . S
C480 C479 1.334 . S
C480 C481 1.287 . S
C481 C480 1.287 . S
C481 C482 1.524 . S
C481 H484 0.999 . S
C482 H452 0.950 . S
C482 C481 1.524 . S
C482 C483 1.415 . S
C483 H453 0.950 . S
C483 C478 1.363 . S
C483 C482 1.415 . S
H484 C481 0.999 . S
H485 C466 0.913 . S
H486 C504 0.951 . S
H487 C506 0.951 . S
H488 C508 0.950 . S
H489 C509 0.950 1_455 S
H490 C511 0.950 . S
H491 C514 0.950 . S
H492 C515 0.950 . S
H493 C517 0.950 . S
H494 C518 0.950 . S
H495 C519 0.951 . S
H496 C521 0.951 . S
H497 C523 0.950 . S
H498 C524 0.950 1_655 S
H499 C526 0.950 . S
H500 C529 0.950 . S
H501 C530 0.950 . S
H502 C532 0.950 . S
H503 C533 0.950 . S
C504 H486 0.951 . S
C504 C505 1.366 . S
C504 C506 1.388 . S
C505 C504 1.366 . S
C505 C509 1.385 . S
C506 H487 0.951 . S
C506 C504 1.388 . S
C506 C507 1.366 . S
C507 C506 1.366 . S
C507 C508 1.414 1_655 S
C507 C510 1.499 . S
C508 H488 0.950 . S
C508 C507 1.414 1_455 S
C508 C509 1.374 1_455 S
C509 H489 0.950 1_655 S
C509 C505 1.385 . S
C509 C508 1.374 1_655 S
C510 C507 1.499 . S
C510 C511 1.373 1_655 S
C510 C512 1.389 . S
C511 H490 0.950 . S
C511 C510 1.373 1_455 S
C511 C527 1.377 . S
C512 C510 1.389 . S
C512 C513 1.524 . S
C512 C526 1.377 . S
C513 C512 1.524 . S
C513 C514 1.397 . S
C513 C518 1.363 . S
C514 H491 0.950 . S
C514 C513 1.397 . S
C514 C515 1.334 . S
C515 H492 0.950 . S
C515 C514 1.334 . S
C515 C516 1.287 . S
C516 C515 1.287 . S
C516 C517 1.524 . S
C516 H535 0.913 . S
C517 H493 0.950 . S
C517 C516 1.524 . S
C517 C518 1.415 . S
C518 H494 0.950 . S
C518 C513 1.363 . S
C518 C517 1.415 . S
C519 H495 0.951 . S
C519 C520 1.366 . S
C519 C521 1.388 . S
C520 C519 1.366 . S
C520 C524 1.385 . S
C521 H496 0.951 . S
C521 C519 1.388 . S
C521 C522 1.366 . S
C522 C521 1.366 . S
C522 C523 1.414 1_455 S
C522 C525 1.499 . S
C523 H497 0.950 . S
C523 C522 1.414 1_655 S
C523 C524 1.374 1_655 S
C524 H498 0.950 1_455 S
C524 C520 1.385 . S
C524 C523 1.374 1_455 S
C525 C522 1.499 . S
C525 C526 1.373 1_455 S
C525 C527 1.389 . S
C526 H499 0.950 . S
C526 C512 1.377 . S
C526 C525 1.373 1_655 S
C527 C511 1.377 . S
C527 C525 1.389 . S
C527 C528 1.524 . S
C528 C527 1.524 . S
C528 C529 1.397 . S
C528 C533 1.363 . S
C529 H500 0.950 . S
C529 C528 1.397 . S
C529 C530 1.334 . S
C530 H501 0.950 . S
C530 C529 1.334 . S
C530 C531 1.287 . S
C531 C530 1.287 . S
C531 C532 1.524 . S
C531 H534 0.999 . S
C532 H502 0.950 . S
C532 C531 1.524 . S
C532 C533 1.415 . S
C533 H503 0.950 . S
C533 C528 1.363 . S
C533 C532 1.415 . S
H534 C531 0.999 . S
H535 C516 0.913 . S
H536 C554 0.951 . S
H537 C556 0.951 . S
H538 C558 0.950 . S
H539 C559 0.950 . S
H540 C561 0.950 . S
H541 C564 0.950 . S
H542 C565 0.950 . S
H543 C567 0.950 . S
H544 C568 0.950 . S
H545 C569 0.951 . S
H546 C571 0.951 . S
H547 C573 0.950 . S
H548 C574 0.950 . S
H549 C576 0.950 . S
H550 C579 0.950 . S
H551 C580 0.950 . S
H552 C582 0.950 . S
H553 C583 0.950 . S
C554 H536 0.951 . S
C554 C555 1.366 . S
C554 C556 1.388 . S
C555 C554 1.366 . S
C555 C559 1.385 . S
C556 H537 0.951 . S
C556 C554 1.388 . S
C556 C557 1.366 . S
C557 C556 1.366 . S
C557 C558 1.414 . S
C557 C560 1.499 . S
C558 H538 0.950 . S
C558 C557 1.414 . S
C558 C559 1.374 . S
C559 H539 0.950 . S
C559 C555 1.385 . S
C559 C558 1.374 . S
C560 C557 1.499 . S
C560 C561 1.373 . S
C560 C562 1.389 . S
C561 H540 0.950 . S
C561 C560 1.373 . S
C561 C577 1.377 . S
C562 C560 1.389 . S
C562 C563 1.524 . S
C562 C576 1.377 . S
C563 C562 1.524 . S
C563 C564 1.397 . S
C563 C568 1.363 . S
C564 H541 0.950 . S
C564 C563 1.397 . S
C564 C565 1.334 . S
C565 H542 0.950 . S
C565 C564 1.334 . S
C565 C566 1.287 . S
C566 C565 1.287 . S
C566 C567 1.524 . S
C566 H585 0.913 . S
C567 H543 0.950 . S
C567 C566 1.524 . S
C567 C568 1.415 . S
C568 H544 0.950 . S
C568 C563 1.363 . S
C568 C567 1.415 . S
C569 H545 0.951 . S
C569 C570 1.366 . S
C569 C571 1.388 . S
C570 C569 1.366 . S
C570 C574 1.385 . S
C571 H546 0.951 . S
C571 C569 1.388 . S
C571 C572 1.366 . S
C572 C571 1.366 . S
C572 C573 1.414 . S
C572 C575 1.499 . S
C573 H547 0.950 . S
C573 C572 1.414 . S
C573 C574 1.374 . S
C574 H548 0.950 . S
C574 C570 1.385 . S
C574 C573 1.374 . S
C575 C572 1.499 . S
C575 C576 1.373 . S
C575 C577 1.389 . S
C576 H549 0.950 . S
C576 C562 1.377 . S
C576 C575 1.373 . S
C577 C561 1.377 . S
C577 C575 1.389 . S
C577 C578 1.524 . S
C578 C577 1.524 . S
C578 C579 1.397 . S
C578 C583 1.363 . S
C579 H550 0.950 . S
C579 C578 1.397 . S
C579 C580 1.334 1_556 S
C580 H551 0.950 . S
C580 C579 1.334 1_554 S
C580 C581 1.287 . S
C581 C580 1.287 . S
C581 C582 1.524 1_554 S
C581 H584 0.999 . S
C582 H552 0.950 . S
C582 C581 1.524 1_556 S
C582 C583 1.415 . S
C583 H553 0.950 . S
C583 C578 1.363 . S
C583 C582 1.415 . S
H584 C581 0.999 . S
H585 C566 0.913 . S
H586 C604 0.951 . S
H587 C606 0.951 . S
H588 C608 0.950 . S
H589 C609 0.950 . S
H590 C611 0.950 . S
H591 C614 0.950 . S
H592 C615 0.950 . S
H593 C617 0.950 . S
H594 C618 0.950 . S
H595 C619 0.951 . S
H596 C621 0.951 . S
H597 C623 0.950 . S
H598 C624 0.950 . S
H599 C626 0.950 . S
H600 C629 0.950 . S
H601 C630 0.950 . S
H602 C632 0.950 . S
H603 C633 0.950 . S
C604 H586 0.951 . S
C604 C605 1.366 . S
C604 C606 1.388 . S
C605 C604 1.366 . S
C605 C609 1.385 . S
C606 H587 0.951 . S
C606 C604 1.388 . S
C606 C607 1.366 . S
C607 C606 1.366 . S
C607 C608 1.414 . S
C607 C610 1.499 . S
C608 H588 0.950 . S
C608 C607 1.414 . S
C608 C609 1.374 . S
C609 H589 0.950 . S
C609 C605 1.385 . S
C609 C608 1.374 . S
C610 C607 1.499 . S
C610 C611 1.373 . S
C610 C612 1.389 . S
C611 H590 0.950 . S
C611 C610 1.373 . S
C611 C627 1.377 . S
C612 C610 1.389 . S
C612 C613 1.524 . S
C612 C626 1.377 . S
C613 C612 1.524 . S
C613 C614 1.397 . S
C613 C618 1.363 . S
C614 H591 0.950 . S
C614 C613 1.397 . S
C614 C615 1.334 . S
C615 H592 0.950 . S
C615 C614 1.334 . S
C615 C616 1.287 . S
C616 C615 1.287 . S
C616 C617 1.524 . S
C616 H635 0.913 . S
C617 H593 0.950 . S
C617 C616 1.524 . S
C617 C618 1.415 . S
C618 H594 0.950 . S
C618 C613 1.363 . S
C618 C617 1.415 . S
C619 H595 0.951 . S
C619 C620 1.366 . S
C619 C621 1.388 . S
C620 C619 1.366 . S
C620 C624 1.385 . S
C621 H596 0.951 . S
C621 C619 1.388 . S
C621 C622 1.366 . S
C622 C621 1.366 . S
C622 C623 1.414 . S
C622 C625 1.499 . S
C623 H597 0.950 . S
C623 C622 1.414 . S
C623 C624 1.374 . S
C624 H598 0.950 . S
C624 C620 1.385 . S
C624 C623 1.374 . S
C625 C622 1.499 . S
C625 C626 1.373 . S
C625 C627 1.389 . S
C626 H599 0.950 . S
C626 C612 1.377 . S
C626 C625 1.373 . S
C627 C611 1.377 . S
C627 C625 1.389 . S
C627 C628 1.524 . S
C628 C627 1.524 . S
C628 C629 1.397 . S
C628 C633 1.363 . S
C629 H600 0.950 . S
C629 C628 1.397 . S
C629 C630 1.334 . S
C630 H601 0.950 . S
C630 C629 1.334 . S
C630 C631 1.287 . S
C631 C630 1.287 . S
C631 C632 1.524 . S
C631 H634 0.999 . S
C632 H602 0.950 . S
C632 C631 1.524 . S
C632 C633 1.415 . S
C633 H603 0.950 . S
C633 C628 1.363 . S
C633 C632 1.415 . S
H634 C631 0.999 . S
H635 C616 0.913 . S
H636 C654 0.951 . S
H637 C656 0.951 . S
H638 C658 0.950 . S
H639 C659 0.950 . S
H640 C661 0.950 . S
H641 C664 0.950 . S
H642 C665 0.950 . S
H643 C667 0.950 . S
H644 C668 0.950 1_455 S
H645 C669 0.951 . S
H646 C671 0.951 . S
H647 C673 0.950 . S
H648 C674 0.950 . S
H649 C676 0.950 . S
H650 C679 0.950 . S
H651 C680 0.950 . S
H652 C682 0.950 . S
H653 C683 0.950 1_655 S
C654 H636 0.951 . S
C654 C655 1.366 . S
C654 C656 1.388 . S
C655 C654 1.366 . S
C655 C659 1.385 . S
C656 H637 0.951 . S
C656 C654 1.388 . S
C656 C657 1.366 . S
C657 C656 1.366 . S
C657 C658 1.414 . S
C657 C660 1.499 . S
C658 H638 0.950 . S
C658 C657 1.414 . S
C658 C659 1.374 . S
C659 H639 0.950 . S
C659 C655 1.385 . S
C659 C658 1.374 . S
C660 C657 1.499 . S
C660 C661 1.373 . S
C660 C662 1.389 . S
C661 H640 0.950 . S
C661 C660 1.373 . S
C661 C677 1.377 1_655 S
C662 C660 1.389 . S
C662 C663 1.524 . S
C662 C676 1.377 1_655 S
C663 C662 1.524 . S
C663 C664 1.397 . S
C663 C668 1.363 . S
C664 H641 0.950 . S
C664 C663 1.397 . S
C664 C665 1.334 . S
C665 H642 0.950 . S
C665 C664 1.334 . S
C665 C666 1.287 . S
C666 C665 1.287 . S
C666 C667 1.524 . S
C666 H685 0.913 . S
C667 H643 0.950 . S
C667 C666 1.524 . S
C667 C668 1.415 . S
C668 H644 0.950 1_655 S
C668 C663 1.363 . S
C668 C667 1.415 . S
C669 H645 0.951 . S
C669 C670 1.366 . S
C669 C671 1.388 . S
C670 C669 1.366 . S
C670 C674 1.385 . S
C671 H646 0.951 . S
C671 C669 1.388 . S
C671 C672 1.366 . S
C672 C671 1.366 . S
C672 C673 1.414 . S
C672 C675 1.499 . S
C673 H647 0.950 . S
C673 C672 1.414 . S
C673 C674 1.374 . S
C674 H648 0.950 . S
C674 C670 1.385 . S
C674 C673 1.374 . S
C675 C672 1.499 . S
C675 C676 1.373 . S
C675 C677 1.389 . S
C676 H649 0.950 . S
C676 C662 1.377 1_455 S
C676 C675 1.373 . S
C677 C661 1.377 1_455 S
C677 C675 1.389 . S
C677 C678 1.524 . S
C678 C677 1.524 . S
C678 C679 1.397 . S
C678 C683 1.363 . S
C679 H650 0.950 . S
C679 C678 1.397 . S
C679 C680 1.334 . S
C680 H651 0.950 . S
C680 C679 1.334 . S
C680 C681 1.287 . S
C681 C680 1.287 . S
C681 C682 1.524 . S
C681 H684 0.999 . S
C682 H652 0.950 . S
C682 C681 1.524 . S
C682 C683 1.415 . S
C683 H653 0.950 1_455 S
C683 C678 1.363 . S
C683 C682 1.415 . S
H684 C681 0.999 . S
H685 C666 0.913 . S
H686 C704 0.951 . S
H687 C706 0.951 . S
H688 C708 0.950 . S
H689 C709 0.950 . S
H690 C711 0.950 . S
H691 C714 0.950 . S
H692 C715 0.950 . S
H693 C717 0.950 . S
H694 C718 0.950 . S
H695 C719 0.951 . S
H696 C721 0.951 . S
H697 C723 0.950 . S
H698 C724 0.950 . S
H699 C726 0.950 . S
H700 C729 0.950 . S
H701 C730 0.950 . S
H702 C732 0.950 . S
H703 C733 0.950 . S
C704 H686 0.951 . S
C704 C705 1.366 . S
C704 C706 1.388 . S
C705 C704 1.366 . S
C705 C709 1.385 . S
C706 H687 0.951 . S
C706 C704 1.388 . S
C706 C707 1.366 . S
C707 C706 1.366 . S
C707 C708 1.414 . S
C707 C710 1.499 . S
C708 H688 0.950 . S
C708 C707 1.414 . S
C708 C709 1.374 . S
C709 H689 0.950 . S
C709 C705 1.385 . S
C709 C708 1.374 . S
C710 C707 1.499 . S
C710 C711 1.373 . S
C710 C712 1.389 1_455 S
C711 H690 0.950 . S
C711 C710 1.373 . S
C711 C727 1.377 . S
C712 C710 1.389 1_655 S
C712 C713 1.524 . S
C712 C726 1.377 . S
C713 C712 1.524 . S
C713 C714 1.397 . S
C713 C718 1.363 . S
C714 H691 0.950 . S
C714 C713 1.397 . S
C714 C715 1.334 . S
C715 H692 0.950 . S
C715 C714 1.334 . S
C715 C716 1.287 . S
C716 C715 1.287 . S
C716 C717 1.524 . S
C716 H735 0.913 . S
C717 H693 0.950 . S
C717 C716 1.524 . S
C717 C718 1.415 . S
C718 H694 0.950 . S
C718 C713 1.363 . S
C718 C717 1.415 . S
C719 H695 0.951 . S
C719 C720 1.366 . S
C719 C721 1.388 . S
C720 C719 1.366 . S
C720 C724 1.385 . S
C721 H696 0.951 . S
C721 C719 1.388 . S
C721 C722 1.366 . S
C722 C721 1.366 . S
C722 C723 1.414 . S
C722 C725 1.499 . S
C723 H697 0.950 . S
C723 C722 1.414 . S
C723 C724 1.374 . S
C724 H698 0.950 . S
C724 C720 1.385 . S
C724 C723 1.374 . S
C725 C722 1.499 . S
C725 C726 1.373 . S
C725 C727 1.389 1_655 S
C726 H699 0.950 . S
C726 C712 1.377 . S
C726 C725 1.373 . S
C727 C711 1.377 . S
C727 C725 1.389 1_455 S
C727 C728 1.524 . S
C728 C727 1.524 . S
C728 C729 1.397 . S
C728 C733 1.363 . S
C729 H700 0.950 . S
C729 C728 1.397 . S
C729 C730 1.334 . S
C730 H701 0.950 . S
C730 C729 1.334 . S
C730 C731 1.287 . S
C731 C730 1.287 . S
C731 C732 1.524 . S
C731 H734 0.999 . S
C732 H702 0.950 . S
C732 C731 1.524 . S
C732 C733 1.415 . S
C733 H703 0.950 . S
C733 C728 1.363 . S
C733 C732 1.415 . S
H734 C731 0.999 . S
H735 C716 0.913 . S
H736 C754 0.951 . S
H737 C756 0.951 . S
H738 C758 0.950 . S
H739 C759 0.950 . S
H740 C761 0.950 . S
H741 C764 0.950 . S
H742 C765 0.950 . S
H743 C767 0.950 . S
H744 C768 0.954 . S
H745 C769 0.951 . S
H746 C771 0.951 . S
H747 C773 0.950 . S
H748 C774 0.950 . S
H749 C776 0.950 . S
H750 C779 0.950 . S
H751 C780 0.950 . S
H752 C782 0.950 . S
H753 C783 0.950 . S
C754 H736 0.951 . S
C754 C755 1.366 . S
C754 C756 1.388 . S
C755 C754 1.366 . S
C755 C759 1.385 . S
C756 H737 0.951 . S
C756 C754 1.388 . S
C756 C757 1.366 . S
C757 C756 1.366 . S
C757 C758 1.414 . S
C757 C760 1.499 . S
C758 H738 0.950 . S
C758 C757 1.414 . S
C758 C759 1.374 . S
C759 H739 0.950 . S
C759 C755 1.385 . S
C759 C758 1.374 . S
C760 C757 1.499 . S
C760 C761 1.373 . S
C760 C762 1.389 . S
C761 H740 0.950 . S
C761 C760 1.373 . S
C761 C777 1.377 . S
C762 C760 1.389 . S
C762 C763 1.524 . S
C762 C776 1.377 . S
C763 C762 1.524 . S
C763 C764 1.397 . S
C763 C768 1.363 1_556 S
C764 H741 0.950 . S
C764 C763 1.397 . S
C764 C765 1.334 1_556 S
C765 H742 0.950 . S
C765 C764 1.334 1_554 S
C765 C766 1.287 . S
C766 C765 1.287 . S
C766 C767 1.524 . S
C766 H785 0.913 . S
C767 H743 0.950 . S
C767 C766 1.524 . S
C767 C768 1.415 . S
C768 H744 0.954 . S
C768 C763 1.363 1_554 S
C768 C767 1.415 . S
C769 H745 0.951 . S
C769 C770 1.366 1_556 S
C769 C771 1.388 . S
C770 C769 1.366 1_554 S
C770 C774 1.385 . S
C771 H746 0.951 . S
C771 C769 1.388 . S
C771 C772 1.366 . S
C772 C771 1.366 . S
C772 C773 1.414 . S
C772 C775 1.499 . S
C773 H747 0.950 . S
C773 C772 1.414 . S
C773 C774 1.374 1_556 S
C774 H748 0.950 . S
C774 C770 1.385 . S
C774 C773 1.374 1_554 S
C775 C772 1.499 . S
C775 C776 1.373 . S
C775 C777 1.389 . S
C776 H749 0.950 . S
C776 C762 1.377 . S
C776 C775 1.373 . S
C777 C761 1.377 . S
C777 C775 1.389 . S
C777 C778 1.524 . S
C778 C777 1.524 . S
C778 C779 1.397 . S
C778 C783 1.363 . S
C779 H750 0.950 . S
C779 C778 1.397 . S
C779 C780 1.334 . S
C780 H751 0.950 . S
C780 C779 1.334 . S
C780 C781 1.287 . S
C781 C780 1.287 . S
C781 C782 1.524 . S
C781 H784 0.999 . S
C782 H752 0.950 . S
C782 C781 1.524 . S
C782 C783 1.415 . S
C783 H753 0.950 . S
C783 C778 1.363 . S
C783 C782 1.415 . S
H784 C781 0.999 . S
H785 C766 0.913 . S
H786 C804 0.951 . S
H787 C806 0.951 . S
H788 C808 0.950 . S
H789 C809 0.950 . S
H790 C811 0.950 . S
H791 C814 0.950 . S
H792 C815 0.950 . S
H793 C817 0.950 . S
H794 C818 0.950 . S
H795 C819 0.951 . S
H796 C821 0.951 . S
H797 C823 0.950 . S
H798 C824 0.950 . S
H799 C826 0.950 . S
H800 C829 0.950 . S
H801 C830 0.950 . S
H802 C832 0.950 . S
H803 C833 0.950 . S
C804 H786 0.951 . S
C804 C805 1.366 . S
C804 C806 1.388 . S
C805 C804 1.366 . S
C805 C809 1.385 . S
C806 H787 0.951 . S
C806 C804 1.388 . S
C806 C807 1.366 . S
C807 C806 1.366 . S
C807 C808 1.414 . S
C807 C810 1.499 . S
C808 H788 0.950 . S
C808 C807 1.414 . S
C808 C809 1.374 . S
C809 H789 0.950 . S
C809 C805 1.385 . S
C809 C808 1.374 . S
C810 C807 1.499 . S
C810 C811 1.373 . S
C810 C812 1.389 . S
C811 H790 0.950 . S
C811 C810 1.373 . S
C811 C827 1.377 . S
C812 C810 1.389 . S
C812 C813 1.524 . S
C812 C826 1.377 . S
C813 C812 1.524 . S
C813 C814 1.397 . S
C813 C818 1.363 . S
C814 H791 0.950 . S
C814 C813 1.397 . S
C814 C815 1.334 . S
C815 H792 0.950 . S
C815 C814 1.334 . S
C815 C816 1.287 . S
C816 C815 1.287 . S
C816 C817 1.524 . S
C816 H835 0.913 . S
C817 H793 0.950 . S
C817 C816 1.524 . S
C817 C818 1.415 . S
C818 H794 0.950 . S
C818 C813 1.363 . S
C818 C817 1.415 . S
C819 H795 0.951 . S
C819 C820 1.366 . S
C819 C821 1.388 . S
C820 C819 1.366 . S
C820 C824 1.385 . S
C821 H796 0.951 . S
C821 C819 1.388 . S
C821 C822 1.366 . S
C822 C821 1.366 . S
C822 C823 1.414 . S
C822 C825 1.499 . S
C823 H797 0.950 . S
C823 C822 1.414 . S
C823 C824 1.374 . S
C824 H798 0.950 . S
C824 C820 1.385 . S
C824 C823 1.374 . S
C825 C822 1.499 . S
C825 C826 1.373 . S
C825 C827 1.389 . S
C826 H799 0.950 . S
C826 C812 1.377 . S
C826 C825 1.373 . S
C827 C811 1.377 . S
C827 C825 1.389 . S
C827 C828 1.524 . S
C828 C827 1.524 . S
C828 C829 1.397 . S
C828 C833 1.363 . S
C829 H800 0.950 . S
C829 C828 1.397 . S
C829 C830 1.334 . S
C830 H801 0.950 . S
C830 C829 1.334 . S
C830 C831 1.287 . S
C831 C830 1.287 . S
C831 C832 1.524 . S
C831 H834 0.999 . S
C832 H802 0.950 . S
C832 C831 1.524 . S
C832 C833 1.415 . S
C833 H803 0.950 . S
C833 C828 1.363 . S
C833 C832 1.415 . S
H834 C831 0.999 . S
H835 C816 0.913 . S
H836 C854 0.951 . S
H837 C856 0.951 . S
H838 C858 0.950 . S
H839 C859 0.950 . S
H840 C861 0.950 . S
H841 C864 0.950 . S
H842 C865 0.950 . S
H843 C867 0.950 . S
H844 C868 0.950 . S
H845 C869 0.951 . S
H846 C871 0.951 . S
H847 C873 0.950 . S
H848 C874 0.950 . S
H849 C876 0.950 . S
H850 C879 0.950 . S
H851 C880 0.950 . S
H852 C882 0.950 . S
H853 C883 0.950 . S
C854 H836 0.951 . S
C854 C855 1.366 . S
C854 C856 1.388 . S
C855 C854 1.366 . S
C855 C859 1.385 . S
C856 H837 0.951 . S
C856 C854 1.388 . S
C856 C857 1.366 . S
C857 C856 1.366 . S
C857 C858 1.414 . S
C857 C860 1.499 . S
C858 H838 0.950 . S
C858 C857 1.414 . S
C858 C859 1.374 . S
C859 H839 0.950 . S
C859 C855 1.385 . S
C859 C858 1.374 . S
C860 C857 1.499 . S
C860 C861 1.373 . S
C860 C862 1.389 . S
C861 H840 0.950 . S
C861 C860 1.373 . S
C861 C877 1.377 . S
C862 C860 1.389 . S
C862 C863 1.524 . S
C862 C876 1.377 . S
C863 C862 1.524 . S
C863 C864 1.397 . S
C863 C868 1.363 . S
C864 H841 0.950 . S
C864 C863 1.397 . S
C864 C865 1.334 . S
C865 H842 0.950 . S
C865 C864 1.334 . S
C865 C866 1.287 . S
C866 C865 1.287 . S
C866 C867 1.524 . S
C866 H885 0.913 . S
C867 H843 0.950 . S
C867 C866 1.524 . S
C867 C868 1.415 . S
C868 H844 0.950 . S
C868 C863 1.363 . S
C868 C867 1.415 . S
C869 H845 0.951 . S
C869 C870 1.366 . S
C869 C871 1.388 . S
C870 C869 1.366 . S
C870 C874 1.385 . S
C871 H846 0.951 . S
C871 C869 1.388 . S
C871 C872 1.366 . S
C872 C871 1.366 . S
C872 C873 1.414 . S
C872 C875 1.499 . S
C873 H847 0.950 . S
C873 C872 1.414 . S
C873 C874 1.374 . S
C874 H848 0.950 . S
C874 C870 1.385 . S
C874 C873 1.374 . S
C875 C872 1.499 . S
C875 C876 1.373 . S
C875 C877 1.389 . S
C876 H849 0.950 . S
C876 C862 1.377 . S
C876 C875 1.373 . S
C877 C861 1.377 . S
C877 C875 1.389 . S
C877 C878 1.524 . S
C878 C877 1.524 . S
C878 C879 1.397 . S
C878 C883 1.363 . S
C879 H850 0.950 . S
C879 C878 1.397 . S
C879 C880 1.334 . S
C880 H851 0.950 . S
C880 C879 1.334 . S
C880 C881 1.287 . S
C881 C880 1.287 . S
C881 C882 1.524 . S
C881 H884 0.999 . S
C882 H852 0.950 . S
C882 C881 1.524 . S
C882 C883 1.415 . S
C883 H853 0.950 . S
C883 C878 1.363 . S
C883 C882 1.415 . S
H884 C881 0.999 . S
H885 C866 0.913 . S
H886 C904 0.951 . S
H887 C906 0.951 . S
H888 C908 0.950 . S
H889 C909 0.950 . S
H890 C911 0.950 . S
H891 C914 0.950 . S
H892 C915 0.950 . S
H893 C917 0.950 . S
H894 C918 0.950 . S
H895 C919 0.951 . S
H896 C921 0.951 . S
H897 C923 0.950 . S
H898 C924 0.950 . S
H899 C926 0.950 . S
H900 C929 0.950 . S
H901 C930 0.950 . S
H902 C932 0.950 . S
H903 C933 0.950 . S
C904 H886 0.951 . S
C904 C905 1.366 . S
C904 C906 1.388 . S
C905 C904 1.366 . S
C905 C909 1.385 . S
C906 H887 0.951 . S
C906 C904 1.388 . S
C906 C907 1.366 . S
C907 C906 1.366 . S
C907 C908 1.414 . S
C907 C910 1.499 . S
C908 H888 0.950 . S
C908 C907 1.414 . S
C908 C909 1.374 . S
C909 H889 0.950 . S
C909 C905 1.385 . S
C909 C908 1.374 . S
C910 C907 1.499 . S
C910 C911 1.373 . S
C910 C912 1.389 . S
C911 H890 0.950 . S
C911 C910 1.373 . S
C911 C927 1.377 . S
C912 C910 1.389 . S
C912 C913 1.524 . S
C912 C926 1.377 . S
C913 C912 1.524 . S
C913 C914 1.397 . S
C913 C918 1.363 . S
C914 H891 0.950 . S
C914 C913 1.397 . S
C914 C915 1.334 . S
C915 H892 0.950 . S
C915 C914 1.334 . S
C915 C916 1.287 . S
C916 C915 1.287 . S
C916 C917 1.524 . S
C916 H935 0.913 . S
C917 H893 0.950 . S
C917 C916 1.524 . S
C917 C918 1.415 . S
C918 H894 0.950 . S
C918 C913 1.363 . S
C918 C917 1.415 . S
C919 H895 0.951 . S
C919 C920 1.366 . S
C919 C921 1.388 . S
C920 C919 1.366 . S
C920 C924 1.385 . S
C921 H896 0.951 . S
C921 C919 1.388 . S
C921 C922 1.366 . S
C922 C921 1.366 . S
C922 C923 1.414 . S
C922 C925 1.499 . S
C923 H897 0.950 . S
C923 C922 1.414 . S
C923 C924 1.374 . S
C924 H898 0.950 . S
C924 C920 1.385 . S
C924 C923 1.374 . S
C925 C922 1.499 . S
C925 C926 1.373 . S
C925 C927 1.389 . S
C926 H899 0.950 . S
C926 C912 1.377 . S
C926 C925 1.373 . S
C927 C911 1.377 . S
C927 C925 1.389 . S
C927 C928 1.524 . S
C928 C927 1.524 . S
C928 C929 1.397 . S
C928 C933 1.363 . S
C929 H900 0.950 . S
C929 C928 1.397 . S
C929 C930 1.334 . S
C930 H901 0.950 . S
C930 C929 1.334 . S
C930 C931 1.287 . S
C931 C930 1.287 . S
C931 C932 1.524 . S
C931 H934 0.999 . S
C932 H902 0.950 . S
C932 C931 1.524 . S
C932 C933 1.415 . S
C933 H903 0.950 . S
C933 C928 1.363 . S
C933 C932 1.415 . S
H934 C931 0.999 . S
H935 C916 0.913 . S
H936 C954 0.951 . S
H937 C956 0.960 . S
H938 C958 0.950 . S
H939 C959 0.950 . S
H940 C961 0.950 . S
H941 C964 0.950 . S
H942 C965 0.950 . S
H943 C967 0.950 . S
H944 C968 0.950 . S
H945 C969 0.951 . S
H946 C971 0.951 . S
H947 C973 0.950 . S
H948 C974 0.950 . S
H949 C976 0.950 . S
H950 C979 0.950 . S
H951 C980 0.950 . S
H952 C982 0.950 . S
H953 C983 0.950 . S
C954 H936 0.951 . S
C954 C955 1.366 . S
C954 C956 1.401 . S
C955 C954 1.366 . S
C955 C959 1.385 1_556 S
C956 H937 0.960 . S
C956 C954 1.401 . S
C956 C957 1.343 1_556 S
C957 C956 1.343 1_554 S
C957 C958 1.414 . S
C957 C960 1.499 . S
C958 H938 0.950 . S
C958 C957 1.414 . S
C958 C959 1.374 . S
C959 H939 0.950 . S
C959 C955 1.385 1_554 S
C959 C958 1.374 . S
C960 C957 1.499 . S
C960 C961 1.373 . S
C960 C962 1.389 . S
C961 H940 0.950 . S
C961 C960 1.373 . S
C961 C977 1.377 . S
C962 C960 1.389 . S
C962 C963 1.524 . S
C962 C976 1.377 . S
C963 C962 1.524 . S
C963 C964 1.397 . S
C963 C968 1.363 . S
C964 H941 0.950 . S
C964 C963 1.397 . S
C964 C965 1.334 . S
C965 H942 0.950 . S
C965 C964 1.334 . S
C965 C966 1.287 . S
C966 C965 1.287 . S
C966 C967 1.524 . S
C966 H985 0.913 . S
C967 H943 0.950 . S
C967 C966 1.524 . S
C967 C968 1.415 . S
C968 H944 0.950 . S
C968 C963 1.363 . S
C968 C967 1.415 . S
C969 H945 0.951 . S
C969 C970 1.366 . S
C969 C971 1.388 . S
C970 C969 1.366 . S
C970 C974 1.385 . S
C971 H946 0.951 . S
C971 C969 1.388 . S
C971 C972 1.366 . S
C972 C971 1.366 . S
C972 C973 1.414 . S
C972 C975 1.499 . S
C973 H947 0.950 . S
C973 C972 1.414 . S
C973 C974 1.374 . S
C974 H948 0.950 . S
C974 C970 1.385 . S
C974 C973 1.374 . S
C975 C972 1.499 . S
C975 C976 1.373 . S
C975 C977 1.389 . S
C976 H949 0.950 . S
C976 C962 1.377 . S
C976 C975 1.373 . S
C977 C961 1.377 . S
C977 C975 1.389 . S
C977 C978 1.524 . S
C978 C977 1.524 . S
C978 C979 1.397 . S
C978 C983 1.363 . S
C979 H950 0.950 . S
C979 C978 1.397 . S
C979 C980 1.334 . S
C980 H951 0.950 . S
C980 C979 1.334 . S
C980 C981 1.287 . S
C981 C980 1.287 . S
C981 C982 1.524 . S
C981 H984 0.999 . S
C982 H952 0.950 . S
C982 C981 1.524 . S
C982 C983 1.415 . S
C983 H953 0.950 . S
C983 C978 1.363 . S
C983 C982 1.415 . S
H984 C981 0.999 . S
H985 C966 0.913 . S
H986 C1004 0.951 . S
H987 C1006 0.951 . S
H988 C1008 0.950 . S
H989 C1009 0.950 . S
H990 C1011 0.950 . S
H991 C1014 0.950 . S
H992 C1015 0.950 . S
H993 C1017 0.950 . S
H994 C1018 0.950 . S
H995 C1019 0.951 . S
H996 C1021 0.951 . S
H997 C1023 0.950 . S
H998 C1024 0.950 . S
H999 C1026 0.950 . S
H1000 C1029 0.950 . S
H1001 C1030 0.950 . S
H1002 C1032 0.950 . S
H1003 C1033 0.950 . S
C1004 H986 0.951 . S
C1004 C1005 1.366 . S
C1004 C1006 1.388 . S
C1005 C1004 1.366 . S
C1005 C1009 1.385 . S
C1006 H987 0.951 . S
C1006 C1004 1.388 . S
C1006 C1007 1.366 . S
C1007 C1006 1.366 . S
C1007 C1008 1.414 . S
C1007 C1010 1.499 . S
C1008 H988 0.950 . S
C1008 C1007 1.414 . S
C1008 C1009 1.374 . S
C1009 H989 0.950 . S
C1009 C1005 1.385 . S
C1009 C1008 1.374 . S
C1010 C1007 1.499 . S
C1010 C1011 1.373 . S
C1010 C1012 1.389 . S
C1011 H990 0.950 . S
C1011 C1010 1.373 . S
C1011 C1027 1.377 . S
C1012 C1010 1.389 . S
C1012 C1013 1.524 . S
C1012 C1026 1.377 . S
C1013 C1012 1.524 . S
C1013 C1014 1.397 . S
C1013 C1018 1.363 . S
C1014 H991 0.950 . S
C1014 C1013 1.397 . S
C1014 C1015 1.334 . S
C1015 H992 0.950 . S
C1015 C1014 1.334 . S
C1015 C1016 1.287 . S
C1016 C1015 1.287 . S
C1016 C1017 1.524 . S
C1016 H1035 0.913 . S
C1017 H993 0.950 . S
C1017 C1016 1.524 . S
C1017 C1018 1.415 . S
C1018 H994 0.950 . S
C1018 C1013 1.363 . S
C1018 C1017 1.415 . S
C1019 H995 0.951 . S
C1019 C1020 1.366 . S
C1019 C1021 1.388 . S
C1020 C1019 1.366 . S
C1020 C1024 1.385 . S
C1021 H996 0.951 . S
C1021 C1019 1.388 . S
C1021 C1022 1.366 . S
C1022 C1021 1.366 . S
C1022 C1023 1.414 . S
C1022 C1025 1.499 . S
C1023 H997 0.950 . S
C1023 C1022 1.414 . S
C1023 C1024 1.374 . S
C1024 H998 0.950 . S
C1024 C1020 1.385 . S
C1024 C1023 1.374 . S
C1025 C1022 1.499 . S
C1025 C1026 1.373 . S
C1025 C1027 1.389 . S
C1026 H999 0.950 . S
C1026 C1012 1.377 . S
C1026 C1025 1.373 . S
C1027 C1011 1.377 . S
C1027 C1025 1.389 . S
C1027 C1028 1.524 . S
C1028 C1027 1.524 . S
C1028 C1029 1.397 . S
C1028 C1033 1.363 . S
C1029 H1000 0.950 . S
C1029 C1028 1.397 . S
C1029 C1030 1.334 . S
C1030 H1001 0.950 . S
C1030 C1029 1.334 . S
C1030 C1031 1.287 . S
C1031 C1030 1.287 . S
C1031 C1032 1.524 . S
C1031 H1034 0.999 . S
C1032 H1002 0.950 . S
C1032 C1031 1.524 . S
C1032 C1033 1.415 . S
C1033 H1003 0.950 . S
C1033 C1028 1.363 . S
C1033 C1032 1.415 . S
H1034 C1031 0.999 . S
H1035 C1016 0.913 . S
H1036 C1054 0.951 . S
H1037 C1056 0.951 . S
H1038 C1058 0.950 . S
H1039 C1059 0.950 . S
H1040 C1061 0.950 . S
H1041 C1064 0.950 . S
H1042 C1065 0.950 . S
H1043 C1067 0.950 . S
H1044 C1068 0.950 . S
H1045 C1069 0.951 . S
H1046 C1071 0.951 . S
H1047 C1073 0.950 . S
H1048 C1074 0.950 . S
H1049 C1076 0.950 . S
H1050 C1079 0.950 . S
H1051 C1080 0.950 . S
H1052 C1082 0.950 . S
H1053 C1083 0.950 . S
C1054 H1036 0.951 . S
C1054 C1055 1.366 . S
C1054 C1056 1.388 . S
C1055 C1054 1.366 . S
C1055 C1059 1.385 . S
C1056 H1037 0.951 . S
C1056 C1054 1.388 . S
C1056 C1057 1.366 . S
C1057 C1056 1.366 . S
C1057 C1058 1.414 . S
C1057 C1060 1.499 . S
C1058 H1038 0.950 . S
C1058 C1057 1.414 . S
C1058 C1059 1.374 . S
C1059 H1039 0.950 . S
C1059 C1055 1.385 . S
C1059 C1058 1.374 . S
C1060 C1057 1.499 . S
C1060 C1061 1.373 . S
C1060 C1062 1.389 . S
C1061 H1040 0.950 . S
C1061 C1060 1.373 . S
C1061 C1077 1.377 . S
C1062 C1060 1.389 . S
C1062 C1063 1.524 . S
C1062 C1076 1.377 . S
C1063 C1062 1.524 . S
C1063 C1064 1.397 . S
C1063 C1068 1.363 . S
C1064 H1041 0.950 . S
C1064 C1063 1.397 . S
C1064 C1065 1.334 . S
C1065 H1042 0.950 . S
C1065 C1064 1.334 . S
C1065 C1066 1.287 . S
C1066 C1065 1.287 . S
C1066 C1067 1.524 . S
C1066 H1085 0.913 . S
C1067 H1043 0.950 . S
C1067 C1066 1.524 . S
C1067 C1068 1.415 . S
C1068 H1044 0.950 . S
C1068 C1063 1.363 . S
C1068 C1067 1.415 . S
C1069 H1045 0.951 . S
C1069 C1070 1.366 . S
C1069 C1071 1.388 . S
C1070 C1069 1.366 . S
C1070 C1074 1.385 . S
C1071 H1046 0.951 . S
C1071 C1069 1.388 . S
C1071 C1072 1.366 . S
C1072 C1071 1.366 . S
C1072 C1073 1.414 . S
C1072 C1075 1.499 . S
C1073 H1047 0.950 . S
C1073 C1072 1.414 . S
C1073 C1074 1.374 . S
C1074 H1048 0.950 . S
C1074 C1070 1.385 . S
C1074 C1073 1.374 . S
C1075 C1072 1.499 . S
C1075 C1076 1.373 . S
C1075 C1077 1.389 . S
C1076 H1049 0.950 . S
C1076 C1062 1.377 . S
C1076 C1075 1.373 . S
C1077 C1061 1.377 . S
C1077 C1075 1.389 . S
C1077 C1078 1.524 . S
C1078 C1077 1.524 . S
C1078 C1079 1.397 . S
C1078 C1083 1.363 . S
C1079 H1050 0.950 . S
C1079 C1078 1.397 . S
C1079 C1080 1.334 . S
C1080 H1051 0.950 . S
C1080 C1079 1.334 . S
C1080 C1081 1.287 . S
C1081 C1080 1.287 . S
C1081 C1082 1.524 . S
C1081 H1084 0.999 . S
C1082 H1052 0.950 . S
C1082 C1081 1.524 . S
C1082 C1083 1.415 . S
C1083 H1053 0.950 . S
C1083 C1078 1.363 . S
C1083 C1082 1.415 . S
H1084 C1081 0.999 . S
H1085 C1066 0.913 . S
H1086 C1104 0.951 . S
H1087 C1106 0.951 . S
H1088 C1108 0.950 . S
H1089 C1109 0.950 . S
H1090 C1111 0.950 . S
H1091 C1114 0.950 . S
H1092 C1115 0.950 . S
H1093 C1117 0.950 . S
H1094 C1118 0.950 . S
H1095 C1119 0.951 . S
H1096 C1121 0.951 . S
H1097 C1123 0.950 . S
H1098 C1124 0.950 . S
H1099 C1126 0.950 . S
H1100 C1129 0.950 . S
H1101 C1130 0.950 . S
H1102 C1132 0.950 . S
H1103 C1133 0.950 . S
C1104 H1086 0.951 . S
C1104 C1105 1.366 . S
C1104 C1106 1.388 . S
C1105 C1104 1.366 . S
C1105 C1109 1.385 . S
C1106 H1087 0.951 . S
C1106 C1104 1.388 . S
C1106 C1107 1.366 . S
C1107 C1106 1.366 . S
C1107 C1108 1.414 . S
C1107 C1110 1.499 . S
C1108 H1088 0.950 . S
C1108 C1107 1.414 . S
C1108 C1109 1.374 . S
C1109 H1089 0.950 . S
C1109 C1105 1.385 . S
C1109 C1108 1.374 . S
C1110 C1107 1.499 . S
C1110 C1111 1.373 . S
C1110 C1112 1.389 . S
C1111 H1090 0.950 . S
C1111 C1110 1.373 . S
C1111 C1127 1.377 . S
C1112 C1110 1.389 . S
C1112 C1113 1.524 . S
C1112 C1126 1.377 . S
C1113 C1112 1.524 . S
C1113 C1114 1.397 . S
C1113 C1118 1.363 . S
C1114 H1091 0.950 . S
C1114 C1113 1.397 . S
C1114 C1115 1.334 . S
C1115 H1092 0.950 . S
C1115 C1114 1.334 . S
C1115 C1116 1.287 . S
C1116 C1115 1.287 . S
C1116 C1117 1.524 . S
C1116 H1135 0.913 . S
C1117 H1093 0.950 . S
C1117 C1116 1.524 . S
C1117 C1118 1.415 . S
C1118 H1094 0.950 . S
C1118 C1113 1.363 . S
C1118 C1117 1.415 . S
C1119 H1095 0.951 . S
C1119 C1120 1.366 . S
C1119 C1121 1.388 . S
C1120 C1119 1.366 . S
C1120 C1124 1.385 . S
C1121 H1096 0.951 . S
C1121 C1119 1.388 . S
C1121 C1122 1.366 . S
C1122 C1121 1.366 . S
C1122 C1123 1.414 . S
C1122 C1125 1.499 . S
C1123 H1097 0.950 . S
C1123 C1122 1.414 . S
C1123 C1124 1.374 . S
C1124 H1098 0.950 . S
C1124 C1120 1.385 . S
C1124 C1123 1.374 . S
C1125 C1122 1.499 . S
C1125 C1126 1.373 . S
C1125 C1127 1.389 . S
C1126 H1099 0.950 . S
C1126 C1112 1.377 . S
C1126 C1125 1.373 . S
C1127 C1111 1.377 . S
C1127 C1125 1.389 . S
C1127 C1128 1.524 . S
C1128 C1127 1.524 . S
C1128 C1129 1.397 . S
C1128 C1133 1.363 . S
C1129 H1100 0.950 . S
C1129 C1128 1.397 . S
C1129 C1130 1.334 . S
C1130 H1101 0.950 . S
C1130 C1129 1.334 . S
C1130 C1131 1.287 . S
C1131 C1130 1.287 . S
C1131 C1132 1.524 . S
C1131 H1134 0.999 . S
C1132 H1102 0.950 . S
C1132 C1131 1.524 . S
C1132 C1133 1.415 . S
C1133 H1103 0.950 . S
C1133 C1128 1.363 . S
C1133 C1132 1.415 . S
H1134 C1131 0.999 . S
H1135 C1116 0.913 . S
H1136 C1154 0.951 . S
H1137 C1156 0.951 . S
H1138 C1158 0.950 . S
H1139 C1159 0.950 . S
H1140 C1161 0.950 . S
H1141 C1164 0.950 . S
H1142 C1165 0.950 . S
H1143 C1167 0.950 . S
H1144 C1168 0.950 . S
H1145 C1169 0.951 . S
H1146 C1171 0.951 . S
H1147 C1173 0.950 . S
H1148 C1174 0.950 . S
H1149 C1176 0.950 . S
H1150 C1179 0.950 . S
H1151 C1180 0.950 . S
H1152 C1182 0.950 . S
H1153 C1183 0.950 . S
C1154 H1136 0.951 . S
C1154 C1155 1.366 . S
C1154 C1156 1.388 . S
C1155 C1154 1.366 . S
C1155 C1159 1.385 . S
C1156 H1137 0.951 . S
C1156 C1154 1.388 . S
C1156 C1157 1.366 . S
C1157 C1156 1.366 . S
C1157 C1158 1.414 . S
C1157 C1160 1.499 . S
C1158 H1138 0.950 . S
C1158 C1157 1.414 . S
C1158 C1159 1.374 . S
C1159 H1139 0.950 . S
C1159 C1155 1.385 . S
C1159 C1158 1.374 . S
C1160 C1157 1.499 . S
C1160 C1161 1.373 . S
C1160 C1162 1.389 . S
C1161 H1140 0.950 . S
C1161 C1160 1.373 . S
C1161 C1177 1.377 . S
C1162 C1160 1.389 . S
C1162 C1163 1.524 . S
C1162 C1176 1.377 . S
C1163 C1162 1.524 . S
C1163 C1164 1.397 . S
C1163 C1168 1.363 . S
C1164 H1141 0.950 . S
C1164 C1163 1.397 . S
C1164 C1165 1.334 . S
C1165 H1142 0.950 . S
C1165 C1164 1.334 . S
C1165 C1166 1.287 . S
C1166 C1165 1.287 . S
C1166 C1167 1.524 . S
C1166 H1185 0.913 . S
C1167 H1143 0.950 . S
C1167 C1166 1.524 . S
C1167 C1168 1.415 . S
C1168 H1144 0.950 . S
C1168 C1163 1.363 . S
C1168 C1167 1.415 . S
C1169 H1145 0.951 . S
C1169 C1170 1.366 . S
C1169 C1171 1.388 . S
C1170 C1169 1.366 . S
C1170 C1174 1.385 . S
C1171 H1146 0.951 . S
C1171 C1169 1.388 . S
C1171 C1172 1.366 . S
C1172 C1171 1.366 . S
C1172 C1173 1.414 . S
C1172 C1175 1.499 . S
C1173 H1147 0.950 . S
C1173 C1172 1.414 . S
C1173 C1174 1.374 . S
C1174 H1148 0.950 . S
C1174 C1170 1.385 . S
C1174 C1173 1.374 . S
C1175 C1172 1.499 . S
C1175 C1176 1.373 . S
C1175 C1177 1.389 . S
C1176 H1149 0.950 . S
C1176 C1162 1.377 . S
C1176 C1175 1.373 . S
C1177 C1161 1.377 . S
C1177 C1175 1.389 . S
C1177 C1178 1.524 . S
C1178 C1177 1.524 . S
C1178 C1179 1.397 . S
C1178 C1183 1.363 . S
C1179 H1150 0.950 . S
C1179 C1178 1.397 . S
C1179 C1180 1.334 . S
C1180 H1151 0.950 . S
C1180 C1179 1.334 . S
C1180 C1181 1.287 . S
C1181 C1180 1.287 . S
C1181 C1182 1.524 . S
C1181 H1184 0.999 . S
C1182 H1152 0.950 . S
C1182 C1181 1.524 . S
C1182 C1183 1.415 . S
C1183 H1153 0.950 . S
C1183 C1178 1.363 . S
C1183 C1182 1.415 . S
H1184 C1181 0.999 . S
H1185 C1166 0.913 . S
H1186 C1204 0.951 . S
H1187 C1206 0.951 1_565 S
H1188 C1208 0.950 . S
H1189 C1209 0.950 . S
H1190 C1211 0.950 . S
H1191 C1214 0.950 . S
H1192 C1215 0.950 . S
H1193 C1217 0.950 . S
H1194 C1218 0.950 . S
H1195 C1219 0.951 . S
H1196 C1221 0.951 . S
H1197 C1223 0.950 . S
H1198 C1224 0.950 . S
H1199 C1226 0.950 . S
H1200 C1229 0.950 . S
H1201 C1230 0.950 . S
H1202 C1232 0.950 . S
H1203 C1233 0.950 . S
C1204 H1186 0.951 . S
C1204 C1205 1.366 . S
C1204 C1206 1.388 . S
C1205 C1204 1.366 . S
C1205 C1209 1.385 . S
C1206 H1187 0.951 1_545 S
C1206 C1204 1.388 . S
C1206 C1207 1.366 1_545 S
C1207 C1206 1.366 1_565 S
C1207 C1208 1.414 1_565 S
C1207 C1210 1.499 . S
C1208 H1188 0.950 . S
C1208 C1207 1.414 1_545 S
C1208 C1209 1.374 . S
C1209 H1189 0.950 . S
C1209 C1205 1.385 . S
C1209 C1208 1.374 . S
C1210 C1207 1.499 . S
C1210 C1211 1.373 . S
C1210 C1212 1.389 . S
C1211 H1190 0.950 . S
C1211 C1210 1.373 . S
C1211 C1227 1.377 . S
C1212 C1210 1.389 . S
C1212 C1213 1.524 . S
C1212 C1226 1.377 . S
C1213 C1212 1.524 . S
C1213 C1214 1.397 1_565 S
C1213 C1218 1.363 . S
C1214 H1191 0.950 . S
C1214 C1213 1.397 1_545 S
C1214 C1215 1.334 . S
C1215 H1192 0.950 . S
C1215 C1214 1.334 . S
C1215 C1216 1.287 . S
C1216 C1215 1.287 . S
C1216 C1217 1.524 1_545 S
C1216 H1235 0.913 . S
C1217 H1193 0.950 . S
C1217 C1216 1.524 1_565 S
C1217 C1218 1.415 . S
C1218 H1194 0.950 . S
C1218 C1213 1.363 . S
C1218 C1217 1.415 . S
C1219 H1195 0.951 . S
C1219 C1220 1.366 . S
C1219 C1221 1.388 . S
C1220 C1219 1.366 . S
C1220 C1224 1.385 . S
C1221 H1196 0.951 . S
C1221 C1219 1.388 . S
C1221 C1222 1.366 . S
C1222 C1221 1.366 . S
C1222 C1223 1.414 . S
C1222 C1225 1.499 . S
C1223 H1197 0.950 . S
C1223 C1222 1.414 . S
C1223 C1224 1.374 . S
C1224 H1198 0.950 . S
C1224 C1220 1.385 . S
C1224 C1223 1.374 . S
C1225 C1222 1.499 . S
C1225 C1226 1.373 . S
C1225 C1227 1.389 . S
C1226 H1199 0.950 . S
C1226 C1212 1.377 . S
C1226 C1225 1.373 . S
C1227 C1211 1.377 . S
C1227 C1225 1.389 . S
C1227 C1228 1.524 . S
C1228 C1227 1.524 . S
C1228 C1229 1.397 . S
C1228 C1233 1.363 . S
C1229 H1200 0.950 . S
C1229 C1228 1.397 . S
C1229 C1230 1.334 . S
C1230 H1201 0.950 . S
C1230 C1229 1.334 . S
C1230 C1231 1.287 . S
C1231 C1230 1.287 . S
C1231 C1232 1.524 . S
C1231 H1234 0.999 . S
C1232 H1202 0.950 . S
C1232 C1231 1.524 . S
C1232 C1233 1.415 . S
C1233 H1203 0.950 . S
C1233 C1228 1.363 . S
C1233 C1232 1.415 . S
H1234 C1231 0.999 . S
H1235 C1216 0.913 . S
H1236 C1254 0.951 . S
H1237 C1256 0.951 . S
H1238 C1258 0.950 . S
H1239 C1259 0.950 . S
H1240 C1261 0.950 . S
H1241 C1264 0.950 1_554 S
H1242 C1265 0.950 1_554 S
H1243 C1267 0.950 . S
H1244 C1268 0.950 . S
H1245 C1269 0.951 . S
H1246 C1271 0.951 . S
H1247 C1273 0.950 . S
H1248 C1274 0.950 . S
H1249 C1276 0.950 . S
H1250 C1279 0.950 . S
H1251 C1280 0.950 . S
H1252 C1282 0.950 . S
H1253 C1283 0.950 . S
C1254 H1236 0.951 . S
C1254 C1255 1.366 1_556 S
C1254 C1256 1.388 . S
C1255 C1254 1.366 1_554 S
C1255 C1259 1.385 . S
C1256 H1237 0.951 . S
C1256 C1254 1.388 . S
C1256 C1257 1.366 . S
C1257 C1256 1.366 . S
C1257 C1258 1.414 1_556 S
C1257 C1260 1.499 . S
C1258 H1238 0.950 . S
C1258 C1257 1.414 1_554 S
C1258 C1259 1.374 . S
C1259 H1239 0.950 . S
C1259 C1255 1.385 . S
C1259 C1258 1.374 . S
C1260 C1257 1.499 . S
C1260 C1261 1.373 . S
C1260 C1262 1.389 . S
C1261 H1240 0.950 . S
C1261 C1260 1.373 . S
C1261 C1277 1.377 . S
C1262 C1260 1.389 . S
C1262 C1263 1.524 . S
C1262 C1276 1.377 . S
C1263 C1262 1.524 . S
C1263 C1264 1.397 . S
C1263 C1268 1.363 . S
C1264 H1241 0.950 1_556 S
C1264 C1263 1.397 . S
C1264 C1265 1.334 . S
C1265 H1242 0.950 1_556 S
C1265 C1264 1.334 . S
C1265 C1266 1.287 . S
C1266 C1265 1.287 . S
C1266 C1267 1.524 . S
C1266 H1285 0.913 . S
C1267 H1243 0.950 . S
C1267 C1266 1.524 . S
C1267 C1268 1.415 . S
C1268 H1244 0.950 . S
C1268 C1263 1.363 . S
C1268 C1267 1.415 . S
C1269 H1245 0.951 . S
C1269 C1270 1.366 . S
C1269 C1271 1.388 . S
C1270 C1269 1.366 . S
C1270 C1274 1.385 . S
C1271 H1246 0.951 . S
C1271 C1269 1.388 . S
C1271 C1272 1.366 . S
C1272 C1271 1.366 . S
C1272 C1273 1.414 . S
C1272 C1275 1.499 . S
C1273 H1247 0.950 . S
C1273 C1272 1.414 . S
C1273 C1274 1.374 . S
C1274 H1248 0.950 . S
C1274 C1270 1.385 . S
C1274 C1273 1.374 . S
C1275 C1272 1.499 . S
C1275 C1276 1.373 . S
C1275 C1277 1.389 . S
C1276 H1249 0.950 . S
C1276 C1262 1.377 . S
C1276 C1275 1.373 . S
C1277 C1261 1.377 . S
C1277 C1275 1.389 . S
C1277 C1278 1.524 . S
C1278 C1277 1.524 . S
C1278 C1279 1.397 . S
C1278 C1283 1.363 . S
C1279 H1250 0.950 . S
C1279 C1278 1.397 . S
C1279 C1280 1.334 . S
C1280 H1251 0.950 . S
C1280 C1279 1.334 . S
C1280 C1281 1.287 . S
C1281 C1280 1.287 . S
C1281 C1282 1.524 . S
C1281 H1284 0.999 . S
C1282 H1252 0.950 . S
C1282 C1281 1.524 . S
C1282 C1283 1.415 . S
C1283 H1253 0.950 . S
C1283 C1278 1.363 . S
C1283 C1282 1.415 . S
H1284 C1281 0.999 . S
H1285 C1266 0.913 . S
H1286 C1304 0.951 . S
H1287 C1306 0.951 . S
H1288 C1308 0.950 . S
H1289 C1309 0.950 . S
H1290 C1311 0.950 . S
H1291 C1314 0.950 . S
H1292 C1315 0.950 . S
H1293 C1317 0.950 . S
H1294 C1318 0.950 . S
H1295 C1319 0.951 . S
H1296 C1321 0.951 . S
H1297 C1323 0.950 . S
H1298 C1324 0.950 . S
H1299 C1326 0.950 . S
H1300 C1329 0.950 . S
H1301 C1330 0.950 . S
H1302 C1332 0.950 . S
H1303 C1333 0.950 . S
C1304 H1286 0.951 . S
C1304 C1305 1.366 . S
C1304 C1306 1.388 . S
C1305 C1304 1.366 . S
C1305 C1309 1.385 . S
C1306 H1287 0.951 . S
C1306 C1304 1.388 . S
C1306 C1307 1.366 1_565 S
C1307 C1306 1.366 1_545 S
C1307 C1308 1.414 . S
C1307 C1310 1.499 . S
C1308 H1288 0.950 . S
C1308 C1307 1.414 . S
C1308 C1309 1.374 1_545 S
C1309 H1289 0.950 . S
C1309 C1305 1.385 . S
C1309 C1308 1.374 1_565 S
C1310 C1307 1.499 . S
C1310 C1311 1.373 . S
C1310 C1312 1.389 . S
C1311 H1290 0.950 . S
C1311 C1310 1.373 . S
C1311 C1327 1.377 . S
C1312 C1310 1.389 . S
C1312 C1313 1.524 . S
C1312 C1326 1.377 . S
C1313 C1312 1.524 . S
C1313 C1314 1.397 . S
C1313 C1318 1.363 . S
C1314 H1291 0.950 . S
C1314 C1313 1.397 . S
C1314 C1315 1.334 1_545 S
C1315 H1292 0.950 . S
C1315 C1314 1.334 1_565 S
C1315 C1316 1.287 . S
C1316 C1315 1.287 . S
C1316 C1317 1.524 . S
C1316 H1335 0.913 . S
C1317 H1293 0.950 . S
C1317 C1316 1.524 . S
C1317 C1318 1.415 1_565 S
C1318 H1294 0.950 . S
C1318 C1313 1.363 . S
C1318 C1317 1.415 1_545 S
C1319 H1295 0.951 . S
C1319 C1320 1.366 . S
C1319 C1321 1.388 . S
C1320 C1319 1.366 . S
C1320 C1324 1.385 . S
C1321 H1296 0.951 . S
C1321 C1319 1.388 . S
C1321 C1322 1.366 . S
C1322 C1321 1.366 . S
C1322 C1323 1.414 . S
C1322 C1325 1.499 . S
C1323 H1297 0.950 . S
C1323 C1322 1.414 . S
C1323 C1324 1.374 . S
C1324 H1298 0.950 . S
C1324 C1320 1.385 . S
C1324 C1323 1.374 . S
C1325 C1322 1.499 . S
C1325 C1326 1.373 . S
C1325 C1327 1.389 . S
C1326 H1299 0.950 . S
C1326 C1312 1.377 . S
C1326 C1325 1.373 . S
C1327 C1311 1.377 . S
C1327 C1325 1.389 . S
C1327 C1328 1.524 . S
C1328 C1327 1.524 . S
C1328 C1329 1.397 . S
C1328 C1333 1.363 . S
C1329 H1300 0.950 . S
C1329 C1328 1.397 . S
C1329 C1330 1.334 . S
C1330 H1301 0.950 . S
C1330 C1329 1.334 . S
C1330 C1331 1.287 . S
C1331 C1330 1.287 . S
C1331 C1332 1.524 . S
C1331 H1334 0.999 . S
C1332 H1302 0.950 . S
C1332 C1331 1.524 . S
C1332 C1333 1.415 . S
C1333 H1303 0.950 . S
C1333 C1328 1.363 . S
C1333 C1332 1.415 . S
H1334 C1331 0.999 . S
H1335 C1316 0.913 . S
H1336 C1354 0.951 . S
H1337 C1356 0.951 . S
H1338 C1358 0.950 . S
H1339 C1359 0.950 . S
H1340 C1361 0.950 . S
H1341 C1364 0.950 . S
H1342 C1365 0.950 . S
H1343 C1367 0.950 . S
H1344 C1368 0.950 . S
H1345 C1369 0.951 . S
H1346 C1371 0.951 . S
H1347 C1373 0.950 . S
H1348 C1374 0.950 . S
H1349 C1376 0.950 . S
H1350 C1379 0.950 . S
H1351 C1380 0.950 . S
H1352 C1382 0.950 . S
H1353 C1383 0.950 . S
C1354 H1336 0.951 . S
C1354 C1355 1.366 . S
C1354 C1356 1.388 . S
C1355 C1354 1.366 . S
C1355 C1359 1.385 . S
C1356 H1337 0.951 . S
C1356 C1354 1.388 . S
C1356 C1357 1.366 . S
C1357 C1356 1.366 . S
C1357 C1358 1.414 . S
C1357 C1360 1.499 . S
C1358 H1338 0.950 . S
C1358 C1357 1.414 . S
C1358 C1359 1.374 . S
C1359 H1339 0.950 . S
C1359 C1355 1.385 . S
C1359 C1358 1.374 . S
C1360 C1357 1.499 . S
C1360 C1361 1.373 . S
C1360 C1362 1.389 . S
C1361 H1340 0.950 . S
C1361 C1360 1.373 . S
C1361 C1377 1.377 . S
C1362 C1360 1.389 . S
C1362 C1363 1.524 . S
C1362 C1376 1.377 . S
C1363 C1362 1.524 . S
C1363 C1364 1.397 . S
C1363 C1368 1.363 . S
C1364 H1341 0.950 . S
C1364 C1363 1.397 . S
C1364 C1365 1.334 . S
C1365 H1342 0.950 . S
C1365 C1364 1.334 . S
C1365 C1366 1.287 . S
C1366 C1365 1.287 . S
C1366 C1367 1.524 . S
C1366 H1385 0.913 . S
C1367 H1343 0.950 . S
C1367 C1366 1.524 . S
C1367 C1368 1.415 . S
C1368 H1344 0.950 . S
C1368 C1363 1.363 . S
C1368 C1367 1.415 . S
C1369 H1345 0.951 . S
C1369 C1370 1.366 . S
C1369 C1371 1.388 . S
C1370 C1369 1.366 . S
C1370 C1374 1.385 . S
C1371 H1346 0.951 . S
C1371 C1369 1.388 . S
C1371 C1372 1.366 . S
C1372 C1371 1.366 . S
C1372 C1373 1.414 . S
C1372 C1375 1.499 . S
C1373 H1347 0.950 . S
C1373 C1372 1.414 . S
C1373 C1374 1.374 . S
C1374 H1348 0.950 . S
C1374 C1370 1.385 . S
C1374 C1373 1.374 . S
C1375 C1372 1.499 . S
C1375 C1376 1.373 . S
C1375 C1377 1.389 . S
C1376 H1349 0.950 . S
C1376 C1362 1.377 . S
C1376 C1375 1.373 . S
C1377 C1361 1.377 . S
C1377 C1375 1.389 . S
C1377 C1378 1.524 . S
C1378 C1377 1.524 . S
C1378 C1379 1.397 . S
C1378 C1383 1.363 . S
C1379 H1350 0.950 . S
C1379 C1378 1.397 . S
C1379 C1380 1.334 . S
C1380 H1351 0.950 . S
C1380 C1379 1.334 . S
C1380 C1381 1.287 . S
C1381 C1380 1.287 . S
C1381 C1382 1.524 . S
C1381 H1384 0.999 . S
C1382 H1352 0.950 . S
C1382 C1381 1.524 . S
C1382 C1383 1.415 . S
C1383 H1353 0.950 . S
C1383 C1378 1.363 . S
C1383 C1382 1.415 . S
H1384 C1381 0.999 . S
H1385 C1366 0.913 . S
H1386 C1404 0.951 . S
H1387 C1406 0.951 . S
H1388 C1408 0.950 . S
H1389 C1409 0.950 . S
H1390 C1411 0.950 . S
H1391 C1414 0.950 . S
H1392 C1415 0.950 . S
H1393 C1417 0.950 . S
H1394 C1418 0.950 . S
H1395 C1419 0.951 . S
H1396 C1421 0.951 . S
H1397 C1423 0.950 . S
H1398 C1424 0.950 . S
H1399 C1426 0.950 . S
H1400 C1429 0.950 . S
H1401 C1430 0.944 1_565 S
H1402 C1432 0.950 . S
H1403 C1433 0.950 . S
C1404 H1386 0.951 . S
C1404 C1405 1.366 . S
C1404 C1406 1.388 . S
C1405 C1404 1.366 . S
C1405 C1409 1.385 . S
C1406 H1387 0.951 . S
C1406 C1404 1.388 . S
C1406 C1407 1.366 . S
C1407 C1406 1.366 . S
C1407 C1408 1.414 . S
C1407 C1410 1.499 . S
C1408 H1388 0.950 . S
C1408 C1407 1.414 . S
C1408 C1409 1.374 . S
C1409 H1389 0.950 . S
C1409 C1405 1.385 . S
C1409 C1408 1.374 . S
C1410 C1407 1.499 . S
C1410 C1411 1.373 . S
C1410 C1412 1.389 . S
C1411 H1390 0.950 . S
C1411 C1410 1.373 . S
C1411 C1427 1.377 . S
C1412 C1410 1.389 . S
C1412 C1413 1.524 . S
C1412 C1426 1.377 . S
C1413 C1412 1.524 . S
C1413 C1414 1.397 . S
C1413 C1418 1.363 . S
C1414 H1391 0.950 . S
C1414 C1413 1.397 . S
C1414 C1415 1.334 . S
C1415 H1392 0.950 . S
C1415 C1414 1.334 . S
C1415 C1416 1.287 . S
C1416 C1415 1.287 . S
C1416 C1417 1.524 . S
C1416 H1435 0.913 . S
C1417 H1393 0.950 . S
C1417 C1416 1.524 . S
C1417 C1418 1.415 . S
C1418 H1394 0.950 . S
C1418 C1413 1.363 . S
C1418 C1417 1.415 . S
C1419 H1395 0.951 . S
C1419 C1420 1.366 . S
C1419 C1421 1.388 . S
C1420 C1419 1.366 . S
C1420 C1424 1.385 . S
C1421 H1396 0.951 . S
C1421 C1419 1.388 . S
C1421 C1422 1.366 1_565 S
C1422 C1421 1.366 1_545 S
C1422 C1423 1.414 . S
C1422 C1425 1.499 . S
C1423 H1397 0.950 . S
C1423 C1422 1.414 . S
C1423 C1424 1.374 1_545 S
C1424 H1398 0.950 . S
C1424 C1420 1.385 . S
C1424 C1423 1.374 1_565 S
C1425 C1422 1.499 . S
C1425 C1426 1.373 . S
C1425 C1427 1.389 . S
C1426 H1399 0.950 . S
C1426 C1412 1.377 . S
C1426 C1425 1.373 . S
C1427 C1411 1.377 . S
C1427 C1425 1.389 . S
C1427 C1428 1.524 . S
C1428 C1427 1.524 . S
C1428 C1429 1.397 . S
C1428 C1433 1.363 . S
C1429 H1400 0.950 . S
C1429 C1428 1.397 . S
C1429 C1430 1.349 . S
C1430 H1401 0.944 1_545 S
C1430 C1429 1.349 . S
C1430 C1431 1.280 1_545 S
C1431 C1430 1.280 1_565 S
C1431 C1432 1.524 . S
C1431 H1434 0.999 . S
C1432 H1402 0.950 . S
C1432 C1431 1.524 . S
C1432 C1433 1.415 1_565 S
C1433 H1403 0.950 . S
C1433 C1428 1.363 . S
C1433 C1432 1.415 1_545 S
H1434 C1431 0.999 . S
H1435 C1416 0.913 . S
H1436 C1454 0.951 . S
H1437 C1456 0.951 . S
H1438 C1458 0.950 . S
H1439 C1459 0.950 . S
H1440 C1461 0.950 . S
H1441 C1464 0.950 . S
H1442 C1465 0.950 . S
H1443 C1467 0.950 . S
H1444 C1468 0.950 . S
H1445 C1469 0.951 . S
H1446 C1471 0.951 . S
H1447 C1473 0.950 . S
H1448 C1474 0.950 . S
H1449 C1476 0.950 . S
H1450 C1479 0.950 . S
H1451 C1480 0.950 . S
H1452 C1482 0.950 . S
H1453 C1483 0.950 . S
C1454 H1436 0.951 . S
C1454 C1455 1.366 . S
C1454 C1456 1.388 . S
C1455 C1454 1.366 . S
C1455 C1459 1.385 . S
C1456 H1437 0.951 . S
C1456 C1454 1.388 . S
C1456 C1457 1.366 . S
C1457 C1456 1.366 . S
C1457 C1458 1.414 . S
C1457 C1460 1.499 . S
C1458 H1438 0.950 . S
C1458 C1457 1.414 . S
C1458 C1459 1.374 . S
C1459 H1439 0.950 . S
C1459 C1455 1.385 . S
C1459 C1458 1.374 . S
C1460 C1457 1.499 . S
C1460 C1461 1.373 . S
C1460 C1462 1.389 . S
C1461 H1440 0.950 . S
C1461 C1460 1.373 . S
C1461 C1477 1.377 . S
C1462 C1460 1.389 . S
C1462 C1463 1.524 . S
C1462 C1476 1.377 . S
C1463 C1462 1.524 . S
C1463 C1464 1.397 . S
C1463 C1468 1.363 . S
C1464 H1441 0.950 . S
C1464 C1463 1.397 . S
C1464 C1465 1.334 . S
C1465 H1442 0.950 . S
C1465 C1464 1.334 . S
C1465 C1466 1.287 . S
C1466 C1465 1.287 . S
C1466 C1467 1.524 . S
C1466 H1485 0.913 . S
C1467 H1443 0.950 . S
C1467 C1466 1.524 . S
C1467 C1468 1.415 . S
C1468 H1444 0.950 . S
C1468 C1463 1.363 . S
C1468 C1467 1.415 . S
C1469 H1445 0.951 . S
C1469 C1470 1.366 . S
C1469 C1471 1.388 . S
C1470 C1469 1.366 . S
C1470 C1474 1.385 1_556 S
C1471 H1446 0.951 . S
C1471 C1469 1.388 . S
C1471 C1472 1.366 1_556 S
C1472 C1471 1.366 1_554 S
C1472 C1473 1.414 . S
C1472 C1475 1.499 . S
C1473 H1447 0.950 . S
C1473 C1472 1.414 . S
C1473 C1474 1.374 . S
C1474 H1448 0.950 . S
C1474 C1470 1.385 1_554 S
C1474 C1473 1.374 . S
C1475 C1472 1.499 . S
C1475 C1476 1.373 . S
C1475 C1477 1.389 . S
C1476 H1449 0.950 . S
C1476 C1462 1.377 . S
C1476 C1475 1.373 . S
C1477 C1461 1.377 . S
C1477 C1475 1.389 . S
C1477 C1478 1.524 1_554 S
C1478 C1477 1.524 1_556 S
C1478 C1479 1.397 . S
C1478 C1483 1.363 . S
C1479 H1450 0.950 . S
C1479 C1478 1.397 . S
C1479 C1480 1.334 . S
C1480 H1451 0.950 . S
C1480 C1479 1.334 . S
C1480 C1481 1.287 . S
C1481 C1480 1.287 . S
C1481 C1482 1.524 . S
C1481 H1484 0.999 . S
C1482 H1452 0.950 . S
C1482 C1481 1.524 . S
C1482 C1483 1.415 . S
C1483 H1453 0.950 . S
C1483 C1478 1.363 . S
C1483 C1482 1.415 . S
H1484 C1481 0.999 . S
H1485 C1466 0.913 . S
H1486 C1504 0.951 . S
H1487 C1506 0.918 1_565 S
H1488 C1508 0.950 . S
H1489 C1509 0.950 . S
H1490 C1511 0.950 . S
H1491 C1514 0.950 . S
H1492 C1515 0.950 . S
H1493 C1517 0.950 . S
H1494 C1518 0.950 . S
H1495 C1519 0.951 . S
H1496 C1521 0.951 . S
H1497 C1523 0.950 . S
H1498 C1524 0.950 . S
H1499 C1526 0.950 . S
H1500 C1529 0.950 . S
H1501 C1530 0.950 . S
H1502 C1532 0.950 . S
H1503 C1533 0.950 . S
C1504 H1486 0.951 . S
C1504 C1505 1.366 . S
C1504 C1506 1.431 . S
C1505 C1504 1.366 . S
C1505 C1509 1.385 . S
C1506 H1487 0.918 1_545 S
C1506 C1504 1.431 . S
C1506 C1507 1.357 1_545 S
C1507 C1506 1.357 1_565 S
C1507 C1508 1.414 1_565 S
C1507 C1510 1.499 . S
C1508 H1488 0.950 . S
C1508 C1507 1.414 1_545 S
C1508 C1509 1.374 . S
C1509 H1489 0.950 . S
C1509 C1505 1.385 . S
C1509 C1508 1.374 . S
C1510 C1507 1.499 . S
C1510 C1511 1.373 . S
C1510 C1512 1.389 . S
C1511 H1490 0.950 . S
C1511 C1510 1.373 . S
C1511 C1527 1.377 . S
C1512 C1510 1.389 . S
C1512 C1513 1.524 . S
C1512 C1526 1.377 . S
C1513 C1512 1.524 . S
C1513 C1514 1.397 . S
C1513 C1518 1.363 . S
C1514 H1491 0.950 . S
C1514 C1513 1.397 . S
C1514 C1515 1.334 . S
C1515 H1492 0.950 . S
C1515 C1514 1.334 . S
C1515 C1516 1.287 . S
C1516 C1515 1.287 . S
C1516 C1517 1.524 . S
C1516 H1535 0.913 . S
C1517 H1493 0.950 . S
C1517 C1516 1.524 . S
C1517 C1518 1.415 . S
C1518 H1494 0.950 . S
C1518 C1513 1.363 . S
C1518 C1517 1.415 . S
C1519 H1495 0.951 . S
C1519 C1520 1.366 . S
C1519 C1521 1.388 . S
C1520 C1519 1.366 . S
C1520 C1524 1.385 . S
C1521 H1496 0.951 . S
C1521 C1519 1.388 . S
C1521 C1522 1.366 . S
C1522 C1521 1.366 . S
C1522 C1523 1.414 . S
C1522 C1525 1.499 . S
C1523 H1497 0.950 . S
C1523 C1522 1.414 . S
C1523 C1524 1.374 . S
C1524 H1498 0.950 . S
C1524 C1520 1.385 . S
C1524 C1523 1.374 . S
C1525 C1522 1.499 . S
C1525 C1526 1.373 . S
C1525 C1527 1.389 . S
C1526 H1499 0.950 . S
C1526 C1512 1.377 . S
C1526 C1525 1.373 . S
C1527 C1511 1.377 . S
C1527 C1525 1.389 . S
C1527 C1528 1.524 . S
C1528 C1527 1.524 . S
C1528 C1529 1.397 . S
C1528 C1533 1.363 . S
C1529 H1500 0.950 . S
C1529 C1528 1.397 . S
C1529 C1530 1.334 . S
C1530 H1501 0.950 . S
C1530 C1529 1.334 . S
C1530 C1531 1.287 . S
C1531 C1530 1.287 . S
C1531 C1532 1.524 . S
C1531 H1534 0.999 . S
C1532 H1502 0.950 . S
C1532 C1531 1.524 . S
C1532 C1533 1.415 . S
C1533 H1503 0.950 . S
C1533 C1528 1.363 . S
C1533 C1532 1.415 . S
H1534 C1531 0.999 . S
H1535 C1516 0.913 . S
H1536 C1554 0.951 . S
H1537 C1556 0.951 . S
H1538 C1558 0.950 . S
H1539 C1559 0.950 1_554 S
H1540 C1561 0.950 . S
H1541 C1564 0.950 . S
H1542 C1565 0.950 . S
H1543 C1567 0.950 . S
H1544 C1568 0.950 . S
H1545 C1569 0.951 . S
H1546 C1571 0.951 . S
H1547 C1573 0.950 . S
H1548 C1574 0.950 . S
H1549 C1576 0.950 . S
H1550 C1579 0.950 . S
H1551 C1580 0.950 . S
H1552 C1582 0.950 . S
H1553 C1583 0.950 . S
C1554 H1536 0.951 . S
C1554 C1555 1.366 . S
C1554 C1556 1.388 . S
C1555 C1554 1.366 . S
C1555 C1559 1.385 . S
C1556 H1537 0.951 . S
C1556 C1554 1.388 . S
C1556 C1557 1.366 . S
C1557 C1556 1.366 . S
C1557 C1558 1.414 . S
C1557 C1560 1.499 . S
C1558 H1538 0.950 . S
C1558 C1557 1.414 . S
C1558 C1559 1.374 . S
C1559 H1539 0.950 1_556 S
C1559 C1555 1.385 . S
C1559 C1558 1.374 . S
C1560 C1557 1.499 . S
C1560 C1561 1.373 . S
C1560 C1562 1.389 . S
C1561 H1540 0.950 . S
C1561 C1560 1.373 . S
C1561 C1577 1.377 . S
C1562 C1560 1.389 . S
C1562 C1563 1.524 . S
C1562 C1576 1.377 . S
C1563 C1562 1.524 . S
C1563 C1564 1.397 . S
C1563 C1568 1.363 . S
C1564 H1541 0.950 . S
C1564 C1563 1.397 . S
C1564 C1565 1.334 . S
C1565 H1542 0.950 . S
C1565 C1564 1.334 . S
C1565 C1566 1.287 . S
C1566 C1565 1.287 . S
C1566 C1567 1.524 . S
C1566 H1585 0.913 . S
C1567 H1543 0.950 . S
C1567 C1566 1.524 . S
C1567 C1568 1.415 . S
C1568 H1544 0.950 . S
C1568 C1563 1.363 . S
C1568 C1567 1.415 . S
C1569 H1545 0.951 . S
C1569 C1570 1.366 . S
C1569 C1571 1.388 . S
C1570 C1569 1.366 . S
C1570 C1574 1.385 . S
C1571 H1546 0.951 . S
C1571 C1569 1.388 . S
C1571 C1572 1.366 . S
C1572 C1571 1.366 . S
C1572 C1573 1.414 . S
C1572 C1575 1.499 . S
C1573 H1547 0.950 . S
C1573 C1572 1.414 . S
C1573 C1574 1.374 . S
C1574 H1548 0.950 . S
C1574 C1570 1.385 . S
C1574 C1573 1.374 . S
C1575 C1572 1.499 . S
C1575 C1576 1.373 . S
C1575 C1577 1.389 . S
C1576 H1549 0.950 . S
C1576 C1562 1.377 . S
C1576 C1575 1.373 . S
C1577 C1561 1.377 . S
C1577 C1575 1.389 . S
C1577 C1578 1.524 . S
C1578 C1577 1.524 . S
C1578 C1579 1.397 . S
C1578 C1583 1.363 . S
C1579 H1550 0.950 . S
C1579 C1578 1.397 . S
C1579 C1580 1.334 . S
C1580 H1551 0.950 . S
C1580 C1579 1.334 . S
C1580 C1581 1.287 . S
C1581 C1580 1.287 . S
C1581 C1582 1.524 . S
C1581 H1584 0.999 . S
C1582 H1552 0.950 . S
C1582 C1581 1.524 . S
C1582 C1583 1.415 . S
C1583 H1553 0.950 . S
C1583 C1578 1.363 . S
C1583 C1582 1.415 . S
H1584 C1581 0.999 . S
H1585 C1566 0.913 . S
H1586 C1604 0.951 . S
H1587 C1606 0.951 . S
H1588 C1608 0.950 . S
H1589 C1609 0.950 . S
H1590 C1611 0.950 . S
H1591 C1614 0.950 . S
H1592 C1615 0.950 . S
H1593 C1617 0.950 . S
H1594 C1618 0.950 . S
H1595 C1619 0.970 . S
H1596 C1621 0.951 . S
H1597 C1623 0.950 . S
H1598 C1624 0.950 . S
H1599 C1626 0.950 . S
H1600 C1629 0.950 . S
H1601 C1630 0.950 . S
H1602 C1632 0.950 . S
H1603 C1633 0.950 . S
C1604 H1586 0.951 . S
C1604 C1605 1.366 . S
C1604 C1606 1.388 . S
C1605 C1604 1.366 . S
C1605 C1609 1.385 . S
C1606 H1587 0.951 . S
C1606 C1604 1.388 . S
C1606 C1607 1.366 . S
C1607 C1606 1.366 . S
C1607 C1608 1.414 . S
C1607 C1610 1.499 . S
C1608 H1588 0.950 . S
C1608 C1607 1.414 . S
C1608 C1609 1.374 . S
C1609 H1589 0.950 . S
C1609 C1605 1.385 . S
C1609 C1608 1.374 . S
C1610 C1607 1.499 . S
C1610 C1611 1.373 . S
C1610 C1612 1.389 . S
C1611 H1590 0.950 . S
C1611 C1610 1.373 . S
C1611 C1627 1.377 . S
C1612 C1610 1.389 . S
C1612 C1613 1.524 . S
C1612 C1626 1.377 . S
C1613 C1612 1.524 . S
C1613 C1614 1.397 . S
C1613 C1618 1.363 . S
C1614 H1591 0.950 . S
C1614 C1613 1.397 . S
C1614 C1615 1.334 . S
C1615 H1592 0.950 . S
C1615 C1614 1.334 . S
C1615 C1616 1.287 . S
C1616 C1615 1.287 . S
C1616 C1617 1.524 . S
C1616 H1635 0.913 . S
C1617 H1593 0.950 . S
C1617 C1616 1.524 . S
C1617 C1618 1.415 . S
C1618 H1594 0.950 . S
C1618 C1613 1.363 . S
C1618 C1617 1.415 . S
C1619 H1595 0.970 . S
C1619 C1620 1.361 1_556 S
C1619 C1621 1.374 1_556 S
C1620 C1619 1.361 1_554 S
C1620 C1624 1.385 . S
C1621 H1596 0.951 . S
C1621 C1619 1.374 1_554 S
C1621 C1622 1.366 . S
C1622 C1621 1.366 . S
C1622 C1623 1.414 . S
C1622 C1625 1.499 . S
C1623 H1597 0.950 . S
C1623 C1622 1.414 . S
C1623 C1624 1.374 . S
C1624 H1598 0.950 . S
C1624 C1620 1.385 . S
C1624 C1623 1.374 . S
C1625 C1622 1.499 . S
C1625 C1626 1.373 . S
C1625 C1627 1.389 . S
C1626 H1599 0.950 . S
C1626 C1612 1.377 . S
C1626 C1625 1.373 . S
C1627 C1611 1.377 . S
C1627 C1625 1.389 . S
C1627 C1628 1.524 . S
C1628 C1627 1.524 . S
C1628 C1629 1.397 . S
C1628 C1633 1.363 . S
C1629 H1600 0.950 . S
C1629 C1628 1.397 . S
C1629 C1630 1.334 . S
C1630 H1601 0.950 . S
C1630 C1629 1.334 . S
C1630 C1631 1.287 . S
C1631 C1630 1.287 . S
C1631 C1632 1.524 . S
C1631 H1634 0.999 . S
C1632 H1602 0.950 . S
C1632 C1631 1.524 . S
C1632 C1633 1.415 . S
C1633 H1603 0.950 . S
C1633 C1628 1.363 . S
C1633 C1632 1.415 . S
H1634 C1631 0.999 . S
H1635 C1616 0.913 . S
H1636 C1654 0.951 . S
H1637 C1656 0.951 . S
H1638 C1658 0.950 . S
H1639 C1659 0.950 . S
H1640 C1661 0.950 . S
H1641 C1664 0.950 . S
H1642 C1665 0.950 . S
H1643 C1667 0.950 . S
H1644 C1668 0.950 . S
H1645 C1669 0.951 . S
H1646 C1671 0.951 . S
H1647 C1673 0.950 . S
H1648 C1674 0.950 . S
H1649 C1676 0.950 . S
H1650 C1679 0.950 . S
H1651 C1680 0.950 . S
H1652 C1682 0.950 . S
H1653 C1683 0.950 . S
C1654 H1636 0.951 . S
C1654 C1655 1.366 . S
C1654 C1656 1.388 . S
C1655 C1654 1.366 . S
C1655 C1659 1.385 1_655 S
C1656 H1637 0.951 . S
C1656 C1654 1.388 . S
C1656 C1657 1.366 1_655 S
C1657 C1656 1.366 1_455 S
C1657 C1658 1.414 . S
C1657 C1660 1.499 . S
C1658 H1638 0.950 . S
C1658 C1657 1.414 . S
C1658 C1659 1.374 . S
C1659 H1639 0.950 . S
C1659 C1655 1.385 1_455 S
C1659 C1658 1.374 . S
C1660 C1657 1.499 . S
C1660 C1661 1.373 . S
C1660 C1662 1.389 . S
C1661 H1640 0.950 . S
C1661 C1660 1.373 . S
C1661 C1677 1.377 . S
C1662 C1660 1.389 . S
C1662 C1663 1.524 . S
C1662 C1676 1.377 . S
C1663 C1662 1.524 . S
C1663 C1664 1.397 . S
C1663 C1668 1.363 . S
C1664 H1641 0.950 . S
C1664 C1663 1.397 . S
C1664 C1665 1.334 . S
C1665 H1642 0.950 . S
C1665 C1664 1.334 . S
C1665 C1666 1.287 1_455 S
C1666 C1665 1.287 1_655 S
C1666 C1667 1.524 . S
C1666 H1685 0.913 . S
C1667 H1643 0.950 . S
C1667 C1666 1.524 . S
C1667 C1668 1.415 1_655 S
C1668 H1644 0.950 . S
C1668 C1663 1.363 . S
C1668 C1667 1.415 1_455 S
C1669 H1645 0.951 . S
C1669 C1670 1.366 . S
C1669 C1671 1.388 . S
C1670 C1669 1.366 . S
C1670 C1674 1.385 . S
C1671 H1646 0.951 . S
C1671 C1669 1.388 . S
C1671 C1672 1.366 . S
C1672 C1671 1.366 . S
C1672 C1673 1.414 . S
C1672 C1675 1.499 . S
C1673 H1647 0.950 . S
C1673 C1672 1.414 . S
C1673 C1674 1.374 . S
C1674 H1648 0.950 . S
C1674 C1670 1.385 . S
C1674 C1673 1.374 . S
C1675 C1672 1.499 . S
C1675 C1676 1.373 . S
C1675 C1677 1.389 . S
C1676 H1649 0.950 . S
C1676 C1662 1.377 . S
C1676 C1675 1.373 . S
C1677 C1661 1.377 . S
C1677 C1675 1.389 . S
C1677 C1678 1.524 . S
C1678 C1677 1.524 . S
C1678 C1679 1.397 . S
C1678 C1683 1.363 . S
C1679 H1650 0.950 . S
C1679 C1678 1.397 . S
C1679 C1680 1.334 . S
C1680 H1651 0.950 . S
C1680 C1679 1.334 . S
C1680 C1681 1.287 . S
C1681 C1680 1.287 . S
C1681 C1682 1.524 . S
C1681 H1684 0.999 . S
C1682 H1652 0.950 . S
C1682 C1681 1.524 . S
C1682 C1683 1.415 . S
C1683 H1653 0.950 . S
C1683 C1678 1.363 . S
C1683 C1682 1.415 . S
H1684 C1681 0.999 . S
H1685 C1666 0.913 . S
H1686 C1704 0.951 . S
H1687 C1706 0.951 . S
H1688 C1708 0.950 . S
H1689 C1709 0.950 . S
H1690 C1711 0.950 . S
H1691 C1714 0.950 . S
H1692 C1715 0.950 . S
H1693 C1717 0.950 . S
H1694 C1718 0.950 . S
H1695 C1719 0.951 . S
H1696 C1721 0.951 . S
H1697 C1723 0.950 . S
H1698 C1724 0.950 . S
H1699 C1726 0.950 . S
H1700 C1729 0.950 . S
H1701 C1730 0.950 . S
H1702 C1732 0.950 . S
H1703 C1733 0.950 . S
C1704 H1686 0.951 . S
C1704 C1705 1.366 . S
C1704 C1706 1.388 . S
C1705 C1704 1.366 . S
C1705 C1709 1.385 . S
C1706 H1687 0.951 . S
C1706 C1704 1.388 . S
C1706 C1707 1.366 . S
C1707 C1706 1.366 . S
C1707 C1708 1.414 . S
C1707 C1710 1.499 . S
C1708 H1688 0.950 . S
C1708 C1707 1.414 . S
C1708 C1709 1.374 . S
C1709 H1689 0.950 . S
C1709 C1705 1.385 . S
C1709 C1708 1.374 . S
C1710 C1707 1.499 . S
C1710 C1711 1.373 . S
C1710 C1712 1.389 . S
C1711 H1690 0.950 . S
C1711 C1710 1.373 . S
C1711 C1727 1.377 . S
C1712 C1710 1.389 . S
C1712 C1713 1.524 . S
C1712 C1726 1.377 . S
C1713 C1712 1.524 . S
C1713 C1714 1.397 . S
C1713 C1718 1.363 . S
C1714 H1691 0.950 . S
C1714 C1713 1.397 . S
C1714 C1715 1.334 . S
C1715 H1692 0.950 . S
C1715 C1714 1.334 . S
C1715 C1716 1.287 . S
C1716 C1715 1.287 . S
C1716 C1717 1.524 . S
C1716 H1735 0.913 . S
C1717 H1693 0.950 . S
C1717 C1716 1.524 . S
C1717 C1718 1.415 . S
C1718 H1694 0.950 . S
C1718 C1713 1.363 . S
C1718 C1717 1.415 . S
C1719 H1695 0.951 . S
C1719 C1720 1.366 . S
C1719 C1721 1.388 . S
C1720 C1719 1.366 . S
C1720 C1724 1.385 . S
C1721 H1696 0.951 . S
C1721 C1719 1.388 . S
C1721 C1722 1.366 . S
C1722 C1721 1.366 . S
C1722 C1723 1.414 . S
C1722 C1725 1.499 . S
C1723 H1697 0.950 . S
C1723 C1722 1.414 . S
C1723 C1724 1.374 . S
C1724 H1698 0.950 . S
C1724 C1720 1.385 . S
C1724 C1723 1.374 . S
C1725 C1722 1.499 . S
C1725 C1726 1.373 . S
C1725 C1727 1.389 . S
C1726 H1699 0.950 . S
C1726 C1712 1.377 . S
C1726 C1725 1.373 . S
C1727 C1711 1.377 . S
C1727 C1725 1.389 . S
C1727 C1728 1.524 . S
C1728 C1727 1.524 . S
C1728 C1729 1.397 . S
C1728 C1733 1.363 . S
C1729 H1700 0.950 . S
C1729 C1728 1.397 . S
C1729 C1730 1.334 . S
C1730 H1701 0.950 . S
C1730 C1729 1.334 . S
C1730 C1731 1.287 . S
C1731 C1730 1.287 . S
C1731 C1732 1.524 . S
C1731 H1734 0.999 . S
C1732 H1702 0.950 . S
C1732 C1731 1.524 . S
C1732 C1733 1.415 . S
C1733 H1703 0.950 . S
C1733 C1728 1.363 . S
C1733 C1732 1.415 . S
H1734 C1731 0.999 . S
H1735 C1716 0.913 . S
H1736 C1754 0.951 1_556 S
H1737 C1756 0.951 . S
H1738 C1758 0.950 . S
H1739 C1759 0.950 . S
H1740 C1761 0.950 . S
H1741 C1764 0.950 . S
H1742 C1765 0.950 . S
H1743 C1767 0.950 . S
H1744 C1768 0.950 . S
H1745 C1769 0.951 . S
H1746 C1771 0.951 . S
H1747 C1773 0.950 . S
H1748 C1774 0.950 . S
H1749 C1776 0.950 . S
H1750 C1779 0.950 . S
H1751 C1780 0.950 . S
H1752 C1782 0.950 . S
H1753 C1783 0.950 . S
C1754 H1736 0.951 1_554 S
C1754 C1755 1.366 . S
C1754 C1756 1.388 . S
C1755 C1754 1.366 . S
C1755 C1759 1.385 . S
C1756 H1737 0.951 . S
C1756 C1754 1.388 . S
C1756 C1757 1.366 . S
C1757 C1756 1.366 . S
C1757 C1758 1.414 . S
C1757 C1760 1.499 . S
C1758 H1738 0.950 . S
C1758 C1757 1.414 . S
C1758 C1759 1.374 . S
C1759 H1739 0.950 . S
C1759 C1755 1.385 . S
C1759 C1758 1.374 . S
C1760 C1757 1.499 . S
C1760 C1761 1.373 . S
C1760 C1762 1.389 . S
C1761 H1740 0.950 . S
C1761 C1760 1.373 . S
C1761 C1777 1.377 . S
C1762 C1760 1.389 . S
C1762 C1763 1.524 . S
C1762 C1776 1.377 . S
C1763 C1762 1.524 . S
C1763 C1764 1.397 . S
C1763 C1768 1.363 . S
C1764 H1741 0.950 . S
C1764 C1763 1.397 . S
C1764 C1765 1.334 . S
C1765 H1742 0.950 . S
C1765 C1764 1.334 . S
C1765 C1766 1.287 . S
C1766 C1765 1.287 . S
C1766 C1767 1.524 . S
C1766 H1785 0.913 . S
C1767 H1743 0.950 . S
C1767 C1766 1.524 . S
C1767 C1768 1.415 . S
C1768 H1744 0.950 . S
C1768 C1763 1.363 . S
C1768 C1767 1.415 . S
C1769 H1745 0.951 . S
C1769 C1770 1.366 . S
C1769 C1771 1.388 . S
C1770 C1769 1.366 . S
C1770 C1774 1.385 . S
C1771 H1746 0.951 . S
C1771 C1769 1.388 . S
C1771 C1772 1.366 . S
C1772 C1771 1.366 . S
C1772 C1773 1.414 . S
C1772 C1775 1.499 . S
C1773 H1747 0.950 . S
C1773 C1772 1.414 . S
C1773 C1774 1.374 . S
C1774 H1748 0.950 . S
C1774 C1770 1.385 . S
C1774 C1773 1.374 . S
C1775 C1772 1.499 . S
C1775 C1776 1.373 . S
C1775 C1777 1.389 . S
C1776 H1749 0.950 . S
C1776 C1762 1.377 . S
C1776 C1775 1.373 . S
C1777 C1761 1.377 . S
C1777 C1775 1.389 . S
C1777 C1778 1.524 . S
C1778 C1777 1.524 . S
C1778 C1779 1.397 . S
C1778 C1783 1.363 . S
C1779 H1750 0.950 . S
C1779 C1778 1.397 . S
C1779 C1780 1.334 . S
C1780 H1751 0.950 . S
C1780 C1779 1.334 . S
C1780 C1781 1.287 . S
C1781 C1780 1.287 . S
C1781 C1782 1.524 . S
C1781 H1784 0.999 . S
C1782 H1752 0.950 . S
C1782 C1781 1.524 . S
C1782 C1783 1.415 . S
C1783 H1753 0.950 . S
C1783 C1778 1.363 . S
C1783 C1782 1.415 . S
H1784 C1781 0.999 . S
H1785 C1766 0.913 . S
H1786 C1804 0.951 . S
H1787 C1806 0.951 . S
H1788 C1808 0.950 . S
H1789 C1809 0.950 . S
H1790 C1811 0.950 . S
H1791 C1814 0.950 . S
H1792 C1815 0.950 . S
H1793 C1817 0.950 . S
H1794 C1818 0.950 . S
H1795 C1819 0.950 . S
H1796 C1821 0.951 . S
H1797 C1823 0.950 . S
H1798 C1824 0.950 . S
H1799 C1826 0.950 . S
H1800 C1829 0.950 . S
H1801 C1830 0.950 . S
H1802 C1832 0.950 1_554 S
H1803 C1833 0.950 . S
C1804 H1786 0.951 . S
C1804 C1805 1.366 . S
C1804 C1806 1.388 . S
C1805 C1804 1.366 . S
C1805 C1809 1.385 . S
C1806 H1787 0.951 . S
C1806 C1804 1.388 . S
C1806 C1807 1.366 . S
C1807 C1806 1.366 . S
C1807 C1808 1.414 . S
C1807 C1810 1.499 . S
C1808 H1788 0.950 . S
C1808 C1807 1.414 . S
C1808 C1809 1.374 . S
C1809 H1789 0.950 . S
C1809 C1805 1.385 . S
C1809 C1808 1.374 . S
C1810 C1807 1.499 . S
C1810 C1811 1.373 . S
C1810 C1812 1.389 . S
C1811 H1790 0.950 . S
C1811 C1810 1.373 . S
C1811 C1827 1.377 . S
C1812 C1810 1.389 . S
C1812 C1813 1.524 . S
C1812 C1826 1.377 . S
C1813 C1812 1.524 . S
C1813 C1814 1.397 . S
C1813 C1818 1.363 . S
C1814 H1791 0.950 . S
C1814 C1813 1.397 . S
C1814 C1815 1.334 . S
C1815 H1792 0.950 . S
C1815 C1814 1.334 . S
C1815 C1816 1.287 . S
C1816 C1815 1.287 . S
C1816 C1817 1.524 . S
C1816 H1835 0.913 . S
C1817 H1793 0.950 . S
C1817 C1816 1.524 . S
C1817 C1818 1.415 . S
C1818 H1794 0.950 . S
C1818 C1813 1.363 . S
C1818 C1817 1.415 . S
C1819 H1795 0.950 . S
C1819 C1820 1.366 1_554 S
C1819 C1821 1.389 1_554 S
C1820 C1819 1.366 1_556 S
C1820 C1824 1.385 . S
C1821 H1796 0.951 . S
C1821 C1819 1.389 1_556 S
C1821 C1822 1.366 . S
C1822 C1821 1.366 . S
C1822 C1823 1.414 . S
C1822 C1825 1.499 . S
C1823 H1797 0.950 . S
C1823 C1822 1.414 . S
C1823 C1824 1.374 . S
C1824 H1798 0.950 . S
C1824 C1820 1.385 . S
C1824 C1823 1.374 . S
C1825 C1822 1.499 . S
C1825 C1826 1.373 . S
C1825 C1827 1.389 . S
C1826 H1799 0.950 . S
C1826 C1812 1.377 . S
C1826 C1825 1.373 . S
C1827 C1811 1.377 . S
C1827 C1825 1.389 . S
C1827 C1828 1.524 . S
C1828 C1827 1.524 . S
C1828 C1829 1.397 . S
C1828 C1833 1.363 . S
C1829 H1800 0.950 . S
C1829 C1828 1.397 . S
C1829 C1830 1.334 . S
C1830 H1801 0.950 . S
C1830 C1829 1.334 . S
C1830 C1831 1.287 . S
C1831 C1830 1.287 . S
C1831 C1832 1.524 . S
C1831 H1834 0.999 1_556 S
C1832 H1802 0.950 1_556 S
C1832 C1831 1.524 . S
C1832 C1833 1.415 . S
C1833 H1803 0.950 . S
C1833 C1828 1.363 . S
C1833 C1832 1.415 . S
H1834 C1831 0.999 1_554 S
H1835 C1816 0.913 . S
H1836 C1854 0.951 . S
H1837 C1856 0.951 . S
H1838 C1858 0.950 . S
H1839 C1859 0.950 . S
H1840 C1861 0.950 . S
H1841 C1864 0.950 . S
H1842 C1865 0.950 1_455 S
H1843 C1867 0.950 . S
H1844 C1868 0.950 . S
H1845 C1869 0.951 . S
H1846 C1871 0.951 . S
H1847 C1873 0.950 . S
H1848 C1874 0.950 . S
H1849 C1876 0.950 . S
H1850 C1879 0.950 . S
H1851 C1880 0.950 . S
H1852 C1882 0.950 . S
H1853 C1883 0.950 . S
C1854 H1836 0.951 . S
C1854 C1855 1.366 1_655 S
C1854 C1856 1.388 . S
C1855 C1854 1.366 1_455 S
C1855 C1859 1.385 . S
C1856 H1837 0.951 . S
C1856 C1854 1.388 . S
C1856 C1857 1.366 . S
C1857 C1856 1.366 . S
C1857 C1858 1.414 1_655 S
C1857 C1860 1.499 . S
C1858 H1838 0.950 . S
C1858 C1857 1.414 1_455 S
C1858 C1859 1.374 . S
C1859 H1839 0.950 . S
C1859 C1855 1.385 . S
C1859 C1858 1.374 . S
C1860 C1857 1.499 . S
C1860 C1861 1.373 . S
C1860 C1862 1.389 . S
C1861 H1840 0.950 . S
C1861 C1860 1.373 . S
C1861 C1877 1.377 . S
C1862 C1860 1.389 . S
C1862 C1863 1.524 . S
C1862 C1876 1.377 . S
C1863 C1862 1.524 . S
C1863 C1864 1.397 . S
C1863 C1868 1.363 . S
C1864 H1841 0.950 . S
C1864 C1863 1.397 . S
C1864 C1865 1.334 . S
C1865 H1842 0.950 1_655 S
C1865 C1864 1.334 . S
C1865 C1866 1.287 . S
C1866 C1865 1.287 . S
C1866 C1867 1.524 . S
C1866 H1885 0.913 . S
C1867 H1843 0.950 . S
C1867 C1866 1.524 . S
C1867 C1868 1.415 . S
C1868 H1844 0.950 . S
C1868 C1863 1.363 . S
C1868 C1867 1.415 . S
C1869 H1845 0.951 . S
C1869 C1870 1.366 . S
C1869 C1871 1.388 . S
C1870 C1869 1.366 . S
C1870 C1874 1.385 . S
C1871 H1846 0.951 . S
C1871 C1869 1.388 . S
C1871 C1872 1.366 . S
C1872 C1871 1.366 . S
C1872 C1873 1.414 . S
C1872 C1875 1.499 . S
C1873 H1847 0.950 . S
C1873 C1872 1.414 . S
C1873 C1874 1.374 . S
C1874 H1848 0.950 . S
C1874 C1870 1.385 . S
C1874 C1873 1.374 . S
C1875 C1872 1.499 . S
C1875 C1876 1.373 . S
C1875 C1877 1.389 . S
C1876 H1849 0.950 . S
C1876 C1862 1.377 . S
C1876 C1875 1.373 . S
C1877 C1861 1.377 . S
C1877 C1875 1.389 . S
C1877 C1878 1.524 . S
C1878 C1877 1.524 . S
C1878 C1879 1.397 . S
C1878 C1883 1.363 . S
C1879 H1850 0.950 . S
C1879 C1878 1.397 . S
C1879 C1880 1.334 . S
C1880 H1851 0.950 . S
C1880 C1879 1.334 . S
C1880 C1881 1.287 . S
C1881 C1880 1.287 . S
C1881 C1882 1.524 . S
C1881 H1884 0.999 . S
C1882 H1852 0.950 . S
C1882 C1881 1.524 . S
C1882 C1883 1.415 . S
C1883 H1853 0.950 . S
C1883 C1878 1.363 . S
C1883 C1882 1.415 . S
H1884 C1881 0.999 . S
H1885 C1866 0.913 . S
H1886 C1904 0.951 . S
H1887 C1906 0.951 . S
H1888 C1908 0.950 . S
H1889 C1909 0.950 . S
H1890 C1911 0.950 . S
H1891 C1914 0.950 . S
H1892 C1915 0.950 . S
H1893 C1917 0.950 . S
H1894 C1918 0.950 . S
H1895 C1919 0.951 . S
H1896 C1921 0.951 . S
H1897 C1923 0.950 . S
H1898 C1924 0.950 . S
H1899 C1926 0.950 . S
H1900 C1929 0.950 . S
H1901 C1930 0.950 . S
H1902 C1932 0.950 . S
H1903 C1933 0.950 . S
C1904 H1886 0.951 . S
C1904 C1905 1.366 . S
C1904 C1906 1.388 . S
C1905 C1904 1.366 . S
C1905 C1909 1.385 . S
C1906 H1887 0.951 . S
C1906 C1904 1.388 . S
C1906 C1907 1.366 . S
C1907 C1906 1.366 . S
C1907 C1908 1.414 . S
C1907 C1910 1.499 . S
C1908 H1888 0.950 . S
C1908 C1907 1.414 . S
C1908 C1909 1.374 . S
C1909 H1889 0.950 . S
C1909 C1905 1.385 . S
C1909 C1908 1.374 . S
C1910 C1907 1.499 . S
C1910 C1911 1.373 . S
C1910 C1912 1.389 . S
C1911 H1890 0.950 . S
C1911 C1910 1.373 . S
C1911 C1927 1.377 . S
C1912 C1910 1.389 . S
C1912 C1913 1.524 . S
C1912 C1926 1.377 . S
C1913 C1912 1.524 . S
C1913 C1914 1.397 . S
C1913 C1918 1.363 . S
C1914 H1891 0.950 . S
C1914 C1913 1.397 . S
C1914 C1915 1.334 . S
C1915 H1892 0.950 . S
C1915 C1914 1.334 . S
C1915 C1916 1.287 . S
C1916 C1915 1.287 . S
C1916 C1917 1.524 . S
C1916 H1935 0.913 . S
C1917 H1893 0.950 . S
C1917 C1916 1.524 . S
C1917 C1918 1.415 . S
C1918 H1894 0.950 . S
C1918 C1913 1.363 . S
C1918 C1917 1.415 . S
C1919 H1895 0.951 . S
C1919 C1920 1.366 . S
C1919 C1921 1.388 . S
C1920 C1919 1.366 . S
C1920 C1924 1.385 . S
C1921 H1896 0.951 . S
C1921 C1919 1.388 . S
C1921 C1922 1.366 . S
C1922 C1921 1.366 . S
C1922 C1923 1.414 . S
C1922 C1925 1.499 . S
C1923 H1897 0.950 . S
C1923 C1922 1.414 . S
C1923 C1924 1.374 . S
C1924 H1898 0.950 . S
C1924 C1920 1.385 . S
C1924 C1923 1.374 . S
C1925 C1922 1.499 . S
C1925 C1926 1.373 . S
C1925 C1927 1.389 . S
C1926 H1899 0.950 . S
C1926 C1912 1.377 . S
C1926 C1925 1.373 . S
C1927 C1911 1.377 . S
C1927 C1925 1.389 . S
C1927 C1928 1.524 . S
C1928 C1927 1.524 . S
C1928 C1929 1.397 . S
C1928 C1933 1.363 . S
C1929 H1900 0.950 . S
C1929 C1928 1.397 . S
C1929 C1930 1.334 . S
C1930 H1901 0.950 . S
C1930 C1929 1.334 . S
C1930 C1931 1.287 . S
C1931 C1930 1.287 . S
C1931 C1932 1.524 . S
C1931 H1934 0.999 . S
C1932 H1902 0.950 . S
C1932 C1931 1.524 . S
C1932 C1933 1.415 . S
C1933 H1903 0.950 . S
C1933 C1928 1.363 . S
C1933 C1932 1.415 . S
H1934 C1931 0.999 . S
H1935 C1916 0.913 . S
H1936 C1954 0.951 . S
H1937 C1956 0.951 . S
H1938 C1958 0.950 . S
H1939 C1959 0.950 . S
H1940 C1961 0.950 . S
H1941 C1964 0.950 . S
H1942 C1965 0.950 . S
H1943 C1967 0.950 . S
H1944 C1968 0.950 . S
H1945 C1969 0.951 . S
H1946 C1971 0.951 . S
H1947 C1973 0.950 . S
H1948 C1974 0.950 . S
H1949 C1976 0.950 . S
H1950 C1979 0.950 . S
H1951 C1980 0.950 . S
H1952 C1982 0.950 . S
H1953 C1983 0.950 . S
C1954 H1936 0.951 . S
C1954 C1955 1.366 . S
C1954 C1956 1.388 . S
C1955 C1954 1.366 . S
C1955 C1959 1.385 . S
C1956 H1937 0.951 . S
C1956 C1954 1.388 . S
C1956 C1957 1.366 . S
C1957 C1956 1.366 . S
C1957 C1958 1.414 . S
C1957 C1960 1.499 . S
C1958 H1938 0.950 . S
C1958 C1957 1.414 . S
C1958 C1959 1.374 . S
C1959 H1939 0.950 . S
C1959 C1955 1.385 . S
C1959 C1958 1.374 . S
C1960 C1957 1.499 . S
C1960 C1961 1.373 . S
C1960 C1962 1.389 . S
C1961 H1940 0.950 . S
C1961 C1960 1.373 . S
C1961 C1977 1.377 . S
C1962 C1960 1.389 . S
C1962 C1963 1.524 . S
C1962 C1976 1.377 . S
C1963 C1962 1.524 . S
C1963 C1964 1.397 . S
C1963 C1968 1.363 . S
C1964 H1941 0.950 . S
C1964 C1963 1.397 . S
C1964 C1965 1.334 . S
C1965 H1942 0.950 . S
C1965 C1964 1.334 . S
C1965 C1966 1.287 . S
C1966 C1965 1.287 . S
C1966 C1967 1.524 . S
C1966 H1985 0.913 . S
C1967 H1943 0.950 . S
C1967 C1966 1.524 . S
C1967 C1968 1.415 . S
C1968 H1944 0.950 . S
C1968 C1963 1.363 . S
C1968 C1967 1.415 . S
C1969 H1945 0.951 . S
C1969 C1970 1.366 1_655 S
C1969 C1971 1.388 . S
C1970 C1969 1.366 1_455 S
C1970 C1974 1.385 . S
C1971 H1946 0.951 . S
C1971 C1969 1.388 . S
C1971 C1972 1.366 . S
C1972 C1971 1.366 . S
C1972 C1973 1.414 1_655 S
C1972 C1975 1.499 . S
C1973 H1947 0.950 . S
C1973 C1972 1.414 1_455 S
C1973 C1974 1.374 . S
C1974 H1948 0.950 . S
C1974 C1970 1.385 . S
C1974 C1973 1.374 . S
C1975 C1972 1.499 . S
C1975 C1976 1.373 . S
C1975 C1977 1.389 . S
C1976 H1949 0.950 . S
C1976 C1962 1.377 . S
C1976 C1975 1.373 . S
C1977 C1961 1.377 . S
C1977 C1975 1.389 . S
C1977 C1978 1.524 . S
C1978 C1977 1.524 . S
C1978 C1979 1.397 . S
C1978 C1983 1.363 . S
C1979 H1950 0.950 . S
C1979 C1978 1.397 . S
C1979 C1980 1.334 . S
C1980 H1951 0.950 . S
C1980 C1979 1.334 . S
C1980 C1981 1.287 . S
C1981 C1980 1.287 . S
C1981 C1982 1.524 . S
C1981 H1984 0.999 . S
C1982 H1952 0.950 . S
C1982 C1981 1.524 . S
C1982 C1983 1.415 . S
C1983 H1953 0.950 . S
C1983 C1978 1.363 . S
C1983 C1982 1.415 . S
H1984 C1981 0.999 . S
H1985 C1966 0.913 . S
H1986 C2004 0.951 . S
H1987 C2006 0.951 . S
H1988 C2008 0.950 . S
H1989 C2009 0.950 . S
H1990 C2011 0.950 . S
H1991 C2014 0.950 . S
H1992 C2015 0.950 . S
H1993 C2017 0.950 . S
H1994 C2018 0.950 . S
H1995 C2019 0.951 . S
H1996 C2021 0.951 . S
H1997 C2023 0.950 . S
H1998 C2024 0.950 . S
H1999 C2026 0.950 . S
H2000 C2029 0.950 . S
H2001 C2030 0.950 . S
H2002 C2032 0.950 . S
H2003 C2033 0.950 . S
C2004 H1986 0.951 . S
C2004 C2005 1.366 . S
C2004 C2006 1.388 . S
C2005 C2004 1.366 . S
C2005 C2009 1.385 . S
C2006 H1987 0.951 . S
C2006 C2004 1.388 . S
C2006 C2007 1.366 . S
C2007 C2006 1.366 . S
C2007 C2008 1.414 . S
C2007 C2010 1.499 . S
C2008 H1988 0.950 . S
C2008 C2007 1.414 . S
C2008 C2009 1.374 . S
C2009 H1989 0.950 . S
C2009 C2005 1.385 . S
C2009 C2008 1.374 . S
C2010 C2007 1.499 . S
C2010 C2011 1.373 . S
C2010 C2012 1.389 . S
C2011 H1990 0.950 . S
C2011 C2010 1.373 . S
C2011 C2027 1.377 . S
C2012 C2010 1.389 . S
C2012 C2013 1.524 . S
C2012 C2026 1.377 . S
C2013 C2012 1.524 . S
C2013 C2014 1.397 . S
C2013 C2018 1.363 . S
C2014 H1991 0.950 . S
C2014 C2013 1.397 . S
C2014 C2015 1.334 . S
C2015 H1992 0.950 . S
C2015 C2014 1.334 . S
C2015 C2016 1.287 . S
C2016 C2015 1.287 . S
C2016 C2017 1.524 . S
C2016 H2035 0.913 . S
C2017 H1993 0.950 . S
C2017 C2016 1.524 . S
C2017 C2018 1.415 . S
C2018 H1994 0.950 . S
C2018 C2013 1.363 . S
C2018 C2017 1.415 . S
C2019 H1995 0.951 . S
C2019 C2020 1.366 . S
C2019 C2021 1.388 . S
C2020 C2019 1.366 . S
C2020 C2024 1.385 . S
C2021 H1996 0.951 . S
C2021 C2019 1.388 . S
C2021 C2022 1.366 . S
C2022 C2021 1.366 . S
C2022 C2023 1.414 . S
C2022 C2025 1.499 . S
C2023 H1997 0.950 . S
C2023 C2022 1.414 . S
C2023 C2024 1.374 . S
C2024 H1998 0.950 . S
C2024 C2020 1.385 . S
C2024 C2023 1.374 . S
C2025 C2022 1.499 . S
C2025 C2026 1.373 . S
C2025 C2027 1.389 . S
C2026 H1999 0.950 . S
C2026 C2012 1.377 . S
C2026 C2025 1.373 . S
C2027 C2011 1.377 . S
C2027 C2025 1.389 . S
C2027 C2028 1.524 . S
C2028 C2027 1.524 . S
C2028 C2029 1.397 . S
C2028 C2033 1.363 . S
C2029 H2000 0.950 . S
C2029 C2028 1.397 . S
C2029 C2030 1.334 . S
C2030 H2001 0.950 . S
C2030 C2029 1.334 . S
C2030 C2031 1.287 . S
C2031 C2030 1.287 . S
C2031 C2032 1.524 . S
C2031 H2034 0.999 . S
C2032 H2002 0.950 . S
C2032 C2031 1.524 . S
C2032 C2033 1.415 . S
C2033 H2003 0.950 . S
C2033 C2028 1.363 . S
C2033 C2032 1.415 . S
H2034 C2031 0.999 . S
H2035 C2016 0.913 . S
H2036 C2054 0.951 . S
H2037 C2056 0.951 . S
H2038 C2058 0.950 . S
H2039 C2059 0.950 . S
H2040 C2061 0.950 . S
H2041 C2064 0.950 . S
H2042 C2065 0.950 . S
H2043 C2067 0.950 . S
H2044 C2068 0.950 . S
H2045 C2069 0.951 . S
H2046 C2071 0.951 . S
H2047 C2073 0.950 . S
H2048 C2074 0.950 1_554 S
H2049 C2076 0.950 . S
H2050 C2079 0.950 . S
H2051 C2080 0.950 . S
H2052 C2082 0.950 . S
H2053 C2083 0.950 . S
C2054 H2036 0.951 . S
C2054 C2055 1.366 . S
C2054 C2056 1.388 . S
C2055 C2054 1.366 . S
C2055 C2059 1.385 . S
C2056 H2037 0.951 . S
C2056 C2054 1.388 . S
C2056 C2057 1.366 . S
C2057 C2056 1.366 . S
C2057 C2058 1.414 . S
C2057 C2060 1.499 . S
C2058 H2038 0.950 . S
C2058 C2057 1.414 . S
C2058 C2059 1.374 . S
C2059 H2039 0.950 . S
C2059 C2055 1.385 . S
C2059 C2058 1.374 . S
C2060 C2057 1.499 . S
C2060 C2061 1.373 . S
C2060 C2062 1.389 . S
C2061 H2040 0.950 . S
C2061 C2060 1.373 . S
C2061 C2077 1.377 . S
C2062 C2060 1.389 . S
C2062 C2063 1.524 . S
C2062 C2076 1.377 . S
C2063 C2062 1.524 . S
C2063 C2064 1.397 . S
C2063 C2068 1.363 . S
C2064 H2041 0.950 . S
C2064 C2063 1.397 . S
C2064 C2065 1.334 . S
C2065 H2042 0.950 . S
C2065 C2064 1.334 . S
C2065 C2066 1.287 . S
C2066 C2065 1.287 . S
C2066 C2067 1.524 . S
C2066 H2085 0.913 . S
C2067 H2043 0.950 . S
C2067 C2066 1.524 . S
C2067 C2068 1.415 . S
C2068 H2044 0.950 . S
C2068 C2063 1.363 . S
C2068 C2067 1.415 . S
C2069 H2045 0.951 . S
C2069 C2070 1.366 . S
C2069 C2071 1.388 . S
C2070 C2069 1.366 . S
C2070 C2074 1.385 . S
C2071 H2046 0.951 . S
C2071 C2069 1.388 . S
C2071 C2072 1.366 . S
C2072 C2071 1.366 . S
C2072 C2073 1.414 . S
C2072 C2075 1.499 . S
C2073 H2047 0.950 . S
C2073 C2072 1.414 . S
C2073 C2074 1.374 . S
C2074 H2048 0.950 1_556 S
C2074 C2070 1.385 . S
C2074 C2073 1.374 . S
C2075 C2072 1.499 . S
C2075 C2076 1.373 . S
C2075 C2077 1.389 . S
C2076 H2049 0.950 . S
C2076 C2062 1.377 . S
C2076 C2075 1.373 . S
C2077 C2061 1.377 . S
C2077 C2075 1.389 . S
C2077 C2078 1.524 . S
C2078 C2077 1.524 . S
C2078 C2079 1.397 . S
C2078 C2083 1.363 . S
C2079 H2050 0.950 . S
C2079 C2078 1.397 . S
C2079 C2080 1.334 . S
C2080 H2051 0.950 . S
C2080 C2079 1.334 . S
C2080 C2081 1.287 . S
C2081 C2080 1.287 . S
C2081 C2082 1.524 . S
C2081 H2084 0.999 . S
C2082 H2052 0.950 . S
C2082 C2081 1.524 . S
C2082 C2083 1.415 . S
C2083 H2053 0.950 . S
C2083 C2078 1.363 . S
C2083 C2082 1.415 . S
H2084 C2081 0.999 . S
H2085 C2066 0.913 . S
H2086 C2104 0.951 . S
H2087 C2106 0.951 . S
H2088 C2108 0.950 . S
H2089 C2109 0.950 . S
H2090 C2111 0.950 . S
H2091 C2114 0.950 . S
H2092 C2115 0.950 . S
H2093 C2117 0.950 . S
H2094 C2118 0.950 . S
H2095 C2119 0.951 . S
H2096 C2121 0.951 . S
H2097 C2123 0.950 . S
H2098 C2124 0.950 . S
H2099 C2126 0.950 . S
H2100 C2129 0.950 . S
H2101 C2130 0.950 . S
H2102 C2132 0.950 . S
H2103 C2133 0.950 . S
C2104 H2086 0.951 . S
C2104 C2105 1.366 . S
C2104 C2106 1.388 . S
C2105 C2104 1.366 . S
C2105 C2109 1.385 . S
C2106 H2087 0.951 . S
C2106 C2104 1.388 . S
C2106 C2107 1.366 . S
C2107 C2106 1.366 . S
C2107 C2108 1.414 . S
C2107 C2110 1.499 . S
C2108 H2088 0.950 . S
C2108 C2107 1.414 . S
C2108 C2109 1.374 . S
C2109 H2089 0.950 . S
C2109 C2105 1.385 . S
C2109 C2108 1.374 . S
C2110 C2107 1.499 . S
C2110 C2111 1.373 . S
C2110 C2112 1.389 . S
C2111 H2090 0.950 . S
C2111 C2110 1.373 . S
C2111 C2127 1.377 . S
C2112 C2110 1.389 . S
C2112 C2113 1.524 . S
C2112 C2126 1.377 . S
C2113 C2112 1.524 . S
C2113 C2114 1.397 . S
C2113 C2118 1.363 . S
C2114 H2091 0.950 . S
C2114 C2113 1.397 . S
C2114 C2115 1.334 . S
C2115 H2092 0.950 . S
C2115 C2114 1.334 . S
C2115 C2116 1.287 . S
C2116 C2115 1.287 . S
C2116 C2117 1.524 . S
C2116 H2135 0.913 . S
C2117 H2093 0.950 . S
C2117 C2116 1.524 . S
C2117 C2118 1.415 . S
C2118 H2094 0.950 . S
C2118 C2113 1.363 . S
C2118 C2117 1.415 . S
C2119 H2095 0.951 . S
C2119 C2120 1.366 . S
C2119 C2121 1.388 . S
C2120 C2119 1.366 . S
C2120 C2124 1.385 . S
C2121 H2096 0.951 . S
C2121 C2119 1.388 . S
C2121 C2122 1.366 . S
C2122 C2121 1.366 . S
C2122 C2123 1.414 . S
C2122 C2125 1.499 . S
C2123 H2097 0.950 . S
C2123 C2122 1.414 . S
C2123 C2124 1.374 . S
C2124 H2098 0.950 . S
C2124 C2120 1.385 . S
C2124 C2123 1.374 . S
C2125 C2122 1.499 . S
C2125 C2126 1.373 . S
C2125 C2127 1.389 . S
C2126 H2099 0.950 . S
C2126 C2112 1.377 . S
C2126 C2125 1.373 . S
C2127 C2111 1.377 . S
C2127 C2125 1.389 . S
C2127 C2128 1.524 . S
C2128 C2127 1.524 . S
C2128 C2129 1.397 . S
C2128 C2133 1.363 . S
C2129 H2100 0.950 . S
C2129 C2128 1.397 . S
C2129 C2130 1.334 . S
C2130 H2101 0.950 . S
C2130 C2129 1.334 . S
C2130 C2131 1.287 . S
C2131 C2130 1.287 . S
C2131 C2132 1.524 . S
C2131 H2134 0.999 . S
C2132 H2102 0.950 . S
C2132 C2131 1.524 . S
C2132 C2133 1.415 . S
C2133 H2103 0.950 . S
C2133 C2128 1.363 . S
C2133 C2132 1.415 . S
H2134 C2131 0.999 . S
H2135 C2116 0.913 . S
H2136 C2154 0.951 . S
H2137 C2156 0.951 . S
H2138 C2158 0.950 . S
H2139 C2159 0.950 . S
H2140 C2161 0.950 . S
H2141 C2164 0.950 . S
H2142 C2165 0.950 . S
H2143 C2167 0.950 . S
H2144 C2168 0.950 . S
H2145 C2169 0.951 . S
H2146 C2171 0.951 . S
H2147 C2173 0.950 . S
H2148 C2174 0.950 . S
H2149 C2176 0.950 . S
H2150 C2179 0.950 . S
H2151 C2180 0.950 . S
H2152 C2182 0.950 . S
H2153 C2183 0.950 . S
C2154 H2136 0.951 . S
C2154 C2155 1.366 . S
C2154 C2156 1.388 . S
C2155 C2154 1.366 . S
C2155 C2159 1.385 . S
C2156 H2137 0.951 . S
C2156 C2154 1.388 . S
C2156 C2157 1.366 . S
C2157 C2156 1.366 . S
C2157 C2158 1.414 . S
C2157 C2160 1.499 . S
C2158 H2138 0.950 . S
C2158 C2157 1.414 . S
C2158 C2159 1.374 . S
C2159 H2139 0.950 . S
C2159 C2155 1.385 . S
C2159 C2158 1.374 . S
C2160 C2157 1.499 . S
C2160 C2161 1.373 . S
C2160 C2162 1.389 . S
C2161 H2140 0.950 . S
C2161 C2160 1.373 . S
C2161 C2177 1.377 . S
C2162 C2160 1.389 . S
C2162 C2163 1.524 . S
C2162 C2176 1.377 . S
C2163 C2162 1.524 . S
C2163 C2164 1.397 . S
C2163 C2168 1.363 . S
C2164 H2141 0.950 . S
C2164 C2163 1.397 . S
C2164 C2165 1.334 . S
C2165 H2142 0.950 . S
C2165 C2164 1.334 . S
C2165 C2166 1.287 . S
C2166 C2165 1.287 . S
C2166 C2167 1.524 . S
C2166 H2185 0.913 . S
C2167 H2143 0.950 . S
C2167 C2166 1.524 . S
C2167 C2168 1.415 . S
C2168 H2144 0.950 . S
C2168 C2163 1.363 . S
C2168 C2167 1.415 . S
C2169 H2145 0.951 . S
C2169 C2170 1.366 . S
C2169 C2171 1.388 1_655 S
C2170 C2169 1.366 . S
C2170 C2174 1.385 . S
C2171 H2146 0.951 . S
C2171 C2169 1.388 1_455 S
C2171 C2172 1.366 . S
C2172 C2171 1.366 . S
C2172 C2173 1.414 . S
C2172 C2175 1.499 . S
C2173 H2147 0.950 . S
C2173 C2172 1.414 . S
C2173 C2174 1.374 1_455 S
C2174 H2148 0.950 . S
C2174 C2170 1.385 . S
C2174 C2173 1.374 1_655 S
C2175 C2172 1.499 . S
C2175 C2176 1.373 . S
C2175 C2177 1.389 . S
C2176 H2149 0.950 . S
C2176 C2162 1.377 . S
C2176 C2175 1.373 . S
C2177 C2161 1.377 . S
C2177 C2175 1.389 . S
C2177 C2178 1.524 . S
C2178 C2177 1.524 . S
C2178 C2179 1.397 1_455 S
C2178 C2183 1.363 . S
C2179 H2150 0.950 . S
C2179 C2178 1.397 1_655 S
C2179 C2180 1.334 . S
C2180 H2151 0.950 . S
C2180 C2179 1.334 . S
C2180 C2181 1.287 . S
C2181 C2180 1.287 . S
C2181 C2182 1.524 1_655 S
C2181 H2184 0.999 . S
C2182 H2152 0.950 . S
C2182 C2181 1.524 1_455 S
C2182 C2183 1.415 . S
C2183 H2153 0.950 . S
C2183 C2178 1.363 . S
C2183 C2182 1.415 . S
H2184 C2181 0.999 . S
H2185 C2166 0.913 . S
H2186 C2204 0.951 . S
H2187 C2206 0.951 . S
H2188 C2208 0.950 . S
H2189 C2209 0.950 . S
H2190 C2211 0.950 . S
H2191 C2214 0.950 . S
H2192 C2215 0.950 . S
H2193 C2217 0.950 . S
H2194 C2218 0.950 . S
H2195 C2219 0.951 . S
H2196 C2221 0.951 . S
H2197 C2223 0.950 . S
H2198 C2224 0.950 . S
H2199 C2226 0.950 . S
H2200 C2229 0.950 . S
H2201 C2230 0.950 . S
H2202 C2232 0.950 . S
H2203 C2233 0.950 . S
C2204 H2186 0.951 . S
C2204 C2205 1.366 . S
C2204 C2206 1.388 . S
C2205 C2204 1.366 . S
C2205 C2209 1.385 . S
C2206 H2187 0.951 . S
C2206 C2204 1.388 . S
C2206 C2207 1.366 . S
C2207 C2206 1.366 . S
C2207 C2208 1.414 . S
C2207 C2210 1.499 . S
C2208 H2188 0.950 . S
C2208 C2207 1.414 . S
C2208 C2209 1.374 . S
C2209 H2189 0.950 . S
C2209 C2205 1.385 . S
C2209 C2208 1.374 . S
C2210 C2207 1.499 . S
C2210 C2211 1.373 . S
C2210 C2212 1.389 . S
C2211 H2190 0.950 . S
C2211 C2210 1.373 . S
C2211 C2227 1.377 . S
C2212 C2210 1.389 . S
C2212 C2213 1.524 . S
C2212 C2226 1.377 . S
C2213 C2212 1.524 . S
C2213 C2214 1.397 . S
C2213 C2218 1.363 . S
C2214 H2191 0.950 . S
C2214 C2213 1.397 . S
C2214 C2215 1.334 . S
C2215 H2192 0.950 . S
C2215 C2214 1.334 . S
C2215 C2216 1.287 . S
C2216 C2215 1.287 . S
C2216 C2217 1.524 . S
C2216 H2235 0.913 . S
C2217 H2193 0.950 . S
C2217 C2216 1.524 . S
C2217 C2218 1.415 . S
C2218 H2194 0.950 . S
C2218 C2213 1.363 . S
C2218 C2217 1.415 . S
C2219 H2195 0.951 . S
C2219 C2220 1.366 . S
C2219 C2221 1.388 . S
C2220 C2219 1.366 . S
C2220 C2224 1.385 . S
C2221 H2196 0.951 . S
C2221 C2219 1.388 . S
C2221 C2222 1.366 . S
C2222 C2221 1.366 . S
C2222 C2223 1.414 . S
C2222 C2225 1.499 . S
C2223 H2197 0.950 . S
C2223 C2222 1.414 . S
C2223 C2224 1.374 . S
C2224 H2198 0.950 . S
C2224 C2220 1.385 . S
C2224 C2223 1.374 . S
C2225 C2222 1.499 . S
C2225 C2226 1.373 . S
C2225 C2227 1.389 . S
C2226 H2199 0.950 . S
C2226 C2212 1.377 . S
C2226 C2225 1.373 . S
C2227 C2211 1.377 . S
C2227 C2225 1.389 . S
C2227 C2228 1.524 . S
C2228 C2227 1.524 . S
C2228 C2229 1.397 . S
C2228 C2233 1.363 . S
C2229 H2200 0.950 . S
C2229 C2228 1.397 . S
C2229 C2230 1.334 . S
C2230 H2201 0.950 . S
C2230 C2229 1.334 . S
C2230 C2231 1.287 . S
C2231 C2230 1.287 . S
C2231 C2232 1.524 . S
C2231 H2234 0.999 . S
C2232 H2202 0.950 . S
C2232 C2231 1.524 . S
C2232 C2233 1.415 . S
C2233 H2203 0.950 . S
C2233 C2228 1.363 . S
C2233 C2232 1.415 . S
H2234 C2231 0.999 . S
H2235 C2216 0.913 . S
H2236 C2254 0.951 . S
H2237 C2256 0.951 . S
H2238 C2258 0.950 . S
H2239 C2259 0.950 . S
H2240 C2261 0.950 . S
H2241 C2264 0.950 . S
H2242 C2265 0.950 1_556 S
H2243 C2267 0.950 . S
H2244 C2268 0.950 . S
H2245 C2269 0.951 . S
H2246 C2271 0.951 . S
H2247 C2273 0.950 . S
H2248 C2274 0.950 . S
H2249 C2276 0.950 . S
H2250 C2279 0.950 . S
H2251 C2280 0.950 . S
H2252 C2282 0.950 . S
H2253 C2283 0.950 . S
C2254 H2236 0.951 . S
C2254 C2255 1.366 . S
C2254 C2256 1.388 . S
C2255 C2254 1.366 . S
C2255 C2259 1.385 . S
C2256 H2237 0.951 . S
C2256 C2254 1.388 . S
C2256 C2257 1.366 . S
C2257 C2256 1.366 . S
C2257 C2258 1.414 . S
C2257 C2260 1.499 . S
C2258 H2238 0.950 . S
C2258 C2257 1.414 . S
C2258 C2259 1.374 . S
C2259 H2239 0.950 . S
C2259 C2255 1.385 . S
C2259 C2258 1.374 . S
C2260 C2257 1.499 . S
C2260 C2261 1.373 . S
C2260 C2262 1.389 . S
C2261 H2240 0.950 . S
C2261 C2260 1.373 . S
C2261 C2277 1.377 . S
C2262 C2260 1.389 . S
C2262 C2263 1.524 . S
C2262 C2276 1.377 . S
C2263 C2262 1.524 . S
C2263 C2264 1.397 . S
C2263 C2268 1.363 . S
C2264 H2241 0.950 . S
C2264 C2263 1.397 . S
C2264 C2265 1.334 . S
C2265 H2242 0.950 1_554 S
C2265 C2264 1.334 . S
C2265 C2266 1.287 . S
C2266 C2265 1.287 . S
C2266 C2267 1.524 . S
C2266 H2285 0.913 . S
C2267 H2243 0.950 . S
C2267 C2266 1.524 . S
C2267 C2268 1.415 . S
C2268 H2244 0.950 . S
C2268 C2263 1.363 . S
C2268 C2267 1.415 . S
C2269 H2245 0.951 . S
C2269 C2270 1.366 . S
C2269 C2271 1.388 . S
C2270 C2269 1.366 . S
C2270 C2274 1.385 . S
C2271 H2246 0.951 . S
C2271 C2269 1.388 . S
C2271 C2272 1.366 . S
C2272 C2271 1.366 . S
C2272 C2273 1.414 . S
C2272 C2275 1.499 . S
C2273 H2247 0.950 . S
C2273 C2272 1.414 . S
C2273 C2274 1.374 . S
C2274 H2248 0.950 . S
C2274 C2270 1.385 . S
C2274 C2273 1.374 . S
C2275 C2272 1.499 . S
C2275 C2276 1.373 . S
C2275 C2277 1.389 . S
C2276 H2249 0.950 . S
C2276 C2262 1.377 . S
C2276 C2275 1.373 . S
C2277 C2261 1.377 . S
C2277 C2275 1.389 . S
C2277 C2278 1.524 . S
C2278 C2277 1.524 . S
C2278 C2279 1.397 . S
C2278 C2283 1.363 . S
C2279 H2250 0.950 . S
C2279 C2278 1.397 . S
C2279 C2280 1.334 . S
C2280 H2251 0.950 . S
C2280 C2279 1.334 . S
C2280 C2281 1.287 . S
C2281 C2280 1.287 . S
C2281 C2282 1.524 . S
C2281 H2284 0.999 . S
C2282 H2252 0.950 . S
C2282 C2281 1.524 . S
C2282 C2283 1.415 . S
C2283 H2253 0.950 . S
C2283 C2278 1.363 . S
C2283 C2282 1.415 . S
H2284 C2281 0.999 . S
H2285 C2266 0.913 . S
H2286 C2304 0.951 . S
H2287 C2306 0.951 . S
H2288 C2308 0.950 . S
H2289 C2309 0.950 . S
H2290 C2311 0.950 . S
H2291 C2314 0.950 . S
H2292 C2315 0.950 . S
H2293 C2317 0.950 . S
H2294 C2318 0.950 . S
H2295 C2319 0.951 . S
H2296 C2321 0.951 . S
H2297 C2323 0.950 . S
H2298 C2324 0.950 . S
H2299 C2326 0.950 . S
H2300 C2329 0.950 . S
H2301 C2330 0.950 . S
H2302 C2332 0.950 . S
H2303 C2333 0.950 . S
C2304 H2286 0.951 . S
C2304 C2305 1.366 . S
C2304 C2306 1.388 . S
C2305 C2304 1.366 . S
C2305 C2309 1.385 . S
C2306 H2287 0.951 . S
C2306 C2304 1.388 . S
C2306 C2307 1.366 . S
C2307 C2306 1.366 . S
C2307 C2308 1.414 . S
C2307 C2310 1.499 . S
C2308 H2288 0.950 . S
C2308 C2307 1.414 . S
C2308 C2309 1.374 . S
C2309 H2289 0.950 . S
C2309 C2305 1.385 . S
C2309 C2308 1.374 . S
C2310 C2307 1.499 . S
C2310 C2311 1.373 . S
C2310 C2312 1.389 . S
C2311 H2290 0.950 . S
C2311 C2310 1.373 . S
C2311 C2327 1.377 . S
C2312 C2310 1.389 . S
C2312 C2313 1.524 . S
C2312 C2326 1.377 . S
C2313 C2312 1.524 . S
C2313 C2314 1.397 . S
C2313 C2318 1.363 . S
C2314 H2291 0.950 . S
C2314 C2313 1.397 . S
C2314 C2315 1.334 . S
C2315 H2292 0.950 . S
C2315 C2314 1.334 . S
C2315 C2316 1.287 . S
C2316 C2315 1.287 . S
C2316 C2317 1.524 . S
C2316 H2335 0.913 . S
C2317 H2293 0.950 . S
C2317 C2316 1.524 . S
C2317 C2318 1.415 . S
C2318 H2294 0.950 . S
C2318 C2313 1.363 . S
C2318 C2317 1.415 . S
C2319 H2295 0.951 . S
C2319 C2320 1.366 . S
C2319 C2321 1.388 . S
C2320 C2319 1.366 . S
C2320 C2324 1.385 . S
C2321 H2296 0.951 . S
C2321 C2319 1.388 . S
C2321 C2322 1.366 . S
C2322 C2321 1.366 . S
C2322 C2323 1.414 . S
C2322 C2325 1.499 . S
C2323 H2297 0.950 . S
C2323 C2322 1.414 . S
C2323 C2324 1.374 . S
C2324 H2298 0.950 . S
C2324 C2320 1.385 . S
C2324 C2323 1.374 . S
C2325 C2322 1.499 . S
C2325 C2326 1.373 . S
C2325 C2327 1.389 . S
C2326 H2299 0.950 . S
C2326 C2312 1.377 . S
C2326 C2325 1.373 . S
C2327 C2311 1.377 . S
C2327 C2325 1.389 . S
C2327 C2328 1.524 . S
C2328 C2327 1.524 . S
C2328 C2329 1.397 . S
C2328 C2333 1.363 . S
C2329 H2300 0.950 . S
C2329 C2328 1.397 . S
C2329 C2330 1.334 . S
C2330 H2301 0.950 . S
C2330 C2329 1.334 . S
C2330 C2331 1.287 . S
C2331 C2330 1.287 . S
C2331 C2332 1.524 . S
C2331 H2334 0.999 . S
C2332 H2302 0.950 . S
C2332 C2331 1.524 . S
C2332 C2333 1.415 . S
C2333 H2303 0.950 . S
C2333 C2328 1.363 . S
C2333 C2332 1.415 . S
H2334 C2331 0.999 . S
H2335 C2316 0.913 . S
H2336 C2354 0.951 . S
H2337 C2356 0.951 . S
H2338 C2358 0.950 . S
H2339 C2359 0.950 . S
H2340 C2361 0.950 . S
H2341 C2364 0.950 . S
H2342 C2365 0.950 . S
H2343 C2367 0.950 . S
H2344 C2368 0.950 . S
H2345 C2369 0.951 . S
H2346 C2371 0.951 . S
H2347 C2373 0.950 . S
H2348 C2374 0.950 . S
H2349 C2376 0.950 . S
H2350 C2379 0.950 . S
H2351 C2380 0.950 . S
H2352 C2382 0.950 . S
H2353 C2383 0.950 . S
C2354 H2336 0.951 . S
C2354 C2355 1.366 . S
C2354 C2356 1.388 . S
C2355 C2354 1.366 . S
C2355 C2359 1.385 . S
C2356 H2337 0.951 . S
C2356 C2354 1.388 . S
C2356 C2357 1.366 . S
C2357 C2356 1.366 . S
C2357 C2358 1.414 . S
C2357 C2360 1.499 . S
C2358 H2338 0.950 . S
C2358 C2357 1.414 . S
C2358 C2359 1.374 . S
C2359 H2339 0.950 . S
C2359 C2355 1.385 . S
C2359 C2358 1.374 . S
C2360 C2357 1.499 . S
C2360 C2361 1.373 . S
C2360 C2362 1.389 . S
C2361 H2340 0.950 . S
C2361 C2360 1.373 . S
C2361 C2377 1.377 . S
C2362 C2360 1.389 . S
C2362 C2363 1.524 . S
C2362 C2376 1.377 . S
C2363 C2362 1.524 . S
C2363 C2364 1.397 . S
C2363 C2368 1.363 . S
C2364 H2341 0.950 . S
C2364 C2363 1.397 . S
C2364 C2365 1.334 . S
C2365 H2342 0.950 . S
C2365 C2364 1.334 . S
C2365 C2366 1.287 . S
C2366 C2365 1.287 . S
C2366 C2367 1.524 . S
C2366 H2385 0.913 . S
C2367 H2343 0.950 . S
C2367 C2366 1.524 . S
C2367 C2368 1.415 . S
C2368 H2344 0.950 . S
C2368 C2363 1.363 . S
C2368 C2367 1.415 . S
C2369 H2345 0.951 . S
C2369 C2370 1.366 . S
C2369 C2371 1.388 . S
C2370 C2369 1.366 . S
C2370 C2374 1.385 . S
C2371 H2346 0.951 . S
C2371 C2369 1.388 . S
C2371 C2372 1.366 . S
C2372 C2371 1.366 . S
C2372 C2373 1.414 . S
C2372 C2375 1.499 . S
C2373 H2347 0.950 . S
C2373 C2372 1.414 . S
C2373 C2374 1.374 . S
C2374 H2348 0.950 . S
C2374 C2370 1.385 . S
C2374 C2373 1.374 . S
C2375 C2372 1.499 . S
C2375 C2376 1.373 . S
C2375 C2377 1.389 . S
C2376 H2349 0.950 . S
C2376 C2362 1.377 . S
C2376 C2375 1.373 . S
C2377 C2361 1.377 . S
C2377 C2375 1.389 . S
C2377 C2378 1.524 . S
C2378 C2377 1.524 . S
C2378 C2379 1.397 . S
C2378 C2383 1.363 . S
C2379 H2350 0.950 . S
C2379 C2378 1.397 . S
C2379 C2380 1.334 . S
C2380 H2351 0.950 . S
C2380 C2379 1.334 . S
C2380 C2381 1.287 . S
C2381 C2380 1.287 . S
C2381 C2382 1.524 . S
C2381 H2384 0.999 . S
C2382 H2352 0.950 . S
C2382 C2381 1.524 . S
C2382 C2383 1.415 . S
C2383 H2353 0.950 . S
C2383 C2378 1.363 . S
C2383 C2382 1.415 . S
H2384 C2381 0.999 . S
H2385 C2366 0.913 . S
H2386 C2404 0.951 . S
H2387 C2406 0.951 . S
H2388 C2408 0.950 . S
H2389 C2409 0.950 . S
H2390 C2411 0.950 . S
H2391 C2414 0.950 . S
H2392 C2415 0.950 . S
H2393 C2417 0.950 . S
H2394 C2418 0.950 . S
H2395 C2419 0.951 . S
H2396 C2421 0.951 . S
H2397 C2423 0.950 . S
H2398 C2424 0.950 . S
H2399 C2426 0.950 . S
H2400 C2429 0.950 . S
H2401 C2430 0.950 . S
H2402 C2432 0.950 . S
H2403 C2433 0.950 . S
C2404 H2386 0.951 . S
C2404 C2405 1.366 . S
C2404 C2406 1.388 . S
C2405 C2404 1.366 . S
C2405 C2409 1.385 . S
C2406 H2387 0.951 . S
C2406 C2404 1.388 . S
C2406 C2407 1.366 . S
C2407 C2406 1.366 . S
C2407 C2408 1.414 . S
C2407 C2410 1.499 . S
C2408 H2388 0.950 . S
C2408 C2407 1.414 . S
C2408 C2409 1.374 . S
C2409 H2389 0.950 . S
C2409 C2405 1.385 . S
C2409 C2408 1.374 . S
C2410 C2407 1.499 . S
C2410 C2411 1.373 . S
C2410 C2412 1.389 . S
C2411 H2390 0.950 . S
C2411 C2410 1.373 . S
C2411 C2427 1.377 . S
C2412 C2410 1.389 . S
C2412 C2413 1.524 . S
C2412 C2426 1.377 . S
C2413 C2412 1.524 . S
C2413 C2414 1.397 . S
C2413 C2418 1.363 . S
C2414 H2391 0.950 . S
C2414 C2413 1.397 . S
C2414 C2415 1.334 . S
C2415 H2392 0.950 . S
C2415 C2414 1.334 . S
C2415 C2416 1.287 . S
C2416 C2415 1.287 . S
C2416 C2417 1.524 . S
C2416 H2435 0.913 . S
C2417 H2393 0.950 . S
C2417 C2416 1.524 . S
C2417 C2418 1.415 . S
C2418 H2394 0.950 . S
C2418 C2413 1.363 . S
C2418 C2417 1.415 . S
C2419 H2395 0.951 . S
C2419 C2420 1.366 . S
C2419 C2421 1.388 . S
C2420 C2419 1.366 . S
C2420 C2424 1.385 . S
C2421 H2396 0.951 . S
C2421 C2419 1.388 . S
C2421 C2422 1.366 . S
C2422 C2421 1.366 . S
C2422 C2423 1.414 . S
C2422 C2425 1.499 . S
C2423 H2397 0.950 . S
C2423 C2422 1.414 . S
C2423 C2424 1.374 . S
C2424 H2398 0.950 . S
C2424 C2420 1.385 . S
C2424 C2423 1.374 . S
C2425 C2422 1.499 . S
C2425 C2426 1.373 . S
C2425 C2427 1.389 . S
C2426 H2399 0.950 . S
C2426 C2412 1.377 . S
C2426 C2425 1.373 . S
C2427 C2411 1.377 . S
C2427 C2425 1.389 . S
C2427 C2428 1.524 . S
C2428 C2427 1.524 . S
C2428 C2429 1.397 . S
C2428 C2433 1.363 . S
C2429 H2400 0.950 . S
C2429 C2428 1.397 . S
C2429 C2430 1.334 . S
C2430 H2401 0.950 . S
C2430 C2429 1.334 . S
C2430 C2431 1.287 . S
C2431 C2430 1.287 . S
C2431 C2432 1.524 . S
C2431 H2434 0.999 . S
C2432 H2402 0.950 . S
C2432 C2431 1.524 . S
C2432 C2433 1.415 . S
C2433 H2403 0.950 . S
C2433 C2428 1.363 . S
C2433 C2432 1.415 . S
H2434 C2431 0.999 . S
H2435 C2416 0.913 . S
H2436 C2454 0.951 . S
H2437 C2456 0.951 . S
H2438 C2458 0.950 . S
H2439 C2459 0.950 . S
H2440 C2461 0.950 . S
H2441 C2464 0.950 . S
H2442 C2465 0.950 . S
H2443 C2467 0.950 . S
H2444 C2468 0.950 . S
H2445 C2469 0.951 . S
H2446 C2471 0.951 . S
H2447 C2473 0.950 . S
H2448 C2474 0.950 . S
H2449 C2476 0.950 . S
H2450 C2479 0.950 . S
H2451 C2480 0.950 . S
H2452 C2482 0.950 . S
H2453 C2483 0.950 . S
C2454 H2436 0.951 . S
C2454 C2455 1.366 . S
C2454 C2456 1.388 . S
C2455 C2454 1.366 . S
C2455 C2459 1.385 . S
C2456 H2437 0.951 . S
C2456 C2454 1.388 . S
C2456 C2457 1.366 . S
C2457 C2456 1.366 . S
C2457 C2458 1.414 . S
C2457 C2460 1.499 . S
C2458 H2438 0.950 . S
C2458 C2457 1.414 . S
C2458 C2459 1.374 . S
C2459 H2439 0.950 . S
C2459 C2455 1.385 . S
C2459 C2458 1.374 . S
C2460 C2457 1.499 . S
C2460 C2461 1.373 . S
C2460 C2462 1.389 . S
C2461 H2440 0.950 . S
C2461 C2460 1.373 . S
C2461 C2477 1.377 . S
C2462 C2460 1.389 . S
C2462 C2463 1.524 . S
C2462 C2476 1.377 . S
C2463 C2462 1.524 . S
C2463 C2464 1.397 . S
C2463 C2468 1.363 . S
C2464 H2441 0.950 . S
C2464 C2463 1.397 . S
C2464 C2465 1.334 . S
C2465 H2442 0.950 . S
C2465 C2464 1.334 . S
C2465 C2466 1.287 . S
C2466 C2465 1.287 . S
C2466 C2467 1.524 . S
C2466 H2485 0.913 . S
C2467 H2443 0.950 . S
C2467 C2466 1.524 . S
C2467 C2468 1.415 . S
C2468 H2444 0.950 . S
C2468 C2463 1.363 . S
C2468 C2467 1.415 . S
C2469 H2445 0.951 . S
C2469 C2470 1.366 . S
C2469 C2471 1.388 . S
C2470 C2469 1.366 . S
C2470 C2474 1.385 . S
C2471 H2446 0.951 . S
C2471 C2469 1.388 . S
C2471 C2472 1.366 . S
C2472 C2471 1.366 . S
C2472 C2473 1.414 . S
C2472 C2475 1.499 . S
C2473 H2447 0.950 . S
C2473 C2472 1.414 . S
C2473 C2474 1.374 . S
C2474 H2448 0.950 . S
C2474 C2470 1.385 . S
C2474 C2473 1.374 . S
C2475 C2472 1.499 . S
C2475 C2476 1.373 . S
C2475 C2477 1.389 . S
C2476 H2449 0.950 . S
C2476 C2462 1.377 . S
C2476 C2475 1.373 . S
C2477 C2461 1.377 . S
C2477 C2475 1.389 . S
C2477 C2478 1.524 . S
C2478 C2477 1.524 . S
C2478 C2479 1.397 . S
C2478 C2483 1.363 . S
C2479 H2450 0.950 . S
C2479 C2478 1.397 . S
C2479 C2480 1.334 . S
C2480 H2451 0.950 . S
C2480 C2479 1.334 . S
C2480 C2481 1.287 . S
C2481 C2480 1.287 . S
C2481 C2482 1.524 . S
C2481 H2484 0.999 . S
C2482 H2452 0.950 . S
C2482 C2481 1.524 . S
C2482 C2483 1.415 . S
C2483 H2453 0.950 . S
C2483 C2478 1.363 . S
C2483 C2482 1.415 . S
H2484 C2481 0.999 . S
H2485 C2466 0.913 . S
H2486 C2504 0.951 . S
H2487 C2506 0.951 . S
H2488 C2508 0.950 . S
H2489 C2509 0.950 . S
H2490 C2511 0.950 . S
H2491 C2514 0.950 . S
H2492 C2515 0.950 . S
H2493 C2517 0.950 . S
H2494 C2518 0.950 . S
H2495 C2519 0.951 . S
H2496 C2521 0.951 . S
H2497 C2523 0.950 . S
H2498 C2524 0.950 . S
H2499 C2526 0.950 . S
H2500 C2529 0.950 . S
H2501 C2530 0.950 . S
H2502 C2532 0.950 . S
H2503 C2533 0.950 . S
C2504 H2486 0.951 . S
C2504 C2505 1.366 . S
C2504 C2506 1.388 . S
C2505 C2504 1.366 . S
C2505 C2509 1.385 . S
C2506 H2487 0.951 . S
C2506 C2504 1.388 . S
C2506 C2507 1.366 . S
C2507 C2506 1.366 . S
C2507 C2508 1.414 . S
C2507 C2510 1.499 . S
C2508 H2488 0.950 . S
C2508 C2507 1.414 . S
C2508 C2509 1.374 . S
C2509 H2489 0.950 . S
C2509 C2505 1.385 . S
C2509 C2508 1.374 . S
C2510 C2507 1.499 . S
C2510 C2511 1.373 1_455 S
C2510 C2512 1.389 . S
C2511 H2490 0.950 . S
C2511 C2510 1.373 1_655 S
C2511 C2527 1.377 1_554 S
C2512 C2510 1.389 . S
C2512 C2513 1.524 . S
C2512 C2526 1.377 1_554 S
C2513 C2512 1.524 . S
C2513 C2514 1.397 . S
C2513 C2518 1.363 . S
C2514 H2491 0.950 . S
C2514 C2513 1.397 . S
C2514 C2515 1.334 . S
C2515 H2492 0.950 . S
C2515 C2514 1.334 . S
C2515 C2516 1.287 . S
C2516 C2515 1.287 . S
C2516 C2517 1.524 . S
C2516 H2535 0.913 . S
C2517 H2493 0.950 . S
C2517 C2516 1.524 . S
C2517 C2518 1.415 . S
C2518 H2494 0.950 . S
C2518 C2513 1.363 . S
C2518 C2517 1.415 . S
C2519 H2495 0.951 . S
C2519 C2520 1.366 . S
C2519 C2521 1.388 . S
C2520 C2519 1.366 . S
C2520 C2524 1.385 . S
C2521 H2496 0.951 . S
C2521 C2519 1.388 . S
C2521 C2522 1.366 . S
C2522 C2521 1.366 . S
C2522 C2523 1.414 . S
C2522 C2525 1.499 . S
C2523 H2497 0.950 . S
C2523 C2522 1.414 . S
C2523 C2524 1.374 . S
C2524 H2498 0.950 . S
C2524 C2520 1.385 . S
C2524 C2523 1.374 . S
C2525 C2522 1.499 . S
C2525 C2526 1.373 1_655 S
C2525 C2527 1.389 . S
C2526 H2499 0.950 . S
C2526 C2512 1.377 1_556 S
C2526 C2525 1.373 1_455 S
C2527 C2511 1.377 1_556 S
C2527 C2525 1.389 . S
C2527 C2528 1.524 . S
C2528 C2527 1.524 . S
C2528 C2529 1.397 . S
C2528 C2533 1.363 . S
C2529 H2500 0.950 . S
C2529 C2528 1.397 . S
C2529 C2530 1.334 . S
C2530 H2501 0.950 . S
C2530 C2529 1.334 . S
C2530 C2531 1.287 . S
C2531 C2530 1.287 . S
C2531 C2532 1.524 . S
C2531 H2534 0.999 . S
C2532 H2502 0.950 . S
C2532 C2531 1.524 . S
C2532 C2533 1.415 . S
C2533 H2503 0.950 . S
C2533 C2528 1.363 . S
C2533 C2532 1.415 . S
H2534 C2531 0.999 . S
H2535 C2516 0.913 . S
H2536 C2554 0.951 . S
H2537 C2556 0.951 . S
H2538 C2558 0.950 . S
H2539 C2559 0.950 . S
H2540 C2561 0.950 . S
H2541 C2564 0.950 . S
H2542 C2565 0.950 . S
H2543 C2567 0.950 . S
H2544 C2568 0.950 . S
H2545 C2569 0.951 . S
H2546 C2571 0.951 . S
H2547 C2573 0.950 . S
H2548 C2574 0.950 . S
H2549 C2576 0.950 . S
H2550 C2579 0.950 . S
H2551 C2580 0.950 . S
H2552 C2582 0.950 . S
H2553 C2583 0.950 . S
C2554 H2536 0.951 . S
C2554 C2555 1.366 . S
C2554 C2556 1.388 . S
C2555 C2554 1.366 . S
C2555 C2559 1.385 . S
C2556 H2537 0.951 . S
C2556 C2554 1.388 . S
C2556 C2557 1.366 . S
C2557 C2556 1.366 . S
C2557 C2558 1.414 . S
C2557 C2560 1.499 . S
C2558 H2538 0.950 . S
C2558 C2557 1.414 . S
C2558 C2559 1.374 . S
C2559 H2539 0.950 . S
C2559 C2555 1.385 . S
C2559 C2558 1.374 . S
C2560 C2557 1.499 . S
C2560 C2561 1.373 . S
C2560 C2562 1.389 . S
C2561 H2540 0.950 . S
C2561 C2560 1.373 . S
C2561 C2577 1.377 . S
C2562 C2560 1.389 . S
C2562 C2563 1.524 . S
C2562 C2576 1.377 . S
C2563 C2562 1.524 . S
C2563 C2564 1.397 . S
C2563 C2568 1.363 . S
C2564 H2541 0.950 . S
C2564 C2563 1.397 . S
C2564 C2565 1.334 . S
C2565 H2542 0.950 . S
C2565 C2564 1.334 . S
C2565 C2566 1.287 . S
C2566 C2565 1.287 . S
C2566 C2567 1.524 . S
C2566 H2585 0.913 . S
C2567 H2543 0.950 . S
C2567 C2566 1.524 . S
C2567 C2568 1.415 . S
C2568 H2544 0.950 . S
C2568 C2563 1.363 . S
C2568 C2567 1.415 . S
C2569 H2545 0.951 . S
C2569 C2570 1.366 . S
C2569 C2571 1.388 . S
C2570 C2569 1.366 . S
C2570 C2574 1.385 . S
C2571 H2546 0.951 . S
C2571 C2569 1.388 . S
C2571 C2572 1.366 . S
C2572 C2571 1.366 . S
C2572 C2573 1.414 . S
C2572 C2575 1.499 . S
C2573 H2547 0.950 . S
C2573 C2572 1.414 . S
C2573 C2574 1.374 . S
C2574 H2548 0.950 . S
C2574 C2570 1.385 . S
C2574 C2573 1.374 . S
C2575 C2572 1.499 . S
C2575 C2576 1.373 . S
C2575 C2577 1.389 . S
C2576 H2549 0.950 . S
C2576 C2562 1.377 . S
C2576 C2575 1.373 . S
C2577 C2561 1.377 . S
C2577 C2575 1.389 . S
C2577 C2578 1.524 . S
C2578 C2577 1.524 . S
C2578 C2579 1.397 . S
C2578 C2583 1.363 . S
C2579 H2550 0.950 . S
C2579 C2578 1.397 . S
C2579 C2580 1.334 . S
C2580 H2551 0.950 . S
C2580 C2579 1.334 . S
C2580 C2581 1.287 . S
C2581 C2580 1.287 . S
C2581 C2582 1.524 . S
C2581 H2584 0.999 . S
C2582 H2552 0.950 . S
C2582 C2581 1.524 . S
C2582 C2583 1.415 . S
C2583 H2553 0.950 . S
C2583 C2578 1.363 . S
C2583 C2582 1.415 . S
H2584 C2581 0.999 . S
H2585 C2566 0.913 . S
H2586 C2604 0.951 . S
H2587 C2606 0.951 . S
H2588 C2608 0.950 . S
H2589 C2609 0.950 . S
H2590 C2611 0.950 . S
H2591 C2614 0.950 . S
H2592 C2615 0.950 . S
H2593 C2617 0.950 . S
H2594 C2618 0.950 . S
H2595 C2619 0.951 . S
H2596 C2621 0.951 . S
H2597 C2623 0.950 . S
H2598 C2624 0.950 . S
H2599 C2626 0.950 . S
H2600 C2629 0.950 . S
H2601 C2630 0.950 . S
H2602 C2632 0.950 . S
H2603 C2633 0.950 . S
C2604 H2586 0.951 . S
C2604 C2605 1.366 . S
C2604 C2606 1.388 . S
C2605 C2604 1.366 . S
C2605 C2609 1.385 . S
C2606 H2587 0.951 . S
C2606 C2604 1.388 . S
C2606 C2607 1.366 . S
C2607 C2606 1.366 . S
C2607 C2608 1.414 . S
C2607 C2610 1.499 . S
C2608 H2588 0.950 . S
C2608 C2607 1.414 . S
C2608 C2609 1.374 . S
C2609 H2589 0.950 . S
C2609 C2605 1.385 . S
C2609 C2608 1.374 . S
C2610 C2607 1.499 . S
C2610 C2611 1.373 . S
C2610 C2612 1.389 . S
C2611 H2590 0.950 . S
C2611 C2610 1.373 . S
C2611 C2627 1.377 . S
C2612 C2610 1.389 . S
C2612 C2613 1.524 . S
C2612 C2626 1.377 . S
C2613 C2612 1.524 . S
C2613 C2614 1.397 . S
C2613 C2618 1.363 . S
C2614 H2591 0.950 . S
C2614 C2613 1.397 . S
C2614 C2615 1.334 . S
C2615 H2592 0.950 . S
C2615 C2614 1.334 . S
C2615 C2616 1.287 . S
C2616 C2615 1.287 . S
C2616 C2617 1.524 . S
C2616 H2635 0.913 . S
C2617 H2593 0.950 . S
C2617 C2616 1.524 . S
C2617 C2618 1.415 . S
C2618 H2594 0.950 . S
C2618 C2613 1.363 . S
C2618 C2617 1.415 . S
C2619 H2595 0.951 . S
C2619 C2620 1.366 . S
C2619 C2621 1.388 . S
C2620 C2619 1.366 . S
C2620 C2624 1.385 . S
C2621 H2596 0.951 . S
C2621 C2619 1.388 . S
C2621 C2622 1.366 . S
C2622 C2621 1.366 . S
C2622 C2623 1.414 . S
C2622 C2625 1.499 . S
C2623 H2597 0.950 . S
C2623 C2622 1.414 . S
C2623 C2624 1.374 . S
C2624 H2598 0.950 . S
C2624 C2620 1.385 . S
C2624 C2623 1.374 . S
C2625 C2622 1.499 . S
C2625 C2626 1.373 . S
C2625 C2627 1.389 . S
C2626 H2599 0.950 . S
C2626 C2612 1.377 . S
C2626 C2625 1.373 . S
C2627 C2611 1.377 . S
C2627 C2625 1.389 . S
C2627 C2628 1.524 . S
C2628 C2627 1.524 . S
C2628 C2629 1.397 . S
C2628 C2633 1.363 . S
C2629 H2600 0.950 . S
C2629 C2628 1.397 . S
C2629 C2630 1.334 . S
C2630 H2601 0.950 . S
C2630 C2629 1.334 . S
C2630 C2631 1.287 . S
C2631 C2630 1.287 . S
C2631 C2632 1.524 . S
C2631 H2634 0.999 . S
C2632 H2602 0.950 . S
C2632 C2631 1.524 . S
C2632 C2633 1.415 . S
C2633 H2603 0.950 . S
C2633 C2628 1.363 . S
C2633 C2632 1.415 . S
H2634 C2631 0.999 . S
H2635 C2616 0.913 . S
H2636 C2654 0.951 . S
H2637 C2656 0.951 . S
H2638 C2658 0.950 . S
H2639 C2659 0.950 . S
H2640 C2661 0.950 . S
H2641 C2664 0.950 . S
H2642 C2665 0.950 . S
H2643 C2667 0.940 1_565 S
H2644 C2668 0.950 . S
H2645 C2669 0.951 . S
H2646 C2671 0.951 . S
H2647 C2673 0.950 . S
H2648 C2674 0.950 . S
H2649 C2676 0.950 . S
H2650 C2679 0.950 . S
H2651 C2680 0.950 . S
H2652 C2682 0.940 1_545 S
H2653 C2683 0.950 . S
C2654 H2636 0.951 . S
C2654 C2655 1.366 . S
C2654 C2656 1.388 . S
C2655 C2654 1.366 . S
C2655 C2659 1.385 . S
C2656 H2637 0.951 . S
C2656 C2654 1.388 . S
C2656 C2657 1.366 . S
C2657 C2656 1.366 . S
C2657 C2658 1.414 . S
C2657 C2660 1.499 . S
C2658 H2638 0.950 . S
C2658 C2657 1.414 . S
C2658 C2659 1.374 . S
C2659 H2639 0.950 . S
C2659 C2655 1.385 . S
C2659 C2658 1.374 . S
C2660 C2657 1.499 . S
C2660 C2661 1.373 1_556 S
C2660 C2662 1.389 1_455 S
C2661 H2640 0.950 . S
C2661 C2660 1.373 1_554 S
C2661 C2677 1.377 1_545 S
C2662 C2660 1.389 1_655 S
C2662 C2663 1.524 . S
C2662 C2676 1.377 1_545 S
C2663 C2662 1.524 . S
C2663 C2664 1.397 . S
C2663 C2668 1.363 1_545 S
C2664 H2641 0.950 . S
C2664 C2663 1.397 . S
C2664 C2665 1.334 . S
C2665 H2642 0.950 . S
C2665 C2664 1.334 . S
C2665 C2666 1.287 . S
C2666 C2665 1.287 . S
C2666 C2667 1.538 . S
C2666 H2685 0.913 . S
C2667 H2643 0.940 1_545 S
C2667 C2666 1.538 . S
C2667 C2668 1.412 1_545 S
C2668 H2644 0.950 . S
C2668 C2663 1.363 1_565 S
C2668 C2667 1.412 1_565 S
C2669 H2645 0.951 . S
C2669 C2670 1.366 . S
C2669 C2671 1.388 . S
C2670 C2669 1.366 . S
C2670 C2674 1.385 . S
C2671 H2646 0.951 . S
C2671 C2669 1.388 . S
C2671 C2672 1.366 . S
C2672 C2671 1.366 . S
C2672 C2673 1.414 . S
C2672 C2675 1.499 . S
C2673 H2647 0.950 . S
C2673 C2672 1.414 . S
C2673 C2674 1.374 . S
C2674 H2648 0.950 . S
C2674 C2670 1.385 . S
C2674 C2673 1.374 . S
C2675 C2672 1.499 . S
C2675 C2676 1.373 1_554 S
C2675 C2677 1.389 1_655 S
C2676 H2649 0.950 . S
C2676 C2662 1.377 1_565 S
C2676 C2675 1.373 1_556 S
C2677 C2661 1.377 1_565 S
C2677 C2675 1.389 1_455 S
C2677 C2678 1.524 . S
C2678 C2677 1.524 . S
C2678 C2679 1.397 . S
C2678 C2683 1.363 1_565 S
C2679 H2650 0.950 . S
C2679 C2678 1.397 . S
C2679 C2680 1.334 . S
C2680 H2651 0.950 . S
C2680 C2679 1.334 . S
C2680 C2681 1.287 . S
C2681 C2680 1.287 . S
C2681 C2682 1.538 . S
C2681 H2684 0.999 . S
C2682 H2652 0.940 1_565 S
C2682 C2681 1.538 . S
C2682 C2683 1.412 1_565 S
C2683 H2653 0.950 . S
C2683 C2678 1.363 1_545 S
C2683 C2682 1.412 1_545 S
H2684 C2681 0.999 . S
H2685 C2666 0.913 . S
H2686 C2704 0.951 . S
H2687 C2706 0.951 . S
H2688 C2708 0.950 . S
H2689 C2709 0.950 . S
H2690 C2711 0.950 . S
H2691 C2714 0.950 . S
H2692 C2715 0.950 . S
H2693 C2717 0.950 . S
H2694 C2718 0.950 . S
H2695 C2719 0.951 . S
H2696 C2721 0.951 . S
H2697 C2723 0.950 . S
H2698 C2724 0.950 . S
H2699 C2726 0.950 . S
H2700 C2729 0.950 . S
H2701 C2730 0.950 . S
H2702 C2732 0.950 . S
H2703 C2733 0.950 . S
C2704 H2686 0.951 . S
C2704 C2705 1.366 . S
C2704 C2706 1.388 . S
C2705 C2704 1.366 . S
C2705 C2709 1.385 . S
C2706 H2687 0.951 . S
C2706 C2704 1.388 . S
C2706 C2707 1.366 . S
C2707 C2706 1.366 . S
C2707 C2708 1.414 . S
C2707 C2710 1.499 . S
C2708 H2688 0.950 . S
C2708 C2707 1.414 . S
C2708 C2709 1.374 . S
C2709 H2689 0.950 . S
C2709 C2705 1.385 . S
C2709 C2708 1.374 . S
C2710 C2707 1.499 . S
C2710 C2711 1.373 . S
C2710 C2712 1.389 1_545 S
C2711 H2690 0.950 . S
C2711 C2710 1.373 . S
C2711 C2727 1.377 . S
C2712 C2710 1.389 1_565 S
C2712 C2713 1.524 . S
C2712 C2726 1.377 . S
C2713 C2712 1.524 . S
C2713 C2714 1.397 . S
C2713 C2718 1.363 . S
C2714 H2691 0.950 . S
C2714 C2713 1.397 . S
C2714 C2715 1.334 . S
C2715 H2692 0.950 . S
C2715 C2714 1.334 . S
C2715 C2716 1.287 . S
C2716 C2715 1.287 . S
C2716 C2717 1.524 . S
C2716 H2735 0.913 . S
C2717 H2693 0.950 . S
C2717 C2716 1.524 . S
C2717 C2718 1.415 . S
C2718 H2694 0.950 . S
C2718 C2713 1.363 . S
C2718 C2717 1.415 . S
C2719 H2695 0.951 . S
C2719 C2720 1.366 . S
C2719 C2721 1.388 . S
C2720 C2719 1.366 . S
C2720 C2724 1.385 . S
C2721 H2696 0.951 . S
C2721 C2719 1.388 . S
C2721 C2722 1.366 . S
C2722 C2721 1.366 . S
C2722 C2723 1.414 . S
C2722 C2725 1.499 . S
C2723 H2697 0.950 . S
C2723 C2722 1.414 . S
C2723 C2724 1.374 . S
C2724 H2698 0.950 . S
C2724 C2720 1.385 . S
C2724 C2723 1.374 . S
C2725 C2722 1.499 . S
C2725 C2726 1.373 . S
C2725 C2727 1.389 1_565 S
C2726 H2699 0.950 . S
C2726 C2712 1.377 . S
C2726 C2725 1.373 . S
C2727 C2711 1.377 . S
C2727 C2725 1.389 1_545 S
C2727 C2728 1.524 . S
C2728 C2727 1.524 . S
C2728 C2729 1.397 . S
C2728 C2733 1.363 . S
C2729 H2700 0.950 . S
C2729 C2728 1.397 . S
C2729 C2730 1.334 . S
C2730 H2701 0.950 . S
C2730 C2729 1.334 . S
C2730 C2731 1.287 . S
C2731 C2730 1.287 . S
C2731 C2732 1.524 . S
C2731 H2734 0.999 . S
C2732 H2702 0.950 . S
C2732 C2731 1.524 . S
C2732 C2733 1.415 . S
C2733 H2703 0.950 . S
C2733 C2728 1.363 . S
C2733 C2732 1.415 . S
H2734 C2731 0.999 . S
H2735 C2716 0.913 . S
C355 C16 1.059 . S
C370 C213 1.058 . S
C405 C37 1.057 . S
C420 C247 1.058 . S
C455 C45 1.057 . S
C470 C184 1.058 . S
C505 C79 1.059 . S
C520 C192 1.058 . S
C555 C87 1.059 . S
C570 C297 1.057 . S
C605 C108 1.058 . S
C620 C318 1.059 . S
C655 C129 1.058 . S
C670 C255 1.059 . S
C705 C163 1.058 . S
C720 C276 1.058 . S
C755 C193 1.411 . S
C770 C20 1.357 . S
C805 C214 1.411 . S
C820 C41 1.356 . S
C855 C238 1.410 . S
C870 C61 1.356 . S
C905 C175 1.410 . S
C920 C83 1.355 . S
C955 C103 1.356 . S
C970 C277 1.411 . S
C1005 C298 1.410 . S
C1020 C124 1.355 . S
C1055 C319 1.411 . S
C1070 C145 1.356 . S
C1105 C256 1.411 . S
C1120 C167 1.357 . S
C1155 C28 1.410 . S
C1170 C188 1.355 . S
C1205 C208 1.356 . S
C1220 C46 1.411 . S
C1255 C229 1.355 . S
C1270 C70 1.410 . S
C1305 C251 1.356 . S
C1320 C7 1.411 . S
C1355 C271 1.357 . S
C1370 C109 1.411 . S
C1405 C130 1.411 . S
C1420 C292 1.356 . S
C1455 C154 1.410 . S
C1470 C313 1.355 . S
C1505 C334 1.355 . S
C1520 C88 1.410 . S
C1555 C3 0.745 . S
C1570 C322 0.745 . S
C1605 C24 0.744 . S
C1620 C91 0.743 . S
C1655 C280 0.745 . S
C1670 C58 0.745 . S
C1705 C133 0.745 . S
C1720 C66 0.745 . S
C1755 C100 0.743 . S
C1770 C235 0.744 . S
C1805 C121 0.742 . S
C1820 C4 0.742 . S
C1855 C196 0.744 . S
C1870 C142 0.745 . S
C1905 C49 0.741 . S
C1920 C150 0.742 . S
C1955 C171 0.745 . S
C1970 C151 0.744 . S
C2005 C205 0.742 . S
C2020 C259 0.742 . S
C2055 C112 0.745 . S
C2070 C226 0.745 . S
C2105 C301 0.745 . S
C2120 C234 0.745 . S
C2155 C268 0.744 . S
C2170 C67 0.744 . S
C2205 C289 0.742 . S
C2220 C172 0.741 . S
C2255 C310 0.743 . S
C2270 C25 0.742 . S
C2305 C217 0.745 . S
C2320 C331 0.745 . S
C2355 C19 1.330 . S
C2370 C272 1.330 . S
C2405 C40 1.330 . S
C2420 C125 1.330 . S
C2455 C62 1.330 . S
C2470 C314 1.330 . S
C2505 C166 1.329 . S
C2520 C82 1.329 . S
C2555 C104 1.330 . S
C2570 C187 1.330 . S
C2605 C230 1.328 . S
C2620 C146 1.328 . S
C2655 C209 1.329 . S
C2670 C293 1.329 . S
C2705 C335 1.328 . S
C2720 C250 1.328 . S
