# Generated by pormake.
# Topology wiu, (6)-cn, num edge types: 1
# Building blocks:
#     Node 0, Type 0, BuildingBlock: BETDEL_clean_sbu_0, # of connection points: 6
#     Node 1, Type 0, BuildingBlock: BETDEL_clean_sbu_0, # of connection points: 6
#     Node 2, Type 0, BuildingBlock: BETDEL_clean_sbu_0, # of connection points: 6
#     Node 3, Type 0, BuildingBlock: BETDEL_clean_sbu_0, # of connection points: 6
#     Node 4, Type 0, BuildingBlock: BETDEL_clean_sbu_0, # of connection points: 6
#     Node 5, Type 0, BuildingBlock: BETDEL_clean_sbu_0, # of connection points: 6
#     Node 6, Type 0, BuildingBlock: BETDEL_clean_sbu_0, # of connection points: 6
#     Node 7, Type 0, BuildingBlock: BETDEL_clean_sbu_0, # of connection points: 6
#     Node 8, Type 0, BuildingBlock: BETDEL_clean_sbu_0, # of connection points: 6
#     Node 9, Type 0, BuildingBlock: BETDEL_clean_sbu_0, # of connection points: 6
#     Node 10, Type 0, BuildingBlock: BETDEL_clean_sbu_0, # of connection points: 6
#     Node 11, Type 0, BuildingBlock: BETDEL_clean_sbu_0, # of connection points: 6
#     Node 12, Type 0, BuildingBlock: BETDEL_clean_sbu_0, # of connection points: 6
#     Node 13, Type 0, BuildingBlock: BETDEL_clean_sbu_0, # of connection points: 6
#     Node 14, Type 0, BuildingBlock: BETDEL_clean_sbu_0, # of connection points: 6
#     Node 15, Type 0, BuildingBlock: BETDEL_clean_sbu_0, # of connection points: 6
#     Edge 16, Type (0, 0), BuildingBlock: TEMPAE_clean_linker_10, # of connection points: 2
#     Edge 17, Type (0, 0), BuildingBlock: TEMPAE_clean_linker_10, # of connection points: 2
#     Edge 18, Type (0, 0), BuildingBlock: TEMPAE_clean_linker_10, # of connection points: 2
#     Edge 19, Type (0, 0), BuildingBlock: TEMPAE_clean_linker_10, # of connection points: 2
#     Edge 20, Type (0, 0), BuildingBlock: TEMPAE_clean_linker_10, # of connection points: 2
#     Edge 21, Type (0, 0), BuildingBlock: TEMPAE_clean_linker_10, # of connection points: 2
#     Edge 22, Type (0, 0), BuildingBlock: TEMPAE_clean_linker_10, # of connection points: 2
#     Edge 23, Type (0, 0), BuildingBlock: TEMPAE_clean_linker_10, # of connection points: 2
#     Edge 24, Type (0, 0), BuildingBlock: TEMPAE_clean_linker_10, # of connection points: 2
#     Edge 25, Type (0, 0), BuildingBlock: TEMPAE_clean_linker_10, # of connection points: 2
#     Edge 26, Type (0, 0), BuildingBlock: TEMPAE_clean_linker_10, # of connection points: 2
#     Edge 27, Type (0, 0), BuildingBlock: TEMPAE_clean_linker_10, # of connection points: 2
#     Edge 28, Type (0, 0), BuildingBlock: TEMPAE_clean_linker_10, # of connection points: 2
#     Edge 29, Type (0, 0), BuildingBlock: TEMPAE_clean_linker_10, # of connection points: 2
#     Edge 30, Type (0, 0), BuildingBlock: TEMPAE_clean_linker_10, # of connection points: 2
#     Edge 31, Type (0, 0), BuildingBlock: TEMPAE_clean_linker_10, # of connection points: 2
#     Edge 32, Type (0, 0), BuildingBlock: TEMPAE_clean_linker_10, # of connection points: 2
#     Edge 33, Type (0, 0), BuildingBlock: TEMPAE_clean_linker_10, # of connection points: 2
#     Edge 34, Type (0, 0), BuildingBlock: TEMPAE_clean_linker_10, # of connection points: 2
#     Edge 35, Type (0, 0), BuildingBlock: TEMPAE_clean_linker_10, # of connection points: 2
#     Edge 36, Type (0, 0), BuildingBlock: TEMPAE_clean_linker_10, # of connection points: 2
#     Edge 37, Type (0, 0), BuildingBlock: TEMPAE_clean_linker_10, # of connection points: 2
#     Edge 38, Type (0, 0), BuildingBlock: TEMPAE_clean_linker_10, # of connection points: 2
#     Edge 39, Type (0, 0), BuildingBlock: TEMPAE_clean_linker_10, # of connection points: 2
#     Edge 40, Type (0, 0), BuildingBlock: TEMPAE_clean_linker_10, # of connection points: 2
#     Edge 41, Type (0, 0), BuildingBlock: TEMPAE_clean_linker_10, # of connection points: 2
#     Edge 42, Type (0, 0), BuildingBlock: TEMPAE_clean_linker_10, # of connection points: 2
#     Edge 43, Type (0, 0), BuildingBlock: TEMPAE_clean_linker_10, # of connection points: 2
#     Edge 44, Type (0, 0), BuildingBlock: TEMPAE_clean_linker_10, # of connection points: 2
#     Edge 45, Type (0, 0), BuildingBlock: TEMPAE_clean_linker_10, # of connection points: 2
#     Edge 46, Type (0, 0), BuildingBlock: TEMPAE_clean_linker_10, # of connection points: 2
#     Edge 47, Type (0, 0), BuildingBlock: TEMPAE_clean_linker_10, # of connection points: 2
#     Edge 48, Type (0, 0), BuildingBlock: TEMPAE_clean_linker_10, # of connection points: 2
#     Edge 49, Type (0, 0), BuildingBlock: TEMPAE_clean_linker_10, # of connection points: 2
#     Edge 50, Type (0, 0), BuildingBlock: TEMPAE_clean_linker_10, # of connection points: 2
#     Edge 51, Type (0, 0), BuildingBlock: TEMPAE_clean_linker_10, # of connection points: 2
#     Edge 52, Type (0, 0), BuildingBlock: TEMPAE_clean_linker_10, # of connection points: 2
#     Edge 53, Type (0, 0), BuildingBlock: TEMPAE_clean_linker_10, # of connection points: 2
#     Edge 54, Type (0, 0), BuildingBlock: TEMPAE_clean_linker_10, # of connection points: 2
#     Edge 55, Type (0, 0), BuildingBlock: TEMPAE_clean_linker_10, # of connection points: 2
#     Edge 56, Type (0, 0), BuildingBlock: TEMPAE_clean_linker_10, # of connection points: 2
#     Edge 57, Type (0, 0), BuildingBlock: TEMPAE_clean_linker_10, # of connection points: 2
#     Edge 58, Type (0, 0), BuildingBlock: TEMPAE_clean_linker_10, # of connection points: 2
#     Edge 59, Type (0, 0), BuildingBlock: TEMPAE_clean_linker_10, # of connection points: 2
#     Edge 60, Type (0, 0), BuildingBlock: TEMPAE_clean_linker_10, # of connection points: 2
#     Edge 61, Type (0, 0), BuildingBlock: TEMPAE_clean_linker_10, # of connection points: 2
#     Edge 62, Type (0, 0), BuildingBlock: TEMPAE_clean_linker_10, # of connection points: 2
#     Edge 63, Type (0, 0), BuildingBlock: TEMPAE_clean_linker_10, # of connection points: 2
# Relax obj value: 0.304
# Max RMSD: 0.279
# Mean RMSD: 0.279
data_MOF--net-wiu--node1-BETDEL_clean_sbu_0--edge1-TEMPAE_clean_linker_10
_symmetry_space_group_name_H-M    P1
_symmetry_Int_Tables_number       1
_symmetry_cell_setting            triclinic
loop_
_symmetry_equiv_pos_as_xyz
'x, y, z'
_cell_length_a     32.161669
_cell_length_b     32.121975
_cell_length_c     58.121807
_cell_angle_alpha  89.992145
_cell_angle_beta   90.036812
_cell_angle_gamma 89.931136
loop_
_atom_site_label
_atom_site_type_symbol
_atom_site_fract_x
_atom_site_fract_y
_atom_site_fract_z
_atom_type_partial_charge
Dy0 Dy 0.27986 0.14074 0.13629 0.0
C1 C 0.36537 0.00127 0.10204 0.0
C2 C 0.24237 0.20991 0.15379 0.0
Dy3 Dy 0.31914 0.06029 0.12336 0.0
O4 O 0.22973 0.18963 0.13582 0.0
O5 O 0.27466 0.1917 0.16253 0.0
O6 O 0.32351 0.17493 0.11338 0.0
O7 O 0.34506 0.12234 0.13072 0.0
C8 C 0.35481 0.15028 0.1164 0.0
C9 C 0.24318 0.0531 0.14161 0.0
O10 O 0.34033 0.06102 0.15969 0.0
O11 O 0.29115 0.10937 0.17116 0.0
O12 O 0.32541 0.0051 0.10016 0.0
O13 O 0.37994 0.02898 0.11613 0.0
O14 O 0.27114 0.02408 0.14392 0.0
O15 O 0.25592 0.0805 0.12814 0.0
O16 O 0.24825 0.12925 0.1021 0.0
O17 O 0.30045 0.08657 0.08888 0.0
C18 C 0.32017 0.081 0.17615 0.0
C19 C 0.26644 0.10877 0.08498 0.0
Dy20 Dy 0.58143 0.52174 0.37983 0.0
C21 C 0.71878 0.61098 0.34662 0.0
C22 C 0.51634 0.4776 0.39713 0.0
Dy23 Dy 0.65979 0.56378 0.36702 0.0
O24 O 0.53715 0.50557 0.4083 0.0
O25 O 0.53154 0.47327 0.37666 0.0
O26 O 0.54419 0.56597 0.35872 0.0
O27 O 0.59721 0.58807 0.3753 0.0
C28 C 0.56804 0.59784 0.36172 0.0
C29 C 0.66936 0.48745 0.38474 0.0
O30 O 0.65878 0.58459 0.40334 0.0
O31 O 0.6122 0.53385 0.41473 0.0
O32 O 0.71585 0.57094 0.34467 0.0
O33 O 0.68991 0.62518 0.36008 0.0
O34 O 0.69708 0.5164 0.38772 0.0
O35 O 0.64196 0.49977 0.3712 0.0
O36 O 0.59503 0.49085 0.34574 0.0
O37 O 0.6336 0.54581 0.33242 0.0
C38 C 0.63967 0.5636 0.41974 0.0
C39 C 0.6135 0.51058 0.32848 0.0
Dy40 Dy 0.18862 0.83514 0.63548 0.0
C41 C 0.10394 0.97545 0.60202 0.0
C42 C 0.22933 0.76763 0.65278 0.0
Dy43 Dy 0.14861 0.9145 0.62261 0.0
O44 O 0.24148 0.7893 0.63523 0.0
O45 O 0.19546 0.78335 0.66115 0.0
O46 O 0.14457 0.80012 0.613 0.0
O47 O 0.12296 0.85257 0.63038 0.0
C48 C 0.11296 0.82428 0.61633 0.0
C49 C 0.224 0.92332 0.64117 0.0
O50 O 0.12742 0.91355 0.65896 0.0
O51 O 0.17746 0.86612 0.67038 0.0
O52 O 0.14403 0.97219 0.6013 0.0
O53 O 0.08817 0.94571 0.61433 0.0
O54 O 0.19496 0.95109 0.64376 0.0
O55 O 0.21244 0.89568 0.62745 0.0
O56 O 0.21958 0.84596 0.60115 0.0
O57 O 0.16795 0.88932 0.58794 0.0
C58 C 0.14812 0.89405 0.67541 0.0
C59 C 0.20178 0.86683 0.58407 0.0
Dy60 Dy 0.89347 0.45953 0.88213 0.0
C61 C 0.80124 0.3266 0.84936 0.0
C62 C 0.94905 0.51652 0.89817 0.0
Dy63 Dy 0.82397 0.39879 0.86898 0.0
O64 O 0.9392 0.51114 0.87677 0.0
O65 O 0.92722 0.49165 0.91094 0.0
O66 O 0.94052 0.41654 0.86612 0.0
O67 O 0.8876 0.39215 0.88159 0.0
C68 C 0.91928 0.38314 0.86995 0.0
C69 C 0.79891 0.4742 0.8821 0.0
O70 O 0.82744 0.38474 0.9063 0.0
O71 O 0.86125 0.446 0.91649 0.0
O72 O 0.77481 0.35258 0.85866 0.0
O73 O 0.83887 0.34061 0.85065 0.0
O74 O 0.77456 0.44179 0.88427 0.0
O75 O 0.83061 0.46453 0.87094 0.0
O76 O 0.8776 0.48348 0.84641 0.0
O77 O 0.83862 0.42702 0.83411 0.0
C78 C 0.83969 0.41185 0.92208 0.0
C79 C 0.85843 0.46249 0.8297 0.0
Dy80 Dy 0.64814 0.89352 0.96736 0.0
C81 C 0.76115 0.76686 0.93644 0.0
C82 C 0.57681 0.9171 0.9879 0.0
Dy83 Dy 0.70837 0.82518 0.95394 0.0
O84 O 0.60342 0.9433 0.97904 0.0
O85 O 0.58962 0.87915 0.98557 0.0
O86 O 0.68913 0.94343 0.95111 0.0
O87 O 0.71425 0.88833 0.96462 0.0
C88 C 0.72229 0.92004 0.95303 0.0
C89 C 0.63332 0.79814 0.96771 0.0
O90 O 0.73518 0.84251 0.98881 0.0
O91 O 0.67794 0.87928 1.00192 0.0
O92 O 0.73826 0.79186 0.9243 0.0
O93 O 0.75693 0.77567 0.95806 0.0
O94 O 0.66767 0.77875 0.9718 0.0
O95 O 0.64072 0.82939 0.95529 0.0
O96 O 0.63286 0.89092 0.93015 0.0
O97 O 0.69358 0.85677 0.91958 0.0
C98 C 0.71439 0.86095 1.00585 0.0
C99 C 0.65952 0.87859 0.91419 0.0
Dy100 Dy 0.31805 0.39865 0.70956 0.0
C101 C 0.4633 0.47414 0.67608 0.0
C102 C 0.26168 0.35185 0.73257 0.0
Dy103 Dy 0.39416 0.43995 0.69551 0.0
O104 O 0.26386 0.39205 0.73331 0.0
O105 O 0.28963 0.33712 0.71869 0.0
O106 O 0.27809 0.44292 0.68907 0.0
O107 O 0.33358 0.46373 0.70412 0.0
C108 C 0.30425 0.47355 0.69098 0.0
C109 C 0.40856 0.36628 0.71633 0.0
O110 O 0.38441 0.47295 0.72952 0.0
O111 O 0.34395 0.42001 0.74362 0.0
O112 O 0.44582 0.43978 0.66971 0.0
O113 O 0.44201 0.49101 0.69261 0.0
O114 O 0.43004 0.39966 0.7196 0.0
O115 O 0.3802 0.37363 0.70179 0.0
O116 O 0.31608 0.37751 0.6732 0.0
O117 O 0.36126 0.4287 0.66109 0.0
C118 C 0.36493 0.45489 0.74702 0.0
C119 C 0.3336 0.39897 0.65642 0.0
Dy120 Dy 0.82634 0.08233 0.4672 0.0
C121 C 0.70026 0.19627 0.43613 0.0
C122 C 0.89988 0.06381 0.4868 0.0
Dy123 Dy 0.76073 0.14567 0.45344 0.0
O124 O 0.87509 0.03595 0.47789 0.0
O125 O 0.88408 0.10076 0.48514 0.0
O126 O 0.78809 0.02885 0.45254 0.0
O127 O 0.76004 0.08297 0.46552 0.0
C128 C 0.75353 0.05 0.4547 0.0
C129 C 0.83467 0.1785 0.46519 0.0
O130 O 0.73782 0.13013 0.4893 0.0
O131 O 0.79701 0.09598 0.502 0.0
O132 O 0.72634 0.17479 0.42393 0.0
O133 O 0.70629 0.18851 0.45775 0.0
O134 O 0.79949 0.19664 0.469 0.0
O135 O 0.82849 0.14582 0.45377 0.0
O136 O 0.83936 0.08412 0.42969 0.0
O137 O 0.77558 0.11269 0.41956 0.0
C138 C 0.76013 0.11323 0.50623 0.0
C139 C 0.81089 0.0932 0.41398 0.0
Dy140 Dy 0.14736 0.58012 0.20793 0.0
C141 C 0.01422 0.47952 0.17423 0.0
C142 C 0.17507 0.64638 0.23177 0.0
Dy143 Dy 0.07653 0.52555 0.19327 0.0
O144 O 0.19939 0.6216 0.22009 0.0
O145 O 0.13665 0.63495 0.23004 0.0
O146 O 0.19592 0.53741 0.19256 0.0
O147 O 0.13897 0.51391 0.20479 0.0
C148 C 0.17134 0.5051 0.19378 0.0
C149 C 0.05429 0.60138 0.20845 0.0
O150 O 0.08639 0.49839 0.22897 0.0
O151 O 0.13078 0.54996 0.24193 0.0
O152 O 0.03208 0.51119 0.16464 0.0
O153 O 0.03209 0.47152 0.19375 0.0
O154 O 0.0333 0.56798 0.21255 0.0
O155 O 0.08462 0.59278 0.19565 0.0
O156 O 0.14638 0.59732 0.1709 0.0
O157 O 0.11211 0.53721 0.15975 0.0
C158 C 0.10763 0.5165 0.24593 0.0
C159 C 0.13469 0.5709 0.15465 0.0
Dy160 Dy 0.763 0.64326 0.63191 0.0
C161 C 0.90109 0.56125 0.59822 0.0
C162 C 0.70378 0.69505 0.64946 0.0
Dy163 Dy 0.82789 0.58029 0.61813 0.0
O164 O 0.70764 0.68515 0.62797 0.0
O165 O 0.73118 0.67489 0.66147 0.0
O166 O 0.80153 0.69407 0.61608 0.0
O167 O 0.83088 0.64364 0.63161 0.0
C168 C 0.83681 0.67632 0.62014 0.0
C169 C 0.75512 0.54733 0.63037 0.0
O170 O 0.84099 0.58153 0.65566 0.0
O171 O 0.777 0.60951 0.66564 0.0
O172 O 0.87597 0.53353 0.60695 0.0
O173 O 0.88587 0.59836 0.60032 0.0
O174 O 0.78999 0.52682 0.63284 0.0
O175 O 0.76128 0.58046 0.61956 0.0
O176 O 0.73998 0.62906 0.59593 0.0
O177 O 0.7988 0.59436 0.58332 0.0
C178 C 0.81237 0.59023 0.6713 0.0
C179 C 0.76214 0.61203 0.57903 0.0
Dy180 Dy 0.07714 0.02392 0.88799 0.0
C181 C 0.17159 0.15185 0.85216 0.0
C182 C 0.01683 0.97423 0.90622 0.0
Dy183 Dy 0.14621 0.0819 0.8736 0.0
O184 O 0.03679 0.00299 0.91727 0.0
O185 O 0.03171 0.97098 0.88557 0.0
O186 O 0.03165 0.06613 0.87011 0.0
O187 O 0.08336 0.09138 0.88644 0.0
C188 C 0.05221 0.09977 0.87422 0.0
C189 C 0.17254 0.00721 0.88715 0.0
O190 O 0.14554 0.09675 0.91096 0.0
O191 O 0.11227 0.03568 0.92161 0.0
O192 O 0.19698 0.12494 0.86148 0.0
O193 O 0.13337 0.14023 0.85465 0.0
O194 O 0.19608 0.04026 0.88872 0.0
O195 O 0.13992 0.01544 0.87621 0.0
O196 O 0.08906 -0.002 0.85229 0.0
O197 O 0.12966 0.05263 0.83927 0.0
C198 C 0.13436 0.06956 0.92694 0.0
C199 C 0.10854 0.01778 0.83528 0.0
Dy200 Dy 0.70479 0.32498 0.13144 0.0
C201 C 0.57315 0.41592 0.09637 0.0
C202 C 0.75738 0.26714 0.14966 0.0
Dy203 Dy 0.64423 0.39282 0.11743 0.0
O204 O 0.755 0.27688 0.12806 0.0
O205 O 0.73277 0.291 0.16143 0.0
O206 O 0.66477 0.27795 0.11369 0.0
O207 O 0.63706 0.32881 0.12972 0.0
C208 C 0.63024 0.29722 0.11746 0.0
C209 C 0.71836 0.41997 0.1316 0.0
O210 O 0.62902 0.39097 0.15467 0.0
O211 O 0.69019 0.35779 0.16544 0.0
O212 O 0.59937 0.44226 0.10546 0.0
O213 O 0.58615 0.37805 0.09879 0.0
O214 O 0.68512 0.44331 0.13328 0.0
O215 O 0.71026 0.38793 0.1203 0.0
O216 O 0.73149 0.3413 0.09642 0.0
O217 O 0.67448 0.37822 0.08305 0.0
C218 C 0.65597 0.37943 0.1707 0.0
C219 C 0.71088 0.35969 0.07928 0.0
Dy220 Dy 0.39562 0.94549 0.38727 0.0
C221 C 0.2708 0.84564 0.3515 0.0
C222 C 0.46158 -0.01349 0.40604 0.0
Dy223 Dy 0.32252 0.89886 0.37342 0.0
O224 O 0.44445 -0.00443 0.38648 0.0
O225 O 0.44136 0.95647 0.41576 0.0
O226 O 0.43549 0.90529 0.3651 0.0
O227 O 0.38565 0.87816 0.38228 0.0
C228 C 0.41507 0.87131 0.3684 0.0
C229 C 0.30402 0.97373 0.39083 0.0
O230 O 0.32122 0.87948 0.41006 0.0
O231 O 0.36315 0.93373 0.42173 0.0
O232 O 0.26764 0.88583 0.35098 0.0
O233 O 0.30153 0.83444 0.36455 0.0
O234 O 0.27979 0.94163 0.39326 0.0
O235 O 0.3339 0.96501 0.37786 0.0
O236 O 0.383 0.97715 0.35318 0.0
O237 O 0.3471 0.92098 0.33918 0.0
C238 C 0.3372 0.90261 0.42662 0.0
C239 C 0.3656 0.9572 0.33564 0.0
Dy240 Dy 0.14684 0.41541 0.45935 0.0
C241 C 0.22355 0.26683 0.42909 0.0
C242 C 0.10235 0.47605 0.48037 0.0
Dy243 Dy 0.1858 0.33575 0.44661 0.0
O244 O 0.14246 0.47284 0.48089 0.0
O245 O 0.08648 0.44654 0.46792 0.0
O246 O 0.19296 0.45167 0.43807 0.0
O247 O 0.21063 0.39612 0.45436 0.0
C248 C 0.222 0.42385 0.4406 0.0
C249 C 0.11068 0.32618 0.46654 0.0
O250 O 0.21688 0.34524 0.48106 0.0
O251 O 0.16672 0.39054 0.49404 0.0
O252 O 0.18783 0.28124 0.42257 0.0
O253 O 0.23926 0.29063 0.44487 0.0
O254 O 0.14234 0.30217 0.4701 0.0
O255 O 0.12047 0.35372 0.452 0.0
O256 O 0.12527 0.41471 0.42301 0.0
O257 O 0.17441 0.3664 0.41162 0.0
C258 C 0.19981 0.367 0.49802 0.0
C259 C 0.14541 0.39468 0.40656 0.0
Dy260 Dy 0.82542 0.89963 0.21688 0.0
C261 C 0.94916 0.01854 0.18784 0.0
C262 C 0.80394 0.82697 0.23643 0.0
Dy263 Dy 0.8942 0.96097 0.20382 0.0
O264 O 0.77706 0.85255 0.22716 0.0
O265 O 0.84132 0.84164 0.23519 0.0
O266 O 0.77549 0.94193 0.20157 0.0
O267 O 0.83127 0.96555 0.21494 0.0
C268 C 0.79941 0.97466 0.20373 0.0
C269 C 0.92068 0.88447 0.21566 0.0
O270 O 0.8777 0.98509 0.2394 0.0
O271 O 0.83955 0.92818 0.25178 0.0
O272 O 0.92573 -0.00474 0.17501 0.0
O273 O 0.94126 0.01126 0.20931 0.0
O274 O 0.94164 0.918 0.21966 0.0
O275 O 0.88895 0.8936 0.20409 0.0
O276 O 0.82865 0.88578 0.17951 0.0
O277 O 0.86256 0.94699 0.16935 0.0
C278 C 0.85881 0.96398 0.25615 0.0
C279 C 0.84099 0.91286 0.16374 0.0
Dy280 Dy 0.3208 0.56234 0.95877 0.0
C281 C 0.24717 0.71298 0.92791 0.0
C282 C 0.36608 0.50273 0.9803 0.0
Dy283 Dy 0.28274 0.64295 0.94566 0.0
O284 O 0.3261 0.50679 0.9818 0.0
O285 O 0.38122 0.53058 0.96649 0.0
O286 O 0.27278 0.52646 0.93814 0.0
O287 O 0.25766 0.58313 0.95375 0.0
C288 C 0.24493 0.5556 0.94032 0.0
C289 C 0.3574 0.65157 0.96613 0.0
O290 O 0.25076 0.6324 0.97987 0.0
O291 O 0.30188 0.58851 0.99322 0.0
O292 O 0.28075 0.69553 0.92028 0.0
O293 O 0.23219 0.69147 0.94486 0.0
O294 O 0.32609 0.67616 0.96923 0.0
O295 O 0.3477 0.62404 0.95155 0.0
O296 O 0.34228 0.56238 0.9225 0.0
O297 O 0.29386 0.61129 0.91081 0.0
C298 C 0.26828 0.61136 0.99702 0.0
C299 C 0.32251 0.58248 0.90594 0.0
Dy300 Dy 0.65721 0.06283 0.71782 0.0
C301 C 0.51723 0.9718 0.68787 0.0
C302 C 0.71464 0.11152 0.73852 0.0
Dy303 Dy 0.58068 0.01847 0.70505 0.0
O304 O 0.7131 0.07136 0.74017 0.0
O305 O 0.68526 0.12508 0.72517 0.0
O306 O 0.696 0.017 0.69697 0.0
O307 O 0.64172 -0.00189 0.71365 0.0
C308 C 0.66949 -0.01302 0.70003 0.0
C309 C 0.56458 0.09435 0.72288 0.0
O310 O 0.59622 -0.01278 0.73881 0.0
O311 O 0.63161 0.04395 0.75239 0.0
O312 O 0.54014 -0.00309 0.67592 0.0
O313 O 0.52947 0.97172 0.70908 0.0
O314 O 0.54188 0.06169 0.72594 0.0
O315 O 0.594 0.08542 0.70933 0.0
O316 O 0.65594 0.08388 0.68156 0.0
O317 O 0.61035 0.03233 0.67006 0.0
C318 C 0.61341 0.00769 0.75621 0.0
C319 C 0.6372 0.06266 0.66511 0.0
C320 C 0.42985 0.15399 0.12773 0.0
C321 C 0.39752 0.16599 0.11299 0.0
C322 C 0.46831 0.17478 0.12728 0.0
C323 C 0.47461 0.20785 0.11149 0.0
C324 C 0.44277 0.21842 0.09572 0.0
C325 C 0.40455 0.19749 0.09675 0.0
C326 C 0.50146 0.16269 0.14443 0.0
C327 C 0.44847 0.25294 0.07835 0.0
C328 C 0.55455 0.29064 0.12688 0.0
C329 C 0.58937 0.27694 0.11455 0.0
C330 C 0.51686 0.26858 0.12591 0.0
C331 C 0.51389 0.23238 0.11203 0.0
C332 C 0.54859 0.21941 0.0989 0.0
C333 C 0.58597 0.24172 0.10043 0.0
C334 C 0.48055 0.28339 0.14019 0.0
C335 C 0.54644 0.18156 0.08353 0.0
H336 H 0.42443 0.12982 0.1404 0.0
H337 H 0.37957 0.20674 0.08529 0.0
H338 H 0.53105 0.15569 0.13542 0.0
H339 H 0.50748 0.18916 0.15624 0.0
H340 H 0.49244 0.13514 0.15484 0.0
H341 H 0.42203 0.25502 0.06609 0.0
H342 H 0.45138 0.28321 0.0874 0.0
H343 H 0.47756 0.24812 0.06845 0.0
H344 H 0.55713 0.31785 0.13782 0.0
H345 H 0.61283 0.23122 0.09076 0.0
H346 H 0.47147 0.25877 0.1526 0.0
H347 H 0.45328 0.28942 0.12898 0.0
H348 H 0.4878 0.31226 0.14991 0.0
H349 H 0.54048 0.15338 0.09405 0.0
H350 H 0.57558 0.17674 0.07363 0.0
H351 H 0.52021 0.18468 0.07124 0.0
C352 C 0.56267 0.67239 0.37438 0.0
C353 C 0.55054 0.64029 0.3595 0.0
C354 C 0.54075 0.71036 0.3749 0.0
C355 C 0.50627 0.71642 0.36003 0.0
C356 C 0.49532 0.6848 0.3442 0.0
C357 C 0.51747 0.64712 0.3442 0.0
C358 C 0.55346 0.74335 0.392 0.0
C359 C 0.4593 0.69019 0.32778 0.0
C360 C 0.42323 0.79527 0.37747 0.0
C361 C 0.43509 0.83031 0.36472 0.0
C362 C 0.44599 0.75788 0.37601 0.0
C363 C 0.4811 0.75545 0.36129 0.0
C364 C 0.49218 0.79036 0.34779 0.0
C365 C 0.46913 0.82733 0.34972 0.0
C366 C 0.43313 0.72131 0.39067 0.0
C367 C 0.52892 0.78896 0.33163 0.0
H368 H 0.58803 0.66716 0.38633 0.0
H369 H 0.50808 0.62237 0.33263 0.0
H370 H 0.55925 0.77327 0.38304 0.0
H371 H 0.52782 0.74871 0.40442 0.0
H372 H 0.58188 0.73454 0.40173 0.0
H373 H 0.45637 0.66365 0.31563 0.0
H374 H 0.42989 0.69302 0.33762 0.0
H375 H 0.46305 0.71928 0.3177 0.0
H376 H 0.39705 0.79748 0.38915 0.0
H377 H 0.47831 0.85434 0.33976 0.0
H378 H 0.45877 0.7129 0.40259 0.0
H379 H 0.42709 0.69378 0.37965 0.0
H380 H 0.40479 0.72797 0.40096 0.0
H381 H 0.55789 0.78345 0.34155 0.0
H382 H 0.53247 0.81827 0.32168 0.0
H383 H 0.52549 0.76272 0.31937 0.0
C384 C 0.06237 0.77592 0.59788 0.0
C385 C 0.07016 0.8079 0.61374 0.0
C386 C 0.02392 0.75521 0.59739 0.0
C387 C -0.00738 0.76634 0.61338 0.0
C388 C -0.00019 0.79965 0.6289 0.0
C389 C 0.0384 0.82029 0.62876 0.0
C390 C 0.01732 0.72049 0.58027 0.0
C391 C 0.96743 0.81225 0.64636 0.0
C392 C 0.88037 0.73307 0.60348 0.0
C393 C 0.87732 0.69765 0.61748 0.0
C394 C 0.91785 0.75529 0.60165 0.0
C395 C 0.953 0.74217 0.61443 0.0
C396 C 0.95021 0.70604 0.62838 0.0
C397 C 0.91248 0.68401 0.62959 0.0
C398 C 0.91974 0.79299 0.58617 0.0
C399 C -0.01316 0.69111 0.64239 0.0
H400 H 0.08686 0.76632 0.58621 0.0
H401 H 0.04435 0.8448 0.64115 0.0
H402 H 0.0142 0.69041 0.58949 0.0
H403 H -0.01195 0.72558 0.57055 0.0
H404 H 0.04341 0.71782 0.56784 0.0
H405 H 0.97716 0.83974 0.65663 0.0
H406 H 0.93762 0.81959 0.63764 0.0
H407 H 0.96148 0.78593 0.65828 0.0
H408 H 0.85329 0.74355 0.59398 0.0
H409 H 0.91023 0.65666 0.64045 0.0
H410 H 0.94528 0.78936 0.5735 0.0
H411 H 0.92666 0.82117 0.59651 0.0
H412 H 0.89017 0.79817 0.5767 0.0
H413 H 0.01354 0.68428 0.63093 0.0
H414 H 0.97954 0.66265 0.65247 0.0
H415 H -0.00317 0.71595 0.65445 0.0
C416 C 0.00213 0.14825 0.85534 0.0
C417 C 0.03495 0.14194 0.87083 0.0
C418 C 0.98318 0.18746 0.85312 0.0
C419 C -0.00312 0.22085 0.86709 0.0
C420 C 0.03064 0.21478 0.88242 0.0
C421 C 0.04959 0.17547 0.88391 0.0
C422 C 0.94809 0.193 0.83611 0.0
C423 C 0.04579 0.24941 0.89785 0.0
C424 C 0.97056 0.33347 0.8531 0.0
C425 C 0.93667 0.34077 0.8677 0.0
C426 C -0.01039 0.29413 0.85209 0.0
C427 C 0.9749 0.26168 0.86641 0.0
C428 C 0.94005 0.26871 0.88082 0.0
C429 C 0.92105 0.30809 0.88109 0.0
C430 C 0.0259 0.28749 0.83602 0.0
C431 C 0.92374 0.2351 0.89657 0.0
H432 H -0.00898 0.12237 0.84507 0.0
H433 H 0.07496 0.17061 0.89592 0.0
H434 H 0.91888 0.20057 0.84536 0.0
H435 H 0.95488 0.21948 0.82445 0.0
H436 H 0.94282 0.16467 0.82555 0.0
H437 H 0.07274 0.23978 0.90858 0.0
H438 H 0.055 0.27676 0.88739 0.0
H439 H 0.02025 0.25957 0.9094 0.0
H440 H 0.98245 0.35869 0.8426 0.0
H441 H 0.89484 0.31369 0.8924 0.0
H442 H 0.02004 0.26015 0.82482 0.0
H443 H 0.05445 0.28074 0.84608 0.0
H444 H 0.03184 0.31506 0.82496 0.0
H445 H 0.91524 0.2071 0.88646 0.0
H446 H 0.89605 0.24543 0.90648 0.0
H447 H 0.94841 0.22569 0.90888 0.0
C448 C 0.55791 0.79173 0.95746 0.0
C449 C 0.59231 0.77789 0.97013 0.0
C450 C 0.52014 0.76972 0.95798 0.0
C451 C 0.51667 0.73338 0.97171 0.0
C452 C 0.55094 0.72022 0.98515 0.0
C453 C 0.5884 0.74251 0.9841 0.0
C454 C 0.4843 0.78476 0.94339 0.0
C455 C 0.54826 0.68221 1.00037 0.0
C456 C 0.40691 0.6986 0.98613 0.0
C457 C 0.4001 0.66723 0.96978 0.0
C458 C 0.44513 0.71949 0.98744 0.0
C459 C 0.47725 0.70899 0.97186 0.0
C460 C 0.47117 0.67607 0.95595 0.0
C461 C 0.43268 0.65534 0.95519 0.0
C462 C 0.45052 0.7539 1.0049 0.0
C463 C 0.50465 0.66403 0.93901 0.0
H464 H 0.56087 0.81905 0.94663 0.0
H465 H 0.61493 0.73188 0.99402 0.0
H466 H 0.45674 0.7908 0.95436 0.0
H467 H 0.49192 0.81369 0.9338 0.0
H468 H 0.47548 0.76028 0.93084 0.0
H469 H 0.57717 0.6771 1.01046 0.0
H470 H 0.5218 0.68534 1.01248 0.0
H471 H 0.54236 0.65418 0.98971 0.0
H472 H 0.38175 0.70777 0.99747 0.0
H473 H 0.42744 0.63129 0.94244 0.0
H474 H 0.45371 0.7842 0.99591 0.0
H475 H 0.47937 0.74896 1.01501 0.0
H476 H 0.42382 0.756 1.01696 0.0
H477 H 0.51103 0.69059 0.92732 0.0
H478 H 0.49576 0.63661 0.92846 0.0
H479 H 0.53402 0.65683 0.94821 0.0
C480 C 0.51153 0.1417 0.73981 0.0
C481 C 0.54565 0.13624 0.72507 0.0
C482 C 0.48848 0.17883 0.73983 0.0
C483 C 0.49966 0.21141 0.72467 0.0
C484 C 0.53509 0.20671 0.71035 0.0
C485 C 0.55781 0.16919 0.71078 0.0
C486 C 0.45139 0.1827 0.75562 0.0
C487 C 0.54813 0.24077 0.694 0.0
C488 C 0.41692 0.2904 0.70682 0.0
C489 C 0.42773 0.32492 0.72027 0.0
C490 C 0.43979 0.25305 0.70824 0.0
C491 C 0.47397 0.25015 0.72362 0.0
C492 C 0.4838 0.28443 0.7379 0.0
C493 C 0.46064 0.32134 0.73602 0.0
C494 C 0.4282 0.21714 0.69278 0.0
C495 C 0.51952 0.28253 0.75475 0.0
H496 H 0.50209 0.11631 0.75093 0.0
H497 H 0.58401 0.16505 0.69928 0.0
H498 H 0.45411 0.21117 0.76632 0.0
H499 H 0.42256 0.18581 0.74526 0.0
H500 H 0.44807 0.15537 0.76719 0.0
H501 H 0.57711 0.23286 0.68456 0.0
H502 H 0.523 0.24653 0.68129 0.0
H503 H 0.55312 0.27024 0.70355 0.0
H504 H 0.39165 0.29308 0.69455 0.0
H505 H 0.46903 0.34794 0.74652 0.0
H506 H 0.42227 0.18884 0.70321 0.0
H507 H 0.45445 0.20995 0.68105 0.0
H508 H 0.40015 0.2239 0.68226 0.0
H509 H 0.51585 0.25541 0.76639 0.0
H510 H 0.52192 0.31119 0.76536 0.0
H511 H 0.54918 0.27821 0.7453 0.0
C512 C 0.03587 0.32194 0.45464 0.0
C513 C 0.06794 0.31003 0.4696 0.0
C514 C -0.0027 0.30131 0.45494 0.0
C515 C -0.00953 0.26852 0.47083 0.0
C516 C 0.02207 0.25794 0.48677 0.0
C517 C 0.06049 0.27863 0.48585 0.0
C518 C 0.96455 0.31332 0.43753 0.0
C519 C 0.01585 0.22375 0.50427 0.0
C520 C 0.87847 0.23541 0.48143 0.0
C521 C 0.87526 0.19969 0.46769 0.0
C522 C 0.91596 0.25767 0.48298 0.0
C523 C 0.95093 0.24422 0.47019 0.0
C524 C 0.94801 0.20772 0.45655 0.0
C525 C 0.91027 0.1857 0.45561 0.0
C526 C 0.91802 0.29579 0.49813 0.0
C527 C 0.98448 0.19243 0.44255 0.0
H528 H 0.04157 0.34601 0.44195 0.0
H529 H 0.08522 0.26942 0.49748 0.0
H530 H 0.95847 0.28665 0.42588 0.0
H531 H 0.93488 0.32082 0.44633 0.0
H532 H 0.97401 0.34054 0.42698 0.0
H533 H 0.0421 0.22162 0.51664 0.0
H534 H -0.01333 0.22901 0.51403 0.0
H535 H 0.01276 0.19336 0.49536 0.0
H536 H 0.85149 0.24616 0.49091 0.0
H537 H 0.90788 0.15811 0.44495 0.0
H538 H 0.92461 0.32371 0.48751 0.0
H539 H 0.94383 0.29262 0.51068 0.0
H540 H 0.88862 0.30111 0.50772 0.0
H541 H -0.00581 0.21689 0.43019 0.0
H542 H 0.97713 0.16361 0.43281 0.0
H543 H 0.01139 0.1861 0.45398 0.0
C544 C 0.00545 0.64991 0.22819 0.0
C545 C 0.03758 0.64367 0.21227 0.0
C546 C -0.01339 0.68911 0.23073 0.0
C547 C -0.0003 0.72261 0.21668 0.0
C548 C 0.03284 0.71666 0.20094 0.0
C549 C 0.05173 0.67732 0.19912 0.0
C550 C 0.95217 0.69446 0.24814 0.0
C551 C 0.04733 0.75142 0.18542 0.0
C552 C 0.92279 0.80967 0.20395 0.0
C553 C 0.93861 0.84221 0.21739 0.0
C554 C 0.94215 0.77046 0.20375 0.0
C555 C 0.97763 0.7634 0.2177 0.0
C556 C -0.00736 0.7957 0.23205 0.0
C557 C 0.97318 0.83489 0.23153 0.0
C558 C 0.92542 0.737 0.18803 0.0
C559 C 0.02966 0.78908 0.24763 0.0
H560 H -0.00529 0.62395 0.23851 0.0
H561 H 0.07655 0.67253 0.18678 0.0
H562 H 0.95929 0.72096 0.25973 0.0
H563 H 0.92257 0.7019 0.23922 0.0
H564 H 0.94744 0.66609 0.25875 0.0
H565 H 0.07402 0.74197 0.17446 0.0
H566 H 0.02139 0.76143 0.17408 0.0
H567 H 0.05666 0.77881 0.19581 0.0
H568 H 0.89608 0.81527 0.19299 0.0
H569 H 0.98525 0.85998 0.24206 0.0
H570 H 0.91731 0.70887 0.19812 0.0
H571 H 0.94972 0.72777 0.17546 0.0
H572 H 0.8974 0.74737 0.1784 0.0
H573 H 0.02469 0.76131 0.25864 0.0
H574 H 0.03566 0.81639 0.25887 0.0
H575 H 0.05785 0.78308 0.23716 0.0
C576 C 0.37568 0.97099 0.06344 0.0
C577 C 0.39124 0.97895 0.08551 0.0
C578 C 0.40241 0.95907 0.04565 0.0
C579 C 0.44523 0.95407 0.05042 0.0
C580 C 0.46047 0.95921 0.0731 0.0
C581 C 0.43323 0.9722 0.09039 0.0
C582 C 0.38535 0.95459 1.02156 0.0
C583 C 0.50585 0.95289 0.07887 0.0
C584 C 0.51617 0.89507 1.01067 0.0
C585 C 0.53949 0.92755 1.00106 0.0
C586 C 0.48403 0.90331 1.02612 0.0
C587 C 0.47469 0.94506 1.03165 0.0
C588 C 0.49625 0.9781 1.02078 0.0
C589 C 0.52885 0.96889 1.00562 0.0
C590 C 0.46184 0.86736 1.03753 0.0
C591 C 0.48627 0.02305 1.02602 0.0
H592 H 0.34317 0.97688 0.05968 0.0
H593 H 0.44501 0.97854 0.10752 0.0
H594 H 0.3976 0.98009 1.01061 0.0
H595 H 0.39564 0.92481 1.01376 0.0
H596 H 0.35083 0.9559 1.02117 0.0
H597 H 0.51186 0.95476 0.09766 0.0
H598 H 0.5166 0.92211 0.07255 0.0
H599 H 0.52482 0.977 0.07013 0.0
H600 H 0.52417 0.86298 1.00691 0.0
H601 H 0.5468 -0.00612 0.99799 0.0
H602 H 0.42775 0.8704 1.03521 0.0
H603 H 0.46811 0.8678 0.05631 0.0
H604 H 0.47186 0.83675 1.03057 0.0
H605 H 0.45228 0.02859 1.02473 0.0
H606 H 0.50253 0.0448 1.01421 0.0
H607 H 0.49573 0.03039 0.04393 0.0
C608 C 0.74754 0.67936 0.33598 0.0
C609 C 0.74234 0.63722 0.33089 0.0
C610 C 0.76146 0.70694 0.31911 0.0
C611 C 0.76924 0.69181 0.29665 0.0
C612 C 0.76628 0.64881 0.2918 0.0
C613 C 0.75323 0.62177 0.30919 0.0
C614 C 0.76569 0.75256 0.325 0.0
C615 C 0.77379 0.63184 0.26793 0.0
C616 C 0.75358 0.77558 0.25211 0.0
C617 C 0.79455 0.78851 0.24876 0.0
C618 C 0.74498 0.7419 0.26663 0.0
C619 C 0.77822 0.72167 0.27812 0.0
C620 C 0.81975 0.73324 0.27372 0.0
C621 C 0.82745 0.76632 0.2588 0.0
C622 C 0.7003 0.72953 0.2707 0.0
C623 C 0.85585 0.71239 0.28578 0.0
H624 H 0.73908 0.69099 0.35286 0.0
H625 H 0.74867 0.58907 0.3053 0.0
H626 H 0.79652 0.76435 0.31947 0.0
H627 H 0.74168 0.77075 0.31565 0.0
H628 H 0.76206 0.75847 0.34373 0.0
H629 H 0.77519 0.59728 0.26774 0.0
H630 H 0.74817 0.64195 0.25641 0.0
H631 H 0.80315 0.64425 0.26068 0.0
H632 H 0.72831 0.79263 0.2441 0.0
H633 H 0.8593 0.776 0.25586 0.0
H634 H 0.69102 0.7384 0.28841 0.0
H635 H 0.69671 0.69529 0.26918 0.0
H636 H 0.67873 0.74485 0.25838 0.0
H637 H 0.85206 0.71488 0.30471 0.0
H638 H 0.88621 0.72637 0.281 0.0
H639 H 0.85659 0.67878 0.28144 0.0
C640 C 0.03716 0.00581 0.58963 0.0
C641 C 0.07976 0.00072 0.58604 0.0
C642 C 0.01181 0.02134 0.57211 0.0
C643 C 0.02972 0.03084 0.55049 0.0
C644 C 0.07319 0.02829 0.5473 0.0
C645 C 0.09792 0.0136 0.56535 0.0
C646 C 0.96558 0.02497 0.57625 0.0
C647 C 0.09317 0.03753 0.52435 0.0
C648 C 0.95187 0.01471 0.503 0.0
C649 C 0.93791 0.05544 0.49973 0.0
C650 C 0.98431 0.00651 0.51841 0.0
C651 C 0.0022 0.0399 0.53088 0.0
C652 C -0.01003 0.08132 0.52645 0.0
C653 C 0.95813 0.08865 0.51064 0.0
C654 C -0.00246 0.96197 0.52243 0.0
C655 C 0.00842 0.11752 0.53952 0.0
H656 H 0.02342 -0.00414 0.60576 0.0
H657 H 0.13099 0.00923 0.5626 0.0
H658 H 0.95404 0.05584 0.57051 0.0
H659 H 0.94899 0.00095 0.56607 0.0
H660 H 0.95743 0.02075 0.59468 0.0
H661 H 0.12744 0.04097 0.52585 0.0
H662 H 0.08661 0.01156 0.5123 0.0
H663 H 0.08014 0.0663 0.51663 0.0
H664 H 0.9364 -0.01079 0.4943 0.0
H665 H 0.9476 0.12033 0.50779 0.0
H666 H -0.01318 0.9517 0.53966 0.0
H667 H 0.03194 0.95935 0.52216 0.0
H668 H 0.98444 0.94049 0.50932 0.0
H669 H 0.00154 0.1142 0.55814 0.0
H670 H -0.00402 0.14795 0.53357 0.0
H671 H 0.04272 0.11773 0.53761 0.0
C672 C 0.82358 0.26623 0.82647 0.0
C673 C 0.79114 0.28852 0.83686 0.0
C674 C 0.81522 0.23353 0.81141 0.0
C675 C 0.77347 0.22239 0.80726 0.0
C676 C 0.7407 0.24272 0.81908 0.0
C677 C 0.74997 0.27607 0.83371 0.0
C678 C 0.85083 0.21264 0.79896 0.0
C679 C 0.69583 0.23075 0.81529 0.0
C680 C 0.74195 0.18036 0.74944 0.0
C681 C 0.73741 0.1381 0.75441 0.0
C682 C 0.75568 0.20796 0.76636 0.0
C683 C 0.76384 0.1927 0.78876 0.0
C684 C 0.76118 0.14967 0.79354 0.0
C685 C 0.74842 0.12262 0.77609 0.0
C686 C 0.7596 0.25364 0.76054 0.0
C687 C 0.76896 0.13261 0.81738 0.0
H688 H 0.8556 0.27557 0.82923 0.0
H689 H 0.72506 0.29319 0.84199 0.0
H690 H 0.85129 0.1789 0.80298 0.0
H691 H 0.84666 0.21577 0.78009 0.0
H692 H 0.88144 0.22614 0.80369 0.0
H693 H 0.67471 0.24603 0.82784 0.0
H694 H 0.68612 0.23996 0.79769 0.0
H695 H 0.69202 0.19651 0.81668 0.0
H696 H 0.73334 0.19201 0.73258 0.0
H697 H 0.74429 0.08983 0.7799 0.0
H698 H 0.79056 0.26545 0.76586 0.0
H699 H 0.73582 0.27169 0.77013 0.0
H700 H 0.75544 0.2597 0.74186 0.0
H701 H 0.7988 0.14438 0.82436 0.0
H702 H 0.76959 0.09802 0.81763 0.0
H703 H 0.74395 0.14338 0.82911 0.0
C704 C 0.23091 0.34436 0.77121 0.0
C705 C 0.24011 0.32679 0.74975 0.0
C706 C 0.21835 0.31926 0.78957 0.0
C707 C 0.2139 0.27598 0.78601 0.0
C708 C 0.22067 0.25855 0.76394 0.0
C709 C 0.23438 0.28423 0.74608 0.0
C710 C 0.21229 0.33863 0.81302 0.0
C711 C 0.21491 0.2126 0.75943 0.0
C712 C 0.22485 0.19723 0.83386 0.0
C713 C 0.18318 0.18758 0.83796 0.0
C714 C 0.23538 0.22792 0.81776 0.0
C715 C 0.20334 0.24844 0.80541 0.0
C716 C 0.16121 0.2401 0.81036 0.0
C717 C 0.15163 0.21001 0.82682 0.0
C718 C 0.28068 0.23702 0.81321 0.0
C719 C 0.1263 0.26114 0.79736 0.0
H720 H 0.23602 0.37733 0.77405 0.0
H721 H 0.24168 0.2709 0.72942 0.0
H722 H 0.18168 0.32974 0.82027 0.0
H723 H 0.23648 0.32678 0.82497 0.0
H724 H 0.21433 0.37314 0.8125 0.0
H725 H 0.21833 0.20472 0.74092 0.0
H726 H 0.23823 0.19453 0.76936 0.0
H727 H 0.18367 0.20248 0.76528 0.0
H728 H 0.24911 0.17998 0.84265 0.0
H729 H 0.11927 0.20275 0.83019 0.0
H730 H 0.28633 0.27109 0.81349 0.0
H731 H 0.28925 0.22558 0.79584 0.0
H732 H 0.30142 0.22192 0.82603 0.0
H733 H 0.12907 0.29545 0.79877 0.0
H734 H 0.09516 0.25174 0.80376 0.0
H735 H 0.12838 0.25315 0.77882 0.0
C736 C 0.25286 0.77493 0.33808 0.0
C737 C 0.2507 0.81801 0.33501 0.0
C738 C 0.23964 0.74799 0.32068 0.0
C739 C 0.22504 0.76492 0.29969 0.0
C740 C 0.22207 0.80848 0.29671 0.0
C741 C 0.23447 0.83464 0.31464 0.0
C742 C 0.24202 0.70154 0.32457 0.0
C743 C 0.20723 0.8274 0.27436 0.0
C744 C 0.22955 0.69229 0.24859 0.0
C745 C 0.18817 0.67931 0.24748 0.0
C746 C 0.2419 0.72152 0.26513 0.0
C747 C 0.21217 0.73689 0.28099 0.0
C748 C 0.17021 0.72438 0.27955 0.0
C749 C 0.15862 0.69606 0.26259 0.0
C750 C 0.28674 0.73529 0.26596 0.0
C751 C 0.13788 0.7396 0.29646 0.0
H752 H 0.26565 0.76234 0.35389 0.0
H753 H 0.23344 0.8681 0.31223 0.0
H754 H 0.21114 0.68717 0.32152 0.0
H755 H 0.26406 0.68737 0.31215 0.0
H756 H 0.25237 0.69362 0.34228 0.0
H757 H 0.20701 0.86197 0.27488 0.0
H758 H 0.2277 0.81718 0.26007 0.0
H759 H 0.17537 0.81642 0.27031 0.0
H760 H 0.25219 0.67931 0.23678 0.0
H761 H 0.12651 0.68593 0.26171 0.0
H762 H 0.30126 0.7246 0.28224 0.0
H763 H 0.28856 0.76979 0.26571 0.0
H764 H 0.30511 0.72281 0.25132 0.0
H765 H 0.14647 0.72956 0.31411 0.0
H766 H 0.1063 0.72757 0.29249 0.0
H767 H 0.13668 0.7741 0.2965 0.0
C768 C 0.09679 0.51208 0.51771 0.0
C769 C 0.07835 0.50041 0.49686 0.0
C770 C 0.07233 0.52574 0.5361 0.0
C771 C 0.02882 0.52859 0.53311 0.0
C772 C 0.01059 0.52019 0.51142 0.0
C773 C 0.03568 0.5056 0.49354 0.0
C774 C 0.09264 0.53373 0.55911 0.0
C775 C 0.96431 0.52418 0.5075 0.0
C776 C 0.95179 0.51189 0.58098 0.0
C777 C 0.93859 0.55271 0.58486 0.0
C778 C 0.9836 0.50374 0.56519 0.0
C779 C 0.00164 0.53729 0.55291 0.0
C780 C -0.00989 0.57872 0.55787 0.0
C781 C 0.95894 0.58597 0.57407 0.0
C782 C -0.00393 0.45917 0.5606 0.0
C783 C 0.00867 0.61511 0.54501 0.0
H784 H 0.1299 0.50755 0.52026 0.0
H785 H 0.0217 0.49654 0.47732 0.0
H786 H 0.0804 0.56262 0.56707 0.0
H787 H 0.08536 0.50763 0.57095 0.0
H788 H 0.12699 0.53628 0.55765 0.0
H789 H 0.95585 0.52065 0.48907 0.0
H790 H 0.94774 0.49991 0.51751 0.0
H791 H 0.95304 0.55491 0.51361 0.0
H792 H 0.9362 0.48632 0.58956 0.0
H793 H 0.94901 0.6177 0.57736 0.0
H794 H 0.03043 0.45605 0.56062 0.0
H795 H 0.98482 0.44968 0.54333 0.0
H796 H 0.98295 0.43741 0.57356 0.0
H797 H 0.04296 0.6152 0.547 0.0
H798 H -0.00373 0.64545 0.55108 0.0
H799 H 0.00189 0.61212 0.52635 0.0
C800 C 0.52523 0.46759 0.07849 0.0
C801 C 0.53625 0.42625 0.08279 0.0
C802 C 0.49317 0.47688 0.06297 0.0
C803 C 0.47255 0.44394 0.05145 0.0
C804 C 0.48221 0.40213 0.0567 0.0
C805 C 0.51379 0.39379 0.07252 0.0
C806 C 0.4828 0.52187 0.05805 0.0
C807 C 0.46104 0.36629 0.04462 0.0
C808 C 0.3748 0.47052 1.01857 0.0
C809 C 0.39131 0.4797 0.99687 0.0
C810 C 0.40078 0.45779 1.03656 0.0
C811 C 0.44383 0.45327 1.03235 0.0
C812 C 0.46005 0.45956 1.00998 0.0
C813 C 0.43353 0.47329 0.9925 0.0
C814 C 0.38265 0.45202 0.06031 0.0
C815 C 0.50572 0.45381 1.00479 0.0
H816 H 0.54248 0.49255 0.08662 0.0
H817 H 0.5221 0.36169 0.07606 0.0
H818 H 0.4929 0.52995 1.04036 0.0
H819 H 0.4487 0.52691 0.05894 0.0
H820 H 0.49826 0.54342 0.0703 0.0
H821 H 0.47056 0.33561 0.05172 0.0
H822 H 0.42678 0.36921 0.04604 0.0
H823 H 0.46887 0.36698 1.02603 0.0
H824 H 0.3421 0.47608 1.02194 0.0
H825 H 0.44605 0.48053 0.97564 0.0
H826 H 0.39384 0.47733 0.07173 0.0
H827 H 0.39313 0.42215 0.06792 0.0
H828 H 0.3481 0.45266 0.06016 0.0
H829 H 0.52408 0.47779 1.01403 0.0
H830 H 0.51252 0.45638 0.98611 0.0
H831 H 0.51648 0.42292 1.01095 0.0
C832 C 0.20296 0.27471 0.1454 0.0
C833 C 0.22808 0.25162 0.1604 0.0
C834 C 0.19378 0.31655 0.15 0.0
C835 C 0.20962 0.33523 0.17024 0.0
C836 C 0.23392 0.31156 0.18579 0.0
C837 C 0.24312 0.27 0.18058 0.0
C838 C 0.16789 0.34098 0.13301 0.0
C839 C 0.25053 0.33027 0.20779 0.0
C840 C 0.21751 0.45293 0.17456 0.0
C841 C 0.18159 0.46219 0.18709 0.0
C842 C 0.22683 0.41159 0.16856 0.0
C843 C 0.19972 0.3792 0.17556 0.0
C844 C 0.16331 0.38861 0.1881 0.0
C845 C 0.15457 0.43003 0.19357 0.0
C846 C 0.26568 0.4025 0.1549 0.0
C847 C 0.13385 0.35492 0.19604 0.0
H848 H 0.19166 0.2605 0.12968 0.0
H849 H 0.26263 0.25205 0.19213 0.0
H850 H 0.1396 0.35326 0.14157 0.0
H851 H 0.18581 0.36816 0.12668 0.0
H852 H 0.15823 0.32187 0.11801 0.0
H853 H 0.26835 0.30737 0.21821 0.0
H854 H 0.27112 0.35697 0.20376 0.0
H855 H 0.22448 0.34239 0.21836 0.0
H856 H 0.23818 0.47789 0.16943 0.0
H857 H 0.12662 0.43712 0.20322 0.0
H858 H 0.25758 0.38534 0.13894 0.0
H859 H 0.28678 0.38223 0.16505 0.0
H860 H 0.28271 0.4313 0.15013 0.0
H861 H 0.12222 0.337 0.18105 0.0
H862 H 0.10672 0.36766 0.20556 0.0
H863 H 0.1505 0.33272 0.20741 0.0
C864 C 0.45218 0.43738 0.38915 0.0
C865 C 0.47621 0.46075 0.40453 0.0
C866 C 0.41079 0.42765 0.39428 0.0
C867 C 0.39347 0.44159 0.41527 0.0
C868 C 0.41843 0.46309 0.43142 0.0
C869 C 0.45967 0.47245 0.42582 0.0
C870 C 0.38506 0.40432 0.37678 0.0
C871 C 0.40102 0.47796 0.45412 0.0
C872 C 0.2779 0.46213 0.41987 0.0
C873 C 0.26493 0.42737 0.4324 0.0
C874 C 0.31971 0.4666 0.41356 0.0
C875 C 0.34877 0.4355 0.41999 0.0
C876 C 0.33543 0.39966 0.43196 0.0
C877 C 0.29356 0.39603 0.43802 0.0
C878 C 0.33302 0.50513 0.40064 0.0
C879 C 0.36554 0.36584 0.43902 0.0
H880 H 0.46511 0.42832 0.37267 0.0
H881 H 0.4784 0.49047 0.43771 0.0
H882 H 0.36915 0.37754 0.38498 0.0
H883 H 0.36057 0.42518 0.36982 0.0
H884 H 0.40414 0.39265 0.36221 0.0
H885 H 0.42529 0.49186 0.46534 0.0
H886 H 0.37658 0.5017 0.45097 0.0
H887 H 0.38623 0.45175 0.46346 0.0
H888 H 0.2556 0.48617 0.41544 0.0
H889 H 0.28343 0.36894 0.44761 0.0
H890 H 0.34992 0.4963 0.38473 0.0
H891 H 0.35474 0.52358 0.41141 0.0
H892 H 0.30622 0.52522 0.39587 0.0
H893 H 0.38382 0.35514 0.42396 0.0
H894 H 0.34953 0.33857 0.44673 0.0
H895 H 0.3879 0.37838 0.45179 0.0
C896 C 0.27401 0.70631 0.64465 0.0
C897 C 0.24636 0.72697 0.65934 0.0
C898 C 0.28567 0.66499 0.64894 0.0
C899 C 0.26969 0.64442 0.66855 0.0
C900 C 0.24325 0.66587 0.68399 0.0
C901 C 0.23164 0.70694 0.67909 0.0
C902 C 0.31378 0.6429 0.63207 0.0
C903 C 0.22633 0.64509 0.70533 0.0
C904 C 0.26195 0.52676 0.67024 0.0
C905 C 0.29643 0.51666 0.68381 0.0
C906 C 0.25349 0.56834 0.66453 0.0
C907 C 0.28001 0.6002 0.67283 0.0
C908 C 0.3154 0.58994 0.68609 0.0
C909 C 0.32334 0.54819 0.69129 0.0
C910 C 0.21575 0.57829 0.65007 0.0
C911 C 0.34418 0.62309 0.69536 0.0
H912 H 0.28517 0.72184 0.62929 0.0
H913 H 0.21028 0.72307 0.69044 0.0
H914 H 0.3412 0.62978 0.64112 0.0
H915 H 0.29687 0.61645 0.62413 0.0
H916 H 0.32482 0.66387 0.61816 0.0
H917 H 0.20787 0.66684 0.71614 0.0
H918 H 0.20619 0.61854 0.70038 0.0
H919 H 0.2522 0.63238 0.71585 0.0
H920 H 0.2414 0.50226 0.66433 0.0
H921 H 0.3502 0.54036 0.70171 0.0
H922 H 0.22485 0.59741 0.63499 0.0
H923 H 0.19333 0.5969 0.66031 0.0
H924 H 0.19979 0.54979 0.64383 0.0
H925 H 0.35577 0.64296 0.68114 0.0
H926 H 0.37131 0.60967 0.70461 0.0
H927 H 0.32691 0.64361 0.70739 0.0
C928 C 0.01419 0.55396 0.88897 0.0
C929 C -0.01175 0.53571 0.90548 0.0
C930 C 0.0561 0.5617 0.89385 0.0
C931 C 0.07204 0.55098 0.91574 0.0
C932 C 0.04507 0.53588 0.93308 0.0
C933 C 0.00328 0.5285 0.92772 0.0
C934 C 0.08386 0.57855 0.8751 0.0
C935 C 0.06096 0.52476 0.95676 0.0
C936 C 0.18509 0.5192 0.92173 0.0
C937 C 0.20188 0.55475 0.93197 0.0
C938 C 0.14279 0.5179 0.9158 0.0
C939 C 0.11727 0.55309 0.92016 0.0
C940 C 0.13463 0.58956 0.92966 0.0
C941 C 0.17675 0.58988 0.93549 0.0
C942 C 0.12512 0.47853 0.90555 0.0
C943 C 0.10852 0.62776 0.93438 0.0
H944 H 0.00245 0.55968 0.87176 0.0
H945 H 0.98314 0.51445 0.9405 0.0
H946 H 0.10319 0.60452 0.8817 0.0
H947 H 0.10537 0.5537 0.86923 0.0
H948 H 0.06579 0.58979 0.86002 0.0
H949 H 0.03535 0.51681 0.9688 0.0
H950 H 0.08222 0.49762 0.95551 0.0
H951 H 0.07903 0.55096 0.96412 0.0
H952 H 0.20464 0.49215 0.91897 0.0
H953 H 0.18983 0.61756 0.94329 0.0
H954 H 0.10916 0.48559 0.88907 0.0
H955 H 0.10157 0.46519 0.91738 0.0
H956 H 0.14946 0.45466 0.90233 0.0
H957 H 0.09088 0.63685 0.91876 0.0
H958 H 0.1276 0.65469 0.94004 0.0
H959 H 0.08546 0.62073 0.94802 0.0
C960 C 0.75656 0.52935 0.90193 0.0
C961 C 0.79381 0.51598 0.892 0.0
C962 C 0.75264 0.57047 0.91001 0.0
C963 C 0.78692 0.59809 0.90818 0.0
C964 C 0.82487 0.58408 0.89883 0.0
C965 C 0.82772 0.54335 0.89079 0.0
C966 C 0.71173 0.58468 0.92 0.0
C967 C 0.86226 0.61235 0.89678 0.0
C968 C 0.76697 0.71408 0.90551 0.0
C969 C 0.77523 0.72601 0.92822 0.0
C970 C 0.77062 0.67239 0.89877 0.0
C971 C 0.78305 0.64221 0.91514 0.0
C972 C 0.79348 0.65446 0.93779 0.0
C973 C 0.7895 0.69638 0.94406 0.0
C974 C 0.75995 0.66043 0.87433 0.0
C975 C 0.80754 0.62313 0.95556 0.0
H976 H 0.73045 0.50812 0.90292 0.0
H977 H 0.85677 0.53308 0.8833 0.0
H978 H 0.7166 0.5977 0.93747 0.0
H979 H 0.69851 0.60992 0.90919 0.0
H980 H 0.68873 0.55898 0.92109 0.0
H981 H 0.89004 0.59588 0.88997 0.0
H982 H 0.85495 0.63874 0.88515 0.0
H983 H 0.87021 0.62571 0.91382 0.0
H984 H 0.7557 0.73697 0.89328 0.0
H985 H 0.79568 0.70559 0.96168 0.0
H986 H 0.73382 0.63789 0.87432 0.0
H987 H 0.7869 0.64483 0.8661 0.0
H988 H 0.75098 0.68776 0.8637 0.0
H989 H 0.78258 0.59993 0.95853 0.0
H990 H 0.8155 0.63797 0.97225 0.0
H991 H 0.83515 0.60587 0.94923 0.0
C992 C 0.52753 0.51637 0.68143 0.0
C993 C 0.50525 0.48666 0.66885 0.0
C994 C 0.56931 0.52474 0.67626 0.0
C995 C 0.58884 0.50314 0.65797 0.0
C996 C 0.56618 0.47353 0.64504 0.0
C997 C 0.52465 0.46554 0.65071 0.0
C998 C 0.59259 0.55657 0.69038 0.0
C999 C 0.58575 0.45047 0.62514 0.0
C1000 C 0.67894 0.55581 0.62842 0.0
C1001 C 0.71321 0.5341 0.63733 0.0
C1002 C 0.63844 0.54595 0.63503 0.0
C1003 C 0.63195 0.51374 0.65116 0.0
C1004 C 0.66639 0.49157 0.6603 0.0
C1005 C 0.70688 0.50192 0.65314 0.0
C1006 C 0.6026 0.57006 0.62469 0.0
C1007 C 0.66042 0.45724 0.67771 0.0
H1008 H 0.51262 0.53232 0.69564 0.0
H1009 H 0.50743 0.44237 0.64106 0.0
H1010 H 0.62112 0.54239 0.69775 0.0
H1011 H 0.60259 0.58274 0.67923 0.0
H1012 H 0.57344 0.5693 0.70464 0.0
H1013 H 0.56413 0.42765 0.61721 0.0
H1014 H 0.59566 0.47293 0.61172 0.0
H1015 H 0.61399 0.43369 0.63103 0.0
H1016 H 0.68368 0.5807 0.61613 0.0
H1017 H 0.73345 0.48544 0.66016 0.0
H1018 H 0.58459 0.58568 0.63849 0.0
H1019 H 0.58113 0.54849 0.61571 0.0
H1020 H 0.61313 0.59407 0.61223 0.0
H1021 H 0.64383 0.46951 0.69301 0.0
H1022 H 0.69042 0.44344 0.68338 0.0
H1023 H 0.64081 0.43225 0.67026 0.0
C1024 C 0.66341 0.26249 0.44387 0.0
C1025 C 0.68042 0.23461 0.4279 0.0
C1026 C 0.65664 0.30421 0.43795 0.0
C1027 C 0.66702 0.31786 0.41556 0.0
C1028 C 0.68039 0.28887 0.39877 0.0
C1029 C 0.6868 0.24736 0.40516 0.0
C1030 C 0.64146 0.33417 0.45612 0.0
C1031 C 0.691 0.30229 0.37457 0.0
C1032 C 0.63228 0.42189 0.39259 0.0
C1033 C 0.66862 0.44564 0.39485 0.0
C1034 C 0.63071 0.3807 0.40015 0.0
C1035 C 0.6666 0.36275 0.40998 0.0
C1036 C 0.703 0.38703 0.41315 0.0
C1037 C 0.70351 0.42856 0.40561 0.0
C1038 C 0.59119 0.35605 0.39675 0.0
C1039 C 0.74179 0.36868 0.42372 0.0
H1040 H 0.6583 0.25253 0.46147 0.0
H1041 H 0.6998 0.22569 0.39279 0.0
H1042 H 0.66743 0.35472 0.46147 0.0
H1043 H 0.61644 0.35441 0.44919 0.0
H1044 H 0.62956 0.31775 0.4716 0.0
H1045 H 0.69755 0.27536 0.36313 0.0
H1046 H 0.66516 0.32068 0.36703 0.0
H1047 H 0.71887 0.32263 0.37494 0.0
H1048 H 0.60508 0.43527 0.38445 0.0
H1049 H 0.73147 0.4471 0.40742 0.0
H1050 H 0.58252 0.33964 0.41284 0.0
H1051 H 0.59622 0.33199 0.38335 0.0
H1052 H 0.56471 0.37606 0.39135 0.0
H1053 H 0.73448 0.35462 0.44068 0.0
H1054 H 0.76665 0.39229 0.4261 0.0
H1055 H 0.75389 0.34345 0.41253 0.0
C1056 C 0.7711 0.46605 0.15086 0.0
C1057 C 0.76064 0.42866 0.14001 0.0
C1058 C 0.81244 0.4737 0.15762 0.0
C1059 C 0.84349 0.44329 0.15319 0.0
C1060 C 0.83262 0.40518 0.14275 0.0
C1061 C 0.79137 0.39828 0.13646 0.0
C1062 C 0.82308 0.51445 0.16908 0.0
C1063 C 0.86473 0.37204 0.13759 0.0
C1064 C 0.95558 0.47706 0.14656 0.0
C1065 C 0.97253 0.46504 0.16773 0.0
C1066 C 0.91348 0.47032 0.14166 0.0
C1067 C 0.88779 0.45156 0.15848 0.0
C1068 C 0.90499 0.43849 0.1797 0.0
C1069 C 0.94738 0.44512 0.18402 0.0
C1070 C 0.89638 0.4837 0.11859 0.0
C1071 C 0.87845 0.41838 0.19801 0.0
H1072 H 0.74727 0.48935 0.15376 0.0
H1073 H 0.78339 0.36897 0.12839 0.0
H1074 H 0.83957 0.50863 0.18555 0.0
H1075 H 0.84444 0.53253 0.15792 0.0
H1076 H 0.79504 0.53366 0.17259 0.0
H1077 H 0.85074 0.34356 0.13001 0.0
H1078 H 0.88813 0.38443 0.12536 0.0
H1079 H 0.88151 0.36318 0.15354 0.0
H1080 H 0.97503 0.49273 0.13404 0.0
H1081 H 0.96038 0.43634 0.20054 0.0
H1082 H 0.87102 0.5067 0.12107 0.0
H1083 H 0.88284 0.45651 0.10951 0.0
H1084 H 0.92058 0.49781 0.10742 0.0
H1085 H 0.85264 0.43959 0.20285 0.0
H1086 H 0.89653 0.41058 0.21373 0.0
H1087 H 0.8642 0.38942 0.19125 0.0
C1088 C 0.69119 0.7476 0.67978 0.0
C1089 C 0.68463 0.73408 0.65719 0.0
C1090 C 0.68474 0.78929 0.68578 0.0
C1091 C 0.6713 0.81777 0.66874 0.0
C1092 C 0.66119 0.80348 0.64642 0.0
C1093 C 0.66788 0.76156 0.64091 0.0
C1094 C 0.69501 0.80337 0.70992 0.0
C1095 C 0.6461 0.83293 0.62795 0.0
C1096 C 0.63382 0.921 0.69138 0.0
C1097 C 0.66977 0.94547 0.68955 0.0
C1098 C 0.63326 0.87987 0.6837 0.0
C1099 C 0.66975 0.86272 0.67413 0.0
C1100 C 0.70568 0.8878 0.67125 0.0
C1101 C 0.70521 0.92925 0.67895 0.0
C1102 C 0.59421 0.85436 0.6868 0.0
C1103 C 0.74506 0.87034 0.66093 0.0
H1104 H 0.70405 0.72626 0.69239 0.0
H1105 H 0.66276 0.75106 0.6234 0.0
H1106 H 0.72231 0.82446 0.70949 0.0
H1107 H 0.66866 0.82119 0.71733 0.0
H1108 H 0.70224 0.77683 0.72152 0.0
H1109 H 0.63498 0.81612 0.61242 0.0
H1110 H 0.62053 0.85282 0.63454 0.0
H1111 H 0.67187 0.85389 0.6228 0.0
H1112 H 0.60613 0.93375 0.69932 0.0
H1113 H 0.73284 0.94835 0.67746 0.0
H1114 H 0.5995 0.8304 0.70024 0.0
H1115 H 0.58624 0.83778 0.67065 0.0
H1116 H 0.5672 0.87378 0.69201 0.0
H1117 H 0.75776 0.84571 0.67234 0.0
H1118 H 0.76926 0.8946 0.65849 0.0
H1119 H 0.73832 0.85571 0.64404 0.0
C1120 C 0.79351 0.89525 0.94542 0.0
C1121 C 0.76412 0.92743 0.94364 0.0
C1122 C 0.83456 0.90084 0.93838 0.0
C1123 C 0.84666 0.93962 0.92918 0.0
C1124 C 0.81687 0.97191 0.92648 0.0
C1125 C 0.77565 0.96541 0.93379 0.0
C1126 C 0.86524 0.86558 0.94152 0.0
C1127 C 0.82882 0.01351 0.91644 0.0
C1128 C 0.96036 0.96832 0.9351 0.0
C1129 C 0.97546 0.95931 0.91307 0.0
C1130 C 0.91841 0.962 0.94056 0.0
C1131 C 0.89102 0.94662 0.92349 0.0
C1132 C 0.90643 0.93618 0.90143 0.0
C1133 C 0.94865 0.94242 0.89652 0.0
C1134 C 0.90323 0.97256 0.96445 0.0
C1135 C 0.8781 0.91953 0.88286 0.0
H1136 H 0.78463 0.86552 0.9527 0.0
H1137 H 0.75285 -0.00986 0.93228 0.0
H1138 H 0.88111 0.85859 0.92503 0.0
H1139 H 0.88955 0.87487 0.95406 0.0
H1140 H 0.85016 0.83665 0.94783 0.0
H1141 H 0.80155 0.03437 0.91416 0.0
H1142 H 0.85156 0.0291 0.92792 0.0
H1143 H 0.84417 0.00911 0.89952 0.0
H1144 H 0.98107 0.98161 0.94785 0.0
H1145 H 0.96022 0.93587 0.87938 0.0
H1146 H 0.88895 0.94473 0.97252 0.0
H1147 H 0.87883 -0.00306 0.96346 0.0
H1148 H 0.92865 0.98389 0.97578 0.0
H1149 H 0.86261 0.89065 0.88882 0.0
H1150 H 0.89508 0.91263 0.86666 0.0
H1151 H 0.85327 0.94257 0.8791 0.0
C1152 C 0.75628 0.02909 0.18375 0.0
C1153 C 0.79365 0.01639 0.19384 0.0
C1154 C 0.7517 0.07014 0.17564 0.0
C1155 C 0.78542 0.09841 0.17764 0.0
C1156 C 0.82351 0.08508 0.18717 0.0
C1157 C 0.82704 0.04437 0.19518 0.0
C1158 C 0.71068 0.08358 0.16544 0.0
C1159 C 0.86031 0.11407 0.18944 0.0
C1160 C 0.78684 0.19708 0.142 0.0
C1161 C 0.77175 0.22632 0.15783 0.0
C1162 C 0.79139 0.15516 0.14819 0.0
C1163 C 0.78077 0.14251 0.17074 0.0
C1164 C 0.76745 0.17231 0.1871 0.0
C1165 C 0.76316 0.21399 0.18043 0.0
C1166 C 0.80631 0.12424 0.13043 0.0
C1167 C 0.75659 0.15996 0.21144 0.0
H1168 H 0.73058 0.00738 0.18263 0.0
H1169 H 0.85621 0.03463 0.20277 0.0
H1170 H 0.69674 0.10844 0.17623 0.0
H1171 H 0.71558 0.09686 0.14803 0.0
H1172 H 0.68824 0.05741 0.16415 0.0
H1173 H 0.88836 0.09806 0.19628 0.0
H1174 H 0.86815 0.12781 0.17248 0.0
H1175 H 0.85236 0.14015 0.20115 0.0
H1176 H 0.79324 0.20657 0.12446 0.0
H1177 H 0.75127 0.23657 0.19264 0.0
H1178 H 0.78187 0.10054 0.12732 0.0
H1179 H 0.8342 0.10752 0.13685 0.0
H1180 H 0.81415 0.13934 0.1138 0.0
H1181 H 0.73094 0.13689 0.21125 0.0
H1182 H 0.74687 0.18702 0.22207 0.0
H1183 H 0.78371 0.14487 0.2198 0.0
C1184 C 0.70381 0.00216 0.43437 0.0
C1185 C 0.71208 0.03962 0.44572 0.0
C1186 C 0.66332 -0.0068 0.42663 0.0
C1187 C 0.63096 0.02246 0.43046 0.0
C1188 C 0.63963 0.06064 0.44144 0.0
C1189 C 0.68001 0.06872 0.44887 0.0
C1190 C 0.65497 0.95234 0.41471 0.0
C1191 C 0.60609 0.0927 0.44587 0.0
C1192 C 0.52961 0.01948 0.39729 0.0
C1193 C 0.50347 -0.00056 0.41304 0.0
C1194 C 0.57166 0.02616 0.40246 0.0
C1195 C 0.58748 0.01295 0.42399 0.0
C1196 C 0.56089 -0.00645 0.44014 0.0
C1197 C 0.51916 -0.01317 0.4344 0.0
C1198 C 0.5992 0.04701 0.38487 0.0
C1199 C 0.57653 0.97993 0.46347 0.0
H1200 H 0.7287 0.97988 0.43178 0.0
H1201 H 0.68628 0.09802 0.4574 0.0
H1202 H 0.63307 0.93351 0.42514 0.0
H1203 H 0.63995 0.95796 0.3978 0.0
H1204 H 0.68384 0.93398 0.41197 0.0
H1205 H 0.61851 0.1215 0.45391 0.0
H1206 H 0.59045 0.10129 0.42953 0.0
H1207 H 0.58205 0.07942 0.45741 0.0
H1208 H 0.51755 0.02872 0.38063 0.0
H1209 H 0.49892 0.97107 0.4465 0.0
H1210 H 0.62624 0.02677 0.38089 0.0
H1211 H 0.61165 0.07656 0.39194 0.0
H1212 H 0.5824 0.05398 0.36861 0.0
H1213 H 0.60303 0.95811 0.46145 0.0
H1214 H 0.55201 0.96442 0.47383 0.0
H1215 H 0.58809 0.00731 0.47319 0.0
C1216 C 0.22151 0.20421 0.40424 0.0
C1217 C 0.23967 0.22577 0.42258 0.0
C1218 C 0.233 0.16311 0.39938 0.0
C1219 C 0.26287 0.14313 0.41346 0.0
C1220 C 0.28188 0.16507 0.43177 0.0
C1221 C 0.27024 0.20643 0.43601 0.0
C1222 C 0.21276 0.14089 0.3794 0.0
C1223 C 0.31365 0.14454 0.4472 0.0
C1224 C 0.26133 0.02509 0.41273 0.0
C1225 C 0.29402 0.0166 0.3976 0.0
C1226 C 0.25144 0.06631 0.41859 0.0
C1227 C 0.27453 0.09939 0.40876 0.0
C1228 C 0.30789 0.09078 0.39369 0.0
C1229 C 0.31745 0.04942 0.38845 0.0
C1230 C 0.21603 0.07453 0.43502 0.0
C1231 C 0.33286 0.12524 0.38265 0.0
H1232 H 0.19782 0.2193 0.39388 0.0
H1233 H 0.28398 0.22311 0.45033 0.0
H1234 H 0.23688 0.12925 0.36736 0.0
H1235 H 0.19525 0.11346 0.38573 0.0
H1236 H 0.19104 0.16135 0.36972 0.0
H1237 H 0.32567 0.16606 0.4606 0.0
H1238 H 0.29958 0.11713 0.45581 0.0
H1239 H 0.34023 0.13302 0.43684 0.0
H1240 H 0.24352 -0.00041 0.41993 0.0
H1241 H 0.34288 0.04287 0.37676 0.0
H1242 H 0.19096 0.09186 0.42604 0.0
H1243 H 0.22682 0.09428 0.44949 0.0
H1244 H 0.20275 0.04533 0.44214 0.0
H1245 H 0.31219 0.14493 0.3719 0.0
H1246 H 0.35839 0.11311 0.37166 0.0
H1247 H 0.34651 0.14562 0.39607 0.0
C1248 C 0.01523 0.05485 0.19629 0.0
C1249 C -0.01194 0.03764 0.18004 0.0
C1250 C 0.05698 0.06203 0.19079 0.0
C1251 C 0.07148 0.05173 0.16855 0.0
C1252 C 0.04327 0.03781 0.15151 0.0
C1253 C 0.00165 0.03106 0.15747 0.0
C1254 C 0.08608 0.07773 0.20924 0.0
C1255 C 0.05763 0.02712 0.12748 0.0
C1256 C 0.17601 0.08868 0.14753 0.0
C1257 C 0.2005 0.05292 0.15048 0.0
C1258 C 0.13422 0.08919 0.15399 0.0
C1259 C 0.11649 0.05289 0.16346 0.0
C1260 C 0.14139 0.01701 0.16719 0.0
C1261 C 0.18342 0.01751 0.1607 0.0
C1262 C 0.10881 0.12814 0.14999 0.0
C1263 C 0.1233 0.97777 0.17737 0.0
H1264 H 0.00459 0.06012 0.21375 0.0
H1265 H 0.98055 0.0178 0.14489 0.0
H1266 H 0.10725 0.05221 0.21462 0.0
H1267 H 0.10571 0.10339 0.20255 0.0
H1268 H 0.06905 0.08902 0.22466 0.0
H1269 H 0.03121 0.02021 0.11577 0.0
H1270 H 0.07596 0.05311 0.12009 0.0
H1271 H 0.07827 -0.00057 0.12814 0.0
H1272 H 0.18934 0.11623 0.13975 0.0
H1273 H 0.20249 -0.01002 0.16301 0.0
H1274 H 0.09212 0.13714 0.16593 0.0
H1275 H 0.08496 0.1221 0.13661 0.0
H1276 H 0.12827 0.15479 0.14432 0.0
H1277 H 0.10846 0.98469 0.19417 0.0
H1278 H 0.14718 0.95319 0.17996 0.0
H1279 H 0.09875 0.96542 0.16582 0.0
C1280 C 0.21886 0.95627 0.9073 0.0
C1281 C 0.18387 0.96451 0.89375 0.0
C1282 C 0.22896 0.91518 0.91347 0.0
C1283 C 0.20366 0.88198 0.90558 0.0
C1284 C 0.1683 0.89036 0.89191 0.0
C1285 C 0.15869 0.93154 0.88632 0.0
C1286 C 0.26661 0.90722 0.92835 0.0
C1287 C 0.14082 0.85581 0.88296 0.0
C1288 C 0.25021 0.77391 0.90174 0.0
C1289 C 0.23324 0.7548 0.92123 0.0
C1290 C 0.2408 0.81539 0.89643 0.0
C1291 C 0.21431 0.83828 0.9112 0.0
C1292 C 0.19675 0.81894 0.9308 0.0
C1293 C 0.20617 0.77716 0.93548 0.0
C1294 C 0.25931 0.83477 0.87509 0.0
C1295 C 0.16855 0.84255 0.94697 0.0
H1296 H 0.23809 0.98186 0.91317 0.0
H1297 H 0.1315 0.93781 0.87585 0.0
H1298 H 0.25739 0.88985 0.94404 0.0
H1299 H 0.28928 0.88757 0.91892 0.0
H1300 H 0.28228 0.93652 0.93362 0.0
H1301 H 0.11452 0.86774 0.87244 0.0
H1302 H 0.1594 0.83407 0.87225 0.0
H1303 H 0.12798 0.8376 0.89752 0.0
H1304 H 0.27124 0.75653 0.89077 0.0
H1305 H 0.19341 0.76242 0.95069 0.0
H1306 H 0.27849 0.86212 0.87986 0.0
H1307 H 0.23414 0.8461 0.86361 0.0
H1308 H 0.27903 0.81254 0.86532 0.0
H1309 H 0.18495 0.87033 0.95377 0.0
H1310 H 0.15815 0.82316 0.96171 0.0
H1311 H 0.1407 0.85385 0.93758 0.0
C1312 C 0.46272 0.96418 0.65806 0.0
C1313 C 0.47751 0.95458 0.68007 0.0
C1314 C 0.42154 0.95549 0.65198 0.0
C1315 C 0.39495 0.93667 0.66835 0.0
C1316 C 0.41059 0.92442 0.69006 0.0
C1317 C 0.45189 0.93357 0.69569 0.0
C1318 C 0.40589 0.96856 0.62856 0.0
C1319 C 0.38315 0.90376 0.70777 0.0
C1320 C 0.28051 0.9613 0.66159 0.0
C1321 C 0.2667 0.926 0.64983 0.0
C1322 C 0.32225 0.96475 0.66827 0.0
C1323 C 0.35027 0.93196 0.66311 0.0
C1324 C 0.33598 0.89562 0.65198 0.0
C1325 C 0.29428 0.89314 0.64541 0.0
C1326 C 0.33663 0.00392 0.68021 0.0
C1327 C 0.36491 0.85995 0.64639 0.0
H1328 H 0.48267 0.98038 0.646 0.0
H1329 H 0.46351 0.92606 0.71271 0.0
H1330 H 0.3904 0.94205 0.61984 0.0
H1331 H 0.38238 -0.00638 0.63052 0.0
H1332 H 0.43128 0.98017 0.61731 0.0
H1333 H 0.40111 0.89257 0.72289 0.0
H1334 H 0.35934 0.92624 0.71383 0.0
H1335 H 0.3664 0.877 0.70006 0.0
H1336 H 0.25901 -0.01346 0.66506 0.0
H1337 H 0.28345 0.86566 0.63643 0.0
H1338 H 0.35974 0.02024 0.66929 0.0
H1339 H 0.35226 -0.00399 0.69666 0.0
H1340 H 0.31055 0.02564 0.68386 0.0
H1341 H 0.38821 0.87021 0.63352 0.0
H1342 H 0.34806 0.83258 0.63935 0.0
H1343 H 0.38222 0.85012 0.66199 0.0
C1344 C 0.26599 0.08462 0.04375 0.0
C1345 C 0.2462 0.10598 0.06181 0.0
C1346 C 0.24633 0.07859 1.02234 0.0
C1347 C 0.20558 0.09413 1.01865 0.0
C1348 C 0.18548 0.11598 1.03674 0.0
C1349 C 0.20599 0.12171 0.05801 0.0
C1350 C 0.26925 0.0554 1.00363 0.0
C1351 C 0.14209 0.13302 1.03367 0.0
C1352 C 0.1729 0.1125 0.95623 0.0
C1353 C 0.1498 0.07652 0.95099 0.0
C1354 C 0.1904 0.11885 0.97816 0.0
C1355 C 0.18479 0.08865 0.99563 0.0
C1356 C 0.16073 0.05268 0.9907 0.0
C1357 C 0.14361 0.04701 0.9685 0.0
C1358 C 0.21581 0.15759 0.98244 0.0
C1359 C 0.15375 0.01972 1.00879 0.0
H1360 H 0.29696 0.07213 0.04638 0.0
H1361 H 0.19012 0.1379 0.07181 0.0
H1362 H 0.25094 0.02792 0.99808 0.0
H1363 H 0.27306 0.07579 0.98836 0.0
H1364 H 0.30048 0.04465 1.00928 0.0
H1365 H 0.13045 0.14881 0.04941 0.0
H1366 H 0.14151 0.15558 1.01922 0.0
H1367 H 0.12043 0.10742 1.02917 0.0
H1368 H 0.178 0.13573 0.94301 0.0
H1369 H 0.12598 0.01908 0.96478 0.0
H1370 H 0.24835 0.14883 0.98657 0.0
H1371 H 0.20333 0.17479 0.99748 0.0
H1372 H 0.21608 0.17884 0.96736 0.0
H1373 H 0.18393 0.0055 1.01371 0.0
H1374 H 0.13261 -0.00532 1.00273 0.0
H1375 H 0.14036 0.03395 1.02452 0.0
C1376 C 0.67823 0.38888 0.21224 0.0
C1377 C 0.64851 0.39434 0.19478 0.0
C1378 C 0.67229 0.40603 0.2344 0.0
C1379 C 0.63581 0.42935 0.2393 0.0
C1380 C 0.60537 0.43412 0.22189 0.0
C1381 C 0.612 0.41661 0.20001 0.0
C1382 C 0.70549 0.39994 0.25245 0.0
C1383 C 0.56606 0.4587 0.22619 0.0
C1384 C 0.60247 0.44983 0.30159 0.0
C1385 C 0.61702 0.4905 0.30534 0.0
C1386 C 0.60871 0.42942 0.28037 0.0
C1387 C 0.62991 0.45008 0.26228 0.0
C1388 C 0.64431 0.49127 0.26589 0.0
C1389 C 0.63776 0.51086 0.28728 0.0
C1390 C 0.59286 0.38555 0.27735 0.0
C1391 C 0.66678 0.51474 0.24715 0.0
H1392 H 0.70658 0.37192 0.2085 0.0
H1393 H 0.5886 0.42111 0.18682 0.0
H1394 H 0.71895 0.43052 0.25725 0.0
H1395 H 0.69173 0.38634 0.26825 0.0
H1396 H 0.73099 0.37931 0.2464 0.0
H1397 H 0.54474 0.45839 0.21114 0.0
H1398 H 0.5493 0.44591 0.24129 0.0
H1399 H 0.57401 0.4915 0.23023 0.0
H1400 H 0.58672 0.43355 0.3154 0.0
H1401 H 0.64936 0.54217 0.2899 0.0
H1402 H 0.61897 0.36451 0.27281 0.0
H1403 H 0.57023 0.38441 0.26295 0.0
H1404 H 0.57753 0.37351 0.29312 0.0
H1405 H 0.69471 0.49708 0.24162 0.0
H1406 H 0.67667 0.54627 0.25276 0.0
H1407 H 0.64629 0.518 0.23189 0.0
C1408 C 0.20426 0.89252 0.54305 0.0
C1409 C 0.22243 0.86936 0.56098 0.0
C1410 C 0.22456 0.89794 0.52176 0.0
C1411 C 0.26427 0.87988 0.51805 0.0
C1412 C 0.28271 0.85627 0.53601 0.0
C1413 C 0.26165 0.85126 0.55715 0.0
C1414 C 0.20344 0.92317 0.5032 0.0
C1415 C 0.32491 0.83646 0.53293 0.0
C1416 C 0.29626 0.86113 0.45553 0.0
C1417 C 0.32188 0.89553 0.45069 0.0
C1418 C 0.27818 0.85535 0.47736 0.0
C1419 C 0.28566 0.88458 0.49512 0.0
C1420 C 0.31232 0.91885 0.4906 0.0
C1421 C 0.33007 0.92392 0.46851 0.0
C1422 C 0.25013 0.81833 0.48122 0.0
C1423 C 0.32132 0.95076 0.50898 0.0
H1424 H 0.17414 0.9069 0.5457 0.0
H1425 H 0.27629 0.83361 0.57083 0.0
H1426 H 0.22362 0.94951 0.49797 0.0
H1427 H 0.19842 0.90356 0.48773 0.0
H1428 H 0.17295 0.93583 0.50886 0.0
H1429 H 0.33534 0.81952 0.54857 0.0
H1430 H 0.32411 0.81429 0.5183 0.0
H1431 H 0.34827 0.86067 0.5287 0.0
H1432 H 0.28963 0.83878 0.44206 0.0
H1433 H 0.34958 0.95069 0.46507 0.0
H1434 H 0.21819 0.82919 0.48525 0.0
H1435 H 0.26118 0.79996 0.49619 0.0
H1436 H 0.24866 0.79752 0.46597 0.0
H1437 H 0.29214 0.96699 0.51383 0.0
H1438 H 0.34431 0.97435 0.50324 0.0
H1439 H 0.33336 0.93523 0.52469 0.0
C1440 C 0.85695 0.55469 0.70096 0.0
C1441 C 0.81955 0.5751 0.69535 0.0
C1442 C 0.86375 0.53751 0.72291 0.0
C1443 C 0.83255 0.54076 0.73999 0.0
C1444 C 0.79503 0.56204 0.73468 0.0
C1445 C 0.78894 0.57886 0.71246 0.0
C1446 C 0.90416 0.51509 0.72766 0.0
C1447 C 0.76101 0.56644 0.75237 0.0
C1448 C 0.83407 0.46021 0.78848 0.0
C1449 C 0.8534 0.48205 0.8065 0.0
C1450 C 0.82685 0.47899 0.76693 0.0
C1451 C 0.83899 0.52085 0.76313 0.0
C1452 C 0.85861 0.54305 0.78121 0.0
C1453 C 0.86569 0.52342 0.80257 0.0
C1454 C 0.80622 0.45392 0.74816 0.0
C1455 C 0.87202 0.5877 0.77801 0.0
H1456 H 0.881 0.55147 0.68803 0.0
H1457 H 0.75992 0.5944 0.70841 0.0
H1458 H 0.91994 0.52915 0.74275 0.0
H1459 H 0.89784 0.48204 0.73195 0.0
H1460 H 0.92573 0.51608 0.71275 0.0
H1461 H 0.73446 0.58532 0.74595 0.0
H1462 H 0.74932 0.53521 0.75729 0.0
H1463 H 0.77346 0.58123 0.76819 0.0
H1464 H 0.82436 0.4283 0.79122 0.0
H1465 H 0.88036 0.54083 0.81633 0.0
H1466 H 0.82716 0.4517 0.73304 0.0
H1467 H 0.77738 0.46975 0.74237 0.0
H1468 H 0.79819 0.42191 0.75387 0.0
H1469 H 0.89506 0.58978 0.76387 0.0
H1470 H 0.88606 0.601 0.79385 0.0
H1471 H 0.84492 0.60709 0.773 0.0
C1472 C 0.8091 0.86675 0.13367 0.0
C1473 C 0.82769 0.90499 0.13944 0.0
C1474 C 0.79273 0.85928 0.11162 0.0
C1475 C 0.79487 0.89069 0.09458 0.0
C1476 C 0.81466 0.92898 0.09999 0.0
C1477 C 0.83081 0.93569 0.12232 0.0
C1478 C 0.77204 0.818 0.10677 0.0
C1479 C 0.81781 0.96328 0.08235 0.0
C1480 C 0.7768 0.85667 1.03218 0.0
C1481 C 0.73482 0.86716 1.02873 0.0
C1482 C 0.79696 0.86485 0.05328 0.0
C1483 C 0.77469 0.8838 0.07155 0.0
C1484 C 0.73228 0.89429 0.0682 0.0
C1485 C 0.71298 0.88595 0.04692 0.0
C1486 C 0.84216 0.85316 0.05602 0.0
C1487 C 0.70711 0.91416 0.08718 0.0
H1488 H 0.80661 0.84253 0.14658 0.0
H1489 H 0.84493 0.96536 0.12651 0.0
H1490 H 0.73866 0.82305 0.1028 0.0
H1491 H 0.78633 0.8031 0.09148 0.0
H1492 H 0.77438 0.79615 0.12154 0.0
H1493 H 0.83622 -0.00983 0.0887 0.0
H1494 H 0.8324 0.95129 0.06638 0.0
H1495 H 0.7862 0.97438 0.07773 0.0
H1496 H 0.7942 0.84248 1.01827 0.0
H1497 H 0.68061 0.89433 0.04456 0.0
H1498 H 0.84559 0.82992 0.07002 0.0
H1499 H 0.86054 0.88092 0.06102 0.0
H1500 H 0.85554 0.83992 1.03999 0.0
H1501 H 0.70583 0.89302 0.10226 0.0
H1502 H 0.67479 0.9214 0.08171 0.0
H1503 H 0.72223 0.9434 0.09292 0.0
C1504 C 0.36588 0.54435 0.8767 0.0
C1505 C 0.33111 0.56948 0.8816 0.0
C1506 C 0.37312 0.52829 0.85451 0.0
C1507 C 0.34488 0.53714 0.83644 0.0
C1508 C 0.31033 0.56349 0.84103 0.0
C1509 C 0.30394 0.57942 0.86347 0.0
C1510 C 0.41049 0.50068 0.85059 0.0
C1511 C 0.27929 0.57374 0.8224 0.0
C1512 C 0.37965 0.51487 0.7743 0.0
C1513 C 0.36198 0.47559 0.77012 0.0
C1514 C 0.37414 0.53544 0.79562 0.0
C1515 C 0.35022 0.51653 0.81329 0.0
C1516 C 0.33245 0.47686 0.80915 0.0
C1517 C 0.3386 0.45699 0.78781 0.0
C1518 C 0.39385 0.57753 0.79922 0.0
C1519 C 0.30673 0.45526 0.82731 0.0
H1520 H 0.3874 0.53656 0.8904 0.0
H1521 H 0.27692 0.5986 0.86695 0.0
H1522 H 0.40005 0.46871 0.84625 0.0
H1523 H 0.42895 0.51228 0.83581 0.0
H1524 H 0.43102 0.49898 0.86594 0.0
H1525 H 0.25577 0.59683 0.82817 0.0
H1526 H 0.29549 0.58622 0.80703 0.0
H1527 H 0.26294 0.54495 0.817 0.0
H1528 H 0.39746 0.52982 0.76081 0.0
H1529 H 0.32447 0.42682 0.78493 0.0
H1530 H 0.41558 0.57626 0.81404 0.0
H1531 H 0.36958 0.60088 0.80343 0.0
H1532 H 0.41121 0.58831 0.78382 0.0
H1533 H 0.32597 0.44947 0.84283 0.0
H1534 H 0.29399 0.42506 0.82123 0.0
H1535 H 0.28045 0.47551 0.8326 0.0
C1536 C 0.64264 0.04288 0.62302 0.0
C1537 C 0.64988 0.07149 0.64084 0.0
C1538 C 0.65869 0.04962 0.60068 0.0
C1539 C 0.68236 0.08593 0.59594 0.0
C1540 C 0.68854 0.11546 0.6137 0.0
C1541 C 0.6724 0.10788 0.63579 0.0
C1542 C 0.65134 0.01727 0.58231 0.0
C1543 C 0.71318 0.15474 0.60953 0.0
C1544 C 0.76182 0.08599 0.54695 0.0
C1545 C 0.74077 0.10768 0.52945 0.0
C1546 C 0.74301 0.07826 0.56843 0.0
C1547 C 0.70203 0.09259 0.57276 0.0
C1548 C 0.68067 0.1147 0.55524 0.0
C1549 C 0.7002 0.12193 0.53388 0.0
C1550 C 0.7671 0.05469 0.58655 0.0
C1551 C 0.63711 0.13079 0.55907 0.0
H1552 H 0.62556 0.01459 0.62667 0.0
H1553 H 0.67806 0.13044 0.6493 0.0
H1554 H 0.63728 0.03193 0.56686 0.0
H1555 H 0.68147 0.00352 0.57694 0.0
H1556 H 0.63064 -0.00817 0.58831 0.0
H1557 H 0.71359 0.17553 0.6248 0.0
H1558 H 0.74573 0.14664 0.60505 0.0
H1559 H 0.69996 0.17218 0.59476 0.0
H1560 H 0.79305 0.07461 0.54382 0.0
H1561 H 0.68341 0.13855 0.52056 0.0
H1562 H 0.74947 0.02667 0.59193 0.0
H1563 H 0.77122 0.07446 0.60203 0.0
H1564 H 0.79826 0.04475 0.58037 0.0
H1565 H 0.61615 0.10468 0.56367 0.0
H1566 H 0.62439 0.14678 0.54364 0.0
H1567 H 0.63685 0.15296 0.5737 0.0
C1568 C 0.1032 0.43315 0.37685 0.0
C1569 C 0.13717 0.40717 0.3821 0.0
C1570 C 0.09648 0.44843 0.35443 0.0
C1571 C 0.12445 0.43785 0.33652 0.0
C1572 C 0.15814 0.41067 0.3415 0.0
C1573 C 0.16403 0.3956 0.36415 0.0
C1574 C 0.06002 0.47702 0.35007 0.0
C1575 C 0.18884 0.39858 0.32305 0.0
C1576 C 0.09109 0.4582 0.27396 0.0
C1577 C 0.11025 0.49658 0.26925 0.0
C1578 C 0.09558 0.43857 0.29562 0.0
C1579 C 0.11989 0.45756 0.3131 0.0
C1580 C 0.13911 0.49634 0.30844 0.0
C1581 C 0.13402 0.51527 0.28675 0.0
C1582 C 0.07434 0.39741 0.29979 0.0
C1583 C 0.16524 0.51796 0.32642 0.0
H1584 H 0.08196 0.44223 0.39043 0.0
H1585 H 0.19042 0.37571 0.36789 0.0
H1586 H 0.07147 0.50844 0.34533 0.0
H1587 H 0.04124 0.46538 0.33541 0.0
H1588 H 0.03951 0.48003 0.36535 0.0
H1589 H 0.21162 0.37503 0.32918 0.0
H1590 H 0.17225 0.38592 0.30785 0.0
H1591 H 0.2061 0.42657 0.31726 0.0
H1592 H 0.07283 0.44323 0.26066 0.0
H1593 H 0.14912 0.54483 0.2835 0.0
H1594 H 0.05254 0.40019 0.3145 0.0
H1595 H 0.09772 0.37342 0.30445 0.0
H1596 H 0.05674 0.38649 0.28448 0.0
H1597 H 0.14609 0.52477 0.34184 0.0
H1598 H 0.17872 0.54762 0.32004 0.0
H1599 H 0.19101 0.49728 0.33199 0.0
C1600 C 0.64473 0.54352 0.46182 0.0
C1601 C 0.65247 0.57208 0.44405 0.0
C1602 C 0.66069 0.54997 0.48421 0.0
C1603 C 0.68475 0.58598 0.48906 0.0
C1604 C 0.69146 0.61548 0.47134 0.0
C1605 C 0.67543 0.60815 0.44918 0.0
C1606 C 0.65281 0.51766 0.50253 0.0
C1607 C 0.71653 0.65445 0.47562 0.0
C1608 C 0.70249 0.62151 0.55122 0.0
C1609 C 0.74288 0.60683 0.55575 0.0
C1610 C 0.68305 0.61459 0.52979 0.0
C1611 C 0.70431 0.59234 0.51231 0.0
C1612 C 0.7451 0.57755 0.51674 0.0
C1613 C 0.76384 0.58501 0.53829 0.0
C1614 C 0.63971 0.63119 0.52585 0.0
C1615 C 0.76906 0.55376 0.49868 0.0
H1616 H 0.62729 0.51547 0.45809 0.0
H1617 H 0.68147 0.63068 0.43572 0.0
H1618 H 0.68274 0.50356 0.508 0.0
H1619 H 0.63875 0.53242 0.51793 0.0
H1620 H 0.6319 0.49246 0.49643 0.0
H1621 H 0.71731 0.67528 0.46037 0.0
H1622 H 0.70337 0.672 0.49036 0.0
H1623 H 0.74893 0.64596 0.48022 0.0
H1624 H 0.68578 0.63822 0.56452 0.0
H1625 H 0.79491 0.57328 0.54149 0.0
H1626 H 0.61849 0.60534 0.52115 0.0
H1627 H 0.63981 0.65343 0.51124 0.0
H1628 H 0.62704 0.64724 0.54126 0.0
H1629 H 0.75115 0.52597 0.4932 0.0
H1630 H 0.80004 0.54343 0.50495 0.0
H1631 H 0.77355 0.57355 0.48324 0.0
C1632 C 0.16815 0.89732 0.71755 0.0
C1633 C 0.14014 0.90696 0.69978 0.0
C1634 C 0.16243 0.91306 0.74005 0.0
C1635 C 0.12771 0.9389 0.74504 0.0
C1636 C 0.09868 0.94752 0.72733 0.0
C1637 C 0.10527 0.93165 0.70505 0.0
C1638 C 0.19426 0.9031 0.75832 0.0
C1639 C 0.06109 0.97458 0.73174 0.0
C1640 C 0.09462 0.95858 0.80756 0.0
C1641 C 0.11186 -0.00202 0.81199 0.0
C1642 C 0.09974 0.93885 0.78601 0.0
C1643 C 0.12274 0.95879 0.76834 0.0
C1644 C 0.14003 -0.00141 0.7727 0.0
C1645 C 0.13436 0.01761 0.79433 0.0
C1646 C 0.08056 0.89657 0.78217 0.0
C1647 C 0.16469 0.0212 0.75448 0.0
H1648 H 0.19528 0.8785 0.71375 0.0
H1649 H 0.08317 0.9392 0.69159 0.0
H1650 H 0.21014 0.93211 0.76378 0.0
H1651 H 0.17881 0.8899 0.77374 0.0
H1652 H 0.21811 0.88066 0.75217 0.0
H1653 H 0.04014 0.9764 0.71657 0.0
H1654 H 0.04315 0.96237 0.74657 0.0
H1655 H 0.07123 0.00656 0.73625 0.0
H1656 H 0.07736 0.94288 0.821 0.0
H1657 H 0.148 0.04794 0.79741 0.0
H1658 H 0.10504 0.87375 0.77745 0.0
H1659 H 0.0583 0.89801 0.7676 0.0
H1660 H 0.06391 0.88497 0.79763 0.0
H1661 H 0.19135 0.00173 0.74887 0.0
H1662 H 0.17678 0.0516 0.76064 0.0
H1663 H 0.14492 0.02677 0.73913 0.0
C1664 C 0.82864 0.43484 0.9634 0.0
C1665 C 0.82618 0.40399 0.94633 0.0
C1666 C 0.81214 0.4281 0.98564 0.0
C1667 C 0.79269 0.38963 0.99101 0.0
C1668 C 0.79125 0.35807 0.97404 0.0
C1669 C 0.80795 0.36557 0.95208 0.0
C1670 C 0.81456 0.46256 1.00322 0.0
C1671 C 0.77094 0.31658 0.97885 0.0
C1672 C 0.77376 0.35576 0.05335 0.0
C1673 C 0.7316 0.36581 0.05649 0.0
C1674 C 0.79424 0.36405 1.03237 0.0
C1675 C 0.77213 0.38266 1.01392 0.0
C1676 C 0.72954 0.39267 1.01696 0.0
C1677 C 0.70991 0.38424 1.03812 0.0
C1678 C 0.83963 0.35289 1.02997 0.0
C1679 C 0.70452 0.41214 0.99777 0.0
H1680 H 0.84247 0.46466 0.95922 0.0
H1681 H 0.80599 0.34123 0.93922 0.0
H1682 H 0.78274 0.47336 1.00758 0.0
H1683 H 0.82894 0.45085 1.01932 0.0
H1684 H 0.83281 0.48961 0.99693 0.0
H1685 H 0.77382 0.29466 0.96415 0.0
H1686 H 0.7851 0.30196 0.99427 0.0
H1687 H 0.73743 0.32127 0.98258 0.0
H1688 H 0.79106 0.34188 0.06741 0.0
H1689 H 0.67741 0.39228 1.04025 0.0
H1690 H 0.85778 0.38084 1.02504 0.0
H1691 H 0.84362 0.32961 1.01604 0.0
H1692 H 0.85284 0.3399 0.04611 0.0
H1693 H 0.71941 0.44152 0.99207 0.0
H1694 H 0.67201 0.41902 1.003 0.0
H1695 H 0.7038 0.3909 0.98272 0.0
C1696 C 0.33952 0.95739 0.29477 0.0
C1697 C 0.36178 0.97732 0.31245 0.0
C1698 C 0.33282 0.97664 0.2733 0.0
C1699 C 0.34891 0.01698 0.26904 0.0
C1700 C 0.37169 0.03724 0.28672 0.0
C1701 C 0.37774 0.0173 0.30816 0.0
C1702 C 0.30832 0.95367 0.25512 0.0
C1703 C 0.38966 0.08007 0.28298 0.0
C1704 C 0.36445 0.04468 0.20565 0.0
C1705 C 0.32886 0.06845 0.20053 0.0
C1706 C 0.37194 0.02909 0.22793 0.0
C1707 C 0.34306 0.03699 0.2458 0.0
C1708 C 0.3076 0.06193 0.24095 0.0
C1709 C 0.30101 0.07748 0.21846 0.0
C1710 C 0.41031 0.00304 0.23214 0.0
C1711 C 0.27585 0.07106 0.25938 0.0
H1712 H 0.32671 0.92667 0.29776 0.0
H1713 H 0.39472 0.03324 0.32164 0.0
H1714 H 0.28129 0.9727 0.24959 0.0
H1715 H 0.32803 0.94846 0.23973 0.0
H1716 H 0.29679 0.92305 0.2613 0.0
H1717 H 0.40625 0.09187 0.29842 0.0
H1718 H 0.4117 0.07944 0.26831 0.0
H1719 H 0.36451 0.10229 0.27848 0.0
H1720 H 0.38647 0.03764 0.19209 0.0
H1721 H 0.27334 0.09559 0.21477 0.0
H1722 H 0.40111 0.97074 0.23658 0.0
H1723 H 0.42809 0.01558 0.24696 0.0
H1724 H 0.43111 0.00195 0.2169 0.0
H1725 H 0.26072 0.04165 0.26484 0.0
H1726 H 0.25141 0.09298 0.25337 0.0
H1727 H 0.29124 0.08449 0.27476 0.0
C1728 C 0.29052 0.35914 0.62766 0.0
C1729 C 0.31827 0.39193 0.63232 0.0
C1730 C 0.27267 0.35366 0.60571 0.0
C1731 C 0.28253 0.38157 0.58765 0.0
C1732 C 0.3113 0.41417 0.59202 0.0
C1733 C 0.32879 0.41894 0.61422 0.0
C1734 C 0.24235 0.31842 0.60202 0.0
C1735 C 0.32284 0.44469 0.57336 0.0
C1736 C 0.25798 0.34824 0.5256 0.0
C1737 C 0.22015 0.36878 0.52126 0.0
C1738 C 0.2787 0.35228 0.54694 0.0
C1739 C 0.26139 0.3775 0.56457 0.0
C1740 C 0.22308 0.39806 0.56033 0.0
C1741 C 0.20306 0.39346 0.53888 0.0
C1742 C 0.31935 0.32971 0.55059 0.0
C1743 C 0.20318 0.42515 0.57849 0.0
H1744 H 0.28205 0.33787 0.64134 0.0
H1745 H 0.34997 0.44447 0.6175 0.0
H1746 H 0.21126 0.33119 0.59766 0.0
H1747 H 0.25246 0.29887 0.58732 0.0
H1748 H 0.23925 0.29828 0.61747 0.0
H1749 H 0.34716 0.46697 0.57905 0.0
H1750 H 0.33427 0.42779 0.55796 0.0
H1751 H 0.29491 0.46258 0.56804 0.0
H1752 H 0.2718 0.32933 0.51218 0.0
H1753 H 0.17402 0.40974 0.53586 0.0
H1754 H 0.31668 0.3082 0.56545 0.0
H1755 H 0.34423 0.3524 0.55475 0.0
H1756 H 0.32894 0.31152 0.53523 0.0
H1757 H 0.19651 0.40638 0.59407 0.0
H1758 H 0.17373 0.43961 0.57245 0.0
H1759 H 0.22492 0.45027 0.58366 0.0
C1760 C 0.78749 0.08126 0.37284 0.0
C1761 C 0.81823 0.07814 0.38994 0.0
C1762 C 0.79369 0.06419 0.35069 0.0
C1763 C 0.83147 0.04333 0.34543 0.0
C1764 C 0.86281 0.04079 0.36249 0.0
C1765 C 0.85589 0.0582 0.38437 0.0
C1766 C 0.75951 0.06784 0.33301 0.0
C1767 C 0.90351 0.01887 0.3578 0.0
C1768 C 0.83422 0.96201 0.29733 0.0
C1769 C 0.8533 0.98382 0.27924 0.0
C1770 C 0.82661 0.98105 0.31878 0.0
C1771 C 0.8381 0.02317 0.32237 0.0
C1772 C 0.85741 0.04536 0.30421 0.0
C1773 C 0.8649 0.02546 0.28297 0.0
C1774 C 0.80635 0.95597 0.33765 0.0
C1775 C 0.87011 0.09026 0.30718 0.0
H1776 H 0.75826 0.0964 0.37686 0.0
H1777 H 0.88006 0.0555 0.39728 0.0
H1778 H 0.77167 0.08254 0.31711 0.0
H1779 H 0.74822 0.03637 0.32826 0.0
H1780 H 0.73275 0.08647 0.33937 0.0
H1781 H 0.92514 0.02039 0.37269 0.0
H1782 H 0.89762 0.98567 0.35367 0.0
H1783 H 0.91901 0.03293 0.34264 0.0
H1784 H 0.82502 0.9299 0.29475 0.0
H1785 H 0.87935 0.04287 0.26916 0.0
H1786 H 0.77732 0.97152 0.34338 0.0
H1787 H 0.82735 0.95424 0.35278 0.0
H1788 H 0.79872 0.92379 0.33208 0.0
H1789 H 0.84274 0.10929 0.31215 0.0
H1790 H 0.88382 0.10356 0.29126 0.0
H1791 H 0.89322 0.09292 0.32128 0.0
C1792 C 0.14357 0.54943 0.11287 0.0
C1793 C 0.15019 0.57834 0.13064 0.0
C1794 C 0.16079 0.55547 0.09071 0.0
C1795 C 0.18541 0.5912 0.08609 0.0
C1796 C 0.19141 0.62082 0.10383 0.0
C1797 C 0.17381 0.61412 0.1257 0.0
C1798 C 0.15337 0.5231 0.07237 0.0
C1799 C 0.2174 0.6593 0.09989 0.0
C1800 C 0.26701 0.58676 1.03819 0.0
C1801 C 0.24776 0.60871 1.02014 0.0
C1802 C 0.24705 0.58071 0.05951 0.0
C1803 C 0.20654 0.59686 0.06315 0.0
C1804 C 0.187 0.61936 0.0451 0.0
C1805 C 0.20778 0.62507 1.0239 0.0
C1806 C 0.26942 0.55679 0.07817 0.0
C1807 C 0.14388 0.6371 0.04811 0.0
H1808 H 0.12553 0.52167 0.11635 0.0
H1809 H 0.17925 0.63689 0.13912 0.0
H1810 H 0.14037 0.53795 0.05669 0.0
H1811 H 0.18333 0.50845 0.06744 0.0
H1812 H 0.13173 0.4983 0.07817 0.0
H1813 H 0.21778 0.68022 0.1151 0.0
H1814 H 0.24987 0.65016 0.09585 0.0
H1815 H 0.20534 0.67697 0.0849 0.0
H1816 H 0.29778 0.57377 1.03561 0.0
H1817 H 0.19231 0.64173 1.01011 0.0
H1818 H 0.25064 0.52947 0.08346 0.0
H1819 H 0.27335 0.57679 0.09358 0.0
H1820 H 0.30055 0.54569 0.07258 0.0
H1821 H 0.12172 0.61177 0.0523 0.0
H1822 H 0.13273 0.65351 1.03245 0.0
H1823 H 0.14351 0.65928 0.06274 0.0
C1824 C 0.61469 0.91381 0.88455 0.0
C1825 C 0.65181 0.89274 0.89 0.0
C1826 C 0.60774 0.93089 0.86259 0.0
C1827 C 0.63851 0.9269 0.84532 0.0
C1828 C 0.67562 0.90472 0.85042 0.0
C1829 C 0.68185 0.88796 0.87266 0.0
C1830 C 0.56774 0.9542 0.85807 0.0
C1831 C 0.7092 0.89954 0.83254 0.0
C1832 C 0.60481 0.94634 0.78296 0.0
C1833 C 0.61789 -0.01247 0.77929 0.0
C1834 C 0.61178 0.92606 0.80417 0.0
C1835 C 0.63224 0.94738 0.8223 0.0
C1836 C 0.64526 -0.01096 0.81872 0.0
C1837 C 0.63799 0.0085 0.79737 0.0
C1838 C 0.59738 0.88168 0.80714 0.0
C1839 C 0.66694 0.01318 0.83751 0.0
H1840 H 0.59103 0.91773 0.89764 0.0
H1841 H 0.71067 0.87195 0.87658 0.0
H1842 H 0.57471 -0.01278 0.85402 0.0
H1843 H 0.55159 0.94083 0.84291 0.0
H1844 H 0.54624 0.95327 0.87301 0.0
H1845 H 0.73518 0.87964 0.83871 0.0
H1846 H 0.69603 0.88555 0.81668 0.0
H1847 H 0.72187 0.93048 0.82778 0.0
H1848 H 0.58958 0.92961 0.76914 0.0
H1849 H 0.64848 0.04021 0.7948 0.0
H1850 H 0.57455 0.87983 0.8214 0.0
H1851 H 0.6241 0.86154 0.81187 0.0
H1852 H 0.58274 0.86908 0.79129 0.0
H1853 H 0.64619 0.01601 0.85268 0.0
H1854 H 0.67607 0.04493 0.83187 0.0
H1855 H 0.69524 -0.00372 0.84319 0.0
loop_
_geom_bond_atom_site_label_1
_geom_bond_atom_site_label_2
_geom_bond_distance
_geom_bond_site_symmetry_2
_ccdc_geom_bond_type
Dy0 O4 2.398 . S
Dy0 O5 2.491 . S
Dy0 O6 2.403 . S
Dy0 O7 2.664 . S
Dy0 O11 2.326 . S
Dy0 O15 2.310 . S
Dy0 O16 2.351 . S
C1 O12 1.185 . S
C1 O13 1.355 . S
C2 O4 1.185 . S
C2 O5 1.355 . S
Dy3 O7 2.310 . S
Dy3 O10 2.351 . S
Dy3 O12 2.398 . S
Dy3 O13 2.491 . S
Dy3 O14 2.403 . S
Dy3 O15 2.664 . S
Dy3 O17 2.326 . S
O4 Dy0 2.398 . S
O4 C2 1.185 . S
O5 Dy0 2.491 . S
O5 C2 1.355 . S
O6 Dy0 2.403 . S
O6 C8 1.254 . S
O7 Dy0 2.664 . S
O7 Dy3 2.310 . S
O7 C8 1.268 . S
C8 O6 1.254 . S
C8 O7 1.268 . S
C9 O14 1.254 . S
C9 O15 1.268 . S
O10 Dy3 2.351 . S
O10 C18 1.249 . S
O11 Dy0 2.326 . S
O11 C18 1.267 . S
O12 C1 1.185 . S
O12 Dy3 2.398 . S
O13 C1 1.355 . S
O13 Dy3 2.491 . S
O14 Dy3 2.403 . S
O14 C9 1.254 . S
O15 Dy0 2.310 . S
O15 Dy3 2.664 . S
O15 C9 1.268 . S
O16 Dy0 2.351 . S
O16 C19 1.249 . S
O17 Dy3 2.326 . S
O17 C19 1.267 . S
C18 O10 1.249 . S
C18 O11 1.267 . S
C19 O16 1.249 . S
C19 O17 1.267 . S
Dy20 O24 2.398 . S
Dy20 O25 2.491 . S
Dy20 O26 2.403 . S
Dy20 O27 2.664 . S
Dy20 O31 2.326 . S
Dy20 O35 2.310 . S
Dy20 O36 2.351 . S
C21 O32 1.185 . S
C21 O33 1.355 . S
C22 O24 1.185 . S
C22 O25 1.355 . S
Dy23 O27 2.310 . S
Dy23 O30 2.351 . S
Dy23 O32 2.398 . S
Dy23 O33 2.491 . S
Dy23 O34 2.403 . S
Dy23 O35 2.664 . S
Dy23 O37 2.326 . S
O24 Dy20 2.398 . S
O24 C22 1.185 . S
O25 Dy20 2.491 . S
O25 C22 1.355 . S
O26 Dy20 2.403 . S
O26 C28 1.254 . S
O27 Dy20 2.664 . S
O27 Dy23 2.310 . S
O27 C28 1.268 . S
C28 O26 1.254 . S
C28 O27 1.268 . S
C29 O34 1.254 . S
C29 O35 1.268 . S
O30 Dy23 2.351 . S
O30 C38 1.249 . S
O31 Dy20 2.326 . S
O31 C38 1.267 . S
O32 C21 1.185 . S
O32 Dy23 2.398 . S
O33 C21 1.355 . S
O33 Dy23 2.491 . S
O34 Dy23 2.403 . S
O34 C29 1.254 . S
O35 Dy20 2.310 . S
O35 Dy23 2.664 . S
O35 C29 1.268 . S
O36 Dy20 2.351 . S
O36 C39 1.249 . S
O37 Dy23 2.326 . S
O37 C39 1.267 . S
C38 O30 1.249 . S
C38 O31 1.267 . S
C39 O36 1.249 . S
C39 O37 1.267 . S
Dy40 O44 2.398 . S
Dy40 O45 2.491 . S
Dy40 O46 2.403 . S
Dy40 O47 2.664 . S
Dy40 O51 2.326 . S
Dy40 O55 2.310 . S
Dy40 O56 2.351 . S
C41 O52 1.185 . S
C41 O53 1.355 . S
C42 O44 1.185 . S
C42 O45 1.355 . S
Dy43 O47 2.310 . S
Dy43 O50 2.351 . S
Dy43 O52 2.398 . S
Dy43 O53 2.491 . S
Dy43 O54 2.403 . S
Dy43 O55 2.664 . S
Dy43 O57 2.326 . S
O44 Dy40 2.398 . S
O44 C42 1.185 . S
O45 Dy40 2.491 . S
O45 C42 1.355 . S
O46 Dy40 2.403 . S
O46 C48 1.254 . S
O47 Dy40 2.664 . S
O47 Dy43 2.310 . S
O47 C48 1.268 . S
C48 O46 1.254 . S
C48 O47 1.268 . S
C49 O54 1.254 . S
C49 O55 1.268 . S
O50 Dy43 2.351 . S
O50 C58 1.249 . S
O51 Dy40 2.326 . S
O51 C58 1.267 . S
O52 C41 1.185 . S
O52 Dy43 2.398 . S
O53 C41 1.355 . S
O53 Dy43 2.491 . S
O54 Dy43 2.403 . S
O54 C49 1.254 . S
O55 Dy40 2.310 . S
O55 Dy43 2.664 . S
O55 C49 1.268 . S
O56 Dy40 2.351 . S
O56 C59 1.249 . S
O57 Dy43 2.326 . S
O57 C59 1.267 . S
C58 O50 1.249 . S
C58 O51 1.267 . S
C59 O56 1.249 . S
C59 O57 1.267 . S
Dy60 O64 2.398 . S
Dy60 O65 2.491 . S
Dy60 O66 2.403 . S
Dy60 O67 2.664 . S
Dy60 O71 2.326 . S
Dy60 O75 2.310 . S
Dy60 O76 2.351 . S
C61 O72 1.185 . S
C61 O73 1.355 . S
C62 O64 1.185 . S
C62 O65 1.355 . S
Dy63 O67 2.310 . S
Dy63 O70 2.351 . S
Dy63 O72 2.398 . S
Dy63 O73 2.491 . S
Dy63 O74 2.403 . S
Dy63 O75 2.664 . S
Dy63 O77 2.326 . S
O64 Dy60 2.398 . S
O64 C62 1.185 . S
O65 Dy60 2.491 . S
O65 C62 1.355 . S
O66 Dy60 2.403 . S
O66 C68 1.254 . S
O67 Dy60 2.664 . S
O67 Dy63 2.310 . S
O67 C68 1.268 . S
C68 O66 1.254 . S
C68 O67 1.268 . S
C69 O74 1.254 . S
C69 O75 1.268 . S
O70 Dy63 2.351 . S
O70 C78 1.249 . S
O71 Dy60 2.326 . S
O71 C78 1.267 . S
O72 C61 1.185 . S
O72 Dy63 2.398 . S
O73 C61 1.355 . S
O73 Dy63 2.491 . S
O74 Dy63 2.403 . S
O74 C69 1.254 . S
O75 Dy60 2.310 . S
O75 Dy63 2.664 . S
O75 C69 1.268 . S
O76 Dy60 2.351 . S
O76 C79 1.249 . S
O77 Dy63 2.326 . S
O77 C79 1.267 . S
C78 O70 1.249 . S
C78 O71 1.267 . S
C79 O76 1.249 . S
C79 O77 1.267 . S
Dy80 O84 2.398 . S
Dy80 O85 2.491 . S
Dy80 O86 2.403 . S
Dy80 O87 2.664 . S
Dy80 O91 2.326 . S
Dy80 O95 2.310 . S
Dy80 O96 2.351 . S
C81 O92 1.185 . S
C81 O93 1.355 . S
C82 O84 1.185 . S
C82 O85 1.355 . S
Dy83 O87 2.310 . S
Dy83 O90 2.351 . S
Dy83 O92 2.398 . S
Dy83 O93 2.491 . S
Dy83 O94 2.403 . S
Dy83 O95 2.664 . S
Dy83 O97 2.326 . S
O84 Dy80 2.398 . S
O84 C82 1.185 . S
O85 Dy80 2.491 . S
O85 C82 1.355 . S
O86 Dy80 2.403 . S
O86 C88 1.254 . S
O87 Dy80 2.664 . S
O87 Dy83 2.310 . S
O87 C88 1.268 . S
C88 O86 1.254 . S
C88 O87 1.268 . S
C89 O94 1.254 . S
C89 O95 1.268 . S
O90 Dy83 2.351 . S
O90 C98 1.249 . S
O91 Dy80 2.326 . S
O91 C98 1.267 . S
O92 C81 1.185 . S
O92 Dy83 2.398 . S
O93 C81 1.355 . S
O93 Dy83 2.491 . S
O94 Dy83 2.403 . S
O94 C89 1.254 . S
O95 Dy80 2.310 . S
O95 Dy83 2.664 . S
O95 C89 1.268 . S
O96 Dy80 2.351 . S
O96 C99 1.249 . S
O97 Dy83 2.326 . S
O97 C99 1.267 . S
C98 O90 1.249 . S
C98 O91 1.267 . S
C99 O96 1.249 . S
C99 O97 1.267 . S
Dy100 O104 2.398 . S
Dy100 O105 2.491 . S
Dy100 O106 2.403 . S
Dy100 O107 2.664 . S
Dy100 O111 2.326 . S
Dy100 O115 2.310 . S
Dy100 O116 2.351 . S
C101 O112 1.185 . S
C101 O113 1.355 . S
C102 O104 1.185 . S
C102 O105 1.355 . S
Dy103 O107 2.310 . S
Dy103 O110 2.351 . S
Dy103 O112 2.398 . S
Dy103 O113 2.491 . S
Dy103 O114 2.403 . S
Dy103 O115 2.664 . S
Dy103 O117 2.326 . S
O104 Dy100 2.398 . S
O104 C102 1.185 . S
O105 Dy100 2.491 . S
O105 C102 1.355 . S
O106 Dy100 2.403 . S
O106 C108 1.254 . S
O107 Dy100 2.664 . S
O107 Dy103 2.310 . S
O107 C108 1.268 . S
C108 O106 1.254 . S
C108 O107 1.268 . S
C109 O114 1.254 . S
C109 O115 1.268 . S
O110 Dy103 2.351 . S
O110 C118 1.249 . S
O111 Dy100 2.326 . S
O111 C118 1.267 . S
O112 C101 1.185 . S
O112 Dy103 2.398 . S
O113 C101 1.355 . S
O113 Dy103 2.491 . S
O114 Dy103 2.403 . S
O114 C109 1.254 . S
O115 Dy100 2.310 . S
O115 Dy103 2.664 . S
O115 C109 1.268 . S
O116 Dy100 2.351 . S
O116 C119 1.249 . S
O117 Dy103 2.326 . S
O117 C119 1.267 . S
C118 O110 1.249 . S
C118 O111 1.267 . S
C119 O116 1.249 . S
C119 O117 1.267 . S
Dy120 O124 2.398 . S
Dy120 O125 2.491 . S
Dy120 O126 2.403 . S
Dy120 O127 2.664 . S
Dy120 O131 2.326 . S
Dy120 O135 2.310 . S
Dy120 O136 2.351 . S
C121 O132 1.185 . S
C121 O133 1.355 . S
C122 O124 1.185 . S
C122 O125 1.355 . S
Dy123 O127 2.310 . S
Dy123 O130 2.351 . S
Dy123 O132 2.398 . S
Dy123 O133 2.491 . S
Dy123 O134 2.403 . S
Dy123 O135 2.664 . S
Dy123 O137 2.326 . S
O124 Dy120 2.398 . S
O124 C122 1.185 . S
O125 Dy120 2.491 . S
O125 C122 1.355 . S
O126 Dy120 2.403 . S
O126 C128 1.254 . S
O127 Dy120 2.664 . S
O127 Dy123 2.310 . S
O127 C128 1.268 . S
C128 O126 1.254 . S
C128 O127 1.268 . S
C129 O134 1.254 . S
C129 O135 1.268 . S
O130 Dy123 2.351 . S
O130 C138 1.249 . S
O131 Dy120 2.326 . S
O131 C138 1.267 . S
O132 C121 1.185 . S
O132 Dy123 2.398 . S
O133 C121 1.355 . S
O133 Dy123 2.491 . S
O134 Dy123 2.403 . S
O134 C129 1.254 . S
O135 Dy120 2.310 . S
O135 Dy123 2.664 . S
O135 C129 1.268 . S
O136 Dy120 2.351 . S
O136 C139 1.249 . S
O137 Dy123 2.326 . S
O137 C139 1.267 . S
C138 O130 1.249 . S
C138 O131 1.267 . S
C139 O136 1.249 . S
C139 O137 1.267 . S
Dy140 O144 2.398 . S
Dy140 O145 2.491 . S
Dy140 O146 2.403 . S
Dy140 O147 2.664 . S
Dy140 O151 2.326 . S
Dy140 O155 2.310 . S
Dy140 O156 2.351 . S
C141 O152 1.185 . S
C141 O153 1.355 . S
C142 O144 1.185 . S
C142 O145 1.355 . S
Dy143 O147 2.310 . S
Dy143 O150 2.351 . S
Dy143 O152 2.398 . S
Dy143 O153 2.491 . S
Dy143 O154 2.403 . S
Dy143 O155 2.664 . S
Dy143 O157 2.326 . S
O144 Dy140 2.398 . S
O144 C142 1.185 . S
O145 Dy140 2.491 . S
O145 C142 1.355 . S
O146 Dy140 2.403 . S
O146 C148 1.254 . S
O147 Dy140 2.664 . S
O147 Dy143 2.310 . S
O147 C148 1.268 . S
C148 O146 1.254 . S
C148 O147 1.268 . S
C149 O154 1.254 . S
C149 O155 1.268 . S
O150 Dy143 2.351 . S
O150 C158 1.249 . S
O151 Dy140 2.326 . S
O151 C158 1.267 . S
O152 C141 1.185 . S
O152 Dy143 2.398 . S
O153 C141 1.355 . S
O153 Dy143 2.491 . S
O154 Dy143 2.403 . S
O154 C149 1.254 . S
O155 Dy140 2.310 . S
O155 Dy143 2.664 . S
O155 C149 1.268 . S
O156 Dy140 2.351 . S
O156 C159 1.249 . S
O157 Dy143 2.326 . S
O157 C159 1.267 . S
C158 O150 1.249 . S
C158 O151 1.267 . S
C159 O156 1.249 . S
C159 O157 1.267 . S
Dy160 O164 2.398 . S
Dy160 O165 2.491 . S
Dy160 O166 2.403 . S
Dy160 O167 2.664 . S
Dy160 O171 2.326 . S
Dy160 O175 2.310 . S
Dy160 O176 2.351 . S
C161 O172 1.185 . S
C161 O173 1.355 . S
C162 O164 1.185 . S
C162 O165 1.355 . S
Dy163 O167 2.310 . S
Dy163 O170 2.351 . S
Dy163 O172 2.398 . S
Dy163 O173 2.491 . S
Dy163 O174 2.403 . S
Dy163 O175 2.664 . S
Dy163 O177 2.326 . S
O164 Dy160 2.398 . S
O164 C162 1.185 . S
O165 Dy160 2.491 . S
O165 C162 1.355 . S
O166 Dy160 2.403 . S
O166 C168 1.254 . S
O167 Dy160 2.664 . S
O167 Dy163 2.310 . S
O167 C168 1.268 . S
C168 O166 1.254 . S
C168 O167 1.268 . S
C169 O174 1.254 . S
C169 O175 1.268 . S
O170 Dy163 2.351 . S
O170 C178 1.249 . S
O171 Dy160 2.326 . S
O171 C178 1.267 . S
O172 C161 1.185 . S
O172 Dy163 2.398 . S
O173 C161 1.355 . S
O173 Dy163 2.491 . S
O174 Dy163 2.403 . S
O174 C169 1.254 . S
O175 Dy160 2.310 . S
O175 Dy163 2.664 . S
O175 C169 1.268 . S
O176 Dy160 2.351 . S
O176 C179 1.249 . S
O177 Dy163 2.326 . S
O177 C179 1.267 . S
C178 O170 1.249 . S
C178 O171 1.267 . S
C179 O176 1.249 . S
C179 O177 1.267 . S
Dy180 O184 2.398 . S
Dy180 O185 2.491 1_545 S
Dy180 O186 2.403 . S
Dy180 O187 2.664 . S
Dy180 O191 2.326 . S
Dy180 O195 2.310 . S
Dy180 O196 2.351 . S
C181 O192 1.185 . S
C181 O193 1.355 . S
C182 O184 1.169 1_565 S
C182 O185 1.364 . S
Dy183 O187 2.310 . S
Dy183 O190 2.351 . S
Dy183 O192 2.398 . S
Dy183 O193 2.491 . S
Dy183 O194 2.403 . S
Dy183 O195 2.664 . S
Dy183 O197 2.326 . S
O184 Dy180 2.398 . S
O184 C182 1.169 1_545 S
O185 Dy180 2.491 1_565 S
O185 C182 1.364 . S
O186 Dy180 2.403 . S
O186 C188 1.254 . S
O187 Dy180 2.664 . S
O187 Dy183 2.310 . S
O187 C188 1.268 . S
C188 O186 1.254 . S
C188 O187 1.268 . S
C189 O194 1.249 1_565 S
C189 O195 1.263 1_565 S
O190 Dy183 2.351 . S
O190 C198 1.249 . S
O191 Dy180 2.326 . S
O191 C198 1.267 . S
O192 C181 1.185 . S
O192 Dy183 2.398 . S
O193 C181 1.355 . S
O193 Dy183 2.491 . S
O194 Dy183 2.403 . S
O194 C189 1.249 1_545 S
O195 Dy180 2.310 . S
O195 Dy183 2.664 . S
O195 C189 1.263 1_545 S
O196 Dy180 2.351 . S
O196 C199 1.249 . S
O197 Dy183 2.326 . S
O197 C199 1.267 . S
C198 O190 1.249 . S
C198 O191 1.267 . S
C199 O196 1.249 . S
C199 O197 1.267 . S
Dy200 O204 2.398 . S
Dy200 O205 2.491 . S
Dy200 O206 2.403 . S
Dy200 O207 2.664 . S
Dy200 O211 2.326 . S
Dy200 O215 2.310 . S
Dy200 O216 2.351 . S
C201 O212 1.185 . S
C201 O213 1.355 . S
C202 O204 1.185 . S
C202 O205 1.355 . S
Dy203 O207 2.310 . S
Dy203 O210 2.351 . S
Dy203 O212 2.398 . S
Dy203 O213 2.491 . S
Dy203 O214 2.403 . S
Dy203 O215 2.664 . S
Dy203 O217 2.326 . S
O204 Dy200 2.398 . S
O204 C202 1.185 . S
O205 Dy200 2.491 . S
O205 C202 1.355 . S
O206 Dy200 2.403 . S
O206 C208 1.254 . S
O207 Dy200 2.664 . S
O207 Dy203 2.310 . S
O207 C208 1.268 . S
C208 O206 1.254 . S
C208 O207 1.268 . S
C209 O214 1.254 . S
C209 O215 1.268 . S
O210 Dy203 2.351 . S
O210 C218 1.249 . S
O211 Dy200 2.326 . S
O211 C218 1.267 . S
O212 C201 1.185 . S
O212 Dy203 2.398 . S
O213 C201 1.355 . S
O213 Dy203 2.491 . S
O214 Dy203 2.403 . S
O214 C209 1.254 . S
O215 Dy200 2.310 . S
O215 Dy203 2.664 . S
O215 C209 1.268 . S
O216 Dy200 2.351 . S
O216 C219 1.249 . S
O217 Dy203 2.326 . S
O217 C219 1.267 . S
C218 O210 1.249 . S
C218 O211 1.267 . S
C219 O216 1.249 . S
C219 O217 1.267 . S
Dy220 O224 2.398 . S
Dy220 O225 2.491 1_565 S
Dy220 O226 2.403 . S
Dy220 O227 2.664 . S
Dy220 O231 2.326 . S
Dy220 O235 2.310 . S
Dy220 O236 2.351 . S
C221 O232 1.185 . S
C221 O233 1.355 . S
C222 O224 1.169 1_545 S
C222 O225 1.363 . S
Dy223 O227 2.310 . S
Dy223 O230 2.351 . S
Dy223 O232 2.398 . S
Dy223 O233 2.491 . S
Dy223 O234 2.403 . S
Dy223 O235 2.664 . S
Dy223 O237 2.326 . S
O224 Dy220 2.398 . S
O224 C222 1.169 1_565 S
O225 Dy220 2.491 1_545 S
O225 C222 1.363 . S
O226 Dy220 2.403 . S
O226 C228 1.254 . S
O227 Dy220 2.664 . S
O227 Dy223 2.310 . S
O227 C228 1.268 . S
C228 O226 1.254 . S
C228 O227 1.268 . S
C229 O234 1.250 1_545 S
C229 O235 1.263 1_545 S
O230 Dy223 2.351 . S
O230 C238 1.249 . S
O231 Dy220 2.326 . S
O231 C238 1.267 . S
O232 C221 1.185 . S
O232 Dy223 2.398 . S
O233 C221 1.355 . S
O233 Dy223 2.491 . S
O234 Dy223 2.403 . S
O234 C229 1.250 1_565 S
O235 Dy220 2.310 . S
O235 Dy223 2.664 . S
O235 C229 1.263 1_565 S
O236 Dy220 2.351 . S
O236 C239 1.249 . S
O237 Dy223 2.326 . S
O237 C239 1.267 . S
C238 O230 1.249 . S
C238 O231 1.267 . S
C239 O236 1.249 . S
C239 O237 1.267 . S
Dy240 O244 2.398 . S
Dy240 O245 2.491 . S
Dy240 O246 2.403 . S
Dy240 O247 2.664 . S
Dy240 O251 2.326 . S
Dy240 O255 2.310 . S
Dy240 O256 2.351 . S
C241 O252 1.185 . S
C241 O253 1.355 . S
C242 O244 1.185 . S
C242 O245 1.355 . S
Dy243 O247 2.310 . S
Dy243 O250 2.351 . S
Dy243 O252 2.398 . S
Dy243 O253 2.491 . S
Dy243 O254 2.403 . S
Dy243 O255 2.664 . S
Dy243 O257 2.326 . S
O244 Dy240 2.398 . S
O244 C242 1.185 . S
O245 Dy240 2.491 . S
O245 C242 1.355 . S
O246 Dy240 2.403 . S
O246 C248 1.254 . S
O247 Dy240 2.664 . S
O247 Dy243 2.310 . S
O247 C248 1.268 . S
C248 O246 1.254 . S
C248 O247 1.268 . S
C249 O254 1.254 . S
C249 O255 1.268 . S
O250 Dy243 2.351 . S
O250 C258 1.249 . S
O251 Dy240 2.326 . S
O251 C258 1.267 . S
O252 C241 1.185 . S
O252 Dy243 2.398 . S
O253 C241 1.355 . S
O253 Dy243 2.491 . S
O254 Dy243 2.403 . S
O254 C249 1.254 . S
O255 Dy240 2.310 . S
O255 Dy243 2.664 . S
O255 C249 1.268 . S
O256 Dy240 2.351 . S
O256 C259 1.249 . S
O257 Dy243 2.326 . S
O257 C259 1.267 . S
C258 O250 1.249 . S
C258 O251 1.267 . S
C259 O256 1.249 . S
C259 O257 1.267 . S
Dy260 O264 2.398 . S
Dy260 O265 2.491 . S
Dy260 O266 2.403 . S
Dy260 O267 2.664 . S
Dy260 O271 2.326 . S
Dy260 O275 2.310 . S
Dy260 O276 2.351 . S
C261 O272 1.169 1_545 S
C261 O273 1.364 . S
C262 O264 1.185 . S
C262 O265 1.355 . S
Dy263 O267 2.310 . S
Dy263 O270 2.351 . S
Dy263 O272 2.398 . S
Dy263 O273 2.491 1_565 S
Dy263 O274 2.403 . S
Dy263 O275 2.664 . S
Dy263 O277 2.326 . S
O264 Dy260 2.398 . S
O264 C262 1.185 . S
O265 Dy260 2.491 . S
O265 C262 1.355 . S
O266 Dy260 2.403 . S
O266 C268 1.249 1_565 S
O267 Dy260 2.664 . S
O267 Dy263 2.310 . S
O267 C268 1.263 1_565 S
C268 O266 1.249 1_545 S
C268 O267 1.263 1_545 S
C269 O274 1.254 . S
C269 O275 1.268 . S
O270 Dy263 2.351 . S
O270 C278 1.249 . S
O271 Dy260 2.326 . S
O271 C278 1.267 . S
O272 C261 1.169 1_565 S
O272 Dy263 2.398 . S
O273 C261 1.364 . S
O273 Dy263 2.491 1_545 S
O274 Dy263 2.403 . S
O274 C269 1.254 . S
O275 Dy260 2.310 . S
O275 Dy263 2.664 . S
O275 C269 1.268 . S
O276 Dy260 2.351 . S
O276 C279 1.249 . S
O277 Dy263 2.326 . S
O277 C279 1.267 . S
C278 O270 1.249 . S
C278 O271 1.267 . S
C279 O276 1.249 . S
C279 O277 1.267 . S
Dy280 O284 2.398 . S
Dy280 O285 2.491 . S
Dy280 O286 2.403 . S
Dy280 O287 2.664 . S
Dy280 O291 2.326 . S
Dy280 O295 2.310 . S
Dy280 O296 2.351 . S
C281 O292 1.185 . S
C281 O293 1.355 . S
C282 O284 1.185 . S
C282 O285 1.355 . S
Dy283 O287 2.310 . S
Dy283 O290 2.351 . S
Dy283 O292 2.398 . S
Dy283 O293 2.491 . S
Dy283 O294 2.403 . S
Dy283 O295 2.664 . S
Dy283 O297 2.326 . S
O284 Dy280 2.398 . S
O284 C282 1.185 . S
O285 Dy280 2.491 . S
O285 C282 1.355 . S
O286 Dy280 2.403 . S
O286 C288 1.254 . S
O287 Dy280 2.664 . S
O287 Dy283 2.310 . S
O287 C288 1.268 . S
C288 O286 1.254 . S
C288 O287 1.268 . S
C289 O294 1.254 . S
C289 O295 1.268 . S
O290 Dy283 2.351 . S
O290 C298 1.249 . S
O291 Dy280 2.326 . S
O291 C298 1.267 . S
O292 C281 1.185 . S
O292 Dy283 2.398 . S
O293 C281 1.355 . S
O293 Dy283 2.491 . S
O294 Dy283 2.403 . S
O294 C289 1.254 . S
O295 Dy280 2.310 . S
O295 Dy283 2.664 . S
O295 C289 1.268 . S
O296 Dy280 2.351 . S
O296 C299 1.249 . S
O297 Dy283 2.326 . S
O297 C299 1.267 . S
C298 O290 1.249 . S
C298 O291 1.267 . S
C299 O296 1.249 . S
C299 O297 1.267 . S
Dy300 O304 2.398 . S
Dy300 O305 2.491 . S
Dy300 O306 2.403 . S
Dy300 O307 2.664 . S
Dy300 O311 2.326 . S
Dy300 O315 2.310 . S
Dy300 O316 2.351 . S
C301 O312 1.169 1_565 S
C301 O313 1.363 . S
C302 O304 1.185 . S
C302 O305 1.355 . S
Dy303 O307 2.310 . S
Dy303 O310 2.351 . S
Dy303 O312 2.398 . S
Dy303 O313 2.491 1_545 S
Dy303 O314 2.403 . S
Dy303 O315 2.664 . S
Dy303 O317 2.326 . S
O304 Dy300 2.398 . S
O304 C302 1.185 . S
O305 Dy300 2.491 . S
O305 C302 1.355 . S
O306 Dy300 2.403 . S
O306 C308 1.250 1_545 S
O307 Dy300 2.664 . S
O307 Dy303 2.310 . S
O307 C308 1.263 1_545 S
C308 O306 1.250 1_565 S
C308 O307 1.263 1_565 S
C309 O314 1.254 . S
C309 O315 1.268 . S
O310 Dy303 2.351 . S
O310 C318 1.249 . S
O311 Dy300 2.326 . S
O311 C318 1.267 . S
O312 C301 1.169 1_545 S
O312 Dy303 2.398 . S
O313 C301 1.363 . S
O313 Dy303 2.491 1_565 S
O314 Dy303 2.403 . S
O314 C309 1.254 . S
O315 Dy300 2.310 . S
O315 Dy303 2.664 . S
O315 C309 1.268 . S
O316 Dy300 2.351 . S
O316 C319 1.249 . S
O317 Dy303 2.326 . S
O317 C319 1.267 . S
C318 O310 1.249 . S
C318 O311 1.267 . S
C319 O316 1.249 . S
C319 O317 1.267 . S
C320 C321 1.391 . S
C320 C322 1.394 . S
C320 H336 0.931 . S
C321 C320 1.391 . S
C321 C325 1.376 . S
C322 C320 1.394 . S
C322 C323 1.369 . S
C322 C326 1.531 . S
C323 C322 1.369 . S
C323 C324 1.410 . S
C323 C331 1.503 . S
C324 C323 1.410 . S
C324 C325 1.392 . S
C324 C327 1.511 . S
C325 C321 1.376 . S
C325 C324 1.392 . S
C325 H337 0.929 . S
C326 C322 1.531 . S
C326 H338 0.960 . S
C326 H339 0.962 . S
C326 H340 0.960 . S
C327 C324 1.511 . S
C327 H341 0.961 . S
C327 H342 0.961 . S
C327 H343 0.961 . S
C328 C329 1.370 . S
C328 C330 1.363 . S
C328 H344 0.931 . S
C329 C328 1.370 . S
C329 C333 1.408 . S
C330 C328 1.363 . S
C330 C331 1.370 . S
C330 C334 1.524 . S
C331 C323 1.503 . S
C331 C330 1.370 . S
C331 C332 1.403 . S
C332 C331 1.403 . S
C332 C333 1.404 . S
C332 C335 1.539 . S
C333 C329 1.408 . S
C333 C332 1.404 . S
C333 H345 0.930 . S
C334 C330 1.524 . S
C334 H346 0.956 . S
C334 H347 0.961 . S
C334 H348 0.961 . S
C335 C332 1.539 . S
C335 H349 0.958 . S
C335 H350 0.961 . S
C335 H351 0.960 . S
H336 C320 0.931 . S
H337 C325 0.929 . S
H338 C326 0.960 . S
H339 C326 0.962 . S
H340 C326 0.960 . S
H341 C327 0.961 . S
H342 C327 0.961 . S
H343 C327 0.961 . S
H344 C328 0.931 . S
H345 C333 0.930 . S
H346 C334 0.956 . S
H347 C334 0.961 . S
H348 C334 0.961 . S
H349 C335 0.958 . S
H350 C335 0.961 . S
H351 C335 0.960 . S
C352 C353 1.391 . S
C352 C354 1.394 . S
C352 H368 0.931 . S
C353 C352 1.391 . S
C353 C357 1.376 . S
C354 C352 1.394 . S
C354 C355 1.369 . S
C354 C358 1.531 . S
C355 C354 1.369 . S
C355 C356 1.410 . S
C355 C363 1.503 . S
C356 C355 1.410 . S
C356 C357 1.392 . S
C356 C359 1.511 . S
C357 C353 1.376 . S
C357 C356 1.392 . S
C357 H369 0.929 . S
C358 C354 1.531 . S
C358 H370 0.960 . S
C358 H371 0.962 . S
C358 H372 0.960 . S
C359 C356 1.511 . S
C359 H373 0.961 . S
C359 H374 0.961 . S
C359 H375 0.961 . S
C360 C361 1.370 . S
C360 C362 1.363 . S
C360 H376 0.931 . S
C361 C360 1.370 . S
C361 C365 1.408 . S
C362 C360 1.363 . S
C362 C363 1.370 . S
C362 C366 1.524 . S
C363 C355 1.503 . S
C363 C362 1.370 . S
C363 C364 1.403 . S
C364 C363 1.403 . S
C364 C365 1.404 . S
C364 C367 1.539 . S
C365 C361 1.408 . S
C365 C364 1.404 . S
C365 H377 0.930 . S
C366 C362 1.524 . S
C366 H378 0.956 . S
C366 H379 0.961 . S
C366 H380 0.961 . S
C367 C364 1.539 . S
C367 H381 0.958 . S
C367 H382 0.961 . S
C367 H383 0.960 . S
H368 C352 0.931 . S
H369 C357 0.929 . S
H370 C358 0.960 . S
H371 C358 0.962 . S
H372 C358 0.960 . S
H373 C359 0.961 . S
H374 C359 0.961 . S
H375 C359 0.961 . S
H376 C360 0.931 . S
H377 C365 0.930 . S
H378 C366 0.956 . S
H379 C366 0.961 . S
H380 C366 0.961 . S
H381 C367 0.958 . S
H382 C367 0.961 . S
H383 C367 0.960 . S
C384 C385 1.391 . S
C384 C386 1.394 . S
C384 H400 0.931 . S
C385 C384 1.391 . S
C385 C389 1.376 . S
C386 C384 1.394 . S
C386 C387 1.369 . S
C386 C390 1.531 . S
C387 C386 1.369 . S
C387 C388 1.410 . S
C387 C395 1.503 1_455 S
C388 C387 1.410 . S
C388 C389 1.392 . S
C388 C391 1.511 1_455 S
C389 C385 1.376 . S
C389 C388 1.392 . S
C389 H401 0.929 . S
C390 C386 1.531 . S
C390 H402 0.960 . S
C390 H403 0.962 . S
C390 H404 0.960 . S
C391 C388 1.511 1_655 S
C391 H405 0.961 . S
C391 H406 0.961 . S
C391 H407 0.961 . S
C392 C393 1.370 . S
C392 C394 1.363 . S
C392 H408 0.931 . S
C393 C392 1.370 . S
C393 C397 1.408 . S
C394 C392 1.363 . S
C394 C395 1.370 . S
C394 C398 1.524 . S
C395 C387 1.503 1_655 S
C395 C394 1.370 . S
C395 C396 1.403 . S
C396 C395 1.403 . S
C396 C397 1.404 . S
C396 C399 1.539 . S
C397 C393 1.408 . S
C397 C396 1.404 . S
C397 H409 0.930 . S
C398 C394 1.524 . S
C398 H410 0.956 1_655 S
C398 H411 0.961 1_655 S
C398 H412 0.961 . S
C399 C396 1.539 . S
C399 H413 0.958 . S
C399 H414 0.961 . S
C399 H415 0.960 . S
H400 C384 0.931 . S
H401 C389 0.929 . S
H402 C390 0.960 . S
H403 C390 0.962 . S
H404 C390 0.960 . S
H405 C391 0.961 . S
H406 C391 0.961 . S
H407 C391 0.961 . S
H408 C392 0.931 . S
H409 C397 0.930 . S
H410 C398 0.956 1_455 S
H411 C398 0.961 1_455 S
H412 C398 0.961 . S
H413 C399 0.958 . S
H414 C399 0.961 . S
H415 C399 0.960 . S
C416 C417 1.391 . S
C416 C418 1.394 1_455 S
C416 H432 0.931 . S
C417 C416 1.391 . S
C417 C421 1.376 . S
C418 C416 1.394 1_655 S
C418 C419 1.369 1_655 S
C418 C422 1.531 . S
C419 C418 1.369 1_455 S
C419 C420 1.410 . S
C419 C427 1.503 1_455 S
C420 C419 1.410 . S
C420 C421 1.392 . S
C420 C423 1.511 . S
C421 C417 1.376 . S
C421 C420 1.392 . S
C421 H433 0.929 . S
C422 C418 1.531 . S
C422 H434 0.960 . S
C422 H435 0.962 . S
C422 H436 0.960 . S
C423 C420 1.511 . S
C423 H437 0.961 . S
C423 H438 0.961 . S
C423 H439 0.961 . S
C424 C425 1.370 . S
C424 C426 1.363 . S
C424 H440 0.931 . S
C425 C424 1.370 . S
C425 C429 1.408 . S
C426 C424 1.363 . S
C426 C427 1.370 . S
C426 C430 1.524 1_655 S
C427 C419 1.503 1_655 S
C427 C426 1.370 . S
C427 C428 1.403 . S
C428 C427 1.403 . S
C428 C429 1.404 . S
C428 C431 1.539 . S
C429 C425 1.408 . S
C429 C428 1.404 . S
C429 H441 0.930 . S
C430 C426 1.524 1_455 S
C430 H442 0.956 . S
C430 H443 0.961 . S
C430 H444 0.961 . S
C431 C428 1.539 . S
C431 H445 0.958 . S
C431 H446 0.961 . S
C431 H447 0.960 . S
H432 C416 0.931 . S
H433 C421 0.929 . S
H434 C422 0.960 . S
H435 C422 0.962 . S
H436 C422 0.960 . S
H437 C423 0.961 . S
H438 C423 0.961 . S
H439 C423 0.961 . S
H440 C424 0.931 . S
H441 C429 0.930 . S
H442 C430 0.956 . S
H443 C430 0.961 . S
H444 C430 0.961 . S
H445 C431 0.958 . S
H446 C431 0.961 . S
H447 C431 0.960 . S
C448 C449 1.391 . S
C448 C450 1.394 . S
C448 H464 0.931 . S
C449 C448 1.391 . S
C449 C453 1.376 . S
C450 C448 1.394 . S
C450 C451 1.369 . S
C450 C454 1.531 . S
C451 C450 1.369 . S
C451 C452 1.410 . S
C451 C459 1.503 . S
C452 C451 1.410 . S
C452 C453 1.392 . S
C452 C455 1.511 . S
C453 C449 1.376 . S
C453 C452 1.392 . S
C453 H465 0.929 . S
C454 C450 1.531 . S
C454 H466 0.960 . S
C454 H467 0.962 . S
C454 H468 0.960 . S
C455 C452 1.511 . S
C455 H469 0.961 . S
C455 H470 0.961 . S
C455 H471 0.961 . S
C456 C457 1.370 . S
C456 C458 1.363 . S
C456 H472 0.931 . S
C457 C456 1.370 . S
C457 C461 1.408 . S
C458 C456 1.363 . S
C458 C459 1.370 . S
C458 C462 1.524 . S
C459 C451 1.503 . S
C459 C458 1.370 . S
C459 C460 1.403 . S
C460 C459 1.403 . S
C460 C461 1.404 . S
C460 C463 1.539 . S
C461 C457 1.408 . S
C461 C460 1.404 . S
C461 H473 0.930 . S
C462 C458 1.524 . S
C462 H474 0.956 . S
C462 H475 0.961 . S
C462 H476 0.961 . S
C463 C460 1.539 . S
C463 H477 0.958 . S
C463 H478 0.961 . S
C463 H479 0.960 . S
H464 C448 0.931 . S
H465 C453 0.929 . S
H466 C454 0.960 . S
H467 C454 0.962 . S
H468 C454 0.960 . S
H469 C455 0.961 . S
H470 C455 0.961 . S
H471 C455 0.961 . S
H472 C456 0.931 . S
H473 C461 0.930 . S
H474 C462 0.956 . S
H475 C462 0.961 . S
H476 C462 0.961 . S
H477 C463 0.958 . S
H478 C463 0.961 . S
H479 C463 0.960 . S
C480 C481 1.391 . S
C480 C482 1.394 . S
C480 H496 0.931 . S
C481 C480 1.391 . S
C481 C485 1.376 . S
C482 C480 1.394 . S
C482 C483 1.369 . S
C482 C486 1.531 . S
C483 C482 1.369 . S
C483 C484 1.410 . S
C483 C491 1.503 . S
C484 C483 1.410 . S
C484 C485 1.392 . S
C484 C487 1.511 . S
C485 C481 1.376 . S
C485 C484 1.392 . S
C485 H497 0.929 . S
C486 C482 1.531 . S
C486 H498 0.960 . S
C486 H499 0.962 . S
C486 H500 0.960 . S
C487 C484 1.511 . S
C487 H501 0.961 . S
C487 H502 0.961 . S
C487 H503 0.961 . S
C488 C489 1.370 . S
C488 C490 1.363 . S
C488 H504 0.931 . S
C489 C488 1.370 . S
C489 C493 1.408 . S
C490 C488 1.363 . S
C490 C491 1.370 . S
C490 C494 1.524 . S
C491 C483 1.503 . S
C491 C490 1.370 . S
C491 C492 1.403 . S
C492 C491 1.403 . S
C492 C493 1.404 . S
C492 C495 1.539 . S
C493 C489 1.408 . S
C493 C492 1.404 . S
C493 H505 0.930 . S
C494 C490 1.524 . S
C494 H506 0.956 . S
C494 H507 0.961 . S
C494 H508 0.961 . S
C495 C492 1.539 . S
C495 H509 0.958 . S
C495 H510 0.961 . S
C495 H511 0.960 . S
H496 C480 0.931 . S
H497 C485 0.929 . S
H498 C486 0.960 . S
H499 C486 0.962 . S
H500 C486 0.960 . S
H501 C487 0.961 . S
H502 C487 0.961 . S
H503 C487 0.961 . S
H504 C488 0.931 . S
H505 C493 0.930 . S
H506 C494 0.956 . S
H507 C494 0.961 . S
H508 C494 0.961 . S
H509 C495 0.958 . S
H510 C495 0.961 . S
H511 C495 0.960 . S
C512 C513 1.391 . S
C512 C514 1.394 . S
C512 H528 0.931 . S
C513 C512 1.391 . S
C513 C517 1.376 . S
C514 C512 1.394 . S
C514 C515 1.369 . S
C514 C518 1.531 . S
C515 C514 1.369 . S
C515 C516 1.410 . S
C515 C523 1.503 1_455 S
C516 C515 1.410 . S
C516 C517 1.392 . S
C516 C519 1.511 . S
C517 C513 1.376 . S
C517 C516 1.392 . S
C517 H529 0.929 . S
C518 C514 1.531 . S
C518 H530 0.960 1_455 S
C518 H531 0.962 1_455 S
C518 H532 0.960 . S
C519 C516 1.511 . S
C519 H533 0.961 . S
C519 H534 0.961 . S
C519 H535 0.961 . S
C520 C521 1.370 . S
C520 C522 1.363 . S
C520 H536 0.931 . S
C521 C520 1.370 . S
C521 C525 1.408 . S
C522 C520 1.363 . S
C522 C523 1.370 . S
C522 C526 1.524 . S
C523 C515 1.503 1_655 S
C523 C522 1.370 . S
C523 C524 1.403 . S
C524 C523 1.403 . S
C524 C525 1.404 . S
C524 C527 1.539 1_655 S
C525 C521 1.408 . S
C525 C524 1.404 . S
C525 H537 0.930 . S
C526 C522 1.524 . S
C526 H538 0.956 . S
C526 H539 0.961 . S
C526 H540 0.961 . S
C527 C524 1.539 1_455 S
C527 H541 0.958 . S
C527 H542 0.961 . S
C527 H543 0.960 . S
H528 C512 0.931 . S
H529 C517 0.929 . S
H530 C518 0.960 1_655 S
H531 C518 0.962 1_655 S
H532 C518 0.960 . S
H533 C519 0.961 . S
H534 C519 0.961 . S
H535 C519 0.961 . S
H536 C520 0.931 . S
H537 C525 0.930 . S
H538 C526 0.956 . S
H539 C526 0.961 . S
H540 C526 0.961 . S
H541 C527 0.958 . S
H542 C527 0.961 . S
H543 C527 0.960 . S
C544 C545 1.391 . S
C544 C546 1.394 1_455 S
C544 H560 0.931 . S
C545 C544 1.391 . S
C545 C549 1.376 . S
C546 C544 1.394 1_655 S
C546 C547 1.369 1_655 S
C546 C550 1.531 . S
C547 C546 1.369 1_455 S
C547 C548 1.410 . S
C547 C555 1.503 1_455 S
C548 C547 1.410 . S
C548 C549 1.392 . S
C548 C551 1.511 . S
C549 C545 1.376 . S
C549 C548 1.392 . S
C549 H561 0.929 . S
C550 C546 1.531 . S
C550 H562 0.960 . S
C550 H563 0.962 . S
C550 H564 0.960 . S
C551 C548 1.511 . S
C551 H565 0.961 . S
C551 H566 0.961 . S
C551 H567 0.961 . S
C552 C553 1.370 . S
C552 C554 1.363 . S
C552 H568 0.931 . S
C553 C552 1.370 . S
C553 C557 1.408 . S
C554 C552 1.363 . S
C554 C555 1.370 . S
C554 C558 1.524 . S
C555 C547 1.503 1_655 S
C555 C554 1.370 . S
C555 C556 1.403 . S
C556 C555 1.403 . S
C556 C557 1.404 . S
C556 C559 1.539 1_655 S
C557 C553 1.408 . S
C557 C556 1.404 . S
C557 H569 0.930 . S
C558 C554 1.524 . S
C558 H570 0.956 . S
C558 H571 0.946 1_655 S
C558 H572 0.961 . S
C559 C556 1.539 1_455 S
C559 H573 0.958 1_455 S
C559 H574 0.961 . S
C559 H575 0.960 . S
H560 C544 0.931 . S
H561 C549 0.929 . S
H562 C550 0.960 . S
H563 C550 0.962 . S
H564 C550 0.960 . S
H565 C551 0.961 . S
H566 C551 0.961 . S
H567 C551 0.961 . S
H568 C552 0.931 . S
H569 C557 0.930 . S
H570 C558 0.956 . S
H571 C558 0.946 1_455 S
H572 C558 0.961 . S
H573 C559 0.958 1_655 S
H574 C559 0.961 . S
H575 C559 0.960 . S
C576 C577 1.391 . S
C576 C578 1.394 1_554 S
C576 H592 0.947 . S
C577 C576 1.391 . S
C577 C581 1.376 1_545 S
C578 C576 1.394 1_556 S
C578 C579 1.369 1_556 S
C578 C582 1.531 . S
C579 C578 1.369 1_554 S
C579 C580 1.410 1_545 S
C579 C587 1.503 1_554 S
C580 C579 1.410 1_565 S
C580 C581 1.392 . S
C580 C583 1.511 . S
C581 C577 1.376 1_565 S
C581 C580 1.392 . S
C581 H593 0.929 . S
C582 C578 1.531 . S
C582 H594 0.960 . S
C582 H595 0.962 . S
C582 H596 0.960 . S
C583 C580 1.511 . S
C583 H597 0.961 . S
C583 H598 0.961 . S
C583 H599 0.961 . S
C584 C585 1.370 . S
C584 C586 1.363 . S
C584 H600 0.931 . S
C585 C584 1.370 . S
C585 C589 1.408 1_565 S
C586 C584 1.363 . S
C586 C587 1.370 1_565 S
C586 C590 1.524 . S
C587 C579 1.503 1_556 S
C587 C586 1.370 1_545 S
C587 C588 1.403 . S
C588 C587 1.403 . S
C588 C589 1.404 . S
C588 C591 1.539 1_556 S
C589 C585 1.408 1_545 S
C589 C588 1.404 . S
C589 H601 0.930 . S
C590 C586 1.524 . S
C590 H602 0.956 . S
C590 H603 0.961 . S
C590 H604 0.961 . S
C591 C588 1.539 1_554 S
C591 H605 0.958 . S
C591 H606 0.961 . S
C591 H607 0.960 . S
H592 C576 0.947 . S
H593 C581 0.929 . S
H594 C582 0.960 . S
H595 C582 0.962 . S
H596 C582 0.960 . S
H597 C583 0.961 . S
H598 C583 0.961 . S
H599 C583 0.961 . S
H600 C584 0.931 . S
H601 C589 0.930 . S
H602 C590 0.956 . S
H603 C590 0.961 . S
H604 C590 0.961 . S
H605 C591 0.958 . S
H606 C591 0.961 . S
H607 C591 0.960 . S
C608 C609 1.391 . S
C608 C610 1.394 . S
C608 H624 0.931 . S
C609 C608 1.391 . S
C609 C613 1.376 . S
C610 C608 1.394 . S
C610 C611 1.369 . S
C610 C614 1.531 . S
C611 C610 1.369 . S
C611 C612 1.410 . S
C611 C619 1.503 . S
C612 C611 1.410 . S
C612 C613 1.392 . S
C612 C615 1.511 . S
C613 C609 1.376 . S
C613 C612 1.392 . S
C613 H625 0.929 . S
C614 C610 1.531 . S
C614 H626 0.960 . S
C614 H627 0.962 . S
C614 H628 0.960 . S
C615 C612 1.511 . S
C615 H629 0.961 . S
C615 H630 0.961 . S
C615 H631 0.961 . S
C616 C617 1.370 . S
C616 C618 1.363 . S
C616 H632 0.931 . S
C617 C616 1.370 . S
C617 C621 1.408 . S
C618 C616 1.363 . S
C618 C619 1.370 . S
C618 C622 1.524 . S
C619 C611 1.503 . S
C619 C618 1.370 . S
C619 C620 1.403 . S
C620 C619 1.403 . S
C620 C621 1.404 . S
C620 C623 1.539 . S
C621 C617 1.408 . S
C621 C620 1.404 . S
C621 H633 0.930 . S
C622 C618 1.524 . S
C622 H634 0.956 . S
C622 H635 0.961 . S
C622 H636 0.961 . S
C623 C620 1.539 . S
C623 H637 0.958 . S
C623 H638 0.961 . S
C623 H639 0.960 . S
H624 C608 0.931 . S
H625 C613 0.929 . S
H626 C614 0.960 . S
H627 C614 0.962 . S
H628 C614 0.960 . S
H629 C615 0.961 . S
H630 C615 0.961 . S
H631 C615 0.961 . S
H632 C616 0.931 . S
H633 C621 0.930 . S
H634 C622 0.956 . S
H635 C622 0.961 . S
H636 C622 0.961 . S
H637 C623 0.958 . S
H638 C623 0.961 . S
H639 C623 0.960 . S
C640 C641 1.391 1_545 S
C640 C642 1.394 . S
C640 H656 0.931 . S
C641 C640 1.391 1_565 S
C641 C645 1.376 . S
C642 C640 1.394 . S
C642 C643 1.369 . S
C642 C646 1.531 1_455 S
C643 C642 1.369 . S
C643 C644 1.410 1_545 S
C643 C651 1.503 1_455 S
C644 C643 1.410 1_565 S
C644 C645 1.392 . S
C644 C647 1.511 . S
C645 C641 1.376 . S
C645 C644 1.392 . S
C645 H657 0.929 . S
C646 C642 1.531 1_655 S
C646 H658 0.960 . S
C646 H659 0.962 . S
C646 H660 0.960 1_655 S
C647 C644 1.511 . S
C647 H661 0.961 . S
C647 H662 0.961 . S
C647 H663 0.961 . S
C648 C649 1.370 1_565 S
C648 C650 1.363 . S
C648 H664 0.931 . S
C649 C648 1.370 1_545 S
C649 C653 1.408 . S
C650 C648 1.363 . S
C650 C651 1.370 1_565 S
C650 C654 1.524 . S
C651 C643 1.503 1_655 S
C651 C650 1.370 1_545 S
C651 C652 1.403 . S
C652 C651 1.403 . S
C652 C653 1.404 . S
C652 C655 1.539 1_655 S
C653 C649 1.408 . S
C653 C652 1.404 . S
C653 H665 0.930 . S
C654 C650 1.524 . S
C654 H666 0.956 . S
C654 H667 0.961 . S
C654 H668 0.961 . S
C655 C652 1.539 1_455 S
C655 H669 0.958 . S
C655 H670 0.961 . S
C655 H671 0.960 . S
H656 C640 0.931 . S
H657 C645 0.929 . S
H658 C646 0.960 . S
H659 C646 0.962 . S
H660 C646 0.960 1_455 S
H661 C647 0.961 . S
H662 C647 0.961 . S
H663 C647 0.961 . S
H664 C648 0.931 . S
H665 C653 0.930 . S
H666 C654 0.956 . S
H667 C654 0.961 . S
H668 C654 0.961 . S
H669 C655 0.958 . S
H670 C655 0.961 . S
H671 C655 0.960 . S
C672 C673 1.391 . S
C672 C674 1.394 . S
C672 H688 0.931 . S
C673 C672 1.391 . S
C673 C677 1.376 . S
C674 C672 1.394 . S
C674 C675 1.369 . S
C674 C678 1.531 . S
C675 C674 1.369 . S
C675 C676 1.410 . S
C675 C683 1.503 . S
C676 C675 1.410 . S
C676 C677 1.392 . S
C676 C679 1.511 . S
C677 C673 1.376 . S
C677 C676 1.392 . S
C677 H689 0.929 . S
C678 C674 1.531 . S
C678 H690 0.960 . S
C678 H691 0.962 . S
C678 H692 0.960 . S
C679 C676 1.511 . S
C679 H693 0.961 . S
C679 H694 0.961 . S
C679 H695 0.961 . S
C680 C681 1.370 . S
C680 C682 1.363 . S
C680 H696 0.931 . S
C681 C680 1.370 . S
C681 C685 1.408 . S
C682 C680 1.363 . S
C682 C683 1.370 . S
C682 C686 1.524 . S
C683 C675 1.503 . S
C683 C682 1.370 . S
C683 C684 1.403 . S
C684 C683 1.403 . S
C684 C685 1.404 . S
C684 C687 1.539 . S
C685 C681 1.408 . S
C685 C684 1.404 . S
C685 H697 0.930 . S
C686 C682 1.524 . S
C686 H698 0.956 . S
C686 H699 0.961 . S
C686 H700 0.961 . S
C687 C684 1.539 . S
C687 H701 0.958 . S
C687 H702 0.961 . S
C687 H703 0.960 . S
H688 C672 0.931 . S
H689 C677 0.929 . S
H690 C678 0.960 . S
H691 C678 0.962 . S
H692 C678 0.960 . S
H693 C679 0.961 . S
H694 C679 0.961 . S
H695 C679 0.961 . S
H696 C680 0.931 . S
H697 C685 0.930 . S
H698 C686 0.956 . S
H699 C686 0.961 . S
H700 C686 0.961 . S
H701 C687 0.958 . S
H702 C687 0.961 . S
H703 C687 0.960 . S
C704 C705 1.391 . S
C704 C706 1.394 . S
C704 H720 0.931 . S
C705 C704 1.391 . S
C705 C709 1.376 . S
C706 C704 1.394 . S
C706 C707 1.369 . S
C706 C710 1.531 . S
C707 C706 1.369 . S
C707 C708 1.410 . S
C707 C715 1.503 . S
C708 C707 1.410 . S
C708 C709 1.392 . S
C708 C711 1.511 . S
C709 C705 1.376 . S
C709 C708 1.392 . S
C709 H721 0.929 . S
C710 C706 1.531 . S
C710 H722 0.960 . S
C710 H723 0.962 . S
C710 H724 0.960 . S
C711 C708 1.511 . S
C711 H725 0.961 . S
C711 H726 0.961 . S
C711 H727 0.961 . S
C712 C713 1.370 . S
C712 C714 1.363 . S
C712 H728 0.931 . S
C713 C712 1.370 . S
C713 C717 1.408 . S
C714 C712 1.363 . S
C714 C715 1.370 . S
C714 C718 1.524 . S
C715 C707 1.503 . S
C715 C714 1.370 . S
C715 C716 1.403 . S
C716 C715 1.403 . S
C716 C717 1.404 . S
C716 C719 1.539 . S
C717 C713 1.408 . S
C717 C716 1.404 . S
C717 H729 0.930 . S
C718 C714 1.524 . S
C718 H730 0.956 . S
C718 H731 0.961 . S
C718 H732 0.961 . S
C719 C716 1.539 . S
C719 H733 0.958 . S
C719 H734 0.961 . S
C719 H735 0.960 . S
H720 C704 0.931 . S
H721 C709 0.929 . S
H722 C710 0.960 . S
H723 C710 0.962 . S
H724 C710 0.960 . S
H725 C711 0.961 . S
H726 C711 0.961 . S
H727 C711 0.961 . S
H728 C712 0.931 . S
H729 C717 0.930 . S
H730 C718 0.956 . S
H731 C718 0.961 . S
H732 C718 0.961 . S
H733 C719 0.958 . S
H734 C719 0.961 . S
H735 C719 0.960 . S
C736 C737 1.391 . S
C736 C738 1.394 . S
C736 H752 0.931 . S
C737 C736 1.391 . S
C737 C741 1.376 . S
C738 C736 1.394 . S
C738 C739 1.369 . S
C738 C742 1.531 . S
C739 C738 1.369 . S
C739 C740 1.410 . S
C739 C747 1.503 . S
C740 C739 1.410 . S
C740 C741 1.392 . S
C740 C743 1.511 . S
C741 C737 1.376 . S
C741 C740 1.392 . S
C741 H753 0.929 . S
C742 C738 1.531 . S
C742 H754 0.960 . S
C742 H755 0.962 . S
C742 H756 0.960 . S
C743 C740 1.511 . S
C743 H757 0.961 . S
C743 H758 0.961 . S
C743 H759 0.961 . S
C744 C745 1.370 . S
C744 C746 1.363 . S
C744 H760 0.931 . S
C745 C744 1.370 . S
C745 C749 1.408 . S
C746 C744 1.363 . S
C746 C747 1.370 . S
C746 C750 1.524 . S
C747 C739 1.503 . S
C747 C746 1.370 . S
C747 C748 1.403 . S
C748 C747 1.403 . S
C748 C749 1.404 . S
C748 C751 1.539 . S
C749 C745 1.408 . S
C749 C748 1.404 . S
C749 H761 0.930 . S
C750 C746 1.524 . S
C750 H762 0.956 . S
C750 H763 0.961 . S
C750 H764 0.961 . S
C751 C748 1.539 . S
C751 H765 0.958 . S
C751 H766 0.961 . S
C751 H767 0.960 . S
H752 C736 0.931 . S
H753 C741 0.929 . S
H754 C742 0.960 . S
H755 C742 0.962 . S
H756 C742 0.960 . S
H757 C743 0.961 . S
H758 C743 0.961 . S
H759 C743 0.961 . S
H760 C744 0.931 . S
H761 C749 0.930 . S
H762 C750 0.956 . S
H763 C750 0.961 . S
H764 C750 0.961 . S
H765 C751 0.958 . S
H766 C751 0.961 . S
H767 C751 0.960 . S
C768 C769 1.391 . S
C768 C770 1.394 . S
C768 H784 0.931 . S
C769 C768 1.391 . S
C769 C773 1.376 . S
C770 C768 1.394 . S
C770 C771 1.369 . S
C770 C774 1.531 . S
C771 C770 1.369 . S
C771 C772 1.410 . S
C771 C779 1.503 1_455 S
C772 C771 1.410 . S
C772 C773 1.392 . S
C772 C775 1.511 1_455 S
C773 C769 1.376 . S
C773 C772 1.392 . S
C773 H785 0.929 . S
C774 C770 1.531 . S
C774 H786 0.960 . S
C774 H787 0.962 . S
C774 H788 0.960 . S
C775 C772 1.511 1_655 S
C775 H789 0.961 . S
C775 H790 0.961 . S
C775 H791 0.961 . S
C776 C777 1.370 . S
C776 C778 1.363 . S
C776 H792 0.931 . S
C777 C776 1.370 . S
C777 C781 1.408 . S
C778 C776 1.363 . S
C778 C779 1.370 . S
C778 C782 1.524 . S
C779 C771 1.503 1_655 S
C779 C778 1.370 . S
C779 C780 1.403 . S
C780 C779 1.403 . S
C780 C781 1.404 . S
C780 C783 1.539 . S
C781 C777 1.408 . S
C781 C780 1.404 . S
C781 H793 0.930 . S
C782 C778 1.524 . S
C782 H794 0.956 . S
C782 H795 0.961 . S
C782 H796 0.961 . S
C783 C780 1.539 . S
C783 H797 0.958 1_655 S
C783 H798 0.961 . S
C783 H799 0.960 1_655 S
H784 C768 0.931 . S
H785 C773 0.929 . S
H786 C774 0.960 . S
H787 C774 0.962 . S
H788 C774 0.960 . S
H789 C775 0.961 . S
H790 C775 0.961 . S
H791 C775 0.961 . S
H792 C776 0.931 . S
H793 C781 0.930 . S
H794 C782 0.956 . S
H795 C782 0.961 . S
H796 C782 0.961 . S
H797 C783 0.958 1_455 S
H798 C783 0.961 . S
H799 C783 0.960 1_455 S
C800 C801 1.391 . S
C800 C802 1.394 . S
C800 H816 0.931 . S
C801 C800 1.391 . S
C801 C805 1.376 . S
C802 C800 1.394 . S
C802 C803 1.369 . S
C802 C806 1.531 . S
C803 C802 1.369 . S
C803 C804 1.410 1_554 S
C803 C811 1.503 1_554 S
C804 C803 1.410 1_556 S
C804 C805 1.392 1_556 S
C804 C807 1.511 . S
C805 C801 1.376 . S
C805 C804 1.392 1_554 S
C805 H817 0.929 . S
C806 C802 1.531 . S
C806 H818 0.960 . S
C806 H819 0.962 . S
C806 H820 0.960 . S
C807 C804 1.511 . S
C807 H821 0.961 . S
C807 H822 0.961 . S
C807 H823 0.961 . S
C808 C809 1.370 . S
C808 C810 1.356 1_556 S
C808 H824 0.931 . S
C809 C808 1.370 . S
C809 C813 1.408 . S
C810 C808 1.356 1_554 S
C810 C811 1.364 1_554 S
C810 C814 1.538 . S
C811 C803 1.503 1_556 S
C811 C810 1.364 1_556 S
C811 C812 1.403 . S
C812 C811 1.403 . S
C812 C813 1.404 . S
C812 C815 1.539 . S
C813 C809 1.408 . S
C813 C812 1.404 . S
C813 H825 0.930 . S
C814 C810 1.538 . S
C814 H826 0.956 . S
C814 H827 0.961 . S
C814 H828 0.961 . S
C815 C812 1.539 . S
C815 H829 0.958 . S
C815 H830 0.961 . S
C815 H831 0.960 . S
H816 C800 0.931 . S
H817 C805 0.929 . S
H818 C806 0.960 . S
H819 C806 0.962 . S
H820 C806 0.960 . S
H821 C807 0.961 . S
H822 C807 0.961 . S
H823 C807 0.961 . S
H824 C808 0.931 . S
H825 C813 0.930 . S
H826 C814 0.956 . S
H827 C814 0.961 . S
H828 C814 0.961 . S
H829 C815 0.958 . S
H830 C815 0.961 . S
H831 C815 0.960 . S
C832 C833 1.391 . S
C832 C834 1.394 . S
C832 H848 0.931 . S
C833 C832 1.391 . S
C833 C837 1.376 . S
C834 C832 1.394 . S
C834 C835 1.369 . S
C834 C838 1.531 . S
C835 C834 1.369 . S
C835 C836 1.410 . S
C835 C843 1.503 . S
C836 C835 1.410 . S
C836 C837 1.392 . S
C836 C839 1.511 . S
C837 C833 1.376 . S
C837 C836 1.392 . S
C837 H849 0.929 . S
C838 C834 1.531 . S
C838 H850 0.960 . S
C838 H851 0.962 . S
C838 H852 0.960 . S
C839 C836 1.511 . S
C839 H853 0.961 . S
C839 H854 0.961 . S
C839 H855 0.961 . S
C840 C841 1.370 . S
C840 C842 1.363 . S
C840 H856 0.931 . S
C841 C840 1.370 . S
C841 C845 1.408 . S
C842 C840 1.363 . S
C842 C843 1.370 . S
C842 C846 1.524 . S
C843 C835 1.503 . S
C843 C842 1.370 . S
C843 C844 1.403 . S
C844 C843 1.403 . S
C844 C845 1.404 . S
C844 C847 1.539 . S
C845 C841 1.408 . S
C845 C844 1.404 . S
C845 H857 0.930 . S
C846 C842 1.524 . S
C846 H858 0.956 . S
C846 H859 0.961 . S
C846 H860 0.961 . S
C847 C844 1.539 . S
C847 H861 0.958 . S
C847 H862 0.961 . S
C847 H863 0.960 . S
H848 C832 0.931 . S
H849 C837 0.929 . S
H850 C838 0.960 . S
H851 C838 0.962 . S
H852 C838 0.960 . S
H853 C839 0.961 . S
H854 C839 0.961 . S
H855 C839 0.961 . S
H856 C840 0.931 . S
H857 C845 0.930 . S
H858 C846 0.956 . S
H859 C846 0.961 . S
H860 C846 0.961 . S
H861 C847 0.958 . S
H862 C847 0.961 . S
H863 C847 0.960 . S
C864 C865 1.391 . S
C864 C866 1.394 . S
C864 H880 0.931 . S
C865 C864 1.391 . S
C865 C869 1.376 . S
C866 C864 1.394 . S
C866 C867 1.369 . S
C866 C870 1.531 . S
C867 C866 1.369 . S
C867 C868 1.410 . S
C867 C875 1.503 . S
C868 C867 1.410 . S
C868 C869 1.392 . S
C868 C871 1.511 . S
C869 C865 1.376 . S
C869 C868 1.392 . S
C869 H881 0.929 . S
C870 C866 1.531 . S
C870 H882 0.960 . S
C870 H883 0.962 . S
C870 H884 0.960 . S
C871 C868 1.511 . S
C871 H885 0.961 . S
C871 H886 0.961 . S
C871 H887 0.961 . S
C872 C873 1.370 . S
C872 C874 1.363 . S
C872 H888 0.931 . S
C873 C872 1.370 . S
C873 C877 1.408 . S
C874 C872 1.363 . S
C874 C875 1.370 . S
C874 C878 1.524 . S
C875 C867 1.503 . S
C875 C874 1.370 . S
C875 C876 1.403 . S
C876 C875 1.403 . S
C876 C877 1.404 . S
C876 C879 1.539 . S
C877 C873 1.408 . S
C877 C876 1.404 . S
C877 H889 0.930 . S
C878 C874 1.524 . S
C878 H890 0.956 . S
C878 H891 0.961 . S
C878 H892 0.961 . S
C879 C876 1.539 . S
C879 H893 0.958 . S
C879 H894 0.961 . S
C879 H895 0.960 . S
H880 C864 0.931 . S
H881 C869 0.929 . S
H882 C870 0.960 . S
H883 C870 0.962 . S
H884 C870 0.960 . S
H885 C871 0.961 . S
H886 C871 0.961 . S
H887 C871 0.961 . S
H888 C872 0.931 . S
H889 C877 0.930 . S
H890 C878 0.956 . S
H891 C878 0.961 . S
H892 C878 0.961 . S
H893 C879 0.958 . S
H894 C879 0.961 . S
H895 C879 0.960 . S
C896 C897 1.391 . S
C896 C898 1.394 . S
C896 H912 0.931 . S
C897 C896 1.391 . S
C897 C901 1.376 . S
C898 C896 1.394 . S
C898 C899 1.369 . S
C898 C902 1.531 . S
C899 C898 1.369 . S
C899 C900 1.410 . S
C899 C907 1.503 . S
C900 C899 1.410 . S
C900 C901 1.392 . S
C900 C903 1.511 . S
C901 C897 1.376 . S
C901 C900 1.392 . S
C901 H913 0.929 . S
C902 C898 1.531 . S
C902 H914 0.960 . S
C902 H915 0.962 . S
C902 H916 0.960 . S
C903 C900 1.511 . S
C903 H917 0.961 . S
C903 H918 0.961 . S
C903 H919 0.961 . S
C904 C905 1.370 . S
C904 C906 1.363 . S
C904 H920 0.931 . S
C905 C904 1.370 . S
C905 C909 1.408 . S
C906 C904 1.363 . S
C906 C907 1.370 . S
C906 C910 1.524 . S
C907 C899 1.503 . S
C907 C906 1.370 . S
C907 C908 1.403 . S
C908 C907 1.403 . S
C908 C909 1.404 . S
C908 C911 1.539 . S
C909 C905 1.408 . S
C909 C908 1.404 . S
C909 H921 0.930 . S
C910 C906 1.524 . S
C910 H922 0.956 . S
C910 H923 0.961 . S
C910 H924 0.961 . S
C911 C908 1.539 . S
C911 H925 0.958 . S
C911 H926 0.961 . S
C911 H927 0.960 . S
H912 C896 0.931 . S
H913 C901 0.929 . S
H914 C902 0.960 . S
H915 C902 0.962 . S
H916 C902 0.960 . S
H917 C903 0.961 . S
H918 C903 0.961 . S
H919 C903 0.961 . S
H920 C904 0.931 . S
H921 C909 0.930 . S
H922 C910 0.956 . S
H923 C910 0.961 . S
H924 C910 0.961 . S
H925 C911 0.958 . S
H926 C911 0.961 . S
H927 C911 0.960 . S
C928 C929 1.391 . S
C928 C930 1.394 . S
C928 H944 0.931 . S
C929 C928 1.391 . S
C929 C933 1.376 . S
C930 C928 1.394 . S
C930 C931 1.369 . S
C930 C934 1.531 . S
C931 C930 1.369 . S
C931 C932 1.410 . S
C931 C939 1.503 . S
C932 C931 1.410 . S
C932 C933 1.392 . S
C932 C935 1.511 . S
C933 C929 1.376 . S
C933 C932 1.392 . S
C933 H945 0.929 1_455 S
C934 C930 1.531 . S
C934 H946 0.960 . S
C934 H947 0.962 . S
C934 H948 0.960 . S
C935 C932 1.511 . S
C935 H949 0.961 . S
C935 H950 0.961 . S
C935 H951 0.961 . S
C936 C937 1.370 . S
C936 C938 1.363 . S
C936 H952 0.931 . S
C937 C936 1.370 . S
C937 C941 1.408 . S
C938 C936 1.363 . S
C938 C939 1.370 . S
C938 C942 1.524 . S
C939 C931 1.503 . S
C939 C938 1.370 . S
C939 C940 1.403 . S
C940 C939 1.403 . S
C940 C941 1.404 . S
C940 C943 1.539 . S
C941 C937 1.408 . S
C941 C940 1.404 . S
C941 H953 0.930 . S
C942 C938 1.524 . S
C942 H954 0.956 . S
C942 H955 0.961 . S
C942 H956 0.961 . S
C943 C940 1.539 . S
C943 H957 0.958 . S
C943 H958 0.961 . S
C943 H959 0.960 . S
H944 C928 0.931 . S
H945 C933 0.929 1_655 S
H946 C934 0.960 . S
H947 C934 0.962 . S
H948 C934 0.960 . S
H949 C935 0.961 . S
H950 C935 0.961 . S
H951 C935 0.961 . S
H952 C936 0.931 . S
H953 C941 0.930 . S
H954 C942 0.956 . S
H955 C942 0.961 . S
H956 C942 0.961 . S
H957 C943 0.958 . S
H958 C943 0.961 . S
H959 C943 0.960 . S
C960 C961 1.391 . S
C960 C962 1.394 . S
C960 H976 0.931 . S
C961 C960 1.391 . S
C961 C965 1.376 . S
C962 C960 1.394 . S
C962 C963 1.369 . S
C962 C966 1.531 . S
C963 C962 1.369 . S
C963 C964 1.410 . S
C963 C971 1.503 . S
C964 C963 1.410 . S
C964 C965 1.392 . S
C964 C967 1.511 . S
C965 C961 1.376 . S
C965 C964 1.392 . S
C965 H977 0.929 . S
C966 C962 1.531 . S
C966 H978 0.960 . S
C966 H979 0.962 . S
C966 H980 0.960 . S
C967 C964 1.511 . S
C967 H981 0.961 . S
C967 H982 0.961 . S
C967 H983 0.961 . S
C968 C969 1.370 . S
C968 C970 1.363 . S
C968 H984 0.931 . S
C969 C968 1.370 . S
C969 C973 1.408 . S
C970 C968 1.363 . S
C970 C971 1.370 . S
C970 C974 1.524 . S
C971 C963 1.503 . S
C971 C970 1.370 . S
C971 C972 1.403 . S
C972 C971 1.403 . S
C972 C973 1.404 . S
C972 C975 1.539 . S
C973 C969 1.408 . S
C973 C972 1.404 . S
C973 H985 0.930 . S
C974 C970 1.524 . S
C974 H986 0.956 . S
C974 H987 0.961 . S
C974 H988 0.961 . S
C975 C972 1.539 . S
C975 H989 0.958 . S
C975 H990 0.961 . S
C975 H991 0.960 . S
H976 C960 0.931 . S
H977 C965 0.929 . S
H978 C966 0.960 . S
H979 C966 0.962 . S
H980 C966 0.960 . S
H981 C967 0.961 . S
H982 C967 0.961 . S
H983 C967 0.961 . S
H984 C968 0.931 . S
H985 C973 0.930 . S
H986 C974 0.956 . S
H987 C974 0.961 . S
H988 C974 0.961 . S
H989 C975 0.958 . S
H990 C975 0.961 . S
H991 C975 0.960 . S
C992 C993 1.391 . S
C992 C994 1.394 . S
C992 H1008 0.931 . S
C993 C992 1.391 . S
C993 C997 1.376 . S
C994 C992 1.394 . S
C994 C995 1.369 . S
C994 C998 1.531 . S
C995 C994 1.369 . S
C995 C996 1.410 . S
C995 C1003 1.503 . S
C996 C995 1.410 . S
C996 C997 1.392 . S
C996 C999 1.511 . S
C997 C993 1.376 . S
C997 C996 1.392 . S
C997 H1009 0.929 . S
C998 C994 1.531 . S
C998 H1010 0.960 . S
C998 H1011 0.962 . S
C998 H1012 0.960 . S
C999 C996 1.511 . S
C999 H1013 0.961 . S
C999 H1014 0.961 . S
C999 H1015 0.961 . S
C1000 C1001 1.370 . S
C1000 C1002 1.363 . S
C1000 H1016 0.931 . S
C1001 C1000 1.370 . S
C1001 C1005 1.408 . S
C1002 C1000 1.363 . S
C1002 C1003 1.370 . S
C1002 C1006 1.524 . S
C1003 C995 1.503 . S
C1003 C1002 1.370 . S
C1003 C1004 1.403 . S
C1004 C1003 1.403 . S
C1004 C1005 1.404 . S
C1004 C1007 1.539 . S
C1005 C1001 1.408 . S
C1005 C1004 1.404 . S
C1005 H1017 0.930 . S
C1006 C1002 1.524 . S
C1006 H1018 0.956 . S
C1006 H1019 0.961 . S
C1006 H1020 0.961 . S
C1007 C1004 1.539 . S
C1007 H1021 0.958 . S
C1007 H1022 0.961 . S
C1007 H1023 0.960 . S
H1008 C992 0.931 . S
H1009 C997 0.929 . S
H1010 C998 0.960 . S
H1011 C998 0.962 . S
H1012 C998 0.960 . S
H1013 C999 0.961 . S
H1014 C999 0.961 . S
H1015 C999 0.961 . S
H1016 C1000 0.931 . S
H1017 C1005 0.930 . S
H1018 C1006 0.956 . S
H1019 C1006 0.961 . S
H1020 C1006 0.961 . S
H1021 C1007 0.958 . S
H1022 C1007 0.961 . S
H1023 C1007 0.960 . S
C1024 C1025 1.391 . S
C1024 C1026 1.394 . S
C1024 H1040 0.931 . S
C1025 C1024 1.391 . S
C1025 C1029 1.376 . S
C1026 C1024 1.394 . S
C1026 C1027 1.369 . S
C1026 C1030 1.531 . S
C1027 C1026 1.369 . S
C1027 C1028 1.410 . S
C1027 C1035 1.503 . S
C1028 C1027 1.410 . S
C1028 C1029 1.392 . S
C1028 C1031 1.511 . S
C1029 C1025 1.376 . S
C1029 C1028 1.392 . S
C1029 H1041 0.929 . S
C1030 C1026 1.531 . S
C1030 H1042 0.960 . S
C1030 H1043 0.962 . S
C1030 H1044 0.960 . S
C1031 C1028 1.511 . S
C1031 H1045 0.961 . S
C1031 H1046 0.961 . S
C1031 H1047 0.961 . S
C1032 C1033 1.370 . S
C1032 C1034 1.363 . S
C1032 H1048 0.931 . S
C1033 C1032 1.370 . S
C1033 C1037 1.408 . S
C1034 C1032 1.363 . S
C1034 C1035 1.370 . S
C1034 C1038 1.524 . S
C1035 C1027 1.503 . S
C1035 C1034 1.370 . S
C1035 C1036 1.403 . S
C1036 C1035 1.403 . S
C1036 C1037 1.404 . S
C1036 C1039 1.539 . S
C1037 C1033 1.408 . S
C1037 C1036 1.404 . S
C1037 H1049 0.930 . S
C1038 C1034 1.524 . S
C1038 H1050 0.956 . S
C1038 H1051 0.961 . S
C1038 H1052 0.961 . S
C1039 C1036 1.539 . S
C1039 H1053 0.958 . S
C1039 H1054 0.961 . S
C1039 H1055 0.960 . S
H1040 C1024 0.931 . S
H1041 C1029 0.929 . S
H1042 C1030 0.960 . S
H1043 C1030 0.962 . S
H1044 C1030 0.960 . S
H1045 C1031 0.961 . S
H1046 C1031 0.961 . S
H1047 C1031 0.961 . S
H1048 C1032 0.931 . S
H1049 C1037 0.930 . S
H1050 C1038 0.956 . S
H1051 C1038 0.961 . S
H1052 C1038 0.961 . S
H1053 C1039 0.958 . S
H1054 C1039 0.961 . S
H1055 C1039 0.960 . S
C1056 C1057 1.391 . S
C1056 C1058 1.394 . S
C1056 H1072 0.931 . S
C1057 C1056 1.391 . S
C1057 C1061 1.376 . S
C1058 C1056 1.394 . S
C1058 C1059 1.369 . S
C1058 C1062 1.531 . S
C1059 C1058 1.369 . S
C1059 C1060 1.410 . S
C1059 C1067 1.503 . S
C1060 C1059 1.410 . S
C1060 C1061 1.392 . S
C1060 C1063 1.511 . S
C1061 C1057 1.376 . S
C1061 C1060 1.392 . S
C1061 H1073 0.929 . S
C1062 C1058 1.531 . S
C1062 H1074 0.960 . S
C1062 H1075 0.962 . S
C1062 H1076 0.960 . S
C1063 C1060 1.511 . S
C1063 H1077 0.961 . S
C1063 H1078 0.961 . S
C1063 H1079 0.961 . S
C1064 C1065 1.370 . S
C1064 C1066 1.363 . S
C1064 H1080 0.931 . S
C1065 C1064 1.370 . S
C1065 C1069 1.408 . S
C1066 C1064 1.363 . S
C1066 C1067 1.370 . S
C1066 C1070 1.524 . S
C1067 C1059 1.503 . S
C1067 C1066 1.370 . S
C1067 C1068 1.403 . S
C1068 C1067 1.403 . S
C1068 C1069 1.404 . S
C1068 C1071 1.539 . S
C1069 C1065 1.408 . S
C1069 C1068 1.404 . S
C1069 H1081 0.930 . S
C1070 C1066 1.524 . S
C1070 H1082 0.956 . S
C1070 H1083 0.961 . S
C1070 H1084 0.961 . S
C1071 C1068 1.539 . S
C1071 H1085 0.958 . S
C1071 H1086 0.961 . S
C1071 H1087 0.960 . S
H1072 C1056 0.931 . S
H1073 C1061 0.929 . S
H1074 C1062 0.960 . S
H1075 C1062 0.962 . S
H1076 C1062 0.960 . S
H1077 C1063 0.961 . S
H1078 C1063 0.961 . S
H1079 C1063 0.961 . S
H1080 C1064 0.931 . S
H1081 C1069 0.930 . S
H1082 C1070 0.956 . S
H1083 C1070 0.961 . S
H1084 C1070 0.961 . S
H1085 C1071 0.958 . S
H1086 C1071 0.961 . S
H1087 C1071 0.960 . S
C1088 C1089 1.391 . S
C1088 C1090 1.394 . S
C1088 H1104 0.931 . S
C1089 C1088 1.391 . S
C1089 C1093 1.376 . S
C1090 C1088 1.394 . S
C1090 C1091 1.369 . S
C1090 C1094 1.531 . S
C1091 C1090 1.369 . S
C1091 C1092 1.410 . S
C1091 C1099 1.503 . S
C1092 C1091 1.410 . S
C1092 C1093 1.392 . S
C1092 C1095 1.511 . S
C1093 C1089 1.376 . S
C1093 C1092 1.392 . S
C1093 H1105 0.929 . S
C1094 C1090 1.531 . S
C1094 H1106 0.960 . S
C1094 H1107 0.962 . S
C1094 H1108 0.960 . S
C1095 C1092 1.511 . S
C1095 H1109 0.961 . S
C1095 H1110 0.961 . S
C1095 H1111 0.961 . S
C1096 C1097 1.370 . S
C1096 C1098 1.363 . S
C1096 H1112 0.931 . S
C1097 C1096 1.370 . S
C1097 C1101 1.408 . S
C1098 C1096 1.363 . S
C1098 C1099 1.370 . S
C1098 C1102 1.524 . S
C1099 C1091 1.503 . S
C1099 C1098 1.370 . S
C1099 C1100 1.403 . S
C1100 C1099 1.403 . S
C1100 C1101 1.404 . S
C1100 C1103 1.539 . S
C1101 C1097 1.408 . S
C1101 C1100 1.404 . S
C1101 H1113 0.930 . S
C1102 C1098 1.524 . S
C1102 H1114 0.956 . S
C1102 H1115 0.961 . S
C1102 H1116 0.961 . S
C1103 C1100 1.539 . S
C1103 H1117 0.958 . S
C1103 H1118 0.961 . S
C1103 H1119 0.960 . S
H1104 C1088 0.931 . S
H1105 C1093 0.929 . S
H1106 C1094 0.960 . S
H1107 C1094 0.962 . S
H1108 C1094 0.960 . S
H1109 C1095 0.961 . S
H1110 C1095 0.961 . S
H1111 C1095 0.961 . S
H1112 C1096 0.931 . S
H1113 C1101 0.930 . S
H1114 C1102 0.956 . S
H1115 C1102 0.961 . S
H1116 C1102 0.961 . S
H1117 C1103 0.958 . S
H1118 C1103 0.961 . S
H1119 C1103 0.960 . S
C1120 C1121 1.391 . S
C1120 C1122 1.394 . S
C1120 H1136 0.931 . S
C1121 C1120 1.391 . S
C1121 C1125 1.376 . S
C1122 C1120 1.394 . S
C1122 C1123 1.369 . S
C1122 C1126 1.531 . S
C1123 C1122 1.369 . S
C1123 C1124 1.410 . S
C1123 C1131 1.503 . S
C1124 C1123 1.410 . S
C1124 C1125 1.392 . S
C1124 C1127 1.511 1_565 S
C1125 C1121 1.376 . S
C1125 C1124 1.392 . S
C1125 H1137 0.929 . S
C1126 C1122 1.531 . S
C1126 H1138 0.960 . S
C1126 H1139 0.962 . S
C1126 H1140 0.960 . S
C1127 C1124 1.511 1_545 S
C1127 H1141 0.961 . S
C1127 H1142 0.961 . S
C1127 H1143 0.961 . S
C1128 C1129 1.370 . S
C1128 C1130 1.363 . S
C1128 H1144 0.931 1_565 S
C1129 C1128 1.370 . S
C1129 C1133 1.408 . S
C1130 C1128 1.363 . S
C1130 C1131 1.370 . S
C1130 C1134 1.524 . S
C1131 C1123 1.503 . S
C1131 C1130 1.370 . S
C1131 C1132 1.403 . S
C1132 C1131 1.403 . S
C1132 C1133 1.404 . S
C1132 C1135 1.539 . S
C1133 C1129 1.408 . S
C1133 C1132 1.404 . S
C1133 H1145 0.930 . S
C1134 C1130 1.524 . S
C1134 H1146 0.956 . S
C1134 H1147 0.961 1_565 S
C1134 H1148 0.961 1_565 S
C1135 C1132 1.539 . S
C1135 H1149 0.958 . S
C1135 H1150 0.961 . S
C1135 H1151 0.960 . S
H1136 C1120 0.931 . S
H1137 C1125 0.929 . S
H1138 C1126 0.960 . S
H1139 C1126 0.962 . S
H1140 C1126 0.960 . S
H1141 C1127 0.961 . S
H1142 C1127 0.961 . S
H1143 C1127 0.961 . S
H1144 C1128 0.931 1_545 S
H1145 C1133 0.930 . S
H1146 C1134 0.956 . S
H1147 C1134 0.961 1_545 S
H1148 C1134 0.961 1_545 S
H1149 C1135 0.958 . S
H1150 C1135 0.961 . S
H1151 C1135 0.960 . S
C1152 C1153 1.391 . S
C1152 C1154 1.394 . S
C1152 H1168 0.931 . S
C1153 C1152 1.391 . S
C1153 C1157 1.376 . S
C1154 C1152 1.394 . S
C1154 C1155 1.369 . S
C1154 C1158 1.531 . S
C1155 C1154 1.369 . S
C1155 C1156 1.410 . S
C1155 C1163 1.503 . S
C1156 C1155 1.410 . S
C1156 C1157 1.392 . S
C1156 C1159 1.511 . S
C1157 C1153 1.376 . S
C1157 C1156 1.392 . S
C1157 H1169 0.929 . S
C1158 C1154 1.531 . S
C1158 H1170 0.960 . S
C1158 H1171 0.962 . S
C1158 H1172 0.960 . S
C1159 C1156 1.511 . S
C1159 H1173 0.961 . S
C1159 H1174 0.961 . S
C1159 H1175 0.961 . S
C1160 C1161 1.370 . S
C1160 C1162 1.363 . S
C1160 H1176 0.931 . S
C1161 C1160 1.370 . S
C1161 C1165 1.408 . S
C1162 C1160 1.363 . S
C1162 C1163 1.370 . S
C1162 C1166 1.524 . S
C1163 C1155 1.503 . S
C1163 C1162 1.370 . S
C1163 C1164 1.403 . S
C1164 C1163 1.403 . S
C1164 C1165 1.404 . S
C1164 C1167 1.539 . S
C1165 C1161 1.408 . S
C1165 C1164 1.404 . S
C1165 H1177 0.930 . S
C1166 C1162 1.524 . S
C1166 H1178 0.956 . S
C1166 H1179 0.961 . S
C1166 H1180 0.961 . S
C1167 C1164 1.539 . S
C1167 H1181 0.958 . S
C1167 H1182 0.961 . S
C1167 H1183 0.960 . S
H1168 C1152 0.931 . S
H1169 C1157 0.929 . S
H1170 C1158 0.960 . S
H1171 C1158 0.962 . S
H1172 C1158 0.960 . S
H1173 C1159 0.961 . S
H1174 C1159 0.961 . S
H1175 C1159 0.961 . S
H1176 C1160 0.931 . S
H1177 C1165 0.930 . S
H1178 C1166 0.956 . S
H1179 C1166 0.961 . S
H1180 C1166 0.961 . S
H1181 C1167 0.958 . S
H1182 C1167 0.961 . S
H1183 C1167 0.960 . S
C1184 C1185 1.391 . S
C1184 C1186 1.394 . S
C1184 H1200 0.931 . S
C1185 C1184 1.391 . S
C1185 C1189 1.376 . S
C1186 C1184 1.394 . S
C1186 C1187 1.369 . S
C1186 C1190 1.531 1_545 S
C1187 C1186 1.369 . S
C1187 C1188 1.410 . S
C1187 C1195 1.503 . S
C1188 C1187 1.410 . S
C1188 C1189 1.392 . S
C1188 C1191 1.511 . S
C1189 C1185 1.376 . S
C1189 C1188 1.392 . S
C1189 H1201 0.929 . S
C1190 C1186 1.531 1_565 S
C1190 H1202 0.960 . S
C1190 H1203 0.962 . S
C1190 H1204 0.960 . S
C1191 C1188 1.511 . S
C1191 H1205 0.961 . S
C1191 H1206 0.961 . S
C1191 H1207 0.961 . S
C1192 C1193 1.370 1_565 S
C1192 C1194 1.363 1_565 S
C1192 H1208 0.931 . S
C1193 C1192 1.370 1_545 S
C1193 C1197 1.408 . S
C1194 C1192 1.363 1_545 S
C1194 C1195 1.370 . S
C1194 C1198 1.524 1_545 S
C1195 C1187 1.503 . S
C1195 C1194 1.370 . S
C1195 C1196 1.403 . S
C1196 C1195 1.403 . S
C1196 C1197 1.404 . S
C1196 C1199 1.539 . S
C1197 C1193 1.408 . S
C1197 C1196 1.404 . S
C1197 H1209 0.930 . S
C1198 C1194 1.524 1_565 S
C1198 H1210 0.956 . S
C1198 H1211 0.961 1_565 S
C1198 H1212 0.961 . S
C1199 C1196 1.539 . S
C1199 H1213 0.958 . S
C1199 H1214 0.961 . S
C1199 H1215 0.960 . S
H1200 C1184 0.931 . S
H1201 C1189 0.929 . S
H1202 C1190 0.960 . S
H1203 C1190 0.962 . S
H1204 C1190 0.960 . S
H1205 C1191 0.961 . S
H1206 C1191 0.961 . S
H1207 C1191 0.961 . S
H1208 C1192 0.931 . S
H1209 C1197 0.930 . S
H1210 C1198 0.956 . S
H1211 C1198 0.961 1_545 S
H1212 C1198 0.961 . S
H1213 C1199 0.958 . S
H1214 C1199 0.961 . S
H1215 C1199 0.960 . S
C1216 C1217 1.391 . S
C1216 C1218 1.394 . S
C1216 H1232 0.931 . S
C1217 C1216 1.391 . S
C1217 C1221 1.376 . S
C1218 C1216 1.394 . S
C1218 C1219 1.369 . S
C1218 C1222 1.531 . S
C1219 C1218 1.369 . S
C1219 C1220 1.410 . S
C1219 C1227 1.503 . S
C1220 C1219 1.410 . S
C1220 C1221 1.392 . S
C1220 C1223 1.511 . S
C1221 C1217 1.376 . S
C1221 C1220 1.392 . S
C1221 H1233 0.929 . S
C1222 C1218 1.531 . S
C1222 H1234 0.960 . S
C1222 H1235 0.962 . S
C1222 H1236 0.960 . S
C1223 C1220 1.511 . S
C1223 H1237 0.961 . S
C1223 H1238 0.961 . S
C1223 H1239 0.961 . S
C1224 C1225 1.370 . S
C1224 C1226 1.363 . S
C1224 H1240 0.931 . S
C1225 C1224 1.370 . S
C1225 C1229 1.408 . S
C1226 C1224 1.363 . S
C1226 C1227 1.370 . S
C1226 C1230 1.524 . S
C1227 C1219 1.503 . S
C1227 C1226 1.370 . S
C1227 C1228 1.403 . S
C1228 C1227 1.403 . S
C1228 C1229 1.404 . S
C1228 C1231 1.539 . S
C1229 C1225 1.408 . S
C1229 C1228 1.404 . S
C1229 H1241 0.930 . S
C1230 C1226 1.524 . S
C1230 H1242 0.956 . S
C1230 H1243 0.961 . S
C1230 H1244 0.961 . S
C1231 C1228 1.539 . S
C1231 H1245 0.958 . S
C1231 H1246 0.961 . S
C1231 H1247 0.960 . S
H1232 C1216 0.931 . S
H1233 C1221 0.929 . S
H1234 C1222 0.960 . S
H1235 C1222 0.962 . S
H1236 C1222 0.960 . S
H1237 C1223 0.961 . S
H1238 C1223 0.961 . S
H1239 C1223 0.961 . S
H1240 C1224 0.931 . S
H1241 C1229 0.930 . S
H1242 C1230 0.956 . S
H1243 C1230 0.961 . S
H1244 C1230 0.961 . S
H1245 C1231 0.958 . S
H1246 C1231 0.961 . S
H1247 C1231 0.960 . S
C1248 C1249 1.391 . S
C1248 C1250 1.394 . S
C1248 H1264 0.919 1_455 S
C1249 C1248 1.391 . S
C1249 C1253 1.376 1_545 S
C1250 C1248 1.394 . S
C1250 C1251 1.369 . S
C1250 C1254 1.531 . S
C1251 C1250 1.369 . S
C1251 C1252 1.410 1_545 S
C1251 C1259 1.503 . S
C1252 C1251 1.410 1_565 S
C1252 C1253 1.392 . S
C1252 C1255 1.511 . S
C1253 C1249 1.376 1_565 S
C1253 C1252 1.392 . S
C1253 H1265 0.929 . S
C1254 C1250 1.531 . S
C1254 H1266 0.960 . S
C1254 H1267 0.962 . S
C1254 H1268 0.960 . S
C1255 C1252 1.511 . S
C1255 H1269 0.961 . S
C1255 H1270 0.961 . S
C1255 H1271 0.961 . S
C1256 C1257 1.370 . S
C1256 C1258 1.363 . S
C1256 H1272 0.931 . S
C1257 C1256 1.370 . S
C1257 C1261 1.408 . S
C1258 C1256 1.363 . S
C1258 C1259 1.370 . S
C1258 C1262 1.524 . S
C1259 C1251 1.503 . S
C1259 C1258 1.370 . S
C1259 C1260 1.403 . S
C1260 C1259 1.403 . S
C1260 C1261 1.404 . S
C1260 C1263 1.539 . S
C1261 C1257 1.408 . S
C1261 C1260 1.404 . S
C1261 H1273 0.930 . S
C1262 C1258 1.524 . S
C1262 H1274 0.956 . S
C1262 H1275 0.961 . S
C1262 H1276 0.961 . S
C1263 C1260 1.539 . S
C1263 H1277 0.958 . S
C1263 H1278 0.961 . S
C1263 H1279 0.960 . S
H1264 C1248 0.919 1_655 S
H1265 C1253 0.929 . S
H1266 C1254 0.960 . S
H1267 C1254 0.962 . S
H1268 C1254 0.960 . S
H1269 C1255 0.961 . S
H1270 C1255 0.961 . S
H1271 C1255 0.961 . S
H1272 C1256 0.931 . S
H1273 C1261 0.930 . S
H1274 C1262 0.956 . S
H1275 C1262 0.961 . S
H1276 C1262 0.961 . S
H1277 C1263 0.958 . S
H1278 C1263 0.961 . S
H1279 C1263 0.960 . S
C1280 C1281 1.391 . S
C1280 C1282 1.394 . S
C1280 H1296 0.931 . S
C1281 C1280 1.391 . S
C1281 C1285 1.376 . S
C1282 C1280 1.394 . S
C1282 C1283 1.369 . S
C1282 C1286 1.531 . S
C1283 C1282 1.369 . S
C1283 C1284 1.410 . S
C1283 C1291 1.503 . S
C1284 C1283 1.410 . S
C1284 C1285 1.392 . S
C1284 C1287 1.511 . S
C1285 C1281 1.376 . S
C1285 C1284 1.392 . S
C1285 H1297 0.929 . S
C1286 C1282 1.531 . S
C1286 H1298 0.960 . S
C1286 H1299 0.962 . S
C1286 H1300 0.960 . S
C1287 C1284 1.511 . S
C1287 H1301 0.961 . S
C1287 H1302 0.961 . S
C1287 H1303 0.961 . S
C1288 C1289 1.370 . S
C1288 C1290 1.363 . S
C1288 H1304 0.931 . S
C1289 C1288 1.370 . S
C1289 C1293 1.408 . S
C1290 C1288 1.363 . S
C1290 C1291 1.370 . S
C1290 C1294 1.524 . S
C1291 C1283 1.503 . S
C1291 C1290 1.370 . S
C1291 C1292 1.403 . S
C1292 C1291 1.403 . S
C1292 C1293 1.404 . S
C1292 C1295 1.539 . S
C1293 C1289 1.408 . S
C1293 C1292 1.404 . S
C1293 H1305 0.930 . S
C1294 C1290 1.524 . S
C1294 H1306 0.956 . S
C1294 H1307 0.961 . S
C1294 H1308 0.961 . S
C1295 C1292 1.539 . S
C1295 H1309 0.958 . S
C1295 H1310 0.961 . S
C1295 H1311 0.960 . S
H1296 C1280 0.931 . S
H1297 C1285 0.929 . S
H1298 C1286 0.960 . S
H1299 C1286 0.962 . S
H1300 C1286 0.960 . S
H1301 C1287 0.961 . S
H1302 C1287 0.961 . S
H1303 C1287 0.961 . S
H1304 C1288 0.931 . S
H1305 C1293 0.930 . S
H1306 C1294 0.956 . S
H1307 C1294 0.961 . S
H1308 C1294 0.961 . S
H1309 C1295 0.958 . S
H1310 C1295 0.961 . S
H1311 C1295 0.960 . S
C1312 C1313 1.391 . S
C1312 C1314 1.394 . S
C1312 H1328 0.931 1_565 S
C1313 C1312 1.391 . S
C1313 C1317 1.376 . S
C1314 C1312 1.394 . S
C1314 C1315 1.369 . S
C1314 C1318 1.531 . S
C1315 C1314 1.369 . S
C1315 C1316 1.410 . S
C1315 C1323 1.503 . S
C1316 C1315 1.410 . S
C1316 C1317 1.392 . S
C1316 C1319 1.511 . S
C1317 C1313 1.376 . S
C1317 C1316 1.392 . S
C1317 H1329 0.929 . S
C1318 C1314 1.531 . S
C1318 H1330 0.960 . S
C1318 H1331 0.962 1_565 S
C1318 H1332 0.960 . S
C1319 C1316 1.511 . S
C1319 H1333 0.961 . S
C1319 H1334 0.961 . S
C1319 H1335 0.961 . S
C1320 C1321 1.370 . S
C1320 C1322 1.363 . S
C1320 H1336 0.931 . S
C1321 C1320 1.370 . S
C1321 C1325 1.408 . S
C1322 C1320 1.363 . S
C1322 C1323 1.370 . S
C1322 C1326 1.524 1_565 S
C1323 C1315 1.503 . S
C1323 C1322 1.370 . S
C1323 C1324 1.403 . S
C1324 C1323 1.403 . S
C1324 C1325 1.404 . S
C1324 C1327 1.539 . S
C1325 C1321 1.408 . S
C1325 C1324 1.404 . S
C1325 H1337 0.930 . S
C1326 C1322 1.524 1_545 S
C1326 H1338 0.956 . S
C1326 H1339 0.961 . S
C1326 H1340 0.961 . S
C1327 C1324 1.539 . S
C1327 H1341 0.958 . S
C1327 H1342 0.961 . S
C1327 H1343 0.960 . S
H1328 C1312 0.931 1_545 S
H1329 C1317 0.929 . S
H1330 C1318 0.960 . S
H1331 C1318 0.962 1_545 S
H1332 C1318 0.960 . S
H1333 C1319 0.961 . S
H1334 C1319 0.961 . S
H1335 C1319 0.961 . S
H1336 C1320 0.931 . S
H1337 C1325 0.930 . S
H1338 C1326 0.956 . S
H1339 C1326 0.961 . S
H1340 C1326 0.961 . S
H1341 C1327 0.958 . S
H1342 C1327 0.961 . S
H1343 C1327 0.960 . S
C1344 C1345 1.391 1_556 S
C1344 C1346 1.394 . S
C1344 H1360 0.931 . S
C1345 C1344 1.391 1_554 S
C1345 C1349 1.376 . S
C1346 C1344 1.394 . S
C1346 C1347 1.369 . S
C1346 C1350 1.531 . S
C1347 C1346 1.369 . S
C1347 C1348 1.410 . S
C1347 C1355 1.503 . S
C1348 C1347 1.410 . S
C1348 C1349 1.392 1_556 S
C1348 C1351 1.511 . S
C1349 C1345 1.376 . S
C1349 C1348 1.392 1_554 S
C1349 H1361 0.929 . S
C1350 C1346 1.531 . S
C1350 H1362 0.960 . S
C1350 H1363 0.962 . S
C1350 H1364 0.960 . S
C1351 C1348 1.511 . S
C1351 H1365 0.961 . S
C1351 H1366 0.961 . S
C1351 H1367 0.961 . S
C1352 C1353 1.370 . S
C1352 C1354 1.363 . S
C1352 H1368 0.931 . S
C1353 C1352 1.370 . S
C1353 C1357 1.408 . S
C1354 C1352 1.363 . S
C1354 C1355 1.370 . S
C1354 C1358 1.524 . S
C1355 C1347 1.503 . S
C1355 C1354 1.370 . S
C1355 C1356 1.403 . S
C1356 C1355 1.403 . S
C1356 C1357 1.404 . S
C1356 C1359 1.539 . S
C1357 C1353 1.408 . S
C1357 C1356 1.404 . S
C1357 H1369 0.930 . S
C1358 C1354 1.524 . S
C1358 H1370 0.956 . S
C1358 H1371 0.961 . S
C1358 H1372 0.961 . S
C1359 C1356 1.539 . S
C1359 H1373 0.957 1_545 S
C1359 H1374 0.961 1_545 S
C1359 H1375 0.960 . S
H1360 C1344 0.931 . S
H1361 C1349 0.929 . S
H1362 C1350 0.960 . S
H1363 C1350 0.962 . S
H1364 C1350 0.960 . S
H1365 C1351 0.961 . S
H1366 C1351 0.961 . S
H1367 C1351 0.961 . S
H1368 C1352 0.931 . S
H1369 C1357 0.930 . S
H1370 C1358 0.956 . S
H1371 C1358 0.961 . S
H1372 C1358 0.961 . S
H1373 C1359 0.957 1_565 S
H1374 C1359 0.961 1_565 S
H1375 C1359 0.960 . S
C1376 C1377 1.391 . S
C1376 C1378 1.394 . S
C1376 H1392 0.931 . S
C1377 C1376 1.391 . S
C1377 C1381 1.376 . S
C1378 C1376 1.394 . S
C1378 C1379 1.369 . S
C1378 C1382 1.531 . S
C1379 C1378 1.369 . S
C1379 C1380 1.410 . S
C1379 C1387 1.503 . S
C1380 C1379 1.410 . S
C1380 C1381 1.392 . S
C1380 C1383 1.511 . S
C1381 C1377 1.376 . S
C1381 C1380 1.392 . S
C1381 H1393 0.929 . S
C1382 C1378 1.531 . S
C1382 H1394 0.960 . S
C1382 H1395 0.962 . S
C1382 H1396 0.960 . S
C1383 C1380 1.511 . S
C1383 H1397 0.961 . S
C1383 H1398 0.961 . S
C1383 H1399 0.961 . S
C1384 C1385 1.370 . S
C1384 C1386 1.363 . S
C1384 H1400 0.931 . S
C1385 C1384 1.370 . S
C1385 C1389 1.408 . S
C1386 C1384 1.363 . S
C1386 C1387 1.370 . S
C1386 C1390 1.524 . S
C1387 C1379 1.503 . S
C1387 C1386 1.370 . S
C1387 C1388 1.403 . S
C1388 C1387 1.403 . S
C1388 C1389 1.404 . S
C1388 C1391 1.539 . S
C1389 C1385 1.408 . S
C1389 C1388 1.404 . S
C1389 H1401 0.930 . S
C1390 C1386 1.524 . S
C1390 H1402 0.956 . S
C1390 H1403 0.961 . S
C1390 H1404 0.961 . S
C1391 C1388 1.539 . S
C1391 H1405 0.958 . S
C1391 H1406 0.961 . S
C1391 H1407 0.960 . S
H1392 C1376 0.931 . S
H1393 C1381 0.929 . S
H1394 C1382 0.960 . S
H1395 C1382 0.962 . S
H1396 C1382 0.960 . S
H1397 C1383 0.961 . S
H1398 C1383 0.961 . S
H1399 C1383 0.961 . S
H1400 C1384 0.931 . S
H1401 C1389 0.930 . S
H1402 C1390 0.956 . S
H1403 C1390 0.961 . S
H1404 C1390 0.961 . S
H1405 C1391 0.958 . S
H1406 C1391 0.961 . S
H1407 C1391 0.960 . S
C1408 C1409 1.391 . S
C1408 C1410 1.394 . S
C1408 H1424 0.931 . S
C1409 C1408 1.391 . S
C1409 C1413 1.376 . S
C1410 C1408 1.394 . S
C1410 C1411 1.369 . S
C1410 C1414 1.531 . S
C1411 C1410 1.369 . S
C1411 C1412 1.410 . S
C1411 C1419 1.503 . S
C1412 C1411 1.410 . S
C1412 C1413 1.392 . S
C1412 C1415 1.511 . S
C1413 C1409 1.376 . S
C1413 C1412 1.392 . S
C1413 H1425 0.929 . S
C1414 C1410 1.531 . S
C1414 H1426 0.960 . S
C1414 H1427 0.962 . S
C1414 H1428 0.960 . S
C1415 C1412 1.511 . S
C1415 H1429 0.961 . S
C1415 H1430 0.961 . S
C1415 H1431 0.961 . S
C1416 C1417 1.370 . S
C1416 C1418 1.363 . S
C1416 H1432 0.931 . S
C1417 C1416 1.370 . S
C1417 C1421 1.408 . S
C1418 C1416 1.363 . S
C1418 C1419 1.370 . S
C1418 C1422 1.524 . S
C1419 C1411 1.503 . S
C1419 C1418 1.370 . S
C1419 C1420 1.403 . S
C1420 C1419 1.403 . S
C1420 C1421 1.404 . S
C1420 C1423 1.539 . S
C1421 C1417 1.408 . S
C1421 C1420 1.404 . S
C1421 H1433 0.930 . S
C1422 C1418 1.524 . S
C1422 H1434 0.956 . S
C1422 H1435 0.961 . S
C1422 H1436 0.961 . S
C1423 C1420 1.539 . S
C1423 H1437 0.958 . S
C1423 H1438 0.961 . S
C1423 H1439 0.960 . S
H1424 C1408 0.931 . S
H1425 C1413 0.929 . S
H1426 C1414 0.960 . S
H1427 C1414 0.962 . S
H1428 C1414 0.960 . S
H1429 C1415 0.961 . S
H1430 C1415 0.961 . S
H1431 C1415 0.961 . S
H1432 C1416 0.931 . S
H1433 C1421 0.930 . S
H1434 C1422 0.956 . S
H1435 C1422 0.961 . S
H1436 C1422 0.961 . S
H1437 C1423 0.958 . S
H1438 C1423 0.961 . S
H1439 C1423 0.960 . S
C1440 C1441 1.391 . S
C1440 C1442 1.394 . S
C1440 H1456 0.931 . S
C1441 C1440 1.391 . S
C1441 C1445 1.376 . S
C1442 C1440 1.394 . S
C1442 C1443 1.369 . S
C1442 C1446 1.531 . S
C1443 C1442 1.369 . S
C1443 C1444 1.410 . S
C1443 C1451 1.503 . S
C1444 C1443 1.410 . S
C1444 C1445 1.392 . S
C1444 C1447 1.511 . S
C1445 C1441 1.376 . S
C1445 C1444 1.392 . S
C1445 H1457 0.929 . S
C1446 C1442 1.531 . S
C1446 H1458 0.960 . S
C1446 H1459 0.962 . S
C1446 H1460 0.960 . S
C1447 C1444 1.511 . S
C1447 H1461 0.961 . S
C1447 H1462 0.961 . S
C1447 H1463 0.961 . S
C1448 C1449 1.370 . S
C1448 C1450 1.363 . S
C1448 H1464 0.931 . S
C1449 C1448 1.370 . S
C1449 C1453 1.408 . S
C1450 C1448 1.363 . S
C1450 C1451 1.370 . S
C1450 C1454 1.524 . S
C1451 C1443 1.503 . S
C1451 C1450 1.370 . S
C1451 C1452 1.403 . S
C1452 C1451 1.403 . S
C1452 C1453 1.404 . S
C1452 C1455 1.539 . S
C1453 C1449 1.408 . S
C1453 C1452 1.404 . S
C1453 H1465 0.930 . S
C1454 C1450 1.524 . S
C1454 H1466 0.956 . S
C1454 H1467 0.961 . S
C1454 H1468 0.961 . S
C1455 C1452 1.539 . S
C1455 H1469 0.958 . S
C1455 H1470 0.961 . S
C1455 H1471 0.960 . S
H1456 C1440 0.931 . S
H1457 C1445 0.929 . S
H1458 C1446 0.960 . S
H1459 C1446 0.962 . S
H1460 C1446 0.960 . S
H1461 C1447 0.961 . S
H1462 C1447 0.961 . S
H1463 C1447 0.961 . S
H1464 C1448 0.931 . S
H1465 C1453 0.930 . S
H1466 C1454 0.956 . S
H1467 C1454 0.961 . S
H1468 C1454 0.961 . S
H1469 C1455 0.958 . S
H1470 C1455 0.961 . S
H1471 C1455 0.960 . S
C1472 C1473 1.391 . S
C1472 C1474 1.394 . S
C1472 H1488 0.931 . S
C1473 C1472 1.391 . S
C1473 C1477 1.376 . S
C1474 C1472 1.394 . S
C1474 C1475 1.369 . S
C1474 C1478 1.531 . S
C1475 C1474 1.369 . S
C1475 C1476 1.410 . S
C1475 C1483 1.503 . S
C1476 C1475 1.410 . S
C1476 C1477 1.392 . S
C1476 C1479 1.511 . S
C1477 C1473 1.376 . S
C1477 C1476 1.392 . S
C1477 H1489 0.929 . S
C1478 C1474 1.531 . S
C1478 H1490 0.960 . S
C1478 H1491 0.962 . S
C1478 H1492 0.960 . S
C1479 C1476 1.511 . S
C1479 H1493 0.961 . S
C1479 H1494 0.961 . S
C1479 H1495 0.961 . S
C1480 C1481 1.370 . S
C1480 C1482 1.363 1_556 S
C1480 H1496 0.931 . S
C1481 C1480 1.370 . S
C1481 C1485 1.408 1_556 S
C1482 C1480 1.363 1_554 S
C1482 C1483 1.370 . S
C1482 C1486 1.524 . S
C1483 C1475 1.503 . S
C1483 C1482 1.370 . S
C1483 C1484 1.403 . S
C1484 C1483 1.403 . S
C1484 C1485 1.404 . S
C1484 C1487 1.539 . S
C1485 C1481 1.408 1_554 S
C1485 C1484 1.404 . S
C1485 H1497 0.930 . S
C1486 C1482 1.524 . S
C1486 H1498 0.956 . S
C1486 H1499 0.961 . S
C1486 H1500 0.961 . S
C1487 C1484 1.539 . S
C1487 H1501 0.958 . S
C1487 H1502 0.961 . S
C1487 H1503 0.960 . S
H1488 C1472 0.931 . S
H1489 C1477 0.929 . S
H1490 C1478 0.960 . S
H1491 C1478 0.962 . S
H1492 C1478 0.960 . S
H1493 C1479 0.961 . S
H1494 C1479 0.961 . S
H1495 C1479 0.961 . S
H1496 C1480 0.931 . S
H1497 C1485 0.930 . S
H1498 C1486 0.956 . S
H1499 C1486 0.961 . S
H1500 C1486 0.961 . S
H1501 C1487 0.958 . S
H1502 C1487 0.961 . S
H1503 C1487 0.960 . S
C1504 C1505 1.391 . S
C1504 C1506 1.394 . S
C1504 H1520 0.931 . S
C1505 C1504 1.391 . S
C1505 C1509 1.376 . S
C1506 C1504 1.394 . S
C1506 C1507 1.369 . S
C1506 C1510 1.531 . S
C1507 C1506 1.369 . S
C1507 C1508 1.410 . S
C1507 C1515 1.503 . S
C1508 C1507 1.410 . S
C1508 C1509 1.392 . S
C1508 C1511 1.511 . S
C1509 C1505 1.376 . S
C1509 C1508 1.392 . S
C1509 H1521 0.929 . S
C1510 C1506 1.531 . S
C1510 H1522 0.960 . S
C1510 H1523 0.962 . S
C1510 H1524 0.960 . S
C1511 C1508 1.511 . S
C1511 H1525 0.961 . S
C1511 H1526 0.961 . S
C1511 H1527 0.961 . S
C1512 C1513 1.370 . S
C1512 C1514 1.363 . S
C1512 H1528 0.931 . S
C1513 C1512 1.370 . S
C1513 C1517 1.408 . S
C1514 C1512 1.363 . S
C1514 C1515 1.370 . S
C1514 C1518 1.524 . S
C1515 C1507 1.503 . S
C1515 C1514 1.370 . S
C1515 C1516 1.403 . S
C1516 C1515 1.403 . S
C1516 C1517 1.404 . S
C1516 C1519 1.539 . S
C1517 C1513 1.408 . S
C1517 C1516 1.404 . S
C1517 H1529 0.930 . S
C1518 C1514 1.524 . S
C1518 H1530 0.956 . S
C1518 H1531 0.961 . S
C1518 H1532 0.961 . S
C1519 C1516 1.539 . S
C1519 H1533 0.958 . S
C1519 H1534 0.961 . S
C1519 H1535 0.960 . S
H1520 C1504 0.931 . S
H1521 C1509 0.929 . S
H1522 C1510 0.960 . S
H1523 C1510 0.962 . S
H1524 C1510 0.960 . S
H1525 C1511 0.961 . S
H1526 C1511 0.961 . S
H1527 C1511 0.961 . S
H1528 C1512 0.931 . S
H1529 C1517 0.930 . S
H1530 C1518 0.956 . S
H1531 C1518 0.961 . S
H1532 C1518 0.961 . S
H1533 C1519 0.958 . S
H1534 C1519 0.961 . S
H1535 C1519 0.960 . S
C1536 C1537 1.391 . S
C1536 C1538 1.394 . S
C1536 H1552 0.931 . S
C1537 C1536 1.391 . S
C1537 C1541 1.376 . S
C1538 C1536 1.394 . S
C1538 C1539 1.369 . S
C1538 C1542 1.531 . S
C1539 C1538 1.369 . S
C1539 C1540 1.410 . S
C1539 C1547 1.503 . S
C1540 C1539 1.410 . S
C1540 C1541 1.392 . S
C1540 C1543 1.511 . S
C1541 C1537 1.376 . S
C1541 C1540 1.392 . S
C1541 H1553 0.929 . S
C1542 C1538 1.531 . S
C1542 H1554 0.960 . S
C1542 H1555 0.962 . S
C1542 H1556 0.960 . S
C1543 C1540 1.511 . S
C1543 H1557 0.961 . S
C1543 H1558 0.961 . S
C1543 H1559 0.961 . S
C1544 C1545 1.370 . S
C1544 C1546 1.363 . S
C1544 H1560 0.931 . S
C1545 C1544 1.370 . S
C1545 C1549 1.408 . S
C1546 C1544 1.363 . S
C1546 C1547 1.370 . S
C1546 C1550 1.524 . S
C1547 C1539 1.503 . S
C1547 C1546 1.370 . S
C1547 C1548 1.403 . S
C1548 C1547 1.403 . S
C1548 C1549 1.404 . S
C1548 C1551 1.539 . S
C1549 C1545 1.408 . S
C1549 C1548 1.404 . S
C1549 H1561 0.930 . S
C1550 C1546 1.524 . S
C1550 H1562 0.956 . S
C1550 H1563 0.961 . S
C1550 H1564 0.961 . S
C1551 C1548 1.539 . S
C1551 H1565 0.958 . S
C1551 H1566 0.961 . S
C1551 H1567 0.960 . S
H1552 C1536 0.931 . S
H1553 C1541 0.929 . S
H1554 C1542 0.960 . S
H1555 C1542 0.962 . S
H1556 C1542 0.960 . S
H1557 C1543 0.961 . S
H1558 C1543 0.961 . S
H1559 C1543 0.961 . S
H1560 C1544 0.931 . S
H1561 C1549 0.930 . S
H1562 C1550 0.956 . S
H1563 C1550 0.961 . S
H1564 C1550 0.961 . S
H1565 C1551 0.958 . S
H1566 C1551 0.961 . S
H1567 C1551 0.960 . S
C1568 C1569 1.391 . S
C1568 C1570 1.394 . S
C1568 H1584 0.931 . S
C1569 C1568 1.391 . S
C1569 C1573 1.376 . S
C1570 C1568 1.394 . S
C1570 C1571 1.369 . S
C1570 C1574 1.531 . S
C1571 C1570 1.369 . S
C1571 C1572 1.410 . S
C1571 C1579 1.503 . S
C1572 C1571 1.410 . S
C1572 C1573 1.392 . S
C1572 C1575 1.511 . S
C1573 C1569 1.376 . S
C1573 C1572 1.392 . S
C1573 H1585 0.929 . S
C1574 C1570 1.531 . S
C1574 H1586 0.960 . S
C1574 H1587 0.962 . S
C1574 H1588 0.960 . S
C1575 C1572 1.511 . S
C1575 H1589 0.961 . S
C1575 H1590 0.961 . S
C1575 H1591 0.961 . S
C1576 C1577 1.370 . S
C1576 C1578 1.363 . S
C1576 H1592 0.931 . S
C1577 C1576 1.370 . S
C1577 C1581 1.408 . S
C1578 C1576 1.363 . S
C1578 C1579 1.370 . S
C1578 C1582 1.524 . S
C1579 C1571 1.503 . S
C1579 C1578 1.370 . S
C1579 C1580 1.403 . S
C1580 C1579 1.403 . S
C1580 C1581 1.404 . S
C1580 C1583 1.539 . S
C1581 C1577 1.408 . S
C1581 C1580 1.404 . S
C1581 H1593 0.930 . S
C1582 C1578 1.524 . S
C1582 H1594 0.956 . S
C1582 H1595 0.961 . S
C1582 H1596 0.961 . S
C1583 C1580 1.539 . S
C1583 H1597 0.958 . S
C1583 H1598 0.961 . S
C1583 H1599 0.960 . S
H1584 C1568 0.931 . S
H1585 C1573 0.929 . S
H1586 C1574 0.960 . S
H1587 C1574 0.962 . S
H1588 C1574 0.960 . S
H1589 C1575 0.961 . S
H1590 C1575 0.961 . S
H1591 C1575 0.961 . S
H1592 C1576 0.931 . S
H1593 C1581 0.930 . S
H1594 C1582 0.956 . S
H1595 C1582 0.961 . S
H1596 C1582 0.961 . S
H1597 C1583 0.958 . S
H1598 C1583 0.961 . S
H1599 C1583 0.960 . S
C1600 C1601 1.391 . S
C1600 C1602 1.394 . S
C1600 H1616 0.931 . S
C1601 C1600 1.391 . S
C1601 C1605 1.376 . S
C1602 C1600 1.394 . S
C1602 C1603 1.369 . S
C1602 C1606 1.531 . S
C1603 C1602 1.369 . S
C1603 C1604 1.410 . S
C1603 C1611 1.503 . S
C1604 C1603 1.410 . S
C1604 C1605 1.392 . S
C1604 C1607 1.511 . S
C1605 C1601 1.376 . S
C1605 C1604 1.392 . S
C1605 H1617 0.929 . S
C1606 C1602 1.531 . S
C1606 H1618 0.960 . S
C1606 H1619 0.962 . S
C1606 H1620 0.960 . S
C1607 C1604 1.511 . S
C1607 H1621 0.961 . S
C1607 H1622 0.961 . S
C1607 H1623 0.961 . S
C1608 C1609 1.370 . S
C1608 C1610 1.363 . S
C1608 H1624 0.931 . S
C1609 C1608 1.370 . S
C1609 C1613 1.408 . S
C1610 C1608 1.363 . S
C1610 C1611 1.370 . S
C1610 C1614 1.524 . S
C1611 C1603 1.503 . S
C1611 C1610 1.370 . S
C1611 C1612 1.403 . S
C1612 C1611 1.403 . S
C1612 C1613 1.404 . S
C1612 C1615 1.539 . S
C1613 C1609 1.408 . S
C1613 C1612 1.404 . S
C1613 H1625 0.930 . S
C1614 C1610 1.524 . S
C1614 H1626 0.956 . S
C1614 H1627 0.961 . S
C1614 H1628 0.961 . S
C1615 C1612 1.539 . S
C1615 H1629 0.958 . S
C1615 H1630 0.961 . S
C1615 H1631 0.960 . S
H1616 C1600 0.931 . S
H1617 C1605 0.929 . S
H1618 C1606 0.960 . S
H1619 C1606 0.962 . S
H1620 C1606 0.960 . S
H1621 C1607 0.961 . S
H1622 C1607 0.961 . S
H1623 C1607 0.961 . S
H1624 C1608 0.931 . S
H1625 C1613 0.930 . S
H1626 C1614 0.956 . S
H1627 C1614 0.961 . S
H1628 C1614 0.961 . S
H1629 C1615 0.958 . S
H1630 C1615 0.961 . S
H1631 C1615 0.960 . S
C1632 C1633 1.391 . S
C1632 C1634 1.394 . S
C1632 H1648 0.931 . S
C1633 C1632 1.391 . S
C1633 C1637 1.376 . S
C1634 C1632 1.394 . S
C1634 C1635 1.369 . S
C1634 C1638 1.531 . S
C1635 C1634 1.369 . S
C1635 C1636 1.410 . S
C1635 C1643 1.503 . S
C1636 C1635 1.410 . S
C1636 C1637 1.392 . S
C1636 C1639 1.511 . S
C1637 C1633 1.376 . S
C1637 C1636 1.392 . S
C1637 H1649 0.929 . S
C1638 C1634 1.531 . S
C1638 H1650 0.960 1_565 S
C1638 H1651 0.962 . S
C1638 H1652 0.951 1_565 S
C1639 C1636 1.511 . S
C1639 H1653 0.961 . S
C1639 H1654 0.961 . S
C1639 H1655 0.961 . S
C1640 C1641 1.370 1_565 S
C1640 C1642 1.363 . S
C1640 H1656 0.931 . S
C1641 C1640 1.370 1_545 S
C1641 C1645 1.408 . S
C1642 C1640 1.363 . S
C1642 C1643 1.370 . S
C1642 C1646 1.524 . S
C1643 C1635 1.503 . S
C1643 C1642 1.370 . S
C1643 C1644 1.403 1_565 S
C1644 C1643 1.403 1_545 S
C1644 C1645 1.404 . S
C1644 C1647 1.539 . S
C1645 C1641 1.408 . S
C1645 C1644 1.404 . S
C1645 H1657 0.930 . S
C1646 C1642 1.524 . S
C1646 H1658 0.956 . S
C1646 H1659 0.961 . S
C1646 H1660 0.961 . S
C1647 C1644 1.539 . S
C1647 H1661 0.958 . S
C1647 H1662 0.961 . S
C1647 H1663 0.960 . S
H1648 C1632 0.931 . S
H1649 C1637 0.929 . S
H1650 C1638 0.960 1_545 S
H1651 C1638 0.962 . S
H1652 C1638 0.951 1_545 S
H1653 C1639 0.961 . S
H1654 C1639 0.961 . S
H1655 C1639 0.961 . S
H1656 C1640 0.931 . S
H1657 C1645 0.930 . S
H1658 C1646 0.956 . S
H1659 C1646 0.961 . S
H1660 C1646 0.961 . S
H1661 C1647 0.958 . S
H1662 C1647 0.961 . S
H1663 C1647 0.960 . S
C1664 C1665 1.391 . S
C1664 C1666 1.394 . S
C1664 H1680 0.931 . S
C1665 C1664 1.391 . S
C1665 C1669 1.376 . S
C1666 C1664 1.394 . S
C1666 C1667 1.369 . S
C1666 C1670 1.531 . S
C1667 C1666 1.369 . S
C1667 C1668 1.410 . S
C1667 C1675 1.503 . S
C1668 C1667 1.410 . S
C1668 C1669 1.392 . S
C1668 C1671 1.511 . S
C1669 C1665 1.376 . S
C1669 C1668 1.392 . S
C1669 H1681 0.929 . S
C1670 C1666 1.531 . S
C1670 H1682 0.960 . S
C1670 H1683 0.962 . S
C1670 H1684 0.960 . S
C1671 C1668 1.511 . S
C1671 H1685 0.961 . S
C1671 H1686 0.961 . S
C1671 H1687 0.961 . S
C1672 C1673 1.370 1_556 S
C1672 C1674 1.363 . S
C1672 H1688 0.931 1_556 S
C1673 C1672 1.370 1_554 S
C1673 C1677 1.408 1_554 S
C1674 C1672 1.363 . S
C1674 C1675 1.370 . S
C1674 C1678 1.524 . S
C1675 C1667 1.503 . S
C1675 C1674 1.370 . S
C1675 C1676 1.403 . S
C1676 C1675 1.403 . S
C1676 C1677 1.404 . S
C1676 C1679 1.539 . S
C1677 C1673 1.408 1_556 S
C1677 C1676 1.404 . S
C1677 H1689 0.930 . S
C1678 C1674 1.524 . S
C1678 H1690 0.956 . S
C1678 H1691 0.961 . S
C1678 H1692 0.961 . S
C1679 C1676 1.539 . S
C1679 H1693 0.958 . S
C1679 H1694 0.961 . S
C1679 H1695 0.960 . S
H1680 C1664 0.931 . S
H1681 C1669 0.929 . S
H1682 C1670 0.960 . S
H1683 C1670 0.962 . S
H1684 C1670 0.960 . S
H1685 C1671 0.961 . S
H1686 C1671 0.961 . S
H1687 C1671 0.961 . S
H1688 C1672 0.931 1_554 S
H1689 C1677 0.930 . S
H1690 C1678 0.956 . S
H1691 C1678 0.961 . S
H1692 C1678 0.961 . S
H1693 C1679 0.958 . S
H1694 C1679 0.961 . S
H1695 C1679 0.960 . S
C1696 C1697 1.391 1_545 S
C1696 C1698 1.394 . S
C1696 H1712 0.931 . S
C1697 C1696 1.391 1_565 S
C1697 C1701 1.376 . S
C1698 C1696 1.394 . S
C1698 C1699 1.369 . S
C1698 C1702 1.531 . S
C1699 C1698 1.369 . S
C1699 C1700 1.410 . S
C1699 C1707 1.503 . S
C1700 C1699 1.410 . S
C1700 C1701 1.392 1_545 S
C1700 C1703 1.511 . S
C1701 C1697 1.376 . S
C1701 C1700 1.392 1_565 S
C1701 H1713 0.929 . S
C1702 C1698 1.531 . S
C1702 H1714 0.960 . S
C1702 H1715 0.962 . S
C1702 H1716 0.960 . S
C1703 C1700 1.511 . S
C1703 H1717 0.961 . S
C1703 H1718 0.961 . S
C1703 H1719 0.961 . S
C1704 C1705 1.370 . S
C1704 C1706 1.363 . S
C1704 H1720 0.931 . S
C1705 C1704 1.370 . S
C1705 C1709 1.408 . S
C1706 C1704 1.363 . S
C1706 C1707 1.370 . S
C1706 C1710 1.524 1_545 S
C1707 C1699 1.503 . S
C1707 C1706 1.370 . S
C1707 C1708 1.403 . S
C1708 C1707 1.403 . S
C1708 C1709 1.404 . S
C1708 C1711 1.539 . S
C1709 C1705 1.408 . S
C1709 C1708 1.404 . S
C1709 H1721 0.930 . S
C1710 C1706 1.524 1_565 S
C1710 H1722 0.956 . S
C1710 H1723 0.961 . S
C1710 H1724 0.961 . S
C1711 C1708 1.539 . S
C1711 H1725 0.958 . S
C1711 H1726 0.961 . S
C1711 H1727 0.960 . S
H1712 C1696 0.931 . S
H1713 C1701 0.929 . S
H1714 C1702 0.960 . S
H1715 C1702 0.962 . S
H1716 C1702 0.960 . S
H1717 C1703 0.961 . S
H1718 C1703 0.961 . S
H1719 C1703 0.961 . S
H1720 C1704 0.931 . S
H1721 C1709 0.930 . S
H1722 C1710 0.956 . S
H1723 C1710 0.961 . S
H1724 C1710 0.961 . S
H1725 C1711 0.958 . S
H1726 C1711 0.961 . S
H1727 C1711 0.960 . S
C1728 C1729 1.391 . S
C1728 C1730 1.394 . S
C1728 H1744 0.931 . S
C1729 C1728 1.391 . S
C1729 C1733 1.376 . S
C1730 C1728 1.394 . S
C1730 C1731 1.369 . S
C1730 C1734 1.531 . S
C1731 C1730 1.369 . S
C1731 C1732 1.410 . S
C1731 C1739 1.503 . S
C1732 C1731 1.410 . S
C1732 C1733 1.392 . S
C1732 C1735 1.511 . S
C1733 C1729 1.376 . S
C1733 C1732 1.392 . S
C1733 H1745 0.929 . S
C1734 C1730 1.531 . S
C1734 H1746 0.960 . S
C1734 H1747 0.962 . S
C1734 H1748 0.960 . S
C1735 C1732 1.511 . S
C1735 H1749 0.961 . S
C1735 H1750 0.961 . S
C1735 H1751 0.961 . S
C1736 C1737 1.370 . S
C1736 C1738 1.363 . S
C1736 H1752 0.931 . S
C1737 C1736 1.370 . S
C1737 C1741 1.408 . S
C1738 C1736 1.363 . S
C1738 C1739 1.370 . S
C1738 C1742 1.524 . S
C1739 C1731 1.503 . S
C1739 C1738 1.370 . S
C1739 C1740 1.403 . S
C1740 C1739 1.403 . S
C1740 C1741 1.404 . S
C1740 C1743 1.539 . S
C1741 C1737 1.408 . S
C1741 C1740 1.404 . S
C1741 H1753 0.930 . S
C1742 C1738 1.524 . S
C1742 H1754 0.956 . S
C1742 H1755 0.961 . S
C1742 H1756 0.961 . S
C1743 C1740 1.539 . S
C1743 H1757 0.958 . S
C1743 H1758 0.961 . S
C1743 H1759 0.960 . S
H1744 C1728 0.931 . S
H1745 C1733 0.929 . S
H1746 C1734 0.960 . S
H1747 C1734 0.962 . S
H1748 C1734 0.960 . S
H1749 C1735 0.961 . S
H1750 C1735 0.961 . S
H1751 C1735 0.961 . S
H1752 C1736 0.931 . S
H1753 C1741 0.930 . S
H1754 C1742 0.956 . S
H1755 C1742 0.961 . S
H1756 C1742 0.961 . S
H1757 C1743 0.958 . S
H1758 C1743 0.961 . S
H1759 C1743 0.960 . S
C1760 C1761 1.391 . S
C1760 C1762 1.394 . S
C1760 H1776 0.931 . S
C1761 C1760 1.391 . S
C1761 C1765 1.376 . S
C1762 C1760 1.394 . S
C1762 C1763 1.369 . S
C1762 C1766 1.531 . S
C1763 C1762 1.369 . S
C1763 C1764 1.410 . S
C1763 C1771 1.503 . S
C1764 C1763 1.410 . S
C1764 C1765 1.392 . S
C1764 C1767 1.511 . S
C1765 C1761 1.376 . S
C1765 C1764 1.392 . S
C1765 H1777 0.929 . S
C1766 C1762 1.531 . S
C1766 H1778 0.960 . S
C1766 H1779 0.962 1_545 S
C1766 H1780 0.960 . S
C1767 C1764 1.511 . S
C1767 H1781 0.961 . S
C1767 H1782 0.961 . S
C1767 H1783 0.961 . S
C1768 C1769 1.370 . S
C1768 C1770 1.363 1_565 S
C1768 H1784 0.931 . S
C1769 C1768 1.370 . S
C1769 C1773 1.408 1_565 S
C1770 C1768 1.363 1_545 S
C1770 C1771 1.370 . S
C1770 C1774 1.524 1_545 S
C1771 C1763 1.503 . S
C1771 C1770 1.370 . S
C1771 C1772 1.403 . S
C1772 C1771 1.403 . S
C1772 C1773 1.404 . S
C1772 C1775 1.539 . S
C1773 C1769 1.408 1_545 S
C1773 C1772 1.404 . S
C1773 H1785 0.930 . S
C1774 C1770 1.524 1_565 S
C1774 H1786 0.956 . S
C1774 H1787 0.961 1_565 S
C1774 H1788 0.961 . S
C1775 C1772 1.539 . S
C1775 H1789 0.958 . S
C1775 H1790 0.961 . S
C1775 H1791 0.960 . S
H1776 C1760 0.931 . S
H1777 C1765 0.929 . S
H1778 C1766 0.960 . S
H1779 C1766 0.962 1_565 S
H1780 C1766 0.960 . S
H1781 C1767 0.961 . S
H1782 C1767 0.961 . S
H1783 C1767 0.961 . S
H1784 C1768 0.931 . S
H1785 C1773 0.930 . S
H1786 C1774 0.956 . S
H1787 C1774 0.961 1_545 S
H1788 C1774 0.961 . S
H1789 C1775 0.958 . S
H1790 C1775 0.961 . S
H1791 C1775 0.960 . S
C1792 C1793 1.391 . S
C1792 C1794 1.394 . S
C1792 H1808 0.931 . S
C1793 C1792 1.391 . S
C1793 C1797 1.376 . S
C1794 C1792 1.394 . S
C1794 C1795 1.369 . S
C1794 C1798 1.531 . S
C1795 C1794 1.369 . S
C1795 C1796 1.410 . S
C1795 C1803 1.503 . S
C1796 C1795 1.410 . S
C1796 C1797 1.392 . S
C1796 C1799 1.511 . S
C1797 C1793 1.376 . S
C1797 C1796 1.392 . S
C1797 H1809 0.929 . S
C1798 C1794 1.531 . S
C1798 H1810 0.960 . S
C1798 H1811 0.962 . S
C1798 H1812 0.960 . S
C1799 C1796 1.511 . S
C1799 H1813 0.961 . S
C1799 H1814 0.961 . S
C1799 H1815 0.961 . S
C1800 C1801 1.370 1_554 S
C1800 C1802 1.363 . S
C1800 H1816 0.931 1_554 S
C1801 C1800 1.370 1_556 S
C1801 C1805 1.408 1_556 S
C1802 C1800 1.363 . S
C1802 C1803 1.370 . S
C1802 C1806 1.524 . S
C1803 C1795 1.503 . S
C1803 C1802 1.370 . S
C1803 C1804 1.403 . S
C1804 C1803 1.403 . S
C1804 C1805 1.404 . S
C1804 C1807 1.539 . S
C1805 C1801 1.408 1_554 S
C1805 C1804 1.404 . S
C1805 H1817 0.930 . S
C1806 C1802 1.524 . S
C1806 H1818 0.956 . S
C1806 H1819 0.961 . S
C1806 H1820 0.961 . S
C1807 C1804 1.539 . S
C1807 H1821 0.958 . S
C1807 H1822 0.961 . S
C1807 H1823 0.960 . S
H1808 C1792 0.931 . S
H1809 C1797 0.929 . S
H1810 C1798 0.960 . S
H1811 C1798 0.962 . S
H1812 C1798 0.960 . S
H1813 C1799 0.961 . S
H1814 C1799 0.961 . S
H1815 C1799 0.961 . S
H1816 C1800 0.931 1_556 S
H1817 C1805 0.930 . S
H1818 C1806 0.956 . S
H1819 C1806 0.961 . S
H1820 C1806 0.961 . S
H1821 C1807 0.958 . S
H1822 C1807 0.961 . S
H1823 C1807 0.960 . S
C1824 C1825 1.391 . S
C1824 C1826 1.394 . S
C1824 H1840 0.931 . S
C1825 C1824 1.391 . S
C1825 C1829 1.376 . S
C1826 C1824 1.394 . S
C1826 C1827 1.369 . S
C1826 C1830 1.531 . S
C1827 C1826 1.369 . S
C1827 C1828 1.410 . S
C1827 C1835 1.503 . S
C1828 C1827 1.410 . S
C1828 C1829 1.392 . S
C1828 C1831 1.511 . S
C1829 C1825 1.376 . S
C1829 C1828 1.392 . S
C1829 H1841 0.929 . S
C1830 C1826 1.531 . S
C1830 H1842 0.960 1_565 S
C1830 H1843 0.962 . S
C1830 H1844 0.960 1_565 S
C1831 C1828 1.511 . S
C1831 H1845 0.961 . S
C1831 H1846 0.961 . S
C1831 H1847 0.961 . S
C1832 C1833 1.370 1_565 S
C1832 C1834 1.363 . S
C1832 H1848 0.931 . S
C1833 C1832 1.370 1_545 S
C1833 C1837 1.408 . S
C1834 C1832 1.363 . S
C1834 C1835 1.370 . S
C1834 C1838 1.524 . S
C1835 C1827 1.503 . S
C1835 C1834 1.370 . S
C1835 C1836 1.403 1_565 S
C1836 C1835 1.403 1_545 S
C1836 C1837 1.404 . S
C1836 C1839 1.539 . S
C1837 C1833 1.408 . S
C1837 C1836 1.404 . S
C1837 H1849 0.930 . S
C1838 C1834 1.524 . S
C1838 H1850 0.956 . S
C1838 H1851 0.961 . S
C1838 H1852 0.961 . S
C1839 C1836 1.539 . S
C1839 H1853 0.958 . S
C1839 H1854 0.961 . S
C1839 H1855 0.960 . S
H1840 C1824 0.931 . S
H1841 C1829 0.929 . S
H1842 C1830 0.960 1_545 S
H1843 C1830 0.962 . S
H1844 C1830 0.960 1_545 S
H1845 C1831 0.961 . S
H1846 C1831 0.961 . S
H1847 C1831 0.961 . S
H1848 C1832 0.931 . S
H1849 C1837 0.930 . S
H1850 C1838 0.956 . S
H1851 C1838 0.961 . S
H1852 C1838 0.961 . S
H1853 C1839 0.958 . S
H1854 C1839 0.961 . S
H1855 C1839 0.960 . S
C321 C8 1.051 . S
C329 C208 1.003 . S
C353 C28 1.002 . S
C361 C228 1.035 . S
C385 C48 1.019 . S
C393 C168 1.006 . S
C417 C188 0.982 . S
C425 C68 1.022 . S
C449 C89 1.029 . S
C457 C289 1.007 . S
C481 C309 1.057 . S
C489 C109 1.004 . S
C513 C249 0.977 . S
C521 C129 1.033 . S
C545 C149 1.043 . S
C553 C269 1.017 . S
C577 C1 1.379 . S
C585 C82 1.438 . S
C609 C21 1.442 . S
C617 C262 1.409 . S
C641 C41 1.457 . S
C649 C122 1.404 . S
C673 C61 1.381 . S
C681 C302 1.435 . S
C705 C102 1.424 . S
C713 C181 1.422 . S
C737 C221 1.400 . S
C745 C142 1.427 . S
C769 C242 1.447 . S
C777 C161 1.412 . S
C801 C201 1.459 . S
C809 C282 1.404 . S
C833 C2 1.017 . S
C841 C148 1.102 . S
C865 C22 1.088 . S
C873 C248 1.104 . S
C897 C42 1.006 . S
C905 C108 1.100 . S
C929 C62 0.998 1_455 S
C937 C288 1.099 . S
C961 C69 1.098 . S
C969 C81 1.030 . S
C993 C101 0.987 . S
C1001 C169 1.094 . S
C1025 C121 0.983 . S
C1033 C29 1.092 . S
C1057 C209 1.103 . S
C1065 C141 1.036 1_655 S
C1089 C162 1.067 . S
C1097 C308 1.103 . S
C1121 C88 1.093 . S
C1129 C182 1.029 1_655 S
C1153 C268 1.121 . S
C1161 C202 1.063 . S
C1185 C128 1.112 . S
C1193 C222 1.070 . S
C1217 C241 1.095 . S
C1225 C229 1.114 . S
C1249 C261 0.992 1_455 S
C1257 C9 1.093 . S
C1281 C189 1.106 . S
C1289 C281 1.028 . S
C1313 C301 1.084 . S
C1321 C49 1.105 . S
C1345 C19 2.453 . S
C1353 C198 2.516 . S
C1377 C218 2.487 . S
C1385 C39 2.478 . S
C1409 C59 2.447 . S
C1417 C238 2.517 . S
C1441 C178 2.522 . S
C1449 C79 2.460 . S
C1473 C279 2.487 . S
C1481 C98 2.478 . S
C1505 C299 2.493 . S
C1513 C118 2.474 . S
C1537 C319 2.522 . S
C1545 C138 2.460 . S
C1569 C259 2.521 . S
C1577 C158 2.460 . S
C1601 C38 2.509 . S
C1609 C179 2.470 . S
C1633 C58 2.487 . S
C1641 C199 2.478 . S
C1665 C78 2.500 . S
C1673 C219 2.474 . S
C1697 C239 2.447 . S
C1705 C18 2.515 . S
C1729 C119 2.520 . S
C1737 C258 2.461 . S
C1761 C139 2.521 . S
C1769 C278 2.460 . S
C1793 C159 2.492 . S
C1801 C298 2.476 . S
C1825 C99 2.499 . S
C1833 C318 2.472 . S
