# Generated by pormake.
# Topology ukn, (4)-cn, num edge types: 1
# Building blocks:
#     Node 0, Type 0, BuildingBlock: CEKHIL_clean_sbu_0, # of connection points: 4
#     Node 1, Type 0, BuildingBlock: CEKHIL_clean_sbu_0, # of connection points: 4
#     Node 2, Type 0, BuildingBlock: CEKHIL_clean_sbu_0, # of connection points: 4
#     Node 3, Type 0, BuildingBlock: CEKHIL_clean_sbu_0, # of connection points: 4
#     Node 4, Type 0, BuildingBlock: CEKHIL_clean_sbu_0, # of connection points: 4
#     Node 5, Type 0, BuildingBlock: CEKHIL_clean_sbu_0, # of connection points: 4
#     Node 6, Type 0, BuildingBlock: CEKHIL_clean_sbu_0, # of connection points: 4
#     Node 7, Type 0, BuildingBlock: CEKHIL_clean_sbu_0, # of connection points: 4
#     Node 8, Type 0, BuildingBlock: CEKHIL_clean_sbu_0, # of connection points: 4
#     Node 9, Type 0, BuildingBlock: CEKHIL_clean_sbu_0, # of connection points: 4
#     Node 10, Type 0, BuildingBlock: CEKHIL_clean_sbu_0, # of connection points: 4
#     Node 11, Type 0, BuildingBlock: CEKHIL_clean_sbu_0, # of connection points: 4
#     Node 12, Type 0, BuildingBlock: CEKHIL_clean_sbu_0, # of connection points: 4
#     Node 13, Type 0, BuildingBlock: CEKHIL_clean_sbu_0, # of connection points: 4
#     Node 14, Type 0, BuildingBlock: CEKHIL_clean_sbu_0, # of connection points: 4
#     Node 15, Type 0, BuildingBlock: CEKHIL_clean_sbu_0, # of connection points: 4
#     Node 16, Type 0, BuildingBlock: CEKHIL_clean_sbu_0, # of connection points: 4
#     Node 17, Type 0, BuildingBlock: CEKHIL_clean_sbu_0, # of connection points: 4
#     Node 18, Type 0, BuildingBlock: CEKHIL_clean_sbu_0, # of connection points: 4
#     Node 19, Type 0, BuildingBlock: CEKHIL_clean_sbu_0, # of connection points: 4
#     Node 20, Type 0, BuildingBlock: CEKHIL_clean_sbu_0, # of connection points: 4
#     Node 21, Type 0, BuildingBlock: CEKHIL_clean_sbu_0, # of connection points: 4
#     Node 22, Type 0, BuildingBlock: CEKHIL_clean_sbu_0, # of connection points: 4
#     Node 23, Type 0, BuildingBlock: CEKHIL_clean_sbu_0, # of connection points: 4
#     Node 24, Type 0, BuildingBlock: CEKHIL_clean_sbu_0, # of connection points: 4
#     Node 25, Type 0, BuildingBlock: CEKHIL_clean_sbu_0, # of connection points: 4
#     Node 26, Type 0, BuildingBlock: CEKHIL_clean_sbu_0, # of connection points: 4
#     Node 27, Type 0, BuildingBlock: CEKHIL_clean_sbu_0, # of connection points: 4
#     Node 28, Type 0, BuildingBlock: CEKHIL_clean_sbu_0, # of connection points: 4
#     Node 29, Type 0, BuildingBlock: CEKHIL_clean_sbu_0, # of connection points: 4
#     Node 30, Type 0, BuildingBlock: CEKHIL_clean_sbu_0, # of connection points: 4
#     Node 31, Type 0, BuildingBlock: CEKHIL_clean_sbu_0, # of connection points: 4
#     Node 32, Type 0, BuildingBlock: CEKHIL_clean_sbu_0, # of connection points: 4
#     Node 33, Type 0, BuildingBlock: CEKHIL_clean_sbu_0, # of connection points: 4
#     Node 34, Type 0, BuildingBlock: CEKHIL_clean_sbu_0, # of connection points: 4
#     Node 35, Type 0, BuildingBlock: CEKHIL_clean_sbu_0, # of connection points: 4
#     Edge 36, Type (0, 0), BuildingBlock: CIFDUS_clean_linker_0, # of connection points: 2
#     Edge 37, Type (0, 0), BuildingBlock: CIFDUS_clean_linker_0, # of connection points: 2
#     Edge 38, Type (0, 0), BuildingBlock: CIFDUS_clean_linker_0, # of connection points: 2
#     Edge 39, Type (0, 0), BuildingBlock: CIFDUS_clean_linker_0, # of connection points: 2
#     Edge 40, Type (0, 0), BuildingBlock: CIFDUS_clean_linker_0, # of connection points: 2
#     Edge 41, Type (0, 0), BuildingBlock: CIFDUS_clean_linker_0, # of connection points: 2
#     Edge 42, Type (0, 0), BuildingBlock: CIFDUS_clean_linker_0, # of connection points: 2
#     Edge 43, Type (0, 0), BuildingBlock: CIFDUS_clean_linker_0, # of connection points: 2
#     Edge 44, Type (0, 0), BuildingBlock: CIFDUS_clean_linker_0, # of connection points: 2
#     Edge 45, Type (0, 0), BuildingBlock: CIFDUS_clean_linker_0, # of connection points: 2
#     Edge 46, Type (0, 0), BuildingBlock: CIFDUS_clean_linker_0, # of connection points: 2
#     Edge 47, Type (0, 0), BuildingBlock: CIFDUS_clean_linker_0, # of connection points: 2
#     Edge 48, Type (0, 0), BuildingBlock: CIFDUS_clean_linker_0, # of connection points: 2
#     Edge 49, Type (0, 0), BuildingBlock: CIFDUS_clean_linker_0, # of connection points: 2
#     Edge 50, Type (0, 0), BuildingBlock: CIFDUS_clean_linker_0, # of connection points: 2
#     Edge 51, Type (0, 0), BuildingBlock: CIFDUS_clean_linker_0, # of connection points: 2
#     Edge 52, Type (0, 0), BuildingBlock: CIFDUS_clean_linker_0, # of connection points: 2
#     Edge 53, Type (0, 0), BuildingBlock: CIFDUS_clean_linker_0, # of connection points: 2
#     Edge 54, Type (0, 0), BuildingBlock: CIFDUS_clean_linker_0, # of connection points: 2
#     Edge 55, Type (0, 0), BuildingBlock: CIFDUS_clean_linker_0, # of connection points: 2
#     Edge 56, Type (0, 0), BuildingBlock: CIFDUS_clean_linker_0, # of connection points: 2
#     Edge 57, Type (0, 0), BuildingBlock: CIFDUS_clean_linker_0, # of connection points: 2
#     Edge 58, Type (0, 0), BuildingBlock: CIFDUS_clean_linker_0, # of connection points: 2
#     Edge 59, Type (0, 0), BuildingBlock: CIFDUS_clean_linker_0, # of connection points: 2
#     Edge 60, Type (0, 0), BuildingBlock: CIFDUS_clean_linker_0, # of connection points: 2
#     Edge 61, Type (0, 0), BuildingBlock: CIFDUS_clean_linker_0, # of connection points: 2
#     Edge 62, Type (0, 0), BuildingBlock: CIFDUS_clean_linker_0, # of connection points: 2
#     Edge 63, Type (0, 0), BuildingBlock: CIFDUS_clean_linker_0, # of connection points: 2
#     Edge 64, Type (0, 0), BuildingBlock: CIFDUS_clean_linker_0, # of connection points: 2
#     Edge 65, Type (0, 0), BuildingBlock: CIFDUS_clean_linker_0, # of connection points: 2
#     Edge 66, Type (0, 0), BuildingBlock: CIFDUS_clean_linker_0, # of connection points: 2
#     Edge 67, Type (0, 0), BuildingBlock: CIFDUS_clean_linker_0, # of connection points: 2
#     Edge 68, Type (0, 0), BuildingBlock: CIFDUS_clean_linker_0, # of connection points: 2
#     Edge 69, Type (0, 0), BuildingBlock: CIFDUS_clean_linker_0, # of connection points: 2
#     Edge 70, Type (0, 0), BuildingBlock: CIFDUS_clean_linker_0, # of connection points: 2
#     Edge 71, Type (0, 0), BuildingBlock: CIFDUS_clean_linker_0, # of connection points: 2
#     Edge 72, Type (0, 0), BuildingBlock: CIFDUS_clean_linker_0, # of connection points: 2
#     Edge 73, Type (0, 0), BuildingBlock: CIFDUS_clean_linker_0, # of connection points: 2
#     Edge 74, Type (0, 0), BuildingBlock: CIFDUS_clean_linker_0, # of connection points: 2
#     Edge 75, Type (0, 0), BuildingBlock: CIFDUS_clean_linker_0, # of connection points: 2
#     Edge 76, Type (0, 0), BuildingBlock: CIFDUS_clean_linker_0, # of connection points: 2
#     Edge 77, Type (0, 0), BuildingBlock: CIFDUS_clean_linker_0, # of connection points: 2
#     Edge 78, Type (0, 0), BuildingBlock: CIFDUS_clean_linker_0, # of connection points: 2
#     Edge 79, Type (0, 0), BuildingBlock: CIFDUS_clean_linker_0, # of connection points: 2
#     Edge 80, Type (0, 0), BuildingBlock: CIFDUS_clean_linker_0, # of connection points: 2
#     Edge 81, Type (0, 0), BuildingBlock: CIFDUS_clean_linker_0, # of connection points: 2
#     Edge 82, Type (0, 0), BuildingBlock: CIFDUS_clean_linker_0, # of connection points: 2
#     Edge 83, Type (0, 0), BuildingBlock: CIFDUS_clean_linker_0, # of connection points: 2
#     Edge 84, Type (0, 0), BuildingBlock: CIFDUS_clean_linker_0, # of connection points: 2
#     Edge 85, Type (0, 0), BuildingBlock: CIFDUS_clean_linker_0, # of connection points: 2
#     Edge 86, Type (0, 0), BuildingBlock: CIFDUS_clean_linker_0, # of connection points: 2
#     Edge 87, Type (0, 0), BuildingBlock: CIFDUS_clean_linker_0, # of connection points: 2
#     Edge 88, Type (0, 0), BuildingBlock: CIFDUS_clean_linker_0, # of connection points: 2
#     Edge 89, Type (0, 0), BuildingBlock: CIFDUS_clean_linker_0, # of connection points: 2
#     Edge 90, Type (0, 0), BuildingBlock: CIFDUS_clean_linker_0, # of connection points: 2
#     Edge 91, Type (0, 0), BuildingBlock: CIFDUS_clean_linker_0, # of connection points: 2
#     Edge 92, Type (0, 0), BuildingBlock: CIFDUS_clean_linker_0, # of connection points: 2
#     Edge 93, Type (0, 0), BuildingBlock: CIFDUS_clean_linker_0, # of connection points: 2
#     Edge 94, Type (0, 0), BuildingBlock: CIFDUS_clean_linker_0, # of connection points: 2
#     Edge 95, Type (0, 0), BuildingBlock: CIFDUS_clean_linker_0, # of connection points: 2
#     Edge 96, Type (0, 0), BuildingBlock: CIFDUS_clean_linker_0, # of connection points: 2
#     Edge 97, Type (0, 0), BuildingBlock: CIFDUS_clean_linker_0, # of connection points: 2
#     Edge 98, Type (0, 0), BuildingBlock: CIFDUS_clean_linker_0, # of connection points: 2
#     Edge 99, Type (0, 0), BuildingBlock: CIFDUS_clean_linker_0, # of connection points: 2
#     Edge 100, Type (0, 0), BuildingBlock: CIFDUS_clean_linker_0, # of connection points: 2
#     Edge 101, Type (0, 0), BuildingBlock: CIFDUS_clean_linker_0, # of connection points: 2
#     Edge 102, Type (0, 0), BuildingBlock: CIFDUS_clean_linker_0, # of connection points: 2
#     Edge 103, Type (0, 0), BuildingBlock: CIFDUS_clean_linker_0, # of connection points: 2
#     Edge 104, Type (0, 0), BuildingBlock: CIFDUS_clean_linker_0, # of connection points: 2
#     Edge 105, Type (0, 0), BuildingBlock: CIFDUS_clean_linker_0, # of connection points: 2
#     Edge 106, Type (0, 0), BuildingBlock: CIFDUS_clean_linker_0, # of connection points: 2
#     Edge 107, Type (0, 0), BuildingBlock: CIFDUS_clean_linker_0, # of connection points: 2
# Relax obj value: 0.076
# Max RMSD: 0.097
# Mean RMSD: 0.097
data_MOF--net-ukn--node1-CEKHIL_clean_sbu_0--edge1-CIFDUS_clean_linker_0
_symmetry_space_group_name_H-M    P1
_symmetry_Int_Tables_number       1
_symmetry_cell_setting            triclinic
loop_
_symmetry_equiv_pos_as_xyz
'x, y, z'
_cell_length_a     91.658239
_cell_length_b     91.621502
_cell_length_c     23.167524
_cell_angle_alpha  89.981777
_cell_angle_beta   90.014571
_cell_angle_gamma 120.07284
loop_
_atom_site_label
_atom_site_type_symbol
_atom_site_fract_x
_atom_site_fract_y
_atom_site_fract_z
_atom_type_partial_charge
Co0 Co 0.09286 0.30898 0.08236 0.0
O1 O 0.07134 0.30701 0.06463 0.0
O2 O 0.07788 0.28735 0.04613 0.0
C3 C 0.09412 0.31956 0.17113 0.0
O4 O 0.11331 0.3058 0.09454 0.0
Co5 Co 0.12502 0.34254 0.11755 0.0
O6 O 0.13392 0.32781 0.14232 0.0
C7 C 0.11292 0.33612 -0.00413 0.0
C8 C 0.06668 0.2921 0.04435 0.0
C9 C 0.12758 0.31303 0.12124 0.0
O10 O 0.10214 0.32048 0.00621 0.0
O11 O 0.12193 0.34673 0.03491 0.0
O12 O 0.08596 0.30328 0.16371 0.0
O13 O 0.10099 0.32851 0.12611 0.0
Co14 Co 0.72262 0.78802 0.09226 0.0
O15 O 0.72414 0.76809 0.07858 0.0
O16 O 0.74541 0.79408 0.06861 0.0
C17 C 0.70784 0.77874 0.17518 0.0
O18 O 0.72574 0.8117 0.104 0.0
Co19 Co 0.68715 0.78542 0.09963 0.0
O20 O 0.7006 0.80873 0.12932 0.0
C21 C 0.7006 0.7813 0.98863 0.0
C22 C 0.73981 0.77793 0.06487 0.0
C23 C 0.71648 0.81773 0.12204 0.0
O24 O 0.71552 0.78743 0.00985 0.0
O25 O 0.68762 0.77802 0.01892 0.0
O26 O 0.7242 0.78569 0.17633 0.0
O27 O 0.70131 0.77676 0.1249 0.0
Co28 Co 0.23875 0.93674 0.09423 0.0
O29 O 0.25989 0.95742 0.0881 0.0
O30 O 0.23542 0.95459 0.0622 0.0
C31 C 0.24318 0.9302 0.18481 0.0
O32 O 0.21429 0.91722 0.0951 0.0
Co33 Co 0.23856 0.90294 0.10748 0.0
O34 O 0.21443 0.89403 0.12667 0.0
C35 C 0.24581 0.91961 -0.00622 0.0
C36 C 0.25172 0.96422 0.06598 0.0
C37 C 0.20665 0.90175 0.11238 0.0
O38 O 0.24191 0.93029 0.01399 0.0
O39 O 0.24659 0.90851 0.02519 0.0
O40 O 0.23746 0.9405 0.17704 0.0
O41 O 0.24725 0.9254 0.13817 0.0
Co42 Co 0.31016 0.08362 0.89817 0.0
O43 O 0.30765 0.0618 0.9122 0.0
O44 O 0.28738 0.06785 0.9249 0.0
C45 C 0.32389 0.08766 0.81376 0.0
O46 O 0.30824 0.10489 0.88788 0.0
Co47 Co 0.3461 0.11549 0.88518 0.0
O48 O 0.33327 0.12629 0.85791 0.0
C49 C 0.33341 0.09919 -0.00114 0.0
C50 C 0.29232 0.05679 0.92832 0.0
C51 C 0.31764 0.12008 0.869 0.0
O52 O 0.3183 0.09036 0.97928 0.0
O53 O 0.34618 0.10853 0.96707 0.0
O54 O 0.30746 0.07919 0.81442 0.0
O55 O 0.33104 0.09251 0.86307 0.0
Co56 Co 0.94398 0.2344 0.89791 0.0
O57 O 0.96436 0.25567 0.90651 0.0
O58 O 0.962 0.23127 0.93045 0.0
C59 C 0.9382 0.2395 0.80743 0.0
O60 O 0.92436 0.20985 0.89353 0.0
Co61 Co 0.91049 0.23478 0.88331 0.0
O62 O 0.90192 0.21104 0.85954 0.0
C63 C 0.92629 0.2409 -0.00191 0.0
C64 C 0.97136 0.24765 0.92807 0.0
C65 C 0.90915 0.20274 0.87346 0.0
O66 O 0.93689 0.23688 0.97799 0.0
O67 O 0.91553 0.24216 0.96633 0.0
O68 O 0.94849 0.23379 0.81549 0.0
O69 O 0.93303 0.24323 0.85393 0.0
Co70 Co 0.79156 0.70961 0.89894 0.0
O71 O 0.77053 0.70898 0.91202 0.0
O72 O 0.79531 0.73007 0.93844 0.0
C73 C 0.78589 0.70066 0.80612 0.0
O74 O 0.81606 0.71474 0.89137 0.0
Co75 Co 0.79202 0.67676 0.86763 0.0
O76 O 0.8156 0.69293 0.84491 0.0
C77 C 0.78464 0.68235 0.98735 0.0
C78 C 0.77902 0.72359 0.93669 0.0
C79 C 0.82354 0.70787 0.86518 0.0
O80 O 0.78885 0.69769 0.97497 0.0
O81 O 0.78389 0.67177 0.94961 0.0
O82 O 0.79188 0.71652 0.81829 0.0
O83 O 0.78259 0.69089 0.85001 0.0
Co84 Co 0.9416 0.7143 0.8969 0.0
O85 O 0.96238 0.71577 0.92162 0.0
O86 O 0.95698 0.7366 0.92901 0.0
C87 C 0.94083 0.70173 0.81265 0.0
O88 O 0.92153 0.71745 0.87478 0.0
Co89 Co 0.90966 0.67955 0.86648 0.0
O90 O 0.90234 0.69407 0.8282 0.0
C91 C 0.91972 0.68984 0.98835 0.0
C92 C 0.96754 0.73119 0.9371 0.0
C93 C 0.90801 0.70928 0.84412 0.0
O94 O 0.93123 0.70489 0.97421 0.0
O95 O 0.91094 0.67815 0.95203 0.0
O96 O 0.94951 0.71811 0.81636 0.0
O97 O 0.93361 0.69386 0.85911 0.0
Co98 Co 0.31618 0.23592 0.89675 0.0
O99 O 0.31302 0.25476 0.91299 0.0
O100 O 0.29332 0.22813 0.92454 0.0
C101 C 0.32967 0.24608 0.81223 0.0
O102 O 0.31469 0.213 0.88247 0.0
Co103 Co 0.35262 0.24122 0.88201 0.0
O104 O 0.34009 0.21798 0.85103 0.0
C105 C 0.34046 0.24619 -0.00624 0.0
C106 C 0.29774 0.24399 0.92861 0.0
C107 C 0.32443 0.20805 0.8604 0.0
O108 O 0.32498 0.23744 0.97727 0.0
O109 O 0.35307 0.25063 0.96013 0.0
O110 O 0.31323 0.23809 0.81339 0.0
O111 O 0.33688 0.24839 0.86131 0.0
Co112 Co 0.7941 0.08449 0.89613 0.0
O113 O 0.77438 0.06299 0.91258 0.0
O114 O 0.80047 0.06796 0.92004 0.0
C115 C 0.7839 0.08912 0.81364 0.0
O116 O 0.81766 0.10516 0.88121 0.0
Co117 Co 0.79127 0.11718 0.88685 0.0
O118 O 0.81415 0.12684 0.85367 0.0
C119 C 0.78798 0.10042 -0.00084 0.0
C120 C 0.78439 0.05732 0.92547 0.0
C121 C 0.82337 0.12022 0.86097 0.0
O122 O 0.79412 0.09161 0.97825 0.0
O123 O 0.78448 0.10988 0.96842 0.0
O124 O 0.791 0.07986 0.81253 0.0
O125 O 0.78241 0.09412 0.86377 0.0
Co126 Co 0.71736 0.93501 0.07723 0.0
O127 O 0.71618 0.95533 0.06871 0.0
O128 O 0.73806 0.95302 0.04253 0.0
C129 C 0.70692 0.92916 0.16762 0.0
O130 O 0.72318 0.91601 0.08078 0.0
Co131 Co 0.68448 0.90024 0.09966 0.0
O132 O 0.7009 0.89298 0.11914 0.0
C133 C 0.69076 0.91704 0.98638 0.0
C134 C 0.73113 0.9624 0.04613 0.0
C135 C 0.71619 0.90097 0.10231 0.0
O136 O 0.70635 0.92717 -0.00054 0.0
O137 O 0.67989 0.90667 0.02227 0.0
O138 O 0.72284 0.94 0.15988 0.0
O139 O 0.69806 0.9235 0.12164 0.0
Co140 Co 0.08952 0.78556 0.08974 0.0
O141 O 0.06928 0.76421 0.07858 0.0
O142 O 0.07138 0.78875 0.05909 0.0
C143 C 0.09572 0.77969 0.17761 0.0
O144 O 0.10858 0.81027 0.09828 0.0
Co145 Co 0.12395 0.78607 0.10432 0.0
O146 O 0.13219 0.80992 0.12448 0.0
C147 C 0.10588 0.77707 -0.00613 0.0
C148 C 0.06208 0.77237 0.05968 0.0
C149 C 0.12409 0.81765 0.11548 0.0
O150 O 0.09713 0.78384 0.00969 0.0
O151 O 0.11566 0.77494 0.02783 0.0
O152 O 0.08475 0.78469 0.17307 0.0
O153 O 0.10106 0.77703 0.12988 0.0
Co154 Co 0.24155 0.30794 0.09716 0.0
O155 O 0.26244 0.30857 0.08362 0.0
O156 O 0.23763 0.28653 0.06368 0.0
C157 C 0.24799 0.31916 0.18688 0.0
O158 O 0.21737 0.30356 0.10807 0.0
Co159 Co 0.24382 0.34288 0.11218 0.0
O160 O 0.22054 0.32822 0.14109 0.0
C161 C 0.24744 0.33189 -0.00328 0.0
C162 C 0.25402 0.29352 0.06251 0.0
C163 C 0.21146 0.3125 0.13031 0.0
O164 O 0.24274 0.31713 0.01717 0.0
O165 O 0.25011 0.34444 0.02842 0.0
O166 O 0.24223 0.30312 0.17927 0.0
O167 O 0.25132 0.32788 0.14007 0.0
Co168 Co 0.75669 0.63935 0.41896 0.0
O169 O 0.73434 0.63532 0.40305 0.0
O170 O 0.74301 0.61742 0.3817 0.0
C171 C 0.75835 0.64867 0.51064 0.0
O172 O 0.77891 0.63926 0.43101 0.0
Co173 Co 0.78535 0.67612 0.44626 0.0
O174 O 0.797 0.66405 0.4732 0.0
C175 C 0.77247 0.66675 0.32752 0.0
C176 C 0.73091 0.62097 0.38081 0.0
C177 C 0.79287 0.64912 0.45747 0.0
O178 O 0.76455 0.651 0.34158 0.0
O179 O 0.78011 0.67868 0.36417 0.0
O180 O 0.75071 0.63257 0.49995 0.0
O181 O 0.76307 0.65821 0.46571 0.0
Co182 Co 0.38556 0.12089 0.4269 0.0
O183 O 0.38403 0.09968 0.4097 0.0
O184 O 0.40749 0.12421 0.40195 0.0
C185 C 0.37059 0.11208 0.50946 0.0
O186 O 0.39141 0.14542 0.44273 0.0
Co187 Co 0.35192 0.12212 0.435 0.0
O188 O 0.36718 0.14462 0.46802 0.0
C189 C 0.36434 0.117 0.32368 0.0
C190 C 0.39982 0.10787 0.39577 0.0
C191 C 0.38316 0.15244 0.46218 0.0
O192 O 0.37908 0.12211 0.34505 0.0
O193 O 0.35164 0.1146 0.3539 0.0
O194 O 0.38666 0.11719 0.51018 0.0
O195 O 0.36431 0.11142 0.45947 0.0
Co196 Co 0.90502 0.27291 0.42981 0.0
O197 O 0.92414 0.29478 0.41499 0.0
O198 O 0.8978 0.288 0.39757 0.0
C199 C 0.91293 0.26959 0.51919 0.0
O200 O 0.88218 0.25133 0.44221 0.0
Co201 Co 0.91154 0.24287 0.44531 0.0
O202 O 0.88841 0.23217 0.47781 0.0
C203 C 0.91291 0.25638 0.32902 0.0
C204 C 0.91376 0.29935 0.39573 0.0
C205 C 0.8779 0.23706 0.4667 0.0
O206 O 0.90705 0.26548 0.34947 0.0
O207 O 0.91688 0.24748 0.36091 0.0
O208 O 0.90536 0.27825 0.51187 0.0
O209 O 0.91706 0.265 0.4722 0.0
Co210 Co 0.9811 0.41914 0.2263 0.0
O211 O 0.98114 0.39836 0.23634 0.0
O212 O 0.96045 0.40239 0.265 0.0
C213 C 0.99004 0.42313 0.13358 0.0
O214 O 0.97681 0.43909 0.22188 0.0
Co215 Co 1.01482 0.4521 0.19812 0.0
O216 O 0.99935 0.46066 0.17878 0.0
C217 C 1.00854 0.4376 0.31553 0.0
C218 C 0.96664 0.39235 0.2616 0.0
C219 C 0.98434 0.45385 0.19828 0.0
O220 O 0.99299 0.42736 0.30266 0.0
O221 O 0.0195 0.44737 0.27858 0.0
O222 O 0.97411 0.41345 0.1453 0.0
O223 O 0.99982 0.42889 0.17771 0.0
Co224 Co 0.60926 0.56437 0.22517 0.0
O225 O 0.6296 0.5855 0.23617 0.0
O226 O 0.62793 0.56091 0.24945 0.0
C227 C 0.60247 0.57205 0.14148 0.0
O228 O 0.58961 0.53987 0.21532 0.0
Co229 Co 0.5752 0.56489 0.22079 0.0
O230 O 0.56624 0.54138 0.19491 0.0
C231 C 0.59443 0.57147 0.32888 0.0
C232 C 0.63715 0.57733 0.25072 0.0
C233 C 0.57392 0.53309 0.20024 0.0
O234 O 0.60298 0.56512 0.30761 0.0
O235 O 0.58415 0.57406 0.29924 0.0
O236 O 0.61289 0.56628 0.14115 0.0
O237 O 0.59771 0.57393 0.19157 0.0
Co238 Co 0.46149 0.04856 0.23819 0.0
O239 O 0.4421 0.05133 0.24839 0.0
O240 O 0.46788 0.06983 0.27671 0.0
C241 C 0.45582 0.03969 0.14526 0.0
O242 O 0.48476 0.05047 0.23425 0.0
Co243 Co 0.45769 0.01362 0.20889 0.0
O244 O 0.48211 0.0273 0.19074 0.0
C245 C 0.45041 0.0206 0.32691 0.0
C246 C 0.45209 0.06565 0.27314 0.0
C247 C 0.49113 0.04212 0.21104 0.0
O248 O 0.45661 0.03634 0.31446 0.0
O249 O 0.44851 1.00946 0.2896 0.0
O250 O 0.46353 0.05574 0.15706 0.0
O251 O 0.45095 0.02984 0.18937 0.0
Co252 Co 0.60928 0.04483 0.23151 0.0
O253 O 0.6301 0.0452 0.24455 0.0
O254 O 0.62557 0.06578 0.27037 0.0
C255 C 0.60596 0.03573 0.13939 0.0
O256 O 0.58887 0.04832 0.2223 0.0
Co257 Co 0.5775 1.00981 0.20414 0.0
O258 O 0.56849 0.02455 0.18016 0.0
C259 C 0.59133 0.01757 0.32191 0.0
C260 C 0.63577 0.05973 0.26912 0.0
C261 C 0.57446 0.03977 0.19668 0.0
O262 O 0.6007 0.03321 0.30816 0.0
O263 O 0.58241 1.00603 0.2853 0.0
O264 O 0.61547 0.05171 0.15073 0.0
O265 O 0.60037 0.02603 0.18376 0.0
Co266 Co 0.97893 0.56741 0.23046 0.0
O267 O 0.97712 0.58695 0.24799 0.0
O268 O 0.95603 0.56077 0.25513 0.0
C269 C 0.99361 0.5779 0.14798 0.0
O270 O 0.97624 0.54406 0.21433 0.0
Co271 Co 1.01469 0.57078 0.22006 0.0
O272 O 1.00151 0.54808 0.18536 0.0
C273 C 1.00116 0.57337 0.33304 0.0
C274 C 0.96146 0.57683 0.2612 0.0
C275 C 0.98569 0.53866 0.19285 0.0
O276 O 0.98617 0.5672 0.31222 0.0
O277 O 1.01415 0.57714 0.30213 0.0
O278 O 0.97722 0.57069 0.14713 0.0
O279 O 1.0002 0.57935 0.19791 0.0
Co280 Co 0.45431 0.41863 0.23208 0.0
O281 O 0.43288 0.39842 0.24411 0.0
O282 O 0.45738 0.40098 0.26762 0.0
C283 C 0.44782 0.42275 0.14208 0.0
O284 O 0.47918 0.43749 0.22575 0.0
Co285 Co 0.45711 0.4532 0.20325 0.0
O286 O 0.48075 0.46028 0.18297 0.0
C287 C 0.44775 0.43849 0.32086 0.0
C288 C 0.44103 0.39156 0.26598 0.0
C289 C 0.48771 0.45227 0.20265 0.0
O290 O 0.4521 0.42743 0.30913 0.0
O291 O 0.4475 0.44862 0.28326 0.0
O292 O 0.4539 0.41275 0.15002 0.0
O293 O 0.44563 0.42939 0.1875 0.0
Co294 Co 0.38518 0.26944 0.4157 0.0
O295 O 0.38547 0.2902 0.39708 0.0
O296 O 0.40679 0.28587 0.38252 0.0
C297 C 0.37297 0.26685 0.50234 0.0
O298 O 0.39012 0.25011 0.42944 0.0
Co299 Co 0.35264 0.23557 0.44783 0.0
O300 O 0.36858 0.22855 0.47587 0.0
C301 C 0.3596 0.24843 0.3269 0.0
C302 C 0.40084 0.29609 0.37923 0.0
C303 C 0.38356 0.23584 0.4562 0.0
O304 O 0.37495 0.25983 0.33844 0.0
O305 O 0.34896 0.23891 0.36504 0.0
O306 O 0.38929 0.27624 0.49769 0.0
O307 O 0.36506 0.25968 0.45599 0.0
Co308 Co 0.75652 0.12328 0.42557 0.0
O309 O 0.73486 0.10349 0.41289 0.0
O310 O 0.74011 0.12958 0.40056 0.0
C311 C 0.76168 0.11411 0.50949 0.0
O312 O 0.77723 0.14692 0.43512 0.0
Co313 Co 0.78945 0.12103 0.43623 0.0
O314 O 0.79927 0.14444 0.46503 0.0
C315 C 0.7722 0.11622 0.32369 0.0
C316 C 0.72932 0.11349 0.39799 0.0
C317 C 0.79243 0.15331 0.45436 0.0
O318 O 0.76299 0.12203 0.34366 0.0
O319 O 0.78213 0.11352 0.35502 0.0
O320 O 0.75258 0.12139 0.50974 0.0
O321 O 0.7664 0.11205 0.45963 0.0
Co322 Co 0.90924 0.64597 0.41621 0.0
O323 O 0.93017 0.64632 0.40551 0.0
O324 O 0.90529 0.62424 0.38647 0.0
C325 C 0.91621 0.65876 0.50309 0.0
O326 O 0.88485 0.64131 0.42315 0.0
Co327 Co 0.90976 0.68039 0.43088 0.0
O328 O 0.88587 0.66531 0.45265 0.0
C329 C 0.91838 0.67071 0.32075 0.0
C330 C 0.92163 0.63097 0.38676 0.0
C331 C 0.87771 0.64958 0.44101 0.0
O332 O 0.91117 0.65514 0.33628 0.0
O333 O 0.92097 0.68281 0.35454 0.0
O334 O 0.91015 0.64252 0.50006 0.0
O335 O 0.91862 0.66631 0.45463 0.0
Co336 Co 0.42356 0.97827 0.7577 0.0
O337 O 0.4026 0.97779 0.74448 0.0
O338 O 0.40723 0.95721 0.7197 0.0
C339 C 0.42705 0.98771 0.84992 0.0
O340 O 0.44375 0.9744 0.76654 0.0
Co341 Co 0.45587 0.01278 0.78504 0.0
O342 O 0.46473 0.99783 0.80807 0.0
C343 C 0.4418 1.00545 0.66723 0.0
C344 C 0.39693 0.96312 0.72074 0.0
C345 C 0.45832 0.98258 0.79132 0.0
O346 O 0.43212 0.9898 0.68063 0.0
O347 O 0.451 0.01677 0.7041 0.0
O348 O 0.41749 0.97171 0.83891 0.0
O349 O 0.43276 0.99727 0.80522 0.0
Co350 Co 0.05062 0.45165 0.74539 0.0
O351 O 0.04985 0.43044 0.73546 0.0
O352 O 0.07111 0.45486 0.70712 0.0
C353 C 0.04156 0.44694 0.83801 0.0
O354 O 0.0556 0.47619 0.75005 0.0
Co355 Co 0.01726 0.45169 0.77285 0.0
O356 O 0.0332 0.47559 0.79284 0.0
C357 C 0.02349 0.44342 0.65558 0.0
C358 C 0.06444 0.43854 0.7106 0.0
C359 C 0.04828 0.48361 0.7738 0.0
O360 O 0.03895 0.44839 0.66876 0.0
O361 O 1.01256 0.44237 0.69231 0.0
O362 O 0.05743 0.45273 0.82655 0.0
O363 O 0.03187 0.4431 0.79371 0.0
Co364 Co 0.57911 0.60901 0.75485 0.0
O365 O 0.59966 0.62951 0.73927 0.0
O366 O 0.57443 0.62657 0.72781 0.0
C367 C 0.58806 0.60385 0.83881 0.0
O368 O 0.55508 0.58917 0.76862 0.0
Co369 Co 0.58053 0.57552 0.76616 0.0
O370 O 0.55771 0.56712 0.7986 0.0
C371 C 0.58466 0.59209 0.6532 0.0
C372 C 0.59074 0.63616 0.72335 0.0
C373 C 0.54895 0.57418 0.78999 0.0
O374 O 0.57912 0.60147 0.67353 0.0
O375 O 0.5876 0.58231 0.68442 0.0
O376 O 0.58172 0.61379 0.83843 0.0
O377 O 0.58964 0.59858 0.78934 0.0
Co378 Co 0.64681 0.75642 0.56284 0.0
O379 O 0.64457 0.73463 0.57485 0.0
O380 O 0.62399 0.74016 0.58836 0.0
C381 C 0.66099 0.76145 0.47877 0.0
O382 O 0.64458 0.7776 0.55392 0.0
Co383 Co 0.68268 0.78866 0.55375 0.0
O384 O 0.66973 0.79924 0.52579 0.0
C385 C 0.66979 0.77066 0.66456 0.0
C386 C 0.62914 0.72925 0.59074 0.0
C387 C 0.65402 0.79286 0.53555 0.0
O388 O 0.65465 0.76251 0.64466 0.0
O389 O 0.68264 0.78028 0.63356 0.0
O390 O 0.64457 0.75261 0.47862 0.0
O391 O 0.66784 0.76592 0.52863 0.0
Co392 Co 0.27621 0.89612 0.56312 0.0
O393 O 0.29807 0.91607 0.57128 0.0
O394 O 0.29254 0.89045 0.59461 0.0
C395 C 0.27084 0.90201 0.47288 0.0
O396 O 0.25507 0.87251 0.55961 0.0
Co397 Co 0.24449 0.89985 0.54964 0.0
O398 O 0.23361 0.87568 0.52751 0.0
C399 C 0.26047 0.90478 0.66396 0.0
C400 C 0.30348 0.90652 0.5922 0.0
C401 C 0.23982 0.86642 0.54104 0.0
O402 O 0.27011 0.89955 0.64365 0.0
O403 O 0.25032 0.90712 0.63245 0.0
O404 O 0.27998 0.89494 0.48026 0.0
O405 O 0.26666 0.90658 0.51977 0.0
Co406 Co 0.12651 0.37862 0.56213 0.0
O407 O 0.10665 0.3805 0.57433 0.0
O408 O 0.13272 0.40125 0.5879 0.0
C409 C 0.11836 0.36476 0.47712 0.0
O410 O 0.15025 0.38171 0.55204 0.0
Co411 Co 0.12377 0.34315 0.55391 0.0
O412 O 0.14738 0.35659 0.52696 0.0
C413 C 0.11653 0.35501 0.66185 0.0
C414 C 0.11665 0.39603 0.58966 0.0
C415 C 0.15634 0.37248 0.53424 0.0
O416 O 0.12471 0.3704 0.64402 0.0
O417 O 0.11308 0.34233 0.62977 0.0
O418 O 0.12506 0.38111 0.47804 0.0
O419 O 0.11564 0.35763 0.52666 0.0
Co420 Co 0.27936 0.38475 0.56626 0.0
O421 O 0.29997 0.38437 0.57504 0.0
O422 O 0.29698 0.40598 0.59982 0.0
C423 C 0.27383 0.37408 0.47562 0.0
O424 O 0.25935 0.38897 0.562 0.0
Co425 Co 0.24642 0.35016 0.5507 0.0
O426 O 0.23734 0.36495 0.52777 0.0
C427 C 0.26182 0.36027 0.66586 0.0
C428 C 0.3066 0.39927 0.59757 0.0
C429 C 0.24415 0.38045 0.54206 0.0
O430 O 0.27227 0.37497 0.64589 0.0
O431 O 0.25133 0.34807 0.634 0.0
O432 O 0.28391 0.39012 0.48393 0.0
O433 O 0.26884 0.36506 0.52191 0.0
Co434 Co 0.65012 0.90711 0.55594 0.0
O435 O 0.64613 0.92536 0.57235 0.0
O436 O 0.62756 0.89856 0.58825 0.0
C437 C 0.66153 0.91697 0.46873 0.0
O438 O 0.6498 0.88473 0.54218 0.0
Co439 Co 0.68685 0.91444 0.53282 0.0
O440 O 0.67476 0.89105 0.50268 0.0
C441 C 0.67609 0.9179 0.64974 0.0
C442 C 0.6313 0.91427 0.59076 0.0
C443 C 0.65959 0.88043 0.51645 0.0
O444 O 0.66043 0.90981 0.63475 0.0
O445 O 0.68828 0.9223 0.61417 0.0
O446 O 0.64521 0.90786 0.47362 0.0
O447 O 0.66995 0.92034 0.51577 0.0
Co448 Co 0.12255 0.75113 0.56956 0.0
O449 O 0.10242 0.7307 0.59031 0.0
O450 O 0.12803 0.73544 0.60874 0.0
C451 C 0.11342 0.75187 0.4804 0.0
O452 O 0.14639 0.77112 0.55247 0.0
Co453 Co 0.12003 0.78281 0.53455 0.0
O454 O 0.14311 0.79085 0.50541 0.0
C455 C 0.11559 0.77144 0.65592 0.0
C456 C 0.11179 0.7253 0.61246 0.0
C457 C 0.15231 0.78498 0.52319 0.0
O458 O 0.12136 0.76148 0.64465 0.0
O459 O 0.11285 0.77976 0.61723 0.0
O460 O 0.12076 0.74307 0.48971 0.0
O461 O 0.11131 0.75904 0.52449 0.0
Co462 Co 0.05493 0.60356 0.76041 0.0
O463 O 0.05688 0.62517 0.74622 0.0
O464 O 0.07779 0.62002 0.73559 0.0
C465 C 0.0405 0.59886 0.84377 0.0
O466 O 0.05758 0.5827 0.77289 0.0
Co467 Co 0.01923 0.57103 0.7705 0.0
O468 O 0.03242 0.56107 0.80131 0.0
C469 C 0.03229 0.58799 0.65816 0.0
C470 C 0.0725 0.63081 0.73232 0.0
C471 C 0.04821 0.56759 0.79271 0.0
O472 O 0.04735 0.59679 0.67845 0.0
O473 O 0.01945 0.57845 0.68931 0.0
O474 O 0.0569 0.60792 0.84425 0.0
O475 O 0.03377 0.594 0.79387 0.0
Co476 Co 0.42792 0.46085 0.75198 0.0
O477 O 0.40585 0.44107 0.74347 0.0
O478 O 0.41201 0.46698 0.72097 0.0
C479 C 0.43337 0.45458 0.84073 0.0
O480 O 0.44883 0.48454 0.75553 0.0
Co481 Co 0.46052 0.45832 0.76858 0.0
O482 O 0.47115 0.48269 0.78652 0.0
C483 C 0.4421 0.4492 0.65796 0.0
C484 C 0.40079 0.45102 0.72328 0.0
C485 C 0.46421 0.49129 0.77317 0.0
O486 O 0.43408 0.45686 0.6724 0.0
O487 O 0.45168 0.44694 0.69256 0.0
O488 O 0.42407 0.46157 0.83555 0.0
O489 O 0.43776 0.45065 0.79336 0.0
Co490 Co 0.57223 0.97623 0.75075 0.0
O491 O 0.59339 0.97695 0.7429 0.0
O492 O 0.56921 0.95591 0.71161 0.0
C493 C 0.57639 0.98476 0.84374 0.0
O494 O 0.54779 0.97153 0.75291 0.0
Co495 Co 0.57253 1.00974 0.77864 0.0
O496 O 0.54838 0.99396 0.79552 0.0
C497 C 0.58154 1.00389 0.66209 0.0
C498 C 0.58549 0.96256 0.71669 0.0
C499 C 0.54037 0.97899 0.77556 0.0
O500 O 0.57629 0.98836 0.67489 0.0
O501 O 0.58242 0.01474 0.69886 0.0
O502 O 0.57043 0.96891 0.83148 0.0
O503 O 0.58058 0.99471 0.80001 0.0
H504 H 0.14681 0.31176 0.20763 0.0
H505 H 0.13354 0.29815 0.02951 0.0
H506 H 0.15728 0.29317 0.01834 0.0
H507 H 0.18497 0.29825 0.05499 0.0
H508 H 0.19783 0.31201 0.2333 0.0
H509 H 0.17093 0.31078 0.24933 0.0
C510 C 0.14882 0.30718 0.16692 0.0
C511 C 0.13858 0.30549 0.11935 0.0
C512 C 0.16253 0.30443 0.16084 0.0
C513 C 0.14123 0.29948 0.06685 0.0
C514 C 0.15491 0.29677 0.06032 0.0
C515 C 0.18148 0.30017 0.09786 0.0
C516 C 0.19332 0.30518 0.143 0.0
C517 C 0.1661 0.29993 0.10638 0.0
C518 C 0.18884 0.30802 0.19811 0.0
C519 C 0.17355 0.30753 0.20711 0.0
H520 H 0.7307 0.84341 0.04399 0.0
H521 H 0.71711 0.83237 0.22324 0.0
H522 H 0.71962 0.85997 0.23622 0.0
H523 H 0.71935 0.88407 0.19164 0.0
H524 H 0.73141 0.89491 0.01151 0.0
H525 H 0.73617 0.87091 0.00368 0.0
C526 C 0.72904 0.84742 0.08634 0.0
C527 C 0.7238 0.83596 0.13277 0.0
C528 C 0.72989 0.86316 0.09292 0.0
C529 C 0.72128 0.84107 0.18715 0.0
C530 C 0.72255 0.85678 0.19441 0.0
C531 C 0.7237 0.88156 0.15129 0.0
C532 C 0.725 0.89116 0.10222 0.0
C533 C 0.72593 0.86751 0.14694 0.0
C534 C 0.73051 0.88779 0.05001 0.0
C535 C 0.73301 0.87391 0.04541 0.0
H536 H 0.13667 0.84333 0.03733 0.0
H537 H 0.13423 0.83239 0.21899 0.0
H538 H 0.15892 0.86001 0.23676 0.0
H539 H 0.18465 0.88404 0.19725 0.0
H540 H 0.18763 0.89528 0.01581 0.0
H541 H 0.15931 0.87104 0.00108 0.0
C542 C 0.14107 0.8474 0.08104 0.0
C543 C 0.13364 0.83593 0.12692 0.0
C544 C 0.15566 0.8632 0.09068 0.0
C545 C 0.13967 0.84113 0.18325 0.0
C546 C 0.15393 0.85683 0.19329 0.0
C547 C 0.17877 0.88155 0.155 0.0
C548 C 0.18813 0.89133 0.10767 0.0
C549 C 0.16258 0.86752 0.14692 0.0
C550 C 0.18054 0.88798 0.05294 0.0
C551 C 0.16441 0.87401 0.04444 0.0
H552 H 0.32169 0.14176 0.78361 0.0
H553 H 0.30027 0.12582 0.95308 0.0
H554 H 0.29771 0.15111 0.96278 0.0
H555 H 0.30651 0.18025 0.92923 0.0
H556 H 0.32868 0.19587 0.7603 0.0
H557 H 0.32554 0.16817 0.74338 0.0
C558 C 0.31592 0.14357 0.82181 0.0
C559 C 0.31122 0.13202 0.86756 0.0
C560 C 0.31478 0.15823 0.82734 0.0
C561 C 0.30381 0.13447 0.91699 0.0
C562 C 0.30254 0.14904 0.92279 0.0
C563 C 0.31008 0.17732 0.88806 0.0
C564 C 0.31793 0.19009 0.84613 0.0
C565 C 0.30866 0.16139 0.87919 0.0
C566 C 0.3227 0.18625 0.79323 0.0
C567 C 0.321 0.17044 0.78365 0.0
H568 H 0.85052 0.13069 0.93304 0.0
H569 H 0.83641 0.13539 0.75954 0.0
H570 H 0.864 0.1603 0.74387 0.0
H571 H 0.88945 0.1838 0.78595 0.0
H572 H 0.90368 0.18032 0.96026 0.0
H573 H 0.87907 0.15189 0.9691 0.0
C574 C 0.85381 0.13679 0.89114 0.0
C575 C 0.84147 0.13122 0.84738 0.0
C576 C 0.86963 0.15155 0.88303 0.0
C577 C 0.84574 0.13942 0.79366 0.0
C578 C 0.86146 0.15376 0.78487 0.0
C579 C 0.88749 0.17653 0.8251 0.0
C580 C 0.89831 0.18413 0.8724 0.0
C581 C 0.87314 0.16042 0.83015 0.0
C582 C 0.89562 0.17466 0.92304 0.0
C583 C 0.88141 0.15848 0.9283 0.0
H584 H 0.84324 0.70982 0.77571 0.0
H585 H 0.8454 0.7237 0.95436 0.0
H586 H 0.87439 0.72906 0.96115 0.0
H587 H 0.89658 0.72389 0.92095 0.0
H588 H 0.89337 0.709 0.74285 0.0
H589 H 0.86772 0.71049 0.73046 0.0
C590 C 0.85029 0.71458 0.81555 0.0
C591 C 0.84218 0.71621 0.86457 0.0
C592 C 0.86678 0.71732 0.81927 0.0
C593 C 0.85142 0.72243 0.91595 0.0
C594 C 0.86795 0.72532 0.91996 0.0
C595 C 0.89065 0.72171 0.87888 0.0
C596 C 0.8968 0.71626 0.83287 0.0
C597 C 0.87546 0.722 0.87262 0.0
C598 C 0.88885 0.7132 0.77881 0.0
C599 C 0.87408 0.71389 0.77187 0.0
H600 H 0.85917 0.65093 0.52834 0.0
H601 H 0.85491 0.63138 0.35647 0.0
H602 H 0.82612 0.62664 0.3488 0.0
H603 H 0.80443 0.63327 0.38512 0.0
H604 H 0.80995 0.65379 0.55645 0.0
H605 H 0.83565 0.65259 0.57081 0.0
C606 C 0.85169 0.64507 0.49001 0.0
C607 C 0.85911 0.64154 0.44305 0.0
C608 C 0.83539 0.64279 0.48558 0.0
C609 C 0.84937 0.63403 0.39345 0.0
C610 C 0.83299 0.63153 0.38883 0.0
C611 C 0.81098 0.63691 0.42617 0.0
C612 C 0.80541 0.64379 0.46949 0.0
C613 C 0.82614 0.6366 0.43369 0.0
C614 C 0.81409 0.64861 0.52233 0.0
C615 C 0.82884 0.64799 0.53051 0.0
H616 H 0.39836 0.179 0.38812 0.0
H617 H 0.38516 0.16605 0.56665 0.0
H618 H 0.38726 0.1933 0.58409 0.0
H619 H 0.38612 0.21746 0.54306 0.0
H620 H 0.3989 0.2306 0.36439 0.0
H621 H 0.40393 0.20693 0.35244 0.0
C622 C 0.39683 0.18256 0.43139 0.0
C623 C 0.39168 0.17059 0.47618 0.0
C624 C 0.3975 0.19812 0.44062 0.0
C625 C 0.38931 0.17515 0.53178 0.0
C626 C 0.39027 0.19064 0.54154 0.0
C627 C 0.39063 0.21549 0.50214 0.0
C628 C 0.39198 0.22563 0.45458 0.0
C629 C 0.39333 0.20176 0.49553 0.0
C630 C 0.39785 0.22301 0.40174 0.0
C631 C 0.40056 0.20935 0.39475 0.0
H632 H 0.84974 0.2266 0.39929 0.0
H633 H 0.86647 0.21985 0.56596 0.0
H634 H 0.83953 0.19421 0.5817 0.0
H635 H 0.81378 0.17102 0.54027 0.0
H636 H 0.79669 0.17677 0.37324 0.0
H637 H 0.82091 0.20546 0.3656 0.0
C638 C 0.84719 0.21982 0.43981 0.0
C639 C 0.86011 0.22498 0.4812 0.0
C640 C 0.83171 0.20471 0.44801 0.0
C641 C 0.85674 0.21601 0.53334 0.0
C642 C 0.84138 0.20129 0.54225 0.0
C643 C 0.81509 0.17879 0.50308 0.0
C644 C 0.8036 0.17181 0.45726 0.0
C645 C 0.82914 0.19509 0.49872 0.0
C646 C 0.80535 0.18194 0.40925 0.0
C647 C 0.81931 0.19829 0.40463 0.0
H648 H 0.96998 0.51142 0.26458 0.0
H649 H 0.98725 0.52606 0.08985 0.0
H650 H 0.98514 0.49881 0.07229 0.0
H651 H 0.98422 0.47367 0.11264 0.0
H652 H 0.96808 0.45899 0.28815 0.0
H653 H 0.96361 0.4831 0.2994 0.0
C654 C 0.97256 0.5083 0.22206 0.0
C655 C 0.97874 0.52068 0.17843 0.0
C656 C 0.97189 0.49272 0.21289 0.0
C657 C 0.9824 0.51667 0.12385 0.0
C658 C 0.98135 0.50115 0.11399 0.0
C659 C 0.97919 0.47546 0.15272 0.0
C660 C 0.97663 0.4647 0.19963 0.0
C661 C 0.977 0.48949 0.15906 0.0
C662 C 0.97006 0.46706 0.25132 0.0
C663 C 0.96769 0.48097 0.25791 0.0
H664 H 0.55983 0.50728 0.27771 0.0
H665 H 0.5631 0.51872 0.0963 0.0
H666 H 0.53697 0.49228 0.07848 0.0
H667 H 0.51029 0.46943 0.11793 0.0
H668 H 0.50667 0.45759 0.29907 0.0
H669 H 0.53577 0.48038 0.31371 0.0
C670 C 0.55526 0.50351 0.23396 0.0
C671 C 0.56347 0.51485 0.18822 0.0
C672 C 0.53987 0.4884 0.2243 0.0
C673 C 0.55716 0.51006 0.13194 0.0
C674 C 0.54206 0.49505 0.1219 0.0
C675 C 0.51612 0.47146 0.16015 0.0
C676 C 0.50635 0.46192 0.20739 0.0
C677 C 0.53284 0.48462 0.16818 0.0
C678 C 0.51399 0.46467 0.26195 0.0
C679 C 0.53059 0.47784 0.27042 0.0
H680 H 0.56234 0.05336 0.27554 0.0
H681 H 0.56096 0.04106 0.09536 0.0
H682 H 0.53579 0.04331 0.08143 0.0
H683 H 0.51126 0.04312 0.12441 0.0
H684 H 0.51192 0.05522 0.30426 0.0
H685 H 0.54021 0.05887 0.31457 0.0
C686 C 0.5569 0.05189 0.23288 0.0
C687 C 0.56343 0.047 0.18651 0.0
C688 C 0.54204 0.05275 0.22548 0.0
C689 C 0.55612 0.04484 0.13158 0.0
C690 C 0.54163 0.04596 0.12371 0.0
C691 C 0.51784 0.04706 0.16539 0.0
C692 C 0.50953 0.04876 0.21358 0.0
C693 C 0.534 0.04903 0.17091 0.0
C694 C 0.51815 0.05392 0.26648 0.0
C695 C 0.53426 0.05586 0.27246 0.0
H696 H 0.47023 0.96931 0.7105 0.0
H697 H 0.471 0.97964 0.89226 0.0
H698 H 0.49528 0.97585 0.90586 0.0
H699 H 0.5196 0.9757 0.86283 0.0
H700 H 0.52003 0.96641 0.68094 0.0
H701 H 0.49199 0.96337 0.67048 0.0
C702 C 0.47532 0.97002 0.75333 0.0
C703 C 0.46888 0.97477 0.80039 0.0
C704 C 0.48974 0.96834 0.76054 0.0
C705 C 0.47576 0.97597 0.85553 0.0
C706 C 0.48973 0.97394 0.86324 0.0
C707 C 0.51323 0.97234 0.82136 0.0
C708 C 0.52182 0.97131 0.77275 0.0
C709 C 0.49734 0.97101 0.81563 0.0
C710 C 0.51356 0.96708 0.71911 0.0
C711 C 0.49761 0.96556 0.71304 0.0
H712 H 0.0627 0.55609 0.71566 0.0
H713 H 0.04783 0.55296 0.89368 0.0
H714 H 0.04982 0.52759 0.90677 0.0
H715 H 0.0499 0.50336 0.86248 0.0
H716 H 0.06364 0.50533 0.68379 0.0
H717 H 0.06828 0.53407 0.67598 0.0
C718 C 0.06064 0.55023 0.75782 0.0
C719 C 0.05519 0.55639 0.80381 0.0
C720 C 0.06124 0.5352 0.76448 0.0
C721 C 0.05215 0.54848 0.85791 0.0
C722 C 0.05312 0.53388 0.86522 0.0
C723 C 0.0545 0.51034 0.82241 0.0
C724 C 0.05635 0.50225 0.77373 0.0
C725 C 0.05678 0.52666 0.8181 0.0
C726 C 0.06227 0.51136 0.72199 0.0
C727 C 0.06472 0.52773 0.71739 0.0
H728 H 0.48313 0.51055 0.86137 0.0
H729 H 0.47052 0.51314 0.68415 0.0
H730 H 0.49475 0.54183 0.67621 0.0
H731 H 0.52263 0.56354 0.71489 0.0
H732 H 0.53504 0.56002 0.89181 0.0
H733 H 0.50761 0.53473 0.90556 0.0
C734 C 0.48539 0.51766 0.82169 0.0
C735 C 0.47521 0.50981 0.77334 0.0
C736 C 0.49941 0.534 0.81743 0.0
C737 C 0.47818 0.51904 0.72202 0.0
C738 C 0.49213 0.53537 0.71738 0.0
C739 C 0.51895 0.55765 0.75706 0.0
C740 C 0.53078 0.5636 0.80239 0.0
C741 C 0.50329 0.54268 0.76407 0.0
C742 C 0.52606 0.55568 0.85652 0.0
C743 C 0.51046 0.54111 0.86419 0.0
H744 H 0.6412 0.85259 0.58539 0.0
H745 H 0.66581 0.86816 0.41987 0.0
H746 H 0.66333 0.84065 0.40634 0.0
H747 H 0.65901 0.81437 0.44886 0.0
H748 H 0.63519 0.79838 0.615 0.0
H749 H 0.6322 0.82353 0.62074 0.0
C750 C 0.64551 0.84972 0.54568 0.0
C751 C 0.65389 0.86248 0.50398 0.0
C752 C 0.64441 0.83385 0.53869 0.0
C753 C 0.65952 0.85863 0.45286 0.0
C754 C 0.65815 0.84291 0.44514 0.0
C755 C 0.65267 0.81614 0.48545 0.0
C756 C 0.6474 0.80463 0.53149 0.0
C757 C 0.65135 0.83074 0.48885 0.0
C758 C 0.6392 0.80701 0.57875 0.0
C759 C 0.63769 0.82151 0.58231 0.0
H760 H 0.17858 0.79545 0.59984 0.0
H761 H 0.1669 0.7997 0.42253 0.0
H762 H 0.19481 0.8243 0.40929 0.0
H763 H 0.22006 0.84768 0.45315 0.0
H764 H 0.23225 0.84428 0.6302 0.0
H765 H 0.20691 0.81633 0.63857 0.0
C766 C 0.18244 0.80138 0.55779 0.0
C767 C 0.17064 0.79582 0.51227 0.0
C768 C 0.19851 0.81593 0.55082 0.0
C769 C 0.17573 0.80378 0.45822 0.0
C770 C 0.19166 0.81794 0.45072 0.0
C771 C 0.21745 0.84053 0.49291 0.0
C772 C 0.22794 0.84799 0.54098 0.0
C773 C 0.20279 0.82462 0.49744 0.0
C774 C 0.22444 0.83869 0.59242 0.0
C775 C 0.20983 0.82279 0.59735 0.0
H776 H 0.22391 0.37893 0.45555 0.0
H777 H 0.23806 0.3966 0.62994 0.0
H778 H 0.21256 0.39875 0.64064 0.0
H779 H 0.18348 0.38987 0.60605 0.0
H780 H 0.16948 0.3709 0.43266 0.0
H781 H 0.19766 0.37533 0.41526 0.0
C782 C 0.22171 0.38388 0.49512 0.0
C783 C 0.23279 0.38757 0.54189 0.0
C784 C 0.20684 0.38459 0.50132 0.0
C785 C 0.22981 0.39387 0.59309 0.0
C786 C 0.21508 0.39486 0.59944 0.0
C787 C 0.18688 0.38735 0.56389 0.0
C788 C 0.17446 0.38005 0.5206 0.0
C789 C 0.20308 0.38944 0.55475 0.0
C790 C 0.17887 0.37654 0.46646 0.0
C791 C 0.19494 0.37896 0.45663 0.0
H792 H 0.04277 0.30066 0.02647 0.0
H793 H 0.05156 0.25882 0.01061 0.0
H794 H 0.02269 0.24091 0.97491 0.0
H795 H 0.99463 0.23725 0.9477 0.0
H796 H 0.98726 0.28012 0.96177 0.0
H797 H 1.01566 0.29731 -0.0012 0.0
C798 C 0.03842 0.28763 0.01523 0.0
C799 C 0.04935 0.28113 0.02134 0.0
C800 C 0.02192 0.27749 -0.00558 0.0
C801 C 0.04344 0.26419 0.00626 0.0
C802 C 0.0269 0.25392 0.98594 0.0
C803 C 0.99927 0.25033 0.95909 0.0
C804 C 0.98876 0.25734 0.95174 0.0
C805 C 1.01596 0.26042 0.97983 0.0
C806 C 0.99504 0.27436 0.96643 0.0
C807 C 1.01133 0.28427 0.98779 0.0
H808 H 0.79186 0.75687 0.96952 0.0
H809 H 0.74586 0.70866 0.96206 0.0
H810 H 0.73013 0.7211 0.00233 0.0
H811 H 0.72896 0.74543 0.0379 0.0
H812 H 0.77404 0.79428 0.04303 0.0
H813 H 0.79053 0.78189 0.00568 0.0
C814 C 0.77842 0.74912 0.97697 0.0
C815 C 0.77009 0.73182 0.96261 0.0
C816 C 0.76923 0.75646 -0.00034 0.0
C817 C 0.75263 0.722 0.97228 0.0
C818 C 0.74358 0.72909 -0.00453 0.0
C819 C 0.74242 0.75342 0.03118 0.0
C820 C 0.75023 0.77076 0.04352 0.0
C821 C 0.75169 0.74628 0.00903 0.0
C822 C 0.76768 0.78088 0.03397 0.0
C823 C 0.77711 0.77379 0.01258 0.0
H824 H 0.23925 0.98443 0.0271 0.0
H825 H 0.28542 0.98338 0.05225 0.0
H826 H 0.3016 1.01139 0.01118 0.0
H827 H 0.30303 0.03613 0.96749 0.0
H828 H 0.25783 0.03895 0.94492 0.0
H829 H 0.24095 1.01043 0.98544 0.0
C830 C 0.25285 0.99039 0.02371 0.0
C831 C 0.26105 0.9817 0.0428 0.0
C832 C 0.26228 1.00682 0.00031 0.0
C833 C 0.27871 0.98967 0.03823 0.0
C834 C 0.28803 1.00574 0.01452 0.0
C835 C 0.28946 0.03053 0.97113 0.0
C836 C 0.28169 0.03961 0.95266 0.0
C837 C 0.27998 0.01439 -0.00475 0.0
C838 C 0.26412 0.03221 0.95865 0.0
C839 C 0.25448 0.0159 0.98183 0.0
H840 H 0.98879 0.72062 0.97199 0.0
H841 H 0.98509 0.76556 0.95748 0.0
H842 H 1.01407 0.78257 -0.00611 0.0
H843 H 0.04091 0.78457 0.02846 0.0
H844 H 0.04316 0.73873 0.04329 0.0
H845 H 1.01447 0.72235 0.00816 0.0
C846 C 0.99425 0.73415 0.9768 0.0
C847 C 0.98475 0.74178 0.96173 0.0
C848 C 1.0108 0.74376 -0.00222 0.0
C849 C 0.99208 0.75932 0.96879 0.0
C850 C 1.00869 0.76906 0.98947 0.0
C851 C 0.03509 0.771 0.02399 0.0
C852 C 0.04433 0.76297 0.03853 0.0
C853 C 0.01826 0.76143 0.00386 0.0
C854 C 0.03649 0.74534 0.03267 0.0
C855 C 0.02001 0.73589 0.01245 0.0
H856 H 0.30616 0.27605 0.95212 0.0
H857 H 0.26393 0.22532 0.9578 0.0
H858 H 0.24612 0.23587 -0.00195 0.0
H859 H 0.24289 0.25998 0.03389 0.0
H860 H 0.28643 0.31014 0.02906 0.0
H861 H 0.30318 0.29933 0.98638 0.0
C862 C 0.29304 0.26722 0.96187 0.0
C863 C 0.28643 0.24991 0.95181 0.0
C864 C 0.28303 0.27332 0.98549 0.0
C865 C 0.26939 0.23873 0.96513 0.0
C866 C 0.25919 0.24477 0.98817 0.0
C867 C 0.25602 0.26848 0.02329 0.0
C868 C 0.26333 0.28588 0.03518 0.0
C869 C 0.2659 0.2621 -0.0011 0.0
C870 C 0.28041 0.2967 0.02115 0.0
C871 C 0.29008 0.29055 -0.00354 0.0
H872 H 0.75238 0.03575 0.95899 0.0
H873 H 0.80084 0.03927 0.94065 0.0
H874 H 0.78882 1.01014 0.97544 0.0
H875 H 0.76415 0.98341 0.01136 0.0
H876 H 0.7163 0.98131 0.0318 0.0
H877 H 0.72846 1.00999 -0.00394 0.0
C878 C 0.76036 0.03019 0.96239 0.0
C879 C 0.77749 0.03971 0.94683 0.0
C880 C 0.75343 0.01358 0.98299 0.0
C881 C 0.78762 0.03226 0.95222 0.0
C882 C 0.78073 0.01557 0.97211 0.0
C883 C 0.75642 0.98925 0.00791 0.0
C884 C 0.73927 0.98008 0.02429 0.0
C885 C 0.7636 1.00606 0.98765 0.0
C886 C 0.7295 0.98795 0.01978 0.0
C887 C 0.73644 1.00441 -0.00081 0.0
H888 H 0.65817 0.56556 0.29061 0.0
H889 H 0.65689 0.61114 0.25322 0.0
H890 H 0.68537 0.62814 0.28851 0.0
H891 H 0.71041 0.63065 0.33349 0.0
H892 H 0.71367 0.58624 0.36896 0.0
H893 H 0.68492 0.56836 0.3311 0.0
C894 C 0.66419 0.57919 0.28992 0.0
C895 C 0.65515 0.58693 0.26961 0.0
C896 C 0.68098 0.5892 0.31027 0.0
C897 C 0.66329 0.60468 0.26885 0.0
C898 C 0.67969 0.61453 0.28912 0.0
C899 C 0.70487 0.61704 0.33287 0.0
C900 C 0.7141 0.60979 0.35451 0.0
C901 C 0.68857 0.60698 0.31055 0.0
C902 C 0.70683 0.59215 0.35248 0.0
C903 C 0.69036 0.58193 0.331 0.0
H904 H 0.41943 0.0571 0.28536 0.0
H905 H 0.46989 0.09816 0.31501 0.0
H906 H 0.4585 0.1153 0.35442 0.0
H907 H 0.43377 0.11842 0.38144 0.0
H908 H 0.38369 0.07621 0.35351 0.0
H909 H 0.39535 0.05991 0.31263 0.0
C910 C 0.42799 0.06982 0.30026 0.0
C911 C 0.44549 0.07631 0.297 0.0
C912 C 0.42138 0.07946 0.32342 0.0
C913 C 0.45635 0.09281 0.31699 0.0
C914 C 0.44983 0.10263 0.33953 0.0
C915 C 0.42547 0.10568 0.3663 0.0
C916 C 0.40784 0.09861 0.37085 0.0
C917 C 0.43231 0.09608 0.34312 0.0
C918 C 0.39728 0.08202 0.35113 0.0
C919 C 0.40393 0.07262 0.32749 0.0
H920 H 0.94591 0.32126 0.36721 0.0
H921 H 0.89648 0.31602 0.36827 0.0
H922 H 0.90834 0.34464 0.32834 0.0
H923 H 0.93322 0.37136 0.29245 0.0
H924 H 0.98194 0.37475 0.28923 0.0
H925 H 0.9699 0.34677 0.33077 0.0
C926 C 0.93766 0.32633 0.35898 0.0
C927 C 0.92034 0.31652 0.37111 0.0
C928 C 0.94449 0.34256 0.33549 0.0
C929 C 0.90987 0.3233 0.35939 0.0
C930 C 0.91667 0.33968 0.33662 0.0
C931 C 0.94114 0.36594 0.30105 0.0
C932 C 0.9585 0.37521 0.28761 0.0
C933 C 0.93402 0.34948 0.32443 0.0
C934 C 0.96857 0.36794 0.29868 0.0
C935 C 0.9617 0.3519 0.32262 0.0
H936 H 0.70685 0.0809 0.37562 0.0
H937 H 0.71231 0.13043 0.37156 0.0
H938 H 0.6835 0.11837 0.33356 0.0
H939 H 0.65673 0.09336 0.29878 0.0
H940 H 0.65304 0.04447 0.30099 0.0
H941 H 0.68101 0.05666 0.34234 0.0
C942 C 0.70177 0.08912 0.36679 0.0
C943 C 0.71175 0.10654 0.37664 0.0
C944 C 0.68541 0.08216 0.34432 0.0
C945 C 0.70491 0.11695 0.36443 0.0
C946 C 0.68843 0.11005 0.34266 0.0
C947 C 0.66206 0.08542 0.30868 0.0
C948 C 0.65273 0.06799 0.29649 0.0
C949 C 0.67853 0.09262 0.33205 0.0
C950 C 0.65989 0.05791 0.30934 0.0
C951 C 0.67594 0.06486 0.33319 0.0
H952 H 0.90877 0.59755 0.35357 0.0
H953 H 0.95513 0.64523 0.36982 0.0
H954 H 0.97103 0.63274 0.33245 0.0
H955 H 0.97226 0.60876 0.29475 0.0
H956 H 0.92696 0.56036 0.27954 0.0
H957 H 0.91027 0.57258 0.31678 0.0
C958 C 0.92234 0.60515 0.34894 0.0
C959 C 0.93066 0.62237 0.3646 0.0
C960 C 0.93166 0.59778 0.32749 0.0
C961 C 0.94829 0.63199 0.35843 0.0
C962 C 0.95748 0.62486 0.33687 0.0
C963 C 0.95872 0.6008 0.29934 0.0
C964 C 0.95089 0.58368 0.28395 0.0
C965 C 0.94933 0.60784 0.32119 0.0
C966 C 0.93333 0.5736 0.29093 0.0
C967 C 0.92379 0.5806 0.31221 0.0
H968 H 0.45316 0.37009 0.29103 0.0
H969 H 0.40775 0.3733 0.29092 0.0
H970 H 0.39157 0.34443 0.3257 0.0
H971 H 0.38995 0.31809 0.35576 0.0
H972 H 0.43468 0.31379 0.35359 0.0
H973 H 0.45135 0.34303 0.32005 0.0
C974 C 0.43975 0.36446 0.29885 0.0
C975 C 0.43174 0.37395 0.28837 0.0
C976 C 0.43032 0.34757 0.31827 0.0
C977 C 0.41429 0.36637 0.29834 0.0
C978 C 0.40497 0.3498 0.31833 0.0
C979 C 0.40335 0.32351 0.34796 0.0
C980 C 0.41102 0.3137 0.35734 0.0
C981 C 0.41281 0.34026 0.32829 0.0
C982 C 0.42841 0.32099 0.34665 0.0
C983 C 0.43797 0.33776 0.32757 0.0
H984 H 0.32523 0.93945 0.61322 0.0
H985 H 0.32115 0.89056 0.62286 0.0
H986 H 0.34998 0.90358 0.6614 0.0
H987 H 0.37645 0.92924 0.69423 0.0
H988 H 0.3788 0.97748 0.68777 0.0
H989 H 0.35072 0.96436 0.64623 0.0
C990 C 0.33062 0.93158 0.62341 0.0
C991 C 0.32102 0.91405 0.61477 0.0
C992 C 0.347 0.9391 0.6464 0.0
C993 C 0.32824 0.9041 0.62898 0.0
C994 C 0.34474 0.91156 0.65103 0.0
C995 C 0.3708 0.93684 0.68345 0.0
C996 C 0.37981 0.95437 0.69424 0.0
C997 C 0.35428 0.92909 0.66018 0.0
C998 C 0.37222 0.96399 0.68038 0.0
C999 C 0.35611 0.9565 0.65643 0.0
H1000 H 0.09771 0.45021 0.67959 0.0
H1001 H 0.04861 0.4053 0.68609 0.0
H1002 H 0.06026 0.38861 0.64806 0.0
H1003 H 0.08418 0.38625 0.61464 0.0
H1004 H 0.13383 0.43024 0.61089 0.0
H1005 H 0.12225 0.44767 0.64586 0.0
C1006 C 0.08959 0.43679 0.67241 0.0
C1007 C 0.07227 0.42907 0.68588 0.0
C1008 C 0.09647 0.42703 0.65108 0.0
C1009 C 0.06198 0.41163 0.67658 0.0
C1010 C 0.06862 0.40201 0.65465 0.0
C1011 C 0.09251 0.39967 0.62119 0.0
C1012 C 0.10985 0.4069 0.60993 0.0
C1013 C 0.08582 0.40951 0.64205 0.0
C1014 C 0.12042 0.42431 0.6192 0.0
C1015 C 0.11379 0.43429 0.63921 0.0
H1016 H 0.57766 0.65693 0.69547 0.0
H1017 H 0.6235 0.65439 0.69394 0.0
H1018 H 0.63877 0.68222 0.65178 0.0
H1019 H 0.63973 0.70743 0.61589 0.0
H1020 H 0.59516 0.71197 0.61867 0.0
H1021 H 0.57889 0.68338 0.65935 0.0
C1022 C 0.59097 0.66251 0.68589 0.0
C1023 C 0.59934 0.65345 0.69819 0.0
C1024 C 0.59998 0.67892 0.66166 0.0
C1025 C 0.61664 0.66095 0.68548 0.0
C1026 C 0.62548 0.67694 0.66108 0.0
C1027 C 0.62642 0.70221 0.62501 0.0
C1028 C 0.61869 0.71184 0.61384 0.0
C1029 C 0.61732 0.68603 0.64905 0.0
C1030 C 0.60145 0.70483 0.62666 0.0
C1031 C 0.59215 0.68848 0.65001 0.0
H1032 H 0.37774 0.41848 0.70067 0.0
H1033 H 0.38452 0.46854 0.69682 0.0
H1034 H 0.35579 0.45721 0.65939 0.0
H1035 H 0.32861 0.43272 0.62575 0.0
H1036 H 0.3234 0.38319 0.62635 0.0
H1037 H 0.35143 0.39463 0.66679 0.0
C1038 C 0.37294 0.42694 0.69196 0.0
C1039 C 0.38327 0.44432 0.70182 0.0
C1040 C 0.35659 0.42039 0.6695 0.0
C1041 C 0.37685 0.45509 0.68965 0.0
C1042 C 0.3604 0.4486 0.66821 0.0
C1043 C 0.33364 0.42449 0.6349 0.0
C1044 C 0.32384 0.40711 0.62275 0.0
C1045 C 0.35012 0.43123 0.65765 0.0
C1046 C 0.33061 0.39663 0.63469 0.0
C1047 C 0.34669 0.40314 0.65808 0.0
H1048 H 0.63931 0.94602 0.61639 0.0
H1049 H 0.59736 0.89509 0.61804 0.0
H1050 H 0.57893 0.90532 0.65525 0.0
H1051 H 0.57502 0.92926 0.68821 0.0
H1052 H 0.61826 0.9796 0.68806 0.0
H1053 H 0.63576 0.96907 0.64916 0.0
C1054 C 0.62612 0.93707 0.62467 0.0
C1055 C 0.61974 0.91981 0.61418 0.0
C1056 C 0.61577 0.94299 0.64639 0.0
C1057 C 0.60262 0.90846 0.62578 0.0
C1058 C 0.59208 0.91432 0.64695 0.0
C1059 C 0.58824 0.93786 0.67934 0.0
C1060 C 0.59528 0.95522 0.69123 0.0
C1061 C 0.59852 0.93163 0.65748 0.0
C1062 C 0.61248 0.96619 0.67985 0.0
C1063 C 0.62256 0.9602 0.65744 0.0
H1064 H 0.06332 0.65445 0.72335 0.0
H1065 H 0.10576 0.64717 0.69594 0.0
H1066 H 0.12239 0.67621 0.6595 0.0
H1067 H 0.12428 0.70359 0.63144 0.0
H1068 H 0.08072 0.7092 0.6583 0.0
H1069 H 0.0653 0.68108 0.69903 0.0
C1070 C 0.07624 0.65915 0.70969 0.0
C1071 C 0.08322 0.64856 0.71229 0.0
C1072 C 0.08559 0.67569 0.68849 0.0
C1073 C 0.10002 0.65501 0.69437 0.0
C1074 C 0.10954 0.67164 0.67348 0.0
C1075 C 0.11149 0.69867 0.64683 0.0
C1076 C 0.10369 0.70855 0.64147 0.0
C1077 C 0.1024 0.68211 0.66982 0.0
C1078 C 0.08704 0.70191 0.66132 0.0
C1079 C 0.07815 0.68578 0.68475 0.0
H1080 H 0.13456 0.37263 0.75487 0.0
H1081 H 0.08803 0.32865 0.70416 0.0
H1082 H 0.08233 0.31902 0.80418 0.0
H1083 H 0.09191 0.32178 0.90436 0.0
H1084 H 0.13909 0.36533 0.95422 0.0
H1085 H 0.14324 0.37633 0.85643 0.0
C1086 C 0.12302 0.36116 0.76614 0.0
C1087 C 0.11178 0.3513 0.72272 0.0
C1088 C 0.1201 0.35542 0.82334 0.0
C1089 C 0.09691 0.33635 0.7373 0.0
C1090 C 0.09369 0.33079 0.79427 0.0
C1091 C 0.1031 0.33365 0.89377 0.0
C1092 C 0.11522 0.34258 0.93633 0.0
C1093 C 0.10546 0.33995 0.83736 0.0
C1094 C 0.12954 0.35812 0.92218 0.0
C1095 C 0.13195 0.36448 0.86626 0.0
H1096 H 0.67087 0.76333 0.9333 0.0
H1097 H 0.72455 0.79297 0.90333 0.0
H1098 H 0.71958 0.79114 0.79923 0.0
H1099 H 0.69996 0.78333 0.71847 0.0
H1100 H 0.64624 0.75442 0.74915 0.0
H1101 H 0.65136 0.7538 0.85222 0.0
C1102 C 0.68153 0.76937 0.90411 0.0
C1103 C 0.69804 0.77857 0.92598 0.0
C1104 C 0.67858 0.76852 0.84481 0.0
C1105 C 0.71171 0.78594 0.88755 0.0
C1106 C 0.70888 0.78495 0.82813 0.0
C1107 C 0.68933 0.77685 0.74754 0.0
C1108 C 0.67272 0.76922 0.72628 0.0
C1109 C 0.69234 0.77666 0.80654 0.0
C1110 C 0.65913 0.76059 0.76448 0.0
C1111 C 0.66205 0.76021 0.82335 0.0
H1112 H 0.26108 0.90485 0.93658 0.0
H1113 H 0.23714 0.93461 0.90905 0.0
H1114 H 0.24009 0.93314 0.80494 0.0
H1115 H 0.24819 0.92229 0.72144 0.0
H1116 H 0.27283 0.89319 0.7488 0.0
H1117 H 0.27096 0.89565 0.85307 0.0
C1118 C 0.25655 0.91106 0.90785 0.0
C1119 C 0.24875 0.91967 0.93077 0.0
C1120 C 0.25837 0.91027 0.84788 0.0
C1121 C 0.24318 0.92786 0.89278 0.0
C1122 C 0.24481 0.92699 0.83312 0.0
C1123 C 0.25321 0.91653 0.75016 0.0
C1124 C 0.26048 0.90742 0.72715 0.0
C1125 C 0.25218 0.91805 0.81016 0.0
C1126 C 0.26714 0.90025 0.76515 0.0
C1127 C 0.26603 0.9016 0.82489 0.0
H1128 H 0.36354 0.1123 0.05335 0.0
H1129 H 0.30981 0.08604 0.08466 0.0
H1130 H 0.31489 0.08853 0.18847 0.0
H1131 H 0.33442 0.09976 0.26916 0.0
H1132 H 0.38816 0.12636 0.23856 0.0
H1133 H 0.38314 0.122 0.13469 0.0
C1134 C 0.3529 0.10707 0.08278 0.0
C1135 C 0.33631 0.09925 0.06134 0.0
C1136 C 0.3559 0.10867 0.14218 0.0
C1137 C 0.3227 0.09224 0.10006 0.0
C1138 C 0.32559 0.09369 0.15937 0.0
C1139 C 0.34508 0.10466 0.2399 0.0
C1140 C 0.36164 0.11366 0.26137 0.0
C1141 C 0.34212 0.10218 0.1807 0.0
C1142 C 0.37529 0.11953 0.22298 0.0
C1143 C 0.37243 0.11706 0.1637 0.0
H1144 H 0.93031 0.24423 0.27025 0.0
H1145 H 0.8995 0.26711 0.24464 0.0
H1146 H 0.90117 0.26465 0.14021 0.0
H1147 H 0.91057 0.25512 0.05617 0.0
H1148 H 0.94194 0.23287 0.08236 0.0
H1149 H 0.94085 0.23604 0.18642 0.0
C1150 C 0.92395 0.24871 0.24193 0.0
C1151 C 0.91466 0.2557 0.2655 0.0
C1152 C 0.92503 0.24734 0.18189 0.0
C1153 C 0.90672 0.26163 0.22788 0.0
C1154 C 0.90763 0.2602 0.16807 0.0
C1155 C 0.91719 0.25097 0.08458 0.0
C1156 C 0.9262 0.24363 0.06124 0.0
C1157 C 0.91662 0.25292 0.1446 0.0
C1158 C 0.93487 0.23854 0.09888 0.0
C1159 C 0.93424 0.24031 0.15854 0.0
H1160 H 0.76861 0.64749 0.23277 0.0
H1161 H 0.77876 0.69699 0.28423 0.0
H1162 H 0.78276 0.70601 0.18367 0.0
H1163 H 0.7848 0.70036 0.08151 0.0
H1164 H 0.77545 0.65107 0.03018 0.0
H1165 H 0.76976 0.64156 0.12998 0.0
C1166 C 0.77153 0.66019 0.22191 0.0
C1167 C 0.77349 0.67156 0.26602 0.0
C1168 C 0.77412 0.66543 0.16394 0.0
C1169 C 0.77735 0.68802 0.25119 0.0
C1170 C 0.77964 0.6932 0.19365 0.0
C1171 C 0.78148 0.68752 0.092 0.0
C1172 C 0.78069 0.67654 0.04814 0.0
C1173 C 0.77833 0.68211 0.14972 0.0
C1174 C 0.77626 0.6599 0.06284 0.0
C1175 C 0.77297 0.6544 0.12004 0.0
H1176 H 0.942 0.70338 0.07661 0.0
H1177 H 0.89083 0.66528 0.03611 0.0
H1178 H 0.88655 0.65478 0.13474 0.0
H1179 H 0.89725 0.65638 0.23241 0.0
H1180 H 0.94769 0.69524 0.2755 0.0
H1181 H 0.95261 0.70525 0.17537 0.0
C1182 C 0.92987 0.69294 0.08972 0.0
C1183 C 0.91678 0.68509 0.04943 0.0
C1184 C 0.92751 0.68687 0.14638 0.0
C1185 C 0.90115 0.67145 0.06653 0.0
C1186 C 0.89869 0.66538 0.12274 0.0
C1187 C 0.90939 0.66682 0.21929 0.0
C1188 C 0.9222 0.67498 0.26005 0.0
C1189 C 0.91183 0.67287 0.16276 0.0
C1190 C 0.93777 0.68877 0.24387 0.0
C1191 C 0.94051 0.69455 0.18706 0.0
H1192 H 0.32334 0.2274 0.0859 0.0
H1193 H 0.3668 0.27461 0.03696 0.0
H1194 H 0.37656 0.27985 0.13686 0.0
H1195 H 0.37392 0.26984 0.23638 0.0
H1196 H 0.33092 0.22193 0.28399 0.0
H1197 H 0.31992 0.21811 0.18642 0.0
C1198 C 0.33474 0.23896 0.09752 0.0
C1199 C 0.34441 0.25054 0.05469 0.0
C1200 C 0.34056 0.24162 0.1545 0.0
C1201 C 0.35926 0.26546 0.06968 0.0
C1202 C 0.36488 0.26842 0.12656 0.0
C1203 C 0.36219 0.25854 0.2253 0.0
C1204 C 0.35338 0.24616 0.26719 0.0
C1205 C 0.35589 0.25635 0.16901 0.0
C1206 C 0.33803 0.23168 0.25245 0.0
C1207 C 0.33166 0.22946 0.19669 0.0
H1208 H 0.76953 0.1118 0.05338 0.0
H1209 H 0.79946 0.08822 0.08535 0.0
H1210 H 0.79615 0.09012 0.18934 0.0
H1211 H 0.78644 0.10019 0.26993 0.0
H1212 H 0.75699 0.12429 0.23753 0.0
H1213 H 0.75841 0.12033 0.1339 0.0
C1214 C 0.77535 0.10704 0.08295 0.0
C1215 C 0.78499 0.10014 0.06172 0.0
C1216 C 0.77354 0.10832 0.14224 0.0
C1217 C 0.7921 0.0937 0.10064 0.0
C1218 C 0.79024 0.09482 0.16 0.0
C1219 C 0.78029 0.10458 0.24036 0.0
C1220 C 0.77185 0.11278 0.26141 0.0
C1221 C 0.78127 0.1024 0.1811 0.0
C1222 C 0.76369 0.11807 0.22246 0.0
C1223 C 0.76451 0.11583 0.16326 0.0
H1224 H 0.65594 0.90336 0.74296 0.0
H1225 H 0.7065 0.94108 0.69401 0.0
H1226 H 0.71527 0.94502 0.79462 0.0
H1227 H 0.70929 0.93601 0.89527 0.0
H1228 H 0.65887 0.89775 0.94397 0.0
H1229 H 0.64943 0.89591 0.84487 0.0
C1230 C 0.66881 0.91259 0.75441 0.0
C1231 C 0.68059 0.92168 0.71109 0.0
C1232 C 0.6739 0.9146 0.81226 0.0
C1233 C 0.69722 0.93368 0.72656 0.0
C1234 C 0.70228 0.93597 0.78407 0.0
C1235 C 0.69622 0.92732 0.88433 0.0
C1236 C 0.68493 0.91686 0.92687 0.0
C1237 C 0.69084 0.92617 0.82709 0.0
C1238 C 0.66796 0.90583 0.91199 0.0
C1239 C 0.66248 0.90475 0.85527 0.0
H1240 H 0.11698 0.75456 0.75032 0.0
H1241 H 0.10532 0.79278 0.69701 0.0
H1242 H 0.09953 0.79665 0.79652 0.0
H1243 H 0.0995 0.79051 0.89953 0.0
H1244 H 0.11206 0.75299 0.95279 0.0
H1245 H 0.11551 0.74738 0.85241 0.0
C1246 C 0.11318 0.76374 0.76037 0.0
C1247 C 0.1118 0.77348 0.71628 0.0
C1248 C 0.10995 0.76601 0.81773 0.0
C1249 C 0.10663 0.78517 0.73011 0.0
C1250 C 0.10327 0.7874 0.78705 0.0
C1251 C 0.10274 0.78094 0.88899 0.0
C1252 C 0.10569 0.77231 0.93323 0.0
C1253 C 0.1051 0.77804 0.83129 0.0
C1254 C 0.10994 0.75996 0.91924 0.0
C1255 C 0.11193 0.75675 0.86195 0.0
H1256 H 0.26361 0.36157 0.93802 0.0
H1257 H 0.23586 0.30761 0.9129 0.0
H1258 H 0.23815 0.31159 0.80848 0.0
H1259 H 0.24726 0.33039 0.72418 0.0
H1260 H 0.27569 0.38433 0.74977 0.0
H1261 H 0.27393 0.38029 0.85401 0.0
C1262 C 0.25805 0.35066 0.90977 0.0
C1263 C 0.24943 0.33433 0.93339 0.0
C1264 C 0.25952 0.35302 0.84975 0.0
C1265 C 0.24253 0.32035 0.89601 0.0
C1266 C 0.2438 0.3226 0.83621 0.0
C1267 C 0.2531 0.34126 0.75253 0.0
C1268 C 0.26147 0.35763 0.72904 0.0
C1269 C 0.25214 0.33888 0.8126 0.0
C1270 C 0.26915 0.37157 0.76651 0.0
C1271 C 0.26812 0.36929 0.82624 0.0
H1272 H 0.04339 0.45235 0.55998 0.0
H1273 H 0.99134 0.42528 0.6145 0.0
H1274 H 0.98215 0.42016 0.51412 0.0
H1275 H 0.98878 0.42476 0.41097 0.0
H1276 H 0.04082 0.45281 0.35651 0.0
H1277 H 0.05005 0.45605 0.45667 0.0
C1278 C 0.03004 0.44519 0.54993 0.0
C1279 C 0.01809 0.43932 0.59472 0.0
C1280 C 0.0248 0.44254 0.49207 0.0
C1281 C 1.00083 0.43011 0.58088 0.0
C1282 C 0.99554 0.42715 0.52346 0.0
C1283 C 1.00215 0.43148 0.42091 0.0
C1284 C 1.01405 0.43863 0.3762 0.0
C1285 C 1.0074 0.43354 0.4787 0.0
C1286 C 0.03133 0.4473 0.39002 0.0
C1287 C 0.03666 0.44916 0.44734 0.0
H1288 H 0.58367 0.5905 0.38282 0.0
H1289 H 0.60914 0.56228 0.41336 0.0
H1290 H 0.60957 0.56755 0.51685 0.0
H1291 H 0.6007 0.57814 0.59811 0.0
H1292 H 0.57467 0.60583 0.56771 0.0
H1293 H 0.57667 0.60289 0.46371 0.0
C1294 C 0.58934 0.58549 0.41201 0.0
C1295 C 0.59605 0.57571 0.39065 0.0
C1296 C 0.58941 0.58842 0.47114 0.0
C1297 C 0.60372 0.56969 0.42885 0.0
C1298 C 0.60395 0.57267 0.48794 0.0
C1299 C 0.59548 0.58359 0.56886 0.0
C1300 C 0.58724 0.5919 0.59058 0.0
C1301 C 0.59649 0.58169 0.50949 0.0
C1302 C 0.58092 0.59922 0.55206 0.0
C1303 C 0.58202 0.59751 0.49268 0.0
H1304 H 0.43085 0.98549 0.5713 0.0
H1305 H 0.45533 0.03753 0.62599 0.0
H1306 H 0.45913 0.04675 0.52583 0.0
H1307 H 0.4571 0.04024 0.42269 0.0
H1308 H 0.43335 0.98825 0.3677 0.0
H1309 H 0.42763 0.97892 0.46776 0.0
C1310 C 0.4369 0.99884 0.56135 0.0
C1311 C 0.44294 1.01077 0.60623 0.0
C1312 C 0.43928 1.00412 0.50348 0.0
C1313 C 0.45073 0.02803 0.5924 0.0
C1314 C 0.4529 0.03335 0.53505 0.0
C1315 C 0.45056 0.02686 0.43246 0.0
C1316 C 0.44583 0.01502 0.38758 0.0
C1317 C 0.44748 0.02153 0.49023 0.0
C1318 C 0.43731 0.99771 0.40128 0.0
C1319 C 0.434 0.99232 0.45858 0.0
H1320 H 0.57653 0.98415 0.56813 0.0
H1321 H 0.59707 0.03611 0.61983 0.0
H1322 H 0.60304 0.04505 0.51932 0.0
H1323 H 0.60082 0.03798 0.41637 0.0
H1324 H 0.57931 0.98588 0.36501 0.0
H1325 H 0.57547 0.97722 0.46586 0.0
C1326 C 0.58242 0.99745 0.55758 0.0
C1327 C 0.58618 1.0094 0.60152 0.0
C1328 C 0.58559 1.00251 0.49967 0.0
C1329 C 0.59386 0.02659 0.58688 0.0
C1330 C 0.59731 0.03174 0.52938 0.0
C1331 C 0.59543 0.02475 0.42722 0.0
C1332 C 0.59022 0.0126 0.38316 0.0
C1333 C 0.59297 0.01978 0.48535 0.0
C1334 C 0.58325 0.9955 0.39803 0.0
C1335 C 0.58106 0.99051 0.45572 0.0
H1336 H 0.03096 0.59169 0.38786 0.0
H1337 H 0.97738 0.5613 0.41885 0.0
H1338 H 0.98246 0.56413 0.52289 0.0
H1339 H 1.00213 0.57363 0.60364 0.0
H1340 H 0.05577 0.60355 0.57257 0.0
H1341 H 0.05053 0.60252 0.46886 0.0
C1342 C 0.02034 0.58566 0.41724 0.0
C1343 C 1.00382 0.57605 0.3957 0.0
C1344 C 0.02336 0.5872 0.47659 0.0
C1345 C 0.99022 0.56866 0.43438 0.0
C1346 C 0.99312 0.57024 0.49376 0.0
C1347 C 1.01274 0.57996 0.57438 0.0
C1348 C 0.02935 0.58843 0.5958 0.0
C1349 C 1.00966 0.57921 0.51515 0.0
C1350 C 0.04287 0.59681 0.5572 0.0
C1351 C 0.03989 0.59621 0.49797 0.0
H1352 H 0.45074 0.42316 0.41715 0.0
H1353 H 0.43464 0.4577 0.35918 0.0
H1354 H 0.42977 0.46276 0.45845 0.0
H1355 H 0.43251 0.45941 0.56213 0.0
H1356 H 0.44944 0.42554 0.61989 0.0
H1357 H 0.45132 0.41809 0.52045 0.0
C1358 C 0.44602 0.43168 0.42613 0.0
C1359 C 0.44335 0.44022 0.38079 0.0
C1360 C 0.44344 0.43474 0.4834 0.0
C1361 C 0.43708 0.45112 0.39328 0.0
C1362 C 0.43425 0.45403 0.45009 0.0
C1363 C 0.43639 0.45024 0.55294 0.0
C1364 C 0.44109 0.44328 0.59818 0.0
C1365 C 0.43776 0.44622 0.49556 0.0
C1366 C 0.44603 0.43133 0.58568 0.0
C1367 C 0.4471 0.42703 0.52884 0.0
H1368 H 0.1004 0.31133 0.27798 0.0
H1369 H 0.0926 0.34773 0.18588 0.0
H1370 H 0.10007 0.36551 0.27148 0.0
H1371 H 0.11004 0.37142 0.37178 0.0
H1372 H 0.11765 0.33494 0.46431 0.0
H1373 H 0.1095 0.31684 0.37981 0.0
C1374 C 0.10002 0.32297 0.27734 0.0
C1375 C 0.09589 0.32821 0.22621 0.0
C1376 C 0.1047 0.33338 0.3265 0.0
C1377 C 0.09574 0.34348 0.22517 0.0
C1378 C 0.10011 0.35372 0.27388 0.0
C1379 C 0.11003 0.35958 0.3731 0.0
C1380 C 0.11456 0.35463 0.42403 0.0
C1381 C 0.10494 0.34897 0.32452 0.0
C1382 C 0.11424 0.33911 0.42561 0.0
C1383 C 0.10949 0.32865 0.37728 0.0
H1384 H 0.65124 0.75479 0.36574 0.0
H1385 H 0.69509 0.77902 0.47575 0.0
H1386 H 0.71353 0.78642 0.39249 0.0
H1387 H 0.71748 0.78582 0.28791 0.0
H1388 H 0.67372 0.76182 0.17754 0.0
H1389 H 0.6552 0.75461 0.26077 0.0
C1390 C 0.66481 0.76174 0.3713 0.0
C1391 C 0.67171 0.76631 0.42677 0.0
C1392 C 0.67548 0.766 0.32303 0.0
C1393 C 0.68937 0.77534 0.43342 0.0
C1394 C 0.70001 0.77958 0.38581 0.0
C1395 C 0.7039 0.77899 0.28225 0.0
C1396 C 0.69703 0.77435 0.22679 0.0
C1397 C 0.69323 0.77491 0.33038 0.0
C1398 C 0.67938 0.76557 0.21993 0.0
C1399 C 0.66872 0.76141 0.2675 0.0
H1400 H 0.25777 0.91144 0.21089 0.0
H1401 H 0.23486 0.93773 0.28957 0.0
H1402 H 0.24081 0.93079 0.38548 0.0
H1403 H 0.25349 0.91816 0.44714 0.0
H1404 H 0.27698 0.89245 0.3682 0.0
H1405 H 0.26981 0.89822 0.27247 0.0
C1406 C 0.25398 0.91557 0.24901 0.0
C1407 C 0.2459 0.92513 0.24296 0.0
C1408 C 0.25761 0.91169 0.30408 0.0
C1409 C 0.24111 0.93039 0.29289 0.0
C1410 C 0.24453 0.92644 0.34781 0.0
C1411 C 0.25697 0.91374 0.40901 0.0
C1412 C 0.26582 0.90491 0.41493 0.0
C1413 C 0.25293 0.91724 0.35395 0.0
C1414 C 0.27022 0.8993 0.36499 0.0
C1415 C 0.26612 0.90261 0.31016 0.0
H1416 H 0.37951 0.11114 0.62082 0.0
H1417 H 0.33734 0.10231 0.51369 0.0
H1418 H 0.31888 0.09352 0.59751 0.0
H1419 H 0.31453 0.08812 0.70203 0.0
H1420 H 0.3569 0.09737 0.80883 0.0
H1421 H 0.37526 0.10598 0.72487 0.0
C1422 C 0.36631 0.10734 0.61597 0.0
C1423 C 0.35985 0.10739 0.56127 0.0
C1424 C 0.35568 0.10223 0.66439 0.0
C1425 C 0.34268 0.10241 0.55548 0.0
C1426 C 0.33205 0.09732 0.60338 0.0
C1427 C 0.32775 0.09193 0.70663 0.0
C1428 C 0.33433 0.09211 0.76134 0.0
C1429 C 0.33838 0.0971 0.6581 0.0
C1430 C 0.35153 0.09721 0.76702 0.0
C1431 C 0.36208 0.10215 0.71906 0.0
H1432 H 0.92021 0.25481 0.78087 0.0
H1433 H 0.94632 0.23157 0.70313 0.0
H1434 H 0.94045 0.23845 0.60702 0.0
H1435 H 0.92875 0.25196 0.54512 0.0
H1436 H 0.90321 0.27573 0.62332 0.0
H1437 H 0.90802 0.26777 0.71906 0.0
C1438 C 0.92453 0.25115 0.7429 0.0
C1439 C 0.93372 0.24271 0.74919 0.0
C1440 C 0.9213 0.25534 0.6878 0.0
C1441 C 0.93924 0.23809 0.69952 0.0
C1442 C 0.93592 0.24205 0.64453 0.0
C1443 C 0.92421 0.25537 0.58311 0.0
C1444 C 0.9157 0.2645 0.57706 0.0
C1445 C 0.92711 0.25083 0.63815 0.0
C1446 C 0.90987 0.26878 0.62673 0.0
C1447 C 0.9126 0.26421 0.68154 0.0
H1448 H 0.77178 0.66791 0.77455 0.0
H1449 H 0.79256 0.71804 0.70406 0.0
H1450 H 0.78602 0.7063 0.60625 0.0
H1451 H 0.77384 0.68172 0.54126 0.0
H1452 H 0.75267 0.63163 0.61254 0.0
H1453 H 0.75991 0.64347 0.70987 0.0
C1454 C 0.77496 0.67631 0.73782 0.0
C1455 C 0.78265 0.69385 0.74658 0.0
C1456 C 0.77102 0.66946 0.68198 0.0
C1457 C 0.78664 0.70452 0.69849 0.0
C1458 C 0.78288 0.6978 0.64261 0.0
C1459 C 0.77081 0.67338 0.57808 0.0
C1460 C 0.76267 0.65579 0.56966 0.0
C1461 C 0.77497 0.68028 0.6339 0.0
C1462 C 0.75886 0.64518 0.61782 0.0
C1463 C 0.76302 0.65195 0.67347 0.0
H1464 H 0.91765 0.6484 0.61235 0.0
H1465 H 0.9251 0.69161 0.5138 0.0
H1466 H 0.93442 0.7091 0.59954 0.0
H1467 H 0.94055 0.7124 0.70331 0.0
H1468 H 0.93283 0.66929 0.80262 0.0
H1469 H 0.92389 0.65173 0.71632 0.0
C1470 C 0.9212 0.6616 0.60992 0.0
C1471 C 0.92059 0.66861 0.55692 0.0
C1472 C 0.92677 0.67176 0.65953 0.0
C1473 C 0.92535 0.6858 0.55417 0.0
C1474 C 0.9308 0.69592 0.60318 0.0
C1475 C 0.93715 0.69924 0.70564 0.0
C1476 C 0.93742 0.69215 0.75877 0.0
C1477 C 0.93168 0.68909 0.65606 0.0
C1478 C 0.93272 0.675 0.76179 0.0
C1479 C 0.92753 0.66492 0.71261 0.0
H1480 H 0.3191 0.24362 0.70089 0.0
H1481 H 0.36367 0.26046 0.80555 0.0
H1482 H 0.3813 0.26899 0.71995 0.0
H1483 H 0.38423 0.27132 0.61414 0.0
H1484 H 0.33957 0.2547 0.51014 0.0
H1485 H 0.32209 0.24676 0.59592 0.0
C1486 C 0.33265 0.24916 0.70481 0.0
C1487 C 0.33997 0.25124 0.75933 0.0
C1488 C 0.34285 0.25422 0.65531 0.0
C1489 C 0.35761 0.25856 0.76392 0.0
C1490 C 0.36779 0.26353 0.71496 0.0
C1491 C 0.37071 0.26611 0.61055 0.0
C1492 C 0.36324 0.26351 0.55606 0.0
C1493 C 0.36057 0.2614 0.6603 0.0
C1494 C 0.34566 0.25668 0.55178 0.0
C1495 C 0.33558 0.25211 0.60079 0.0
H1496 H 0.78938 0.08515 0.70043 0.0
H1497 H 0.76645 0.10578 0.81166 0.0
H1498 H 0.75758 0.11554 0.72829 0.0
H1499 H 0.75614 0.1182 0.62296 0.0
H1500 H 0.77938 0.09775 0.51217 0.0
H1501 H 0.78824 0.08809 0.5955 0.0
C1502 C 0.78242 0.09174 0.70627 0.0
C1503 C 0.77859 0.09469 0.76202 0.0
C1504 C 0.77738 0.09744 0.65804 0.0
C1505 C 0.76962 0.10335 0.76905 0.0
C1506 C 0.7645 0.10895 0.72139 0.0
C1507 C 0.76315 0.11165 0.61723 0.0
C1508 C 0.76706 0.10874 0.5615 0.0
C1509 C 0.7683 0.10608 0.66558 0.0
C1510 C 0.7762 0.10024 0.55467 0.0
C1511 C 0.78129 0.09464 0.60233 0.0
H1512 H 0.71297 0.94819 0.26383 0.0
H1513 H 0.68174 0.89803 0.19636 0.0
H1514 H 0.66399 0.88996 0.2819 0.0
H1515 H 0.65646 0.89749 0.37468 0.0
H1516 H 0.68777 0.94743 0.44328 0.0
H1517 H 0.70603 0.95544 0.3584 0.0
C1518 C 0.7025 0.93543 0.26867 0.0
C1519 C 0.69869 0.92373 0.22416 0.0
C1520 C 0.69201 0.93098 0.31743 0.0
C1521 C 0.68491 0.90728 0.23017 0.0
C1522 C 0.67465 0.90266 0.27887 0.0
C1523 C 0.66708 0.91019 0.37014 0.0
C1524 C 0.67061 0.92202 0.41384 0.0
C1525 C 0.67782 0.91452 0.32216 0.0
C1526 C 0.68473 0.93827 0.40912 0.0
C1527 C 0.69526 0.94279 0.36105 0.0
H1528 H 0.1318 0.76595 0.38413 0.0
H1529 H 0.08163 0.74316 0.45446 0.0
H1530 H 0.07166 0.75088 0.36814 0.0
H1531 H 0.07749 0.76493 0.27357 0.0
H1532 H 0.12764 0.78746 0.20296 0.0
H1533 H 0.13752 0.77963 0.28872 0.0
C1534 C 0.11863 0.76234 0.37951 0.0
C1535 C 0.10731 0.7537 0.42425 0.0
C1536 C 0.11312 0.76726 0.33056 0.0
C1537 C 0.0904 0.74956 0.41947 0.0
C1538 C 0.08476 0.75414 0.37061 0.0
C1539 C 0.0906 0.76831 0.27761 0.0
C1540 C 0.10187 0.7769 0.23263 0.0
C1541 C 0.09607 0.76324 0.32627 0.0
C1542 C 0.11877 0.78092 0.23737 0.0
C1543 C 0.12441 0.77633 0.28618 0.0
H1544 H 0.26265 0.3525 0.21311 0.0
H1545 H 0.23898 0.30305 0.29075 0.0
H1546 H 0.24407 0.31569 0.38681 0.0
H1547 H 0.25626 0.34078 0.44885 0.0
H1548 H 0.28077 0.3903 0.37165 0.0
H1549 H 0.27426 0.37765 0.27534 0.0
C1550 C 0.25854 0.34449 0.25107 0.0
C1551 C 0.25051 0.32686 0.24482 0.0
C1552 C 0.26169 0.35186 0.30623 0.0
C1553 C 0.24526 0.31665 0.29438 0.0
C1554 C 0.24816 0.32387 0.34934 0.0
C1555 C 0.26009 0.34882 0.41096 0.0
C1556 C 0.26903 0.36646 0.4174 0.0
C1557 C 0.25651 0.34146 0.35579 0.0
C1558 C 0.27392 0.37669 0.36787 0.0
C1559 C 0.27021 0.36946 0.31279 0.0
H1560 H 1.00872 0.43221 0.8689 0.0
H1561 H 0.05902 0.45665 0.93988 0.0
H1562 H 0.04736 0.45202 0.03764 0.0
H1563 H 0.02291 0.44025 0.1025 0.0
H1564 H 0.97259 0.41497 0.03161 0.0
H1565 H 0.98427 0.42079 0.93376 0.0
C1566 C 0.01716 0.43661 0.90573 0.0
C1567 C 0.03473 0.44475 0.89721 0.0
C1568 C 1.01036 0.43372 0.96161 0.0
C1569 C 0.04547 0.45032 0.94534 0.0
C1570 C 0.0388 0.44767 0.00117 0.0
C1571 C 1.01447 0.43608 0.06566 0.0
C1572 C 0.99689 0.42717 0.07426 0.0
C1573 C 0.02128 0.43927 0.00976 0.0
C1574 C 0.98615 0.42182 0.02611 0.0
C1575 C 0.99283 0.42514 0.97023 0.0
H1576 H 0.6129 0.57294 0.03122 0.0
H1577 H 0.58027 0.58344 0.13571 0.0
H1578 H 0.57318 0.59477 0.05205 0.0
H1579 H 0.57674 0.60237 0.94886 0.0
H1580 H 0.60908 0.59137 0.84478 0.0
H1581 H 0.61585 0.57978 0.92825 0.0
C1582 C 0.60414 0.57758 0.03547 0.0
C1583 C 0.59718 0.57739 0.08942 0.0
C1584 C 0.60018 0.5842 0.98728 0.0
C1585 C 0.58584 0.58346 0.09448 0.0
C1586 C 0.5818 0.59002 0.04672 0.0
C1587 C 0.58536 0.59756 0.94483 0.0
C1588 C 0.59248 0.59782 0.8911 0.0
C1589 C 0.58905 0.59064 -0.00703 0.0
C1590 C 0.60344 0.59132 0.88594 0.0
C1591 C 0.60732 0.58464 0.93357 0.0
H1592 H 0.43906 1.00676 0.11429 0.0
H1593 H 0.46551 0.05701 0.04284 0.0
H1594 H 0.4593 0.04522 0.94509 0.0
H1595 H 0.44567 0.02067 0.88036 0.0
H1596 H 0.4188 0.97049 0.95225 0.0
H1597 H 0.42591 0.98226 0.04978 0.0
C1598 C 0.44355 0.01517 0.07738 0.0
C1599 C 0.45273 0.03277 0.08585 0.0
C1600 C 0.4398 1.00831 0.02153 0.0
C1601 C 0.45841 0.04345 0.03752 0.0
C1602 C 0.45485 0.0367 0.98166 0.0
C1603 C 0.4414 0.01228 0.91734 0.0
C1604 C 0.43166 0.9947 0.90906 0.0
C1605 C 0.44544 0.01916 0.9732 0.0
C1606 C 0.42625 0.98404 0.95744 0.0
C1607 C 0.43032 0.99078 0.01318 0.0
H1608 H 0.59188 0.01752 0.8755 0.0
H1609 H 0.56769 0.96704 0.94518 0.0
H1610 H 0.57433 0.97855 0.04323 0.0
H1611 H 0.58795 1.00291 0.10834 0.0
H1612 H 0.6129 0.05335 0.03821 0.0
H1613 H 0.60502 0.04184 0.94055 0.0
C1614 C 0.58795 1.009 0.91212 0.0
C1615 C 0.57932 0.99144 0.90318 0.0
C1616 C 0.59204 0.0157 0.96802 0.0
C1617 C 0.57436 0.9806 0.95102 0.0
C1618 C 0.57818 0.98717 0.00698 0.0
C1619 C 0.59162 1.0114 0.07171 0.0
C1620 C 0.60105 0.02896 0.08037 0.0
C1621 C 0.58718 1.00469 0.01588 0.0
C1622 C 0.60572 0.03979 0.03256 0.0
C1623 C 0.60119 0.03322 0.97681 0.0
H1624 H 0.05019 0.6048 0.95684 0.0
H1625 H 1.00638 0.58149 0.84643 0.0
H1626 H 0.9879 0.57308 0.92994 0.0
H1627 H 0.98395 0.57226 0.03496 0.0
H1628 H 0.02772 0.59534 0.14553 0.0
H1629 H 0.04623 0.60384 0.06198 0.0
C1630 C 0.03662 0.59788 0.95123 0.0
C1631 C 0.02973 0.59379 0.89563 0.0
C1632 C 0.02595 0.59301 -0.00039 0.0
C1633 C 1.01208 0.58478 0.88888 0.0
C1634 C 1.00143 0.57996 0.93663 0.0
C1635 C 0.99753 0.57919 0.04059 0.0
C1636 C 1.0044 0.58315 0.0962 0.0
C1637 C 1.0082 0.58402 0.99225 0.0
C1638 C 0.02205 0.59208 0.10302 0.0
C1639 C 0.03271 0.59698 0.05527 0.0
H1640 H 0.46654 0.43618 0.04527 0.0
H1641 H 0.41698 0.41731 0.11724 0.0
H1642 H 0.40821 0.42679 0.03222 0.0
H1643 H 0.41488 0.44106 0.93773 0.0
H1644 H 0.46443 0.45972 0.86568 0.0
H1645 H 0.47314 0.4503 0.95039 0.0
C1646 C 0.45375 0.43384 0.04138 0.0
C1647 C 0.44228 0.4258 0.08634 0.0
C1648 C 0.44894 0.43975 -0.00693 0.0
C1649 C 0.42588 0.42327 0.08223 0.0
C1650 C 0.42092 0.42884 0.03406 0.0
C1651 C 0.42765 0.44331 0.94131 0.0
C1652 C 0.43905 0.45126 0.89604 0.0
C1653 C 0.43242 0.43734 0.98953 0.0
C1654 C 0.45545 0.45374 0.90025 0.0
C1655 C 0.46042 0.44822 0.94851 0.0
loop_
_geom_bond_atom_site_label_1
_geom_bond_atom_site_label_2
_geom_bond_distance
_geom_bond_site_symmetry_2
_ccdc_geom_bond_type
Co0 O1 2.216 . S
Co0 O2 2.091 . S
Co0 O4 2.004 . S
Co0 O10 2.021 1_554 S
Co0 O12 2.137 . S
Co0 O13 2.244 . S
O1 Co0 2.216 . S
O1 C8 1.247 . S
O2 Co0 2.091 . S
O2 C8 1.261 . S
C3 O12 1.247 . S
C3 O13 1.272 . S
O4 Co0 2.004 . S
O4 C9 1.259 . S
Co5 O6 2.061 . S
Co5 O11 2.052 . S
Co5 O13 2.135 . S
O6 Co5 2.061 . S
O6 C9 1.235 . S
C7 O10 1.238 . S
C7 O11 1.241 1_556 S
C8 O1 1.247 . S
C8 O2 1.261 . S
C9 O4 1.259 . S
C9 O6 1.235 . S
O10 Co0 2.021 1_556 S
O10 C7 1.238 . S
O11 Co5 2.052 . S
O11 C7 1.241 1_554 S
O12 Co0 2.137 . S
O12 C3 1.247 . S
O13 Co0 2.244 . S
O13 C3 1.272 . S
O13 Co5 2.135 . S
Co14 O15 2.216 . S
Co14 O16 2.091 . S
Co14 O18 2.004 . S
Co14 O24 2.021 1_554 S
Co14 O26 2.137 . S
Co14 O27 2.244 . S
O15 Co14 2.216 . S
O15 C22 1.247 . S
O16 Co14 2.091 . S
O16 C22 1.261 . S
C17 O26 1.247 . S
C17 O27 1.272 . S
O18 Co14 2.004 . S
O18 C23 1.259 . S
Co19 O20 2.061 . S
Co19 O25 2.052 . S
Co19 O27 2.135 . S
O20 Co19 2.061 . S
O20 C23 1.235 . S
C21 O24 1.238 . S
C21 O25 1.241 1_556 S
C22 O15 1.247 . S
C22 O16 1.261 . S
C23 O18 1.259 . S
C23 O20 1.235 . S
O24 Co14 2.021 1_556 S
O24 C21 1.238 . S
O25 Co19 2.052 . S
O25 C21 1.241 1_554 S
O26 Co14 2.137 . S
O26 C17 1.247 . S
O27 Co14 2.244 . S
O27 C17 1.272 . S
O27 Co19 2.135 . S
Co28 O29 2.216 . S
Co28 O30 2.091 . S
Co28 O32 2.004 . S
Co28 O38 2.021 1_554 S
Co28 O40 2.137 . S
Co28 O41 2.244 . S
O29 Co28 2.216 . S
O29 C36 1.247 . S
O30 Co28 2.091 . S
O30 C36 1.261 . S
C31 O40 1.247 . S
C31 O41 1.272 . S
O32 Co28 2.004 . S
O32 C37 1.259 . S
Co33 O34 2.061 . S
Co33 O39 2.052 . S
Co33 O41 2.135 . S
O34 Co33 2.061 . S
O34 C37 1.235 . S
C35 O38 1.238 . S
C35 O39 1.241 1_556 S
C36 O29 1.247 . S
C36 O30 1.261 . S
C37 O32 1.259 . S
C37 O34 1.235 . S
O38 Co28 2.021 1_556 S
O38 C35 1.238 . S
O39 Co33 2.052 . S
O39 C35 1.241 1_554 S
O40 Co28 2.137 . S
O40 C31 1.247 . S
O41 Co28 2.244 . S
O41 C31 1.272 . S
O41 Co33 2.135 . S
Co42 O43 2.216 . S
Co42 O44 2.091 . S
Co42 O46 2.004 . S
Co42 O52 2.021 1_556 S
Co42 O54 2.137 . S
Co42 O55 2.244 . S
O43 Co42 2.216 . S
O43 C50 1.247 . S
O44 Co42 2.091 . S
O44 C50 1.261 . S
C45 O54 1.247 . S
C45 O55 1.272 . S
O46 Co42 2.004 . S
O46 C51 1.259 . S
Co47 O48 2.061 . S
Co47 O53 2.052 . S
Co47 O55 2.135 . S
O48 Co47 2.061 . S
O48 C51 1.235 . S
C49 O52 1.238 . S
C49 O53 1.241 1_554 S
C50 O43 1.247 . S
C50 O44 1.261 . S
C51 O46 1.259 . S
C51 O48 1.235 . S
O52 Co42 2.021 1_554 S
O52 C49 1.238 . S
O53 Co47 2.052 . S
O53 C49 1.241 1_556 S
O54 Co42 2.137 . S
O54 C45 1.247 . S
O55 Co42 2.244 . S
O55 C45 1.272 . S
O55 Co47 2.135 . S
Co56 O57 2.216 . S
Co56 O58 2.091 . S
Co56 O60 2.004 . S
Co56 O66 2.021 1_556 S
Co56 O68 2.137 . S
Co56 O69 2.244 . S
O57 Co56 2.216 . S
O57 C64 1.247 . S
O58 Co56 2.091 . S
O58 C64 1.261 . S
C59 O68 1.247 . S
C59 O69 1.272 . S
O60 Co56 2.004 . S
O60 C65 1.259 . S
Co61 O62 2.061 . S
Co61 O67 2.052 . S
Co61 O69 2.135 . S
O62 Co61 2.061 . S
O62 C65 1.235 . S
C63 O66 1.238 . S
C63 O67 1.241 1_554 S
C64 O57 1.247 . S
C64 O58 1.261 . S
C65 O60 1.259 . S
C65 O62 1.235 . S
O66 Co56 2.021 1_554 S
O66 C63 1.238 . S
O67 Co61 2.052 . S
O67 C63 1.241 1_556 S
O68 Co56 2.137 . S
O68 C59 1.247 . S
O69 Co56 2.244 . S
O69 C59 1.272 . S
O69 Co61 2.135 . S
Co70 O71 2.216 . S
Co70 O72 2.091 . S
Co70 O74 2.004 . S
Co70 O80 2.021 1_556 S
Co70 O82 2.137 . S
Co70 O83 2.244 . S
O71 Co70 2.216 . S
O71 C78 1.247 . S
O72 Co70 2.091 . S
O72 C78 1.261 . S
C73 O82 1.247 . S
C73 O83 1.272 . S
O74 Co70 2.004 . S
O74 C79 1.259 . S
Co75 O76 2.061 . S
Co75 O81 2.052 . S
Co75 O83 2.135 . S
O76 Co75 2.061 . S
O76 C79 1.235 . S
C77 O80 1.238 . S
C77 O81 1.241 1_554 S
C78 O71 1.247 . S
C78 O72 1.261 . S
C79 O74 1.259 . S
C79 O76 1.235 . S
O80 Co70 2.021 1_554 S
O80 C77 1.238 . S
O81 Co75 2.052 . S
O81 C77 1.241 1_556 S
O82 Co70 2.137 . S
O82 C73 1.247 . S
O83 Co70 2.244 . S
O83 C73 1.272 . S
O83 Co75 2.135 . S
Co84 O85 2.216 . S
Co84 O86 2.091 . S
Co84 O88 2.004 . S
Co84 O94 2.021 1_556 S
Co84 O96 2.137 . S
Co84 O97 2.244 . S
O85 Co84 2.216 . S
O85 C92 1.247 . S
O86 Co84 2.091 . S
O86 C92 1.261 . S
C87 O96 1.247 . S
C87 O97 1.272 . S
O88 Co84 2.004 . S
O88 C93 1.259 . S
Co89 O90 2.061 . S
Co89 O95 2.052 . S
Co89 O97 2.135 . S
O90 Co89 2.061 . S
O90 C93 1.235 . S
C91 O94 1.238 . S
C91 O95 1.241 1_554 S
C92 O85 1.247 . S
C92 O86 1.261 . S
C93 O88 1.259 . S
C93 O90 1.235 . S
O94 Co84 2.021 1_554 S
O94 C91 1.238 . S
O95 Co89 2.052 . S
O95 C91 1.241 1_556 S
O96 Co84 2.137 . S
O96 C87 1.247 . S
O97 Co84 2.244 . S
O97 C87 1.272 . S
O97 Co89 2.135 . S
Co98 O99 2.216 . S
Co98 O100 2.091 . S
Co98 O102 2.004 . S
Co98 O108 2.021 1_556 S
Co98 O110 2.137 . S
Co98 O111 2.244 . S
O99 Co98 2.216 . S
O99 C106 1.247 . S
O100 Co98 2.091 . S
O100 C106 1.261 . S
C101 O110 1.247 . S
C101 O111 1.272 . S
O102 Co98 2.004 . S
O102 C107 1.259 . S
Co103 O104 2.061 . S
Co103 O109 2.052 . S
Co103 O111 2.135 . S
O104 Co103 2.061 . S
O104 C107 1.235 . S
C105 O108 1.238 . S
C105 O109 1.241 1_554 S
C106 O99 1.247 . S
C106 O100 1.261 . S
C107 O102 1.259 . S
C107 O104 1.235 . S
O108 Co98 2.021 1_554 S
O108 C105 1.238 . S
O109 Co103 2.052 . S
O109 C105 1.241 1_556 S
O110 Co98 2.137 . S
O110 C101 1.247 . S
O111 Co98 2.244 . S
O111 C101 1.272 . S
O111 Co103 2.135 . S
Co112 O113 2.216 . S
Co112 O114 2.091 . S
Co112 O116 2.004 . S
Co112 O122 2.021 1_556 S
Co112 O124 2.137 . S
Co112 O125 2.244 . S
O113 Co112 2.216 . S
O113 C120 1.247 . S
O114 Co112 2.091 . S
O114 C120 1.261 . S
C115 O124 1.247 . S
C115 O125 1.272 . S
O116 Co112 2.004 . S
O116 C121 1.259 . S
Co117 O118 2.061 . S
Co117 O123 2.052 . S
Co117 O125 2.135 . S
O118 Co117 2.061 . S
O118 C121 1.235 . S
C119 O122 1.238 . S
C119 O123 1.241 1_554 S
C120 O113 1.247 . S
C120 O114 1.261 . S
C121 O116 1.259 . S
C121 O118 1.235 . S
O122 Co112 2.021 1_554 S
O122 C119 1.238 . S
O123 Co117 2.052 . S
O123 C119 1.241 1_556 S
O124 Co112 2.137 . S
O124 C115 1.247 . S
O125 Co112 2.244 . S
O125 C115 1.272 . S
O125 Co117 2.135 . S
Co126 O127 2.216 . S
Co126 O128 2.091 . S
Co126 O130 2.004 . S
Co126 O136 2.021 1_554 S
Co126 O138 2.137 . S
Co126 O139 2.244 . S
O127 Co126 2.216 . S
O127 C134 1.247 . S
O128 Co126 2.091 . S
O128 C134 1.261 . S
C129 O138 1.247 . S
C129 O139 1.272 . S
O130 Co126 2.004 . S
O130 C135 1.259 . S
Co131 O132 2.061 . S
Co131 O137 2.052 . S
Co131 O139 2.135 . S
O132 Co131 2.061 . S
O132 C135 1.235 . S
C133 O136 1.238 . S
C133 O137 1.241 1_556 S
C134 O127 1.247 . S
C134 O128 1.261 . S
C135 O130 1.259 . S
C135 O132 1.235 . S
O136 Co126 2.021 1_556 S
O136 C133 1.238 . S
O137 Co131 2.052 . S
O137 C133 1.241 1_554 S
O138 Co126 2.137 . S
O138 C129 1.247 . S
O139 Co126 2.244 . S
O139 C129 1.272 . S
O139 Co131 2.135 . S
Co140 O141 2.216 . S
Co140 O142 2.091 . S
Co140 O144 2.004 . S
Co140 O150 2.021 1_554 S
Co140 O152 2.137 . S
Co140 O153 2.244 . S
O141 Co140 2.216 . S
O141 C148 1.247 . S
O142 Co140 2.091 . S
O142 C148 1.261 . S
C143 O152 1.247 . S
C143 O153 1.272 . S
O144 Co140 2.004 . S
O144 C149 1.259 . S
Co145 O146 2.061 . S
Co145 O151 2.052 . S
Co145 O153 2.135 . S
O146 Co145 2.061 . S
O146 C149 1.235 . S
C147 O150 1.238 . S
C147 O151 1.241 1_556 S
C148 O141 1.247 . S
C148 O142 1.261 . S
C149 O144 1.259 . S
C149 O146 1.235 . S
O150 Co140 2.021 1_556 S
O150 C147 1.238 . S
O151 Co145 2.052 . S
O151 C147 1.241 1_554 S
O152 Co140 2.137 . S
O152 C143 1.247 . S
O153 Co140 2.244 . S
O153 C143 1.272 . S
O153 Co145 2.135 . S
Co154 O155 2.216 . S
Co154 O156 2.091 . S
Co154 O158 2.004 . S
Co154 O164 2.021 1_554 S
Co154 O166 2.137 . S
Co154 O167 2.244 . S
O155 Co154 2.216 . S
O155 C162 1.247 . S
O156 Co154 2.091 . S
O156 C162 1.261 . S
C157 O166 1.247 . S
C157 O167 1.272 . S
O158 Co154 2.004 . S
O158 C163 1.259 . S
Co159 O160 2.061 . S
Co159 O165 2.052 . S
Co159 O167 2.135 . S
O160 Co159 2.061 . S
O160 C163 1.235 . S
C161 O164 1.238 . S
C161 O165 1.241 1_556 S
C162 O155 1.247 . S
C162 O156 1.261 . S
C163 O158 1.259 . S
C163 O160 1.235 . S
O164 Co154 2.021 1_556 S
O164 C161 1.238 . S
O165 Co159 2.052 . S
O165 C161 1.241 1_554 S
O166 Co154 2.137 . S
O166 C157 1.247 . S
O167 Co154 2.244 . S
O167 C157 1.272 . S
O167 Co159 2.135 . S
Co168 O169 2.216 . S
Co168 O170 2.091 . S
Co168 O172 2.004 . S
Co168 O178 2.021 . S
Co168 O180 2.137 . S
Co168 O181 2.244 . S
O169 Co168 2.216 . S
O169 C176 1.247 . S
O170 Co168 2.091 . S
O170 C176 1.261 . S
C171 O180 1.247 . S
C171 O181 1.272 . S
O172 Co168 2.004 . S
O172 C177 1.259 . S
Co173 O174 2.061 . S
Co173 O179 2.052 . S
Co173 O181 2.135 . S
O174 Co173 2.061 . S
O174 C177 1.235 . S
C175 O178 1.238 . S
C175 O179 1.241 . S
C176 O169 1.247 . S
C176 O170 1.261 . S
C177 O172 1.259 . S
C177 O174 1.235 . S
O178 Co168 2.021 . S
O178 C175 1.238 . S
O179 Co173 2.052 . S
O179 C175 1.241 . S
O180 Co168 2.137 . S
O180 C171 1.247 . S
O181 Co168 2.244 . S
O181 C171 1.272 . S
O181 Co173 2.135 . S
Co182 O183 2.216 . S
Co182 O184 2.091 . S
Co182 O186 2.004 . S
Co182 O192 2.021 . S
Co182 O194 2.137 . S
Co182 O195 2.244 . S
O183 Co182 2.216 . S
O183 C190 1.247 . S
O184 Co182 2.091 . S
O184 C190 1.261 . S
C185 O194 1.247 . S
C185 O195 1.272 . S
O186 Co182 2.004 . S
O186 C191 1.259 . S
Co187 O188 2.061 . S
Co187 O193 2.052 . S
Co187 O195 2.135 . S
O188 Co187 2.061 . S
O188 C191 1.235 . S
C189 O192 1.238 . S
C189 O193 1.241 . S
C190 O183 1.247 . S
C190 O184 1.261 . S
C191 O186 1.259 . S
C191 O188 1.235 . S
O192 Co182 2.021 . S
O192 C189 1.238 . S
O193 Co187 2.052 . S
O193 C189 1.241 . S
O194 Co182 2.137 . S
O194 C185 1.247 . S
O195 Co182 2.244 . S
O195 C185 1.272 . S
O195 Co187 2.135 . S
Co196 O197 2.216 . S
Co196 O198 2.091 . S
Co196 O200 2.004 . S
Co196 O206 2.021 . S
Co196 O208 2.137 . S
Co196 O209 2.244 . S
O197 Co196 2.216 . S
O197 C204 1.247 . S
O198 Co196 2.091 . S
O198 C204 1.261 . S
C199 O208 1.247 . S
C199 O209 1.272 . S
O200 Co196 2.004 . S
O200 C205 1.259 . S
Co201 O202 2.061 . S
Co201 O207 2.052 . S
Co201 O209 2.135 . S
O202 Co201 2.061 . S
O202 C205 1.235 . S
C203 O206 1.238 . S
C203 O207 1.241 . S
C204 O197 1.247 . S
C204 O198 1.261 . S
C205 O200 1.259 . S
C205 O202 1.235 . S
O206 Co196 2.021 . S
O206 C203 1.238 . S
O207 Co201 2.052 . S
O207 C203 1.241 . S
O208 Co196 2.137 . S
O208 C199 1.247 . S
O209 Co196 2.244 . S
O209 C199 1.272 . S
O209 Co201 2.135 . S
Co210 O211 2.216 . S
Co210 O212 2.091 . S
Co210 O214 2.004 . S
Co210 O220 2.021 . S
Co210 O222 2.137 . S
Co210 O223 2.244 . S
O211 Co210 2.216 . S
O211 C218 1.247 . S
O212 Co210 2.091 . S
O212 C218 1.261 . S
C213 O222 1.247 . S
C213 O223 1.272 . S
O214 Co210 2.004 . S
O214 C219 1.259 . S
Co215 O216 2.061 . S
Co215 O221 2.052 . S
Co215 O223 2.135 . S
O216 Co215 2.061 . S
O216 C219 1.235 . S
C217 O220 1.238 . S
C217 O221 1.241 . S
C218 O211 1.247 . S
C218 O212 1.261 . S
C219 O214 1.259 . S
C219 O216 1.235 . S
O220 Co210 2.021 . S
O220 C217 1.238 . S
O221 Co215 2.052 . S
O221 C217 1.241 . S
O222 Co210 2.137 . S
O222 C213 1.247 . S
O223 Co210 2.244 . S
O223 C213 1.272 . S
O223 Co215 2.135 . S
Co224 O225 2.216 . S
Co224 O226 2.091 . S
Co224 O228 2.004 . S
Co224 O234 2.021 . S
Co224 O236 2.137 . S
Co224 O237 2.244 . S
O225 Co224 2.216 . S
O225 C232 1.247 . S
O226 Co224 2.091 . S
O226 C232 1.261 . S
C227 O236 1.247 . S
C227 O237 1.272 . S
O228 Co224 2.004 . S
O228 C233 1.259 . S
Co229 O230 2.061 . S
Co229 O235 2.052 . S
Co229 O237 2.135 . S
O230 Co229 2.061 . S
O230 C233 1.235 . S
C231 O234 1.238 . S
C231 O235 1.241 . S
C232 O225 1.247 . S
C232 O226 1.261 . S
C233 O228 1.259 . S
C233 O230 1.235 . S
O234 Co224 2.021 . S
O234 C231 1.238 . S
O235 Co229 2.052 . S
O235 C231 1.241 . S
O236 Co224 2.137 . S
O236 C227 1.247 . S
O237 Co224 2.244 . S
O237 C227 1.272 . S
O237 Co229 2.135 . S
Co238 O239 2.216 . S
Co238 O240 2.091 . S
Co238 O242 2.004 . S
Co238 O248 2.021 . S
Co238 O250 2.137 . S
Co238 O251 2.244 . S
O239 Co238 2.216 . S
O239 C246 1.247 . S
O240 Co238 2.091 . S
O240 C246 1.261 . S
C241 O250 1.247 . S
C241 O251 1.272 . S
O242 Co238 2.004 . S
O242 C247 1.259 . S
Co243 O244 2.061 . S
Co243 O249 2.052 . S
Co243 O251 2.135 . S
O244 Co243 2.061 . S
O244 C247 1.235 . S
C245 O248 1.238 . S
C245 O249 1.241 . S
C246 O239 1.247 . S
C246 O240 1.261 . S
C247 O242 1.259 . S
C247 O244 1.235 . S
O248 Co238 2.021 . S
O248 C245 1.238 . S
O249 Co243 2.052 . S
O249 C245 1.241 . S
O250 Co238 2.137 . S
O250 C241 1.247 . S
O251 Co238 2.244 . S
O251 C241 1.272 . S
O251 Co243 2.135 . S
Co252 O253 2.216 . S
Co252 O254 2.091 . S
Co252 O256 2.004 . S
Co252 O262 2.021 . S
Co252 O264 2.137 . S
Co252 O265 2.244 . S
O253 Co252 2.216 . S
O253 C260 1.247 . S
O254 Co252 2.091 . S
O254 C260 1.261 . S
C255 O264 1.247 . S
C255 O265 1.272 . S
O256 Co252 2.004 . S
O256 C261 1.259 . S
Co257 O258 2.061 . S
Co257 O263 2.052 . S
Co257 O265 2.135 . S
O258 Co257 2.061 . S
O258 C261 1.235 . S
C259 O262 1.238 . S
C259 O263 1.241 . S
C260 O253 1.247 . S
C260 O254 1.261 . S
C261 O256 1.259 . S
C261 O258 1.235 . S
O262 Co252 2.021 . S
O262 C259 1.238 . S
O263 Co257 2.052 . S
O263 C259 1.241 . S
O264 Co252 2.137 . S
O264 C255 1.247 . S
O265 Co252 2.244 . S
O265 C255 1.272 . S
O265 Co257 2.135 . S
Co266 O267 2.216 . S
Co266 O268 2.091 . S
Co266 O270 2.004 . S
Co266 O276 2.021 . S
Co266 O278 2.137 . S
Co266 O279 2.244 . S
O267 Co266 2.216 . S
O267 C274 1.247 . S
O268 Co266 2.091 . S
O268 C274 1.261 . S
C269 O278 1.247 . S
C269 O279 1.272 . S
O270 Co266 2.004 . S
O270 C275 1.259 . S
Co271 O272 2.061 . S
Co271 O277 2.052 . S
Co271 O279 2.135 . S
O272 Co271 2.061 . S
O272 C275 1.235 . S
C273 O276 1.238 . S
C273 O277 1.241 . S
C274 O267 1.247 . S
C274 O268 1.261 . S
C275 O270 1.259 . S
C275 O272 1.235 . S
O276 Co266 2.021 . S
O276 C273 1.238 . S
O277 Co271 2.052 . S
O277 C273 1.241 . S
O278 Co266 2.137 . S
O278 C269 1.247 . S
O279 Co266 2.244 . S
O279 C269 1.272 . S
O279 Co271 2.135 . S
Co280 O281 2.216 . S
Co280 O282 2.091 . S
Co280 O284 2.004 . S
Co280 O290 2.021 . S
Co280 O292 2.137 . S
Co280 O293 2.244 . S
O281 Co280 2.216 . S
O281 C288 1.247 . S
O282 Co280 2.091 . S
O282 C288 1.261 . S
C283 O292 1.247 . S
C283 O293 1.272 . S
O284 Co280 2.004 . S
O284 C289 1.259 . S
Co285 O286 2.061 . S
Co285 O291 2.052 . S
Co285 O293 2.135 . S
O286 Co285 2.061 . S
O286 C289 1.235 . S
C287 O290 1.238 . S
C287 O291 1.241 . S
C288 O281 1.247 . S
C288 O282 1.261 . S
C289 O284 1.259 . S
C289 O286 1.235 . S
O290 Co280 2.021 . S
O290 C287 1.238 . S
O291 Co285 2.052 . S
O291 C287 1.241 . S
O292 Co280 2.137 . S
O292 C283 1.247 . S
O293 Co280 2.244 . S
O293 C283 1.272 . S
O293 Co285 2.135 . S
Co294 O295 2.216 . S
Co294 O296 2.091 . S
Co294 O298 2.004 . S
Co294 O304 2.021 . S
Co294 O306 2.137 . S
Co294 O307 2.244 . S
O295 Co294 2.216 . S
O295 C302 1.247 . S
O296 Co294 2.091 . S
O296 C302 1.261 . S
C297 O306 1.247 . S
C297 O307 1.272 . S
O298 Co294 2.004 . S
O298 C303 1.259 . S
Co299 O300 2.061 . S
Co299 O305 2.052 . S
Co299 O307 2.135 . S
O300 Co299 2.061 . S
O300 C303 1.235 . S
C301 O304 1.238 . S
C301 O305 1.241 . S
C302 O295 1.247 . S
C302 O296 1.261 . S
C303 O298 1.259 . S
C303 O300 1.235 . S
O304 Co294 2.021 . S
O304 C301 1.238 . S
O305 Co299 2.052 . S
O305 C301 1.241 . S
O306 Co294 2.137 . S
O306 C297 1.247 . S
O307 Co294 2.244 . S
O307 C297 1.272 . S
O307 Co299 2.135 . S
Co308 O309 2.216 . S
Co308 O310 2.091 . S
Co308 O312 2.004 . S
Co308 O318 2.021 . S
Co308 O320 2.137 . S
Co308 O321 2.244 . S
O309 Co308 2.216 . S
O309 C316 1.247 . S
O310 Co308 2.091 . S
O310 C316 1.261 . S
C311 O320 1.247 . S
C311 O321 1.272 . S
O312 Co308 2.004 . S
O312 C317 1.259 . S
Co313 O314 2.061 . S
Co313 O319 2.052 . S
Co313 O321 2.135 . S
O314 Co313 2.061 . S
O314 C317 1.235 . S
C315 O318 1.238 . S
C315 O319 1.241 . S
C316 O309 1.247 . S
C316 O310 1.261 . S
C317 O312 1.259 . S
C317 O314 1.235 . S
O318 Co308 2.021 . S
O318 C315 1.238 . S
O319 Co313 2.052 . S
O319 C315 1.241 . S
O320 Co308 2.137 . S
O320 C311 1.247 . S
O321 Co308 2.244 . S
O321 C311 1.272 . S
O321 Co313 2.135 . S
Co322 O323 2.216 . S
Co322 O324 2.091 . S
Co322 O326 2.004 . S
Co322 O332 2.021 . S
Co322 O334 2.137 . S
Co322 O335 2.244 . S
O323 Co322 2.216 . S
O323 C330 1.247 . S
O324 Co322 2.091 . S
O324 C330 1.261 . S
C325 O334 1.247 . S
C325 O335 1.272 . S
O326 Co322 2.004 . S
O326 C331 1.259 . S
Co327 O328 2.061 . S
Co327 O333 2.052 . S
Co327 O335 2.135 . S
O328 Co327 2.061 . S
O328 C331 1.235 . S
C329 O332 1.238 . S
C329 O333 1.241 . S
C330 O323 1.247 . S
C330 O324 1.261 . S
C331 O326 1.259 . S
C331 O328 1.235 . S
O332 Co322 2.021 . S
O332 C329 1.238 . S
O333 Co327 2.052 . S
O333 C329 1.241 . S
O334 Co322 2.137 . S
O334 C325 1.247 . S
O335 Co322 2.244 . S
O335 C325 1.272 . S
O335 Co327 2.135 . S
Co336 O337 2.216 . S
Co336 O338 2.091 . S
Co336 O340 2.004 . S
Co336 O346 2.021 . S
Co336 O348 2.137 . S
Co336 O349 2.244 . S
O337 Co336 2.216 . S
O337 C344 1.247 . S
O338 Co336 2.091 . S
O338 C344 1.261 . S
C339 O348 1.247 . S
C339 O349 1.272 . S
O340 Co336 2.004 . S
O340 C345 1.259 . S
Co341 O342 2.061 . S
Co341 O347 2.052 . S
Co341 O349 2.135 . S
O342 Co341 2.061 . S
O342 C345 1.235 . S
C343 O346 1.238 . S
C343 O347 1.241 . S
C344 O337 1.247 . S
C344 O338 1.261 . S
C345 O340 1.259 . S
C345 O342 1.235 . S
O346 Co336 2.021 . S
O346 C343 1.238 . S
O347 Co341 2.052 . S
O347 C343 1.241 . S
O348 Co336 2.137 . S
O348 C339 1.247 . S
O349 Co336 2.244 . S
O349 C339 1.272 . S
O349 Co341 2.135 . S
Co350 O351 2.216 . S
Co350 O352 2.091 . S
Co350 O354 2.004 . S
Co350 O360 2.021 . S
Co350 O362 2.137 . S
Co350 O363 2.244 . S
O351 Co350 2.216 . S
O351 C358 1.247 . S
O352 Co350 2.091 . S
O352 C358 1.261 . S
C353 O362 1.247 . S
C353 O363 1.272 . S
O354 Co350 2.004 . S
O354 C359 1.259 . S
Co355 O356 2.061 . S
Co355 O361 2.052 . S
Co355 O363 2.135 . S
O356 Co355 2.061 . S
O356 C359 1.235 . S
C357 O360 1.238 . S
C357 O361 1.241 . S
C358 O351 1.247 . S
C358 O352 1.261 . S
C359 O354 1.259 . S
C359 O356 1.235 . S
O360 Co350 2.021 . S
O360 C357 1.238 . S
O361 Co355 2.052 . S
O361 C357 1.241 . S
O362 Co350 2.137 . S
O362 C353 1.247 . S
O363 Co350 2.244 . S
O363 C353 1.272 . S
O363 Co355 2.135 . S
Co364 O365 2.216 . S
Co364 O366 2.091 . S
Co364 O368 2.004 . S
Co364 O374 2.021 . S
Co364 O376 2.137 . S
Co364 O377 2.244 . S
O365 Co364 2.216 . S
O365 C372 1.247 . S
O366 Co364 2.091 . S
O366 C372 1.261 . S
C367 O376 1.247 . S
C367 O377 1.272 . S
O368 Co364 2.004 . S
O368 C373 1.259 . S
Co369 O370 2.061 . S
Co369 O375 2.052 . S
Co369 O377 2.135 . S
O370 Co369 2.061 . S
O370 C373 1.235 . S
C371 O374 1.238 . S
C371 O375 1.241 . S
C372 O365 1.247 . S
C372 O366 1.261 . S
C373 O368 1.259 . S
C373 O370 1.235 . S
O374 Co364 2.021 . S
O374 C371 1.238 . S
O375 Co369 2.052 . S
O375 C371 1.241 . S
O376 Co364 2.137 . S
O376 C367 1.247 . S
O377 Co364 2.244 . S
O377 C367 1.272 . S
O377 Co369 2.135 . S
Co378 O379 2.216 . S
Co378 O380 2.091 . S
Co378 O382 2.004 . S
Co378 O388 2.021 . S
Co378 O390 2.137 . S
Co378 O391 2.244 . S
O379 Co378 2.216 . S
O379 C386 1.247 . S
O380 Co378 2.091 . S
O380 C386 1.261 . S
C381 O390 1.247 . S
C381 O391 1.272 . S
O382 Co378 2.004 . S
O382 C387 1.259 . S
Co383 O384 2.061 . S
Co383 O389 2.052 . S
Co383 O391 2.135 . S
O384 Co383 2.061 . S
O384 C387 1.235 . S
C385 O388 1.238 . S
C385 O389 1.241 . S
C386 O379 1.247 . S
C386 O380 1.261 . S
C387 O382 1.259 . S
C387 O384 1.235 . S
O388 Co378 2.021 . S
O388 C385 1.238 . S
O389 Co383 2.052 . S
O389 C385 1.241 . S
O390 Co378 2.137 . S
O390 C381 1.247 . S
O391 Co378 2.244 . S
O391 C381 1.272 . S
O391 Co383 2.135 . S
Co392 O393 2.216 . S
Co392 O394 2.091 . S
Co392 O396 2.004 . S
Co392 O402 2.021 . S
Co392 O404 2.137 . S
Co392 O405 2.244 . S
O393 Co392 2.216 . S
O393 C400 1.247 . S
O394 Co392 2.091 . S
O394 C400 1.261 . S
C395 O404 1.247 . S
C395 O405 1.272 . S
O396 Co392 2.004 . S
O396 C401 1.259 . S
Co397 O398 2.061 . S
Co397 O403 2.052 . S
Co397 O405 2.135 . S
O398 Co397 2.061 . S
O398 C401 1.235 . S
C399 O402 1.238 . S
C399 O403 1.241 . S
C400 O393 1.247 . S
C400 O394 1.261 . S
C401 O396 1.259 . S
C401 O398 1.235 . S
O402 Co392 2.021 . S
O402 C399 1.238 . S
O403 Co397 2.052 . S
O403 C399 1.241 . S
O404 Co392 2.137 . S
O404 C395 1.247 . S
O405 Co392 2.244 . S
O405 C395 1.272 . S
O405 Co397 2.135 . S
Co406 O407 2.216 . S
Co406 O408 2.091 . S
Co406 O410 2.004 . S
Co406 O416 2.021 . S
Co406 O418 2.137 . S
Co406 O419 2.244 . S
O407 Co406 2.216 . S
O407 C414 1.247 . S
O408 Co406 2.091 . S
O408 C414 1.261 . S
C409 O418 1.247 . S
C409 O419 1.272 . S
O410 Co406 2.004 . S
O410 C415 1.259 . S
Co411 O412 2.061 . S
Co411 O417 2.052 . S
Co411 O419 2.135 . S
O412 Co411 2.061 . S
O412 C415 1.235 . S
C413 O416 1.238 . S
C413 O417 1.241 . S
C414 O407 1.247 . S
C414 O408 1.261 . S
C415 O410 1.259 . S
C415 O412 1.235 . S
O416 Co406 2.021 . S
O416 C413 1.238 . S
O417 Co411 2.052 . S
O417 C413 1.241 . S
O418 Co406 2.137 . S
O418 C409 1.247 . S
O419 Co406 2.244 . S
O419 C409 1.272 . S
O419 Co411 2.135 . S
Co420 O421 2.216 . S
Co420 O422 2.091 . S
Co420 O424 2.004 . S
Co420 O430 2.021 . S
Co420 O432 2.137 . S
Co420 O433 2.244 . S
O421 Co420 2.216 . S
O421 C428 1.247 . S
O422 Co420 2.091 . S
O422 C428 1.261 . S
C423 O432 1.247 . S
C423 O433 1.272 . S
O424 Co420 2.004 . S
O424 C429 1.259 . S
Co425 O426 2.061 . S
Co425 O431 2.052 . S
Co425 O433 2.135 . S
O426 Co425 2.061 . S
O426 C429 1.235 . S
C427 O430 1.238 . S
C427 O431 1.241 . S
C428 O421 1.247 . S
C428 O422 1.261 . S
C429 O424 1.259 . S
C429 O426 1.235 . S
O430 Co420 2.021 . S
O430 C427 1.238 . S
O431 Co425 2.052 . S
O431 C427 1.241 . S
O432 Co420 2.137 . S
O432 C423 1.247 . S
O433 Co420 2.244 . S
O433 C423 1.272 . S
O433 Co425 2.135 . S
Co434 O435 2.216 . S
Co434 O436 2.091 . S
Co434 O438 2.004 . S
Co434 O444 2.021 . S
Co434 O446 2.137 . S
Co434 O447 2.244 . S
O435 Co434 2.216 . S
O435 C442 1.247 . S
O436 Co434 2.091 . S
O436 C442 1.261 . S
C437 O446 1.247 . S
C437 O447 1.272 . S
O438 Co434 2.004 . S
O438 C443 1.259 . S
Co439 O440 2.061 . S
Co439 O445 2.052 . S
Co439 O447 2.135 . S
O440 Co439 2.061 . S
O440 C443 1.235 . S
C441 O444 1.238 . S
C441 O445 1.241 . S
C442 O435 1.247 . S
C442 O436 1.261 . S
C443 O438 1.259 . S
C443 O440 1.235 . S
O444 Co434 2.021 . S
O444 C441 1.238 . S
O445 Co439 2.052 . S
O445 C441 1.241 . S
O446 Co434 2.137 . S
O446 C437 1.247 . S
O447 Co434 2.244 . S
O447 C437 1.272 . S
O447 Co439 2.135 . S
Co448 O449 2.216 . S
Co448 O450 2.091 . S
Co448 O452 2.004 . S
Co448 O458 2.021 . S
Co448 O460 2.137 . S
Co448 O461 2.244 . S
O449 Co448 2.216 . S
O449 C456 1.247 . S
O450 Co448 2.091 . S
O450 C456 1.261 . S
C451 O460 1.247 . S
C451 O461 1.272 . S
O452 Co448 2.004 . S
O452 C457 1.259 . S
Co453 O454 2.061 . S
Co453 O459 2.052 . S
Co453 O461 2.135 . S
O454 Co453 2.061 . S
O454 C457 1.235 . S
C455 O458 1.238 . S
C455 O459 1.241 . S
C456 O449 1.247 . S
C456 O450 1.261 . S
C457 O452 1.259 . S
C457 O454 1.235 . S
O458 Co448 2.021 . S
O458 C455 1.238 . S
O459 Co453 2.052 . S
O459 C455 1.241 . S
O460 Co448 2.137 . S
O460 C451 1.247 . S
O461 Co448 2.244 . S
O461 C451 1.272 . S
O461 Co453 2.135 . S
Co462 O463 2.216 . S
Co462 O464 2.091 . S
Co462 O466 2.004 . S
Co462 O472 2.021 . S
Co462 O474 2.137 . S
Co462 O475 2.244 . S
O463 Co462 2.216 . S
O463 C470 1.247 . S
O464 Co462 2.091 . S
O464 C470 1.261 . S
C465 O474 1.247 . S
C465 O475 1.272 . S
O466 Co462 2.004 . S
O466 C471 1.259 . S
Co467 O468 2.061 . S
Co467 O473 2.052 . S
Co467 O475 2.135 . S
O468 Co467 2.061 . S
O468 C471 1.235 . S
C469 O472 1.238 . S
C469 O473 1.241 . S
C470 O463 1.247 . S
C470 O464 1.261 . S
C471 O466 1.259 . S
C471 O468 1.235 . S
O472 Co462 2.021 . S
O472 C469 1.238 . S
O473 Co467 2.052 . S
O473 C469 1.241 . S
O474 Co462 2.137 . S
O474 C465 1.247 . S
O475 Co462 2.244 . S
O475 C465 1.272 . S
O475 Co467 2.135 . S
Co476 O477 2.216 . S
Co476 O478 2.091 . S
Co476 O480 2.004 . S
Co476 O486 2.021 . S
Co476 O488 2.137 . S
Co476 O489 2.244 . S
O477 Co476 2.216 . S
O477 C484 1.247 . S
O478 Co476 2.091 . S
O478 C484 1.261 . S
C479 O488 1.247 . S
C479 O489 1.272 . S
O480 Co476 2.004 . S
O480 C485 1.259 . S
Co481 O482 2.061 . S
Co481 O487 2.052 . S
Co481 O489 2.135 . S
O482 Co481 2.061 . S
O482 C485 1.235 . S
C483 O486 1.238 . S
C483 O487 1.241 . S
C484 O477 1.247 . S
C484 O478 1.261 . S
C485 O480 1.259 . S
C485 O482 1.235 . S
O486 Co476 2.021 . S
O486 C483 1.238 . S
O487 Co481 2.052 . S
O487 C483 1.241 . S
O488 Co476 2.137 . S
O488 C479 1.247 . S
O489 Co476 2.244 . S
O489 C479 1.272 . S
O489 Co481 2.135 . S
Co490 O491 2.216 . S
Co490 O492 2.091 . S
Co490 O494 2.004 . S
Co490 O500 2.021 . S
Co490 O502 2.137 . S
Co490 O503 2.244 . S
O491 Co490 2.216 . S
O491 C498 1.247 . S
O492 Co490 2.091 . S
O492 C498 1.261 . S
C493 O502 1.247 . S
C493 O503 1.272 . S
O494 Co490 2.004 . S
O494 C499 1.259 . S
Co495 O496 2.061 . S
Co495 O501 2.052 . S
Co495 O503 2.135 . S
O496 Co495 2.061 . S
O496 C499 1.235 . S
C497 O500 1.238 . S
C497 O501 1.241 . S
C498 O491 1.247 . S
C498 O492 1.261 . S
C499 O494 1.259 . S
C499 O496 1.235 . S
O500 Co490 2.021 . S
O500 C497 1.238 . S
O501 Co495 2.052 . S
O501 C497 1.241 . S
O502 Co490 2.137 . S
O502 C493 1.247 . S
O503 Co490 2.244 . S
O503 C493 1.272 . S
O503 Co495 2.135 . S
H504 C510 0.930 . S
H505 C513 0.930 1_556 S
H506 C514 0.930 1_556 S
H507 C515 0.917 1_556 S
H508 C518 0.930 . S
H509 C519 0.930 . S
C510 H504 0.930 . S
C510 C511 1.355 . S
C510 C512 1.415 . S
C511 C510 1.355 . S
C511 C513 1.419 . S
C512 C510 1.415 . S
C512 C517 1.425 . S
C512 C519 1.409 . S
C513 H505 0.930 1_554 S
C513 C511 1.419 . S
C513 C514 1.362 . S
C514 H506 0.930 1_554 S
C514 C513 1.362 . S
C514 C517 1.409 . S
C515 H507 0.917 1_554 S
C515 C516 1.355 . S
C515 C517 1.415 . S
C516 C515 1.355 . S
C516 C518 1.419 . S
C517 C512 1.425 . S
C517 C514 1.409 . S
C517 C515 1.415 . S
C518 H508 0.930 . S
C518 C516 1.419 . S
C518 C519 1.362 . S
C519 H509 0.930 . S
C519 C512 1.409 . S
C519 C518 1.362 . S
H520 C526 0.930 . S
H521 C529 0.930 . S
H522 C530 0.930 . S
H523 C531 0.930 . S
H524 C534 0.930 . S
H525 C535 0.930 . S
C526 H520 0.930 . S
C526 C527 1.355 . S
C526 C528 1.415 . S
C527 C526 1.355 . S
C527 C529 1.419 . S
C528 C526 1.415 . S
C528 C533 1.425 . S
C528 C535 1.409 . S
C529 H521 0.930 . S
C529 C527 1.419 . S
C529 C530 1.362 . S
C530 H522 0.930 . S
C530 C529 1.362 . S
C530 C533 1.409 . S
C531 H523 0.930 . S
C531 C532 1.355 . S
C531 C533 1.415 . S
C532 C531 1.355 . S
C532 C534 1.419 . S
C533 C528 1.425 . S
C533 C530 1.409 . S
C533 C531 1.415 . S
C534 H524 0.930 . S
C534 C532 1.419 . S
C534 C535 1.362 . S
C535 H525 0.930 . S
C535 C528 1.409 . S
C535 C534 1.362 . S
H536 C542 0.930 . S
H537 C545 0.930 . S
H538 C546 0.930 . S
H539 C547 0.930 . S
H540 C550 0.930 1_556 S
H541 C551 0.930 1_556 S
C542 H536 0.930 . S
C542 C543 1.355 . S
C542 C544 1.415 . S
C543 C542 1.355 . S
C543 C545 1.419 . S
C544 C542 1.415 . S
C544 C549 1.425 . S
C544 C551 1.409 . S
C545 H537 0.930 . S
C545 C543 1.419 . S
C545 C546 1.362 . S
C546 H538 0.930 . S
C546 C545 1.362 . S
C546 C549 1.409 . S
C547 H539 0.930 . S
C547 C548 1.355 . S
C547 C549 1.415 . S
C548 C547 1.355 . S
C548 C550 1.419 . S
C549 C544 1.425 . S
C549 C546 1.409 . S
C549 C547 1.415 . S
C550 H540 0.930 1_554 S
C550 C548 1.419 . S
C550 C551 1.362 . S
C551 H541 0.930 1_554 S
C551 C544 1.409 . S
C551 C550 1.362 . S
H552 C558 0.930 . S
H553 C561 0.930 . S
H554 C562 0.930 . S
H555 C563 0.930 . S
H556 C566 0.930 . S
H557 C567 0.930 . S
C558 H552 0.930 . S
C558 C559 1.355 . S
C558 C560 1.415 . S
C559 C558 1.355 . S
C559 C561 1.419 . S
C560 C558 1.415 . S
C560 C565 1.425 . S
C560 C567 1.409 . S
C561 H553 0.930 . S
C561 C559 1.419 . S
C561 C562 1.362 . S
C562 H554 0.930 . S
C562 C561 1.362 . S
C562 C565 1.409 . S
C563 H555 0.930 . S
C563 C564 1.355 . S
C563 C565 1.415 . S
C564 C563 1.355 . S
C564 C566 1.419 . S
C565 C560 1.425 . S
C565 C562 1.409 . S
C565 C563 1.415 . S
C566 H556 0.930 . S
C566 C564 1.419 . S
C566 C567 1.362 . S
C567 H557 0.930 . S
C567 C560 1.409 . S
C567 C566 1.362 . S
H568 C574 0.930 . S
H569 C577 0.930 . S
H570 C578 0.930 . S
H571 C579 0.930 . S
H572 C582 0.930 . S
H573 C583 0.930 . S
C574 H568 0.930 . S
C574 C575 1.355 . S
C574 C576 1.415 . S
C575 C574 1.355 . S
C575 C577 1.419 . S
C576 C574 1.415 . S
C576 C581 1.425 . S
C576 C583 1.409 . S
C577 H569 0.930 . S
C577 C575 1.419 . S
C577 C578 1.362 . S
C578 H570 0.930 . S
C578 C577 1.362 . S
C578 C581 1.409 . S
C579 H571 0.930 . S
C579 C580 1.355 . S
C579 C581 1.415 . S
C580 C579 1.355 . S
C580 C582 1.419 . S
C581 C576 1.425 . S
C581 C578 1.409 . S
C581 C579 1.415 . S
C582 H572 0.930 . S
C582 C580 1.419 . S
C582 C583 1.362 . S
C583 H573 0.930 . S
C583 C576 1.409 . S
C583 C582 1.362 . S
H584 C590 0.930 . S
H585 C593 0.930 1_554 S
H586 C594 0.930 1_554 S
H587 C595 0.914 1_554 S
H588 C598 0.930 . S
H589 C599 0.930 . S
C590 H584 0.930 . S
C590 C591 1.355 . S
C590 C592 1.415 . S
C591 C590 1.355 . S
C591 C593 1.419 . S
C592 C590 1.415 . S
C592 C597 1.425 . S
C592 C599 1.409 . S
C593 H585 0.930 1_556 S
C593 C591 1.419 . S
C593 C594 1.362 . S
C594 H586 0.930 1_556 S
C594 C593 1.362 . S
C594 C597 1.409 . S
C595 H587 0.914 1_556 S
C595 C596 1.355 . S
C595 C597 1.415 . S
C596 C595 1.355 . S
C596 C598 1.419 . S
C597 C592 1.425 . S
C597 C594 1.409 . S
C597 C595 1.415 . S
C598 H588 0.930 . S
C598 C596 1.419 . S
C598 C599 1.362 . S
C599 H589 0.930 . S
C599 C592 1.409 . S
C599 C598 1.362 . S
H600 C606 0.930 . S
H601 C609 0.930 . S
H602 C610 0.930 . S
H603 C611 0.930 . S
H604 C614 0.930 . S
H605 C615 0.930 . S
C606 H600 0.930 . S
C606 C607 1.355 . S
C606 C608 1.415 . S
C607 C606 1.355 . S
C607 C609 1.419 . S
C608 C606 1.415 . S
C608 C613 1.425 . S
C608 C615 1.409 . S
C609 H601 0.930 . S
C609 C607 1.419 . S
C609 C610 1.362 . S
C610 H602 0.930 . S
C610 C609 1.362 . S
C610 C613 1.409 . S
C611 H603 0.930 . S
C611 C612 1.355 . S
C611 C613 1.415 . S
C612 C611 1.355 . S
C612 C614 1.419 . S
C613 C608 1.425 . S
C613 C610 1.409 . S
C613 C611 1.415 . S
C614 H604 0.930 . S
C614 C612 1.419 . S
C614 C615 1.362 . S
C615 H605 0.930 . S
C615 C608 1.409 . S
C615 C614 1.362 . S
H616 C622 0.930 . S
H617 C625 0.930 . S
H618 C626 0.930 . S
H619 C627 0.930 . S
H620 C630 0.930 . S
H621 C631 0.930 . S
C622 H616 0.930 . S
C622 C623 1.355 . S
C622 C624 1.415 . S
C623 C622 1.355 . S
C623 C625 1.419 . S
C624 C622 1.415 . S
C624 C629 1.425 . S
C624 C631 1.409 . S
C625 H617 0.930 . S
C625 C623 1.419 . S
C625 C626 1.362 . S
C626 H618 0.930 . S
C626 C625 1.362 . S
C626 C629 1.409 . S
C627 H619 0.930 . S
C627 C628 1.355 . S
C627 C629 1.415 . S
C628 C627 1.355 . S
C628 C630 1.419 . S
C629 C624 1.425 . S
C629 C626 1.409 . S
C629 C627 1.415 . S
C630 H620 0.930 . S
C630 C628 1.419 . S
C630 C631 1.362 . S
C631 H621 0.930 . S
C631 C624 1.409 . S
C631 C630 1.362 . S
H632 C638 0.930 . S
H633 C641 0.930 . S
H634 C642 0.930 . S
H635 C643 0.930 . S
H636 C646 0.930 . S
H637 C647 0.930 . S
C638 H632 0.930 . S
C638 C639 1.355 . S
C638 C640 1.415 . S
C639 C638 1.355 . S
C639 C641 1.419 . S
C640 C638 1.415 . S
C640 C645 1.425 . S
C640 C647 1.409 . S
C641 H633 0.930 . S
C641 C639 1.419 . S
C641 C642 1.362 . S
C642 H634 0.930 . S
C642 C641 1.362 . S
C642 C645 1.409 . S
C643 H635 0.930 . S
C643 C644 1.355 . S
C643 C645 1.415 . S
C644 C643 1.355 . S
C644 C646 1.419 . S
C645 C640 1.425 . S
C645 C642 1.409 . S
C645 C643 1.415 . S
C646 H636 0.930 . S
C646 C644 1.419 . S
C646 C647 1.362 . S
C647 H637 0.930 . S
C647 C640 1.409 . S
C647 C646 1.362 . S
H648 C654 0.930 . S
H649 C657 0.930 . S
H650 C658 0.930 . S
H651 C659 0.930 . S
H652 C662 0.930 . S
H653 C663 0.930 . S
C654 H648 0.930 . S
C654 C655 1.355 . S
C654 C656 1.415 . S
C655 C654 1.355 . S
C655 C657 1.419 . S
C656 C654 1.415 . S
C656 C661 1.425 . S
C656 C663 1.409 . S
C657 H649 0.930 . S
C657 C655 1.419 . S
C657 C658 1.362 . S
C658 H650 0.930 . S
C658 C657 1.362 . S
C658 C661 1.409 . S
C659 H651 0.930 . S
C659 C660 1.355 . S
C659 C661 1.415 . S
C660 C659 1.355 . S
C660 C662 1.419 . S
C661 C656 1.425 . S
C661 C658 1.409 . S
C661 C659 1.415 . S
C662 H652 0.930 . S
C662 C660 1.419 . S
C662 C663 1.362 . S
C663 H653 0.930 . S
C663 C656 1.409 . S
C663 C662 1.362 . S
H664 C670 0.930 . S
H665 C673 0.930 . S
H666 C674 0.930 . S
H667 C675 0.930 . S
H668 C678 0.930 . S
H669 C679 0.930 . S
C670 H664 0.930 . S
C670 C671 1.355 . S
C670 C672 1.415 . S
C671 C670 1.355 . S
C671 C673 1.419 . S
C672 C670 1.415 . S
C672 C677 1.425 . S
C672 C679 1.409 . S
C673 H665 0.930 . S
C673 C671 1.419 . S
C673 C674 1.362 . S
C674 H666 0.930 . S
C674 C673 1.362 . S
C674 C677 1.409 . S
C675 H667 0.930 . S
C675 C676 1.355 . S
C675 C677 1.415 . S
C676 C675 1.355 . S
C676 C678 1.419 . S
C677 C672 1.425 . S
C677 C674 1.409 . S
C677 C675 1.415 . S
C678 H668 0.930 . S
C678 C676 1.419 . S
C678 C679 1.362 . S
C679 H669 0.930 . S
C679 C672 1.409 . S
C679 C678 1.362 . S
H680 C686 0.930 . S
H681 C689 0.930 . S
H682 C690 0.930 . S
H683 C691 0.930 . S
H684 C694 0.930 . S
H685 C695 0.930 . S
C686 H680 0.930 . S
C686 C687 1.355 . S
C686 C688 1.415 . S
C687 C686 1.355 . S
C687 C689 1.419 . S
C688 C686 1.415 . S
C688 C693 1.425 . S
C688 C695 1.409 . S
C689 H681 0.930 . S
C689 C687 1.419 . S
C689 C690 1.362 . S
C690 H682 0.930 . S
C690 C689 1.362 . S
C690 C693 1.409 . S
C691 H683 0.930 . S
C691 C692 1.355 . S
C691 C693 1.415 . S
C692 C691 1.355 . S
C692 C694 1.419 . S
C693 C688 1.425 . S
C693 C690 1.409 . S
C693 C691 1.415 . S
C694 H684 0.930 . S
C694 C692 1.419 . S
C694 C695 1.362 . S
C695 H685 0.930 . S
C695 C688 1.409 . S
C695 C694 1.362 . S
H696 C702 0.930 . S
H697 C705 0.930 . S
H698 C706 0.930 . S
H699 C707 0.930 . S
H700 C710 0.930 . S
H701 C711 0.930 . S
C702 H696 0.930 . S
C702 C703 1.355 . S
C702 C704 1.415 . S
C703 C702 1.355 . S
C703 C705 1.419 . S
C704 C702 1.415 . S
C704 C709 1.425 . S
C704 C711 1.409 . S
C705 H697 0.930 . S
C705 C703 1.419 . S
C705 C706 1.362 . S
C706 H698 0.930 . S
C706 C705 1.362 . S
C706 C709 1.409 . S
C707 H699 0.930 . S
C707 C708 1.355 . S
C707 C709 1.415 . S
C708 C707 1.355 . S
C708 C710 1.419 . S
C709 C704 1.425 . S
C709 C706 1.409 . S
C709 C707 1.415 . S
C710 H700 0.930 . S
C710 C708 1.419 . S
C710 C711 1.362 . S
C711 H701 0.930 . S
C711 C704 1.409 . S
C711 C710 1.362 . S
H712 C718 0.930 . S
H713 C721 0.930 . S
H714 C722 0.930 . S
H715 C723 0.930 . S
H716 C726 0.930 . S
H717 C727 0.930 . S
C718 H712 0.930 . S
C718 C719 1.355 . S
C718 C720 1.415 . S
C719 C718 1.355 . S
C719 C721 1.419 . S
C720 C718 1.415 . S
C720 C725 1.425 . S
C720 C727 1.409 . S
C721 H713 0.930 . S
C721 C719 1.419 . S
C721 C722 1.362 . S
C722 H714 0.930 . S
C722 C721 1.362 . S
C722 C725 1.409 . S
C723 H715 0.930 . S
C723 C724 1.355 . S
C723 C725 1.415 . S
C724 C723 1.355 . S
C724 C726 1.419 . S
C725 C720 1.425 . S
C725 C722 1.409 . S
C725 C723 1.415 . S
C726 H716 0.930 . S
C726 C724 1.419 . S
C726 C727 1.362 . S
C727 H717 0.930 . S
C727 C720 1.409 . S
C727 C726 1.362 . S
H728 C734 0.930 . S
H729 C737 0.930 . S
H730 C738 0.930 . S
H731 C739 0.930 . S
H732 C742 0.930 . S
H733 C743 0.930 . S
C734 H728 0.930 . S
C734 C735 1.355 . S
C734 C736 1.415 . S
C735 C734 1.355 . S
C735 C737 1.419 . S
C736 C734 1.415 . S
C736 C741 1.425 . S
C736 C743 1.409 . S
C737 H729 0.930 . S
C737 C735 1.419 . S
C737 C738 1.362 . S
C738 H730 0.930 . S
C738 C737 1.362 . S
C738 C741 1.409 . S
C739 H731 0.930 . S
C739 C740 1.355 . S
C739 C741 1.415 . S
C740 C739 1.355 . S
C740 C742 1.419 . S
C741 C736 1.425 . S
C741 C738 1.409 . S
C741 C739 1.415 . S
C742 H732 0.930 . S
C742 C740 1.419 . S
C742 C743 1.362 . S
C743 H733 0.930 . S
C743 C736 1.409 . S
C743 C742 1.362 . S
H744 C750 0.930 . S
H745 C753 0.930 . S
H746 C754 0.930 . S
H747 C755 0.930 . S
H748 C758 0.930 . S
H749 C759 0.930 . S
C750 H744 0.930 . S
C750 C751 1.355 . S
C750 C752 1.415 . S
C751 C750 1.355 . S
C751 C753 1.419 . S
C752 C750 1.415 . S
C752 C757 1.425 . S
C752 C759 1.409 . S
C753 H745 0.930 . S
C753 C751 1.419 . S
C753 C754 1.362 . S
C754 H746 0.930 . S
C754 C753 1.362 . S
C754 C757 1.409 . S
C755 H747 0.930 . S
C755 C756 1.355 . S
C755 C757 1.415 . S
C756 C755 1.355 . S
C756 C758 1.419 . S
C757 C752 1.425 . S
C757 C754 1.409 . S
C757 C755 1.415 . S
C758 H748 0.930 . S
C758 C756 1.419 . S
C758 C759 1.362 . S
C759 H749 0.930 . S
C759 C752 1.409 . S
C759 C758 1.362 . S
H760 C766 0.930 . S
H761 C769 0.930 . S
H762 C770 0.930 . S
H763 C771 0.930 . S
H764 C774 0.930 . S
H765 C775 0.930 . S
C766 H760 0.930 . S
C766 C767 1.355 . S
C766 C768 1.415 . S
C767 C766 1.355 . S
C767 C769 1.419 . S
C768 C766 1.415 . S
C768 C773 1.425 . S
C768 C775 1.409 . S
C769 H761 0.930 . S
C769 C767 1.419 . S
C769 C770 1.362 . S
C770 H762 0.930 . S
C770 C769 1.362 . S
C770 C773 1.409 . S
C771 H763 0.930 . S
C771 C772 1.355 . S
C771 C773 1.415 . S
C772 C771 1.355 . S
C772 C774 1.419 . S
C773 C768 1.425 . S
C773 C770 1.409 . S
C773 C771 1.415 . S
C774 H764 0.930 . S
C774 C772 1.419 . S
C774 C775 1.362 . S
C775 H765 0.930 . S
C775 C768 1.409 . S
C775 C774 1.362 . S
H776 C782 0.930 . S
H777 C785 0.930 . S
H778 C786 0.930 . S
H779 C787 0.930 . S
H780 C790 0.930 . S
H781 C791 0.930 . S
C782 H776 0.930 . S
C782 C783 1.355 . S
C782 C784 1.415 . S
C783 C782 1.355 . S
C783 C785 1.419 . S
C784 C782 1.415 . S
C784 C789 1.425 . S
C784 C791 1.409 . S
C785 H777 0.930 . S
C785 C783 1.419 . S
C785 C786 1.362 . S
C786 H778 0.930 . S
C786 C785 1.362 . S
C786 C789 1.409 . S
C787 H779 0.930 . S
C787 C788 1.355 . S
C787 C789 1.415 . S
C788 C787 1.355 . S
C788 C790 1.419 . S
C789 C784 1.425 . S
C789 C786 1.409 . S
C789 C787 1.415 . S
C790 H780 0.930 . S
C790 C788 1.419 . S
C790 C791 1.362 . S
C791 H781 0.930 . S
C791 C784 1.409 . S
C791 C790 1.362 . S
H792 C798 0.930 . S
H793 C801 0.930 . S
H794 C802 0.930 . S
H795 C803 0.930 . S
H796 C806 0.930 . S
H797 C807 0.930 . S
C798 H792 0.930 . S
C798 C799 1.355 . S
C798 C800 1.386 1_455 S
C799 C798 1.355 . S
C799 C801 1.419 1_554 S
C800 C798 1.386 1_655 S
C800 C805 1.417 1_654 S
C800 C807 1.443 . S
C801 H793 0.930 . S
C801 C799 1.419 1_556 S
C801 C802 1.362 . S
C802 H794 0.930 . S
C802 C801 1.362 . S
C802 C805 1.444 . S
C803 H795 0.930 . S
C803 C804 1.355 . S
C803 C805 1.386 1_655 S
C804 C803 1.355 . S
C804 C806 1.419 1_556 S
C805 C800 1.417 1_456 S
C805 C802 1.444 . S
C805 C803 1.386 1_455 S
C806 H796 0.930 . S
C806 C804 1.419 1_554 S
C806 C807 1.362 . S
C807 H797 0.930 . S
C807 C800 1.443 . S
C807 C806 1.362 . S
H808 C814 0.930 . S
H809 C817 0.930 . S
H810 C818 0.930 . S
H811 C819 0.930 . S
H812 C822 0.930 . S
H813 C823 0.930 . S
C814 H808 0.930 . S
C814 C815 1.355 . S
C814 C816 1.415 1_556 S
C815 C814 1.355 . S
C815 C817 1.419 . S
C816 C814 1.415 1_554 S
C816 C821 1.425 1_554 S
C816 C823 1.409 . S
C817 H809 0.930 . S
C817 C815 1.419 . S
C817 C818 1.362 . S
C818 H810 0.930 . S
C818 C817 1.362 . S
C818 C821 1.409 . S
C819 H811 0.930 . S
C819 C820 1.355 . S
C819 C821 1.415 1_554 S
C820 C819 1.355 . S
C820 C822 1.419 . S
C821 C816 1.425 1_556 S
C821 C818 1.409 . S
C821 C819 1.415 1_556 S
C822 H812 0.930 . S
C822 C820 1.419 . S
C822 C823 1.362 . S
C823 H813 0.930 . S
C823 C816 1.409 . S
C823 C822 1.362 . S
H824 C830 0.930 1_556 S
H825 C833 0.930 . S
H826 C834 0.930 1_545 S
H827 C835 0.930 1_554 S
H828 C838 0.930 . S
H829 C839 0.930 1_565 S
C830 H824 0.930 1_554 S
C830 C831 1.355 . S
C830 C832 1.415 1_554 S
C831 C830 1.355 . S
C831 C833 1.419 . S
C832 C830 1.415 1_556 S
C832 C837 1.425 1_566 S
C832 C839 1.409 1_565 S
C833 H825 0.930 . S
C833 C831 1.419 . S
C833 C834 1.362 . S
C834 H826 0.930 1_565 S
C834 C833 1.362 . S
C834 C837 1.409 1_565 S
C835 H827 0.930 1_556 S
C835 C836 1.355 . S
C835 C837 1.415 1_556 S
C836 C835 1.355 . S
C836 C838 1.419 . S
C837 C832 1.425 1_544 S
C837 C834 1.409 1_545 S
C837 C835 1.415 1_554 S
C838 H828 0.930 . S
C838 C836 1.419 . S
C838 C839 1.362 . S
C839 H829 0.930 1_545 S
C839 C832 1.409 1_545 S
C839 C838 1.362 . S
H840 C846 0.930 . S
H841 C849 0.930 . S
H842 C850 0.933 1_455 S
H843 C851 0.930 . S
H844 C854 0.930 . S
H845 C855 0.933 1_655 S
C846 H840 0.930 . S
C846 C847 1.355 . S
C846 C848 1.415 1_556 S
C847 C846 1.355 . S
C847 C849 1.419 . S
C848 C846 1.415 1_554 S
C848 C853 1.425 1_654 S
C848 C855 1.409 1_655 S
C849 H841 0.930 . S
C849 C847 1.419 . S
C849 C850 1.362 . S
C850 H842 0.933 1_655 S
C850 C849 1.362 . S
C850 C853 1.409 1_655 S
C851 H843 0.930 . S
C851 C852 1.355 . S
C851 C853 1.415 1_554 S
C852 C851 1.355 . S
C852 C854 1.419 . S
C853 C848 1.425 1_456 S
C853 C850 1.409 1_455 S
C853 C851 1.415 1_556 S
C854 H844 0.930 . S
C854 C852 1.419 . S
C854 C855 1.362 . S
C855 H845 0.933 1_455 S
C855 C848 1.409 1_455 S
C855 C854 1.362 . S
H856 C862 0.930 . S
H857 C865 0.930 . S
H858 C866 0.930 . S
H859 C867 0.930 . S
H860 C870 0.930 . S
H861 C871 0.930 . S
C862 H856 0.930 . S
C862 C863 1.355 . S
C862 C864 1.415 . S
C863 C862 1.355 . S
C863 C865 1.419 . S
C864 C862 1.415 . S
C864 C869 1.425 1_556 S
C864 C871 1.409 . S
C865 H857 0.930 . S
C865 C863 1.419 . S
C865 C866 1.362 1_556 S
C866 H858 0.930 . S
C866 C865 1.362 1_554 S
C866 C869 1.409 . S
C867 H859 0.930 . S
C867 C868 1.355 . S
C867 C869 1.415 . S
C868 C867 1.355 . S
C868 C870 1.419 . S
C869 C864 1.425 1_554 S
C869 C866 1.409 . S
C869 C867 1.415 . S
C870 H860 0.930 . S
C870 C868 1.419 . S
C870 C871 1.362 1_554 S
C871 H861 0.930 . S
C871 C864 1.409 . S
C871 C870 1.362 1_556 S
H872 C878 0.930 1_554 S
H873 C881 0.930 . S
H874 C882 0.930 1_565 S
H875 C883 0.930 1_556 S
H876 C886 0.930 . S
H877 C887 0.930 1_545 S
C878 H872 0.930 1_556 S
C878 C879 1.355 . S
C878 C880 1.415 1_556 S
C879 C878 1.355 . S
C879 C881 1.419 . S
C880 C878 1.415 1_554 S
C880 C885 1.425 1_544 S
C880 C887 1.409 1_545 S
C881 H873 0.930 . S
C881 C879 1.419 . S
C881 C882 1.362 . S
C882 H874 0.930 1_545 S
C882 C881 1.362 . S
C882 C885 1.409 1_545 S
C883 H875 0.930 1_554 S
C883 C884 1.355 . S
C883 C885 1.415 1_554 S
C884 C883 1.355 . S
C884 C886 1.419 . S
C885 C880 1.425 1_566 S
C885 C882 1.409 1_565 S
C885 C883 1.415 1_556 S
C886 H876 0.930 . S
C886 C884 1.419 . S
C886 C887 1.362 . S
C887 H877 0.930 1_565 S
C887 C880 1.409 1_565 S
C887 C886 1.362 . S
H888 C894 0.930 . S
H889 C897 0.930 . S
H890 C898 0.930 . S
H891 C899 0.930 . S
H892 C902 0.930 . S
H893 C903 0.930 . S
C894 H888 0.930 . S
C894 C895 1.355 . S
C894 C896 1.415 . S
C895 C894 1.355 . S
C895 C897 1.419 . S
C896 C894 1.415 . S
C896 C901 1.425 . S
C896 C903 1.409 . S
C897 H889 0.930 . S
C897 C895 1.419 . S
C897 C898 1.362 . S
C898 H890 0.930 . S
C898 C897 1.362 . S
C898 C901 1.409 . S
C899 H891 0.930 . S
C899 C900 1.355 . S
C899 C901 1.415 . S
C900 C899 1.355 . S
C900 C902 1.419 . S
C901 C896 1.425 . S
C901 C898 1.409 . S
C901 C899 1.415 . S
C902 H892 0.930 . S
C902 C900 1.419 . S
C902 C903 1.362 . S
C903 H893 0.930 . S
C903 C896 1.409 . S
C903 C902 1.362 . S
H904 C910 0.930 . S
H905 C913 0.930 . S
H906 C914 0.930 . S
H907 C915 0.930 . S
H908 C918 0.930 . S
H909 C919 0.930 . S
C910 H904 0.930 . S
C910 C911 1.355 . S
C910 C912 1.415 . S
C911 C910 1.355 . S
C911 C913 1.419 . S
C912 C910 1.415 . S
C912 C917 1.425 . S
C912 C919 1.409 . S
C913 H905 0.930 . S
C913 C911 1.419 . S
C913 C914 1.362 . S
C914 H906 0.930 . S
C914 C913 1.362 . S
C914 C917 1.409 . S
C915 H907 0.930 . S
C915 C916 1.355 . S
C915 C917 1.415 . S
C916 C915 1.355 . S
C916 C918 1.419 . S
C917 C912 1.425 . S
C917 C914 1.409 . S
C917 C915 1.415 . S
C918 H908 0.930 . S
C918 C916 1.419 . S
C918 C919 1.362 . S
C919 H909 0.930 . S
C919 C912 1.409 . S
C919 C918 1.362 . S
H920 C926 0.930 . S
H921 C929 0.930 . S
H922 C930 0.930 . S
H923 C931 0.930 . S
H924 C934 0.930 . S
H925 C935 0.930 . S
C926 H920 0.930 . S
C926 C927 1.355 . S
C926 C928 1.415 . S
C927 C926 1.355 . S
C927 C929 1.419 . S
C928 C926 1.415 . S
C928 C933 1.425 . S
C928 C935 1.409 . S
C929 H921 0.930 . S
C929 C927 1.419 . S
C929 C930 1.362 . S
C930 H922 0.930 . S
C930 C929 1.362 . S
C930 C933 1.409 . S
C931 H923 0.930 . S
C931 C932 1.355 . S
C931 C933 1.415 . S
C932 C931 1.355 . S
C932 C934 1.419 . S
C933 C928 1.425 . S
C933 C930 1.409 . S
C933 C931 1.415 . S
C934 H924 0.930 . S
C934 C932 1.419 . S
C934 C935 1.362 . S
C935 H925 0.930 . S
C935 C928 1.409 . S
C935 C934 1.362 . S
H936 C942 0.930 . S
H937 C945 0.930 . S
H938 C946 0.930 . S
H939 C947 0.930 . S
H940 C950 0.930 . S
H941 C951 0.930 . S
C942 H936 0.930 . S
C942 C943 1.355 . S
C942 C944 1.415 . S
C943 C942 1.355 . S
C943 C945 1.419 . S
C944 C942 1.415 . S
C944 C949 1.425 . S
C944 C951 1.409 . S
C945 H937 0.930 . S
C945 C943 1.419 . S
C945 C946 1.362 . S
C946 H938 0.930 . S
C946 C945 1.362 . S
C946 C949 1.409 . S
C947 H939 0.930 . S
C947 C948 1.355 . S
C947 C949 1.415 . S
C948 C947 1.355 . S
C948 C950 1.419 . S
C949 C944 1.425 . S
C949 C946 1.409 . S
C949 C947 1.415 . S
C950 H940 0.930 . S
C950 C948 1.419 . S
C950 C951 1.362 . S
C951 H941 0.930 . S
C951 C944 1.409 . S
C951 C950 1.362 . S
H952 C958 0.930 . S
H953 C961 0.930 . S
H954 C962 0.930 . S
H955 C963 0.930 . S
H956 C966 0.930 . S
H957 C967 0.930 . S
C958 H952 0.930 . S
C958 C959 1.355 . S
C958 C960 1.415 . S
C959 C958 1.355 . S
C959 C961 1.419 . S
C960 C958 1.415 . S
C960 C965 1.425 . S
C960 C967 1.409 . S
C961 H953 0.930 . S
C961 C959 1.419 . S
C961 C962 1.362 . S
C962 H954 0.930 . S
C962 C961 1.362 . S
C962 C965 1.409 . S
C963 H955 0.930 . S
C963 C964 1.355 . S
C963 C965 1.415 . S
C964 C963 1.355 . S
C964 C966 1.419 . S
C965 C960 1.425 . S
C965 C962 1.409 . S
C965 C963 1.415 . S
C966 H956 0.930 . S
C966 C964 1.419 . S
C966 C967 1.362 . S
C967 H957 0.930 . S
C967 C960 1.409 . S
C967 C966 1.362 . S
H968 C974 0.930 . S
H969 C977 0.930 . S
H970 C978 0.930 . S
H971 C979 0.930 . S
H972 C982 0.930 . S
H973 C983 0.930 . S
C974 H968 0.930 . S
C974 C975 1.355 . S
C974 C976 1.415 . S
C975 C974 1.355 . S
C975 C977 1.419 . S
C976 C974 1.415 . S
C976 C981 1.425 . S
C976 C983 1.409 . S
C977 H969 0.930 . S
C977 C975 1.419 . S
C977 C978 1.362 . S
C978 H970 0.930 . S
C978 C977 1.362 . S
C978 C981 1.409 . S
C979 H971 0.930 . S
C979 C980 1.355 . S
C979 C981 1.415 . S
C980 C979 1.355 . S
C980 C982 1.419 . S
C981 C976 1.425 . S
C981 C978 1.409 . S
C981 C979 1.415 . S
C982 H972 0.930 . S
C982 C980 1.419 . S
C982 C983 1.362 . S
C983 H973 0.930 . S
C983 C976 1.409 . S
C983 C982 1.362 . S
H984 C990 0.930 . S
H985 C993 0.930 . S
H986 C994 0.930 . S
H987 C995 0.930 . S
H988 C998 0.930 . S
H989 C999 0.930 . S
C990 H984 0.930 . S
C990 C991 1.355 . S
C990 C992 1.415 . S
C991 C990 1.355 . S
C991 C993 1.419 . S
C992 C990 1.415 . S
C992 C997 1.425 . S
C992 C999 1.409 . S
C993 H985 0.930 . S
C993 C991 1.419 . S
C993 C994 1.362 . S
C994 H986 0.930 . S
C994 C993 1.362 . S
C994 C997 1.409 . S
C995 H987 0.930 . S
C995 C996 1.355 . S
C995 C997 1.415 . S
C996 C995 1.355 . S
C996 C998 1.419 . S
C997 C992 1.425 . S
C997 C994 1.409 . S
C997 C995 1.415 . S
C998 H988 0.930 . S
C998 C996 1.419 . S
C998 C999 1.362 . S
C999 H989 0.930 . S
C999 C992 1.409 . S
C999 C998 1.362 . S
H1000 C1006 0.930 . S
H1001 C1009 0.930 . S
H1002 C1010 0.930 . S
H1003 C1011 0.930 . S
H1004 C1014 0.930 . S
H1005 C1015 0.930 . S
C1006 H1000 0.930 . S
C1006 C1007 1.355 . S
C1006 C1008 1.415 . S
C1007 C1006 1.355 . S
C1007 C1009 1.419 . S
C1008 C1006 1.415 . S
C1008 C1013 1.425 . S
C1008 C1015 1.409 . S
C1009 H1001 0.930 . S
C1009 C1007 1.419 . S
C1009 C1010 1.362 . S
C1010 H1002 0.930 . S
C1010 C1009 1.362 . S
C1010 C1013 1.409 . S
C1011 H1003 0.930 . S
C1011 C1012 1.355 . S
C1011 C1013 1.415 . S
C1012 C1011 1.355 . S
C1012 C1014 1.419 . S
C1013 C1008 1.425 . S
C1013 C1010 1.409 . S
C1013 C1011 1.415 . S
C1014 H1004 0.930 . S
C1014 C1012 1.419 . S
C1014 C1015 1.362 . S
C1015 H1005 0.930 . S
C1015 C1008 1.409 . S
C1015 C1014 1.362 . S
H1016 C1022 0.930 . S
H1017 C1025 0.930 . S
H1018 C1026 0.930 . S
H1019 C1027 0.930 . S
H1020 C1030 0.930 . S
H1021 C1031 0.930 . S
C1022 H1016 0.930 . S
C1022 C1023 1.355 . S
C1022 C1024 1.415 . S
C1023 C1022 1.355 . S
C1023 C1025 1.419 . S
C1024 C1022 1.415 . S
C1024 C1029 1.425 . S
C1024 C1031 1.409 . S
C1025 H1017 0.930 . S
C1025 C1023 1.419 . S
C1025 C1026 1.362 . S
C1026 H1018 0.930 . S
C1026 C1025 1.362 . S
C1026 C1029 1.409 . S
C1027 H1019 0.930 . S
C1027 C1028 1.355 . S
C1027 C1029 1.415 . S
C1028 C1027 1.355 . S
C1028 C1030 1.419 . S
C1029 C1024 1.425 . S
C1029 C1026 1.409 . S
C1029 C1027 1.415 . S
C1030 H1020 0.930 . S
C1030 C1028 1.419 . S
C1030 C1031 1.362 . S
C1031 H1021 0.930 . S
C1031 C1024 1.409 . S
C1031 C1030 1.362 . S
H1032 C1038 0.930 . S
H1033 C1041 0.930 . S
H1034 C1042 0.930 . S
H1035 C1043 0.930 . S
H1036 C1046 0.930 . S
H1037 C1047 0.930 . S
C1038 H1032 0.930 . S
C1038 C1039 1.355 . S
C1038 C1040 1.415 . S
C1039 C1038 1.355 . S
C1039 C1041 1.419 . S
C1040 C1038 1.415 . S
C1040 C1045 1.425 . S
C1040 C1047 1.409 . S
C1041 H1033 0.930 . S
C1041 C1039 1.419 . S
C1041 C1042 1.362 . S
C1042 H1034 0.930 . S
C1042 C1041 1.362 . S
C1042 C1045 1.409 . S
C1043 H1035 0.930 . S
C1043 C1044 1.355 . S
C1043 C1045 1.415 . S
C1044 C1043 1.355 . S
C1044 C1046 1.419 . S
C1045 C1040 1.425 . S
C1045 C1042 1.409 . S
C1045 C1043 1.415 . S
C1046 H1036 0.930 . S
C1046 C1044 1.419 . S
C1046 C1047 1.362 . S
C1047 H1037 0.930 . S
C1047 C1040 1.409 . S
C1047 C1046 1.362 . S
H1048 C1054 0.930 . S
H1049 C1057 0.930 . S
H1050 C1058 0.930 . S
H1051 C1059 0.930 . S
H1052 C1062 0.930 . S
H1053 C1063 0.930 . S
C1054 H1048 0.930 . S
C1054 C1055 1.355 . S
C1054 C1056 1.415 . S
C1055 C1054 1.355 . S
C1055 C1057 1.419 . S
C1056 C1054 1.415 . S
C1056 C1061 1.425 . S
C1056 C1063 1.409 . S
C1057 H1049 0.930 . S
C1057 C1055 1.419 . S
C1057 C1058 1.362 . S
C1058 H1050 0.930 . S
C1058 C1057 1.362 . S
C1058 C1061 1.409 . S
C1059 H1051 0.930 . S
C1059 C1060 1.355 . S
C1059 C1061 1.415 . S
C1060 C1059 1.355 . S
C1060 C1062 1.419 . S
C1061 C1056 1.425 . S
C1061 C1058 1.409 . S
C1061 C1059 1.415 . S
C1062 H1052 0.930 . S
C1062 C1060 1.419 . S
C1062 C1063 1.362 . S
C1063 H1053 0.930 . S
C1063 C1056 1.409 . S
C1063 C1062 1.362 . S
H1064 C1070 0.930 . S
H1065 C1073 0.930 . S
H1066 C1074 0.930 . S
H1067 C1075 0.930 . S
H1068 C1078 0.930 . S
H1069 C1079 0.930 . S
C1070 H1064 0.930 . S
C1070 C1071 1.355 . S
C1070 C1072 1.415 . S
C1071 C1070 1.355 . S
C1071 C1073 1.419 . S
C1072 C1070 1.415 . S
C1072 C1077 1.425 . S
C1072 C1079 1.409 . S
C1073 H1065 0.930 . S
C1073 C1071 1.419 . S
C1073 C1074 1.362 . S
C1074 H1066 0.930 . S
C1074 C1073 1.362 . S
C1074 C1077 1.409 . S
C1075 H1067 0.930 . S
C1075 C1076 1.355 . S
C1075 C1077 1.415 . S
C1076 C1075 1.355 . S
C1076 C1078 1.419 . S
C1077 C1072 1.425 . S
C1077 C1074 1.409 . S
C1077 C1075 1.415 . S
C1078 H1068 0.930 . S
C1078 C1076 1.419 . S
C1078 C1079 1.362 . S
C1079 H1069 0.930 . S
C1079 C1072 1.409 . S
C1079 C1078 1.362 . S
H1080 C1086 0.930 . S
H1081 C1089 0.930 . S
H1082 C1090 0.930 . S
H1083 C1091 0.930 . S
H1084 C1094 0.930 . S
H1085 C1095 0.930 . S
C1086 H1080 0.930 . S
C1086 C1087 1.355 . S
C1086 C1088 1.415 . S
C1087 C1086 1.355 . S
C1087 C1089 1.419 . S
C1088 C1086 1.415 . S
C1088 C1093 1.425 . S
C1088 C1095 1.409 . S
C1089 H1081 0.930 . S
C1089 C1087 1.419 . S
C1089 C1090 1.362 . S
C1090 H1082 0.930 . S
C1090 C1089 1.362 . S
C1090 C1093 1.409 . S
C1091 H1083 0.930 . S
C1091 C1092 1.355 . S
C1091 C1093 1.415 . S
C1092 C1091 1.355 . S
C1092 C1094 1.419 . S
C1093 C1088 1.425 . S
C1093 C1090 1.409 . S
C1093 C1091 1.415 . S
C1094 H1084 0.930 . S
C1094 C1092 1.419 . S
C1094 C1095 1.362 . S
C1095 H1085 0.930 . S
C1095 C1088 1.409 . S
C1095 C1094 1.362 . S
H1096 C1102 0.930 . S
H1097 C1105 0.930 . S
H1098 C1106 0.930 . S
H1099 C1107 0.930 . S
H1100 C1110 0.930 . S
H1101 C1111 0.930 . S
C1102 H1096 0.930 . S
C1102 C1103 1.355 . S
C1102 C1104 1.415 . S
C1103 C1102 1.355 . S
C1103 C1105 1.419 . S
C1104 C1102 1.415 . S
C1104 C1109 1.425 . S
C1104 C1111 1.409 . S
C1105 H1097 0.930 . S
C1105 C1103 1.419 . S
C1105 C1106 1.362 . S
C1106 H1098 0.930 . S
C1106 C1105 1.362 . S
C1106 C1109 1.409 . S
C1107 H1099 0.930 . S
C1107 C1108 1.355 . S
C1107 C1109 1.415 . S
C1108 C1107 1.355 . S
C1108 C1110 1.419 . S
C1109 C1104 1.425 . S
C1109 C1106 1.409 . S
C1109 C1107 1.415 . S
C1110 H1100 0.930 . S
C1110 C1108 1.419 . S
C1110 C1111 1.362 . S
C1111 H1101 0.930 . S
C1111 C1104 1.409 . S
C1111 C1110 1.362 . S
H1112 C1118 0.930 . S
H1113 C1121 0.930 . S
H1114 C1122 0.930 . S
H1115 C1123 0.930 . S
H1116 C1126 0.930 . S
H1117 C1127 0.930 . S
C1118 H1112 0.930 . S
C1118 C1119 1.355 . S
C1118 C1120 1.415 . S
C1119 C1118 1.355 . S
C1119 C1121 1.419 . S
C1120 C1118 1.415 . S
C1120 C1125 1.425 . S
C1120 C1127 1.409 . S
C1121 H1113 0.930 . S
C1121 C1119 1.419 . S
C1121 C1122 1.362 . S
C1122 H1114 0.930 . S
C1122 C1121 1.362 . S
C1122 C1125 1.409 . S
C1123 H1115 0.930 . S
C1123 C1124 1.355 . S
C1123 C1125 1.415 . S
C1124 C1123 1.355 . S
C1124 C1126 1.419 . S
C1125 C1120 1.425 . S
C1125 C1122 1.409 . S
C1125 C1123 1.415 . S
C1126 H1116 0.930 . S
C1126 C1124 1.419 . S
C1126 C1127 1.362 . S
C1127 H1117 0.930 . S
C1127 C1120 1.409 . S
C1127 C1126 1.362 . S
H1128 C1134 0.930 . S
H1129 C1137 0.930 . S
H1130 C1138 0.930 . S
H1131 C1139 0.930 . S
H1132 C1142 0.930 . S
H1133 C1143 0.930 . S
C1134 H1128 0.930 . S
C1134 C1135 1.355 . S
C1134 C1136 1.415 . S
C1135 C1134 1.355 . S
C1135 C1137 1.419 . S
C1136 C1134 1.415 . S
C1136 C1141 1.425 . S
C1136 C1143 1.409 . S
C1137 H1129 0.930 . S
C1137 C1135 1.419 . S
C1137 C1138 1.362 . S
C1138 H1130 0.930 . S
C1138 C1137 1.362 . S
C1138 C1141 1.409 . S
C1139 H1131 0.930 . S
C1139 C1140 1.355 . S
C1139 C1141 1.415 . S
C1140 C1139 1.355 . S
C1140 C1142 1.419 . S
C1141 C1136 1.425 . S
C1141 C1138 1.409 . S
C1141 C1139 1.415 . S
C1142 H1132 0.930 . S
C1142 C1140 1.419 . S
C1142 C1143 1.362 . S
C1143 H1133 0.930 . S
C1143 C1136 1.409 . S
C1143 C1142 1.362 . S
H1144 C1150 0.930 . S
H1145 C1153 0.930 . S
H1146 C1154 0.930 . S
H1147 C1155 0.930 . S
H1148 C1158 0.930 . S
H1149 C1159 0.930 . S
C1150 H1144 0.930 . S
C1150 C1151 1.355 . S
C1150 C1152 1.415 . S
C1151 C1150 1.355 . S
C1151 C1153 1.419 . S
C1152 C1150 1.415 . S
C1152 C1157 1.425 . S
C1152 C1159 1.409 . S
C1153 H1145 0.930 . S
C1153 C1151 1.419 . S
C1153 C1154 1.362 . S
C1154 H1146 0.930 . S
C1154 C1153 1.362 . S
C1154 C1157 1.409 . S
C1155 H1147 0.930 . S
C1155 C1156 1.355 . S
C1155 C1157 1.415 . S
C1156 C1155 1.355 . S
C1156 C1158 1.419 . S
C1157 C1152 1.425 . S
C1157 C1154 1.409 . S
C1157 C1155 1.415 . S
C1158 H1148 0.930 . S
C1158 C1156 1.419 . S
C1158 C1159 1.362 . S
C1159 H1149 0.930 . S
C1159 C1152 1.409 . S
C1159 C1158 1.362 . S
H1160 C1166 0.930 . S
H1161 C1169 0.930 . S
H1162 C1170 0.930 . S
H1163 C1171 0.930 . S
H1164 C1174 0.930 . S
H1165 C1175 0.930 . S
C1166 H1160 0.930 . S
C1166 C1167 1.355 . S
C1166 C1168 1.415 . S
C1167 C1166 1.355 . S
C1167 C1169 1.419 . S
C1168 C1166 1.415 . S
C1168 C1173 1.425 . S
C1168 C1175 1.409 . S
C1169 H1161 0.930 . S
C1169 C1167 1.419 . S
C1169 C1170 1.362 . S
C1170 H1162 0.930 . S
C1170 C1169 1.362 . S
C1170 C1173 1.409 . S
C1171 H1163 0.930 . S
C1171 C1172 1.355 . S
C1171 C1173 1.415 . S
C1172 C1171 1.355 . S
C1172 C1174 1.419 . S
C1173 C1168 1.425 . S
C1173 C1170 1.409 . S
C1173 C1171 1.415 . S
C1174 H1164 0.930 . S
C1174 C1172 1.419 . S
C1174 C1175 1.362 . S
C1175 H1165 0.930 . S
C1175 C1168 1.409 . S
C1175 C1174 1.362 . S
H1176 C1182 0.930 . S
H1177 C1185 0.930 . S
H1178 C1186 0.930 . S
H1179 C1187 0.930 . S
H1180 C1190 0.930 . S
H1181 C1191 0.930 . S
C1182 H1176 0.930 . S
C1182 C1183 1.355 . S
C1182 C1184 1.415 . S
C1183 C1182 1.355 . S
C1183 C1185 1.419 . S
C1184 C1182 1.415 . S
C1184 C1189 1.425 . S
C1184 C1191 1.409 . S
C1185 H1177 0.930 . S
C1185 C1183 1.419 . S
C1185 C1186 1.362 . S
C1186 H1178 0.930 . S
C1186 C1185 1.362 . S
C1186 C1189 1.409 . S
C1187 H1179 0.930 . S
C1187 C1188 1.355 . S
C1187 C1189 1.415 . S
C1188 C1187 1.355 . S
C1188 C1190 1.419 . S
C1189 C1184 1.425 . S
C1189 C1186 1.409 . S
C1189 C1187 1.415 . S
C1190 H1180 0.930 . S
C1190 C1188 1.419 . S
C1190 C1191 1.362 . S
C1191 H1181 0.930 . S
C1191 C1184 1.409 . S
C1191 C1190 1.362 . S
H1192 C1198 0.930 . S
H1193 C1201 0.930 . S
H1194 C1202 0.930 . S
H1195 C1203 0.930 . S
H1196 C1206 0.930 . S
H1197 C1207 0.930 . S
C1198 H1192 0.930 . S
C1198 C1199 1.355 . S
C1198 C1200 1.415 . S
C1199 C1198 1.355 . S
C1199 C1201 1.419 . S
C1200 C1198 1.415 . S
C1200 C1205 1.425 . S
C1200 C1207 1.409 . S
C1201 H1193 0.930 . S
C1201 C1199 1.419 . S
C1201 C1202 1.362 . S
C1202 H1194 0.930 . S
C1202 C1201 1.362 . S
C1202 C1205 1.409 . S
C1203 H1195 0.930 . S
C1203 C1204 1.355 . S
C1203 C1205 1.415 . S
C1204 C1203 1.355 . S
C1204 C1206 1.419 . S
C1205 C1200 1.425 . S
C1205 C1202 1.409 . S
C1205 C1203 1.415 . S
C1206 H1196 0.930 . S
C1206 C1204 1.419 . S
C1206 C1207 1.362 . S
C1207 H1197 0.930 . S
C1207 C1200 1.409 . S
C1207 C1206 1.362 . S
H1208 C1214 0.930 . S
H1209 C1217 0.930 . S
H1210 C1218 0.930 . S
H1211 C1219 0.930 . S
H1212 C1222 0.930 . S
H1213 C1223 0.930 . S
C1214 H1208 0.930 . S
C1214 C1215 1.355 . S
C1214 C1216 1.415 . S
C1215 C1214 1.355 . S
C1215 C1217 1.419 . S
C1216 C1214 1.415 . S
C1216 C1221 1.425 . S
C1216 C1223 1.409 . S
C1217 H1209 0.930 . S
C1217 C1215 1.419 . S
C1217 C1218 1.362 . S
C1218 H1210 0.930 . S
C1218 C1217 1.362 . S
C1218 C1221 1.409 . S
C1219 H1211 0.930 . S
C1219 C1220 1.355 . S
C1219 C1221 1.415 . S
C1220 C1219 1.355 . S
C1220 C1222 1.419 . S
C1221 C1216 1.425 . S
C1221 C1218 1.409 . S
C1221 C1219 1.415 . S
C1222 H1212 0.930 . S
C1222 C1220 1.419 . S
C1222 C1223 1.362 . S
C1223 H1213 0.930 . S
C1223 C1216 1.409 . S
C1223 C1222 1.362 . S
H1224 C1230 0.930 . S
H1225 C1233 0.930 . S
H1226 C1234 0.930 . S
H1227 C1235 0.930 . S
H1228 C1238 0.930 . S
H1229 C1239 0.930 . S
C1230 H1224 0.930 . S
C1230 C1231 1.355 . S
C1230 C1232 1.415 . S
C1231 C1230 1.355 . S
C1231 C1233 1.419 . S
C1232 C1230 1.415 . S
C1232 C1237 1.425 . S
C1232 C1239 1.409 . S
C1233 H1225 0.930 . S
C1233 C1231 1.419 . S
C1233 C1234 1.362 . S
C1234 H1226 0.930 . S
C1234 C1233 1.362 . S
C1234 C1237 1.409 . S
C1235 H1227 0.930 . S
C1235 C1236 1.355 . S
C1235 C1237 1.415 . S
C1236 C1235 1.355 . S
C1236 C1238 1.419 . S
C1237 C1232 1.425 . S
C1237 C1234 1.409 . S
C1237 C1235 1.415 . S
C1238 H1228 0.930 . S
C1238 C1236 1.419 . S
C1238 C1239 1.362 . S
C1239 H1229 0.930 . S
C1239 C1232 1.409 . S
C1239 C1238 1.362 . S
H1240 C1246 0.930 . S
H1241 C1249 0.930 . S
H1242 C1250 0.930 . S
H1243 C1251 0.930 . S
H1244 C1254 0.930 . S
H1245 C1255 0.930 . S
C1246 H1240 0.930 . S
C1246 C1247 1.355 . S
C1246 C1248 1.415 . S
C1247 C1246 1.355 . S
C1247 C1249 1.419 . S
C1248 C1246 1.415 . S
C1248 C1253 1.425 . S
C1248 C1255 1.409 . S
C1249 H1241 0.930 . S
C1249 C1247 1.419 . S
C1249 C1250 1.362 . S
C1250 H1242 0.930 . S
C1250 C1249 1.362 . S
C1250 C1253 1.409 . S
C1251 H1243 0.930 . S
C1251 C1252 1.355 . S
C1251 C1253 1.415 . S
C1252 C1251 1.355 . S
C1252 C1254 1.419 . S
C1253 C1248 1.425 . S
C1253 C1250 1.409 . S
C1253 C1251 1.415 . S
C1254 H1244 0.930 . S
C1254 C1252 1.419 . S
C1254 C1255 1.362 . S
C1255 H1245 0.930 . S
C1255 C1248 1.409 . S
C1255 C1254 1.362 . S
H1256 C1262 0.930 . S
H1257 C1265 0.930 . S
H1258 C1266 0.930 . S
H1259 C1267 0.930 . S
H1260 C1270 0.930 . S
H1261 C1271 0.930 . S
C1262 H1256 0.930 . S
C1262 C1263 1.355 . S
C1262 C1264 1.415 . S
C1263 C1262 1.355 . S
C1263 C1265 1.419 . S
C1264 C1262 1.415 . S
C1264 C1269 1.425 . S
C1264 C1271 1.409 . S
C1265 H1257 0.930 . S
C1265 C1263 1.419 . S
C1265 C1266 1.362 . S
C1266 H1258 0.930 . S
C1266 C1265 1.362 . S
C1266 C1269 1.409 . S
C1267 H1259 0.930 . S
C1267 C1268 1.355 . S
C1267 C1269 1.415 . S
C1268 C1267 1.355 . S
C1268 C1270 1.419 . S
C1269 C1264 1.425 . S
C1269 C1266 1.409 . S
C1269 C1267 1.415 . S
C1270 H1260 0.930 . S
C1270 C1268 1.419 . S
C1270 C1271 1.362 . S
C1271 H1261 0.930 . S
C1271 C1264 1.409 . S
C1271 C1270 1.362 . S
H1272 C1278 0.930 . S
H1273 C1281 0.930 . S
H1274 C1282 0.930 . S
H1275 C1283 0.930 . S
H1276 C1286 0.930 . S
H1277 C1287 0.930 . S
C1278 H1272 0.930 . S
C1278 C1279 1.355 . S
C1278 C1280 1.415 . S
C1279 C1278 1.355 . S
C1279 C1281 1.419 1_455 S
C1280 C1278 1.415 . S
C1280 C1285 1.425 1_455 S
C1280 C1287 1.409 . S
C1281 H1273 0.930 . S
C1281 C1279 1.419 1_655 S
C1281 C1282 1.362 . S
C1282 H1274 0.930 . S
C1282 C1281 1.362 . S
C1282 C1285 1.409 . S
C1283 H1275 0.930 . S
C1283 C1284 1.355 . S
C1283 C1285 1.415 . S
C1284 C1283 1.355 . S
C1284 C1286 1.419 1_655 S
C1285 C1280 1.425 1_655 S
C1285 C1282 1.409 . S
C1285 C1283 1.415 . S
C1286 H1276 0.930 . S
C1286 C1284 1.419 1_455 S
C1286 C1287 1.362 . S
C1287 H1277 0.930 . S
C1287 C1280 1.409 . S
C1287 C1286 1.362 . S
H1288 C1294 0.930 . S
H1289 C1297 0.930 . S
H1290 C1298 0.930 . S
H1291 C1299 0.930 . S
H1292 C1302 0.930 . S
H1293 C1303 0.930 . S
C1294 H1288 0.930 . S
C1294 C1295 1.355 . S
C1294 C1296 1.415 . S
C1295 C1294 1.355 . S
C1295 C1297 1.419 . S
C1296 C1294 1.415 . S
C1296 C1301 1.425 . S
C1296 C1303 1.409 . S
C1297 H1289 0.930 . S
C1297 C1295 1.419 . S
C1297 C1298 1.362 . S
C1298 H1290 0.930 . S
C1298 C1297 1.362 . S
C1298 C1301 1.409 . S
C1299 H1291 0.930 . S
C1299 C1300 1.355 . S
C1299 C1301 1.415 . S
C1300 C1299 1.355 . S
C1300 C1302 1.419 . S
C1301 C1296 1.425 . S
C1301 C1298 1.409 . S
C1301 C1299 1.415 . S
C1302 H1292 0.930 . S
C1302 C1300 1.419 . S
C1302 C1303 1.362 . S
C1303 H1293 0.930 . S
C1303 C1296 1.409 . S
C1303 C1302 1.362 . S
H1304 C1310 0.930 . S
H1305 C1313 0.930 . S
H1306 C1314 0.930 . S
H1307 C1315 0.930 . S
H1308 C1318 0.930 . S
H1309 C1319 0.930 . S
C1310 H1304 0.930 . S
C1310 C1311 1.355 . S
C1310 C1312 1.415 . S
C1311 C1310 1.355 . S
C1311 C1313 1.419 1_565 S
C1312 C1310 1.415 . S
C1312 C1317 1.425 1_565 S
C1312 C1319 1.409 . S
C1313 H1305 0.930 . S
C1313 C1311 1.419 1_545 S
C1313 C1314 1.362 . S
C1314 H1306 0.930 . S
C1314 C1313 1.362 . S
C1314 C1317 1.409 . S
C1315 H1307 0.930 . S
C1315 C1316 1.355 . S
C1315 C1317 1.415 . S
C1316 C1315 1.355 . S
C1316 C1318 1.419 1_545 S
C1317 C1312 1.425 1_545 S
C1317 C1314 1.409 . S
C1317 C1315 1.415 . S
C1318 H1308 0.930 . S
C1318 C1316 1.419 1_565 S
C1318 C1319 1.362 . S
C1319 H1309 0.930 . S
C1319 C1312 1.409 . S
C1319 C1318 1.362 . S
H1320 C1326 0.930 . S
H1321 C1329 0.930 . S
H1322 C1330 0.930 . S
H1323 C1331 0.930 . S
H1324 C1334 0.930 . S
H1325 C1335 0.930 . S
C1326 H1320 0.930 . S
C1326 C1327 1.355 . S
C1326 C1328 1.415 . S
C1327 C1326 1.355 . S
C1327 C1329 1.419 1_565 S
C1328 C1326 1.415 . S
C1328 C1333 1.425 1_565 S
C1328 C1335 1.409 . S
C1329 H1321 0.930 . S
C1329 C1327 1.419 1_545 S
C1329 C1330 1.362 . S
C1330 H1322 0.930 . S
C1330 C1329 1.362 . S
C1330 C1333 1.409 . S
C1331 H1323 0.930 . S
C1331 C1332 1.355 . S
C1331 C1333 1.415 . S
C1332 C1331 1.355 . S
C1332 C1334 1.419 1_545 S
C1333 C1328 1.425 1_545 S
C1333 C1330 1.409 . S
C1333 C1331 1.415 . S
C1334 H1324 0.930 . S
C1334 C1332 1.419 1_565 S
C1334 C1335 1.362 . S
C1335 H1325 0.930 . S
C1335 C1328 1.409 . S
C1335 C1334 1.362 . S
H1336 C1342 0.930 . S
H1337 C1345 0.930 . S
H1338 C1346 0.930 . S
H1339 C1347 0.930 . S
H1340 C1350 0.930 . S
H1341 C1351 0.930 . S
C1342 H1336 0.930 . S
C1342 C1343 1.355 . S
C1342 C1344 1.415 . S
C1343 C1342 1.355 . S
C1343 C1345 1.419 . S
C1344 C1342 1.415 . S
C1344 C1349 1.425 1_655 S
C1344 C1351 1.409 . S
C1345 H1337 0.930 . S
C1345 C1343 1.419 . S
C1345 C1346 1.362 1_655 S
C1346 H1338 0.930 . S
C1346 C1345 1.362 1_455 S
C1346 C1349 1.409 . S
C1347 H1339 0.930 . S
C1347 C1348 1.355 . S
C1347 C1349 1.415 . S
C1348 C1347 1.355 . S
C1348 C1350 1.419 . S
C1349 C1344 1.425 1_455 S
C1349 C1346 1.409 . S
C1349 C1347 1.415 . S
C1350 H1340 0.930 . S
C1350 C1348 1.419 . S
C1350 C1351 1.362 1_455 S
C1351 H1341 0.930 . S
C1351 C1344 1.409 . S
C1351 C1350 1.362 1_655 S
H1352 C1358 0.930 . S
H1353 C1361 0.930 . S
H1354 C1362 0.930 . S
H1355 C1363 0.930 . S
H1356 C1366 0.930 . S
H1357 C1367 0.930 . S
C1358 H1352 0.930 . S
C1358 C1359 1.355 . S
C1358 C1360 1.415 . S
C1359 C1358 1.355 . S
C1359 C1361 1.419 . S
C1360 C1358 1.415 . S
C1360 C1365 1.425 . S
C1360 C1367 1.409 . S
C1361 H1353 0.930 . S
C1361 C1359 1.419 . S
C1361 C1362 1.362 . S
C1362 H1354 0.930 . S
C1362 C1361 1.362 . S
C1362 C1365 1.409 . S
C1363 H1355 0.930 . S
C1363 C1364 1.355 . S
C1363 C1365 1.415 . S
C1364 C1363 1.355 . S
C1364 C1366 1.419 . S
C1365 C1360 1.425 . S
C1365 C1362 1.409 . S
C1365 C1363 1.415 . S
C1366 H1356 0.930 . S
C1366 C1364 1.419 . S
C1366 C1367 1.362 . S
C1367 H1357 0.930 . S
C1367 C1360 1.409 . S
C1367 C1366 1.362 . S
H1368 C1374 0.930 . S
H1369 C1377 0.930 . S
H1370 C1378 0.930 . S
H1371 C1379 0.930 . S
H1372 C1382 0.930 . S
H1373 C1383 0.930 . S
C1374 H1368 0.930 . S
C1374 C1375 1.355 . S
C1374 C1376 1.415 . S
C1375 C1374 1.355 . S
C1375 C1377 1.419 . S
C1376 C1374 1.415 . S
C1376 C1381 1.425 . S
C1376 C1383 1.409 . S
C1377 H1369 0.930 . S
C1377 C1375 1.419 . S
C1377 C1378 1.362 . S
C1378 H1370 0.930 . S
C1378 C1377 1.362 . S
C1378 C1381 1.409 . S
C1379 H1371 0.930 . S
C1379 C1380 1.355 . S
C1379 C1381 1.415 . S
C1380 C1379 1.355 . S
C1380 C1382 1.419 . S
C1381 C1376 1.425 . S
C1381 C1378 1.409 . S
C1381 C1379 1.415 . S
C1382 H1372 0.930 . S
C1382 C1380 1.419 . S
C1382 C1383 1.362 . S
C1383 H1373 0.930 . S
C1383 C1376 1.409 . S
C1383 C1382 1.362 . S
H1384 C1390 0.930 . S
H1385 C1393 0.930 . S
H1386 C1394 0.930 . S
H1387 C1395 0.930 . S
H1388 C1398 0.930 . S
H1389 C1399 0.930 . S
C1390 H1384 0.930 . S
C1390 C1391 1.355 . S
C1390 C1392 1.415 . S
C1391 C1390 1.355 . S
C1391 C1393 1.419 . S
C1392 C1390 1.415 . S
C1392 C1397 1.425 . S
C1392 C1399 1.409 . S
C1393 H1385 0.930 . S
C1393 C1391 1.419 . S
C1393 C1394 1.362 . S
C1394 H1386 0.930 . S
C1394 C1393 1.362 . S
C1394 C1397 1.409 . S
C1395 H1387 0.930 . S
C1395 C1396 1.355 . S
C1395 C1397 1.415 . S
C1396 C1395 1.355 . S
C1396 C1398 1.419 . S
C1397 C1392 1.425 . S
C1397 C1394 1.409 . S
C1397 C1395 1.415 . S
C1398 H1388 0.930 . S
C1398 C1396 1.419 . S
C1398 C1399 1.362 . S
C1399 H1389 0.930 . S
C1399 C1392 1.409 . S
C1399 C1398 1.362 . S
H1400 C1406 0.930 . S
H1401 C1409 0.930 . S
H1402 C1410 0.930 . S
H1403 C1411 0.930 . S
H1404 C1414 0.930 . S
H1405 C1415 0.930 . S
C1406 H1400 0.930 . S
C1406 C1407 1.355 . S
C1406 C1408 1.415 . S
C1407 C1406 1.355 . S
C1407 C1409 1.419 . S
C1408 C1406 1.415 . S
C1408 C1413 1.425 . S
C1408 C1415 1.409 . S
C1409 H1401 0.930 . S
C1409 C1407 1.419 . S
C1409 C1410 1.362 . S
C1410 H1402 0.930 . S
C1410 C1409 1.362 . S
C1410 C1413 1.409 . S
C1411 H1403 0.930 . S
C1411 C1412 1.355 . S
C1411 C1413 1.415 . S
C1412 C1411 1.355 . S
C1412 C1414 1.419 . S
C1413 C1408 1.425 . S
C1413 C1410 1.409 . S
C1413 C1411 1.415 . S
C1414 H1404 0.930 . S
C1414 C1412 1.419 . S
C1414 C1415 1.362 . S
C1415 H1405 0.930 . S
C1415 C1408 1.409 . S
C1415 C1414 1.362 . S
H1416 C1422 0.930 . S
H1417 C1425 0.930 . S
H1418 C1426 0.930 . S
H1419 C1427 0.930 . S
H1420 C1430 0.930 . S
H1421 C1431 0.930 . S
C1422 H1416 0.930 . S
C1422 C1423 1.355 . S
C1422 C1424 1.415 . S
C1423 C1422 1.355 . S
C1423 C1425 1.419 . S
C1424 C1422 1.415 . S
C1424 C1429 1.425 . S
C1424 C1431 1.409 . S
C1425 H1417 0.930 . S
C1425 C1423 1.419 . S
C1425 C1426 1.362 . S
C1426 H1418 0.930 . S
C1426 C1425 1.362 . S
C1426 C1429 1.409 . S
C1427 H1419 0.930 . S
C1427 C1428 1.355 . S
C1427 C1429 1.415 . S
C1428 C1427 1.355 . S
C1428 C1430 1.419 . S
C1429 C1424 1.425 . S
C1429 C1426 1.409 . S
C1429 C1427 1.415 . S
C1430 H1420 0.930 . S
C1430 C1428 1.419 . S
C1430 C1431 1.362 . S
C1431 H1421 0.930 . S
C1431 C1424 1.409 . S
C1431 C1430 1.362 . S
H1432 C1438 0.930 . S
H1433 C1441 0.930 . S
H1434 C1442 0.930 . S
H1435 C1443 0.930 . S
H1436 C1446 0.930 . S
H1437 C1447 0.930 . S
C1438 H1432 0.930 . S
C1438 C1439 1.355 . S
C1438 C1440 1.415 . S
C1439 C1438 1.355 . S
C1439 C1441 1.419 . S
C1440 C1438 1.415 . S
C1440 C1445 1.425 . S
C1440 C1447 1.409 . S
C1441 H1433 0.930 . S
C1441 C1439 1.419 . S
C1441 C1442 1.362 . S
C1442 H1434 0.930 . S
C1442 C1441 1.362 . S
C1442 C1445 1.409 . S
C1443 H1435 0.930 . S
C1443 C1444 1.355 . S
C1443 C1445 1.415 . S
C1444 C1443 1.355 . S
C1444 C1446 1.419 . S
C1445 C1440 1.425 . S
C1445 C1442 1.409 . S
C1445 C1443 1.415 . S
C1446 H1436 0.930 . S
C1446 C1444 1.419 . S
C1446 C1447 1.362 . S
C1447 H1437 0.930 . S
C1447 C1440 1.409 . S
C1447 C1446 1.362 . S
H1448 C1454 0.930 . S
H1449 C1457 0.930 . S
H1450 C1458 0.930 . S
H1451 C1459 0.930 . S
H1452 C1462 0.930 . S
H1453 C1463 0.930 . S
C1454 H1448 0.930 . S
C1454 C1455 1.355 . S
C1454 C1456 1.415 . S
C1455 C1454 1.355 . S
C1455 C1457 1.419 . S
C1456 C1454 1.415 . S
C1456 C1461 1.425 . S
C1456 C1463 1.409 . S
C1457 H1449 0.930 . S
C1457 C1455 1.419 . S
C1457 C1458 1.362 . S
C1458 H1450 0.930 . S
C1458 C1457 1.362 . S
C1458 C1461 1.409 . S
C1459 H1451 0.930 . S
C1459 C1460 1.355 . S
C1459 C1461 1.415 . S
C1460 C1459 1.355 . S
C1460 C1462 1.419 . S
C1461 C1456 1.425 . S
C1461 C1458 1.409 . S
C1461 C1459 1.415 . S
C1462 H1452 0.930 . S
C1462 C1460 1.419 . S
C1462 C1463 1.362 . S
C1463 H1453 0.930 . S
C1463 C1456 1.409 . S
C1463 C1462 1.362 . S
H1464 C1470 0.930 . S
H1465 C1473 0.930 . S
H1466 C1474 0.930 . S
H1467 C1475 0.930 . S
H1468 C1478 0.930 . S
H1469 C1479 0.930 . S
C1470 H1464 0.930 . S
C1470 C1471 1.355 . S
C1470 C1472 1.415 . S
C1471 C1470 1.355 . S
C1471 C1473 1.419 . S
C1472 C1470 1.415 . S
C1472 C1477 1.425 . S
C1472 C1479 1.409 . S
C1473 H1465 0.930 . S
C1473 C1471 1.419 . S
C1473 C1474 1.362 . S
C1474 H1466 0.930 . S
C1474 C1473 1.362 . S
C1474 C1477 1.409 . S
C1475 H1467 0.930 . S
C1475 C1476 1.355 . S
C1475 C1477 1.415 . S
C1476 C1475 1.355 . S
C1476 C1478 1.419 . S
C1477 C1472 1.425 . S
C1477 C1474 1.409 . S
C1477 C1475 1.415 . S
C1478 H1468 0.930 . S
C1478 C1476 1.419 . S
C1478 C1479 1.362 . S
C1479 H1469 0.930 . S
C1479 C1472 1.409 . S
C1479 C1478 1.362 . S
H1480 C1486 0.930 . S
H1481 C1489 0.930 . S
H1482 C1490 0.930 . S
H1483 C1491 0.930 . S
H1484 C1494 0.930 . S
H1485 C1495 0.930 . S
C1486 H1480 0.930 . S
C1486 C1487 1.355 . S
C1486 C1488 1.415 . S
C1487 C1486 1.355 . S
C1487 C1489 1.419 . S
C1488 C1486 1.415 . S
C1488 C1493 1.425 . S
C1488 C1495 1.409 . S
C1489 H1481 0.930 . S
C1489 C1487 1.419 . S
C1489 C1490 1.362 . S
C1490 H1482 0.930 . S
C1490 C1489 1.362 . S
C1490 C1493 1.409 . S
C1491 H1483 0.930 . S
C1491 C1492 1.355 . S
C1491 C1493 1.415 . S
C1492 C1491 1.355 . S
C1492 C1494 1.419 . S
C1493 C1488 1.425 . S
C1493 C1490 1.409 . S
C1493 C1491 1.415 . S
C1494 H1484 0.930 . S
C1494 C1492 1.419 . S
C1494 C1495 1.362 . S
C1495 H1485 0.930 . S
C1495 C1488 1.409 . S
C1495 C1494 1.362 . S
H1496 C1502 0.930 . S
H1497 C1505 0.930 . S
H1498 C1506 0.930 . S
H1499 C1507 0.930 . S
H1500 C1510 0.930 . S
H1501 C1511 0.930 . S
C1502 H1496 0.930 . S
C1502 C1503 1.355 . S
C1502 C1504 1.415 . S
C1503 C1502 1.355 . S
C1503 C1505 1.419 . S
C1504 C1502 1.415 . S
C1504 C1509 1.425 . S
C1504 C1511 1.409 . S
C1505 H1497 0.930 . S
C1505 C1503 1.419 . S
C1505 C1506 1.362 . S
C1506 H1498 0.930 . S
C1506 C1505 1.362 . S
C1506 C1509 1.409 . S
C1507 H1499 0.930 . S
C1507 C1508 1.355 . S
C1507 C1509 1.415 . S
C1508 C1507 1.355 . S
C1508 C1510 1.419 . S
C1509 C1504 1.425 . S
C1509 C1506 1.409 . S
C1509 C1507 1.415 . S
C1510 H1500 0.930 . S
C1510 C1508 1.419 . S
C1510 C1511 1.362 . S
C1511 H1501 0.930 . S
C1511 C1504 1.409 . S
C1511 C1510 1.362 . S
H1512 C1518 0.930 . S
H1513 C1521 0.930 . S
H1514 C1522 0.930 . S
H1515 C1523 0.930 . S
H1516 C1526 0.930 . S
H1517 C1527 0.930 . S
C1518 H1512 0.930 . S
C1518 C1519 1.355 . S
C1518 C1520 1.415 . S
C1519 C1518 1.355 . S
C1519 C1521 1.419 . S
C1520 C1518 1.415 . S
C1520 C1525 1.425 . S
C1520 C1527 1.409 . S
C1521 H1513 0.930 . S
C1521 C1519 1.419 . S
C1521 C1522 1.362 . S
C1522 H1514 0.930 . S
C1522 C1521 1.362 . S
C1522 C1525 1.409 . S
C1523 H1515 0.930 . S
C1523 C1524 1.355 . S
C1523 C1525 1.415 . S
C1524 C1523 1.355 . S
C1524 C1526 1.419 . S
C1525 C1520 1.425 . S
C1525 C1522 1.409 . S
C1525 C1523 1.415 . S
C1526 H1516 0.930 . S
C1526 C1524 1.419 . S
C1526 C1527 1.362 . S
C1527 H1517 0.930 . S
C1527 C1520 1.409 . S
C1527 C1526 1.362 . S
H1528 C1534 0.930 . S
H1529 C1537 0.930 . S
H1530 C1538 0.930 . S
H1531 C1539 0.930 . S
H1532 C1542 0.930 . S
H1533 C1543 0.930 . S
C1534 H1528 0.930 . S
C1534 C1535 1.355 . S
C1534 C1536 1.415 . S
C1535 C1534 1.355 . S
C1535 C1537 1.419 . S
C1536 C1534 1.415 . S
C1536 C1541 1.425 . S
C1536 C1543 1.409 . S
C1537 H1529 0.930 . S
C1537 C1535 1.419 . S
C1537 C1538 1.362 . S
C1538 H1530 0.930 . S
C1538 C1537 1.362 . S
C1538 C1541 1.409 . S
C1539 H1531 0.930 . S
C1539 C1540 1.355 . S
C1539 C1541 1.415 . S
C1540 C1539 1.355 . S
C1540 C1542 1.419 . S
C1541 C1536 1.425 . S
C1541 C1538 1.409 . S
C1541 C1539 1.415 . S
C1542 H1532 0.930 . S
C1542 C1540 1.419 . S
C1542 C1543 1.362 . S
C1543 H1533 0.930 . S
C1543 C1536 1.409 . S
C1543 C1542 1.362 . S
H1544 C1550 0.930 . S
H1545 C1553 0.930 . S
H1546 C1554 0.930 . S
H1547 C1555 0.930 . S
H1548 C1558 0.930 . S
H1549 C1559 0.930 . S
C1550 H1544 0.930 . S
C1550 C1551 1.355 . S
C1550 C1552 1.415 . S
C1551 C1550 1.355 . S
C1551 C1553 1.419 . S
C1552 C1550 1.415 . S
C1552 C1557 1.425 . S
C1552 C1559 1.409 . S
C1553 H1545 0.930 . S
C1553 C1551 1.419 . S
C1553 C1554 1.362 . S
C1554 H1546 0.930 . S
C1554 C1553 1.362 . S
C1554 C1557 1.409 . S
C1555 H1547 0.930 . S
C1555 C1556 1.355 . S
C1555 C1557 1.415 . S
C1556 C1555 1.355 . S
C1556 C1558 1.419 . S
C1557 C1552 1.425 . S
C1557 C1554 1.409 . S
C1557 C1555 1.415 . S
C1558 H1548 0.930 . S
C1558 C1556 1.419 . S
C1558 C1559 1.362 . S
C1559 H1549 0.930 . S
C1559 C1552 1.409 . S
C1559 C1558 1.362 . S
H1560 C1566 0.930 1_655 S
H1561 C1569 0.930 . S
H1562 C1570 0.930 1_554 S
H1563 C1571 0.930 1_455 S
H1564 C1574 0.930 . S
H1565 C1575 0.930 1_556 S
C1566 H1560 0.930 1_455 S
C1566 C1567 1.355 . S
C1566 C1568 1.415 1_455 S
C1567 C1566 1.355 . S
C1567 C1569 1.419 . S
C1568 C1566 1.415 1_655 S
C1568 C1573 1.425 1_656 S
C1568 C1575 1.409 1_556 S
C1569 H1561 0.930 . S
C1569 C1567 1.419 . S
C1569 C1570 1.362 . S
C1570 H1562 0.930 1_556 S
C1570 C1569 1.362 . S
C1570 C1573 1.409 1_556 S
C1571 H1563 0.930 1_655 S
C1571 C1572 1.355 . S
C1571 C1573 1.415 1_655 S
C1572 C1571 1.355 . S
C1572 C1574 1.419 . S
C1573 C1568 1.425 1_454 S
C1573 C1570 1.409 1_554 S
C1573 C1571 1.415 1_455 S
C1574 H1564 0.930 . S
C1574 C1572 1.419 . S
C1574 C1575 1.362 . S
C1575 H1565 0.930 1_554 S
C1575 C1568 1.409 1_554 S
C1575 C1574 1.362 . S
H1576 C1582 0.930 . S
H1577 C1585 0.930 . S
H1578 C1586 0.930 . S
H1579 C1587 0.930 . S
H1580 C1590 0.930 . S
H1581 C1591 0.930 . S
C1582 H1576 0.930 . S
C1582 C1583 1.355 . S
C1582 C1584 1.415 1_554 S
C1583 C1582 1.355 . S
C1583 C1585 1.419 . S
C1584 C1582 1.415 1_556 S
C1584 C1589 1.425 1_556 S
C1584 C1591 1.409 . S
C1585 H1577 0.930 . S
C1585 C1583 1.419 . S
C1585 C1586 1.362 . S
C1586 H1578 0.930 . S
C1586 C1585 1.362 . S
C1586 C1589 1.409 . S
C1587 H1579 0.930 . S
C1587 C1588 1.355 . S
C1587 C1589 1.415 1_556 S
C1588 C1587 1.355 . S
C1588 C1590 1.419 . S
C1589 C1584 1.425 1_554 S
C1589 C1586 1.409 . S
C1589 C1587 1.415 1_554 S
C1590 H1580 0.930 . S
C1590 C1588 1.419 . S
C1590 C1591 1.362 . S
C1591 H1581 0.930 . S
C1591 C1584 1.409 . S
C1591 C1590 1.362 . S
H1592 C1598 0.930 . S
H1593 C1601 0.930 . S
H1594 C1602 0.930 1_556 S
H1595 C1603 0.930 . S
H1596 C1606 0.930 . S
H1597 C1607 0.930 1_554 S
C1598 H1592 0.930 . S
C1598 C1599 1.355 . S
C1598 C1600 1.415 1_545 S
C1599 C1598 1.355 . S
C1599 C1601 1.419 . S
C1600 C1598 1.415 1_565 S
C1600 C1605 1.425 1_564 S
C1600 C1607 1.409 1_554 S
C1601 H1593 0.930 . S
C1601 C1599 1.419 . S
C1601 C1602 1.362 . S
C1602 H1594 0.930 1_554 S
C1602 C1601 1.362 . S
C1602 C1605 1.409 1_554 S
C1603 H1595 0.930 . S
C1603 C1604 1.355 . S
C1603 C1605 1.415 1_565 S
C1604 C1603 1.355 . S
C1604 C1606 1.419 . S
C1605 C1600 1.425 1_546 S
C1605 C1602 1.409 1_556 S
C1605 C1603 1.415 1_545 S
C1606 H1596 0.930 . S
C1606 C1604 1.419 . S
C1606 C1607 1.362 . S
C1607 H1597 0.930 1_556 S
C1607 C1600 1.409 1_556 S
C1607 C1606 1.362 . S
H1608 C1614 0.930 . S
H1609 C1617 0.930 . S
H1610 C1618 0.930 1_554 S
H1611 C1619 0.930 . S
H1612 C1622 0.930 . S
H1613 C1623 0.930 1_556 S
C1614 H1608 0.930 . S
C1614 C1615 1.355 . S
C1614 C1616 1.386 1_565 S
C1615 C1614 1.355 . S
C1615 C1617 1.419 . S
C1616 C1614 1.386 1_545 S
C1616 C1621 1.477 1_546 S
C1616 C1623 1.417 1_556 S
C1617 H1609 0.930 . S
C1617 C1615 1.419 . S
C1617 C1618 1.362 . S
C1618 H1610 0.930 1_556 S
C1618 C1617 1.362 . S
C1618 C1621 1.417 1_556 S
C1619 H1611 0.930 . S
C1619 C1620 1.355 . S
C1619 C1621 1.387 1_545 S
C1620 C1619 1.355 . S
C1620 C1622 1.419 . S
C1621 C1616 1.477 1_564 S
C1621 C1618 1.417 1_554 S
C1621 C1619 1.387 1_565 S
C1622 H1612 0.930 . S
C1622 C1620 1.419 . S
C1622 C1623 1.362 . S
C1623 H1613 0.930 1_554 S
C1623 C1616 1.417 1_554 S
C1623 C1622 1.362 . S
H1624 C1630 0.930 . S
H1625 C1633 0.930 . S
H1626 C1634 0.930 . S
H1627 C1635 0.930 . S
H1628 C1638 0.930 . S
H1629 C1639 0.930 . S
C1630 H1624 0.930 . S
C1630 C1631 1.355 . S
C1630 C1632 1.415 1_556 S
C1631 C1630 1.355 . S
C1631 C1633 1.419 1_455 S
C1632 C1630 1.415 1_554 S
C1632 C1637 1.425 1_454 S
C1632 C1639 1.409 . S
C1633 H1625 0.930 . S
C1633 C1631 1.419 1_655 S
C1633 C1634 1.362 . S
C1634 H1626 0.930 . S
C1634 C1633 1.362 . S
C1634 C1637 1.409 . S
C1635 H1627 0.930 . S
C1635 C1636 1.355 . S
C1635 C1637 1.415 1_554 S
C1636 C1635 1.355 . S
C1636 C1638 1.419 1_655 S
C1637 C1632 1.425 1_656 S
C1637 C1634 1.409 . S
C1637 C1635 1.415 1_556 S
C1638 H1628 0.930 . S
C1638 C1636 1.419 1_455 S
C1638 C1639 1.362 . S
C1639 H1629 0.930 . S
C1639 C1632 1.409 . S
C1639 C1638 1.362 . S
H1640 C1646 0.930 . S
H1641 C1649 0.930 . S
H1642 C1650 0.930 . S
H1643 C1651 0.930 . S
H1644 C1654 0.930 . S
H1645 C1655 0.930 . S
C1646 H1640 0.930 . S
C1646 C1647 1.355 . S
C1646 C1648 1.415 1_554 S
C1647 C1646 1.355 . S
C1647 C1649 1.419 . S
C1648 C1646 1.415 1_556 S
C1648 C1653 1.425 1_556 S
C1648 C1655 1.409 . S
C1649 H1641 0.930 . S
C1649 C1647 1.419 . S
C1649 C1650 1.362 . S
C1650 H1642 0.930 . S
C1650 C1649 1.362 . S
C1650 C1653 1.409 . S
C1651 H1643 0.930 . S
C1651 C1652 1.355 . S
C1651 C1653 1.415 1_556 S
C1652 C1651 1.355 . S
C1652 C1654 1.419 . S
C1653 C1648 1.425 1_554 S
C1653 C1650 1.409 . S
C1653 C1651 1.415 1_554 S
C1654 H1644 0.930 . S
C1654 C1652 1.419 . S
C1654 C1655 1.362 . S
C1655 H1645 0.930 . S
C1655 C1648 1.409 . S
C1655 C1654 1.362 . S
C511 C9 1.346 . S
C516 C163 1.359 . S
C527 C23 1.385 . S
C532 C135 1.319 . S
C543 C149 1.353 . S
C548 C37 1.352 . S
C559 C51 1.320 . S
C564 C107 1.383 . S
C575 C121 1.319 . S
C580 C65 1.385 . S
C591 C79 1.338 . S
C596 C93 1.366 . S
C607 C331 1.385 . S
C612 C177 1.319 . S
C623 C191 1.323 . S
C628 C303 1.381 . S
C639 C205 1.330 . S
C644 C317 1.374 . S
C655 C275 1.342 . S
C660 C219 1.363 . S
C671 C233 1.383 . S
C676 C289 1.321 . S
C687 C261 1.367 . S
C692 C247 1.338 . S
C703 C345 1.363 . S
C708 C499 1.342 . S
C719 C471 1.367 . S
C724 C359 1.338 . S
C735 C485 1.383 . S
C740 C373 1.321 . S
C751 C443 1.320 . S
C756 C387 1.384 . S
C767 C457 1.320 . S
C772 C401 1.384 . S
C783 C429 1.378 . S
C788 C415 1.326 . S
C799 C8 1.384 . S
C804 C64 1.379 . S
C815 C78 1.393 . S
C820 C22 1.402 . S
C831 C36 1.400 . S
C836 C50 1.408 . S
C847 C92 1.404 . S
C852 C148 1.395 . S
C863 C106 1.392 . S
C868 C162 1.384 . S
C879 C120 1.408 . S
C884 C134 1.400 . S
C895 C232 1.413 . S
C900 C176 1.416 . S
C911 C246 1.388 . S
C916 C190 1.382 . S
C927 C204 1.412 . S
C932 C218 1.406 . S
C943 C316 1.389 . S
C948 C260 1.383 . S
C959 C330 1.391 . S
C964 C274 1.400 . S
C975 C288 1.402 . S
C980 C302 1.409 . S
C991 C400 1.416 . S
C996 C344 1.414 . S
C1007 C358 1.379 . S
C1012 C414 1.382 . S
C1023 C372 1.384 . S
C1028 C386 1.392 . S
C1039 C484 1.411 . S
C1044 C428 1.404 . S
C1055 C442 1.395 . S
C1060 C498 1.387 . S
C1071 C470 1.388 . S
C1076 C456 1.381 . S
C1087 C413 1.062 . S
C1092 C7 1.049 . S
C1103 C21 1.111 . S
C1108 C385 1.083 . S
C1119 C35 1.102 . S
C1124 C399 1.098 . S
C1135 C49 1.053 . S
C1140 C189 1.106 . S
C1151 C203 1.111 . S
C1156 C63 1.084 . S
C1167 C175 1.088 . S
C1172 C77 1.042 . S
C1183 C91 1.044 . S
C1188 C329 1.072 . S
C1199 C105 1.071 . S
C1204 C301 1.044 . S
C1215 C119 1.091 . S
C1220 C315 1.107 . S
C1231 C441 1.063 . S
C1236 C133 1.048 . S
C1247 C455 1.058 . S
C1252 C147 1.052 . S
C1263 C161 1.109 . S
C1268 C427 1.057 . S
C1279 C357 1.065 . S
C1284 C217 1.047 . S
C1295 C231 1.106 . S
C1300 C371 1.093 . S
C1311 C343 1.053 . S
C1316 C245 1.057 . S
C1327 C497 1.062 . S
C1332 C259 1.049 . S
C1343 C273 1.042 . S
C1348 C469 1.084 . S
C1359 C287 1.072 . S
C1364 C483 1.044 . S
C1375 C3 1.671 . S
C1380 C409 1.661 . S
C1391 C381 1.671 . S
C1396 C17 1.661 . S
C1407 C31 1.661 . S
C1412 C395 1.671 . S
C1423 C185 1.662 . S
C1428 C45 1.670 . S
C1439 C59 1.664 . S
C1444 C199 1.667 . S
C1455 C73 1.664 . S
C1460 C171 1.667 . S
C1471 C325 1.664 . S
C1476 C87 1.668 . S
C1487 C101 1.664 . S
C1492 C297 1.668 . S
C1503 C115 1.663 . S
C1508 C311 1.669 . S
C1519 C129 1.663 . S
C1524 C437 1.669 . S
C1535 C451 1.669 . S
C1540 C143 1.663 . S
C1551 C157 1.672 . S
C1556 C423 1.660 . S
C1567 C353 1.660 . S
C1572 C213 1.672 . S
C1583 C227 1.665 . S
C1588 C367 1.667 . S
C1599 C241 1.670 . S
C1604 C339 1.661 . S
C1615 C493 1.661 . S
C1620 C255 1.671 . S
C1631 C465 1.668 . S
C1636 C269 1.664 . S
C1647 C283 1.668 . S
C1652 C479 1.664 . S
