# Generated by pormake.
# Topology smu, (6)-cn, num edge types: 1
# Building blocks:
#     Node 0, Type 0, BuildingBlock: CUWYAW_clean_sbu_0, # of connection points: 6
#     Node 1, Type 0, BuildingBlock: CUWYAW_clean_sbu_0, # of connection points: 6
#     Node 2, Type 0, BuildingBlock: CUWYAW_clean_sbu_0, # of connection points: 6
#     Node 3, Type 0, BuildingBlock: CUWYAW_clean_sbu_0, # of connection points: 6
#     Node 4, Type 0, BuildingBlock: CUWYAW_clean_sbu_0, # of connection points: 6
#     Node 5, Type 0, BuildingBlock: CUWYAW_clean_sbu_0, # of connection points: 6
#     Edge 6, Type (0, 0), BuildingBlock: AJUNOK_clean_linker_0, # of connection points: 2
#     Edge 7, Type (0, 0), BuildingBlock: AJUNOK_clean_linker_0, # of connection points: 2
#     Edge 8, Type (0, 0), BuildingBlock: AJUNOK_clean_linker_0, # of connection points: 2
#     Edge 9, Type (0, 0), BuildingBlock: AJUNOK_clean_linker_0, # of connection points: 2
#     Edge 10, Type (0, 0), BuildingBlock: AJUNOK_clean_linker_0, # of connection points: 2
#     Edge 11, Type (0, 0), BuildingBlock: AJUNOK_clean_linker_0, # of connection points: 2
#     Edge 12, Type (0, 0), BuildingBlock: AJUNOK_clean_linker_0, # of connection points: 2
#     Edge 13, Type (0, 0), BuildingBlock: AJUNOK_clean_linker_0, # of connection points: 2
#     Edge 14, Type (0, 0), BuildingBlock: AJUNOK_clean_linker_0, # of connection points: 2
#     Edge 15, Type (0, 0), BuildingBlock: AJUNOK_clean_linker_0, # of connection points: 2
#     Edge 16, Type (0, 0), BuildingBlock: AJUNOK_clean_linker_0, # of connection points: 2
#     Edge 17, Type (0, 0), BuildingBlock: AJUNOK_clean_linker_0, # of connection points: 2
#     Edge 18, Type (0, 0), BuildingBlock: AJUNOK_clean_linker_0, # of connection points: 2
#     Edge 19, Type (0, 0), BuildingBlock: AJUNOK_clean_linker_0, # of connection points: 2
#     Edge 20, Type (0, 0), BuildingBlock: AJUNOK_clean_linker_0, # of connection points: 2
#     Edge 21, Type (0, 0), BuildingBlock: AJUNOK_clean_linker_0, # of connection points: 2
#     Edge 22, Type (0, 0), BuildingBlock: AJUNOK_clean_linker_0, # of connection points: 2
#     Edge 23, Type (0, 0), BuildingBlock: AJUNOK_clean_linker_0, # of connection points: 2
# Relax obj value: 0.233
# Max RMSD: 0.337
# Mean RMSD: 0.337
data_MOF--net-smu--node1-CUWYAW_clean_sbu_0--edge1-AJUNOK_clean_linker_0
_symmetry_space_group_name_H-M    P1
_symmetry_Int_Tables_number       1
_symmetry_cell_setting            triclinic
loop_
_symmetry_equiv_pos_as_xyz
'x, y, z'
_cell_length_a     31.093607
_cell_length_b     31.147786
_cell_length_c     18.605803
_cell_angle_alpha  89.45105
_cell_angle_beta   90.682823
_cell_angle_gamma 119.68033
loop_
_atom_site_label
_atom_site_type_symbol
_atom_site_fract_x
_atom_site_fract_y
_atom_site_fract_z
_atom_type_partial_charge
C0 C 0.2666 0.96378 0.27987 0.0
Eu1 Eu 0.34014 0.05324 0.29679 0.0
C2 C 0.21242 0.94357 0.28895 0.0
C3 C 0.19089 0.93322 0.35738 0.0
C4 C 0.14026 0.91617 0.3652 0.0
C5 C 0.10941 0.90742 0.3046 0.0
C6 C 0.13113 0.91916 0.23631 0.0
C7 C 0.182 0.93707 0.22859 0.0
C8 C 0.367 0.08768 0.42964 0.0
C9 C 0.2851 0.12223 0.30342 0.0
C10 C 0.45244 0.25031 0.30088 0.0
Eu11 Eu 0.39287 0.15575 0.28668 0.0
C12 C 0.49779 0.29926 0.30077 0.0
C13 C 0.51433 0.32659 0.23698 0.0
C14 C 0.54932 0.37678 0.23916 0.0
C15 C 0.56909 0.40083 0.30505 0.0
C16 C 0.55464 0.37293 0.36875 0.0
C17 C 0.5193 0.32249 0.36658 0.0
C18 C 0.36794 0.10285 0.15706 0.0
C19 C 0.45795 0.10334 0.30219 0.0
O20 O 0.28625 0.99539 0.2274 0.0
O21 O 0.29476 0.9776 0.33748 0.0
O22 O 0.37793 0.05714 0.39955 0.0
O23 O 0.35009 0.10596 0.38235 0.0
O24 O 0.28146 0.0795 0.28474 0.0
O25 O 0.32787 0.15952 0.31846 0.0
O26 O 0.4461 0.21808 0.35093 0.0
O27 O 0.4277 0.23049 0.24143 0.0
O28 O 0.35862 0.13845 0.16994 0.0
O29 O 0.38785 0.0978 0.21197 0.0
O30 O 0.45538 0.14343 0.31216 0.0
O31 O 0.41764 0.06099 0.28523 0.0
H32 H 0.213 0.93791 0.40497 0.0
H33 H 0.12497 0.90854 0.41884 0.0
H34 H 0.1085 0.91272 0.18856 0.0
H35 H 0.19746 0.94528 0.17505 0.0
H36 H 0.49841 0.30993 0.18557 0.0
H37 H 0.55956 0.39731 0.18906 0.0
H38 H 0.5699 0.39027 0.42006 0.0
H39 H 0.50701 0.30225 0.41677 0.0
C40 C 0.75274 0.80139 0.30656 0.0
Eu41 Eu 0.77364 0.73046 0.30685 0.0
C42 C 0.78635 0.85597 0.30851 0.0
C43 C 0.8094 0.8804 0.37247 0.0
C44 C 0.84352 0.9311 0.37244 0.0
C45 C 0.85491 0.95914 0.30852 0.0
C46 C 0.83265 0.9346 0.24411 0.0
C47 C 0.79872 0.88374 0.24415 0.0
C48 C 0.79543 0.69197 0.4514 0.0
C49 C 0.89599 0.78287 0.30248 0.0
C50 C 0.8399 0.60348 0.29172 0.0
Eu51 Eu 0.81959 0.67443 0.28055 0.0
C52 C 0.85151 0.56301 0.29798 0.0
C53 C 0.87317 0.55218 0.24028 0.0
C54 C 0.89249 0.5204 0.24981 0.0
C55 C 0.89111 0.4993 0.31751 0.0
C56 C 0.86585 0.50714 0.37368 0.0
C57 C 0.84617 0.53866 0.36397 0.0
C58 C 0.80334 0.71673 0.16028 0.0
C59 C 0.70378 0.6143 0.28479 0.0
O60 O 0.75631 0.78037 0.24827 0.0
O61 O 0.7479 0.77488 0.36441 0.0
O62 O 0.81113 0.70755 0.38744 0.0
O63 O 0.81067 0.70803 0.38645 0.0
O64 O 0.8575 0.79021 0.29063 0.0
O65 O 0.88958 0.73842 0.30503 0.0
O66 O 0.81027 0.60827 0.33643 0.0
O67 O 0.85801 0.63689 0.24067 0.0
O68 O 0.84401 0.71507 0.1712 0.0
O69 O 0.77331 0.69409 0.20928 0.0
O70 O 0.74327 0.62244 0.25089 0.0
O71 O 0.70323 0.6523 0.31656 0.0
H72 H 0.80134 0.86043 0.42257 0.0
H73 H 0.86061 0.94855 0.42295 0.0
H74 H 0.84027 0.95498 0.194 0.0
H75 H 0.78205 0.86611 0.19352 0.0
H76 H 0.87667 0.56956 0.18833 0.0
H77 H 0.90936 0.51309 0.20444 0.0
H78 H 0.86312 0.49059 0.4261 0.0
H79 H 0.82908 0.5459 0.40919 0.0
C80 C 0.10629 0.31564 0.30793 0.0
Eu81 Eu 1.0143 0.29337 0.30795 0.0
C82 C 0.12787 0.28255 0.31205 0.0
C83 C 0.16889 0.29354 0.35628 0.0
C84 C 0.19015 0.26284 0.35624 0.0
C85 C 0.17072 0.22078 0.31181 0.0
C86 C 0.12897 0.20931 0.26927 0.0
C87 C 0.10804 0.23982 0.26904 0.0
C88 C 0.95834 0.26662 0.45346 0.0
C89 C 0.94799 0.17202 0.29204 0.0
C90 C 0.81604 0.21022 0.28984 0.0
Eu91 Eu 0.91164 0.24746 0.28688 0.0
C92 C 0.77015 0.21251 0.29906 0.0
C93 C 0.74567 0.21859 0.23924 0.0
C94 C 0.6956 0.20507 0.24337 0.0
C95 C 0.66914 0.18481 0.30719 0.0
C96 C 0.69504 0.1831 0.36862 0.0
C97 C 0.74504 0.19715 0.36473 0.0
C98 C 0.96982 0.27945 0.1639 0.0
C99 C 0.96488 0.36169 0.32994 0.0
O100 O 0.08046 0.3105 0.24926 0.0
O101 O 0.08528 0.32076 0.36557 0.0
O102 O 0.95714 0.25154 0.38897 0.0
O103 O 0.95784 0.25194 0.38807 0.0
O104 O 0.99262 0.21143 0.28143 0.0
O105 O 0.90936 0.1772 0.2984 0.0
O106 O 0.8431 0.21488 0.34662 0.0
O107 O 0.8417 0.22635 0.23074 0.0
O108 O 0.93285 0.2349 0.17239 0.0
O109 O 0.97438 0.30294 0.21978 0.0
O110 O 0.92366 0.31985 0.32168 0.0
O111 O 1.00881 0.36424 0.32316 0.0
H112 H 0.18489 0.32616 0.38984 0.0
H113 H 0.22245 0.2726 0.38961 0.0
H114 H 0.11258 0.17676 0.23557 0.0
H115 H 0.07667 0.23009 0.23378 0.0
H116 H 0.7641 0.23046 0.18793 0.0
H117 H 0.67696 0.20795 0.19557 0.0
H118 H 0.67597 0.16721 0.4185 0.0
H119 H 0.76274 0.19181 0.4118 0.0
C120 C 0.08965 0.46159 0.78289 0.0
Eu121 Eu 0.11565 0.394 0.79855 0.0
C122 C 0.11745 0.51633 0.78891 0.0
C123 C 0.12379 0.54054 0.85495 0.0
C124 C 0.15127 0.59237 0.85875 0.0
C125 C 0.1731 0.62085 0.79669 0.0
C126 C 0.16701 0.59641 0.73115 0.0
C127 C 0.13941 0.54505 0.72722 0.0
C128 C 0.11702 0.35763 0.93325 0.0
C129 C 0.23385 0.43524 0.80244 0.0
C130 C 0.18997 0.26996 0.82817 0.0
Eu131 Eu 0.15045 0.32327 0.79651 0.0
C132 C 0.17851 0.21895 0.83641 0.0
C133 C 0.17474 0.19089 0.77571 0.0
C134 C 0.18293 0.15122 0.7831 0.0
C135 C 0.19488 0.13997 0.85089 0.0
C136 C 0.19103 0.16283 0.91247 0.0
C137 C 0.18258 0.20241 0.90528 0.0
C138 C 0.11911 0.33284 0.66336 0.0
C139 C 1.03682 0.27436 0.78699 0.0
O140 O 0.10357 0.44399 0.73066 0.0
O141 O 0.08107 0.43518 0.84138 0.0
O142 O 0.13703 0.40431 0.91761 0.0
O143 O 0.10421 0.33448 0.87525 0.0
O144 O 0.19946 0.44658 0.78461 0.0
O145 O 0.22084 0.39072 0.82388 0.0
O146 O 0.1722 0.2869 0.87674 0.0
O147 O 0.18996 0.28623 0.76298 0.0
O148 O 0.12069 0.29433 0.68657 0.0
O149 O 0.14231 0.36856 0.70755 0.0
O150 O 0.07266 0.26796 0.81271 0.0
O151 O 1.04374 0.31943 0.77253 0.0
H152 H 0.10734 0.51956 0.90349 0.0
H153 H 0.15436 0.61013 0.90979 0.0
H154 H 0.18342 0.61716 0.68241 0.0
H155 H 0.13538 0.52782 0.67539 0.0
H156 H 0.17059 0.20236 0.72211 0.0
H157 H 0.18502 0.13272 0.73529 0.0
H158 H 0.19903 0.15307 0.96493 0.0
H159 H 0.18457 0.22314 0.95283 0.0
C160 C 0.42768 0.98279 0.78497 0.0
Eu161 Eu 0.33377 0.95454 0.79915 0.0
C162 C 0.45519 0.95481 0.79053 0.0
C163 C 0.47091 0.94589 0.85746 0.0
C164 C 0.49609 0.91899 0.86199 0.0
C165 C 0.50664 0.90054 0.79977 0.0
C166 C 0.48987 0.90836 0.73309 0.0
C167 C 0.46468 0.93529 0.7285 0.0
C168 C 0.29322 0.95242 0.92835 0.0
C169 C 0.26003 0.83471 0.79795 0.0
C170 C 0.14069 0.88502 0.82565 0.0
Eu171 Eu 0.22949 0.91682 0.78235 0.0
C172 C 0.09963 0.89479 0.82649 0.0
C173 C 0.07737 0.89835 0.76237 0.0
C174 C 1.02767 0.88556 0.76244 0.0
C175 C 1.00055 0.86885 0.82636 0.0
C176 C 1.02559 0.87393 0.89178 0.0
C177 C 0.07524 0.88744 0.89176 0.0
C178 C 0.2708 0.94461 0.65179 0.0
C179 C 0.28503 0.02821 0.77468 0.0
O180 O 0.3969 0.97123 0.731 0.0
O181 O 0.40915 0.98937 0.84374 0.0
O182 O 0.32083 0.93258 0.91674 0.0
O183 O 0.28252 0.96413 0.86847 0.0
O184 O 0.30626 0.87084 0.80563 0.0
O185 O 0.22406 0.844 0.7881 0.0
O186 O 0.17943 0.91319 0.86549 0.0
O187 O 0.15091 0.87162 0.76448 0.0
O188 O 0.22739 0.93799 0.6687 0.0
O189 O 0.28643 0.92665 0.70167 0.0
O190 O 0.24868 0.99038 0.74415 0.0
O191 O 0.32407 1.02512 0.79983 0.0
H192 H 0.46387 0.95974 0.90652 0.0
H193 H 0.50765 0.91288 0.91442 0.0
H194 H 0.49747 0.89485 0.68414 0.0
H195 H 0.45288 0.94108 0.67605 0.0
H196 H 0.09647 0.90558 0.71155 0.0
H197 H 1.00935 0.88378 0.71174 0.0
H198 H 1.00594 0.86162 0.94208 0.0
H199 H 0.09249 0.88559 0.94181 0.0
C200 C 0.6085 0.64197 0.78069 0.0
Eu201 Eu 0.67596 0.73442 0.79922 0.0
C202 C 0.55341 0.61563 0.78424 0.0
C203 C 0.5288 0.5864 0.84442 0.0
C204 C 0.47695 0.56127 0.84777 0.0
C205 C 0.44858 0.56511 0.79133 0.0
C206 C 0.47295 0.5948 0.7317 0.0
C207 C 0.52478 0.61975 0.72808 0.0
C208 C 0.71273 0.77489 0.9316 0.0
C209 C 0.63629 0.81351 0.80194 0.0
C210 C 0.80776 0.93093 0.82483 0.0
Eu211 Eu 0.74975 0.84076 0.78764 0.0
C212 C 0.85803 0.97175 0.81565 0.0
C213 C 0.8755 0.98955 0.74662 0.0
C214 C 0.91069 0.03884 0.7373 0.0
C215 C 0.93049 0.0701 0.79725 0.0
C216 C 0.92007 0.04913 0.86656 0.0
C217 C 0.88319 1.00013 0.87577 0.0
C218 C 0.73984 0.7956 0.66069 0.0
C219 C 0.79696 0.77342 0.79085 0.0
O220 O 0.6289 0.67333 0.72791 0.0
O221 O 0.63255 0.65905 0.841 0.0
O222 O 0.666 0.746 0.91711 0.0
O223 O 0.73516 0.78479 0.87271 0.0
O224 O 0.62305 0.76626 0.79636 0.0
O225 O 0.6828 0.84745 0.80227 0.0
O226 O 0.80184 0.89358 0.86478 0.0
O227 O 0.77844 0.91836 0.76818 0.0
O228 O 0.77778 0.83771 0.67849 0.0
O229 O 0.7042 0.78438 0.70456 0.0
O230 O 0.80509 0.81816 0.77836 0.0
O231 O 0.75151 0.73506 0.8015 0.0
H232 H 0.54962 0.58248 0.88862 0.0
H233 H 0.45888 0.53801 0.89389 0.0
H234 H 0.45183 0.59752 0.68692 0.0
H235 H 0.54231 0.64183 0.6808 0.0
H236 H 0.85752 0.9675 0.69944 0.0
H237 H 0.91715 0.05297 0.6829 0.0
H238 H 0.93646 0.07177 0.91375 0.0
H239 H 0.87087 0.98624 0.92964 0.0
C240 C 0.30213 0.03066 0.98532 0.0
C241 C 0.30531 0.98688 0.99109 0.0
C242 C 0.32209 0.0681 1.0383 0.0
C243 C 0.34667 0.06369 0.09941 0.0
H244 H 0.28494 0.03665 0.93877 0.0
H245 H 0.31897 0.10098 1.03062 0.0
S246 S 0.36001 0.95365 0.14442 0.0
N247 N 0.32975 0.93926 0.06715 0.0
N248 N 0.3711 1.00994 0.16289 0.0
C249 C 0.34933 1.01952 0.106 0.0
C250 C 0.32734 0.98098 0.0535 0.0
C251 C 0.77368 0.78978 0.54247 0.0
C252 C 0.74511 0.76489 0.60313 0.0
C253 C 0.78949 0.76647 0.49297 0.0
C254 C 0.77574 0.71628 0.4999 0.0
H255 H 0.7863 0.82874 0.53557 0.0
H256 H 0.81447 0.78858 0.45066 0.0
S257 S 0.71495 0.63822 0.65907 0.0
N258 N 0.71395 0.68983 0.67429 0.0
N259 N 0.74064 0.64544 0.57953 0.0
C260 C 0.74967 0.69163 0.56204 0.0
C261 C 0.73463 0.71574 0.61354 0.0
C262 C 1.00713 0.26841 1.04955 0.0
C263 C 1.00872 0.29831 0.10681 0.0
C264 C 0.04395 0.28691 0.99601 0.0
C265 C 0.08394 0.3362 0.99725 0.0
H266 H 0.97697 0.23071 1.04549 0.0
H267 H 1.04007 0.26266 0.95212 0.0
S268 S 0.10755 0.42837 0.13865 0.0
N269 N 0.0555 0.37918 0.16312 0.0
N270 N 0.12414 0.41291 0.06365 0.0
C271 C 0.08684 0.36559 0.05568 0.0
C272 C 0.04939 0.34704 0.10982 0.0
C273 C 0.2917 1.02691 0.4902 0.0
C274 C 0.34073 0.06561 0.49707 0.0
C275 C 0.2718 0.98722 0.53885 0.0
C276 C 0.2991 0.98484 0.5983 0.0
H277 H 0.27003 1.02493 0.44303 0.0
H278 H 0.23424 0.95769 0.52966 0.0
S279 S 0.42457 0.08493 0.65106 0.0
N280 N 0.4141 0.10315 0.57239 0.0
N281 N 0.37425 0.03193 0.66914 0.0
C282 C 0.34634 1.02629 0.60999 0.0
C283 C 0.36752 0.06587 0.55839 0.0
C284 C 0.76489 0.79382 1.04521 0.0
C285 C 0.73543 0.76021 0.99146 0.0
C286 C 0.79101 0.78132 0.09636 0.0
C287 C 0.78851 0.73483 0.09578 0.0
H288 H 0.76829 0.83012 1.04716 0.0
H289 H 0.81255 0.80788 0.13755 0.0
S290 S 0.72016 0.6353 0.96364 0.0
N291 N 0.70891 0.67978 0.93835 0.0
N292 N 0.75584 0.65615 1.03583 0.0
C293 C 0.76034 0.70166 1.04156 0.0
C294 C 0.73436 0.71437 0.98925 0.0
C295 C 1.04146 0.2776 0.49447 0.0
C296 C 1.00461 0.29126 0.49765 0.0
C297 C 0.08165 0.29658 0.54355 0.0
C298 C 0.08564 0.32804 0.60065 0.0
H299 H 1.03821 0.25041 0.45566 0.0
H300 H 0.10789 0.28335 0.53999 0.0
S301 S 0.99424 0.36936 0.63675 0.0
N302 N 0.97283 0.33574 0.56347 0.0
N303 N 0.04596 0.36924 0.65697 0.0
C304 C 0.0485 0.34152 0.60377 0.0
C305 C 1.00831 0.32306 0.55281 0.0
C306 C 0.53317 0.10507 0.2527 0.0
C307 C 0.50824 0.11059 0.3112 0.0
C308 C 0.58529 0.12938 0.25163 0.0
C309 C 0.61412 0.1608 0.30824 0.0
H310 H 0.51256 0.0845 0.20579 0.0
H311 H 0.60313 0.1241 0.20559 0.0
S312 S 0.56566 0.19003 0.47084 0.0
N313 N 0.51587 0.14941 0.42679 0.0
N314 N 0.61305 0.19791 0.42211 0.0
C315 C 0.5893 0.16641 0.36682 0.0
C316 C 0.53665 0.1404 0.36904 0.0
C317 C 0.62741 0.5402 0.33906 0.0
C318 C 0.66547 0.5603 0.2878 0.0
C319 C 0.5971 0.48832 0.34705 0.0
C320 C 0.6046 0.45496 0.30522 0.0
H321 H 0.62142 0.56447 0.37366 0.0
H322 H 0.56716 0.47422 0.38537 0.0
S323 S 0.70263 0.4867 0.17061 0.0
N324 N 0.70894 0.54005 0.1957 0.0
N325 N 0.6562 0.44513 0.21833 0.0
C326 C 0.64391 0.47431 0.25715 0.0
C327 C 0.67298 0.52615 0.24623 0.0
C328 C 0.91038 0.39261 0.37345 0.0
C329 C 0.95619 0.40403 0.34219 0.0
C330 C 0.8902 0.42376 0.36624 0.0
C331 C 0.91549 0.46885 0.32939 0.0
H332 H 0.88787 0.35727 0.39974 0.0
H333 H 0.85344 0.41123 0.38706 0.0
S334 S 1.04097 0.52189 0.2509 0.0
N335 N 1.02878 0.46674 0.28024 0.0
N336 N 0.99234 0.5274 0.27116 0.0
C337 C 0.96331 0.48316 0.30362 0.0
C338 C 0.98351 0.45055 0.30947 0.0
C339 C 0.18657 0.70071 0.74487 0.0
C340 C 0.19891 0.67595 0.79764 0.0
C341 C 0.20914 0.75222 0.74366 0.0
C342 C 0.24535 0.78166 0.79489 0.0
H343 H 0.15818 0.68003 0.70501 0.0
H344 H 0.19702 0.76919 0.70303 0.0
S345 S 0.2911 0.73554 0.94457 0.0
N346 N 0.2503 0.68492 0.90232 0.0
N347 N 0.29227 0.78238 0.90033 0.0
C348 C 0.2587 0.75775 0.8475 0.0
C349 C 0.23542 0.7048 0.849 0.0
C350 C 0.52393 0.83114 0.76876 0.0
C351 C 0.53789 0.87623 0.80403 0.0
C352 C 0.55429 0.8091 0.771 0.0
C353 C 0.60006 0.83175 0.80778 0.0
H354 H 0.4894 0.81289 0.73886 0.0
H355 H 0.54272 0.77521 0.74162 0.0
S356 S 0.65411 0.9506 0.90758 0.0
N357 N 0.60106 0.94285 0.87555 0.0
N358 N 0.65724 0.90184 0.88111 0.0
C359 C 0.61395 0.8766 0.8438 0.0
C360 C 0.58321 0.89872 0.84155 0.0
C361 C 0.30986 0.52129 0.8045 0.0
C362 C 0.28826 0.4699 0.79462 0.0
C363 C 0.36186 0.55248 0.80267 0.0
C364 C 0.39379 0.53323 0.79084 0.0
H365 H 0.28664 0.53725 0.8156 0.0
H366 H 0.37726 0.59168 0.81186 0.0
S367 S 0.35654 0.40292 0.75314 0.0
N368 N 0.30386 0.40243 0.76592 0.0
N369 N 0.40037 0.46092 0.76369 0.0
C370 C 0.37272 0.48254 0.77839 0.0
C371 C 0.32032 0.45095 0.77992 0.0
C372 C 0.23041 0.14442 0.36901 0.0
C373 C 0.24363 0.13238 0.3032 0.0
C374 C 0.20597 0.17211 0.3715 0.0
C375 C 0.19427 0.18926 0.30816 0.0
H376 H 0.24189 0.13501 0.41917 0.0
H377 H 0.19741 0.18132 0.42343 0.0
S378 S 0.22461 0.1713 0.12249 0.0
N379 N 0.24519 0.14155 0.17361 0.0
N380 N 0.19939 0.19362 0.17771 0.0
C381 C 0.20666 0.17686 0.24189 0.0
C382 C 0.23132 0.14847 0.23954 0.0
C383 C 0.97165 0.86584 0.27494 0.0
C384 C 0.94838 0.82176 0.31502 0.0
C385 C 1.02392 0.89485 0.2737 0.0
C386 C 0.05438 0.8804 0.31195 0.0
H387 H 0.94973 0.8764 0.24129 0.0
H388 H 1.04066 0.92793 0.24077 0.0
S389 S 1.0113 0.76795 0.42513 0.0
N390 N 0.96026 0.76706 0.39792 0.0
N391 N 0.05675 0.81835 0.38926 0.0
C392 C 1.03122 0.8371 0.35344 0.0
C393 C 0.97876 0.80883 0.35681 0.0
C394 C 0.94827 0.09361 0.25706 0.0
C395 C 0.93729 0.12057 0.30656 0.0
C396 C 0.92301 0.04126 0.25926 0.0
C397 C 0.88567 1.01431 0.31046 0.0
H398 H 0.97386 0.11271 0.21379 0.0
H399 H 0.93148 1.0217 0.21904 0.0
S400 S 0.84259 0.06789 0.45069 0.0
N401 N 0.88805 0.11609 0.41034 0.0
N402 N 0.83853 1.01926 0.40992 0.0
C403 C 0.87555 0.04116 0.36105 0.0
C404 C 0.90206 0.09378 0.36043 0.0
C405 C 0.1914 0.06085 0.8414 0.0
C406 C 0.2196 0.11104 0.85391 0.0
C407 C 0.2143 0.03477 0.82088 0.0
C408 C 0.26634 0.05819 0.80918 0.0
H409 H 0.15127 0.04232 0.8428 0.0
H410 H 0.18974 0.99598 0.8103 0.0
S411 S 0.35619 0.18802 0.85205 0.0
N412 N 0.30151 0.18282 0.86705 0.0
N413 N 0.34538 0.13295 0.82568 0.0
C414 C 0.29526 0.10757 0.82913 0.0
C415 C 0.27156 0.13428 0.85175 0.0
C416 C 0.92379 0.80012 0.77169 0.0
C417 C 0.94633 0.83766 0.82378 0.0
C418 C 0.87224 0.76988 0.76827 0.0
C419 C 0.84195 0.77527 0.81823 0.0
H420 H 0.94597 0.79526 0.73159 0.0
H421 H 0.85591 0.74584 0.72234 0.0
S422 S 0.8829 0.86717 0.96574 0.0
N423 N 0.93442 0.87881 0.92525 0.0
N424 N 0.83862 0.81841 0.92441 0.0
C425 C 0.86486 0.80896 0.87536 0.0
C426 C 0.91667 0.84185 0.87585 0.0
C427 C 0.96074 0.20284 0.82635 0.0
C428 C 0.99234 0.22799 0.769 0.0
C429 C 0.94079 0.15173 0.83498 0.0
C430 C 0.95316 0.12428 0.78783 0.0
H431 H 0.95549 0.22339 0.86873 0.0
H432 H 0.91674 0.13405 0.88032 0.0
S433 S 1.03183 0.17307 0.62622 0.0
N434 N 1.02821 0.22031 0.65835 0.0
N435 N 0.99907 0.12683 0.6815 0.0
C436 C 0.98286 0.1488 0.72855 0.0
C437 C 0.99935 0.19972 0.71672 0.0
loop_
_geom_bond_atom_site_label_1
_geom_bond_atom_site_label_2
_geom_bond_distance
_geom_bond_site_symmetry_2
_ccdc_geom_bond_type
C0 Eu1 2.835 1_565 S
C0 C2 1.500 . S
C0 O20 1.257 . S
C0 O21 1.260 . S
Eu1 C0 2.835 1_545 S
Eu1 O20 2.473 1_545 S
Eu1 O21 2.480 1_545 S
Eu1 O22 2.430 . S
Eu1 O23 2.670 . S
Eu1 O24 2.394 . S
Eu1 O29 2.355 . S
Eu1 O31 2.374 . S
C2 C0 1.500 . S
C2 C3 1.377 . S
C2 C7 1.377 . S
C3 C2 1.377 . S
C3 C4 1.395 . S
C3 H32 0.931 . S
C4 C3 1.395 . S
C4 C5 1.383 . S
C4 H33 0.931 . S
C5 C4 1.383 . S
C5 C6 1.394 . S
C6 C5 1.394 . S
C6 C7 1.378 . S
C6 H34 0.931 . S
C7 C2 1.377 . S
C7 C6 1.378 . S
C7 H35 0.931 . S
C8 O22 1.259 . S
C8 O23 1.270 . S
C9 O24 1.251 . S
C9 O25 1.251 . S
C10 Eu11 2.835 . S
C10 C12 1.500 . S
C10 O26 1.257 . S
C10 O27 1.260 . S
Eu11 C10 2.835 . S
Eu11 O23 2.355 . S
Eu11 O25 2.374 . S
Eu11 O26 2.473 . S
Eu11 O27 2.480 . S
Eu11 O28 2.430 . S
Eu11 O29 2.670 . S
Eu11 O30 2.394 . S
C12 C10 1.500 . S
C12 C13 1.377 . S
C12 C17 1.377 . S
C13 C12 1.377 . S
C13 C14 1.395 . S
C13 H36 0.931 . S
C14 C13 1.395 . S
C14 C15 1.383 . S
C14 H37 0.931 . S
C15 C14 1.383 . S
C15 C16 1.394 . S
C16 C15 1.394 . S
C16 C17 1.378 . S
C16 H38 0.931 . S
C17 C12 1.377 . S
C17 C16 1.378 . S
C17 H39 0.931 . S
C18 O28 1.259 . S
C18 O29 1.270 . S
C19 O30 1.251 . S
C19 O31 1.251 . S
O20 C0 1.257 . S
O20 Eu1 2.473 1_565 S
O21 C0 1.260 . S
O21 Eu1 2.480 1_565 S
O22 Eu1 2.430 . S
O22 C8 1.259 . S
O23 Eu1 2.670 . S
O23 C8 1.270 . S
O23 Eu11 2.355 . S
O24 Eu1 2.394 . S
O24 C9 1.251 . S
O25 C9 1.251 . S
O25 Eu11 2.374 . S
O26 C10 1.257 . S
O26 Eu11 2.473 . S
O27 C10 1.260 . S
O27 Eu11 2.480 . S
O28 Eu11 2.430 . S
O28 C18 1.259 . S
O29 Eu1 2.355 . S
O29 Eu11 2.670 . S
O29 C18 1.270 . S
O30 Eu11 2.394 . S
O30 C19 1.251 . S
O31 Eu1 2.374 . S
O31 C19 1.251 . S
H32 C3 0.931 . S
H33 C4 0.931 . S
H34 C6 0.931 . S
H35 C7 0.931 . S
H36 C13 0.931 . S
H37 C14 0.931 . S
H38 C16 0.931 . S
H39 C17 0.931 . S
C40 Eu41 2.835 . S
C40 C42 1.500 . S
C40 O60 1.257 . S
C40 O61 1.260 . S
Eu41 C40 2.835 . S
Eu41 O60 2.473 . S
Eu41 O61 2.480 . S
Eu41 O62 2.430 . S
Eu41 O63 2.670 . S
Eu41 O64 2.394 . S
Eu41 O69 2.355 . S
Eu41 O71 2.374 . S
C42 C40 1.500 . S
C42 C43 1.377 . S
C42 C47 1.377 . S
C43 C42 1.377 . S
C43 C44 1.395 . S
C43 H72 0.931 . S
C44 C43 1.395 . S
C44 C45 1.383 . S
C44 H73 0.931 . S
C45 C44 1.383 . S
C45 C46 1.394 . S
C46 C45 1.394 . S
C46 C47 1.378 . S
C46 H74 0.931 . S
C47 C42 1.377 . S
C47 C46 1.378 . S
C47 H75 0.931 . S
C48 O62 1.259 . S
C48 O63 1.270 . S
C49 O64 1.251 . S
C49 O65 1.251 . S
C50 Eu51 2.835 . S
C50 C52 1.500 . S
C50 O66 1.257 . S
C50 O67 1.260 . S
Eu51 C50 2.835 . S
Eu51 O63 2.355 . S
Eu51 O65 2.374 . S
Eu51 O66 2.473 . S
Eu51 O67 2.480 . S
Eu51 O68 2.430 . S
Eu51 O69 2.670 . S
Eu51 O70 2.394 . S
C52 C50 1.500 . S
C52 C53 1.377 . S
C52 C57 1.377 . S
C53 C52 1.377 . S
C53 C54 1.395 . S
C53 H76 0.931 . S
C54 C53 1.395 . S
C54 C55 1.383 . S
C54 H77 0.931 . S
C55 C54 1.383 . S
C55 C56 1.394 . S
C56 C55 1.394 . S
C56 C57 1.378 . S
C56 H78 0.931 . S
C57 C52 1.377 . S
C57 C56 1.378 . S
C57 H79 0.931 . S
C58 O68 1.259 . S
C58 O69 1.270 . S
C59 O70 1.251 . S
C59 O71 1.251 . S
O60 C40 1.257 . S
O60 Eu41 2.473 . S
O61 C40 1.260 . S
O61 Eu41 2.480 . S
O62 Eu41 2.430 . S
O62 C48 1.259 . S
O63 Eu41 2.670 . S
O63 C48 1.270 . S
O63 Eu51 2.355 . S
O64 Eu41 2.394 . S
O64 C49 1.251 . S
O65 C49 1.251 . S
O65 Eu51 2.374 . S
O66 C50 1.257 . S
O66 Eu51 2.473 . S
O67 C50 1.260 . S
O67 Eu51 2.480 . S
O68 Eu51 2.430 . S
O68 C58 1.259 . S
O69 Eu41 2.355 . S
O69 Eu51 2.670 . S
O69 C58 1.270 . S
O70 Eu51 2.394 . S
O70 C59 1.251 . S
O71 Eu41 2.374 . S
O71 C59 1.251 . S
H72 C43 0.931 . S
H73 C44 0.931 . S
H74 C46 0.931 . S
H75 C47 0.931 . S
H76 C53 0.931 . S
H77 C54 0.931 . S
H78 C56 0.931 . S
H79 C57 0.931 . S
C80 Eu81 2.835 1_455 S
C80 C82 1.500 . S
C80 O100 1.257 . S
C80 O101 1.260 . S
Eu81 C80 2.835 1_655 S
Eu81 O100 2.473 1_655 S
Eu81 O101 2.480 1_655 S
Eu81 O102 2.430 . S
Eu81 O103 2.670 . S
Eu81 O104 2.394 . S
Eu81 O109 2.355 . S
Eu81 O111 2.374 . S
C82 C80 1.500 . S
C82 C83 1.377 . S
C82 C87 1.377 . S
C83 C82 1.377 . S
C83 C84 1.395 . S
C83 H112 0.931 . S
C84 C83 1.395 . S
C84 C85 1.383 . S
C84 H113 0.931 . S
C85 C84 1.383 . S
C85 C86 1.394 . S
C86 C85 1.394 . S
C86 C87 1.378 . S
C86 H114 0.931 . S
C87 C82 1.377 . S
C87 C86 1.378 . S
C87 H115 0.931 . S
C88 O102 1.259 . S
C88 O103 1.270 . S
C89 O104 1.251 . S
C89 O105 1.251 . S
C90 Eu91 2.835 . S
C90 C92 1.500 . S
C90 O106 1.257 . S
C90 O107 1.260 . S
Eu91 C90 2.835 . S
Eu91 O103 2.355 . S
Eu91 O105 2.374 . S
Eu91 O106 2.473 . S
Eu91 O107 2.480 . S
Eu91 O108 2.430 . S
Eu91 O109 2.670 . S
Eu91 O110 2.394 . S
C92 C90 1.500 . S
C92 C93 1.377 . S
C92 C97 1.377 . S
C93 C92 1.377 . S
C93 C94 1.395 . S
C93 H116 0.931 . S
C94 C93 1.395 . S
C94 C95 1.383 . S
C94 H117 0.931 . S
C95 C94 1.383 . S
C95 C96 1.394 . S
C96 C95 1.394 . S
C96 C97 1.378 . S
C96 H118 0.931 . S
C97 C92 1.377 . S
C97 C96 1.378 . S
C97 H119 0.931 . S
C98 O108 1.259 . S
C98 O109 1.270 . S
C99 O110 1.251 . S
C99 O111 1.251 . S
O100 C80 1.257 . S
O100 Eu81 2.473 1_455 S
O101 C80 1.260 . S
O101 Eu81 2.480 1_455 S
O102 Eu81 2.430 . S
O102 C88 1.259 . S
O103 Eu81 2.670 . S
O103 C88 1.270 . S
O103 Eu91 2.355 . S
O104 Eu81 2.394 . S
O104 C89 1.251 . S
O105 C89 1.251 . S
O105 Eu91 2.374 . S
O106 C90 1.257 . S
O106 Eu91 2.473 . S
O107 C90 1.260 . S
O107 Eu91 2.480 . S
O108 Eu91 2.430 . S
O108 C98 1.259 . S
O109 Eu81 2.355 . S
O109 Eu91 2.670 . S
O109 C98 1.270 . S
O110 Eu91 2.394 . S
O110 C99 1.251 . S
O111 Eu81 2.374 . S
O111 C99 1.251 . S
H112 C83 0.931 . S
H113 C84 0.931 . S
H114 C86 0.931 . S
H115 C87 0.931 . S
H116 C93 0.931 . S
H117 C94 0.931 . S
H118 C96 0.931 . S
H119 C97 0.931 . S
C120 Eu121 2.835 . S
C120 C122 1.500 . S
C120 O140 1.257 . S
C120 O141 1.260 . S
Eu121 C120 2.835 . S
Eu121 O140 2.473 . S
Eu121 O141 2.480 . S
Eu121 O142 2.430 . S
Eu121 O143 2.670 . S
Eu121 O144 2.394 . S
Eu121 O149 2.355 . S
Eu121 O151 2.374 . S
C122 C120 1.500 . S
C122 C123 1.377 . S
C122 C127 1.377 . S
C123 C122 1.377 . S
C123 C124 1.395 . S
C123 H152 0.931 . S
C124 C123 1.395 . S
C124 C125 1.383 . S
C124 H153 0.931 . S
C125 C124 1.383 . S
C125 C126 1.394 . S
C126 C125 1.394 . S
C126 C127 1.378 . S
C126 H154 0.931 . S
C127 C122 1.377 . S
C127 C126 1.378 . S
C127 H155 0.931 . S
C128 O142 1.259 . S
C128 O143 1.270 . S
C129 O144 1.251 . S
C129 O145 1.251 . S
C130 Eu131 2.835 . S
C130 C132 1.500 . S
C130 O146 1.257 . S
C130 O147 1.260 . S
Eu131 C130 2.835 . S
Eu131 O143 2.355 . S
Eu131 O145 2.374 . S
Eu131 O146 2.473 . S
Eu131 O147 2.480 . S
Eu131 O148 2.430 . S
Eu131 O149 2.670 . S
Eu131 O150 2.394 . S
C132 C130 1.500 . S
C132 C133 1.377 . S
C132 C137 1.377 . S
C133 C132 1.377 . S
C133 C134 1.395 . S
C133 H156 0.931 . S
C134 C133 1.395 . S
C134 C135 1.383 . S
C134 H157 0.931 . S
C135 C134 1.383 . S
C135 C136 1.394 . S
C136 C135 1.394 . S
C136 C137 1.378 . S
C136 H158 0.931 . S
C137 C132 1.377 . S
C137 C136 1.378 . S
C137 H159 0.931 . S
C138 O148 1.259 . S
C138 O149 1.270 . S
C139 O150 1.251 . S
C139 O151 1.251 . S
O140 C120 1.257 . S
O140 Eu121 2.473 . S
O141 C120 1.260 . S
O141 Eu121 2.480 . S
O142 Eu121 2.430 . S
O142 C128 1.259 . S
O143 Eu121 2.670 . S
O143 C128 1.270 . S
O143 Eu131 2.355 . S
O144 Eu121 2.394 . S
O144 C129 1.251 . S
O145 C129 1.251 . S
O145 Eu131 2.374 . S
O146 C130 1.257 . S
O146 Eu131 2.473 . S
O147 C130 1.260 . S
O147 Eu131 2.480 . S
O148 Eu131 2.430 . S
O148 C138 1.259 . S
O149 Eu121 2.355 . S
O149 Eu131 2.670 . S
O149 C138 1.270 . S
O150 Eu131 2.394 . S
O150 C139 1.251 . S
O151 Eu121 2.374 . S
O151 C139 1.251 . S
H152 C123 0.931 . S
H153 C124 0.931 . S
H154 C126 0.931 . S
H155 C127 0.931 . S
H156 C133 0.931 . S
H157 C134 0.931 . S
H158 C136 0.931 . S
H159 C137 0.931 . S
C160 Eu161 2.835 . S
C160 C162 1.500 . S
C160 O180 1.257 . S
C160 O181 1.260 . S
Eu161 C160 2.835 . S
Eu161 O180 2.473 . S
Eu161 O181 2.480 . S
Eu161 O182 2.430 . S
Eu161 O183 2.670 . S
Eu161 O184 2.394 . S
Eu161 O189 2.355 . S
Eu161 O191 2.374 . S
C162 C160 1.500 . S
C162 C163 1.377 . S
C162 C167 1.377 . S
C163 C162 1.377 . S
C163 C164 1.395 . S
C163 H192 0.931 . S
C164 C163 1.395 . S
C164 C165 1.383 . S
C164 H193 0.931 . S
C165 C164 1.383 . S
C165 C166 1.394 . S
C166 C165 1.394 . S
C166 C167 1.378 . S
C166 H194 0.931 . S
C167 C162 1.377 . S
C167 C166 1.378 . S
C167 H195 0.931 . S
C168 O182 1.259 . S
C168 O183 1.270 . S
C169 O184 1.251 . S
C169 O185 1.251 . S
C170 Eu171 2.835 . S
C170 C172 1.500 . S
C170 O186 1.257 . S
C170 O187 1.260 . S
Eu171 C170 2.835 . S
Eu171 O183 2.355 . S
Eu171 O185 2.374 . S
Eu171 O186 2.473 . S
Eu171 O187 2.480 . S
Eu171 O188 2.430 . S
Eu171 O189 2.670 . S
Eu171 O190 2.394 . S
C172 C170 1.500 . S
C172 C173 1.377 . S
C172 C177 1.377 . S
C173 C172 1.377 . S
C173 C174 1.395 1_455 S
C173 H196 0.931 . S
C174 C173 1.395 1_655 S
C174 C175 1.383 . S
C174 H197 0.931 . S
C175 C174 1.383 . S
C175 C176 1.394 . S
C176 C175 1.394 . S
C176 C177 1.378 1_655 S
C176 H198 0.931 . S
C177 C172 1.377 . S
C177 C176 1.378 1_455 S
C177 H199 0.931 . S
C178 O188 1.259 . S
C178 O189 1.270 . S
C179 O190 1.251 . S
C179 O191 1.251 . S
O180 C160 1.257 . S
O180 Eu161 2.473 . S
O181 C160 1.260 . S
O181 Eu161 2.480 . S
O182 Eu161 2.430 . S
O182 C168 1.259 . S
O183 Eu161 2.670 . S
O183 C168 1.270 . S
O183 Eu171 2.355 . S
O184 Eu161 2.394 . S
O184 C169 1.251 . S
O185 C169 1.251 . S
O185 Eu171 2.374 . S
O186 C170 1.257 . S
O186 Eu171 2.473 . S
O187 C170 1.260 . S
O187 Eu171 2.480 . S
O188 Eu171 2.430 . S
O188 C178 1.259 . S
O189 Eu161 2.355 . S
O189 Eu171 2.670 . S
O189 C178 1.270 . S
O190 Eu171 2.394 . S
O190 C179 1.251 . S
O191 Eu161 2.374 . S
O191 C179 1.251 . S
H192 C163 0.931 . S
H193 C164 0.931 . S
H194 C166 0.931 . S
H195 C167 0.931 . S
H196 C173 0.931 . S
H197 C174 0.931 . S
H198 C176 0.931 . S
H199 C177 0.931 . S
C200 Eu201 2.835 . S
C200 C202 1.500 . S
C200 O220 1.257 . S
C200 O221 1.260 . S
Eu201 C200 2.835 . S
Eu201 O220 2.473 . S
Eu201 O221 2.480 . S
Eu201 O222 2.430 . S
Eu201 O223 2.670 . S
Eu201 O224 2.394 . S
Eu201 O229 2.355 . S
Eu201 O231 2.374 . S
C202 C200 1.500 . S
C202 C203 1.377 . S
C202 C207 1.377 . S
C203 C202 1.377 . S
C203 C204 1.395 . S
C203 H232 0.931 . S
C204 C203 1.395 . S
C204 C205 1.383 . S
C204 H233 0.931 . S
C205 C204 1.383 . S
C205 C206 1.394 . S
C206 C205 1.394 . S
C206 C207 1.378 . S
C206 H234 0.931 . S
C207 C202 1.377 . S
C207 C206 1.378 . S
C207 H235 0.931 . S
C208 O222 1.259 . S
C208 O223 1.270 . S
C209 O224 1.251 . S
C209 O225 1.251 . S
C210 Eu211 2.835 . S
C210 C212 1.500 . S
C210 O226 1.257 . S
C210 O227 1.260 . S
Eu211 C210 2.835 . S
Eu211 O223 2.355 . S
Eu211 O225 2.374 . S
Eu211 O226 2.473 . S
Eu211 O227 2.480 . S
Eu211 O228 2.430 . S
Eu211 O229 2.670 . S
Eu211 O230 2.394 . S
C212 C210 1.500 . S
C212 C213 1.377 . S
C212 C217 1.377 . S
C213 C212 1.377 . S
C213 C214 1.395 1_565 S
C213 H236 0.931 . S
C214 C213 1.395 1_545 S
C214 C215 1.383 . S
C214 H237 0.931 . S
C215 C214 1.383 . S
C215 C216 1.394 . S
C216 C215 1.394 . S
C216 C217 1.378 1_545 S
C216 H238 0.931 . S
C217 C212 1.377 . S
C217 C216 1.378 1_565 S
C217 H239 0.931 . S
C218 O228 1.259 . S
C218 O229 1.270 . S
C219 O230 1.251 . S
C219 O231 1.251 . S
O220 C200 1.257 . S
O220 Eu201 2.473 . S
O221 C200 1.260 . S
O221 Eu201 2.480 . S
O222 Eu201 2.430 . S
O222 C208 1.259 . S
O223 Eu201 2.670 . S
O223 C208 1.270 . S
O223 Eu211 2.355 . S
O224 Eu201 2.394 . S
O224 C209 1.251 . S
O225 C209 1.251 . S
O225 Eu211 2.374 . S
O226 C210 1.257 . S
O226 Eu211 2.473 . S
O227 C210 1.260 . S
O227 Eu211 2.480 . S
O228 Eu211 2.430 . S
O228 C218 1.259 . S
O229 Eu201 2.355 . S
O229 Eu211 2.670 . S
O229 C218 1.270 . S
O230 Eu211 2.394 . S
O230 C219 1.251 . S
O231 Eu201 2.374 . S
O231 C219 1.251 . S
H232 C203 0.931 . S
H233 C204 0.931 . S
H234 C206 0.931 . S
H235 C207 0.931 . S
H236 C213 0.931 . S
H237 C214 0.931 . S
H238 C216 0.931 . S
H239 C217 0.931 . S
C240 C241 1.369 . S
C240 C242 1.419 1_565 S
C240 H244 0.930 . S
C241 C240 1.369 . S
C241 C250 1.429 1_556 S
C242 C240 1.419 1_545 S
C242 C243 1.363 1_556 S
C242 H245 0.929 . S
C243 C242 1.363 1_554 S
C243 C249 1.428 1_545 S
H244 C240 0.930 . S
H245 C242 0.929 . S
S246 N247 1.613 . S
S246 N248 1.610 . S
N247 S246 1.613 . S
N247 C250 1.350 . S
N248 S246 1.610 . S
N248 C249 1.351 . S
C249 C243 1.428 1_565 S
C249 N248 1.351 . S
C249 C250 1.434 . S
C250 C241 1.429 1_554 S
C250 N247 1.350 . S
C250 C249 1.434 . S
C251 C252 1.369 . S
C251 C253 1.419 . S
C251 H255 0.930 . S
C252 C251 1.369 . S
C252 C261 1.429 . S
C253 C251 1.419 . S
C253 C254 1.363 . S
C253 H256 0.929 . S
C254 C253 1.363 . S
C254 C260 1.428 . S
H255 C251 0.930 . S
H256 C253 0.929 . S
S257 N258 1.613 . S
S257 N259 1.610 . S
N258 S257 1.613 . S
N258 C261 1.350 . S
N259 S257 1.610 . S
N259 C260 1.351 . S
C260 C254 1.428 . S
C260 N259 1.351 . S
C260 C261 1.434 . S
C261 C252 1.429 . S
C261 N258 1.350 . S
C261 C260 1.434 . S
C262 C263 1.369 1_556 S
C262 C264 1.419 1_655 S
C262 H266 0.930 . S
C263 C262 1.369 1_554 S
C263 C272 1.429 1_655 S
C264 C262 1.419 1_455 S
C264 C265 1.363 . S
C264 H267 0.929 . S
C265 C264 1.363 . S
C265 C271 1.428 1_556 S
H266 C262 0.930 . S
H267 C264 0.929 . S
S268 N269 1.613 . S
S268 N270 1.610 . S
N269 S268 1.613 . S
N269 C272 1.350 . S
N270 S268 1.610 . S
N270 C271 1.351 . S
C271 C265 1.428 1_554 S
C271 N270 1.351 . S
C271 C272 1.434 . S
C272 C263 1.429 1_455 S
C272 N269 1.350 . S
C272 C271 1.434 . S
C273 C274 1.369 . S
C273 C275 1.419 1_545 S
C273 H277 0.930 . S
C274 C273 1.369 . S
C274 C283 1.429 . S
C275 C273 1.419 1_565 S
C275 C276 1.363 . S
C275 H278 0.929 . S
C276 C275 1.363 . S
C276 C282 1.428 1_565 S
H277 C273 0.930 . S
H278 C275 0.929 . S
S279 N280 1.613 . S
S279 N281 1.610 . S
N280 S279 1.613 . S
N280 C283 1.350 . S
N281 S279 1.610 . S
N281 C282 1.351 . S
C282 C276 1.428 1_545 S
C282 N281 1.351 . S
C282 C283 1.434 . S
C283 C274 1.429 . S
C283 N280 1.350 . S
C283 C282 1.434 . S
C284 C285 1.369 1_554 S
C284 C286 1.419 . S
C284 H288 0.930 . S
C285 C284 1.369 1_556 S
C285 C294 1.429 . S
C286 C284 1.419 . S
C286 C287 1.363 . S
C286 H289 0.929 . S
C287 C286 1.363 . S
C287 C293 1.428 1_554 S
H288 C284 0.930 . S
H289 C286 0.929 . S
S290 N291 1.613 . S
S290 N292 1.610 . S
N291 S290 1.613 . S
N291 C294 1.350 . S
N292 S290 1.610 . S
N292 C293 1.351 . S
C293 C287 1.428 1_556 S
C293 N292 1.351 . S
C293 C294 1.434 . S
C294 C285 1.429 . S
C294 N291 1.350 . S
C294 C293 1.434 . S
C295 C296 1.369 . S
C295 C297 1.419 1_655 S
C295 H299 0.930 . S
C296 C295 1.369 . S
C296 C305 1.429 . S
C297 C295 1.419 1_455 S
C297 C298 1.363 . S
C297 H300 0.929 . S
C298 C297 1.363 . S
C298 C304 1.428 1_455 S
H299 C295 0.930 . S
H300 C297 0.929 . S
S301 N302 1.613 . S
S301 N303 1.610 . S
N302 S301 1.613 . S
N302 C305 1.350 . S
N303 S301 1.610 . S
N303 C304 1.351 . S
C304 C298 1.428 1_655 S
C304 N303 1.351 . S
C304 C305 1.434 . S
C305 C296 1.429 . S
C305 N302 1.350 . S
C305 C304 1.434 . S
C306 C307 1.369 . S
C306 C308 1.419 . S
C306 H310 0.930 . S
C307 C306 1.369 . S
C307 C316 1.429 . S
C308 C306 1.419 . S
C308 C309 1.363 . S
C308 H311 0.929 . S
C309 C308 1.363 . S
C309 C315 1.428 . S
H310 C306 0.930 . S
H311 C308 0.929 . S
S312 N313 1.613 . S
S312 N314 1.610 . S
N313 S312 1.613 . S
N313 C316 1.350 . S
N314 S312 1.610 . S
N314 C315 1.351 . S
C315 C309 1.428 . S
C315 N314 1.351 . S
C315 C316 1.434 . S
C316 C307 1.429 . S
C316 N313 1.350 . S
C316 C315 1.434 . S
C317 C318 1.369 . S
C317 C319 1.419 . S
C317 H321 0.930 . S
C318 C317 1.369 . S
C318 C327 1.429 . S
C319 C317 1.419 . S
C319 C320 1.363 . S
C319 H322 0.929 . S
C320 C319 1.363 . S
C320 C326 1.428 . S
H321 C317 0.930 . S
H322 C319 0.929 . S
S323 N324 1.613 . S
S323 N325 1.610 . S
N324 S323 1.613 . S
N324 C327 1.350 . S
N325 S323 1.610 . S
N325 C326 1.351 . S
C326 C320 1.428 . S
C326 N325 1.351 . S
C326 C327 1.434 . S
C327 C318 1.429 . S
C327 N324 1.350 . S
C327 C326 1.434 . S
C328 C329 1.369 . S
C328 C330 1.419 . S
C328 H332 0.930 . S
C329 C328 1.369 . S
C329 C338 1.429 . S
C330 C328 1.419 . S
C330 C331 1.363 . S
C330 H333 0.929 . S
C331 C330 1.363 . S
C331 C337 1.428 . S
H332 C328 0.930 . S
H333 C330 0.929 . S
S334 N335 1.613 . S
S334 N336 1.610 . S
N335 S334 1.613 . S
N335 C338 1.350 . S
N336 S334 1.610 . S
N336 C337 1.351 . S
C337 C331 1.428 . S
C337 N336 1.351 . S
C337 C338 1.434 . S
C338 C329 1.429 . S
C338 N335 1.350 . S
C338 C337 1.434 . S
C339 C340 1.369 . S
C339 C341 1.419 . S
C339 H343 0.930 . S
C340 C339 1.369 . S
C340 C349 1.429 . S
C341 C339 1.419 . S
C341 C342 1.363 . S
C341 H344 0.929 . S
C342 C341 1.363 . S
C342 C348 1.428 . S
H343 C339 0.930 . S
H344 C341 0.929 . S
S345 N346 1.613 . S
S345 N347 1.610 . S
N346 S345 1.613 . S
N346 C349 1.350 . S
N347 S345 1.610 . S
N347 C348 1.351 . S
C348 C342 1.428 . S
C348 N347 1.351 . S
C348 C349 1.434 . S
C349 C340 1.429 . S
C349 N346 1.350 . S
C349 C348 1.434 . S
C350 C351 1.369 . S
C350 C352 1.419 . S
C350 H354 0.930 . S
C351 C350 1.369 . S
C351 C360 1.429 . S
C352 C350 1.419 . S
C352 C353 1.363 . S
C352 H355 0.929 . S
C353 C352 1.363 . S
C353 C359 1.428 . S
H354 C350 0.930 . S
H355 C352 0.929 . S
S356 N357 1.613 . S
S356 N358 1.610 . S
N357 S356 1.613 . S
N357 C360 1.350 . S
N358 S356 1.610 . S
N358 C359 1.351 . S
C359 C353 1.428 . S
C359 N358 1.351 . S
C359 C360 1.434 . S
C360 C351 1.429 . S
C360 N357 1.350 . S
C360 C359 1.434 . S
C361 C362 1.369 . S
C361 C363 1.419 . S
C361 H365 0.930 . S
C362 C361 1.369 . S
C362 C371 1.429 . S
C363 C361 1.419 . S
C363 C364 1.363 . S
C363 H366 0.929 . S
C364 C363 1.363 . S
C364 C370 1.428 . S
H365 C361 0.930 . S
H366 C363 0.929 . S
S367 N368 1.613 . S
S367 N369 1.610 . S
N368 S367 1.613 . S
N368 C371 1.350 . S
N369 S367 1.610 . S
N369 C370 1.351 . S
C370 C364 1.428 . S
C370 N369 1.351 . S
C370 C371 1.434 . S
C371 C362 1.429 . S
C371 N368 1.350 . S
C371 C370 1.434 . S
C372 C373 1.369 . S
C372 C374 1.419 . S
C372 H376 0.930 . S
C373 C372 1.369 . S
C373 C382 1.429 . S
C374 C372 1.419 . S
C374 C375 1.363 . S
C374 H377 0.929 . S
C375 C374 1.363 . S
C375 C381 1.428 . S
H376 C372 0.930 . S
H377 C374 0.929 . S
S378 N379 1.613 . S
S378 N380 1.610 . S
N379 S378 1.613 . S
N379 C382 1.350 . S
N380 S378 1.610 . S
N380 C381 1.351 . S
C381 C375 1.428 . S
C381 N380 1.351 . S
C381 C382 1.434 . S
C382 C373 1.429 . S
C382 N379 1.350 . S
C382 C381 1.434 . S
C383 C384 1.369 . S
C383 C385 1.419 . S
C383 H387 0.930 . S
C384 C383 1.369 . S
C384 C393 1.429 . S
C385 C383 1.419 . S
C385 C386 1.363 1_655 S
C385 H388 0.929 1_655 S
C386 C385 1.363 1_455 S
C386 C392 1.428 1_455 S
H387 C383 0.930 . S
H388 C385 0.929 1_455 S
S389 N390 1.613 . S
S389 N391 1.610 . S
N390 S389 1.613 . S
N390 C393 1.350 . S
N391 S389 1.610 . S
N391 C392 1.351 . S
C392 C386 1.428 1_655 S
C392 N391 1.351 . S
C392 C393 1.434 . S
C393 C384 1.429 . S
C393 N390 1.350 . S
C393 C392 1.434 . S
C394 C395 1.369 . S
C394 C396 1.419 . S
C394 H398 0.930 . S
C395 C394 1.369 . S
C395 C404 1.429 . S
C396 C394 1.419 . S
C396 C397 1.363 1_545 S
C396 H399 0.929 . S
C397 C396 1.363 1_565 S
C397 C403 1.428 1_565 S
H398 C394 0.930 . S
H399 C396 0.929 . S
S400 N401 1.613 . S
S400 N402 1.610 . S
N401 S400 1.613 . S
N401 C404 1.350 . S
N402 S400 1.610 . S
N402 C403 1.351 . S
C403 C397 1.428 1_545 S
C403 N402 1.351 . S
C403 C404 1.434 . S
C404 C395 1.429 . S
C404 N401 1.350 . S
C404 C403 1.434 . S
C405 C406 1.369 1_565 S
C405 C407 1.419 . S
C405 H409 0.930 . S
C406 C405 1.369 1_545 S
C406 C415 1.429 . S
C407 C405 1.419 . S
C407 C408 1.363 1_565 S
C407 H410 0.929 . S
C408 C407 1.363 1_545 S
C408 C414 1.428 . S
H409 C405 0.930 . S
H410 C407 0.929 . S
S411 N412 1.613 . S
S411 N413 1.610 . S
N412 S411 1.613 . S
N412 C415 1.350 . S
N413 S411 1.610 . S
N413 C414 1.351 . S
C414 C408 1.428 . S
C414 N413 1.351 . S
C414 C415 1.434 . S
C415 C406 1.429 . S
C415 N412 1.350 . S
C415 C414 1.434 . S
C416 C417 1.369 . S
C416 C418 1.419 . S
C416 H420 0.930 . S
C417 C416 1.369 . S
C417 C426 1.429 . S
C418 C416 1.419 . S
C418 C419 1.363 . S
C418 H421 0.929 . S
C419 C418 1.363 . S
C419 C425 1.428 . S
H420 C416 0.930 . S
H421 C418 0.929 . S
S422 N423 1.613 . S
S422 N424 1.610 . S
N423 S422 1.613 . S
N423 C426 1.350 . S
N424 S422 1.610 . S
N424 C425 1.351 . S
C425 C419 1.428 . S
C425 N424 1.351 . S
C425 C426 1.434 . S
C426 C417 1.429 . S
C426 N423 1.350 . S
C426 C425 1.434 . S
C427 C428 1.369 . S
C427 C429 1.419 . S
C427 H431 0.930 . S
C428 C427 1.369 . S
C428 C437 1.438 . S
C429 C427 1.419 . S
C429 C430 1.363 . S
C429 H432 0.929 . S
C430 C429 1.363 . S
C430 C436 1.428 . S
H431 C427 0.930 . S
H432 C429 0.929 . S
S433 N434 1.613 . S
S433 N435 1.610 1_455 S
N434 S433 1.613 . S
N434 C437 1.347 1_455 S
N435 S433 1.610 1_655 S
N435 C436 1.351 . S
C436 C430 1.428 . S
C436 N435 1.351 . S
C436 C437 1.427 . S
C437 C428 1.438 . S
C437 N434 1.347 1_655 S
C437 C436 1.427 . S
C241 C168 2.253 . S
C243 C18 2.695 . S
C252 C218 2.703 . S
C254 C48 2.242 . S
C263 C98 2.696 . S
C265 C128 2.249 . S
C274 C8 2.240 . S
C276 C178 2.706 . S
C285 C208 2.243 . S
C287 C58 2.698 . S
C296 C88 2.242 . S
C298 C138 2.705 . S
C307 C19 2.080 . S
C309 C95 2.010 . S
C318 C59 2.081 . S
C320 C15 2.007 . S
C329 C99 2.085 . S
C331 C55 2.005 . S
C340 C125 1.926 . S
C342 C169 1.892 . S
C351 C165 1.931 . S
C353 C209 1.888 . S
C362 C129 1.886 . S
C364 C205 1.931 . S
C373 C9 1.292 . S
C375 C85 1.324 . S
C384 C49 1.288 . S
C386 C5 1.323 . S
C395 C89 1.290 . S
C397 C45 1.321 . S
C406 C135 1.403 . S
C408 C179 1.486 1_545 S
C417 C175 1.416 . S
C419 C219 1.479 . S
C428 C139 1.482 1_655 S
C430 C215 1.408 . S
