# Generated by pormake.
# Topology bcg, (8)-cn, num edge types: 1
# Building blocks:
#     Node 0, Type 0, BuildingBlock: EBIMEJ_clean_sbu_0, # of connection points: 8
#     Node 1, Type 0, BuildingBlock: EBIMEJ_clean_sbu_0, # of connection points: 8
#     Node 2, Type 0, BuildingBlock: EBIMEJ_clean_sbu_0, # of connection points: 8
#     Node 3, Type 0, BuildingBlock: EBIMEJ_clean_sbu_0, # of connection points: 8
#     Edge 4, Type (0, 0), BuildingBlock: XIVTED_clean_linker_0, # of connection points: 2
#     Edge 5, Type (0, 0), BuildingBlock: XIVTED_clean_linker_0, # of connection points: 2
#     Edge 6, Type (0, 0), BuildingBlock: XIVTED_clean_linker_0, # of connection points: 2
#     Edge 7, Type (0, 0), BuildingBlock: XIVTED_clean_linker_0, # of connection points: 2
#     Edge 8, Type (0, 0), BuildingBlock: XIVTED_clean_linker_0, # of connection points: 2
#     Edge 9, Type (0, 0), BuildingBlock: XIVTED_clean_linker_0, # of connection points: 2
#     Edge 10, Type (0, 0), BuildingBlock: XIVTED_clean_linker_0, # of connection points: 2
#     Edge 11, Type (0, 0), BuildingBlock: XIVTED_clean_linker_0, # of connection points: 2
#     Edge 12, Type (0, 0), BuildingBlock: XIVTED_clean_linker_0, # of connection points: 2
#     Edge 13, Type (0, 0), BuildingBlock: XIVTED_clean_linker_0, # of connection points: 2
#     Edge 14, Type (0, 0), BuildingBlock: XIVTED_clean_linker_0, # of connection points: 2
#     Edge 15, Type (0, 0), BuildingBlock: XIVTED_clean_linker_0, # of connection points: 2
#     Edge 16, Type (0, 0), BuildingBlock: XIVTED_clean_linker_0, # of connection points: 2
#     Edge 17, Type (0, 0), BuildingBlock: XIVTED_clean_linker_0, # of connection points: 2
#     Edge 18, Type (0, 0), BuildingBlock: XIVTED_clean_linker_0, # of connection points: 2
#     Edge 19, Type (0, 0), BuildingBlock: XIVTED_clean_linker_0, # of connection points: 2
# Relax obj value: 0.041
# Max RMSD: 0.091
# Mean RMSD: 0.091
data_MOF--net-bcg--node1-EBIMEJ_clean_sbu_0--edge1-XIVTED_clean_linker_0
_symmetry_space_group_name_H-M    P1
_symmetry_Int_Tables_number       1
_symmetry_cell_setting            triclinic
loop_
_symmetry_equiv_pos_as_xyz
'x, y, z'
_cell_length_a     17.045815
_cell_length_b     27.909343
_cell_length_c     34.546531
_cell_angle_alpha  81.331647
_cell_angle_beta   90.062448
_cell_angle_gamma 90.062523
loop_
_atom_site_label
_atom_site_type_symbol
_atom_site_fract_x
_atom_site_fract_y
_atom_site_fract_z
_atom_type_partial_charge
Co0 Co 0.15744 0.25092 0.94197 0.0
Co1 Co 0.3149 0.2524 0.99512 0.0
Co2 Co 0.15793 0.26466 0.03134 0.0
H3 H 0.17717 0.26639 0.98646 0.0
O4 O 0.21598 0.28538 0.97923 0.0
H5 H 0.29555 0.24944 0.04036 0.0
O6 O 0.25613 0.2307 0.04694 0.0
Co7 Co 0.31555 0.26169 0.08606 0.0
O8 O 0.42747 0.25152 0.06873 0.0
O9 O 0.41367 0.22014 0.01332 0.0
O10 O 0.22189 0.24708 0.12236 0.0
O11 O 0.11324 0.25232 0.08531 0.0
O12 O 0.06809 0.22772 0.90911 0.0
O13 O 0.15557 0.27259 0.88208 0.0
O14 O 0.31999 0.33127 0.06153 0.0
O15 O 0.35953 0.31768 1.00286 0.0
C16 C 0.01876 0.28885 0.98445 0.0
C17 C 0.32588 0.25835 0.909 0.0
C18 C 0.3731 0.25994 0.15255 0.0
C19 C 0.12744 0.1697 1.00072 0.0
C20 C 0.45584 0.23127 0.04108 0.0
C21 C 0.1475 0.24601 0.11859 0.0
C22 C 0.09407 0.24939 0.8772 0.0
C23 C 0.3512 0.34585 0.02856 0.0
O24 O 0.04664 0.26774 0.95716 0.0
O25 O 0.06019 0.29798 0.01316 0.0
O26 O 0.35944 0.26516 0.94086 0.0
O27 O 0.25243 0.25038 0.90682 0.0
O28 O 0.3255 0.29149 0.13707 0.0
O29 O 0.38719 0.22911 0.13046 0.0
O30 O 0.16625 0.18295 0.96974 0.0
O31 O 0.11045 0.19993 0.0238 0.0
Co32 Co 0.66129 0.75117 0.9401 0.0
Co33 Co 0.81766 0.75402 0.99351 0.0
Co34 Co 0.66086 0.76338 0.0304 0.0
H35 H 0.67981 0.76581 0.98516 0.0
O36 O 0.7177 0.78563 0.97821 0.0
H37 H 0.79905 0.75114 0.03867 0.0
O38 O 0.76092 0.73154 0.04575 0.0
Co39 Co 0.81899 0.76552 0.08358 0.0
O40 O 0.93031 0.75184 0.06739 0.0
O41 O 0.91709 0.72247 1.011 0.0
O42 O 0.72502 0.75892 0.1199 0.0
O43 O 0.61698 0.75009 0.08468 0.0
O44 O 0.65693 0.72914 0.88571 0.0
O45 O 0.58413 0.78429 0.8983 0.0
O46 O 0.81129 0.83426 0.05733 0.0
O47 O 0.8618 0.81948 1.00127 0.0
C48 C 0.52115 0.78612 0.98356 0.0
C49 C 0.82947 0.75599 0.90831 0.0
C50 C 0.88113 0.76719 0.14872 0.0
C51 C 0.62775 0.66854 0.99841 0.0
C52 C 0.95855 0.7318 0.0396 0.0
C53 C 0.65129 0.75232 0.11729 0.0
C54 C 0.60396 0.75861 0.87304 0.0
C55 C 0.84693 0.84863 0.02555 0.0
O56 O 0.54993 0.76609 0.95585 0.0
O57 O 0.56178 0.79494 1.0126 0.0
O58 O 0.86062 0.76769 0.93921 0.0
O59 O 0.75739 0.74412 0.90663 0.0
O60 O 0.90017 0.7945 0.11787 0.0
O61 O 0.82729 0.7385 0.14251 0.0
O62 O 0.66131 0.68222 0.96593 0.0
O63 O 0.61659 0.69779 0.02305 0.0
Co64 Co 0.15949 0.7678 0.58364 0.0
Co65 Co 0.31435 0.76417 0.53026 0.0
Co66 Co 0.15693 0.75374 0.49404 0.0
H67 H 0.1768 0.75204 0.53898 0.0
O68 O 0.21478 0.73239 0.54606 0.0
H69 H 0.29487 0.76715 0.48502 0.0
O70 O 0.25617 0.7864 0.47828 0.0
Co71 Co 0.31431 0.75408 0.43956 0.0
O72 O 0.42652 0.7637 0.45707 0.0
O73 O 0.4139 0.79544 0.51234 0.0
O74 O 0.2212 0.77142 0.40324 0.0
O75 O 0.11215 0.76646 0.44 0.0
O76 O 0.15092 0.79331 0.63649 0.0
O77 O 0.08584 0.73346 0.62642 0.0
O78 O 0.31629 0.68449 0.46436 0.0
O79 O 0.35726 0.69847 0.52273 0.0
C80 C 0.01875 0.73021 0.54178 0.0
C81 C 0.32762 0.76298 0.61546 0.0
C82 C 0.37571 0.75237 0.37437 0.0
C83 C 0.12818 0.84912 0.52472 0.0
C84 C 0.45562 0.78375 0.48472 0.0
C85 C 0.14676 0.77322 0.40683 0.0
C86 C 0.1018 0.76181 0.65034 0.0
C87 C 0.34785 0.67002 0.4973 0.0
O88 O 0.04803 0.75102 0.56901 0.0
O89 O 0.05857 0.72157 0.51245 0.0
O90 O 0.35831 0.75098 0.58455 0.0
O91 O 0.25565 0.775 0.61711 0.0
O92 O 0.41111 0.76319 0.40372 0.0
O93 O 0.30485 0.74275 0.38183 0.0
O94 O 0.16635 0.83593 0.55596 0.0
O95 O 0.11146 0.81894 0.50151 0.0
Co96 Co 0.66171 0.26378 0.58554 0.0
Co97 Co 0.81974 0.26515 0.53099 0.0
Co98 Co 0.66254 0.25439 0.49461 0.0
H99 H 0.6817 0.25133 0.53992 0.0
O100 O 0.72061 0.23222 0.54659 0.0
H101 H 0.8002 0.26676 0.48604 0.0
O102 O 0.76217 0.28632 0.47881 0.0
Co103 Co 0.81834 0.25041 0.44169 0.0
O104 O 0.92938 0.26792 0.45631 0.0
O105 O 0.91811 0.29749 0.51275 0.0
O106 O 0.72263 0.2456 0.40744 0.0
O107 O 0.61872 0.26754 0.44035 0.0
O108 O 0.66565 0.28413 0.64069 0.0
O109 O 0.5751 0.24069 0.62562 0.0
O110 O 0.80805 0.18274 0.47001 0.0
O111 O 0.86571 0.20009 0.52355 0.0
C112 C 0.52131 0.23312 0.54044 0.0
C113 C 0.82985 0.24703 0.6182 0.0
C114 C 0.88125 0.24867 0.37686 0.0
C115 C 0.62612 0.34803 0.52803 0.0
C116 C 0.95838 0.28862 0.48363 0.0
C117 C 0.65022 0.25654 0.4093 0.0
C118 C 0.60353 0.26206 0.65191 0.0
C119 C 0.8475 0.16964 0.50084 0.0
O120 O 0.54981 0.25299 0.56831 0.0
O121 O 0.56315 0.22272 0.51238 0.0
O122 O 0.86439 0.25246 0.58503 0.0
O123 O 0.75553 0.2493 0.62172 0.0
O124 O 0.90481 0.225 0.40853 0.0
O125 O 0.82233 0.27399 0.38201 0.0
O126 O 0.65628 0.33343 0.56127 0.0
O127 O 0.61894 0.31994 0.50217 0.0
H128 H 0.53997 0.19937 0.98255 0.0
H129 H 0.93448 0.32426 0.0413 0.0
H130 H 0.56664 0.26513 0.08742 0.0
H131 H 0.90758 0.25903 0.93618 0.0
H132 H 0.79707 0.30724 0.05661 0.0
H133 H 0.67597 0.21929 0.96587 0.0
C134 C 0.57474 0.2172 1.00246 0.0
C135 C 0.54147 0.23132 0.03612 0.0
C136 C 0.82111 0.29706 0.03001 0.0
C137 C 0.69636 0.2552 0.01667 0.0
C138 C 0.89937 0.30729 0.02098 0.0
C139 C 0.93305 0.2921 0.98783 0.0
C140 C 0.77651 0.27151 1.00573 0.0
C141 C 0.88444 0.27076 0.96238 0.0
C142 C 0.65214 0.22908 0.99265 0.0
C143 C 0.58956 0.25399 0.06095 0.0
N144 N 0.80875 0.26041 0.9722 0.0
N145 N 0.66447 0.26576 0.05045 0.0
H146 H 0.0428 0.69562 0.98321 0.0
H147 H 0.4361 0.82402 0.03874 0.0
H148 H 0.06923 0.76551 0.08601 0.0
H149 H 0.41107 0.75301 0.93647 0.0
H150 H 0.29901 0.80673 0.05448 0.0
H151 H 0.17936 0.71396 0.96673 0.0
C152 C 0.07767 0.71398 1.00275 0.0
C153 C 0.04415 0.72993 0.03562 0.0
C154 C 0.32339 0.79528 0.02842 0.0
C155 C 0.19951 0.75198 0.01639 0.0
C156 C 0.40143 0.80564 0.01914 0.0
C157 C 0.4355 0.78894 0.98673 0.0
C158 C 0.27946 0.76809 1.00511 0.0
C159 C 0.38752 0.76594 0.96209 0.0
C160 C 0.15537 0.72494 0.99304 0.0
C161 C 0.09234 0.75304 0.0601 0.0
N162 N 0.31199 0.7555 0.97215 0.0
N163 N 0.16749 0.764 0.04965 0.0
H164 H 0.56545 0.75176 0.43703 0.0
H165 H 0.90982 0.75743 0.59233 0.0
H166 H 0.54059 0.81165 0.54475 0.0
H167 H 0.93208 0.69486 0.48573 0.0
H168 H 0.77157 0.77245 0.57771 0.0
H169 H 0.70091 0.73155 0.45425 0.0
C170 C 0.58877 0.76151 0.46396 0.0
C171 C 0.54121 0.78286 0.48974 0.0
C172 C 0.80659 0.75496 0.55776 0.0
C173 C 0.69565 0.7588 0.50997 0.0
C174 C 0.88537 0.74586 0.56628 0.0
C175 C 0.93302 0.72598 0.53967 0.0
C176 C 0.77563 0.74403 0.52247 0.0
C177 C 0.89788 0.71115 0.5067 0.0
C178 C 0.66592 0.74938 0.474 0.0
C179 C 0.57488 0.79483 0.52413 0.0
N180 N 0.82139 0.72121 0.49869 0.0
N181 N 0.65 0.78217 0.53344 0.0
H182 H 0.06766 0.2622 0.4329 0.0
H183 H 0.41042 0.25947 0.59031 0.0
H184 H 0.04481 0.31998 0.54168 0.0
H185 H 0.43709 0.20692 0.47953 0.0
H186 H 0.27404 0.2786 0.57399 0.0
H187 H 0.20498 0.24471 0.44816 0.0
C188 C 0.09183 0.27223 0.45958 0.0
C189 C 0.04421 0.29164 0.48647 0.0
C190 C 0.30966 0.26259 0.55338 0.0
C191 C 0.20056 0.27068 0.50442 0.0
C192 C 0.38731 0.2511 0.56287 0.0
C193 C 0.43565 0.23241 0.53591 0.0
C194 C 0.28036 0.25524 0.51676 0.0
C195 C 0.40225 0.22186 0.50101 0.0
C196 C 0.17005 0.26167 0.46848 0.0
C197 C 0.07899 0.30431 0.52035 0.0
N198 N 0.32673 0.23401 0.49221 0.0
N199 N 0.15495 0.29291 0.52865 0.0
H200 H 0.54158 0.62569 0.06178 0.0
H201 H 0.43614 0.38933 0.96501 0.0
H202 H 0.62934 0.59958 0.94961 0.0
H203 H 0.35166 0.41395 0.07817 0.0
H204 H 0.50561 0.46689 0.9584 0.0
H205 H 0.47245 0.54795 0.06862 0.0
C206 C 0.54701 0.60351 0.03875 0.0
C207 C 0.59165 0.61941 1.0051 0.0
C208 C 0.47158 0.45539 0.98461 0.0
C209 C 0.51155 0.53044 1.01251 0.0
C210 C 0.43146 0.41116 0.9883 0.0
C211 C 0.3876 0.3949 0.02215 0.0
C212 C 0.4681 0.48371 0.01497 0.0
C213 C 0.3844 0.42485 0.05145 0.0
C214 C 0.50713 0.55917 0.04258 0.0
C215 C 0.59596 0.58899 0.97616 0.0
N216 N 0.42418 0.46758 0.04723 0.0
N217 N 0.55628 0.54623 0.98048 0.0
H218 H 0.53989 0.39064 0.46455 0.0
H219 H 0.4344 0.62736 0.56055 0.0
H220 H 0.62651 0.41687 0.577 0.0
H221 H 0.34598 0.6009 0.4485 0.0
H222 H 0.50395 0.54993 0.56738 0.0
H223 H 0.46985 0.46797 0.45769 0.0
C224 C 0.54497 0.41279 0.48762 0.0
C225 C 0.58957 0.39703 0.52136 0.0
C226 C 0.469 0.56096 0.54138 0.0
C227 C 0.50839 0.48558 0.5139 0.0
C228 C 0.42882 0.60513 0.53756 0.0
C229 C 0.3839 0.62088 0.50393 0.0
C230 C 0.46457 0.53216 0.51135 0.0
C231 C 0.37961 0.59042 0.47501 0.0
C232 C 0.5045 0.45689 0.48378 0.0
C233 C 0.59317 0.42735 0.55039 0.0
N234 N 0.41954 0.54776 0.47934 0.0
N235 N 0.55306 0.46993 0.54603 0.0
H236 H 0.1506 0.09643 0.95727 0.0
H237 H 0.82481 0.92106 0.07003 0.0
H238 H 0.01883 0.13142 0.05594 0.0
H239 H 0.95215 0.88839 0.96925 0.0
H240 H 0.89439 0.99821 0.0651 0.0
H241 H 0.08027 0.01962 0.96212 0.0
C242 C 0.10738 0.08786 0.98024 0.0
C243 C 0.09087 0.12069 1.00628 0.0
C244 C 0.90686 0.97433 0.04392 0.0
C245 C 0.00907 0.03246 1.01166 0.0
C246 C 0.86683 0.93023 0.04658 0.0
C247 C 0.88237 0.89795 0.01996 0.0
C248 C 0.96335 0.98647 0.01452 0.0
C249 C 0.93777 0.91206 0.99032 0.0
C250 C 0.06689 0.04395 0.98284 0.0
C251 C 0.03394 0.10732 0.03531 0.0
N252 N 0.97642 0.95508 0.98853 0.0
N253 N -0.00502 0.06438 0.03712 0.0
H254 H 0.81666 0.09414 0.46063 0.0
H255 H 0.15935 0.92481 0.56461 0.0
H256 H 0.96328 0.13366 0.5528 0.0
H257 H 0.01306 0.88519 0.47236 0.0
H258 H 0.08967 1.00182 0.55991 0.0
H259 H 0.88674 0.01726 0.46504 0.0
C260 C 0.86314 0.08654 0.48208 0.0
C261 C 0.88385 0.12063 0.50644 0.0
C262 C 0.07296 0.97642 0.54056 0.0
C263 C 0.96538 0.03246 0.51123 0.0
C264 C 0.11302 0.93241 0.54308 0.0
C265 C 0.09224 0.89824 0.51882 0.0
C266 C 0.01114 0.98658 0.51369 0.0
C267 C 0.03157 0.91038 0.49153 0.0
C268 C 0.90343 0.04261 0.48443 0.0
C269 C 0.94478 0.10853 0.53358 0.0
N270 N -0.00701 0.95337 0.48986 0.0
N271 N 0.98353 0.06562 0.5351 0.0
H272 H 0.68058 0.20437 0.35092 0.0
H273 H 0.34449 0.32127 0.20605 0.0
H274 H 0.51199 0.30481 0.38601 0.0
H275 H 0.47968 0.19565 0.18883 0.0
H276 H 0.40583 0.31909 0.27074 0.0
H277 H 0.60872 0.20381 0.29037 0.0
C278 C 0.62819 0.2264 0.3459 0.0
C279 C 0.60258 0.25494 0.37359 0.0
C280 C 0.42156 0.29187 0.25287 0.0
C281 C 0.51963 0.25464 0.30357 0.0
C282 C 0.38685 0.29316 0.21595 0.0
C283 C 0.40742 0.2587 0.19201 0.0
C284 C 0.47757 0.25607 0.26567 0.0
C285 C 0.46236 0.22304 0.20623 0.0
C286 C 0.58692 0.2259 0.31124 0.0
C287 C 0.53372 0.28225 0.36549 0.0
N288 N 0.49573 0.22283 0.24196 0.0
N289 N 0.4949 0.28181 0.33095 0.0
H290 H 0.49059 0.73984 0.1292 0.0
H291 H 0.53003 0.7649 0.35685 0.0
H292 H 0.7074 0.7584 0.19019 0.0
H293 H 0.30743 0.73742 0.30483 0.0
H294 H 0.59362 0.76306 0.2942 0.0
H295 H 0.41966 0.7387 0.19151 0.0
C296 C 0.52336 0.74333 0.15551 0.0
C297 C 0.60538 0.74903 0.15422 0.0
C298 C 0.53083 0.75735 0.29623 0.0
C299 C 0.52479 0.74808 0.22523 0.0
C300 C 0.49449 0.75849 0.33212 0.0
C301 C 0.41346 0.75125 0.33604 0.0
C302 C 0.48602 0.74907 0.26367 0.0
C303 C 0.37026 0.74302 0.30296 0.0
C304 C 0.48284 0.74276 0.19101 0.0
C305 C 0.64451 0.75363 0.18932 0.0
N306 N 0.40708 0.74222 0.26802 0.0
N307 N 0.60401 0.75315 0.22304 0.0
H308 H 0.47454 0.72317 0.63414 0.0
H309 H 0.47845 0.81308 0.84439 0.0
H310 H 0.28979 0.80521 0.679 0.0
H311 H 0.64791 0.71136 0.81232 0.0
H312 H 0.41649 0.81606 0.78039 0.0
H313 H 0.54693 0.72355 0.69588 0.0
C314 C 0.44935 0.74139 0.65675 0.0
C315 C 0.37555 0.76384 0.65135 0.0
C316 C 0.46736 0.79312 0.78717 0.0
C317 C 0.45794 0.76461 0.72171 0.0
C318 C 0.50284 0.79154 0.82374 0.0
C319 C 0.56817 0.76184 0.8337 0.0
C320 C 0.49743 0.76491 0.76012 0.0
C321 C 0.59731 0.7346 0.80579 0.0
C322 C 0.49055 0.74147 0.69198 0.0
C323 C 0.34591 0.78692 0.68173 0.0
N324 N 0.56168 0.73671 0.77023 0.0
N325 N 0.38702 0.78665 0.71536 0.0
H326 H 0.277 0.22656 0.84244 0.0
H327 H 0.66259 0.29921 0.71539 0.0
H328 H 0.47933 0.28884 0.89165 0.0
H329 H 0.46399 0.22223 0.67758 0.0
H330 H 0.59962 0.29761 0.7797 0.0
H331 H 0.34718 0.22678 0.78189 0.0
C332 C 0.33639 0.24056 0.8406 0.0
C333 C 0.37182 0.25818 0.87242 0.0
C334 C 0.5701 0.281 0.75732 0.0
C335 C 0.45375 0.25822 0.802 0.0
C336 C 0.60582 0.28199 0.72065 0.0
C337 C 0.56818 0.26096 0.69111 0.0
C338 C 0.49618 0.25905 0.76425 0.0
C339 C 0.49508 0.23891 0.69944 0.0
C340 C 0.37677 0.24045 0.80575 0.0
C341 C 0.44954 0.27507 0.86791 0.0
N342 N 0.46155 0.23871 0.73507 0.0
N343 N 0.48791 0.27492 0.8332 0.0
H344 H 0.1929 0.81733 0.33475 0.0
H345 H 0.83546 0.71853 0.22016 0.0
H346 H -0.00431 0.74302 0.39492 0.0
H347 H 0.00452 0.82259 0.16592 0.0
H348 H 0.89339 0.72477 0.28431 0.0
H349 H 0.12444 0.81848 0.27274 0.0
C350 C 0.13464 0.80173 0.33497 0.0
C351 C 0.10006 0.78 0.37016 0.0
C352 C 0.91751 0.74638 0.25838 0.0
C353 C 0.0215 0.78044 0.29877 0.0
C354 C 0.88474 0.74268 0.22176 0.0
C355 C 0.91546 0.77 0.18767 0.0
C356 C 0.98198 0.77723 0.26081 0.0
C357 C 0.97914 0.8008 0.19143 0.0
C358 C 0.09555 0.80235 0.29946 0.0
C359 C 0.02435 0.76041 0.36854 0.0
N360 N 0.01048 0.80336 0.22725 0.0
N361 N 0.98793 0.76056 0.33334 0.0
H362 H 0.01153 0.19817 0.362 0.0
H363 H -0.00555 0.27364 0.12865 0.0
H364 H 0.83202 0.29172 0.30414 0.0
H365 H 0.19388 0.2062 0.19194 0.0
H366 H 0.9251 0.27219 0.19118 0.0
H367 H 0.07064 0.19289 0.29846 0.0
C368 C 0.9846 0.21767 0.33586 0.0
C369 C 0.91714 0.24569 0.33834 0.0
C370 C 0.98379 0.25737 0.19123 0.0
C371 C 0.98436 0.23968 0.26528 0.0
C372 C 0.02315 0.25783 0.15556 0.0
C373 C 0.10022 0.24012 0.15503 0.0
C374 C 0.02152 0.23857 0.22648 0.0
C375 C 0.13477 0.22052 0.19086 0.0
C376 C 0.01835 0.21464 0.29955 0.0
C377 C 0.88441 0.26996 0.30348 0.0
N378 N 0.09532 0.22036 0.22498 0.0
N379 N 0.91838 0.26645 0.26833 0.0
H380 H 0.95621 0.20612 0.8627 0.0
H381 H 0.98562 0.26941 0.62869 0.0
H382 H 0.15072 0.28525 0.8042 0.0
H383 H 0.7795 0.21149 0.69174 0.0
H384 H 0.0543 0.26767 0.69152 0.0
H385 H 0.89716 0.20073 0.79912 0.0
C386 C 0.98647 0.22239 0.8364 0.0
C387 C 0.05812 0.24642 0.83869 0.0
C388 C -0.00577 0.25502 0.69144 0.0
C389 C -0.00893 0.24023 0.76558 0.0
C390 C 0.95522 0.25567 0.65561 0.0
C391 C 0.87653 0.24077 0.65489 0.0
C392 C 0.95438 0.23898 0.72667 0.0
C393 C 0.8399 0.22367 0.69074 0.0
C394 C 0.95279 0.2193 0.80006 0.0
C395 C 0.095 0.26669 0.80366 0.0
N396 N 0.87896 0.2234 0.725 0.0
N397 N 0.06102 0.26318 0.76848 0.0
H398 H 0.98501 0.70157 0.68164 0.0
H399 H 0.97156 0.801 0.8878 0.0
H400 H 0.13863 0.81505 0.70845 0.0
H401 H 0.79583 0.70886 0.84694 0.0
H402 H 0.04317 0.80121 0.82588 0.0
H403 H 0.92441 0.69816 0.74593 0.0
C404 C 0.00616 0.72566 0.70118 0.0
C405 C 0.06661 0.75875 0.68969 0.0
C406 C -0.01103 0.78093 0.83069 0.0
C407 C -0.0025 0.75516 0.76353 0.0
C408 C 0.94831 0.78065 0.86603 0.0
C409 C 0.87717 0.75524 0.8725 0.0
C410 C 0.95861 0.75512 0.80201 0.0
C411 C 0.84977 0.72951 0.84321 0.0
C412 C 0.97147 0.72381 0.7379 0.0
C413 C 0.0918 0.78915 0.71619 0.0
N414 N 0.89039 0.73016 0.80945 0.0
N415 N 0.05706 0.7867 0.75193 0.0
loop_
_geom_bond_atom_site_label_1
_geom_bond_atom_site_label_2
_geom_bond_distance
_geom_bond_site_symmetry_2
_ccdc_geom_bond_type
Co0 H3 2.400 . S
Co0 O4 2.009 . S
Co0 O12 2.115 . S
Co0 O13 2.315 . S
Co0 O24 2.053 . S
Co0 O27 2.094 . S
Co0 O30 2.122 . S
Co1 O4 2.126 . S
Co1 H5 2.388 1_556 S
Co1 O6 2.053 1_556 S
Co1 O9 2.047 . S
Co1 O15 2.113 . S
Co1 O26 2.063 . S
Co2 H3 2.388 1_554 S
Co2 O4 2.053 1_554 S
Co2 O6 2.126 . S
Co2 O11 2.063 . S
Co2 O25 2.047 . S
Co2 O31 2.113 . S
H3 Co0 2.400 . S
H3 Co2 2.388 1_556 S
H3 O4 0.760 . S
O4 Co0 2.009 . S
O4 Co1 2.126 . S
O4 Co2 2.053 1_556 S
O4 H3 0.760 . S
H5 Co1 2.388 1_554 S
H5 O6 0.760 . S
H5 Co7 2.400 . S
O6 Co1 2.053 1_554 S
O6 Co2 2.126 . S
O6 H5 0.760 . S
O6 Co7 2.009 . S
Co7 H5 2.400 . S
Co7 O6 2.009 . S
Co7 O8 2.053 . S
Co7 O10 2.094 . S
Co7 O14 2.122 . S
Co7 O28 2.115 . S
Co7 O29 2.315 . S
O8 Co7 2.053 . S
O8 C20 1.259 . S
O9 Co1 2.047 . S
O9 C20 1.257 1_556 S
O10 Co7 2.094 . S
O10 C21 1.253 . S
O11 Co2 2.063 . S
O11 C21 1.268 . S
O12 Co0 2.115 . S
O12 C22 1.281 . S
O13 Co0 2.315 . S
O13 C22 1.252 . S
O14 Co7 2.122 . S
O14 C23 1.272 . S
O15 Co1 2.113 . S
O15 C23 1.245 1_556 S
C16 O24 1.259 . S
C16 O25 1.257 1_556 S
C17 O26 1.268 . S
C17 O27 1.253 . S
C18 O28 1.281 . S
C18 O29 1.252 . S
C19 O30 1.272 . S
C19 O31 1.245 1_556 S
C20 O8 1.259 . S
C20 O9 1.257 1_554 S
C21 O10 1.253 . S
C21 O11 1.268 . S
C22 O12 1.281 . S
C22 O13 1.252 . S
C23 O14 1.272 . S
C23 O15 1.245 1_554 S
O24 Co0 2.053 . S
O24 C16 1.259 . S
O25 Co2 2.047 . S
O25 C16 1.257 1_554 S
O26 Co1 2.063 . S
O26 C17 1.268 . S
O27 Co0 2.094 . S
O27 C17 1.253 . S
O28 Co7 2.115 . S
O28 C18 1.281 . S
O29 Co7 2.315 . S
O29 C18 1.252 . S
O30 Co0 2.122 . S
O30 C19 1.272 . S
O31 Co2 2.113 . S
O31 C19 1.245 1_554 S
Co32 H35 2.400 . S
Co32 O36 2.009 . S
Co32 O44 2.115 . S
Co32 O45 2.315 . S
Co32 O56 2.053 . S
Co32 O59 2.094 . S
Co32 O62 2.122 . S
Co33 O36 2.126 . S
Co33 H37 2.388 1_556 S
Co33 O38 2.053 1_556 S
Co33 O41 2.047 . S
Co33 O47 2.113 . S
Co33 O58 2.063 . S
Co34 H35 2.388 1_554 S
Co34 O36 2.053 1_554 S
Co34 O38 2.126 . S
Co34 O43 2.063 . S
Co34 O57 2.047 . S
Co34 O63 2.113 . S
H35 Co32 2.400 . S
H35 Co34 2.388 1_556 S
H35 O36 0.760 . S
O36 Co32 2.009 . S
O36 Co33 2.126 . S
O36 Co34 2.053 1_556 S
O36 H35 0.760 . S
H37 Co33 2.388 1_554 S
H37 O38 0.760 . S
H37 Co39 2.400 . S
O38 Co33 2.053 1_554 S
O38 Co34 2.126 . S
O38 H37 0.760 . S
O38 Co39 2.009 . S
Co39 H37 2.400 . S
Co39 O38 2.009 . S
Co39 O40 2.053 . S
Co39 O42 2.094 . S
Co39 O46 2.122 . S
Co39 O60 2.115 . S
Co39 O61 2.315 . S
O40 Co39 2.053 . S
O40 C52 1.259 . S
O41 Co33 2.047 . S
O41 C52 1.257 1_556 S
O42 Co39 2.094 . S
O42 C53 1.253 . S
O43 Co34 2.063 . S
O43 C53 1.268 . S
O44 Co32 2.115 . S
O44 C54 1.281 . S
O45 Co32 2.315 . S
O45 C54 1.252 . S
O46 Co39 2.122 . S
O46 C55 1.272 . S
O47 Co33 2.113 . S
O47 C55 1.245 1_556 S
C48 O56 1.259 . S
C48 O57 1.257 1_556 S
C49 O58 1.268 . S
C49 O59 1.253 . S
C50 O60 1.281 . S
C50 O61 1.252 . S
C51 O62 1.272 . S
C51 O63 1.245 1_556 S
C52 O40 1.259 . S
C52 O41 1.257 1_554 S
C53 O42 1.253 . S
C53 O43 1.268 . S
C54 O44 1.281 . S
C54 O45 1.252 . S
C55 O46 1.272 . S
C55 O47 1.245 1_554 S
O56 Co32 2.053 . S
O56 C48 1.259 . S
O57 Co34 2.047 . S
O57 C48 1.257 1_554 S
O58 Co33 2.063 . S
O58 C49 1.268 . S
O59 Co32 2.094 . S
O59 C49 1.253 . S
O60 Co39 2.115 . S
O60 C50 1.281 . S
O61 Co39 2.315 . S
O61 C50 1.252 . S
O62 Co32 2.122 . S
O62 C51 1.272 . S
O63 Co34 2.113 . S
O63 C51 1.245 1_554 S
Co64 H67 2.400 . S
Co64 O68 2.009 . S
Co64 O76 2.115 . S
Co64 O77 2.315 . S
Co64 O88 2.053 . S
Co64 O91 2.094 . S
Co64 O94 2.122 . S
Co65 O68 2.126 . S
Co65 H69 2.388 . S
Co65 O70 2.053 . S
Co65 O73 2.047 . S
Co65 O79 2.113 . S
Co65 O90 2.063 . S
Co66 H67 2.388 . S
Co66 O68 2.053 . S
Co66 O70 2.126 . S
Co66 O75 2.063 . S
Co66 O89 2.047 . S
Co66 O95 2.113 . S
H67 Co64 2.400 . S
H67 Co66 2.388 . S
H67 O68 0.760 . S
O68 Co64 2.009 . S
O68 Co65 2.126 . S
O68 Co66 2.053 . S
O68 H67 0.760 . S
H69 Co65 2.388 . S
H69 O70 0.760 . S
H69 Co71 2.400 . S
O70 Co65 2.053 . S
O70 Co66 2.126 . S
O70 H69 0.760 . S
O70 Co71 2.009 . S
Co71 H69 2.400 . S
Co71 O70 2.009 . S
Co71 O72 2.053 . S
Co71 O74 2.094 . S
Co71 O78 2.122 . S
Co71 O92 2.115 . S
Co71 O93 2.315 . S
O72 Co71 2.053 . S
O72 C84 1.259 . S
O73 Co65 2.047 . S
O73 C84 1.257 . S
O74 Co71 2.094 . S
O74 C85 1.253 . S
O75 Co66 2.063 . S
O75 C85 1.268 . S
O76 Co64 2.115 . S
O76 C86 1.281 . S
O77 Co64 2.315 . S
O77 C86 1.252 . S
O78 Co71 2.122 . S
O78 C87 1.272 . S
O79 Co65 2.113 . S
O79 C87 1.245 . S
C80 O88 1.259 . S
C80 O89 1.257 . S
C81 O90 1.268 . S
C81 O91 1.253 . S
C82 O92 1.281 . S
C82 O93 1.252 . S
C83 O94 1.272 . S
C83 O95 1.245 . S
C84 O72 1.259 . S
C84 O73 1.257 . S
C85 O74 1.253 . S
C85 O75 1.268 . S
C86 O76 1.281 . S
C86 O77 1.252 . S
C87 O78 1.272 . S
C87 O79 1.245 . S
O88 Co64 2.053 . S
O88 C80 1.259 . S
O89 Co66 2.047 . S
O89 C80 1.257 . S
O90 Co65 2.063 . S
O90 C81 1.268 . S
O91 Co64 2.094 . S
O91 C81 1.253 . S
O92 Co71 2.115 . S
O92 C82 1.281 . S
O93 Co71 2.315 . S
O93 C82 1.252 . S
O94 Co64 2.122 . S
O94 C83 1.272 . S
O95 Co66 2.113 . S
O95 C83 1.245 . S
Co96 H99 2.400 . S
Co96 O100 2.009 . S
Co96 O108 2.115 . S
Co96 O109 2.315 . S
Co96 O120 2.053 . S
Co96 O123 2.094 . S
Co96 O126 2.122 . S
Co97 O100 2.126 . S
Co97 H101 2.388 . S
Co97 O102 2.053 . S
Co97 O105 2.047 . S
Co97 O111 2.113 . S
Co97 O122 2.063 . S
Co98 H99 2.388 . S
Co98 O100 2.053 . S
Co98 O102 2.126 . S
Co98 O107 2.063 . S
Co98 O121 2.047 . S
Co98 O127 2.113 . S
H99 Co96 2.400 . S
H99 Co98 2.388 . S
H99 O100 0.760 . S
O100 Co96 2.009 . S
O100 Co97 2.126 . S
O100 Co98 2.053 . S
O100 H99 0.760 . S
H101 Co97 2.388 . S
H101 O102 0.760 . S
H101 Co103 2.400 . S
O102 Co97 2.053 . S
O102 Co98 2.126 . S
O102 H101 0.760 . S
O102 Co103 2.009 . S
Co103 H101 2.400 . S
Co103 O102 2.009 . S
Co103 O104 2.053 . S
Co103 O106 2.094 . S
Co103 O110 2.122 . S
Co103 O124 2.115 . S
Co103 O125 2.315 . S
O104 Co103 2.053 . S
O104 C116 1.259 . S
O105 Co97 2.047 . S
O105 C116 1.257 . S
O106 Co103 2.094 . S
O106 C117 1.253 . S
O107 Co98 2.063 . S
O107 C117 1.268 . S
O108 Co96 2.115 . S
O108 C118 1.281 . S
O109 Co96 2.315 . S
O109 C118 1.252 . S
O110 Co103 2.122 . S
O110 C119 1.272 . S
O111 Co97 2.113 . S
O111 C119 1.245 . S
C112 O120 1.259 . S
C112 O121 1.257 . S
C113 O122 1.268 . S
C113 O123 1.253 . S
C114 O124 1.281 . S
C114 O125 1.252 . S
C115 O126 1.272 . S
C115 O127 1.245 . S
C116 O104 1.259 . S
C116 O105 1.257 . S
C117 O106 1.253 . S
C117 O107 1.268 . S
C118 O108 1.281 . S
C118 O109 1.252 . S
C119 O110 1.272 . S
C119 O111 1.245 . S
O120 Co96 2.053 . S
O120 C112 1.259 . S
O121 Co98 2.047 . S
O121 C112 1.257 . S
O122 Co97 2.063 . S
O122 C113 1.268 . S
O123 Co96 2.094 . S
O123 C113 1.253 . S
O124 Co103 2.115 . S
O124 C114 1.281 . S
O125 Co103 2.315 . S
O125 C114 1.252 . S
O126 Co96 2.122 . S
O126 C115 1.272 . S
O127 Co98 2.113 . S
O127 C115 1.245 . S
H128 C134 0.930 . S
H129 C138 0.930 . S
H130 C143 0.929 . S
H131 C141 0.929 . S
H132 C136 0.929 . S
H133 C142 0.929 . S
C134 H128 0.930 . S
C134 C135 1.367 1_556 S
C134 C142 1.378 . S
C135 C134 1.367 1_554 S
C135 C143 1.433 . S
C136 H132 0.929 . S
C136 C138 1.378 . S
C136 C140 1.350 1_554 S
C137 C140 1.463 1_554 S
C137 C142 1.350 1_554 S
C137 N145 1.427 . S
C138 H129 0.930 . S
C138 C136 1.378 . S
C138 C139 1.367 1_554 S
C139 C138 1.367 1_556 S
C139 C141 1.433 . S
C140 C136 1.350 1_556 S
C140 C137 1.463 1_556 S
C140 N144 1.427 . S
C141 H131 0.929 . S
C141 C139 1.433 . S
C141 N144 1.384 . S
C142 H133 0.929 . S
C142 C134 1.378 . S
C142 C137 1.350 1_556 S
C143 H130 0.929 . S
C143 C135 1.433 . S
C143 N145 1.384 . S
N144 C140 1.427 . S
N144 C141 1.384 . S
N145 C137 1.427 . S
N145 C143 1.384 . S
H146 C152 0.930 . S
H147 C156 0.930 . S
H148 C161 0.929 . S
H149 C159 0.929 . S
H150 C154 0.929 . S
H151 C160 0.929 . S
C152 H146 0.930 . S
C152 C153 1.367 1_556 S
C152 C160 1.378 . S
C153 C152 1.367 1_554 S
C153 C161 1.433 . S
C154 H150 0.929 . S
C154 C156 1.378 . S
C154 C158 1.350 1_554 S
C155 C158 1.463 1_554 S
C155 C160 1.350 1_554 S
C155 N163 1.427 . S
C156 H147 0.930 . S
C156 C154 1.378 . S
C156 C157 1.367 1_554 S
C157 C156 1.367 1_556 S
C157 C159 1.433 . S
C158 C154 1.350 1_556 S
C158 C155 1.463 1_556 S
C158 N162 1.427 . S
C159 H149 0.929 . S
C159 C157 1.433 . S
C159 N162 1.384 . S
C160 H151 0.929 . S
C160 C152 1.378 . S
C160 C155 1.350 1_556 S
C161 H148 0.929 . S
C161 C153 1.433 . S
C161 N163 1.384 . S
N162 C158 1.427 . S
N162 C159 1.384 . S
N163 C155 1.427 . S
N163 C161 1.384 . S
H164 C170 0.930 . S
H165 C174 0.930 . S
H166 C179 0.929 . S
H167 C177 0.929 . S
H168 C172 0.929 . S
H169 C178 0.929 . S
C170 H164 0.930 . S
C170 C171 1.367 . S
C170 C178 1.378 . S
C171 C170 1.367 . S
C171 C179 1.433 . S
C172 H168 0.929 . S
C172 C174 1.378 . S
C172 C176 1.350 . S
C173 C176 1.463 . S
C173 C178 1.350 . S
C173 N181 1.427 . S
C174 H165 0.930 . S
C174 C172 1.378 . S
C174 C175 1.367 . S
C175 C174 1.367 . S
C175 C177 1.433 . S
C176 C172 1.350 . S
C176 C173 1.463 . S
C176 N180 1.427 . S
C177 H167 0.929 . S
C177 C175 1.433 . S
C177 N180 1.384 . S
C178 H169 0.929 . S
C178 C170 1.378 . S
C178 C173 1.350 . S
C179 H166 0.929 . S
C179 C171 1.433 . S
C179 N181 1.384 . S
N180 C176 1.427 . S
N180 C177 1.384 . S
N181 C173 1.427 . S
N181 C179 1.384 . S
H182 C188 0.930 . S
H183 C192 0.930 . S
H184 C197 0.929 . S
H185 C195 0.929 . S
H186 C190 0.929 . S
H187 C196 0.929 . S
C188 H182 0.930 . S
C188 C189 1.367 . S
C188 C196 1.378 . S
C189 C188 1.367 . S
C189 C197 1.433 . S
C190 H186 0.929 . S
C190 C192 1.378 . S
C190 C194 1.350 . S
C191 C194 1.463 . S
C191 C196 1.350 . S
C191 N199 1.427 . S
C192 H183 0.930 . S
C192 C190 1.378 . S
C192 C193 1.367 . S
C193 C192 1.367 . S
C193 C195 1.433 . S
C194 C190 1.350 . S
C194 C191 1.463 . S
C194 N198 1.427 . S
C195 H185 0.929 . S
C195 C193 1.433 . S
C195 N198 1.384 . S
C196 H187 0.929 . S
C196 C188 1.378 . S
C196 C191 1.350 . S
C197 H184 0.929 . S
C197 C189 1.433 . S
C197 N199 1.384 . S
N198 C194 1.427 . S
N198 C195 1.384 . S
N199 C191 1.427 . S
N199 C197 1.384 . S
H200 C206 0.930 . S
H201 C210 0.930 . S
H202 C215 0.929 . S
H203 C213 0.929 . S
H204 C208 0.929 . S
H205 C214 0.929 . S
C206 H200 0.930 . S
C206 C207 1.367 . S
C206 C214 1.378 . S
C207 C206 1.367 . S
C207 C215 1.433 1_554 S
C208 H204 0.929 . S
C208 C210 1.378 . S
C208 C212 1.350 . S
C209 C212 1.463 1_554 S
C209 C214 1.350 . S
C209 N217 1.427 1_554 S
C210 H201 0.930 . S
C210 C208 1.378 . S
C210 C211 1.367 . S
C211 C210 1.367 . S
C211 C213 1.433 1_556 S
C212 C208 1.350 . S
C212 C209 1.463 1_556 S
C212 N216 1.427 1_556 S
C213 H203 0.929 . S
C213 C211 1.433 1_554 S
C213 N216 1.384 . S
C214 H205 0.929 . S
C214 C206 1.378 . S
C214 C209 1.350 . S
C215 H202 0.929 . S
C215 C207 1.433 1_556 S
C215 N217 1.384 . S
N216 C212 1.427 1_554 S
N216 C213 1.384 . S
N217 C209 1.427 1_556 S
N217 C215 1.384 . S
H218 C224 0.930 . S
H219 C228 0.930 . S
H220 C233 0.929 . S
H221 C231 0.929 . S
H222 C226 0.929 . S
H223 C232 0.929 . S
C224 H218 0.930 . S
C224 C225 1.367 . S
C224 C232 1.378 . S
C225 C224 1.367 . S
C225 C233 1.433 . S
C226 H222 0.929 . S
C226 C228 1.378 . S
C226 C230 1.350 . S
C227 C230 1.463 . S
C227 C232 1.350 . S
C227 N235 1.427 . S
C228 H219 0.930 . S
C228 C226 1.378 . S
C228 C229 1.367 . S
C229 C228 1.367 . S
C229 C231 1.433 . S
C230 C226 1.350 . S
C230 C227 1.463 . S
C230 N234 1.427 . S
C231 H221 0.929 . S
C231 C229 1.433 . S
C231 N234 1.384 . S
C232 H223 0.929 . S
C232 C224 1.378 . S
C232 C227 1.350 . S
C233 H220 0.929 . S
C233 C225 1.433 . S
C233 N235 1.384 . S
N234 C230 1.427 . S
N234 C231 1.384 . S
N235 C227 1.427 . S
N235 C233 1.384 . S
H236 C242 0.930 . S
H237 C246 0.930 . S
H238 C251 0.929 . S
H239 C249 0.929 . S
H240 C244 0.929 1_545 S
H241 C250 0.929 1_565 S
C242 H236 0.930 . S
C242 C243 1.367 1_556 S
C242 C250 1.378 . S
C243 C242 1.367 1_554 S
C243 C251 1.433 . S
C244 H240 0.929 1_565 S
C244 C246 1.378 . S
C244 C248 1.351 . S
C245 C248 1.463 1_446 S
C245 C250 1.349 . S
C245 N253 1.429 1_456 S
C246 H237 0.930 . S
C246 C244 1.378 . S
C246 C247 1.367 1_554 S
C247 C246 1.367 1_556 S
C247 C249 1.433 . S
C248 C244 1.351 . S
C248 C245 1.463 1_664 S
C248 N252 1.425 1_654 S
C249 H239 0.929 . S
C249 C247 1.433 . S
C249 N252 1.384 1_655 S
C250 H241 0.929 1_545 S
C250 C242 1.378 . S
C250 C245 1.349 . S
C251 H238 0.929 . S
C251 C243 1.433 . S
C251 N253 1.384 1_455 S
N252 C248 1.425 1_456 S
N252 C249 1.384 1_455 S
N253 C245 1.429 1_654 S
N253 C251 1.384 1_655 S
H254 C260 0.930 . S
H255 C264 0.930 . S
H256 C269 0.929 . S
H257 C267 0.929 . S
H258 C262 0.929 1_545 S
H259 C268 0.929 1_565 S
C260 H254 0.930 . S
C260 C261 1.367 . S
C260 C268 1.378 . S
C261 C260 1.367 . S
C261 C269 1.433 . S
C262 H258 0.929 1_565 S
C262 C264 1.378 . S
C262 C266 1.350 . S
C263 C266 1.463 1_645 S
C263 C268 1.350 . S
C263 N271 1.427 1_655 S
C264 H255 0.930 . S
C264 C262 1.378 . S
C264 C265 1.367 . S
C265 C264 1.367 . S
C265 C267 1.433 . S
C266 C262 1.350 . S
C266 C263 1.463 1_465 S
C266 N270 1.427 1_455 S
C267 H257 0.929 . S
C267 C265 1.433 . S
C267 N270 1.384 1_455 S
C268 H259 0.929 1_545 S
C268 C260 1.378 . S
C268 C263 1.350 . S
C269 H256 0.929 . S
C269 C261 1.433 . S
C269 N271 1.384 1_655 S
N270 C266 1.427 1_655 S
N270 C267 1.384 1_655 S
N271 C263 1.427 1_455 S
N271 C269 1.384 1_455 S
H272 C278 0.930 . S
H273 C282 0.930 . S
H274 C287 0.929 . S
H275 C285 0.929 . S
H276 C280 0.929 . S
H277 C286 0.929 . S
C278 H272 0.930 . S
C278 C279 1.367 . S
C278 C286 1.378 . S
C279 C278 1.367 . S
C279 C287 1.433 . S
C280 H276 0.929 . S
C280 C282 1.378 . S
C280 C284 1.350 . S
C281 C284 1.463 . S
C281 C286 1.350 . S
C281 N289 1.427 . S
C282 H273 0.930 . S
C282 C280 1.378 . S
C282 C283 1.367 . S
C283 C282 1.367 . S
C283 C285 1.433 . S
C284 C280 1.350 . S
C284 C281 1.463 . S
C284 N288 1.427 . S
C285 H275 0.929 . S
C285 C283 1.433 . S
C285 N288 1.384 . S
C286 H277 0.929 . S
C286 C278 1.378 . S
C286 C281 1.350 . S
C287 H274 0.929 . S
C287 C279 1.433 . S
C287 N289 1.384 . S
N288 C284 1.427 . S
N288 C285 1.384 . S
N289 C281 1.427 . S
N289 C287 1.384 . S
H290 C296 0.930 . S
H291 C300 0.930 . S
H292 C305 0.929 . S
H293 C303 0.929 . S
H294 C298 0.929 . S
H295 C304 0.929 . S
C296 H290 0.930 . S
C296 C297 1.367 . S
C296 C304 1.378 . S
C297 C296 1.367 . S
C297 C305 1.433 . S
C298 H294 0.929 . S
C298 C300 1.378 . S
C298 C302 1.350 . S
C299 C302 1.463 . S
C299 C304 1.350 . S
C299 N307 1.427 . S
C300 H291 0.930 . S
C300 C298 1.378 . S
C300 C301 1.367 . S
C301 C300 1.367 . S
C301 C303 1.433 . S
C302 C298 1.350 . S
C302 C299 1.463 . S
C302 N306 1.427 . S
C303 H293 0.929 . S
C303 C301 1.433 . S
C303 N306 1.384 . S
C304 H295 0.929 . S
C304 C296 1.378 . S
C304 C299 1.350 . S
C305 H292 0.929 . S
C305 C297 1.433 . S
C305 N307 1.384 . S
N306 C302 1.427 . S
N306 C303 1.384 . S
N307 C299 1.427 . S
N307 C305 1.384 . S
H308 C314 0.930 . S
H309 C318 0.930 . S
H310 C323 0.929 . S
H311 C321 0.929 . S
H312 C316 0.929 . S
H313 C322 0.929 . S
C314 H308 0.930 . S
C314 C315 1.367 . S
C314 C322 1.378 . S
C315 C314 1.367 . S
C315 C323 1.433 . S
C316 H312 0.929 . S
C316 C318 1.378 . S
C316 C320 1.350 . S
C317 C320 1.463 . S
C317 C322 1.350 . S
C317 N325 1.427 . S
C318 H309 0.930 . S
C318 C316 1.378 . S
C318 C319 1.367 . S
C319 C318 1.367 . S
C319 C321 1.433 . S
C320 C316 1.350 . S
C320 C317 1.463 . S
C320 N324 1.427 . S
C321 H311 0.929 . S
C321 C319 1.433 . S
C321 N324 1.384 . S
C322 H313 0.929 . S
C322 C314 1.378 . S
C322 C317 1.350 . S
C323 H310 0.929 . S
C323 C315 1.433 . S
C323 N325 1.384 . S
N324 C320 1.427 . S
N324 C321 1.384 . S
N325 C317 1.427 . S
N325 C323 1.384 . S
H326 C332 0.930 . S
H327 C336 0.930 . S
H328 C341 0.929 . S
H329 C339 0.929 . S
H330 C334 0.929 . S
H331 C340 0.929 . S
C332 H326 0.930 . S
C332 C333 1.367 . S
C332 C340 1.378 . S
C333 C332 1.367 . S
C333 C341 1.433 . S
C334 H330 0.929 . S
C334 C336 1.378 . S
C334 C338 1.350 . S
C335 C338 1.463 . S
C335 C340 1.350 . S
C335 N343 1.427 . S
C336 H327 0.930 . S
C336 C334 1.378 . S
C336 C337 1.367 . S
C337 C336 1.367 . S
C337 C339 1.433 . S
C338 C334 1.350 . S
C338 C335 1.463 . S
C338 N342 1.427 . S
C339 H329 0.929 . S
C339 C337 1.433 . S
C339 N342 1.384 . S
C340 H331 0.929 . S
C340 C332 1.378 . S
C340 C335 1.350 . S
C341 H328 0.929 . S
C341 C333 1.433 . S
C341 N343 1.384 . S
N342 C338 1.427 . S
N342 C339 1.384 . S
N343 C335 1.427 . S
N343 C341 1.384 . S
H344 C350 0.930 . S
H345 C354 0.930 . S
H346 C359 0.929 . S
H347 C357 0.929 1_455 S
H348 C352 0.929 . S
H349 C358 0.929 . S
C350 H344 0.930 . S
C350 C351 1.367 . S
C350 C358 1.378 . S
C351 C350 1.367 . S
C351 C359 1.433 . S
C352 H348 0.929 . S
C352 C354 1.378 . S
C352 C356 1.350 1_655 S
C353 C356 1.463 . S
C353 C358 1.350 . S
C353 N361 1.427 . S
C354 H345 0.930 . S
C354 C352 1.378 . S
C354 C355 1.367 . S
C355 C354 1.367 . S
C355 C357 1.433 . S
C356 C352 1.350 1_455 S
C356 C353 1.463 . S
C356 N360 1.427 . S
C357 H347 0.929 1_655 S
C357 C355 1.433 . S
C357 N360 1.384 1_655 S
C358 H349 0.929 . S
C358 C350 1.378 . S
C358 C353 1.350 . S
C359 H346 0.929 . S
C359 C351 1.433 . S
C359 N361 1.384 . S
N360 C356 1.427 . S
N360 C357 1.384 1_455 S
N361 C353 1.427 . S
N361 C359 1.384 . S
H362 C368 0.930 . S
H363 C372 0.930 . S
H364 C377 0.929 . S
H365 C375 0.929 . S
H366 C370 0.929 . S
H367 C376 0.929 . S
C368 H362 0.930 . S
C368 C369 1.367 . S
C368 C376 1.378 1_655 S
C369 C368 1.367 . S
C369 C377 1.433 . S
C370 H366 0.929 . S
C370 C372 1.378 . S
C370 C374 1.350 . S
C371 C374 1.463 . S
C371 C376 1.350 . S
C371 N379 1.427 1_455 S
C372 H363 0.930 . S
C372 C370 1.378 . S
C372 C373 1.367 . S
C373 C372 1.367 . S
C373 C375 1.433 . S
C374 C370 1.350 . S
C374 C371 1.463 . S
C374 N378 1.427 . S
C375 H365 0.929 . S
C375 C373 1.433 . S
C375 N378 1.384 . S
C376 H367 0.929 . S
C376 C368 1.378 1_455 S
C376 C371 1.350 . S
C377 H364 0.929 . S
C377 C369 1.433 . S
C377 N379 1.384 . S
N378 C374 1.427 . S
N378 C375 1.384 . S
N379 C371 1.427 1_655 S
N379 C377 1.384 . S
H380 C386 0.930 1_655 S
H381 C390 0.930 . S
H382 C395 0.929 . S
H383 C393 0.929 . S
H384 C388 0.929 1_455 S
H385 C394 0.929 . S
C386 H380 0.930 1_455 S
C386 C387 1.367 . S
C386 C394 1.378 1_455 S
C387 C386 1.367 . S
C387 C395 1.433 . S
C388 H384 0.929 1_655 S
C388 C390 1.378 . S
C388 C392 1.350 . S
C389 C392 1.463 . S
C389 C394 1.350 . S
C389 N397 1.427 1_655 S
C390 H381 0.930 . S
C390 C388 1.378 . S
C390 C391 1.367 . S
C391 C390 1.367 . S
C391 C393 1.433 . S
C392 C388 1.350 . S
C392 C389 1.463 . S
C392 N396 1.427 . S
C393 H383 0.929 . S
C393 C391 1.433 . S
C393 N396 1.384 . S
C394 H385 0.929 . S
C394 C386 1.378 1_655 S
C394 C389 1.350 . S
C395 H382 0.929 . S
C395 C387 1.433 . S
C395 N397 1.384 . S
N396 C392 1.427 . S
N396 C393 1.384 . S
N397 C389 1.427 1_455 S
N397 C395 1.384 . S
H398 C404 0.927 1_655 S
H399 C408 0.930 . S
H400 C413 0.929 . S
H401 C411 0.929 . S
H402 C406 0.929 1_455 S
H403 C412 0.929 . S
C404 H398 0.927 1_455 S
C404 C405 1.377 . S
C404 C412 1.372 1_455 S
C405 C404 1.377 . S
C405 C413 1.433 . S
C406 H402 0.929 1_655 S
C406 C408 1.378 . S
C406 C410 1.350 . S
C407 C410 1.463 . S
C407 C412 1.350 . S
C407 N415 1.427 1_655 S
C408 H399 0.930 . S
C408 C406 1.378 . S
C408 C409 1.367 . S
C409 C408 1.367 . S
C409 C411 1.433 . S
C410 C406 1.350 . S
C410 C407 1.463 . S
C410 N414 1.427 . S
C411 H401 0.929 . S
C411 C409 1.433 . S
C411 N414 1.384 . S
C412 H403 0.929 . S
C412 C404 1.372 1_655 S
C412 C407 1.350 . S
C413 H400 0.929 . S
C413 C405 1.433 . S
C413 N415 1.384 . S
N414 C410 1.427 . S
N414 C411 1.384 . S
N415 C407 1.427 1_455 S
N415 C413 1.384 . S
C135 C20 0.897 . S
C139 C16 0.897 1_655 S
C153 C52 0.897 1_455 S
C157 C48 0.897 . S
C171 C84 0.898 . S
C175 C80 0.898 1_655 S
C189 C116 0.899 1_455 S
C193 C112 0.899 . S
C207 C51 1.460 1_554 S
C211 C23 1.460 1_556 S
C225 C115 1.458 . S
C229 C87 1.458 . S
C243 C19 1.456 1_554 S
C247 C55 1.456 1_556 S
C261 C119 1.460 . S
C265 C83 1.460 . S
C279 C117 1.711 . S
C283 C18 1.681 . S
C297 C53 1.711 . S
C301 C82 1.679 . S
C315 C81 1.712 . S
C319 C54 1.687 . S
C333 C17 1.712 . S
C337 C118 1.692 . S
C351 C85 1.713 . S
C355 C50 1.687 . S
C369 C114 1.682 . S
C373 C21 1.708 . S
C387 C22 1.681 . S
C391 C113 1.714 . S
C405 C86 1.684 . S
C409 C49 1.715 . S
