# Generated by pormake.
# Topology ukp, (4)-cn, num edge types: 1
# Building blocks:
#     Node 0, Type 0, BuildingBlock: QUQFOY_clean_sbu_1, # of connection points: 4
#     Node 1, Type 0, BuildingBlock: QUQFOY_clean_sbu_1, # of connection points: 4
#     Node 2, Type 0, BuildingBlock: QUQFOY_clean_sbu_1, # of connection points: 4
#     Node 3, Type 0, BuildingBlock: QUQFOY_clean_sbu_1, # of connection points: 4
#     Node 4, Type 0, BuildingBlock: QUQFOY_clean_sbu_1, # of connection points: 4
#     Node 5, Type 0, BuildingBlock: QUQFOY_clean_sbu_1, # of connection points: 4
#     Node 6, Type 0, BuildingBlock: QUQFOY_clean_sbu_1, # of connection points: 4
#     Node 7, Type 0, BuildingBlock: QUQFOY_clean_sbu_1, # of connection points: 4
#     Node 8, Type 0, BuildingBlock: QUQFOY_clean_sbu_1, # of connection points: 4
#     Node 9, Type 0, BuildingBlock: QUQFOY_clean_sbu_1, # of connection points: 4
#     Node 10, Type 0, BuildingBlock: QUQFOY_clean_sbu_1, # of connection points: 4
#     Node 11, Type 0, BuildingBlock: QUQFOY_clean_sbu_1, # of connection points: 4
#     Node 12, Type 0, BuildingBlock: QUQFOY_clean_sbu_1, # of connection points: 4
#     Node 13, Type 0, BuildingBlock: QUQFOY_clean_sbu_1, # of connection points: 4
#     Node 14, Type 0, BuildingBlock: QUQFOY_clean_sbu_1, # of connection points: 4
#     Node 15, Type 0, BuildingBlock: QUQFOY_clean_sbu_1, # of connection points: 4
#     Node 16, Type 0, BuildingBlock: QUQFOY_clean_sbu_1, # of connection points: 4
#     Node 17, Type 0, BuildingBlock: QUQFOY_clean_sbu_1, # of connection points: 4
#     Node 18, Type 0, BuildingBlock: QUQFOY_clean_sbu_1, # of connection points: 4
#     Node 19, Type 0, BuildingBlock: QUQFOY_clean_sbu_1, # of connection points: 4
#     Node 20, Type 0, BuildingBlock: QUQFOY_clean_sbu_1, # of connection points: 4
#     Node 21, Type 0, BuildingBlock: QUQFOY_clean_sbu_1, # of connection points: 4
#     Node 22, Type 0, BuildingBlock: QUQFOY_clean_sbu_1, # of connection points: 4
#     Node 23, Type 0, BuildingBlock: QUQFOY_clean_sbu_1, # of connection points: 4
#     Node 24, Type 0, BuildingBlock: QUQFOY_clean_sbu_1, # of connection points: 4
#     Node 25, Type 0, BuildingBlock: QUQFOY_clean_sbu_1, # of connection points: 4
#     Node 26, Type 0, BuildingBlock: QUQFOY_clean_sbu_1, # of connection points: 4
#     Node 27, Type 0, BuildingBlock: QUQFOY_clean_sbu_1, # of connection points: 4
#     Node 28, Type 0, BuildingBlock: QUQFOY_clean_sbu_1, # of connection points: 4
#     Node 29, Type 0, BuildingBlock: QUQFOY_clean_sbu_1, # of connection points: 4
#     Node 30, Type 0, BuildingBlock: QUQFOY_clean_sbu_1, # of connection points: 4
#     Node 31, Type 0, BuildingBlock: QUQFOY_clean_sbu_1, # of connection points: 4
#     Node 32, Type 0, BuildingBlock: QUQFOY_clean_sbu_1, # of connection points: 4
#     Node 33, Type 0, BuildingBlock: QUQFOY_clean_sbu_1, # of connection points: 4
#     Node 34, Type 0, BuildingBlock: QUQFOY_clean_sbu_1, # of connection points: 4
#     Node 35, Type 0, BuildingBlock: QUQFOY_clean_sbu_1, # of connection points: 4
#     Node 36, Type 0, BuildingBlock: QUQFOY_clean_sbu_1, # of connection points: 4
#     Node 37, Type 0, BuildingBlock: QUQFOY_clean_sbu_1, # of connection points: 4
#     Node 38, Type 0, BuildingBlock: QUQFOY_clean_sbu_1, # of connection points: 4
#     Node 39, Type 0, BuildingBlock: QUQFOY_clean_sbu_1, # of connection points: 4
#     Node 40, Type 0, BuildingBlock: QUQFOY_clean_sbu_1, # of connection points: 4
#     Node 41, Type 0, BuildingBlock: QUQFOY_clean_sbu_1, # of connection points: 4
#     Node 42, Type 0, BuildingBlock: QUQFOY_clean_sbu_1, # of connection points: 4
#     Node 43, Type 0, BuildingBlock: QUQFOY_clean_sbu_1, # of connection points: 4
#     Node 44, Type 0, BuildingBlock: QUQFOY_clean_sbu_1, # of connection points: 4
#     Node 45, Type 0, BuildingBlock: QUQFOY_clean_sbu_1, # of connection points: 4
#     Node 46, Type 0, BuildingBlock: QUQFOY_clean_sbu_1, # of connection points: 4
#     Node 47, Type 0, BuildingBlock: QUQFOY_clean_sbu_1, # of connection points: 4
#     Edge 48, Type (0, 0), BuildingBlock: AJUNOK_clean_linker_0, # of connection points: 2
#     Edge 49, Type (0, 0), BuildingBlock: AJUNOK_clean_linker_0, # of connection points: 2
#     Edge 50, Type (0, 0), BuildingBlock: AJUNOK_clean_linker_0, # of connection points: 2
#     Edge 51, Type (0, 0), BuildingBlock: AJUNOK_clean_linker_0, # of connection points: 2
#     Edge 52, Type (0, 0), BuildingBlock: AJUNOK_clean_linker_0, # of connection points: 2
#     Edge 53, Type (0, 0), BuildingBlock: AJUNOK_clean_linker_0, # of connection points: 2
#     Edge 54, Type (0, 0), BuildingBlock: AJUNOK_clean_linker_0, # of connection points: 2
#     Edge 55, Type (0, 0), BuildingBlock: AJUNOK_clean_linker_0, # of connection points: 2
#     Edge 56, Type (0, 0), BuildingBlock: AJUNOK_clean_linker_0, # of connection points: 2
#     Edge 57, Type (0, 0), BuildingBlock: AJUNOK_clean_linker_0, # of connection points: 2
#     Edge 58, Type (0, 0), BuildingBlock: AJUNOK_clean_linker_0, # of connection points: 2
#     Edge 59, Type (0, 0), BuildingBlock: AJUNOK_clean_linker_0, # of connection points: 2
#     Edge 60, Type (0, 0), BuildingBlock: AJUNOK_clean_linker_0, # of connection points: 2
#     Edge 61, Type (0, 0), BuildingBlock: AJUNOK_clean_linker_0, # of connection points: 2
#     Edge 62, Type (0, 0), BuildingBlock: AJUNOK_clean_linker_0, # of connection points: 2
#     Edge 63, Type (0, 0), BuildingBlock: AJUNOK_clean_linker_0, # of connection points: 2
#     Edge 64, Type (0, 0), BuildingBlock: AJUNOK_clean_linker_0, # of connection points: 2
#     Edge 65, Type (0, 0), BuildingBlock: AJUNOK_clean_linker_0, # of connection points: 2
#     Edge 66, Type (0, 0), BuildingBlock: AJUNOK_clean_linker_0, # of connection points: 2
#     Edge 67, Type (0, 0), BuildingBlock: AJUNOK_clean_linker_0, # of connection points: 2
#     Edge 68, Type (0, 0), BuildingBlock: AJUNOK_clean_linker_0, # of connection points: 2
#     Edge 69, Type (0, 0), BuildingBlock: AJUNOK_clean_linker_0, # of connection points: 2
#     Edge 70, Type (0, 0), BuildingBlock: AJUNOK_clean_linker_0, # of connection points: 2
#     Edge 71, Type (0, 0), BuildingBlock: AJUNOK_clean_linker_0, # of connection points: 2
#     Edge 72, Type (0, 0), BuildingBlock: AJUNOK_clean_linker_0, # of connection points: 2
#     Edge 73, Type (0, 0), BuildingBlock: AJUNOK_clean_linker_0, # of connection points: 2
#     Edge 74, Type (0, 0), BuildingBlock: AJUNOK_clean_linker_0, # of connection points: 2
#     Edge 75, Type (0, 0), BuildingBlock: AJUNOK_clean_linker_0, # of connection points: 2
#     Edge 76, Type (0, 0), BuildingBlock: AJUNOK_clean_linker_0, # of connection points: 2
#     Edge 77, Type (0, 0), BuildingBlock: AJUNOK_clean_linker_0, # of connection points: 2
#     Edge 78, Type (0, 0), BuildingBlock: AJUNOK_clean_linker_0, # of connection points: 2
#     Edge 79, Type (0, 0), BuildingBlock: AJUNOK_clean_linker_0, # of connection points: 2
#     Edge 80, Type (0, 0), BuildingBlock: AJUNOK_clean_linker_0, # of connection points: 2
#     Edge 81, Type (0, 0), BuildingBlock: AJUNOK_clean_linker_0, # of connection points: 2
#     Edge 82, Type (0, 0), BuildingBlock: AJUNOK_clean_linker_0, # of connection points: 2
#     Edge 83, Type (0, 0), BuildingBlock: AJUNOK_clean_linker_0, # of connection points: 2
#     Edge 84, Type (0, 0), BuildingBlock: AJUNOK_clean_linker_0, # of connection points: 2
#     Edge 85, Type (0, 0), BuildingBlock: AJUNOK_clean_linker_0, # of connection points: 2
#     Edge 86, Type (0, 0), BuildingBlock: AJUNOK_clean_linker_0, # of connection points: 2
#     Edge 87, Type (0, 0), BuildingBlock: AJUNOK_clean_linker_0, # of connection points: 2
#     Edge 88, Type (0, 0), BuildingBlock: AJUNOK_clean_linker_0, # of connection points: 2
#     Edge 89, Type (0, 0), BuildingBlock: AJUNOK_clean_linker_0, # of connection points: 2
#     Edge 90, Type (0, 0), BuildingBlock: AJUNOK_clean_linker_0, # of connection points: 2
#     Edge 91, Type (0, 0), BuildingBlock: AJUNOK_clean_linker_0, # of connection points: 2
#     Edge 92, Type (0, 0), BuildingBlock: AJUNOK_clean_linker_0, # of connection points: 2
#     Edge 93, Type (0, 0), BuildingBlock: AJUNOK_clean_linker_0, # of connection points: 2
#     Edge 94, Type (0, 0), BuildingBlock: AJUNOK_clean_linker_0, # of connection points: 2
#     Edge 95, Type (0, 0), BuildingBlock: AJUNOK_clean_linker_0, # of connection points: 2
#     Edge 96, Type (0, 0), BuildingBlock: AJUNOK_clean_linker_0, # of connection points: 2
#     Edge 97, Type (0, 0), BuildingBlock: AJUNOK_clean_linker_0, # of connection points: 2
#     Edge 98, Type (0, 0), BuildingBlock: AJUNOK_clean_linker_0, # of connection points: 2
#     Edge 99, Type (0, 0), BuildingBlock: AJUNOK_clean_linker_0, # of connection points: 2
#     Edge 100, Type (0, 0), BuildingBlock: AJUNOK_clean_linker_0, # of connection points: 2
#     Edge 101, Type (0, 0), BuildingBlock: AJUNOK_clean_linker_0, # of connection points: 2
#     Edge 102, Type (0, 0), BuildingBlock: AJUNOK_clean_linker_0, # of connection points: 2
#     Edge 103, Type (0, 0), BuildingBlock: AJUNOK_clean_linker_0, # of connection points: 2
#     Edge 104, Type (0, 0), BuildingBlock: AJUNOK_clean_linker_0, # of connection points: 2
#     Edge 105, Type (0, 0), BuildingBlock: AJUNOK_clean_linker_0, # of connection points: 2
#     Edge 106, Type (0, 0), BuildingBlock: AJUNOK_clean_linker_0, # of connection points: 2
#     Edge 107, Type (0, 0), BuildingBlock: AJUNOK_clean_linker_0, # of connection points: 2
#     Edge 108, Type (0, 0), BuildingBlock: AJUNOK_clean_linker_0, # of connection points: 2
#     Edge 109, Type (0, 0), BuildingBlock: AJUNOK_clean_linker_0, # of connection points: 2
#     Edge 110, Type (0, 0), BuildingBlock: AJUNOK_clean_linker_0, # of connection points: 2
#     Edge 111, Type (0, 0), BuildingBlock: AJUNOK_clean_linker_0, # of connection points: 2
#     Edge 112, Type (0, 0), BuildingBlock: AJUNOK_clean_linker_0, # of connection points: 2
#     Edge 113, Type (0, 0), BuildingBlock: AJUNOK_clean_linker_0, # of connection points: 2
#     Edge 114, Type (0, 0), BuildingBlock: AJUNOK_clean_linker_0, # of connection points: 2
#     Edge 115, Type (0, 0), BuildingBlock: AJUNOK_clean_linker_0, # of connection points: 2
#     Edge 116, Type (0, 0), BuildingBlock: AJUNOK_clean_linker_0, # of connection points: 2
#     Edge 117, Type (0, 0), BuildingBlock: AJUNOK_clean_linker_0, # of connection points: 2
#     Edge 118, Type (0, 0), BuildingBlock: AJUNOK_clean_linker_0, # of connection points: 2
#     Edge 119, Type (0, 0), BuildingBlock: AJUNOK_clean_linker_0, # of connection points: 2
#     Edge 120, Type (0, 0), BuildingBlock: AJUNOK_clean_linker_0, # of connection points: 2
#     Edge 121, Type (0, 0), BuildingBlock: AJUNOK_clean_linker_0, # of connection points: 2
#     Edge 122, Type (0, 0), BuildingBlock: AJUNOK_clean_linker_0, # of connection points: 2
#     Edge 123, Type (0, 0), BuildingBlock: AJUNOK_clean_linker_0, # of connection points: 2
#     Edge 124, Type (0, 0), BuildingBlock: AJUNOK_clean_linker_0, # of connection points: 2
#     Edge 125, Type (0, 0), BuildingBlock: AJUNOK_clean_linker_0, # of connection points: 2
#     Edge 126, Type (0, 0), BuildingBlock: AJUNOK_clean_linker_0, # of connection points: 2
#     Edge 127, Type (0, 0), BuildingBlock: AJUNOK_clean_linker_0, # of connection points: 2
#     Edge 128, Type (0, 0), BuildingBlock: AJUNOK_clean_linker_0, # of connection points: 2
#     Edge 129, Type (0, 0), BuildingBlock: AJUNOK_clean_linker_0, # of connection points: 2
#     Edge 130, Type (0, 0), BuildingBlock: AJUNOK_clean_linker_0, # of connection points: 2
#     Edge 131, Type (0, 0), BuildingBlock: AJUNOK_clean_linker_0, # of connection points: 2
#     Edge 132, Type (0, 0), BuildingBlock: AJUNOK_clean_linker_0, # of connection points: 2
#     Edge 133, Type (0, 0), BuildingBlock: AJUNOK_clean_linker_0, # of connection points: 2
#     Edge 134, Type (0, 0), BuildingBlock: AJUNOK_clean_linker_0, # of connection points: 2
#     Edge 135, Type (0, 0), BuildingBlock: AJUNOK_clean_linker_0, # of connection points: 2
#     Edge 136, Type (0, 0), BuildingBlock: AJUNOK_clean_linker_0, # of connection points: 2
#     Edge 137, Type (0, 0), BuildingBlock: AJUNOK_clean_linker_0, # of connection points: 2
#     Edge 138, Type (0, 0), BuildingBlock: AJUNOK_clean_linker_0, # of connection points: 2
#     Edge 139, Type (0, 0), BuildingBlock: AJUNOK_clean_linker_0, # of connection points: 2
#     Edge 140, Type (0, 0), BuildingBlock: AJUNOK_clean_linker_0, # of connection points: 2
#     Edge 141, Type (0, 0), BuildingBlock: AJUNOK_clean_linker_0, # of connection points: 2
#     Edge 142, Type (0, 0), BuildingBlock: AJUNOK_clean_linker_0, # of connection points: 2
#     Edge 143, Type (0, 0), BuildingBlock: AJUNOK_clean_linker_0, # of connection points: 2
# Relax obj value: 0.062
# Max RMSD: 0.236
# Mean RMSD: 0.236
data_MOF--net-ukp--node1-QUQFOY_clean_sbu_1--edge1-AJUNOK_clean_linker_0
_symmetry_space_group_name_H-M    P1
_symmetry_Int_Tables_number       1
_symmetry_cell_setting            triclinic
loop_
_symmetry_equiv_pos_as_xyz
'x, y, z'
_cell_length_a     46.798899
_cell_length_b     46.913165
_cell_length_c     46.86497
_cell_angle_alpha  89.997587
_cell_angle_beta   90.041381
_cell_angle_gamma 89.995981
loop_
_atom_site_label
_atom_site_type_symbol
_atom_site_fract_x
_atom_site_fract_y
_atom_site_fract_z
_atom_type_partial_charge
O0 O 0.24689 0.24891 0.38136 0.0
Cd1 Cd 0.20293 0.25859 0.38525 0.0
Cd2 Cd 0.24954 0.31591 0.40914 0.0
O3 O 0.27678 0.28285 0.39787 0.0
O4 O 0.17807 0.22402 0.38902 0.0
O5 O 0.18461 0.25504 0.42403 0.0
C6 C 0.17306 0.2316 0.4151 0.0
C7 C 0.25645 0.35504 0.43873 0.0
C8 C 0.27214 0.25842 0.3864 0.0
C9 C 0.20214 0.31222 0.36585 0.0
O10 O 0.21071 0.3105 0.3915 0.0
O11 O 0.18889 0.29045 0.35694 0.0
O12 O 0.26309 0.3561 0.41197 0.0
O13 O 0.24805 0.33082 0.44903 0.0
O14 O 0.02645 0.98955 0.63123 0.0
Cd15 Cd 1.00347 0.95332 0.64214 0.0
Cd16 Cd 0.97037 0.99304 0.66653 0.0
O17 O 1.00457 0.02014 0.65944 0.0
O18 O 0.03132 0.92077 0.64444 0.0
O19 O 1.00742 0.93666 0.68184 0.0
C20 C 0.02638 0.91945 0.67154 0.0
C21 C 0.93936 0.99228 0.70541 0.0
C22 C 0.02409 0.01465 0.64127 0.0
C23 C 0.94833 0.96315 0.61338 0.0
O24 O 0.94705 0.98371 0.63088 0.0
O25 O 0.96884 0.94531 0.61488 0.0
O26 O 0.9404 0.01394 0.68852 0.0
O27 O 0.95852 0.97268 0.70231 0.0
O28 O 0.27827 0.77857 0.8814 0.0
Cd29 Cd 0.31527 0.75682 0.89257 0.0
Cd30 Cd 0.27591 0.72232 0.91703 0.0
O31 O 0.24795 0.75564 0.90912 0.0
O32 O 0.34705 0.78564 0.89457 0.0
O33 O 0.33214 0.76148 0.93217 0.0
C34 C 0.34877 0.78084 0.92166 0.0
C35 C 0.27524 0.69082 0.95561 0.0
C36 C 0.25306 0.77531 0.89104 0.0
C37 C 0.3073 0.70127 0.86413 0.0
O38 O 0.2868 0.6993 0.88168 0.0
O39 O 0.32436 0.72243 0.86543 0.0
O40 O 0.25438 0.69187 0.9377 0.0
O41 O 0.29479 0.71019 0.95368 0.0
O42 O 0.49697 0.02806 0.13398 0.0
Cd43 Cd 0.51998 0.06396 0.1458 0.0
Cd44 Cd 0.55306 0.02314 0.16911 0.0
O45 O 0.51866 0.99647 0.1613 0.0
O46 O 0.49188 0.09629 0.14644 0.0
O47 O 0.5143 0.08133 0.1851 0.0
C48 C 0.49549 0.09803 0.1737 0.0
C49 C 0.58418 0.02287 0.208 0.0
C50 C 0.49915 1.00267 0.14333 0.0
C51 C 0.57501 0.05435 0.11668 0.0
O52 O 0.57624 0.03329 0.1336 0.0
O53 O 0.55469 0.07233 0.11882 0.0
O54 O 0.58303 1.00163 0.1906 0.0
O55 O 0.56507 0.0426 0.20538 0.0
O56 O 0.24698 0.7785 0.13794 0.0
Cd57 Cd 0.21054 0.75606 0.12664 0.0
Cd58 Cd 0.2508 0.72214 0.10293 0.0
O59 O 0.27789 0.75626 0.1103 0.0
O60 O 0.17848 0.78442 0.12628 0.0
O61 O 0.19262 0.76161 0.08757 0.0
C62 C 0.17622 0.78058 0.09909 0.0
C63 C 0.25204 0.68966 0.06522 0.0
C64 C 0.27227 0.77582 0.12836 0.0
C65 C 0.21979 0.70145 0.1561 0.0
O66 O 0.24057 0.69979 0.13885 0.0
O67 O 0.20198 0.7219 0.15405 0.0
O68 O 0.27296 0.69163 0.08299 0.0
O69 O 0.23214 0.70871 0.06665 0.0
O70 O 0.49663 0.99698 0.39144 0.0
Cd71 Cd 0.51932 0.96076 0.37997 0.0
Cd72 Cd 0.55265 1.00062 0.356 0.0
O73 O 0.5183 0.02757 0.36304 0.0
O74 O 0.49108 0.92856 0.37736 0.0
O75 O 0.51479 0.94484 0.34002 0.0
C76 C 0.49567 0.92772 0.35019 0.0
C77 C 0.5844 1.00052 0.31769 0.0
C78 C 0.49887 0.02204 0.38127 0.0
C79 C 0.57462 0.97003 0.40876 0.0
O80 O 0.57578 0.99099 0.39172 0.0
O81 O 0.55418 0.95213 0.40685 0.0
O82 O 0.58268 0.02206 0.33465 0.0
O83 O 0.56529 0.98077 0.32013 0.0
O84 O 0.27862 0.24402 0.64065 0.0
Cd85 Cd 0.31533 0.26642 0.62983 0.0
Cd86 Cd 0.27515 0.30101 0.60555 0.0
O87 O 0.24775 0.26712 0.61354 0.0
O88 O 0.34743 0.23798 0.62953 0.0
O89 O 0.33351 0.26093 0.59084 0.0
C90 C 0.34988 0.24193 0.60238 0.0
C91 C 0.27339 0.33271 0.567 0.0
C92 C 0.25332 0.2471 0.63111 0.0
C93 C 0.30682 0.32177 0.65863 0.0
O94 O 0.28633 0.32386 0.64103 0.0
O95 O 0.32392 0.30066 0.65721 0.0
O96 O 0.25297 0.33145 0.58537 0.0
O97 O 0.29318 0.31355 0.56852 0.0
O98 O 0.02856 0.02718 0.89101 0.0
Cd99 Cd 1.00593 0.06378 0.88038 0.0
Cd100 Cd 0.9728 0.02381 0.85752 0.0
O101 O 1.00785 0.99731 0.86123 0.0
O102 O 0.03434 0.09605 0.87988 0.0
O103 O 1.01166 0.08154 0.84124 0.0
C104 C 0.03063 0.09803 0.85264 0.0
C105 C 0.9408 0.03242 0.82111 0.0
C106 C 0.02695 1.00245 0.87995 0.0
C107 C 0.95172 0.05246 0.91066 0.0
O108 O 0.95142 0.03067 0.89467 0.0
O109 O 0.97082 0.0716 0.9073 0.0
O110 O 0.94177 1.00763 0.83307 0.0
O111 O 0.96116 0.05026 0.82663 0.0
O112 O 0.3873 0.24526 0.2446 0.0
Cd113 Cd 0.39817 0.20934 0.26792 0.0
Cd114 Cd 0.42317 0.24971 0.29965 0.0
O115 O 0.41693 0.27587 0.26453 0.0
O116 O 0.39818 0.1766 0.24037 0.0
O117 O 0.43717 0.19116 0.26258 0.0
C118 C 0.42545 0.17444 0.244 0.0
C119 C 0.46061 0.24919 0.3325 0.0
C120 C 0.39792 0.2702 0.24584 0.0
C121 C 0.36926 0.22165 0.32208 0.0
O122 O 0.38673 0.24228 0.32226 0.0
O123 O 0.3709 0.20263 0.30272 0.0
O124 O 0.44459 0.27133 0.32954 0.0
O125 O 0.45801 0.22899 0.31391 0.0
O126 O 0.02757 0.12801 0.49453 0.0
Cd127 Cd 0.06467 0.13818 0.51634 0.0
Cd128 Cd 0.02552 0.16372 0.551 0.0
O129 O 0.99778 0.15649 0.51723 0.0
O130 O 0.09628 0.1367 0.48748 0.0
O131 O 0.08358 0.1764 0.50932 0.0
C132 C 0.09932 0.1639 0.4904 0.0
C133 C 0.02543 0.20293 0.58189 0.0
C134 C 1.00265 0.1384 0.49749 0.0
C135 C 0.05587 0.11012 0.57204 0.0
O136 O 0.0357 0.12807 0.5741 0.0
O137 O 0.07299 0.11122 0.55092 0.0
O138 O 1.00431 0.18534 0.58113 0.0
O139 O 0.0451 0.20011 0.56275 0.0
O140 O 0.13811 0.77476 0.74436 0.0
Cd141 Cd 0.12673 0.81139 0.76644 0.0
Cd142 Cd 0.10358 0.77175 0.80117 0.0
O143 O 0.11107 0.74405 0.76754 0.0
O144 O 0.12421 0.84311 0.73772 0.0
O145 O 0.08688 0.82788 0.76219 0.0
C146 C 0.09711 0.84458 0.74276 0.0
C147 C 0.06566 0.77095 0.83356 0.0
C148 C 0.12881 0.74948 0.74761 0.0
C149 C 0.15653 0.80365 0.82135 0.0
O150 O 0.13943 0.78281 0.82354 0.0
O151 O 0.15437 0.82082 0.80036 0.0
O152 O 0.08343 0.75007 0.83187 0.0
O153 O 0.06714 0.7905 0.81417 0.0
O154 O 0.49436 0.89376 0.99182 0.0
Cd155 Cd 0.45804 0.88209 0.01462 0.0
Cd156 Cd 0.49885 0.85968 0.04749 0.0
O157 O 0.52512 0.86469 1.01237 0.0
O158 O 0.42513 0.87967 0.98688 0.0
O159 O 0.44188 0.84223 1.01001 0.0
C160 C 0.42423 0.85251 0.99145 0.0
C161 C 0.49136 0.82317 0.07948 0.0
C162 C 0.51945 0.88337 0.9934 0.0
C163 C 0.4686 0.91141 0.06951 0.0
O164 O 0.49096 0.89618 0.06948 0.0
O165 O 0.44969 0.90821 0.05014 0.0
O166 O 0.51599 0.83554 0.07825 0.0
O167 O 0.47323 0.82812 0.05922 0.0
O168 O 0.38343 0.78432 0.2792 0.0
Cd169 Cd 0.39429 0.82035 0.25591 0.0
Cd170 Cd 0.41901 0.78066 0.22499 0.0
O171 O 0.41506 0.75494 0.26069 0.0
O172 O 0.39637 0.85341 0.28324 0.0
O173 O 0.43405 0.8368 0.26023 0.0
C174 C 0.42361 0.85434 0.27876 0.0
C175 C 0.45546 0.7863 0.19192 0.0
C176 C 0.39531 0.75992 0.27877 0.0
C177 C 0.36524 0.80691 0.20196 0.0
O178 O 0.38175 0.7855 0.20301 0.0
O179 O 0.36794 0.82698 0.22015 0.0
O180 O 0.44302 0.76198 0.19509 0.0
O181 O 0.45012 0.80603 0.2104 0.0
O182 O 0.49803 0.13351 0.52869 0.0
Cd183 Cd 0.46093 0.14472 0.50708 0.0
Cd184 Cd 0.50077 0.16844 0.47173 0.0
O185 O 0.5288 0.16019 0.50508 0.0
O186 O 0.42947 0.14521 0.53622 0.0
O187 O 0.4431 0.1838 0.51297 0.0
C188 C 0.42707 0.17235 0.5323 0.0
C189 C 0.50189 0.20635 0.43942 0.0
C190 C 0.52341 0.14259 0.52514 0.0
C191 C 0.46787 0.11622 0.45137 0.0
O192 O 0.48874 0.13327 0.44913 0.0
O193 O 0.45127 0.11761 0.47288 0.0
O194 O 0.52245 0.18814 0.44069 0.0
O195 O 0.48255 0.20523 0.45907 0.0
O196 O 0.13999 0.24331 0.7772 0.0
Cd197 Cd 0.12936 0.20622 0.75558 0.0
Cd198 Cd 0.1051 0.24591 0.72016 0.0
O199 O 0.11256 0.27361 0.75385 0.0
O200 O 0.12874 0.17493 0.78492 0.0
O201 O 0.09018 0.1884 0.76136 0.0
C202 C 0.10152 0.17262 0.78097 0.0
C203 C 0.06775 0.24755 0.68703 0.0
C204 C 0.13034 0.26844 0.77384 0.0
C205 C 0.1584 0.21417 0.70019 0.0
O206 O 0.14091 0.23467 0.69798 0.0
O207 O 0.15701 0.19727 0.72147 0.0
O208 O 0.08586 0.2681 0.68917 0.0
O209 O 0.0685 0.22792 0.70637 0.0
O210 O 0.02815 0.88881 0.02708 0.0
Cd211 Cd 0.06472 0.87775 1.00459 0.0
Cd212 Cd 0.02452 0.8542 0.97023 0.0
O213 O 0.99717 0.86178 1.00417 0.0
O214 O 0.09672 0.87744 0.03308 0.0
O215 O 0.08269 0.83875 1.0102 0.0
C216 C 0.09905 0.85029 0.02922 0.0
C217 C 0.02356 0.81567 0.93876 0.0
C218 C 1.00283 0.87937 0.02415 0.0
C219 C 0.05646 0.90676 0.94934 0.0
O220 O 0.03557 0.88966 0.94739 0.0
O221 O 0.0737 0.90491 0.97032 0.0
O222 O 1.00277 0.83364 0.93982 0.0
O223 O 0.04323 0.81758 0.95804 0.0
O224 O 0.248 0.38091 0.25441 0.0
Cd225 Cd 0.26909 0.39325 0.21715 0.0
Cd226 Cd 0.30634 0.4143 0.25757 0.0
O227 O 0.27526 0.40223 0.28657 0.0
O228 O 0.23931 0.39422 0.18605 0.0
O229 O 0.26281 0.43259 0.19969 0.0
C230 C 0.24332 0.42134 0.18368 0.0
C231 C 0.3367 0.45371 0.25909 0.0
C232 C 0.25379 0.38667 0.28037 0.0
C233 C 0.32585 0.36454 0.2209 0.0
O234 O 0.3294 0.381 0.24202 0.0
O235 O 0.30318 0.36628 0.20584 0.0
O236 O 0.33758 0.43437 0.27859 0.0
O237 O 0.31594 0.45261 0.24089 0.0
O238 O 0.74343 0.14176 0.77781 0.0
Cd239 Cd 0.76761 0.13169 0.81355 0.0
Cd240 Cd 0.79635 0.10571 0.77385 0.0
O241 O 0.75967 0.10815 0.74938 0.0
O242 O 0.7412 0.13196 0.8475 0.0
O243 O 0.76193 0.09279 0.83162 0.0
C244 C 0.74419 0.10461 0.84913 0.0
C245 C 0.82936 0.06973 0.782 0.0
C246 C 0.74248 0.12873 0.75399 0.0
C247 C 0.82108 0.15978 0.79627 0.0
O248 O 0.81807 0.14325 0.77511 0.0
O249 O 0.80447 0.15731 0.81776 0.0
O250 O 0.82581 0.08005 0.75672 0.0
O251 O 0.81139 0.077 0.80161 0.0
O252 O 0.13627 0.49328 0.03322 0.0
Cd253 Cd 0.14741 0.51561 0.06996 0.0
Cd254 Cd 0.17189 0.54977 0.02917 0.0
O255 O 0.16367 0.51571 1.00219 0.0
O256 O 0.1472 0.48728 0.10228 0.0
O257 O 0.18629 0.50967 0.08864 0.0
C258 C 0.17441 0.49093 0.10504 0.0
C259 C 0.20965 0.5824 0.02618 0.0
C260 C 0.14561 0.49614 1.00786 0.0
C261 C 0.11879 0.57105 0.0604 0.0
O262 O 0.13635 0.57263 0.03988 0.0
O263 O 0.12023 0.55033 0.07798 0.0
O264 O 0.19132 0.57981 1.00587 0.0
O265 O 0.20882 0.56375 0.04647 0.0
O266 O 0.77741 0.88301 0.275 0.0
Cd267 Cd 0.75509 0.8935 0.31176 0.0
Cd268 Cd 0.72003 0.91674 0.27239 0.0
O269 O 0.75364 0.90983 0.24447 0.0
O270 O 0.78391 0.89409 0.34344 0.0
O271 O 0.76018 0.93246 0.32991 0.0
C272 C 0.77959 0.92115 0.34597 0.0
C273 C 0.6886 0.95536 0.27305 0.0
C274 C 0.77398 0.89254 0.24979 0.0
C275 C 0.70034 0.86341 0.30364 0.0
O276 O 0.69778 0.88079 0.28307 0.0
O277 O 0.72145 0.86554 0.32072 0.0
O278 O 0.68913 0.93788 0.25185 0.0
O279 O 0.70828 0.95285 0.29226 0.0
O280 O 0.88969 0.02509 0.03015 0.0
Cd281 Cd 0.87812 1.00269 0.06647 0.0
Cd282 Cd 0.85408 0.96905 0.02619 0.0
O283 O 0.86192 1.00311 0.99916 0.0
O284 O 0.87751 0.0312 0.09841 0.0
O285 O 0.8388 1.00853 0.08388 0.0
C286 C 0.85022 0.02759 0.10025 0.0
C287 C 0.81551 0.93745 0.02477 0.0
C288 C 0.88011 0.02255 1.00487 0.0
C289 C 0.9071 0.94769 0.05733 0.0
O290 O 0.88972 0.94611 0.03663 0.0
O291 O 0.90534 0.96827 0.07502 0.0
O292 O 0.83348 0.93896 1.00401 0.0
O293 O 0.81741 0.95639 0.04471 0.0
O294 O 0.27848 0.63886 0.74488 0.0
Cd295 Cd 0.25582 0.62669 0.7088 0.0
Cd296 Cd 0.22279 0.6029 0.74962 0.0
O297 O 0.25714 0.61117 0.77633 0.0
O298 O 0.28401 0.62615 0.67651 0.0
O299 O 0.26195 0.5874 0.69164 0.0
C300 C 0.28064 0.59887 0.67488 0.0
C301 C 0.1913 0.56432 0.75075 0.0
C302 C 0.27636 0.62949 0.77027 0.0
C303 C 0.20028 0.65492 0.71801 0.0
O304 O 0.19927 0.63811 0.73917 0.0
O305 O 0.22072 0.65306 0.70012 0.0
O306 O 0.19306 0.58186 0.77183 0.0
O307 O 0.21027 0.56642 0.73082 0.0
O308 O 0.12942 0.53591 0.49213 0.0
Cd309 Cd 0.14078 0.51453 0.45511 0.0
Cd310 Cd 0.16808 0.48161 0.4924 0.0
O311 O 0.15929 0.51402 0.52114 0.0
O312 O 0.1423 0.54296 0.42302 0.0
O313 O 0.18041 0.5201 0.43884 0.0
C314 C 0.16961 0.53902 0.42193 0.0
C315 C 0.21039 0.45557 0.48804 0.0
C316 C 0.14013 0.53289 0.5169 0.0
C317 C 0.11559 0.45729 0.46309 0.0
O318 O 0.13394 0.45582 0.48298 0.0
O319 O 0.1151 0.47893 0.44662 0.0
O320 O 0.19466 0.45354 0.51053 0.0
O321 O 0.20373 0.47488 0.46955 0.0
O322 O 0.38727 0.49376 0.99753 0.0
Cd323 Cd 0.37704 0.51534 0.9602 0.0
Cd324 Cd 0.3537 0.55159 0.99915 0.0
O325 O 0.36077 0.51845 0.02758 0.0
O326 O 0.37469 0.48621 0.92881 0.0
O327 O 0.3375 0.51161 0.94277 0.0
C328 C 0.34775 0.49181 0.92653 0.0
C329 C 0.31666 0.585 1.00003 0.0
C330 C 0.37797 0.49791 0.0227 0.0
C331 C 0.40713 0.5702 0.96697 0.0
O332 O 0.38971 0.57318 0.98744 0.0
O333 O 0.40542 0.54854 0.95063 0.0
O334 O 0.33468 0.58308 0.02071 0.0
O335 O 0.31729 0.56532 0.98073 0.0
O336 O 0.74477 0.74127 0.88599 0.0
Cd337 Cd 0.70803 0.76364 0.89653 0.0
Cd338 Cd 0.74763 0.79844 0.92003 0.0
O339 O 0.77531 0.76465 0.91312 0.0
O340 O 0.67608 0.73507 0.89848 0.0
O341 O 0.69084 0.75941 0.93604 0.0
C342 C 0.67423 0.74002 0.92554 0.0
C343 C 0.74794 0.83042 0.95825 0.0
C344 C 0.77 0.74452 0.8956 0.0
C345 C 0.71647 0.81832 0.86651 0.0
O346 O 0.73702 0.82067 0.88399 0.0
O347 O 0.69923 0.79736 0.8685 0.0
O348 O 0.76899 0.82914 0.9406 0.0
O349 O 0.72834 0.81111 0.95624 0.0
O350 O 0.52601 0.4929 0.13623 0.0
Cd351 Cd 0.50265 0.45706 0.14766 0.0
Cd352 Cd 0.46987 0.49767 0.17171 0.0
O353 O 0.5043 0.52427 0.16374 0.0
O354 O 0.53026 0.42424 0.14923 0.0
O355 O 0.50718 0.43995 0.18719 0.0
C356 C 0.52581 0.42269 0.17639 0.0
C357 C 0.43928 0.4982 0.21104 0.0
C358 C 0.52382 0.51821 0.14577 0.0
C359 C 0.44734 0.46725 0.11896 0.0
O360 O 0.44617 0.48793 0.13633 0.0
O361 O 0.46778 0.44931 0.12061 0.0
O362 O 0.4405 0.51947 0.1937 0.0
O363 O 0.45811 0.47826 0.20813 0.0
O364 O 0.77916 0.27809 0.38222 0.0
Cd365 Cd 0.81624 0.25618 0.39276 0.0
Cd366 Cd 0.77651 0.22109 0.41727 0.0
O367 O 0.74885 0.25477 0.40967 0.0
O368 O 0.84809 0.28495 0.39424 0.0
O369 O 0.83392 0.26064 0.43203 0.0
C370 C 0.85037 0.28001 0.42127 0.0
C371 C 0.77395 0.18808 0.45465 0.0
C372 C 0.75398 0.27471 0.39187 0.0
C373 C 0.80794 0.20095 0.3638 0.0
O374 O 0.78763 0.19872 0.38155 0.0
O375 O 0.82496 0.22214 0.36513 0.0
O376 O 0.75364 0.19048 0.43629 0.0
O377 O 0.79397 0.20705 0.45406 0.0
O378 O 0.99609 0.52499 0.63486 0.0
Cd379 Cd 0.01766 0.56187 0.64655 0.0
Cd380 Cd 0.05447 0.52249 0.6679 0.0
O381 O 0.02164 0.49402 0.65949 0.0
O382 O 0.98834 0.59298 0.64989 0.0
O383 O 0.01383 0.57791 0.68658 0.0
C384 C 0.99393 0.5944 0.67684 0.0
C385 C 0.08647 0.52101 0.70624 0.0
C386 C 1.00071 0.49948 0.64293 0.0
C387 C 0.07247 0.55688 0.6157 0.0
O388 O 0.07613 0.53597 0.63246 0.0
O389 O 0.05057 0.57281 0.61839 0.0
O390 O 0.08605 0.50115 0.68726 0.0
O391 O 0.06646 0.53997 0.70528 0.0
O392 O 0.7445 0.27855 0.64322 0.0
Cd393 Cd 0.70845 0.25573 0.6313 0.0
Cd394 Cd 0.74966 0.22128 0.60863 0.0
O395 O 0.77626 0.2558 0.61696 0.0
O396 O 0.67648 0.28413 0.63018 0.0
O397 O 0.6917 0.26146 0.59177 0.0
C398 C 0.67507 0.28045 0.60291 0.0
C399 C 0.75192 0.18982 0.5701 0.0
C400 C 0.76999 0.27593 0.63415 0.0
C401 C 0.71545 0.1999 0.65964 0.0
O402 O 0.73706 0.19813 0.64343 0.0
O403 O 0.69863 0.22119 0.65779 0.0
O404 O 0.7722 0.19102 0.58868 0.0
O405 O 0.73217 0.20906 0.5714 0.0
O406 O 0.99718 0.494 0.89394 0.0
Cd407 Cd 0.01939 0.45724 0.8832 0.0
Cd408 Cd 0.05417 0.49706 0.85914 0.0
O409 O 0.02008 0.5243 0.86616 0.0
O410 O 0.99058 0.42541 0.88209 0.0
O411 O 0.01383 0.4399 0.84382 0.0
C412 C 0.9945 0.42358 0.85488 0.0
C413 C 0.08654 0.49871 0.82122 0.0
C414 C 1.00014 0.51905 0.88392 0.0
C415 C 0.07471 0.466 0.91252 0.0
O416 O 0.07671 0.48652 0.89503 0.0
O417 O 0.05379 0.44864 0.91075 0.0
O418 O 0.08458 0.51938 0.83918 0.0
O419 O 0.06753 0.47877 0.82263 0.0
O420 O 0.78023 0.743 0.1395 0.0
Cd421 Cd 0.81616 0.76639 0.12821 0.0
Cd422 Cd 0.77499 0.79907 0.10385 0.0
O423 O 0.74878 0.76432 0.11165 0.0
O424 O 0.84914 0.73901 0.12683 0.0
O425 O 0.83335 0.76191 0.08876 0.0
C426 C 0.85075 0.74346 0.09968 0.0
C427 C 0.773 0.83114 0.06588 0.0
C428 C 0.75493 0.74489 0.12968 0.0
C429 C 0.80616 0.82181 0.15612 0.0
O430 O 0.78512 0.82257 0.13911 0.0
O431 O 0.82405 0.80135 0.15488 0.0
O432 O 0.75199 0.82858 0.08343 0.0
O433 O 0.79332 0.81254 0.06745 0.0
O434 O 0.52986 0.52707 0.39115 0.0
Cd435 Cd 0.50745 0.56346 0.37984 0.0
Cd436 Cd 0.47421 0.52381 0.35549 0.0
O437 O 0.50833 0.49658 0.36256 0.0
O438 O 0.536 0.59538 0.37927 0.0
O439 O 0.51344 0.58069 0.34057 0.0
C440 C 0.53251 0.59708 0.35198 0.0
C441 C 0.44324 0.52521 0.31658 0.0
C442 C 0.52763 0.50202 0.381 0.0
C443 C 0.45221 0.55398 0.40844 0.0
O444 O 0.451 0.5332 0.39119 0.0
O445 O 0.47263 0.57189 0.40671 0.0
O446 O 0.44402 0.5034 0.33329 0.0
O447 O 0.46265 0.54456 0.31982 0.0
O448 O 0.88305 0.73914 0.74827 0.0
Cd449 Cd 0.89474 0.70335 0.77154 0.0
Cd450 Cd 0.91842 0.74415 0.80453 0.0
O451 O 0.91043 0.77066 0.76996 0.0
O452 O 0.89664 0.67068 0.74388 0.0
O453 O 0.93446 0.68659 0.76721 0.0
C454 C 0.92383 0.66931 0.7485 0.0
C455 C 0.95694 0.74553 0.8363 0.0
C456 C 0.89241 0.76451 0.75046 0.0
C457 C 0.86574 0.71308 0.82648 0.0
O458 O 0.88286 0.73398 0.82771 0.0
O459 O 0.86762 0.69515 0.80611 0.0
O460 O 0.93933 0.76654 0.83428 0.0
O461 O 0.95492 0.72544 0.81753 0.0
O462 O 0.52851 0.62759 0.99507 0.0
Cd463 Cd 0.56516 0.63837 0.0177 0.0
Cd464 Cd 0.52578 0.66324 0.05118 0.0
O465 O 0.4984 0.6562 0.01719 0.0
O466 O 0.5976 0.64112 0.98973 0.0
O467 O 0.58163 0.67817 0.01409 0.0
C468 C 0.59886 0.66813 0.995 0.0
C469 C 0.52579 0.7014 0.08302 0.0
C470 C 0.50352 0.63802 0.99763 0.0
C471 C 0.55622 0.61045 0.07329 0.0
O472 O 0.53554 0.62783 0.07456 0.0
O473 O 0.57361 0.6114 0.05238 0.0
O474 O 0.50422 0.68444 0.08117 0.0
O475 O 0.54556 0.69908 0.0639 0.0
O476 O 0.63825 0.27643 0.24537 0.0
Cd477 Cd 0.62719 0.31276 0.26814 0.0
Cd478 Cd 0.60422 0.27287 0.3023 0.0
O479 O 0.6113 0.2455 0.26836 0.0
O480 O 0.62436 0.34502 0.24001 0.0
O481 O 0.5873 0.32935 0.26458 0.0
C482 C 0.59732 0.34642 0.24537 0.0
C483 C 0.56581 0.27321 0.33395 0.0
C484 C 0.6289 0.25113 0.24836 0.0
C485 C 0.6573 0.3041 0.32281 0.0
O486 O 0.64015 0.28327 0.32479 0.0
O487 O 0.65508 0.32156 0.30207 0.0
O488 O 0.58315 0.25189 0.33286 0.0
O489 O 0.56818 0.29263 0.31453 0.0
O490 O 0.99751 0.39288 0.49054 0.0
Cd491 Cd 0.96112 0.38077 0.51292 0.0
Cd492 Cd 1.00132 0.35551 0.54557 0.0
O493 O 0.0285 0.36457 0.51188 0.0
O494 O 0.92833 0.37827 0.4852 0.0
O495 O 0.94512 0.34087 0.50844 0.0
C496 C 0.92743 0.35113 0.48987 0.0
C497 C 1.00275 0.31678 0.57683 0.0
C498 C 0.02285 0.38325 0.49292 0.0
C499 C 0.97013 0.40728 0.56922 0.0
O500 O 0.991 0.3901 0.56991 0.0
O501 O 0.95259 0.40667 0.54839 0.0
O502 O 0.02384 0.33429 0.5749 0.0
O503 O 0.98271 0.31882 0.55795 0.0
O504 O 0.88508 0.27925 0.77441 0.0
Cd505 Cd 0.89498 0.31796 0.75542 0.0
Cd506 Cd 0.92089 0.28165 0.71651 0.0
O507 O 0.91247 0.25172 0.74779 0.0
O508 O 0.89596 0.34749 0.78655 0.0
O509 O 0.93404 0.33599 0.76127 0.0
C510 C 0.92302 0.35051 0.78199 0.0
C511 C 0.95825 0.27805 0.68314 0.0
C512 C 0.89476 0.25466 0.76825 0.0
C513 C 0.86609 0.31338 0.69953 0.0
O514 O 0.88517 0.2947 0.69519 0.0
O515 O 0.86652 0.32818 0.72237 0.0
O516 O 0.93823 0.25933 0.68435 0.0
O517 O 0.9588 0.29724 0.70288 0.0
O518 O 0.99836 0.63199 0.03101 0.0
Cd519 Cd 0.96183 0.64316 1.00843 0.0
Cd520 Cd 1.00188 0.66628 0.97393 0.0
O521 O 0.02952 0.65844 1.00768 0.0
O522 O 0.92962 0.64584 0.03662 0.0
O523 O 0.94521 0.6829 1.01208 0.0
C524 C 0.92813 0.67281 0.03126 0.0
C525 C 1.00214 0.70431 0.94191 0.0
C526 C 0.0238 0.64103 0.02781 0.0
C527 C 0.96952 0.61399 0.95325 0.0
O528 O 0.9905 0.63093 0.95123 0.0
O529 O 0.95257 0.61565 0.97445 0.0
O530 O 0.02314 0.68659 0.94305 0.0
O531 O 0.98285 0.70268 0.96158 0.0
O532 O 0.64394 0.74067 0.2773 0.0
Cd533 Cd 0.63339 0.70352 0.25575 0.0
Cd534 Cd 0.60834 0.74206 0.22091 0.0
O535 O 0.61544 0.77016 0.25424 0.0
O536 O 0.63221 0.67225 0.28493 0.0
O537 O 0.59399 0.68628 0.26108 0.0
C538 C 0.60499 0.67032 0.28074 0.0
C539 C 0.57031 0.74287 0.18878 0.0
C540 C 0.63358 0.76553 0.27403 0.0
C541 C 0.66162 0.71109 0.20013 0.0
O542 O 0.64392 0.73142 0.19808 0.0
O543 O 0.66074 0.69435 0.22154 0.0
O544 O 0.58827 0.76361 0.19014 0.0
O545 O 0.57179 0.72334 0.20817 0.0
O546 O 0.52965 0.38999 0.52886 0.0
Cd547 Cd 0.56633 0.37872 0.50671 0.0
Cd548 Cd 0.5264 0.35454 0.47266 0.0
O549 O 0.49918 0.36177 0.50674 0.0
O550 O 0.59822 0.37828 0.53528 0.0
O551 O 0.58383 0.3396 0.51257 0.0
C552 C 0.60023 0.35107 0.5316 0.0
C553 C 0.52448 0.31708 0.43994 0.0
C554 C 0.50452 0.37997 0.52625 0.0
C555 C 0.55789 0.40727 0.45149 0.0
O556 O 0.53696 0.39019 0.44994 0.0
O557 O 0.57543 0.40552 0.47222 0.0
O558 O 0.50372 0.33492 0.44235 0.0
O559 O 0.54456 0.31814 0.45886 0.0
O560 O 0.74429 0.87684 0.74484 0.0
Cd561 Cd 0.76675 0.88795 0.70825 0.0
Cd562 Cd 0.80065 0.91173 0.74802 0.0
O563 O 0.7665 0.905 0.77529 0.0
O564 O 0.7383 0.89002 0.67612 0.0
O565 O 0.76212 0.92764 0.69143 0.0
C566 C 0.7428 0.91716 0.6747 0.0
C567 C 0.83365 0.94895 0.74862 0.0
C568 C 0.74694 0.88682 0.76997 0.0
C569 C 0.82164 0.85852 0.71757 0.0
O570 O 0.82311 0.87575 0.73834 0.0
O571 O 0.80116 0.86046 0.69969 0.0
O572 O 0.83124 0.93178 0.76991 0.0
O573 O 0.81454 0.94748 0.72875 0.0
O574 O 0.24919 0.64513 0.27814 0.0
Cd575 Cd 0.27065 0.6347 0.31535 0.0
Cd576 Cd 0.30639 0.61056 0.27618 0.0
O577 O 0.27268 0.61742 0.24828 0.0
O578 O 0.24088 0.635 0.34613 0.0
O579 O 0.26404 0.59599 0.33348 0.0
C580 C 0.24431 0.60782 0.34875 0.0
C581 C 0.33884 0.57266 0.27491 0.0
C582 C 0.25254 0.63507 0.25317 0.0
C583 C 0.32609 0.66381 0.30801 0.0
O584 O 0.32861 0.64642 0.28745 0.0
O585 O 0.30474 0.66205 0.32481 0.0
O586 O 0.33725 0.59077 0.25433 0.0
O587 O 0.31951 0.57399 0.29456 0.0
O588 O 0.6366 0.99591 0.52884 0.0
Cd589 Cd 0.64775 0.01745 0.5659 0.0
Cd590 Cd 0.67246 0.0517 0.52629 0.0
O591 O 0.66501 0.01805 0.49858 0.0
O592 O 0.64725 0.98826 0.59735 0.0
O593 O 0.6866 1.01056 0.58421 0.0
C594 C 0.67454 0.99138 0.59995 0.0
C595 C 0.7104 0.08414 0.52593 0.0
C596 C 0.64651 0.99875 0.50372 0.0
C597 C 0.61904 0.07277 0.55678 0.0
O598 O 0.63655 0.07436 0.53621 0.0
O599 O 0.62069 0.05214 0.57445 0.0
O600 O 0.6931 0.08211 0.50465 0.0
O601 O 0.70856 0.06498 0.54567 0.0
O602 O 0.27819 0.3819 0.77907 0.0
Cd603 Cd 0.25506 0.39289 0.81523 0.0
Cd604 Cd 0.22191 0.41709 0.77514 0.0
O605 O 0.25614 0.40965 0.74813 0.0
O606 O 0.28274 0.39481 0.84803 0.0
O607 O 0.25909 0.4324 0.83229 0.0
C608 C 0.27786 0.42187 0.8496 0.0
C609 C 0.19119 0.45624 0.77572 0.0
C610 C 0.27574 0.39162 0.75383 0.0
C611 C 0.19991 0.36406 0.80526 0.0
O612 O 0.19852 0.38155 0.78468 0.0
O613 O 0.22045 0.36563 0.82309 0.0
O614 O 0.19202 0.43921 0.75415 0.0
O615 O 0.21036 0.45306 0.79533 0.0
O616 O 0.39042 0.52588 0.52843 0.0
Cd617 Cd 0.379 0.50372 0.565 0.0
Cd618 Cd 0.35534 0.46922 0.52477 0.0
O619 O 0.36343 0.50299 0.49739 0.0
O620 O 0.37848 0.53239 0.59682 0.0
O621 O 0.33981 0.50942 0.5827 0.0
C622 C 0.35124 0.52854 0.59898 0.0
C623 C 0.31669 0.43757 0.52344 0.0
C624 C 0.38122 0.52281 0.50306 0.0
C625 C 0.4082 0.44857 0.55678 0.0
O626 O 0.39091 0.44647 0.53604 0.0
O627 O 0.40634 0.46954 0.57398 0.0
O628 O 0.33474 0.43895 0.50275 0.0
O629 O 0.31852 0.45676 0.54316 0.0
O630 O 0.77772 0.13999 0.24407 0.0
Cd631 Cd 0.75484 0.12787 0.20811 0.0
Cd632 Cd 0.7219 0.10439 0.24901 0.0
O633 O 0.75651 0.1122 0.2755 0.0
O634 O 0.78294 0.12673 0.17578 0.0
O635 O 0.76058 0.08834 0.19137 0.0
C636 C 0.77938 0.09946 0.1745 0.0
C637 C 0.6898 0.06638 0.25065 0.0
C638 C 0.77576 0.13047 0.26941 0.0
C639 C 0.69965 0.15657 0.2175 0.0
O640 O 0.69871 0.13984 0.23872 0.0
O641 O 0.71991 0.1545 0.19944 0.0
O642 O 0.69206 0.08399 0.27162 0.0
O643 O 0.7086 0.06801 0.23053 0.0
O644 O 0.63501 0.02849 0.9952 0.0
Cd645 Cd 0.64569 1.00759 0.95766 0.0
Cd646 Cd 0.66888 0.97074 0.99713 0.0
O647 O 0.66157 1.00395 0.02537 0.0
O648 O 0.64658 0.03764 0.92706 0.0
O649 O 0.68489 0.01338 0.93987 0.0
C650 C 0.67372 0.03342 0.92454 0.0
C651 C 0.70556 0.9369 0.99967 0.0
C652 C 0.64425 0.02436 0.02041 0.0
C653 C 0.61559 0.95256 0.96403 0.0
O654 O 0.63288 0.94949 0.98463 0.0
O655 O 0.61767 0.97413 0.94758 0.0
O656 O 0.68679 0.93917 0.0196 0.0
O657 O 0.70575 0.95636 0.98015 0.0
O658 O 0.88744 0.99345 0.49369 0.0
Cd659 Cd 0.87626 0.01613 0.45739 0.0
Cd660 Cd 0.85274 0.04994 0.4978 0.0
O661 O 0.86006 0.01569 0.5248 0.0
O662 O 0.87623 0.98785 0.42529 0.0
O663 O 0.83726 1.01038 0.43928 0.0
C664 C 0.84899 0.99151 0.42293 0.0
C665 C 0.81436 0.08173 0.49815 0.0
C666 C 0.87791 0.99598 0.51898 0.0
C667 C 0.9057 0.07088 0.46656 0.0
O668 O 0.8886 0.07253 0.48747 0.0
O669 O 0.90357 0.05038 0.44884 0.0
O670 O 0.83188 0.08031 0.51933 0.0
O671 O 0.81651 0.06256 0.47846 0.0
C672 C 0.12573 0.20908 0.47772 0.0
C673 C 0.11915 0.1804 0.4716 0.0
C674 C 0.14335 0.22535 0.45959 0.0
C675 C 0.15481 0.2138 0.43428 0.0
H676 H 0.11715 0.21914 0.49667 0.0
H677 H 0.14767 0.2473 0.46528 0.0
S678 S 0.1446 0.1396 0.40852 0.0
N679 N 0.12611 0.14106 0.43846 0.0
N680 N 0.1587 0.17158 0.40444 0.0
C681 C 0.14854 0.18511 0.42799 0.0
C682 C 0.13091 0.16846 0.4466 0.0
C683 C 0.08748 0.87281 0.69832 0.0
C684 C 0.07838 0.86381 0.72551 0.0
C685 C 0.07026 0.89021 0.68099 0.0
C686 C 0.04334 0.89994 0.69022 0.0
H687 H 0.10803 0.86607 0.6901 0.0
H688 H 0.07842 0.89645 0.66028 0.0
S689 S 1.00942 0.88281 0.75975 0.0
N690 N 0.04035 0.86585 0.76079 0.0
N691 N 1.00837 0.8992 0.72857 0.0
C692 C 0.03398 0.89129 0.71746 0.0
C693 C 0.05134 0.87307 0.73495 0.0
C694 C 0.39442 0.84293 0.94791 0.0
C695 C 0.4046 0.83375 0.97467 0.0
C696 C 0.37689 0.82548 0.9309 0.0
C697 C 0.36818 0.79824 0.94009 0.0
H698 H 0.40042 0.86367 0.93972 0.0
H699 H 0.3698 0.83366 0.91047 0.0
S700 S 0.38837 0.76408 1.00868 0.0
N701 N 0.40458 0.79536 1.00956 0.0
N702 N 0.371 0.76297 0.978 0.0
C703 C 0.37789 0.78885 0.96696 0.0
C704 C 0.39625 0.80645 0.98409 0.0
C705 C 0.47009 0.1453 0.23534 0.0
C706 C 0.44288 0.15448 0.22623 0.0
C707 C 0.48695 0.12696 0.21843 0.0
C708 C 0.4776 0.11763 0.19139 0.0
H709 H 0.47838 0.15216 0.25581 0.0
H710 H 0.5076 0.12031 0.22648 0.0
S711 S 0.40813 0.13565 0.15745 0.0
N712 N 0.40744 0.1526 0.1883 0.0
N713 N 0.43914 0.11893 0.15649 0.0
C714 C 0.45052 0.12682 0.182 0.0
C715 C 0.43318 0.14498 0.1994 0.0
C716 C 0.14693 0.78908 0.05455 0.0
C717 C 0.15632 0.79835 0.08159 0.0
C718 C 0.12837 0.80583 0.03776 0.0
C719 C 0.11899 0.83286 0.04701 0.0
H720 H 0.15374 0.76858 0.04638 0.0
H721 H 0.12154 0.79764 0.01725 0.0
S722 S 0.13773 0.86729 0.11593 0.0
N723 N 0.15478 0.8365 0.1167 0.0
N724 N 0.12064 0.868 0.08513 0.0
C725 C 0.12847 0.84245 0.07389 0.0
C726 C 0.14689 0.82523 0.09115 0.0
C727 C 0.45121 0.89934 0.34066 0.0
C728 C 0.47818 0.90885 0.33132 0.0
C729 C 0.4336 0.88239 0.32325 0.0
C730 C 0.44236 0.87363 0.29588 0.0
H731 H 0.44336 0.90534 0.36155 0.0
H732 H 0.41309 0.87568 0.33159 0.0
S733 S 0.51103 0.89258 0.26106 0.0
N734 N 0.51264 0.90845 0.29249 0.0
N735 N 0.47994 0.8759 0.26017 0.0
C736 C 0.46935 0.88281 0.28625 0.0
C737 C 0.4871 0.90059 0.30381 0.0
C738 C 0.37893 0.23337 0.55769 0.0
C739 C 0.36995 0.22426 0.58492 0.0
C740 C 0.3975 0.21667 0.54086 0.0
C741 C 0.40731 0.18985 0.55026 0.0
H742 H 0.37175 0.25368 0.54936 0.0
H743 H 0.40394 0.22472 0.52017 0.0
S744 S 0.39002 0.15599 0.61981 0.0
N745 N 0.37255 0.18654 0.62044 0.0
N746 N 0.40668 0.15515 0.5888 0.0
C747 C 0.39834 0.18045 0.57737 0.0
C748 C 0.37991 0.19763 0.59467 0.0
C749 C 0.05663 0.14401 0.79021 0.0
C750 C 0.08377 0.15342 0.79932 0.0
C751 C 0.03958 0.12616 0.80746 0.0
C752 C 0.04861 0.11753 0.83485 0.0
H753 H 0.04859 0.15022 0.76945 0.0
H754 H 0.01905 0.11925 0.79933 0.0
S755 S 0.11762 0.13671 0.8691 0.0
N756 N 0.11869 0.15273 0.83777 0.0
N757 N 0.08662 0.11998 0.87018 0.0
C758 C 0.07555 0.12709 0.84431 0.0
C759 C 0.0931 0.14477 0.82658 0.0
C760 C 0.23527 0.4656 0.15378 0.0
C761 C 0.22553 0.43895 0.16376 0.0
C762 C 0.21878 0.48225 0.13481 0.0
C763 C 0.19152 0.47331 0.12555 0.0
H764 H 0.256 0.47351 0.16034 0.0
H765 H 0.2274 0.5024 0.12752 0.0
S766 S 0.15576 0.40558 0.14596 0.0
N767 N 0.18661 0.40464 0.16301 0.0
N768 N 0.1556 0.43594 0.12817 0.0
C769 C 0.18141 0.44689 0.13572 0.0
C770 C 0.19839 0.42975 0.15456 0.0
C771 C 0.73502 0.0593 0.87692 0.0
C772 C 0.72656 0.08713 0.86924 0.0
C773 C 0.71806 0.04216 0.89495 0.0
C774 C 0.69157 0.05182 0.90548 0.0
H775 H 0.75498 0.05069 0.86902 0.0
H776 H 0.7256 0.02099 0.90033 0.0
S777 S 0.65948 0.12297 0.89181 0.0
N778 N 0.68988 0.12353 0.87399 0.0
N779 N 0.65795 0.0913 0.90708 0.0
C780 C 0.68286 0.07956 0.8979 0.0
C781 C 0.70034 0.09719 0.88005 0.0
C782 C 0.7877 0.96562 0.37534 0.0
C783 C 0.7973 0.93877 0.36581 0.0
C784 C 0.80438 0.98253 0.39384 0.0
C785 C 0.83166 0.97362 0.403 0.0
H786 H 0.76699 0.97353 0.36871 0.0
H787 H 0.79593 1.00287 0.40079 0.0
S788 S 0.86699 0.90532 0.38383 0.0
N789 N 0.83603 0.90422 0.36699 0.0
N790 N 0.86739 0.93602 0.401 0.0
C791 C 0.84158 0.94694 0.39338 0.0
C792 C 0.82443 0.92955 0.37502 0.0
C793 C 0.80535 0.0368 0.12889 0.0
C794 C 0.83249 0.04586 0.11949 0.0
C795 C 0.78831 0.05409 0.14672 0.0
C796 C 0.79738 0.08145 0.15526 0.0
H797 H 0.7973 0.01606 0.12268 0.0
H798 H 0.76776 0.04604 0.15362 0.0
S799 S 0.86645 0.11549 0.13612 0.0
N800 N 0.86748 0.08417 0.12014 0.0
N801 N 0.83545 0.11666 0.15283 0.0
C802 C 0.82435 0.09083 0.14575 0.0
C803 C 0.84187 0.07306 0.12812 0.0
C804 C 0.28958 0.55405 0.64627 0.0
C805 C 0.29864 0.58126 0.6553 0.0
C806 C 0.30654 0.53715 0.62802 0.0
C807 C 0.3336 0.54645 0.61862 0.0
H808 H 0.26907 0.54584 0.65311 0.0
H809 H 0.29849 0.51653 0.62145 0.0
S810 S 0.36757 0.61577 0.63653 0.0
N811 N 0.33665 0.61656 0.65341 0.0
N812 N 0.36856 0.58478 0.6199 0.0
C813 C 0.343 0.57348 0.62777 0.0
C814 C 0.32555 0.59086 0.64584 0.0
C815 C 0.23378 0.56369 0.37778 0.0
C816 C 0.2252 0.59064 0.36762 0.0
C817 C 0.21577 0.54714 0.39529 0.0
C818 C 0.18815 0.55652 0.40279 0.0
H819 H 0.25471 0.55542 0.37242 0.0
H820 H 0.22351 0.52671 0.40283 0.0
S821 S 0.15507 0.6252 0.38119 0.0
N822 N 0.187 0.62578 0.36627 0.0
N823 N 0.15316 0.5946 0.39845 0.0
C824 C 0.17921 0.58328 0.39247 0.0
C825 C 0.19771 0.60033 0.37512 0.0
C826 C 0.33819 0.44763 0.89788 0.0
C827 C 0.32923 0.47487 0.90681 0.0
C828 C 0.32119 0.43063 0.87994 0.0
C829 C 0.29461 0.44025 0.8696 0.0
H830 H 0.35847 0.43911 0.90507 0.0
H831 H 0.32924 0.40987 0.87379 0.0
S832 S 0.26116 0.51007 0.88628 0.0
N833 N 0.29169 0.51061 0.904 0.0
N834 N 0.26011 0.47901 0.8697 0.0
C835 C 0.28538 0.46754 0.87818 0.0
C836 C 0.30253 0.4847 0.89693 0.0
C837 C 0.62741 0.67853 0.95095 0.0
C838 C 0.61838 0.68702 0.97831 0.0
C839 C 0.64492 0.69604 0.93405 0.0
C840 C 0.65474 0.72268 0.94391 0.0
H841 H 0.62055 0.65827 0.94222 0.0
H842 H 0.65113 0.68836 0.91316 0.0
S843 S 0.63789 0.75477 0.01438 0.0
N844 N 0.6207 0.724 0.01459 0.0
N845 N 0.65425 0.75656 0.9832 0.0
C846 C 0.64615 0.73137 0.9714 0.0
C847 C 0.62782 0.71369 0.98845 0.0
C848 C 0.58725 0.37564 0.20166 0.0
C849 C 0.57841 0.36601 0.22872 0.0
C850 C 0.56984 0.39338 0.18487 0.0
C851 C 0.54298 0.40285 0.19455 0.0
H852 H 0.60773 0.36912 0.1931 0.0
H853 H 0.57779 0.40008 0.16423 0.0
S854 S 0.50971 0.38407 0.26397 0.0
N855 N 0.54068 0.36717 0.26436 0.0
N856 N 0.50835 0.40118 0.23318 0.0
C857 C 0.53388 0.39359 0.22168 0.0
C858 C 0.55144 0.37501 0.23861 0.0
C859 C 0.89709 0.34166 0.44667 0.0
C860 C 0.90758 0.33242 0.4733 0.0
C861 C 0.87912 0.32436 0.42997 0.0
C862 C 0.87028 0.29722 0.43934 0.0
H863 H 0.90313 0.36235 0.43838 0.0
H864 H 0.87178 0.33259 0.40965 0.0
S865 S 0.89123 0.26298 0.50766 0.0
N866 N 0.90775 0.2941 0.50823 0.0
N867 N 0.87337 0.26199 0.47726 0.0
C868 C 0.88034 0.28777 0.46606 0.0
C869 C 0.89914 0.30521 0.48288 0.0
C870 C 0.93278 0.64049 0.70436 0.0
C871 C 0.94222 0.64971 0.73137 0.0
C872 C 0.94983 0.62305 0.68695 0.0
C873 C 0.97692 0.61348 0.69591 0.0
H874 H 0.91216 0.6472 0.69628 0.0
H875 H 0.94147 0.61676 0.66633 0.0
S876 S 1.01145 0.63077 0.76517 0.0
N877 N 0.98054 0.64774 0.76638 0.0
N878 N 1.01224 0.61431 0.73401 0.0
C879 C 0.98653 0.62218 0.72307 0.0
C880 C 0.96932 0.64045 0.74065 0.0
C881 C 0.62825 0.30597 0.54098 0.0
C882 C 0.61979 0.33349 0.54965 0.0
C883 C 0.64625 0.28897 0.55812 0.0
C884 C 0.65592 0.29851 0.58495 0.0
H885 H 0.62109 0.29755 0.52068 0.0
H886 H 0.65233 0.26806 0.55043 0.0
S887 S 0.64005 0.36886 0.61768 0.0
N888 N 0.62287 0.36947 0.58692 0.0
N889 N 0.65593 0.33749 0.61914 0.0
C890 C 0.64752 0.32591 0.5939 0.0
C891 C 0.6297 0.34339 0.57627 0.0
C892 C 0.96746 0.37985 0.79118 0.0
C893 C 0.94096 0.36919 0.80073 0.0
C894 C 0.98464 0.39733 0.80871 0.0
C895 C 0.9764 0.40438 0.83679 0.0
H896 H 0.97487 0.37494 0.76985 0.0
H897 H 1.00463 0.40524 0.8002 0.0
S898 S 0.90936 0.38123 0.87243 0.0
N899 N 0.90756 0.36681 0.84037 0.0
N900 N 0.93984 0.3989 0.87326 0.0
C901 C 0.95011 0.39351 0.84668 0.0
C902 C 0.93244 0.37617 0.8287 0.0
C903 C 0.88061 0.69985 0.09147 0.0
C904 C 0.87087 0.72651 0.08166 0.0
C905 C 0.89865 0.68265 0.07483 0.0
C906 C 0.90832 0.69153 0.0478 0.0
H907 H 0.87388 0.69188 0.1121 0.0
H908 H 0.90536 0.6623 0.08347 0.0
S909 S 0.88964 0.75979 1.01227 0.0
N910 N 0.87234 0.76102 0.04296 0.0
N911 N 0.90692 0.72908 1.01205 0.0
C912 C 0.89907 0.71832 0.03779 0.0
C913 C 0.88017 0.73565 0.05457 0.0
C914 C 0.5423 0.62465 0.30666 0.0
C915 C 0.55091 0.61616 0.33422 0.0
C916 C 0.55975 0.64219 0.28951 0.0
C917 C 0.58685 0.65138 0.29891 0.0
H918 H 0.52179 0.6179 0.29833 0.0
H919 H 0.55204 0.64835 0.2686 0.0
S920 S 0.61971 0.63481 0.36918 0.0
N921 N 0.58853 0.61841 0.36998 0.0
N922 N 0.62132 0.6506 0.33776 0.0
C923 C 0.59578 0.64282 0.32632 0.0
C924 C 0.57784 0.62546 0.34394 0.0
C925 C 0.7353 0.96288 0.64697 0.0
C926 C 0.72538 0.93576 0.65539 0.0
C927 C 0.7189 0.98072 0.62904 0.0
C928 C 0.69157 0.97251 0.61935 0.0
H929 H 0.75604 0.9703 0.65404 0.0
H930 H 0.72762 1.00122 0.62295 0.0
S931 S 0.65544 0.90388 0.63562 0.0
N932 N 0.68628 0.90175 0.65257 0.0
N933 N 0.65545 0.93525 0.61969 0.0
C934 C 0.68133 0.94558 0.62788 0.0
C935 C 0.6982 0.92725 0.64563 0.0
C936 C 0.25404 0.36212 0.3277 0.0
C937 C 0.23864 0.37094 0.30345 0.0
C938 C 0.24215 0.34327 0.34768 0.0
C939 C 0.214 0.33315 0.345 0.0
H940 H 0.27614 0.36846 0.33045 0.0
H941 H 0.25586 0.33537 0.36431 0.0
S942 S 0.16402 0.3506 0.28602 0.0
N943 N 0.19348 0.36825 0.27797 0.0
N944 N 0.17075 0.33386 0.31631 0.0
C945 C 0.1981 0.34227 0.32118 0.0
C946 C 0.21042 0.361 0.30037 0.0
C947 C 0.88349 0.98522 0.57103 0.0
C948 C 0.89176 0.97976 0.5427 0.0
C949 C 0.90077 0.97706 0.59404 0.0
C950 C 0.92704 0.963 0.58982 0.0
H951 H 0.86455 0.9977 0.57552 0.0
H952 H 0.89436 0.9836 0.61528 0.0
S953 S 0.95571 0.93822 0.52044 0.0
N954 N 0.92586 0.95505 0.51208 0.0
N955 N 0.95834 0.94003 0.55553 0.0
C956 C 0.93405 0.95452 0.56196 0.0
C957 C 0.9164 0.96284 0.53836 0.0
C958 C 0.29508 0.65322 0.84511 0.0
C959 C 0.30817 0.67993 0.84068 0.0
C960 C 0.28736 0.63562 0.82222 0.0
C961 C 0.29231 0.64395 0.79381 0.0
H962 H 0.28891 0.64669 0.86641 0.0
H963 H 0.27558 0.6163 0.82688 0.0
S964 S 0.33139 0.70915 0.771 0.0
N965 N 0.32976 0.71183 0.8061 0.0
N966 N 0.31557 0.67874 0.76288 0.0
C967 C 0.30832 0.66912 0.78925 0.0
C968 C 0.31619 0.6871 0.81273 0.0
C969 C 0.6391 0.03292 0.07291 0.0
C970 C 0.63069 0.03966 0.04487 0.0
C971 C 0.62213 0.04037 0.09636 0.0
C972 C 0.59604 0.05497 0.09291 0.0
H973 H 0.65792 0.02003 0.07675 0.0
H974 H 0.62864 0.03291 0.11727 0.0
S975 S 0.56706 0.0828 0.02478 0.0
N976 N 0.59662 0.06594 0.01553 0.0
N977 N 0.56474 0.07965 0.0598 0.0
C978 C 0.5889 0.06462 0.06545 0.0
C979 C 0.60622 0.05701 0.0414 0.0
C980 C 0.23426 0.65492 0.17713 0.0
C981 C 0.21958 0.68097 0.18028 0.0
C982 C 0.24252 0.6387 0.20082 0.0
C983 C 0.2365 0.64783 0.22877 0.0
H984 H 0.24123 0.64794 0.15621 0.0
H985 H 0.25547 0.61992 0.19716 0.0
S986 S 0.19323 0.71144 0.24829 0.0
N987 N 0.19545 0.71287 0.21316 0.0
N988 N 0.21061 0.68234 0.25789 0.0
C989 C 0.21897 0.67217 0.23205 0.0
C990 C 0.21057 0.68875 0.20776 0.0
C991 C 0.63999 0.99063 0.45128 0.0
C992 C 0.63228 0.98369 0.47945 0.0
C993 C 0.6223 0.98362 0.42819 0.0
C994 C 0.59615 0.96922 0.43213 0.0
H995 H 0.65881 1.00339 0.44708 0.0
H996 H 0.62834 0.99121 0.4072 0.0
S997 S 0.56885 0.94083 0.50068 0.0
N998 N 0.59879 0.95734 0.50935 0.0
N999 N 0.56556 0.94443 0.46578 0.0
C1000 C 0.58967 0.95936 0.45966 0.0
C1001 C 0.60772 0.96653 0.48335 0.0
C1002 C 0.29411 0.36935 0.6785 0.0
C1003 C 0.30757 0.34276 0.68241 0.0
C1004 C 0.28641 0.38651 0.70173 0.0
C1005 C 0.29174 0.3778 0.72997 0.0
H1006 H 0.28765 0.37614 0.65736 0.0
H1007 H 0.27434 0.40575 0.69747 0.0
S1008 S 0.33188 0.31277 0.75145 0.0
N1009 N 0.32994 0.31062 0.71633 0.0
N1010 N 0.31575 0.34284 0.76016 0.0
C1011 C 0.30811 0.35277 0.734 0.0
C1012 C 0.31598 0.33526 0.71019 0.0
C1013 C 0.88627 0.03224 0.95273 0.0
C1014 C 0.89435 0.03818 0.98103 0.0
C1015 C 0.90393 0.03957 0.92977 0.0
C1016 C 0.93034 0.05334 0.93402 0.0
H1017 H 0.86718 0.01995 0.94828 0.0
H1018 H 0.89769 0.03265 0.90859 0.0
S1019 S 0.95879 0.07913 1.0031 0.0
N1020 N 0.92858 0.06298 1.01151 0.0
N1021 N 0.96171 0.07653 0.96808 0.0
C1022 C 0.93723 0.06232 0.96173 0.0
C1023 C 0.91924 0.05479 0.9853 0.0
C1024 C 0.31733 0.21613 0.33405 0.0
C1025 C 0.34526 0.22298 0.34269 0.0
C1026 C 0.29356 0.22566 0.34977 0.0
C1027 C 0.29694 0.24247 0.37456 0.0
H1028 H 0.31371 0.20548 0.31386 0.0
H1029 H 0.27245 0.2217 0.34116 0.0
S1030 S 0.3658 0.2604 0.40945 0.0
N1031 N 0.37502 0.24314 0.38017 0.0
N1032 N 0.33053 0.2612 0.40941 0.0
C1033 C 0.3248 0.24684 0.38487 0.0
C1034 C 0.34889 0.23702 0.36903 0.0
C1035 C 0.03449 0.06677 0.63638 0.0
C1036 C 0.04009 0.03861 0.62768 0.0
C1037 C 0.04232 0.09005 0.61937 0.0
C1038 C 0.0562 0.08628 0.59296 0.0
H1039 H 0.02212 0.07092 0.65546 0.0
H1040 H 0.03568 0.11113 0.62613 0.0
S1041 S 0.08133 0.01749 0.56321 0.0
N1042 N 0.06477 1.00865 0.59303 0.0
N1043 N 0.07923 0.05257 0.56108 0.0
C1044 C 0.06485 0.05858 0.58552 0.0
C1045 C 0.05684 0.03472 0.60288 0.0
C1046 C 0.17706 0.79149 0.86886 0.0
C1047 C 0.18049 0.80492 0.84217 0.0
C1048 C 0.20059 0.78448 0.88597 0.0
C1049 C 0.22868 0.79049 0.87712 0.0
H1050 H 0.15609 0.78457 0.87578 0.0
H1051 H 0.19673 0.77244 0.90531 0.0
S1052 S 0.24882 0.83069 0.81171 0.0
N1053 N 0.2137 0.82788 0.80973 0.0
N1054 N 0.25811 0.81497 0.84186 0.0
C1055 C 0.23217 0.80677 0.85196 0.0
C1056 C 0.20804 0.81394 0.8345 0.0
C1057 C 0.46995 0.9848 0.10202 0.0
C1058 C 0.48299 0.97946 0.12873 0.0
C1059 C 0.46205 0.96239 0.08369 0.0
C1060 C 0.4668 0.93392 0.09153 0.0
H1061 H 0.46802 1.00639 0.09407 0.0
H1062 H 0.45469 0.96746 0.06236 0.0
S1063 S 0.49319 0.90818 0.1616 0.0
N1064 N 0.49502 0.94326 0.16396 0.0
N1065 N 0.48025 0.90137 0.12953 0.0
C1066 C 0.47656 0.92827 0.11937 0.0
C1067 C 0.4846 0.95098 0.138 0.0
C1068 C 0.34698 0.79034 0.15495 0.0
C1069 C 0.34241 0.80646 0.17991 0.0
C1070 C 0.3245 0.78312 0.13664 0.0
C1071 C 0.29622 0.7912 0.14274 0.0
H1072 H 0.36791 0.78165 0.15034 0.0
H1073 H 0.32917 0.76921 0.11879 0.0
S1074 S 0.27352 0.83788 0.20277 0.0
N1075 N 0.30823 0.83371 0.20766 0.0
N1076 N 0.26559 0.81994 0.17349 0.0
C1077 C 0.29174 0.8097 0.16616 0.0
C1078 C 0.3149 0.81734 0.18471 0.0
C1079 C 0.46975 0.04151 0.42187 0.0
C1080 C 0.48273 0.0458 0.39498 0.0
C1081 C 0.46169 0.06463 0.4392 0.0
C1082 C 0.46624 0.09281 0.43019 0.0
H1083 H 0.46794 0.02026 0.43072 0.0
H1084 H 0.45436 0.06038 0.46071 0.0
S1085 S 0.49244 0.11563 0.35903 0.0
N1086 N 0.49452 0.0805 0.35824 0.0
N1087 N 0.47941 0.12374 0.39073 0.0
C1088 C 0.47592 0.0973 0.4021 0.0
C1089 C 0.48415 0.07386 0.3845 0.0
C1090 C 0.21044 0.20919 0.68855 0.0
C1091 C 0.1822 0.21336 0.67928 0.0
C1092 C 0.23368 0.21776 0.67153 0.0
C1093 C 0.22948 0.2309 0.64469 0.0
H1094 H 0.2146 0.20168 0.71002 0.0
H1095 H 0.25493 0.21615 0.68056 0.0
S1096 S 0.15969 0.24007 0.60817 0.0
N1097 N 0.15142 0.22658 0.63964 0.0
N1098 N 0.19488 0.24267 0.60779 0.0
C1099 C 0.20142 0.23212 0.634 0.0
C1100 C 0.17785 0.22336 0.65127 0.0
C1101 C 0.04397 0.92684 0.90175 0.0
C1102 C 0.05768 0.93043 0.9283 0.0
C1103 C 0.03676 0.95022 0.8846 0.0
C1104 C 0.0428 0.97827 0.89333 0.0
H1105 H 0.03691 0.90589 0.89503 0.0
H1106 H 0.02439 0.94627 0.86546 0.0
S1107 S 0.0842 0.99871 0.95797 0.0
N1108 N 0.08129 0.9637 0.96022 0.0
N1109 N 0.06801 1.00782 0.928 0.0
C1110 C 0.05955 0.98189 0.9182 0.0
C1111 C 0.06693 0.95793 0.93569 0.0
C1112 C 0.37482 0.34533 0.22861 0.0
C1113 C 0.34718 0.34134 0.21728 0.0
C1114 C 0.39265 0.32217 0.2349 0.0
C1115 C 0.38358 0.29397 0.23018 0.0
H1116 H 0.38191 0.36643 0.23483 0.0
H1117 H 0.41266 0.32641 0.24572 0.0
S1118 S 0.31599 0.2725 0.19425 0.0
N1119 N 0.31372 0.30754 0.19677 0.0
N1120 N 0.34725 0.26384 0.20814 0.0
C1121 C 0.35753 0.28995 0.21536 0.0
C1122 C 0.33932 0.31368 0.20901 0.0
C1123 C 0.84013 0.20889 0.80751 0.0
C1124 C 0.8435 0.18224 0.79424 0.0
C1125 C 0.85835 0.23187 0.8008 0.0
C1126 C 0.88088 0.22891 0.78092 0.0
H1127 H 0.82222 0.2126 0.82166 0.0
H1128 H 0.85367 0.25249 0.81007 0.0
S1129 S 0.9017 0.16188 0.74415 0.0
N1130 N 0.87297 0.1534 0.76262 0.0
N1131 N 0.90773 0.19576 0.75131 0.0
C1132 C 0.88601 0.20155 0.7697 0.0
C1133 C 0.86716 0.17848 0.77596 0.0
C1134 C 0.07602 0.63556 0.03836 0.0
C1135 C 0.04768 0.6272 0.04389 0.0
C1136 C 0.09916 0.61844 0.04653 0.0
C1137 C 0.09509 0.59221 0.06064 0.0
H1138 H 0.0804 0.65448 0.02585 0.0
H1139 H 0.12038 0.62494 0.03994 0.0
S1140 S 0.02576 0.56328 0.08549 0.0
N1141 N 0.01723 0.59302 0.06865 0.0
N1142 N 0.06091 0.56084 0.08365 0.0
C1143 C 0.06723 0.5851 0.06914 0.0
C1144 C 0.04349 0.60259 0.06083 0.0
C1145 C 0.63711 0.81796 0.28326 0.0
C1146 C 0.6466 0.79018 0.28944 0.0
C1147 C 0.65349 0.84184 0.29062 0.0
C1148 C 0.68005 0.83906 0.30455 0.0
H1149 H 0.61788 0.82133 0.27083 0.0
H1150 H 0.64615 0.86258 0.28355 0.0
S1151 S 0.71169 0.77166 0.33112 0.0
N1152 N 0.68209 0.76166 0.31474 0.0
N1153 N 0.71287 0.80672 0.32829 0.0
C1154 C 0.68824 0.81177 0.31377 0.0
C1155 C 0.67153 0.78729 0.30627 0.0
C1156 C 0.95068 0.88385 0.03527 0.0
C1157 C 0.97891 0.89279 0.04043 0.0
C1158 C 0.92732 0.90055 0.04362 0.0
C1159 C 0.93108 0.9269 0.05759 0.0
H1160 H 0.9465 0.8648 0.02289 0.0
H1161 H 0.90614 0.89366 0.03728 0.0
S1162 S 1.00015 0.9573 0.08148 0.0
N1163 N 1.00903 0.92766 0.06468 0.0
N1164 N 0.96493 0.95904 0.08007 0.0
C1165 C 0.95891 0.93458 0.06575 0.0
C1166 C 0.98286 0.91754 0.05723 0.0
C1167 C 0.15251 0.67417 0.73126 0.0
C1168 C 0.17876 0.67822 0.71711 0.0
C1169 C 0.13494 0.69722 0.73856 0.0
C1170 C 0.14291 0.72543 0.73216 0.0
H1171 H 0.14633 0.65311 0.73851 0.0
H1172 H 0.11602 0.69294 0.75115 0.0
S1173 S 0.20676 0.74699 0.6901 0.0
N1174 N 0.20975 0.71204 0.69309 0.0
N1175 N 0.17677 0.75556 0.70655 0.0
C1176 C 0.16756 0.72948 0.71518 0.0
C1177 C 0.18548 0.70583 0.70771 0.0
C1178 C 0.04166 0.42461 0.46436 0.0
C1179 C 0.04666 0.39804 0.4777 0.0
C1180 C 0.06433 0.44285 0.45686 0.0
C1181 C 0.09282 0.4352 0.46242 0.0
H1182 H 0.02006 0.43244 0.46163 0.0
H1183 H 0.05933 0.46395 0.4489 0.0
S1184 S 0.11788 0.36547 0.49032 0.0
N1185 N 0.08269 0.36314 0.49119 0.0
N1186 N 0.12505 0.39736 0.47724 0.0
C1187 C 0.09821 0.40753 0.47276 0.0
C1188 C 0.07521 0.38896 0.48033 0.0
C1189 C 0.45923 0.58092 0.96102 0.0
C1190 C 0.43123 0.59069 0.96552 0.0
C1191 C 0.48288 0.59768 0.96894 0.0
C1192 C 0.47932 0.62475 0.98171 0.0
H1193 H 0.46292 0.55929 0.9538 0.0
H1194 H 0.50394 0.58828 0.96719 0.0
S1195 S 0.41028 0.66253 0.9913 0.0
N1196 N 0.40129 0.631 0.97849 0.0
N1197 N 0.44551 0.6624 0.99333 0.0
C1198 C 0.45146 0.63593 0.98313 0.0
C1199 C 0.42748 0.61891 0.97505 0.0
C1200 C 0.7291 0.86555 0.84575 0.0
C1201 C 0.71569 0.83886 0.84234 0.0
C1202 C 0.73664 0.88236 0.82222 0.0
C1203 C 0.73122 0.87319 0.79414 0.0
H1204 H 0.7356 0.87271 0.86676 0.0
H1205 H 0.74864 0.90171 0.82612 0.0
S1206 S 0.69133 0.80763 0.77388 0.0
N1207 N 0.69338 0.80607 0.80902 0.0
N1208 N 0.7073 0.83763 0.76461 0.0
C1209 C 0.71496 0.84802 0.79058 0.0
C1210 C 0.70725 0.83087 0.81471 0.0
C1211 C 0.40041 0.48222 0.09869 0.0
C1212 C 0.42619 0.46703 0.09523 0.0
C1213 C 0.3834 0.48976 0.07526 0.0
C1214 C 0.39139 0.48256 0.04725 0.0
H1215 H 0.39422 0.49 0.11953 0.0
H1216 H 0.36486 0.5031 0.07912 0.0
S1217 S 0.45384 0.43776 0.02718 0.0
N1218 N 0.45659 0.44127 0.06213 0.0
N1219 N 0.4246 0.45519 0.01796 0.0
C1220 C 0.41548 0.46464 0.04379 0.0
C1221 C 0.43284 0.45695 0.06782 0.0
C1222 C 0.79555 0.15316 0.3443 0.0
C1223 C 0.80854 0.17994 0.34006 0.0
C1224 C 0.7875 0.13588 0.32127 0.0
C1225 C 0.79199 0.14464 0.29292 0.0
H1226 H 0.78972 0.1463 0.3656 0.0
H1227 H 0.77581 0.11647 0.32582 0.0
S1228 S 0.83058 0.21026 0.27046 0.0
N1229 N 0.82952 0.2124 0.30562 0.0
N1230 N 0.8147 0.17994 0.26215 0.0
C1231 C 0.8079 0.16991 0.28848 0.0
C1232 C 0.81611 0.18755 0.31209 0.0
C1233 C 0.11988 0.5471 0.59367 0.0
C1234 C 0.09255 0.55949 0.59127 0.0
C1235 C 0.1365 0.54114 0.56955 0.0
C1236 C 0.12648 0.5472 0.54189 0.0
H1237 H 0.12775 0.54011 0.61427 0.0
H1238 H 0.15643 0.5298 0.57261 0.0
S1239 S 0.05893 0.58522 0.52443 0.0
N1240 N 0.05817 0.58176 0.55948 0.0
N1241 N 0.08937 0.57081 0.51398 0.0
C1242 C 0.1006 0.56257 0.53943 0.0
C1243 C 0.08365 0.56867 0.56416 0.0
C1244 C 0.70668 0.18679 0.71065 0.0
C1245 C 0.71282 0.17832 0.68259 0.0
C1246 C 0.71344 0.16903 0.73387 0.0
C1247 C 0.72664 0.1422 0.72983 0.0
H1248 H 0.69913 0.2082 0.7149 0.0
H1249 H 0.71051 0.17752 0.75515 0.0
S1250 S 0.73976 0.10749 0.65985 0.0
N1251 N 0.72738 0.13941 0.65164 0.0
N1252 N 0.73994 0.10601 0.69505 0.0
C1253 C 0.72934 0.13217 0.70165 0.0
C1254 C 0.72254 0.15028 0.67809 0.0
C1255 C 0.12244 0.47874 0.93243 0.0
C1256 C 0.09578 0.46529 0.93634 0.0
C1257 C 0.13983 0.48617 0.95563 0.0
C1258 C 0.13133 0.48061 0.98389 0.0
H1259 H 0.12915 0.4853 0.9113 0.0
H1260 H 0.15914 0.49816 0.95135 0.0
S1261 S 0.06605 0.44075 1.00537 0.0
N1262 N 0.06368 0.44293 0.97028 0.0
N1263 N 0.09632 0.45665 0.01406 0.0
C1264 C 0.10615 0.4644 0.98791 0.0
C1265 C 0.08841 0.45679 0.96411 0.0
C1266 C 0.80442 0.85291 0.23035 0.0
C1267 C 0.78998 0.879 0.22583 0.0
C1268 C 0.81267 0.83544 0.20739 0.0
C1269 C 0.80681 0.84349 0.17913 0.0
H1270 H 0.80736 0.84474 0.25177 0.0
H1271 H 0.82131 0.8145 0.21194 0.0
S1272 S 0.7763 0.91258 0.15541 0.0
N1273 N 0.77524 0.91415 0.1906 0.0
N1274 N 0.79067 0.88139 0.14765 0.0
C1275 C 0.7955 0.87088 0.17426 0.0
C1276 C 0.78711 0.88863 0.19755 0.0
C1277 C 0.38718 0.53268 0.45088 0.0
C1278 C 0.39536 0.53851 0.47918 0.0
C1279 C 0.40459 0.5404 0.42783 0.0
C1280 C 0.43092 0.5544 0.43197 0.0
H1281 H 0.36816 0.52027 0.44647 0.0
H1282 H 0.39821 0.53362 0.40666 0.0
S1283 S 0.45961 0.57978 0.50116 0.0
N1284 N 0.42961 0.5633 0.50961 0.0
N1285 N 0.4623 0.57753 0.4661 0.0
C1286 C 0.43791 0.56315 0.45976 0.0
C1287 C 0.42015 0.55526 0.4834 0.0
C1288 C 0.82237 0.73482 0.89065 0.0
C1289 C 0.79419 0.72865 0.88219 0.0
C1290 C 0.84573 0.72702 0.87368 0.0
C1291 C 0.84201 0.71262 0.84754 0.0
H1292 H 0.82645 0.74758 0.90948 0.0
H1293 H 0.8668 0.7341 0.88019 0.0
S1294 S 0.77331 0.68605 0.81853 0.0
N1295 N 0.76434 0.70297 0.84811 0.0
N1296 N 0.80843 0.6886 0.81622 0.0
C1297 C 0.81435 0.70345 0.84039 0.0
C1298 C 0.79041 0.71141 0.85771 0.0
C1299 C 0.55345 0.53651 0.10494 0.0
C1300 C 0.54009 0.54158 0.13152 0.0
C1301 C 0.56175 0.55911 0.08702 0.0
C1302 C 0.55704 0.58754 0.09509 0.0
H1303 H 0.55544 0.515 0.0968 0.0
H1304 H 0.56948 0.55422 0.06579 0.0
S1305 S 0.52962 0.61251 0.16507 0.0
N1306 N 0.52761 0.57741 0.16693 0.0
N1307 N 0.54313 0.61965 0.13334 0.0
C1308 C 0.54685 0.59288 0.12285 0.0
C1309 C 0.53841 0.56997 0.14106 0.0
C1310 C 0.67795 0.2913 0.3701 0.0
C1311 C 0.68132 0.30506 0.34358 0.0
C1312 C 0.70151 0.28404 0.38706 0.0
C1313 C 0.72958 0.29012 0.37822 0.0
H1314 H 0.65698 0.28433 0.37699 0.0
H1315 H 0.69768 0.27176 0.40626 0.0
S1316 S 0.74961 0.33111 0.31327 0.0
N1317 N 0.71448 0.32837 0.31134 0.0
N1318 N 0.75896 0.315 0.34319 0.0
C1319 C 0.73303 0.30671 0.35325 0.0
C1320 C 0.70887 0.31413 0.33594 0.0
C1321 C 0.97078 0.48065 0.60251 0.0
C1322 C 0.9853 0.47564 0.62851 0.0
C1323 C 0.96296 0.45809 0.58432 0.0
C1324 C 0.9693 0.42973 0.59153 0.0
H1325 H 0.96745 0.50223 0.59499 0.0
H1326 H 0.9542 0.46309 0.56351 0.0
S1327 S 1.0004 0.40459 0.65996 0.0
N1328 N 1.00082 0.43969 0.66256 0.0
N1329 N 0.98609 0.39749 0.62855 0.0
C1330 C 0.98076 0.42428 0.6188 0.0
C1331 C 0.98876 0.44716 0.63725 0.0
C1332 C 0.84482 0.30044 0.65255 0.0
C1333 C 0.84134 0.31331 0.67953 0.0
C1334 C 0.82139 0.29059 0.63675 0.0
C1335 C 0.79334 0.2934 0.6471 0.0
H1336 H 0.86604 0.29584 0.64449 0.0
H1337 H 0.82553 0.27901 0.61721 0.0
S1338 S 0.77214 0.33174 0.71328 0.0
N1339 N 0.80741 0.33277 0.71354 0.0
N1340 N 0.76316 0.31483 0.68369 0.0
C1341 C 0.78932 0.30944 0.67233 0.0
C1342 C 0.81335 0.31933 0.68856 0.0
C1343 C 0.96294 0.56241 0.94124 0.0
C1344 C 0.96804 0.59048 0.93218 0.0
C1345 C 0.97085 0.5391 0.9241 0.0
C1346 C 0.9842 0.54308 0.89735 0.0
H1347 H 0.95525 0.55836 0.96267 0.0
H1348 H 0.96861 0.51791 0.933 0.0
S1349 S 0.99542 0.61262 0.86124 0.0
N1350 N 0.98216 0.62106 0.89276 0.0
N1351 N 0.99697 0.57745 0.86062 0.0
C1352 C 0.9862 0.57108 0.88679 0.0
C1353 C 0.97814 0.59472 0.9042 0.0
C1354 C 0.71347 0.70653 0.18775 0.0
C1355 C 0.68506 0.71031 0.17886 0.0
C1356 C 0.73635 0.71528 0.17036 0.0
C1357 C 0.73158 0.72821 0.14351 0.0
H1358 H 0.71804 0.69923 0.20921 0.0
H1359 H 0.75773 0.71402 0.17911 0.0
S1360 S 0.66116 0.73617 0.10788 0.0
N1361 N 0.65353 0.7228 0.13957 0.0
N1362 N 0.6963 0.73921 0.10697 0.0
C1363 C 0.70337 0.72893 0.13317 0.0
C1364 C 0.68017 0.72 0.15083 0.0
C1365 C 0.53755 0.44988 0.38643 0.0
C1366 C 0.54345 0.47807 0.39482 0.0
C1367 C 0.54503 0.42675 0.40379 0.0
C1368 C 0.55885 0.43073 0.43022 0.0
H1369 H 0.52516 0.44563 0.36738 0.0
H1370 H 0.53811 0.40566 0.39732 0.0
S1371 S 0.5849 0.4995 0.45911 0.0
N1372 N 0.56853 0.50818 0.42911 0.0
N1373 N 0.5823 0.4645 0.46172 0.0
C1374 C 0.56789 0.45837 0.43731 0.0
C1375 C 0.56025 0.48208 0.4196 0.0
C1376 C 0.86947 0.83925 0.73052 0.0
C1377 C 0.84282 0.8349 0.71716 0.0
C1378 C 0.88682 0.81633 0.73875 0.0
C1379 C 0.87824 0.78796 0.7341 0.0
H1380 H 0.87614 0.86056 0.73648 0.0
H1381 H 0.9061 0.82096 0.75068 0.0
S1382 S 0.81299 0.76527 0.69475 0.0
N1383 N 0.81068 0.80038 0.69581 0.0
N1384 N 0.84324 0.75708 0.71097 0.0
C1385 C 0.85312 0.78343 0.7179 0.0
C1386 C 0.83542 0.80694 0.70949 0.0
C1387 C 0.37379 0.68425 0.29614 0.0
C1388 C 0.34692 0.68773 0.30929 0.0
C1389 C 0.39089 0.70771 0.28901 0.0
C1390 C 0.38181 0.73575 0.29456 0.0
H1391 H 0.38084 0.66328 0.28947 0.0
H1392 H 0.41031 0.70379 0.27706 0.0
S1393 S 0.31609 0.75606 0.33431 0.0
N1394 N 0.31422 0.721 0.33179 0.0
N1395 N 0.34632 0.76525 0.31866 0.0
C1396 C 0.35653 0.73932 0.31071 0.0
C1397 C 0.3391 0.71528 0.31801 0.0
C1398 C 0.5758 0.13704 0.5348 0.0
C1399 C 0.54755 0.1287 0.54079 0.0
C1400 C 0.59907 0.11998 0.54272 0.0
C1401 C 0.59523 0.09381 0.55703 0.0
H1402 H 0.57999 0.15593 0.52219 0.0
H1403 H 0.62019 0.12649 0.53585 0.0
S1404 S 0.52627 0.06488 0.58288 0.0
N1405 N 0.51748 0.09455 0.56605 0.0
N1406 N 0.5614 0.06248 0.58059 0.0
C1407 C 0.56748 0.08669 0.56589 0.0
C1408 C 0.54362 0.10412 0.55783 0.0
C1409 C 0.15277 0.34405 0.79074 0.0
C1410 C 0.1788 0.34035 0.80544 0.0
C1411 C 0.1357 0.32077 0.78298 0.0
C1412 C 0.14394 0.29267 0.78948 0.0
H1413 H 0.14638 0.36504 0.78347 0.0
H1414 H 0.11696 0.32483 0.77002 0.0
S1415 S 0.20721 0.27189 0.83289 0.0
N1416 N 0.20977 0.30687 0.83004 0.0
N1417 N 0.17769 0.26295 0.81575 0.0
C1418 C 0.16832 0.28892 0.80695 0.0
C1419 C 0.18574 0.31279 0.81487 0.0
C1420 C 0.42871 0.40125 0.54417 0.0
C1421 C 0.43221 0.42784 0.55772 0.0
C1422 C 0.45223 0.38442 0.53656 0.0
C1423 C 0.48035 0.39349 0.54206 0.0
H1424 H 0.40766 0.39422 0.53757 0.0
H1425 H 0.44827 0.36516 0.52442 0.0
S1426 S 0.50081 0.45863 0.58249 0.0
N1427 N 0.46563 0.46034 0.58035 0.0
N1428 N 0.51001 0.42873 0.56632 0.0
C1429 C 0.48399 0.4185 0.55852 0.0
C1430 C 0.45988 0.43566 0.5663 0.0
C1431 C 0.63457 0.19898 0.23846 0.0
C1432 C 0.64276 0.22722 0.23247 0.0
C1433 C 0.65196 0.17591 0.23082 0.0
C1434 C 0.67825 0.17997 0.21673 0.0
H1435 H 0.61563 0.19466 0.251 0.0
H1436 H 0.64565 0.1548 0.23779 0.0
S1437 S 0.70674 0.2489 0.19069 0.0
N1438 N 0.67681 0.25746 0.20726 0.0
N1439 N 0.70947 0.21389 0.19317 0.0
C1440 C 0.68516 0.20766 0.20771 0.0
C1441 C 0.66742 0.23133 0.21552 0.0
C1442 C 0.57154 0.88776 0.98196 0.0
C1443 C 0.54337 0.89724 0.97747 0.0
C1444 C 0.59502 0.90477 0.97464 0.0
C1445 C 0.59145 0.93199 0.96239 0.0
H1446 H 0.57559 0.86797 0.99319 0.0
H1447 H 0.61614 0.89734 0.98054 0.0
S1448 S 0.52261 0.96424 0.94034 0.0
N1449 N 0.51351 0.9337 0.95533 0.0
N1450 N 0.55784 0.96565 0.94187 0.0
C1451 C 0.56369 0.94033 0.95468 0.0
C1452 C 0.5396 0.92297 0.96216 0.0
C1453 C 0.95017 0.13433 0.48797 0.0
C1454 C 0.97817 0.12539 0.48173 0.0
C1455 C 0.9265 0.11776 0.48028 0.0
C1456 C 0.92973 0.09156 0.46592 0.0
H1457 H 0.94647 0.15323 0.50073 0.0
H1458 H 0.90558 0.12461 0.48742 0.0
S1459 S 0.99779 0.06149 0.439 0.0
N1460 N 1.00733 0.09089 0.45588 0.0
N1461 N 0.96266 0.05972 0.44172 0.0
C1462 C 0.95721 0.08397 0.45662 0.0
C1463 C 0.98147 0.10088 0.46447 0.0
C1464 C 0.22816 0.40584 0.49437 0.0
C1465 C 0.23072 0.43242 0.48062 0.0
C1466 C 0.23921 0.38095 0.48204 0.0
C1467 C 0.25348 0.38172 0.45563 0.0
H1468 H 0.21532 0.40369 0.51347 0.0
H1469 H 0.23453 0.36077 0.49225 0.0
S1470 S 0.27308 0.44707 0.41539 0.0
N1471 N 0.2537 0.45881 0.44237 0.0
N1472 N 0.27494 0.41214 0.4194 0.0
C1473 C 0.2596 0.40864 0.44376 0.0
C1474 C 0.24811 0.43398 0.45622 0.0
C1475 C 0.88713 0.99852 0.71394 0.0
C1476 C 0.91348 0.98699 0.72289 0.0
C1477 C 0.86111 0.9876 0.72403 0.0
C1478 C 0.86044 0.96531 0.74407 0.0
H1479 H 0.88642 0.01441 0.69719 0.0
H1480 H 0.84141 0.99561 0.7149 0.0
S1481 S 0.92367 0.93169 0.77842 0.0
N1482 N 0.93738 0.95477 0.75563 0.0
N1483 N 0.88865 0.93486 0.77544 0.0
C1484 C 0.88669 0.95569 0.75538 0.0
C1485 C 0.91317 0.9664 0.7446 0.0
C1486 C 0.26872 0.63863 0.96347 0.0
C1487 C 0.27987 0.66484 0.97309 0.0
C1488 C 0.2789 0.61261 0.97416 0.0
C1489 C 0.30028 0.61176 0.99524 0.0
H1490 H 0.2536 0.63804 0.94597 0.0
H1491 H 0.27122 0.59304 0.96458 0.0
S1492 S 0.33209 0.6746 0.03173 0.0
N1493 N 0.31033 0.68845 1.0077 0.0
N1494 N 0.32904 0.6397 0.02843 0.0
C1495 C 0.30934 0.63788 1.00718 0.0
C1496 C 0.29929 0.66438 0.99591 0.0
C1497 C 0.66257 0.02756 0.22608 0.0
C1498 C 0.66327 0.04942 0.24658 0.0
C1499 C 0.63653 0.0167 0.21594 0.0
C1500 C 0.61019 0.02773 0.22547 0.0
H1501 H 0.68222 0.02001 0.21649 0.0
H1502 H 0.63718 1.00129 0.19874 0.0
S1503 S 0.60018 0.08104 0.28291 0.0
N1504 N 0.63518 0.07852 0.27928 0.0
N1505 N 0.58641 0.0585 0.25962 0.0
C1506 C 0.61058 0.04759 0.24786 0.0
C1507 C 0.63709 0.05833 0.25857 0.0
C1508 C 0.25844 0.63716 0.05984 0.0
C1509 C 0.24761 0.66296 0.04883 0.0
C1510 C 0.24794 0.61073 0.05049 0.0
C1511 C 0.22661 0.60905 0.02941 0.0
H1512 H 0.2734 0.63731 0.07749 0.0
H1513 H 0.25527 0.59161 0.0612 0.0
S1514 S 0.19621 0.67029 0.98915 0.0
N1515 N 0.21788 0.6851 0.01269 0.0
N1516 N 0.1987 0.63556 0.99437 0.0
C1517 C 0.21811 0.63461 0.01593 0.0
C1518 C 0.22843 0.66154 0.02587 0.0
C1519 C 0.63622 0.96383 0.26794 0.0
C1520 C 0.66291 0.97311 0.27836 0.0
C1521 C 0.61056 0.97462 0.27903 0.0
C1522 C 0.6106 0.99551 0.30052 0.0
H1523 H 0.63501 0.94643 0.25279 0.0
H1524 H 0.59061 0.96527 0.27194 0.0
S1525 S 0.67485 0.03111 0.33067 0.0
N1526 N 0.68782 1.00725 0.30826 0.0
N1527 N 0.63975 0.02808 0.32873 0.0
C1528 C 0.63714 1.00712 0.30888 0.0
C1529 C 0.66326 0.99576 0.29791 0.0
C1530 C 0.27869 0.41105 0.54998 0.0
C1531 C 0.29888 0.41164 0.52777 0.0
C1532 C 0.26797 0.38516 0.56049 0.0
C1533 C 0.27748 0.35883 0.54958 0.0
H1534 H 0.2726 0.43059 0.5607 0.0
H1535 H 0.25414 0.38585 0.579 0.0
S1536 S 0.32472 0.34874 0.487 0.0
N1537 N 0.32362 0.38362 0.49159 0.0
N1538 N 0.30422 0.33505 0.51219 0.0
C1539 C 0.29524 0.35918 0.52547 0.0
C1540 C 0.30569 0.38558 0.51431 0.0
C1541 C 0.89396 0.02239 0.7965 0.0
C1542 C 0.91405 0.04219 0.80712 0.0
C1543 C 0.86642 0.03105 0.78783 0.0
C1544 C 0.85797 0.05963 0.79037 0.0
H1545 H 0.89931 0.99997 0.79569 0.0
H1546 H 0.85144 0.01531 0.78001 0.0
S1547 S 0.90106 0.1194 0.819 0.0
N1548 N 0.92271 0.09168 0.8202 0.0
N1549 N 0.87087 0.10732 0.8054 0.0
C1550 C 0.8776 0.07946 0.80115 0.0
C1551 C 0.90569 0.07094 0.80912 0.0
C1552 C 0.50804 0.21283 0.38689 0.0
C1553 C 0.49721 0.2232 0.41298 0.0
C1554 C 0.49777 0.22299 0.36063 0.0
C1555 C 0.47673 0.24433 0.35941 0.0
H1556 H 0.52291 0.19514 0.38662 0.0
H1557 H 0.50523 0.21291 0.34122 0.0
S1558 S 0.44532 0.28222 0.42161 0.0
N1559 N 0.46708 0.25849 0.43592 0.0
N1560 N 0.44813 0.27807 0.38674 0.0
C1561 C 0.46779 0.25679 0.38533 0.0
C1562 C 0.47793 0.2461 0.41206 0.0
C1563 C 0.01804 0.21289 0.63371 0.0
C1564 C 0.03008 0.22116 0.60741 0.0
C1565 C 0.02862 0.22351 0.65966 0.0
C1566 C 0.05119 0.24326 0.66028 0.0
H1567 H 1.00205 0.19622 0.63452 0.0
H1568 H 0.02029 0.21478 0.67938 0.0
S1569 S 0.08543 0.27665 0.597 0.0
N1570 N 0.06242 0.25369 0.58341 0.0
N1571 N 0.08201 0.27413 0.63197 0.0
C1572 C 0.06107 0.25417 0.63401 0.0
C1573 C 0.05057 0.24301 0.60761 0.0
C1574 C 0.01734 0.80792 0.88647 0.0
C1575 C 0.02799 0.79808 0.91283 0.0
C1576 C 0.02769 0.79711 0.86054 0.0
C1577 C 0.04869 0.77568 0.85997 0.0
H1578 H 1.00262 0.82573 0.88571 0.0
H1579 H 0.02054 0.80693 0.84087 0.0
S1580 S 0.07861 0.73827 0.92324 0.0
N1581 N 0.05726 0.76276 0.93683 0.0
N1582 N 0.07615 0.74172 0.88826 0.0
C1583 C 0.05702 0.76342 0.8862 0.0
C1584 C 0.04686 0.77485 0.9126 0.0
C1585 C 0.50133 0.7972 0.12557 0.0
C1586 C 0.48174 0.8101 0.10664 0.0
C1587 C 0.49307 0.78911 0.15338 0.0
C1588 C 0.46527 0.79447 0.16321 0.0
H1589 H 0.52326 0.79393 0.11904 0.0
H1590 H 0.50858 0.77941 0.16748 0.0
S1591 S 0.4067 0.82973 0.12338 0.0
N1592 N 0.43351 0.82863 0.10058 0.0
N1593 N 0.41863 0.81432 0.15271 0.0
C1594 C 0.44571 0.80754 0.1447 0.0
C1595 C 0.45376 0.81511 0.11643 0.0
C1596 C 0.41449 0.47287 0.25095 0.0
C1597 C 0.41381 0.49374 0.22944 0.0
C1598 C 0.38918 0.46231 0.26302 0.0
C1599 C 0.36218 0.47179 0.25359 0.0
H1600 H 0.4346 0.46327 0.25721 0.0
H1601 H 0.39086 0.4448 0.27799 0.0
S1602 S 0.34884 0.53029 0.20213 0.0
N1603 N 0.38395 0.52684 0.20266 0.0
N1604 N 0.3365 0.50647 0.22494 0.0
C1605 C 0.36131 0.49466 0.23428 0.0
C1606 C 0.38711 0.50576 0.2223 0.0
C1607 C 0.80811 0.88528 0.01762 0.0
C1608 C 0.79814 0.9113 0.02889 0.0
C1609 C 0.79793 0.85905 0.02783 0.0
C1610 C 0.77699 0.85784 0.04928 0.0
H1611 H 0.82565 0.885 1.00255 0.0
H1612 H 0.80788 0.83966 0.02017 0.0
S1613 S 0.73935 0.91999 0.08106 0.0
N1614 N 0.76306 0.93427 0.05927 0.0
N1615 N 0.74336 0.88515 0.07808 0.0
C1616 C 0.76456 0.88373 0.05833 0.0
C1617 C 0.77529 0.91042 0.04824 0.0
C1618 C 0.16473 0.52579 0.72506 0.0
C1619 C 0.16508 0.54697 0.74627 0.0
C1620 C 0.13887 0.51503 0.71436 0.0
C1621 C 0.11235 0.52547 0.72408 0.0
H1622 H 0.1845 0.51882 0.71528 0.0
H1623 H 0.1398 0.50026 0.69662 0.0
S1624 S 0.10146 0.57639 0.78352 0.0
N1625 N 0.1365 0.57441 0.77996 0.0
N1626 N 0.08806 0.55458 0.75932 0.0
C1627 C 0.11241 0.5444 0.74726 0.0
C1628 C 0.13874 0.55505 0.75851 0.0
C1629 C 0.7442 0.90885 0.9757 0.0
C1630 C 0.72205 0.91005 0.99591 0.0
C1631 C 0.75475 0.88264 0.96584 0.0
C1632 C 0.74317 0.8566 0.97542 0.0
H1633 H 0.75225 0.92825 0.96609 0.0
H1634 H 0.77042 0.88294 0.94884 0.0
S1635 S 0.68913 0.84785 0.03248 0.0
N1636 N 0.6922 0.88269 0.02857 0.0
N1637 N 0.7117 0.8336 1.00948 0.0
C1638 C 0.72307 0.85746 0.99761 0.0
C1639 C 0.7126 0.88414 1.008 0.0
C1640 C 0.79772 0.16028 0.49364 0.0
C1641 C 0.77745 0.16144 0.47151 0.0
C1642 C 0.80728 0.13407 0.50453 0.0
C1643 C 0.79735 0.10801 0.49329 0.0
H1644 H 0.80762 0.17966 0.50138 0.0
H1645 H 0.82435 0.13436 0.52014 0.0
S1646 S 0.74001 0.09928 0.43947 0.0
N1647 N 0.74436 0.13411 0.44207 0.0
N1648 N 0.76289 0.08503 0.46218 0.0
C1649 C 0.77509 0.10889 0.47323 0.0
C1650 C 0.765 0.13557 0.46243 0.0
C1651 C 0.7585 0.13752 0.56275 0.0
C1652 C 0.7479 0.16376 0.55256 0.0
C1653 C 0.74813 0.11148 0.55221 0.0
C1654 C 0.72717 0.11066 0.53071 0.0
H1655 H 0.77309 0.13696 0.5807 0.0
H1656 H 0.75524 0.09194 0.56227 0.0
S1657 S 0.69715 0.17344 0.49264 0.0
N1658 N 0.71868 0.18729 0.51686 0.0
N1659 N 0.69952 0.13855 0.49657 0.0
C1660 C 0.71881 0.13674 0.51819 0.0
C1661 C 0.72908 0.16324 0.52924 0.0
C1662 C 0.11306 0.47474 0.78157 0.0
C1663 C 0.11279 0.49482 0.80383 0.0
C1664 C 0.13888 0.46467 0.77017 0.0
C1665 C 0.16542 0.47386 0.78104 0.0
H1666 H 0.09325 0.46537 0.77412 0.0
H1667 H 0.13791 0.44775 0.75448 0.0
S1668 S 0.17652 0.53036 0.83513 0.0
N1669 N 0.14147 0.52694 0.83303 0.0
N1670 N 0.18984 0.50738 0.81202 0.0
C1671 C 0.16544 0.49593 0.80125 0.0
C1672 C 0.13916 0.50658 0.81253 0.0
C1673 C 0.36496 0.53303 0.2994 0.0
C1674 C 0.36488 0.55496 0.27895 0.0
C1675 C 0.39066 0.52114 0.30923 0.0
C1676 C 0.41729 0.53115 0.29941 0.0
H1677 H 0.34514 0.52618 0.30916 0.0
H1678 H 0.38961 0.50571 0.32639 0.0
S1679 S 0.42876 0.584 0.24184 0.0
N1680 N 0.39373 0.58289 0.24588 0.0
N1681 N 0.4419 0.56097 0.26504 0.0
C1682 C 0.41744 0.55106 0.27708 0.0
C1683 C 0.39126 0.56285 0.26667 0.0
C1684 C 1.00662 0.71014 0.88921 0.0
C1685 C 0.99684 0.72096 0.91551 0.0
C1686 C 0.99547 0.72004 0.86322 0.0
C1687 C 0.97449 0.74149 0.86248 0.0
H1688 H 0.02128 0.69229 0.88865 0.0
H1689 H 1.00203 0.70953 0.84371 0.0
S1690 S 0.94632 0.78096 0.92527 0.0
N1691 N 0.96816 0.757 0.93909 0.0
N1692 N 0.94776 0.77632 0.89037 0.0
C1693 C 0.9669 0.75461 0.88852 0.0
C1694 C 0.97788 0.74412 0.915 0.0
C1695 C 0.55346 0.73801 0.11021 0.0
C1696 C 0.53088 0.71825 0.1094 0.0
C1697 C 0.56427 0.74809 0.13623 0.0
C1698 C 0.5533 0.73837 0.16248 0.0
H1699 H 0.56408 0.74437 0.09069 0.0
H1700 H 0.58288 0.76182 0.13569 0.0
S1701 S 0.49098 0.6907 0.17221 0.0
N1702 N 0.49512 0.6927 0.13728 0.0
N1703 N 0.51625 0.71099 0.18608 0.0
C1704 C 0.52922 0.72058 0.16199 0.0
C1705 C 0.51774 0.71078 0.13547 0.0
C1706 C 0.5582 0.26717 0.38629 0.0
C1707 C 0.5487 0.27848 0.36007 0.0
C1708 C 0.54842 0.27812 0.41239 0.0
C1709 C 0.52835 0.30039 0.41327 0.0
H1710 H 0.57505 0.25135 0.3868 0.0
H1711 H 0.55793 0.27024 0.43193 0.0
S1712 S 0.49246 0.33325 0.35056 0.0
N1713 N 0.51514 0.31019 0.33661 0.0
N1714 N 0.49622 0.33045 0.38548 0.0
C1715 C 0.51646 0.30974 0.38721 0.0
C1716 C 0.52678 0.29887 0.36065 0.0
C1717 C 0.96507 0.27038 0.63084 0.0
C1718 C 0.97579 0.28098 0.65688 0.0
C1719 C 0.9759 0.27988 0.60457 0.0
C1720 C 0.99819 0.29994 0.60336 0.0
H1721 H 0.94653 0.25657 0.63056 0.0
H1722 H 0.96533 0.27302 0.58518 0.0
S1723 S 0.03829 0.32867 0.66555 0.0
N1724 N 1.01311 0.3086 0.67985 0.0
N1725 N 0.03397 0.32607 0.63068 0.0
C1726 C 1.01139 0.30791 0.62926 0.0
C1727 C 1.00004 0.29855 0.65599 0.0
loop_
_geom_bond_atom_site_label_1
_geom_bond_atom_site_label_2
_geom_bond_distance
_geom_bond_site_symmetry_2
_ccdc_geom_bond_type
O0 Cd1 2.223 . S
O0 C8 1.315 . S
Cd1 O0 2.223 . S
Cd1 O4 2.297 . S
Cd1 O5 2.439 . S
Cd1 O11 2.240 . S
Cd2 O3 2.240 . S
Cd2 O10 2.223 . S
Cd2 O12 2.297 . S
Cd2 O13 2.439 . S
O3 Cd2 2.240 . S
O3 C8 1.279 . S
O4 Cd1 2.297 . S
O4 C6 1.247 . S
O5 Cd1 2.439 . S
O5 C6 1.208 . S
C6 O4 1.247 . S
C6 O5 1.208 . S
C7 O12 1.247 . S
C7 O13 1.208 . S
C8 O0 1.315 . S
C8 O3 1.279 . S
C9 O10 1.315 . S
C9 O11 1.279 . S
O10 Cd2 2.223 . S
O10 C9 1.315 . S
O11 Cd1 2.240 . S
O11 C9 1.279 . S
O12 Cd2 2.297 . S
O12 C7 1.247 . S
O13 Cd2 2.439 . S
O13 C7 1.208 . S
O14 Cd15 2.223 . S
O14 C22 1.315 . S
Cd15 O14 2.223 . S
Cd15 O18 2.297 . S
Cd15 O19 2.439 . S
Cd15 O25 2.240 1_455 S
Cd16 O17 2.240 1_655 S
Cd16 O24 2.223 . S
Cd16 O26 2.297 . S
Cd16 O27 2.439 . S
O17 Cd16 2.240 1_455 S
O17 C22 1.279 . S
O18 Cd15 2.297 . S
O18 C20 1.247 . S
O19 Cd15 2.439 . S
O19 C20 1.208 . S
C20 O18 1.247 . S
C20 O19 1.208 . S
C21 O26 1.247 . S
C21 O27 1.208 . S
C22 O14 1.315 . S
C22 O17 1.279 . S
C23 O24 1.315 . S
C23 O25 1.279 . S
O24 Cd16 2.223 . S
O24 C23 1.315 . S
O25 Cd15 2.240 1_655 S
O25 C23 1.279 . S
O26 Cd16 2.297 . S
O26 C21 1.247 . S
O27 Cd16 2.439 . S
O27 C21 1.208 . S
O28 Cd29 2.223 . S
O28 C36 1.315 . S
Cd29 O28 2.223 . S
Cd29 O32 2.297 . S
Cd29 O33 2.439 . S
Cd29 O39 2.240 . S
Cd30 O31 2.240 . S
Cd30 O38 2.223 . S
Cd30 O40 2.297 . S
Cd30 O41 2.439 . S
O31 Cd30 2.240 . S
O31 C36 1.279 . S
O32 Cd29 2.297 . S
O32 C34 1.247 . S
O33 Cd29 2.439 . S
O33 C34 1.208 . S
C34 O32 1.247 . S
C34 O33 1.208 . S
C35 O40 1.247 . S
C35 O41 1.208 . S
C36 O28 1.315 . S
C36 O31 1.279 . S
C37 O38 1.315 . S
C37 O39 1.279 . S
O38 Cd30 2.223 . S
O38 C37 1.315 . S
O39 Cd29 2.240 . S
O39 C37 1.279 . S
O40 Cd30 2.297 . S
O40 C35 1.247 . S
O41 Cd30 2.439 . S
O41 C35 1.208 . S
O42 Cd43 2.223 . S
O42 C50 1.315 . S
Cd43 O42 2.223 . S
Cd43 O46 2.297 . S
Cd43 O47 2.439 . S
Cd43 O53 2.240 . S
Cd44 O45 2.240 . S
Cd44 O52 2.223 . S
Cd44 O54 2.297 . S
Cd44 O55 2.439 . S
O45 Cd44 2.240 . S
O45 C50 1.279 . S
O46 Cd43 2.297 . S
O46 C48 1.247 . S
O47 Cd43 2.439 . S
O47 C48 1.208 . S
C48 O46 1.247 . S
C48 O47 1.208 . S
C49 O54 1.247 . S
C49 O55 1.208 . S
C50 O42 1.315 . S
C50 O45 1.279 . S
C51 O52 1.315 . S
C51 O53 1.279 . S
O52 Cd44 2.223 . S
O52 C51 1.315 . S
O53 Cd43 2.240 . S
O53 C51 1.279 . S
O54 Cd44 2.297 . S
O54 C49 1.247 . S
O55 Cd44 2.439 . S
O55 C49 1.208 . S
O56 Cd57 2.223 . S
O56 C64 1.315 . S
Cd57 O56 2.223 . S
Cd57 O60 2.297 . S
Cd57 O61 2.439 . S
Cd57 O67 2.240 . S
Cd58 O59 2.240 . S
Cd58 O66 2.223 . S
Cd58 O68 2.297 . S
Cd58 O69 2.439 . S
O59 Cd58 2.240 . S
O59 C64 1.279 . S
O60 Cd57 2.297 . S
O60 C62 1.247 . S
O61 Cd57 2.439 . S
O61 C62 1.208 . S
C62 O60 1.247 . S
C62 O61 1.208 . S
C63 O68 1.247 . S
C63 O69 1.208 . S
C64 O56 1.315 . S
C64 O59 1.279 . S
C65 O66 1.315 . S
C65 O67 1.279 . S
O66 Cd58 2.223 . S
O66 C65 1.315 . S
O67 Cd57 2.240 . S
O67 C65 1.279 . S
O68 Cd58 2.297 . S
O68 C63 1.247 . S
O69 Cd58 2.439 . S
O69 C63 1.208 . S
O70 Cd71 2.223 . S
O70 C78 1.315 . S
Cd71 O70 2.223 . S
Cd71 O74 2.297 . S
Cd71 O75 2.439 . S
Cd71 O81 2.240 . S
Cd72 O73 2.240 . S
Cd72 O80 2.223 . S
Cd72 O82 2.297 . S
Cd72 O83 2.439 . S
O73 Cd72 2.240 . S
O73 C78 1.279 . S
O74 Cd71 2.297 . S
O74 C76 1.247 . S
O75 Cd71 2.439 . S
O75 C76 1.208 . S
C76 O74 1.247 . S
C76 O75 1.208 . S
C77 O82 1.247 . S
C77 O83 1.208 . S
C78 O70 1.315 . S
C78 O73 1.279 . S
C79 O80 1.315 . S
C79 O81 1.279 . S
O80 Cd72 2.223 . S
O80 C79 1.315 . S
O81 Cd71 2.240 . S
O81 C79 1.279 . S
O82 Cd72 2.297 . S
O82 C77 1.247 . S
O83 Cd72 2.439 . S
O83 C77 1.208 . S
O84 Cd85 2.223 . S
O84 C92 1.315 . S
Cd85 O84 2.223 . S
Cd85 O88 2.297 . S
Cd85 O89 2.439 . S
Cd85 O95 2.240 . S
Cd86 O87 2.240 . S
Cd86 O94 2.223 . S
Cd86 O96 2.297 . S
Cd86 O97 2.439 . S
O87 Cd86 2.240 . S
O87 C92 1.279 . S
O88 Cd85 2.297 . S
O88 C90 1.247 . S
O89 Cd85 2.439 . S
O89 C90 1.208 . S
C90 O88 1.247 . S
C90 O89 1.208 . S
C91 O96 1.247 . S
C91 O97 1.208 . S
C92 O84 1.315 . S
C92 O87 1.279 . S
C93 O94 1.315 . S
C93 O95 1.279 . S
O94 Cd86 2.223 . S
O94 C93 1.315 . S
O95 Cd85 2.240 . S
O95 C93 1.279 . S
O96 Cd86 2.297 . S
O96 C91 1.247 . S
O97 Cd86 2.439 . S
O97 C91 1.208 . S
O98 Cd99 2.223 . S
O98 C106 1.315 . S
Cd99 O98 2.223 . S
Cd99 O102 2.297 . S
Cd99 O103 2.439 . S
Cd99 O109 2.240 1_455 S
Cd100 O101 2.240 1_655 S
Cd100 O108 2.223 . S
Cd100 O110 2.297 . S
Cd100 O111 2.439 . S
O101 Cd100 2.240 1_455 S
O101 C106 1.279 . S
O102 Cd99 2.297 . S
O102 C104 1.247 . S
O103 Cd99 2.439 . S
O103 C104 1.208 . S
C104 O102 1.247 . S
C104 O103 1.208 . S
C105 O110 1.247 . S
C105 O111 1.208 . S
C106 O98 1.315 . S
C106 O101 1.279 . S
C107 O108 1.315 . S
C107 O109 1.279 . S
O108 Cd100 2.223 . S
O108 C107 1.315 . S
O109 Cd99 2.240 1_655 S
O109 C107 1.279 . S
O110 Cd100 2.297 . S
O110 C105 1.247 . S
O111 Cd100 2.439 . S
O111 C105 1.208 . S
O112 Cd113 2.223 . S
O112 C120 1.315 . S
Cd113 O112 2.223 . S
Cd113 O116 2.297 . S
Cd113 O117 2.439 . S
Cd113 O123 2.240 . S
Cd114 O115 2.240 . S
Cd114 O122 2.223 . S
Cd114 O124 2.297 . S
Cd114 O125 2.439 . S
O115 Cd114 2.240 . S
O115 C120 1.279 . S
O116 Cd113 2.297 . S
O116 C118 1.247 . S
O117 Cd113 2.439 . S
O117 C118 1.208 . S
C118 O116 1.247 . S
C118 O117 1.208 . S
C119 O124 1.247 . S
C119 O125 1.208 . S
C120 O112 1.315 . S
C120 O115 1.279 . S
C121 O122 1.315 . S
C121 O123 1.279 . S
O122 Cd114 2.223 . S
O122 C121 1.315 . S
O123 Cd113 2.240 . S
O123 C121 1.279 . S
O124 Cd114 2.297 . S
O124 C119 1.247 . S
O125 Cd114 2.439 . S
O125 C119 1.208 . S
O126 Cd127 2.223 . S
O126 C134 1.315 . S
Cd127 O126 2.223 . S
Cd127 O130 2.297 . S
Cd127 O131 2.439 . S
Cd127 O137 2.240 . S
Cd128 O129 2.240 . S
Cd128 O136 2.223 . S
Cd128 O138 2.297 . S
Cd128 O139 2.439 . S
O129 Cd128 2.240 . S
O129 C134 1.279 . S
O130 Cd127 2.297 . S
O130 C132 1.247 . S
O131 Cd127 2.439 . S
O131 C132 1.208 . S
C132 O130 1.247 . S
C132 O131 1.208 . S
C133 O138 1.247 . S
C133 O139 1.208 . S
C134 O126 1.315 . S
C134 O129 1.279 . S
C135 O136 1.315 . S
C135 O137 1.279 . S
O136 Cd128 2.223 . S
O136 C135 1.315 . S
O137 Cd127 2.240 . S
O137 C135 1.279 . S
O138 Cd128 2.297 . S
O138 C133 1.247 . S
O139 Cd128 2.439 . S
O139 C133 1.208 . S
O140 Cd141 2.223 . S
O140 C148 1.315 . S
Cd141 O140 2.223 . S
Cd141 O144 2.297 . S
Cd141 O145 2.439 . S
Cd141 O151 2.240 . S
Cd142 O143 2.240 . S
Cd142 O150 2.223 . S
Cd142 O152 2.297 . S
Cd142 O153 2.439 . S
O143 Cd142 2.240 . S
O143 C148 1.279 . S
O144 Cd141 2.297 . S
O144 C146 1.247 . S
O145 Cd141 2.439 . S
O145 C146 1.208 . S
C146 O144 1.247 . S
C146 O145 1.208 . S
C147 O152 1.247 . S
C147 O153 1.208 . S
C148 O140 1.315 . S
C148 O143 1.279 . S
C149 O150 1.315 . S
C149 O151 1.279 . S
O150 Cd142 2.223 . S
O150 C149 1.315 . S
O151 Cd141 2.240 . S
O151 C149 1.279 . S
O152 Cd142 2.297 . S
O152 C147 1.247 . S
O153 Cd142 2.439 . S
O153 C147 1.208 . S
O154 Cd155 2.223 . S
O154 C162 1.315 . S
Cd155 O154 2.223 . S
Cd155 O158 2.297 . S
Cd155 O159 2.439 . S
Cd155 O165 2.240 1_556 S
Cd156 O157 2.240 1_554 S
Cd156 O164 2.223 . S
Cd156 O166 2.297 . S
Cd156 O167 2.439 . S
O157 Cd156 2.240 1_556 S
O157 C162 1.279 . S
O158 Cd155 2.297 . S
O158 C160 1.247 . S
O159 Cd155 2.439 . S
O159 C160 1.208 . S
C160 O158 1.247 . S
C160 O159 1.208 . S
C161 O166 1.247 . S
C161 O167 1.208 . S
C162 O154 1.315 . S
C162 O157 1.279 . S
C163 O164 1.315 . S
C163 O165 1.279 . S
O164 Cd156 2.223 . S
O164 C163 1.315 . S
O165 Cd155 2.240 1_554 S
O165 C163 1.279 . S
O166 Cd156 2.297 . S
O166 C161 1.247 . S
O167 Cd156 2.439 . S
O167 C161 1.208 . S
O168 Cd169 2.223 . S
O168 C176 1.315 . S
Cd169 O168 2.223 . S
Cd169 O172 2.297 . S
Cd169 O173 2.439 . S
Cd169 O179 2.240 . S
Cd170 O171 2.240 . S
Cd170 O178 2.223 . S
Cd170 O180 2.297 . S
Cd170 O181 2.439 . S
O171 Cd170 2.240 . S
O171 C176 1.279 . S
O172 Cd169 2.297 . S
O172 C174 1.247 . S
O173 Cd169 2.439 . S
O173 C174 1.208 . S
C174 O172 1.247 . S
C174 O173 1.208 . S
C175 O180 1.247 . S
C175 O181 1.208 . S
C176 O168 1.315 . S
C176 O171 1.279 . S
C177 O178 1.315 . S
C177 O179 1.279 . S
O178 Cd170 2.223 . S
O178 C177 1.315 . S
O179 Cd169 2.240 . S
O179 C177 1.279 . S
O180 Cd170 2.297 . S
O180 C175 1.247 . S
O181 Cd170 2.439 . S
O181 C175 1.208 . S
O182 Cd183 2.223 . S
O182 C190 1.315 . S
Cd183 O182 2.223 . S
Cd183 O186 2.297 . S
Cd183 O187 2.439 . S
Cd183 O193 2.240 . S
Cd184 O185 2.240 . S
Cd184 O192 2.223 . S
Cd184 O194 2.297 . S
Cd184 O195 2.439 . S
O185 Cd184 2.240 . S
O185 C190 1.279 . S
O186 Cd183 2.297 . S
O186 C188 1.247 . S
O187 Cd183 2.439 . S
O187 C188 1.208 . S
C188 O186 1.247 . S
C188 O187 1.208 . S
C189 O194 1.247 . S
C189 O195 1.208 . S
C190 O182 1.315 . S
C190 O185 1.279 . S
C191 O192 1.315 . S
C191 O193 1.279 . S
O192 Cd184 2.223 . S
O192 C191 1.315 . S
O193 Cd183 2.240 . S
O193 C191 1.279 . S
O194 Cd184 2.297 . S
O194 C189 1.247 . S
O195 Cd184 2.439 . S
O195 C189 1.208 . S
O196 Cd197 2.223 . S
O196 C204 1.315 . S
Cd197 O196 2.223 . S
Cd197 O200 2.297 . S
Cd197 O201 2.439 . S
Cd197 O207 2.240 . S
Cd198 O199 2.240 . S
Cd198 O206 2.223 . S
Cd198 O208 2.297 . S
Cd198 O209 2.439 . S
O199 Cd198 2.240 . S
O199 C204 1.279 . S
O200 Cd197 2.297 . S
O200 C202 1.247 . S
O201 Cd197 2.439 . S
O201 C202 1.208 . S
C202 O200 1.247 . S
C202 O201 1.208 . S
C203 O208 1.247 . S
C203 O209 1.208 . S
C204 O196 1.315 . S
C204 O199 1.279 . S
C205 O206 1.315 . S
C205 O207 1.279 . S
O206 Cd198 2.223 . S
O206 C205 1.315 . S
O207 Cd197 2.240 . S
O207 C205 1.279 . S
O208 Cd198 2.297 . S
O208 C203 1.247 . S
O209 Cd198 2.439 . S
O209 C203 1.208 . S
O210 Cd211 2.223 . S
O210 C218 1.315 . S
Cd211 O210 2.223 . S
Cd211 O214 2.297 . S
Cd211 O215 2.439 . S
Cd211 O221 2.240 1_554 S
Cd212 O213 2.240 1_556 S
Cd212 O220 2.223 . S
Cd212 O222 2.297 . S
Cd212 O223 2.439 . S
O213 Cd212 2.240 1_554 S
O213 C218 1.279 . S
O214 Cd211 2.297 . S
O214 C216 1.247 . S
O215 Cd211 2.439 . S
O215 C216 1.208 . S
C216 O214 1.247 . S
C216 O215 1.208 . S
C217 O222 1.247 . S
C217 O223 1.208 . S
C218 O210 1.315 . S
C218 O213 1.279 . S
C219 O220 1.315 . S
C219 O221 1.279 . S
O220 Cd212 2.223 . S
O220 C219 1.315 . S
O221 Cd211 2.240 1_556 S
O221 C219 1.279 . S
O222 Cd212 2.297 . S
O222 C217 1.247 . S
O223 Cd212 2.439 . S
O223 C217 1.208 . S
O224 Cd225 2.223 . S
O224 C232 1.315 . S
Cd225 O224 2.223 . S
Cd225 O228 2.297 . S
Cd225 O229 2.439 . S
Cd225 O235 2.240 . S
Cd226 O227 2.240 . S
Cd226 O234 2.223 . S
Cd226 O236 2.297 . S
Cd226 O237 2.439 . S
O227 Cd226 2.240 . S
O227 C232 1.279 . S
O228 Cd225 2.297 . S
O228 C230 1.247 . S
O229 Cd225 2.439 . S
O229 C230 1.208 . S
C230 O228 1.247 . S
C230 O229 1.208 . S
C231 O236 1.247 . S
C231 O237 1.208 . S
C232 O224 1.315 . S
C232 O227 1.279 . S
C233 O234 1.315 . S
C233 O235 1.279 . S
O234 Cd226 2.223 . S
O234 C233 1.315 . S
O235 Cd225 2.240 . S
O235 C233 1.279 . S
O236 Cd226 2.297 . S
O236 C231 1.247 . S
O237 Cd226 2.439 . S
O237 C231 1.208 . S
O238 Cd239 2.223 . S
O238 C246 1.315 . S
Cd239 O238 2.223 . S
Cd239 O242 2.297 . S
Cd239 O243 2.439 . S
Cd239 O249 2.240 . S
Cd240 O241 2.240 . S
Cd240 O248 2.223 . S
Cd240 O250 2.297 . S
Cd240 O251 2.439 . S
O241 Cd240 2.240 . S
O241 C246 1.279 . S
O242 Cd239 2.297 . S
O242 C244 1.247 . S
O243 Cd239 2.439 . S
O243 C244 1.208 . S
C244 O242 1.247 . S
C244 O243 1.208 . S
C245 O250 1.247 . S
C245 O251 1.208 . S
C246 O238 1.315 . S
C246 O241 1.279 . S
C247 O248 1.315 . S
C247 O249 1.279 . S
O248 Cd240 2.223 . S
O248 C247 1.315 . S
O249 Cd239 2.240 . S
O249 C247 1.279 . S
O250 Cd240 2.297 . S
O250 C245 1.247 . S
O251 Cd240 2.439 . S
O251 C245 1.208 . S
O252 Cd253 2.223 . S
O252 C260 1.315 . S
Cd253 O252 2.223 . S
Cd253 O256 2.297 . S
Cd253 O257 2.439 . S
Cd253 O263 2.240 . S
Cd254 O255 2.240 . S
Cd254 O262 2.223 . S
Cd254 O264 2.297 . S
Cd254 O265 2.439 . S
O255 Cd254 2.240 . S
O255 C260 1.279 . S
O256 Cd253 2.297 . S
O256 C258 1.247 . S
O257 Cd253 2.439 . S
O257 C258 1.208 . S
C258 O256 1.247 . S
C258 O257 1.208 . S
C259 O264 1.247 . S
C259 O265 1.208 . S
C260 O252 1.315 . S
C260 O255 1.279 . S
C261 O262 1.315 . S
C261 O263 1.279 . S
O262 Cd254 2.223 . S
O262 C261 1.315 . S
O263 Cd253 2.240 . S
O263 C261 1.279 . S
O264 Cd254 2.297 . S
O264 C259 1.247 . S
O265 Cd254 2.439 . S
O265 C259 1.208 . S
O266 Cd267 2.223 . S
O266 C274 1.315 . S
Cd267 O266 2.223 . S
Cd267 O270 2.297 . S
Cd267 O271 2.439 . S
Cd267 O277 2.240 . S
Cd268 O269 2.240 . S
Cd268 O276 2.223 . S
Cd268 O278 2.297 . S
Cd268 O279 2.439 . S
O269 Cd268 2.240 . S
O269 C274 1.279 . S
O270 Cd267 2.297 . S
O270 C272 1.247 . S
O271 Cd267 2.439 . S
O271 C272 1.208 . S
C272 O270 1.247 . S
C272 O271 1.208 . S
C273 O278 1.247 . S
C273 O279 1.208 . S
C274 O266 1.315 . S
C274 O269 1.279 . S
C275 O276 1.315 . S
C275 O277 1.279 . S
O276 Cd268 2.223 . S
O276 C275 1.315 . S
O277 Cd267 2.240 . S
O277 C275 1.279 . S
O278 Cd268 2.297 . S
O278 C273 1.247 . S
O279 Cd268 2.439 . S
O279 C273 1.208 . S
O280 Cd281 2.223 . S
O280 C288 1.315 . S
Cd281 O280 2.223 . S
Cd281 O284 2.297 . S
Cd281 O285 2.439 . S
Cd281 O291 2.240 1_545 S
Cd282 O283 2.240 1_565 S
Cd282 O290 2.223 . S
Cd282 O292 2.297 . S
Cd282 O293 2.439 . S
O283 Cd282 2.240 1_545 S
O283 C288 1.279 . S
O284 Cd281 2.297 . S
O284 C286 1.247 . S
O285 Cd281 2.439 . S
O285 C286 1.208 . S
C286 O284 1.247 . S
C286 O285 1.208 . S
C287 O292 1.247 . S
C287 O293 1.208 . S
C288 O280 1.315 . S
C288 O283 1.279 . S
C289 O290 1.315 . S
C289 O291 1.279 . S
O290 Cd282 2.223 . S
O290 C289 1.315 . S
O291 Cd281 2.240 1_565 S
O291 C289 1.279 . S
O292 Cd282 2.297 . S
O292 C287 1.247 . S
O293 Cd282 2.439 . S
O293 C287 1.208 . S
O294 Cd295 2.223 . S
O294 C302 1.315 . S
Cd295 O294 2.223 . S
Cd295 O298 2.297 . S
Cd295 O299 2.439 . S
Cd295 O305 2.240 . S
Cd296 O297 2.240 . S
Cd296 O304 2.223 . S
Cd296 O306 2.297 . S
Cd296 O307 2.439 . S
O297 Cd296 2.240 . S
O297 C302 1.279 . S
O298 Cd295 2.297 . S
O298 C300 1.247 . S
O299 Cd295 2.439 . S
O299 C300 1.208 . S
C300 O298 1.247 . S
C300 O299 1.208 . S
C301 O306 1.247 . S
C301 O307 1.208 . S
C302 O294 1.315 . S
C302 O297 1.279 . S
C303 O304 1.315 . S
C303 O305 1.279 . S
O304 Cd296 2.223 . S
O304 C303 1.315 . S
O305 Cd295 2.240 . S
O305 C303 1.279 . S
O306 Cd296 2.297 . S
O306 C301 1.247 . S
O307 Cd296 2.439 . S
O307 C301 1.208 . S
O308 Cd309 2.223 . S
O308 C316 1.315 . S
Cd309 O308 2.223 . S
Cd309 O312 2.297 . S
Cd309 O313 2.439 . S
Cd309 O319 2.240 . S
Cd310 O311 2.240 . S
Cd310 O318 2.223 . S
Cd310 O320 2.297 . S
Cd310 O321 2.439 . S
O311 Cd310 2.240 . S
O311 C316 1.279 . S
O312 Cd309 2.297 . S
O312 C314 1.247 . S
O313 Cd309 2.439 . S
O313 C314 1.208 . S
C314 O312 1.247 . S
C314 O313 1.208 . S
C315 O320 1.247 . S
C315 O321 1.208 . S
C316 O308 1.315 . S
C316 O311 1.279 . S
C317 O318 1.315 . S
C317 O319 1.279 . S
O318 Cd310 2.223 . S
O318 C317 1.315 . S
O319 Cd309 2.240 . S
O319 C317 1.279 . S
O320 Cd310 2.297 . S
O320 C315 1.247 . S
O321 Cd310 2.439 . S
O321 C315 1.208 . S
O322 Cd323 2.223 . S
O322 C330 1.315 . S
Cd323 O322 2.223 . S
Cd323 O326 2.297 . S
Cd323 O327 2.439 . S
Cd323 O333 2.240 . S
Cd324 O325 2.240 . S
Cd324 O332 2.223 . S
Cd324 O334 2.297 . S
Cd324 O335 2.439 . S
O325 Cd324 2.240 . S
O325 C330 1.279 . S
O326 Cd323 2.297 . S
O326 C328 1.247 . S
O327 Cd323 2.439 . S
O327 C328 1.208 . S
C328 O326 1.247 . S
C328 O327 1.208 . S
C329 O334 1.247 . S
C329 O335 1.208 . S
C330 O322 1.315 . S
C330 O325 1.279 . S
C331 O332 1.315 . S
C331 O333 1.279 . S
O332 Cd324 2.223 . S
O332 C331 1.315 . S
O333 Cd323 2.240 . S
O333 C331 1.279 . S
O334 Cd324 2.297 . S
O334 C329 1.247 . S
O335 Cd324 2.439 . S
O335 C329 1.208 . S
O336 Cd337 2.223 . S
O336 C344 1.315 . S
Cd337 O336 2.223 . S
Cd337 O340 2.297 . S
Cd337 O341 2.439 . S
Cd337 O347 2.240 . S
Cd338 O339 2.240 . S
Cd338 O346 2.223 . S
Cd338 O348 2.297 . S
Cd338 O349 2.439 . S
O339 Cd338 2.240 . S
O339 C344 1.279 . S
O340 Cd337 2.297 . S
O340 C342 1.247 . S
O341 Cd337 2.439 . S
O341 C342 1.208 . S
C342 O340 1.247 . S
C342 O341 1.208 . S
C343 O348 1.247 . S
C343 O349 1.208 . S
C344 O336 1.315 . S
C344 O339 1.279 . S
C345 O346 1.315 . S
C345 O347 1.279 . S
O346 Cd338 2.223 . S
O346 C345 1.315 . S
O347 Cd337 2.240 . S
O347 C345 1.279 . S
O348 Cd338 2.297 . S
O348 C343 1.247 . S
O349 Cd338 2.439 . S
O349 C343 1.208 . S
O350 Cd351 2.223 . S
O350 C358 1.315 . S
Cd351 O350 2.223 . S
Cd351 O354 2.297 . S
Cd351 O355 2.439 . S
Cd351 O361 2.240 . S
Cd352 O353 2.240 . S
Cd352 O360 2.223 . S
Cd352 O362 2.297 . S
Cd352 O363 2.439 . S
O353 Cd352 2.240 . S
O353 C358 1.279 . S
O354 Cd351 2.297 . S
O354 C356 1.247 . S
O355 Cd351 2.439 . S
O355 C356 1.208 . S
C356 O354 1.247 . S
C356 O355 1.208 . S
C357 O362 1.247 . S
C357 O363 1.208 . S
C358 O350 1.315 . S
C358 O353 1.279 . S
C359 O360 1.315 . S
C359 O361 1.279 . S
O360 Cd352 2.223 . S
O360 C359 1.315 . S
O361 Cd351 2.240 . S
O361 C359 1.279 . S
O362 Cd352 2.297 . S
O362 C357 1.247 . S
O363 Cd352 2.439 . S
O363 C357 1.208 . S
O364 Cd365 2.223 . S
O364 C372 1.315 . S
Cd365 O364 2.223 . S
Cd365 O368 2.297 . S
Cd365 O369 2.439 . S
Cd365 O375 2.240 . S
Cd366 O367 2.240 . S
Cd366 O374 2.223 . S
Cd366 O376 2.297 . S
Cd366 O377 2.439 . S
O367 Cd366 2.240 . S
O367 C372 1.279 . S
O368 Cd365 2.297 . S
O368 C370 1.247 . S
O369 Cd365 2.439 . S
O369 C370 1.208 . S
C370 O368 1.247 . S
C370 O369 1.208 . S
C371 O376 1.247 . S
C371 O377 1.208 . S
C372 O364 1.315 . S
C372 O367 1.279 . S
C373 O374 1.315 . S
C373 O375 1.279 . S
O374 Cd366 2.223 . S
O374 C373 1.315 . S
O375 Cd365 2.240 . S
O375 C373 1.279 . S
O376 Cd366 2.297 . S
O376 C371 1.247 . S
O377 Cd366 2.439 . S
O377 C371 1.208 . S
O378 Cd379 2.223 . S
O378 C386 1.315 . S
Cd379 O378 2.223 . S
Cd379 O382 2.297 . S
Cd379 O383 2.439 . S
Cd379 O389 2.240 1_655 S
Cd380 O381 2.240 1_455 S
Cd380 O388 2.223 . S
Cd380 O390 2.297 . S
Cd380 O391 2.439 . S
O381 Cd380 2.240 1_655 S
O381 C386 1.279 . S
O382 Cd379 2.297 . S
O382 C384 1.247 . S
O383 Cd379 2.439 . S
O383 C384 1.208 . S
C384 O382 1.247 . S
C384 O383 1.208 . S
C385 O390 1.247 . S
C385 O391 1.208 . S
C386 O378 1.315 . S
C386 O381 1.279 . S
C387 O388 1.315 . S
C387 O389 1.279 . S
O388 Cd380 2.223 . S
O388 C387 1.315 . S
O389 Cd379 2.240 1_455 S
O389 C387 1.279 . S
O390 Cd380 2.297 . S
O390 C385 1.247 . S
O391 Cd380 2.439 . S
O391 C385 1.208 . S
O392 Cd393 2.223 . S
O392 C400 1.315 . S
Cd393 O392 2.223 . S
Cd393 O396 2.297 . S
Cd393 O397 2.439 . S
Cd393 O403 2.240 . S
Cd394 O395 2.240 . S
Cd394 O402 2.223 . S
Cd394 O404 2.297 . S
Cd394 O405 2.439 . S
O395 Cd394 2.240 . S
O395 C400 1.279 . S
O396 Cd393 2.297 . S
O396 C398 1.247 . S
O397 Cd393 2.439 . S
O397 C398 1.208 . S
C398 O396 1.247 . S
C398 O397 1.208 . S
C399 O404 1.247 . S
C399 O405 1.208 . S
C400 O392 1.315 . S
C400 O395 1.279 . S
C401 O402 1.315 . S
C401 O403 1.279 . S
O402 Cd394 2.223 . S
O402 C401 1.315 . S
O403 Cd393 2.240 . S
O403 C401 1.279 . S
O404 Cd394 2.297 . S
O404 C399 1.247 . S
O405 Cd394 2.439 . S
O405 C399 1.208 . S
O406 Cd407 2.223 . S
O406 C414 1.315 . S
Cd407 O406 2.223 . S
Cd407 O410 2.297 . S
Cd407 O411 2.439 . S
Cd407 O417 2.240 1_655 S
Cd408 O409 2.240 1_455 S
Cd408 O416 2.223 . S
Cd408 O418 2.297 . S
Cd408 O419 2.439 . S
O409 Cd408 2.240 1_655 S
O409 C414 1.279 . S
O410 Cd407 2.297 . S
O410 C412 1.247 . S
O411 Cd407 2.439 . S
O411 C412 1.208 . S
C412 O410 1.247 . S
C412 O411 1.208 . S
C413 O418 1.247 . S
C413 O419 1.208 . S
C414 O406 1.315 . S
C414 O409 1.279 . S
C415 O416 1.315 . S
C415 O417 1.279 . S
O416 Cd408 2.223 . S
O416 C415 1.315 . S
O417 Cd407 2.240 1_455 S
O417 C415 1.279 . S
O418 Cd408 2.297 . S
O418 C413 1.247 . S
O419 Cd408 2.439 . S
O419 C413 1.208 . S
O420 Cd421 2.223 . S
O420 C428 1.315 . S
Cd421 O420 2.223 . S
Cd421 O424 2.297 . S
Cd421 O425 2.439 . S
Cd421 O431 2.240 . S
Cd422 O423 2.240 . S
Cd422 O430 2.223 . S
Cd422 O432 2.297 . S
Cd422 O433 2.439 . S
O423 Cd422 2.240 . S
O423 C428 1.279 . S
O424 Cd421 2.297 . S
O424 C426 1.247 . S
O425 Cd421 2.439 . S
O425 C426 1.208 . S
C426 O424 1.247 . S
C426 O425 1.208 . S
C427 O432 1.247 . S
C427 O433 1.208 . S
C428 O420 1.315 . S
C428 O423 1.279 . S
C429 O430 1.315 . S
C429 O431 1.279 . S
O430 Cd422 2.223 . S
O430 C429 1.315 . S
O431 Cd421 2.240 . S
O431 C429 1.279 . S
O432 Cd422 2.297 . S
O432 C427 1.247 . S
O433 Cd422 2.439 . S
O433 C427 1.208 . S
O434 Cd435 2.223 . S
O434 C442 1.315 . S
Cd435 O434 2.223 . S
Cd435 O438 2.297 . S
Cd435 O439 2.439 . S
Cd435 O445 2.240 . S
Cd436 O437 2.240 . S
Cd436 O444 2.223 . S
Cd436 O446 2.297 . S
Cd436 O447 2.439 . S
O437 Cd436 2.240 . S
O437 C442 1.279 . S
O438 Cd435 2.297 . S
O438 C440 1.247 . S
O439 Cd435 2.439 . S
O439 C440 1.208 . S
C440 O438 1.247 . S
C440 O439 1.208 . S
C441 O446 1.247 . S
C441 O447 1.208 . S
C442 O434 1.315 . S
C442 O437 1.279 . S
C443 O444 1.315 . S
C443 O445 1.279 . S
O444 Cd436 2.223 . S
O444 C443 1.315 . S
O445 Cd435 2.240 . S
O445 C443 1.279 . S
O446 Cd436 2.297 . S
O446 C441 1.247 . S
O447 Cd436 2.439 . S
O447 C441 1.208 . S
O448 Cd449 2.223 . S
O448 C456 1.315 . S
Cd449 O448 2.223 . S
Cd449 O452 2.297 . S
Cd449 O453 2.439 . S
Cd449 O459 2.240 . S
Cd450 O451 2.240 . S
Cd450 O458 2.223 . S
Cd450 O460 2.297 . S
Cd450 O461 2.439 . S
O451 Cd450 2.240 . S
O451 C456 1.279 . S
O452 Cd449 2.297 . S
O452 C454 1.247 . S
O453 Cd449 2.439 . S
O453 C454 1.208 . S
C454 O452 1.247 . S
C454 O453 1.208 . S
C455 O460 1.247 . S
C455 O461 1.208 . S
C456 O448 1.315 . S
C456 O451 1.279 . S
C457 O458 1.315 . S
C457 O459 1.279 . S
O458 Cd450 2.223 . S
O458 C457 1.315 . S
O459 Cd449 2.240 . S
O459 C457 1.279 . S
O460 Cd450 2.297 . S
O460 C455 1.247 . S
O461 Cd450 2.439 . S
O461 C455 1.208 . S
O462 Cd463 2.223 . S
O462 C470 1.315 . S
Cd463 O462 2.223 . S
Cd463 O466 2.297 . S
Cd463 O467 2.439 . S
Cd463 O473 2.240 1_556 S
Cd464 O465 2.240 1_554 S
Cd464 O472 2.223 . S
Cd464 O474 2.297 . S
Cd464 O475 2.439 . S
O465 Cd464 2.240 1_556 S
O465 C470 1.279 . S
O466 Cd463 2.297 . S
O466 C468 1.247 . S
O467 Cd463 2.439 . S
O467 C468 1.208 . S
C468 O466 1.247 . S
C468 O467 1.208 . S
C469 O474 1.247 . S
C469 O475 1.208 . S
C470 O462 1.315 . S
C470 O465 1.279 . S
C471 O472 1.315 . S
C471 O473 1.279 . S
O472 Cd464 2.223 . S
O472 C471 1.315 . S
O473 Cd463 2.240 1_554 S
O473 C471 1.279 . S
O474 Cd464 2.297 . S
O474 C469 1.247 . S
O475 Cd464 2.439 . S
O475 C469 1.208 . S
O476 Cd477 2.223 . S
O476 C484 1.315 . S
Cd477 O476 2.223 . S
Cd477 O480 2.297 . S
Cd477 O481 2.439 . S
Cd477 O487 2.240 . S
Cd478 O479 2.240 . S
Cd478 O486 2.223 . S
Cd478 O488 2.297 . S
Cd478 O489 2.439 . S
O479 Cd478 2.240 . S
O479 C484 1.279 . S
O480 Cd477 2.297 . S
O480 C482 1.247 . S
O481 Cd477 2.439 . S
O481 C482 1.208 . S
C482 O480 1.247 . S
C482 O481 1.208 . S
C483 O488 1.247 . S
C483 O489 1.208 . S
C484 O476 1.315 . S
C484 O479 1.279 . S
C485 O486 1.315 . S
C485 O487 1.279 . S
O486 Cd478 2.223 . S
O486 C485 1.315 . S
O487 Cd477 2.240 . S
O487 C485 1.279 . S
O488 Cd478 2.297 . S
O488 C483 1.247 . S
O489 Cd478 2.439 . S
O489 C483 1.208 . S
O490 Cd491 2.223 . S
O490 C498 1.315 . S
Cd491 O490 2.223 . S
Cd491 O494 2.297 . S
Cd491 O495 2.439 . S
Cd491 O501 2.240 . S
Cd492 O493 2.240 . S
Cd492 O500 2.223 . S
Cd492 O502 2.297 . S
Cd492 O503 2.439 . S
O493 Cd492 2.240 . S
O493 C498 1.279 . S
O494 Cd491 2.297 . S
O494 C496 1.247 . S
O495 Cd491 2.439 . S
O495 C496 1.208 . S
C496 O494 1.247 . S
C496 O495 1.208 . S
C497 O502 1.247 . S
C497 O503 1.208 . S
C498 O490 1.315 . S
C498 O493 1.279 . S
C499 O500 1.315 . S
C499 O501 1.279 . S
O500 Cd492 2.223 . S
O500 C499 1.315 . S
O501 Cd491 2.240 . S
O501 C499 1.279 . S
O502 Cd492 2.297 . S
O502 C497 1.247 . S
O503 Cd492 2.439 . S
O503 C497 1.208 . S
O504 Cd505 2.223 . S
O504 C512 1.315 . S
Cd505 O504 2.223 . S
Cd505 O508 2.297 . S
Cd505 O509 2.439 . S
Cd505 O515 2.240 . S
Cd506 O507 2.240 . S
Cd506 O514 2.223 . S
Cd506 O516 2.297 . S
Cd506 O517 2.439 . S
O507 Cd506 2.240 . S
O507 C512 1.279 . S
O508 Cd505 2.297 . S
O508 C510 1.247 . S
O509 Cd505 2.439 . S
O509 C510 1.208 . S
C510 O508 1.247 . S
C510 O509 1.208 . S
C511 O516 1.247 . S
C511 O517 1.208 . S
C512 O504 1.315 . S
C512 O507 1.279 . S
C513 O514 1.315 . S
C513 O515 1.279 . S
O514 Cd506 2.223 . S
O514 C513 1.315 . S
O515 Cd505 2.240 . S
O515 C513 1.279 . S
O516 Cd506 2.297 . S
O516 C511 1.247 . S
O517 Cd506 2.439 . S
O517 C511 1.208 . S
O518 Cd519 2.223 . S
O518 C526 1.315 . S
Cd519 O518 2.223 . S
Cd519 O522 2.297 . S
Cd519 O523 2.439 . S
Cd519 O529 2.240 1_554 S
Cd520 O521 2.240 1_556 S
Cd520 O528 2.223 . S
Cd520 O530 2.297 . S
Cd520 O531 2.439 . S
O521 Cd520 2.240 1_554 S
O521 C526 1.279 . S
O522 Cd519 2.297 . S
O522 C524 1.247 . S
O523 Cd519 2.439 . S
O523 C524 1.208 . S
C524 O522 1.247 . S
C524 O523 1.208 . S
C525 O530 1.247 . S
C525 O531 1.208 . S
C526 O518 1.315 . S
C526 O521 1.279 . S
C527 O528 1.315 . S
C527 O529 1.279 . S
O528 Cd520 2.223 . S
O528 C527 1.315 . S
O529 Cd519 2.240 1_556 S
O529 C527 1.279 . S
O530 Cd520 2.297 . S
O530 C525 1.247 . S
O531 Cd520 2.439 . S
O531 C525 1.208 . S
O532 Cd533 2.223 . S
O532 C540 1.315 . S
Cd533 O532 2.223 . S
Cd533 O536 2.297 . S
Cd533 O537 2.439 . S
Cd533 O543 2.240 . S
Cd534 O535 2.240 . S
Cd534 O542 2.223 . S
Cd534 O544 2.297 . S
Cd534 O545 2.439 . S
O535 Cd534 2.240 . S
O535 C540 1.279 . S
O536 Cd533 2.297 . S
O536 C538 1.247 . S
O537 Cd533 2.439 . S
O537 C538 1.208 . S
C538 O536 1.247 . S
C538 O537 1.208 . S
C539 O544 1.247 . S
C539 O545 1.208 . S
C540 O532 1.315 . S
C540 O535 1.279 . S
C541 O542 1.315 . S
C541 O543 1.279 . S
O542 Cd534 2.223 . S
O542 C541 1.315 . S
O543 Cd533 2.240 . S
O543 C541 1.279 . S
O544 Cd534 2.297 . S
O544 C539 1.247 . S
O545 Cd534 2.439 . S
O545 C539 1.208 . S
O546 Cd547 2.223 . S
O546 C554 1.315 . S
Cd547 O546 2.223 . S
Cd547 O550 2.297 . S
Cd547 O551 2.439 . S
Cd547 O557 2.240 . S
Cd548 O549 2.240 . S
Cd548 O556 2.223 . S
Cd548 O558 2.297 . S
Cd548 O559 2.439 . S
O549 Cd548 2.240 . S
O549 C554 1.279 . S
O550 Cd547 2.297 . S
O550 C552 1.247 . S
O551 Cd547 2.439 . S
O551 C552 1.208 . S
C552 O550 1.247 . S
C552 O551 1.208 . S
C553 O558 1.247 . S
C553 O559 1.208 . S
C554 O546 1.315 . S
C554 O549 1.279 . S
C555 O556 1.315 . S
C555 O557 1.279 . S
O556 Cd548 2.223 . S
O556 C555 1.315 . S
O557 Cd547 2.240 . S
O557 C555 1.279 . S
O558 Cd548 2.297 . S
O558 C553 1.247 . S
O559 Cd548 2.439 . S
O559 C553 1.208 . S
O560 Cd561 2.223 . S
O560 C568 1.315 . S
Cd561 O560 2.223 . S
Cd561 O564 2.297 . S
Cd561 O565 2.439 . S
Cd561 O571 2.240 . S
Cd562 O563 2.240 . S
Cd562 O570 2.223 . S
Cd562 O572 2.297 . S
Cd562 O573 2.439 . S
O563 Cd562 2.240 . S
O563 C568 1.279 . S
O564 Cd561 2.297 . S
O564 C566 1.247 . S
O565 Cd561 2.439 . S
O565 C566 1.208 . S
C566 O564 1.247 . S
C566 O565 1.208 . S
C567 O572 1.247 . S
C567 O573 1.208 . S
C568 O560 1.315 . S
C568 O563 1.279 . S
C569 O570 1.315 . S
C569 O571 1.279 . S
O570 Cd562 2.223 . S
O570 C569 1.315 . S
O571 Cd561 2.240 . S
O571 C569 1.279 . S
O572 Cd562 2.297 . S
O572 C567 1.247 . S
O573 Cd562 2.439 . S
O573 C567 1.208 . S
O574 Cd575 2.223 . S
O574 C582 1.315 . S
Cd575 O574 2.223 . S
Cd575 O578 2.297 . S
Cd575 O579 2.439 . S
Cd575 O585 2.240 . S
Cd576 O577 2.240 . S
Cd576 O584 2.223 . S
Cd576 O586 2.297 . S
Cd576 O587 2.439 . S
O577 Cd576 2.240 . S
O577 C582 1.279 . S
O578 Cd575 2.297 . S
O578 C580 1.247 . S
O579 Cd575 2.439 . S
O579 C580 1.208 . S
C580 O578 1.247 . S
C580 O579 1.208 . S
C581 O586 1.247 . S
C581 O587 1.208 . S
C582 O574 1.315 . S
C582 O577 1.279 . S
C583 O584 1.315 . S
C583 O585 1.279 . S
O584 Cd576 2.223 . S
O584 C583 1.315 . S
O585 Cd575 2.240 . S
O585 C583 1.279 . S
O586 Cd576 2.297 . S
O586 C581 1.247 . S
O587 Cd576 2.439 . S
O587 C581 1.208 . S
O588 Cd589 2.223 . S
O588 C596 1.315 . S
Cd589 O588 2.223 . S
Cd589 O592 2.297 . S
Cd589 O593 2.439 . S
Cd589 O599 2.240 1_565 S
Cd590 O591 2.240 1_545 S
Cd590 O598 2.223 . S
Cd590 O600 2.297 . S
Cd590 O601 2.439 . S
O591 Cd590 2.240 1_565 S
O591 C596 1.279 . S
O592 Cd589 2.297 . S
O592 C594 1.247 . S
O593 Cd589 2.439 . S
O593 C594 1.208 . S
C594 O592 1.247 . S
C594 O593 1.208 . S
C595 O600 1.247 . S
C595 O601 1.208 . S
C596 O588 1.315 . S
C596 O591 1.279 . S
C597 O598 1.315 . S
C597 O599 1.279 . S
O598 Cd590 2.223 . S
O598 C597 1.315 . S
O599 Cd589 2.240 1_545 S
O599 C597 1.279 . S
O600 Cd590 2.297 . S
O600 C595 1.247 . S
O601 Cd590 2.439 . S
O601 C595 1.208 . S
O602 Cd603 2.223 . S
O602 C610 1.315 . S
Cd603 O602 2.223 . S
Cd603 O606 2.297 . S
Cd603 O607 2.439 . S
Cd603 O613 2.240 . S
Cd604 O605 2.240 . S
Cd604 O612 2.223 . S
Cd604 O614 2.297 . S
Cd604 O615 2.439 . S
O605 Cd604 2.240 . S
O605 C610 1.279 . S
O606 Cd603 2.297 . S
O606 C608 1.247 . S
O607 Cd603 2.439 . S
O607 C608 1.208 . S
C608 O606 1.247 . S
C608 O607 1.208 . S
C609 O614 1.247 . S
C609 O615 1.208 . S
C610 O602 1.315 . S
C610 O605 1.279 . S
C611 O612 1.315 . S
C611 O613 1.279 . S
O612 Cd604 2.223 . S
O612 C611 1.315 . S
O613 Cd603 2.240 . S
O613 C611 1.279 . S
O614 Cd604 2.297 . S
O614 C609 1.247 . S
O615 Cd604 2.439 . S
O615 C609 1.208 . S
O616 Cd617 2.223 . S
O616 C624 1.315 . S
Cd617 O616 2.223 . S
Cd617 O620 2.297 . S
Cd617 O621 2.439 . S
Cd617 O627 2.240 . S
Cd618 O619 2.240 . S
Cd618 O626 2.223 . S
Cd618 O628 2.297 . S
Cd618 O629 2.439 . S
O619 Cd618 2.240 . S
O619 C624 1.279 . S
O620 Cd617 2.297 . S
O620 C622 1.247 . S
O621 Cd617 2.439 . S
O621 C622 1.208 . S
C622 O620 1.247 . S
C622 O621 1.208 . S
C623 O628 1.247 . S
C623 O629 1.208 . S
C624 O616 1.315 . S
C624 O619 1.279 . S
C625 O626 1.315 . S
C625 O627 1.279 . S
O626 Cd618 2.223 . S
O626 C625 1.315 . S
O627 Cd617 2.240 . S
O627 C625 1.279 . S
O628 Cd618 2.297 . S
O628 C623 1.247 . S
O629 Cd618 2.439 . S
O629 C623 1.208 . S
O630 Cd631 2.223 . S
O630 C638 1.315 . S
Cd631 O630 2.223 . S
Cd631 O634 2.297 . S
Cd631 O635 2.439 . S
Cd631 O641 2.240 . S
Cd632 O633 2.240 . S
Cd632 O640 2.223 . S
Cd632 O642 2.297 . S
Cd632 O643 2.439 . S
O633 Cd632 2.240 . S
O633 C638 1.279 . S
O634 Cd631 2.297 . S
O634 C636 1.247 . S
O635 Cd631 2.439 . S
O635 C636 1.208 . S
C636 O634 1.247 . S
C636 O635 1.208 . S
C637 O642 1.247 . S
C637 O643 1.208 . S
C638 O630 1.315 . S
C638 O633 1.279 . S
C639 O640 1.315 . S
C639 O641 1.279 . S
O640 Cd632 2.223 . S
O640 C639 1.315 . S
O641 Cd631 2.240 . S
O641 C639 1.279 . S
O642 Cd632 2.297 . S
O642 C637 1.247 . S
O643 Cd632 2.439 . S
O643 C637 1.208 . S
O644 Cd645 2.223 . S
O644 C652 1.315 . S
Cd645 O644 2.223 . S
Cd645 O648 2.297 . S
Cd645 O649 2.439 . S
Cd645 O655 2.240 1_545 S
Cd646 O647 2.240 1_565 S
Cd646 O654 2.223 . S
Cd646 O656 2.297 . S
Cd646 O657 2.439 . S
O647 Cd646 2.240 1_545 S
O647 C652 1.279 . S
O648 Cd645 2.297 . S
O648 C650 1.247 . S
O649 Cd645 2.439 . S
O649 C650 1.208 . S
C650 O648 1.247 . S
C650 O649 1.208 . S
C651 O656 1.247 . S
C651 O657 1.208 . S
C652 O644 1.315 . S
C652 O647 1.279 . S
C653 O654 1.315 . S
C653 O655 1.279 . S
O654 Cd646 2.223 . S
O654 C653 1.315 . S
O655 Cd645 2.240 1_565 S
O655 C653 1.279 . S
O656 Cd646 2.297 . S
O656 C651 1.247 . S
O657 Cd646 2.439 . S
O657 C651 1.208 . S
O658 Cd659 2.223 . S
O658 C666 1.315 . S
Cd659 O658 2.223 . S
Cd659 O662 2.297 . S
Cd659 O663 2.439 . S
Cd659 O669 2.240 1_565 S
Cd660 O661 2.240 1_545 S
Cd660 O668 2.223 . S
Cd660 O670 2.297 . S
Cd660 O671 2.439 . S
O661 Cd660 2.240 1_565 S
O661 C666 1.279 . S
O662 Cd659 2.297 . S
O662 C664 1.247 . S
O663 Cd659 2.439 . S
O663 C664 1.208 . S
C664 O662 1.247 . S
C664 O663 1.208 . S
C665 O670 1.247 . S
C665 O671 1.208 . S
C666 O658 1.315 . S
C666 O661 1.279 . S
C667 O668 1.315 . S
C667 O669 1.279 . S
O668 Cd660 2.223 . S
O668 C667 1.315 . S
O669 Cd659 2.240 1_545 S
O669 C667 1.279 . S
O670 Cd660 2.297 . S
O670 C665 1.247 . S
O671 Cd660 2.439 . S
O671 C665 1.208 . S
C672 C673 1.369 . S
C672 C674 1.419 . S
C672 H676 0.930 . S
C673 C672 1.369 . S
C673 C682 1.429 . S
C674 C672 1.419 . S
C674 C675 1.363 . S
C674 H677 0.929 . S
C675 C674 1.363 . S
C675 C681 1.428 . S
H676 C672 0.930 . S
H677 C674 0.929 . S
S678 N679 1.613 . S
S678 N680 1.610 . S
N679 S678 1.613 . S
N679 C682 1.350 . S
N680 S678 1.610 . S
N680 C681 1.351 . S
C681 C675 1.428 . S
C681 N680 1.351 . S
C681 C682 1.434 . S
C682 C673 1.429 . S
C682 N679 1.350 . S
C682 C681 1.434 . S
C683 C684 1.369 . S
C683 C685 1.419 . S
C683 H687 0.930 . S
C684 C683 1.369 . S
C684 C693 1.429 . S
C685 C683 1.419 . S
C685 C686 1.363 . S
C685 H688 0.929 . S
C686 C685 1.363 . S
C686 C692 1.428 . S
H687 C683 0.930 . S
H688 C685 0.929 . S
S689 N690 1.613 . S
S689 N691 1.610 . S
N690 S689 1.613 . S
N690 C693 1.350 . S
N691 S689 1.610 . S
N691 C692 1.351 . S
C692 C686 1.428 . S
C692 N691 1.351 . S
C692 C693 1.434 . S
C693 C684 1.429 . S
C693 N690 1.350 . S
C693 C692 1.434 . S
C694 C695 1.369 . S
C694 C696 1.419 . S
C694 H698 0.930 . S
C695 C694 1.369 . S
C695 C704 1.429 . S
C696 C694 1.419 . S
C696 C697 1.363 . S
C696 H699 0.929 . S
C697 C696 1.363 . S
C697 C703 1.428 . S
H698 C694 0.930 . S
H699 C696 0.929 . S
S700 N701 1.613 . S
S700 N702 1.610 . S
N701 S700 1.613 . S
N701 C704 1.350 . S
N702 S700 1.610 . S
N702 C703 1.351 . S
C703 C697 1.428 . S
C703 N702 1.351 . S
C703 C704 1.434 . S
C704 C695 1.429 . S
C704 N701 1.350 . S
C704 C703 1.434 . S
C705 C706 1.369 . S
C705 C707 1.419 . S
C705 H709 0.930 . S
C706 C705 1.369 . S
C706 C715 1.429 . S
C707 C705 1.419 . S
C707 C708 1.363 . S
C707 H710 0.929 . S
C708 C707 1.363 . S
C708 C714 1.428 . S
H709 C705 0.930 . S
H710 C707 0.929 . S
S711 N712 1.613 . S
S711 N713 1.610 . S
N712 S711 1.613 . S
N712 C715 1.350 . S
N713 S711 1.610 . S
N713 C714 1.351 . S
C714 C708 1.428 . S
C714 N713 1.351 . S
C714 C715 1.434 . S
C715 C706 1.429 . S
C715 N712 1.350 . S
C715 C714 1.434 . S
C716 C717 1.369 . S
C716 C718 1.419 . S
C716 H720 0.930 . S
C717 C716 1.369 . S
C717 C726 1.429 . S
C718 C716 1.419 . S
C718 C719 1.363 . S
C718 H721 0.929 . S
C719 C718 1.363 . S
C719 C725 1.428 . S
H720 C716 0.930 . S
H721 C718 0.929 . S
S722 N723 1.613 . S
S722 N724 1.610 . S
N723 S722 1.613 . S
N723 C726 1.350 . S
N724 S722 1.610 . S
N724 C725 1.351 . S
C725 C719 1.428 . S
C725 N724 1.351 . S
C725 C726 1.434 . S
C726 C717 1.429 . S
C726 N723 1.350 . S
C726 C725 1.434 . S
C727 C728 1.369 . S
C727 C729 1.419 . S
C727 H731 0.930 . S
C728 C727 1.369 . S
C728 C737 1.429 . S
C729 C727 1.419 . S
C729 C730 1.363 . S
C729 H732 0.929 . S
C730 C729 1.363 . S
C730 C736 1.428 . S
H731 C727 0.930 . S
H732 C729 0.929 . S
S733 N734 1.613 . S
S733 N735 1.610 . S
N734 S733 1.613 . S
N734 C737 1.350 . S
N735 S733 1.610 . S
N735 C736 1.351 . S
C736 C730 1.428 . S
C736 N735 1.351 . S
C736 C737 1.434 . S
C737 C728 1.429 . S
C737 N734 1.350 . S
C737 C736 1.434 . S
C738 C739 1.369 . S
C738 C740 1.419 . S
C738 H742 0.930 . S
C739 C738 1.369 . S
C739 C748 1.429 . S
C740 C738 1.419 . S
C740 C741 1.363 . S
C740 H743 0.929 . S
C741 C740 1.363 . S
C741 C747 1.428 . S
H742 C738 0.930 . S
H743 C740 0.929 . S
S744 N745 1.613 . S
S744 N746 1.610 . S
N745 S744 1.613 . S
N745 C748 1.350 . S
N746 S744 1.610 . S
N746 C747 1.351 . S
C747 C741 1.428 . S
C747 N746 1.351 . S
C747 C748 1.434 . S
C748 C739 1.429 . S
C748 N745 1.350 . S
C748 C747 1.434 . S
C749 C750 1.369 . S
C749 C751 1.419 . S
C749 H753 0.930 . S
C750 C749 1.369 . S
C750 C759 1.429 . S
C751 C749 1.419 . S
C751 C752 1.363 . S
C751 H754 0.929 . S
C752 C751 1.363 . S
C752 C758 1.428 . S
H753 C749 0.930 . S
H754 C751 0.929 . S
S755 N756 1.613 . S
S755 N757 1.610 . S
N756 S755 1.613 . S
N756 C759 1.350 . S
N757 S755 1.610 . S
N757 C758 1.351 . S
C758 C752 1.428 . S
C758 N757 1.351 . S
C758 C759 1.434 . S
C759 C750 1.429 . S
C759 N756 1.350 . S
C759 C758 1.434 . S
C760 C761 1.369 . S
C760 C762 1.419 . S
C760 H764 0.930 . S
C761 C760 1.369 . S
C761 C770 1.429 . S
C762 C760 1.419 . S
C762 C763 1.363 . S
C762 H765 0.929 . S
C763 C762 1.363 . S
C763 C769 1.428 . S
H764 C760 0.930 . S
H765 C762 0.929 . S
S766 N767 1.613 . S
S766 N768 1.610 . S
N767 S766 1.613 . S
N767 C770 1.350 . S
N768 S766 1.610 . S
N768 C769 1.351 . S
C769 C763 1.428 . S
C769 N768 1.351 . S
C769 C770 1.434 . S
C770 C761 1.429 . S
C770 N767 1.350 . S
C770 C769 1.434 . S
C771 C772 1.369 . S
C771 C773 1.419 . S
C771 H775 0.930 . S
C772 C771 1.369 . S
C772 C781 1.429 . S
C773 C771 1.419 . S
C773 C774 1.363 . S
C773 H776 0.929 . S
C774 C773 1.363 . S
C774 C780 1.428 . S
H775 C771 0.930 . S
H776 C773 0.929 . S
S777 N778 1.613 . S
S777 N779 1.610 . S
N778 S777 1.613 . S
N778 C781 1.350 . S
N779 S777 1.610 . S
N779 C780 1.351 . S
C780 C774 1.428 . S
C780 N779 1.351 . S
C780 C781 1.434 . S
C781 C772 1.429 . S
C781 N778 1.350 . S
C781 C780 1.434 . S
C782 C783 1.369 . S
C782 C784 1.419 . S
C782 H786 0.930 . S
C783 C782 1.369 . S
C783 C792 1.429 . S
C784 C782 1.419 . S
C784 C785 1.363 . S
C784 H787 0.929 . S
C785 C784 1.363 . S
C785 C791 1.428 . S
H786 C782 0.930 . S
H787 C784 0.929 . S
S788 N789 1.613 . S
S788 N790 1.610 . S
N789 S788 1.613 . S
N789 C792 1.350 . S
N790 S788 1.610 . S
N790 C791 1.351 . S
C791 C785 1.428 . S
C791 N790 1.351 . S
C791 C792 1.434 . S
C792 C783 1.429 . S
C792 N789 1.350 . S
C792 C791 1.434 . S
C793 C794 1.369 . S
C793 C795 1.419 . S
C793 H797 0.930 . S
C794 C793 1.369 . S
C794 C803 1.429 . S
C795 C793 1.419 . S
C795 C796 1.363 . S
C795 H798 0.929 . S
C796 C795 1.363 . S
C796 C802 1.428 . S
H797 C793 0.930 . S
H798 C795 0.929 . S
S799 N800 1.613 . S
S799 N801 1.610 . S
N800 S799 1.613 . S
N800 C803 1.350 . S
N801 S799 1.610 . S
N801 C802 1.351 . S
C802 C796 1.428 . S
C802 N801 1.351 . S
C802 C803 1.434 . S
C803 C794 1.429 . S
C803 N800 1.350 . S
C803 C802 1.434 . S
C804 C805 1.369 . S
C804 C806 1.419 . S
C804 H808 0.930 . S
C805 C804 1.369 . S
C805 C814 1.429 . S
C806 C804 1.419 . S
C806 C807 1.363 . S
C806 H809 0.929 . S
C807 C806 1.363 . S
C807 C813 1.428 . S
H808 C804 0.930 . S
H809 C806 0.929 . S
S810 N811 1.613 . S
S810 N812 1.610 . S
N811 S810 1.613 . S
N811 C814 1.350 . S
N812 S810 1.610 . S
N812 C813 1.351 . S
C813 C807 1.428 . S
C813 N812 1.351 . S
C813 C814 1.434 . S
C814 C805 1.429 . S
C814 N811 1.350 . S
C814 C813 1.434 . S
C815 C816 1.369 . S
C815 C817 1.419 . S
C815 H819 0.930 . S
C816 C815 1.369 . S
C816 C825 1.429 . S
C817 C815 1.419 . S
C817 C818 1.363 . S
C817 H820 0.929 . S
C818 C817 1.363 . S
C818 C824 1.428 . S
H819 C815 0.930 . S
H820 C817 0.929 . S
S821 N822 1.613 . S
S821 N823 1.610 . S
N822 S821 1.613 . S
N822 C825 1.350 . S
N823 S821 1.610 . S
N823 C824 1.351 . S
C824 C818 1.428 . S
C824 N823 1.351 . S
C824 C825 1.434 . S
C825 C816 1.429 . S
C825 N822 1.350 . S
C825 C824 1.434 . S
C826 C827 1.369 . S
C826 C828 1.419 . S
C826 H830 0.930 . S
C827 C826 1.369 . S
C827 C836 1.429 . S
C828 C826 1.419 . S
C828 C829 1.363 . S
C828 H831 0.929 . S
C829 C828 1.363 . S
C829 C835 1.428 . S
H830 C826 0.930 . S
H831 C828 0.929 . S
S832 N833 1.613 . S
S832 N834 1.610 . S
N833 S832 1.613 . S
N833 C836 1.350 . S
N834 S832 1.610 . S
N834 C835 1.351 . S
C835 C829 1.428 . S
C835 N834 1.351 . S
C835 C836 1.434 . S
C836 C827 1.429 . S
C836 N833 1.350 . S
C836 C835 1.434 . S
C837 C838 1.369 . S
C837 C839 1.419 . S
C837 H841 0.930 . S
C838 C837 1.369 . S
C838 C847 1.429 . S
C839 C837 1.419 . S
C839 C840 1.363 . S
C839 H842 0.929 . S
C840 C839 1.363 . S
C840 C846 1.428 . S
H841 C837 0.930 . S
H842 C839 0.929 . S
S843 N844 1.613 . S
S843 N845 1.610 . S
N844 S843 1.613 . S
N844 C847 1.350 . S
N845 S843 1.610 . S
N845 C846 1.351 . S
C846 C840 1.428 . S
C846 N845 1.351 . S
C846 C847 1.434 . S
C847 C838 1.429 . S
C847 N844 1.350 . S
C847 C846 1.434 . S
C848 C849 1.369 . S
C848 C850 1.419 . S
C848 H852 0.930 . S
C849 C848 1.369 . S
C849 C858 1.429 . S
C850 C848 1.419 . S
C850 C851 1.363 . S
C850 H853 0.929 . S
C851 C850 1.363 . S
C851 C857 1.428 . S
H852 C848 0.930 . S
H853 C850 0.929 . S
S854 N855 1.613 . S
S854 N856 1.610 . S
N855 S854 1.613 . S
N855 C858 1.350 . S
N856 S854 1.610 . S
N856 C857 1.351 . S
C857 C851 1.428 . S
C857 N856 1.351 . S
C857 C858 1.434 . S
C858 C849 1.429 . S
C858 N855 1.350 . S
C858 C857 1.434 . S
C859 C860 1.369 . S
C859 C861 1.419 . S
C859 H863 0.930 . S
C860 C859 1.369 . S
C860 C869 1.429 . S
C861 C859 1.419 . S
C861 C862 1.363 . S
C861 H864 0.929 . S
C862 C861 1.363 . S
C862 C868 1.428 . S
H863 C859 0.930 . S
H864 C861 0.929 . S
S865 N866 1.613 . S
S865 N867 1.610 . S
N866 S865 1.613 . S
N866 C869 1.350 . S
N867 S865 1.610 . S
N867 C868 1.351 . S
C868 C862 1.428 . S
C868 N867 1.351 . S
C868 C869 1.434 . S
C869 C860 1.429 . S
C869 N866 1.350 . S
C869 C868 1.434 . S
C870 C871 1.369 . S
C870 C872 1.419 . S
C870 H874 0.930 . S
C871 C870 1.369 . S
C871 C880 1.429 . S
C872 C870 1.419 . S
C872 C873 1.363 . S
C872 H875 0.929 . S
C873 C872 1.363 . S
C873 C879 1.428 . S
H874 C870 0.930 . S
H875 C872 0.929 . S
S876 N877 1.613 . S
S876 N878 1.610 . S
N877 S876 1.613 . S
N877 C880 1.350 . S
N878 S876 1.610 . S
N878 C879 1.351 . S
C879 C873 1.428 . S
C879 N878 1.351 . S
C879 C880 1.434 . S
C880 C871 1.429 . S
C880 N877 1.350 . S
C880 C879 1.434 . S
C881 C882 1.369 . S
C881 C883 1.419 . S
C881 H885 0.930 . S
C882 C881 1.369 . S
C882 C891 1.429 . S
C883 C881 1.419 . S
C883 C884 1.363 . S
C883 H886 0.929 . S
C884 C883 1.363 . S
C884 C890 1.428 . S
H885 C881 0.930 . S
H886 C883 0.929 . S
S887 N888 1.613 . S
S887 N889 1.610 . S
N888 S887 1.613 . S
N888 C891 1.350 . S
N889 S887 1.610 . S
N889 C890 1.351 . S
C890 C884 1.428 . S
C890 N889 1.351 . S
C890 C891 1.434 . S
C891 C882 1.429 . S
C891 N888 1.350 . S
C891 C890 1.434 . S
C892 C893 1.369 . S
C892 C894 1.419 . S
C892 H896 0.930 . S
C893 C892 1.369 . S
C893 C902 1.429 . S
C894 C892 1.419 . S
C894 C895 1.363 . S
C894 H897 0.929 . S
C895 C894 1.363 . S
C895 C901 1.428 . S
H896 C892 0.930 . S
H897 C894 0.929 . S
S898 N899 1.613 . S
S898 N900 1.610 . S
N899 S898 1.613 . S
N899 C902 1.350 . S
N900 S898 1.610 . S
N900 C901 1.351 . S
C901 C895 1.428 . S
C901 N900 1.351 . S
C901 C902 1.434 . S
C902 C893 1.429 . S
C902 N899 1.350 . S
C902 C901 1.434 . S
C903 C904 1.369 . S
C903 C905 1.419 . S
C903 H907 0.930 . S
C904 C903 1.369 . S
C904 C913 1.429 . S
C905 C903 1.419 . S
C905 C906 1.363 . S
C905 H908 0.929 . S
C906 C905 1.363 . S
C906 C912 1.428 . S
H907 C903 0.930 . S
H908 C905 0.929 . S
S909 N910 1.613 . S
S909 N911 1.610 . S
N910 S909 1.613 . S
N910 C913 1.350 . S
N911 S909 1.610 . S
N911 C912 1.351 . S
C912 C906 1.428 . S
C912 N911 1.351 . S
C912 C913 1.434 . S
C913 C904 1.429 . S
C913 N910 1.350 . S
C913 C912 1.434 . S
C914 C915 1.369 . S
C914 C916 1.419 . S
C914 H918 0.930 . S
C915 C914 1.369 . S
C915 C924 1.429 . S
C916 C914 1.419 . S
C916 C917 1.363 . S
C916 H919 0.929 . S
C917 C916 1.363 . S
C917 C923 1.428 . S
H918 C914 0.930 . S
H919 C916 0.929 . S
S920 N921 1.613 . S
S920 N922 1.610 . S
N921 S920 1.613 . S
N921 C924 1.350 . S
N922 S920 1.610 . S
N922 C923 1.351 . S
C923 C917 1.428 . S
C923 N922 1.351 . S
C923 C924 1.434 . S
C924 C915 1.429 . S
C924 N921 1.350 . S
C924 C923 1.434 . S
C925 C926 1.369 . S
C925 C927 1.419 . S
C925 H929 0.930 . S
C926 C925 1.369 . S
C926 C935 1.429 . S
C927 C925 1.419 . S
C927 C928 1.363 . S
C927 H930 0.929 . S
C928 C927 1.363 . S
C928 C934 1.428 . S
H929 C925 0.930 . S
H930 C927 0.929 . S
S931 N932 1.613 . S
S931 N933 1.610 . S
N932 S931 1.613 . S
N932 C935 1.350 . S
N933 S931 1.610 . S
N933 C934 1.351 . S
C934 C928 1.428 . S
C934 N933 1.351 . S
C934 C935 1.434 . S
C935 C926 1.429 . S
C935 N932 1.350 . S
C935 C934 1.434 . S
C936 C937 1.369 . S
C936 C938 1.419 . S
C936 H940 0.930 . S
C937 C936 1.369 . S
C937 C946 1.429 . S
C938 C936 1.419 . S
C938 C939 1.363 . S
C938 H941 0.929 . S
C939 C938 1.363 . S
C939 C945 1.428 . S
H940 C936 0.930 . S
H941 C938 0.929 . S
S942 N943 1.613 . S
S942 N944 1.610 . S
N943 S942 1.613 . S
N943 C946 1.350 . S
N944 S942 1.610 . S
N944 C945 1.351 . S
C945 C939 1.428 . S
C945 N944 1.351 . S
C945 C946 1.434 . S
C946 C937 1.429 . S
C946 N943 1.350 . S
C946 C945 1.434 . S
C947 C948 1.369 . S
C947 C949 1.419 . S
C947 H951 0.930 . S
C948 C947 1.369 . S
C948 C957 1.429 . S
C949 C947 1.419 . S
C949 C950 1.363 . S
C949 H952 0.929 . S
C950 C949 1.363 . S
C950 C956 1.428 . S
H951 C947 0.930 . S
H952 C949 0.929 . S
S953 N954 1.613 . S
S953 N955 1.610 . S
N954 S953 1.613 . S
N954 C957 1.350 . S
N955 S953 1.610 . S
N955 C956 1.351 . S
C956 C950 1.428 . S
C956 N955 1.351 . S
C956 C957 1.434 . S
C957 C948 1.429 . S
C957 N954 1.350 . S
C957 C956 1.434 . S
C958 C959 1.369 . S
C958 C960 1.419 . S
C958 H962 0.930 . S
C959 C958 1.369 . S
C959 C968 1.429 . S
C960 C958 1.419 . S
C960 C961 1.363 . S
C960 H963 0.929 . S
C961 C960 1.363 . S
C961 C967 1.428 . S
H962 C958 0.930 . S
H963 C960 0.929 . S
S964 N965 1.613 . S
S964 N966 1.610 . S
N965 S964 1.613 . S
N965 C968 1.350 . S
N966 S964 1.610 . S
N966 C967 1.351 . S
C967 C961 1.428 . S
C967 N966 1.351 . S
C967 C968 1.434 . S
C968 C959 1.429 . S
C968 N965 1.350 . S
C968 C967 1.434 . S
C969 C970 1.369 . S
C969 C971 1.419 . S
C969 H973 0.930 . S
C970 C969 1.369 . S
C970 C979 1.429 . S
C971 C969 1.419 . S
C971 C972 1.363 . S
C971 H974 0.929 1_556 S
C972 C971 1.363 . S
C972 C978 1.428 . S
H973 C969 0.930 . S
H974 C971 0.929 1_554 S
S975 N976 1.613 . S
S975 N977 1.610 . S
N976 S975 1.613 . S
N976 C979 1.350 . S
N977 S975 1.610 . S
N977 C978 1.351 . S
C978 C972 1.428 . S
C978 N977 1.351 . S
C978 C979 1.434 . S
C979 C970 1.429 . S
C979 N976 1.350 . S
C979 C978 1.434 . S
C980 C981 1.369 . S
C980 C982 1.419 . S
C980 H984 0.930 . S
C981 C980 1.369 . S
C981 C990 1.429 . S
C982 C980 1.419 . S
C982 C983 1.363 . S
C982 H985 0.929 . S
C983 C982 1.363 . S
C983 C989 1.428 . S
H984 C980 0.930 . S
H985 C982 0.929 . S
S986 N987 1.613 . S
S986 N988 1.610 . S
N987 S986 1.613 . S
N987 C990 1.350 . S
N988 S986 1.610 . S
N988 C989 1.351 . S
C989 C983 1.428 . S
C989 N988 1.351 . S
C989 C990 1.434 . S
C990 C981 1.429 . S
C990 N987 1.350 . S
C990 C989 1.434 . S
C991 C992 1.369 . S
C991 C993 1.419 . S
C991 H995 0.930 . S
C992 C991 1.369 . S
C992 C1001 1.429 . S
C993 C991 1.419 . S
C993 C994 1.363 . S
C993 H996 0.929 . S
C994 C993 1.363 . S
C994 C1000 1.428 . S
H995 C991 0.930 . S
H996 C993 0.929 . S
S997 N998 1.613 . S
S997 N999 1.610 . S
N998 S997 1.613 . S
N998 C1001 1.350 . S
N999 S997 1.610 . S
N999 C1000 1.351 . S
C1000 C994 1.428 . S
C1000 N999 1.351 . S
C1000 C1001 1.434 . S
C1001 C992 1.429 . S
C1001 N998 1.350 . S
C1001 C1000 1.434 . S
C1002 C1003 1.369 . S
C1002 C1004 1.419 . S
C1002 H1006 0.930 . S
C1003 C1002 1.369 . S
C1003 C1012 1.429 . S
C1004 C1002 1.419 . S
C1004 C1005 1.363 . S
C1004 H1007 0.929 . S
C1005 C1004 1.363 . S
C1005 C1011 1.428 . S
H1006 C1002 0.930 . S
H1007 C1004 0.929 . S
S1008 N1009 1.613 . S
S1008 N1010 1.610 . S
N1009 S1008 1.613 . S
N1009 C1012 1.350 . S
N1010 S1008 1.610 . S
N1010 C1011 1.351 . S
C1011 C1005 1.428 . S
C1011 N1010 1.351 . S
C1011 C1012 1.434 . S
C1012 C1003 1.429 . S
C1012 N1009 1.350 . S
C1012 C1011 1.434 . S
C1013 C1014 1.369 . S
C1013 C1015 1.419 . S
C1013 H1017 0.930 . S
C1014 C1013 1.369 . S
C1014 C1023 1.429 . S
C1015 C1013 1.419 . S
C1015 C1016 1.371 . S
C1015 H1018 0.929 . S
C1016 C1015 1.371 . S
C1016 C1022 1.435 . S
H1017 C1013 0.930 . S
H1018 C1015 0.929 . S
S1019 N1020 1.613 1_455 S
S1019 N1021 1.610 . S
N1020 S1019 1.613 1_655 S
N1020 C1023 1.350 . S
N1021 S1019 1.610 . S
N1021 C1022 1.351 1_455 S
C1022 C1016 1.435 . S
C1022 N1021 1.351 1_655 S
C1022 C1023 1.434 . S
C1023 C1014 1.429 . S
C1023 N1020 1.350 . S
C1023 C1022 1.434 . S
C1024 C1025 1.369 . S
C1024 C1026 1.419 . S
C1024 H1028 0.930 . S
C1025 C1024 1.369 . S
C1025 C1034 1.429 . S
C1026 C1024 1.419 . S
C1026 C1027 1.363 . S
C1026 H1029 0.929 . S
C1027 C1026 1.363 . S
C1027 C1033 1.428 . S
H1028 C1024 0.930 . S
H1029 C1026 0.929 . S
S1030 N1031 1.613 . S
S1030 N1032 1.610 . S
N1031 S1030 1.613 . S
N1031 C1034 1.350 . S
N1032 S1030 1.610 . S
N1032 C1033 1.351 . S
C1033 C1027 1.428 . S
C1033 N1032 1.351 . S
C1033 C1034 1.434 . S
C1034 C1025 1.429 . S
C1034 N1031 1.350 . S
C1034 C1033 1.434 . S
C1035 C1036 1.369 . S
C1035 C1037 1.400 1_565 S
C1035 H1039 0.930 . S
C1036 C1035 1.369 . S
C1036 C1045 1.429 . S
C1037 C1035 1.400 1_545 S
C1037 C1038 1.360 1_545 S
C1037 H1040 0.952 . S
C1038 C1037 1.360 1_565 S
C1038 C1044 1.428 . S
H1039 C1035 0.930 . S
H1040 C1037 0.952 . S
S1041 N1042 1.613 . S
S1041 N1043 1.610 . S
N1042 S1041 1.613 . S
N1042 C1045 1.350 . S
N1043 S1041 1.610 . S
N1043 C1044 1.351 . S
C1044 C1038 1.428 . S
C1044 N1043 1.351 . S
C1044 C1045 1.434 . S
C1045 C1036 1.429 . S
C1045 N1042 1.350 . S
C1045 C1044 1.434 . S
C1046 C1047 1.369 . S
C1046 C1048 1.419 . S
C1046 H1050 0.930 . S
C1047 C1046 1.369 . S
C1047 C1056 1.429 . S
C1048 C1046 1.419 . S
C1048 C1049 1.363 . S
C1048 H1051 0.929 . S
C1049 C1048 1.363 . S
C1049 C1055 1.428 . S
H1050 C1046 0.930 . S
H1051 C1048 0.929 . S
S1052 N1053 1.613 . S
S1052 N1054 1.610 . S
N1053 S1052 1.613 . S
N1053 C1056 1.350 . S
N1054 S1052 1.610 . S
N1054 C1055 1.351 . S
C1055 C1049 1.428 . S
C1055 N1054 1.351 . S
C1055 C1056 1.434 . S
C1056 C1047 1.429 . S
C1056 N1053 1.350 . S
C1056 C1055 1.434 . S
C1057 C1058 1.369 . S
C1057 C1059 1.419 . S
C1057 H1061 0.930 . S
C1058 C1057 1.369 . S
C1058 C1067 1.429 . S
C1059 C1057 1.419 . S
C1059 C1060 1.371 . S
C1059 H1062 0.929 . S
C1060 C1059 1.371 . S
C1060 C1066 1.426 1_545 S
H1061 C1057 0.930 . S
H1062 C1059 0.929 . S
S1063 N1064 1.613 . S
S1063 N1065 1.610 . S
N1064 S1063 1.613 . S
N1064 C1067 1.350 1_565 S
N1065 S1063 1.610 . S
N1065 C1066 1.351 . S
C1066 C1060 1.426 1_565 S
C1066 N1065 1.351 . S
C1066 C1067 1.434 1_565 S
C1067 C1058 1.429 . S
C1067 N1064 1.350 1_545 S
C1067 C1066 1.434 1_545 S
C1068 C1069 1.369 . S
C1068 C1070 1.419 . S
C1068 H1072 0.930 . S
C1069 C1068 1.369 . S
C1069 C1078 1.429 . S
C1070 C1068 1.419 . S
C1070 C1071 1.363 . S
C1070 H1073 0.929 . S
C1071 C1070 1.363 . S
C1071 C1077 1.428 . S
H1072 C1068 0.930 . S
H1073 C1070 0.929 . S
S1074 N1075 1.613 . S
S1074 N1076 1.610 . S
N1075 S1074 1.613 . S
N1075 C1078 1.350 . S
N1076 S1074 1.610 . S
N1076 C1077 1.351 . S
C1077 C1071 1.428 . S
C1077 N1076 1.351 . S
C1077 C1078 1.434 . S
C1078 C1069 1.429 . S
C1078 N1075 1.350 . S
C1078 C1077 1.434 . S
C1079 C1080 1.369 . S
C1079 C1081 1.419 . S
C1079 H1083 0.930 . S
C1080 C1079 1.369 . S
C1080 C1089 1.429 . S
C1081 C1079 1.419 . S
C1081 C1082 1.363 . S
C1081 H1084 0.929 . S
C1082 C1081 1.363 . S
C1082 C1088 1.428 . S
H1083 C1079 0.930 . S
H1084 C1081 0.929 . S
S1085 N1086 1.613 1_545 S
S1085 N1087 1.610 . S
N1086 S1085 1.613 1_565 S
N1086 C1089 1.350 . S
N1087 S1085 1.610 . S
N1087 C1088 1.351 1_545 S
C1088 C1082 1.428 . S
C1088 N1087 1.351 1_565 S
C1088 C1089 1.434 . S
C1089 C1080 1.429 . S
C1089 N1086 1.350 . S
C1089 C1088 1.434 . S
C1090 C1091 1.369 . S
C1090 C1092 1.419 . S
C1090 H1094 0.930 . S
C1091 C1090 1.369 . S
C1091 C1100 1.429 . S
C1092 C1090 1.419 . S
C1092 C1093 1.363 . S
C1092 H1095 0.929 . S
C1093 C1092 1.363 . S
C1093 C1099 1.428 . S
H1094 C1090 0.930 . S
H1095 C1092 0.929 . S
S1096 N1097 1.613 . S
S1096 N1098 1.610 . S
N1097 S1096 1.613 . S
N1097 C1100 1.350 . S
N1098 S1096 1.610 . S
N1098 C1099 1.351 . S
C1099 C1093 1.428 . S
C1099 N1098 1.351 . S
C1099 C1100 1.434 . S
C1100 C1091 1.429 . S
C1100 N1097 1.350 . S
C1100 C1099 1.434 . S
C1101 C1102 1.374 . S
C1101 C1103 1.419 . S
C1101 H1105 0.930 . S
C1102 C1101 1.374 . S
C1102 C1111 1.427 1_545 S
C1103 C1101 1.419 . S
C1103 C1104 1.363 . S
C1103 H1106 0.929 . S
C1104 C1103 1.363 . S
C1104 C1110 1.428 . S
H1105 C1101 0.930 . S
H1106 C1103 0.929 . S
S1107 N1108 1.613 . S
S1107 N1109 1.610 1_565 S
N1108 S1107 1.613 . S
N1108 C1111 1.350 . S
N1109 S1107 1.610 1_545 S
N1109 C1110 1.351 . S
C1110 C1104 1.428 . S
C1110 N1109 1.351 . S
C1110 C1111 1.434 1_545 S
C1111 C1102 1.427 1_565 S
C1111 N1108 1.350 . S
C1111 C1110 1.434 1_565 S
C1112 C1113 1.369 . S
C1112 C1114 1.419 . S
C1112 H1116 0.930 . S
C1113 C1112 1.369 . S
C1113 C1122 1.429 . S
C1114 C1112 1.419 . S
C1114 C1115 1.363 . S
C1114 H1117 0.929 . S
C1115 C1114 1.363 . S
C1115 C1121 1.428 . S
H1116 C1112 0.930 . S
H1117 C1114 0.929 . S
S1118 N1119 1.613 . S
S1118 N1120 1.610 . S
N1119 S1118 1.613 . S
N1119 C1122 1.350 . S
N1120 S1118 1.610 . S
N1120 C1121 1.351 . S
C1121 C1115 1.428 . S
C1121 N1120 1.351 . S
C1121 C1122 1.434 . S
C1122 C1113 1.429 . S
C1122 N1119 1.350 . S
C1122 C1121 1.434 . S
C1123 C1124 1.369 . S
C1123 C1125 1.419 . S
C1123 H1127 0.930 . S
C1124 C1123 1.369 . S
C1124 C1133 1.429 . S
C1125 C1123 1.419 . S
C1125 C1126 1.363 . S
C1125 H1128 0.929 . S
C1126 C1125 1.363 . S
C1126 C1132 1.428 . S
H1127 C1123 0.930 . S
H1128 C1125 0.929 . S
S1129 N1130 1.613 . S
S1129 N1131 1.610 . S
N1130 S1129 1.613 . S
N1130 C1133 1.350 . S
N1131 S1129 1.610 . S
N1131 C1132 1.351 . S
C1132 C1126 1.428 . S
C1132 N1131 1.351 . S
C1132 C1133 1.434 . S
C1133 C1124 1.429 . S
C1133 N1130 1.350 . S
C1133 C1132 1.434 . S
C1134 C1135 1.369 . S
C1134 C1136 1.419 1_655 S
C1134 H1138 0.930 1_655 S
C1135 C1134 1.369 . S
C1135 C1144 1.429 . S
C1136 C1134 1.419 1_455 S
C1136 C1137 1.363 1_455 S
C1136 H1139 0.929 . S
C1137 C1136 1.363 1_655 S
C1137 C1143 1.428 . S
H1138 C1134 0.930 1_455 S
H1139 C1136 0.929 . S
S1140 N1141 1.613 . S
S1140 N1142 1.610 . S
N1141 S1140 1.613 . S
N1141 C1144 1.350 . S
N1142 S1140 1.610 . S
N1142 C1143 1.351 . S
C1143 C1137 1.428 . S
C1143 N1142 1.351 . S
C1143 C1144 1.434 . S
C1144 C1135 1.429 . S
C1144 N1141 1.350 . S
C1144 C1143 1.434 . S
C1145 C1146 1.369 . S
C1145 C1147 1.419 . S
C1145 H1149 0.930 . S
C1146 C1145 1.369 . S
C1146 C1155 1.429 . S
C1147 C1145 1.419 . S
C1147 C1148 1.363 . S
C1147 H1150 0.929 . S
C1148 C1147 1.363 . S
C1148 C1154 1.428 . S
H1149 C1145 0.930 . S
H1150 C1147 0.929 . S
S1151 N1152 1.613 . S
S1151 N1153 1.610 . S
N1152 S1151 1.613 . S
N1152 C1155 1.350 . S
N1153 S1151 1.610 . S
N1153 C1154 1.351 . S
C1154 C1148 1.428 . S
C1154 N1153 1.351 . S
C1154 C1155 1.434 . S
C1155 C1146 1.429 . S
C1155 N1152 1.350 . S
C1155 C1154 1.434 . S
C1156 C1157 1.369 . S
C1156 C1158 1.419 1_455 S
C1156 H1160 0.916 1_455 S
C1157 C1156 1.369 . S
C1157 C1166 1.429 . S
C1158 C1156 1.419 1_655 S
C1158 C1159 1.353 1_655 S
C1158 H1161 0.929 . S
C1159 C1158 1.353 1_455 S
C1159 C1165 1.457 . S
H1160 C1156 0.916 1_655 S
H1161 C1158 0.929 . S
S1162 N1163 1.613 . S
S1162 N1164 1.610 . S
N1163 S1162 1.613 . S
N1163 C1166 1.350 . S
N1164 S1162 1.610 . S
N1164 C1165 1.351 . S
C1165 C1159 1.457 . S
C1165 N1164 1.351 . S
C1165 C1166 1.434 . S
C1166 C1157 1.429 . S
C1166 N1163 1.350 . S
C1166 C1165 1.434 . S
C1167 C1168 1.369 . S
C1167 C1169 1.419 . S
C1167 H1171 0.930 . S
C1168 C1167 1.369 . S
C1168 C1177 1.429 . S
C1169 C1167 1.419 . S
C1169 C1170 1.363 . S
C1169 H1172 0.929 . S
C1170 C1169 1.363 . S
C1170 C1176 1.428 . S
H1171 C1167 0.930 . S
H1172 C1169 0.929 . S
S1173 N1174 1.613 . S
S1173 N1175 1.610 . S
N1174 S1173 1.613 . S
N1174 C1177 1.350 . S
N1175 S1173 1.610 . S
N1175 C1176 1.351 . S
C1176 C1170 1.428 . S
C1176 N1175 1.351 . S
C1176 C1177 1.434 . S
C1177 C1168 1.429 . S
C1177 N1174 1.350 . S
C1177 C1176 1.434 . S
C1178 C1179 1.369 . S
C1178 C1180 1.419 . S
C1178 H1182 0.930 . S
C1179 C1178 1.369 . S
C1179 C1188 1.429 . S
C1180 C1178 1.419 . S
C1180 C1181 1.363 . S
C1180 H1183 0.929 . S
C1181 C1180 1.363 . S
C1181 C1187 1.428 1_655 S
H1182 C1178 0.930 . S
H1183 C1180 0.929 . S
S1184 N1185 1.613 . S
S1184 N1186 1.610 . S
N1185 S1184 1.613 . S
N1185 C1188 1.350 1_455 S
N1186 S1184 1.610 . S
N1186 C1187 1.351 . S
C1187 C1181 1.428 1_455 S
C1187 N1186 1.351 . S
C1187 C1188 1.434 1_455 S
C1188 C1179 1.429 . S
C1188 N1185 1.350 1_655 S
C1188 C1187 1.434 1_655 S
C1189 C1190 1.369 . S
C1189 C1191 1.419 . S
C1189 H1193 0.930 . S
C1190 C1189 1.369 . S
C1190 C1199 1.429 . S
C1191 C1189 1.419 . S
C1191 C1192 1.363 . S
C1191 H1194 0.929 . S
C1192 C1191 1.363 . S
C1192 C1198 1.428 . S
H1193 C1189 0.930 . S
H1194 C1191 0.929 . S
S1195 N1196 1.613 . S
S1195 N1197 1.610 . S
N1196 S1195 1.613 . S
N1196 C1199 1.350 . S
N1197 S1195 1.610 . S
N1197 C1198 1.351 . S
C1198 C1192 1.428 . S
C1198 N1197 1.351 . S
C1198 C1199 1.434 . S
C1199 C1190 1.429 . S
C1199 N1196 1.350 . S
C1199 C1198 1.434 . S
C1200 C1201 1.369 . S
C1200 C1202 1.419 . S
C1200 H1204 0.930 . S
C1201 C1200 1.369 . S
C1201 C1210 1.429 . S
C1202 C1200 1.419 . S
C1202 C1203 1.363 . S
C1202 H1205 0.929 . S
C1203 C1202 1.363 . S
C1203 C1209 1.428 . S
H1204 C1200 0.930 . S
H1205 C1202 0.929 . S
S1206 N1207 1.613 . S
S1206 N1208 1.610 . S
N1207 S1206 1.613 . S
N1207 C1210 1.350 . S
N1208 S1206 1.610 . S
N1208 C1209 1.351 . S
C1209 C1203 1.428 . S
C1209 N1208 1.351 . S
C1209 C1210 1.434 . S
C1210 C1201 1.429 . S
C1210 N1207 1.350 . S
C1210 C1209 1.434 . S
C1211 C1212 1.369 . S
C1211 C1213 1.419 . S
C1211 H1215 0.930 1_556 S
C1212 C1211 1.369 . S
C1212 C1221 1.429 . S
C1213 C1211 1.419 . S
C1213 C1214 1.363 . S
C1213 H1216 0.929 . S
C1214 C1213 1.363 . S
C1214 C1220 1.428 . S
H1215 C1211 0.930 1_554 S
H1216 C1213 0.929 . S
S1217 N1218 1.613 . S
S1217 N1219 1.610 . S
N1218 S1217 1.613 . S
N1218 C1221 1.350 . S
N1219 S1217 1.610 . S
N1219 C1220 1.351 . S
C1220 C1214 1.428 . S
C1220 N1219 1.351 . S
C1220 C1221 1.434 . S
C1221 C1212 1.429 . S
C1221 N1218 1.350 . S
C1221 C1220 1.434 . S
C1222 C1223 1.369 . S
C1222 C1224 1.419 . S
C1222 H1226 0.930 . S
C1223 C1222 1.369 . S
C1223 C1232 1.429 . S
C1224 C1222 1.419 . S
C1224 C1225 1.363 . S
C1224 H1227 0.929 . S
C1225 C1224 1.363 . S
C1225 C1231 1.428 . S
H1226 C1222 0.930 . S
H1227 C1224 0.929 . S
S1228 N1229 1.613 . S
S1228 N1230 1.610 . S
N1229 S1228 1.613 . S
N1229 C1232 1.350 . S
N1230 S1228 1.610 . S
N1230 C1231 1.351 . S
C1231 C1225 1.428 . S
C1231 N1230 1.351 . S
C1231 C1232 1.434 . S
C1232 C1223 1.429 . S
C1232 N1229 1.350 . S
C1232 C1231 1.434 . S
C1233 C1234 1.369 . S
C1233 C1235 1.419 . S
C1233 H1237 0.930 . S
C1234 C1233 1.369 . S
C1234 C1243 1.429 . S
C1235 C1233 1.419 . S
C1235 C1236 1.363 . S
C1235 H1238 0.929 . S
C1236 C1235 1.363 . S
C1236 C1242 1.428 . S
H1237 C1233 0.930 . S
H1238 C1235 0.929 . S
S1239 N1240 1.613 . S
S1239 N1241 1.610 . S
N1240 S1239 1.613 . S
N1240 C1243 1.350 . S
N1241 S1239 1.610 . S
N1241 C1242 1.351 . S
C1242 C1236 1.428 . S
C1242 N1241 1.351 . S
C1242 C1243 1.434 . S
C1243 C1234 1.429 . S
C1243 N1240 1.350 . S
C1243 C1242 1.434 . S
C1244 C1245 1.369 . S
C1244 C1246 1.419 . S
C1244 H1248 0.930 . S
C1245 C1244 1.369 . S
C1245 C1254 1.429 . S
C1246 C1244 1.419 . S
C1246 C1247 1.363 . S
C1246 H1249 0.929 . S
C1247 C1246 1.363 . S
C1247 C1253 1.428 . S
H1248 C1244 0.930 . S
H1249 C1246 0.929 . S
S1250 N1251 1.613 . S
S1250 N1252 1.610 . S
N1251 S1250 1.613 . S
N1251 C1254 1.350 . S
N1252 S1250 1.610 . S
N1252 C1253 1.351 . S
C1253 C1247 1.428 . S
C1253 N1252 1.351 . S
C1253 C1254 1.434 . S
C1254 C1245 1.429 . S
C1254 N1251 1.350 . S
C1254 C1253 1.434 . S
C1255 C1256 1.357 1_556 S
C1255 C1257 1.419 1_556 S
C1255 H1259 0.930 . S
C1256 C1255 1.357 1_554 S
C1256 C1265 1.461 . S
C1257 C1255 1.419 1_554 S
C1257 C1258 1.363 . S
C1257 H1260 0.929 1_554 S
C1258 C1257 1.363 . S
C1258 C1264 1.428 . S
H1259 C1255 0.930 . S
H1260 C1257 0.929 1_556 S
S1261 N1262 1.613 . S
S1261 N1263 1.610 . S
N1262 S1261 1.613 . S
N1262 C1265 1.350 . S
N1263 S1261 1.610 . S
N1263 C1264 1.351 . S
C1264 C1258 1.428 . S
C1264 N1263 1.351 . S
C1264 C1265 1.434 . S
C1265 C1256 1.461 . S
C1265 N1262 1.350 . S
C1265 C1264 1.434 . S
C1266 C1267 1.369 . S
C1266 C1268 1.419 . S
C1266 H1270 0.930 . S
C1267 C1266 1.369 . S
C1267 C1276 1.429 . S
C1268 C1266 1.419 . S
C1268 C1269 1.363 . S
C1268 H1271 0.929 . S
C1269 C1268 1.363 . S
C1269 C1275 1.428 . S
H1270 C1266 0.930 . S
H1271 C1268 0.929 . S
S1272 N1273 1.613 . S
S1272 N1274 1.610 . S
N1273 S1272 1.613 . S
N1273 C1276 1.350 . S
N1274 S1272 1.610 . S
N1274 C1275 1.351 . S
C1275 C1269 1.428 . S
C1275 N1274 1.351 . S
C1275 C1276 1.434 . S
C1276 C1267 1.429 . S
C1276 N1273 1.350 . S
C1276 C1275 1.434 . S
C1277 C1278 1.369 . S
C1277 C1279 1.419 . S
C1277 H1281 0.930 . S
C1278 C1277 1.369 . S
C1278 C1287 1.429 . S
C1279 C1277 1.419 . S
C1279 C1280 1.363 . S
C1279 H1282 0.929 . S
C1280 C1279 1.363 . S
C1280 C1286 1.428 . S
H1281 C1277 0.930 . S
H1282 C1279 0.929 . S
S1283 N1284 1.613 . S
S1283 N1285 1.610 . S
N1284 S1283 1.613 . S
N1284 C1287 1.350 . S
N1285 S1283 1.610 . S
N1285 C1286 1.351 . S
C1286 C1280 1.428 . S
C1286 N1285 1.351 . S
C1286 C1287 1.434 . S
C1287 C1278 1.429 . S
C1287 N1284 1.350 . S
C1287 C1286 1.434 . S
C1288 C1289 1.369 . S
C1288 C1290 1.419 . S
C1288 H1292 0.930 . S
C1289 C1288 1.369 . S
C1289 C1298 1.429 . S
C1290 C1288 1.419 . S
C1290 C1291 1.363 . S
C1290 H1293 0.929 . S
C1291 C1290 1.363 . S
C1291 C1297 1.428 . S
H1292 C1288 0.930 . S
H1293 C1290 0.929 . S
S1294 N1295 1.613 . S
S1294 N1296 1.610 . S
N1295 S1294 1.613 . S
N1295 C1298 1.350 . S
N1296 S1294 1.610 . S
N1296 C1297 1.351 . S
C1297 C1291 1.428 . S
C1297 N1296 1.351 . S
C1297 C1298 1.434 . S
C1298 C1289 1.429 . S
C1298 N1295 1.350 . S
C1298 C1297 1.434 . S
C1299 C1300 1.369 . S
C1299 C1301 1.419 . S
C1299 H1303 0.930 . S
C1300 C1299 1.369 . S
C1300 C1309 1.429 . S
C1301 C1299 1.419 . S
C1301 C1302 1.363 . S
C1301 H1304 0.929 . S
C1302 C1301 1.363 . S
C1302 C1308 1.428 . S
H1303 C1299 0.930 . S
H1304 C1301 0.929 . S
S1305 N1306 1.613 . S
S1305 N1307 1.610 . S
N1306 S1305 1.613 . S
N1306 C1309 1.350 . S
N1307 S1305 1.610 . S
N1307 C1308 1.351 . S
C1308 C1302 1.428 . S
C1308 N1307 1.351 . S
C1308 C1309 1.434 . S
C1309 C1300 1.429 . S
C1309 N1306 1.350 . S
C1309 C1308 1.434 . S
C1310 C1311 1.369 . S
C1310 C1312 1.419 . S
C1310 H1314 0.930 . S
C1311 C1310 1.369 . S
C1311 C1320 1.429 . S
C1312 C1310 1.419 . S
C1312 C1313 1.363 . S
C1312 H1315 0.929 . S
C1313 C1312 1.363 . S
C1313 C1319 1.428 . S
H1314 C1310 0.930 . S
H1315 C1312 0.929 . S
S1316 N1317 1.613 . S
S1316 N1318 1.610 . S
N1317 S1316 1.613 . S
N1317 C1320 1.350 . S
N1318 S1316 1.610 . S
N1318 C1319 1.351 . S
C1319 C1313 1.428 . S
C1319 N1318 1.351 . S
C1319 C1320 1.434 . S
C1320 C1311 1.429 . S
C1320 N1317 1.350 . S
C1320 C1319 1.434 . S
C1321 C1322 1.369 . S
C1321 C1323 1.419 . S
C1321 H1325 0.930 . S
C1322 C1321 1.369 . S
C1322 C1331 1.429 . S
C1323 C1321 1.419 . S
C1323 C1324 1.363 . S
C1323 H1326 0.929 . S
C1324 C1323 1.363 . S
C1324 C1330 1.428 . S
H1325 C1321 0.930 . S
H1326 C1323 0.929 . S
S1327 N1328 1.613 . S
S1327 N1329 1.610 . S
N1328 S1327 1.613 . S
N1328 C1331 1.350 . S
N1329 S1327 1.610 . S
N1329 C1330 1.351 . S
C1330 C1324 1.428 . S
C1330 N1329 1.351 . S
C1330 C1331 1.434 . S
C1331 C1322 1.429 . S
C1331 N1328 1.350 . S
C1331 C1330 1.434 . S
C1332 C1333 1.369 . S
C1332 C1334 1.419 . S
C1332 H1336 0.930 . S
C1333 C1332 1.369 . S
C1333 C1342 1.429 . S
C1334 C1332 1.419 . S
C1334 C1335 1.363 . S
C1334 H1337 0.929 . S
C1335 C1334 1.363 . S
C1335 C1341 1.428 . S
H1336 C1332 0.930 . S
H1337 C1334 0.929 . S
S1338 N1339 1.613 . S
S1338 N1340 1.610 . S
N1339 S1338 1.613 . S
N1339 C1342 1.350 . S
N1340 S1338 1.610 . S
N1340 C1341 1.351 . S
C1341 C1335 1.428 . S
C1341 N1340 1.351 . S
C1341 C1342 1.434 . S
C1342 C1333 1.429 . S
C1342 N1339 1.350 . S
C1342 C1341 1.434 . S
C1343 C1344 1.369 . S
C1343 C1345 1.419 . S
C1343 H1347 0.930 . S
C1344 C1343 1.369 . S
C1344 C1353 1.429 . S
C1345 C1343 1.419 . S
C1345 C1346 1.363 . S
C1345 H1348 0.929 . S
C1346 C1345 1.363 . S
C1346 C1352 1.428 . S
H1347 C1343 0.930 . S
H1348 C1345 0.929 . S
S1349 N1350 1.613 . S
S1349 N1351 1.610 . S
N1350 S1349 1.613 . S
N1350 C1353 1.350 . S
N1351 S1349 1.610 . S
N1351 C1352 1.351 . S
C1352 C1346 1.428 . S
C1352 N1351 1.351 . S
C1352 C1353 1.434 . S
C1353 C1344 1.429 . S
C1353 N1350 1.350 . S
C1353 C1352 1.434 . S
C1354 C1355 1.369 . S
C1354 C1356 1.419 . S
C1354 H1358 0.930 . S
C1355 C1354 1.369 . S
C1355 C1364 1.429 . S
C1356 C1354 1.419 . S
C1356 C1357 1.363 . S
C1356 H1359 0.929 . S
C1357 C1356 1.363 . S
C1357 C1363 1.428 . S
H1358 C1354 0.930 . S
H1359 C1356 0.929 . S
S1360 N1361 1.613 . S
S1360 N1362 1.610 . S
N1361 S1360 1.613 . S
N1361 C1364 1.350 . S
N1362 S1360 1.610 . S
N1362 C1363 1.351 . S
C1363 C1357 1.428 . S
C1363 N1362 1.351 . S
C1363 C1364 1.434 . S
C1364 C1355 1.429 . S
C1364 N1361 1.350 . S
C1364 C1363 1.434 . S
C1365 C1366 1.369 . S
C1365 C1367 1.419 . S
C1365 H1369 0.930 . S
C1366 C1365 1.369 . S
C1366 C1375 1.429 . S
C1367 C1365 1.419 . S
C1367 C1368 1.363 . S
C1367 H1370 0.929 . S
C1368 C1367 1.363 . S
C1368 C1374 1.428 . S
H1369 C1365 0.930 . S
H1370 C1367 0.929 . S
S1371 N1372 1.613 . S
S1371 N1373 1.610 . S
N1372 S1371 1.613 . S
N1372 C1375 1.350 . S
N1373 S1371 1.610 . S
N1373 C1374 1.351 . S
C1374 C1368 1.428 . S
C1374 N1373 1.351 . S
C1374 C1375 1.434 . S
C1375 C1366 1.429 . S
C1375 N1372 1.350 . S
C1375 C1374 1.434 . S
C1376 C1377 1.369 . S
C1376 C1378 1.419 . S
C1376 H1380 0.930 . S
C1377 C1376 1.369 . S
C1377 C1386 1.429 . S
C1378 C1376 1.419 . S
C1378 C1379 1.363 . S
C1378 H1381 0.929 . S
C1379 C1378 1.363 . S
C1379 C1385 1.428 . S
H1380 C1376 0.930 . S
H1381 C1378 0.929 . S
S1382 N1383 1.613 . S
S1382 N1384 1.610 . S
N1383 S1382 1.613 . S
N1383 C1386 1.350 . S
N1384 S1382 1.610 . S
N1384 C1385 1.351 . S
C1385 C1379 1.428 . S
C1385 N1384 1.351 . S
C1385 C1386 1.434 . S
C1386 C1377 1.429 . S
C1386 N1383 1.350 . S
C1386 C1385 1.434 . S
C1387 C1388 1.369 . S
C1387 C1389 1.419 . S
C1387 H1391 0.930 . S
C1388 C1387 1.369 . S
C1388 C1397 1.429 . S
C1389 C1387 1.419 . S
C1389 C1390 1.363 . S
C1389 H1392 0.929 . S
C1390 C1389 1.363 . S
C1390 C1396 1.428 . S
H1391 C1387 0.930 . S
H1392 C1389 0.929 . S
S1393 N1394 1.613 . S
S1393 N1395 1.610 . S
N1394 S1393 1.613 . S
N1394 C1397 1.350 . S
N1395 S1393 1.610 . S
N1395 C1396 1.351 . S
C1396 C1390 1.428 . S
C1396 N1395 1.351 . S
C1396 C1397 1.434 . S
C1397 C1388 1.429 . S
C1397 N1394 1.350 . S
C1397 C1396 1.434 . S
C1398 C1399 1.369 . S
C1398 C1400 1.419 . S
C1398 H1402 0.930 . S
C1399 C1398 1.369 . S
C1399 C1408 1.429 . S
C1400 C1398 1.419 . S
C1400 C1401 1.363 . S
C1400 H1403 0.929 . S
C1401 C1400 1.363 . S
C1401 C1407 1.428 . S
H1402 C1398 0.930 . S
H1403 C1400 0.929 . S
S1404 N1405 1.613 1_565 S
S1404 N1406 1.610 . S
N1405 S1404 1.613 1_545 S
N1405 C1408 1.350 . S
N1406 S1404 1.610 . S
N1406 C1407 1.351 1_565 S
C1407 C1401 1.428 . S
C1407 N1406 1.351 1_545 S
C1407 C1408 1.434 . S
C1408 C1399 1.429 . S
C1408 N1405 1.350 . S
C1408 C1407 1.434 . S
C1409 C1410 1.369 . S
C1409 C1411 1.419 . S
C1409 H1413 0.930 . S
C1410 C1409 1.369 . S
C1410 C1419 1.429 . S
C1411 C1409 1.419 . S
C1411 C1412 1.363 . S
C1411 H1414 0.929 . S
C1412 C1411 1.363 . S
C1412 C1418 1.428 . S
H1413 C1409 0.930 . S
H1414 C1411 0.929 . S
S1415 N1416 1.613 . S
S1415 N1417 1.610 . S
N1416 S1415 1.613 . S
N1416 C1419 1.350 . S
N1417 S1415 1.610 . S
N1417 C1418 1.351 . S
C1418 C1412 1.428 . S
C1418 N1417 1.351 . S
C1418 C1419 1.434 . S
C1419 C1410 1.429 . S
C1419 N1416 1.350 . S
C1419 C1418 1.434 . S
C1420 C1421 1.369 . S
C1420 C1422 1.419 . S
C1420 H1424 0.930 . S
C1421 C1420 1.369 . S
C1421 C1430 1.429 . S
C1422 C1420 1.419 . S
C1422 C1423 1.363 . S
C1422 H1425 0.929 . S
C1423 C1422 1.363 . S
C1423 C1429 1.428 . S
H1424 C1420 0.930 . S
H1425 C1422 0.929 . S
S1426 N1427 1.613 . S
S1426 N1428 1.610 . S
N1427 S1426 1.613 . S
N1427 C1430 1.350 . S
N1428 S1426 1.610 . S
N1428 C1429 1.351 . S
C1429 C1423 1.428 . S
C1429 N1428 1.351 . S
C1429 C1430 1.434 . S
C1430 C1421 1.429 . S
C1430 N1427 1.350 . S
C1430 C1429 1.434 . S
C1431 C1432 1.369 . S
C1431 C1433 1.419 . S
C1431 H1435 0.930 . S
C1432 C1431 1.369 . S
C1432 C1441 1.429 . S
C1433 C1431 1.419 . S
C1433 C1434 1.363 . S
C1433 H1436 0.929 . S
C1434 C1433 1.363 . S
C1434 C1440 1.428 . S
H1435 C1431 0.930 . S
H1436 C1433 0.929 . S
S1437 N1438 1.613 . S
S1437 N1439 1.610 . S
N1438 S1437 1.613 . S
N1438 C1441 1.350 . S
N1439 S1437 1.610 . S
N1439 C1440 1.351 . S
C1440 C1434 1.428 . S
C1440 N1439 1.351 . S
C1440 C1441 1.434 . S
C1441 C1432 1.429 . S
C1441 N1438 1.350 . S
C1441 C1440 1.434 . S
C1442 C1443 1.369 . S
C1442 C1444 1.419 . S
C1442 H1446 0.930 . S
C1443 C1442 1.369 . S
C1443 C1452 1.429 . S
C1444 C1442 1.419 . S
C1444 C1445 1.363 . S
C1444 H1447 0.929 . S
C1445 C1444 1.363 . S
C1445 C1451 1.428 . S
H1446 C1442 0.930 . S
H1447 C1444 0.929 . S
S1448 N1449 1.613 1_545 S
S1448 N1450 1.610 . S
N1449 S1448 1.613 1_565 S
N1449 C1452 1.350 . S
N1450 S1448 1.610 . S
N1450 C1451 1.351 1_545 S
C1451 C1445 1.428 . S
C1451 N1450 1.351 1_565 S
C1451 C1452 1.434 . S
C1452 C1443 1.429 . S
C1452 N1449 1.350 . S
C1452 C1451 1.434 . S
C1453 C1454 1.369 . S
C1453 C1455 1.419 . S
C1453 H1457 0.930 . S
C1454 C1453 1.369 . S
C1454 C1463 1.429 . S
C1455 C1453 1.419 . S
C1455 C1456 1.374 . S
C1455 H1458 0.929 . S
C1456 C1455 1.374 . S
C1456 C1462 1.429 . S
H1457 C1453 0.930 . S
H1458 C1455 0.929 . S
S1459 N1460 1.613 1_665 S
S1459 N1461 1.610 . S
N1460 S1459 1.613 1_445 S
N1460 C1463 1.350 . S
N1461 S1459 1.610 . S
N1461 C1462 1.351 1_665 S
C1462 C1456 1.429 . S
C1462 N1461 1.351 1_445 S
C1462 C1463 1.434 . S
C1463 C1454 1.429 . S
C1463 N1460 1.350 . S
C1463 C1462 1.434 . S
C1464 C1465 1.369 . S
C1464 C1466 1.419 . S
C1464 H1468 0.930 . S
C1465 C1464 1.369 . S
C1465 C1474 1.429 . S
C1466 C1464 1.419 . S
C1466 C1467 1.363 . S
C1466 H1469 0.929 . S
C1467 C1466 1.363 . S
C1467 C1473 1.428 . S
H1468 C1464 0.930 . S
H1469 C1466 0.929 . S
S1470 N1471 1.613 . S
S1470 N1472 1.610 . S
N1471 S1470 1.613 . S
N1471 C1474 1.350 . S
N1472 S1470 1.610 . S
N1472 C1473 1.351 . S
C1473 C1467 1.428 . S
C1473 N1472 1.351 . S
C1473 C1474 1.434 . S
C1474 C1465 1.429 . S
C1474 N1471 1.350 . S
C1474 C1473 1.434 . S
C1475 C1476 1.369 . S
C1475 C1477 1.419 . S
C1475 H1479 0.930 . S
C1476 C1475 1.369 . S
C1476 C1485 1.429 . S
C1477 C1475 1.419 . S
C1477 C1478 1.363 . S
C1477 H1480 0.929 . S
C1478 C1477 1.363 . S
C1478 C1484 1.428 . S
H1479 C1475 0.930 . S
H1480 C1477 0.929 . S
S1481 N1482 1.613 . S
S1481 N1483 1.610 . S
N1482 S1481 1.613 . S
N1482 C1485 1.350 . S
N1483 S1481 1.610 . S
N1483 C1484 1.351 . S
C1484 C1478 1.428 . S
C1484 N1483 1.351 . S
C1484 C1485 1.434 . S
C1485 C1476 1.429 . S
C1485 N1482 1.350 . S
C1485 C1484 1.434 . S
C1486 C1487 1.369 . S
C1486 C1488 1.419 . S
C1486 H1490 0.930 . S
C1487 C1486 1.369 . S
C1487 C1496 1.429 . S
C1488 C1486 1.419 . S
C1488 C1489 1.363 . S
C1488 H1491 0.929 . S
C1489 C1488 1.363 . S
C1489 C1495 1.428 . S
H1490 C1486 0.930 . S
H1491 C1488 0.929 . S
S1492 N1493 1.613 . S
S1492 N1494 1.610 . S
N1493 S1492 1.613 . S
N1493 C1496 1.350 . S
N1494 S1492 1.610 . S
N1494 C1495 1.351 . S
C1495 C1489 1.428 . S
C1495 N1494 1.351 . S
C1495 C1496 1.434 . S
C1496 C1487 1.429 . S
C1496 N1493 1.350 . S
C1496 C1495 1.434 . S
C1497 C1498 1.369 . S
C1497 C1499 1.419 . S
C1497 H1501 0.930 . S
C1498 C1497 1.369 . S
C1498 C1507 1.429 . S
C1499 C1497 1.419 . S
C1499 C1500 1.363 . S
C1499 H1502 0.929 . S
C1500 C1499 1.363 . S
C1500 C1506 1.428 . S
H1501 C1497 0.930 . S
H1502 C1499 0.929 . S
S1503 N1504 1.613 . S
S1503 N1505 1.610 . S
N1504 S1503 1.613 . S
N1504 C1507 1.350 . S
N1505 S1503 1.610 . S
N1505 C1506 1.351 . S
C1506 C1500 1.428 . S
C1506 N1505 1.351 . S
C1506 C1507 1.434 . S
C1507 C1498 1.429 . S
C1507 N1504 1.350 . S
C1507 C1506 1.434 . S
C1508 C1509 1.369 . S
C1508 C1510 1.419 . S
C1508 H1512 0.930 . S
C1509 C1508 1.369 . S
C1509 C1518 1.429 . S
C1510 C1508 1.419 . S
C1510 C1511 1.363 . S
C1510 H1513 0.929 . S
C1511 C1510 1.363 . S
C1511 C1517 1.428 . S
H1512 C1508 0.930 . S
H1513 C1510 0.929 . S
S1514 N1515 1.613 . S
S1514 N1516 1.610 . S
N1515 S1514 1.613 . S
N1515 C1518 1.350 . S
N1516 S1514 1.610 . S
N1516 C1517 1.351 . S
C1517 C1511 1.428 . S
C1517 N1516 1.351 . S
C1517 C1518 1.434 . S
C1518 C1509 1.429 . S
C1518 N1515 1.350 . S
C1518 C1517 1.434 . S
C1519 C1520 1.369 . S
C1519 C1521 1.419 . S
C1519 H1523 0.930 . S
C1520 C1519 1.369 . S
C1520 C1529 1.429 . S
C1521 C1519 1.419 . S
C1521 C1522 1.363 . S
C1521 H1524 0.929 . S
C1522 C1521 1.363 . S
C1522 C1528 1.428 . S
H1523 C1519 0.930 . S
H1524 C1521 0.929 . S
S1525 N1526 1.613 . S
S1525 N1527 1.610 . S
N1526 S1525 1.613 . S
N1526 C1529 1.350 . S
N1527 S1525 1.610 . S
N1527 C1528 1.351 . S
C1528 C1522 1.428 . S
C1528 N1527 1.351 . S
C1528 C1529 1.434 . S
C1529 C1520 1.429 . S
C1529 N1526 1.350 . S
C1529 C1528 1.434 . S
C1530 C1531 1.369 . S
C1530 C1532 1.419 . S
C1530 H1534 0.930 . S
C1531 C1530 1.369 . S
C1531 C1540 1.429 . S
C1532 C1530 1.419 . S
C1532 C1533 1.363 . S
C1532 H1535 0.929 . S
C1533 C1532 1.363 . S
C1533 C1539 1.428 . S
H1534 C1530 0.930 . S
H1535 C1532 0.929 . S
S1536 N1537 1.613 . S
S1536 N1538 1.610 . S
N1537 S1536 1.613 . S
N1537 C1540 1.350 . S
N1538 S1536 1.610 . S
N1538 C1539 1.351 . S
C1539 C1533 1.428 . S
C1539 N1538 1.351 . S
C1539 C1540 1.434 . S
C1540 C1531 1.429 . S
C1540 N1537 1.350 . S
C1540 C1539 1.434 . S
C1541 C1542 1.369 . S
C1541 C1543 1.419 . S
C1541 H1545 0.930 . S
C1542 C1541 1.369 . S
C1542 C1551 1.429 . S
C1543 C1541 1.419 . S
C1543 C1544 1.363 . S
C1543 H1546 0.929 . S
C1544 C1543 1.363 . S
C1544 C1550 1.428 . S
H1545 C1541 0.930 . S
H1546 C1543 0.929 . S
S1547 N1548 1.613 . S
S1547 N1549 1.610 . S
N1548 S1547 1.613 . S
N1548 C1551 1.350 . S
N1549 S1547 1.610 . S
N1549 C1550 1.351 . S
C1550 C1544 1.428 . S
C1550 N1549 1.351 . S
C1550 C1551 1.434 . S
C1551 C1542 1.429 . S
C1551 N1548 1.350 . S
C1551 C1550 1.434 . S
C1552 C1553 1.369 . S
C1552 C1554 1.419 . S
C1552 H1556 0.930 . S
C1553 C1552 1.369 . S
C1553 C1562 1.429 . S
C1554 C1552 1.419 . S
C1554 C1555 1.363 . S
C1554 H1557 0.929 . S
C1555 C1554 1.363 . S
C1555 C1561 1.428 . S
H1556 C1552 0.930 . S
H1557 C1554 0.929 . S
S1558 N1559 1.613 . S
S1558 N1560 1.610 . S
N1559 S1558 1.613 . S
N1559 C1562 1.350 . S
N1560 S1558 1.610 . S
N1560 C1561 1.351 . S
C1561 C1555 1.428 . S
C1561 N1560 1.351 . S
C1561 C1562 1.434 . S
C1562 C1553 1.429 . S
C1562 N1559 1.350 . S
C1562 C1561 1.434 . S
C1563 C1564 1.369 . S
C1563 C1565 1.419 . S
C1563 H1567 0.930 . S
C1564 C1563 1.369 . S
C1564 C1573 1.429 . S
C1565 C1563 1.419 . S
C1565 C1566 1.363 . S
C1565 H1568 0.929 . S
C1566 C1565 1.363 . S
C1566 C1572 1.428 . S
H1567 C1563 0.930 . S
H1568 C1565 0.929 . S
S1569 N1570 1.613 . S
S1569 N1571 1.610 . S
N1570 S1569 1.613 . S
N1570 C1573 1.350 . S
N1571 S1569 1.610 . S
N1571 C1572 1.351 . S
C1572 C1566 1.428 . S
C1572 N1571 1.351 . S
C1572 C1573 1.434 . S
C1573 C1564 1.429 . S
C1573 N1570 1.350 . S
C1573 C1572 1.434 . S
C1574 C1575 1.369 . S
C1574 C1576 1.419 . S
C1574 H1578 0.930 . S
C1575 C1574 1.369 . S
C1575 C1584 1.429 . S
C1576 C1574 1.419 . S
C1576 C1577 1.363 . S
C1576 H1579 0.929 . S
C1577 C1576 1.363 . S
C1577 C1583 1.428 . S
H1578 C1574 0.930 . S
H1579 C1576 0.929 . S
S1580 N1581 1.613 . S
S1580 N1582 1.610 . S
N1581 S1580 1.613 . S
N1581 C1584 1.350 . S
N1582 S1580 1.610 . S
N1582 C1583 1.351 . S
C1583 C1577 1.428 . S
C1583 N1582 1.351 . S
C1583 C1584 1.434 . S
C1584 C1575 1.429 . S
C1584 N1581 1.350 . S
C1584 C1583 1.434 . S
C1585 C1586 1.369 . S
C1585 C1587 1.419 . S
C1585 H1589 0.930 . S
C1586 C1585 1.369 . S
C1586 C1595 1.429 . S
C1587 C1585 1.419 . S
C1587 C1588 1.363 . S
C1587 H1590 0.929 . S
C1588 C1587 1.363 . S
C1588 C1594 1.428 . S
H1589 C1585 0.930 . S
H1590 C1587 0.929 . S
S1591 N1592 1.613 . S
S1591 N1593 1.610 . S
N1592 S1591 1.613 . S
N1592 C1595 1.350 . S
N1593 S1591 1.610 . S
N1593 C1594 1.351 . S
C1594 C1588 1.428 . S
C1594 N1593 1.351 . S
C1594 C1595 1.434 . S
C1595 C1586 1.429 . S
C1595 N1592 1.350 . S
C1595 C1594 1.434 . S
C1596 C1597 1.369 . S
C1596 C1598 1.419 . S
C1596 H1600 0.930 . S
C1597 C1596 1.369 . S
C1597 C1606 1.429 . S
C1598 C1596 1.419 . S
C1598 C1599 1.363 . S
C1598 H1601 0.929 . S
C1599 C1598 1.363 . S
C1599 C1605 1.428 . S
H1600 C1596 0.930 . S
H1601 C1598 0.929 . S
S1602 N1603 1.613 . S
S1602 N1604 1.610 . S
N1603 S1602 1.613 . S
N1603 C1606 1.350 . S
N1604 S1602 1.610 . S
N1604 C1605 1.351 . S
C1605 C1599 1.428 . S
C1605 N1604 1.351 . S
C1605 C1606 1.434 . S
C1606 C1597 1.429 . S
C1606 N1603 1.350 . S
C1606 C1605 1.434 . S
C1607 C1608 1.369 . S
C1607 C1609 1.419 . S
C1607 H1611 0.930 . S
C1608 C1607 1.369 . S
C1608 C1617 1.429 . S
C1609 C1607 1.419 . S
C1609 C1610 1.363 . S
C1609 H1612 0.929 . S
C1610 C1609 1.363 . S
C1610 C1616 1.428 . S
H1611 C1607 0.930 . S
H1612 C1609 0.929 . S
S1613 N1614 1.613 . S
S1613 N1615 1.610 . S
N1614 S1613 1.613 . S
N1614 C1617 1.350 . S
N1615 S1613 1.610 . S
N1615 C1616 1.351 . S
C1616 C1610 1.428 . S
C1616 N1615 1.351 . S
C1616 C1617 1.434 . S
C1617 C1608 1.429 . S
C1617 N1614 1.350 . S
C1617 C1616 1.434 . S
C1618 C1619 1.369 . S
C1618 C1620 1.419 . S
C1618 H1622 0.930 . S
C1619 C1618 1.369 . S
C1619 C1628 1.429 . S
C1620 C1618 1.419 . S
C1620 C1621 1.363 . S
C1620 H1623 0.929 . S
C1621 C1620 1.363 . S
C1621 C1627 1.428 . S
H1622 C1618 0.930 . S
H1623 C1620 0.929 . S
S1624 N1625 1.613 . S
S1624 N1626 1.610 . S
N1625 S1624 1.613 . S
N1625 C1628 1.350 . S
N1626 S1624 1.610 . S
N1626 C1627 1.351 . S
C1627 C1621 1.428 . S
C1627 N1626 1.351 . S
C1627 C1628 1.434 . S
C1628 C1619 1.429 . S
C1628 N1625 1.350 . S
C1628 C1627 1.434 . S
C1629 C1630 1.369 . S
C1629 C1631 1.419 . S
C1629 H1633 0.930 . S
C1630 C1629 1.369 . S
C1630 C1639 1.429 . S
C1631 C1629 1.419 . S
C1631 C1632 1.363 . S
C1631 H1634 0.929 . S
C1632 C1631 1.363 . S
C1632 C1638 1.428 . S
H1633 C1629 0.930 . S
H1634 C1631 0.929 . S
S1635 N1636 1.613 . S
S1635 N1637 1.610 . S
N1636 S1635 1.613 . S
N1636 C1639 1.350 . S
N1637 S1635 1.610 . S
N1637 C1638 1.351 . S
C1638 C1632 1.428 . S
C1638 N1637 1.351 . S
C1638 C1639 1.434 . S
C1639 C1630 1.429 . S
C1639 N1636 1.350 . S
C1639 C1638 1.434 . S
C1640 C1641 1.369 . S
C1640 C1642 1.419 . S
C1640 H1644 0.930 . S
C1641 C1640 1.369 . S
C1641 C1650 1.429 . S
C1642 C1640 1.419 . S
C1642 C1643 1.363 . S
C1642 H1645 0.929 . S
C1643 C1642 1.363 . S
C1643 C1649 1.428 . S
H1644 C1640 0.930 . S
H1645 C1642 0.929 . S
S1646 N1647 1.613 . S
S1646 N1648 1.610 . S
N1647 S1646 1.613 . S
N1647 C1650 1.350 . S
N1648 S1646 1.610 . S
N1648 C1649 1.351 . S
C1649 C1643 1.428 . S
C1649 N1648 1.351 . S
C1649 C1650 1.434 . S
C1650 C1641 1.429 . S
C1650 N1647 1.350 . S
C1650 C1649 1.434 . S
C1651 C1652 1.369 . S
C1651 C1653 1.419 . S
C1651 H1655 0.930 . S
C1652 C1651 1.369 . S
C1652 C1661 1.429 . S
C1653 C1651 1.419 . S
C1653 C1654 1.363 . S
C1653 H1656 0.929 . S
C1654 C1653 1.363 . S
C1654 C1660 1.428 . S
H1655 C1651 0.930 . S
H1656 C1653 0.929 . S
S1657 N1658 1.613 . S
S1657 N1659 1.610 . S
N1658 S1657 1.613 . S
N1658 C1661 1.350 . S
N1659 S1657 1.610 . S
N1659 C1660 1.351 . S
C1660 C1654 1.428 . S
C1660 N1659 1.351 . S
C1660 C1661 1.434 . S
C1661 C1652 1.429 . S
C1661 N1658 1.350 . S
C1661 C1660 1.434 . S
C1662 C1663 1.369 . S
C1662 C1664 1.419 . S
C1662 H1666 0.930 . S
C1663 C1662 1.369 . S
C1663 C1672 1.429 . S
C1664 C1662 1.419 . S
C1664 C1665 1.363 . S
C1664 H1667 0.929 . S
C1665 C1664 1.363 . S
C1665 C1671 1.428 . S
H1666 C1662 0.930 . S
H1667 C1664 0.929 . S
S1668 N1669 1.613 . S
S1668 N1670 1.610 . S
N1669 S1668 1.613 . S
N1669 C1672 1.350 . S
N1670 S1668 1.610 . S
N1670 C1671 1.351 . S
C1671 C1665 1.428 . S
C1671 N1670 1.351 . S
C1671 C1672 1.434 . S
C1672 C1663 1.429 . S
C1672 N1669 1.350 . S
C1672 C1671 1.434 . S
C1673 C1674 1.369 . S
C1673 C1675 1.419 . S
C1673 H1677 0.930 . S
C1674 C1673 1.369 . S
C1674 C1683 1.429 . S
C1675 C1673 1.419 . S
C1675 C1676 1.363 . S
C1675 H1678 0.929 . S
C1676 C1675 1.363 . S
C1676 C1682 1.428 . S
H1677 C1673 0.930 . S
H1678 C1675 0.929 . S
S1679 N1680 1.613 . S
S1679 N1681 1.610 . S
N1680 S1679 1.613 . S
N1680 C1683 1.350 . S
N1681 S1679 1.610 . S
N1681 C1682 1.351 . S
C1682 C1676 1.428 . S
C1682 N1681 1.351 . S
C1682 C1683 1.434 . S
C1683 C1674 1.429 . S
C1683 N1680 1.350 . S
C1683 C1682 1.434 . S
C1684 C1685 1.369 . S
C1684 C1686 1.419 . S
C1684 H1688 0.930 . S
C1685 C1684 1.369 . S
C1685 C1694 1.429 . S
C1686 C1684 1.419 . S
C1686 C1687 1.363 . S
C1686 H1689 0.929 . S
C1687 C1686 1.363 . S
C1687 C1693 1.428 . S
H1688 C1684 0.930 . S
H1689 C1686 0.929 . S
S1690 N1691 1.613 . S
S1690 N1692 1.610 . S
N1691 S1690 1.613 . S
N1691 C1694 1.350 . S
N1692 S1690 1.610 . S
N1692 C1693 1.351 . S
C1693 C1687 1.428 . S
C1693 N1692 1.351 . S
C1693 C1694 1.434 . S
C1694 C1685 1.429 . S
C1694 N1691 1.350 . S
C1694 C1693 1.434 . S
C1695 C1696 1.369 . S
C1695 C1697 1.419 . S
C1695 H1699 0.930 . S
C1696 C1695 1.369 . S
C1696 C1705 1.429 . S
C1697 C1695 1.419 . S
C1697 C1698 1.363 . S
C1697 H1700 0.929 . S
C1698 C1697 1.363 . S
C1698 C1704 1.428 . S
H1699 C1695 0.930 . S
H1700 C1697 0.929 . S
S1701 N1702 1.613 . S
S1701 N1703 1.610 . S
N1702 S1701 1.613 . S
N1702 C1705 1.350 . S
N1703 S1701 1.610 . S
N1703 C1704 1.351 . S
C1704 C1698 1.428 . S
C1704 N1703 1.351 . S
C1704 C1705 1.434 . S
C1705 C1696 1.429 . S
C1705 N1702 1.350 . S
C1705 C1704 1.434 . S
C1706 C1707 1.369 . S
C1706 C1708 1.419 . S
C1706 H1710 0.930 . S
C1707 C1706 1.369 . S
C1707 C1716 1.429 . S
C1708 C1706 1.419 . S
C1708 C1709 1.363 . S
C1708 H1711 0.929 . S
C1709 C1708 1.363 . S
C1709 C1715 1.428 . S
H1710 C1706 0.930 . S
H1711 C1708 0.929 . S
S1712 N1713 1.613 . S
S1712 N1714 1.610 . S
N1713 S1712 1.613 . S
N1713 C1716 1.350 . S
N1714 S1712 1.610 . S
N1714 C1715 1.351 . S
C1715 C1709 1.428 . S
C1715 N1714 1.351 . S
C1715 C1716 1.434 . S
C1716 C1707 1.429 . S
C1716 N1713 1.350 . S
C1716 C1715 1.434 . S
C1717 C1718 1.369 . S
C1717 C1719 1.419 . S
C1717 H1721 0.930 . S
C1718 C1717 1.369 . S
C1718 C1727 1.429 . S
C1719 C1717 1.419 . S
C1719 C1720 1.363 . S
C1719 H1722 0.929 . S
C1720 C1719 1.363 . S
C1720 C1726 1.428 . S
H1721 C1717 0.930 . S
H1722 C1719 0.929 . S
S1723 N1724 1.613 . S
S1723 N1725 1.610 . S
N1724 S1723 1.613 . S
N1724 C1727 1.350 . S
N1725 S1723 1.610 . S
N1725 C1726 1.351 . S
C1726 C1720 1.428 . S
C1726 N1725 1.351 . S
C1726 C1727 1.434 . S
C1727 C1718 1.429 . S
C1727 N1724 1.350 . S
C1727 C1726 1.434 . S
C673 C132 1.733 . S
C675 C6 1.725 . S
C684 C146 1.727 . S
C686 C20 1.732 . S
C695 C160 1.730 . S
C697 C34 1.731 . S
C706 C118 1.724 . S
C708 C48 1.732 . S
C717 C62 1.727 . S
C719 C216 1.728 . S
C728 C76 1.730 . S
C730 C174 1.731 . S
C739 C90 1.733 . S
C741 C188 1.726 . S
C750 C202 1.732 . S
C752 C104 1.725 . S
C761 C230 1.729 . S
C763 C258 1.727 . S
C772 C244 1.726 . S
C774 C650 1.729 . S
C783 C272 1.724 . S
C785 C664 1.731 . S
C794 C286 1.733 . S
C796 C636 1.725 . S
C805 C300 1.725 . S
C807 C622 1.730 . S
C816 C580 1.734 . S
C818 C314 1.726 . S
C827 C328 1.732 . S
C829 C608 1.729 . S
C838 C468 1.725 . S
C840 C342 1.732 . S
C849 C482 1.725 . S
C851 C356 1.732 . S
C860 C496 1.731 . S
C862 C370 1.730 . S
C871 C454 1.725 . S
C873 C384 1.733 . S
C882 C552 1.724 . S
C884 C398 1.732 . S
C893 C510 1.730 . S
C895 C412 1.726 . S
C904 C426 1.727 . S
C906 C524 1.732 . S
C915 C440 1.730 . S
C917 C538 1.726 . S
C926 C566 1.728 . S
C928 C594 1.728 . S
C937 C232 1.383 . S
C939 C9 1.288 . S
C948 C666 1.384 . S
C950 C23 1.287 . S
C959 C37 1.291 . S
C961 C302 1.382 . S
C970 C652 1.382 . S
C972 C51 1.287 1_556 S
C981 C65 1.281 . S
C983 C582 1.387 . S
C992 C596 1.391 . S
C994 C79 1.278 . S
C1003 C93 1.291 . S
C1005 C610 1.382 . S
C1014 C288 1.384 . S
C1016 C107 1.264 1_554 S
C1025 C121 1.289 . S
C1027 C8 1.384 . S
C1036 C22 1.381 . S
C1038 C135 1.288 1_565 S
C1047 C149 1.285 . S
C1049 C36 1.385 . S
C1058 C50 1.394 . S
C1060 C163 1.268 1_545 S
C1069 C177 1.273 . S
C1071 C64 1.393 . S
C1080 C78 1.392 . S
C1082 C191 1.278 1_565 S
C1091 C205 1.280 . S
C1093 C92 1.389 . S
C1102 C219 1.269 1_545 S
C1104 C106 1.392 . S
C1113 C233 1.274 . S
C1115 C120 1.392 . S
C1124 C247 1.286 . S
C1126 C512 1.386 . S
C1135 C526 1.381 . S
C1137 C261 1.289 1_655 S
C1146 C540 1.381 . S
C1148 C275 1.288 . S
C1157 C218 1.380 . S
C1159 C289 1.262 1_455 S
C1168 C303 1.287 . S
C1170 C148 1.384 . S
C1179 C498 1.394 . S
C1181 C317 1.275 1_655 S
C1190 C331 1.290 . S
C1192 C470 1.383 . S
C1201 C345 1.289 . S
C1203 C568 1.383 . S
C1212 C359 1.289 1_556 S
C1214 C330 1.384 . S
C1223 C373 1.291 . S
C1225 C638 1.382 . S
C1234 C387 1.273 . S
C1236 C316 1.392 . S
C1245 C401 1.288 . S
C1247 C246 1.385 . S
C1256 C415 1.261 1_554 S
C1258 C260 1.382 . S
C1267 C274 1.392 . S
C1269 C429 1.278 . S
C1278 C624 1.380 . S
C1280 C443 1.289 . S
C1289 C344 1.381 . S
C1291 C457 1.289 . S
C1300 C358 1.393 . S
C1302 C471 1.276 . S
C1311 C485 1.279 . S
C1313 C372 1.389 . S
C1322 C386 1.394 . S
C1324 C499 1.275 . S
C1333 C513 1.291 . S
C1335 C400 1.382 . S
C1344 C527 1.290 . S
C1346 C414 1.384 . S
C1355 C541 1.283 . S
C1357 C428 1.387 . S
C1366 C442 1.381 . S
C1368 C555 1.289 . S
C1377 C569 1.287 . S
C1379 C456 1.384 . S
C1388 C583 1.291 . S
C1390 C176 1.382 . S
C1399 C190 1.381 . S
C1401 C597 1.289 . S
C1410 C611 1.289 . S
C1412 C204 1.383 . S
C1421 C625 1.283 . S
C1423 C554 1.386 . S
C1432 C484 1.380 . S
C1434 C639 1.289 . S
C1443 C162 1.386 . S
C1445 C653 1.282 . S
C1454 C134 1.387 . S
C1456 C667 1.265 1_455 S
C1465 C315 1.491 . S
C1467 C7 1.494 . S
C1476 C21 1.494 . S
C1478 C567 1.492 . S
C1487 C35 1.495 . S
C1489 C329 1.491 . S
C1498 C637 1.490 . S
C1500 C49 1.494 . S
C1509 C63 1.494 . S
C1511 C259 1.492 . S
C1520 C273 1.493 . S
C1522 C77 1.494 . S
C1531 C623 1.491 . S
C1533 C91 1.491 . S
C1542 C105 1.492 . S
C1544 C245 1.494 . S
C1553 C189 1.495 . S
C1555 C119 1.490 . S
C1564 C133 1.493 . S
C1566 C203 1.490 . S
C1575 C217 1.494 . S
C1577 C147 1.493 . S
C1586 C161 1.491 . S
C1588 C175 1.494 . S
C1597 C357 1.491 . S
C1599 C231 1.491 . S
C1608 C287 1.495 . S
C1610 C427 1.490 . S
C1619 C301 1.489 . S
C1621 C385 1.494 . S
C1630 C651 1.490 . S
C1632 C343 1.495 . S
C1641 C371 1.492 . S
C1643 C665 1.494 . S
C1652 C399 1.494 . S
C1654 C595 1.493 . S
C1663 C413 1.491 . S
C1665 C609 1.491 . S
C1674 C581 1.490 . S
C1676 C441 1.495 . S
C1685 C525 1.495 . S
C1687 C455 1.490 . S
C1696 C469 1.490 . S
C1698 C539 1.492 . S
C1707 C483 1.495 . S
C1709 C553 1.491 . S
C1718 C511 1.495 . S
C1720 C497 1.490 . S
