# Generated by pormake.
# Topology ukp, (4)-cn, num edge types: 1
# Building blocks:
#     Node 0, Type 0, BuildingBlock: GALJAG_clean_sbu_0, # of connection points: 4
#     Node 1, Type 0, BuildingBlock: GALJAG_clean_sbu_0, # of connection points: 4
#     Node 2, Type 0, BuildingBlock: GALJAG_clean_sbu_0, # of connection points: 4
#     Node 3, Type 0, BuildingBlock: GALJAG_clean_sbu_0, # of connection points: 4
#     Node 4, Type 0, BuildingBlock: GALJAG_clean_sbu_0, # of connection points: 4
#     Node 5, Type 0, BuildingBlock: GALJAG_clean_sbu_0, # of connection points: 4
#     Node 6, Type 0, BuildingBlock: GALJAG_clean_sbu_0, # of connection points: 4
#     Node 7, Type 0, BuildingBlock: GALJAG_clean_sbu_0, # of connection points: 4
#     Node 8, Type 0, BuildingBlock: GALJAG_clean_sbu_0, # of connection points: 4
#     Node 9, Type 0, BuildingBlock: GALJAG_clean_sbu_0, # of connection points: 4
#     Node 10, Type 0, BuildingBlock: GALJAG_clean_sbu_0, # of connection points: 4
#     Node 11, Type 0, BuildingBlock: GALJAG_clean_sbu_0, # of connection points: 4
#     Node 12, Type 0, BuildingBlock: GALJAG_clean_sbu_0, # of connection points: 4
#     Node 13, Type 0, BuildingBlock: GALJAG_clean_sbu_0, # of connection points: 4
#     Node 14, Type 0, BuildingBlock: GALJAG_clean_sbu_0, # of connection points: 4
#     Node 15, Type 0, BuildingBlock: GALJAG_clean_sbu_0, # of connection points: 4
#     Node 16, Type 0, BuildingBlock: GALJAG_clean_sbu_0, # of connection points: 4
#     Node 17, Type 0, BuildingBlock: GALJAG_clean_sbu_0, # of connection points: 4
#     Node 18, Type 0, BuildingBlock: GALJAG_clean_sbu_0, # of connection points: 4
#     Node 19, Type 0, BuildingBlock: GALJAG_clean_sbu_0, # of connection points: 4
#     Node 20, Type 0, BuildingBlock: GALJAG_clean_sbu_0, # of connection points: 4
#     Node 21, Type 0, BuildingBlock: GALJAG_clean_sbu_0, # of connection points: 4
#     Node 22, Type 0, BuildingBlock: GALJAG_clean_sbu_0, # of connection points: 4
#     Node 23, Type 0, BuildingBlock: GALJAG_clean_sbu_0, # of connection points: 4
#     Node 24, Type 0, BuildingBlock: GALJAG_clean_sbu_0, # of connection points: 4
#     Node 25, Type 0, BuildingBlock: GALJAG_clean_sbu_0, # of connection points: 4
#     Node 26, Type 0, BuildingBlock: GALJAG_clean_sbu_0, # of connection points: 4
#     Node 27, Type 0, BuildingBlock: GALJAG_clean_sbu_0, # of connection points: 4
#     Node 28, Type 0, BuildingBlock: GALJAG_clean_sbu_0, # of connection points: 4
#     Node 29, Type 0, BuildingBlock: GALJAG_clean_sbu_0, # of connection points: 4
#     Node 30, Type 0, BuildingBlock: GALJAG_clean_sbu_0, # of connection points: 4
#     Node 31, Type 0, BuildingBlock: GALJAG_clean_sbu_0, # of connection points: 4
#     Node 32, Type 0, BuildingBlock: GALJAG_clean_sbu_0, # of connection points: 4
#     Node 33, Type 0, BuildingBlock: GALJAG_clean_sbu_0, # of connection points: 4
#     Node 34, Type 0, BuildingBlock: GALJAG_clean_sbu_0, # of connection points: 4
#     Node 35, Type 0, BuildingBlock: GALJAG_clean_sbu_0, # of connection points: 4
#     Node 36, Type 0, BuildingBlock: GALJAG_clean_sbu_0, # of connection points: 4
#     Node 37, Type 0, BuildingBlock: GALJAG_clean_sbu_0, # of connection points: 4
#     Node 38, Type 0, BuildingBlock: GALJAG_clean_sbu_0, # of connection points: 4
#     Node 39, Type 0, BuildingBlock: GALJAG_clean_sbu_0, # of connection points: 4
#     Node 40, Type 0, BuildingBlock: GALJAG_clean_sbu_0, # of connection points: 4
#     Node 41, Type 0, BuildingBlock: GALJAG_clean_sbu_0, # of connection points: 4
#     Node 42, Type 0, BuildingBlock: GALJAG_clean_sbu_0, # of connection points: 4
#     Node 43, Type 0, BuildingBlock: GALJAG_clean_sbu_0, # of connection points: 4
#     Node 44, Type 0, BuildingBlock: GALJAG_clean_sbu_0, # of connection points: 4
#     Node 45, Type 0, BuildingBlock: GALJAG_clean_sbu_0, # of connection points: 4
#     Node 46, Type 0, BuildingBlock: GALJAG_clean_sbu_0, # of connection points: 4
#     Node 47, Type 0, BuildingBlock: GALJAG_clean_sbu_0, # of connection points: 4
#     Edge 48, Type (0, 0), None
#     Edge 49, Type (0, 0), None
#     Edge 50, Type (0, 0), None
#     Edge 51, Type (0, 0), None
#     Edge 52, Type (0, 0), None
#     Edge 53, Type (0, 0), None
#     Edge 54, Type (0, 0), None
#     Edge 55, Type (0, 0), None
#     Edge 56, Type (0, 0), None
#     Edge 57, Type (0, 0), None
#     Edge 58, Type (0, 0), None
#     Edge 59, Type (0, 0), None
#     Edge 60, Type (0, 0), None
#     Edge 61, Type (0, 0), None
#     Edge 62, Type (0, 0), None
#     Edge 63, Type (0, 0), None
#     Edge 64, Type (0, 0), None
#     Edge 65, Type (0, 0), None
#     Edge 66, Type (0, 0), None
#     Edge 67, Type (0, 0), None
#     Edge 68, Type (0, 0), None
#     Edge 69, Type (0, 0), None
#     Edge 70, Type (0, 0), None
#     Edge 71, Type (0, 0), None
#     Edge 72, Type (0, 0), None
#     Edge 73, Type (0, 0), None
#     Edge 74, Type (0, 0), None
#     Edge 75, Type (0, 0), None
#     Edge 76, Type (0, 0), None
#     Edge 77, Type (0, 0), None
#     Edge 78, Type (0, 0), None
#     Edge 79, Type (0, 0), None
#     Edge 80, Type (0, 0), None
#     Edge 81, Type (0, 0), None
#     Edge 82, Type (0, 0), None
#     Edge 83, Type (0, 0), None
#     Edge 84, Type (0, 0), None
#     Edge 85, Type (0, 0), None
#     Edge 86, Type (0, 0), None
#     Edge 87, Type (0, 0), None
#     Edge 88, Type (0, 0), None
#     Edge 89, Type (0, 0), None
#     Edge 90, Type (0, 0), None
#     Edge 91, Type (0, 0), None
#     Edge 92, Type (0, 0), None
#     Edge 93, Type (0, 0), None
#     Edge 94, Type (0, 0), None
#     Edge 95, Type (0, 0), None
#     Edge 96, Type (0, 0), None
#     Edge 97, Type (0, 0), None
#     Edge 98, Type (0, 0), None
#     Edge 99, Type (0, 0), None
#     Edge 100, Type (0, 0), None
#     Edge 101, Type (0, 0), None
#     Edge 102, Type (0, 0), None
#     Edge 103, Type (0, 0), None
#     Edge 104, Type (0, 0), None
#     Edge 105, Type (0, 0), None
#     Edge 106, Type (0, 0), None
#     Edge 107, Type (0, 0), None
#     Edge 108, Type (0, 0), None
#     Edge 109, Type (0, 0), None
#     Edge 110, Type (0, 0), None
#     Edge 111, Type (0, 0), None
#     Edge 112, Type (0, 0), None
#     Edge 113, Type (0, 0), None
#     Edge 114, Type (0, 0), None
#     Edge 115, Type (0, 0), None
#     Edge 116, Type (0, 0), None
#     Edge 117, Type (0, 0), None
#     Edge 118, Type (0, 0), None
#     Edge 119, Type (0, 0), None
#     Edge 120, Type (0, 0), None
#     Edge 121, Type (0, 0), None
#     Edge 122, Type (0, 0), None
#     Edge 123, Type (0, 0), None
#     Edge 124, Type (0, 0), None
#     Edge 125, Type (0, 0), None
#     Edge 126, Type (0, 0), None
#     Edge 127, Type (0, 0), None
#     Edge 128, Type (0, 0), None
#     Edge 129, Type (0, 0), None
#     Edge 130, Type (0, 0), None
#     Edge 131, Type (0, 0), None
#     Edge 132, Type (0, 0), None
#     Edge 133, Type (0, 0), None
#     Edge 134, Type (0, 0), None
#     Edge 135, Type (0, 0), None
#     Edge 136, Type (0, 0), None
#     Edge 137, Type (0, 0), None
#     Edge 138, Type (0, 0), None
#     Edge 139, Type (0, 0), None
#     Edge 140, Type (0, 0), None
#     Edge 141, Type (0, 0), None
#     Edge 142, Type (0, 0), None
#     Edge 143, Type (0, 0), None
# Relax obj value: 0.195
# Max RMSD: 0.253
# Mean RMSD: 0.253
data_MOF--net-ukp--node1-GALJAG_clean_sbu_0--edge1-none
_symmetry_space_group_name_H-M    P1
_symmetry_Int_Tables_number       1
_symmetry_cell_setting            triclinic
loop_
_symmetry_equiv_pos_as_xyz
'x, y, z'
_cell_length_a     27.901694
_cell_length_b     27.901608
_cell_length_c     27.905842
_cell_angle_alpha  90.0033
_cell_angle_beta   90.004479
_cell_angle_gamma 89.998821
loop_
_atom_site_label
_atom_site_type_symbol
_atom_site_fract_x
_atom_site_fract_y
_atom_site_fract_z
_atom_type_partial_charge
In0 In 0.20764 0.27522 0.39618 0.0
O1 O 0.13184 0.24607 0.40631 0.0
O2 O 0.18791 0.21729 0.45007 0.0
C3 C 0.20509 0.33539 0.32042 0.0
C4 C 0.21159 0.3503 0.45712 0.0
C5 C 0.27772 0.21874 0.36233 0.0
O6 O 0.1807 0.29697 0.32037 0.0
O7 O 0.22801 0.34307 0.35817 0.0
O8 O 0.28132 0.24175 0.40134 0.0
O9 O 0.2374 0.22154 0.34214 0.0
C10 C 0.14383 0.21741 0.43948 0.0
O11 O 0.24907 0.33157 0.43973 0.0
O12 O 0.17367 0.32742 0.44775 0.0
In13 In 0.9776 0.95765 0.64599 0.0
O14 O 0.00689 0.8819 0.65602 0.0
O15 O 0.03544 0.93794 0.69998 0.0
C16 C 0.91737 0.9554 0.5703 0.0
C17 C 0.90243 0.96123 0.70679 0.0
C18 C 0.03411 0.02769 0.61218 0.0
O19 O 0.95561 0.93072 0.57026 0.0
O20 O 0.90994 0.97855 0.60796 0.0
O21 O 0.01116 0.03127 0.65122 0.0
O22 O 0.03125 0.9874 0.59193 0.0
C23 C 0.03544 0.89389 0.6893 0.0
O24 O 0.92127 0.99884 0.68979 0.0
O25 O 0.92524 0.92334 0.69712 0.0
In26 In 0.29511 0.72761 0.89602 0.0
O27 O 0.3709 0.75677 0.90615 0.0
O28 O 0.31483 0.78554 0.9499 0.0
C29 C 0.29751 0.66739 0.82031 0.0
C30 C 0.29126 0.65251 0.9569 0.0
C31 C 0.22506 0.78409 0.86213 0.0
O32 O 0.32204 0.70571 0.82026 0.0
O33 O 0.27448 0.65984 0.85801 0.0
O34 O 0.22146 0.76113 0.90117 0.0
O35 O 0.26538 0.78125 0.84193 0.0
C36 C 0.3589 0.78543 0.93932 0.0
O37 O 0.25374 0.67131 0.93966 0.0
O38 O 0.32918 0.67534 0.94742 0.0
In39 In 0.52527 0.04514 0.14612 0.0
O40 O 0.58159 0.00378 0.18977 0.0
O41 O 0.57756 0.07922 0.19752 0.0
C42 C 0.46884 0.97506 0.11222 0.0
C43 C 0.46742 0.1089 0.18946 0.0
C44 C 0.58546 0.04756 0.07039 0.0
O45 O 0.49184 0.97145 0.15124 0.0
O46 O 0.4716 0.0154 0.09206 0.0
O47 O 0.5471 0.07204 0.07033 0.0
O48 O 0.59306 0.02459 0.10812 0.0
C49 C 0.60039 0.0413 0.207 0.0
O50 O 0.49606 0.12092 0.15628 0.0
O51 O 0.46735 0.06482 0.20003 0.0
In52 In 0.20754 0.72731 0.10636 0.0
O53 O 0.24901 0.67098 0.06284 0.0
O54 O 0.17362 0.67516 0.05469 0.0
C55 C 0.27767 0.78369 0.14026 0.0
C56 C 0.14375 0.78515 0.06303 0.0
C57 C 0.20495 0.66715 0.18213 0.0
O58 O 0.28127 0.76065 0.10126 0.0
O59 O 0.23732 0.78099 0.16039 0.0
O60 O 0.18066 0.70563 0.18221 0.0
O61 O 0.22775 0.65939 0.14434 0.0
C62 C 0.21155 0.65227 0.04538 0.0
O63 O 0.13173 0.75644 0.09614 0.0
O64 O 0.18784 0.78531 0.05253 0.0
In65 In 0.52512 0.95752 0.35648 0.0
O66 O 0.49605 0.88168 0.3463 0.0
O67 O 0.46712 0.93777 0.30268 0.0
C68 C 0.58532 0.95496 0.43223 0.0
C69 C 0.60016 0.96155 0.29552 0.0
C70 C 0.46867 0.0276 0.39035 0.0
O71 O 0.54688 0.93061 0.4323 0.0
O72 O 0.59301 0.97784 0.39447 0.0
O73 O 0.49165 0.03119 0.35132 0.0
O74 O 0.47147 0.98729 0.41054 0.0
C75 C 0.46731 0.89368 0.3132 0.0
O76 O 0.58143 0.999 0.31296 0.0
O77 O 0.57729 0.92361 0.30484 0.0
In78 In 0.29506 0.27507 0.60652 0.0
O79 O 0.25387 0.33141 0.56274 0.0
O80 O 0.32936 0.32746 0.5554 0.0
C81 C 0.22499 0.21858 0.64031 0.0
C82 C 0.35882 0.21724 0.56319 0.0
C83 C 0.29734 0.33526 0.68224 0.0
O84 O 0.22143 0.24156 0.60128 0.0
O85 O 0.26529 0.22141 0.66055 0.0
O86 O 0.32198 0.297 0.68227 0.0
O87 O 0.27423 0.34274 0.64457 0.0
C88 C 0.29147 0.35026 0.54574 0.0
O89 O 0.37082 0.24578 0.59646 0.0
O90 O 0.31477 0.21724 0.55252 0.0
In91 In 0.97743 0.04503 0.85633 0.0
O92 O 0.00659 0.12083 0.84618 0.0
O93 O 0.03536 0.06475 0.80244 0.0
C94 C 0.9173 0.04762 0.93211 0.0
C95 C 0.90234 0.04109 0.7954 0.0
C96 C 0.03387 0.9749 0.89016 0.0
O97 O 0.95575 0.07194 0.93216 0.0
O98 O 0.90956 0.02474 0.89435 0.0
O99 O 0.01083 0.97132 0.85116 0.0
O100 O 0.03113 0.01523 0.91034 0.0
C101 C 0.03525 0.10883 0.81301 0.0
O102 O 0.92106 0.00361 0.8128 0.0
O103 O 0.92524 0.07901 0.80475 0.0
In104 In 0.3963 0.20777 0.27501 0.0
O105 O 0.44035 0.24876 0.33129 0.0
O106 O 0.44689 0.17316 0.32765 0.0
C107 C 0.36238 0.27771 0.21848 0.0
C108 C 0.43975 0.14413 0.21714 0.0
C109 C 0.3206 0.20585 0.33517 0.0
O110 O 0.40143 0.28136 0.24142 0.0
O111 O 0.34221 0.23738 0.22132 0.0
O112 O 0.32067 0.18076 0.29721 0.0
O113 O 0.35815 0.22929 0.34238 0.0
C114 C 0.4569 0.21104 0.35032 0.0
O115 O 0.40631 0.13211 0.24549 0.0
O116 O 0.45052 0.18816 0.21734 0.0
In117 In 0.04486 0.14635 0.52494 0.0
O118 O 0.12057 0.15636 0.49555 0.0
O119 O 0.06454 0.2005 0.46725 0.0
C120 C 0.04701 0.0706 0.58506 0.0
C121 C 0.04136 0.20701 0.60021 0.0
C122 C 0.97488 0.11249 0.46837 0.0
O123 O 0.0719 0.07067 0.54697 0.0
O124 O 0.02369 0.10818 0.59243 0.0
O125 O 0.97126 0.15153 0.49134 0.0
O126 O 0.01519 0.09228 0.47123 0.0
C127 C 0.10858 0.18976 0.46714 0.0
O128 O 0.00372 0.1902 0.58127 0.0
O129 O 0.07926 0.19723 0.57746 0.0
In130 In 0.10648 0.79492 0.77477 0.0
O131 O 0.06254 0.75383 0.83107 0.0
O132 O 0.05575 0.8294 0.82736 0.0
C133 C 0.14034 0.725 0.71816 0.0
C134 C 0.06309 0.85863 0.71696 0.0
C135 C 0.18218 0.79693 0.83495 0.0
O136 O 0.10127 0.72138 0.74107 0.0
O137 O 0.16058 0.76529 0.7211 0.0
O138 O 0.18211 0.82197 0.79695 0.0
O139 O 0.14465 0.77349 0.84217 0.0
C140 C 0.04587 0.79151 0.85007 0.0
O141 O 0.09648 0.87062 0.74538 0.0
O142 O 0.05233 0.8146 0.71708 0.0
In143 In 0.45781 0.8565 0.02485 0.0
O144 O 0.49869 0.81235 0.08115 0.0
O145 O 0.42306 0.80611 0.07755 0.0
C146 C 0.52775 0.89034 0.96828 0.0
C147 C 0.39415 0.81309 0.96699 0.0
C148 C 0.456 0.93219 0.08503 0.0
O149 O 0.53136 0.85127 0.9912 0.0
O150 O 0.48745 0.91058 0.97117 0.0
O151 O 0.43081 0.93211 0.04712 0.0
O152 O 0.47952 0.89468 0.09215 0.0
C153 C 0.46091 0.79598 0.10021 0.0
O154 O 0.38216 0.84658 0.99528 0.0
O155 O 0.43816 0.80225 0.96724 0.0
In156 In 0.39621 0.7948 0.22766 0.0
O157 O 0.4061 0.87042 0.2573 0.0
O158 O 0.45054 0.81443 0.28522 0.0
C159 C 0.32054 0.7965 0.16747 0.0
C160 C 0.45665 0.7918 0.1523 0.0
C161 C 0.36233 0.7249 0.28426 0.0
O162 O 0.32063 0.82181 0.2053 0.0
O163 O 0.35802 0.77289 0.16044 0.0
O164 O 0.40141 0.72127 0.26135 0.0
O165 O 0.34211 0.76521 0.28135 0.0
C166 C 0.43965 0.85843 0.28553 0.0
O167 O 0.44046 0.75397 0.17141 0.0
O168 O 0.44641 0.82968 0.17487 0.0
In169 In 0.45777 0.14619 0.47768 0.0
O170 O 0.38208 0.15619 0.50711 0.0
O171 O 0.4381 0.20035 0.53537 0.0
C172 C 0.4558 0.07049 0.41751 0.0
C173 C 0.46112 0.20677 0.40241 0.0
C174 C 0.52769 0.11229 0.53426 0.0
O175 O 0.43074 0.07056 0.45549 0.0
O176 O 0.47924 0.10803 0.41029 0.0
O177 O 0.53132 0.15136 0.51134 0.0
O178 O 0.48738 0.09209 0.53135 0.0
C179 C 0.39407 0.18959 0.53551 0.0
O180 O 0.49883 0.19023 0.42144 0.0
O181 O 0.4232 0.19682 0.42504 0.0
In182 In 0.10633 0.20778 0.72754 0.0
O183 O 0.0963 0.13208 0.75695 0.0
O184 O 0.05216 0.18811 0.78522 0.0
C185 C 0.18208 0.20569 0.66743 0.0
C186 C 0.0457 0.21126 0.65229 0.0
C187 C 0.14021 0.27773 0.78412 0.0
O188 O 0.182 0.18075 0.70548 0.0
O189 O 0.14451 0.22903 0.66009 0.0
O190 O 0.10117 0.28137 0.76116 0.0
O191 O 0.1604 0.23741 0.78126 0.0
C192 C 0.0629 0.14408 0.78535 0.0
O193 O 0.06241 0.24893 0.67127 0.0
O194 O 0.05555 0.17333 0.67496 0.0
In195 In 0.0449 0.85631 0.97748 0.0
O196 O 0.12054 0.84632 0.00706 0.0
O197 O 0.0645 0.80203 0.03509 0.0
C198 C 0.04674 0.93202 0.91732 0.0
C199 C 0.04169 0.7958 0.90216 0.0
C200 C 0.97499 0.89026 0.03404 0.0
O201 O 0.07191 0.93193 0.95523 0.0
O202 O 0.02323 0.8945 0.91017 0.0
O203 O 0.97133 0.8512 0.0111 0.0
O204 O 0.01533 0.91042 0.03119 0.0
C205 C 0.10852 0.81283 0.03535 0.0
O206 O 0.00393 0.81218 0.92124 0.0
O207 O 0.0796 0.8059 0.92475 0.0
In208 In 0.27492 0.39623 0.2077 0.0
O209 O 0.33131 0.44014 0.24871 0.0
O210 O 0.32751 0.44693 0.17316 0.0
C211 C 0.2182 0.36242 0.27753 0.0
C212 C 0.21712 0.43968 0.14403 0.0
C213 C 0.33514 0.32058 0.2057 0.0
O214 O 0.24107 0.40152 0.28116 0.0
O215 O 0.22124 0.34211 0.23729 0.0
O216 O 0.29719 0.32066 0.18058 0.0
O217 O 0.34227 0.35807 0.22925 0.0
C218 C 0.35027 0.45681 0.21102 0.0
O219 O 0.24545 0.40621 0.13204 0.0
O220 O 0.21733 0.45049 0.18804 0.0
In221 In 0.77516 0.1064 0.79488 0.0
O222 O 0.83153 0.06287 0.75346 0.0
O223 O 0.82743 0.05494 0.82891 0.0
C224 C 0.71851 0.14018 0.72491 0.0
C225 C 0.71741 0.06308 0.85868 0.0
C226 C 0.83531 0.18219 0.79735 0.0
O227 O 0.74151 0.10114 0.72131 0.0
O228 O 0.72144 0.16044 0.76517 0.0
O229 O 0.79698 0.18218 0.82186 0.0
O230 O 0.8429 0.1445 0.77429 0.0
C231 C 0.85027 0.04557 0.79097 0.0
O232 O 0.74601 0.09631 0.87066 0.0
O233 O 0.71733 0.05244 0.81463 0.0
In234 In 0.14619 0.52514 0.04497 0.0
O235 O 0.18966 0.58148 0.00347 0.0
O236 O 0.19782 0.57733 0.07889 0.0
C237 C 0.11236 0.46854 0.975 0.0
C238 C 0.1895 0.46737 0.10878 0.0
C239 C 0.07042 0.58532 0.04753 0.0
O240 O 0.15139 0.49153 0.97138 0.0
O241 O 0.09212 0.47145 0.01527 0.0
O242 O 0.07039 0.54693 0.07195 0.0
O243 O 0.10813 0.59296 0.02454 0.0
C244 C 0.20708 0.6002 0.04094 0.0
O245 O 0.15634 0.49606 0.12078 0.0
O246 O 0.20006 0.46721 0.06471 0.0
In247 In 0.72735 0.89627 0.29498 0.0
O248 O 0.67101 0.93987 0.2536 0.0
O249 O 0.67506 0.94766 0.32907 0.0
C250 C 0.78391 0.86242 0.225 0.0
C251 C 0.78517 0.93963 0.35872 0.0
C252 C 0.66718 0.82051 0.29738 0.0
O253 O 0.76091 0.90144 0.22137 0.0
O254 O 0.78105 0.84221 0.2653 0.0
O255 O 0.70549 0.82049 0.32193 0.0
O256 O 0.65962 0.8582 0.27433 0.0
C257 C 0.65224 0.95709 0.29113 0.0
O258 O 0.75657 0.90641 0.37074 0.0
O259 O 0.78521 0.95024 0.31466 0.0
In260 In 0.85649 0.97774 0.04484 0.0
O261 O 0.81259 0.92137 0.0038 0.0
O262 O 0.80574 0.92518 0.07934 0.0
C263 C 0.8903 0.03448 0.97502 0.0
C264 C 0.81307 0.03553 0.10854 0.0
C265 C 0.93214 0.9175 0.04683 0.0
O266 O 0.85118 0.01162 0.97139 0.0
O267 O 0.91063 0.03141 0.01524 0.0
O268 O 0.93208 0.95547 0.07194 0.0
O269 O 0.89464 0.91037 0.0233 0.0
C270 C 0.79589 0.90243 0.04147 0.0
O271 O 0.84651 0.00716 0.12052 0.0
O272 O 0.80229 0.03537 0.06452 0.0
In273 In 0.22772 0.60642 0.7076 0.0
O274 O 0.25691 0.59631 0.63184 0.0
O275 O 0.28551 0.55241 0.68789 0.0
C276 C 0.1675 0.68211 0.70529 0.0
C277 C 0.15252 0.54565 0.71139 0.0
C278 C 0.28441 0.64031 0.77744 0.0
O279 O 0.20564 0.68206 0.68047 0.0
O280 O 0.16015 0.64454 0.72862 0.0
O281 O 0.26153 0.60122 0.78109 0.0
O282 O 0.28138 0.66058 0.73718 0.0
C283 C 0.28547 0.56305 0.64384 0.0
O284 O 0.17137 0.56279 0.74893 0.0
O285 O 0.17535 0.55516 0.67348 0.0
In286 In 0.1463 0.47748 0.45766 0.0
O287 O 0.18983 0.4211 0.49907 0.0
O288 O 0.19777 0.42523 0.42363 0.0
C289 C 0.11252 0.5341 0.52765 0.0
C290 C 0.1896 0.53526 0.39387 0.0
C291 C 0.07052 0.41733 0.45516 0.0
O292 O 0.15155 0.51111 0.53125 0.0
O293 O 0.09226 0.53119 0.48738 0.0
O294 O 0.07052 0.45568 0.43067 0.0
O295 O 0.1082 0.40973 0.47822 0.0
C296 C 0.20713 0.40237 0.46156 0.0
O297 O 0.15638 0.50665 0.38189 0.0
O298 O 0.20025 0.53533 0.43792 0.0
In299 In 0.35644 0.52528 0.95753 0.0
O300 O 0.34632 0.496 0.8818 0.0
O301 O 0.30244 0.46744 0.93787 0.0
C302 C 0.43219 0.58545 0.95522 0.0
C303 C 0.29568 0.60043 0.96126 0.0
C304 C 0.39029 0.46873 0.02751 0.0
O305 O 0.43219 0.5472 0.93058 0.0
O306 O 0.39453 0.59294 0.97835 0.0
O307 O 0.35126 0.49172 0.03113 0.0
O308 O 0.4105 0.47158 0.98721 0.0
C309 C 0.31307 0.46744 0.89382 0.0
O310 O 0.31275 0.58161 0.99883 0.0
O311 O 0.30522 0.57765 0.92333 0.0
In312 In 0.70775 0.77521 0.89622 0.0
O313 O 0.74901 0.83155 0.93994 0.0
O314 O 0.67352 0.82759 0.9474 0.0
C315 C 0.77778 0.71868 0.86239 0.0
C316 C 0.64398 0.71739 0.93954 0.0
C317 C 0.70542 0.83535 0.82045 0.0
O318 O 0.78139 0.74169 0.90141 0.0
O319 O 0.73747 0.7215 0.84219 0.0
O320 O 0.68081 0.79707 0.82045 0.0
O321 O 0.72851 0.84289 0.85813 0.0
C322 C 0.71143 0.8504 0.95701 0.0
O323 O 0.63199 0.74595 0.90628 0.0
O324 O 0.68804 0.71738 0.95021 0.0
In325 In 0.47761 0.45775 0.14607 0.0
O326 O 0.42134 0.49878 0.19011 0.0
O327 O 0.42501 0.42315 0.19671 0.0
C328 C 0.53418 0.52771 0.11224 0.0
C329 C 0.53545 0.39403 0.18941 0.0
C330 C 0.41744 0.4558 0.07038 0.0
O331 O 0.51124 0.53132 0.15129 0.0
O332 O 0.5313 0.48741 0.09201 0.0
O333 O 0.45546 0.43079 0.07042 0.0
O334 O 0.41017 0.47916 0.10795 0.0
C335 C 0.40235 0.46105 0.20668 0.0
O336 O 0.50702 0.38205 0.15603 0.0
O337 O 0.53533 0.43805 0.20018 0.0
In338 In 0.79502 0.2276 0.39607 0.0
O339 O 0.87078 0.25683 0.40617 0.0
O340 O 0.81472 0.28547 0.45002 0.0
C341 C 0.79729 0.1674 0.32036 0.0
C342 C 0.79132 0.15243 0.45687 0.0
C343 C 0.72502 0.28412 0.36219 0.0
O344 O 0.82196 0.20564 0.32035 0.0
O345 O 0.77416 0.15994 0.35802 0.0
O346 O 0.7214 0.26116 0.40123 0.0
O347 O 0.76533 0.28127 0.342 0.0
C348 C 0.85878 0.28543 0.43939 0.0
O349 O 0.75375 0.17131 0.43983 0.0
O350 O 0.82923 0.17521 0.44725 0.0
In351 In 0.02527 0.54498 0.64625 0.0
O352 O 0.08152 0.50375 0.69011 0.0
O353 O 0.07774 0.57931 0.69726 0.0
C354 C 0.96875 0.47501 0.61231 0.0
C355 C 0.96743 0.60872 0.68961 0.0
C356 C 0.08543 0.54711 0.57054 0.0
O357 O 0.99172 0.47136 0.65134 0.0
O358 O 0.97157 0.51535 0.59216 0.0
O359 O 0.04729 0.57193 0.57055 0.0
O360 O 0.09285 0.52392 0.60817 0.0
C361 C 0.10044 0.54138 0.70698 0.0
O362 O 0.99597 0.62072 0.65634 0.0
O363 O 0.96744 0.56466 0.70026 0.0
In364 In 0.70763 0.22739 0.60629 0.0
O365 O 0.74883 0.1711 0.56246 0.0
O366 O 0.67332 0.17493 0.55526 0.0
C367 C 0.77763 0.28388 0.64021 0.0
C368 C 0.64389 0.28523 0.56294 0.0
C369 C 0.70548 0.16725 0.68202 0.0
O370 O 0.78127 0.2609 0.60118 0.0
O371 O 0.73729 0.28109 0.66036 0.0
O372 O 0.68069 0.20541 0.68201 0.0
O373 O 0.72864 0.15979 0.64437 0.0
C374 C 0.71123 0.15218 0.54554 0.0
O375 O 0.63188 0.25668 0.5962 0.0
O376 O 0.68795 0.28523 0.55229 0.0
In377 In 0.02506 0.45767 0.85642 0.0
O378 O 0.08134 0.49884 0.81256 0.0
O379 O 0.07753 0.42331 0.80545 0.0
C380 C 0.96853 0.52764 0.89033 0.0
C381 C 0.96722 0.39392 0.8131 0.0
C382 C 0.08524 0.45557 0.93212 0.0
O383 O 0.99147 0.53127 0.85128 0.0
O384 O 0.97139 0.48732 0.91052 0.0
O385 O 0.04713 0.4307 0.9321 0.0
O386 O 0.09261 0.47881 0.89451 0.0
C387 C 0.10027 0.46122 0.7957 0.0
O388 O 0.99577 0.38193 0.84637 0.0
O389 O 0.96722 0.43797 0.80243 0.0
In390 In 0.79491 0.77509 0.10644 0.0
O391 O 0.8706 0.74566 0.09649 0.0
O392 O 0.81459 0.71735 0.05234 0.0
C393 C 0.79685 0.83527 0.18213 0.0
C394 C 0.79163 0.85034 0.04582 0.0
C395 C 0.72492 0.71855 0.14029 0.0
O396 O 0.82185 0.79724 0.18211 0.0
O397 O 0.77351 0.84254 0.14455 0.0
O398 O 0.72132 0.7415 0.10124 0.0
O399 O 0.76523 0.72141 0.16051 0.0
C400 C 0.85862 0.71723 0.06312 0.0
O401 O 0.7539 0.83136 0.06238 0.0
O402 O 0.82953 0.82768 0.0558 0.0
In403 In 0.47739 0.54497 0.3563 0.0
O404 O 0.42104 0.50367 0.31262 0.0
O405 O 0.42505 0.57913 0.30501 0.0
C406 C 0.53388 0.4749 0.39013 0.0
C407 C 0.53521 0.60874 0.31299 0.0
C408 C 0.41727 0.54737 0.43208 0.0
O409 O 0.51085 0.47129 0.35112 0.0
O410 O 0.5311 0.51522 0.41031 0.0
O411 O 0.4556 0.57188 0.43209 0.0
O412 O 0.40965 0.52436 0.39437 0.0
C413 C 0.40223 0.54122 0.29547 0.0
O414 O 0.50661 0.62074 0.34621 0.0
O415 O 0.53526 0.56468 0.30236 0.0
In416 In 0.89636 0.70769 0.77508 0.0
O417 O 0.90637 0.63198 0.74567 0.0
O418 O 0.95053 0.688 0.7174 0.0
C419 C 0.82066 0.70577 0.83524 0.0
C420 C 0.95698 0.71107 0.85039 0.0
C421 C 0.86249 0.77758 0.71844 0.0
O422 O 0.82073 0.68069 0.79727 0.0
O423 O 0.85821 0.7292 0.84245 0.0
O424 O 0.90156 0.78122 0.74137 0.0
O425 O 0.84227 0.73728 0.72138 0.0
C426 C 0.93978 0.64397 0.71728 0.0
O427 O 0.94034 0.74875 0.83137 0.0
O428 O 0.94706 0.67318 0.8277 0.0
In429 In 0.54497 0.64633 0.02494 0.0
O430 O 0.62071 0.65637 0.99563 0.0
O431 O 0.56469 0.70046 0.96726 0.0
C432 C 0.54706 0.5706 0.08509 0.0
C433 C 0.54142 0.70699 0.10023 0.0
C434 C 0.47508 0.61251 0.96828 0.0
O435 O 0.57202 0.57067 0.04705 0.0
O436 O 0.52368 0.60817 0.09239 0.0
O437 O 0.47146 0.6516 0.99118 0.0
O438 O 0.51535 0.59223 0.97125 0.0
C439 C 0.60873 0.68974 0.96719 0.0
O440 O 0.50379 0.69017 0.08126 0.0
O441 O 0.57933 0.69722 0.0775 0.0
In442 In 0.60646 0.29498 0.27482 0.0
O443 O 0.56256 0.25382 0.33109 0.0
O444 O 0.5556 0.32937 0.32737 0.0
C445 C 0.64031 0.22511 0.21813 0.0
C446 C 0.5631 0.35876 0.21706 0.0
C447 C 0.68214 0.29699 0.33501 0.0
O448 O 0.60122 0.22148 0.24102 0.0
O449 O 0.66058 0.26537 0.22115 0.0
O450 O 0.68208 0.32202 0.29702 0.0
O451 O 0.6446 0.27356 0.34224 0.0
C452 C 0.5458 0.29146 0.35008 0.0
O453 O 0.59644 0.37073 0.24553 0.0
O454 O 0.55238 0.31472 0.21709 0.0
In455 In 0.95773 0.3565 0.52486 0.0
O456 O 0.88206 0.34656 0.49537 0.0
O457 O 0.93805 0.30227 0.46725 0.0
C458 C 0.95593 0.43216 0.58507 0.0
C459 C 0.96093 0.29596 0.60022 0.0
C460 C 0.0276 0.39029 0.4682 0.0
O461 O 0.93072 0.43209 0.54718 0.0
O462 O 0.97948 0.39466 0.59215 0.0
O463 O 0.03121 0.35118 0.49106 0.0
O464 O 0.98735 0.41061 0.4712 0.0
C465 C 0.89404 0.31309 0.46705 0.0
O466 O 0.99867 0.31242 0.58117 0.0
O467 O 0.92306 0.30601 0.57754 0.0
In468 In 0.89616 0.29495 0.72763 0.0
O469 O 0.94029 0.254 0.67138 0.0
O470 O 0.94657 0.32966 0.67491 0.0
C471 C 0.86236 0.2251 0.78431 0.0
C472 C 0.93957 0.35866 0.78544 0.0
C473 C 0.82049 0.29671 0.66744 0.0
O474 O 0.90147 0.22148 0.76146 0.0
O475 O 0.84205 0.26535 0.78131 0.0
O476 O 0.82056 0.32195 0.70531 0.0
O477 O 0.85799 0.27315 0.66037 0.0
C478 C 0.95666 0.29176 0.6523 0.0
O479 O 0.9061 0.37064 0.75711 0.0
O480 O 0.95038 0.31465 0.78525 0.0
In481 In 0.95767 0.64619 0.97773 0.0
O482 O 0.88192 0.65622 0.00701 0.0
O483 O 0.93793 0.7003 0.03544 0.0
C484 C 0.95569 0.57051 0.91753 0.0
C485 C 0.9612 0.7068 0.90248 0.0
C486 C 0.02751 0.61236 0.03445 0.0
O487 O 0.93063 0.57058 0.95551 0.0
O488 O 0.97915 0.60804 0.91035 0.0
O489 O 0.03113 0.65148 0.01161 0.0
O490 O 0.98727 0.59204 0.03139 0.0
C491 C 0.89389 0.68957 0.03548 0.0
O492 O 0.99887 0.69011 0.92149 0.0
O493 O 0.92327 0.69698 0.92513 0.0
In494 In 0.60631 0.70774 0.22761 0.0
O495 O 0.56242 0.74891 0.17131 0.0
O496 O 0.55555 0.67331 0.17498 0.0
C497 C 0.64013 0.77761 0.28431 0.0
C498 C 0.56288 0.644 0.28535 0.0
C499 C 0.68203 0.70571 0.16746 0.0
O500 O 0.60104 0.78123 0.26142 0.0
O501 O 0.66042 0.73735 0.28131 0.0
O502 O 0.68195 0.68069 0.20546 0.0
O503 O 0.6445 0.72916 0.16022 0.0
C504 C 0.54573 0.71124 0.15231 0.0
O505 O 0.59629 0.63202 0.25696 0.0
O506 O 0.55213 0.68803 0.28525 0.0
In507 In 0.54494 0.35632 0.47746 0.0
O508 O 0.62064 0.34632 0.5069 0.0
O509 O 0.56461 0.30213 0.53512 0.0
C510 C 0.54678 0.43202 0.41729 0.0
C511 C 0.54161 0.29576 0.40217 0.0
C512 C 0.47506 0.39021 0.53409 0.0
O513 O 0.57192 0.43195 0.45521 0.0
O514 O 0.52331 0.39448 0.41012 0.0
O515 O 0.47141 0.35114 0.51117 0.0
O516 O 0.51537 0.41042 0.53116 0.0
C517 C 0.60864 0.3129 0.53527 0.0
O518 O 0.50389 0.31226 0.42122 0.0
O519 O 0.57953 0.30576 0.42478 0.0
In520 In 0.77514 0.89616 0.70764 0.0
O521 O 0.83148 0.94 0.74878 0.0
O522 O 0.8276 0.94709 0.67322 0.0
C523 C 0.7185 0.86237 0.77755 0.0
C524 C 0.71731 0.9395 0.64392 0.0
C525 C 0.83533 0.82045 0.70555 0.0
O526 O 0.74141 0.90146 0.78116 0.0
O527 O 0.72146 0.84207 0.7373 0.0
O528 O 0.79724 0.82049 0.68064 0.0
O529 O 0.84264 0.85804 0.72888 0.0
C530 C 0.85036 0.95683 0.71113 0.0
O531 O 0.74578 0.90615 0.63193 0.0
O532 O 0.71739 0.95024 0.68794 0.0
In533 In 0.27493 0.60633 0.29483 0.0
O534 O 0.3313 0.56266 0.25353 0.0
O535 O 0.32737 0.55518 0.32904 0.0
C536 C 0.21815 0.64015 0.22502 0.0
C537 C 0.21723 0.56292 0.3586 0.0
C538 C 0.33514 0.68202 0.29708 0.0
O539 O 0.24102 0.60105 0.22138 0.0
O540 O 0.22125 0.66048 0.26524 0.0
O541 O 0.29705 0.68196 0.32196 0.0
O542 O 0.34245 0.64447 0.27368 0.0
C543 C 0.35015 0.54563 0.29111 0.0
O544 O 0.24569 0.59628 0.37057 0.0
O545 O 0.21725 0.55221 0.31457 0.0
In546 In 0.64623 0.02487 0.5449 0.0
O547 O 0.65632 0.99563 0.62065 0.0
O548 O 0.70033 0.96715 0.56462 0.0
C549 C 0.57056 0.08509 0.54708 0.0
C550 C 0.7069 0.1001 0.54122 0.0
C551 C 0.61236 0.96811 0.47511 0.0
O552 O 0.57063 0.04704 0.57203 0.0
O553 O 0.60809 0.09234 0.52364 0.0
O554 O 0.65147 0.99096 0.47146 0.0
O555 O 0.59206 0.9712 0.51535 0.0
C556 C 0.68965 0.96714 0.60866 0.0
O557 O 0.68996 0.08119 0.50362 0.0
O558 O 0.69728 0.07735 0.57916 0.0
In559 In 0.22762 0.39627 0.79493 0.0
O560 O 0.17132 0.44015 0.75377 0.0
O561 O 0.17505 0.44709 0.82935 0.0
C562 C 0.28429 0.36236 0.72511 0.0
C563 C 0.28541 0.43974 0.8586 0.0
C564 C 0.16741 0.3206 0.79697 0.0
O565 O 0.26141 0.40146 0.72144 0.0
O566 O 0.28131 0.34212 0.76538 0.0
O567 O 0.20541 0.32066 0.82201 0.0
O568 O 0.1602 0.35813 0.77351 0.0
C569 C 0.15236 0.45688 0.79143 0.0
O570 O 0.25701 0.40635 0.87062 0.0
O571 O 0.2853 0.45045 0.81456 0.0
In572 In 0.35649 0.47759 0.54487 0.0
O573 O 0.3465 0.50696 0.62058 0.0
O574 O 0.30236 0.53528 0.56457 0.0
C575 C 0.43219 0.4174 0.54695 0.0
C576 C 0.29586 0.40234 0.54141 0.0
C577 C 0.39026 0.53426 0.47499 0.0
O578 O 0.43215 0.45546 0.57191 0.0
O579 O 0.39463 0.41013 0.52357 0.0
O580 O 0.35117 0.51136 0.47138 0.0
O581 O 0.41058 0.53127 0.51522 0.0
C582 C 0.31311 0.53538 0.60859 0.0
O583 O 0.31266 0.42123 0.50375 0.0
O584 O 0.30561 0.42508 0.57931 0.0
In585 In 0.72761 0.10649 0.20756 0.0
O586 O 0.67127 0.06288 0.24893 0.0
O587 O 0.67527 0.05516 0.17345 0.0
C588 C 0.78423 0.14034 0.27747 0.0
C589 C 0.78539 0.06315 0.14379 0.0
C590 C 0.66743 0.18221 0.20521 0.0
O591 O 0.76132 0.10126 0.28109 0.0
O592 O 0.78127 0.1606 0.23721 0.0
O593 O 0.70564 0.18219 0.18051 0.0
O594 O 0.65996 0.14459 0.2284 0.0
C595 C 0.65246 0.04571 0.21139 0.0
O596 O 0.75679 0.09638 0.13179 0.0
O597 O 0.78546 0.05253 0.18784 0.0
In598 In 0.64635 0.9777 0.95768 0.0
O599 O 0.69006 0.92135 0.99895 0.0
O600 O 0.69743 0.92524 0.92342 0.0
C601 C 0.6125 0.03442 0.02751 0.0
C602 C 0.68976 0.03543 0.89393 0.0
C603 C 0.57065 0.91751 0.95545 0.0
O604 O 0.65159 0.01153 0.03116 0.0
O605 O 0.59221 0.03139 0.98726 0.0
O606 O 0.57071 0.9556 0.93055 0.0
O607 O 0.6082 0.91019 0.97883 0.0
C608 C 0.70703 0.90248 0.96135 0.0
O609 O 0.65639 0.00698 0.88195 0.0
O610 O 0.70047 0.03539 0.93797 0.0
In611 In 0.85632 0.0251 0.45762 0.0
O612 O 0.81249 0.08141 0.4988 0.0
O613 O 0.80543 0.07763 0.42323 0.0
C614 C 0.89025 0.96844 0.52744 0.0
C615 C 0.81285 0.9673 0.39394 0.0
C616 C 0.932 0.08531 0.45552 0.0
O617 O 0.85116 0.99133 0.53112 0.0
O618 O 0.91047 0.97141 0.48716 0.0
O619 O 0.93193 0.04728 0.43052 0.0
O620 O 0.89447 0.09254 0.47896 0.0
C621 C 0.79569 0.10035 0.46116 0.0
O622 O 0.84624 0.99571 0.38193 0.0
O623 O 0.80214 0.96741 0.43798 0.0
loop_
_geom_bond_atom_site_label_1
_geom_bond_atom_site_label_2
_geom_bond_distance
_geom_bond_site_symmetry_2
_ccdc_geom_bond_type
In0 O1 2.294 . S
In0 O2 2.326 . S
In0 O6 2.266 . S
In0 O7 2.326 . S
In0 O8 2.266 . S
In0 O9 2.326 . S
In0 O11 2.294 . S
In0 O12 2.326 . S
O1 In0 2.294 . S
O1 C10 1.240 . S
O2 In0 2.326 . S
O2 C10 1.252 . S
C3 O6 1.252 . S
C3 O7 1.260 . S
C4 O11 1.240 . S
C4 O12 1.252 . S
C5 O8 1.252 . S
C5 O9 1.260 . S
O6 In0 2.266 . S
O6 C3 1.252 . S
O7 In0 2.326 . S
O7 C3 1.260 . S
O8 In0 2.266 . S
O8 C5 1.252 . S
O9 In0 2.326 . S
O9 C5 1.260 . S
C10 O1 1.240 . S
C10 O2 1.252 . S
O11 In0 2.294 . S
O11 C4 1.240 . S
O12 In0 2.326 . S
O12 C4 1.252 . S
In13 O14 2.294 1_655 S
In13 O15 2.326 1_655 S
In13 O19 2.266 . S
In13 O20 2.326 . S
In13 O21 2.266 1_565 S
In13 O22 2.326 1_655 S
In13 O24 2.294 . S
In13 O25 2.326 . S
O14 In13 2.294 1_455 S
O14 C23 1.240 . S
O15 In13 2.326 1_455 S
O15 C23 1.252 . S
C16 O19 1.252 . S
C16 O20 1.260 . S
C17 O24 1.240 . S
C17 O25 1.252 . S
C18 O21 1.252 1_455 S
C18 O22 1.260 1_545 S
O19 In13 2.266 . S
O19 C16 1.252 . S
O20 In13 2.326 . S
O20 C16 1.260 . S
O21 In13 2.266 1_545 S
O21 C18 1.252 1_655 S
O22 In13 2.326 1_455 S
O22 C18 1.260 1_565 S
C23 O14 1.240 . S
C23 O15 1.252 . S
O24 In13 2.294 . S
O24 C17 1.240 . S
O25 In13 2.326 . S
O25 C17 1.252 . S
In26 O27 2.294 . S
In26 O28 2.326 . S
In26 O32 2.266 . S
In26 O33 2.326 . S
In26 O34 2.266 . S
In26 O35 2.326 . S
In26 O37 2.294 . S
In26 O38 2.326 . S
O27 In26 2.294 . S
O27 C36 1.240 . S
O28 In26 2.326 . S
O28 C36 1.252 . S
C29 O32 1.252 . S
C29 O33 1.260 . S
C30 O37 1.240 . S
C30 O38 1.252 . S
C31 O34 1.252 . S
C31 O35 1.260 . S
O32 In26 2.266 . S
O32 C29 1.252 . S
O33 In26 2.326 . S
O33 C29 1.260 . S
O34 In26 2.266 . S
O34 C31 1.252 . S
O35 In26 2.326 . S
O35 C31 1.260 . S
C36 O27 1.240 . S
C36 O28 1.252 . S
O37 In26 2.294 . S
O37 C30 1.240 . S
O38 In26 2.326 . S
O38 C30 1.252 . S
In39 O40 2.294 . S
In39 O41 2.326 . S
In39 O45 2.266 1_545 S
In39 O46 2.326 . S
In39 O47 2.266 . S
In39 O48 2.326 . S
In39 O50 2.294 . S
In39 O51 2.326 . S
O40 In39 2.294 . S
O40 C49 1.240 . S
O41 In39 2.326 . S
O41 C49 1.252 . S
C42 O45 1.252 . S
C42 O46 1.260 1_565 S
C43 O50 1.240 . S
C43 O51 1.252 . S
C44 O47 1.252 . S
C44 O48 1.260 . S
O45 In39 2.266 1_565 S
O45 C42 1.252 . S
O46 In39 2.326 . S
O46 C42 1.260 1_545 S
O47 In39 2.266 . S
O47 C44 1.252 . S
O48 In39 2.326 . S
O48 C44 1.260 . S
C49 O40 1.240 . S
C49 O41 1.252 . S
O50 In39 2.294 . S
O50 C43 1.240 . S
O51 In39 2.326 . S
O51 C43 1.252 . S
In52 O53 2.294 . S
In52 O54 2.326 . S
In52 O58 2.266 . S
In52 O59 2.326 . S
In52 O60 2.266 . S
In52 O61 2.326 . S
In52 O63 2.294 . S
In52 O64 2.326 . S
O53 In52 2.294 . S
O53 C62 1.240 . S
O54 In52 2.326 . S
O54 C62 1.252 . S
C55 O58 1.252 . S
C55 O59 1.260 . S
C56 O63 1.240 . S
C56 O64 1.252 . S
C57 O60 1.252 . S
C57 O61 1.260 . S
O58 In52 2.266 . S
O58 C55 1.252 . S
O59 In52 2.326 . S
O59 C55 1.260 . S
O60 In52 2.266 . S
O60 C57 1.252 . S
O61 In52 2.326 . S
O61 C57 1.260 . S
C62 O53 1.240 . S
C62 O54 1.252 . S
O63 In52 2.294 . S
O63 C56 1.240 . S
O64 In52 2.326 . S
O64 C56 1.252 . S
In65 O66 2.294 . S
In65 O67 2.326 . S
In65 O71 2.266 . S
In65 O72 2.326 . S
In65 O73 2.266 1_565 S
In65 O74 2.326 . S
In65 O76 2.294 . S
In65 O77 2.326 . S
O66 In65 2.294 . S
O66 C75 1.240 . S
O67 In65 2.326 . S
O67 C75 1.252 . S
C68 O71 1.252 . S
C68 O72 1.260 . S
C69 O76 1.240 . S
C69 O77 1.252 . S
C70 O73 1.252 . S
C70 O74 1.260 1_545 S
O71 In65 2.266 . S
O71 C68 1.252 . S
O72 In65 2.326 . S
O72 C68 1.260 . S
O73 In65 2.266 1_545 S
O73 C70 1.252 . S
O74 In65 2.326 . S
O74 C70 1.260 1_565 S
C75 O66 1.240 . S
C75 O67 1.252 . S
O76 In65 2.294 . S
O76 C69 1.240 . S
O77 In65 2.326 . S
O77 C69 1.252 . S
In78 O79 2.294 . S
In78 O80 2.326 . S
In78 O84 2.266 . S
In78 O85 2.326 . S
In78 O86 2.266 . S
In78 O87 2.326 . S
In78 O89 2.294 . S
In78 O90 2.326 . S
O79 In78 2.294 . S
O79 C88 1.240 . S
O80 In78 2.326 . S
O80 C88 1.252 . S
C81 O84 1.252 . S
C81 O85 1.260 . S
C82 O89 1.240 . S
C82 O90 1.252 . S
C83 O86 1.252 . S
C83 O87 1.260 . S
O84 In78 2.266 . S
O84 C81 1.252 . S
O85 In78 2.326 . S
O85 C81 1.260 . S
O86 In78 2.266 . S
O86 C83 1.252 . S
O87 In78 2.326 . S
O87 C83 1.260 . S
C88 O79 1.240 . S
C88 O80 1.252 . S
O89 In78 2.294 . S
O89 C82 1.240 . S
O90 In78 2.326 . S
O90 C82 1.252 . S
In91 O92 2.294 1_655 S
In91 O93 2.326 1_655 S
In91 O97 2.266 . S
In91 O98 2.326 . S
In91 O99 2.266 1_545 S
In91 O100 2.326 1_655 S
In91 O102 2.294 . S
In91 O103 2.326 . S
O92 In91 2.294 1_455 S
O92 C101 1.240 . S
O93 In91 2.326 1_455 S
O93 C101 1.252 . S
C94 O97 1.252 . S
C94 O98 1.260 . S
C95 O102 1.240 . S
C95 O103 1.252 . S
C96 O99 1.252 1_455 S
C96 O100 1.260 1_565 S
O97 In91 2.266 . S
O97 C94 1.252 . S
O98 In91 2.326 . S
O98 C94 1.260 . S
O99 In91 2.266 1_565 S
O99 C96 1.252 1_655 S
O100 In91 2.326 1_455 S
O100 C96 1.260 1_545 S
C101 O92 1.240 . S
C101 O93 1.252 . S
O102 In91 2.294 . S
O102 C95 1.240 . S
O103 In91 2.326 . S
O103 C95 1.252 . S
In104 O105 2.294 . S
In104 O106 2.326 . S
In104 O110 2.266 . S
In104 O111 2.326 . S
In104 O112 2.266 . S
In104 O113 2.326 . S
In104 O115 2.294 . S
In104 O116 2.326 . S
O105 In104 2.294 . S
O105 C114 1.240 . S
O106 In104 2.326 . S
O106 C114 1.252 . S
C107 O110 1.252 . S
C107 O111 1.260 . S
C108 O115 1.240 . S
C108 O116 1.252 . S
C109 O112 1.252 . S
C109 O113 1.260 . S
O110 In104 2.266 . S
O110 C107 1.252 . S
O111 In104 2.326 . S
O111 C107 1.260 . S
O112 In104 2.266 . S
O112 C109 1.252 . S
O113 In104 2.326 . S
O113 C109 1.260 . S
C114 O105 1.240 . S
C114 O106 1.252 . S
O115 In104 2.294 . S
O115 C108 1.240 . S
O116 In104 2.326 . S
O116 C108 1.252 . S
In117 O118 2.294 . S
In117 O119 2.326 . S
In117 O123 2.266 . S
In117 O124 2.326 . S
In117 O125 2.266 1_455 S
In117 O126 2.326 . S
In117 O128 2.294 . S
In117 O129 2.326 . S
O118 In117 2.294 . S
O118 C127 1.240 . S
O119 In117 2.326 . S
O119 C127 1.252 . S
C120 O123 1.252 . S
C120 O124 1.260 . S
C121 O128 1.240 . S
C121 O129 1.252 . S
C122 O125 1.252 . S
C122 O126 1.260 1_655 S
O123 In117 2.266 . S
O123 C120 1.252 . S
O124 In117 2.326 . S
O124 C120 1.260 . S
O125 In117 2.266 1_655 S
O125 C122 1.252 . S
O126 In117 2.326 . S
O126 C122 1.260 1_455 S
C127 O118 1.240 . S
C127 O119 1.252 . S
O128 In117 2.294 . S
O128 C121 1.240 . S
O129 In117 2.326 . S
O129 C121 1.252 . S
In130 O131 2.294 . S
In130 O132 2.326 . S
In130 O136 2.266 . S
In130 O137 2.326 . S
In130 O138 2.266 . S
In130 O139 2.326 . S
In130 O141 2.294 . S
In130 O142 2.326 . S
O131 In130 2.294 . S
O131 C140 1.240 . S
O132 In130 2.326 . S
O132 C140 1.252 . S
C133 O136 1.252 . S
C133 O137 1.260 . S
C134 O141 1.240 . S
C134 O142 1.252 . S
C135 O138 1.252 . S
C135 O139 1.260 . S
O136 In130 2.266 . S
O136 C133 1.252 . S
O137 In130 2.326 . S
O137 C133 1.260 . S
O138 In130 2.266 . S
O138 C135 1.252 . S
O139 In130 2.326 . S
O139 C135 1.260 . S
C140 O131 1.240 . S
C140 O132 1.252 . S
O141 In130 2.294 . S
O141 C134 1.240 . S
O142 In130 2.326 . S
O142 C134 1.252 . S
In143 O144 2.294 . S
In143 O145 2.326 . S
In143 O149 2.266 . S
In143 O150 2.326 1_554 S
In143 O151 2.266 . S
In143 O152 2.326 . S
In143 O154 2.294 1_554 S
In143 O155 2.326 1_554 S
O144 In143 2.294 . S
O144 C153 1.240 . S
O145 In143 2.326 . S
O145 C153 1.252 . S
C146 O149 1.252 1_556 S
C146 O150 1.260 . S
C147 O154 1.240 . S
C147 O155 1.252 . S
C148 O151 1.252 . S
C148 O152 1.260 . S
O149 In143 2.266 . S
O149 C146 1.252 1_554 S
O150 In143 2.326 1_556 S
O150 C146 1.260 . S
O151 In143 2.266 . S
O151 C148 1.252 . S
O152 In143 2.326 . S
O152 C148 1.260 . S
C153 O144 1.240 . S
C153 O145 1.252 . S
O154 In143 2.294 1_556 S
O154 C147 1.240 . S
O155 In143 2.326 1_556 S
O155 C147 1.252 . S
In156 O157 2.294 . S
In156 O158 2.326 . S
In156 O162 2.266 . S
In156 O163 2.326 . S
In156 O164 2.266 . S
In156 O165 2.326 . S
In156 O167 2.294 . S
In156 O168 2.326 . S
O157 In156 2.294 . S
O157 C166 1.240 . S
O158 In156 2.326 . S
O158 C166 1.252 . S
C159 O162 1.252 . S
C159 O163 1.260 . S
C160 O167 1.240 . S
C160 O168 1.252 . S
C161 O164 1.252 . S
C161 O165 1.260 . S
O162 In156 2.266 . S
O162 C159 1.252 . S
O163 In156 2.326 . S
O163 C159 1.260 . S
O164 In156 2.266 . S
O164 C161 1.252 . S
O165 In156 2.326 . S
O165 C161 1.260 . S
C166 O157 1.240 . S
C166 O158 1.252 . S
O167 In156 2.294 . S
O167 C160 1.240 . S
O168 In156 2.326 . S
O168 C160 1.252 . S
In169 O170 2.294 . S
In169 O171 2.326 . S
In169 O175 2.266 . S
In169 O176 2.326 . S
In169 O177 2.266 . S
In169 O178 2.326 . S
In169 O180 2.294 . S
In169 O181 2.326 . S
O170 In169 2.294 . S
O170 C179 1.240 . S
O171 In169 2.326 . S
O171 C179 1.252 . S
C172 O175 1.252 . S
C172 O176 1.260 . S
C173 O180 1.240 . S
C173 O181 1.252 . S
C174 O177 1.252 . S
C174 O178 1.260 . S
O175 In169 2.266 . S
O175 C172 1.252 . S
O176 In169 2.326 . S
O176 C172 1.260 . S
O177 In169 2.266 . S
O177 C174 1.252 . S
O178 In169 2.326 . S
O178 C174 1.260 . S
C179 O170 1.240 . S
C179 O171 1.252 . S
O180 In169 2.294 . S
O180 C173 1.240 . S
O181 In169 2.326 . S
O181 C173 1.252 . S
In182 O183 2.294 . S
In182 O184 2.326 . S
In182 O188 2.266 . S
In182 O189 2.326 . S
In182 O190 2.266 . S
In182 O191 2.326 . S
In182 O193 2.294 . S
In182 O194 2.326 . S
O183 In182 2.294 . S
O183 C192 1.240 . S
O184 In182 2.326 . S
O184 C192 1.252 . S
C185 O188 1.252 . S
C185 O189 1.260 . S
C186 O193 1.240 . S
C186 O194 1.252 . S
C187 O190 1.252 . S
C187 O191 1.260 . S
O188 In182 2.266 . S
O188 C185 1.252 . S
O189 In182 2.326 . S
O189 C185 1.260 . S
O190 In182 2.266 . S
O190 C187 1.252 . S
O191 In182 2.326 . S
O191 C187 1.260 . S
C192 O183 1.240 . S
C192 O184 1.252 . S
O193 In182 2.294 . S
O193 C186 1.240 . S
O194 In182 2.326 . S
O194 C186 1.252 . S
In195 O196 2.294 1_556 S
In195 O197 2.326 1_556 S
In195 O201 2.266 . S
In195 O202 2.326 . S
In195 O203 2.266 1_455 S
In195 O204 2.326 1_556 S
In195 O206 2.294 . S
In195 O207 2.326 . S
O196 In195 2.294 1_554 S
O196 C205 1.240 . S
O197 In195 2.326 1_554 S
O197 C205 1.252 . S
C198 O201 1.252 . S
C198 O202 1.260 . S
C199 O206 1.240 . S
C199 O207 1.252 . S
C200 O203 1.252 1_554 S
C200 O204 1.260 1_655 S
O201 In195 2.266 . S
O201 C198 1.252 . S
O202 In195 2.326 . S
O202 C198 1.260 . S
O203 In195 2.266 1_655 S
O203 C200 1.252 1_556 S
O204 In195 2.326 1_554 S
O204 C200 1.260 1_455 S
C205 O196 1.240 . S
C205 O197 1.252 . S
O206 In195 2.294 . S
O206 C199 1.240 . S
O207 In195 2.326 . S
O207 C199 1.252 . S
In208 O209 2.294 . S
In208 O210 2.326 . S
In208 O214 2.266 . S
In208 O215 2.326 . S
In208 O216 2.266 . S
In208 O217 2.326 . S
In208 O219 2.294 . S
In208 O220 2.326 . S
O209 In208 2.294 . S
O209 C218 1.240 . S
O210 In208 2.326 . S
O210 C218 1.252 . S
C211 O214 1.252 . S
C211 O215 1.260 . S
C212 O219 1.240 . S
C212 O220 1.252 . S
C213 O216 1.252 . S
C213 O217 1.260 . S
O214 In208 2.266 . S
O214 C211 1.252 . S
O215 In208 2.326 . S
O215 C211 1.260 . S
O216 In208 2.266 . S
O216 C213 1.252 . S
O217 In208 2.326 . S
O217 C213 1.260 . S
C218 O209 1.240 . S
C218 O210 1.252 . S
O219 In208 2.294 . S
O219 C212 1.240 . S
O220 In208 2.326 . S
O220 C212 1.252 . S
In221 O222 2.294 . S
In221 O223 2.326 . S
In221 O227 2.266 . S
In221 O228 2.326 . S
In221 O229 2.266 . S
In221 O230 2.326 . S
In221 O232 2.294 . S
In221 O233 2.326 . S
O222 In221 2.294 . S
O222 C231 1.240 . S
O223 In221 2.326 . S
O223 C231 1.252 . S
C224 O227 1.252 . S
C224 O228 1.260 . S
C225 O232 1.240 . S
C225 O233 1.252 . S
C226 O229 1.252 . S
C226 O230 1.260 . S
O227 In221 2.266 . S
O227 C224 1.252 . S
O228 In221 2.326 . S
O228 C224 1.260 . S
O229 In221 2.266 . S
O229 C226 1.252 . S
O230 In221 2.326 . S
O230 C226 1.260 . S
C231 O222 1.240 . S
C231 O223 1.252 . S
O232 In221 2.294 . S
O232 C225 1.240 . S
O233 In221 2.326 . S
O233 C225 1.252 . S
In234 O235 2.294 . S
In234 O236 2.326 . S
In234 O240 2.266 1_554 S
In234 O241 2.326 . S
In234 O242 2.266 . S
In234 O243 2.326 . S
In234 O245 2.294 . S
In234 O246 2.326 . S
O235 In234 2.294 . S
O235 C244 1.240 . S
O236 In234 2.326 . S
O236 C244 1.252 . S
C237 O240 1.252 . S
C237 O241 1.260 1_556 S
C238 O245 1.240 . S
C238 O246 1.252 . S
C239 O242 1.252 . S
C239 O243 1.260 . S
O240 In234 2.266 1_556 S
O240 C237 1.252 . S
O241 In234 2.326 . S
O241 C237 1.260 1_554 S
O242 In234 2.266 . S
O242 C239 1.252 . S
O243 In234 2.326 . S
O243 C239 1.260 . S
C244 O235 1.240 . S
C244 O236 1.252 . S
O245 In234 2.294 . S
O245 C238 1.240 . S
O246 In234 2.326 . S
O246 C238 1.252 . S
In247 O248 2.294 . S
In247 O249 2.326 . S
In247 O253 2.266 . S
In247 O254 2.326 . S
In247 O255 2.266 . S
In247 O256 2.326 . S
In247 O258 2.294 . S
In247 O259 2.326 . S
O248 In247 2.294 . S
O248 C257 1.240 . S
O249 In247 2.326 . S
O249 C257 1.252 . S
C250 O253 1.252 . S
C250 O254 1.260 . S
C251 O258 1.240 . S
C251 O259 1.252 . S
C252 O255 1.252 . S
C252 O256 1.260 . S
O253 In247 2.266 . S
O253 C250 1.252 . S
O254 In247 2.326 . S
O254 C250 1.260 . S
O255 In247 2.266 . S
O255 C252 1.252 . S
O256 In247 2.326 . S
O256 C252 1.260 . S
C257 O248 1.240 . S
C257 O249 1.252 . S
O258 In247 2.294 . S
O258 C251 1.240 . S
O259 In247 2.326 . S
O259 C251 1.252 . S
In260 O261 2.294 . S
In260 O262 2.326 . S
In260 O266 2.266 1_554 S
In260 O267 2.326 1_565 S
In260 O268 2.266 . S
In260 O269 2.326 . S
In260 O271 2.294 1_565 S
In260 O272 2.326 1_565 S
O261 In260 2.294 . S
O261 C270 1.240 . S
O262 In260 2.326 . S
O262 C270 1.252 . S
C263 O266 1.252 1_545 S
C263 O267 1.260 1_556 S
C264 O271 1.240 . S
C264 O272 1.252 . S
C265 O268 1.252 . S
C265 O269 1.260 . S
O266 In260 2.266 1_556 S
O266 C263 1.252 1_565 S
O267 In260 2.326 1_545 S
O267 C263 1.260 1_554 S
O268 In260 2.266 . S
O268 C265 1.252 . S
O269 In260 2.326 . S
O269 C265 1.260 . S
C270 O261 1.240 . S
C270 O262 1.252 . S
O271 In260 2.294 1_545 S
O271 C264 1.240 . S
O272 In260 2.326 1_545 S
O272 C264 1.252 . S
In273 O274 2.294 . S
In273 O275 2.326 . S
In273 O279 2.266 . S
In273 O280 2.326 . S
In273 O281 2.266 . S
In273 O282 2.326 . S
In273 O284 2.294 . S
In273 O285 2.326 . S
O274 In273 2.294 . S
O274 C283 1.240 . S
O275 In273 2.326 . S
O275 C283 1.252 . S
C276 O279 1.252 . S
C276 O280 1.260 . S
C277 O284 1.240 . S
C277 O285 1.252 . S
C278 O281 1.252 . S
C278 O282 1.260 . S
O279 In273 2.266 . S
O279 C276 1.252 . S
O280 In273 2.326 . S
O280 C276 1.260 . S
O281 In273 2.266 . S
O281 C278 1.252 . S
O282 In273 2.326 . S
O282 C278 1.260 . S
C283 O274 1.240 . S
C283 O275 1.252 . S
O284 In273 2.294 . S
O284 C277 1.240 . S
O285 In273 2.326 . S
O285 C277 1.252 . S
In286 O287 2.294 . S
In286 O288 2.326 . S
In286 O292 2.266 . S
In286 O293 2.326 . S
In286 O294 2.266 . S
In286 O295 2.326 . S
In286 O297 2.294 . S
In286 O298 2.326 . S
O287 In286 2.294 . S
O287 C296 1.240 . S
O288 In286 2.326 . S
O288 C296 1.252 . S
C289 O292 1.252 . S
C289 O293 1.260 . S
C290 O297 1.240 . S
C290 O298 1.252 . S
C291 O294 1.252 . S
C291 O295 1.260 . S
O292 In286 2.266 . S
O292 C289 1.252 . S
O293 In286 2.326 . S
O293 C289 1.260 . S
O294 In286 2.266 . S
O294 C291 1.252 . S
O295 In286 2.326 . S
O295 C291 1.260 . S
C296 O287 1.240 . S
C296 O288 1.252 . S
O297 In286 2.294 . S
O297 C290 1.240 . S
O298 In286 2.326 . S
O298 C290 1.252 . S
In299 O300 2.294 . S
In299 O301 2.326 . S
In299 O305 2.266 . S
In299 O306 2.326 . S
In299 O307 2.266 1_556 S
In299 O308 2.326 . S
In299 O310 2.294 . S
In299 O311 2.326 . S
O300 In299 2.294 . S
O300 C309 1.240 . S
O301 In299 2.326 . S
O301 C309 1.252 . S
C302 O305 1.252 . S
C302 O306 1.260 . S
C303 O310 1.240 . S
C303 O311 1.252 . S
C304 O307 1.252 . S
C304 O308 1.260 1_554 S
O305 In299 2.266 . S
O305 C302 1.252 . S
O306 In299 2.326 . S
O306 C302 1.260 . S
O307 In299 2.266 1_554 S
O307 C304 1.252 . S
O308 In299 2.326 . S
O308 C304 1.260 1_556 S
C309 O300 1.240 . S
C309 O301 1.252 . S
O310 In299 2.294 . S
O310 C303 1.240 . S
O311 In299 2.326 . S
O311 C303 1.252 . S
In312 O313 2.294 . S
In312 O314 2.326 . S
In312 O318 2.266 . S
In312 O319 2.326 . S
In312 O320 2.266 . S
In312 O321 2.326 . S
In312 O323 2.294 . S
In312 O324 2.326 . S
O313 In312 2.294 . S
O313 C322 1.240 . S
O314 In312 2.326 . S
O314 C322 1.252 . S
C315 O318 1.252 . S
C315 O319 1.260 . S
C316 O323 1.240 . S
C316 O324 1.252 . S
C317 O320 1.252 . S
C317 O321 1.260 . S
O318 In312 2.266 . S
O318 C315 1.252 . S
O319 In312 2.326 . S
O319 C315 1.260 . S
O320 In312 2.266 . S
O320 C317 1.252 . S
O321 In312 2.326 . S
O321 C317 1.260 . S
C322 O313 1.240 . S
C322 O314 1.252 . S
O323 In312 2.294 . S
O323 C316 1.240 . S
O324 In312 2.326 . S
O324 C316 1.252 . S
In325 O326 2.294 . S
In325 O327 2.326 . S
In325 O331 2.266 . S
In325 O332 2.326 . S
In325 O333 2.266 . S
In325 O334 2.326 . S
In325 O336 2.294 . S
In325 O337 2.326 . S
O326 In325 2.294 . S
O326 C335 1.240 . S
O327 In325 2.326 . S
O327 C335 1.252 . S
C328 O331 1.252 . S
C328 O332 1.260 . S
C329 O336 1.240 . S
C329 O337 1.252 . S
C330 O333 1.252 . S
C330 O334 1.260 . S
O331 In325 2.266 . S
O331 C328 1.252 . S
O332 In325 2.326 . S
O332 C328 1.260 . S
O333 In325 2.266 . S
O333 C330 1.252 . S
O334 In325 2.326 . S
O334 C330 1.260 . S
C335 O326 1.240 . S
C335 O327 1.252 . S
O336 In325 2.294 . S
O336 C329 1.240 . S
O337 In325 2.326 . S
O337 C329 1.252 . S
In338 O339 2.294 . S
In338 O340 2.326 . S
In338 O344 2.266 . S
In338 O345 2.326 . S
In338 O346 2.266 . S
In338 O347 2.326 . S
In338 O349 2.294 . S
In338 O350 2.326 . S
O339 In338 2.294 . S
O339 C348 1.240 . S
O340 In338 2.326 . S
O340 C348 1.252 . S
C341 O344 1.252 . S
C341 O345 1.260 . S
C342 O349 1.240 . S
C342 O350 1.252 . S
C343 O346 1.252 . S
C343 O347 1.260 . S
O344 In338 2.266 . S
O344 C341 1.252 . S
O345 In338 2.326 . S
O345 C341 1.260 . S
O346 In338 2.266 . S
O346 C343 1.252 . S
O347 In338 2.326 . S
O347 C343 1.260 . S
C348 O339 1.240 . S
C348 O340 1.252 . S
O349 In338 2.294 . S
O349 C342 1.240 . S
O350 In338 2.326 . S
O350 C342 1.252 . S
In351 O352 2.294 . S
In351 O353 2.326 . S
In351 O357 2.266 . S
In351 O358 2.326 1_455 S
In351 O359 2.266 . S
In351 O360 2.326 . S
In351 O362 2.294 1_455 S
In351 O363 2.326 1_455 S
O352 In351 2.294 . S
O352 C361 1.240 . S
O353 In351 2.326 . S
O353 C361 1.252 . S
C354 O357 1.252 1_655 S
C354 O358 1.260 . S
C355 O362 1.240 . S
C355 O363 1.252 . S
C356 O359 1.252 . S
C356 O360 1.260 . S
O357 In351 2.266 . S
O357 C354 1.252 1_455 S
O358 In351 2.326 1_655 S
O358 C354 1.260 . S
O359 In351 2.266 . S
O359 C356 1.252 . S
O360 In351 2.326 . S
O360 C356 1.260 . S
C361 O352 1.240 . S
C361 O353 1.252 . S
O362 In351 2.294 1_655 S
O362 C355 1.240 . S
O363 In351 2.326 1_655 S
O363 C355 1.252 . S
In364 O365 2.294 . S
In364 O366 2.326 . S
In364 O370 2.266 . S
In364 O371 2.326 . S
In364 O372 2.266 . S
In364 O373 2.326 . S
In364 O375 2.294 . S
In364 O376 2.326 . S
O365 In364 2.294 . S
O365 C374 1.240 . S
O366 In364 2.326 . S
O366 C374 1.252 . S
C367 O370 1.252 . S
C367 O371 1.260 . S
C368 O375 1.240 . S
C368 O376 1.252 . S
C369 O372 1.252 . S
C369 O373 1.260 . S
O370 In364 2.266 . S
O370 C367 1.252 . S
O371 In364 2.326 . S
O371 C367 1.260 . S
O372 In364 2.266 . S
O372 C369 1.252 . S
O373 In364 2.326 . S
O373 C369 1.260 . S
C374 O365 1.240 . S
C374 O366 1.252 . S
O375 In364 2.294 . S
O375 C368 1.240 . S
O376 In364 2.326 . S
O376 C368 1.252 . S
In377 O378 2.294 . S
In377 O379 2.326 . S
In377 O383 2.266 . S
In377 O384 2.326 1_455 S
In377 O385 2.266 . S
In377 O386 2.326 . S
In377 O388 2.294 1_455 S
In377 O389 2.326 1_455 S
O378 In377 2.294 . S
O378 C387 1.240 . S
O379 In377 2.326 . S
O379 C387 1.252 . S
C380 O383 1.252 1_655 S
C380 O384 1.260 . S
C381 O388 1.240 . S
C381 O389 1.252 . S
C382 O385 1.252 . S
C382 O386 1.260 . S
O383 In377 2.266 . S
O383 C380 1.252 1_455 S
O384 In377 2.326 1_655 S
O384 C380 1.260 . S
O385 In377 2.266 . S
O385 C382 1.252 . S
O386 In377 2.326 . S
O386 C382 1.260 . S
C387 O378 1.240 . S
C387 O379 1.252 . S
O388 In377 2.294 1_655 S
O388 C381 1.240 . S
O389 In377 2.326 1_655 S
O389 C381 1.252 . S
In390 O391 2.294 . S
In390 O392 2.326 . S
In390 O396 2.266 . S
In390 O397 2.326 . S
In390 O398 2.266 . S
In390 O399 2.326 . S
In390 O401 2.294 . S
In390 O402 2.326 . S
O391 In390 2.294 . S
O391 C400 1.240 . S
O392 In390 2.326 . S
O392 C400 1.252 . S
C393 O396 1.252 . S
C393 O397 1.260 . S
C394 O401 1.240 . S
C394 O402 1.252 . S
C395 O398 1.252 . S
C395 O399 1.260 . S
O396 In390 2.266 . S
O396 C393 1.252 . S
O397 In390 2.326 . S
O397 C393 1.260 . S
O398 In390 2.266 . S
O398 C395 1.252 . S
O399 In390 2.326 . S
O399 C395 1.260 . S
C400 O391 1.240 . S
C400 O392 1.252 . S
O401 In390 2.294 . S
O401 C394 1.240 . S
O402 In390 2.326 . S
O402 C394 1.252 . S
In403 O404 2.294 . S
In403 O405 2.326 . S
In403 O409 2.266 . S
In403 O410 2.326 . S
In403 O411 2.266 . S
In403 O412 2.326 . S
In403 O414 2.294 . S
In403 O415 2.326 . S
O404 In403 2.294 . S
O404 C413 1.240 . S
O405 In403 2.326 . S
O405 C413 1.252 . S
C406 O409 1.252 . S
C406 O410 1.260 . S
C407 O414 1.240 . S
C407 O415 1.252 . S
C408 O411 1.252 . S
C408 O412 1.260 . S
O409 In403 2.266 . S
O409 C406 1.252 . S
O410 In403 2.326 . S
O410 C406 1.260 . S
O411 In403 2.266 . S
O411 C408 1.252 . S
O412 In403 2.326 . S
O412 C408 1.260 . S
C413 O404 1.240 . S
C413 O405 1.252 . S
O414 In403 2.294 . S
O414 C407 1.240 . S
O415 In403 2.326 . S
O415 C407 1.252 . S
In416 O417 2.294 . S
In416 O418 2.326 . S
In416 O422 2.266 . S
In416 O423 2.326 . S
In416 O424 2.266 . S
In416 O425 2.326 . S
In416 O427 2.294 . S
In416 O428 2.326 . S
O417 In416 2.294 . S
O417 C426 1.240 . S
O418 In416 2.326 . S
O418 C426 1.252 . S
C419 O422 1.252 . S
C419 O423 1.260 . S
C420 O427 1.240 . S
C420 O428 1.252 . S
C421 O424 1.252 . S
C421 O425 1.260 . S
O422 In416 2.266 . S
O422 C419 1.252 . S
O423 In416 2.326 . S
O423 C419 1.260 . S
O424 In416 2.266 . S
O424 C421 1.252 . S
O425 In416 2.326 . S
O425 C421 1.260 . S
C426 O417 1.240 . S
C426 O418 1.252 . S
O427 In416 2.294 . S
O427 C420 1.240 . S
O428 In416 2.326 . S
O428 C420 1.252 . S
In429 O430 2.294 1_554 S
In429 O431 2.326 1_554 S
In429 O435 2.266 . S
In429 O436 2.326 . S
In429 O437 2.266 . S
In429 O438 2.326 1_554 S
In429 O440 2.294 . S
In429 O441 2.326 . S
O430 In429 2.294 1_556 S
O430 C439 1.240 . S
O431 In429 2.326 1_556 S
O431 C439 1.252 . S
C432 O435 1.252 . S
C432 O436 1.260 . S
C433 O440 1.240 . S
C433 O441 1.252 . S
C434 O437 1.252 1_556 S
C434 O438 1.260 . S
O435 In429 2.266 . S
O435 C432 1.252 . S
O436 In429 2.326 . S
O436 C432 1.260 . S
O437 In429 2.266 . S
O437 C434 1.252 1_554 S
O438 In429 2.326 1_556 S
O438 C434 1.260 . S
C439 O430 1.240 . S
C439 O431 1.252 . S
O440 In429 2.294 . S
O440 C433 1.240 . S
O441 In429 2.326 . S
O441 C433 1.252 . S
In442 O443 2.294 . S
In442 O444 2.326 . S
In442 O448 2.266 . S
In442 O449 2.326 . S
In442 O450 2.266 . S
In442 O451 2.326 . S
In442 O453 2.294 . S
In442 O454 2.326 . S
O443 In442 2.294 . S
O443 C452 1.240 . S
O444 In442 2.326 . S
O444 C452 1.252 . S
C445 O448 1.252 . S
C445 O449 1.260 . S
C446 O453 1.240 . S
C446 O454 1.252 . S
C447 O450 1.252 . S
C447 O451 1.260 . S
O448 In442 2.266 . S
O448 C445 1.252 . S
O449 In442 2.326 . S
O449 C445 1.260 . S
O450 In442 2.266 . S
O450 C447 1.252 . S
O451 In442 2.326 . S
O451 C447 1.260 . S
C452 O443 1.240 . S
C452 O444 1.252 . S
O453 In442 2.294 . S
O453 C446 1.240 . S
O454 In442 2.326 . S
O454 C446 1.252 . S
In455 O456 2.294 . S
In455 O457 2.326 . S
In455 O461 2.266 . S
In455 O462 2.326 . S
In455 O463 2.266 1_655 S
In455 O464 2.326 . S
In455 O466 2.294 . S
In455 O467 2.326 . S
O456 In455 2.294 . S
O456 C465 1.240 . S
O457 In455 2.326 . S
O457 C465 1.252 . S
C458 O461 1.252 . S
C458 O462 1.260 . S
C459 O466 1.240 . S
C459 O467 1.252 . S
C460 O463 1.252 . S
C460 O464 1.260 1_455 S
O461 In455 2.266 . S
O461 C458 1.252 . S
O462 In455 2.326 . S
O462 C458 1.260 . S
O463 In455 2.266 1_455 S
O463 C460 1.252 . S
O464 In455 2.326 . S
O464 C460 1.260 1_655 S
C465 O456 1.240 . S
C465 O457 1.252 . S
O466 In455 2.294 . S
O466 C459 1.240 . S
O467 In455 2.326 . S
O467 C459 1.252 . S
In468 O469 2.294 . S
In468 O470 2.326 . S
In468 O474 2.266 . S
In468 O475 2.326 . S
In468 O476 2.266 . S
In468 O477 2.326 . S
In468 O479 2.294 . S
In468 O480 2.326 . S
O469 In468 2.294 . S
O469 C478 1.240 . S
O470 In468 2.326 . S
O470 C478 1.252 . S
C471 O474 1.252 . S
C471 O475 1.260 . S
C472 O479 1.240 . S
C472 O480 1.252 . S
C473 O476 1.252 . S
C473 O477 1.260 . S
O474 In468 2.266 . S
O474 C471 1.252 . S
O475 In468 2.326 . S
O475 C471 1.260 . S
O476 In468 2.266 . S
O476 C473 1.252 . S
O477 In468 2.326 . S
O477 C473 1.260 . S
C478 O469 1.240 . S
C478 O470 1.252 . S
O479 In468 2.294 . S
O479 C472 1.240 . S
O480 In468 2.326 . S
O480 C472 1.252 . S
In481 O482 2.294 1_556 S
In481 O483 2.326 1_556 S
In481 O487 2.266 . S
In481 O488 2.326 . S
In481 O489 2.266 1_655 S
In481 O490 2.326 1_556 S
In481 O492 2.294 . S
In481 O493 2.326 . S
O482 In481 2.294 1_554 S
O482 C491 1.240 . S
O483 In481 2.326 1_554 S
O483 C491 1.252 . S
C484 O487 1.252 . S
C484 O488 1.260 . S
C485 O492 1.240 . S
C485 O493 1.252 . S
C486 O489 1.252 1_554 S
C486 O490 1.260 1_455 S
O487 In481 2.266 . S
O487 C484 1.252 . S
O488 In481 2.326 . S
O488 C484 1.260 . S
O489 In481 2.266 1_455 S
O489 C486 1.252 1_556 S
O490 In481 2.326 1_554 S
O490 C486 1.260 1_655 S
C491 O482 1.240 . S
C491 O483 1.252 . S
O492 In481 2.294 . S
O492 C485 1.240 . S
O493 In481 2.326 . S
O493 C485 1.252 . S
In494 O495 2.294 . S
In494 O496 2.326 . S
In494 O500 2.266 . S
In494 O501 2.326 . S
In494 O502 2.266 . S
In494 O503 2.326 . S
In494 O505 2.294 . S
In494 O506 2.326 . S
O495 In494 2.294 . S
O495 C504 1.240 . S
O496 In494 2.326 . S
O496 C504 1.252 . S
C497 O500 1.252 . S
C497 O501 1.260 . S
C498 O505 1.240 . S
C498 O506 1.252 . S
C499 O502 1.252 . S
C499 O503 1.260 . S
O500 In494 2.266 . S
O500 C497 1.252 . S
O501 In494 2.326 . S
O501 C497 1.260 . S
O502 In494 2.266 . S
O502 C499 1.252 . S
O503 In494 2.326 . S
O503 C499 1.260 . S
C504 O495 1.240 . S
C504 O496 1.252 . S
O505 In494 2.294 . S
O505 C498 1.240 . S
O506 In494 2.326 . S
O506 C498 1.252 . S
In507 O508 2.294 . S
In507 O509 2.326 . S
In507 O513 2.266 . S
In507 O514 2.326 . S
In507 O515 2.266 . S
In507 O516 2.326 . S
In507 O518 2.294 . S
In507 O519 2.326 . S
O508 In507 2.294 . S
O508 C517 1.240 . S
O509 In507 2.326 . S
O509 C517 1.252 . S
C510 O513 1.252 . S
C510 O514 1.260 . S
C511 O518 1.240 . S
C511 O519 1.252 . S
C512 O515 1.252 . S
C512 O516 1.260 . S
O513 In507 2.266 . S
O513 C510 1.252 . S
O514 In507 2.326 . S
O514 C510 1.260 . S
O515 In507 2.266 . S
O515 C512 1.252 . S
O516 In507 2.326 . S
O516 C512 1.260 . S
C517 O508 1.240 . S
C517 O509 1.252 . S
O518 In507 2.294 . S
O518 C511 1.240 . S
O519 In507 2.326 . S
O519 C511 1.252 . S
In520 O521 2.294 . S
In520 O522 2.326 . S
In520 O526 2.266 . S
In520 O527 2.326 . S
In520 O528 2.266 . S
In520 O529 2.326 . S
In520 O531 2.294 . S
In520 O532 2.326 . S
O521 In520 2.294 . S
O521 C530 1.240 . S
O522 In520 2.326 . S
O522 C530 1.252 . S
C523 O526 1.252 . S
C523 O527 1.260 . S
C524 O531 1.240 . S
C524 O532 1.252 . S
C525 O528 1.252 . S
C525 O529 1.260 . S
O526 In520 2.266 . S
O526 C523 1.252 . S
O527 In520 2.326 . S
O527 C523 1.260 . S
O528 In520 2.266 . S
O528 C525 1.252 . S
O529 In520 2.326 . S
O529 C525 1.260 . S
C530 O521 1.240 . S
C530 O522 1.252 . S
O531 In520 2.294 . S
O531 C524 1.240 . S
O532 In520 2.326 . S
O532 C524 1.252 . S
In533 O534 2.294 . S
In533 O535 2.326 . S
In533 O539 2.266 . S
In533 O540 2.326 . S
In533 O541 2.266 . S
In533 O542 2.326 . S
In533 O544 2.294 . S
In533 O545 2.326 . S
O534 In533 2.294 . S
O534 C543 1.240 . S
O535 In533 2.326 . S
O535 C543 1.252 . S
C536 O539 1.252 . S
C536 O540 1.260 . S
C537 O544 1.240 . S
C537 O545 1.252 . S
C538 O541 1.252 . S
C538 O542 1.260 . S
O539 In533 2.266 . S
O539 C536 1.252 . S
O540 In533 2.326 . S
O540 C536 1.260 . S
O541 In533 2.266 . S
O541 C538 1.252 . S
O542 In533 2.326 . S
O542 C538 1.260 . S
C543 O534 1.240 . S
C543 O535 1.252 . S
O544 In533 2.294 . S
O544 C537 1.240 . S
O545 In533 2.326 . S
O545 C537 1.252 . S
In546 O547 2.294 1_545 S
In546 O548 2.326 1_545 S
In546 O552 2.266 . S
In546 O553 2.326 . S
In546 O554 2.266 . S
In546 O555 2.326 1_545 S
In546 O557 2.294 . S
In546 O558 2.326 . S
O547 In546 2.294 1_565 S
O547 C556 1.240 . S
O548 In546 2.326 1_565 S
O548 C556 1.252 . S
C549 O552 1.252 . S
C549 O553 1.260 . S
C550 O557 1.240 . S
C550 O558 1.252 . S
C551 O554 1.252 1_565 S
C551 O555 1.260 . S
O552 In546 2.266 . S
O552 C549 1.252 . S
O553 In546 2.326 . S
O553 C549 1.260 . S
O554 In546 2.266 . S
O554 C551 1.252 1_545 S
O555 In546 2.326 1_565 S
O555 C551 1.260 . S
C556 O547 1.240 . S
C556 O548 1.252 . S
O557 In546 2.294 . S
O557 C550 1.240 . S
O558 In546 2.326 . S
O558 C550 1.252 . S
In559 O560 2.294 . S
In559 O561 2.326 . S
In559 O565 2.266 . S
In559 O566 2.326 . S
In559 O567 2.266 . S
In559 O568 2.326 . S
In559 O570 2.294 . S
In559 O571 2.326 . S
O560 In559 2.294 . S
O560 C569 1.240 . S
O561 In559 2.326 . S
O561 C569 1.252 . S
C562 O565 1.252 . S
C562 O566 1.260 . S
C563 O570 1.240 . S
C563 O571 1.252 . S
C564 O567 1.252 . S
C564 O568 1.260 . S
O565 In559 2.266 . S
O565 C562 1.252 . S
O566 In559 2.326 . S
O566 C562 1.260 . S
O567 In559 2.266 . S
O567 C564 1.252 . S
O568 In559 2.326 . S
O568 C564 1.260 . S
C569 O560 1.240 . S
C569 O561 1.252 . S
O570 In559 2.294 . S
O570 C563 1.240 . S
O571 In559 2.326 . S
O571 C563 1.252 . S
In572 O573 2.294 . S
In572 O574 2.326 . S
In572 O578 2.266 . S
In572 O579 2.326 . S
In572 O580 2.266 . S
In572 O581 2.326 . S
In572 O583 2.294 . S
In572 O584 2.326 . S
O573 In572 2.294 . S
O573 C582 1.240 . S
O574 In572 2.326 . S
O574 C582 1.252 . S
C575 O578 1.252 . S
C575 O579 1.260 . S
C576 O583 1.240 . S
C576 O584 1.252 . S
C577 O580 1.252 . S
C577 O581 1.260 . S
O578 In572 2.266 . S
O578 C575 1.252 . S
O579 In572 2.326 . S
O579 C575 1.260 . S
O580 In572 2.266 . S
O580 C577 1.252 . S
O581 In572 2.326 . S
O581 C577 1.260 . S
C582 O573 1.240 . S
C582 O574 1.252 . S
O583 In572 2.294 . S
O583 C576 1.240 . S
O584 In572 2.326 . S
O584 C576 1.252 . S
In585 O586 2.294 . S
In585 O587 2.326 . S
In585 O591 2.266 . S
In585 O592 2.326 . S
In585 O593 2.266 . S
In585 O594 2.326 . S
In585 O596 2.294 . S
In585 O597 2.326 . S
O586 In585 2.294 . S
O586 C595 1.240 . S
O587 In585 2.326 . S
O587 C595 1.252 . S
C588 O591 1.252 . S
C588 O592 1.260 . S
C589 O596 1.240 . S
C589 O597 1.252 . S
C590 O593 1.252 . S
C590 O594 1.260 . S
O591 In585 2.266 . S
O591 C588 1.252 . S
O592 In585 2.326 . S
O592 C588 1.260 . S
O593 In585 2.266 . S
O593 C590 1.252 . S
O594 In585 2.326 . S
O594 C590 1.260 . S
C595 O586 1.240 . S
C595 O587 1.252 . S
O596 In585 2.294 . S
O596 C589 1.240 . S
O597 In585 2.326 . S
O597 C589 1.252 . S
In598 O599 2.294 . S
In598 O600 2.326 . S
In598 O604 2.266 1_556 S
In598 O605 2.326 1_565 S
In598 O606 2.266 . S
In598 O607 2.326 . S
In598 O609 2.294 1_565 S
In598 O610 2.326 1_565 S
O599 In598 2.294 . S
O599 C608 1.240 . S
O600 In598 2.326 . S
O600 C608 1.252 . S
C601 O604 1.252 1_545 S
C601 O605 1.260 1_554 S
C602 O609 1.240 . S
C602 O610 1.252 . S
C603 O606 1.252 . S
C603 O607 1.260 . S
O604 In598 2.266 1_554 S
O604 C601 1.252 1_565 S
O605 In598 2.326 1_545 S
O605 C601 1.260 1_556 S
O606 In598 2.266 . S
O606 C603 1.252 . S
O607 In598 2.326 . S
O607 C603 1.260 . S
C608 O599 1.240 . S
C608 O600 1.252 . S
O609 In598 2.294 1_545 S
O609 C602 1.240 . S
O610 In598 2.326 1_545 S
O610 C602 1.252 . S
In611 O612 2.294 . S
In611 O613 2.326 . S
In611 O617 2.266 . S
In611 O618 2.326 1_545 S
In611 O619 2.266 . S
In611 O620 2.326 . S
In611 O622 2.294 1_545 S
In611 O623 2.326 1_545 S
O612 In611 2.294 . S
O612 C621 1.240 . S
O613 In611 2.326 . S
O613 C621 1.252 . S
C614 O617 1.252 1_565 S
C614 O618 1.260 . S
C615 O622 1.240 . S
C615 O623 1.252 . S
C616 O619 1.252 . S
C616 O620 1.260 . S
O617 In611 2.266 . S
O617 C614 1.252 1_545 S
O618 In611 2.326 1_565 S
O618 C614 1.260 . S
O619 In611 2.266 . S
O619 C616 1.252 . S
O620 In611 2.326 . S
O620 C616 1.260 . S
C621 O612 1.240 . S
C621 O613 1.252 . S
O622 In611 2.294 1_565 S
O622 C615 1.240 . S
O623 In611 2.326 1_565 S
O623 C615 1.252 . S
C127 C10 2.289 . S
C134 C23 2.289 . S
C147 C36 2.289 . S
C108 C43 2.289 . S
C56 C205 2.289 . S
C75 C166 2.289 . S
C82 C179 2.289 . S
C192 C101 2.289 . S
C212 C238 2.289 . S
C225 C602 2.289 . S
C251 C615 2.289 . S
C264 C589 2.289 . S
C283 C582 2.289 . S
C537 C290 2.289 . S
C309 C563 2.289 . S
C439 C316 2.289 . S
C446 C329 2.289 . S
C465 C348 2.289 . S
C426 C355 2.289 . S
C517 C368 2.289 . S
C472 C381 2.289 . S
C400 C491 2.289 . S
C407 C498 2.289 . S
C524 C556 2.289 . S
C211 C3 1.603 . S
C614 C16 1.603 . S
C29 C278 1.603 . S
C601 C44 1.603 . S
C57 C536 1.603 . S
C551 C68 1.603 . S
C83 C562 1.603 . S
C263 C94 1.603 . S
C109 C5 1.603 . S
C18 C120 1.603 . S
C135 C31 1.603 . S
C42 C148 1.603 . S
C159 C55 1.603 . S
C70 C172 1.603 . S
C185 C81 1.603 . S
C198 C96 1.603 . S
C213 C107 1.603 . S
C226 C471 1.603 . S
C486 C239 1.603 . S
C497 C252 1.603 . S
C200 C265 1.603 . S
C276 C133 1.603 . S
C460 C291 1.603 . S
C302 C434 1.603 . S
C317 C523 1.603 . S
C330 C304 1.603 . S
C341 C588 1.603 . S
C356 C289 1.603 . S
C369 C224 1.603 . S
C382 C237 1.603 . S
C250 C393 1.603 . S
C577 C408 1.603 . S
C315 C419 1.603 . S
C328 C432 1.603 . S
C447 C343 1.603 . S
C354 C458 1.603 . S
C473 C367 1.603 . S
C484 C380 1.603 . S
C499 C395 1.603 . S
C406 C510 1.603 . S
C525 C421 1.603 . S
C538 C161 1.603 . S
C174 C549 1.603 . S
C564 C187 1.603 . S
C575 C512 1.603 . S
C445 C590 1.603 . S
C146 C603 1.603 . S
C122 C616 1.603 . S
C296 C4 1.826 . S
C17 C530 1.827 . S
C30 C303 1.827 . S
C595 C49 1.826 . S
C62 C244 1.826 . S
C257 C69 1.827 . S
C576 C88 1.826 . S
C95 C231 1.827 . S
C173 C114 1.826 . S
C121 C186 1.826 . S
C199 C140 1.827 . S
C153 C160 1.827 . S
C335 C218 1.826 . S
C270 C394 1.827 . S
C277 C361 1.827 . S
C608 C322 1.827 . S
C342 C621 1.827 . S
C374 C550 1.827 . S
C387 C569 1.827 . S
C543 C413 1.826 . S
C485 C420 1.827 . S
C433 C504 1.827 . S
C452 C511 1.826 . S
C478 C459 1.827 . S
