# Generated by pormake.
# Topology qtz-x, (6)-cn, num edge types: 1
# Building blocks:
#     Node 0, Type 0, BuildingBlock: KUMBUR_clean_sbu_0, # of connection points: 6
#     Node 1, Type 0, BuildingBlock: KUMBUR_clean_sbu_0, # of connection points: 6
#     Node 2, Type 0, BuildingBlock: KUMBUR_clean_sbu_0, # of connection points: 6
#     Edge 3, Type (0, 0), BuildingBlock: AJUNOK_clean_linker_0, # of connection points: 2
#     Edge 4, Type (0, 0), BuildingBlock: AJUNOK_clean_linker_0, # of connection points: 2
#     Edge 5, Type (0, 0), BuildingBlock: AJUNOK_clean_linker_0, # of connection points: 2
#     Edge 6, Type (0, 0), BuildingBlock: AJUNOK_clean_linker_0, # of connection points: 2
#     Edge 7, Type (0, 0), BuildingBlock: AJUNOK_clean_linker_0, # of connection points: 2
#     Edge 8, Type (0, 0), BuildingBlock: AJUNOK_clean_linker_0, # of connection points: 2
#     Edge 9, Type (0, 0), BuildingBlock: AJUNOK_clean_linker_0, # of connection points: 2
#     Edge 10, Type (0, 0), BuildingBlock: AJUNOK_clean_linker_0, # of connection points: 2
#     Edge 11, Type (0, 0), BuildingBlock: AJUNOK_clean_linker_0, # of connection points: 2
# Relax obj value: 0.162
# Max RMSD: 0.286
# Mean RMSD: 0.286
data_MOF--net-qtz-x--node1-KUMBUR_clean_sbu_0--edge1-AJUNOK_clean_linker_0
_symmetry_space_group_name_H-M    P1
_symmetry_Int_Tables_number       1
_symmetry_cell_setting            triclinic
loop_
_symmetry_equiv_pos_as_xyz
'x, y, z'
_cell_length_a     11.505391
_cell_length_b     11.501907
_cell_length_c     40.876169
_cell_angle_alpha  90.099277
_cell_angle_beta   90.436985
_cell_angle_gamma 119.77376
loop_
_atom_site_label
_atom_site_type_symbol
_atom_site_fract_x
_atom_site_fract_y
_atom_site_fract_z
_atom_type_partial_charge
Tb0 Tb 0.25028 0.48698 0.21178 0.0
C1 C 0.68911 0.30392 0.15585 0.0
C2 C 0.55643 0.13112 0.19465 0.0
C3 C 0.45157 0.22535 0.1602 0.0
C4 C 0.67956 0.21438 0.17947 0.0
C5 C 0.57472 0.30787 0.14527 0.0
C6 C 0.44347 0.13829 0.1851 0.0
C7 C 0.71065 0.46935 0.10458 0.0
N8 N 0.80928 0.38229 0.14195 0.0
C9 C 0.8208 0.46086 0.11572 0.0
C10 C 0.58802 0.39458 0.11995 0.0
Tb11 Tb 0.97692 0.34433 0.15681 0.0
N12 N 0.7886 0.20256 0.18587 0.0
C13 C 0.77585 0.09893 0.20503 0.0
C14 C 0.54867 0.03815 0.21774 0.0
C15 C 0.6585 0.02004 0.22242 0.0
H16 H 0.91493 0.51683 0.10325 0.0
H17 H 0.6519 0.94318 0.23875 0.0
H18 H 0.34998 0.07416 0.19652 0.0
H19 H 0.72059 0.53369 0.08437 0.0
H20 H 0.85699 0.07871 0.20836 0.0
H21 H 0.5071 0.94848 0.14303 0.0
H22 H 0.45606 0.97397 0.23036 0.0
H23 H 0.37527 0.32434 0.25125 0.0
H24 H 0.33543 0.7908 0.17748 0.0
H25 H 0.59007 0.32476 0.25368 0.0
H26 H 0.36278 0.228 0.15258 0.0
H27 H 0.69994 0.91933 0.12796 0.0
H28 H 0.82497 0.79724 0.1374 0.0
H29 H 0.50496 0.40523 0.1124 0.0
H30 H 0.8474 0.62876 0.16923 0.0
N31 N 0.41685 0.65917 0.18235 0.0
C32 C 0.41468 0.77142 0.17191 0.0
C33 C 0.62292 0.8483 0.14385 0.0
C34 C 0.63172 0.74181 0.15726 0.0
C35 C 0.51575 0.86547 0.15226 0.0
C36 C 0.52579 0.64757 0.17656 0.0
H37 H 0.76973 0.46527 0.21482 0.0
N38 N 0.43522 0.46401 0.21205 0.0
C39 C 0.57587 0.38762 0.2363 0.0
C40 C 0.53716 0.54924 0.19287 0.0
C41 C 0.45422 0.38672 0.23456 0.0
C42 C 0.67772 0.46805 0.21483 0.0
C43 C 0.6593 0.55063 0.19302 0.0
O44 O 0.27014 0.47085 0.26268 0.0
O45 O 0.03794 0.40175 0.20731 0.0
O46 O -0.00437 0.54171 0.169 0.0
O47 O 0.17001 0.62775 0.20768 0.0
O48 O 0.1107 0.32308 0.24148 0.0
O49 O 0.34007 0.66248 0.24079 0.0
O50 O -0.00058 0.34091 0.10558 0.0
O51 O 0.19212 0.43467 0.16061 0.0
O52 O 0.22125 0.28288 0.20127 0.0
O53 O 0.02676 0.18683 0.16913 0.0
O54 O 0.11182 0.51778 0.12928 0.0
O55 O 0.87335 0.16118 0.131 0.0
C56 C 0.0052 0.32521 0.23188 0.0
C57 C 0.45642 0.65157 0.2877 0.0
C58 C 0.5653 0.7077 0.34161 0.0
C59 C 0.44883 0.65852 0.32194 0.0
C60 C 0.68747 0.74092 0.3264 0.0
C61 C 0.58076 0.69257 0.27321 0.0
C62 C 0.69488 0.73382 0.2925 0.0
C63 C 0.0817 0.64011 0.18888 0.0
C64 C 0.33362 0.59902 0.26759 0.0
C65 C 0.75987 0.63631 0.17181 0.0
C66 C 0.74567 0.73034 0.15338 0.0
C67 C 0.22041 0.52023 0.13782 0.0
C68 C 0.8063 0.18821 0.07741 0.0
C69 C 0.84299 0.22805 0.04475 0.0
C70 C 0.74913 0.22707 0.02205 0.0
C71 C 0.61668 0.18014 0.03262 0.0
C72 C 0.67289 0.13814 0.08657 0.0
C73 C 0.57869 0.13358 0.06434 0.0
C74 C 0.12148 0.17806 0.18571 0.0
C75 C 0.91083 0.21613 0.10241 0.0
H76 H 0.35252 0.62644 0.3331 0.0
H77 H 0.77942 0.77902 0.34049 0.0
H78 H 0.59022 0.69359 0.24702 0.0
H79 H 0.79022 0.76379 0.28109 0.0
H80 H 0.94523 0.26231 0.03755 0.0
H81 H 0.5421 0.1819 0.01666 0.0
H82 H 0.64291 0.10862 0.11135 0.0
H83 H 0.47682 0.09827 0.07209 0.0
Tb84 Tb 0.63616 0.93138 0.54238 0.0
C85 C 0.03253 0.4681 0.48033 0.0
C86 C 0.01804 0.62403 0.51733 0.0
C87 C 0.215 0.69695 0.4837 0.0
C88 C 0.96393 0.49472 0.50402 0.0
C89 C 0.15759 0.56975 0.46926 0.0
C90 C 0.14532 0.72255 0.50788 0.0
C91 C 0.1563 0.41344 0.42968 0.0
N92 N 0.97428 0.34371 0.46725 0.0
C93 C 0.03094 0.31699 0.44103 0.0
C94 C 0.22085 0.53992 0.44423 0.0
Tb95 Tb 0.7673 0.19541 0.48627 0.0
N96 N 0.8409 0.39609 0.51256 0.0
C97 C 0.76125 0.42571 0.53158 0.0
C98 C 0.94272 0.6509 0.53962 0.0
C99 C 0.81267 0.55131 0.54646 0.0
H100 H 0.98031 0.22125 0.42873 0.0
H101 H 0.75079 0.57208 0.56249 0.0
H102 H 0.19068 0.81675 0.52002 0.0
H103 H 0.20246 0.39052 0.40958 0.0
H104 H 0.65758 0.35295 0.53565 0.0
H105 H 0.68112 0.54824 0.47641 0.0
H106 H 0.98205 0.74918 0.55068 0.0
H107 H 0.40556 0.904 0.59505 0.0
H108 H 0.76411 0.76865 0.50188 0.0
H109 H 0.17965 0.73292 0.61145 0.0
H110 H 0.3135 0.77504 0.47686 0.0
H111 H 0.44246 0.37641 0.48053 0.0
H112 H 0.21906 0.31271 0.50361 0.0
H113 H 0.31813 0.61375 0.43563 0.0
H114 H 0.08527 0.35377 0.54374 0.0
N115 N 0.57224 0.72796 0.51865 0.0
C116 C 0.65917 0.69655 0.50372 0.0
C117 C 0.4783 0.47415 0.4916 0.0
C118 C 0.39403 0.5025 0.5102 0.0
C119 C 0.61285 0.57058 0.48928 0.0
C120 C 0.44494 0.63075 0.52393 0.0
H121 H 0.0715 0.51039 0.58515 0.0
N122 N 0.42577 0.7797 0.55925 0.0
C123 C 0.23219 0.7099 0.59297 0.0
C124 C 0.3699 0.65655 0.54567 0.0
C125 C 0.36036 0.80682 0.58339 0.0
C126 C 0.17195 0.58367 0.57832 0.0
C127 C 0.24156 0.55508 0.55467 0.0
O128 O 0.64771 0.94223 0.59404 0.0
O129 O 0.76414 0.14424 0.53742 0.0
O130 O 0.94516 0.17647 0.49947 0.0
O131 O 0.84171 0.97556 0.52858 0.0
O132 O 0.60503 0.07553 0.56808 0.0
O133 O 0.75291 0.86467 0.56723 0.0
O134 O 0.72567 0.1751 0.43565 0.0
O135 O 0.64183 0.98041 0.4911 0.0
O136 O 0.45924 0.94944 0.52677 0.0
O137 O 0.5646 0.15574 0.50043 0.0
O138 O 0.7918 0.05178 0.45753 0.0
O139 O 0.68197 0.30277 0.465 0.0
C140 C 0.71479 0.17958 0.56043 0.0
C141 C 0.66671 0.76942 0.61851 0.0
C142 C 0.62477 0.67817 0.67376 0.0
C143 C 0.68648 0.78898 0.65271 0.0
C144 C 0.54591 0.5494 0.66004 0.0
C145 C 0.58738 0.63986 0.60576 0.0
C146 C 0.52616 0.53099 0.62642 0.0
C147 C 0.94844 0.07436 0.51419 0.0
C148 C 0.71856 0.88364 0.59613 0.0
C149 C 0.18676 0.43004 0.53923 0.0
C150 C 0.26234 0.40544 0.51654 0.0
C151 C 0.69299 0.94427 0.46852 0.0
C152 C 0.75815 0.37252 0.41094 0.0
C153 C 0.75055 0.33595 0.37791 0.0
C154 C 0.83433 0.42934 0.35458 0.0
C155 C 0.91672 0.5637 0.36445 0.0
C156 C 0.84099 0.50706 0.4202 0.0
C157 C 0.91828 0.60222 0.39693 0.0
C158 C 0.45648 0.05379 0.51322 0.0
C159 C 0.69052 0.26616 0.43543 0.0
H160 H 0.74485 0.88922 0.66279 0.0
H161 H 0.49638 0.46247 0.67563 0.0
H162 H 0.57098 0.6225 0.57977 0.0
H163 H 0.46182 0.43222 0.61624 0.0
H164 H 0.68336 0.23277 0.37083 0.0
H165 H 0.98405 0.63845 0.34743 0.0
H166 H 0.84912 0.53846 0.44545 0.0
H167 H 0.98323 0.7054 0.40431 0.0
Tb168 Tb 0.66286 0.56785 0.87908 0.0
C169 C 0.78929 0.16032 0.81724 0.0
C170 C 0.973 0.18419 0.85113 0.0
C171 C 0.84757 0.98453 0.81766 0.0
C172 C 0.89058 0.23369 0.83967 0.0
C173 C 0.76835 0.03595 0.80543 0.0
C174 C 0.9483 0.0585 0.84064 0.0
C175 C 0.60073 0.02872 0.76837 0.0
N176 N 0.71738 0.21498 0.80536 0.0
C177 C 0.62827 0.15407 0.7801 0.0
C178 C 0.67048 0.96886 0.78129 0.0
Tb179 Tb 0.78497 0.42862 0.82193 0.0
N180 N 0.91566 0.3581 0.84796 0.0
C181 C 0.02817 0.44081 0.86592 0.0
C182 C 0.07917 0.26301 0.87244 0.0
C183 C 0.10691 0.39238 0.87987 0.0
H184 H 0.57923 0.20284 0.76867 0.0
H185 H 0.19229 0.45686 0.89517 0.0
H186 H 0.00673 0.01873 0.85057 0.0
H187 H 0.52788 0.97976 0.74892 0.0
H188 H 0.05819 0.54475 0.86986 0.0
H189 H 0.22524 0.51745 0.81448 0.0
H190 H 0.14308 0.2269 0.88226 0.0
H191 H 0.88029 0.80886 0.92916 0.0
H192 H 0.3674 0.43541 0.8366 0.0
H193 H 0.93771 0.03807 0.94401 0.0
H194 H 0.83169 0.88798 0.80976 0.0
H195 H 0.29124 0.75546 0.81966 0.0
H196 H 0.4503 0.97834 0.84221 0.0
H197 H 0.65009 0.8727 0.77192 0.0
H198 H 0.63697 0.11851 0.87889 0.0
N199 N 0.52175 0.62728 0.85388 0.0
C200 C 0.40133 0.54035 0.83943 0.0
C201 C 0.35607 0.72051 0.82952 0.0
C202 C 0.47253 0.80606 0.84691 0.0
C203 C 0.31842 0.58624 0.82665 0.0
C204 C 0.55415 0.75667 0.85922 0.0
H205 H 0.82075 0.14197 0.91731 0.0
N206 N 0.73354 0.78422 0.89332 0.0
C207 C 0.85957 0.98228 0.9261 0.0
C208 C 0.66191 0.83678 0.87984 0.0
C209 C 0.82682 0.85237 0.91746 0.0
C210 C 0.79132 0.03987 0.91133 0.0
C211 C 0.68838 0.96583 0.88876 0.0
O212 O 0.59103 0.44208 0.92044 0.0
O213 O 0.74487 0.43721 0.87342 0.0
O214 O 0.5892 0.25654 0.83645 0.0
O215 O 0.4939 0.36633 0.86426 0.0
O216 O 0.83785 0.59413 0.90549 0.0
O217 O 0.55155 0.60143 0.91531 0.0
O218 O 0.79277 0.44947 0.77059 0.0
O219 O 0.70831 0.56586 0.82758 0.0
O220 O 0.86701 0.73569 0.86733 0.0
O221 O 0.95284 0.63414 0.83335 0.0
O222 O 0.61849 0.41609 0.79396 0.0
O223 O 0.97032 0.49941 0.79836 0.0
C224 C 0.83074 0.48362 0.89654 0.0
C225 C 0.59339 0.55693 0.96883 0.0
C226 C 0.54762 0.60236 0.02411 0.0
C227 C 0.5019 0.54809 0.99263 0.0
C228 C 0.68506 0.66925 0.03131 0.0
C229 C 0.72959 0.61532 0.97751 0.0
C230 C 0.77529 0.67324 1.00827 0.0
C231 C 0.48478 0.25679 0.85044 0.0
C232 C 0.54678 0.51165 0.93492 0.0
C233 C 0.61187 0.01669 0.87474 0.0
C234 C 0.50592 0.93764 0.85359 0.0
C235 C 0.62413 0.52436 0.8041 0.0
C236 C 0.94447 0.39579 0.74633 0.0
C237 C 0.91958 0.39879 0.71279 0.0
C238 C 0.92768 0.30823 0.69092 0.0
C239 C 0.96323 0.21572 0.70303 0.0
C240 C 0.98439 0.30557 0.75763 0.0
C241 C -0.00846 0.21474 0.73621 0.0
C242 C 0.96683 0.73941 0.85018 0.0
C243 C 0.91698 0.47877 0.76924 0.0
H244 H 0.39581 0.49904 0.98681 0.0
H245 H 0.72183 0.71328 0.05528 0.0
H246 H 0.80199 0.61827 0.96072 0.0
H247 H 0.88086 0.72033 1.01435 0.0
H248 H 0.89059 0.46957 0.70387 0.0
H249 H 0.9668 0.14257 0.68697 0.0
H250 H 0.01342 0.30701 0.7828 0.0
H251 H 0.02042 0.14432 0.74535 0.0
C252 C 0.10053 0.84921 0.21745 0.0
C253 C 0.08877 0.77605 0.18849 0.0
C254 C 0.10977 0.97768 0.21667 0.0
C255 C 0.11042 0.04059 0.18683 0.0
H256 H 0.10192 0.80659 0.24095 0.0
H257 H 0.11822 0.02887 0.23957 0.0
S258 S 0.08168 0.8921 0.10426 0.0
N259 N 0.08102 0.77954 0.12931 0.0
N260 N 0.09216 0.01384 0.12784 0.0
C261 C 0.09649 0.96695 0.15797 0.0
C262 C 0.08896 0.83798 0.15877 0.0
C263 C 0.25927 0.05202 0.54273 0.0
C264 C 0.32862 0.06222 0.51343 0.0
C265 C 0.13584 0.05282 0.54279 0.0
C266 C 0.07587 0.06518 0.51363 0.0
H267 H 0.30021 0.04205 0.56581 0.0
H268 H 0.08794 0.04575 0.56598 0.0
S269 S 0.21471 0.09448 0.43044 0.0
N270 N 0.3265 0.08688 0.45459 0.0
N271 N 0.09547 0.08356 0.45463 0.0
C272 C 0.14348 0.07366 0.48428 0.0
C273 C 0.26968 0.07495 0.48426 0.0
C274 C 0.16371 0.93853 0.87939 0.0
C275 C 0.10216 0.86783 0.85008 0.0
C276 C 0.28425 0.06486 0.87937 0.0
C277 C 0.34947 0.12805 0.85006 0.0
H278 H 0.11791 0.89598 0.90263 0.0
H279 H 0.32789 0.11258 0.90261 0.0
S280 S 0.2246 -0.00701 0.76657 0.0
N281 N 0.11506 0.87588 0.79089 0.0
N282 N 0.33542 0.11218 0.79083 0.0
C283 C 0.28686 0.05995 0.82067 0.0
C284 C 0.16602 0.93047 0.82069 0.0
C285 C 0.44917 0.68542 0.06605 0.0
C286 C 0.4535 0.57837 0.05086 0.0
C287 C 0.37223 0.66426 0.09413 0.0
C288 C 0.31007 0.5397 0.11012 0.0
H289 H 0.50343 0.78515 0.05583 0.0
H290 H 0.35938 0.74566 0.10299 0.0
S291 S 0.2665 0.223 0.07493 0.0
N292 N 0.36734 0.33914 0.04927 0.0
N293 N 0.23389 0.30209 0.10413 0.0
C294 C 0.30582 0.43036 0.09361 0.0
C295 C 0.37675 0.44988 0.06375 0.0
C296 C 0.87189 0.47061 0.29416 0.0
C297 C 0.84752 0.38543 0.32107 0.0
C298 C 0.91271 0.44536 0.26404 0.0
C299 C 0.92251 0.3298 0.25883 0.0
H300 H 0.86807 0.56234 0.29692 0.0
H301 H 0.9476 0.52292 0.24582 0.0
S302 S 0.87054 0.07441 0.32069 0.0
N303 N 0.84077 0.18188 0.3404 0.0
N304 N 0.90301 0.12837 0.28271 0.0
C305 C 0.8897 0.2392 0.28475 0.0
C306 C 0.85484 0.26787 0.31599 0.0
C307 C 0.7484 0.69482 0.76076 0.0
C308 C 0.62642 0.60999 0.77667 0.0
C309 C 0.75049 0.73255 0.72775 0.0
C310 C 0.63035 0.69045 0.71014 0.0
H311 H 0.84244 0.71952 0.77259 0.0
H312 H 0.84551 0.78387 0.71526 0.0
S313 S 0.28877 0.4793 0.74023 0.0
N314 N 0.38533 0.48208 0.77047 0.0
N315 N 0.38953 0.58059 0.71225 0.0
C316 C 0.50989 0.62202 0.72713 0.0
C317 C 0.50748 0.57322 0.75925 0.0
C318 C 0.70946 0.2827 0.93207 0.0
C319 C 0.82909 0.39952 0.9243 0.0
C320 C 0.69048 0.22166 0.9626 0.0
C321 C 0.78668 0.27952 0.9879 0.0
H322 H 0.62466 0.2434 0.91554 0.0
H323 H 0.59564 0.1318 0.96683 0.0
S324 S 0.11799 0.58927 0.98039 0.0
N325 N 0.04824 0.5688 0.94383 0.0
N326 N 0.00886 0.46256 1.00255 0.0
C327 C 0.90909 0.39516 0.98027 0.0
C328 C 0.93049 0.45359 0.94838 0.0
C329 C 0.65018 0.71591 0.39872 0.0
C330 C 0.56475 0.73506 0.37739 0.0
C331 C 0.68112 0.77359 0.42999 0.0
C332 C 0.61937 0.84299 0.44273 0.0
H333 H 0.70265 0.66548 0.39024 0.0
H334 H 0.76319 0.77342 0.44305 0.0
S335 S 0.38315 0.91684 0.39756 0.0
N336 N 0.41744 0.82905 0.37138 0.0
N337 N 0.46715 0.9269 0.43136 0.0
C338 C 0.52638 0.85492 0.42253 0.0
C339 C 0.49955 0.80179 0.38986 0.0
C340 C 0.95931 0.28279 0.63101 0.0
C341 C 0.88675 0.30128 0.6561 0.0
C342 C 0.90951 0.25456 0.59879 0.0
C343 C 0.7907 0.25368 0.58994 0.0
H344 H 0.05075 0.28145 0.6367 0.0
H345 H 0.95794 0.22136 0.58164 0.0
S346 S 0.54942 0.26316 0.64759 0.0
N347 N 0.67827 0.29076 0.67081 0.0
N348 N 0.59442 0.25736 0.60973 0.0
C349 C 0.71949 0.27578 0.61477 0.0
C350 C 0.76523 0.29506 0.64788 0.0
loop_
_geom_bond_atom_site_label_1
_geom_bond_atom_site_label_2
_geom_bond_distance
_geom_bond_site_symmetry_2
_ccdc_geom_bond_type
Tb0 N31 2.660 . S
Tb0 N38 2.600 . S
Tb0 O44 2.546 . S
Tb0 O45 2.610 1_455 S
Tb0 O47 2.320 . S
Tb0 O48 2.552 . S
Tb0 O49 2.413 . S
Tb0 O51 2.362 . S
Tb0 O52 2.421 . S
Tb0 C64 2.833 . S
C1 C4 1.432 . S
C1 C5 1.414 . S
C1 N8 1.359 . S
C2 C4 1.417 . S
C2 C6 1.432 . S
C2 C14 1.410 1_545 S
C3 C5 1.444 . S
C3 C6 1.317 . S
C3 H26 0.929 . S
C4 C1 1.432 . S
C4 C2 1.417 . S
C4 N12 1.360 . S
C5 C1 1.414 . S
C5 C3 1.444 . S
C5 C10 1.385 . S
C6 C2 1.432 . S
C6 C3 1.317 . S
C6 H18 0.930 . S
C7 C9 1.392 . S
C7 C10 1.370 . S
C7 H19 0.931 . S
N8 C1 1.359 . S
N8 C9 1.327 . S
N8 Tb11 2.600 . S
C9 C7 1.392 . S
C9 N8 1.327 . S
C9 H16 0.930 . S
C10 C5 1.385 . S
C10 C7 1.370 . S
C10 H29 0.930 . S
Tb11 N8 2.600 . S
Tb11 N12 2.660 . S
Tb11 O45 2.362 . S
Tb11 O46 2.421 . S
Tb11 O50 2.546 . S
Tb11 O51 2.610 1_655 S
Tb11 O53 2.320 . S
Tb11 O54 2.552 . S
Tb11 O55 2.413 . S
Tb11 C75 2.833 . S
N12 C4 1.360 . S
N12 Tb11 2.660 . S
N12 C13 1.305 . S
C13 N12 1.305 . S
C13 C15 1.407 1_545 S
C13 H20 0.930 . S
C14 C2 1.410 1_565 S
C14 C15 1.345 . S
C14 H22 0.930 . S
C15 C13 1.407 1_565 S
C15 C14 1.345 . S
C15 H17 0.930 . S
H16 C9 0.930 . S
H17 C15 0.930 . S
H18 C6 0.930 . S
H19 C7 0.931 . S
H20 C13 0.930 . S
H21 C35 0.930 . S
H22 C14 0.930 . S
H23 C41 0.930 . S
H24 C32 0.930 . S
H25 C39 0.931 . S
H26 C3 0.929 . S
H27 C33 0.930 . S
H28 C66 0.930 . S
H29 C10 0.930 . S
H30 C65 0.929 . S
N31 Tb0 2.660 . S
N31 C32 1.305 . S
N31 C36 1.360 . S
C32 H24 0.930 . S
C32 N31 1.305 . S
C32 C35 1.407 . S
C33 H27 0.930 . S
C33 C34 1.410 . S
C33 C35 1.345 . S
C34 C33 1.410 . S
C34 C36 1.417 . S
C34 C66 1.432 . S
C35 H21 0.930 . S
C35 C32 1.407 . S
C35 C33 1.345 . S
C36 N31 1.360 . S
C36 C34 1.417 . S
C36 C40 1.432 . S
H37 C42 0.930 . S
N38 Tb0 2.600 . S
N38 C40 1.359 . S
N38 C41 1.327 . S
C39 H25 0.931 . S
C39 C41 1.392 . S
C39 C42 1.370 . S
C40 C36 1.432 . S
C40 N38 1.359 . S
C40 C43 1.414 . S
C41 H23 0.930 . S
C41 N38 1.327 . S
C41 C39 1.392 . S
C42 H37 0.930 . S
C42 C39 1.370 . S
C42 C43 1.385 . S
C43 C40 1.414 . S
C43 C42 1.385 . S
C43 C65 1.444 . S
O44 Tb0 2.546 . S
O44 C64 1.251 . S
O45 Tb0 2.610 1_655 S
O45 Tb11 2.362 . S
O45 C56 1.283 . S
O46 Tb11 2.421 . S
O46 C63 1.262 1_655 S
O47 Tb0 2.320 . S
O47 C63 1.260 . S
O48 Tb0 2.552 . S
O48 C56 1.243 1_455 S
O49 Tb0 2.413 . S
O49 C64 1.256 . S
O50 Tb11 2.546 . S
O50 C75 1.251 . S
O51 Tb0 2.362 . S
O51 Tb11 2.610 1_455 S
O51 C67 1.283 . S
O52 Tb0 2.421 . S
O52 C74 1.262 1_455 S
O53 Tb11 2.320 . S
O53 C74 1.260 . S
O54 Tb11 2.552 . S
O54 C67 1.243 1_655 S
O55 Tb11 2.413 . S
O55 C75 1.256 . S
C56 O45 1.283 . S
C56 O48 1.243 1_655 S
C57 C59 1.382 . S
C57 C61 1.393 . S
C57 C64 1.500 . S
C58 C59 1.400 . S
C58 C60 1.384 . S
C59 C57 1.382 . S
C59 C58 1.400 . S
C59 H76 0.930 . S
C60 C58 1.384 . S
C60 C62 1.392 . S
C60 H77 0.931 . S
C61 C57 1.393 . S
C61 C62 1.401 . S
C61 H78 0.930 . S
C62 C60 1.392 . S
C62 C61 1.401 . S
C62 H79 0.930 . S
C63 O46 1.262 1_455 S
C63 O47 1.260 . S
C64 Tb0 2.833 . S
C64 O44 1.251 . S
C64 O49 1.256 . S
C64 C57 1.500 . S
C65 H30 0.929 . S
C65 C43 1.444 . S
C65 C66 1.317 . S
C66 H28 0.930 . S
C66 C34 1.432 . S
C66 C65 1.317 . S
C67 O51 1.283 . S
C67 O54 1.243 1_455 S
C68 C69 1.382 . S
C68 C72 1.393 . S
C68 C75 1.500 . S
C69 C68 1.382 . S
C69 C70 1.400 . S
C69 H80 0.930 . S
C70 C69 1.400 . S
C70 C71 1.384 1_554 S
C71 C70 1.384 1_556 S
C71 C73 1.392 1_556 S
C71 H81 0.931 . S
C72 C68 1.393 . S
C72 C73 1.401 . S
C72 H82 0.930 . S
C73 C71 1.392 1_554 S
C73 C72 1.401 . S
C73 H83 0.937 . S
C74 O52 1.262 1_655 S
C74 O53 1.260 . S
C75 Tb11 2.833 . S
C75 O50 1.251 . S
C75 O55 1.256 . S
C75 C68 1.500 . S
H76 C59 0.930 . S
H77 C60 0.931 . S
H78 C61 0.930 . S
H79 C62 0.930 . S
H80 C69 0.930 . S
H81 C71 0.931 . S
H82 C72 0.930 . S
H83 C73 0.937 . S
Tb84 N115 2.660 1_545 S
Tb84 N122 2.600 1_545 S
Tb84 O128 2.546 1_545 S
Tb84 O129 2.610 . S
Tb84 O131 2.320 . S
Tb84 O132 2.552 . S
Tb84 O133 2.413 1_545 S
Tb84 O135 2.362 . S
Tb84 O136 2.421 . S
Tb84 C148 2.833 1_545 S
C85 C88 1.432 . S
C85 C89 1.414 . S
C85 N92 1.359 . S
C86 C88 1.417 . S
C86 C90 1.432 . S
C86 C98 1.410 1_455 S
C87 C89 1.444 . S
C87 C90 1.317 . S
C87 H110 0.929 . S
C88 C85 1.432 . S
C88 C86 1.417 . S
C88 N96 1.360 1_455 S
C89 C85 1.414 . S
C89 C87 1.444 . S
C89 C94 1.385 . S
C90 C86 1.432 . S
C90 C87 1.317 . S
C90 H102 0.930 . S
C91 C93 1.392 . S
C91 C94 1.370 . S
C91 H103 0.931 . S
N92 C85 1.359 . S
N92 C93 1.327 . S
N92 Tb95 2.600 1_455 S
C93 C91 1.392 . S
C93 N92 1.327 . S
C93 H100 0.930 . S
C94 C89 1.385 . S
C94 C91 1.370 . S
C94 H113 0.930 . S
Tb95 N92 2.600 1_655 S
Tb95 N96 2.660 . S
Tb95 O129 2.362 . S
Tb95 O130 2.421 1_655 S
Tb95 O134 2.546 1_655 S
Tb95 O135 2.610 . S
Tb95 O137 2.320 . S
Tb95 O138 2.552 . S
Tb95 O139 2.413 . S
Tb95 C159 2.833 . S
N96 C88 1.360 1_655 S
N96 Tb95 2.660 . S
N96 C97 1.305 . S
C97 N96 1.305 . S
C97 C99 1.407 . S
C97 H104 0.930 . S
C98 C86 1.410 1_655 S
C98 C99 1.345 . S
C98 H106 0.930 . S
C99 C97 1.407 . S
C99 C98 1.345 . S
C99 H101 0.930 . S
H100 C93 0.930 . S
H101 C99 0.930 . S
H102 C90 0.930 . S
H103 C91 0.931 . S
H104 C97 0.930 . S
H105 C119 0.930 . S
H106 C98 0.930 . S
H107 C125 0.930 . S
H108 C116 0.930 . S
H109 C123 0.931 . S
H110 C87 0.929 . S
H111 C117 0.930 . S
H112 C150 0.930 . S
H113 C94 0.930 . S
H114 C149 0.929 . S
N115 Tb84 2.660 1_565 S
N115 C116 1.305 . S
N115 C120 1.360 . S
C116 H108 0.930 . S
C116 N115 1.305 . S
C116 C119 1.407 . S
C117 H111 0.930 . S
C117 C118 1.410 . S
C117 C119 1.345 . S
C118 C117 1.410 . S
C118 C120 1.417 . S
C118 C150 1.432 . S
C119 H105 0.930 . S
C119 C116 1.407 . S
C119 C117 1.345 . S
C120 N115 1.360 . S
C120 C118 1.417 . S
C120 C124 1.432 . S
H121 C126 0.930 . S
N122 Tb84 2.600 1_565 S
N122 C124 1.359 . S
N122 C125 1.327 . S
C123 H109 0.931 . S
C123 C125 1.392 . S
C123 C126 1.370 . S
C124 C120 1.432 . S
C124 N122 1.359 . S
C124 C127 1.414 . S
C125 H107 0.930 . S
C125 N122 1.327 . S
C125 C123 1.392 . S
C126 H121 0.930 . S
C126 C123 1.370 . S
C126 C127 1.385 . S
C127 C124 1.414 . S
C127 C126 1.385 . S
C127 C149 1.444 . S
O128 Tb84 2.546 1_565 S
O128 C148 1.251 . S
O129 Tb84 2.610 . S
O129 Tb95 2.362 . S
O129 C140 1.283 . S
O130 Tb95 2.421 1_455 S
O130 C147 1.262 . S
O131 Tb84 2.320 . S
O131 C147 1.260 1_655 S
O132 Tb84 2.552 . S
O132 C140 1.243 . S
O133 Tb84 2.413 1_565 S
O133 C148 1.256 . S
O134 Tb95 2.546 1_455 S
O134 C159 1.251 1_455 S
O135 Tb84 2.362 . S
O135 Tb95 2.610 . S
O135 C151 1.283 . S
O136 Tb84 2.421 . S
O136 C158 1.262 . S
O137 Tb95 2.320 . S
O137 C158 1.260 . S
O138 Tb95 2.552 . S
O138 C151 1.243 . S
O139 Tb95 2.413 . S
O139 C159 1.256 . S
C140 O129 1.283 . S
C140 O132 1.243 . S
C141 C143 1.382 . S
C141 C145 1.393 . S
C141 C148 1.500 . S
C142 C143 1.400 . S
C142 C144 1.384 . S
C143 C141 1.382 . S
C143 C142 1.400 . S
C143 H160 0.930 . S
C144 C142 1.384 . S
C144 C146 1.392 . S
C144 H161 0.931 . S
C145 C141 1.393 . S
C145 C146 1.401 . S
C145 H162 0.930 . S
C146 C144 1.392 . S
C146 C145 1.401 . S
C146 H163 0.930 . S
C147 O130 1.262 . S
C147 O131 1.260 1_455 S
C148 Tb84 2.833 1_565 S
C148 O128 1.251 . S
C148 O133 1.256 . S
C148 C141 1.500 . S
C149 H114 0.929 . S
C149 C127 1.444 . S
C149 C150 1.317 . S
C150 H112 0.930 . S
C150 C118 1.432 . S
C150 C149 1.317 . S
C151 O135 1.283 . S
C151 O138 1.243 . S
C152 C153 1.382 . S
C152 C156 1.393 1_655 S
C152 C159 1.500 . S
C153 C152 1.382 . S
C153 C154 1.400 . S
C153 H164 0.930 . S
C154 C153 1.400 . S
C154 C155 1.384 1_655 S
C155 C154 1.384 1_455 S
C155 C157 1.392 . S
C155 H165 0.931 . S
C156 C152 1.393 1_455 S
C156 C157 1.401 . S
C156 H166 0.930 . S
C157 C155 1.392 . S
C157 C156 1.401 . S
C157 H167 0.930 . S
C158 O136 1.262 . S
C158 O137 1.260 . S
C159 Tb95 2.833 . S
C159 O134 1.251 1_655 S
C159 O139 1.256 . S
C159 C152 1.500 . S
H160 C143 0.930 . S
H161 C144 0.931 . S
H162 C145 0.930 . S
H163 C146 0.930 . S
H164 C153 0.930 . S
H165 C155 0.931 . S
H166 C156 0.930 . S
H167 C157 0.930 . S
Tb168 N199 2.660 . S
Tb168 N206 2.600 . S
Tb168 O212 2.546 . S
Tb168 O213 2.610 . S
Tb168 O215 2.320 . S
Tb168 O216 2.552 . S
Tb168 O217 2.413 . S
Tb168 O219 2.362 . S
Tb168 O220 2.421 . S
Tb168 C232 2.833 . S
C169 C172 1.432 1_655 S
C169 C173 1.414 1_545 S
C169 N176 1.359 . S
C170 C172 1.417 . S
C170 C174 1.432 1_545 S
C170 C182 1.410 . S
C171 C173 1.444 . S
C171 C174 1.317 1_655 S
C171 H194 0.929 . S
C172 C169 1.432 1_455 S
C172 C170 1.417 . S
C172 N180 1.360 . S
C173 C169 1.414 1_565 S
C173 C171 1.444 . S
C173 C178 1.385 . S
C174 C170 1.432 1_565 S
C174 C171 1.317 1_455 S
C174 H186 0.930 . S
C175 C177 1.392 . S
C175 C178 1.370 . S
C175 H187 0.931 . S
N176 C169 1.359 . S
N176 C177 1.327 1_545 S
N176 Tb179 2.600 . S
C177 C175 1.392 . S
C177 N176 1.327 1_565 S
C177 H184 0.930 . S
C178 C173 1.385 . S
C178 C175 1.370 . S
C178 H197 0.930 . S
Tb179 N176 2.600 . S
Tb179 N180 2.660 1_655 S
Tb179 O213 2.362 . S
Tb179 O214 2.421 . S
Tb179 O218 2.546 . S
Tb179 O219 2.610 . S
Tb179 O221 2.320 1_655 S
Tb179 O222 2.552 . S
Tb179 O223 2.413 1_655 S
Tb179 C243 2.833 . S
N180 C172 1.360 . S
N180 Tb179 2.660 1_455 S
N180 C181 1.305 . S
C181 N180 1.305 . S
C181 C183 1.407 . S
C181 H188 0.930 . S
C182 C170 1.410 . S
C182 C183 1.345 . S
C182 H190 0.930 . S
C183 C181 1.407 . S
C183 C182 1.345 . S
C183 H185 0.930 . S
H184 C177 0.930 . S
H185 C183 0.930 . S
H186 C174 0.930 . S
H187 C175 0.931 . S
H188 C181 0.930 . S
H189 C203 0.930 . S
H190 C182 0.930 . S
H191 C209 0.930 . S
H192 C200 0.930 . S
H193 C207 0.931 1_545 S
H194 C171 0.929 . S
H195 C201 0.930 . S
H196 C234 0.930 . S
H197 C178 0.930 . S
H198 C233 0.929 1_545 S
N199 Tb168 2.660 . S
N199 C200 1.305 . S
N199 C204 1.360 . S
C200 H192 0.930 . S
C200 N199 1.305 . S
C200 C203 1.407 . S
C201 H195 0.930 . S
C201 C202 1.410 . S
C201 C203 1.345 . S
C202 C201 1.410 . S
C202 C204 1.417 . S
C202 C234 1.432 . S
C203 H189 0.930 . S
C203 C200 1.407 . S
C203 C201 1.345 . S
C204 N199 1.360 . S
C204 C202 1.417 . S
C204 C208 1.432 . S
H205 C210 0.930 . S
N206 Tb168 2.600 . S
N206 C208 1.359 . S
N206 C209 1.327 . S
C207 H193 0.931 1_565 S
C207 C209 1.392 . S
C207 C210 1.370 1_565 S
C208 C204 1.432 . S
C208 N206 1.359 . S
C208 C211 1.414 . S
C209 H191 0.930 . S
C209 N206 1.327 . S
C209 C207 1.392 . S
C210 H205 0.930 . S
C210 C207 1.370 1_545 S
C210 C211 1.385 1_545 S
C211 C208 1.414 . S
C211 C210 1.385 1_565 S
C211 C233 1.444 . S
O212 Tb168 2.546 . S
O212 C232 1.251 . S
O213 Tb168 2.610 . S
O213 Tb179 2.362 . S
O213 C224 1.283 . S
O214 Tb179 2.421 . S
O214 C231 1.262 . S
O215 Tb168 2.320 . S
O215 C231 1.260 . S
O216 Tb168 2.552 . S
O216 C224 1.243 . S
O217 Tb168 2.413 . S
O217 C232 1.256 . S
O218 Tb179 2.546 . S
O218 C243 1.251 . S
O219 Tb168 2.362 . S
O219 Tb179 2.610 . S
O219 C235 1.283 . S
O220 Tb168 2.421 . S
O220 C242 1.262 1_655 S
O221 Tb179 2.320 1_455 S
O221 C242 1.260 . S
O222 Tb179 2.552 . S
O222 C235 1.243 . S
O223 Tb179 2.413 1_455 S
O223 C243 1.256 1_455 S
C224 O213 1.283 . S
C224 O216 1.243 . S
C225 C227 1.382 . S
C225 C229 1.393 . S
C225 C232 1.500 . S
C226 C227 1.400 . S
C226 C228 1.384 1_556 S
C227 C225 1.382 . S
C227 C226 1.400 . S
C227 H244 0.930 . S
C228 C226 1.384 1_554 S
C228 C230 1.392 1_554 S
C228 H245 0.931 . S
C229 C225 1.393 . S
C229 C230 1.401 . S
C229 H246 0.930 . S
C230 C228 1.392 1_556 S
C230 C229 1.401 . S
C230 H247 0.937 . S
C231 O214 1.262 . S
C231 O215 1.260 . S
C232 Tb168 2.833 . S
C232 O212 1.251 . S
C232 O217 1.256 . S
C232 C225 1.500 . S
C233 H198 0.929 1_565 S
C233 C211 1.444 . S
C233 C234 1.317 . S
C234 H196 0.930 . S
C234 C202 1.432 . S
C234 C233 1.317 . S
C235 O219 1.283 . S
C235 O222 1.243 . S
C236 C237 1.382 . S
C236 C240 1.393 1_455 S
C236 C243 1.500 1_455 S
C237 C236 1.382 . S
C237 C238 1.400 . S
C237 H248 0.930 . S
C238 C237 1.400 . S
C238 C239 1.384 . S
C239 C238 1.384 . S
C239 C241 1.392 . S
C239 H249 0.931 . S
C240 C236 1.393 1_655 S
C240 C241 1.401 1_655 S
C240 H250 0.930 . S
C241 C239 1.392 . S
C241 C240 1.401 1_455 S
C241 H251 0.930 1_445 S
C242 O220 1.262 1_455 S
C242 O221 1.260 . S
C243 Tb179 2.833 . S
C243 O218 1.251 . S
C243 O223 1.256 1_655 S
C243 C236 1.500 1_655 S
H244 C227 0.930 . S
H245 C228 0.931 . S
H246 C229 0.930 . S
H247 C230 0.937 . S
H248 C237 0.930 . S
H249 C239 0.931 . S
H250 C240 0.930 . S
H251 C241 0.930 1_665 S
C252 C253 1.369 1_655 S
C252 C254 1.419 . S
C252 H256 0.930 . S
C253 C252 1.369 1_455 S
C253 C262 1.429 . S
C254 C252 1.419 . S
C254 C255 1.363 1_565 S
C254 H257 0.929 . S
C255 C254 1.363 1_545 S
C255 C261 1.428 1_655 S
H256 C252 0.930 . S
H257 C254 0.929 . S
S258 N259 1.613 1_545 S
S258 N260 1.610 . S
N259 S258 1.613 1_565 S
N259 C262 1.350 . S
N260 S258 1.610 . S
N260 C261 1.351 . S
C261 C255 1.428 1_455 S
C261 N260 1.351 . S
C261 C262 1.434 1_545 S
C262 C253 1.429 . S
C262 N259 1.350 . S
C262 C261 1.434 1_565 S
C263 C264 1.369 . S
C263 C265 1.419 . S
C263 H267 0.930 . S
C264 C263 1.369 . S
C264 C273 1.429 . S
C265 C263 1.419 . S
C265 C266 1.363 . S
C265 H268 0.929 . S
C266 C265 1.363 . S
C266 C272 1.428 . S
H267 C263 0.930 . S
H268 C265 0.929 . S
S269 N270 1.613 . S
S269 N271 1.610 . S
N270 S269 1.613 . S
N270 C273 1.350 . S
N271 S269 1.610 . S
N271 C272 1.351 . S
C272 C266 1.428 . S
C272 N271 1.351 . S
C272 C273 1.434 . S
C273 C264 1.429 . S
C273 N270 1.350 . S
C273 C272 1.434 . S
C274 C275 1.369 . S
C274 C276 1.419 . S
C274 H278 0.930 . S
C275 C274 1.369 . S
C275 C284 1.429 . S
C276 C274 1.419 . S
C276 C277 1.363 1_565 S
C276 H279 0.929 1_565 S
C277 C276 1.363 1_545 S
C277 C283 1.428 1_545 S
H278 C274 0.930 . S
H279 C276 0.929 1_545 S
S280 N281 1.613 . S
S280 N282 1.610 . S
N281 S280 1.613 . S
N281 C284 1.350 . S
N282 S280 1.610 . S
N282 C283 1.351 . S
C283 C277 1.428 1_565 S
C283 N282 1.351 . S
C283 C284 1.434 . S
C284 C275 1.429 . S
C284 N281 1.350 . S
C284 C283 1.434 . S
C285 C286 1.369 . S
C285 C287 1.419 . S
C285 H289 0.930 . S
C286 C285 1.369 . S
C286 C295 1.429 . S
C287 C285 1.419 . S
C287 C288 1.363 . S
C287 H290 0.929 . S
C288 C287 1.363 . S
C288 C294 1.428 . S
H289 C285 0.930 . S
H290 C287 0.929 . S
S291 N292 1.613 . S
S291 N293 1.610 . S
N292 S291 1.613 . S
N292 C295 1.350 . S
N293 S291 1.610 . S
N293 C294 1.351 . S
C294 C288 1.428 . S
C294 N293 1.351 . S
C294 C295 1.434 . S
C295 C286 1.429 . S
C295 N292 1.350 . S
C295 C294 1.434 . S
C296 C297 1.369 . S
C296 C298 1.419 . S
C296 H300 0.930 . S
C297 C296 1.369 . S
C297 C306 1.429 . S
C298 C296 1.419 . S
C298 C299 1.363 . S
C298 H301 0.929 . S
C299 C298 1.363 . S
C299 C305 1.428 . S
H300 C296 0.930 . S
H301 C298 0.929 . S
S302 N303 1.613 . S
S302 N304 1.610 . S
N303 S302 1.613 . S
N303 C306 1.350 . S
N304 S302 1.610 . S
N304 C305 1.351 . S
C305 C299 1.428 . S
C305 N304 1.351 . S
C305 C306 1.434 . S
C306 C297 1.429 . S
C306 N303 1.350 . S
C306 C305 1.434 . S
C307 C308 1.369 . S
C307 C309 1.419 . S
C307 H311 0.930 . S
C308 C307 1.369 . S
C308 C317 1.429 . S
C309 C307 1.419 . S
C309 C310 1.363 . S
C309 H312 0.929 . S
C310 C309 1.363 . S
C310 C316 1.428 . S
H311 C307 0.930 . S
H312 C309 0.929 . S
S313 N314 1.613 . S
S313 N315 1.610 . S
N314 S313 1.613 . S
N314 C317 1.350 . S
N315 S313 1.610 . S
N315 C316 1.351 . S
C316 C310 1.428 . S
C316 N315 1.351 . S
C316 C317 1.434 . S
C317 C308 1.429 . S
C317 N314 1.350 . S
C317 C316 1.434 . S
C318 C319 1.369 . S
C318 C320 1.419 1_545 S
C318 H322 0.930 . S
C319 C318 1.369 . S
C319 C328 1.429 . S
C320 C318 1.419 1_565 S
C320 C321 1.363 1_565 S
C320 H323 0.929 . S
C321 C320 1.363 1_545 S
C321 C327 1.428 . S
H322 C318 0.930 . S
H323 C320 0.929 . S
S324 N325 1.613 . S
S324 N326 1.615 . S
N325 S324 1.613 . S
N325 C328 1.350 . S
N326 S324 1.615 . S
N326 C327 1.361 . S
C327 C321 1.428 . S
C327 N326 1.361 . S
C327 C328 1.434 . S
C328 C319 1.429 . S
C328 N325 1.350 . S
C328 C327 1.434 . S
C329 C330 1.369 . S
C329 C331 1.419 . S
C329 H333 0.930 . S
C330 C329 1.369 . S
C330 C339 1.429 . S
C331 C329 1.419 . S
C331 C332 1.363 . S
C331 H334 0.929 . S
C332 C331 1.363 . S
C332 C338 1.428 1_565 S
H333 C329 0.930 . S
H334 C331 0.929 . S
S335 N336 1.613 . S
S335 N337 1.610 . S
N336 S335 1.613 . S
N336 C339 1.350 1_545 S
N337 S335 1.610 . S
N337 C338 1.351 . S
C338 C332 1.428 1_545 S
C338 N337 1.351 . S
C338 C339 1.434 1_545 S
C339 C330 1.429 . S
C339 N336 1.350 1_565 S
C339 C338 1.434 1_565 S
C340 C341 1.369 . S
C340 C342 1.419 . S
C340 H344 0.930 . S
C341 C340 1.369 . S
C341 C350 1.429 . S
C342 C340 1.419 . S
C342 C343 1.363 1_455 S
C342 H345 0.929 . S
C343 C342 1.363 1_655 S
C343 C349 1.428 . S
H344 C340 0.930 . S
H345 C342 0.929 . S
S346 N347 1.613 1_655 S
S346 N348 1.610 . S
N347 S346 1.613 1_455 S
N347 C350 1.350 . S
N348 S346 1.610 . S
N348 C349 1.351 . S
C349 C343 1.428 . S
C349 N348 1.351 . S
C349 C350 1.434 1_655 S
C350 C341 1.429 . S
C350 N347 1.350 . S
C350 C349 1.434 1_455 S
C253 C63 1.569 . S
C255 C74 1.568 . S
C264 C158 1.573 . S
C266 C147 1.564 . S
C275 C242 1.571 . S
C277 C231 1.566 . S
C286 C226 1.587 1_554 S
C288 C67 1.718 . S
C297 C154 1.522 . S
C299 C56 1.705 . S
C308 C235 1.719 . S
C310 C142 1.578 . S
C319 C224 1.702 . S
C321 C70 1.520 1_556 S
C330 C58 1.586 . S
C332 C151 1.713 1_565 S
C341 C238 1.521 . S
C343 C140 1.704 . S
