# Generated by pormake.
# Topology wkf, (6)-cn, num edge types: 1
# Building blocks:
#     Node 0, Type 0, BuildingBlock: IZENUY_clean_sbu_0, # of connection points: 6
#     Node 1, Type 0, BuildingBlock: IZENUY_clean_sbu_0, # of connection points: 6
#     Node 2, Type 0, BuildingBlock: IZENUY_clean_sbu_0, # of connection points: 6
#     Node 3, Type 0, BuildingBlock: IZENUY_clean_sbu_0, # of connection points: 6
#     Node 4, Type 0, BuildingBlock: IZENUY_clean_sbu_0, # of connection points: 6
#     Node 5, Type 0, BuildingBlock: IZENUY_clean_sbu_0, # of connection points: 6
#     Node 6, Type 0, BuildingBlock: IZENUY_clean_sbu_0, # of connection points: 6
#     Node 7, Type 0, BuildingBlock: IZENUY_clean_sbu_0, # of connection points: 6
#     Node 8, Type 0, BuildingBlock: IZENUY_clean_sbu_0, # of connection points: 6
#     Node 9, Type 0, BuildingBlock: IZENUY_clean_sbu_0, # of connection points: 6
#     Node 10, Type 0, BuildingBlock: IZENUY_clean_sbu_0, # of connection points: 6
#     Node 11, Type 0, BuildingBlock: IZENUY_clean_sbu_0, # of connection points: 6
#     Edge 12, Type (0, 0), BuildingBlock: EYOCIG_clean_linker_4, # of connection points: 2
#     Edge 13, Type (0, 0), BuildingBlock: EYOCIG_clean_linker_4, # of connection points: 2
#     Edge 14, Type (0, 0), BuildingBlock: EYOCIG_clean_linker_4, # of connection points: 2
#     Edge 15, Type (0, 0), BuildingBlock: EYOCIG_clean_linker_4, # of connection points: 2
#     Edge 16, Type (0, 0), BuildingBlock: EYOCIG_clean_linker_4, # of connection points: 2
#     Edge 17, Type (0, 0), BuildingBlock: EYOCIG_clean_linker_4, # of connection points: 2
#     Edge 18, Type (0, 0), BuildingBlock: EYOCIG_clean_linker_4, # of connection points: 2
#     Edge 19, Type (0, 0), BuildingBlock: EYOCIG_clean_linker_4, # of connection points: 2
#     Edge 20, Type (0, 0), BuildingBlock: EYOCIG_clean_linker_4, # of connection points: 2
#     Edge 21, Type (0, 0), BuildingBlock: EYOCIG_clean_linker_4, # of connection points: 2
#     Edge 22, Type (0, 0), BuildingBlock: EYOCIG_clean_linker_4, # of connection points: 2
#     Edge 23, Type (0, 0), BuildingBlock: EYOCIG_clean_linker_4, # of connection points: 2
#     Edge 24, Type (0, 0), BuildingBlock: EYOCIG_clean_linker_4, # of connection points: 2
#     Edge 25, Type (0, 0), BuildingBlock: EYOCIG_clean_linker_4, # of connection points: 2
#     Edge 26, Type (0, 0), BuildingBlock: EYOCIG_clean_linker_4, # of connection points: 2
#     Edge 27, Type (0, 0), BuildingBlock: EYOCIG_clean_linker_4, # of connection points: 2
#     Edge 28, Type (0, 0), BuildingBlock: EYOCIG_clean_linker_4, # of connection points: 2
#     Edge 29, Type (0, 0), BuildingBlock: EYOCIG_clean_linker_4, # of connection points: 2
#     Edge 30, Type (0, 0), BuildingBlock: EYOCIG_clean_linker_4, # of connection points: 2
#     Edge 31, Type (0, 0), BuildingBlock: EYOCIG_clean_linker_4, # of connection points: 2
#     Edge 32, Type (0, 0), BuildingBlock: EYOCIG_clean_linker_4, # of connection points: 2
#     Edge 33, Type (0, 0), BuildingBlock: EYOCIG_clean_linker_4, # of connection points: 2
#     Edge 34, Type (0, 0), BuildingBlock: EYOCIG_clean_linker_4, # of connection points: 2
#     Edge 35, Type (0, 0), BuildingBlock: EYOCIG_clean_linker_4, # of connection points: 2
#     Edge 36, Type (0, 0), BuildingBlock: EYOCIG_clean_linker_4, # of connection points: 2
#     Edge 37, Type (0, 0), BuildingBlock: EYOCIG_clean_linker_4, # of connection points: 2
#     Edge 38, Type (0, 0), BuildingBlock: EYOCIG_clean_linker_4, # of connection points: 2
#     Edge 39, Type (0, 0), BuildingBlock: EYOCIG_clean_linker_4, # of connection points: 2
#     Edge 40, Type (0, 0), BuildingBlock: EYOCIG_clean_linker_4, # of connection points: 2
#     Edge 41, Type (0, 0), BuildingBlock: EYOCIG_clean_linker_4, # of connection points: 2
#     Edge 42, Type (0, 0), BuildingBlock: EYOCIG_clean_linker_4, # of connection points: 2
#     Edge 43, Type (0, 0), BuildingBlock: EYOCIG_clean_linker_4, # of connection points: 2
#     Edge 44, Type (0, 0), BuildingBlock: EYOCIG_clean_linker_4, # of connection points: 2
#     Edge 45, Type (0, 0), BuildingBlock: EYOCIG_clean_linker_4, # of connection points: 2
#     Edge 46, Type (0, 0), BuildingBlock: EYOCIG_clean_linker_4, # of connection points: 2
#     Edge 47, Type (0, 0), BuildingBlock: EYOCIG_clean_linker_4, # of connection points: 2
# Relax obj value: 0.283
# Max RMSD: 0.255
# Mean RMSD: 0.255
data_MOF--net-wkf--node1-IZENUY_clean_sbu_0--edge1-EYOCIG_clean_linker_4
_symmetry_space_group_name_H-M    P1
_symmetry_Int_Tables_number       1
_symmetry_cell_setting            triclinic
loop_
_symmetry_equiv_pos_as_xyz
'x, y, z'
_cell_length_a     21.644491
_cell_length_b     21.644731
_cell_length_c     60.488503
_cell_angle_alpha  90.017037
_cell_angle_beta   90.008871
_cell_angle_gamma 119.98277
loop_
_atom_site_label
_atom_site_type_symbol
_atom_site_fract_x
_atom_site_fract_y
_atom_site_fract_z
_atom_type_partial_charge
Fe0 Fe 0.44106 0.17478 0.34235 0.0
Fe1 Fe 0.29289 0.14412 0.35852 0.0
O2 O 0.37344 0.14222 0.36307 0.0
Fe3 Fe 0.38524 0.10787 0.38852 0.0
O4 O 0.46387 0.1905 0.39494 0.0
O5 O 0.51528 0.2161 0.362 0.0
O6 O 0.44621 0.26051 0.34102 0.0
C7 C 0.39571 0.27142 0.33708 0.0
C8 C 0.45394 0.06227 0.3575 0.0
O9 O 0.33176 0.22324 0.34022 0.0
C10 C 0.24475 0.01498 0.383 0.0
O11 O 0.37701 0.13797 0.31943 0.0
O12 O 0.27041 0.08432 0.33529 0.0
O13 O 0.43871 0.07072 0.37702 0.0
O14 O 0.44466 0.0933 0.34142 0.0
C15 C 0.31946 0.18785 0.40119 0.0
O16 O 0.23659 0.06551 0.37594 0.0
O17 O 0.30594 0.02181 0.38412 0.0
C18 C 0.311 0.09226 0.31927 0.0
O19 O 0.31135 0.20362 0.38175 0.0
O20 O 0.33577 0.14025 0.40505 0.0
C21 C 0.51659 0.22615 0.38261 0.0
Fe22 Fe 0.27511 0.38572 0.55514 0.0
Fe23 Fe 0.26301 0.44116 0.5091 0.0
O24 O 0.22879 0.37347 0.52973 0.0
Fe25 Fe 0.14705 0.29238 0.52518 0.0
O26 O 0.10551 0.3104 0.54833 0.0
O27 O 0.19331 0.33484 0.57162 0.0
O28 O 0.2692 0.46317 0.56171 0.0
C29 C 0.28552 0.51586 0.54947 0.0
C30 C 0.22985 0.24593 0.54949 0.0
O31 O 0.29528 0.51519 0.52887 0.0
C32 C 0.21686 0.31137 0.48598 0.0
O33 O 0.36565 0.44071 0.54368 0.0
O34 O 0.34855 0.44563 0.50807 0.0
O35 O 0.17054 0.2369 0.54267 0.0
O36 O 0.28361 0.30753 0.5505 0.0
C37 C 0.12086 0.39423 0.50376 0.0
O38 O 0.23612 0.37716 0.48615 0.0
O39 O 0.185 0.27059 0.50203 0.0
C40 C 0.3892 0.4557 0.52413 0.0
O41 O 0.18181 0.44523 0.5079 0.0
O42 O 0.10606 0.33048 0.5068 0.0
C43 C 0.12938 0.31851 0.56776 0.0
Fe44 Fe 0.88869 0.27662 0.72185 0.0
Fe45 Fe 0.8211 0.26547 0.67557 0.0
O46 O 0.85392 0.23023 0.6963 0.0
Fe47 Fe 0.85186 0.14739 0.69182 0.0
O48 O 0.79379 0.10686 0.71532 0.0
O49 O 0.85667 0.19512 0.73847 0.0
O50 O 0.80619 0.27289 0.7283 0.0
C51 C 0.76833 0.28707 0.71595 0.0
C52 C 0.98192 0.22925 0.71596 0.0
O53 O 0.7771 0.29496 0.69527 0.0
C54 C 0.90336 0.21741 0.65236 0.0
O55 O 0.92618 0.36739 0.71059 0.0
O56 O 0.90115 0.35189 0.67515 0.0
O57 O 0.93165 0.17063 0.70876 0.0
O58 O 0.97466 0.28329 0.71747 0.0
C59 C 0.72458 0.12241 0.67005 0.0
O60 O 0.86047 0.24119 0.65275 0.0
O61 O 0.90988 0.18319 0.66819 0.0
C62 C 0.93315 0.39168 0.69123 0.0
O63 O 0.73618 0.18438 0.67326 0.0
O64 O 0.77165 0.10579 0.67408 0.0
C65 C 0.80977 0.13101 0.73469 0.0
Fe66 Fe 0.5532 0.82077 0.84187 0.0
Fe67 Fe 0.70191 0.85141 0.85837 0.0
O68 O 0.62094 0.85346 0.86279 0.0
Fe69 Fe 0.60892 0.88805 0.88835 0.0
O70 O 0.5287 0.80641 0.89448 0.0
O71 O 0.47919 0.77616 0.86127 0.0
O72 O 0.54986 0.73609 0.83948 0.0
C73 C 0.6004 0.72474 0.83633 0.0
C74 C 0.53973 0.93367 0.85751 0.0
O75 O 0.66388 0.7718 0.84046 0.0
C76 C 0.75036 0.98032 0.88309 0.0
O77 O 0.6173 0.86084 0.81923 0.0
O78 O 0.72444 0.90996 0.83485 0.0
O79 O 0.55793 0.92766 0.87685 0.0
O80 O 0.54602 0.90037 0.84152 0.0
C81 C 0.67434 0.80753 0.90115 0.0
O82 O 0.75848 0.9304 0.87552 0.0
O83 O 0.68931 0.97355 0.88456 0.0
C84 C 0.68395 0.90369 0.81896 0.0
O85 O 0.68406 0.79287 0.88176 0.0
O86 O 0.65626 0.85377 0.90505 0.0
C87 C 0.47708 0.76858 0.88199 0.0
Fe88 Fe 0.72866 0.55337 0.00931 0.0
Fe89 Fe 0.84614 0.70217 0.02481 0.0
O90 O 0.76444 0.62155 0.02982 0.0
Fe91 Fe 0.71953 0.60995 0.05545 0.0
O92 O 0.72485 0.53194 0.06178 0.0
O93 O 0.69506 0.47951 0.02908 0.0
O94 O 0.80912 0.54786 0.00811 0.0
C95 C 0.87016 0.59843 0.00373 0.0
C96 C 0.60418 0.5415 0.02473 0.0
O97 O 0.88552 0.66253 0.00641 0.0
C98 C 0.76548 0.75003 0.04967 0.0
O99 O 0.75622 0.61637 0.98614 0.0
O100 O 0.80709 0.7232 0.00173 0.0
O101 O 0.62842 0.55569 0.04424 0.0
O102 O 0.6441 0.55109 0.00849 0.0
C103 C 0.86607 0.6773 0.06743 0.0
O104 O 0.82403 0.75866 0.04227 0.0
O105 O 0.71167 0.68861 0.05116 0.0
C106 C 0.77524 0.68199 0.98576 0.0
O107 O 0.88901 0.68526 0.04787 0.0
O108 O 0.80216 0.66038 0.07161 0.0
C109 C 0.70583 0.47864 0.04956 0.0
Fe110 Fe 0.14284 0.84784 0.19179 0.0
Fe111 Fe 0.10652 0.71904 0.22185 0.0
O112 O 0.14108 0.76534 0.19638 0.0
Fe113 Fe 0.17401 0.73039 0.17565 0.0
O114 O 0.25949 0.81122 0.17421 0.0
O115 O 0.22224 0.88845 0.17369 0.0
O116 O 0.20181 0.88901 0.21515 0.0
C117 C 0.18644 0.86499 0.23459 0.0
C118 C 0.09189 0.77818 0.15237 0.0
O119 O 0.13951 0.80086 0.23846 0.0
C120 C 0.06091 0.60479 0.19079 0.0
O121 O 0.06405 0.82553 0.20906 0.0
O122 O 0.02068 0.71285 0.21761 0.0
O123 O 0.13691 0.75703 0.15271 0.0
O124 O 0.08364 0.81073 0.16838 0.0
C125 C 0.22488 0.70564 0.21592 0.0
O126 O 0.06857 0.62849 0.21029 0.0
O127 O 0.09294 0.64492 0.17476 0.0
C128 C 0.01385 0.76715 0.21636 0.0
O129 O 0.18875 0.72209 0.22825 0.0
O130 O 0.21578 0.69805 0.19526 0.0
C131 C 0.27034 0.87267 0.17041 0.0
Fe132 Fe 0.82017 0.55395 0.48233 0.0
Fe133 Fe 0.85095 0.70257 0.46591 0.0
O134 O 0.85313 0.62177 0.46152 0.0
Fe135 Fe 0.8882 0.61006 0.43605 0.0
O136 O 0.80625 0.53056 0.42962 0.0
O137 O 0.77637 0.48014 0.46273 0.0
O138 O 0.73522 0.55027 0.48447 0.0
C139 C 0.7239 0.60078 0.48777 0.0
C140 C 0.93255 0.53977 0.46689 0.0
O141 O 0.77116 0.66436 0.4838 0.0
C142 C 0.98065 0.75107 0.44163 0.0
O143 O 0.85958 0.61802 0.50508 0.0
O144 O 0.90944 0.72518 0.48947 0.0
O145 O 0.92642 0.55771 0.44752 0.0
O146 O 0.90008 0.54728 0.48289 0.0
C147 C 0.80822 0.67572 0.42307 0.0
O148 O 0.93021 0.75911 0.44881 0.0
O149 O 0.97389 0.68996 0.44031 0.0
C150 C 0.90289 0.68462 0.50537 0.0
O151 O 0.79249 0.68441 0.44244 0.0
O152 O 0.85524 0.65858 0.41932 0.0
C153 C 0.76863 0.47852 0.442 0.0
Fe154 Fe 0.26404 0.82223 0.64913 0.0
Fe155 Fe 0.14686 0.85276 0.6326 0.0
O156 O 0.229 0.85414 0.62826 0.0
Fe157 Fe 0.27517 0.88731 0.6028 0.0
O158 O 0.26896 0.80353 0.59666 0.0
O159 O 0.29756 0.78094 0.6296 0.0
O160 O 0.18368 0.73635 0.65045 0.0
C161 C 0.12218 0.72544 0.65427 0.0
C162 C 0.3894 0.93367 0.63388 0.0
O163 O 0.10632 0.77358 0.65094 0.0
C164 C 0.22979 0.9819 0.60818 0.0
O165 O 0.236 0.85875 0.67192 0.0
O166 O 0.18377 0.91266 0.65579 0.0
O167 O 0.36581 0.9231 0.61429 0.0
O168 O 0.34869 0.90436 0.65002 0.0
C169 C 0.1296 0.80879 0.59001 0.0
O170 O 0.17046 0.93171 0.61507 0.0
O171 O 0.28361 0.97408 0.60712 0.0
C172 C 0.21549 0.90429 0.67198 0.0
O173 O 0.10582 0.79297 0.60943 0.0
O174 O 0.19355 0.85626 0.5862 0.0
C175 C 0.28647 0.76852 0.60912 0.0
Fe176 Fe 0.44061 0.26504 0.81555 0.0
Fe177 Fe 0.29229 0.14824 0.7995 0.0
O178 O 0.3731 0.22996 0.79488 0.0
Fe179 Fe 0.38555 0.27564 0.76936 0.0
O180 O 0.46263 0.26885 0.76305 0.0
O181 O 0.51477 0.29803 0.79584 0.0
O182 O 0.44578 0.18449 0.8168 0.0
C183 C 0.39512 0.12326 0.82084 0.0
C184 C 0.4545 0.39022 0.80023 0.0
O185 O 0.33111 0.10787 0.81786 0.0
C186 C 0.24599 0.23087 0.77496 0.0
O187 O 0.37676 0.23756 0.83852 0.0
O188 O 0.27031 0.18627 0.82263 0.0
O189 O 0.44098 0.36638 0.78069 0.0
O190 O 0.44344 0.3498 0.81642 0.0
C191 C 0.31779 0.12978 0.75689 0.0
O192 O 0.23682 0.17167 0.78198 0.0
O193 O 0.30761 0.28459 0.77385 0.0
C194 C 0.311 0.21822 0.83869 0.0
O195 O 0.31014 0.10637 0.77636 0.0
O196 O 0.33431 0.19369 0.75296 0.0
C197 C 0.5154 0.28634 0.77538 0.0
Fe198 Fe 0.14324 0.29417 0.96632 0.0
Fe199 Fe 0.10558 0.38518 0.93602 0.0
O200 O 0.14096 0.37466 0.96154 0.0
Fe201 Fe 0.17402 0.44317 0.9821 0.0
O202 O 0.25924 0.44734 0.98405 0.0
O203 O 0.22237 0.33309 0.98455 0.0
O204 O 0.20241 0.31206 0.94302 0.0
C205 C 0.18692 0.3204 0.92356 0.0
C206 C 0.09098 0.31346 0.00544 0.0
O207 O 0.13931 0.33666 0.91961 0.0
C208 C 0.06049 0.4553 0.96667 0.0
O209 O 0.0647 0.23693 0.94903 0.0
O210 O 0.02022 0.30522 0.94049 0.0
O211 O 0.1355 0.3798 0.00508 0.0
O212 O 0.08389 0.2723 0.98964 0.0
C213 C 0.22458 0.51722 0.94155 0.0
O214 O 0.06678 0.43726 0.94732 0.0
O215 O 0.0937 0.449 0.98268 0.0
C216 C 0.01399 0.24437 0.94178 0.0
O217 O 0.18708 0.46465 0.92936 0.0
O218 O 0.21691 0.5164 0.96227 0.0
C219 C 0.2701 0.39688 0.98803 0.0
Fe220 Fe 0.84648 0.14321 0.13279 0.0
Fe221 Fe 0.71828 0.10781 0.10263 0.0
O222 O 0.76434 0.1419 0.12813 0.0
Fe223 Fe 0.72947 0.17486 0.14883 0.0
O224 O 0.81027 0.26041 0.1501 0.0
O225 O 0.88693 0.22244 0.15104 0.0
O226 O 0.88812 0.20252 0.10958 0.0
C227 C 0.86429 0.18749 0.09012 0.0
C228 C 0.77651 0.09233 0.17205 0.0
O229 O 0.80026 0.14042 0.08614 0.0
C230 C 0.60404 0.06206 0.13369 0.0
O231 O 0.82399 0.06445 0.11541 0.0
O232 O 0.71134 0.02162 0.10685 0.0
O233 O 0.75662 0.13832 0.1718 0.0
O234 O 0.80869 0.08364 0.15604 0.0
C235 C 0.70509 0.22608 0.10862 0.0
O236 O 0.62768 0.07044 0.11416 0.0
O237 O 0.64428 0.0935 0.14977 0.0
C238 C 0.76537 0.01432 0.10817 0.0
O239 O 0.72223 0.19049 0.09629 0.0
O240 O 0.69654 0.21613 0.12922 0.0
C241 C 0.87154 0.27096 0.15407 0.0
Fe242 Fe 0.60944 0.71976 0.26936 0.0
Fe243 Fe 0.5529 0.73135 0.31562 0.0
O244 O 0.62096 0.76623 0.29487 0.0
Fe245 Fe 0.70188 0.84896 0.29945 0.0
O246 O 0.6842 0.89003 0.27611 0.0
O247 O 0.65726 0.80161 0.25275 0.0
O248 O 0.52945 0.72135 0.26296 0.0
C249 C 0.47734 0.70673 0.27531 0.0
C250 C 0.75064 0.76865 0.27489 0.0
O251 O 0.47911 0.70114 0.29604 0.0
C252 C 0.68309 0.77831 0.33874 0.0
O253 O 0.55807 0.62921 0.28086 0.0
O254 O 0.54633 0.64489 0.3162 0.0
O255 O 0.75864 0.82685 0.28227 0.0
O256 O 0.68961 0.71442 0.27344 0.0
C257 C 0.6 0.8742 0.32115 0.0
O258 O 0.61669 0.75603 0.33844 0.0
O259 O 0.72392 0.81211 0.32288 0.0
C260 C 0.54004 0.60519 0.30024 0.0
O261 O 0.54935 0.81266 0.31761 0.0
O262 O 0.66363 0.89012 0.31748 0.0
C263 C 0.67481 0.86581 0.25669 0.0
C264 C 0.23503 0.9564 0.26762 0.0
C265 C 0.21266 0.91439 0.2526 0.0
C266 C 0.26 0.00543 0.28522 0.0
C267 C 0.28272 0.04481 0.30087 0.0
C268 C 0.25222 0.26075 0.45179 0.0
C269 C 0.23584 0.28344 0.46749 0.0
C270 C 0.27615 0.23593 0.43416 0.0
C271 C 0.29599 0.21384 0.41914 0.0
C272 C 0.98894 0.25073 0.61818 0.0
C273 C 0.95019 0.23507 0.63391 0.0
C274 C 0.0377 0.27454 0.60059 0.0
C275 C 0.07983 0.2947 0.58565 0.0
C276 C 0.76207 0.03944 0.76756 0.0
C277 C 0.78418 0.08173 0.75266 0.0
C278 C 0.73669 0.99009 0.785 0.0
C279 C 0.7133 0.95093 0.80062 0.0
C280 C 0.71606 0.75784 0.93407 0.0
C281 C 0.69685 0.78086 0.91915 0.0
C282 C 0.73964 0.73207 0.95152 0.0
C283 C 0.75587 0.70909 0.96716 0.0
C284 C 0.00775 0.74463 0.1177 0.0
C285 C 0.04581 0.76035 0.13365 0.0
C286 C 0.95919 0.72101 0.09998 0.0
C287 C 0.91643 0.70098 0.08517 0.0
C288 C 0.03778 0.76161 0.55713 0.0
C289 C 0.07996 0.78333 0.57209 0.0
C290 C 0.98892 0.73689 0.53951 0.0
C291 C 0.95001 0.71387 0.52379 0.0
C292 C 0.24877 0.9894 0.70633 0.0
C293 C 0.23318 0.95089 0.69052 0.0
C294 C 0.27279 0.03783 0.72405 0.0
C295 C 0.29336 0.07987 0.73905 0.0
C296 C 0.23625 0.27828 0.89057 0.0
C297 C 0.2136 0.29757 0.9056 0.0
C298 C 0.26092 0.25424 0.8729 0.0
C299 C 0.28319 0.23748 0.85718 0.0
C300 C 0.95588 0.23736 0.05721 0.0
C301 C 0.91383 0.21443 0.07219 0.0
C302 C 0.00474 0.26265 0.03959 0.0
C303 C 0.04384 0.28522 0.02389 0.0
C304 C 0.71659 0.95738 0.2238 0.0
C305 C 0.69738 0.91515 0.23872 0.0
C306 C 0.74058 0.00645 0.20626 0.0
C307 C 0.75726 0.04543 0.19055 0.0
C308 C 0.75993 0.71869 0.39009 0.0
C309 C 0.78232 0.69892 0.40503 0.0
C310 C 0.73466 0.74287 0.37265 0.0
C311 C 0.71167 0.75937 0.35707 0.0
C312 C 0.55869 0.95905 0.33902 0.0
C313 C 0.58346 0.92499 0.33095 0.0
C314 C 0.52258 0.99334 0.34765 0.0
C315 C 0.49111 0.02362 0.35348 0.0
C316 C 0.52688 0.52424 0.51417 0.0
C317 C 0.46507 0.49288 0.52001 0.0
C318 C 0.59743 0.55977 0.50555 0.0
C319 C 0.65631 0.58416 0.49749 0.0
C320 C 0.03824 0.59976 0.6727 0.0
C321 C 0.07207 0.65834 0.6644 0.0
C322 C 0.0036 0.52946 0.6815 0.0
C323 C 0.97281 0.46767 0.68735 0.0
C324 C 0.43727 0.03942 0.83907 0.0
C325 C 0.41219 0.07312 0.8309 0.0
C326 C 0.47319 0.00489 0.84775 0.0
C327 C 0.50395 0.97384 0.85359 0.0
C328 C 0.39585 0.4384 0.00643 0.0
C329 C 0.33725 0.41384 -0.00185 0.0
C330 C 0.4663 0.47389 0.01512 0.0
C331 C 0.52819 0.50483 0.02087 0.0
C332 C 0.99057 0.46727 0.18086 0.0
C333 C 0.02141 0.52899 0.18673 0.0
C334 C 0.95597 0.39691 0.17218 0.0
C335 C 0.92194 0.33814 0.16405 0.0
C336 C 0.00203 0.47138 0.47661 0.0
C337 C 0.97168 0.5029 0.47082 0.0
C338 C 0.03642 0.43531 0.48531 0.0
C339 C 0.07037 0.41063 0.49357 0.0
C340 C 0.52714 0.00266 0.64381 0.0
C341 C 0.4653 0.97217 0.63799 0.0
C342 C 0.59775 0.03742 0.6524 0.0
C343 C 0.65678 0.07161 0.66041 0.0
C344 C 0.55942 0.59837 0.81861 0.0
C345 C 0.58391 0.65723 0.82665 0.0
C346 C 0.52364 0.52789 0.81001 0.0
C347 C 0.49209 0.46608 0.80423 0.0
C348 C 0.95399 0.55673 0.98522 0.0
C349 C 0.91998 0.58127 0.9935 0.0
C350 C 0.98896 0.52142 0.97644 0.0
C351 C 0.02015 0.49086 0.97058 0.0
C352 C 0.46656 0.99192 0.14362 0.0
C353 C 0.52825 0.02271 0.13774 0.0
C354 C 0.39626 0.95721 0.15233 0.0
C355 C 0.33755 0.92309 0.16048 0.0
C356 C 0.47359 0.46767 0.31013 0.0
C357 C 0.50431 0.52935 0.30422 0.0
C358 C 0.43776 0.39737 0.31888 0.0
C359 C 0.4128 0.33865 0.32705 0.0
C360 C 0.08599 0.85647 0.41919 0.0
C361 C 0.03773 0.80875 0.42947 0.0
C362 C 0.14025 0.91058 0.40596 0.0
C363 C 0.18766 0.95835 0.39545 0.0
C364 C 0.23062 0.14155 0.5723 0.0
C365 C 0.2307 0.18943 0.56193 0.0
C366 C 0.23059 0.08718 0.58545 0.0
C367 C 0.23061 0.0393 0.5958 0.0
C368 C 0.14245 0.23125 0.7516 0.0
C369 C 0.18983 0.2313 0.76224 0.0
C370 C 0.08794 0.23021 0.73828 0.0
C371 C 0.03931 0.22904 0.72804 0.0
C372 C 0.85597 0.08506 0.90563 0.0
C373 C 0.80817 0.03707 0.8953 0.0
C374 C 0.91004 0.13916 0.91891 0.0
C375 C 0.9577 0.18676 0.92939 0.0
C376 C 0.76473 0.90885 0.08558 0.0
C377 C 0.7655 0.95713 0.09592 0.0
C378 C 0.76478 0.8546 0.07238 0.0
C379 C 0.76565 0.80725 0.06198 0.0
C380 C 0.85605 0.76856 0.25257 0.0
C381 C 0.80844 0.76934 0.26281 0.0
C382 C 0.90989 0.76798 0.23933 0.0
C383 C 0.95746 0.768 0.22882 0.0
C384 C 0.67536 0.36808 0.41987 0.0
C385 C 0.71602 0.41525 0.43166 0.0
C386 C 0.62706 0.31934 0.40471 0.0
C387 C 0.5801 0.27856 0.39288 0.0
C388 C 0.30116 0.67338 0.58724 0.0
C389 C 0.29639 0.71501 0.59908 0.0
C390 C 0.30073 0.62503 0.5719 0.0
C391 C 0.29548 0.5788 0.55989 0.0
C392 C 0.62441 0.29998 0.75336 0.0
C393 C 0.57832 0.29565 0.76522 0.0
C394 C 0.67252 0.29974 0.73811 0.0
C395 C 0.71427 0.29536 0.72626 0.0
C396 C 0.36676 0.67434 0.90386 0.0
C397 C 0.41386 0.71538 0.89215 0.0
C398 C 0.3182 0.62622 0.91906 0.0
C399 C 0.2774 0.57984 0.93103 0.0
C400 C 0.68668 0.31875 0.08666 0.0
C401 C 0.69343 0.27816 0.09839 0.0
C402 C 0.6867 0.36742 0.07158 0.0
C403 C 0.69357 0.41476 0.05983 0.0
C404 C 0.36658 0.68852 0.25317 0.0
C405 C 0.41389 0.69551 0.26497 0.0
C406 C 0.31786 0.688 0.23799 0.0
C407 C 0.27722 0.69444 0.22618 0.0
loop_
_geom_bond_atom_site_label_1
_geom_bond_atom_site_label_2
_geom_bond_distance
_geom_bond_site_symmetry_2
_ccdc_geom_bond_type
Fe0 O2 1.918 . S
Fe0 O5 1.997 . S
Fe0 O6 2.002 . S
Fe0 O11 1.976 . S
Fe0 O14 1.996 . S
Fe1 O2 1.918 . S
Fe1 O9 1.997 . S
Fe1 O12 1.996 . S
Fe1 O16 1.976 . S
Fe1 O19 2.002 . S
O2 Fe0 1.918 . S
O2 Fe1 1.918 . S
O2 Fe3 1.918 . S
Fe3 O2 1.918 . S
Fe3 O4 2.002 . S
Fe3 O13 1.976 . S
Fe3 O17 1.996 . S
Fe3 O20 1.997 . S
O4 Fe3 2.002 . S
O4 C21 1.295 . S
O5 Fe0 1.997 . S
O5 C21 1.235 . S
O6 Fe0 2.002 . S
O6 C7 1.295 . S
C7 O6 1.295 . S
C7 O9 1.235 . S
C8 O13 1.287 . S
C8 O14 1.255 . S
O9 Fe1 1.997 . S
O9 C7 1.235 . S
C10 O16 1.287 . S
C10 O17 1.255 . S
O11 Fe0 1.976 . S
O11 C18 1.287 . S
O12 Fe1 1.996 . S
O12 C18 1.255 . S
O13 Fe3 1.976 . S
O13 C8 1.287 . S
O14 Fe0 1.996 . S
O14 C8 1.255 . S
C15 O19 1.295 . S
C15 O20 1.235 . S
O16 Fe1 1.976 . S
O16 C10 1.287 . S
O17 Fe3 1.996 . S
O17 C10 1.255 . S
C18 O11 1.287 . S
C18 O12 1.255 . S
O19 Fe1 2.002 . S
O19 C15 1.295 . S
O20 Fe3 1.997 . S
O20 C15 1.235 . S
C21 O4 1.295 . S
C21 O5 1.235 . S
Fe22 O24 1.918 . S
Fe22 O27 1.997 . S
Fe22 O28 2.002 . S
Fe22 O33 1.976 . S
Fe22 O36 1.996 . S
Fe23 O24 1.918 . S
Fe23 O31 1.997 . S
Fe23 O34 1.996 . S
Fe23 O38 1.976 . S
Fe23 O41 2.002 . S
O24 Fe22 1.918 . S
O24 Fe23 1.918 . S
O24 Fe25 1.918 . S
Fe25 O24 1.918 . S
Fe25 O26 2.002 . S
Fe25 O35 1.976 . S
Fe25 O39 1.996 . S
Fe25 O42 1.997 . S
O26 Fe25 2.002 . S
O26 C43 1.295 . S
O27 Fe22 1.997 . S
O27 C43 1.235 . S
O28 Fe22 2.002 . S
O28 C29 1.295 . S
C29 O28 1.295 . S
C29 O31 1.235 . S
C30 O35 1.287 . S
C30 O36 1.255 . S
O31 Fe23 1.997 . S
O31 C29 1.235 . S
C32 O38 1.287 . S
C32 O39 1.255 . S
O33 Fe22 1.976 . S
O33 C40 1.287 . S
O34 Fe23 1.996 . S
O34 C40 1.255 . S
O35 Fe25 1.976 . S
O35 C30 1.287 . S
O36 Fe22 1.996 . S
O36 C30 1.255 . S
C37 O41 1.295 . S
C37 O42 1.235 . S
O38 Fe23 1.976 . S
O38 C32 1.287 . S
O39 Fe25 1.996 . S
O39 C32 1.255 . S
C40 O33 1.287 . S
C40 O34 1.255 . S
O41 Fe23 2.002 . S
O41 C37 1.295 . S
O42 Fe25 1.997 . S
O42 C37 1.235 . S
C43 O26 1.295 . S
C43 O27 1.235 . S
Fe44 O46 1.918 . S
Fe44 O49 1.997 . S
Fe44 O50 2.002 . S
Fe44 O55 1.976 . S
Fe44 O58 1.996 . S
Fe45 O46 1.918 . S
Fe45 O53 1.997 . S
Fe45 O56 1.996 . S
Fe45 O60 1.976 . S
Fe45 O63 2.002 . S
O46 Fe44 1.918 . S
O46 Fe45 1.918 . S
O46 Fe47 1.918 . S
Fe47 O46 1.918 . S
Fe47 O48 2.002 . S
Fe47 O57 1.976 . S
Fe47 O61 1.996 . S
Fe47 O64 1.997 . S
O48 Fe47 2.002 . S
O48 C65 1.295 . S
O49 Fe44 1.997 . S
O49 C65 1.235 . S
O50 Fe44 2.002 . S
O50 C51 1.295 . S
C51 O50 1.295 . S
C51 O53 1.235 . S
C52 O57 1.287 . S
C52 O58 1.255 . S
O53 Fe45 1.997 . S
O53 C51 1.235 . S
C54 O60 1.287 . S
C54 O61 1.255 . S
O55 Fe44 1.976 . S
O55 C62 1.287 . S
O56 Fe45 1.996 . S
O56 C62 1.255 . S
O57 Fe47 1.976 . S
O57 C52 1.287 . S
O58 Fe44 1.996 . S
O58 C52 1.255 . S
C59 O63 1.295 . S
C59 O64 1.235 . S
O60 Fe45 1.976 . S
O60 C54 1.287 . S
O61 Fe47 1.996 . S
O61 C54 1.255 . S
C62 O55 1.287 . S
C62 O56 1.255 . S
O63 Fe45 2.002 . S
O63 C59 1.295 . S
O64 Fe47 1.997 . S
O64 C59 1.235 . S
C65 O48 1.295 . S
C65 O49 1.235 . S
Fe66 O68 1.918 . S
Fe66 O71 1.997 . S
Fe66 O72 2.002 . S
Fe66 O77 1.976 . S
Fe66 O80 1.996 . S
Fe67 O68 1.918 . S
Fe67 O75 1.997 . S
Fe67 O78 1.996 . S
Fe67 O82 1.976 . S
Fe67 O85 2.002 . S
O68 Fe66 1.918 . S
O68 Fe67 1.918 . S
O68 Fe69 1.918 . S
Fe69 O68 1.918 . S
Fe69 O70 2.002 . S
Fe69 O79 1.976 . S
Fe69 O83 1.996 . S
Fe69 O86 1.997 . S
O70 Fe69 2.002 . S
O70 C87 1.295 . S
O71 Fe66 1.997 . S
O71 C87 1.235 . S
O72 Fe66 2.002 . S
O72 C73 1.295 . S
C73 O72 1.295 . S
C73 O75 1.235 . S
C74 O79 1.287 . S
C74 O80 1.255 . S
O75 Fe67 1.997 . S
O75 C73 1.235 . S
C76 O82 1.287 . S
C76 O83 1.255 . S
O77 Fe66 1.976 . S
O77 C84 1.287 . S
O78 Fe67 1.996 . S
O78 C84 1.255 . S
O79 Fe69 1.976 . S
O79 C74 1.287 . S
O80 Fe66 1.996 . S
O80 C74 1.255 . S
C81 O85 1.295 . S
C81 O86 1.235 . S
O82 Fe67 1.976 . S
O82 C76 1.287 . S
O83 Fe69 1.996 . S
O83 C76 1.255 . S
C84 O77 1.287 . S
C84 O78 1.255 . S
O85 Fe67 2.002 . S
O85 C81 1.295 . S
O86 Fe69 1.997 . S
O86 C81 1.235 . S
C87 O70 1.295 . S
C87 O71 1.235 . S
Fe88 O90 1.918 . S
Fe88 O93 1.997 . S
Fe88 O94 2.002 . S
Fe88 O99 1.976 1_554 S
Fe88 O102 1.996 . S
Fe89 O90 1.918 . S
Fe89 O97 1.997 . S
Fe89 O100 2.018 . S
Fe89 O104 1.976 . S
Fe89 O107 2.002 . S
O90 Fe88 1.918 . S
O90 Fe89 1.918 . S
O90 Fe91 1.918 . S
Fe91 O90 1.918 . S
Fe91 O92 2.002 . S
Fe91 O101 1.976 . S
Fe91 O105 1.996 . S
Fe91 O108 1.997 . S
O92 Fe91 2.002 . S
O92 C109 1.295 . S
O93 Fe88 1.997 . S
O93 C109 1.235 . S
O94 Fe88 2.002 . S
O94 C95 1.295 . S
C95 O94 1.295 . S
C95 O97 1.235 . S
C96 O101 1.287 . S
C96 O102 1.255 . S
O97 Fe89 1.997 . S
O97 C95 1.235 . S
C98 O104 1.287 . S
C98 O105 1.255 . S
O99 Fe88 1.976 1_556 S
O99 C106 1.287 . S
O100 Fe89 2.018 . S
O100 C106 1.239 1_554 S
O101 Fe91 1.976 . S
O101 C96 1.287 . S
O102 Fe88 1.996 . S
O102 C96 1.255 . S
C103 O107 1.295 . S
C103 O108 1.235 . S
O104 Fe89 1.976 . S
O104 C98 1.287 . S
O105 Fe91 1.996 . S
O105 C98 1.255 . S
C106 O99 1.287 . S
C106 O100 1.239 1_556 S
O107 Fe89 2.002 . S
O107 C103 1.295 . S
O108 Fe91 1.997 . S
O108 C103 1.235 . S
C109 O92 1.295 . S
C109 O93 1.235 . S
Fe110 O112 1.918 . S
Fe110 O115 1.997 . S
Fe110 O116 2.002 . S
Fe110 O121 1.976 . S
Fe110 O124 1.996 . S
Fe111 O112 1.918 . S
Fe111 O119 1.997 . S
Fe111 O122 1.996 . S
Fe111 O126 1.976 . S
Fe111 O129 2.002 . S
O112 Fe110 1.918 . S
O112 Fe111 1.918 . S
O112 Fe113 1.918 . S
Fe113 O112 1.918 . S
Fe113 O114 2.002 . S
Fe113 O123 1.976 . S
Fe113 O127 1.996 . S
Fe113 O130 1.997 . S
O114 Fe113 2.002 . S
O114 C131 1.295 . S
O115 Fe110 1.997 . S
O115 C131 1.235 . S
O116 Fe110 2.002 . S
O116 C117 1.295 . S
C117 O116 1.295 . S
C117 O119 1.235 . S
C118 O123 1.287 . S
C118 O124 1.255 . S
O119 Fe111 1.997 . S
O119 C117 1.235 . S
C120 O126 1.287 . S
C120 O127 1.255 . S
O121 Fe110 1.976 . S
O121 C128 1.287 . S
O122 Fe111 1.996 . S
O122 C128 1.255 . S
O123 Fe113 1.976 . S
O123 C118 1.287 . S
O124 Fe110 1.996 . S
O124 C118 1.255 . S
C125 O129 1.295 . S
C125 O130 1.235 . S
O126 Fe111 1.976 . S
O126 C120 1.287 . S
O127 Fe113 1.996 . S
O127 C120 1.255 . S
C128 O121 1.287 . S
C128 O122 1.255 . S
O129 Fe111 2.002 . S
O129 C125 1.295 . S
O130 Fe113 1.997 . S
O130 C125 1.235 . S
C131 O114 1.295 . S
C131 O115 1.235 . S
Fe132 O134 1.918 . S
Fe132 O137 1.997 . S
Fe132 O138 2.002 . S
Fe132 O143 1.976 . S
Fe132 O146 1.996 . S
Fe133 O134 1.918 . S
Fe133 O141 1.997 . S
Fe133 O144 1.996 . S
Fe133 O148 1.976 . S
Fe133 O151 2.002 . S
O134 Fe132 1.918 . S
O134 Fe133 1.918 . S
O134 Fe135 1.918 . S
Fe135 O134 1.918 . S
Fe135 O136 2.002 . S
Fe135 O145 1.976 . S
Fe135 O149 1.996 . S
Fe135 O152 1.997 . S
O136 Fe135 2.002 . S
O136 C153 1.295 . S
O137 Fe132 1.997 . S
O137 C153 1.235 . S
O138 Fe132 2.002 . S
O138 C139 1.295 . S
C139 O138 1.295 . S
C139 O141 1.235 . S
C140 O145 1.287 . S
C140 O146 1.255 . S
O141 Fe133 1.997 . S
O141 C139 1.235 . S
C142 O148 1.287 . S
C142 O149 1.255 . S
O143 Fe132 1.976 . S
O143 C150 1.287 . S
O144 Fe133 1.996 . S
O144 C150 1.255 . S
O145 Fe135 1.976 . S
O145 C140 1.287 . S
O146 Fe132 1.996 . S
O146 C140 1.255 . S
C147 O151 1.295 . S
C147 O152 1.235 . S
O148 Fe133 1.976 . S
O148 C142 1.287 . S
O149 Fe135 1.996 . S
O149 C142 1.255 . S
C150 O143 1.287 . S
C150 O144 1.255 . S
O151 Fe133 2.002 . S
O151 C147 1.295 . S
O152 Fe135 1.997 . S
O152 C147 1.235 . S
C153 O136 1.295 . S
C153 O137 1.235 . S
Fe154 O156 1.918 . S
Fe154 O159 1.997 . S
Fe154 O160 2.002 . S
Fe154 O165 1.976 . S
Fe154 O168 1.996 . S
Fe155 O156 1.918 . S
Fe155 O163 1.997 . S
Fe155 O166 1.996 . S
Fe155 O170 1.976 . S
Fe155 O173 2.002 . S
O156 Fe154 1.918 . S
O156 Fe155 1.918 . S
O156 Fe157 1.918 . S
Fe157 O156 1.918 . S
Fe157 O158 2.002 . S
Fe157 O167 1.976 . S
Fe157 O171 1.996 . S
Fe157 O174 1.997 . S
O158 Fe157 2.002 . S
O158 C175 1.295 . S
O159 Fe154 1.997 . S
O159 C175 1.235 . S
O160 Fe154 2.002 . S
O160 C161 1.295 . S
C161 O160 1.295 . S
C161 O163 1.235 . S
C162 O167 1.287 . S
C162 O168 1.255 . S
O163 Fe155 1.997 . S
O163 C161 1.235 . S
C164 O170 1.287 . S
C164 O171 1.255 . S
O165 Fe154 1.976 . S
O165 C172 1.287 . S
O166 Fe155 1.996 . S
O166 C172 1.255 . S
O167 Fe157 1.976 . S
O167 C162 1.287 . S
O168 Fe154 1.996 . S
O168 C162 1.255 . S
C169 O173 1.295 . S
C169 O174 1.235 . S
O170 Fe155 1.976 . S
O170 C164 1.287 . S
O171 Fe157 1.996 . S
O171 C164 1.255 . S
C172 O165 1.287 . S
C172 O166 1.255 . S
O173 Fe155 2.002 . S
O173 C169 1.295 . S
O174 Fe157 1.997 . S
O174 C169 1.235 . S
C175 O158 1.295 . S
C175 O159 1.235 . S
Fe176 O178 1.918 . S
Fe176 O181 1.997 . S
Fe176 O182 2.002 . S
Fe176 O187 1.976 . S
Fe176 O190 1.996 . S
Fe177 O178 1.918 . S
Fe177 O185 1.997 . S
Fe177 O188 1.996 . S
Fe177 O192 1.976 . S
Fe177 O195 2.002 . S
O178 Fe176 1.918 . S
O178 Fe177 1.918 . S
O178 Fe179 1.918 . S
Fe179 O178 1.918 . S
Fe179 O180 2.002 . S
Fe179 O189 1.976 . S
Fe179 O193 1.996 . S
Fe179 O196 1.997 . S
O180 Fe179 2.002 . S
O180 C197 1.295 . S
O181 Fe176 1.997 . S
O181 C197 1.235 . S
O182 Fe176 2.002 . S
O182 C183 1.295 . S
C183 O182 1.295 . S
C183 O185 1.235 . S
C184 O189 1.287 . S
C184 O190 1.255 . S
O185 Fe177 1.997 . S
O185 C183 1.235 . S
C186 O192 1.287 . S
C186 O193 1.255 . S
O187 Fe176 1.976 . S
O187 C194 1.287 . S
O188 Fe177 1.996 . S
O188 C194 1.255 . S
O189 Fe179 1.976 . S
O189 C184 1.287 . S
O190 Fe176 1.996 . S
O190 C184 1.255 . S
C191 O195 1.295 . S
C191 O196 1.235 . S
O192 Fe177 1.976 . S
O192 C186 1.287 . S
O193 Fe179 1.996 . S
O193 C186 1.255 . S
C194 O187 1.287 . S
C194 O188 1.255 . S
O195 Fe177 2.002 . S
O195 C191 1.295 . S
O196 Fe179 1.997 . S
O196 C191 1.235 . S
C197 O180 1.295 . S
C197 O181 1.235 . S
Fe198 O200 1.918 . S
Fe198 O203 1.997 . S
Fe198 O204 2.002 . S
Fe198 O209 1.976 . S
Fe198 O212 2.018 . S
Fe199 O200 1.918 . S
Fe199 O207 1.997 . S
Fe199 O210 1.996 . S
Fe199 O214 1.976 . S
Fe199 O217 2.002 . S
O200 Fe198 1.918 . S
O200 Fe199 1.918 . S
O200 Fe201 1.918 . S
Fe201 O200 1.918 . S
Fe201 O202 2.002 . S
Fe201 O211 1.976 1_556 S
Fe201 O215 1.996 . S
Fe201 O218 1.997 . S
O202 Fe201 2.002 . S
O202 C219 1.295 . S
O203 Fe198 1.997 . S
O203 C219 1.235 . S
O204 Fe198 2.002 . S
O204 C205 1.295 . S
C205 O204 1.295 . S
C205 O207 1.235 . S
C206 O211 1.287 . S
C206 O212 1.239 1_554 S
O207 Fe199 1.997 . S
O207 C205 1.235 . S
C208 O214 1.287 . S
C208 O215 1.255 . S
O209 Fe198 1.976 . S
O209 C216 1.287 . S
O210 Fe199 1.996 . S
O210 C216 1.255 . S
O211 Fe201 1.976 1_554 S
O211 C206 1.287 . S
O212 Fe198 2.018 . S
O212 C206 1.239 1_556 S
C213 O217 1.295 . S
C213 O218 1.235 . S
O214 Fe199 1.976 . S
O214 C208 1.287 . S
O215 Fe201 1.996 . S
O215 C208 1.255 . S
C216 O209 1.287 . S
C216 O210 1.255 . S
O217 Fe199 2.002 . S
O217 C213 1.295 . S
O218 Fe201 1.997 . S
O218 C213 1.235 . S
C219 O202 1.295 . S
C219 O203 1.235 . S
Fe220 O222 1.918 . S
Fe220 O225 1.997 . S
Fe220 O226 2.002 . S
Fe220 O231 1.976 . S
Fe220 O234 1.996 . S
Fe221 O222 1.918 . S
Fe221 O229 1.997 . S
Fe221 O232 1.996 . S
Fe221 O236 1.976 . S
Fe221 O239 2.002 . S
O222 Fe220 1.918 . S
O222 Fe221 1.918 . S
O222 Fe223 1.918 . S
Fe223 O222 1.918 . S
Fe223 O224 2.002 . S
Fe223 O233 1.976 . S
Fe223 O237 1.996 . S
Fe223 O240 1.997 . S
O224 Fe223 2.002 . S
O224 C241 1.295 . S
O225 Fe220 1.997 . S
O225 C241 1.235 . S
O226 Fe220 2.002 . S
O226 C227 1.295 . S
C227 O226 1.295 . S
C227 O229 1.235 . S
C228 O233 1.287 . S
C228 O234 1.255 . S
O229 Fe221 1.997 . S
O229 C227 1.235 . S
C230 O236 1.287 . S
C230 O237 1.255 . S
O231 Fe220 1.976 . S
O231 C238 1.287 . S
O232 Fe221 1.996 . S
O232 C238 1.255 . S
O233 Fe223 1.976 . S
O233 C228 1.287 . S
O234 Fe220 1.996 . S
O234 C228 1.255 . S
C235 O239 1.295 . S
C235 O240 1.235 . S
O236 Fe221 1.976 . S
O236 C230 1.287 . S
O237 Fe223 1.996 . S
O237 C230 1.255 . S
C238 O231 1.287 . S
C238 O232 1.255 . S
O239 Fe221 2.002 . S
O239 C235 1.295 . S
O240 Fe223 1.997 . S
O240 C235 1.235 . S
C241 O224 1.295 . S
C241 O225 1.235 . S
Fe242 O244 1.918 . S
Fe242 O247 1.997 . S
Fe242 O248 2.002 . S
Fe242 O253 1.976 . S
Fe242 O256 1.996 . S
Fe243 O244 1.918 . S
Fe243 O251 1.997 . S
Fe243 O254 1.996 . S
Fe243 O258 1.976 . S
Fe243 O261 2.002 . S
O244 Fe242 1.918 . S
O244 Fe243 1.918 . S
O244 Fe245 1.918 . S
Fe245 O244 1.918 . S
Fe245 O246 2.002 . S
Fe245 O255 1.976 . S
Fe245 O259 1.996 . S
Fe245 O262 1.997 . S
O246 Fe245 2.002 . S
O246 C263 1.295 . S
O247 Fe242 1.997 . S
O247 C263 1.235 . S
O248 Fe242 2.002 . S
O248 C249 1.295 . S
C249 O248 1.295 . S
C249 O251 1.235 . S
C250 O255 1.287 . S
C250 O256 1.255 . S
O251 Fe243 1.997 . S
O251 C249 1.235 . S
C252 O258 1.287 . S
C252 O259 1.255 . S
O253 Fe242 1.976 . S
O253 C260 1.287 . S
O254 Fe243 1.996 . S
O254 C260 1.255 . S
O255 Fe245 1.976 . S
O255 C250 1.287 . S
O256 Fe242 1.996 . S
O256 C250 1.255 . S
C257 O261 1.295 . S
C257 O262 1.235 . S
O258 Fe243 1.976 . S
O258 C252 1.287 . S
O259 Fe245 1.996 . S
O259 C252 1.255 . S
C260 O253 1.287 . S
C260 O254 1.255 . S
O261 Fe243 2.002 . S
O261 C257 1.295 . S
O262 Fe245 1.997 . S
O262 C257 1.235 . S
C263 O246 1.295 . S
C263 O247 1.235 . S
C264 C265 1.170 . S
C264 C266 1.380 1_565 S
C265 C264 1.170 . S
C266 C264 1.380 1_545 S
C266 C267 1.170 . S
C267 C266 1.170 . S
C268 C269 1.170 . S
C268 C270 1.380 . S
C269 C268 1.170 . S
C270 C268 1.380 . S
C270 C271 1.170 . S
C271 C270 1.170 . S
C272 C273 1.170 . S
C272 C274 1.380 1_655 S
C273 C272 1.170 . S
C274 C272 1.380 1_455 S
C274 C275 1.170 . S
C275 C274 1.170 . S
C276 C277 1.170 . S
C276 C278 1.380 1_545 S
C277 C276 1.170 . S
C278 C276 1.380 1_565 S
C278 C279 1.170 . S
C279 C278 1.170 . S
C280 C281 1.170 . S
C280 C282 1.380 . S
C281 C280 1.170 . S
C282 C280 1.380 . S
C282 C283 1.170 . S
C283 C282 1.170 . S
C284 C285 1.170 . S
C284 C286 1.380 1_455 S
C285 C284 1.170 . S
C286 C284 1.380 1_655 S
C286 C287 1.170 . S
C287 C286 1.170 . S
C288 C289 1.170 . S
C288 C290 1.380 1_455 S
C289 C288 1.170 . S
C290 C288 1.380 1_655 S
C290 C291 1.170 . S
C291 C290 1.170 . S
C292 C293 1.170 . S
C292 C294 1.380 1_565 S
C293 C292 1.170 . S
C294 C292 1.380 1_545 S
C294 C295 1.170 . S
C295 C294 1.170 . S
C296 C297 1.170 . S
C296 C298 1.380 . S
C297 C296 1.170 . S
C298 C296 1.380 . S
C298 C299 1.170 . S
C299 C298 1.170 . S
C300 C301 1.170 . S
C300 C302 1.380 1_655 S
C301 C300 1.170 . S
C302 C300 1.380 1_455 S
C302 C303 1.170 . S
C303 C302 1.170 . S
C304 C305 1.170 . S
C304 C306 1.380 1_565 S
C305 C304 1.170 . S
C306 C304 1.380 1_545 S
C306 C307 1.170 . S
C307 C306 1.170 . S
C308 C309 1.170 . S
C308 C310 1.380 . S
C309 C308 1.170 . S
C310 C308 1.380 . S
C310 C311 1.170 . S
C311 C310 1.170 . S
C312 C313 1.170 . S
C312 C314 1.380 . S
C313 C312 1.170 . S
C314 C312 1.380 . S
C314 C315 1.170 1_565 S
C315 C314 1.170 1_545 S
C316 C317 1.170 . S
C316 C318 1.380 . S
C317 C316 1.170 . S
C318 C316 1.380 . S
C318 C319 1.170 . S
C319 C318 1.170 . S
C320 C321 1.170 . S
C320 C322 1.380 . S
C321 C320 1.170 . S
C322 C320 1.380 . S
C322 C323 1.170 1_455 S
C323 C322 1.170 1_655 S
C324 C325 1.170 . S
C324 C326 1.380 . S
C325 C324 1.170 . S
C326 C324 1.380 . S
C326 C327 1.170 1_545 S
C327 C326 1.170 1_565 S
C328 C329 1.178 . S
C328 C330 1.380 . S
C329 C328 1.178 . S
C330 C328 1.380 . S
C330 C331 1.170 . S
C331 C330 1.170 . S
C332 C333 1.170 1_655 S
C332 C334 1.380 . S
C333 C332 1.170 1_455 S
C334 C332 1.380 . S
C334 C335 1.170 . S
C335 C334 1.170 . S
C336 C337 1.170 1_455 S
C336 C338 1.380 . S
C337 C336 1.170 1_655 S
C338 C336 1.380 . S
C338 C339 1.170 . S
C339 C338 1.170 . S
C340 C341 1.170 1_545 S
C340 C342 1.380 . S
C341 C340 1.170 1_565 S
C342 C340 1.380 . S
C342 C343 1.170 . S
C343 C342 1.170 . S
C344 C345 1.170 . S
C344 C346 1.380 . S
C345 C344 1.170 . S
C346 C344 1.380 . S
C346 C347 1.170 . S
C347 C346 1.170 . S
C348 C349 1.168 1_556 S
C348 C350 1.380 . S
C349 C348 1.168 1_554 S
C350 C348 1.380 . S
C350 C351 1.170 1_655 S
C351 C350 1.170 1_455 S
C352 C353 1.170 1_565 S
C352 C354 1.380 . S
C353 C352 1.170 1_545 S
C354 C352 1.380 . S
C354 C355 1.170 . S
C355 C354 1.170 . S
C356 C357 1.170 . S
C356 C358 1.380 . S
C357 C356 1.170 . S
C358 C356 1.380 . S
C358 C359 1.170 . S
C359 C358 1.170 . S
C360 C361 1.170 . S
C360 C362 1.380 . S
C361 C360 1.170 . S
C362 C360 1.380 . S
C362 C363 1.170 . S
C363 C362 1.170 . S
C364 C365 1.170 . S
C364 C366 1.380 . S
C365 C364 1.170 . S
C366 C364 1.380 . S
C366 C367 1.170 . S
C367 C366 1.170 . S
C368 C369 1.170 . S
C368 C370 1.380 . S
C369 C368 1.170 . S
C370 C368 1.380 . S
C370 C371 1.170 . S
C371 C370 1.170 . S
C372 C373 1.170 . S
C372 C374 1.380 . S
C373 C372 1.170 . S
C374 C372 1.380 . S
C374 C375 1.170 . S
C375 C374 1.170 . S
C376 C377 1.170 . S
C376 C378 1.380 . S
C377 C376 1.170 . S
C378 C376 1.380 . S
C378 C379 1.170 . S
C379 C378 1.170 . S
C380 C381 1.170 . S
C380 C382 1.380 . S
C381 C380 1.170 . S
C382 C380 1.380 . S
C382 C383 1.170 . S
C383 C382 1.170 . S
C384 C385 1.170 . S
C384 C386 1.380 . S
C385 C384 1.170 . S
C386 C384 1.380 . S
C386 C387 1.170 . S
C387 C386 1.170 . S
C388 C389 1.170 . S
C388 C390 1.380 . S
C389 C388 1.170 . S
C390 C388 1.380 . S
C390 C391 1.170 . S
C391 C390 1.170 . S
C392 C393 1.170 . S
C392 C394 1.380 . S
C393 C392 1.170 . S
C394 C392 1.380 . S
C394 C395 1.170 . S
C395 C394 1.170 . S
C396 C397 1.170 . S
C396 C398 1.380 . S
C397 C396 1.170 . S
C398 C396 1.380 . S
C398 C399 1.170 . S
C399 C398 1.170 . S
C400 C401 1.170 . S
C400 C402 1.380 . S
C401 C400 1.170 . S
C402 C400 1.380 . S
C402 C403 1.170 . S
C403 C402 1.170 . S
C404 C405 1.170 . S
C404 C406 1.380 . S
C405 C404 1.170 . S
C406 C404 1.380 . S
C406 C407 1.170 . S
C407 C406 1.170 . S
C265 C117 1.180 . S
C267 C18 1.149 . S
C269 C32 1.157 . S
C271 C15 1.173 . S
C273 C54 1.168 . S
C275 C43 1.165 . S
C277 C65 1.163 . S
C279 C84 1.172 . S
C281 C81 1.179 . S
C283 C106 1.159 . S
C285 C118 1.170 . S
C287 C103 1.171 . S
C289 C169 1.165 . S
C291 C150 1.168 . S
C293 C172 1.171 . S
C295 C191 1.164 . S
C297 C205 1.183 . S
C299 C194 1.146 . S
C301 C227 1.184 . S
C303 C206 1.147 . S
C305 C263 1.181 . S
C307 C228 1.155 . S
C309 C147 1.174 . S
C311 C252 1.155 . S
C313 C257 1.425 . S
C315 C8 1.396 . S
C317 C40 1.400 . S
C319 C139 1.428 . S
C321 C161 1.399 . S
C323 C62 1.421 . S
C325 C183 1.401 . S
C327 C74 1.403 . S
C329 C219 1.393 1_554 S
C331 C96 1.422 . S
C333 C120 1.402 . S
C335 C241 1.403 . S
C337 C140 1.417 . S
C339 C37 1.425 . S
C341 C162 1.394 . S
C343 C59 1.417 . S
C345 C73 1.427 . S
C347 C184 1.398 . S
C349 C95 1.399 . S
C351 C208 1.413 . S
C353 C230 1.397 . S
C355 C131 1.409 . S
C357 C260 1.400 . S
C359 C7 1.404 . S
C361 C142 1.176 1_455 S
C363 C10 1.160 1_565 S
C365 C30 1.167 . S
C367 C164 1.165 1_545 S
C369 C186 1.154 . S
C371 C52 1.179 1_455 S
C373 C76 1.172 1_545 S
C375 C216 1.165 1_655 S
C377 C238 1.170 1_565 S
C379 C98 1.162 . S
C381 C250 1.182 . S
C383 C128 1.153 1_655 S
C385 C153 1.092 . S
C387 C21 1.098 . S
C389 C175 1.099 . S
C391 C29 1.071 . S
C393 C197 1.087 . S
C395 C51 1.072 . S
C397 C87 1.103 . S
C399 C213 1.076 . S
C401 C235 1.099 . S
C403 C109 1.090 . S
C405 C249 1.094 . S
C407 C125 1.097 . S
