# Generated by pormake.
# Topology smu, (6)-cn, num edge types: 1
# Building blocks:
#     Node 0, Type 0, BuildingBlock: VOLQOD_clean_sbu_1, # of connection points: 6
#     Node 1, Type 0, BuildingBlock: VOLQOD_clean_sbu_1, # of connection points: 6
#     Node 2, Type 0, BuildingBlock: VOLQOD_clean_sbu_1, # of connection points: 6
#     Node 3, Type 0, BuildingBlock: VOLQOD_clean_sbu_1, # of connection points: 6
#     Node 4, Type 0, BuildingBlock: VOLQOD_clean_sbu_1, # of connection points: 6
#     Node 5, Type 0, BuildingBlock: VOLQOD_clean_sbu_1, # of connection points: 6
#     Edge 6, Type (0, 0), BuildingBlock: AJUNOK_clean_linker_0, # of connection points: 2
#     Edge 7, Type (0, 0), BuildingBlock: AJUNOK_clean_linker_0, # of connection points: 2
#     Edge 8, Type (0, 0), BuildingBlock: AJUNOK_clean_linker_0, # of connection points: 2
#     Edge 9, Type (0, 0), BuildingBlock: AJUNOK_clean_linker_0, # of connection points: 2
#     Edge 10, Type (0, 0), BuildingBlock: AJUNOK_clean_linker_0, # of connection points: 2
#     Edge 11, Type (0, 0), BuildingBlock: AJUNOK_clean_linker_0, # of connection points: 2
#     Edge 12, Type (0, 0), BuildingBlock: AJUNOK_clean_linker_0, # of connection points: 2
#     Edge 13, Type (0, 0), BuildingBlock: AJUNOK_clean_linker_0, # of connection points: 2
#     Edge 14, Type (0, 0), BuildingBlock: AJUNOK_clean_linker_0, # of connection points: 2
#     Edge 15, Type (0, 0), BuildingBlock: AJUNOK_clean_linker_0, # of connection points: 2
#     Edge 16, Type (0, 0), BuildingBlock: AJUNOK_clean_linker_0, # of connection points: 2
#     Edge 17, Type (0, 0), BuildingBlock: AJUNOK_clean_linker_0, # of connection points: 2
#     Edge 18, Type (0, 0), BuildingBlock: AJUNOK_clean_linker_0, # of connection points: 2
#     Edge 19, Type (0, 0), BuildingBlock: AJUNOK_clean_linker_0, # of connection points: 2
#     Edge 20, Type (0, 0), BuildingBlock: AJUNOK_clean_linker_0, # of connection points: 2
#     Edge 21, Type (0, 0), BuildingBlock: AJUNOK_clean_linker_0, # of connection points: 2
#     Edge 22, Type (0, 0), BuildingBlock: AJUNOK_clean_linker_0, # of connection points: 2
#     Edge 23, Type (0, 0), BuildingBlock: AJUNOK_clean_linker_0, # of connection points: 2
# Relax obj value: 0.301
# Max RMSD: 0.244
# Mean RMSD: 0.244
data_MOF--net-smu--node1-VOLQOD_clean_sbu_1--edge1-AJUNOK_clean_linker_0
_symmetry_space_group_name_H-M    P1
_symmetry_Int_Tables_number       1
_symmetry_cell_setting            triclinic
loop_
_symmetry_equiv_pos_as_xyz
'x, y, z'
_cell_length_a     24.040101
_cell_length_b     24.070124
_cell_length_c     25.031899
_cell_angle_alpha  89.895328
_cell_angle_beta   90.201581
_cell_angle_gamma 119.94198
loop_
_atom_site_label
_atom_site_type_symbol
_atom_site_fract_x
_atom_site_fract_y
_atom_site_fract_z
_atom_type_partial_charge
O0 O 0.39483 0.21428 0.21078 0.0
Zn1 Zn 0.3165 0.12808 0.19565 0.0
O2 O 0.30519 0.06955 0.25303 0.0
Zn3 Zn 0.30806 -0.00403 0.22736 0.0
Zn4 Zn 0.36691 0.11255 0.30699 0.0
Zn5 Zn 0.22716 0.04432 0.28807 0.0
O6 O 0.22605 0.91486 0.24945 0.0
O7 O 0.16535 0.96088 0.25797 0.0
O8 O 0.3129 0.08736 0.12268 0.0
O9 O 0.30079 -0.00669 0.1478 0.0
O10 O 0.39639 0.00676 0.24533 0.0
O11 O 0.43825 0.09757 0.29241 0.0
O12 O 0.33457 0.07633 0.38083 0.0
O13 O 0.24825 0.15293 0.19896 0.0
O14 O 0.22998 0.02742 0.36627 0.0
O15 O 0.20142 0.11032 0.27651 0.0
C16 C 0.41154 0.24038 0.25693 0.0
C17 C 0.17134 0.9117 0.2515 0.0
C18 C 0.44362 0.05341 0.26949 0.0
C19 C 0.30373 0.03155 0.11136 0.0
C20 C 0.27721 0.04198 0.39731 0.0
C21 C 0.21153 0.14805 0.23736 0.0
O22 O 0.39791 0.20647 0.29931 0.0
O23 O 0.78884 0.56152 0.2081 0.0
Zn24 Zn 0.78123 0.64039 0.19359 0.0
O25 O 0.73331 0.65048 0.25109 0.0
Zn26 Zn 0.65639 0.64718 0.22599 0.0
Zn27 Zn 0.71537 0.5894 0.30525 0.0
Zn28 Zn 0.78506 0.72909 0.28556 0.0
O29 O 0.65664 0.72888 0.24835 0.0
O30 O 0.76353 0.79004 0.25309 0.0
O31 O 0.74479 0.64652 0.12033 0.0
O32 O 0.66133 0.65531 0.14686 0.0
O33 O 0.57915 0.55905 0.24372 0.0
O34 O 0.6285 0.51804 0.29181 0.0
O35 O 0.71294 0.62275 0.37913 0.0
O36 O 0.87453 0.70828 0.19877 0.0
O37 O 0.7644 0.72705 0.36341 0.0
O38 O 0.87696 0.75501 0.27591 0.0
C39 C 0.79791 0.54424 0.25424 0.0
C40 C 0.708 0.78367 0.24771 0.0
C41 C 0.57875 0.5125 0.26887 0.0
C42 C 0.69742 0.65518 0.10995 0.0
C43 C 0.73388 0.68007 0.39498 0.0
C44 C 0.90552 0.74496 0.23759 0.0
O45 O 0.77777 0.55785 0.29666 0.0
O46 O 0.74252 0.16637 0.20672 0.0
Zn47 Zn 0.8281 0.17288 0.19275 0.0
O48 O 0.88641 0.22139 0.24997 0.0
Zn49 Zn 0.95918 0.29803 0.22364 0.0
Zn50 Zn 0.84341 0.23937 0.30443 0.0
Zn51 Zn 0.91333 0.16956 0.28442 0.0
O52 O 0.04105 0.29815 0.2457 0.0
O53 O -0.00393 0.19151 0.25282 0.0
O54 O 0.86886 0.2086 0.1195 0.0
O55 O 0.96127 0.29309 0.14412 0.0
O56 O 0.94772 0.37499 0.24146 0.0
O57 O 0.85858 0.32615 0.29066 0.0
O58 O 0.87943 0.24154 0.37881 0.0
O59 O 0.802 0.07951 0.19808 0.0
O60 O 0.93139 0.18933 0.36219 0.0
O61 O 0.84725 0.07773 0.27512 0.0
C62 C 0.71588 0.15674 0.25254 0.0
C63 C 0.04488 0.24698 0.2467 0.0
C64 C 0.90197 0.37556 0.26703 0.0
C65 C 0.92384 0.2564 0.10787 0.0
C66 C 0.91501 0.21931 0.39435 0.0
C67 C 0.80765 0.04897 0.23732 0.0
O68 O 0.7492 0.17669 0.29542 0.0
O69 O 0.20879 0.40301 0.79125 0.0
Zn70 Zn 0.12289 0.32425 0.80682 0.0
O71 O 0.06448 0.31293 0.74903 0.0
Zn72 Zn -0.00935 0.31559 0.77365 0.0
Zn73 Zn 0.10612 0.37308 0.69386 0.0
Zn74 Zn 0.03777 0.23365 0.71627 0.0
O75 O 0.9096 0.23411 0.75011 0.0
O76 O 0.95568 0.17316 0.74906 0.0
O77 O 0.08076 0.31882 0.87992 0.0
O78 O -0.01266 0.30695 0.85265 0.0
O79 O 0.00163 0.40384 0.75669 0.0
O80 O 0.09044 0.44458 0.7071 0.0
O81 O 0.06907 0.33746 0.62015 0.0
O82 O 0.14864 0.25652 0.80327 0.0
O83 O 0.01839 0.23381 0.63852 0.0
O84 O 0.10389 0.208 0.72669 0.0
C85 C 0.23463 0.4196 0.745 0.0
C86 C 0.90627 0.17938 0.75218 0.0
C87 C 0.04704 0.45031 0.73108 0.0
C88 C 0.02415 0.30856 0.88991 0.0
C89 C 0.0336 0.27935 0.6056 0.0
C90 C 0.1427 0.21893 0.76521 0.0
O91 O 0.20048 0.40527 0.70255 0.0
O92 O 0.16083 0.74804 0.79393 0.0
Zn93 Zn 0.16928 0.83481 0.80915 0.0
O94 O 0.21708 0.89292 0.75156 0.0
Zn95 Zn 0.29376 0.96654 0.77638 0.0
Zn96 Zn 0.23567 0.85034 0.69755 0.0
Zn97 Zn 0.16462 0.9189 0.7166 0.0
O98 O 0.29186 0.04757 0.75515 0.0
O99 O 0.18494 0.00112 0.74853 0.0
O100 O 0.20667 0.87675 0.88251 0.0
O101 O 0.29002 0.96849 0.85553 0.0
O102 O 0.37163 0.95697 0.75771 0.0
O103 O 0.32252 0.86571 0.7112 0.0
O104 O 0.23852 0.88644 0.62376 0.0
O105 O 0.07597 0.81009 0.80445 0.0
O106 O 0.1856 0.93797 0.63891 0.0
O107 O 0.07302 0.8519 0.72592 0.0
C108 C 0.15218 0.72244 0.74758 0.0
C109 C 0.2401 0.05044 0.75467 0.0
C110 C 0.37231 0.91063 0.73331 0.0
C111 C 0.25458 0.93234 0.89275 0.0
C112 C 0.21701 0.92234 0.60764 0.0
C113 C 0.04483 0.81395 0.76471 0.0
O114 O 0.1732 0.75675 0.70551 0.0
O115 O 0.55807 0.79796 0.79122 0.0
Zn116 Zn 0.63694 0.79075 0.80591 0.0
O117 O 0.64637 0.74148 0.74943 0.0
Zn118 Zn 0.64234 0.66488 0.77618 0.0
Zn119 Zn 0.58512 0.72342 0.69507 0.0
Zn120 Zn 0.72504 0.79233 0.71479 0.0
O121 O 0.72434 0.66466 0.75517 0.0
O122 O 0.78598 0.77124 0.74817 0.0
O123 O 0.64211 0.75548 0.87966 0.0
O124 O 0.64904 0.67029 0.85568 0.0
O125 O 0.55386 0.58789 0.75802 0.0
O126 O 0.51324 0.63705 0.70916 0.0
O127 O 0.61819 0.71966 0.62135 0.0
O128 O 0.70473 0.88378 0.79957 0.0
O129 O 0.72262 0.77014 0.63731 0.0
O130 O 0.75086 0.8844 0.72264 0.0
C131 C 0.54102 0.80718 0.74507 0.0
C132 C 0.77933 0.71585 0.75501 0.0
C133 C 0.50736 0.58752 0.73259 0.0
C134 C 0.64876 0.70737 0.89167 0.0
C135 C 0.67548 0.73976 0.6057 0.0
C136 C 0.74053 0.91376 0.7601 0.0
O137 O 0.55434 0.78668 0.70271 0.0
C138 C 0.2438 0.91723 0.99257 0.0
C139 C 0.26815 0.95836 0.94828 0.0
C140 C 0.25623 0.94148 0.04494 0.0
C141 C 0.2925 0.00798 0.05527 0.0
H142 H 0.21532 0.86585 0.98685 0.0
H143 H 0.23637 0.90766 0.07766 0.0
S144 S 0.36639 0.13661 0.95361 0.0
N145 N 0.33047 0.06962 0.9186 0.0
N146 N 0.35226 0.11444 0.01681 0.0
C147 C 0.31655 0.0497 0.01148 0.0
C148 C 0.30487 0.02511 0.95815 0.0
C149 C 0.74612 0.7659 0.5255 0.0
C150 C 0.68801 0.7242 0.55133 0.0
C151 C 0.76077 0.75095 0.47522 0.0
C152 C 0.71878 0.69283 0.44946 0.0
H153 H 0.78041 0.8108 0.5441 0.0
H154 H 0.80563 0.78506 0.45654 0.0
S155 S 0.56095 0.56643 0.50053 0.0
N156 N 0.58822 0.62215 0.5474 0.0
N157 N 0.61648 0.5933 0.45359 0.0
C158 C 0.66083 0.6503 0.47511 0.0
C159 C 0.64522 0.66621 0.52579 0.0
C160 C 0.01427 0.30522 0.04189 0.0
C161 C 0.94761 0.26864 0.0518 0.0
C162 C 0.03893 0.3174 0.98971 0.0
C163 C -0.00208 0.29443 0.94517 0.0
H164 H 0.04807 0.32423 0.07479 0.0
H165 H 0.09041 0.34569 0.98429 0.0
S166 S 0.81974 0.19439 0.94893 0.0
N167 N 0.84132 0.20821 0.01235 0.0
N168 N 0.88706 0.23134 0.91448 0.0
C169 C 0.93113 0.25737 0.95447 0.0
C170 C 0.90616 0.24436 0.00763 0.0
C171 C 0.20672 -0.00138 0.47772 0.0
C172 C 0.26446 0.01387 0.45176 0.0
C173 C 0.19151 0.96845 0.52781 0.0
C174 C 0.23261 0.95075 0.55332 0.0
H175 H 0.17306 0.01042 0.45931 0.0
H176 H 0.1469 0.95852 0.54653 0.0
S177 S 0.38926 0.97882 0.50193 0.0
N178 N 0.36297 0.0088 0.45533 0.0
N179 N 0.33376 0.9509 0.54889 0.0
C180 C 0.29026 0.96513 0.5276 0.0
C181 C 0.30639 -0.00291 0.47707 0.0
C182 C 0.68974 0.65788 0.95802 0.0
C183 C 0.66039 0.69519 0.94787 0.0
C184 C 0.70241 0.64572 0.01026 0.0
C185 C 0.68523 0.66937 0.05464 0.0
H186 H 0.70382 0.63826 0.92525 0.0
H187 H 0.725 0.61685 0.01587 0.0
S188 S 0.6092 0.77134 0.05039 0.0
N189 N 0.61618 0.75704 0.98701 0.0
N190 N 0.63901 0.73376 0.08504 0.0
C191 C 0.65618 0.70709 0.04515 0.0
C192 C 0.64409 0.72016 0.99191 0.0
C193 C 0.96007 0.29138 0.47414 0.0
C194 C 0.94231 0.23245 0.44917 0.0
C195 C -0.00848 0.30714 0.52393 0.0
C196 C 0.00516 0.26401 0.55111 0.0
H197 H 0.95095 0.32622 0.45452 0.0
H198 H 0.00414 0.35298 0.54168 0.0
S199 S 0.967 0.10275 0.50338 0.0
N200 N 0.9403 0.1307 0.45547 0.0
N201 N -0.00233 0.15943 0.54936 0.0
C202 C -0.01316 0.20459 0.52679 0.0
C203 C 0.95592 0.18908 0.47578 0.0
C204 C 0.5497 0.09106 0.311 0.0
C205 C 0.50897 0.06311 0.26679 0.0
C206 C 0.6162 0.1194 0.30617 0.0
C207 C 0.64484 0.1215 0.25671 0.0
H208 H 0.53016 0.09422 0.34911 0.0
H209 H 0.64531 0.14216 0.34119 0.0
S210 S 0.55815 0.04772 0.13009 0.0
N211 N 0.50075 0.03372 0.17321 0.0
N212 N 0.62628 0.08668 0.16367 0.0
C213 C 0.60422 0.08974 0.21286 0.0
C214 C 0.53612 0.06039 0.21806 0.0
C215 C 0.49946 0.41693 0.21818 0.0
C216 C 0.52278 0.44763 0.26747 0.0
C217 C 0.46204 0.34988 0.21521 0.0
C218 C 0.4467 0.31144 0.26148 0.0
H219 H 0.51417 0.44436 0.18142 0.0
H220 H 0.44725 0.32808 0.17611 0.0
S221 S 0.48927 0.37134 0.40099 0.0
N222 N 0.52308 0.43657 0.3637 0.0
N223 N 0.45212 0.31094 0.35889 0.0
C224 C 0.46604 0.34255 0.3114 0.0
C225 C 0.50419 0.41057 0.31418 0.0
C226 C 0.88561 0.45496 0.21606 0.0
C227 C 0.89257 0.43132 0.26542 0.0
C228 C 0.85635 0.49285 0.21284 0.0
C229 C 0.83322 0.50835 0.25892 0.0
H230 H 0.89852 0.44031 0.17942 0.0
H231 H 0.84973 0.50796 0.1737 0.0
S232 S 0.84916 0.46473 0.39856 0.0
N233 N 0.88053 0.4307 0.36153 0.0
N234 N 0.82655 0.50241 0.35626 0.0
C235 C 0.84442 0.4885 0.30892 0.0
C236 C 0.87389 0.4499 0.31195 0.0
C237 C 0.06444 0.54501 0.78372 0.0
C238 C 0.05654 0.5154 0.73383 0.0
C239 C 0.09394 0.612 0.78783 0.0
C240 C 0.11639 0.65145 0.74213 0.0
H241 H 0.0521 0.51675 0.82001 0.0
H242 H 0.1014 0.63295 0.8273 0.0
S243 S 0.09746 0.59467 0.6015 0.0
N244 N 0.06679 0.52864 0.63775 0.0
N245 N 0.12101 0.65406 0.64464 0.0
C246 C 0.10411 0.62142 0.69167 0.0
C247 C 0.07446 0.5535 0.68775 0.0
C248 C 0.4522 0.89494 0.78394 0.0
C249 C 0.42883 0.90251 0.73466 0.0
C250 C 0.49003 0.86564 0.78686 0.0
C251 C 0.50569 0.84302 0.74054 0.0
H252 H 0.43719 0.90721 0.82071 0.0
H253 H 0.50478 0.85839 0.82596 0.0
S254 S 0.46323 0.8612 0.60106 0.0
N255 N 0.42885 0.89195 0.63841 0.0
N256 N 0.50066 0.83795 0.64312 0.0
C257 C 0.48637 0.85509 0.69063 0.0
C258 C 0.44779 0.88461 0.68791 0.0
C259 C 0.34463 0.47094 0.78654 0.0
C260 C 0.3058 0.45536 0.74036 0.0
C261 C 0.41175 0.50856 0.78345 0.0
C262 C 0.44218 0.53186 0.73412 0.0
H263 H 0.32307 0.45608 0.82566 0.0
H264 H 0.43945 0.52328 0.82015 0.0
S265 S 0.36487 0.49813 0.60078 0.0
N266 N 0.3047 0.46087 0.64298 0.0
N267 N 0.43041 0.53209 0.63794 0.0
C268 C 0.40473 0.51321 0.6875 0.0
C269 C 0.33665 0.47487 0.6904 0.0
C270 C 0.16584 0.20479 0.28743 0.0
C271 C 0.18141 0.1884 0.238 0.0
C272 C 0.12884 0.2346 0.28996 0.0
C273 C 0.10615 0.24879 0.24321 0.0
H274 H 0.1794 0.19144 0.32456 0.0
H275 H 0.11259 0.24074 0.3287 0.0
S276 S 0.1404 0.22393 0.10405 0.0
N277 N 0.17782 0.19577 0.14114 0.0
N278 N 0.10659 0.25072 0.14637 0.0
C279 C 0.12615 0.23824 0.19363 0.0
C280 C 0.16429 0.20818 0.19088 0.0
C281 C 0.00685 0.79211 0.28987 0.0
C282 C 0.97602 0.77526 0.2398 0.0
C283 C 0.07353 0.82933 0.2937 0.0
C284 C 0.11151 0.85087 0.24766 0.0
H285 H -0.02087 0.77935 0.32642 0.0
H286 H 0.09498 0.84643 0.33273 0.0
S287 S 0.05576 0.81332 0.10752 0.0
N288 N -0.01067 0.77669 0.14331 0.0
N289 N 0.1153 0.84818 0.15098 0.0
C290 C 0.08216 0.82971 0.19762 0.0
C291 C 0.01406 0.79142 0.19355 0.0
C292 C 0.74905 0.94197 0.19276 0.0
C293 C 0.76683 0.97874 0.23984 0.0
C294 C 0.71984 0.87501 0.19516 0.0
C295 C 0.70638 0.84325 0.24459 0.0
H296 H 0.7623 0.96517 0.15407 0.0
H297 H 0.71341 0.84862 0.15846 0.0
S298 S 0.73158 0.91649 0.37866 0.0
N299 N 0.75991 0.97778 0.33692 0.0
N300 N 0.70479 0.85186 0.34093 0.0
C301 C 0.7175 0.87886 0.29149 0.0
C302 C 0.74798 0.94682 0.28926 0.0
C303 C 0.19853 0.17249 0.71484 0.0
C304 C 0.1825 0.18823 0.76437 0.0
C305 C 0.22738 0.13461 0.71207 0.0
C306 C 0.24097 0.11121 0.75868 0.0
H307 H 0.18563 0.1867 0.67782 0.0
H308 H 0.2335 0.11857 0.67322 0.0
S309 S 0.2156 0.14446 0.89803 0.0
N310 N 0.18888 0.18332 0.86117 0.0
N311 N 0.24179 0.1103 0.85552 0.0
C312 C 0.23032 0.1309 0.80839 0.0
C313 C 0.20137 0.17001 0.81138 0.0
C314 C 0.93842 0.75889 0.81032 0.0
C315 C 0.97446 0.77334 0.76305 0.0
C316 C 0.8714 0.73022 0.80826 0.0
C317 C 0.83883 0.714 0.75905 0.0
H318 H 0.96229 0.77438 0.84868 0.0
H319 H 0.84563 0.72631 0.84481 0.0
S320 S 0.90991 0.73006 0.62517 0.0
N321 N 0.97191 0.76037 0.66646 0.0
N322 N 0.84586 0.70632 0.66308 0.0
C323 C 0.87365 0.72184 0.71226 0.0
C324 C 0.94169 0.75173 0.71411 0.0
C325 C 0.82404 0.08774 0.80239 0.0
C326 C 0.84512 0.11969 0.75329 0.0
C327 C 0.78647 0.02076 0.80435 0.0
C328 C 0.77037 -0.01591 0.75723 0.0
H329 H 0.84165 0.11403 0.8395 0.0
H330 H 0.77428 -0.00249 0.84304 0.0
S331 S 0.80583 0.04698 0.61854 0.0
N332 N 0.84099 0.11144 0.65675 0.0
N333 N 0.77046 -0.0145 0.65988 0.0
C334 C 0.78635 0.01622 0.70779 0.0
C335 C 0.8237 0.08422 0.70597 0.0
loop_
_geom_bond_atom_site_label_1
_geom_bond_atom_site_label_2
_geom_bond_distance
_geom_bond_site_symmetry_2
_ccdc_geom_bond_type
O0 Zn1 1.953 . S
O0 C16 1.225 . S
Zn1 O0 1.953 . S
Zn1 O2 1.949 . S
Zn1 O8 1.919 . S
Zn1 O13 1.924 . S
O2 Zn1 1.949 . S
O2 Zn3 1.923 . S
O2 Zn4 1.950 . S
O2 Zn5 1.945 . S
Zn3 O2 1.923 . S
Zn3 O6 1.933 1_545 S
Zn3 O9 1.941 . S
Zn3 O10 1.965 . S
Zn4 O2 1.950 . S
Zn4 O11 1.938 . S
Zn4 O12 1.906 . S
Zn4 O22 1.953 . S
Zn5 O2 1.945 . S
Zn5 O7 1.932 1_545 S
Zn5 O14 1.977 . S
Zn5 O15 1.910 . S
O6 Zn3 1.933 1_565 S
O6 C17 1.226 . S
O7 Zn5 1.932 1_565 S
O7 C17 1.307 . S
O8 Zn1 1.919 . S
O8 C19 1.253 . S
O9 Zn3 1.941 . S
O9 C19 1.283 . S
O10 Zn3 1.965 . S
O10 C18 1.303 . S
O11 Zn4 1.938 . S
O11 C18 1.247 . S
O12 Zn4 1.906 . S
O12 C20 1.304 . S
O13 Zn1 1.924 . S
O13 C21 1.311 . S
O14 Zn5 1.977 . S
O14 C20 1.272 . S
O15 Zn5 1.910 . S
O15 C21 1.231 . S
C16 O0 1.225 . S
C16 O22 1.298 . S
C17 O6 1.226 . S
C17 O7 1.307 . S
C18 O10 1.303 . S
C18 O11 1.247 . S
C19 O8 1.253 . S
C19 O9 1.283 . S
C20 O12 1.304 . S
C20 O14 1.272 . S
C21 O13 1.311 . S
C21 O15 1.231 . S
O22 Zn4 1.953 . S
O22 C16 1.298 . S
O23 Zn24 1.953 . S
O23 C39 1.225 . S
Zn24 O23 1.953 . S
Zn24 O25 1.949 . S
Zn24 O31 1.919 . S
Zn24 O36 1.924 . S
O25 Zn24 1.949 . S
O25 Zn26 1.923 . S
O25 Zn27 1.950 . S
O25 Zn28 1.945 . S
Zn26 O25 1.923 . S
Zn26 O29 1.933 . S
Zn26 O32 1.941 . S
Zn26 O33 1.965 . S
Zn27 O25 1.950 . S
Zn27 O34 1.938 . S
Zn27 O35 1.906 . S
Zn27 O45 1.953 . S
Zn28 O25 1.945 . S
Zn28 O30 1.932 . S
Zn28 O37 1.977 . S
Zn28 O38 1.910 . S
O29 Zn26 1.933 . S
O29 C40 1.226 . S
O30 Zn28 1.932 . S
O30 C40 1.307 . S
O31 Zn24 1.919 . S
O31 C42 1.253 . S
O32 Zn26 1.941 . S
O32 C42 1.283 . S
O33 Zn26 1.965 . S
O33 C41 1.303 . S
O34 Zn27 1.938 . S
O34 C41 1.247 . S
O35 Zn27 1.906 . S
O35 C43 1.304 . S
O36 Zn24 1.924 . S
O36 C44 1.311 . S
O37 Zn28 1.977 . S
O37 C43 1.272 . S
O38 Zn28 1.910 . S
O38 C44 1.231 . S
C39 O23 1.225 . S
C39 O45 1.298 . S
C40 O29 1.226 . S
C40 O30 1.307 . S
C41 O33 1.303 . S
C41 O34 1.247 . S
C42 O31 1.253 . S
C42 O32 1.283 . S
C43 O35 1.304 . S
C43 O37 1.272 . S
C44 O36 1.311 . S
C44 O38 1.231 . S
O45 Zn27 1.953 . S
O45 C39 1.298 . S
O46 Zn47 1.953 . S
O46 C62 1.225 . S
Zn47 O46 1.953 . S
Zn47 O48 1.949 . S
Zn47 O54 1.919 . S
Zn47 O59 1.924 . S
O48 Zn47 1.949 . S
O48 Zn49 1.923 . S
O48 Zn50 1.950 . S
O48 Zn51 1.945 . S
Zn49 O48 1.923 . S
Zn49 O52 1.933 1_655 S
Zn49 O55 1.941 . S
Zn49 O56 1.965 . S
Zn50 O48 1.950 . S
Zn50 O57 1.938 . S
Zn50 O58 1.906 . S
Zn50 O68 1.953 . S
Zn51 O48 1.945 . S
Zn51 O53 1.932 1_655 S
Zn51 O60 1.977 . S
Zn51 O61 1.910 . S
O52 Zn49 1.933 1_455 S
O52 C63 1.226 . S
O53 Zn51 1.932 1_455 S
O53 C63 1.307 . S
O54 Zn47 1.919 . S
O54 C65 1.253 . S
O55 Zn49 1.941 . S
O55 C65 1.283 . S
O56 Zn49 1.965 . S
O56 C64 1.303 . S
O57 Zn50 1.938 . S
O57 C64 1.247 . S
O58 Zn50 1.906 . S
O58 C66 1.304 . S
O59 Zn47 1.924 . S
O59 C67 1.311 . S
O60 Zn51 1.977 . S
O60 C66 1.272 . S
O61 Zn51 1.910 . S
O61 C67 1.231 . S
C62 O46 1.225 . S
C62 O68 1.298 . S
C63 O52 1.226 . S
C63 O53 1.307 . S
C64 O56 1.303 . S
C64 O57 1.247 . S
C65 O54 1.253 . S
C65 O55 1.283 . S
C66 O58 1.304 . S
C66 O60 1.272 . S
C67 O59 1.311 . S
C67 O61 1.231 . S
O68 Zn50 1.953 . S
O68 C62 1.298 . S
O69 Zn70 1.953 . S
O69 C85 1.225 . S
Zn70 O69 1.953 . S
Zn70 O71 1.949 . S
Zn70 O77 1.919 . S
Zn70 O82 1.924 . S
O71 Zn70 1.949 . S
O71 Zn72 1.923 . S
O71 Zn73 1.950 . S
O71 Zn74 1.945 . S
Zn72 O71 1.923 . S
Zn72 O75 1.933 1_455 S
Zn72 O78 1.941 . S
Zn72 O79 1.965 . S
Zn73 O71 1.950 . S
Zn73 O80 1.938 . S
Zn73 O81 1.906 . S
Zn73 O91 1.953 . S
Zn74 O71 1.945 . S
Zn74 O76 1.932 1_455 S
Zn74 O83 1.977 . S
Zn74 O84 1.910 . S
O75 Zn72 1.933 1_655 S
O75 C86 1.226 . S
O76 Zn74 1.932 1_655 S
O76 C86 1.307 . S
O77 Zn70 1.919 . S
O77 C88 1.253 . S
O78 Zn72 1.941 . S
O78 C88 1.283 . S
O79 Zn72 1.965 . S
O79 C87 1.303 . S
O80 Zn73 1.938 . S
O80 C87 1.247 . S
O81 Zn73 1.906 . S
O81 C89 1.304 . S
O82 Zn70 1.924 . S
O82 C90 1.311 . S
O83 Zn74 1.977 . S
O83 C89 1.272 . S
O84 Zn74 1.910 . S
O84 C90 1.231 . S
C85 O69 1.225 . S
C85 O91 1.298 . S
C86 O75 1.226 . S
C86 O76 1.307 . S
C87 O79 1.303 . S
C87 O80 1.247 . S
C88 O77 1.253 . S
C88 O78 1.283 . S
C89 O81 1.304 . S
C89 O83 1.272 . S
C90 O82 1.311 . S
C90 O84 1.231 . S
O91 Zn73 1.953 . S
O91 C85 1.298 . S
O92 Zn93 1.953 . S
O92 C108 1.225 . S
Zn93 O92 1.953 . S
Zn93 O94 1.949 . S
Zn93 O100 1.919 . S
Zn93 O105 1.924 . S
O94 Zn93 1.949 . S
O94 Zn95 1.923 . S
O94 Zn96 1.950 . S
O94 Zn97 1.945 . S
Zn95 O94 1.923 . S
Zn95 O98 1.933 1_565 S
Zn95 O101 1.941 . S
Zn95 O102 1.965 . S
Zn96 O94 1.950 . S
Zn96 O103 1.938 . S
Zn96 O104 1.906 . S
Zn96 O114 1.953 . S
Zn97 O94 1.945 . S
Zn97 O99 1.932 1_565 S
Zn97 O106 1.977 . S
Zn97 O107 1.910 . S
O98 Zn95 1.933 1_545 S
O98 C109 1.226 . S
O99 Zn97 1.932 1_545 S
O99 C109 1.307 . S
O100 Zn93 1.919 . S
O100 C111 1.253 . S
O101 Zn95 1.941 . S
O101 C111 1.283 . S
O102 Zn95 1.965 . S
O102 C110 1.303 . S
O103 Zn96 1.938 . S
O103 C110 1.247 . S
O104 Zn96 1.906 . S
O104 C112 1.304 . S
O105 Zn93 1.924 . S
O105 C113 1.311 . S
O106 Zn97 1.977 . S
O106 C112 1.272 . S
O107 Zn97 1.910 . S
O107 C113 1.231 . S
C108 O92 1.225 . S
C108 O114 1.298 . S
C109 O98 1.226 . S
C109 O99 1.307 . S
C110 O102 1.303 . S
C110 O103 1.247 . S
C111 O100 1.253 . S
C111 O101 1.283 . S
C112 O104 1.304 . S
C112 O106 1.272 . S
C113 O105 1.311 . S
C113 O107 1.231 . S
O114 Zn96 1.953 . S
O114 C108 1.298 . S
O115 Zn116 1.953 . S
O115 C131 1.225 . S
Zn116 O115 1.953 . S
Zn116 O117 1.949 . S
Zn116 O123 1.919 . S
Zn116 O128 1.924 . S
O117 Zn116 1.949 . S
O117 Zn118 1.923 . S
O117 Zn119 1.950 . S
O117 Zn120 1.945 . S
Zn118 O117 1.923 . S
Zn118 O121 1.933 . S
Zn118 O124 1.941 . S
Zn118 O125 1.965 . S
Zn119 O117 1.950 . S
Zn119 O126 1.938 . S
Zn119 O127 1.906 . S
Zn119 O137 1.953 . S
Zn120 O117 1.945 . S
Zn120 O122 1.932 . S
Zn120 O129 1.977 . S
Zn120 O130 1.910 . S
O121 Zn118 1.933 . S
O121 C132 1.226 . S
O122 Zn120 1.932 . S
O122 C132 1.307 . S
O123 Zn116 1.919 . S
O123 C134 1.253 . S
O124 Zn118 1.941 . S
O124 C134 1.283 . S
O125 Zn118 1.965 . S
O125 C133 1.303 . S
O126 Zn119 1.938 . S
O126 C133 1.247 . S
O127 Zn119 1.906 . S
O127 C135 1.304 . S
O128 Zn116 1.924 . S
O128 C136 1.311 . S
O129 Zn120 1.977 . S
O129 C135 1.272 . S
O130 Zn120 1.910 . S
O130 C136 1.231 . S
C131 O115 1.225 . S
C131 O137 1.298 . S
C132 O121 1.226 . S
C132 O122 1.307 . S
C133 O125 1.303 . S
C133 O126 1.247 . S
C134 O123 1.253 . S
C134 O124 1.283 . S
C135 O127 1.304 . S
C135 O129 1.272 . S
C136 O128 1.311 . S
C136 O130 1.231 . S
O137 Zn119 1.953 . S
O137 C131 1.298 . S
C138 C139 1.369 . S
C138 C140 1.419 1_556 S
C138 H142 0.930 . S
C139 C138 1.369 . S
C139 C148 1.429 1_565 S
C140 C138 1.419 1_554 S
C140 C141 1.363 1_565 S
C140 H143 0.929 . S
C141 C140 1.363 1_545 S
C141 C147 1.428 . S
H142 C138 0.930 . S
H143 C140 0.929 . S
S144 N145 1.613 . S
S144 N146 1.610 1_556 S
N145 S144 1.613 . S
N145 C148 1.350 . S
N146 S144 1.610 1_554 S
N146 C147 1.351 . S
C147 C141 1.428 . S
C147 N146 1.351 . S
C147 C148 1.434 1_554 S
C148 C139 1.429 1_545 S
C148 N145 1.350 . S
C148 C147 1.434 1_556 S
C149 C150 1.369 . S
C149 C151 1.419 . S
C149 H153 0.930 . S
C150 C149 1.369 . S
C150 C159 1.429 . S
C151 C149 1.419 . S
C151 C152 1.363 . S
C151 H154 0.929 . S
C152 C151 1.363 . S
C152 C158 1.428 . S
H153 C149 0.930 . S
H154 C151 0.929 . S
S155 N156 1.613 . S
S155 N157 1.610 . S
N156 S155 1.613 . S
N156 C159 1.350 . S
N157 S155 1.610 . S
N157 C158 1.351 . S
C158 C152 1.428 . S
C158 N157 1.351 . S
C158 C159 1.434 . S
C159 C150 1.429 . S
C159 N156 1.350 . S
C159 C158 1.434 . S
C160 C161 1.369 1_455 S
C160 C162 1.419 1_554 S
C160 H164 0.930 . S
C161 C160 1.369 1_655 S
C161 C170 1.429 . S
C162 C160 1.419 1_556 S
C162 C163 1.363 . S
C162 H165 0.929 . S
C163 C162 1.363 . S
C163 C169 1.428 1_455 S
H164 C160 0.930 . S
H165 C162 0.929 . S
S166 N167 1.613 . S
S166 N168 1.610 . S
N167 S166 1.613 . S
N167 C170 1.350 1_556 S
N168 S166 1.610 . S
N168 C169 1.351 . S
C169 C163 1.428 1_655 S
C169 N168 1.351 . S
C169 C170 1.434 1_556 S
C170 C161 1.429 . S
C170 N167 1.350 1_554 S
C170 C169 1.434 1_554 S
C171 C172 1.369 . S
C171 C173 1.419 . S
C171 H175 0.930 . S
C172 C171 1.369 . S
C172 C181 1.429 1_545 S
C173 C171 1.419 . S
C173 C174 1.363 1_545 S
C173 H176 0.929 . S
C174 C173 1.363 1_565 S
C174 C180 1.428 . S
H175 C171 0.930 . S
H176 C173 0.929 . S
S177 N178 1.613 . S
S177 N179 1.610 . S
N178 S177 1.613 . S
N178 C181 1.350 . S
N179 S177 1.610 . S
N179 C180 1.351 . S
C180 C174 1.428 . S
C180 N179 1.351 . S
C180 C181 1.434 . S
C181 C172 1.429 1_565 S
C181 N178 1.350 . S
C181 C180 1.434 . S
C182 C183 1.369 . S
C182 C184 1.419 1_556 S
C182 H186 0.930 . S
C183 C182 1.369 . S
C183 C192 1.428 . S
C184 C182 1.419 1_554 S
C184 C185 1.363 . S
C184 H187 0.929 . S
C185 C184 1.363 . S
C185 C191 1.428 . S
H186 C182 0.930 . S
H187 C184 0.929 . S
S188 N189 1.613 . S
S188 N190 1.610 . S
N189 S188 1.613 . S
N189 C192 1.350 1_554 S
N190 S188 1.610 . S
N190 C191 1.351 . S
C191 C185 1.428 . S
C191 N190 1.351 . S
C191 C192 1.434 1_554 S
C192 C183 1.428 . S
C192 N189 1.350 1_556 S
C192 C191 1.434 1_556 S
C193 C194 1.369 . S
C193 C195 1.419 . S
C193 H197 0.930 . S
C194 C193 1.369 . S
C194 C203 1.429 1_655 S
C195 C193 1.419 . S
C195 C196 1.363 1_655 S
C195 H198 0.929 . S
C196 C195 1.363 1_455 S
C196 C202 1.428 . S
H197 C193 0.930 . S
H198 C195 0.929 . S
S199 N200 1.613 . S
S199 N201 1.610 . S
N200 S199 1.613 . S
N200 C203 1.350 . S
N201 S199 1.610 . S
N201 C202 1.351 . S
C202 C196 1.428 . S
C202 N201 1.351 . S
C202 C203 1.434 . S
C203 C194 1.429 1_455 S
C203 N200 1.350 . S
C203 C202 1.434 . S
C204 C205 1.369 . S
C204 C206 1.419 . S
C204 H208 0.930 . S
C205 C204 1.369 . S
C205 C214 1.429 . S
C206 C204 1.419 . S
C206 C207 1.363 . S
C206 H209 0.929 . S
C207 C206 1.363 . S
C207 C213 1.428 . S
H208 C204 0.930 . S
H209 C206 0.929 . S
S210 N211 1.613 . S
S210 N212 1.610 . S
N211 S210 1.613 . S
N211 C214 1.350 . S
N212 S210 1.610 . S
N212 C213 1.351 . S
C213 C207 1.428 . S
C213 N212 1.351 . S
C213 C214 1.434 . S
C214 C205 1.429 . S
C214 N211 1.350 . S
C214 C213 1.434 . S
C215 C216 1.369 . S
C215 C217 1.419 . S
C215 H219 0.930 . S
C216 C215 1.369 . S
C216 C225 1.429 . S
C217 C215 1.419 . S
C217 C218 1.363 . S
C217 H220 0.929 . S
C218 C217 1.363 . S
C218 C224 1.428 . S
H219 C215 0.930 . S
H220 C217 0.929 . S
S221 N222 1.613 . S
S221 N223 1.610 . S
N222 S221 1.613 . S
N222 C225 1.350 . S
N223 S221 1.610 . S
N223 C224 1.351 . S
C224 C218 1.428 . S
C224 N223 1.351 . S
C224 C225 1.434 . S
C225 C216 1.429 . S
C225 N222 1.350 . S
C225 C224 1.434 . S
C226 C227 1.369 . S
C226 C228 1.419 . S
C226 H230 0.930 . S
C227 C226 1.369 . S
C227 C236 1.429 . S
C228 C226 1.419 . S
C228 C229 1.363 . S
C228 H231 0.929 . S
C229 C228 1.363 . S
C229 C235 1.428 . S
H230 C226 0.930 . S
H231 C228 0.929 . S
S232 N233 1.613 . S
S232 N234 1.610 . S
N233 S232 1.613 . S
N233 C236 1.350 . S
N234 S232 1.610 . S
N234 C235 1.351 . S
C235 C229 1.428 . S
C235 N234 1.351 . S
C235 C236 1.434 . S
C236 C227 1.429 . S
C236 N233 1.350 . S
C236 C235 1.434 . S
C237 C238 1.369 . S
C237 C239 1.419 . S
C237 H241 0.930 . S
C238 C237 1.369 . S
C238 C247 1.429 . S
C239 C237 1.419 . S
C239 C240 1.363 . S
C239 H242 0.929 . S
C240 C239 1.363 . S
C240 C246 1.428 . S
H241 C237 0.930 . S
H242 C239 0.929 . S
S243 N244 1.613 . S
S243 N245 1.610 . S
N244 S243 1.613 . S
N244 C247 1.350 . S
N245 S243 1.610 . S
N245 C246 1.351 . S
C246 C240 1.428 . S
C246 N245 1.351 . S
C246 C247 1.434 . S
C247 C238 1.429 . S
C247 N244 1.350 . S
C247 C246 1.434 . S
C248 C249 1.369 . S
C248 C250 1.419 . S
C248 H252 0.930 . S
C249 C248 1.369 . S
C249 C258 1.429 . S
C250 C248 1.419 . S
C250 C251 1.363 . S
C250 H253 0.929 . S
C251 C250 1.363 . S
C251 C257 1.428 . S
H252 C248 0.930 . S
H253 C250 0.929 . S
S254 N255 1.613 1_545 S
S254 N256 1.610 1_545 S
N255 S254 1.613 1_565 S
N255 C258 1.350 . S
N256 S254 1.610 1_565 S
N256 C257 1.351 . S
C257 C251 1.428 . S
C257 N256 1.351 . S
C257 C258 1.434 . S
C258 C249 1.429 . S
C258 N255 1.350 . S
C258 C257 1.434 . S
C259 C260 1.369 . S
C259 C261 1.419 . S
C259 H263 0.930 . S
C260 C259 1.369 . S
C260 C269 1.429 . S
C261 C259 1.419 . S
C261 C262 1.363 . S
C261 H264 0.929 . S
C262 C261 1.363 . S
C262 C268 1.428 . S
H263 C259 0.930 . S
H264 C261 0.929 . S
S265 N266 1.613 . S
S265 N267 1.610 . S
N266 S265 1.613 . S
N266 C269 1.350 . S
N267 S265 1.610 . S
N267 C268 1.351 . S
C268 C262 1.428 . S
C268 N267 1.351 . S
C268 C269 1.434 . S
C269 C260 1.429 . S
C269 N266 1.350 . S
C269 C268 1.434 . S
C270 C271 1.369 . S
C270 C272 1.419 . S
C270 H274 0.930 . S
C271 C270 1.369 . S
C271 C280 1.429 . S
C272 C270 1.419 . S
C272 C273 1.363 . S
C272 H275 0.929 . S
C273 C272 1.363 . S
C273 C279 1.428 . S
H274 C270 0.930 . S
H275 C272 0.929 . S
S276 N277 1.613 . S
S276 N278 1.610 . S
N277 S276 1.613 . S
N277 C280 1.350 . S
N278 S276 1.610 . S
N278 C279 1.351 . S
C279 C273 1.428 . S
C279 N278 1.351 . S
C279 C280 1.434 . S
C280 C271 1.429 . S
C280 N277 1.350 . S
C280 C279 1.434 . S
C281 C282 1.369 . S
C281 C283 1.419 . S
C281 H285 0.930 . S
C282 C281 1.369 . S
C282 C291 1.429 . S
C283 C281 1.419 . S
C283 C284 1.363 . S
C283 H286 0.929 . S
C284 C283 1.363 . S
C284 C290 1.428 . S
H285 C281 0.930 . S
H286 C283 0.929 . S
S287 N288 1.613 . S
S287 N289 1.610 . S
N288 S287 1.613 . S
N288 C291 1.350 . S
N289 S287 1.610 . S
N289 C290 1.351 . S
C290 C284 1.428 . S
C290 N289 1.351 . S
C290 C291 1.434 . S
C291 C282 1.429 . S
C291 N288 1.350 . S
C291 C290 1.434 . S
C292 C293 1.369 . S
C292 C294 1.419 . S
C292 H296 0.930 . S
C293 C292 1.369 . S
C293 C302 1.429 . S
C294 C292 1.419 . S
C294 C295 1.363 . S
C294 H297 0.929 . S
C295 C294 1.363 . S
C295 C301 1.428 . S
H296 C292 0.930 . S
H297 C294 0.929 . S
S298 N299 1.613 . S
S298 N300 1.610 . S
N299 S298 1.613 . S
N299 C302 1.350 . S
N300 S298 1.610 . S
N300 C301 1.351 . S
C301 C295 1.428 . S
C301 N300 1.351 . S
C301 C302 1.434 . S
C302 C293 1.429 . S
C302 N299 1.350 . S
C302 C301 1.434 . S
C303 C304 1.369 . S
C303 C305 1.419 . S
C303 H307 0.930 . S
C304 C303 1.369 . S
C304 C313 1.429 . S
C305 C303 1.419 . S
C305 C306 1.363 . S
C305 H308 0.929 . S
C306 C305 1.363 . S
C306 C312 1.428 . S
H307 C303 0.930 . S
H308 C305 0.929 . S
S309 N310 1.613 . S
S309 N311 1.610 . S
N310 S309 1.613 . S
N310 C313 1.350 . S
N311 S309 1.610 . S
N311 C312 1.351 . S
C312 C306 1.428 . S
C312 N311 1.351 . S
C312 C313 1.434 . S
C313 C304 1.429 . S
C313 N310 1.350 . S
C313 C312 1.434 . S
C314 C315 1.369 . S
C314 C316 1.419 . S
C314 H318 0.930 . S
C315 C314 1.369 . S
C315 C324 1.429 . S
C316 C314 1.419 . S
C316 C317 1.363 . S
C316 H319 0.929 . S
C317 C316 1.363 . S
C317 C323 1.428 . S
H318 C314 0.930 . S
H319 C316 0.929 . S
S320 N321 1.613 . S
S320 N322 1.610 . S
N321 S320 1.613 . S
N321 C324 1.350 . S
N322 S320 1.610 . S
N322 C323 1.351 . S
C323 C317 1.428 . S
C323 N322 1.351 . S
C323 C324 1.434 . S
C324 C315 1.429 . S
C324 N321 1.350 . S
C324 C323 1.434 . S
C325 C326 1.369 . S
C325 C327 1.419 . S
C325 H329 0.930 . S
C326 C325 1.369 . S
C326 C335 1.429 . S
C327 C325 1.419 . S
C327 C328 1.363 . S
C327 H330 0.929 . S
C328 C327 1.363 . S
C328 C334 1.428 . S
H329 C325 0.930 . S
H330 C327 0.929 . S
S331 N332 1.613 . S
S331 N333 1.610 . S
N332 S331 1.613 . S
N332 C335 1.350 . S
N333 S331 1.610 . S
N333 C334 1.351 . S
C334 C328 1.428 . S
C334 N333 1.351 . S
C334 C335 1.434 . S
C335 C326 1.429 . S
C335 N332 1.350 . S
C335 C334 1.434 . S
C139 C111 1.733 . S
C141 C19 1.734 . S
C150 C135 1.747 . S
C152 C43 1.748 . S
C161 C65 1.736 . S
C163 C88 1.734 . S
C172 C20 1.746 . S
C174 C112 1.748 . S
C183 C134 1.737 . S
C185 C42 1.735 . S
C194 C66 1.746 . S
C196 C89 1.747 . S
C205 C18 1.320 . S
C207 C62 1.341 . S
C216 C41 1.312 . S
C218 C16 1.344 . S
C227 C64 1.313 . S
C229 C39 1.344 . S
C238 C87 1.314 . S
C240 C108 1.342 . S
C249 C110 1.315 . S
C251 C131 1.342 . S
C260 C85 1.341 . S
C262 C133 1.316 . S
C271 C21 1.126 . S
C273 C63 1.072 . S
C282 C44 1.126 1_455 S
C284 C17 1.069 . S
C293 C67 1.132 1_565 S
C295 C40 1.077 . S
C304 C90 1.126 . S
C306 C109 1.068 . S
C315 C113 1.131 1_655 S
C317 C132 1.079 . S
C326 C86 1.073 . S
C328 C136 1.130 1_545 S
