# Generated by pormake.
# Topology wiy, (3)-cn, num edge types: 1
# Building blocks:
#     Node 0, Type 0, BuildingBlock: OLANEW_clean_sbu_2, # of connection points: 3
#     Node 1, Type 0, BuildingBlock: OLANEW_clean_sbu_2, # of connection points: 3
#     Node 2, Type 0, BuildingBlock: OLANEW_clean_sbu_2, # of connection points: 3
#     Node 3, Type 0, BuildingBlock: OLANEW_clean_sbu_2, # of connection points: 3
#     Node 4, Type 0, BuildingBlock: OLANEW_clean_sbu_2, # of connection points: 3
#     Node 5, Type 0, BuildingBlock: OLANEW_clean_sbu_2, # of connection points: 3
#     Node 6, Type 0, BuildingBlock: OLANEW_clean_sbu_2, # of connection points: 3
#     Node 7, Type 0, BuildingBlock: OLANEW_clean_sbu_2, # of connection points: 3
#     Node 8, Type 0, BuildingBlock: OLANEW_clean_sbu_2, # of connection points: 3
#     Node 9, Type 0, BuildingBlock: OLANEW_clean_sbu_2, # of connection points: 3
#     Node 10, Type 0, BuildingBlock: OLANEW_clean_sbu_2, # of connection points: 3
#     Node 11, Type 0, BuildingBlock: OLANEW_clean_sbu_2, # of connection points: 3
#     Edge 12, Type (0, 0), BuildingBlock: FUNLAD_clean_linker_1, # of connection points: 2
#     Edge 13, Type (0, 0), BuildingBlock: FUNLAD_clean_linker_1, # of connection points: 2
#     Edge 14, Type (0, 0), BuildingBlock: FUNLAD_clean_linker_1, # of connection points: 2
#     Edge 15, Type (0, 0), BuildingBlock: FUNLAD_clean_linker_1, # of connection points: 2
#     Edge 16, Type (0, 0), BuildingBlock: FUNLAD_clean_linker_1, # of connection points: 2
#     Edge 17, Type (0, 0), BuildingBlock: FUNLAD_clean_linker_1, # of connection points: 2
#     Edge 18, Type (0, 0), BuildingBlock: FUNLAD_clean_linker_1, # of connection points: 2
#     Edge 19, Type (0, 0), BuildingBlock: FUNLAD_clean_linker_1, # of connection points: 2
#     Edge 20, Type (0, 0), BuildingBlock: FUNLAD_clean_linker_1, # of connection points: 2
#     Edge 21, Type (0, 0), BuildingBlock: FUNLAD_clean_linker_1, # of connection points: 2
#     Edge 22, Type (0, 0), BuildingBlock: FUNLAD_clean_linker_1, # of connection points: 2
#     Edge 23, Type (0, 0), BuildingBlock: FUNLAD_clean_linker_1, # of connection points: 2
#     Edge 24, Type (0, 0), BuildingBlock: FUNLAD_clean_linker_1, # of connection points: 2
#     Edge 25, Type (0, 0), BuildingBlock: FUNLAD_clean_linker_1, # of connection points: 2
#     Edge 26, Type (0, 0), BuildingBlock: FUNLAD_clean_linker_1, # of connection points: 2
#     Edge 27, Type (0, 0), BuildingBlock: FUNLAD_clean_linker_1, # of connection points: 2
#     Edge 28, Type (0, 0), BuildingBlock: FUNLAD_clean_linker_1, # of connection points: 2
#     Edge 29, Type (0, 0), BuildingBlock: FUNLAD_clean_linker_1, # of connection points: 2
# Relax obj value: 0.012
# Max RMSD: 0.019
# Mean RMSD: 0.019
data_MOF--net-wiy--node1-OLANEW_clean_sbu_2--edge1-FUNLAD_clean_linker_1
_symmetry_space_group_name_H-M    P1
_symmetry_Int_Tables_number       1
_symmetry_cell_setting            triclinic
loop_
_symmetry_equiv_pos_as_xyz
'x, y, z'
_cell_length_a     61.177397
_cell_length_b     61.045449
_cell_length_c     28.927642
_cell_angle_alpha  90.024949
_cell_angle_beta   89.830601
_cell_angle_gamma 120.08156
loop_
_atom_site_label
_atom_site_type_symbol
_atom_site_fract_x
_atom_site_fract_y
_atom_site_fract_z
_atom_type_partial_charge
O0 O 0.11533 0.45231 0.05502 0.0
Cd1 Cd 0.11827 0.41405 0.04615 0.0
O2 O 0.07465 0.43087 0.0711 0.0
Cd3 Cd 0.07018 0.39519 0.04544 0.0
O4 O 0.05631 0.369 0.98709 0.0
C5 C 0.03279 0.35824 0.979 0.0
O6 O 0.01816 0.36167 0.00792 0.0
C7 C 0.09517 0.45185 0.06763 0.0
C8 C 0.14379 0.40949 0.12188 0.0
O9 O 0.15575 0.42089 0.08499 0.0
O10 O 0.11978 0.39987 0.12278 0.0
O11 O 0.66768 0.13906 0.17722 0.0
Cd12 Cd 0.70676 0.13731 0.17334 0.0
O13 O 0.64853 0.10704 0.22561 0.0
Cd14 Cd 0.67548 0.09424 0.21236 0.0
O15 O 0.68292 0.0684 0.17209 0.0
C16 C 0.68305 0.07074 0.12847 0.0
O17 O 0.68075 0.08934 0.11093 0.0
C18 C 0.649 0.1252 0.20322 0.0
C19 C 0.73506 0.15716 0.2537 0.0
O20 O 0.73597 0.17171 0.22092 0.0
O21 O 0.72109 0.13321 0.24845 0.0
O22 O 0.52871 0.6675 0.43708 0.0
Cd23 Cd 0.56929 0.70613 0.42482 0.0
O24 O 0.5356 0.64506 0.38548 0.0
Cd25 Cd 0.57361 0.67416 0.36482 0.0
O26 O 0.60561 0.68481 0.3183 0.0
C27 C 0.59933 0.67551 0.278 0.0
O28 O 0.5752 0.66196 0.26785 0.0
C29 C 0.52134 0.64689 0.41539 0.0
C30 C 0.58066 0.73864 0.49999 0.0
O31 O 0.56606 0.73795 0.46765 0.0
O32 O 0.59025 0.72426 0.49665 0.0
O33 O 0.86099 0.52845 0.59473 0.0
Cd34 Cd 0.86781 0.57138 0.58848 0.0
O35 O 0.89924 0.53941 0.57013 0.0
Cd36 Cd 0.91046 0.57851 0.55307 0.0
O37 O 0.93209 0.61021 0.50611 0.0
C38 C 0.94519 0.60567 0.47774 0.0
O39 O 0.9444 0.58378 0.48025 0.0
C40 C 0.87776 0.52266 0.58534 0.0
C41 C 0.83559 0.57744 0.64858 0.0
O42 O 0.82898 0.57009 0.60689 0.0
O43 O 0.85753 0.58224 0.66182 0.0
O44 O 0.34823 0.8946 0.76425 0.0
Cd45 Cd 0.30948 0.89416 0.74211 0.0
O46 O 0.3543 0.88461 0.6941 0.0
Cd47 Cd 0.32636 0.89213 0.66254 0.0
O48 O 0.32047 0.91732 0.61737 0.0
C49 C 0.3341 0.94076 0.62627 0.0
O50 O 0.34881 0.94772 0.66271 0.0
C51 C 0.36055 0.88867 0.73646 0.0
C52 C 0.27168 0.86539 0.80596 0.0
O53 O 0.2768 0.85486 0.7726 0.0
O54 O 0.28398 0.88958 0.8087 0.0
O55 O 0.45788 0.34741 0.92707 0.0
Cd56 Cd 0.41517 0.3121 0.91425 0.0
O57 O 0.45484 0.37207 0.87504 0.0
Cd58 Cd 0.41626 0.34541 0.85331 0.0
O59 O 0.38373 0.33554 0.80916 0.0
C60 C 0.38532 0.3307 0.76701 0.0
O61 O 0.40537 0.32996 0.75286 0.0
C62 C 0.46753 0.36835 0.90557 0.0
C63 C 0.41036 0.26838 0.9541 0.0
O64 O 0.41674 0.27367 0.9116 0.0
O65 O 0.40582 0.28347 0.97761 0.0
O66 O 0.52926 0.87812 0.81836 0.0
Cd67 Cd 0.56416 0.87183 0.84127 0.0
O68 O 0.55172 0.90683 0.76581 0.0
Cd69 Cd 0.58713 0.9137 0.79674 0.0
O70 O 0.61629 0.93606 0.84745 0.0
C71 C 0.62989 0.95964 0.8395 0.0
O72 O 0.62718 0.96879 0.80025 0.0
C73 C 0.53057 0.89227 0.78496 0.0
C74 C 0.56837 0.84055 0.77597 0.0
O75 O 0.55275 0.83124 0.80969 0.0
O76 O 0.58249 0.86466 0.77344 0.0
O77 O 0.64953 0.54048 0.9589 0.0
Cd78 Cd 0.68933 0.57828 0.97932 0.0
O79 O 0.64139 0.56004 0.90345 0.0
Cd80 Cd 0.6692 0.59709 0.93032 0.0
O81 O 0.67441 0.62484 0.98313 0.0
C82 C 0.66103 0.6353 0.97918 0.0
O83 O 0.6469 0.63064 0.94233 0.0
C84 C 0.63601 0.5398 0.92499 0.0
C85 C 0.7274 0.5813 0.92198 0.0
O86 O 0.72277 0.57004 0.96114 0.0
O87 O 0.71443 0.59159 0.9102 0.0
O88 O 0.1384 0.65441 0.0985 0.0
Cd89 Cd 0.13724 0.69288 0.11709 0.0
O90 O 0.09726 0.62909 0.10433 0.0
Cd91 Cd 0.08894 0.65805 0.12828 0.0
O92 O 0.06639 0.66563 0.17736 0.0
C93 C 0.04364 0.64778 0.18104 0.0
O94 O 0.03561 0.62799 0.15391 0.0
C95 C 0.11913 0.63242 0.09595 0.0
C96 C 0.16729 0.73124 0.05509 0.0
O97 O 0.17691 0.72669 0.09047 0.0
O98 O 0.14336 0.71784 0.04901 0.0
O99 O 0.46184 0.10541 0.21489 0.0
Cd100 Cd 0.41764 0.0947 0.21108 0.0
O101 O 0.46702 0.11958 0.28636 0.0
Cd102 Cd 0.42697 0.10655 0.29664 0.0
O103 O 0.39275 0.07927 0.33315 0.0
C104 C 0.39749 0.06847 0.36592 0.0
O105 O 0.42113 0.07503 0.37405 0.0
C106 C 0.47599 0.11558 0.24976 0.0
C107 C 0.41331 0.13354 0.16985 0.0
O108 O 0.41309 0.11591 0.14539 0.0
O109 O 0.41537 0.13274 0.21377 0.0
O110 O 0.34148 0.468 0.43685 0.0
Cd111 Cd 0.30178 0.42821 0.44833 0.0
O112 O 0.35685 0.4503 0.3906 0.0
Cd113 Cd 0.32873 0.41223 0.41289 0.0
O114 O 0.32033 0.38296 0.46449 0.0
C115 C 0.32981 0.36876 0.45912 0.0
O116 O 0.34224 0.37057 0.42091 0.0
C117 C 0.35866 0.46996 0.40939 0.0
C118 C 0.26959 0.41946 0.37382 0.0
O119 O 0.26867 0.43119 0.40987 0.0
O120 O 0.28544 0.41159 0.37312 0.0
O121 O 0.85915 0.33561 0.60901 0.0
Cd122 Cd 0.84932 0.29208 0.62265 0.0
O123 O 0.89748 0.3488 0.58216 0.0
Cd124 Cd 0.89771 0.31541 0.60865 0.0
O125 O 0.90993 0.30178 0.6674 0.0
C126 C 0.93355 0.31127 0.67302 0.0
O127 O 0.94909 0.32679 0.64147 0.0
C128 C 0.87941 0.35283 0.59056 0.0
C129 C 0.82202 0.26197 0.54802 0.0
O130 O 0.81099 0.26674 0.58092 0.0
O131 O 0.84597 0.27113 0.55044 0.0
H132 H 0.14621 0.39955 0.19429 0.0
C133 C 0.15717 0.40805 0.16308 0.0
H134 H 0.19353 0.42686 0.13297 0.0
H135 H 0.25405 0.47002 0.31734 0.0
H136 H 0.26045 0.50821 0.27955 0.0
H137 H 0.23717 0.50593 0.20856 0.0
H138 H 0.20751 0.46546 0.17474 0.0
C139 C 0.18231 0.41761 0.16355 0.0
C140 C 0.19588 0.41859 0.20688 0.0
C141 C 0.21295 0.44243 0.22656 0.0
C142 C 0.22602 0.44373 0.26798 0.0
C143 C 0.2433 0.46785 0.28634 0.0
C144 C 0.24722 0.48997 0.26494 0.0
C145 C 0.23414 0.48869 0.22495 0.0
C146 C 0.21719 0.46528 0.20584 0.0
H147 H 0.25626 0.40695 0.3027 0.0
C148 C 0.25345 0.41558 0.33334 0.0
H149 H 0.23366 0.43225 0.36273 0.0
H150 H 0.16667 0.36988 0.17583 0.0
H151 H 0.15876 0.33161 0.21551 0.0
H152 H 0.17866 0.33378 0.29071 0.0
H153 H 0.20701 0.37426 0.32615 0.0
C154 C 0.23609 0.42292 0.3328 0.0
C155 C 0.22185 0.42118 0.28995 0.0
C156 C 0.20441 0.3973 0.27077 0.0
C157 C 0.19191 0.39602 0.22857 0.0
C158 C 0.17582 0.37197 0.20877 0.0
C159 C 0.17124 0.34983 0.23103 0.0
C160 C 0.18252 0.35105 0.27328 0.0
C161 C 0.19891 0.37444 0.29309 0.0
H162 H 0.78839 0.24409 0.50352 0.0
C163 C 0.80735 0.24709 0.50781 0.0
H164 H 0.83563 0.24065 0.48059 0.0
H165 H 0.7248 0.1655 0.37214 0.0
H166 H 0.70822 0.14704 0.44719 0.0
H167 H 0.73501 0.16237 0.51669 0.0
H168 H 0.77826 0.19694 0.5116 0.0
C169 C 0.8166 0.23748 0.47662 0.0
C170 C 0.8022 0.22447 0.434 0.0
C171 C 0.77765 0.20285 0.43705 0.0
C172 C 0.7629 0.19262 0.39642 0.0
C173 C 0.73748 0.1729 0.40124 0.0
C174 C 0.7276 0.16227 0.44428 0.0
C175 C 0.74263 0.171 0.48344 0.0
C176 C 0.76736 0.19104 0.48008 0.0
H177 H 0.75199 0.1547 0.31939 0.0
C178 C 0.74953 0.16749 0.29668 0.0
H179 H 0.75635 0.20456 0.28631 0.0
H180 H 0.84892 0.2654 0.41533 0.0
H181 H 0.86685 0.28144 0.33974 0.0
H182 H 0.84277 0.2612 0.26895 0.0
H183 H 0.80044 0.22503 0.27341 0.0
C184 C 0.75869 0.19175 0.30914 0.0
C185 C 0.7736 0.20248 0.35231 0.0
C186 C 0.79866 0.22319 0.34914 0.0
C187 C 0.81283 0.23441 0.38997 0.0
C188 C 0.83743 0.25573 0.38561 0.0
C189 C 0.84798 0.26521 0.34235 0.0
C190 C 0.83441 0.25385 0.30251 0.0
C191 C 0.81006 0.23312 0.30562 0.0
H192 H 0.5532 0.80435 0.73891 0.0
C193 C 0.56883 0.82374 0.73988 0.0
H194 H 0.60271 0.85119 0.70844 0.0
H195 H 0.56671 0.73514 0.62058 0.0
H196 H 0.57076 0.72297 0.69828 0.0
H197 H 0.58349 0.75347 0.76257 0.0
H198 H 0.59129 0.79606 0.74961 0.0
C199 C 0.58721 0.83174 0.7078 0.0
C200 C 0.58541 0.81531 0.66802 0.0
C201 C 0.58297 0.7912 0.67552 0.0
C202 C 0.57766 0.7743 0.63779 0.0
C203 C 0.57251 0.74937 0.64721 0.0
C204 C 0.5745 0.74202 0.69185 0.0
C205 C 0.58152 0.75913 0.72808 0.0
C206 C 0.58571 0.78345 0.72023 0.0
H207 H 0.60227 0.75911 0.56197 0.0
C208 C 0.58626 0.75537 0.54035 0.0
H209 H 0.55562 0.76142 0.52999 0.0
H210 H 0.59014 0.86061 0.64087 0.0
H211 H 0.58998 0.87421 0.56242 0.0
H212 H 0.58475 0.84644 0.4964 0.0
H213 H 0.57927 0.80473 0.50857 0.0
C214 C 0.57154 0.76509 0.55179 0.0
C215 C 0.57714 0.78242 0.59198 0.0
C216 C 0.58116 0.80713 0.58424 0.0
C217 C 0.58493 0.82345 0.62227 0.0
C218 C 0.58777 0.84759 0.61343 0.0
C219 C 0.58766 0.85566 0.56846 0.0
C220 C 0.58466 0.84001 0.53131 0.0
C221 C 0.58144 0.81604 0.53886 0.0
H222 H 0.7995 0.5751 0.66719 0.0
C223 C 0.8179 0.57959 0.6804 0.0
H224 H 0.84195 0.59112 0.73859 0.0
H225 H 0.78439 0.63807 0.84457 0.0
H226 H 0.82318 0.67611 0.82277 0.0
H227 H 0.8539 0.67389 0.77036 0.0
H228 H 0.8461 0.63362 0.73959 0.0
C229 C 0.82343 0.58595 0.72507 0.0
C230 C 0.80485 0.58711 0.75684 0.0
C231 C 0.80966 0.6108 0.77438 0.0
C232 C 0.79182 0.61211 0.80421 0.0
C233 C 0.7972 0.63601 0.82148 0.0
C234 C 0.8194 0.65799 0.80929 0.0
C235 C 0.83671 0.65674 0.77981 0.0
C236 C 0.832 0.63349 0.76244 0.0
H237 H 0.75691 0.57226 0.90281 0.0
C238 C 0.7466 0.58141 0.89093 0.0
H239 H 0.74104 0.6009 0.83597 0.0
H240 H 0.79106 0.53825 0.73385 0.0
H241 H 0.75163 0.50046 0.75324 0.0
H242 H 0.71926 0.50311 0.80004 0.0
H243 H 0.72639 0.5435 0.82848 0.0
C244 C 0.75076 0.59121 0.84809 0.0
C245 C 0.7692 0.58972 0.81643 0.0
C246 C 0.76423 0.56603 0.79843 0.0
C247 C 0.78235 0.56465 0.76954 0.0
C248 C 0.77754 0.54057 0.75429 0.0
C249 C 0.75503 0.51867 0.76543 0.0
C250 C 0.73686 0.52015 0.79193 0.0
C251 C 0.74128 0.54348 0.8083 0.0
H252 H 0.20395 0.75782 0.02353 0.0
C253 C 0.18376 0.75082 0.02165 0.0
H254 H 0.15458 0.75296 0.98715 0.0
H255 H 0.26919 0.84991 0.92388 0.0
H256 H 0.27471 0.86258 0.00419 0.0
H257 H 0.24145 0.83802 0.06175 0.0
H258 H 0.2029 0.80004 0.03937 0.0
C259 C 0.17476 0.76003 0.98932 0.0
C260 C 0.19173 0.77824 0.95342 0.0
C261 C 0.21311 0.8016 0.96634 0.0
C262 C 0.23128 0.81694 0.93245 0.0
C263 C 0.25387 0.83851 0.94735 0.0
C264 C 0.25744 0.84587 0.99357 0.0
C265 C 0.2388 0.83197 0.02601 0.0
C266 C 0.21687 0.81007 0.01277 0.0
H267 H 0.24517 0.85947 0.86297 0.0
C268 C 0.25259 0.85018 0.84119 0.0
H269 H 0.25301 0.81655 0.8269 0.0
H270 H 0.15206 0.7354 0.9162 0.0
H271 H 0.14443 0.72484 0.835 0.0
H272 H 0.17384 0.75344 0.77553 0.0
H273 H 0.21128 0.79261 0.79702 0.0
C274 C 0.24557 0.8258 0.84876 0.0
C275 C 0.22677 0.81017 0.88497 0.0
C276 C 0.20449 0.78769 0.87177 0.0
C277 C 0.18714 0.77155 0.90602 0.0
C278 C 0.16564 0.74868 0.89179 0.0
C279 C 0.16103 0.74232 0.84519 0.0
C280 C 0.1776 0.7584 0.81172 0.0
C281 C 0.19909 0.78081 0.82461 0.0
H282 H 0.41222 0.2332 0.95327 0.0
C283 C 0.409 0.24577 0.97527 0.0
H284 H 0.40297 0.25391 0.04361 0.0
H285 H 0.36794 0.13267 0.06446 0.0
H286 H 0.33084 0.12504 0.02131 0.0
H287 H 0.32779 0.16051 0.98756 0.0
H288 H 0.36184 0.20385 -0.00328 0.0
C289 C 0.40513 0.24098 0.02077 0.0
C290 C 0.40652 0.21951 0.04189 0.0
C291 C 0.38644 0.19432 0.03621 0.0
C292 C 0.38817 0.17388 0.05587 0.0
C293 C 0.36773 0.14891 0.05003 0.0
C294 C 0.34628 0.14425 0.02543 0.0
C295 C 0.34456 0.16422 0.00641 0.0
C296 C 0.3643 0.189 0.01175 0.0
H297 H 0.41115 0.16854 0.17103 0.0
C298 C 0.41161 0.15454 0.14844 0.0
H299 H 0.4112 0.14305 0.07939 0.0
H300 H 0.44809 0.26564 0.05968 0.0
H301 H 0.48569 0.27334 0.10115 0.0
H302 H 0.48949 0.23784 0.13258 0.0
H303 H 0.45567 0.19453 0.1232 0.0
C304 C 0.41135 0.15721 0.10237 0.0
C305 C 0.4099 0.17872 0.0814 0.0
C306 C 0.43016 0.20394 0.08646 0.0
C307 C 0.42825 0.22438 0.06732 0.0
C308 C 0.44859 0.2494 0.07333 0.0
C309 C 0.47031 0.2541 0.09698 0.0
C310 C 0.47243 0.23412 0.11475 0.0
C311 C 0.45273 0.20931 0.10946 0.0
H312 H 0.07723 0.47406 0.08738 0.0
C313 C 0.09497 0.47551 0.07669 0.0
H314 H 0.13303 0.50032 0.05802 0.0
H315 H 0.11177 0.58805 0.00028 0.0
H316 H 0.12119 0.57608 0.92615 0.0
H317 H 0.12736 0.53926 0.91943 0.0
H318 H 0.12408 0.51414 0.98677 0.0
C319 C 0.11542 0.4985 0.07045 0.0
C320 C 0.11373 0.52188 0.07555 0.0
C321 C 0.11626 0.53669 0.03596 0.0
C322 C 0.11294 0.55807 0.03988 0.0
C323 C 0.11464 0.57196 -0.00051 0.0
C324 C 0.1199 0.56521 0.95664 0.0
C325 C 0.12336 0.54447 0.95285 0.0
C326 C 0.12148 0.53024 0.99185 0.0
H327 H 0.1414 0.6142 0.07779 0.0
C328 C 0.12248 0.61062 0.0855 0.0
H329 H 0.08444 0.58276 0.09779 0.0
H330 H 0.11099 0.49962 0.15928 0.0
H331 H 0.10181 0.51174 0.23348 0.0
H332 H 0.09499 0.54817 0.23998 0.0
H333 H 0.09751 0.57281 0.17237 0.0
C334 C 0.10322 0.58666 0.08801 0.0
C335 C 0.1074 0.56477 0.08351 0.0
C336 C 0.10538 0.55026 0.12325 0.0
C337 C 0.10885 0.52898 0.11938 0.0
C338 C 0.10772 0.51546 0.15996 0.0
C339 C 0.10267 0.52234 0.20287 0.0
C340 C 0.09886 0.54287 0.20654 0.0
C341 C 0.10028 0.5568 0.16738 0.0
H342 H 0.51247 0.1262 0.28242 0.0
C343 C 0.50229 0.12083 0.24983 0.0
H344 H 0.50293 0.11131 0.17996 0.0
H345 H 0.6219 0.16164 0.25993 0.0
H346 H 0.62096 0.20051 0.2711 0.0
H347 H 0.58232 0.20232 0.25483 0.0
H348 H 0.54424 0.16506 0.22837 0.0
C349 C 0.51322 0.11734 0.21235 0.0
C350 C 0.53767 0.11763 0.21588 0.0
C351 C 0.56015 0.13995 0.22897 0.0
C352 C 0.58285 0.13928 0.23582 0.0
C353 C 0.6045 0.16136 0.25207 0.0
C354 C 0.60417 0.18377 0.25897 0.0
C355 C 0.58239 0.18476 0.25 0.0
C356 C 0.56059 0.16318 0.23516 0.0
H357 H 0.62694 0.14273 0.18015 0.0
C358 C 0.62717 0.12924 0.2044 0.0
H359 H 0.60695 0.10176 0.25557 0.0
H360 H 0.49797 0.07137 0.19069 0.0
H361 H 0.49956 0.03324 0.17523 0.0
H362 H 0.53953 0.03285 0.18211 0.0
H363 H 0.57806 0.07051 0.20505 0.0
C364 C 0.60715 0.11578 0.23214 0.0
C365 C 0.58339 0.11669 0.22691 0.0
C366 C 0.56108 0.09459 0.2125 0.0
C367 C 0.53818 0.095 0.20738 0.0
C368 C 0.51604 0.07239 0.19426 0.0
C369 C 0.51665 0.05028 0.18537 0.0
C370 C 0.53913 0.05005 0.18932 0.0
C371 C 0.56112 0.07185 0.20268 0.0
H372 H 0.48406 0.62738 0.45011 0.0
C373 C 0.4959 0.62518 0.42459 0.0
H374 H 0.49833 0.60099 0.37519 0.0
H375 H 0.40425 0.51696 0.5053 0.0
H376 H 0.43508 0.52956 0.56677 0.0
H377 H 0.47823 0.56572 0.55658 0.0
H378 H 0.49075 0.5896 0.48506 0.0
C379 C 0.48701 0.60311 0.40192 0.0
C380 C 0.46086 0.5817 0.40918 0.0
C381 C 0.45393 0.56788 0.45128 0.0
C382 C 0.42917 0.54675 0.45687 0.0
C383 C 0.42277 0.53317 0.49914 0.0
C384 C 0.44031 0.54016 0.53472 0.0
C385 C 0.46459 0.56054 0.529 0.0
C386 C 0.47147 0.57421 0.4878 0.0
H387 H 0.39535 0.49537 0.37634 0.0
C388 C 0.38153 0.49465 0.40094 0.0
H389 H 0.37361 0.51497 0.45102 0.0
H390 H 0.46776 0.60457 0.32472 0.0
H391 H 0.4368 0.592 0.26342 0.0
H392 H 0.3938 0.55551 0.27343 0.0
H393 H 0.38156 0.5313 0.34475 0.0
C394 C 0.38663 0.5156 0.4247 0.0
C395 C 0.41162 0.53912 0.42002 0.0
C396 C 0.41835 0.55326 0.37836 0.0
C397 C 0.44305 0.57447 0.37282 0.0
C398 C 0.44931 0.58821 0.33075 0.0
C399 C 0.43169 0.58126 0.29531 0.0
C400 C 0.40749 0.5607 0.30093 0.0
C401 C 0.40076 0.54686 0.34194 0.0
H402 H 0.90059 0.39243 0.56624 0.0
C403 C 0.88276 0.37809 0.58115 0.0
H404 H 0.84775 0.37038 0.60955 0.0
H405 H 0.8883 0.48401 0.66854 0.0
H406 H 0.8832 0.46374 0.7429 0.0
H407 H 0.87214 0.41901 0.74799 0.0
H408 H 0.86626 0.39435 0.67871 0.0
C409 C 0.86523 0.38423 0.59289 0.0
C410 C 0.87049 0.41076 0.58921 0.0
C411 C 0.87326 0.42475 0.63011 0.0
C412 C 0.87928 0.45044 0.62719 0.0
C413 C 0.88303 0.46426 0.66863 0.0
C414 C 0.88033 0.4529 0.71162 0.0
C415 C 0.87413 0.42773 0.71448 0.0
C416 C 0.87073 0.41376 0.67437 0.0
H417 H 0.85354 0.48249 0.60501 0.0
C418 C 0.87198 0.49628 0.59139 0.0
H419 H 0.9067 0.50224 0.56447 0.0
H420 H 0.86408 0.38863 0.50413 0.0
H421 H 0.86918 0.4089 0.42967 0.0
H422 H 0.88024 0.45364 0.42458 0.0
H423 H 0.88613 0.47832 0.49391 0.0
C424 C 0.88857 0.48887 0.57974 0.0
C425 C 0.88205 0.46194 0.58333 0.0
C426 C 0.8791 0.4479 0.54244 0.0
C427 C 0.87308 0.42221 0.54536 0.0
C428 C 0.86935 0.40839 0.50396 0.0
C429 C 0.87204 0.41974 0.46095 0.0
C430 C 0.87824 0.44492 0.45808 0.0
C431 C 0.88164 0.4589 0.4982 0.0
H432 H 0.38671 0.88995 0.79025 0.0
C433 C 0.38248 0.88721 0.75352 0.0
H434 H 0.39346 0.8803 0.68827 0.0
H435 H 0.49811 0.92512 0.81508 0.0
H436 H 0.4973 0.96438 0.81751 0.0
H437 H 0.46182 0.96715 0.78359 0.0
H438 H 0.4267 0.93054 0.74804 0.0
C439 C 0.39774 0.88359 0.72491 0.0
C440 C 0.42016 0.88271 0.74232 0.0
C441 C 0.4411 0.90468 0.76108 0.0
C442 C 0.4622 0.90346 0.77838 0.0
C443 C 0.48213 0.92525 0.79953 0.0
C444 C 0.48183 0.94789 0.80146 0.0
C445 C 0.46181 0.94942 0.78254 0.0
C446 C 0.44165 0.92816 0.76251 0.0
H447 H 0.50975 0.90454 0.73964 0.0
C448 C 0.50787 0.8926 0.76902 0.0
H449 H 0.48308 0.86705 0.81934 0.0
H450 H 0.38316 0.83718 0.70868 0.0
H451 H 0.38476 0.79835 0.70347 0.0
H452 H 0.42218 0.79676 0.7303 0.0
H453 H 0.45817 0.83394 0.76278 0.0
C454 C 0.48544 0.8795 0.79057 0.0
C455 C 0.46293 0.88065 0.77461 0.0
C456 C 0.44211 0.85878 0.75549 0.0
C457 C 0.42069 0.8598 0.73942 0.0
C458 C 0.40005 0.83757 0.72091 0.0
C459 C 0.40069 0.81513 0.71779 0.0
C460 C 0.42175 0.81423 0.73294 0.0
C461 C 0.44227 0.83572 0.75158 0.0
H462 H 0.50358 0.3849 0.94384 0.0
C463 C 0.49344 0.38847 0.91681 0.0
H464 H 0.49493 0.41462 0.86723 0.0
H465 H 0.58298 0.49296 0.01177 0.0
H466 H 0.5488 0.48085 0.06663 0.0
H467 H 0.50573 0.4464 0.04881 0.0
H468 H 0.49665 0.42377 0.97622 0.0
C469 C 0.5045 0.41103 0.89527 0.0
C470 C 0.53053 0.43136 0.90698 0.0
C471 C 0.53545 0.44446 0.94966 0.0
C472 C 0.56021 0.46459 0.95963 0.0
C473 C 0.56457 0.47749 0.00236 0.0
C474 C 0.5451 0.47078 0.03417 0.0
C475 C 0.52086 0.45136 0.02417 0.0
C476 C 0.51595 0.43839 0.9824 0.0
H477 H 0.60179 0.51656 0.88365 0.0
C478 C 0.61313 0.51601 0.91202 0.0
H479 H 0.61564 0.49379 0.96544 0.0
H480 H 0.52756 0.40979 0.82256 0.0
H481 H 0.56188 0.42174 0.76788 0.0
H482 H 0.60491 0.45631 0.78566 0.0
H483 H 0.61385 0.47924 0.8581 0.0
C484 C 0.60506 0.49439 0.93584 0.0
C485 C 0.57983 0.47193 0.92656 0.0
C486 C 0.57503 0.45848 0.88435 0.0
C487 C 0.5503 0.43832 0.8744 0.0
C488 C 0.54598 0.42531 0.83185 0.0
C489 C 0.56552 0.43192 0.8002 0.0
C490 C 0.58974 0.4514 0.81019 0.0
C491 C 0.59458 0.46453 0.85178 0.0
H492 H 0.03639 0.34609 0.9088 0.0
C493 C 0.02307 0.34612 0.93374 0.0
H494 H 0.98609 0.33946 0.94462 0.0
H495 H 0.97768 0.36727 0.73785 0.0
H496 H 0.99024 0.40741 0.77503 0.0
H497 H 0.00377 0.41454 0.85654 0.0
H498 H 0.00478 0.38153 0.90134 0.0
C499 C -0.00074 0.33843 0.92066 0.0
C500 C 0.99191 0.33398 0.87118 0.0
C501 C 0.99151 0.35353 0.84543 0.0
C502 C 0.98389 0.34948 0.79841 0.0
C503 C 0.98351 0.36932 0.77361 0.0
C504 C 0.99063 0.39249 0.79454 0.0
C505 C -0.00177 0.39649 0.84043 0.0
C506 C -0.00131 0.37733 0.86575 0.0
H507 H 0.92953 0.29811 0.74527 0.0
C508 C 0.94316 0.30867 0.7182 0.0
H509 H 0.98158 0.33334 0.70216 0.0
H510 H 0.99056 0.29273 0.91093 0.0
H511 H 0.97858 0.25263 0.87341 0.0
H512 H 0.96584 0.24575 0.79143 0.0
H513 H 0.96487 0.27887 0.74643 0.0
C514 C 0.96788 0.3218 0.72844 0.0
C515 C 0.9765 0.32581 0.77728 0.0
C516 C 0.97717 0.30636 0.80285 0.0
C517 C 0.98485 0.31044 0.84997 0.0
C518 C 0.98509 0.29065 0.87495 0.0
C519 C 0.97825 0.26757 0.85385 0.0
C520 C 0.97104 0.26368 0.80768 0.0
C521 C 0.97049 0.28279 0.78228 0.0
H522 H 0.65385 0.9975 0.86904 0.0
C523 C 0.64531 0.97737 0.87626 0.0
H524 H 0.63735 0.94966 0.92732 0.0
H525 H 0.72107 0.06395 0.01525 0.0
H526 H 0.7512 0.0638 0.96045 0.0
H527 H 0.7382 0.02873 0.90495 0.0
H528 H 0.69493 0.99367 0.90366 0.0
C529 C 0.64654 0.96973 0.91926 0.0
C530 C 0.65591 0.98829 0.95801 0.0
C531 C 0.68137 0.00829 0.95906 0.0
C532 C 0.68896 0.0283 0.99151 0.0
C533 C 0.71435 0.04831 0.99123 0.0
C534 C 0.73183 0.0484 0.96009 0.0
C535 C 0.7245 0.02867 0.9288 0.0
C536 C 0.6996 0.00876 0.9282 0.0
H537 H 0.68084 0.03405 0.11457 0.0
C538 C 0.68158 0.05049 0.09845 0.0
H539 H 0.679 0.06697 0.03595 0.0
H540 H 0.6063 0.95129 0.96885 0.0
H541 H 0.57666 0.95083 0.02498 0.0
H542 H 0.58968 0.98576 0.08068 0.0
H543 H 0.6324 0.02126 0.08067 0.0
C544 C 0.67816 0.05062 0.05263 0.0
C545 C 0.6712 0.02805 0.02334 0.0
C546 C 0.6461 0.00727 0.02417 0.0
C547 C 0.63852 0.98725 0.99173 0.0
C548 C 0.61319 0.96699 0.9927 0.0
C549 C 0.59591 0.96648 0.02474 0.0
C550 C 0.60324 0.98613 0.05611 0.0
C551 C 0.62794 0.00639 0.05583 0.0
H552 H 0.63845 0.68808 0.2548 0.0
C553 C 0.6187 0.67787 0.24463 0.0
H554 H 0.59238 0.65529 0.1936 0.0
H555 H 0.68487 0.69923 0.04695 0.0
H556 H 0.68394 0.73854 0.05178 0.0
H557 H 0.65846 0.74436 0.11162 0.0
H558 H 0.63397 0.71106 0.16731 0.0
C559 C 0.61214 0.66623 0.20343 0.0
C560 C 0.63068 0.66478 0.17222 0.0
C561 C 0.64478 0.68439 0.14004 0.0
C562 C 0.65898 0.6808 0.10487 0.0
C563 C 0.67321 0.70078 0.07349 0.0
C564 C 0.67296 0.72345 0.07609 0.0
C565 C 0.65864 0.72674 0.10984 0.0
C566 C 0.64466 0.70749 0.14154 0.0
H567 H 0.64305 0.65393 0.01498 0.0
C568 C 0.65746 0.64858 0.01847 0.0
H569 H 0.68249 0.64518 0.06392 0.0
H570 H 0.6086 0.62506 0.23273 0.0
H571 H 0.61038 0.58626 0.2293 0.0
H572 H 0.63423 0.57954 0.16741 0.0
H573 H 0.65646 0.6115 0.1088 0.0
C574 C 0.66866 0.65122 0.05961 0.0
C575 C 0.65857 0.65741 0.10147 0.0
C576 C 0.64607 0.63861 0.13596 0.0
C577 C 0.6321 0.64233 0.17135 0.0
C578 C 0.61932 0.62308 0.20485 0.0
C579 C 0.62022 0.60075 0.20335 0.0
C580 C 0.63367 0.59698 0.16854 0.0
C581 C 0.64639 0.61555 0.13507 0.0
H582 H 0.0097 0.62919 0.22439 0.0
C583 C 0.0274 0.64684 0.21953 0.0
H584 H 0.05248 0.68283 0.24719 0.0
H585 H 0.93957 0.62044 0.35911 0.0
H586 H 0.92127 0.62608 0.28902 0.0
H587 H 0.94813 0.64854 0.22175 0.0
H588 H 0.99352 0.66508 0.22404 0.0
C589 C 0.03454 0.66538 0.25102 0.0
C590 C 0.02003 0.66023 0.29507 0.0
C591 C 0.99387 0.65207 0.29426 0.0
C592 C 0.97856 0.63998 0.33365 0.0
C593 C 0.9522 0.63032 0.33066 0.0
C594 C 0.94144 0.63341 0.29058 0.0
C595 C 0.95655 0.646 0.25266 0.0
C596 C 0.98248 0.65524 0.25427 0.0
H597 H 0.9608 0.6422 0.44015 0.0
C598 C 0.96058 0.6243 0.44187 0.0
H599 H 0.97424 0.60157 0.41357 0.0
H600 H 0.07051 0.67878 0.31146 0.0
H601 H 0.08932 0.67682 0.3838 0.0
H602 H 0.06289 0.65715 0.45289 0.0
H603 H 0.01736 0.63915 0.44981 0.0
C604 C 0.97385 0.61913 0.41109 0.0
C605 C 0.98975 0.63707 0.3743 0.0
C606 C 0.01633 0.64824 0.37697 0.0
C607 C 0.03156 0.65985 0.33728 0.0
C608 C 0.05799 0.66988 0.34051 0.0
C609 C 0.06906 0.66891 0.3819 0.0
C610 C 0.05419 0.65781 0.4208 0.0
C611 C 0.02811 0.64749 0.41853 0.0
H612 H 0.35225 0.97946 0.59891 0.0
C613 C 0.33713 0.96019 0.5926 0.0
H614 H 0.30957 0.93537 0.5455 0.0
H615 H 0.36387 0.05835 0.47858 0.0
H616 H 0.34287 0.0642 0.54489 0.0
H617 H 0.31637 0.02848 0.59692 0.0
H618 H 0.31104 0.98673 0.58327 0.0
C619 C 0.32428 0.95468 0.55265 0.0
C620 C 0.33329 0.97384 0.51478 0.0
C621 C 0.33518 0.99772 0.52188 0.0
C622 C 0.34983 0.0181 0.49111 0.0
C623 C 0.35263 0.04213 0.50048 0.0
C624 C 0.34067 0.04573 0.53839 0.0
C625 C 0.32579 0.02563 0.56775 0.0
C626 C 0.32301 0.00185 0.55975 0.0
H627 H 0.35741 0.04271 0.38534 0.0
C628 C 0.37685 0.04822 0.39328 0.0
H629 H 0.40124 0.04108 0.43384 0.0
H630 H 0.32945 0.92911 0.48606 0.0
H631 H 0.34741 0.92255 0.41633 0.0
H632 H 0.3718 0.9577 0.36192 0.0
H633 H 0.37843 -0.00026 0.37722 0.0
C634 C 0.38188 0.03617 0.42677 0.0
C635 C 0.36185 0.01425 0.45261 0.0
C636 C 0.35745 0.98967 0.44255 0.0
C637 C 0.34314 0.96937 0.47366 0.0
C638 C 0.33995 0.94523 0.46358 0.0
C639 C 0.35018 0.94117 0.42359 0.0
C640 C 0.36393 0.96096 0.39298 0.0
C641 C 0.36765 0.98499 0.40223 0.0
H642 H 0.34295 0.34539 0.49365 0.0
C643 C 0.33145 0.35421 0.49829 0.0
H644 H 0.31178 0.36423 0.54597 0.0
H645 H 0.3405 0.28509 0.6574 0.0
H646 H 0.30968 0.25214 0.60738 0.0
H647 H 0.28837 0.26239 0.54586 0.0
H648 H 0.29783 0.30569 0.53383 0.0
C649 C 0.32252 0.35466 0.54056 0.0
C650 C 0.332 0.34744 0.58182 0.0
C651 C 0.32596 0.32204 0.58886 0.0
C652 C 0.33804 0.31609 0.62466 0.0
C653 C 0.3319 0.29062 0.63063 0.0
C654 C 0.31421 0.27154 0.60226 0.0
C655 C 0.30222 0.27732 0.56759 0.0
C656 C 0.30792 0.30224 0.56086 0.0
H657 H 0.35214 0.33358 0.74615 0.0
C658 C 0.36708 0.33043 0.73344 0.0
H659 H 0.38522 0.32647 0.67433 0.0
H660 H 0.34625 0.39784 0.58025 0.0
H661 H 0.37654 0.43056 0.63064 0.0
H662 H 0.39825 0.42047 0.6915 0.0
H663 H 0.38968 0.37763 0.70247 0.0
C664 C 0.37048 0.32975 0.68768 0.0
C665 C 0.35589 0.33551 0.65363 0.0
C666 C 0.3612 0.36081 0.64775 0.0
C667 C 0.34898 0.3667 0.61218 0.0
C668 C 0.35488 0.39218 0.6067 0.0
C669 C 0.37231 0.41123 0.63536 0.0
C670 C 0.3845 0.40555 0.66964 0.0
C671 C 0.37923 0.38074 0.67574 0.0
loop_
_geom_bond_atom_site_label_1
_geom_bond_atom_site_label_2
_geom_bond_distance
_geom_bond_site_symmetry_2
_ccdc_geom_bond_type
O0 Cd1 2.300 . S
O0 C7 1.275 . S
Cd1 O0 2.300 . S
Cd1 O9 2.381 . S
Cd1 O10 2.378 . S
O2 Cd3 2.385 . S
O2 C7 1.255 . S
Cd3 O2 2.385 . S
Cd3 O4 2.317 . S
O4 Cd3 2.317 . S
O4 C5 1.232 . S
C5 O4 1.232 . S
C5 O6 1.218 . S
O6 C5 1.218 . S
C7 O0 1.275 . S
C7 O2 1.255 . S
C8 O9 1.258 . S
C8 O10 1.256 . S
O9 Cd1 2.381 . S
O9 C8 1.258 . S
O10 Cd1 2.378 . S
O10 C8 1.256 . S
O11 Cd12 2.300 . S
O11 C18 1.275 . S
Cd12 O11 2.300 . S
Cd12 O20 2.381 . S
Cd12 O21 2.378 . S
O13 Cd14 2.385 . S
O13 C18 1.255 . S
Cd14 O13 2.385 . S
Cd14 O15 2.317 . S
O15 Cd14 2.317 . S
O15 C16 1.232 . S
C16 O15 1.232 . S
C16 O17 1.218 . S
O17 C16 1.218 . S
C18 O11 1.275 . S
C18 O13 1.255 . S
C19 O20 1.258 . S
C19 O21 1.256 . S
O20 Cd12 2.381 . S
O20 C19 1.258 . S
O21 Cd12 2.378 . S
O21 C19 1.256 . S
O22 Cd23 2.300 . S
O22 C29 1.275 . S
Cd23 O22 2.300 . S
Cd23 O31 2.381 . S
Cd23 O32 2.378 . S
O24 Cd25 2.385 . S
O24 C29 1.255 . S
Cd25 O24 2.385 . S
Cd25 O26 2.317 . S
O26 Cd25 2.317 . S
O26 C27 1.232 . S
C27 O26 1.232 . S
C27 O28 1.218 . S
O28 C27 1.218 . S
C29 O22 1.275 . S
C29 O24 1.255 . S
C30 O31 1.258 . S
C30 O32 1.256 . S
O31 Cd23 2.381 . S
O31 C30 1.258 . S
O32 Cd23 2.378 . S
O32 C30 1.256 . S
O33 Cd34 2.300 . S
O33 C40 1.275 . S
Cd34 O33 2.300 . S
Cd34 O42 2.381 . S
Cd34 O43 2.378 . S
O35 Cd36 2.385 . S
O35 C40 1.255 . S
Cd36 O35 2.385 . S
Cd36 O37 2.317 . S
O37 Cd36 2.317 . S
O37 C38 1.232 . S
C38 O37 1.232 . S
C38 O39 1.218 . S
O39 C38 1.218 . S
C40 O33 1.275 . S
C40 O35 1.255 . S
C41 O42 1.258 . S
C41 O43 1.256 . S
O42 Cd34 2.381 . S
O42 C41 1.258 . S
O43 Cd34 2.378 . S
O43 C41 1.256 . S
O44 Cd45 2.300 . S
O44 C51 1.275 . S
Cd45 O44 2.300 . S
Cd45 O53 2.381 . S
Cd45 O54 2.378 . S
O46 Cd47 2.385 . S
O46 C51 1.255 . S
Cd47 O46 2.385 . S
Cd47 O48 2.317 . S
O48 Cd47 2.317 . S
O48 C49 1.232 . S
C49 O48 1.232 . S
C49 O50 1.218 . S
O50 C49 1.218 . S
C51 O44 1.275 . S
C51 O46 1.255 . S
C52 O53 1.258 . S
C52 O54 1.256 . S
O53 Cd45 2.381 . S
O53 C52 1.258 . S
O54 Cd45 2.378 . S
O54 C52 1.256 . S
O55 Cd56 2.300 . S
O55 C62 1.275 . S
Cd56 O55 2.300 . S
Cd56 O64 2.381 . S
Cd56 O65 2.376 1_556 S
O57 Cd58 2.385 . S
O57 C62 1.255 . S
Cd58 O57 2.385 . S
Cd58 O59 2.317 . S
O59 Cd58 2.317 . S
O59 C60 1.232 . S
C60 O59 1.232 . S
C60 O61 1.218 . S
O61 C60 1.218 . S
C62 O55 1.275 . S
C62 O57 1.255 . S
C63 O64 1.258 1_554 S
C63 O65 1.256 . S
O64 Cd56 2.381 . S
O64 C63 1.258 1_556 S
O65 Cd56 2.376 1_554 S
O65 C63 1.256 . S
O66 Cd67 2.300 . S
O66 C73 1.275 . S
Cd67 O66 2.300 . S
Cd67 O75 2.381 . S
Cd67 O76 2.378 . S
O68 Cd69 2.385 . S
O68 C73 1.255 . S
Cd69 O68 2.385 . S
Cd69 O70 2.317 . S
O70 Cd69 2.317 . S
O70 C71 1.232 . S
C71 O70 1.232 . S
C71 O72 1.218 . S
O72 C71 1.218 . S
C73 O66 1.275 . S
C73 O68 1.255 . S
C74 O75 1.258 . S
C74 O76 1.256 . S
O75 Cd67 2.381 . S
O75 C74 1.258 . S
O76 Cd67 2.378 . S
O76 C74 1.256 . S
O77 Cd78 2.300 . S
O77 C84 1.275 . S
Cd78 O77 2.300 . S
Cd78 O86 2.381 . S
Cd78 O87 2.378 . S
O79 Cd80 2.385 . S
O79 C84 1.255 . S
Cd80 O79 2.385 . S
Cd80 O81 2.317 . S
O81 Cd80 2.317 . S
O81 C82 1.232 . S
C82 O81 1.232 . S
C82 O83 1.218 . S
O83 C82 1.218 . S
C84 O77 1.275 . S
C84 O79 1.255 . S
C85 O86 1.258 . S
C85 O87 1.256 . S
O86 Cd78 2.381 . S
O86 C85 1.258 . S
O87 Cd78 2.378 . S
O87 C85 1.256 . S
O88 Cd89 2.300 . S
O88 C95 1.275 . S
Cd89 O88 2.300 . S
Cd89 O97 2.381 . S
Cd89 O98 2.374 1_554 S
O90 Cd91 2.385 . S
O90 C95 1.255 . S
Cd91 O90 2.385 . S
Cd91 O92 2.317 . S
O92 Cd91 2.317 . S
O92 C93 1.232 . S
C93 O92 1.232 . S
C93 O94 1.218 . S
O94 C93 1.218 . S
C95 O88 1.275 . S
C95 O90 1.255 . S
C96 O97 1.258 1_556 S
C96 O98 1.256 . S
O97 Cd89 2.381 . S
O97 C96 1.258 1_554 S
O98 Cd89 2.374 1_556 S
O98 C96 1.256 . S
O99 Cd100 2.300 . S
O99 C106 1.275 . S
Cd100 O99 2.300 . S
Cd100 O108 2.381 . S
Cd100 O109 2.378 . S
O101 Cd102 2.385 . S
O101 C106 1.255 . S
Cd102 O101 2.385 . S
Cd102 O103 2.317 . S
O103 Cd102 2.317 . S
O103 C104 1.232 . S
C104 O103 1.232 . S
C104 O105 1.218 . S
O105 C104 1.218 . S
C106 O99 1.275 . S
C106 O101 1.255 . S
C107 O108 1.258 . S
C107 O109 1.256 . S
O108 Cd100 2.381 . S
O108 C107 1.258 . S
O109 Cd100 2.378 . S
O109 C107 1.256 . S
O110 Cd111 2.300 . S
O110 C117 1.275 . S
Cd111 O110 2.300 . S
Cd111 O119 2.381 . S
Cd111 O120 2.378 . S
O112 Cd113 2.385 . S
O112 C117 1.255 . S
Cd113 O112 2.385 . S
Cd113 O114 2.317 . S
O114 Cd113 2.317 . S
O114 C115 1.232 . S
C115 O114 1.232 . S
C115 O116 1.218 . S
O116 C115 1.218 . S
C117 O110 1.275 . S
C117 O112 1.255 . S
C118 O119 1.258 . S
C118 O120 1.256 . S
O119 Cd111 2.381 . S
O119 C118 1.258 . S
O120 Cd111 2.378 . S
O120 C118 1.256 . S
O121 Cd122 2.300 . S
O121 C128 1.275 . S
Cd122 O121 2.300 . S
Cd122 O130 2.381 . S
Cd122 O131 2.378 . S
O123 Cd124 2.385 . S
O123 C128 1.255 . S
Cd124 O123 2.385 . S
Cd124 O125 2.317 . S
O125 Cd124 2.317 . S
O125 C126 1.232 . S
C126 O125 1.232 . S
C126 O127 1.218 . S
O127 C126 1.218 . S
C128 O121 1.275 . S
C128 O123 1.255 . S
C129 O130 1.258 . S
C129 O131 1.256 . S
O130 Cd122 2.381 . S
O130 C129 1.258 . S
O131 Cd122 2.378 . S
O131 C129 1.256 . S
H132 C133 0.951 . S
C133 H132 0.951 . S
C133 C139 1.265 . S
H134 C139 0.950 . S
H135 C143 0.949 . S
H136 C144 0.950 . S
H137 C145 0.951 . S
H138 C146 0.951 . S
C139 C133 1.265 . S
C139 H134 0.950 . S
C139 C140 1.478 . S
C140 C139 1.478 . S
C140 C141 1.397 . S
C140 C157 1.394 . S
C141 C140 1.397 . S
C141 C142 1.438 . S
C141 C146 1.429 . S
C142 C141 1.438 . S
C142 C143 1.428 . S
C142 C155 1.394 . S
C143 H135 0.949 . S
C143 C142 1.428 . S
C143 C144 1.345 . S
C144 H136 0.950 . S
C144 C143 1.345 . S
C144 C145 1.424 . S
C145 H137 0.951 . S
C145 C144 1.424 . S
C145 C146 1.347 . S
C146 H138 0.951 . S
C146 C141 1.429 . S
C146 C145 1.347 . S
H147 C148 0.951 . S
C148 H147 0.951 . S
C148 C154 1.265 . S
H149 C154 0.950 . S
H150 C158 0.949 . S
H151 C159 0.950 . S
H152 C160 0.951 . S
H153 C161 0.951 . S
C154 C148 1.265 . S
C154 H149 0.950 . S
C154 C155 1.478 . S
C155 C142 1.394 . S
C155 C154 1.478 . S
C155 C156 1.397 . S
C156 C155 1.397 . S
C156 C157 1.438 . S
C156 C161 1.429 . S
C157 C140 1.394 . S
C157 C156 1.438 . S
C157 C158 1.428 . S
C158 H150 0.949 . S
C158 C157 1.428 . S
C158 C159 1.345 . S
C159 H151 0.950 . S
C159 C158 1.345 . S
C159 C160 1.424 . S
C160 H152 0.951 . S
C160 C159 1.424 . S
C160 C161 1.347 . S
C161 H153 0.951 . S
C161 C156 1.429 . S
C161 C160 1.347 . S
H162 C163 0.951 . S
C163 H162 0.951 . S
C163 C169 1.265 . S
H164 C169 0.950 . S
H165 C173 0.949 . S
H166 C174 0.950 . S
H167 C175 0.951 . S
H168 C176 0.951 . S
C169 C163 1.265 . S
C169 H164 0.950 . S
C169 C170 1.478 . S
C170 C169 1.478 . S
C170 C171 1.397 . S
C170 C187 1.394 . S
C171 C170 1.397 . S
C171 C172 1.438 . S
C171 C176 1.429 . S
C172 C171 1.438 . S
C172 C173 1.428 . S
C172 C185 1.394 . S
C173 H165 0.949 . S
C173 C172 1.428 . S
C173 C174 1.345 . S
C174 H166 0.950 . S
C174 C173 1.345 . S
C174 C175 1.424 . S
C175 H167 0.951 . S
C175 C174 1.424 . S
C175 C176 1.347 . S
C176 H168 0.951 . S
C176 C171 1.429 . S
C176 C175 1.347 . S
H177 C178 0.951 . S
C178 H177 0.951 . S
C178 C184 1.265 . S
H179 C184 0.950 . S
H180 C188 0.949 . S
H181 C189 0.950 . S
H182 C190 0.951 . S
H183 C191 0.951 . S
C184 C178 1.265 . S
C184 H179 0.950 . S
C184 C185 1.478 . S
C185 C172 1.394 . S
C185 C184 1.478 . S
C185 C186 1.397 . S
C186 C185 1.397 . S
C186 C187 1.438 . S
C186 C191 1.429 . S
C187 C170 1.394 . S
C187 C186 1.438 . S
C187 C188 1.428 . S
C188 H180 0.949 . S
C188 C187 1.428 . S
C188 C189 1.345 . S
C189 H181 0.950 . S
C189 C188 1.345 . S
C189 C190 1.424 . S
C190 H182 0.951 . S
C190 C189 1.424 . S
C190 C191 1.347 . S
C191 H183 0.951 . S
C191 C186 1.429 . S
C191 C190 1.347 . S
H192 C193 0.951 . S
C193 H192 0.951 . S
C193 C199 1.265 . S
H194 C199 0.950 . S
H195 C203 0.949 . S
H196 C204 0.950 . S
H197 C205 0.951 . S
H198 C206 0.951 . S
C199 C193 1.265 . S
C199 H194 0.950 . S
C199 C200 1.478 . S
C200 C199 1.478 . S
C200 C201 1.397 . S
C200 C217 1.394 . S
C201 C200 1.397 . S
C201 C202 1.438 . S
C201 C206 1.429 . S
C202 C201 1.438 . S
C202 C203 1.428 . S
C202 C215 1.394 . S
C203 H195 0.949 . S
C203 C202 1.428 . S
C203 C204 1.345 . S
C204 H196 0.950 . S
C204 C203 1.345 . S
C204 C205 1.424 . S
C205 H197 0.951 . S
C205 C204 1.424 . S
C205 C206 1.347 . S
C206 H198 0.951 . S
C206 C201 1.429 . S
C206 C205 1.347 . S
H207 C208 0.951 . S
C208 H207 0.951 . S
C208 C214 1.265 . S
H209 C214 0.950 . S
H210 C218 0.949 . S
H211 C219 0.950 . S
H212 C220 0.951 . S
H213 C221 0.951 . S
C214 C208 1.265 . S
C214 H209 0.950 . S
C214 C215 1.478 . S
C215 C202 1.394 . S
C215 C214 1.478 . S
C215 C216 1.397 . S
C216 C215 1.397 . S
C216 C217 1.438 . S
C216 C221 1.429 . S
C217 C200 1.394 . S
C217 C216 1.438 . S
C217 C218 1.428 . S
C218 H210 0.949 . S
C218 C217 1.428 . S
C218 C219 1.345 . S
C219 H211 0.950 . S
C219 C218 1.345 . S
C219 C220 1.424 . S
C220 H212 0.951 . S
C220 C219 1.424 . S
C220 C221 1.347 . S
C221 H213 0.951 . S
C221 C216 1.429 . S
C221 C220 1.347 . S
H222 C223 0.951 . S
C223 H222 0.951 . S
C223 C229 1.265 . S
H224 C229 0.950 . S
H225 C233 0.949 . S
H226 C234 0.950 . S
H227 C235 0.951 . S
H228 C236 0.951 . S
C229 C223 1.265 . S
C229 H224 0.950 . S
C229 C230 1.478 . S
C230 C229 1.478 . S
C230 C231 1.397 . S
C230 C247 1.394 . S
C231 C230 1.397 . S
C231 C232 1.438 . S
C231 C236 1.429 . S
C232 C231 1.438 . S
C232 C233 1.428 . S
C232 C245 1.394 . S
C233 H225 0.949 . S
C233 C232 1.428 . S
C233 C234 1.345 . S
C234 H226 0.950 . S
C234 C233 1.345 . S
C234 C235 1.424 . S
C235 H227 0.951 . S
C235 C234 1.424 . S
C235 C236 1.347 . S
C236 H228 0.951 . S
C236 C231 1.429 . S
C236 C235 1.347 . S
H237 C238 0.951 . S
C238 H237 0.951 . S
C238 C244 1.265 . S
H239 C244 0.950 . S
H240 C248 0.949 . S
H241 C249 0.950 . S
H242 C250 0.951 . S
H243 C251 0.951 . S
C244 C238 1.265 . S
C244 H239 0.950 . S
C244 C245 1.478 . S
C245 C232 1.394 . S
C245 C244 1.478 . S
C245 C246 1.397 . S
C246 C245 1.397 . S
C246 C247 1.438 . S
C246 C251 1.429 . S
C247 C230 1.394 . S
C247 C246 1.438 . S
C247 C248 1.428 . S
C248 H240 0.949 . S
C248 C247 1.428 . S
C248 C249 1.345 . S
C249 H241 0.950 . S
C249 C248 1.345 . S
C249 C250 1.424 . S
C250 H242 0.951 . S
C250 C249 1.424 . S
C250 C251 1.347 . S
C251 H243 0.951 . S
C251 C246 1.429 . S
C251 C250 1.347 . S
H252 C253 0.951 . S
C253 H252 0.951 . S
C253 C259 1.265 . S
H254 C259 0.950 . S
H255 C263 0.949 . S
H256 C264 0.950 . S
H257 C265 0.951 1_554 S
H258 C266 0.951 . S
C259 C253 1.265 . S
C259 H254 0.950 . S
C259 C260 1.478 . S
C260 C259 1.478 . S
C260 C261 1.397 . S
C260 C277 1.394 . S
C261 C260 1.397 . S
C261 C262 1.438 . S
C261 C266 1.429 . S
C262 C261 1.438 . S
C262 C263 1.428 . S
C262 C275 1.394 . S
C263 H255 0.949 . S
C263 C262 1.428 . S
C263 C264 1.345 . S
C264 H256 0.950 . S
C264 C263 1.345 . S
C264 C265 1.424 . S
C265 H257 0.951 1_556 S
C265 C264 1.424 . S
C265 C266 1.347 . S
C266 H258 0.951 . S
C266 C261 1.429 . S
C266 C265 1.347 . S
H267 C268 0.951 . S
C268 H267 0.951 . S
C268 C274 1.265 . S
H269 C274 0.950 . S
H270 C278 0.949 . S
H271 C279 0.950 . S
H272 C280 0.951 . S
H273 C281 0.951 . S
C274 C268 1.265 . S
C274 H269 0.950 . S
C274 C275 1.478 . S
C275 C262 1.394 . S
C275 C274 1.478 . S
C275 C276 1.397 . S
C276 C275 1.397 . S
C276 C277 1.438 . S
C276 C281 1.429 . S
C277 C260 1.394 . S
C277 C276 1.438 . S
C277 C278 1.428 . S
C278 H270 0.949 . S
C278 C277 1.428 . S
C278 C279 1.345 . S
C279 H271 0.950 . S
C279 C278 1.345 . S
C279 C280 1.424 . S
C280 H272 0.951 . S
C280 C279 1.424 . S
C280 C281 1.347 . S
C281 H273 0.951 . S
C281 C276 1.429 . S
C281 C280 1.347 . S
H282 C283 0.951 . S
C283 H282 0.951 . S
C283 C289 1.265 . S
H284 C289 0.950 . S
H285 C293 0.949 . S
H286 C294 0.950 . S
H287 C295 0.951 . S
H288 C296 0.951 1_556 S
C289 C283 1.265 . S
C289 H284 0.950 . S
C289 C290 1.478 . S
C290 C289 1.478 . S
C290 C291 1.397 . S
C290 C307 1.394 . S
C291 C290 1.397 . S
C291 C292 1.438 . S
C291 C296 1.429 . S
C292 C291 1.438 . S
C292 C293 1.428 . S
C292 C305 1.394 . S
C293 H285 0.949 . S
C293 C292 1.428 . S
C293 C294 1.345 . S
C294 H286 0.950 . S
C294 C293 1.345 . S
C294 C295 1.424 1_554 S
C295 H287 0.951 . S
C295 C294 1.424 1_556 S
C295 C296 1.347 1_556 S
C296 H288 0.951 1_554 S
C296 C291 1.429 . S
C296 C295 1.347 1_554 S
H297 C298 0.951 . S
C298 H297 0.951 . S
C298 C304 1.265 . S
H299 C304 0.950 . S
H300 C308 0.949 . S
H301 C309 0.950 . S
H302 C310 0.951 . S
H303 C311 0.951 . S
C304 C298 1.265 . S
C304 H299 0.950 . S
C304 C305 1.478 . S
C305 C292 1.394 . S
C305 C304 1.478 . S
C305 C306 1.397 . S
C306 C305 1.397 . S
C306 C307 1.438 . S
C306 C311 1.429 . S
C307 C290 1.394 . S
C307 C306 1.438 . S
C307 C308 1.428 . S
C308 H300 0.949 . S
C308 C307 1.428 . S
C308 C309 1.345 . S
C309 H301 0.950 . S
C309 C308 1.345 . S
C309 C310 1.424 . S
C310 H302 0.951 . S
C310 C309 1.424 . S
C310 C311 1.347 . S
C311 H303 0.951 . S
C311 C306 1.429 . S
C311 C310 1.347 . S
H312 C313 0.951 . S
C313 H312 0.951 . S
C313 C319 1.265 . S
H314 C319 0.950 . S
H315 C323 0.949 1_556 S
H316 C324 0.950 . S
H317 C325 0.951 . S
H318 C326 0.951 . S
C319 C313 1.265 . S
C319 H314 0.950 . S
C319 C320 1.478 . S
C320 C319 1.478 . S
C320 C321 1.397 . S
C320 C337 1.394 . S
C321 C320 1.397 . S
C321 C322 1.438 . S
C321 C326 1.429 . S
C322 C321 1.438 . S
C322 C323 1.428 . S
C322 C335 1.394 . S
C323 H315 0.949 1_554 S
C323 C322 1.428 . S
C323 C324 1.345 1_554 S
C324 H316 0.950 . S
C324 C323 1.345 1_556 S
C324 C325 1.424 . S
C325 H317 0.951 . S
C325 C324 1.424 . S
C325 C326 1.347 1_556 S
C326 H318 0.951 . S
C326 C321 1.429 . S
C326 C325 1.347 1_554 S
H327 C328 0.951 . S
C328 H327 0.951 . S
C328 C334 1.265 . S
H329 C334 0.950 . S
H330 C338 0.949 . S
H331 C339 0.950 . S
H332 C340 0.951 . S
H333 C341 0.951 . S
C334 C328 1.265 . S
C334 H329 0.950 . S
C334 C335 1.478 . S
C335 C322 1.394 . S
C335 C334 1.478 . S
C335 C336 1.397 . S
C336 C335 1.397 . S
C336 C337 1.438 . S
C336 C341 1.429 . S
C337 C320 1.394 . S
C337 C336 1.438 . S
C337 C338 1.428 . S
C338 H330 0.949 . S
C338 C337 1.428 . S
C338 C339 1.345 . S
C339 H331 0.950 . S
C339 C338 1.345 . S
C339 C340 1.424 . S
C340 H332 0.951 . S
C340 C339 1.424 . S
C340 C341 1.347 . S
C341 H333 0.951 . S
C341 C336 1.429 . S
C341 C340 1.347 . S
H342 C343 0.951 . S
C343 H342 0.951 . S
C343 C349 1.265 . S
H344 C349 0.950 . S
H345 C353 0.949 . S
H346 C354 0.950 . S
H347 C355 0.951 . S
H348 C356 0.951 . S
C349 C343 1.265 . S
C349 H344 0.950 . S
C349 C350 1.478 . S
C350 C349 1.478 . S
C350 C351 1.397 . S
C350 C367 1.394 . S
C351 C350 1.397 . S
C351 C352 1.438 . S
C351 C356 1.429 . S
C352 C351 1.438 . S
C352 C353 1.428 . S
C352 C365 1.394 . S
C353 H345 0.949 . S
C353 C352 1.428 . S
C353 C354 1.345 . S
C354 H346 0.950 . S
C354 C353 1.345 . S
C354 C355 1.424 . S
C355 H347 0.951 . S
C355 C354 1.424 . S
C355 C356 1.347 . S
C356 H348 0.951 . S
C356 C351 1.429 . S
C356 C355 1.347 . S
H357 C358 0.951 . S
C358 H357 0.951 . S
C358 C364 1.265 . S
H359 C364 0.950 . S
H360 C368 0.949 . S
H361 C369 0.950 1_565 S
H362 C370 0.951 1_565 S
H363 C371 0.951 . S
C364 C358 1.265 . S
C364 H359 0.950 . S
C364 C365 1.478 . S
C365 C352 1.394 . S
C365 C364 1.478 . S
C365 C366 1.397 . S
C366 C365 1.397 . S
C366 C367 1.438 . S
C366 C371 1.429 . S
C367 C350 1.394 . S
C367 C366 1.438 . S
C367 C368 1.428 . S
C368 H360 0.949 . S
C368 C367 1.428 . S
C368 C369 1.345 . S
C369 H361 0.950 1_545 S
C369 C368 1.345 . S
C369 C370 1.424 . S
C370 H362 0.951 1_545 S
C370 C369 1.424 . S
C370 C371 1.347 . S
C371 H363 0.951 . S
C371 C366 1.429 . S
C371 C370 1.347 . S
H372 C373 0.951 . S
C373 H372 0.951 . S
C373 C379 1.265 . S
H374 C379 0.950 . S
H375 C383 0.949 . S
H376 C384 0.950 . S
H377 C385 0.951 . S
H378 C386 0.951 . S
C379 C373 1.265 . S
C379 H374 0.950 . S
C379 C380 1.478 . S
C380 C379 1.478 . S
C380 C381 1.397 . S
C380 C397 1.394 . S
C381 C380 1.397 . S
C381 C382 1.438 . S
C381 C386 1.429 . S
C382 C381 1.438 . S
C382 C383 1.428 . S
C382 C395 1.394 . S
C383 H375 0.949 . S
C383 C382 1.428 . S
C383 C384 1.345 . S
C384 H376 0.950 . S
C384 C383 1.345 . S
C384 C385 1.424 . S
C385 H377 0.951 . S
C385 C384 1.424 . S
C385 C386 1.347 . S
C386 H378 0.951 . S
C386 C381 1.429 . S
C386 C385 1.347 . S
H387 C388 0.951 . S
C388 H387 0.951 . S
C388 C394 1.265 . S
H389 C394 0.950 . S
H390 C398 0.949 . S
H391 C399 0.950 . S
H392 C400 0.951 . S
H393 C401 0.951 . S
C394 C388 1.265 . S
C394 H389 0.950 . S
C394 C395 1.478 . S
C395 C382 1.394 . S
C395 C394 1.478 . S
C395 C396 1.397 . S
C396 C395 1.397 . S
C396 C397 1.438 . S
C396 C401 1.429 . S
C397 C380 1.394 . S
C397 C396 1.438 . S
C397 C398 1.428 . S
C398 H390 0.949 . S
C398 C397 1.428 . S
C398 C399 1.345 . S
C399 H391 0.950 . S
C399 C398 1.345 . S
C399 C400 1.424 . S
C400 H392 0.951 . S
C400 C399 1.424 . S
C400 C401 1.347 . S
C401 H393 0.951 . S
C401 C396 1.429 . S
C401 C400 1.347 . S
H402 C403 0.951 . S
C403 H402 0.951 . S
C403 C409 1.265 . S
H404 C409 0.950 . S
H405 C413 0.949 . S
H406 C414 0.950 . S
H407 C415 0.951 . S
H408 C416 0.951 . S
C409 C403 1.265 . S
C409 H404 0.950 . S
C409 C410 1.478 . S
C410 C409 1.478 . S
C410 C411 1.397 . S
C410 C427 1.394 . S
C411 C410 1.397 . S
C411 C412 1.438 . S
C411 C416 1.429 . S
C412 C411 1.438 . S
C412 C413 1.428 . S
C412 C425 1.394 . S
C413 H405 0.949 . S
C413 C412 1.428 . S
C413 C414 1.345 . S
C414 H406 0.950 . S
C414 C413 1.345 . S
C414 C415 1.424 . S
C415 H407 0.951 . S
C415 C414 1.424 . S
C415 C416 1.347 . S
C416 H408 0.951 . S
C416 C411 1.429 . S
C416 C415 1.347 . S
H417 C418 0.951 . S
C418 H417 0.951 . S
C418 C424 1.265 . S
H419 C424 0.950 . S
H420 C428 0.949 . S
H421 C429 0.950 . S
H422 C430 0.951 . S
H423 C431 0.951 . S
C424 C418 1.265 . S
C424 H419 0.950 . S
C424 C425 1.478 . S
C425 C412 1.394 . S
C425 C424 1.478 . S
C425 C426 1.397 . S
C426 C425 1.397 . S
C426 C427 1.438 . S
C426 C431 1.429 . S
C427 C410 1.394 . S
C427 C426 1.438 . S
C427 C428 1.428 . S
C428 H420 0.949 . S
C428 C427 1.428 . S
C428 C429 1.345 . S
C429 H421 0.950 . S
C429 C428 1.345 . S
C429 C430 1.424 . S
C430 H422 0.951 . S
C430 C429 1.424 . S
C430 C431 1.347 . S
C431 H423 0.951 . S
C431 C426 1.429 . S
C431 C430 1.347 . S
H432 C433 0.951 . S
C433 H432 0.951 . S
C433 C439 1.265 . S
H434 C439 0.950 . S
H435 C443 0.949 . S
H436 C444 0.950 1_545 S
H437 C445 0.951 1_545 S
H438 C446 0.951 . S
C439 C433 1.265 . S
C439 H434 0.950 . S
C439 C440 1.478 . S
C440 C439 1.478 . S
C440 C441 1.397 . S
C440 C457 1.394 . S
C441 C440 1.397 . S
C441 C442 1.438 . S
C441 C446 1.429 . S
C442 C441 1.438 . S
C442 C443 1.428 . S
C442 C455 1.394 . S
C443 H435 0.949 . S
C443 C442 1.428 . S
C443 C444 1.345 . S
C444 H436 0.950 1_565 S
C444 C443 1.345 . S
C444 C445 1.424 . S
C445 H437 0.951 1_565 S
C445 C444 1.424 . S
C445 C446 1.347 . S
C446 H438 0.951 . S
C446 C441 1.429 . S
C446 C445 1.347 . S
H447 C448 0.951 . S
C448 H447 0.951 . S
C448 C454 1.265 . S
H449 C454 0.950 . S
H450 C458 0.949 . S
H451 C459 0.950 . S
H452 C460 0.951 . S
H453 C461 0.951 . S
C454 C448 1.265 . S
C454 H449 0.950 . S
C454 C455 1.478 . S
C455 C442 1.394 . S
C455 C454 1.478 . S
C455 C456 1.397 . S
C456 C455 1.397 . S
C456 C457 1.438 . S
C456 C461 1.429 . S
C457 C440 1.394 . S
C457 C456 1.438 . S
C457 C458 1.428 . S
C458 H450 0.949 . S
C458 C457 1.428 . S
C458 C459 1.345 . S
C459 H451 0.950 . S
C459 C458 1.345 . S
C459 C460 1.424 . S
C460 H452 0.951 . S
C460 C459 1.424 . S
C460 C461 1.347 . S
C461 H453 0.951 . S
C461 C456 1.429 . S
C461 C460 1.347 . S
H462 C463 0.951 . S
C463 H462 0.951 . S
C463 C469 1.265 . S
H464 C469 0.950 . S
H465 C473 0.949 . S
H466 C474 0.950 . S
H467 C475 0.951 . S
H468 C476 0.951 . S
C469 C463 1.265 . S
C469 H464 0.950 . S
C469 C470 1.478 . S
C470 C469 1.478 . S
C470 C471 1.397 . S
C470 C487 1.394 . S
C471 C470 1.397 . S
C471 C472 1.438 . S
C471 C476 1.429 1_556 S
C472 C471 1.438 . S
C472 C473 1.428 . S
C472 C485 1.394 . S
C473 H465 0.949 . S
C473 C472 1.428 . S
C473 C474 1.345 1_556 S
C474 H466 0.950 . S
C474 C473 1.345 1_554 S
C474 C475 1.424 . S
C475 H467 0.951 . S
C475 C474 1.424 . S
C475 C476 1.347 . S
C476 H468 0.951 . S
C476 C471 1.429 1_554 S
C476 C475 1.347 . S
H477 C478 0.951 . S
C478 H477 0.951 . S
C478 C484 1.265 . S
H479 C484 0.950 . S
H480 C488 0.949 . S
H481 C489 0.950 . S
H482 C490 0.951 . S
H483 C491 0.951 . S
C484 C478 1.265 . S
C484 H479 0.950 . S
C484 C485 1.478 . S
C485 C472 1.394 . S
C485 C484 1.478 . S
C485 C486 1.397 . S
C486 C485 1.397 . S
C486 C487 1.438 . S
C486 C491 1.429 . S
C487 C470 1.394 . S
C487 C486 1.438 . S
C487 C488 1.428 . S
C488 H480 0.949 . S
C488 C487 1.428 . S
C488 C489 1.345 . S
C489 H481 0.950 . S
C489 C488 1.345 . S
C489 C490 1.424 . S
C490 H482 0.951 . S
C490 C489 1.424 . S
C490 C491 1.347 . S
C491 H483 0.951 . S
C491 C486 1.429 . S
C491 C490 1.347 . S
H492 C493 0.951 . S
C493 H492 0.951 . S
C493 C499 1.265 . S
H494 C499 0.950 1_655 S
H495 C503 0.949 . S
H496 C504 0.950 . S
H497 C505 0.951 . S
H498 C506 0.951 . S
C499 C493 1.265 . S
C499 H494 0.950 1_455 S
C499 C500 1.478 . S
C500 C499 1.478 . S
C500 C501 1.397 . S
C500 C517 1.394 . S
C501 C500 1.397 . S
C501 C502 1.438 1_455 S
C501 C506 1.429 . S
C502 C501 1.438 1_655 S
C502 C503 1.428 . S
C502 C515 1.394 . S
C503 H495 0.949 . S
C503 C502 1.428 . S
C503 C504 1.345 . S
C504 H496 0.950 . S
C504 C503 1.345 . S
C504 C505 1.424 1_655 S
C505 H497 0.951 . S
C505 C504 1.424 1_455 S
C505 C506 1.347 . S
C506 H498 0.951 . S
C506 C501 1.429 . S
C506 C505 1.347 . S
H507 C508 0.951 . S
C508 H507 0.951 . S
C508 C514 1.265 . S
H509 C514 0.950 1_455 S
H510 C518 0.949 . S
H511 C519 0.950 . S
H512 C520 0.951 . S
H513 C521 0.951 . S
C514 C508 1.265 . S
C514 H509 0.950 1_655 S
C514 C515 1.478 . S
C515 C502 1.394 . S
C515 C514 1.478 . S
C515 C516 1.397 . S
C516 C515 1.397 . S
C516 C517 1.438 1_655 S
C516 C521 1.429 . S
C517 C500 1.394 . S
C517 C516 1.438 1_455 S
C517 C518 1.428 . S
C518 H510 0.949 . S
C518 C517 1.428 . S
C518 C519 1.345 . S
C519 H511 0.950 . S
C519 C518 1.345 . S
C519 C520 1.424 1_455 S
C520 H512 0.951 . S
C520 C519 1.424 1_655 S
C520 C521 1.347 . S
C521 H513 0.951 . S
C521 C516 1.429 . S
C521 C520 1.347 . S
H522 C523 0.951 . S
C523 H522 0.951 . S
C523 C529 1.265 . S
H524 C529 0.950 . S
H525 C533 0.949 . S
H526 C534 0.950 . S
H527 C535 0.951 . S
H528 C536 0.951 . S
C529 C523 1.265 . S
C529 H524 0.950 . S
C529 C530 1.478 . S
C530 C529 1.478 . S
C530 C531 1.397 1_565 S
C530 C547 1.394 . S
C531 C530 1.397 1_545 S
C531 C532 1.438 1_556 S
C531 C536 1.429 . S
C532 C531 1.438 1_554 S
C532 C533 1.428 . S
C532 C545 1.394 . S
C533 H525 0.949 . S
C533 C532 1.428 . S
C533 C534 1.345 . S
C534 H526 0.950 . S
C534 C533 1.345 . S
C534 C535 1.424 1_554 S
C535 H527 0.951 . S
C535 C534 1.424 1_556 S
C535 C536 1.347 . S
C536 H528 0.951 . S
C536 C531 1.429 . S
C536 C535 1.347 . S
H537 C538 0.951 . S
C538 H537 0.951 . S
C538 C544 1.265 . S
H539 C544 0.950 . S
H540 C548 0.949 . S
H541 C549 0.950 . S
H542 C550 0.951 . S
H543 C551 0.951 . S
C544 C538 1.265 . S
C544 H539 0.950 . S
C544 C545 1.478 . S
C545 C532 1.394 . S
C545 C544 1.478 . S
C545 C546 1.397 1_545 S
C546 C545 1.397 1_565 S
C546 C547 1.438 1_554 S
C546 C551 1.429 . S
C547 C530 1.394 . S
C547 C546 1.438 1_556 S
C547 C548 1.428 . S
C548 H540 0.949 . S
C548 C547 1.428 . S
C548 C549 1.345 . S
C549 H541 0.950 . S
C549 C548 1.345 . S
C549 C550 1.424 1_556 S
C550 H542 0.951 . S
C550 C549 1.424 1_554 S
C550 C551 1.347 . S
C551 H543 0.951 . S
C551 C546 1.429 . S
C551 C550 1.347 . S
H552 C553 0.951 . S
C553 H552 0.951 . S
C553 C559 1.265 . S
H554 C559 0.950 . S
H555 C563 0.949 . S
H556 C564 0.950 . S
H557 C565 0.951 . S
H558 C566 0.951 . S
C559 C553 1.265 . S
C559 H554 0.950 . S
C559 C560 1.478 . S
C560 C559 1.478 . S
C560 C561 1.397 . S
C560 C577 1.394 . S
C561 C560 1.397 . S
C561 C562 1.438 . S
C561 C566 1.429 . S
C562 C561 1.438 . S
C562 C563 1.428 . S
C562 C575 1.394 . S
C563 H555 0.949 . S
C563 C562 1.428 . S
C563 C564 1.345 . S
C564 H556 0.950 . S
C564 C563 1.345 . S
C564 C565 1.424 . S
C565 H557 0.951 . S
C565 C564 1.424 . S
C565 C566 1.347 . S
C566 H558 0.951 . S
C566 C561 1.429 . S
C566 C565 1.347 . S
H567 C568 0.951 . S
C568 H567 0.951 . S
C568 C574 1.265 . S
H569 C574 0.950 . S
H570 C578 0.949 . S
H571 C579 0.950 . S
H572 C580 0.951 . S
H573 C581 0.951 . S
C574 C568 1.265 . S
C574 H569 0.950 . S
C574 C575 1.478 . S
C575 C562 1.394 . S
C575 C574 1.478 . S
C575 C576 1.397 . S
C576 C575 1.397 . S
C576 C577 1.438 . S
C576 C581 1.429 . S
C577 C560 1.394 . S
C577 C576 1.438 . S
C577 C578 1.428 . S
C578 H570 0.949 . S
C578 C577 1.428 . S
C578 C579 1.345 . S
C579 H571 0.950 . S
C579 C578 1.345 . S
C579 C580 1.424 . S
C580 H572 0.951 . S
C580 C579 1.424 . S
C580 C581 1.347 . S
C581 H573 0.951 . S
C581 C576 1.429 . S
C581 C580 1.347 . S
H582 C583 0.951 . S
C583 H582 0.951 . S
C583 C589 1.265 . S
H584 C589 0.927 1_655 S
H585 C593 0.949 . S
H586 C594 0.950 . S
H587 C595 0.951 . S
H588 C596 0.951 . S
C589 C583 1.265 . S
C589 H584 0.927 1_455 S
C589 C590 1.478 . S
C590 C589 1.478 . S
C590 C591 1.397 1_455 S
C590 C607 1.394 . S
C591 C590 1.397 1_655 S
C591 C592 1.438 . S
C591 C596 1.429 . S
C592 C591 1.438 . S
C592 C593 1.428 . S
C592 C605 1.394 . S
C593 H585 0.949 . S
C593 C592 1.428 . S
C593 C594 1.345 . S
C594 H586 0.950 . S
C594 C593 1.345 . S
C594 C595 1.424 . S
C595 H587 0.951 . S
C595 C594 1.424 . S
C595 C596 1.347 . S
C596 H588 0.951 . S
C596 C591 1.429 . S
C596 C595 1.347 . S
H597 C598 0.951 . S
C598 H597 0.951 . S
C598 C604 1.265 . S
H599 C604 0.940 1_455 S
H600 C608 0.949 . S
H601 C609 0.950 . S
H602 C610 0.951 . S
H603 C611 0.951 . S
C604 C598 1.265 . S
C604 H599 0.940 1_655 S
C604 C605 1.478 . S
C605 C592 1.394 . S
C605 C604 1.478 . S
C605 C606 1.397 1_655 S
C606 C605 1.397 1_455 S
C606 C607 1.438 . S
C606 C611 1.429 . S
C607 C590 1.394 . S
C607 C606 1.438 . S
C607 C608 1.428 . S
C608 H600 0.949 . S
C608 C607 1.428 . S
C608 C609 1.345 . S
C609 H601 0.950 . S
C609 C608 1.345 . S
C609 C610 1.424 . S
C610 H602 0.951 . S
C610 C609 1.424 . S
C610 C611 1.347 . S
C611 H603 0.951 . S
C611 C606 1.429 . S
C611 C610 1.347 . S
H612 C613 0.951 . S
C613 H612 0.951 . S
C613 C619 1.265 . S
H614 C619 0.950 . S
H615 C623 0.949 . S
H616 C624 0.950 . S
H617 C625 0.951 . S
H618 C626 0.951 . S
C619 C613 1.265 . S
C619 H614 0.950 . S
C619 C620 1.478 . S
C620 C619 1.478 . S
C620 C621 1.397 1_565 S
C620 C637 1.394 . S
C621 C620 1.397 1_545 S
C621 C622 1.438 . S
C621 C626 1.429 . S
C622 C621 1.438 . S
C622 C623 1.428 . S
C622 C635 1.394 . S
C623 H615 0.949 . S
C623 C622 1.428 . S
C623 C624 1.345 . S
C624 H616 0.950 . S
C624 C623 1.345 . S
C624 C625 1.424 . S
C625 H617 0.951 . S
C625 C624 1.424 . S
C625 C626 1.347 . S
C626 H618 0.951 . S
C626 C621 1.429 . S
C626 C625 1.347 . S
H627 C628 0.951 . S
C628 H627 0.951 . S
C628 C634 1.265 . S
H629 C634 0.950 . S
H630 C638 0.949 . S
H631 C639 0.950 . S
H632 C640 0.951 . S
H633 C641 0.951 . S
C634 C628 1.265 . S
C634 H629 0.950 . S
C634 C635 1.478 . S
C635 C622 1.394 . S
C635 C634 1.478 . S
C635 C636 1.397 1_545 S
C636 C635 1.397 1_565 S
C636 C637 1.438 . S
C636 C641 1.429 . S
C637 C620 1.394 . S
C637 C636 1.438 . S
C637 C638 1.428 . S
C638 H630 0.949 . S
C638 C637 1.428 . S
C638 C639 1.345 . S
C639 H631 0.950 . S
C639 C638 1.345 . S
C639 C640 1.424 . S
C640 H632 0.951 . S
C640 C639 1.424 . S
C640 C641 1.347 . S
C641 H633 0.951 . S
C641 C636 1.429 . S
C641 C640 1.347 . S
H642 C643 0.951 . S
C643 H642 0.951 . S
C643 C649 1.265 . S
H644 C649 0.950 . S
H645 C653 0.949 . S
H646 C654 0.950 . S
H647 C655 0.951 . S
H648 C656 0.951 . S
C649 C643 1.265 . S
C649 H644 0.950 . S
C649 C650 1.478 . S
C650 C649 1.478 . S
C650 C651 1.397 . S
C650 C667 1.394 . S
C651 C650 1.397 . S
C651 C652 1.438 . S
C651 C656 1.429 . S
C652 C651 1.438 . S
C652 C653 1.428 . S
C652 C665 1.394 . S
C653 H645 0.949 . S
C653 C652 1.428 . S
C653 C654 1.345 . S
C654 H646 0.950 . S
C654 C653 1.345 . S
C654 C655 1.424 . S
C655 H647 0.951 . S
C655 C654 1.424 . S
C655 C656 1.347 . S
C656 H648 0.951 . S
C656 C651 1.429 . S
C656 C655 1.347 . S
H657 C658 0.951 . S
C658 H657 0.951 . S
C658 C664 1.265 . S
H659 C664 0.950 . S
H660 C668 0.949 . S
H661 C669 0.950 . S
H662 C670 0.951 . S
H663 C671 0.951 . S
C664 C658 1.265 . S
C664 H659 0.950 . S
C664 C665 1.478 . S
C665 C652 1.394 . S
C665 C664 1.478 . S
C665 C666 1.397 . S
C666 C665 1.397 . S
C666 C667 1.438 . S
C666 C671 1.429 . S
C667 C650 1.394 . S
C667 C666 1.438 . S
C667 C668 1.428 . S
C668 H660 0.949 . S
C668 C667 1.428 . S
C668 C669 1.345 . S
C669 H661 0.950 . S
C669 C668 1.345 . S
C669 C670 1.424 . S
C670 H662 0.951 . S
C670 C669 1.424 . S
C670 C671 1.347 . S
C671 H663 0.951 . S
C671 C666 1.429 . S
C671 C670 1.347 . S
C133 C8 1.611 . S
C148 C118 1.609 . S
C163 C129 1.606 . S
C178 C19 1.618 . S
C193 C74 1.605 . S
C208 C30 1.616 . S
C223 C41 1.615 . S
C238 C85 1.614 . S
C253 C96 1.608 . S
C268 C52 1.621 . S
C283 C63 1.606 . S
C298 C107 1.620 . S
C313 C7 1.642 . S
C328 C95 1.629 . S
C343 C106 1.655 . S
C358 C18 1.652 . S
C373 C29 1.630 . S
C388 C117 1.643 . S
C403 C128 1.640 . S
C418 C40 1.627 . S
C433 C51 1.613 . S
C448 C73 1.616 . S
C463 C62 1.630 . S
C478 C84 1.643 . S
C493 C5 1.444 1_556 S
C508 C126 1.426 . S
C523 C71 1.320 . S
C538 C16 1.354 . S
C553 C27 1.329 . S
C568 C82 1.308 1_554 S
C583 C93 1.415 . S
C598 C38 1.440 . S
C613 C49 1.370 . S
C628 C104 1.409 . S
C643 C115 1.308 . S
C658 C60 1.330 . S
