# Generated by pormake.
# Topology wkl, (6)-cn, num edge types: 1
# Building blocks:
#     Node 0, Type 0, BuildingBlock: OJICUG_clean_sbu_0, # of connection points: 6
#     Node 1, Type 0, BuildingBlock: OJICUG_clean_sbu_0, # of connection points: 6
#     Node 2, Type 0, BuildingBlock: OJICUG_clean_sbu_0, # of connection points: 6
#     Node 3, Type 0, BuildingBlock: OJICUG_clean_sbu_0, # of connection points: 6
#     Node 4, Type 0, BuildingBlock: OJICUG_clean_sbu_0, # of connection points: 6
#     Node 5, Type 0, BuildingBlock: OJICUG_clean_sbu_0, # of connection points: 6
#     Node 6, Type 0, BuildingBlock: OJICUG_clean_sbu_0, # of connection points: 6
#     Node 7, Type 0, BuildingBlock: OJICUG_clean_sbu_0, # of connection points: 6
#     Node 8, Type 0, BuildingBlock: OJICUG_clean_sbu_0, # of connection points: 6
#     Node 9, Type 0, BuildingBlock: OJICUG_clean_sbu_0, # of connection points: 6
#     Node 10, Type 0, BuildingBlock: OJICUG_clean_sbu_0, # of connection points: 6
#     Node 11, Type 0, BuildingBlock: OJICUG_clean_sbu_0, # of connection points: 6
#     Edge 12, Type (0, 0), BuildingBlock: MIFKUJ_clean_linker_0, # of connection points: 2
#     Edge 13, Type (0, 0), BuildingBlock: MIFKUJ_clean_linker_0, # of connection points: 2
#     Edge 14, Type (0, 0), BuildingBlock: MIFKUJ_clean_linker_0, # of connection points: 2
#     Edge 15, Type (0, 0), BuildingBlock: MIFKUJ_clean_linker_0, # of connection points: 2
#     Edge 16, Type (0, 0), BuildingBlock: MIFKUJ_clean_linker_0, # of connection points: 2
#     Edge 17, Type (0, 0), BuildingBlock: MIFKUJ_clean_linker_0, # of connection points: 2
#     Edge 18, Type (0, 0), BuildingBlock: MIFKUJ_clean_linker_0, # of connection points: 2
#     Edge 19, Type (0, 0), BuildingBlock: MIFKUJ_clean_linker_0, # of connection points: 2
#     Edge 20, Type (0, 0), BuildingBlock: MIFKUJ_clean_linker_0, # of connection points: 2
#     Edge 21, Type (0, 0), BuildingBlock: MIFKUJ_clean_linker_0, # of connection points: 2
#     Edge 22, Type (0, 0), BuildingBlock: MIFKUJ_clean_linker_0, # of connection points: 2
#     Edge 23, Type (0, 0), BuildingBlock: MIFKUJ_clean_linker_0, # of connection points: 2
#     Edge 24, Type (0, 0), BuildingBlock: MIFKUJ_clean_linker_0, # of connection points: 2
#     Edge 25, Type (0, 0), BuildingBlock: MIFKUJ_clean_linker_0, # of connection points: 2
#     Edge 26, Type (0, 0), BuildingBlock: MIFKUJ_clean_linker_0, # of connection points: 2
#     Edge 27, Type (0, 0), BuildingBlock: MIFKUJ_clean_linker_0, # of connection points: 2
#     Edge 28, Type (0, 0), BuildingBlock: MIFKUJ_clean_linker_0, # of connection points: 2
#     Edge 29, Type (0, 0), BuildingBlock: MIFKUJ_clean_linker_0, # of connection points: 2
#     Edge 30, Type (0, 0), BuildingBlock: MIFKUJ_clean_linker_0, # of connection points: 2
#     Edge 31, Type (0, 0), BuildingBlock: MIFKUJ_clean_linker_0, # of connection points: 2
#     Edge 32, Type (0, 0), BuildingBlock: MIFKUJ_clean_linker_0, # of connection points: 2
#     Edge 33, Type (0, 0), BuildingBlock: MIFKUJ_clean_linker_0, # of connection points: 2
#     Edge 34, Type (0, 0), BuildingBlock: MIFKUJ_clean_linker_0, # of connection points: 2
#     Edge 35, Type (0, 0), BuildingBlock: MIFKUJ_clean_linker_0, # of connection points: 2
#     Edge 36, Type (0, 0), BuildingBlock: MIFKUJ_clean_linker_0, # of connection points: 2
#     Edge 37, Type (0, 0), BuildingBlock: MIFKUJ_clean_linker_0, # of connection points: 2
#     Edge 38, Type (0, 0), BuildingBlock: MIFKUJ_clean_linker_0, # of connection points: 2
#     Edge 39, Type (0, 0), BuildingBlock: MIFKUJ_clean_linker_0, # of connection points: 2
#     Edge 40, Type (0, 0), BuildingBlock: MIFKUJ_clean_linker_0, # of connection points: 2
#     Edge 41, Type (0, 0), BuildingBlock: MIFKUJ_clean_linker_0, # of connection points: 2
#     Edge 42, Type (0, 0), BuildingBlock: MIFKUJ_clean_linker_0, # of connection points: 2
#     Edge 43, Type (0, 0), BuildingBlock: MIFKUJ_clean_linker_0, # of connection points: 2
#     Edge 44, Type (0, 0), BuildingBlock: MIFKUJ_clean_linker_0, # of connection points: 2
#     Edge 45, Type (0, 0), BuildingBlock: MIFKUJ_clean_linker_0, # of connection points: 2
#     Edge 46, Type (0, 0), BuildingBlock: MIFKUJ_clean_linker_0, # of connection points: 2
#     Edge 47, Type (0, 0), BuildingBlock: MIFKUJ_clean_linker_0, # of connection points: 2
# Relax obj value: 0.345
# Max RMSD: 0.288
# Mean RMSD: 0.288
data_MOF--net-wkl--node1-OJICUG_clean_sbu_0--edge1-MIFKUJ_clean_linker_0
_symmetry_space_group_name_H-M    P1
_symmetry_Int_Tables_number       1
_symmetry_cell_setting            triclinic
loop_
_symmetry_equiv_pos_as_xyz
'x, y, z'
_cell_length_a     91.847807
_cell_length_b     91.870511
_cell_length_c     20.196216
_cell_angle_alpha  90.012797
_cell_angle_beta   90.009391
_cell_angle_gamma 120.01592
loop_
_atom_site_label
_atom_site_type_symbol
_atom_site_fract_x
_atom_site_fract_y
_atom_site_fract_z
_atom_type_partial_charge
Sc0 Sc 0.46513 0.10701 0.06098 0.0
Sc1 Sc 0.48214 0.14162 0.9537 0.0
Sc2 Sc 0.44022 0.1241 0.00891 0.0
O3 O 0.46249 0.12424 0.00785 0.0
C4 C 0.42801 0.08493 0.00527 0.0
C5 C 0.48515 0.1092 0.92826 0.0
C6 C 0.45081 0.13225 0.85768 0.0
C7 C 0.50083 0.13932 0.08372 0.0
C8 C 0.44372 0.11639 0.15984 0.0
C9 C 0.46739 0.16341 0.01292 0.0
O10 O 0.4421 0.0867 0.02272 0.0
O11 O 0.48646 0.12293 0.90824 0.0
O12 O 0.43948 0.12523 0.90181 0.0
O13 O 0.48849 0.12563 0.10446 0.0
O14 O 0.43875 0.12295 0.1162 0.0
O15 O 0.47982 0.16196 0.99431 0.0
O16 O 0.45253 0.10968 0.14563 0.0
O17 O 0.50052 0.14608 0.02924 0.0
O18 O 0.45249 0.15102 0.0168 0.0
O19 O 0.47838 0.10244 0.98317 0.0
O20 O 0.42524 0.09714 1.0014 0.0
O21 O 0.46642 0.13925 0.87078 0.0
Sc22 Sc 0.35414 0.46451 0.19276 0.0
Sc23 Sc 0.34007 0.48661 0.09595 0.0
Sc24 Sc 0.31212 0.4448 0.14191 0.0
O25 O 0.33547 0.46532 0.14336 0.0
C26 C 0.33542 0.42818 0.13268 0.0
C27 C 0.37318 0.48563 0.06347 0.0
C28 C 0.31616 0.45743 0.99399 0.0
C29 C 0.36152 0.50098 0.22938 0.0
C30 C 0.32261 0.44522 0.29083 0.0
C31 C 0.30438 0.47494 0.15612 0.0
O32 O 0.34905 0.44168 0.14467 0.0
O33 O 0.36155 0.48848 0.04586 0.0
O34 O 0.31141 0.4453 0.03481 0.0
O35 O 0.36078 0.48725 0.24512 0.0
O36 O 0.31146 0.44329 0.24876 0.0
O37 O 0.31914 0.48665 0.14264 0.0
O38 O 0.33799 0.45105 0.27533 0.0
O39 O 0.35574 0.50301 0.17496 0.0
O40 O 0.29987 0.45947 0.15057 0.0
O41 O 0.37272 0.47818 0.11719 0.0
O42 O 0.32108 0.42707 0.13566 0.0
O43 O 0.32509 0.47279 0.01116 0.0
Sc44 Sc 0.89971 0.35956 0.34042 0.0
Sc45 Sc 0.86271 0.34405 0.24687 0.0
Sc46 Sc 0.87815 0.31731 0.29155 0.0
O47 O 0.88019 0.34035 0.29289 0.0
C48 C 0.91789 0.34133 0.28031 0.0
C49 C 0.8961 0.37797 0.21232 0.0
C50 C 0.86924 0.32122 0.14363 0.0
C51 C 0.86994 0.36605 0.37874 0.0
C52 C 0.88847 0.32848 0.44004 0.0
C53 C 0.83975 0.30788 0.30551 0.0
O54 O 0.91771 0.35477 0.29272 0.0
O55 O 0.88144 0.36623 0.19741 0.0
O56 O 0.8766 0.31644 0.18451 0.0
O57 O 0.88363 0.36639 0.39207 0.0
O58 O 0.87942 0.31706 0.39846 0.0
O59 O 0.84218 0.32242 0.29234 0.0
O60 O 0.89757 0.34389 0.42413 0.0
O61 O 0.86133 0.35899 0.32704 0.0
O62 O 0.85126 0.30411 0.30102 0.0
O63 O 0.90395 0.37758 0.26358 0.0
O64 O 0.90486 0.32687 0.28367 0.0
O65 O 0.86249 0.32983 0.16106 0.0
Sc66 Sc 0.52921 0.89152 0.56942 0.0
Sc67 Sc 0.5101 0.85587 0.46761 0.0
Sc68 Sc 0.55283 0.87351 0.51126 0.0
O69 O 0.53071 0.8736 0.51617 0.0
C70 C 0.56526 0.91275 0.50491 0.0
C71 C 0.50724 0.88845 0.44238 0.0
C72 C 0.53977 0.86522 0.36273 0.0
C73 C 0.49412 0.85929 0.60368 0.0
C74 C 0.55162 0.88214 0.66262 0.0
C75 C 0.5258 0.83419 0.51837 0.0
O76 O 0.55143 0.91117 0.52471 0.0
O77 O 0.505 0.87421 0.4248 0.0
O78 O 0.55185 0.87197 0.40412 0.0
O79 O 0.50663 0.87349 0.61871 0.0
O80 O 0.55542 0.8748 0.61805 0.0
O81 O 0.51312 0.83564 0.50429 0.0
O82 O 0.54323 0.88944 0.6507 0.0
O83 O 0.49336 0.85167 0.54998 0.0
O84 O 0.54071 0.84661 0.51959 0.0
O85 O 0.51496 0.89586 0.49503 0.0
O86 O 0.56806 0.90055 0.50195 0.0
O87 O 0.5244 0.85831 0.37977 0.0
Sc88 Sc 0.6362 0.52718 0.72879 0.0
Sc89 Sc 0.65051 0.50684 0.62235 0.0
Sc90 Sc 0.67862 0.54823 0.67808 0.0
O91 O 0.65513 0.52742 0.6764 0.0
C92 C 0.65514 0.56448 0.67147 0.0
C93 C 0.61674 0.50785 0.59777 0.0
C94 C 0.67426 0.53713 0.52562 0.0
C95 C 0.62928 0.49 0.75319 0.0
C96 C 0.66728 0.54585 0.82897 0.0
C97 C 0.68667 0.5182 0.68204 0.0
O98 O 0.64203 0.55135 0.69146 0.0
O99 O 0.62767 0.50396 0.58059 0.0
O100 O 0.68096 0.54829 0.57073 0.0
O101 O 0.62848 0.50287 0.77075 0.0
O102 O 0.67878 0.55038 0.7854 0.0
O103 O 0.6727 0.50714 0.65791 0.0
O104 O 0.65174 0.53795 0.81445 0.0
O105 O 0.63658 0.48946 0.70054 0.0
O106 O 0.69051 0.5334 0.69078 0.0
O107 O 0.6181 0.5161 0.65011 0.0
O108 O 0.66942 0.56553 0.66646 0.0
O109 O 0.66353 0.52189 0.53801 0.0
Sc110 Sc 0.09791 0.63369 0.91013 0.0
Sc111 Sc 0.13398 0.64849 0.81061 0.0
Sc112 Sc 0.12015 0.67623 0.863 0.0
O113 O 0.11734 0.65281 0.86115 0.0
C114 C 0.08041 0.65299 0.84929 0.0
C115 C 0.09962 0.61537 0.77816 0.0
C116 C 0.12928 0.67329 0.7126 0.0
C117 C 0.12747 0.62635 0.9414 0.0
C118 C 0.10935 0.66435 0.01201 0.0
C119 C 0.15792 0.68371 0.87706 0.0
O120 O 0.08001 0.63951 0.867 0.0
O121 O 0.11429 0.6268 0.76186 0.0
O122 O 0.12323 0.67889 0.75598 0.0
O123 O 0.11407 0.62625 0.95782 0.0
O124 O 0.11743 0.67591 0.96972 0.0
O125 O 0.15541 0.66979 0.85403 0.0
O126 O 0.10114 0.64889 0.99618 0.0
O127 O 0.13551 0.63313 0.88839 0.0
O128 O 0.14666 0.68784 0.8802 0.0
O129 O 0.09244 0.61574 0.83143 0.0
O130 O 0.09379 0.66723 0.8485 0.0
O131 O 0.13428 0.66302 0.72667 0.0
Sc132 Sc 0.87501 0.55271 0.83193 0.0
Sc133 Sc 0.86288 0.51149 0.88222 0.0
Sc134 Sc 0.89883 0.53421 0.78385 0.0
O135 O 0.8789 0.53278 0.83264 0.0
C136 C 0.88536 0.5519 0.68304 0.0
C137 C 0.83747 0.52144 0.82189 0.0
C138 C 0.87065 0.4967 0.75165 0.0
C139 C 0.86696 0.54063 0.98128 0.0
C140 C 0.91498 0.571 0.84154 0.0
C141 C 0.89801 0.51436 0.9149 0.0
O142 O 0.87637 0.5542 0.72507 0.0
O143 O 0.84102 0.51027 0.83881 0.0
O144 O 0.88371 0.5104 0.7358 0.0
O145 O 0.87335 0.55254 0.93909 0.0
O146 O 0.91591 0.55801 0.82761 0.0
O147 O 0.8831 0.51042 0.93091 0.0
O148 O 0.9013 0.57128 0.84031 0.0
O149 O 0.8617 0.52534 0.96614 0.0
O150 O 0.90504 0.52227 0.86203 0.0
O151 O 0.84822 0.53704 0.82173 0.0
O152 O 0.89482 0.54599 0.69882 0.0
O153 O 0.86228 0.4951 0.80405 0.0
Sc154 Sc 0.3176 0.87456 0.01839 0.0
Sc155 Sc 0.34339 0.85871 0.07573 0.0
Sc156 Sc 0.36001 0.89318 0.96768 0.0
O157 O 0.3403 0.87546 0.02048 0.0
C158 C 0.32912 0.8821 0.86709 0.0
C159 C 0.30638 0.83558 0.02061 0.0
C160 C 0.36414 0.86096 0.94607 0.0
C161 C 0.32196 0.86862 0.17157 0.0
C162 C 0.34315 0.91408 0.01906 0.0
C163 C 0.37852 0.89227 0.09914 0.0
O164 O 0.31762 0.87606 0.91103 0.0
O165 O 0.32004 0.83766 0.04472 0.0
O166 O 0.36656 0.87538 0.93003 0.0
O167 O 0.31541 0.87306 0.12584 0.0
O168 O 0.35564 0.91283 0.9999 0.0
O169 O 0.36703 0.87757 0.1145 0.0
O170 O 0.32853 0.90146 0.02672 0.0
O171 O 0.33195 0.86311 0.16019 0.0
O172 O 0.37791 0.89983 0.04748 0.0
O173 O 0.30376 0.84765 0.00868 0.0
O174 O 0.34466 0.8887 0.88118 0.0
O175 O 0.35571 0.85303 0.9969 0.0
Sc176 Sc 0.43724 0.32254 0.20375 0.0
Sc177 Sc 0.47917 0.34766 0.25878 0.0
Sc178 Sc 0.46147 0.3647 0.15187 0.0
O179 O 0.45928 0.34497 0.20487 0.0
C180 C 0.44134 0.33363 0.05265 0.0
C181 C 0.46459 0.31068 0.2032 0.0
C182 C 0.49729 0.36804 0.12809 0.0
C183 C 0.44785 0.32649 0.35573 0.0
C184 C 0.42385 0.3486 0.20284 0.0
C185 C 0.48159 0.38307 0.28339 0.0
O186 O 0.436 0.32208 0.09631 0.0
O187 O 0.47681 0.3246 0.22254 0.0
O188 O 0.48519 0.3701 0.11016 0.0
O189 O 0.4365 0.32108 0.31114 0.0
O190 O 0.43783 0.36127 0.1867 0.0
O191 O 0.48399 0.37113 0.30057 0.0
O192 O 0.42171 0.3339 0.20853 0.0
O193 O 0.46344 0.33537 0.34271 0.0
O194 O 0.4738 0.38265 0.23072 0.0
O195 O 0.44973 0.30813 0.19726 0.0
O196 O 0.44986 0.34918 0.06678 0.0
O197 O 0.49722 0.36064 0.18128 0.0
Sc198 Sc 0.12443 0.44328 0.39064 0.0
Sc199 Sc 0.13616 0.48378 0.45152 0.0
Sc200 Sc 0.10489 0.46517 0.33116 0.0
O201 O 0.12188 0.46406 0.39123 0.0
C202 C 0.11845 0.44617 0.23812 0.0
C203 C 0.1625 0.47325 0.40466 0.0
C204 C 0.13546 0.50191 0.31668 0.0
C205 C 0.12746 0.45208 0.54433 0.0
C206 C 0.08457 0.42779 0.38179 0.0
C207 C 0.10219 0.48415 0.45934 0.0
O208 O 0.1262 0.44305 0.2832 0.0
O209 O 0.15892 0.48443 0.42144 0.0
O210 O 0.12353 0.48879 0.2902 0.0
O211 O 0.1231 0.44133 0.49778 0.0
O212 O 0.08521 0.44162 0.36822 0.0
O213 O 0.11499 0.4853 0.48829 0.0
O214 O 0.09757 0.42625 0.38625 0.0
O215 O 0.13297 0.46764 0.53405 0.0
O216 O 0.09777 0.47811 0.40151 0.0
O217 O 0.15142 0.45796 0.39476 0.0
O218 O 0.10958 0.45288 0.25066 0.0
O219 O 0.14053 0.50223 0.37568 0.0
Sc220 Sc 0.67544 0.12434 0.50387 0.0
Sc221 Sc 0.65242 0.14233 0.56397 0.0
Sc222 Sc 0.63482 0.11047 0.44689 0.0
O223 O 0.65428 0.12571 0.5049 0.0
C224 C 0.66625 0.11925 0.3534 0.0
C225 C 0.68902 0.164 0.51189 0.0
C226 C 0.6332 0.14314 0.43297 0.0
C227 C 0.67297 0.13033 0.65462 0.0
C228 C 0.64651 0.08565 0.49409 0.0
C229 C 0.61674 0.11161 0.58073 0.0
O230 O 0.67745 0.12696 0.39734 0.0
O231 O 0.67476 0.16274 0.5221 0.0
O232 O 0.63425 0.13148 0.4036 0.0
O233 O 0.67484 0.1216 0.61012 0.0
O234 O 0.63456 0.0887 0.48592 0.0
O235 O 0.63005 0.12264 0.60926 0.0
O236 O 0.66192 0.09717 0.49561 0.0
O237 O 0.66698 0.13989 0.6427 0.0
O238 O 0.61629 0.10762 0.52007 0.0
O239 O 0.69121 0.15135 0.51138 0.0
O240 O 0.6506 0.11132 0.36623 0.0
O241 O 0.63729 0.14694 0.49342 0.0
Sc242 Sc 0.55519 0.67241 0.6662 0.0
Sc243 Sc 0.51345 0.64726 0.72417 0.0
Sc244 Sc 0.53014 0.63063 0.6106 0.0
O245 O 0.53296 0.65011 0.66711 0.0
C246 C 0.55012 0.66207 0.51338 0.0
C247 C 0.52815 0.6846 0.67165 0.0
C248 C 0.49406 0.62739 0.59422 0.0
C249 C 0.54531 0.66787 0.81931 0.0
C250 C 0.56817 0.64613 0.65768 0.0
C251 C 0.51105 0.61159 0.74218 0.0
O252 O 0.55629 0.67325 0.55857 0.0
O253 O 0.51609 0.67081 0.6929 0.0
O254 O 0.50591 0.62507 0.57502 0.0
O255 O 0.55633 0.67387 0.77357 0.0
O256 O 0.55413 0.63402 0.63855 0.0
O257 O 0.50851 0.62332 0.76128 0.0
O258 O 0.5705 0.66073 0.66949 0.0
O259 O 0.52968 0.65858 0.80791 0.0
O260 O 0.51873 0.61235 0.68881 0.0
O261 O 0.54281 0.68692 0.66166 0.0
O262 O 0.54085 0.64652 0.52596 0.0
O263 O 0.49481 0.63516 0.64733 0.0
H264 H 0.41944 0.11372 0.80088 0.0
H265 H 0.41253 0.11123 0.68256 0.0
H266 H 0.46429 0.14701 0.63733 0.0
H267 H 0.47122 0.14977 0.75444 0.0
H268 H 0.44413 0.1521 0.55833 0.0
H269 H 0.44968 0.10482 0.63063 0.0
H270 H 0.4426 0.07991 0.69912 0.0
H271 H 0.39161 0.056 0.62947 0.0
H272 H 0.39837 0.08088 0.56109 0.0
H273 H 0.45354 0.10483 0.26525 0.0
H274 H 0.44908 0.10725 0.382 0.0
H275 H 0.42032 0.13129 0.33448 0.0
H276 H 0.42512 0.12929 0.2161 0.0
H277 H 0.42322 0.09558 0.46014 0.0
H278 H 0.42729 0.15996 0.45896 0.0
H279 H 0.43868 0.18559 0.39032 0.0
H280 H 0.47723 0.17641 0.31679 0.0
H281 H 0.46618 0.15086 0.38556 0.0
C282 C 0.42929 0.12125 0.76579 0.0
C283 C 0.44593 0.1318 0.78726 0.0
C284 C 0.42532 0.11978 0.69817 0.0
C285 C 0.43793 0.12882 0.65098 0.0
C286 C 0.45433 0.13994 0.67269 0.0
C287 C 0.4583 0.14139 0.73989 0.0
C288 C 0.43463 0.12585 0.57878 0.0
C289 C 0.4393 0.1397 0.53686 0.0
C290 C 0.42855 0.10973 0.55058 0.0
C291 C 0.42446 0.09477 0.59151 0.0
C292 C 0.43693 0.09429 0.63035 0.0
C293 C 0.43298 0.08018 0.66906 0.0
C294 C 0.41665 0.06641 0.66885 0.0
C295 C 0.40424 0.0667 0.62973 0.0
C296 C 0.40812 0.0808 0.59098 0.0
C297 C 0.44617 0.11057 0.2791 0.0
C298 C 0.4398 0.11699 0.23087 0.0
C299 C 0.44354 0.11185 0.34625 0.0
C300 C 0.43444 0.11953 0.3673 0.0
C301 C 0.42756 0.12548 0.31947 0.0
C302 C 0.43028 0.1243 0.25181 0.0
C303 C 0.43311 0.12189 0.43947 0.0
C304 C 0.42754 0.10791 0.48149 0.0
C305 C 0.43889 0.13798 0.46767 0.0
C306 C 0.44576 0.1534 0.42667 0.0
C307 C 0.43821 0.16344 0.4282 0.0
C308 C 0.44461 0.17795 0.38929 0.0
C309 C 0.45863 0.18258 0.349 0.0
C310 C 0.46633 0.17277 0.34778 0.0
C311 C 0.46 0.15827 0.38667 0.0
H312 H 0.46355 0.1938 0.31886 0.0
H313 H 0.41362 0.05549 0.69884 0.0
H314 H 0.30558 0.42757 0.92822 0.0
H315 H 0.30296 0.42295 0.80823 0.0
H316 H 0.3149 0.47423 0.77816 0.0
H317 H 0.31789 0.47905 0.89736 0.0
H318 H 0.28455 0.42533 0.70583 0.0
H319 H 0.34067 0.4905 0.64951 0.0
H320 H 0.36639 0.51272 0.70304 0.0
H321 H 0.36905 0.4757 0.82417 0.0
H322 H 0.34336 0.45328 0.77132 0.0
H323 H 0.29497 0.44281 0.35413 0.0
H324 H 0.29011 0.44165 0.4737 0.0
H325 H 0.33518 0.43916 0.50778 0.0
H326 H 0.34022 0.44051 0.38898 0.0
H327 H 0.33612 0.46304 0.57877 0.0
H328 H 0.29407 0.40498 0.5381 0.0
H329 H 0.26895 0.38226 0.48323 0.0
H330 H 0.23937 0.4034 0.55344 0.0
H331 H 0.26436 0.42633 0.60817 0.0
C332 C 0.3074 0.43779 0.89613 0.0
C333 C 0.31219 0.45376 0.92248 0.0
C334 C 0.30586 0.43512 0.82752 0.0
C335 C 0.30903 0.44833 0.7841 0.0
C336 C 0.31272 0.46393 0.81058 0.0
C337 C 0.31441 0.46666 0.87888 0.0
C338 C 0.30985 0.44627 0.71136 0.0
C339 C 0.29581 0.43356 0.67795 0.0
C340 C 0.32456 0.45693 0.67485 0.0
C341 C 0.34003 0.47027 0.70692 0.0
C342 C 0.34677 0.48712 0.68755 0.0
C343 C 0.36131 0.49974 0.71784 0.0
C344 C 0.36929 0.49564 0.76724 0.0
C345 C 0.36278 0.47889 0.7863 0.0
C346 C 0.34821 0.46622 0.75628 0.0
C347 C 0.30366 0.44168 0.38707 0.0
C348 C 0.31807 0.4419 0.36195 0.0
C349 C 0.30087 0.44104 0.45552 0.0
C350 C 0.31235 0.44045 0.49999 0.0
C351 C 0.32623 0.43978 0.47463 0.0
C352 C 0.32908 0.44053 0.40655 0.0
C353 C 0.31088 0.44198 0.57278 0.0
C354 C 0.32481 0.45474 0.60633 0.0
C355 C 0.29614 0.43127 0.60911 0.0
C356 C 0.28109 0.4174 0.57688 0.0
C357 C 0.28222 0.40481 0.54155 0.0
C358 C 0.26801 0.3919 0.51053 0.0
C359 C 0.25258 0.3914 0.51478 0.0
C360 C 0.25132 0.4038 0.55021 0.0
C361 C 0.2655 0.41673 0.58134 0.0
H362 H 0.24159 0.3814 0.49068 0.0
H363 H 0.38053 0.50546 0.79053 0.0
H364 H 0.91282 0.34404 0.53371 0.0
H365 H 0.91014 0.33945 0.65327 0.0
H366 H 0.85888 0.29948 0.62735 0.0
H367 H 0.86178 0.30354 0.50734 0.0
H368 H 0.89149 0.34441 0.73267 0.0
H369 H 0.84569 0.27298 0.7576 0.0
H370 H 0.83876 0.24672 0.69908 0.0
H371 H 0.88909 0.26961 0.62283 0.0
H372 H 0.89636 0.29595 0.68139 0.0
H373 H 0.85316 0.32753 0.04327 0.0
H374 H 0.85646 0.32556 0.92454 0.0
H375 H 0.88942 0.30565 0.96074 0.0
H376 H 0.88614 0.30748 0.0804 0.0
H377 H 0.86793 0.2902 0.85303 0.0
H378 H 0.90634 0.34597 0.93018 0.0
H379 H 0.91467 0.37263 0.98824 0.0
H380 H 0.88266 0.38171 0.86062 0.0
H381 H 0.8739 0.35494 0.80253 0.0
C382 C 0.90109 0.33404 0.55344 0.0
C383 C 0.88753 0.32413 0.51113 0.0
C384 C 0.89954 0.33146 0.62185 0.0
C385 C 0.88431 0.31908 0.64971 0.0
C386 C 0.87087 0.30887 0.60729 0.0
C387 C 0.87253 0.31122 0.53859 0.0
C388 C 0.88219 0.31781 0.72307 0.0
C389 C 0.8864 0.33253 0.75876 0.0
C390 C 0.87563 0.30237 0.75769 0.0
C391 C 0.87152 0.28647 0.72353 0.0
C392 C 0.85531 0.27237 0.72871 0.0
C393 C 0.85131 0.25748 0.69542 0.0
C394 C 0.86346 0.25651 0.65716 0.0
C395 C 0.87967 0.2704 0.65231 0.0
C396 C 0.88373 0.28532 0.68545 0.0
C397 C 0.86097 0.32252 0.02634 0.0
C398 C 0.86955 0.31785 0.07173 0.0
C399 C 0.86284 0.32142 0.95825 0.0
C400 C 0.87339 0.31571 0.93379 0.0
C401 C 0.88125 0.31014 0.97861 0.0
C402 C 0.87938 0.31122 0.04703 0.0
C403 C 0.87709 0.31675 0.86176 0.0
C404 C 0.87311 0.30204 0.82657 0.0
C405 C 0.8841 0.33224 0.82749 0.0
C406 C 0.88936 0.34837 0.86232 0.0
C407 C 0.90097 0.35358 0.91484 0.0
C408 C 0.90578 0.36872 0.94772 0.0
C409 C 0.8992 0.37884 0.92812 0.0
C410 C 0.88775 0.37384 0.87572 0.0
C411 C 0.88286 0.35869 0.84279 0.0
H412 H 0.90301 0.3906 0.95335 0.0
H413 H 0.86034 0.24498 0.63135 0.0
H414 H 0.56858 0.86965 0.30205 0.0
H415 H 0.57422 0.87119 0.18272 0.0
H416 H 0.52525 0.86498 0.14295 0.0
H417 H 0.51933 0.86274 0.26087 0.0
H418 H 0.53044 0.84737 0.05928 0.0
H419 H 0.56369 0.90453 0.14089 0.0
H420 H 0.58529 0.92641 0.21265 0.0
H421 H 0.62273 0.91669 0.13047 0.0
H422 H 0.60127 0.89458 0.0589 0.0
H423 H 0.55649 0.90436 0.76097 0.0
H424 H 0.55893 0.90086 0.87949 0.0
H425 H 0.5584 0.85438 0.8421 0.0
H426 H 0.55608 0.85788 0.72274 0.0
H427 H 0.58047 0.89674 0.96315 0.0
H428 H 0.53012 0.82613 0.96375 0.0
H429 H 0.50629 0.80559 0.89621 0.0
H430 H 0.50005 0.84533 0.81492 0.0
H431 H 0.52349 0.86602 0.88362 0.0
C432 C 0.55902 0.86855 0.26769 0.0
C433 C 0.5435 0.86604 0.29098 0.0
C434 C 0.56227 0.86949 0.19951 0.0
C435 C 0.55022 0.86836 0.15359 0.0
C436 C 0.53472 0.86577 0.17707 0.0
C437 C 0.53136 0.86453 0.24476 0.0
C438 C 0.5536 0.87018 0.08105 0.0
C439 C 0.5415 0.85809 0.03843 0.0
C440 C 0.56792 0.88422 0.05342 0.0
C441 C 0.58086 0.89779 0.09516 0.0
C442 C 0.57652 0.90703 0.13836 0.0
C443 C 0.58874 0.91947 0.17898 0.0
C444 C 0.60537 0.92289 0.17629 0.0
C445 C 0.60984 0.91399 0.13262 0.0
C446 C 0.59766 0.90151 0.09201 0.0
C447 C 0.55722 0.89355 0.77779 0.0
C448 C 0.55595 0.88132 0.73259 0.0
C449 C 0.55872 0.89162 0.84554 0.0
C450 C 0.5587 0.8773 0.86961 0.0
C451 C 0.55837 0.8655 0.82445 0.0
C452 C 0.5571 0.86754 0.75634 0.0
C453 C 0.55723 0.87404 0.94192 0.0
C454 C 0.56964 0.88584 0.98426 0.0
C455 C 0.54295 0.85998 0.96943 0.0
C456 C 0.5288 0.84766 0.92786 0.0
C457 C 0.52366 0.83048 0.93147 0.0
C458 C 0.51019 0.8188 0.8931 0.0
C459 C 0.50176 0.82416 0.85079 0.0
C460 C 0.50667 0.8412 0.84732 0.0
C461 C 0.52005 0.85291 0.88603 0.0
H462 H 0.49136 0.81511 0.82095 0.0
H463 H 0.61481 0.93244 0.20802 0.0
H464 H 0.69835 0.56669 0.88581 0.0
H465 H 0.70494 0.57154 0.00452 0.0
H466 H 0.65294 0.53689 0.05118 0.0
H467 H 0.64625 0.53242 0.93433 0.0
H468 H 0.66345 0.56252 0.12797 0.0
H469 H 0.68517 0.52648 0.05731 0.0
H470 H 0.70324 0.51929 0.9909 0.0
H471 H 0.74725 0.56255 0.06734 0.0
H472 H 0.7294 0.5701 0.13358 0.0
H473 H 0.6568 0.51885 0.41824 0.0
H474 H 0.66163 0.52682 0.30221 0.0
H475 H 0.70519 0.57406 0.35402 0.0
H476 H 0.7003 0.5663 0.47209 0.0
H477 H 0.70515 0.55027 0.2315 0.0
H478 H 0.6804 0.58184 0.32051 0.0
H479 H 0.66001 0.58451 0.39129 0.0
H480 H 0.61919 0.54564 0.28031 0.0
H481 H 0.63934 0.54234 0.21016 0.0
C482 C 0.68834 0.56018 0.9215 0.0
C483 C 0.67176 0.5492 0.90028 0.0
C484 C 0.69213 0.56293 0.98936 0.0
C485 C 0.67944 0.55454 0.03707 0.0
C486 C 0.66294 0.54366 0.01565 0.0
C487 C 0.65914 0.54107 0.94841 0.0
C488 C 0.683 0.55653 0.10953 0.0
C489 C 0.67269 0.55998 0.15036 0.0
C490 C 0.69525 0.55354 0.13923 0.0
C491 C 0.70596 0.54898 0.09964 0.0
C492 C 0.6987 0.53452 0.05953 0.0
C493 C 0.70889 0.53037 0.022 0.0
C494 C 0.72638 0.54049 0.0247 0.0
C495 C 0.7337 0.55475 0.06514 0.0
C496 C 0.72356 0.55897 0.10268 0.0
C497 C 0.66755 0.5309 0.40549 0.0
C498 C 0.67816 0.54196 0.45484 0.0
C499 C 0.67027 0.53541 0.33892 0.0
C500 C 0.68374 0.55099 0.31972 0.0
C501 C 0.69474 0.56194 0.36813 0.0
C502 C 0.69188 0.55752 0.43542 0.0
C503 C 0.68532 0.5558 0.24901 0.0
C504 C 0.69642 0.55347 0.20871 0.0
C505 C 0.67357 0.55948 0.21959 0.0
C506 C 0.6614 0.56178 0.26032 0.0
C507 C 0.66708 0.57376 0.31151 0.0
C508 C 0.65556 0.57539 0.35153 0.0
C509 C 0.63831 0.56526 0.34029 0.0
C510 C 0.63255 0.55348 0.28896 0.0
C511 C 0.64402 0.55172 0.24908 0.0
H512 H 0.62941 0.56656 0.37128 0.0
H513 H 0.73426 0.53725 0.99562 0.0
H514 H 0.11481 0.6901 0.65357 0.0
H515 H 0.11264 0.6941 0.53465 0.0
H516 H 0.14183 0.67026 0.49214 0.0
H517 H 0.14436 0.66655 0.60991 0.0
H518 H 0.14994 0.69509 0.40713 0.0
H519 H 0.09864 0.64766 0.48937 0.0
H520 H 0.07424 0.63423 0.56457 0.0
H521 H 0.05742 0.66756 0.49554 0.0
H522 H 0.08181 0.68127 0.42032 0.0
H523 H 0.09458 0.64288 0.11613 0.0
H524 H 0.09848 0.6493 0.23372 0.0
H525 H 0.12994 0.70201 0.18948 0.0
H526 H 0.12647 0.69564 0.07077 0.0
H527 H 0.09179 0.66665 0.318 0.0
H528 H 0.16093 0.71956 0.30751 0.0
H529 H 0.18555 0.72977 0.23365 0.0
H530 H 0.16681 0.67976 0.15884 0.0
H531 H 0.14223 0.66923 0.23291 0.0
C532 C 0.12102 0.68599 0.61897 0.0
C533 C 0.12959 0.67781 0.64158 0.0
C534 C 0.11972 0.68823 0.55092 0.0
C535 C 0.12689 0.68228 0.50423 0.0
C536 C 0.1362 0.67497 0.52695 0.0
C537 C 0.13752 0.67276 0.59462 0.0
C538 C 0.12359 0.68221 0.4319 0.0
C539 C 0.13723 0.68908 0.38766 0.0
C540 C 0.10703 0.6741 0.40615 0.0
C541 C 0.0921 0.66558 0.4498 0.0
C542 C 0.08975 0.65214 0.49041 0.0
C543 C 0.07593 0.64448 0.533 0.0
C544 C 0.06431 0.65006 0.53499 0.0
C545 C 0.06642 0.66325 0.49403 0.0
C546 C 0.08023 0.67096 0.45134 0.0
C547 C 0.10224 0.6559 0.131 0.0
C548 C 0.11033 0.66872 0.08354 0.0
C549 C 0.10439 0.65955 0.19861 0.0
C550 C 0.11466 0.67611 0.22079 0.0
C551 C 0.12216 0.68909 0.1737 0.0
C552 C 0.1201 0.68543 0.10575 0.0
C553 C 0.11814 0.6794 0.29302 0.0
C554 C 0.10453 0.67307 0.33731 0.0
C555 C 0.13473 0.68756 0.31873 0.0
C556 C 0.14966 0.69367 0.27517 0.0
C557 C 0.16212 0.71074 0.27548 0.0
C558 C 0.17605 0.71658 0.23356 0.0
C559 C 0.17771 0.70543 0.19141 0.0
C560 C 0.16549 0.6884 0.19135 0.0
C561 C 0.15155 0.68249 0.23327 0.0
H562 H 0.1885 0.70998 0.15897 0.0
H563 H 0.05367 0.64415 0.56824 0.0
H564 H 0.84533 0.51982 0.07508 0.0
H565 H 0.84653 0.52443 0.19426 0.0
H566 H 0.889 0.57434 0.1681 0.0
H567 H 0.88749 0.56995 0.04801 0.0
H568 H 0.86997 0.52804 0.27209 0.0
H569 H 0.89253 0.5991 0.30088 0.0
H570 H 0.88891 0.62101 0.2454 0.0
H571 H 0.84131 0.58326 0.16765 0.0
H572 H 0.84453 0.56115 0.22335 0.0
H573 H 0.90626 0.55394 0.58288 0.0
H574 H 0.90203 0.55496 0.46427 0.0
H575 H 0.85711 0.55745 0.50183 0.0
H576 H 0.86134 0.55663 0.62134 0.0
H577 H 0.87491 0.5771 0.39487 0.0
H578 H 0.85343 0.5206 0.46959 0.0
H579 H 0.85431 0.49734 0.52688 0.0
H580 H 0.89416 0.50313 0.3988 0.0
H581 H 0.89376 0.52665 0.34155 0.0
C582 C 0.85476 0.5319 0.09454 0.0
C583 C 0.86638 0.54449 0.05214 0.0
C584 C 0.85545 0.5345 0.16279 0.0
C585 C 0.86788 0.5497 0.19048 0.0
C586 C 0.87914 0.56258 0.14804 0.0
C587 C 0.87829 0.56005 0.07936 0.0
C588 C 0.86986 0.55138 0.26375 0.0
C589 C 0.871 0.53877 0.29871 0.0
C590 C 0.871 0.56525 0.29902 0.0
C591 C 0.86887 0.57846 0.26578 0.0
C592 C 0.88126 0.59548 0.27214 0.0
C593 C 0.87929 0.60794 0.24062 0.0
C594 C 0.86492 0.60352 0.20285 0.0
C595 C 0.85247 0.58665 0.1967 0.0
C596 C 0.85438 0.57415 0.22815 0.0
C597 C 0.89558 0.55493 0.5662 0.0
C598 C 0.88401 0.55497 0.61176 0.0
C599 C 0.89319 0.55552 0.49825 0.0
C600 C 0.87909 0.55596 0.47422 0.0
C601 C 0.86805 0.55705 0.51938 0.0
C602 C 0.87048 0.55655 0.58767 0.0
C603 C 0.87526 0.55389 0.40228 0.0
C604 C 0.87382 0.56639 0.36783 0.0
C605 C 0.87343 0.5397 0.36742 0.0
C606 C 0.87366 0.5255 0.40163 0.0
C607 C 0.86248 0.51701 0.45398 0.0
C608 C 0.86288 0.50377 0.48643 0.0
C609 C 0.8743 0.49878 0.46654 0.0
C610 C 0.88534 0.50702 0.41418 0.0
C611 C 0.88503 0.52031 0.38171 0.0
H612 H 0.87455 0.4885 0.49153 0.0
H613 H 0.86341 0.61318 0.17847 0.0
H614 H 0.3504 0.89563 0.76196 0.0
H615 H 0.34342 0.89427 0.64552 0.0
H616 H 0.29056 0.86617 0.69255 0.0
H617 H 0.29748 0.86722 0.8106 0.0
H618 H 0.29721 0.85232 0.58948 0.0
H619 H 0.3077 0.90676 0.63735 0.0
H620 H 0.32168 0.93548 0.68314 0.0
H621 H 0.3656 0.94845 0.56653 0.0
H622 H 0.35193 0.91977 0.5203 0.0
H623 H 0.2931 0.86499 0.22917 0.0
H624 H 0.28856 0.86784 0.34787 0.0
H625 H 0.33969 0.88075 0.38929 0.0
H626 H 0.34412 0.87744 0.27247 0.0
H627 H 0.32625 0.90289 0.44664 0.0
H628 H 0.31523 0.84467 0.42107 0.0
H629 H 0.29929 0.81627 0.3726 0.0
H630 H 0.25324 0.81137 0.447 0.0
H631 H 0.26893 0.83987 0.49511 0.0
C632 C 0.33724 0.8892 0.74809 0.0
C633 C 0.32451 0.88153 0.7961 0.0
C634 C 0.33327 0.88856 0.68116 0.0
C635 C 0.31645 0.88039 0.66012 0.0
C636 C 0.30363 0.87266 0.70763 0.0
C637 C 0.30761 0.8733 0.7751 0.0
C638 C 0.31266 0.87935 0.58803 0.0
C639 C 0.30319 0.86344 0.55849 0.0
C640 C 0.32032 0.89382 0.54716 0.0
C641 C 0.32878 0.91106 0.57548 0.0
C642 C 0.32038 0.91569 0.6218 0.0
C643 C 0.32824 0.93198 0.64772 0.0
C644 C 0.34451 0.94378 0.62771 0.0
C645 C 0.35298 0.93931 0.58184 0.0
C646 C 0.34516 0.92304 0.55561 0.0
C647 C 0.30333 0.86848 0.26378 0.0
C648 C 0.31891 0.87088 0.24177 0.0
C649 C 0.30073 0.87008 0.33131 0.0
C650 C 0.31382 0.87451 0.37705 0.0
C651 C 0.32945 0.87734 0.3547 0.0
C652 C 0.33192 0.87535 0.28799 0.0
C653 C 0.31149 0.87591 0.44884 0.0
C654 C 0.31985 0.89188 0.47808 0.0
C655 C 0.30255 0.86157 0.48929 0.0
C656 C 0.2932 0.84445 0.46081 0.0
C657 C 0.30169 0.8376 0.42647 0.0
C658 C 0.29271 0.82147 0.39922 0.0
C659 C 0.27525 0.81204 0.40649 0.0
C660 C 0.26675 0.8187 0.44125 0.0
C661 C 0.27568 0.83483 0.46852 0.0
H662 H 0.26832 0.79956 0.38537 0.0
H663 H 0.35056 0.9564 0.64775 0.0
H664 H 0.46088 0.3517 0.94985 0.0
H665 H 0.45572 0.34594 0.83231 0.0
H666 H 0.40958 0.30003 0.87519 0.0
H667 H 0.41504 0.30553 0.99469 0.0
H668 H 0.42577 0.29555 0.77305 0.0
H669 H 0.4083 0.33492 0.82177 0.0
H670 H 0.40985 0.36028 0.87041 0.0
H671 H 0.45394 0.39155 0.75517 0.0
H672 H 0.45283 0.36641 0.70656 0.0
H673 H 0.4172 0.30364 0.41083 0.0
H674 H 0.40971 0.30007 0.52928 0.0
H675 H 0.45997 0.33915 0.57801 0.0
H676 H 0.4676 0.34264 0.46172 0.0
H677 H 0.43219 0.34265 0.63209 0.0
H678 H 0.45182 0.3021 0.60376 0.0
H679 H 0.44973 0.2765 0.55506 0.0
H680 H 0.3995 0.2471 0.63057 0.0
H681 H 0.40123 0.2726 0.67896 0.0
C682 C 0.44959 0.34036 0.93455 0.0
C683 C 0.43821 0.3292 0.98157 0.0
C684 C 0.44662 0.33711 0.86716 0.0
C685 C 0.43199 0.32283 0.84474 0.0
C686 C 0.42085 0.31125 0.89139 0.0
C687 C 0.42397 0.31439 0.9595 0.0
C688 C 0.4287 0.32036 0.77236 0.0
C689 C 0.42673 0.30568 0.74232 0.0
C690 C 0.42982 0.3335 0.73197 0.0
C691 C 0.43049 0.34873 0.76061 0.0
C692 C 0.41838 0.3472 0.80702 0.0
C693 C 0.41918 0.36154 0.83459 0.0
C694 C 0.43199 0.37751 0.81591 0.0
C695 C 0.44401 0.37918 0.76954 0.0
C696 C 0.44328 0.36488 0.74186 0.0
C697 C 0.42665 0.31137 0.44694 0.0
C698 C 0.443 0.32341 0.42664 0.0
C699 C 0.42236 0.3093 0.51441 0.0
C700 C 0.43431 0.3194 0.56208 0.0
C701 C 0.45058 0.33127 0.54188 0.0
C702 C 0.45492 0.33318 0.47519 0.0
C703 C 0.43016 0.3183 0.63334 0.0
C704 C 0.43068 0.33233 0.66306 0.0
C705 C 0.42754 0.30454 0.67309 0.0
C706 C 0.42656 0.28927 0.6441 0.0
C707 C 0.44027 0.29021 0.60935 0.0
C708 C 0.43916 0.27571 0.58196 0.0
C709 C 0.42447 0.26019 0.58949 0.0
C710 C 0.41086 0.25913 0.62463 0.0
C711 C 0.4119 0.2736 0.65205 0.0
H712 H 0.42364 0.24898 0.56828 0.0
H713 H 0.43259 0.3886 0.83734 0.0
H714 H 0.13714 0.43315 0.18239 0.0
H715 H 0.13895 0.42757 0.06439 0.0
H716 H 0.10454 0.44515 0.01703 0.0
H717 H 0.10237 0.45031 0.13291 0.0
H718 H 0.09627 0.41841 0.94848 0.0
H719 H 0.14871 0.47031 0.99516 0.0
H720 H 0.17617 0.48802 0.04891 0.0
H721 H 0.19274 0.45411 0.98468 0.0
H722 H 0.16535 0.43623 0.93027 0.0
H723 H 0.12228 0.46655 0.65212 0.0
H724 H 0.12079 0.45844 0.76806 0.0
H725 H 0.12826 0.41738 0.71183 0.0
H726 H 0.12932 0.42518 0.59439 0.0
H727 H 0.15072 0.44788 0.82932 0.0
H728 H 0.09776 0.39958 0.76084 0.0
H729 H 0.07097 0.38633 0.69932 0.0
H730 H 0.05556 0.41714 0.80344 0.0
H731 H 0.0824 0.43076 0.86479 0.0
C732 C 0.12991 0.43571 0.14675 0.0
C733 C 0.11966 0.44223 0.16751 0.0
C734 C 0.13099 0.43258 0.07928 0.0
C735 C 0.12191 0.43598 0.03156 0.0
C736 C 0.11158 0.44228 0.05261 0.0
C737 C 0.11045 0.44533 0.11935 0.0
C738 C 0.12319 0.43356 0.95928 0.0
C739 C 0.10823 0.42469 0.92266 0.0
C740 C 0.13875 0.44145 0.92512 0.0
C741 C 0.15495 0.45184 0.95959 0.0
C742 C 0.15816 0.46656 0.99313 0.0
C743 C 0.17373 0.47665 0.02348 0.0
C744 C 0.18618 0.47215 0.02052 0.0
C745 C 0.18308 0.45755 0.9871 0.0
C746 C 0.16755 0.44746 0.95639 0.0
C747 C 0.12355 0.45574 0.66416 0.0
C748 C 0.12594 0.44651 0.61409 0.0
C749 C 0.12268 0.45113 0.73043 0.0
C750 C 0.12442 0.43735 0.74827 0.0
C751 C 0.12684 0.42804 0.69876 0.0
C752 C 0.12738 0.43246 0.6319 0.0
C753 C 0.12384 0.43317 0.81931 0.0
C754 C 0.13887 0.44095 0.85556 0.0
C755 C 0.10836 0.42455 0.85319 0.0
C756 C 0.09214 0.41628 0.81694 0.0
C757 C 0.08873 0.40364 0.77013 0.0
C758 C 0.07352 0.39604 0.73541 0.0
C759 C 0.06158 0.40092 0.74736 0.0
C760 C 0.06482 0.41338 0.7942 0.0
C761 C 0.08002 0.42103 0.82901 0.0
H762 H 0.04982 0.39502 0.72042 0.0
H763 H 0.19825 0.48001 0.0438 0.0
H764 H 0.66818 0.10223 0.71986 0.0
H765 H 0.6709 0.09941 0.8396 0.0
H766 H 0.69 0.15254 0.86469 0.0
H767 H 0.6868 0.15533 0.74577 0.0
H768 H 0.70656 0.1367 0.94452 0.0
H769 H 0.65274 0.13145 0.88365 0.0
H770 H 0.62618 0.11861 0.82083 0.0
H771 H 0.61171 0.07059 0.90742 0.0
H772 H 0.63856 0.08298 0.9685 0.0
H773 H 0.69011 0.1459 0.28268 0.0
H774 H 0.69485 0.14693 0.16292 0.0
H775 H 0.65851 0.09394 0.14882 0.0
H776 H 0.65307 0.09322 0.2674 0.0
H777 H 0.6516 0.10843 0.06052 0.0
H778 H 0.70327 0.11194 0.12502 0.0
H779 H 0.7301 0.12281 0.18514 0.0
H780 H 0.74852 0.17115 0.09427 0.0
H781 H 0.72171 0.16063 0.03422 0.0
C782 C 0.67329 0.11334 0.75083 0.0
C783 C 0.67717 0.12897 0.72394 0.0
C784 C 0.67483 0.11172 0.819 0.0
C785 C 0.68062 0.12578 0.86066 0.0
C786 C 0.68558 0.14159 0.83317 0.0
C787 C 0.68365 0.14313 0.76545 0.0
C788 C 0.67968 0.12379 0.93339 0.0
C789 C 0.69459 0.13058 0.97027 0.0
C790 C 0.66401 0.11548 0.9663 0.0
C791 C 0.64781 0.1081 0.92986 0.0
C792 C 0.64403 0.1181 0.88855 0.0
C793 C 0.6289 0.11091 0.85333 0.0
C794 C 0.61726 0.09381 0.86025 0.0
C795 C 0.62076 0.08384 0.90208 0.0
C796 C 0.63596 0.09092 0.93676 0.0
C797 C 0.6834 0.13445 0.25393 0.0
C798 C 0.67121 0.1195 0.28388 0.0
C799 C 0.68615 0.135 0.18553 0.0
C800 C 0.67712 0.12047 0.14648 0.0
C801 C 0.66555 0.10535 0.17746 0.0
C802 C 0.6625 0.10492 0.24525 0.0
C803 C 0.67856 0.12121 0.07294 0.0
C804 C 0.66367 0.11432 0.03549 0.0
C805 C 0.69426 0.12916 0.03965 0.0
C806 C 0.71042 0.13553 0.07555 0.0
C807 C 0.713 0.12492 0.11821 0.0
C808 C 0.72821 0.13102 0.15222 0.0
C809 C 0.74099 0.14767 0.14365 0.0
C810 C 0.7386 0.15825 0.10091 0.0
C811 C 0.72341 0.15223 0.0668 0.0
H812 H 0.75276 0.15236 0.17003 0.0
H813 H 0.6055 0.08828 0.83335 0.0
H814 H 0.53534 0.64217 0.40613 0.0
H815 H 0.54158 0.64907 0.29011 0.0
H816 H 0.57911 0.6998 0.34131 0.0
H817 H 0.57277 0.693 0.45953 0.0
H818 H 0.55948 0.69839 0.23335 0.0
H819 H 0.59262 0.6743 0.29117 0.0
H820 H 0.5994 0.65423 0.34411 0.0
H821 H 0.56197 0.61418 0.22552 0.0
H822 H 0.55476 0.63393 0.17256 0.0
H823 H 0.57306 0.69522 0.87375 0.0
H824 H 0.58073 0.70012 0.99205 0.0
H825 H 0.53741 0.6523 0.04009 0.0
H826 H 0.52952 0.64752 0.92364 0.0
H827 H 0.56997 0.65946 0.09789 0.0
H828 H 0.53337 0.68371 0.063 0.0
H829 H 0.52677 0.70408 0.01163 0.0
H830 H 0.57282 0.74495 0.08749 0.0
H831 H 0.5798 0.72478 0.13852 0.0
C832 C 0.54497 0.65483 0.39335 0.0
C833 C 0.55371 0.66697 0.44259 0.0
C834 C 0.54856 0.65874 0.32665 0.0
C835 C 0.56109 0.67482 0.30704 0.0
C836 C 0.56951 0.68724 0.35552 0.0
C837 C 0.56588 0.68333 0.42294 0.0
C838 C 0.56501 0.67819 0.23546 0.0
C839 C 0.56227 0.69022 0.20381 0.0
C840 C 0.56874 0.6676 0.19683 0.0
C841 C 0.57313 0.65563 0.22792 0.0
C842 C 0.58577 0.66119 0.27657 0.0
C843 C 0.58969 0.64987 0.3066 0.0
C844 C 0.58112 0.63294 0.2882 0.0
C845 C 0.56862 0.6273 0.23966 0.0
C846 C 0.56463 0.63857 0.20951 0.0
C847 C 0.56524 0.68578 0.90972 0.0
C848 C 0.55064 0.67104 0.88952 0.0
C849 C 0.56961 0.68861 0.97705 0.0
C850 C 0.55961 0.67656 0.02454 0.0
C851 C 0.54528 0.66174 0.00413 0.0
C852 C 0.54076 0.65907 0.93756 0.0
C853 C 0.56362 0.67904 0.09609 0.0
C854 C 0.56783 0.66806 0.12762 0.0
C855 C 0.56145 0.69071 0.13438 0.0
C856 C 0.55723 0.70276 0.10363 0.0
C857 C 0.54218 0.69704 0.06806 0.0
C858 C 0.53834 0.70854 0.03917 0.0
C859 C 0.5494 0.7258 0.04604 0.0
C860 C 0.56429 0.73158 0.08202 0.0
C861 C 0.56819 0.72012 0.11092 0.0
H862 H 0.54641 0.73469 0.02368 0.0
H863 H 0.58417 0.6242 0.31153 0.0
H864 H 0.39416 0.07378 0.00316 0.0
H865 H 0.37122 0.04458 0.99339 0.0
H866 H 0.40754 0.02831 0.96796 0.0
H867 H 0.43038 0.05722 0.97741 0.0
H868 H 0.38014 0.01133 0.88611 0.0
H869 H 0.39252 0.02888 0.11983 0.0
H870 H 0.39408 0.04656 0.21461 0.0
H871 H 0.34181 0.03089 0.19051 0.0
H872 H 0.34002 0.01326 0.09503 0.0
H873 H 0.37284 0.94288 0.03756 0.0
H874 H 0.37812 0.97151 0.02861 0.0
H875 H 0.32497 0.95306 0.00891 0.0
H876 H 0.31943 0.92401 0.01742 0.0
H877 H 0.34977 0.98648 0.09632 0.0
H878 H 0.3374 0.9616 0.8794 0.0
H879 H 0.33827 0.94271 0.79475 0.0
H880 H 0.39217 0.97204 0.79058 0.0
H881 H 0.39166 0.99083 0.87659 0.0
C882 C 0.39722 0.06399 0.99434 0.0
C883 C 0.41408 0.06776 0.99186 0.0
C884 C 0.38411 0.04735 0.98884 0.0
C885 C 0.38773 0.03433 0.98032 0.0
C886 C 0.4045 0.0382 0.9743 0.0
C887 C 0.41755 0.05473 0.98027 0.0
C888 C 0.37446 0.01648 0.98384 0.0
C889 C 0.37318 0.00589 0.93143 0.0
C890 C 0.36511 0.00944 0.04251 0.0
C891 C 0.36619 0.01996 0.09992 0.0
C892 C 0.3814 0.02931 0.13451 0.0
C893 C 0.38232 0.0393 0.18836 0.0
C894 C 0.36807 0.0399 0.20843 0.0
C895 C 0.35285 0.03045 0.1748 0.0
C896 C 0.35187 0.02047 0.12082 0.0
C897 C 0.36219 0.94484 0.03251 0.0
C898 C 0.34574 0.93118 0.02703 0.0
C899 C 0.36524 0.96121 0.02768 0.0
C900 C 0.35193 0.96426 0.01727 0.0
C901 C 0.33535 0.95082 0.01686 0.0
C902 C 0.33225 0.9343 0.02173 0.0
C903 C 0.35607 0.98145 0.99964 0.0
C904 C 0.35582 0.99192 0.04944 0.0
C905 C 0.3641 0.9884 0.93866 0.0
C906 C 0.36447 0.9776 0.88465 0.0
C907 C 0.34944 0.96398 0.86064 0.0
C908 C 0.34987 0.95328 0.81244 0.0
C909 C 0.36527 0.95617 0.78731 0.0
C910 C 0.38026 0.96982 0.81009 0.0
C911 C 0.3799 0.98051 0.85856 0.0
H912 H 0.36558 0.94783 0.7502 0.0
H913 H 0.3688 0.04763 0.25014 0.0
H914 H 0.42351 0.37743 0.23181 0.0
H915 H 0.39947 0.38191 0.22567 0.0
H916 H 0.36689 0.32955 0.17849 0.0
H917 H 0.39085 0.32486 0.18556 0.0
H918 H 0.3662 0.35269 0.08611 0.0
H919 H 0.35913 0.34094 0.31622 0.0
H920 H 0.3681 0.34264 0.43238 0.0
H921 H 0.38533 0.39554 0.43502 0.0
H922 H 0.3767 0.39423 0.31857 0.0
H923 H 0.31362 0.39681 0.1788 0.0
H924 H 0.3192 0.37343 0.1888 0.0
H925 H 0.36518 0.40176 0.07819 0.0
H926 H 0.35989 0.42523 0.06946 0.0
H927 H 0.34885 0.37992 0.25637 0.0
H928 H 0.37267 0.37392 0.99534 0.0
H929 H 0.3644 0.37291 0.87859 0.0
H930 H 0.31335 0.35524 0.93768 0.0
H931 H 0.32123 0.35588 0.05475 0.0
C932 C 0.41118 0.3668 0.22143 0.0
C933 C 0.40907 0.35082 0.20893 0.0
C934 C 0.39746 0.36935 0.21821 0.0
C935 C 0.38146 0.35603 0.20179 0.0
C936 C 0.37916 0.33993 0.19152 0.0
C937 C 0.39285 0.3373 0.19583 0.0
C938 C 0.3677 0.35954 0.1889 0.0
C939 C 0.36212 0.35838 0.12341 0.0
C940 C 0.36219 0.3666 0.23812 0.0
C941 C 0.36728 0.36747 0.30849 0.0
C942 C 0.36492 0.35296 0.34143 0.0
C943 C 0.36993 0.35385 0.40736 0.0
C944 C 0.37729 0.36919 0.44105 0.0
C945 C 0.37961 0.38367 0.40889 0.0
C946 C 0.37463 0.38284 0.34293 0.0
C947 C 0.3246 0.39778 0.15466 0.0
C948 C 0.33641 0.41281 0.12374 0.0
C949 C 0.32778 0.38446 0.16062 0.0
C950 C 0.34256 0.3859 0.13414 0.0
C951 C 0.35361 0.40035 0.09833 0.0
C952 C 0.35062 0.41377 0.09359 0.0
C953 C 0.34813 0.37393 0.15284 0.0
C954 C 0.35234 0.37364 0.21943 0.0
C955 C 0.35243 0.3656 0.10456 0.0
C956 C 0.34757 0.365 0.03401 0.0
C957 C 0.35965 0.3697 0.98349 0.0
C958 C 0.35503 0.36922 0.91721 0.0
C959 C 0.33836 0.36403 0.90073 0.0
C960 C 0.32627 0.35929 0.95051 0.0
C961 C 0.33081 0.35974 0.01687 0.0
H962 H 0.33482 0.36368 0.84939 0.0
H963 H 0.38117 0.36986 0.49209 0.0
H964 H 0.07605 0.39538 0.35338 0.0
H965 H 0.04752 0.37148 0.33916 0.0
H966 H 0.02698 0.40218 0.40507 0.0
H967 H 0.0553 0.42606 0.41876 0.0
H968 H 0.00804 0.3684 0.44709 0.0
H969 H 0.03464 0.40215 0.24739 0.0
H970 H 0.05714 0.41383 0.16328 0.0
H971 H 0.04629 0.36401 0.11211 0.0
H972 H 0.02388 0.35207 0.19672 0.0
H973 H 0.94588 0.36752 0.22675 0.0
H974 H 0.97459 0.37284 0.23711 0.0
H975 H 0.95608 0.32382 0.32414 0.0
H976 H 0.92719 0.31831 0.31324 0.0
H977 H 0.99476 0.35812 0.20734 0.0
H978 H 0.97934 0.33265 0.46826 0.0
H979 H 0.95669 0.32369 0.55127 0.0
H980 H 0.94492 0.36047 0.47782 0.0
H981 H 0.96766 0.36979 0.39522 0.0
C982 C 0.06544 0.39687 0.36665 0.0
C983 C 0.06783 0.41261 0.38629 0.0
C984 C 0.04919 0.38322 0.35848 0.0
C985 C 0.03521 0.38515 0.37066 0.0
C986 C 0.03763 0.40045 0.39564 0.0
C987 C 0.0538 0.41411 0.40293 0.0
C988 C 0.01823 0.37244 0.3484 0.0
C989 C 0.00515 0.36571 0.39488 0.0
C990 C 0.01449 0.36909 0.28019 0.0
C991 C 0.02776 0.37624 0.2288 0.0
C992 C 0.03714 0.39371 0.21846 0.0
C993 C 0.04986 0.40037 0.17071 0.0
C994 C 0.05318 0.38967 0.13251 0.0
C995 C 0.04373 0.37228 0.14185 0.0
C996 C 0.03103 0.36556 0.1897 0.0
C997 C 0.94789 0.35766 0.24601 0.0
C998 C 0.93438 0.34264 0.27022 0.0
C999 C 0.96428 0.36065 0.25141 0.0
C1000 C 0.9674 0.34878 0.28204 0.0
C1001 C 0.95386 0.33311 0.30041 0.0
C1002 C 0.93739 0.33 0.29415 0.0
C1003 C 0.98458 0.35435 0.30596 0.0
C1004 C -0.00232 0.35991 0.2598 0.0
C1005 C 0.98835 0.35685 0.37442 0.0
C1006 C 0.97503 0.35174 0.4252 0.0
C1007 C 0.97195 0.33885 0.47011 0.0
C1008 C 0.9591 0.33372 0.51705 0.0
C1009 C 0.94933 0.34146 0.51966 0.0
C1010 C 0.95246 0.35445 0.47565 0.0
C1011 C 0.96533 0.35966 0.42881 0.0
H1012 H 0.93935 0.33743 0.55587 0.0
H1013 H 0.06303 0.39486 0.09558 0.0
H1014 H 0.56116 0.93795 0.45702 0.0
H1015 H 0.58264 0.9671 0.43988 0.0
H1016 H 0.62115 0.95551 0.49442 0.0
H1017 H 0.59944 0.92595 0.51182 0.0
H1018 H 0.62277 0.98189 0.56588 0.0
H1019 H 0.6229 0.96957 0.33895 0.0
H1020 H 0.6113 0.95686 0.23028 0.0
H1021 H 0.58363 0.98308 0.22166 0.0
H1022 H 0.59511 0.99604 0.33024 0.0
H1023 H 0.66775 0.0732 0.51719 0.0
H1024 H 0.66097 0.04382 0.50867 0.0
H1025 H 0.60937 0.02879 0.46506 0.0
H1026 H 0.61586 0.05782 0.47373 0.0
H1027 H 0.62433 0.01649 0.37451 0.0
H1028 H 0.61893 0.02233 0.61322 0.0
H1029 H 0.6301 0.03486 0.72271 0.0
H1030 H 0.6677 0.02026 0.70829 0.0
H1031 H 0.65687 0.00784 0.5982 0.0
C1032 C 0.57421 0.94151 0.46438 0.0
C1033 C 0.57864 0.92974 0.48629 0.0
C1034 C 0.58651 0.95815 0.45394 0.0
C1035 C 0.6035 0.96342 0.46523 0.0
C1036 C 0.60809 0.95161 0.48495 0.0
C1037 C 0.59572 0.93479 0.49471 0.0
C1038 C 0.61582 0.98161 0.46369 0.0
C1039 C 0.62365 0.9895 0.52333 0.0
C1040 C 0.61685 0.99149 0.40832 0.0
C1041 C 0.60987 0.98377 0.34286 0.0
C1042 C 0.61428 0.97258 0.31405 0.0
C1043 C 0.60774 0.96533 0.25241 0.0
C1044 C 0.59667 0.96908 0.2192 0.0
C1045 C 0.59221 0.98019 0.24741 0.0
C1046 C 0.5988 0.98756 0.30887 0.0
C1047 C 0.65492 0.06361 0.50639 0.0
C1048 C 0.64236 0.06789 0.4959 0.0
C1049 C 0.65111 0.04688 0.50142 0.0
C1050 C 0.63473 0.03426 0.48556 0.0
C1051 C 0.62213 0.03844 0.47665 0.0
C1052 C 0.62586 0.05504 0.48212 0.0
C1053 C 0.63037 0.01658 0.47756 0.0
C1054 C 0.62408 0.00889 0.41608 0.0
C1055 C 0.63079 0.00692 0.53114 0.0
C1056 C 0.63727 0.01439 0.59717 0.0
C1057 C 0.62969 0.02195 0.63313 0.0
C1058 C 0.63593 0.02899 0.69534 0.0
C1059 C 0.64964 0.02842 0.72233 0.0
C1060 C 0.65711 0.02075 0.68723 0.0
C1061 C 0.65093 0.0137 0.62495 0.0
H1062 H 0.65445 0.03388 0.77051 0.0
H1063 H 0.59159 0.9634 0.17157 0.0
H1064 H 0.62798 0.56412 0.61814 0.0
H1065 H 0.62372 0.58793 0.60071 0.0
H1066 H 0.67408 0.62183 0.66977 0.0
H1067 H 0.67855 0.5978 0.68647 0.0
H1068 H 0.6488 0.62465 0.73729 0.0
H1069 H 0.66671 0.62826 0.51752 0.0
H1070 H 0.6701 0.61885 0.4072 0.0
H1071 H 0.61705 0.59623 0.3723 0.0
H1072 H 0.61326 0.6053 0.48265 0.0
H1073 H 0.6009 0.66854 0.69324 0.0
H1074 H 0.62515 0.66419 0.68569 0.0
H1075 H 0.59249 0.61338 0.61888 0.0
H1076 H 0.56839 0.61742 0.62656 0.0
H1077 H 0.62162 0.63237 0.53868 0.0
H1078 H 0.60461 0.61994 0.77404 0.0
H1079 H 0.60067 0.62847 0.88542 0.0
H1080 H 0.65244 0.66764 0.8891 0.0
H1081 H 0.65661 0.65943 0.77732 0.0
C1082 C 0.63825 0.57666 0.62857 0.0
C1083 C 0.65353 0.57916 0.65413 0.0
C1084 C 0.63588 0.59028 0.61799 0.0
C1085 C 0.64866 0.60664 0.63334 0.0
C1086 C 0.66416 0.60929 0.65704 0.0
C1087 C 0.66667 0.59561 0.66652 0.0
C1088 C 0.64457 0.62026 0.63232 0.0
C1089 C 0.64343 0.62693 0.69336 0.0
C1090 C 0.63764 0.62324 0.57497 0.0
C1091 C 0.63972 0.61755 0.5085 0.0
C1092 C 0.65574 0.62121 0.4865 0.0
C1093 C 0.65773 0.61596 0.42387 0.0
C1094 C 0.64381 0.60702 0.38267 0.0
C1095 C 0.62784 0.60324 0.40414 0.0
C1096 C 0.62577 0.60848 0.46668 0.0
C1097 C 0.59888 0.6564 0.67751 0.0
C1098 C 0.58269 0.64335 0.66025 0.0
C1099 C 0.61275 0.654 0.67295 0.0
C1100 C 0.61057 0.63857 0.65076 0.0
C1101 C 0.59442 0.62547 0.63514 0.0
C1102 C 0.58063 0.62778 0.6401 0.0
C1103 C 0.62477 0.63547 0.64427 0.0
C1104 C 0.6278 0.63087 0.58177 0.0
C1105 C 0.6334 0.63437 0.70016 0.0
C1106 C 0.63086 0.63925 0.76713 0.0
C1107 C 0.6151 0.63046 0.79841 0.0
C1108 C 0.61284 0.63521 0.86163 0.0
C1109 C 0.62628 0.64863 0.89421 0.0
C1110 C 0.64203 0.65729 0.86373 0.0
C1111 C 0.64435 0.65259 0.80047 0.0
H1112 H 0.6245 0.65229 0.94317 0.0
H1113 H 0.64538 0.603 0.33415 0.0
H1114 H 0.05234 0.62658 0.79685 0.0
H1115 H 0.02457 0.62377 0.786 0.0
H1116 H 0.04425 0.67445 0.85753 0.0
H1117 H 0.07226 0.6775 0.86723 0.0
H1118 H 0.01733 0.64947 0.93209 0.0
H1119 H 0.02883 0.66811 0.71116 0.0
H1120 H 0.03898 0.67063 0.59643 0.0
H1121 H 0.0035 0.61849 0.56217 0.0
H1122 H 0.99332 0.61554 0.67693 0.0
H1123 H 0.92305 0.60273 0.80501 0.0
H1124 H 0.95118 0.62784 0.80711 0.0
H1125 H 0.97043 0.59959 0.90804 0.0
H1126 H 0.9426 0.5745 0.90461 0.0
H1127 H 0.97797 0.62661 0.74208 0.0
H1128 H 0.00123 0.62581 0.01087 0.0
H1129 H 0.99039 0.62249 0.12475 0.0
H1130 H 0.95625 0.63896 0.0629 0.0
H1131 H 0.96705 0.64265 0.94879 0.0
C1132 C 0.05083 0.63725 0.80885 0.0
C1133 C 0.06437 0.65219 0.83339 0.0
C1134 C 0.03502 0.63569 0.80212 0.0
C1135 C 0.03244 0.64896 0.82065 0.0
C1136 C 0.04608 0.66416 0.84248 0.0
C1137 C 0.06202 0.66585 0.84797 0.0
C1138 C 0.01506 0.64571 0.82649 0.0
C1139 C 0.00871 0.6448 0.89047 0.0
C1140 C 0.00399 0.64005 0.77179 0.0
C1141 C 0.01027 0.64162 0.70285 0.0
C1142 C 0.02326 0.65714 0.67936 0.0
C1143 C 0.02901 0.65865 0.61423 0.0
C1144 C 0.02183 0.64475 0.57196 0.0
C1145 C 0.00899 0.62927 0.59488 0.0
C1146 C 0.0032 0.62768 0.65996 0.0
C1147 C 0.93322 0.60206 0.82923 0.0
C1148 C 0.93078 0.58672 0.85424 0.0
C1149 C 0.94922 0.61637 0.8303 0.0
C1150 C 0.96278 0.61554 0.85808 0.0
C1151 C 0.96005 0.60051 0.88717 0.0
C1152 C 0.94421 0.58617 0.88482 0.0
C1153 C 0.98024 0.62919 0.84808 0.0
C1154 C 0.98662 0.63196 0.78338 0.0
C1155 C 0.99133 0.63646 0.90211 0.0
C1156 C 0.98497 0.63451 0.97108 0.0
C1157 C 0.99152 0.62888 0.02157 0.0
C1158 C 0.98535 0.62689 0.0862 0.0
C1159 C 0.97264 0.63051 0.10105 0.0
C1160 C 0.96608 0.63614 0.05131 0.0
C1161 C 0.97221 0.63816 0.98661 0.0
H1162 H 0.96787 0.62895 0.1511 0.0
H1163 H 0.02623 0.64595 0.52148 0.0
H1164 H 0.49514 0.11516 0.79874 0.0
H1165 H 0.51339 0.10693 0.74189 0.0
H1166 H 0.51288 0.07881 0.91367 0.0
H1167 H 0.4945 0.08683 0.97086 0.0
H1168 H 0.54496 0.10364 0.87329 0.0
H1169 H 0.49619 0.05753 0.77884 0.0
H1170 H 0.46878 0.04357 0.72185 0.0
H1171 H 0.49139 0.07372 0.54891 0.0
H1172 H 0.5189 0.08805 0.60517 0.0
H1173 H 0.60924 0.0977 0.70422 0.0
H1174 H 0.58306 0.08859 0.76608 0.0
H1175 H 0.56319 0.10324 0.60133 0.0
H1176 H 0.58858 0.11079 0.53796 0.0
H1177 H 0.53898 0.07829 0.65109 0.0
H1178 H 0.58467 0.12916 0.75215 0.0
H1179 H 0.61173 0.14615 0.80996 0.0
H1180 H 0.595 0.11009 0.96804 0.0
H1181 H 0.56788 0.09286 0.91095 0.0
C1182 C 0.49859 0.10691 0.82391 0.0
C1183 C 0.49351 0.10179 0.88953 0.0
C1184 C 0.50894 0.10214 0.79123 0.0
C1185 C 0.51445 0.09226 0.8237 0.0
C1186 C 0.5087 0.0864 0.88784 0.0
C1187 C 0.49817 0.09098 0.9203 0.0
C1188 C 0.52791 0.09006 0.7938 0.0
C1189 C 0.5436 0.09775 0.82534 0.0
C1190 C 0.52612 0.08267 0.73084 0.0
C1191 C 0.50962 0.07393 0.69643 0.0
C1192 C 0.49531 0.06127 0.72881 0.0
C1193 C 0.47975 0.05327 0.6966 0.0
C1194 C 0.47834 0.05777 0.63184 0.0
C1195 C 0.4925 0.07024 0.59908 0.0
C1196 C 0.50809 0.07828 0.63107 0.0
C1197 C 0.59908 0.09864 0.68125 0.0
C1198 C 0.60079 0.10491 0.6167 0.0
C1199 C 0.58422 0.09361 0.71667 0.0
C1200 C 0.57126 0.09564 0.68928 0.0
C1201 C 0.5729 0.10147 0.62383 0.0
C1202 C 0.58743 0.10585 0.58762 0.0
C1203 C 0.55637 0.09268 0.729 0.0
C1204 C 0.54035 0.08392 0.69956 0.0
C1205 C 0.55792 0.09946 0.79345 0.0
C1206 C 0.57435 0.10965 0.82699 0.0
C1207 C 0.58682 0.12482 0.79904 0.0
C1208 C 0.60214 0.13451 0.83178 0.0
C1209 C 0.60506 0.12923 0.89274 0.0
C1210 C 0.5927 0.1142 0.92096 0.0
C1211 C 0.57736 0.10447 0.88844 0.0
H1212 H 0.61693 0.13674 0.91798 0.0
H1213 H 0.46628 0.05157 0.60701 0.0
H1214 H 0.37577 0.49221 0.93122 0.0
H1215 H 0.40159 0.50774 0.86675 0.0
H1216 H 0.43095 0.51152 0.03938 0.0
H1217 H 0.40516 0.49519 0.10303 0.0
H1218 H 0.4223 0.53833 0.88719 0.0
H1219 H 0.4706 0.52132 0.99848 0.0
H1220 H 0.47119 0.4962 0.03783 0.0
H1221 H 0.42838 0.46471 0.91662 0.0
H1222 H 0.42767 0.48964 0.87579 0.0
H1223 H 0.50021 0.60695 0.87004 0.0
H1224 H 0.47975 0.58039 0.9206 0.0
H1225 H 0.48185 0.55346 0.74949 0.0
H1226 H 0.50242 0.58005 0.69812 0.0
H1227 H 0.47491 0.53555 0.88361 0.0
H1228 H 0.45507 0.5621 0.73116 0.0
H1229 H 0.45499 0.58684 0.68424 0.0
H1230 H 0.43876 0.596 0.87115 0.0
H1231 H 0.43927 0.57159 0.91965 0.0
C1232 C 0.38772 0.49595 0.95485 0.0
C1233 C 0.38847 0.4926 0.02219 0.0
C1234 C 0.40245 0.50484 0.91803 0.0
C1235 C 0.41822 0.51089 0.94811 0.0
C1236 C 0.41897 0.50678 0.01456 0.0
C1237 C 0.40419 0.49752 0.05108 0.0
C1238 C 0.43366 0.52342 0.91307 0.0
C1239 C 0.43367 0.53749 0.88586 0.0
C1240 C 0.44858 0.52243 0.9107 0.0
C1241 C 0.44902 0.50736 0.93447 0.0
C1242 C 0.46136 0.50905 0.97994 0.0
C1243 C 0.4617 0.49484 0.00257 0.0
C1244 C 0.4498 0.47887 0.97987 0.0
C1245 C 0.43756 0.47708 0.93435 0.0
C1246 C 0.43716 0.49125 0.91153 0.0
C1247 C 0.49676 0.59536 0.84395 0.0
C1248 C 0.50266 0.59562 0.77952 0.0
C1249 C 0.48515 0.58019 0.87314 0.0
C1250 C 0.4792 0.56506 0.83831 0.0
C1251 C 0.48639 0.56504 0.77712 0.0
C1252 C 0.4981 0.58027 0.7478 0.0
C1253 C 0.46333 0.55025 0.85968 0.0
C1254 C 0.46333 0.53599 0.88437 0.0
C1255 C 0.44821 0.55075 0.85839 0.0
C1256 C 0.44738 0.56514 0.8291 0.0
C1257 C 0.45163 0.56949 0.76231 0.0
C1258 C 0.45149 0.58344 0.73543 0.0
C1259 C 0.44686 0.59299 0.77465 0.0
C1260 C 0.44235 0.58859 0.84083 0.0
C1261 C 0.44258 0.57471 0.86806 0.0
H1262 H 0.44675 0.60378 0.75374 0.0
H1263 H 0.45008 0.46789 0.99748 0.0
H1264 H 0.92182 0.50688 0.8738 0.0
H1265 H 0.9287 0.48729 0.92778 0.0
H1266 H 0.90009 0.48595 0.09934 0.0
H1267 H 0.89275 0.50515 0.04498 0.0
H1268 H 0.94088 0.48058 0.04269 0.0
H1269 H 0.8713 0.44433 0.12757 0.0
H1270 H 0.8443 0.44268 0.10082 0.0
H1271 H 0.86169 0.46004 0.90339 0.0
H1272 H 0.88866 0.46157 0.92889 0.0
H1273 H 0.9201 0.40959 0.25001 0.0
H1274 H 0.92703 0.43588 0.19465 0.0
H1275 H 0.89529 0.40802 0.03012 0.0
H1276 H 0.88801 0.38166 0.0858 0.0
H1277 H 0.88613 0.42832 0.0757 0.0
H1278 H 0.93854 0.43368 0.014 0.0
H1279 H 0.96542 0.43422 0.0299 0.0
H1280 H 0.98239 0.47647 0.1609 0.0
H1281 H 0.95551 0.47604 0.14656 0.0
C1282 C 0.9175 0.50291 0.92399 0.0
C1283 C 0.90637 0.50716 0.95456 0.0
C1284 C 0.92151 0.49175 0.95487 0.0
C1285 C 0.91454 0.48488 0.01673 0.0
C1286 C 0.90534 0.49092 0.05101 0.0
C1287 C 0.90111 0.50185 0.01983 0.0
C1288 C 0.91394 0.46926 0.03893 0.0
C1289 C 0.92896 0.46915 0.0504 0.0
C1290 C 0.89834 0.45422 0.04643 0.0
C1291 C 0.88204 0.45316 0.03032 0.0
C1292 C 0.86931 0.4477 0.07839 0.0
C1293 C 0.85402 0.44681 0.06347 0.0
C1294 C 0.85129 0.45129 1.00049 0.0
C1295 C 0.86383 0.45663 0.95225 0.0
C1296 C 0.87912 0.45751 0.96694 0.0
C1297 C 0.91497 0.40905 0.20117 0.0
C1298 C 0.90331 0.39356 0.17266 0.0
C1299 C 0.91899 0.42412 0.16947 0.0
C1300 C 0.91164 0.42392 0.10831 0.0
C1301 C 0.90103 0.40845 0.07749 0.0
C1302 C 0.89688 0.3934 0.10937 0.0
C1303 C 0.91309 0.43956 0.08094 0.0
C1304 C 0.89814 0.43969 0.06832 0.0
C1305 C 0.92874 0.45441 0.0709 0.0
C1306 C 0.94494 0.45473 0.07963 0.0
C1307 C 0.94795 0.443 0.04664 0.0
C1308 C 0.9632 0.44331 0.05529 0.0
C1309 C 0.97559 0.45535 0.0965 0.0
C1310 C 0.97278 0.46714 0.12904 0.0
C1311 C 0.95754 0.46688 0.1206 0.0
H1312 H 0.98739 0.45557 0.10313 0.0
H1313 H 0.83945 0.45061 0.98906 0.0
H1314 H 0.49452 0.9081 0.48398 0.0
H1315 H 0.47673 0.91576 0.41993 0.0
H1316 H 0.48519 0.89413 0.2447 0.0
H1317 H 0.50239 0.88582 0.30907 0.0
H1318 H 0.4768 0.93281 0.30807 0.0
H1319 H 0.44768 0.87002 0.16956 0.0
H1320 H 0.44557 0.84222 0.17796 0.0
H1321 H 0.44955 0.84698 0.38964 0.0
H1322 H 0.45125 0.8746 0.38257 0.0
H1323 H 0.41062 0.91582 0.06269 0.0
H1324 H 0.43649 0.9224 0.12247 0.0
H1325 H 0.40691 0.89195 0.28655 0.0
H1326 H 0.38117 0.88537 0.22776 0.0
H1327 H 0.42722 0.88103 0.22319 0.0
H1328 H 0.43042 0.93115 0.31339 0.0
H1329 H 0.432 0.95871 0.30723 0.0
H1330 H 0.47824 0.97881 0.19839 0.0
H1331 H 0.4768 0.95128 0.20306 0.0
C1332 C 0.49288 0.90533 0.43147 0.0
C1333 C 0.49949 0.89606 0.40166 0.0
C1334 C 0.4828 0.9098 0.39487 0.0
C1335 C 0.47939 0.90521 0.32795 0.0
C1336 C 0.48743 0.89751 0.29662 0.0
C1337 C 0.49719 0.89272 0.33343 0.0
C1338 C 0.46551 0.90604 0.29429 0.0
C1339 C 0.466 0.92153 0.28905 0.0
C1340 C 0.45135 0.89128 0.2701 0.0
C1341 C 0.44977 0.87444 0.27542 0.0
C1342 C 0.44799 0.86506 0.21791 0.0
C1343 C 0.44685 0.84934 0.22244 0.0
C1344 C 0.44746 0.84285 0.2843 0.0
C1345 C 0.44909 0.85202 0.34177 0.0
C1346 C 0.45011 0.8677 0.33754 0.0
C1347 C 0.40967 0.91102 0.11243 0.0
C1348 C 0.39389 0.89983 0.14011 0.0
C1349 C 0.42444 0.91478 0.14642 0.0
C1350 C 0.42352 0.90749 0.20843 0.0
C1351 C 0.40782 0.89759 0.23849 0.0
C1352 C 0.39314 0.89382 0.20474 0.0
C1353 C 0.43839 0.90774 0.23747 0.0
C1354 C 0.43809 0.89237 0.24153 0.0
C1355 C 0.45254 0.92256 0.26082 0.0
C1356 C 0.4534 0.9391 0.25789 0.0
C1357 C 0.44083 0.94139 0.28751 0.0
C1358 C 0.44173 0.95702 0.28445 0.0
C1359 C 0.45519 0.97049 0.25225 0.0
C1360 C 0.46781 0.96836 0.22321 0.0
C1361 C 0.46696 0.95275 0.2261 0.0
H1362 H 0.45586 0.98258 0.24996 0.0
H1363 H 0.44664 0.83071 0.2877 0.0
H1364 H 0.60878 0.48921 0.48423 0.0
H1365 H 0.58158 0.47445 0.42982 0.0
H1366 H 0.5618 0.49632 0.56654 0.0
H1367 H 0.58901 0.51093 0.62272 0.0
H1368 H 0.54187 0.46415 0.56213 0.0
H1369 H 0.56525 0.50604 0.39953 0.0
H1370 H 0.58666 0.52606 0.32215 0.0
H1371 H 0.58375 0.48506 0.20941 0.0
H1372 H 0.56253 0.46478 0.28668 0.0
H1373 H 0.48312 0.41321 0.25749 0.0
H1374 H 0.50062 0.44003 0.31404 0.0
H1375 H 0.51671 0.41526 0.45318 0.0
H1376 H 0.49901 0.38857 0.39887 0.0
H1377 H 0.53299 0.45612 0.31961 0.0
H1378 H 0.52913 0.43399 0.59418 0.0
H1379 H 0.50747 0.41495 0.67303 0.0
H1380 H 0.46963 0.41887 0.56249 0.0
H1381 H 0.49114 0.43819 0.48367 0.0
C1382 C 0.59878 0.49118 0.50219 0.0
C1383 C 0.60108 0.50115 0.55833 0.0
C1384 C 0.58322 0.4828 0.47055 0.0
C1385 C 0.56965 0.48438 0.49366 0.0
C1386 C 0.5721 0.49495 0.54777 0.0
C1387 C 0.58769 0.50331 0.57972 0.0
C1388 C 0.55262 0.4734 0.46584 0.0
C1389 C 0.5398 0.46256 0.50912 0.0
C1390 C 0.54969 0.47175 0.39674 0.0
C1391 C 0.56227 0.48386 0.34912 0.0
C1392 C 0.56921 0.50128 0.35841 0.0
C1393 C 0.58133 0.51268 0.31455 0.0
C1394 C 0.58656 0.50684 0.26091 0.0
C1395 C 0.57966 0.48957 0.25094 0.0
C1396 C 0.56755 0.47811 0.2947 0.0
C1397 C 0.49004 0.41341 0.30123 0.0
C1398 C 0.48976 0.39873 0.32322 0.0
C1399 C 0.50007 0.42877 0.33337 0.0
C1400 C 0.5099 0.42969 0.3882 0.0
C1401 C 0.50897 0.41489 0.41198 0.0
C1402 C 0.49892 0.39958 0.3803 0.0
C1403 C 0.52274 0.44614 0.41592 0.0
C1404 C 0.53479 0.45804 0.37263 0.0
C1405 C 0.52481 0.44898 0.48506 0.0
C1406 C 0.5118 0.43757 0.53299 0.0
C1407 C 0.51623 0.43094 0.5871 0.0
C1408 C 0.50396 0.42006 0.63169 0.0
C1409 C 0.48717 0.41569 0.62275 0.0
C1410 C 0.48264 0.42224 0.56929 0.0
C1411 C 0.49487 0.43316 0.52461 0.0
H1412 H 0.47768 0.40723 0.65723 0.0
H1413 H 0.59596 0.51568 0.22706 0.0
H1414 H 0.08692 0.49898 0.39585 0.0
H1415 H 0.07889 0.51839 0.44386 0.0
H1416 H 0.09036 0.50794 0.6389 0.0
H1417 H 0.09903 0.48889 0.59114 0.0
H1418 H 0.05807 0.51358 0.60905 0.0
H1419 H 0.11961 0.53624 0.59748 0.0
H1420 H 0.14549 0.54245 0.53762 0.0
H1421 H 0.13516 0.56982 0.39063 0.0
H1422 H 0.10899 0.56345 0.44902 0.0
H1423 H 0.08152 0.58306 0.82037 0.0
H1424 H 0.07429 0.55792 0.75591 0.0
H1425 H 0.09201 0.588 0.57824 0.0
H1426 H 0.10028 0.61334 0.64383 0.0
H1427 H 0.10647 0.57147 0.58561 0.0
H1428 H 0.04896 0.55502 0.60546 0.0
H1429 H 0.02259 0.54945 0.65937 0.0
H1430 H 0.02336 0.51142 0.7803 0.0
H1431 H 0.04988 0.51691 0.72783 0.0
C1432 C 0.08724 0.50039 0.44917 0.0
C1433 C 0.09372 0.49252 0.48984 0.0
C1434 C 0.08264 0.51147 0.47636 0.0
C1435 C 0.08407 0.51452 0.54463 0.0
C1436 C 0.0891 0.50559 0.58606 0.0
C1437 C 0.09412 0.49481 0.55875 0.0
C1438 C 0.08309 0.52896 0.57106 0.0
C1439 C 0.0686 0.52628 0.60454 0.0
C1440 C 0.09662 0.54548 0.56243 0.0
C1441 C 0.11218 0.54905 0.52679 0.0
C1442 C 0.12269 0.5433 0.55174 0.0
C1443 C 0.13744 0.54692 0.51825 0.0
C1444 C 0.14192 0.55648 0.46025 0.0
C1445 C 0.13162 0.56236 0.43541 0.0
C1446 C 0.11682 0.55873 0.46862 0.0
C1447 C 0.08341 0.58422 0.76725 0.0
C1448 C 0.09157 0.6001 0.73701 0.0
C1449 C 0.07917 0.56979 0.7302 0.0
C1450 C 0.08254 0.57096 0.6619 0.0
C1451 C 0.08939 0.58674 0.63088 0.0
C1452 C 0.09408 0.60121 0.66824 0.0
C1453 C 0.08141 0.55637 0.6254 0.0
C1454 C 0.09564 0.55893 0.58968 0.0
C1455 C 0.06747 0.53984 0.63113 0.0
C1456 C 0.05149 0.53646 0.66293 0.0
C1457 C 0.04358 0.54555 0.64389 0.0
C1458 C 0.02859 0.54239 0.67415 0.0
C1459 C 0.02132 0.53011 0.7233 0.0
C1460 C 0.02901 0.52093 0.74222 0.0
C1461 C 0.04401 0.52404 0.71215 0.0
H1462 H 0.00972 0.52769 0.74667 0.0
H1463 H 0.15345 0.55942 0.43484 0.0
H1464 H 0.4437 0.17253 0.03278 0.0
H1465 H 0.44821 0.20027 0.06038 0.0
H1466 H 0.50186 0.22028 0.06078 0.0
H1467 H 0.49752 0.1924 0.03292 0.0
H1468 H 0.48925 0.23013 0.17144 0.0
H1469 H 0.48733 0.23011 0.93578 0.0
H1470 H 0.47626 0.21859 0.82503 0.0
H1471 H 0.42989 0.21705 0.87142 0.0
H1472 H 0.44057 0.22831 0.98287 0.0
H1473 H 0.49479 0.31127 0.20019 0.0
H1474 H 0.49979 0.28867 0.16442 0.0
H1475 H 0.44667 0.25657 0.12915 0.0
H1476 H 0.44154 0.27895 0.16391 0.0
H1477 H 0.46536 0.25649 0.02593 0.0
H1478 H 0.46533 0.25178 0.26556 0.0
H1479 H 0.47546 0.26218 0.37843 0.0
H1480 H 0.52486 0.27206 0.32543 0.0
H1481 H 0.51506 0.2619 0.21193 0.0
C1482 C 0.45648 0.18277 0.03874 0.0
C1483 C 0.47026 0.18026 0.03033 0.0
C1484 C 0.45902 0.19863 0.05427 0.0
C1485 C 0.47536 0.21228 0.06178 0.0
C1486 C 0.48917 0.20985 0.05476 0.0
C1487 C 0.48665 0.19395 0.03865 0.0
C1488 C 0.47769 0.22898 0.07731 0.0
C1489 C 0.48442 0.23617 0.13909 0.0
C1490 C 0.4712 0.23664 0.03514 0.0
C1491 C 0.46474 0.22998 0.96788 0.0
C1492 C 0.47473 0.22721 0.92256 0.0
C1493 C 0.46853 0.22074 0.85962 0.0
C1494 C 0.45238 0.21707 0.84123 0.0
C1495 C 0.4424 0.2199 0.88572 0.0
C1496 C 0.44854 0.22635 0.94876 0.0
C1497 C 0.48416 0.29937 0.18512 0.0
C1498 C 0.46776 0.29694 0.18479 0.0
C1499 C 0.48706 0.28649 0.16481 0.0
C1500 C 0.47359 0.271 0.14421 0.0
C1501 C 0.45724 0.2685 0.14452 0.0
C1502 C 0.45433 0.28131 0.16466 0.0
C1503 C 0.4763 0.25729 0.1212 0.0
C1504 C 0.47057 0.2507 0.05774 0.0
C1505 C 0.48364 0.25017 0.16197 0.0
C1506 C 0.48953 0.25631 0.23007 0.0
C1507 C 0.47839 0.25632 0.27782 0.0
C1508 C 0.48406 0.26214 0.34193 0.0
C1509 C 0.50081 0.26784 0.35903 0.0
C1510 C 0.5119 0.26768 0.31208 0.0
C1511 C 0.5063 0.26189 0.24787 0.0
H1512 H 0.50517 0.27233 0.4087 0.0
H1513 H 0.4476 0.21206 0.79248 0.0
H1514 H 0.18949 0.50497 0.38789 0.0
H1515 H 0.21851 0.51247 0.36214 0.0
H1516 H 0.20463 0.46022 0.37464 0.0
H1517 H 0.17579 0.45262 0.40032 0.0
H1518 H 0.23623 0.48183 0.42927 0.0
H1519 H 0.20285 0.47652 0.23303 0.0
H1520 H 0.18582 0.48485 0.16607 0.0
H1521 H 0.22793 0.53494 0.14912 0.0
H1522 H 0.24503 0.52705 0.21861 0.0
H1523 H 0.274 0.45358 0.21149 0.0
H1524 H 0.25497 0.46074 0.26714 0.0
H1525 H 0.28796 0.51318 0.2227 0.0
H1526 H 0.30737 0.50617 0.16656 0.0
H1527 H 0.25292 0.50082 0.19738 0.0
H1528 H 0.2882 0.50359 0.37324 0.0
H1529 H 0.30465 0.49487 0.44225 0.0
H1530 H 0.25951 0.44948 0.49527 0.0
H1531 H 0.24278 0.45781 0.42583 0.0
C1532 C 0.1927 0.49513 0.38613 0.0
C1533 C 0.18031 0.47817 0.39512 0.0
C1534 C 0.20926 0.49945 0.37162 0.0
C1535 C 0.21362 0.48688 0.36629 0.0
C1536 C 0.2015 0.4701 0.37883 0.0
C1537 C 0.18498 0.46576 0.39277 0.0
C1538 C 0.23015 0.49061 0.3404 0.0
C1539 C 0.24001 0.48612 0.37883 0.0
C1540 C 0.23524 0.49668 0.27518 0.0
C1541 C 0.22513 0.50127 0.23188 0.0
C1542 C 0.20843 0.48936 0.21561 0.0
C1543 C 0.19876 0.494 0.17726 0.0
C1544 C 0.20578 0.51042 0.15328 0.0
C1545 C 0.2225 0.52223 0.16783 0.0
C1546 C 0.23216 0.5177 0.20699 0.0
C1547 C 0.27724 0.46665 0.21289 0.0
C1548 C 0.29225 0.47932 0.18461 0.0
C1549 C 0.26639 0.47072 0.24524 0.0
C1550 C 0.27027 0.4875 0.24991 0.0
C1551 C 0.2849 0.50018 0.21998 0.0
C1552 C 0.29592 0.49613 0.18793 0.0
C1553 C 0.25859 0.49136 0.28539 0.0
C1554 C 0.24959 0.49719 0.24871 0.0
C1555 C 0.25427 0.4865 0.35219 0.0
C1556 C 0.26423 0.48134 0.39413 0.0
C1557 C 0.28178 0.49169 0.39923 0.0
C1558 C 0.29115 0.48683 0.4385 0.0
C1559 C 0.28312 0.47165 0.47322 0.0
C1560 C 0.2657 0.46126 0.4685 0.0
C1561 C 0.25626 0.46607 0.42928 0.0
H1562 H 0.2904 0.46798 0.50394 0.0
H1563 H 0.19829 0.51398 0.12335 0.0
H1564 H 0.6898 0.19418 0.50133 0.0
H1565 H 0.71428 0.22174 0.47813 0.0
H1566 H 0.74585 0.19936 0.47191 0.0
H1567 H 0.72166 0.17193 0.49567 0.0
H1568 H 0.76067 0.22895 0.53931 0.0
H1569 H 0.73118 0.20695 0.33111 0.0
H1570 H 0.7065 0.19597 0.2574 0.0
H1571 H 0.7048 0.24152 0.28233 0.0
H1572 H 0.72936 0.25268 0.35694 0.0
H1573 H 0.82997 0.27547 0.33837 0.0
H1574 H 0.80317 0.25439 0.38435 0.0
H1575 H 0.78493 0.28944 0.3756 0.0
H1576 H 0.81183 0.31079 0.32869 0.0
H1577 H 0.76188 0.25774 0.32971 0.0
H1578 H 0.79588 0.2816 0.52124 0.0
H1579 H 0.82133 0.29199 0.59021 0.0
H1580 H 0.81522 0.24252 0.59467 0.0
H1581 H 0.78991 0.23187 0.52467 0.0
C1582 C 0.70197 0.19514 0.49541 0.0
C1583 C 0.70374 0.18081 0.49991 0.0
C1584 C 0.71592 0.21089 0.48214 0.0
C1585 C 0.73181 0.21252 0.47302 0.0
C1586 C 0.73368 0.19835 0.47906 0.0
C1587 C 0.71979 0.18265 0.49223 0.0
C1588 C 0.74649 0.22876 0.45405 0.0
C1589 C 0.76097 0.23528 0.49356 0.0
C1590 C 0.74665 0.23721 0.39529 0.0
C1591 C 0.73195 0.23055 0.35022 0.0
C1592 C 0.72545 0.21456 0.32127 0.0
C1593 C 0.71151 0.20832 0.27927 0.0
C1594 C 0.70405 0.21802 0.26537 0.0
C1595 C 0.71056 0.23401 0.29328 0.0
C1596 C 0.7245 0.2403 0.3354 0.0
C1597 C 0.8203 0.27878 0.34593 0.0
C1598 C 0.8231 0.29488 0.33007 0.0
C1599 C 0.80502 0.26672 0.37264 0.0
C1600 C 0.79225 0.27051 0.3845 0.0
C1601 C 0.79474 0.28638 0.36724 0.0
C1602 C 0.81009 0.29852 0.34043 0.0
C1603 C 0.77624 0.2576 0.41383 0.0
C1604 C 0.76149 0.2517 0.37638 0.0
C1605 C 0.77589 0.24965 0.47431 0.0
C1606 C 0.791 0.25595 0.51737 0.0
C1607 C 0.80001 0.27295 0.53656 0.0
C1608 C 0.81441 0.27888 0.57587 0.0
C1609 C 0.81988 0.26792 0.59676 0.0
C1610 C 0.81095 0.25099 0.57846 0.0
C1611 C 0.79656 0.24499 0.53903 0.0
H1612 H 0.83101 0.27252 0.62721 0.0
H1613 H 0.69325 0.21316 0.23284 0.0
H1614 H 0.49595 0.80483 0.53645 0.0
H1615 H 0.49199 0.77681 0.55707 0.0
H1616 H 0.54571 0.7973 0.55177 0.0
H1617 H 0.54984 0.82523 0.53113 0.0
H1618 H 0.5279 0.76812 0.47659 0.0
H1619 H 0.52608 0.78951 0.69521 0.0
H1620 H 0.51453 0.80065 0.77815 0.0
H1621 H 0.46623 0.75585 0.76265 0.0
H1622 H 0.47745 0.74458 0.67842 0.0
H1623 H 0.55128 0.71674 0.63782 0.0
H1624 H 0.54618 0.73935 0.60674 0.0
H1625 H 0.49295 0.7068 0.63764 0.0
H1626 H 0.49793 0.68395 0.66994 0.0
H1627 H 0.50434 0.73826 0.68877 0.0
H1628 H 0.50718 0.71485 0.48322 0.0
H1629 H 0.51862 0.70351 0.40051 0.0
H1630 H 0.5641 0.75131 0.38937 0.0
H1631 H 0.55305 0.76289 0.47284 0.0
C1632 C 0.50692 0.80337 0.53967 0.0
C1633 C 0.52322 0.81728 0.53224 0.0
C1634 C 0.50462 0.78737 0.55146 0.0
C1635 C 0.51857 0.78507 0.55583 0.0
C1636 C 0.5348 0.79887 0.54819 0.0
C1637 C 0.53712 0.81483 0.53682 0.0
C1638 C 0.5165 0.76838 0.56941 0.0
C1639 C 0.52277 0.76157 0.52294 0.0
C1640 C 0.50922 0.75961 0.62885 0.0
C1641 C 0.50254 0.76631 0.67993 0.0
C1642 C 0.51296 0.7821 0.70905 0.0
C1643 C 0.50647 0.78843 0.75638 0.0
C1644 C 0.48963 0.77898 0.77561 0.0
C1645 C 0.47926 0.76317 0.74761 0.0
C1646 C 0.48567 0.75681 0.70004 0.0
C1647 C 0.53847 0.71431 0.63817 0.0
C1648 C 0.525 0.69847 0.65588 0.0
C1649 C 0.53558 0.72725 0.62011 0.0
C1650 C 0.51916 0.7246 0.61864 0.0
C1651 C 0.50569 0.709 0.63803 0.0
C1652 C 0.50858 0.69599 0.65642 0.0
C1653 C 0.51636 0.73834 0.59701 0.0
C1654 C 0.50912 0.74457 0.64172 0.0
C1655 C 0.52266 0.74654 0.53568 0.0
C1656 C 0.5293 0.73972 0.48461 0.0
C1657 C 0.51966 0.72293 0.46343 0.0
C1658 C 0.52608 0.71645 0.41638 0.0
C1659 C 0.54208 0.72668 0.38976 0.0
C1660 C 0.55169 0.74341 0.41002 0.0
C1661 C 0.54535 0.74995 0.45714 0.0
H1662 H 0.54703 0.72163 0.35338 0.0
H1663 H 0.48462 0.78387 0.81231 0.0
H1664 H 0.82675 0.53971 0.75268 0.0
H1665 H 0.79791 0.53198 0.72601 0.0
H1666 H 0.77991 0.48367 0.8188 0.0
H1667 H 0.8089 0.49131 0.84592 0.0
H1668 H 0.77249 0.50584 0.65428 0.0
H1669 H 0.74346 0.47666 0.90388 0.0
H1670 H 0.7519 0.47639 0.01978 0.0
H1671 H 0.79378 0.52641 0.99694 0.0
H1672 H 0.78545 0.52703 0.88129 0.0
H1673 H 0.68806 0.49044 0.64161 0.0
H1674 H 0.71018 0.48373 0.66646 0.0
H1675 H 0.73535 0.52805 0.7889 0.0
H1676 H 0.71346 0.53485 0.76455 0.0
H1677 H 0.73572 0.50051 0.84377 0.0
H1678 H 0.7468 0.53043 0.63313 0.0
H1679 H 0.73974 0.53382 0.51842 0.0
H1680 H 0.73605 0.48686 0.46453 0.0
H1681 H 0.74287 0.48311 0.57928 0.0
C1682 C 0.8167 0.52739 0.76713 0.0
C1683 C 0.82008 0.51619 0.80205 0.0
C1684 C 0.80024 0.52294 0.7513 0.0
C1685 C 0.78685 0.50729 0.77061 0.0
C1686 C 0.79014 0.49582 0.80366 0.0
C1687 C 0.80667 0.50021 0.81908 0.0
C1688 C 0.76951 0.5038 0.76028 0.0
C1689 C 0.76428 0.50431 0.69555 0.0
C1690 C 0.75891 0.50192 0.81426 0.0
C1691 C 0.76397 0.50177 0.88379 0.0
C1692 C 0.75446 0.48759 0.9237 0.0
C1693 C 0.75921 0.48738 0.98932 0.0
C1694 C 0.77341 0.50134 0.01561 0.0
C1695 C 0.78283 0.51557 0.97643 0.0
C1696 C 0.77811 0.51585 0.91084 0.0
C1697 C 0.69821 0.49863 0.67448 0.0
C1698 C 0.69916 0.5133 0.70045 0.0
C1699 C 0.71078 0.49476 0.68862 0.0
C1700 C 0.72436 0.50544 0.72927 0.0
C1701 C 0.72491 0.51963 0.75762 0.0
C1702 C 0.71248 0.52358 0.7431 0.0
C1703 C 0.73889 0.50294 0.7379 0.0
C1704 C 0.7436 0.50131 0.80229 0.0
C1705 C 0.74916 0.5041 0.6837 0.0
C1706 C 0.74511 0.50638 0.61484 0.0
C1707 C 0.74434 0.52077 0.59692 0.0
C1708 C 0.74041 0.52276 0.5319 0.0
C1709 C 0.73739 0.51053 0.48427 0.0
C1710 C 0.73834 0.4963 0.50152 0.0
C1711 C 0.74224 0.49423 0.56652 0.0
H1712 H 0.73436 0.51211 0.43395 0.0
H1713 H 0.77708 0.50115 0.06639 0.0
H1714 H 0.18818 0.69554 0.81635 0.0
H1715 H 0.21518 0.71875 0.85441 0.0
H1716 H 0.19182 0.72111 0.03676 0.0
H1717 H 0.1647 0.69871 0.9966 0.0
H1718 H 0.20731 0.74987 0.99164 0.0
H1719 H 0.22306 0.70889 0.02823 0.0
H1720 H 0.22672 0.68459 0.00447 0.0
H1721 H 0.26051 0.71177 0.84544 0.0
H1722 H 0.25687 0.73615 0.86755 0.0
H1723 H 0.30209 0.80661 0.07626 0.0
H1724 H 0.27807 0.77825 0.06263 0.0
H1725 H 0.25625 0.79707 0.92123 0.0
H1726 H 0.27987 0.8255 0.93637 0.0
H1727 H 0.26399 0.75637 0.96647 0.0
H1728 H 0.21525 0.77912 0.94137 0.0
H1729 H 0.2115 0.8024 0.98144 0.0
H1730 H 0.24315 0.80917 0.14873 0.0
H1731 H 0.24689 0.78578 0.1102 0.0
C1732 C 0.18899 0.70089 0.86494 0.0
C1733 C 0.17452 0.69563 0.90344 0.0
C1734 C 0.2044 0.71403 0.88698 0.0
C1735 C 0.20558 0.72166 0.9487 0.0
C1736 C 0.19122 0.71554 0.98883 0.0
C1737 C 0.17576 0.70277 0.966 0.0
C1738 C 0.22114 0.73726 0.96771 0.0
C1739 C 0.21967 0.75117 0.98671 0.0
C1740 C 0.2373 0.73895 0.96281 0.0
C1741 C 0.2396 0.72433 0.94931 0.0
C1742 C 0.23118 0.70966 0.98788 0.0
C1743 C 0.23327 0.69587 0.97475 0.0
C1744 C 0.24382 0.69663 0.92341 0.0
C1745 C 0.25234 0.71119 0.88518 0.0
C1746 C 0.25029 0.72502 0.89806 0.0
C1747 C 0.29221 0.80467 0.04194 0.0
C1748 C 0.2927 0.81829 0.00808 0.0
C1749 C 0.27854 0.78847 0.0341 0.0
C1750 C 0.26525 0.78564 0.99194 0.0
C1751 C 0.26619 0.79907 0.95531 0.0
C1752 C 0.27969 0.81529 0.96391 0.0
C1753 C 0.25 0.76887 0.98829 0.0
C1754 C 0.25156 0.75485 0.97218 0.0
C1755 C 0.23386 0.76683 0.99852 0.0
C1756 C 0.23146 0.78077 0.02255 0.0
C1757 C 0.22134 0.78551 0.98688 0.0
C1758 C 0.21923 0.79874 0.00929 0.0
C1759 C 0.22712 0.80728 0.06749 0.0
C1760 C 0.23709 0.80258 0.10354 0.0
C1761 C 0.23922 0.78934 0.08141 0.0
H1762 H 0.22548 0.81753 0.0847 0.0
H1763 H 0.24542 0.68594 0.91332 0.0
H1764 H 0.50521 0.13459 0.2143 0.0
H1765 H 0.53186 0.14344 0.27132 0.0
H1766 H 0.55907 0.1691 0.09505 0.0
H1767 H 0.53252 0.16055 0.03784 0.0
H1768 H 0.56596 0.14411 0.14594 0.0
H1769 H 0.56394 0.19251 0.21941 0.0
H1770 H 0.5508 0.20763 0.26922 0.0
H1771 H 0.54472 0.18174 0.45309 0.0
H1772 H 0.55759 0.16626 0.40411 0.0
H1773 H 0.63865 0.15595 0.30786 0.0
H1774 H 0.62071 0.16379 0.24548 0.0
H1775 H 0.58866 0.15258 0.41684 0.0
H1776 H 0.60739 0.14622 0.4803 0.0
H1777 H 0.58748 0.17559 0.35632 0.0
H1778 H 0.58274 0.12309 0.28117 0.0
H1779 H 0.59293 0.10507 0.23368 0.0
H1780 H 0.60847 0.1352 0.0573 0.0
H1781 H 0.5985 0.15349 0.10406 0.0
C1782 C 0.51687 0.14241 0.18809 0.0
C1783 C 0.51676 0.14677 0.12145 0.0
C1784 C 0.53207 0.14752 0.22082 0.0
C1785 C 0.54739 0.15693 0.18729 0.0
C1786 C 0.54736 0.1619 0.12172 0.0
C1787 C 0.53217 0.15703 0.08925 0.0
C1788 C 0.56317 0.15974 0.21826 0.0
C1789 C 0.57095 0.15131 0.19117 0.0
C1790 C 0.56928 0.16875 0.27805 0.0
C1791 C 0.56165 0.17814 0.30789 0.0
C1792 C 0.55969 0.18994 0.27032 0.0
C1793 C 0.55231 0.1986 0.29844 0.0
C1794 C 0.5469 0.19563 0.36425 0.0
C1795 C 0.54891 0.18402 0.40212 0.0
C1796 C 0.55627 0.17532 0.37422 0.0
C1797 C 0.62802 0.15565 0.33236 0.0
C1798 C 0.62431 0.15049 0.39856 0.0
C1799 C 0.61766 0.15995 0.29665 0.0
C1800 C 0.60296 0.15824 0.32562 0.0
C1801 C 0.59985 0.15398 0.39304 0.0
C1802 C 0.61055 0.15032 0.42938 0.0
C1803 C 0.59005 0.15948 0.28525 0.0
C1804 C 0.58276 0.16864 0.31046 0.0
C1805 C 0.58404 0.15074 0.2244 0.0
C1806 C 0.59009 0.13978 0.19646 0.0
C1807 C 0.58843 0.12593 0.23245 0.0
C1808 C 0.59415 0.11565 0.20562 0.0
C1809 C 0.60138 0.11901 0.14258 0.0
C1810 C 0.60288 0.13263 0.10615 0.0
C1811 C 0.59721 0.14295 0.13279 0.0
H1812 H 0.60579 0.11104 0.12187 0.0
H1813 H 0.54118 0.20234 0.38592 0.0
H1814 H 0.36762 0.49992 0.36077 0.0
H1815 H 0.38579 0.52343 0.43254 0.0
H1816 H 0.39435 0.55811 0.27322 0.0
H1817 H 0.37583 0.5346 0.20134 0.0
H1818 H 0.41775 0.54244 0.41291 0.0
H1819 H 0.40664 0.59723 0.33621 0.0
H1820 H 0.38306 0.60131 0.30329 0.0
H1821 H 0.34844 0.55622 0.40639 0.0
H1822 H 0.37182 0.552 0.44076 0.0
H1823 H 0.49004 0.61728 0.46562 0.0
H1824 H 0.4637 0.59836 0.40978 0.0
H1825 H 0.43583 0.59937 0.5798 0.0
H1826 H 0.46226 0.61856 0.63622 0.0
H1827 H 0.41967 0.59676 0.45078 0.0
H1828 H 0.4434 0.56992 0.58108 0.0
H1829 H 0.46682 0.56612 0.61931 0.0
H1830 H 0.47355 0.55323 0.42184 0.0
H1831 H 0.45052 0.55745 0.38209 0.0
C1832 C 0.37313 0.51257 0.34126 0.0
C1833 C 0.37046 0.51539 0.27508 0.0
C1834 C 0.3835 0.526 0.38243 0.0
C1835 C 0.39148 0.54253 0.35831 0.0
C1836 C 0.38816 0.54548 0.29326 0.0
C1837 C 0.37762 0.53202 0.2521 0.0
C1838 C 0.40478 0.55632 0.39839 0.0
C1839 C 0.41802 0.55422 0.42157 0.0
C1840 C 0.40512 0.57169 0.41035 0.0
C1841 C 0.39099 0.57423 0.39056 0.0
C1842 C 0.39401 0.58823 0.35213 0.0
C1843 C 0.38067 0.59056 0.33316 0.0
C1844 C 0.36426 0.57901 0.35258 0.0
C1845 C 0.36115 0.56513 0.39118 0.0
C1846 C 0.37444 0.56274 0.41032 0.0
C1847 C 0.47832 0.61383 0.49066 0.0
C1848 C 0.47823 0.61916 0.55583 0.0
C1849 C 0.46328 0.60307 0.45854 0.0
C1850 C 0.44788 0.5973 0.49114 0.0
C1851 C 0.44762 0.60372 0.55389 0.0
C1852 C 0.46273 0.61464 0.58606 0.0
C1853 C 0.43259 0.58283 0.46341 0.0
C1854 C 0.41913 0.58484 0.44255 0.0
C1855 C 0.4318 0.56718 0.45451 0.0
C1856 C 0.44534 0.56415 0.47856 0.0
C1857 C 0.44997 0.56641 0.54578 0.0
C1858 C 0.46315 0.56417 0.56773 0.0
C1859 C 0.47165 0.55943 0.52307 0.0
C1860 C 0.46696 0.55691 0.45637 0.0
C1861 C 0.45385 0.55924 0.4341 0.0
H1862 H 0.48185 0.5577 0.54016 0.0
H1863 H 0.35395 0.58083 0.33781 0.0
H1864 H 0.84235 0.37021 0.36701 0.0
H1865 H 0.83617 0.38891 0.43248 0.0
H1866 H 0.87986 0.40249 0.55347 0.0
H1867 H 0.88582 0.38361 0.49027 0.0
H1868 H 0.85615 0.40062 0.62793 0.0
H1869 H 0.88053 0.4262 0.4168 0.0
H1870 H 0.8817 0.42778 0.29479 0.0
H1871 H 0.83416 0.42615 0.29043 0.0
H1872 H 0.83262 0.42433 0.41246 0.0
H1873 H 0.88587 0.49484 0.6381 0.0
H1874 H 0.87991 0.46975 0.5761 0.0
H1875 H 0.83804 0.43953 0.70518 0.0
H1876 H 0.84427 0.46457 0.76928 0.0
H1877 H 0.85544 0.44709 0.50564 0.0
H1878 H 0.83519 0.402 0.72839 0.0
H1879 H 0.83993 0.4023 0.84891 0.0
H1880 H 0.88818 0.4469 0.82767 0.0
H1881 H 0.88365 0.44691 0.70739 0.0
C1882 C 0.85048 0.37696 0.40827 0.0
C1883 C 0.86471 0.37554 0.42276 0.0
C1884 C 0.84696 0.3877 0.44546 0.0
C1885 C 0.85771 0.39732 0.4972 0.0
C1886 C 0.87137 0.39522 0.5138 0.0
C1887 C 0.87481 0.38444 0.47722 0.0
C1888 C 0.85566 0.41046 0.53166 0.0
C1889 C 0.85572 0.41064 0.60115 0.0
C1890 C 0.85539 0.42371 0.49684 0.0
C1891 C 0.85635 0.42489 0.4236 0.0
C1892 C 0.87028 0.42605 0.38976 0.0
C1893 C 0.87102 0.42701 0.32064 0.0
C1894 C 0.85798 0.42699 0.28489 0.0
C1895 C 0.84422 0.4261 0.3182 0.0
C1896 C 0.84341 0.42511 0.38732 0.0
C1897 C 0.8753 0.4829 0.65327 0.0
C1898 C 0.86569 0.48173 0.70937 0.0
C1899 C 0.87185 0.46855 0.61738 0.0
C1900 C 0.85865 0.45272 0.63638 0.0
C1901 C 0.84847 0.45159 0.69025 0.0
C1902 C 0.85201 0.46594 0.72666 0.0
C1903 C 0.85635 0.43743 0.60188 0.0
C1904 C 0.85538 0.43682 0.53244 0.0
C1905 C 0.85646 0.4241 0.63661 0.0
C1906 C 0.85898 0.42456 0.70919 0.0
C1907 C 0.84675 0.41192 0.74965 0.0
C1908 C 0.8494 0.41205 0.81789 0.0
C1909 C 0.8643 0.42466 0.84604 0.0
C1910 C 0.87656 0.43723 0.80603 0.0
C1911 C 0.87394 0.43721 0.73786 0.0
H1912 H 0.86638 0.42464 0.89878 0.0
H1913 H 0.85855 0.42769 0.2314 0.0
H1914 H 0.36541 0.83199 0.96832 0.0
H1915 H 0.3832 0.8231 0.91102 0.0
H1916 H 0.40086 0.8657 0.7798 0.0
H1917 H 0.3829 0.87428 0.83462 0.0
H1918 H 0.39772 0.84044 0.71323 0.0
H1919 H 0.42229 0.86615 0.92546 0.0
H1920 H 0.42241 0.86811 0.0474 0.0
H1921 H 0.41693 0.819 0.06334 0.0
H1922 H 0.41659 0.81669 0.94142 0.0
H1923 H 0.49092 0.87208 0.72138 0.0
H1924 H 0.46522 0.86378 0.78281 0.0
H1925 H 0.43784 0.82187 0.65029 0.0
H1926 H 0.46355 0.83046 0.58668 0.0
H1927 H 0.44187 0.83898 0.84977 0.0
H1928 H 0.3994 0.81846 0.61911 0.0
H1929 H 0.40113 0.82226 0.49778 0.0
H1930 H 0.44655 0.8698 0.51918 0.0
H1931 H 0.44495 0.86638 0.64066 0.0
C1932 C 0.37284 0.83927 0.92642 0.0
C1933 C 0.37287 0.85398 0.90668 0.0
C1934 C 0.38307 0.83421 0.89396 0.0
C1935 C 0.39358 0.84388 0.84178 0.0
C1936 C 0.39288 0.85801 0.81988 0.0
C1937 C 0.38262 0.86296 0.8517 0.0
C1938 C 0.40631 0.84035 0.81238 0.0
C1939 C 0.40721 0.83981 0.74314 0.0
C1940 C 0.4188 0.8397 0.85131 0.0
C1941 C 0.41917 0.84115 0.92447 0.0
C1942 C 0.421 0.85573 0.95502 0.0
C1943 C 0.42113 0.85691 0.02408 0.0
C1944 C 0.41958 0.84364 0.06305 0.0
C1945 C 0.41805 0.82923 0.03306 0.0
C1946 C 0.4179 0.82798 0.96401 0.0
C1947 C 0.47952 0.86095 0.70557 0.0
C1948 C 0.47925 0.8522 0.64795 0.0
C1949 C 0.46481 0.85612 0.74125 0.0
C1950 C 0.44951 0.8424 0.72043 0.0
C1951 C 0.44945 0.83271 0.66649 0.0
C1952 C 0.46418 0.83763 0.63025 0.0
C1953 C 0.43361 0.83973 0.75056 0.0
C1954 C 0.43207 0.83901 0.81987 0.0
C1955 C 0.42088 0.83996 0.71173 0.0
C1956 C 0.42218 0.84202 0.63878 0.0
C1957 C 0.40977 0.82969 0.59785 0.0
C1958 C 0.41071 0.8318 0.52912 0.0
C1959 C 0.42395 0.84624 0.50084 0.0
C1960 C 0.43632 0.8586 0.54118 0.0
C1961 C 0.43541 0.85658 0.60996 0.0
H1962 H 0.42455 0.84788 0.4477 0.0
H1963 H 0.41958 0.84453 0.11647 0.0
H1964 H 0.61487 0.45763 0.70972 0.0
H1965 H 0.59501 0.4323 0.77042 0.0
H1966 H 0.60263 0.46201 0.94588 0.0
H1967 H 0.62218 0.48748 0.88521 0.0
H1968 H 0.59891 0.426 0.95802 0.0
H1969 H 0.57343 0.45867 0.86774 0.0
H1970 H 0.56784 0.47211 0.77288 0.0
H1971 H 0.54508 0.42527 0.66704 0.0
H1972 H 0.55074 0.41166 0.76097 0.0
H1973 H 0.52919 0.38844 0.16972 0.0
H1974 H 0.55394 0.40486 0.10091 0.0
H1975 H 0.52459 0.38069 0.92591 0.0
H1976 H 0.49948 0.3654 0.99496 0.0
H1977 H 0.54037 0.41039 0.9 0.0
H1978 H 0.55919 0.37535 0.98999 0.0
H1979 H 0.56544 0.3598 0.07408 0.0
H1980 H 0.60103 0.40627 0.16659 0.0
H1981 H 0.59483 0.42211 0.08364 0.0
C1982 C 0.61265 0.45871 0.7617 0.0
C1983 C 0.61992 0.47452 0.79269 0.0
C1984 C 0.60134 0.44424 0.7962 0.0
C1985 C 0.59743 0.44538 0.86237 0.0
C1986 C 0.60563 0.46095 0.89486 0.0
C1987 C 0.61667 0.47546 0.86007 0.0
C1988 C 0.5831 0.43099 0.89483 0.0
C1989 C 0.58606 0.42249 0.94588 0.0
C1990 C 0.56644 0.42607 0.87648 0.0
C1991 C 0.56266 0.43421 0.82097 0.0
C1992 C 0.56733 0.45129 0.82404 0.0
C1993 C 0.56412 0.45893 0.77049 0.0
C1994 C 0.55613 0.44957 0.71386 0.0
C1995 C 0.55126 0.43253 0.71084 0.0
C1996 C 0.55445 0.42484 0.76423 0.0
C1997 C 0.52817 0.38647 0.11663 0.0
C1998 C 0.51256 0.37573 0.08733 0.0
C1999 C 0.54236 0.39573 0.07719 0.0
C2000 C 0.54133 0.3939 0.00788 0.0
C2001 C 0.52578 0.38244 0.97908 0.0
C2002 C 0.51146 0.37365 0.0184 0.0
C2003 C 0.55591 0.40525 0.96546 0.0
C2004 C 0.55307 0.41338 0.91217 0.0
C2005 C 0.57265 0.40937 0.98055 0.0
C2006 C 0.57646 0.39992 0.03072 0.0
C2007 C 0.56826 0.38226 0.02852 0.0
C2008 C 0.57181 0.37339 0.07596 0.0
C2009 C 0.58361 0.38204 0.1257 0.0
C2010 C 0.5919 0.39959 0.12802 0.0
C2011 C 0.58839 0.40852 0.08073 0.0
H2012 H 0.58633 0.37515 0.16238 0.0
H2013 H 0.5537 0.45552 0.67241 0.0
H2014 H 0.14624 0.53298 0.36807 0.0
H2015 H 0.15088 0.55805 0.30736 0.0
H2016 H 0.1441 0.53198 0.12252 0.0
H2017 H 0.13887 0.50665 0.18288 0.0
H2018 H 0.17196 0.57172 0.13895 0.0
H2019 H 0.11237 0.52739 0.15621 0.0
H2020 H 0.08794 0.50687 0.22116 0.0
H2021 H 0.09248 0.54639 0.34821 0.0
H2022 H 0.11726 0.56712 0.28493 0.0
H2023 H 0.14444 0.6103 0.90505 0.0
H2024 H 0.1512 0.59273 0.97447 0.0
H2025 H 0.13129 0.60525 0.14513 0.0
H2026 H 0.12369 0.62209 0.075 0.0
H2027 H 0.11914 0.57406 0.14476 0.0
H2028 H 0.17506 0.61934 0.12099 0.0
H2029 H 0.20035 0.64093 0.06333 0.0
H2030 H 0.20438 0.60244 0.95846 0.0
H2031 H 0.17896 0.58061 0.01477 0.0
C2032 C 0.14625 0.53277 0.31447 0.0
C2033 C 0.14207 0.51788 0.2801 0.0
C2034 C 0.1489 0.54707 0.28 0.0
C2035 C 0.14779 0.54677 0.21077 0.0
C2036 C 0.1451 0.53242 0.17603 0.0
C2037 C 0.14203 0.51797 0.21051 0.0
C2038 C 0.14663 0.56024 0.17572 0.0
C2039 C 0.16044 0.57227 0.13955 0.0
C2040 C 0.13175 0.56115 0.17877 0.0
C2041 C 0.11683 0.54874 0.21659 0.0
C2042 C 0.10832 0.53167 0.19861 0.0
C2043 C 0.0944 0.52001 0.23503 0.0
C2044 C 0.08872 0.52532 0.28899 0.0
C2045 C 0.09697 0.54231 0.30664 0.0
C2046 C 0.11096 0.55401 0.27055 0.0
C2047 C 0.14174 0.60949 0.95757 0.0
C2048 C 0.13346 0.61747 0.98462 0.0
C2049 C 0.14572 0.59952 0.9974 0.0
C2050 C 0.14193 0.59775 0.0654 0.0
C2051 C 0.13428 0.60633 0.09284 0.0
C2052 C 0.12996 0.61597 0.05277 0.0
C2053 C 0.14449 0.58578 0.10655 0.0
C2054 C 0.13085 0.57386 0.1442 0.0
C2055 C 0.15966 0.58525 0.10564 0.0
C2056 C 0.17501 0.59833 0.07176 0.0
C2057 C 0.18126 0.61547 0.08528 0.0
C2058 C 0.19563 0.62776 0.05289 0.0
C2059 C 0.20395 0.62306 0.00716 0.0
C2060 C 0.19792 0.60606 0.99386 0.0
C2061 C 0.18354 0.59372 0.02607 0.0
H2062 H 0.21507 0.63259 0.98213 0.0
H2063 H 0.07787 0.51629 0.3168 0.0
loop_
_geom_bond_atom_site_label_1
_geom_bond_atom_site_label_2
_geom_bond_distance
_geom_bond_site_symmetry_2
_ccdc_geom_bond_type
Sc0 O3 2.025 . S
Sc0 O10 2.105 . S
Sc0 O13 2.105 . S
Sc0 O16 2.105 . S
Sc0 O19 2.105 1_554 S
Sc1 O3 2.025 1_556 S
Sc1 O11 2.105 . S
Sc1 O15 2.105 1_556 S
Sc1 O17 2.105 1_556 S
Sc1 O21 2.105 . S
Sc2 O3 2.025 . S
Sc2 O12 2.105 1_554 S
Sc2 O14 2.105 . S
Sc2 O18 2.105 . S
Sc2 O20 2.105 . S
O3 Sc0 2.025 . S
O3 Sc1 2.025 1_554 S
O3 Sc2 2.025 . S
C4 O10 1.268 . S
C4 O20 1.268 . S
C5 O11 1.268 . S
C5 O19 1.268 . S
C6 O12 1.268 . S
C6 O21 1.268 . S
C7 O13 1.268 . S
C7 O17 1.268 . S
C8 O14 1.268 . S
C8 O16 1.268 . S
C9 O15 1.268 . S
C9 O18 1.268 . S
O10 Sc0 2.105 . S
O10 C4 1.268 . S
O11 Sc1 2.105 . S
O11 C5 1.268 . S
O12 Sc2 2.105 1_556 S
O12 C6 1.268 . S
O13 Sc0 2.105 . S
O13 C7 1.268 . S
O14 Sc2 2.105 . S
O14 C8 1.268 . S
O15 Sc1 2.105 1_554 S
O15 C9 1.268 . S
O16 Sc0 2.105 . S
O16 C8 1.268 . S
O17 Sc1 2.105 1_554 S
O17 C7 1.268 . S
O18 Sc2 2.105 . S
O18 C9 1.268 . S
O19 Sc0 2.105 1_556 S
O19 C5 1.268 . S
O20 Sc2 2.105 . S
O20 C4 1.268 . S
O21 Sc1 2.105 . S
O21 C6 1.268 . S
Sc22 O25 2.025 . S
Sc22 O32 2.105 . S
Sc22 O35 2.105 . S
Sc22 O38 2.105 . S
Sc22 O41 2.105 . S
Sc23 O25 2.025 . S
Sc23 O33 2.105 . S
Sc23 O37 2.105 . S
Sc23 O39 2.105 . S
Sc23 O43 2.105 . S
Sc24 O25 2.025 . S
Sc24 O34 2.105 . S
Sc24 O36 2.105 . S
Sc24 O40 2.105 . S
Sc24 O42 2.105 . S
O25 Sc22 2.025 . S
O25 Sc23 2.025 . S
O25 Sc24 2.025 . S
C26 O32 1.268 . S
C26 O42 1.268 . S
C27 O33 1.268 . S
C27 O41 1.268 . S
C28 O34 1.268 . S
C28 O43 1.268 . S
C29 O35 1.268 . S
C29 O39 1.268 . S
C30 O36 1.268 . S
C30 O38 1.268 . S
C31 O37 1.268 . S
C31 O40 1.268 . S
O32 Sc22 2.105 . S
O32 C26 1.268 . S
O33 Sc23 2.105 . S
O33 C27 1.268 . S
O34 Sc24 2.105 . S
O34 C28 1.268 . S
O35 Sc22 2.105 . S
O35 C29 1.268 . S
O36 Sc24 2.105 . S
O36 C30 1.268 . S
O37 Sc23 2.105 . S
O37 C31 1.268 . S
O38 Sc22 2.105 . S
O38 C30 1.268 . S
O39 Sc23 2.105 . S
O39 C29 1.268 . S
O40 Sc24 2.105 . S
O40 C31 1.268 . S
O41 Sc22 2.105 . S
O41 C27 1.268 . S
O42 Sc24 2.105 . S
O42 C26 1.268 . S
O43 Sc23 2.105 . S
O43 C28 1.268 . S
Sc44 O47 2.025 . S
Sc44 O54 2.105 . S
Sc44 O57 2.105 . S
Sc44 O60 2.105 . S
Sc44 O63 2.105 . S
Sc45 O47 2.025 . S
Sc45 O55 2.105 . S
Sc45 O59 2.105 . S
Sc45 O61 2.105 . S
Sc45 O65 2.105 . S
Sc46 O47 2.025 . S
Sc46 O56 2.105 . S
Sc46 O58 2.105 . S
Sc46 O62 2.105 . S
Sc46 O64 2.105 . S
O47 Sc44 2.025 . S
O47 Sc45 2.025 . S
O47 Sc46 2.025 . S
C48 O54 1.268 . S
C48 O64 1.268 . S
C49 O55 1.268 . S
C49 O63 1.268 . S
C50 O56 1.268 . S
C50 O65 1.268 . S
C51 O57 1.268 . S
C51 O61 1.268 . S
C52 O58 1.268 . S
C52 O60 1.268 . S
C53 O59 1.268 . S
C53 O62 1.268 . S
O54 Sc44 2.105 . S
O54 C48 1.268 . S
O55 Sc45 2.105 . S
O55 C49 1.268 . S
O56 Sc46 2.105 . S
O56 C50 1.268 . S
O57 Sc44 2.105 . S
O57 C51 1.268 . S
O58 Sc46 2.105 . S
O58 C52 1.268 . S
O59 Sc45 2.105 . S
O59 C53 1.268 . S
O60 Sc44 2.105 . S
O60 C52 1.268 . S
O61 Sc45 2.105 . S
O61 C51 1.268 . S
O62 Sc46 2.105 . S
O62 C53 1.268 . S
O63 Sc44 2.105 . S
O63 C49 1.268 . S
O64 Sc46 2.105 . S
O64 C48 1.268 . S
O65 Sc45 2.105 . S
O65 C50 1.268 . S
Sc66 O69 2.025 . S
Sc66 O76 2.105 . S
Sc66 O79 2.105 . S
Sc66 O82 2.105 . S
Sc66 O85 2.105 . S
Sc67 O69 2.025 . S
Sc67 O77 2.105 . S
Sc67 O81 2.105 . S
Sc67 O83 2.105 . S
Sc67 O87 2.105 . S
Sc68 O69 2.025 . S
Sc68 O78 2.105 . S
Sc68 O80 2.105 . S
Sc68 O84 2.105 . S
Sc68 O86 2.105 . S
O69 Sc66 2.025 . S
O69 Sc67 2.025 . S
O69 Sc68 2.025 . S
C70 O76 1.268 . S
C70 O86 1.268 . S
C71 O77 1.268 . S
C71 O85 1.268 . S
C72 O78 1.268 . S
C72 O87 1.268 . S
C73 O79 1.268 . S
C73 O83 1.268 . S
C74 O80 1.268 . S
C74 O82 1.268 . S
C75 O81 1.268 . S
C75 O84 1.268 . S
O76 Sc66 2.105 . S
O76 C70 1.268 . S
O77 Sc67 2.105 . S
O77 C71 1.268 . S
O78 Sc68 2.105 . S
O78 C72 1.268 . S
O79 Sc66 2.105 . S
O79 C73 1.268 . S
O80 Sc68 2.105 . S
O80 C74 1.268 . S
O81 Sc67 2.105 . S
O81 C75 1.268 . S
O82 Sc66 2.105 . S
O82 C74 1.268 . S
O83 Sc67 2.105 . S
O83 C73 1.268 . S
O84 Sc68 2.105 . S
O84 C75 1.268 . S
O85 Sc66 2.105 . S
O85 C71 1.268 . S
O86 Sc68 2.105 . S
O86 C70 1.268 . S
O87 Sc67 2.105 . S
O87 C72 1.268 . S
Sc88 O91 2.025 . S
Sc88 O98 2.105 . S
Sc88 O101 2.105 . S
Sc88 O104 2.105 . S
Sc88 O107 2.105 . S
Sc89 O91 2.025 . S
Sc89 O99 2.105 . S
Sc89 O103 2.105 . S
Sc89 O105 2.105 . S
Sc89 O109 2.105 . S
Sc90 O91 2.025 . S
Sc90 O100 2.105 . S
Sc90 O102 2.105 . S
Sc90 O106 2.105 . S
Sc90 O108 2.105 . S
O91 Sc88 2.025 . S
O91 Sc89 2.025 . S
O91 Sc90 2.025 . S
C92 O98 1.268 . S
C92 O108 1.268 . S
C93 O99 1.268 . S
C93 O107 1.268 . S
C94 O100 1.268 . S
C94 O109 1.268 . S
C95 O101 1.268 . S
C95 O105 1.268 . S
C96 O102 1.268 . S
C96 O104 1.268 . S
C97 O103 1.268 . S
C97 O106 1.268 . S
O98 Sc88 2.105 . S
O98 C92 1.268 . S
O99 Sc89 2.105 . S
O99 C93 1.268 . S
O100 Sc90 2.105 . S
O100 C94 1.268 . S
O101 Sc88 2.105 . S
O101 C95 1.268 . S
O102 Sc90 2.105 . S
O102 C96 1.268 . S
O103 Sc89 2.105 . S
O103 C97 1.268 . S
O104 Sc88 2.105 . S
O104 C96 1.268 . S
O105 Sc89 2.105 . S
O105 C95 1.268 . S
O106 Sc90 2.105 . S
O106 C97 1.268 . S
O107 Sc88 2.105 . S
O107 C93 1.268 . S
O108 Sc90 2.105 . S
O108 C92 1.268 . S
O109 Sc89 2.105 . S
O109 C94 1.268 . S
Sc110 O113 2.025 . S
Sc110 O120 2.105 . S
Sc110 O123 2.105 . S
Sc110 O126 2.105 . S
Sc110 O129 2.105 . S
Sc111 O113 2.025 . S
Sc111 O121 2.105 . S
Sc111 O125 2.105 . S
Sc111 O127 2.105 . S
Sc111 O131 2.105 . S
Sc112 O113 2.025 . S
Sc112 O122 2.105 . S
Sc112 O124 2.105 . S
Sc112 O128 2.105 . S
Sc112 O130 2.105 . S
O113 Sc110 2.025 . S
O113 Sc111 2.025 . S
O113 Sc112 2.025 . S
C114 O120 1.268 . S
C114 O130 1.268 . S
C115 O121 1.268 . S
C115 O129 1.268 . S
C116 O122 1.268 . S
C116 O131 1.268 . S
C117 O123 1.268 . S
C117 O127 1.268 . S
C118 O124 1.268 1_554 S
C118 O126 1.268 1_554 S
C119 O125 1.268 . S
C119 O128 1.268 . S
O120 Sc110 2.105 . S
O120 C114 1.268 . S
O121 Sc111 2.105 . S
O121 C115 1.268 . S
O122 Sc112 2.105 . S
O122 C116 1.268 . S
O123 Sc110 2.105 . S
O123 C117 1.268 . S
O124 Sc112 2.105 . S
O124 C118 1.268 1_556 S
O125 Sc111 2.105 . S
O125 C119 1.268 . S
O126 Sc110 2.105 . S
O126 C118 1.268 1_556 S
O127 Sc111 2.105 . S
O127 C117 1.268 . S
O128 Sc112 2.105 . S
O128 C119 1.268 . S
O129 Sc110 2.105 . S
O129 C115 1.268 . S
O130 Sc112 2.105 . S
O130 C114 1.268 . S
O131 Sc111 2.105 . S
O131 C116 1.268 . S
Sc132 O135 2.025 . S
Sc132 O142 2.105 . S
Sc132 O145 2.105 . S
Sc132 O148 2.105 . S
Sc132 O151 2.105 . S
Sc133 O135 2.025 . S
Sc133 O143 2.105 . S
Sc133 O147 2.105 . S
Sc133 O149 2.105 . S
Sc133 O153 2.105 . S
Sc134 O135 2.025 . S
Sc134 O144 2.105 . S
Sc134 O146 2.105 . S
Sc134 O150 2.105 . S
Sc134 O152 2.105 . S
O135 Sc132 2.025 . S
O135 Sc133 2.025 . S
O135 Sc134 2.025 . S
C136 O142 1.268 . S
C136 O152 1.268 . S
C137 O143 1.268 . S
C137 O151 1.268 . S
C138 O144 1.268 . S
C138 O153 1.268 . S
C139 O145 1.268 . S
C139 O149 1.268 . S
C140 O146 1.268 . S
C140 O148 1.268 . S
C141 O147 1.268 . S
C141 O150 1.268 . S
O142 Sc132 2.105 . S
O142 C136 1.268 . S
O143 Sc133 2.105 . S
O143 C137 1.268 . S
O144 Sc134 2.105 . S
O144 C138 1.268 . S
O145 Sc132 2.105 . S
O145 C139 1.268 . S
O146 Sc134 2.105 . S
O146 C140 1.268 . S
O147 Sc133 2.105 . S
O147 C141 1.268 . S
O148 Sc132 2.105 . S
O148 C140 1.268 . S
O149 Sc133 2.105 . S
O149 C139 1.268 . S
O150 Sc134 2.105 . S
O150 C141 1.268 . S
O151 Sc132 2.105 . S
O151 C137 1.268 . S
O152 Sc134 2.105 . S
O152 C136 1.268 . S
O153 Sc133 2.105 . S
O153 C138 1.268 . S
Sc154 O157 2.025 . S
Sc154 O164 2.105 . S
Sc154 O167 2.105 1_556 S
Sc154 O170 2.105 1_556 S
Sc154 O173 2.105 . S
Sc155 O157 2.025 1_554 S
Sc155 O165 2.105 . S
Sc155 O169 2.105 . S
Sc155 O171 2.105 . S
Sc155 O175 2.105 1_554 S
Sc156 O157 2.025 . S
Sc156 O166 2.105 . S
Sc156 O168 2.105 . S
Sc156 O172 2.105 1_556 S
Sc156 O174 2.105 . S
O157 Sc154 2.025 . S
O157 Sc155 2.025 1_556 S
O157 Sc156 2.025 . S
C158 O164 1.268 . S
C158 O174 1.268 . S
C159 O165 1.268 1_556 S
C159 O173 1.268 . S
C160 O166 1.268 . S
C160 O175 1.268 . S
C161 O167 1.268 . S
C161 O171 1.268 . S
C162 O168 1.268 1_554 S
C162 O170 1.268 . S
C163 O169 1.268 . S
C163 O172 1.268 . S
O164 Sc154 2.105 . S
O164 C158 1.268 . S
O165 Sc155 2.105 . S
O165 C159 1.268 1_554 S
O166 Sc156 2.105 . S
O166 C160 1.268 . S
O167 Sc154 2.105 1_554 S
O167 C161 1.268 . S
O168 Sc156 2.105 . S
O168 C162 1.268 1_556 S
O169 Sc155 2.105 . S
O169 C163 1.268 . S
O170 Sc154 2.105 1_554 S
O170 C162 1.268 . S
O171 Sc155 2.105 . S
O171 C161 1.268 . S
O172 Sc156 2.105 1_554 S
O172 C163 1.268 . S
O173 Sc154 2.105 . S
O173 C159 1.268 . S
O174 Sc156 2.105 . S
O174 C158 1.268 . S
O175 Sc155 2.105 1_556 S
O175 C160 1.268 . S
Sc176 O179 2.025 . S
Sc176 O186 2.105 . S
Sc176 O189 2.105 . S
Sc176 O192 2.105 . S
Sc176 O195 2.105 . S
Sc177 O179 2.025 . S
Sc177 O187 2.105 . S
Sc177 O191 2.105 . S
Sc177 O193 2.105 . S
Sc177 O197 2.105 . S
Sc178 O179 2.025 . S
Sc178 O188 2.105 . S
Sc178 O190 2.105 . S
Sc178 O194 2.105 . S
Sc178 O196 2.105 . S
O179 Sc176 2.025 . S
O179 Sc177 2.025 . S
O179 Sc178 2.025 . S
C180 O186 1.268 . S
C180 O196 1.268 . S
C181 O187 1.268 . S
C181 O195 1.268 . S
C182 O188 1.268 . S
C182 O197 1.268 . S
C183 O189 1.268 . S
C183 O193 1.268 . S
C184 O190 1.268 . S
C184 O192 1.268 . S
C185 O191 1.268 . S
C185 O194 1.268 . S
O186 Sc176 2.105 . S
O186 C180 1.268 . S
O187 Sc177 2.105 . S
O187 C181 1.268 . S
O188 Sc178 2.105 . S
O188 C182 1.268 . S
O189 Sc176 2.105 . S
O189 C183 1.268 . S
O190 Sc178 2.105 . S
O190 C184 1.268 . S
O191 Sc177 2.105 . S
O191 C185 1.268 . S
O192 Sc176 2.105 . S
O192 C184 1.268 . S
O193 Sc177 2.105 . S
O193 C183 1.268 . S
O194 Sc178 2.105 . S
O194 C185 1.268 . S
O195 Sc176 2.105 . S
O195 C181 1.268 . S
O196 Sc178 2.105 . S
O196 C180 1.268 . S
O197 Sc177 2.105 . S
O197 C182 1.268 . S
Sc198 O201 2.025 . S
Sc198 O208 2.105 . S
Sc198 O211 2.105 . S
Sc198 O214 2.105 . S
Sc198 O217 2.105 . S
Sc199 O201 2.025 . S
Sc199 O209 2.105 . S
Sc199 O213 2.105 . S
Sc199 O215 2.105 . S
Sc199 O219 2.105 . S
Sc200 O201 2.025 . S
Sc200 O210 2.105 . S
Sc200 O212 2.105 . S
Sc200 O216 2.105 . S
Sc200 O218 2.105 . S
O201 Sc198 2.025 . S
O201 Sc199 2.025 . S
O201 Sc200 2.025 . S
C202 O208 1.268 . S
C202 O218 1.268 . S
C203 O209 1.268 . S
C203 O217 1.268 . S
C204 O210 1.268 . S
C204 O219 1.268 . S
C205 O211 1.268 . S
C205 O215 1.268 . S
C206 O212 1.268 . S
C206 O214 1.268 . S
C207 O213 1.268 . S
C207 O216 1.268 . S
O208 Sc198 2.105 . S
O208 C202 1.268 . S
O209 Sc199 2.105 . S
O209 C203 1.268 . S
O210 Sc200 2.105 . S
O210 C204 1.268 . S
O211 Sc198 2.105 . S
O211 C205 1.268 . S
O212 Sc200 2.105 . S
O212 C206 1.268 . S
O213 Sc199 2.105 . S
O213 C207 1.268 . S
O214 Sc198 2.105 . S
O214 C206 1.268 . S
O215 Sc199 2.105 . S
O215 C205 1.268 . S
O216 Sc200 2.105 . S
O216 C207 1.268 . S
O217 Sc198 2.105 . S
O217 C203 1.268 . S
O218 Sc200 2.105 . S
O218 C202 1.268 . S
O219 Sc199 2.105 . S
O219 C204 1.268 . S
Sc220 O223 2.025 . S
Sc220 O230 2.105 . S
Sc220 O233 2.105 . S
Sc220 O236 2.105 . S
Sc220 O239 2.105 . S
Sc221 O223 2.025 . S
Sc221 O231 2.105 . S
Sc221 O235 2.105 . S
Sc221 O237 2.105 . S
Sc221 O241 2.105 . S
Sc222 O223 2.025 . S
Sc222 O232 2.105 . S
Sc222 O234 2.105 . S
Sc222 O238 2.105 . S
Sc222 O240 2.105 . S
O223 Sc220 2.025 . S
O223 Sc221 2.025 . S
O223 Sc222 2.025 . S
C224 O230 1.268 . S
C224 O240 1.268 . S
C225 O231 1.268 . S
C225 O239 1.268 . S
C226 O232 1.268 . S
C226 O241 1.268 . S
C227 O233 1.268 . S
C227 O237 1.268 . S
C228 O234 1.268 . S
C228 O236 1.268 . S
C229 O235 1.268 . S
C229 O238 1.268 . S
O230 Sc220 2.105 . S
O230 C224 1.268 . S
O231 Sc221 2.105 . S
O231 C225 1.268 . S
O232 Sc222 2.105 . S
O232 C226 1.268 . S
O233 Sc220 2.105 . S
O233 C227 1.268 . S
O234 Sc222 2.105 . S
O234 C228 1.268 . S
O235 Sc221 2.105 . S
O235 C229 1.268 . S
O236 Sc220 2.105 . S
O236 C228 1.268 . S
O237 Sc221 2.105 . S
O237 C227 1.268 . S
O238 Sc222 2.105 . S
O238 C229 1.268 . S
O239 Sc220 2.105 . S
O239 C225 1.268 . S
O240 Sc222 2.105 . S
O240 C224 1.268 . S
O241 Sc221 2.105 . S
O241 C226 1.268 . S
Sc242 O245 2.025 . S
Sc242 O252 2.105 . S
Sc242 O255 2.105 . S
Sc242 O258 2.105 . S
Sc242 O261 2.105 . S
Sc243 O245 2.025 . S
Sc243 O253 2.105 . S
Sc243 O257 2.105 . S
Sc243 O259 2.105 . S
Sc243 O263 2.105 . S
Sc244 O245 2.025 . S
Sc244 O254 2.105 . S
Sc244 O256 2.105 . S
Sc244 O260 2.105 . S
Sc244 O262 2.105 . S
O245 Sc242 2.025 . S
O245 Sc243 2.025 . S
O245 Sc244 2.025 . S
C246 O252 1.268 . S
C246 O262 1.268 . S
C247 O253 1.268 . S
C247 O261 1.268 . S
C248 O254 1.268 . S
C248 O263 1.268 . S
C249 O255 1.268 . S
C249 O259 1.268 . S
C250 O256 1.268 . S
C250 O258 1.268 . S
C251 O257 1.268 . S
C251 O260 1.268 . S
O252 Sc242 2.105 . S
O252 C246 1.268 . S
O253 Sc243 2.105 . S
O253 C247 1.268 . S
O254 Sc244 2.105 . S
O254 C248 1.268 . S
O255 Sc242 2.105 . S
O255 C249 1.268 . S
O256 Sc244 2.105 . S
O256 C250 1.268 . S
O257 Sc243 2.105 . S
O257 C251 1.268 . S
O258 Sc242 2.105 . S
O258 C250 1.268 . S
O259 Sc243 2.105 . S
O259 C249 1.268 . S
O260 Sc244 2.105 . S
O260 C251 1.268 . S
O261 Sc242 2.105 . S
O261 C247 1.268 . S
O262 Sc244 2.105 . S
O262 C246 1.268 . S
O263 Sc243 2.105 . S
O263 C248 1.268 . S
H264 C282 0.951 . S
H265 C284 0.951 . S
H266 C286 0.950 . S
H267 C287 0.950 . S
H268 C289 0.950 . S
H269 C292 0.950 . S
H270 C293 0.950 . S
H271 C295 0.950 . S
H272 C296 0.950 . S
H273 C297 0.951 . S
H274 C299 0.951 . S
H275 C301 0.950 . S
H276 C302 0.950 . S
H277 C304 0.950 . S
H278 C307 0.950 . S
H279 C308 0.950 . S
H280 C310 0.950 . S
H281 C311 0.950 . S
C282 H264 0.951 . S
C282 C283 1.366 . S
C282 C284 1.388 . S
C283 C282 1.366 . S
C283 C287 1.385 . S
C284 H265 0.951 . S
C284 C282 1.388 . S
C284 C285 1.366 . S
C285 C284 1.366 . S
C285 C286 1.414 . S
C285 C288 1.499 . S
C286 H266 0.950 . S
C286 C285 1.414 . S
C286 C287 1.374 . S
C287 H267 0.950 . S
C287 C283 1.385 . S
C287 C286 1.374 . S
C288 C285 1.499 . S
C288 C289 1.373 . S
C288 C290 1.389 . S
C289 H268 0.950 . S
C289 C288 1.373 . S
C289 C305 1.377 . S
C290 C288 1.389 . S
C290 C291 1.524 . S
C290 C304 1.377 . S
C291 C290 1.524 . S
C291 C292 1.397 . S
C291 C296 1.363 . S
C292 H269 0.950 . S
C292 C291 1.397 . S
C292 C293 1.334 . S
C293 H270 0.950 . S
C293 C292 1.334 . S
C293 C294 1.287 . S
C294 C293 1.287 . S
C294 C295 1.524 . S
C294 H313 0.913 . S
C295 H271 0.950 . S
C295 C294 1.524 . S
C295 C296 1.415 . S
C296 H272 0.950 . S
C296 C291 1.363 . S
C296 C295 1.415 . S
C297 H273 0.951 . S
C297 C298 1.366 . S
C297 C299 1.388 . S
C298 C297 1.366 . S
C298 C302 1.385 . S
C299 H274 0.951 . S
C299 C297 1.388 . S
C299 C300 1.366 . S
C300 C299 1.366 . S
C300 C301 1.414 . S
C300 C303 1.499 . S
C301 H275 0.950 . S
C301 C300 1.414 . S
C301 C302 1.374 . S
C302 H276 0.950 . S
C302 C298 1.385 . S
C302 C301 1.374 . S
C303 C300 1.499 . S
C303 C304 1.373 . S
C303 C305 1.389 . S
C304 H277 0.950 . S
C304 C290 1.377 . S
C304 C303 1.373 . S
C305 C289 1.377 . S
C305 C303 1.389 . S
C305 C306 1.524 . S
C306 C305 1.524 . S
C306 C307 1.397 . S
C306 C311 1.363 . S
C307 H278 0.950 . S
C307 C306 1.397 . S
C307 C308 1.334 . S
C308 H279 0.950 . S
C308 C307 1.334 . S
C308 C309 1.287 . S
C309 C308 1.287 . S
C309 C310 1.524 . S
C309 H312 0.999 . S
C310 H280 0.950 . S
C310 C309 1.524 . S
C310 C311 1.415 . S
C311 H281 0.950 . S
C311 C306 1.363 . S
C311 C310 1.415 . S
H312 C309 0.999 . S
H313 C294 0.913 . S
H314 C332 0.951 . S
H315 C334 0.951 . S
H316 C336 0.950 . S
H317 C337 0.950 . S
H318 C339 0.950 . S
H319 C342 0.950 . S
H320 C343 0.950 . S
H321 C345 0.950 . S
H322 C346 0.950 . S
H323 C347 0.951 . S
H324 C349 0.951 . S
H325 C351 0.950 . S
H326 C352 0.950 . S
H327 C354 0.950 . S
H328 C357 0.950 . S
H329 C358 0.950 . S
H330 C360 0.950 . S
H331 C361 0.950 . S
C332 H314 0.951 . S
C332 C333 1.366 . S
C332 C334 1.388 . S
C333 C332 1.366 . S
C333 C337 1.385 . S
C334 H315 0.951 . S
C334 C332 1.388 . S
C334 C335 1.366 . S
C335 C334 1.366 . S
C335 C336 1.414 . S
C335 C338 1.499 . S
C336 H316 0.950 . S
C336 C335 1.414 . S
C336 C337 1.374 . S
C337 H317 0.950 . S
C337 C333 1.385 . S
C337 C336 1.374 . S
C338 C335 1.499 . S
C338 C339 1.373 . S
C338 C340 1.389 . S
C339 H318 0.950 . S
C339 C338 1.373 . S
C339 C355 1.377 . S
C340 C338 1.389 . S
C340 C341 1.524 . S
C340 C354 1.377 . S
C341 C340 1.524 . S
C341 C342 1.397 . S
C341 C346 1.363 . S
C342 H319 0.950 . S
C342 C341 1.397 . S
C342 C343 1.334 . S
C343 H320 0.950 . S
C343 C342 1.334 . S
C343 C344 1.287 . S
C344 C343 1.287 . S
C344 C345 1.524 . S
C344 H363 0.913 . S
C345 H321 0.950 . S
C345 C344 1.524 . S
C345 C346 1.415 . S
C346 H322 0.950 . S
C346 C341 1.363 . S
C346 C345 1.415 . S
C347 H323 0.951 . S
C347 C348 1.366 . S
C347 C349 1.388 . S
C348 C347 1.366 . S
C348 C352 1.385 . S
C349 H324 0.951 . S
C349 C347 1.388 . S
C349 C350 1.366 . S
C350 C349 1.366 . S
C350 C351 1.414 . S
C350 C353 1.499 . S
C351 H325 0.950 . S
C351 C350 1.414 . S
C351 C352 1.374 . S
C352 H326 0.950 . S
C352 C348 1.385 . S
C352 C351 1.374 . S
C353 C350 1.499 . S
C353 C354 1.373 . S
C353 C355 1.389 . S
C354 H327 0.950 . S
C354 C340 1.377 . S
C354 C353 1.373 . S
C355 C339 1.377 . S
C355 C353 1.389 . S
C355 C356 1.524 . S
C356 C355 1.524 . S
C356 C357 1.397 . S
C356 C361 1.363 . S
C357 H328 0.950 . S
C357 C356 1.397 . S
C357 C358 1.334 . S
C358 H329 0.950 . S
C358 C357 1.334 . S
C358 C359 1.287 . S
C359 C358 1.287 . S
C359 C360 1.524 . S
C359 H362 0.999 . S
C360 H330 0.950 . S
C360 C359 1.524 . S
C360 C361 1.415 . S
C361 H331 0.950 . S
C361 C356 1.363 . S
C361 C360 1.415 . S
H362 C359 0.999 . S
H363 C344 0.913 . S
H364 C382 0.951 . S
H365 C384 0.951 . S
H366 C386 0.950 . S
H367 C387 0.950 . S
H368 C389 0.950 . S
H369 C392 0.950 . S
H370 C393 0.950 . S
H371 C395 0.950 . S
H372 C396 0.950 . S
H373 C397 0.951 . S
H374 C399 0.961 . S
H375 C401 0.950 . S
H376 C402 0.950 . S
H377 C404 0.950 . S
H378 C407 0.950 . S
H379 C408 0.950 1_554 S
H380 C410 0.950 . S
H381 C411 0.950 . S
C382 H364 0.951 . S
C382 C383 1.366 . S
C382 C384 1.388 . S
C383 C382 1.366 . S
C383 C387 1.385 . S
C384 H365 0.951 . S
C384 C382 1.388 . S
C384 C385 1.366 . S
C385 C384 1.366 . S
C385 C386 1.414 . S
C385 C388 1.499 . S
C386 H366 0.950 . S
C386 C385 1.414 . S
C386 C387 1.374 . S
C387 H367 0.950 . S
C387 C383 1.385 . S
C387 C386 1.374 . S
C388 C385 1.499 . S
C388 C389 1.373 . S
C388 C390 1.389 . S
C389 H368 0.950 . S
C389 C388 1.373 . S
C389 C405 1.377 . S
C390 C388 1.389 . S
C390 C391 1.524 . S
C390 C404 1.377 . S
C391 C390 1.524 . S
C391 C392 1.397 . S
C391 C396 1.363 . S
C392 H369 0.950 . S
C392 C391 1.397 . S
C392 C393 1.334 . S
C393 H370 0.950 . S
C393 C392 1.334 . S
C393 C394 1.287 . S
C394 C393 1.287 . S
C394 C395 1.524 . S
C394 H413 0.913 . S
C395 H371 0.950 . S
C395 C394 1.524 . S
C395 C396 1.415 . S
C396 H372 0.950 . S
C396 C391 1.363 . S
C396 C395 1.415 . S
C397 H373 0.951 . S
C397 C398 1.366 . S
C397 C399 1.388 . S
C398 C397 1.366 . S
C398 C402 1.385 . S
C399 H374 0.961 . S
C399 C397 1.388 . S
C399 C400 1.366 1_554 S
C400 C399 1.366 1_556 S
C400 C401 1.414 1_556 S
C400 C403 1.499 . S
C401 H375 0.950 . S
C401 C400 1.414 1_554 S
C401 C402 1.374 . S
C402 H376 0.950 . S
C402 C398 1.385 . S
C402 C401 1.374 . S
C403 C400 1.499 . S
C403 C404 1.373 . S
C403 C405 1.389 . S
C404 H377 0.950 . S
C404 C390 1.377 . S
C404 C403 1.373 . S
C405 C389 1.377 . S
C405 C403 1.389 . S
C405 C406 1.524 . S
C406 C405 1.524 . S
C406 C407 1.397 . S
C406 C411 1.363 . S
C407 H378 0.950 . S
C407 C406 1.397 . S
C407 C408 1.334 . S
C408 H379 0.950 1_556 S
C408 C407 1.334 . S
C408 C409 1.287 . S
C409 C408 1.287 . S
C409 C410 1.524 . S
C409 H412 0.999 . S
C410 H380 0.950 . S
C410 C409 1.524 . S
C410 C411 1.415 . S
C411 H381 0.950 . S
C411 C406 1.363 . S
C411 C410 1.415 . S
H412 C409 0.999 . S
H413 C394 0.913 . S
H414 C432 0.951 . S
H415 C434 0.951 . S
H416 C436 0.950 . S
H417 C437 0.950 . S
H418 C439 0.950 . S
H419 C442 0.950 . S
H420 C443 0.950 . S
H421 C445 0.950 . S
H422 C446 0.950 . S
H423 C447 0.951 . S
H424 C449 0.951 . S
H425 C451 0.950 . S
H426 C452 0.950 . S
H427 C454 0.950 . S
H428 C457 0.950 . S
H429 C458 0.950 . S
H430 C460 0.950 . S
H431 C461 0.950 1_554 S
C432 H414 0.951 . S
C432 C433 1.366 . S
C432 C434 1.388 . S
C433 C432 1.366 . S
C433 C437 1.385 . S
C434 H415 0.951 . S
C434 C432 1.388 . S
C434 C435 1.366 . S
C435 C434 1.366 . S
C435 C436 1.414 . S
C435 C438 1.499 . S
C436 H416 0.950 . S
C436 C435 1.414 . S
C436 C437 1.374 . S
C437 H417 0.950 . S
C437 C433 1.385 . S
C437 C436 1.374 . S
C438 C435 1.499 . S
C438 C439 1.373 . S
C438 C440 1.389 . S
C439 H418 0.950 . S
C439 C438 1.373 . S
C439 C455 1.377 1_554 S
C440 C438 1.389 . S
C440 C441 1.524 . S
C440 C454 1.377 1_554 S
C441 C440 1.524 . S
C441 C442 1.397 . S
C441 C446 1.363 . S
C442 H419 0.950 . S
C442 C441 1.397 . S
C442 C443 1.334 . S
C443 H420 0.950 . S
C443 C442 1.334 . S
C443 C444 1.287 . S
C444 C443 1.287 . S
C444 C445 1.524 . S
C444 H463 0.913 . S
C445 H421 0.950 . S
C445 C444 1.524 . S
C445 C446 1.415 . S
C446 H422 0.950 . S
C446 C441 1.363 . S
C446 C445 1.415 . S
C447 H423 0.951 . S
C447 C448 1.366 . S
C447 C449 1.388 . S
C448 C447 1.366 . S
C448 C452 1.385 . S
C449 H424 0.951 . S
C449 C447 1.388 . S
C449 C450 1.366 . S
C450 C449 1.366 . S
C450 C451 1.414 . S
C450 C453 1.499 . S
C451 H425 0.950 . S
C451 C450 1.414 . S
C451 C452 1.374 . S
C452 H426 0.950 . S
C452 C448 1.385 . S
C452 C451 1.374 . S
C453 C450 1.499 . S
C453 C454 1.373 . S
C453 C455 1.389 . S
C454 H427 0.950 . S
C454 C440 1.377 1_556 S
C454 C453 1.373 . S
C455 C439 1.377 1_556 S
C455 C453 1.389 . S
C455 C456 1.524 . S
C456 C455 1.524 . S
C456 C457 1.397 . S
C456 C461 1.363 . S
C457 H428 0.950 . S
C457 C456 1.397 . S
C457 C458 1.334 . S
C458 H429 0.950 . S
C458 C457 1.334 . S
C458 C459 1.287 . S
C459 C458 1.287 . S
C459 C460 1.524 . S
C459 H462 0.999 . S
C460 H430 0.950 . S
C460 C459 1.524 . S
C460 C461 1.415 . S
C461 H431 0.950 1_556 S
C461 C456 1.363 . S
C461 C460 1.415 . S
H462 C459 0.999 . S
H463 C444 0.913 . S
H464 C482 0.951 . S
H465 C484 0.951 . S
H466 C486 0.950 . S
H467 C487 0.950 . S
H468 C489 0.950 . S
H469 C492 0.950 . S
H470 C493 0.950 . S
H471 C495 0.950 . S
H472 C496 0.950 . S
H473 C497 0.951 . S
H474 C499 0.951 . S
H475 C501 0.950 . S
H476 C502 0.950 . S
H477 C504 0.950 . S
H478 C507 0.950 . S
H479 C508 0.950 . S
H480 C510 0.950 . S
H481 C511 0.950 . S
C482 H464 0.951 . S
C482 C483 1.366 . S
C482 C484 1.388 1_556 S
C483 C482 1.366 . S
C483 C487 1.385 . S
C484 H465 0.951 . S
C484 C482 1.388 1_554 S
C484 C485 1.366 . S
C485 C484 1.366 . S
C485 C486 1.414 . S
C485 C488 1.499 . S
C486 H466 0.950 . S
C486 C485 1.414 . S
C486 C487 1.374 1_554 S
C487 H467 0.950 . S
C487 C483 1.385 . S
C487 C486 1.374 1_556 S
C488 C485 1.499 . S
C488 C489 1.373 . S
C488 C490 1.389 . S
C489 H468 0.950 . S
C489 C488 1.373 . S
C489 C505 1.377 . S
C490 C488 1.389 . S
C490 C491 1.524 . S
C490 C504 1.377 . S
C491 C490 1.524 . S
C491 C492 1.397 . S
C491 C496 1.363 . S
C492 H469 0.950 . S
C492 C491 1.397 . S
C492 C493 1.334 . S
C493 H470 0.950 . S
C493 C492 1.334 . S
C493 C494 1.287 . S
C494 C493 1.287 . S
C494 C495 1.524 . S
C494 H513 0.913 . S
C495 H471 0.950 . S
C495 C494 1.524 . S
C495 C496 1.415 . S
C496 H472 0.950 . S
C496 C491 1.363 . S
C496 C495 1.415 . S
C497 H473 0.951 . S
C497 C498 1.366 . S
C497 C499 1.388 . S
C498 C497 1.366 . S
C498 C502 1.385 . S
C499 H474 0.951 . S
C499 C497 1.388 . S
C499 C500 1.366 . S
C500 C499 1.366 . S
C500 C501 1.414 . S
C500 C503 1.499 . S
C501 H475 0.950 . S
C501 C500 1.414 . S
C501 C502 1.374 . S
C502 H476 0.950 . S
C502 C498 1.385 . S
C502 C501 1.374 . S
C503 C500 1.499 . S
C503 C504 1.373 . S
C503 C505 1.389 . S
C504 H477 0.950 . S
C504 C490 1.377 . S
C504 C503 1.373 . S
C505 C489 1.377 . S
C505 C503 1.389 . S
C505 C506 1.524 . S
C506 C505 1.524 . S
C506 C507 1.397 . S
C506 C511 1.363 . S
C507 H478 0.950 . S
C507 C506 1.397 . S
C507 C508 1.334 . S
C508 H479 0.950 . S
C508 C507 1.334 . S
C508 C509 1.287 . S
C509 C508 1.287 . S
C509 C510 1.524 . S
C509 H512 0.999 . S
C510 H480 0.950 . S
C510 C509 1.524 . S
C510 C511 1.415 . S
C511 H481 0.950 . S
C511 C506 1.363 . S
C511 C510 1.415 . S
H512 C509 0.999 . S
H513 C494 0.913 . S
H514 C532 0.951 . S
H515 C534 0.951 . S
H516 C536 0.950 . S
H517 C537 0.950 . S
H518 C539 0.950 . S
H519 C542 0.950 . S
H520 C543 0.950 . S
H521 C545 0.950 . S
H522 C546 0.950 . S
H523 C547 0.951 . S
H524 C549 0.951 . S
H525 C551 0.950 . S
H526 C552 0.950 . S
H527 C554 0.950 . S
H528 C557 0.950 . S
H529 C558 0.950 . S
H530 C560 0.950 . S
H531 C561 0.950 . S
C532 H514 0.951 . S
C532 C533 1.366 . S
C532 C534 1.388 . S
C533 C532 1.366 . S
C533 C537 1.385 . S
C534 H515 0.951 . S
C534 C532 1.388 . S
C534 C535 1.366 . S
C535 C534 1.366 . S
C535 C536 1.414 . S
C535 C538 1.499 . S
C536 H516 0.950 . S
C536 C535 1.414 . S
C536 C537 1.374 . S
C537 H517 0.950 . S
C537 C533 1.385 . S
C537 C536 1.374 . S
C538 C535 1.499 . S
C538 C539 1.373 . S
C538 C540 1.389 . S
C539 H518 0.950 . S
C539 C538 1.373 . S
C539 C555 1.377 . S
C540 C538 1.389 . S
C540 C541 1.524 . S
C540 C554 1.377 . S
C541 C540 1.524 . S
C541 C542 1.397 . S
C541 C546 1.363 . S
C542 H519 0.950 . S
C542 C541 1.397 . S
C542 C543 1.334 . S
C543 H520 0.950 . S
C543 C542 1.334 . S
C543 C544 1.287 . S
C544 C543 1.287 . S
C544 C545 1.524 . S
C544 H563 0.913 . S
C545 H521 0.950 . S
C545 C544 1.524 . S
C545 C546 1.415 . S
C546 H522 0.950 . S
C546 C541 1.363 . S
C546 C545 1.415 . S
C547 H523 0.951 . S
C547 C548 1.366 . S
C547 C549 1.388 . S
C548 C547 1.366 . S
C548 C552 1.385 . S
C549 H524 0.951 . S
C549 C547 1.388 . S
C549 C550 1.366 . S
C550 C549 1.366 . S
C550 C551 1.414 . S
C550 C553 1.499 . S
C551 H525 0.950 . S
C551 C550 1.414 . S
C551 C552 1.374 . S
C552 H526 0.950 . S
C552 C548 1.385 . S
C552 C551 1.374 . S
C553 C550 1.499 . S
C553 C554 1.373 . S
C553 C555 1.389 . S
C554 H527 0.950 . S
C554 C540 1.377 . S
C554 C553 1.373 . S
C555 C539 1.377 . S
C555 C553 1.389 . S
C555 C556 1.524 . S
C556 C555 1.524 . S
C556 C557 1.397 . S
C556 C561 1.363 . S
C557 H528 0.950 . S
C557 C556 1.397 . S
C557 C558 1.334 . S
C558 H529 0.950 . S
C558 C557 1.334 . S
C558 C559 1.287 . S
C559 C558 1.287 . S
C559 C560 1.524 . S
C559 H562 0.999 . S
C560 H530 0.950 . S
C560 C559 1.524 . S
C560 C561 1.415 . S
C561 H531 0.950 . S
C561 C556 1.363 . S
C561 C560 1.415 . S
H562 C559 0.999 . S
H563 C544 0.913 . S
H564 C582 0.951 . S
H565 C584 0.951 . S
H566 C586 0.950 . S
H567 C587 0.950 . S
H568 C589 0.950 . S
H569 C592 0.950 . S
H570 C593 0.950 . S
H571 C595 0.950 . S
H572 C596 0.950 . S
H573 C597 0.951 . S
H574 C599 0.951 . S
H575 C601 0.950 . S
H576 C602 0.950 . S
H577 C604 0.950 . S
H578 C607 0.950 . S
H579 C608 0.950 . S
H580 C610 0.950 . S
H581 C611 0.950 . S
C582 H564 0.951 . S
C582 C583 1.366 . S
C582 C584 1.388 . S
C583 C582 1.366 . S
C583 C587 1.385 . S
C584 H565 0.951 . S
C584 C582 1.388 . S
C584 C585 1.366 . S
C585 C584 1.366 . S
C585 C586 1.414 . S
C585 C588 1.499 . S
C586 H566 0.950 . S
C586 C585 1.414 . S
C586 C587 1.374 . S
C587 H567 0.950 . S
C587 C583 1.385 . S
C587 C586 1.374 . S
C588 C585 1.499 . S
C588 C589 1.373 . S
C588 C590 1.389 . S
C589 H568 0.950 . S
C589 C588 1.373 . S
C589 C605 1.377 . S
C590 C588 1.389 . S
C590 C591 1.524 . S
C590 C604 1.377 . S
C591 C590 1.524 . S
C591 C592 1.397 . S
C591 C596 1.363 . S
C592 H569 0.950 . S
C592 C591 1.397 . S
C592 C593 1.334 . S
C593 H570 0.950 . S
C593 C592 1.334 . S
C593 C594 1.287 . S
C594 C593 1.287 . S
C594 C595 1.524 . S
C594 H613 0.913 . S
C595 H571 0.950 . S
C595 C594 1.524 . S
C595 C596 1.415 . S
C596 H572 0.950 . S
C596 C591 1.363 . S
C596 C595 1.415 . S
C597 H573 0.951 . S
C597 C598 1.366 . S
C597 C599 1.388 . S
C598 C597 1.366 . S
C598 C602 1.385 . S
C599 H574 0.951 . S
C599 C597 1.388 . S
C599 C600 1.366 . S
C600 C599 1.366 . S
C600 C601 1.414 . S
C600 C603 1.499 . S
C601 H575 0.950 . S
C601 C600 1.414 . S
C601 C602 1.374 . S
C602 H576 0.950 . S
C602 C598 1.385 . S
C602 C601 1.374 . S
C603 C600 1.499 . S
C603 C604 1.373 . S
C603 C605 1.389 . S
C604 H577 0.950 . S
C604 C590 1.377 . S
C604 C603 1.373 . S
C605 C589 1.377 . S
C605 C603 1.389 . S
C605 C606 1.524 . S
C606 C605 1.524 . S
C606 C607 1.397 . S
C606 C611 1.363 . S
C607 H578 0.950 . S
C607 C606 1.397 . S
C607 C608 1.334 . S
C608 H579 0.950 . S
C608 C607 1.334 . S
C608 C609 1.287 . S
C609 C608 1.287 . S
C609 C610 1.524 . S
C609 H612 0.999 . S
C610 H580 0.950 . S
C610 C609 1.524 . S
C610 C611 1.415 . S
C611 H581 0.950 . S
C611 C606 1.363 . S
C611 C610 1.415 . S
H612 C609 0.999 . S
H613 C594 0.913 . S
H614 C632 0.951 . S
H615 C634 0.951 . S
H616 C636 0.950 . S
H617 C637 0.950 . S
H618 C639 0.950 . S
H619 C642 0.950 . S
H620 C643 0.950 . S
H621 C645 0.950 . S
H622 C646 0.950 . S
H623 C647 0.951 . S
H624 C649 0.951 . S
H625 C651 0.950 . S
H626 C652 0.950 . S
H627 C654 0.950 . S
H628 C657 0.950 . S
H629 C658 0.950 . S
H630 C660 0.950 . S
H631 C661 0.950 . S
C632 H614 0.951 . S
C632 C633 1.366 . S
C632 C634 1.388 . S
C633 C632 1.366 . S
C633 C637 1.385 . S
C634 H615 0.951 . S
C634 C632 1.388 . S
C634 C635 1.366 . S
C635 C634 1.366 . S
C635 C636 1.414 . S
C635 C638 1.499 . S
C636 H616 0.950 . S
C636 C635 1.414 . S
C636 C637 1.374 . S
C637 H617 0.950 . S
C637 C633 1.385 . S
C637 C636 1.374 . S
C638 C635 1.499 . S
C638 C639 1.373 . S
C638 C640 1.389 . S
C639 H618 0.950 . S
C639 C638 1.373 . S
C639 C655 1.377 . S
C640 C638 1.389 . S
C640 C641 1.524 . S
C640 C654 1.377 . S
C641 C640 1.524 . S
C641 C642 1.397 . S
C641 C646 1.363 . S
C642 H619 0.950 . S
C642 C641 1.397 . S
C642 C643 1.334 . S
C643 H620 0.950 . S
C643 C642 1.334 . S
C643 C644 1.287 . S
C644 C643 1.287 . S
C644 C645 1.524 . S
C644 H663 0.913 . S
C645 H621 0.950 . S
C645 C644 1.524 . S
C645 C646 1.415 . S
C646 H622 0.950 . S
C646 C641 1.363 . S
C646 C645 1.415 . S
C647 H623 0.951 . S
C647 C648 1.366 . S
C647 C649 1.388 . S
C648 C647 1.366 . S
C648 C652 1.385 . S
C649 H624 0.951 . S
C649 C647 1.388 . S
C649 C650 1.366 . S
C650 C649 1.366 . S
C650 C651 1.414 . S
C650 C653 1.499 . S
C651 H625 0.950 . S
C651 C650 1.414 . S
C651 C652 1.374 . S
C652 H626 0.950 . S
C652 C648 1.385 . S
C652 C651 1.374 . S
C653 C650 1.499 . S
C653 C654 1.373 . S
C653 C655 1.389 . S
C654 H627 0.950 . S
C654 C640 1.377 . S
C654 C653 1.373 . S
C655 C639 1.377 . S
C655 C653 1.389 . S
C655 C656 1.524 . S
C656 C655 1.524 . S
C656 C657 1.397 . S
C656 C661 1.363 . S
C657 H628 0.950 . S
C657 C656 1.397 . S
C657 C658 1.334 . S
C658 H629 0.950 . S
C658 C657 1.334 . S
C658 C659 1.287 . S
C659 C658 1.287 . S
C659 C660 1.524 . S
C659 H662 0.999 . S
C660 H630 0.950 . S
C660 C659 1.524 . S
C660 C661 1.415 . S
C661 H631 0.950 . S
C661 C656 1.363 . S
C661 C660 1.415 . S
H662 C659 0.999 . S
H663 C644 0.913 . S
H664 C682 0.951 . S
H665 C684 0.951 . S
H666 C686 0.950 . S
H667 C687 0.950 . S
H668 C689 0.950 . S
H669 C692 0.950 . S
H670 C693 0.950 . S
H671 C695 0.950 . S
H672 C696 0.950 . S
H673 C697 0.951 . S
H674 C699 0.951 . S
H675 C701 0.950 . S
H676 C702 0.950 . S
H677 C704 0.950 . S
H678 C707 0.950 . S
H679 C708 0.950 . S
H680 C710 0.950 . S
H681 C711 0.950 . S
C682 H664 0.951 . S
C682 C683 1.366 . S
C682 C684 1.388 . S
C683 C682 1.366 . S
C683 C687 1.385 . S
C684 H665 0.951 . S
C684 C682 1.388 . S
C684 C685 1.366 . S
C685 C684 1.366 . S
C685 C686 1.414 . S
C685 C688 1.499 . S
C686 H666 0.950 . S
C686 C685 1.414 . S
C686 C687 1.374 . S
C687 H667 0.950 . S
C687 C683 1.385 . S
C687 C686 1.374 . S
C688 C685 1.499 . S
C688 C689 1.373 . S
C688 C690 1.389 . S
C689 H668 0.950 . S
C689 C688 1.373 . S
C689 C705 1.377 . S
C690 C688 1.389 . S
C690 C691 1.524 . S
C690 C704 1.377 . S
C691 C690 1.524 . S
C691 C692 1.397 . S
C691 C696 1.363 . S
C692 H669 0.950 . S
C692 C691 1.397 . S
C692 C693 1.334 . S
C693 H670 0.950 . S
C693 C692 1.334 . S
C693 C694 1.287 . S
C694 C693 1.287 . S
C694 C695 1.524 . S
C694 H713 0.913 . S
C695 H671 0.950 . S
C695 C694 1.524 . S
C695 C696 1.415 . S
C696 H672 0.950 . S
C696 C691 1.363 . S
C696 C695 1.415 . S
C697 H673 0.951 . S
C697 C698 1.366 . S
C697 C699 1.388 . S
C698 C697 1.366 . S
C698 C702 1.385 . S
C699 H674 0.951 . S
C699 C697 1.388 . S
C699 C700 1.366 . S
C700 C699 1.366 . S
C700 C701 1.414 . S
C700 C703 1.499 . S
C701 H675 0.950 . S
C701 C700 1.414 . S
C701 C702 1.374 . S
C702 H676 0.950 . S
C702 C698 1.385 . S
C702 C701 1.374 . S
C703 C700 1.499 . S
C703 C704 1.373 . S
C703 C705 1.389 . S
C704 H677 0.950 . S
C704 C690 1.377 . S
C704 C703 1.373 . S
C705 C689 1.377 . S
C705 C703 1.389 . S
C705 C706 1.524 . S
C706 C705 1.524 . S
C706 C707 1.397 . S
C706 C711 1.363 . S
C707 H678 0.950 . S
C707 C706 1.397 . S
C707 C708 1.334 . S
C708 H679 0.950 . S
C708 C707 1.334 . S
C708 C709 1.287 . S
C709 C708 1.287 . S
C709 C710 1.524 . S
C709 H712 0.999 . S
C710 H680 0.950 . S
C710 C709 1.524 . S
C710 C711 1.415 . S
C711 H681 0.950 . S
C711 C706 1.363 . S
C711 C710 1.415 . S
H712 C709 0.999 . S
H713 C694 0.913 . S
H714 C732 0.951 . S
H715 C734 0.951 1_556 S
H716 C736 0.950 . S
H717 C737 0.950 . S
H718 C739 0.950 . S
H719 C742 0.950 . S
H720 C743 0.950 . S
H721 C745 0.950 . S
H722 C746 0.950 . S
H723 C747 0.951 . S
H724 C749 0.951 . S
H725 C751 0.950 . S
H726 C752 0.950 . S
H727 C754 0.950 . S
H728 C757 0.950 . S
H729 C758 0.950 . S
H730 C760 0.950 . S
H731 C761 0.950 . S
C732 H714 0.951 . S
C732 C733 1.366 . S
C732 C734 1.388 . S
C733 C732 1.366 . S
C733 C737 1.385 . S
C734 H715 0.951 1_554 S
C734 C732 1.388 . S
C734 C735 1.366 1_554 S
C735 C734 1.366 1_556 S
C735 C736 1.414 . S
C735 C738 1.499 . S
C736 H716 0.950 . S
C736 C735 1.414 . S
C736 C737 1.374 1_556 S
C737 H717 0.950 . S
C737 C733 1.385 . S
C737 C736 1.374 1_554 S
C738 C735 1.499 . S
C738 C739 1.373 . S
C738 C740 1.389 . S
C739 H718 0.950 . S
C739 C738 1.373 . S
C739 C755 1.377 . S
C740 C738 1.389 . S
C740 C741 1.524 . S
C740 C754 1.377 . S
C741 C740 1.524 . S
C741 C742 1.397 . S
C741 C746 1.363 . S
C742 H719 0.950 . S
C742 C741 1.397 . S
C742 C743 1.334 . S
C743 H720 0.950 . S
C743 C742 1.334 . S
C743 C744 1.287 . S
C744 C743 1.287 . S
C744 C745 1.524 . S
C744 H763 0.913 . S
C745 H721 0.950 . S
C745 C744 1.524 . S
C745 C746 1.415 . S
C746 H722 0.950 . S
C746 C741 1.363 . S
C746 C745 1.415 . S
C747 H723 0.951 . S
C747 C748 1.366 . S
C747 C749 1.388 . S
C748 C747 1.366 . S
C748 C752 1.385 . S
C749 H724 0.951 . S
C749 C747 1.388 . S
C749 C750 1.366 . S
C750 C749 1.366 . S
C750 C751 1.414 . S
C750 C753 1.499 . S
C751 H725 0.950 . S
C751 C750 1.414 . S
C751 C752 1.374 . S
C752 H726 0.950 . S
C752 C748 1.385 . S
C752 C751 1.374 . S
C753 C750 1.499 . S
C753 C754 1.373 . S
C753 C755 1.389 . S
C754 H727 0.950 . S
C754 C740 1.377 . S
C754 C753 1.373 . S
C755 C739 1.377 . S
C755 C753 1.389 . S
C755 C756 1.524 . S
C756 C755 1.524 . S
C756 C757 1.397 . S
C756 C761 1.363 . S
C757 H728 0.950 . S
C757 C756 1.397 . S
C757 C758 1.334 . S
C758 H729 0.950 . S
C758 C757 1.334 . S
C758 C759 1.287 . S
C759 C758 1.287 . S
C759 C760 1.524 . S
C759 H762 0.999 . S
C760 H730 0.950 . S
C760 C759 1.524 . S
C760 C761 1.415 . S
C761 H731 0.950 . S
C761 C756 1.363 . S
C761 C760 1.415 . S
H762 C759 0.999 . S
H763 C744 0.913 . S
H764 C782 0.951 . S
H765 C784 0.951 . S
H766 C786 0.950 . S
H767 C787 0.950 . S
H768 C789 0.950 . S
H769 C792 0.950 . S
H770 C793 0.950 . S
H771 C795 0.950 . S
H772 C796 0.950 . S
H773 C797 0.951 . S
H774 C799 0.951 . S
H775 C801 0.950 . S
H776 C802 0.950 . S
H777 C804 0.950 . S
H778 C807 0.950 . S
H779 C808 0.950 . S
H780 C810 0.950 . S
H781 C811 0.950 . S
C782 H764 0.951 . S
C782 C783 1.366 . S
C782 C784 1.388 . S
C783 C782 1.366 . S
C783 C787 1.385 . S
C784 H765 0.951 . S
C784 C782 1.388 . S
C784 C785 1.366 . S
C785 C784 1.366 . S
C785 C786 1.414 . S
C785 C788 1.499 . S
C786 H766 0.950 . S
C786 C785 1.414 . S
C786 C787 1.374 . S
C787 H767 0.950 . S
C787 C783 1.385 . S
C787 C786 1.374 . S
C788 C785 1.499 . S
C788 C789 1.373 . S
C788 C790 1.389 . S
C789 H768 0.950 . S
C789 C788 1.373 . S
C789 C805 1.377 1_556 S
C790 C788 1.389 . S
C790 C791 1.524 . S
C790 C804 1.377 1_556 S
C791 C790 1.524 . S
C791 C792 1.397 . S
C791 C796 1.363 . S
C792 H769 0.950 . S
C792 C791 1.397 . S
C792 C793 1.334 . S
C793 H770 0.950 . S
C793 C792 1.334 . S
C793 C794 1.287 . S
C794 C793 1.287 . S
C794 C795 1.524 . S
C794 H813 0.913 . S
C795 H771 0.950 . S
C795 C794 1.524 . S
C795 C796 1.415 . S
C796 H772 0.950 . S
C796 C791 1.363 . S
C796 C795 1.415 . S
C797 H773 0.951 . S
C797 C798 1.366 . S
C797 C799 1.388 . S
C798 C797 1.366 . S
C798 C802 1.385 . S
C799 H774 0.951 . S
C799 C797 1.388 . S
C799 C800 1.366 . S
C800 C799 1.366 . S
C800 C801 1.414 . S
C800 C803 1.499 . S
C801 H775 0.950 . S
C801 C800 1.414 . S
C801 C802 1.374 . S
C802 H776 0.950 . S
C802 C798 1.385 . S
C802 C801 1.374 . S
C803 C800 1.499 . S
C803 C804 1.373 . S
C803 C805 1.389 . S
C804 H777 0.950 . S
C804 C790 1.377 1_554 S
C804 C803 1.373 . S
C805 C789 1.377 1_554 S
C805 C803 1.389 . S
C805 C806 1.524 . S
C806 C805 1.524 . S
C806 C807 1.397 . S
C806 C811 1.363 . S
C807 H778 0.950 . S
C807 C806 1.397 . S
C807 C808 1.334 . S
C808 H779 0.950 . S
C808 C807 1.334 . S
C808 C809 1.287 . S
C809 C808 1.287 . S
C809 C810 1.524 . S
C809 H812 0.999 . S
C810 H780 0.950 . S
C810 C809 1.524 . S
C810 C811 1.415 . S
C811 H781 0.950 . S
C811 C806 1.363 . S
C811 C810 1.415 . S
H812 C809 0.999 . S
H813 C794 0.913 . S
H814 C832 0.951 . S
H815 C834 0.951 . S
H816 C836 0.950 . S
H817 C837 0.950 . S
H818 C839 0.950 . S
H819 C842 0.950 . S
H820 C843 0.950 . S
H821 C845 0.950 . S
H822 C846 0.950 . S
H823 C847 0.951 . S
H824 C849 0.951 1_554 S
H825 C851 0.950 1_554 S
H826 C852 0.950 . S
H827 C854 0.950 . S
H828 C857 0.950 . S
H829 C858 0.950 . S
H830 C860 0.950 . S
H831 C861 0.950 . S
C832 H814 0.951 . S
C832 C833 1.366 . S
C832 C834 1.388 . S
C833 C832 1.366 . S
C833 C837 1.385 . S
C834 H815 0.951 . S
C834 C832 1.388 . S
C834 C835 1.366 . S
C835 C834 1.366 . S
C835 C836 1.414 . S
C835 C838 1.499 . S
C836 H816 0.950 . S
C836 C835 1.414 . S
C836 C837 1.374 . S
C837 H817 0.950 . S
C837 C833 1.385 . S
C837 C836 1.374 . S
C838 C835 1.499 . S
C838 C839 1.373 . S
C838 C840 1.389 . S
C839 H818 0.950 . S
C839 C838 1.373 . S
C839 C855 1.377 . S
C840 C838 1.389 . S
C840 C841 1.524 . S
C840 C854 1.377 . S
C841 C840 1.524 . S
C841 C842 1.397 . S
C841 C846 1.363 . S
C842 H819 0.950 . S
C842 C841 1.397 . S
C842 C843 1.334 . S
C843 H820 0.950 . S
C843 C842 1.334 . S
C843 C844 1.287 . S
C844 C843 1.287 . S
C844 C845 1.524 . S
C844 H863 0.913 . S
C845 H821 0.950 . S
C845 C844 1.524 . S
C845 C846 1.415 . S
C846 H822 0.950 . S
C846 C841 1.363 . S
C846 C845 1.415 . S
C847 H823 0.951 . S
C847 C848 1.366 . S
C847 C849 1.388 . S
C848 C847 1.366 . S
C848 C852 1.385 . S
C849 H824 0.951 1_556 S
C849 C847 1.388 . S
C849 C850 1.366 1_556 S
C850 C849 1.366 1_554 S
C850 C851 1.414 1_554 S
C850 C853 1.499 . S
C851 H825 0.950 1_556 S
C851 C850 1.414 1_556 S
C851 C852 1.374 . S
C852 H826 0.950 . S
C852 C848 1.385 . S
C852 C851 1.374 . S
C853 C850 1.499 . S
C853 C854 1.373 . S
C853 C855 1.389 . S
C854 H827 0.950 . S
C854 C840 1.377 . S
C854 C853 1.373 . S
C855 C839 1.377 . S
C855 C853 1.389 . S
C855 C856 1.524 . S
C856 C855 1.524 . S
C856 C857 1.397 . S
C856 C861 1.363 . S
C857 H828 0.950 . S
C857 C856 1.397 . S
C857 C858 1.334 . S
C858 H829 0.950 . S
C858 C857 1.334 . S
C858 C859 1.287 . S
C859 C858 1.287 . S
C859 C860 1.524 . S
C859 H862 0.999 . S
C860 H830 0.950 . S
C860 C859 1.524 . S
C860 C861 1.415 . S
C861 H831 0.950 . S
C861 C856 1.363 . S
C861 C860 1.415 . S
H862 C859 0.999 . S
H863 C844 0.913 . S
H864 C882 0.951 . S
H865 C884 0.951 . S
H866 C886 0.950 . S
H867 C887 0.950 . S
H868 C889 0.950 . S
H869 C892 0.950 . S
H870 C893 0.950 . S
H871 C895 0.950 . S
H872 C896 0.950 1_556 S
H873 C897 0.951 . S
H874 C899 0.951 . S
H875 C901 0.950 . S
H876 C902 0.950 . S
H877 C904 0.950 . S
H878 C907 0.950 . S
H879 C908 0.950 . S
H880 C910 0.950 1_554 S
H881 C911 0.950 . S
C882 H864 0.951 . S
C882 C883 1.366 . S
C882 C884 1.388 . S
C883 C882 1.366 . S
C883 C887 1.385 1_556 S
C884 H865 0.951 . S
C884 C882 1.388 . S
C884 C885 1.366 1_556 S
C885 C884 1.366 1_554 S
C885 C886 1.414 . S
C885 C888 1.499 . S
C886 H866 0.950 . S
C886 C885 1.414 . S
C886 C887 1.374 . S
C887 H867 0.950 . S
C887 C883 1.385 1_554 S
C887 C886 1.374 . S
C888 C885 1.499 . S
C888 C889 1.373 1_554 S
C888 C890 1.389 . S
C889 H868 0.950 . S
C889 C888 1.373 1_556 S
C889 C905 1.377 1_545 S
C890 C888 1.389 . S
C890 C891 1.524 . S
C890 C904 1.377 1_545 S
C891 C890 1.524 . S
C891 C892 1.397 . S
C891 C896 1.363 . S
C892 H869 0.950 . S
C892 C891 1.397 . S
C892 C893 1.334 . S
C893 H870 0.950 . S
C893 C892 1.334 . S
C893 C894 1.287 . S
C894 C893 1.287 . S
C894 C895 1.524 . S
C894 H913 0.913 . S
C895 H871 0.950 . S
C895 C894 1.524 . S
C895 C896 1.415 . S
C896 H872 0.950 1_554 S
C896 C891 1.363 . S
C896 C895 1.415 . S
C897 H873 0.951 . S
C897 C898 1.366 . S
C897 C899 1.388 . S
C898 C897 1.366 . S
C898 C902 1.385 1_554 S
C899 H874 0.951 . S
C899 C897 1.388 . S
C899 C900 1.366 . S
C900 C899 1.366 . S
C900 C901 1.414 1_554 S
C900 C903 1.499 . S
C901 H875 0.950 . S
C901 C900 1.414 1_556 S
C901 C902 1.374 . S
C902 H876 0.950 . S
C902 C898 1.385 1_556 S
C902 C901 1.374 . S
C903 C900 1.499 . S
C903 C904 1.373 . S
C903 C905 1.389 1_554 S
C904 H877 0.950 . S
C904 C890 1.377 1_565 S
C904 C903 1.373 . S
C905 C889 1.377 1_565 S
C905 C903 1.389 1_556 S
C905 C906 1.524 . S
C906 C905 1.524 . S
C906 C907 1.397 . S
C906 C911 1.363 1_556 S
C907 H878 0.950 . S
C907 C906 1.397 . S
C907 C908 1.334 . S
C908 H879 0.950 . S
C908 C907 1.334 . S
C908 C909 1.287 . S
C909 C908 1.287 . S
C909 C910 1.524 . S
C909 H912 0.999 . S
C910 H880 0.950 1_556 S
C910 C909 1.524 . S
C910 C911 1.415 1_556 S
C911 H881 0.950 . S
C911 C906 1.363 1_554 S
C911 C910 1.415 1_554 S
H912 C909 0.999 . S
H913 C894 0.913 . S
H914 C932 0.951 . S
H915 C934 0.951 . S
H916 C936 0.950 . S
H917 C937 0.950 . S
H918 C939 0.950 . S
H919 C942 0.950 . S
H920 C943 0.950 . S
H921 C945 0.950 . S
H922 C946 0.950 . S
H923 C947 0.951 . S
H924 C949 0.951 . S
H925 C951 0.950 . S
H926 C952 0.950 . S
H927 C954 0.950 . S
H928 C957 0.950 . S
H929 C958 0.950 . S
H930 C960 0.950 . S
H931 C961 0.950 . S
C932 H914 0.951 . S
C932 C933 1.366 . S
C932 C934 1.388 . S
C933 C932 1.366 . S
C933 C937 1.385 . S
C934 H915 0.951 . S
C934 C932 1.388 . S
C934 C935 1.366 . S
C935 C934 1.366 . S
C935 C936 1.414 . S
C935 C938 1.499 . S
C936 H916 0.950 . S
C936 C935 1.414 . S
C936 C937 1.374 . S
C937 H917 0.950 . S
C937 C933 1.385 . S
C937 C936 1.374 . S
C938 C935 1.499 . S
C938 C939 1.373 . S
C938 C940 1.389 . S
C939 H918 0.950 . S
C939 C938 1.373 . S
C939 C955 1.377 . S
C940 C938 1.389 . S
C940 C941 1.524 . S
C940 C954 1.377 . S
C941 C940 1.524 . S
C941 C942 1.397 . S
C941 C946 1.363 . S
C942 H919 0.950 . S
C942 C941 1.397 . S
C942 C943 1.334 . S
C943 H920 0.950 . S
C943 C942 1.334 . S
C943 C944 1.287 . S
C944 C943 1.287 . S
C944 C945 1.524 . S
C944 H963 0.913 . S
C945 H921 0.950 . S
C945 C944 1.524 . S
C945 C946 1.415 . S
C946 H922 0.950 . S
C946 C941 1.363 . S
C946 C945 1.415 . S
C947 H923 0.951 . S
C947 C948 1.366 . S
C947 C949 1.388 . S
C948 C947 1.366 . S
C948 C952 1.385 . S
C949 H924 0.951 . S
C949 C947 1.388 . S
C949 C950 1.366 . S
C950 C949 1.366 . S
C950 C951 1.414 . S
C950 C953 1.499 . S
C951 H925 0.950 . S
C951 C950 1.414 . S
C951 C952 1.374 . S
C952 H926 0.950 . S
C952 C948 1.385 . S
C952 C951 1.374 . S
C953 C950 1.499 . S
C953 C954 1.373 . S
C953 C955 1.389 . S
C954 H927 0.950 . S
C954 C940 1.377 . S
C954 C953 1.373 . S
C955 C939 1.377 . S
C955 C953 1.389 . S
C955 C956 1.524 . S
C956 C955 1.524 . S
C956 C957 1.397 . S
C956 C961 1.363 . S
C957 H928 0.950 . S
C957 C956 1.397 . S
C957 C958 1.334 . S
C958 H929 0.950 . S
C958 C957 1.334 . S
C958 C959 1.287 . S
C959 C958 1.287 . S
C959 C960 1.524 . S
C959 H962 0.999 . S
C960 H930 0.950 . S
C960 C959 1.524 . S
C960 C961 1.415 . S
C961 H931 0.950 . S
C961 C956 1.363 . S
C961 C960 1.415 . S
H962 C959 0.999 . S
H963 C944 0.913 . S
H964 C982 0.951 . S
H965 C984 0.951 . S
H966 C986 0.950 . S
H967 C987 0.950 . S
H968 C989 0.950 . S
H969 C992 0.950 . S
H970 C993 0.950 . S
H971 C995 0.950 . S
H972 C996 0.950 . S
H973 C997 0.951 . S
H974 C999 0.951 . S
H975 C1001 0.950 . S
H976 C1002 0.950 . S
H977 C1004 0.950 . S
H978 C1007 0.950 . S
H979 C1008 0.950 . S
H980 C1010 0.950 . S
H981 C1011 0.950 . S
C982 H964 0.951 . S
C982 C983 1.366 . S
C982 C984 1.388 . S
C983 C982 1.366 . S
C983 C987 1.385 . S
C984 H965 0.951 . S
C984 C982 1.388 . S
C984 C985 1.366 . S
C985 C984 1.366 . S
C985 C986 1.414 . S
C985 C988 1.499 . S
C986 H966 0.950 . S
C986 C985 1.414 . S
C986 C987 1.374 . S
C987 H967 0.950 . S
C987 C983 1.385 . S
C987 C986 1.374 . S
C988 C985 1.499 . S
C988 C989 1.373 . S
C988 C990 1.389 . S
C989 H968 0.950 . S
C989 C988 1.373 . S
C989 C1005 1.377 1_455 S
C990 C988 1.389 . S
C990 C991 1.524 . S
C990 C1004 1.377 1_455 S
C991 C990 1.524 . S
C991 C992 1.397 . S
C991 C996 1.363 . S
C992 H969 0.950 . S
C992 C991 1.397 . S
C992 C993 1.334 . S
C993 H970 0.950 . S
C993 C992 1.334 . S
C993 C994 1.287 . S
C994 C993 1.287 . S
C994 C995 1.524 . S
C994 H1013 0.913 . S
C995 H971 0.950 . S
C995 C994 1.524 . S
C995 C996 1.415 . S
C996 H972 0.950 . S
C996 C991 1.363 . S
C996 C995 1.415 . S
C997 H973 0.951 . S
C997 C998 1.366 . S
C997 C999 1.388 . S
C998 C997 1.366 . S
C998 C1002 1.385 . S
C999 H974 0.951 . S
C999 C997 1.388 . S
C999 C1000 1.366 . S
C1000 C999 1.366 . S
C1000 C1001 1.414 . S
C1000 C1003 1.499 . S
C1001 H975 0.950 . S
C1001 C1000 1.414 . S
C1001 C1002 1.374 . S
C1002 H976 0.950 . S
C1002 C998 1.385 . S
C1002 C1001 1.374 . S
C1003 C1000 1.499 . S
C1003 C1004 1.373 . S
C1003 C1005 1.389 . S
C1004 H977 0.950 . S
C1004 C990 1.377 1_655 S
C1004 C1003 1.373 . S
C1005 C989 1.377 1_655 S
C1005 C1003 1.389 . S
C1005 C1006 1.524 . S
C1006 C1005 1.524 . S
C1006 C1007 1.397 . S
C1006 C1011 1.363 . S
C1007 H978 0.950 . S
C1007 C1006 1.397 . S
C1007 C1008 1.334 . S
C1008 H979 0.950 . S
C1008 C1007 1.334 . S
C1008 C1009 1.287 . S
C1009 C1008 1.287 . S
C1009 C1010 1.524 . S
C1009 H1012 0.999 . S
C1010 H980 0.950 . S
C1010 C1009 1.524 . S
C1010 C1011 1.415 . S
C1011 H981 0.950 . S
C1011 C1006 1.363 . S
C1011 C1010 1.415 . S
H1012 C1009 0.999 . S
H1013 C994 0.913 . S
H1014 C1032 0.951 . S
H1015 C1034 0.951 . S
H1016 C1036 0.950 . S
H1017 C1037 0.950 . S
H1018 C1039 0.950 . S
H1019 C1042 0.950 . S
H1020 C1043 0.950 . S
H1021 C1045 0.950 . S
H1022 C1046 0.950 . S
H1023 C1047 0.951 . S
H1024 C1049 0.951 . S
H1025 C1051 0.950 . S
H1026 C1052 0.950 . S
H1027 C1054 0.950 . S
H1028 C1057 0.950 . S
H1029 C1058 0.950 . S
H1030 C1060 0.950 . S
H1031 C1061 0.950 . S
C1032 H1014 0.951 . S
C1032 C1033 1.366 . S
C1032 C1034 1.388 . S
C1033 C1032 1.366 . S
C1033 C1037 1.385 . S
C1034 H1015 0.951 . S
C1034 C1032 1.388 . S
C1034 C1035 1.366 . S
C1035 C1034 1.366 . S
C1035 C1036 1.414 . S
C1035 C1038 1.499 . S
C1036 H1016 0.950 . S
C1036 C1035 1.414 . S
C1036 C1037 1.374 . S
C1037 H1017 0.950 . S
C1037 C1033 1.385 . S
C1037 C1036 1.374 . S
C1038 C1035 1.499 . S
C1038 C1039 1.373 . S
C1038 C1040 1.389 . S
C1039 H1018 0.950 . S
C1039 C1038 1.373 . S
C1039 C1055 1.377 1_565 S
C1040 C1038 1.389 . S
C1040 C1041 1.524 . S
C1040 C1054 1.377 1_565 S
C1041 C1040 1.524 . S
C1041 C1042 1.397 . S
C1041 C1046 1.363 . S
C1042 H1019 0.950 . S
C1042 C1041 1.397 . S
C1042 C1043 1.334 . S
C1043 H1020 0.950 . S
C1043 C1042 1.334 . S
C1043 C1044 1.287 . S
C1044 C1043 1.287 . S
C1044 C1045 1.524 . S
C1044 H1063 0.913 . S
C1045 H1021 0.950 . S
C1045 C1044 1.524 . S
C1045 C1046 1.415 . S
C1046 H1022 0.950 . S
C1046 C1041 1.363 . S
C1046 C1045 1.415 . S
C1047 H1023 0.951 . S
C1047 C1048 1.366 . S
C1047 C1049 1.388 . S
C1048 C1047 1.366 . S
C1048 C1052 1.385 . S
C1049 H1024 0.951 . S
C1049 C1047 1.388 . S
C1049 C1050 1.366 . S
C1050 C1049 1.366 . S
C1050 C1051 1.414 . S
C1050 C1053 1.499 . S
C1051 H1025 0.950 . S
C1051 C1050 1.414 . S
C1051 C1052 1.374 . S
C1052 H1026 0.950 . S
C1052 C1048 1.385 . S
C1052 C1051 1.374 . S
C1053 C1050 1.499 . S
C1053 C1054 1.373 . S
C1053 C1055 1.389 . S
C1054 H1027 0.950 . S
C1054 C1040 1.377 1_545 S
C1054 C1053 1.373 . S
C1055 C1039 1.377 1_545 S
C1055 C1053 1.389 . S
C1055 C1056 1.524 . S
C1056 C1055 1.524 . S
C1056 C1057 1.397 . S
C1056 C1061 1.363 . S
C1057 H1028 0.950 . S
C1057 C1056 1.397 . S
C1057 C1058 1.334 . S
C1058 H1029 0.950 . S
C1058 C1057 1.334 . S
C1058 C1059 1.287 . S
C1059 C1058 1.287 . S
C1059 C1060 1.524 . S
C1059 H1062 0.999 . S
C1060 H1030 0.950 . S
C1060 C1059 1.524 . S
C1060 C1061 1.415 . S
C1061 H1031 0.950 . S
C1061 C1056 1.363 . S
C1061 C1060 1.415 . S
H1062 C1059 0.999 . S
H1063 C1044 0.913 . S
H1064 C1082 0.951 . S
H1065 C1084 0.951 . S
H1066 C1086 0.950 . S
H1067 C1087 0.950 . S
H1068 C1089 0.950 . S
H1069 C1092 0.950 . S
H1070 C1093 0.950 . S
H1071 C1095 0.950 . S
H1072 C1096 0.950 . S
H1073 C1097 0.951 . S
H1074 C1099 0.951 . S
H1075 C1101 0.950 . S
H1076 C1102 0.950 . S
H1077 C1104 0.950 . S
H1078 C1107 0.950 . S
H1079 C1108 0.950 . S
H1080 C1110 0.950 . S
H1081 C1111 0.950 . S
C1082 H1064 0.951 . S
C1082 C1083 1.366 . S
C1082 C1084 1.388 . S
C1083 C1082 1.366 . S
C1083 C1087 1.385 . S
C1084 H1065 0.951 . S
C1084 C1082 1.388 . S
C1084 C1085 1.366 . S
C1085 C1084 1.366 . S
C1085 C1086 1.414 . S
C1085 C1088 1.499 . S
C1086 H1066 0.950 . S
C1086 C1085 1.414 . S
C1086 C1087 1.374 . S
C1087 H1067 0.950 . S
C1087 C1083 1.385 . S
C1087 C1086 1.374 . S
C1088 C1085 1.499 . S
C1088 C1089 1.373 . S
C1088 C1090 1.389 . S
C1089 H1068 0.950 . S
C1089 C1088 1.373 . S
C1089 C1105 1.377 . S
C1090 C1088 1.389 . S
C1090 C1091 1.524 . S
C1090 C1104 1.377 . S
C1091 C1090 1.524 . S
C1091 C1092 1.397 . S
C1091 C1096 1.363 . S
C1092 H1069 0.950 . S
C1092 C1091 1.397 . S
C1092 C1093 1.334 . S
C1093 H1070 0.950 . S
C1093 C1092 1.334 . S
C1093 C1094 1.287 . S
C1094 C1093 1.287 . S
C1094 C1095 1.524 . S
C1094 H1113 0.913 . S
C1095 H1071 0.950 . S
C1095 C1094 1.524 . S
C1095 C1096 1.415 . S
C1096 H1072 0.950 . S
C1096 C1091 1.363 . S
C1096 C1095 1.415 . S
C1097 H1073 0.951 . S
C1097 C1098 1.366 . S
C1097 C1099 1.388 . S
C1098 C1097 1.366 . S
C1098 C1102 1.385 . S
C1099 H1074 0.951 . S
C1099 C1097 1.388 . S
C1099 C1100 1.366 . S
C1100 C1099 1.366 . S
C1100 C1101 1.414 . S
C1100 C1103 1.499 . S
C1101 H1075 0.950 . S
C1101 C1100 1.414 . S
C1101 C1102 1.374 . S
C1102 H1076 0.950 . S
C1102 C1098 1.385 . S
C1102 C1101 1.374 . S
C1103 C1100 1.499 . S
C1103 C1104 1.373 . S
C1103 C1105 1.389 . S
C1104 H1077 0.950 . S
C1104 C1090 1.377 . S
C1104 C1103 1.373 . S
C1105 C1089 1.377 . S
C1105 C1103 1.389 . S
C1105 C1106 1.524 . S
C1106 C1105 1.524 . S
C1106 C1107 1.397 . S
C1106 C1111 1.363 . S
C1107 H1078 0.950 . S
C1107 C1106 1.397 . S
C1107 C1108 1.334 . S
C1108 H1079 0.950 . S
C1108 C1107 1.334 . S
C1108 C1109 1.287 . S
C1109 C1108 1.287 . S
C1109 C1110 1.524 . S
C1109 H1112 0.999 . S
C1110 H1080 0.950 . S
C1110 C1109 1.524 . S
C1110 C1111 1.415 . S
C1111 H1081 0.950 . S
C1111 C1106 1.363 . S
C1111 C1110 1.415 . S
H1112 C1109 0.999 . S
H1113 C1094 0.913 . S
H1114 C1132 0.951 . S
H1115 C1134 0.951 . S
H1116 C1136 0.950 . S
H1117 C1137 0.950 . S
H1118 C1139 0.950 . S
H1119 C1142 0.950 . S
H1120 C1143 0.950 . S
H1121 C1145 0.950 . S
H1122 C1146 0.950 . S
H1123 C1147 0.951 . S
H1124 C1149 0.951 . S
H1125 C1151 0.950 . S
H1126 C1152 0.950 . S
H1127 C1154 0.950 . S
H1128 C1157 0.950 . S
H1129 C1158 0.950 . S
H1130 C1160 0.950 . S
H1131 C1161 0.950 . S
C1132 H1114 0.951 . S
C1132 C1133 1.366 . S
C1132 C1134 1.388 . S
C1133 C1132 1.366 . S
C1133 C1137 1.385 . S
C1134 H1115 0.951 . S
C1134 C1132 1.388 . S
C1134 C1135 1.366 . S
C1135 C1134 1.366 . S
C1135 C1136 1.414 . S
C1135 C1138 1.499 . S
C1136 H1116 0.950 . S
C1136 C1135 1.414 . S
C1136 C1137 1.374 . S
C1137 H1117 0.950 . S
C1137 C1133 1.385 . S
C1137 C1136 1.374 . S
C1138 C1135 1.499 . S
C1138 C1139 1.373 . S
C1138 C1140 1.389 . S
C1139 H1118 0.950 . S
C1139 C1138 1.373 . S
C1139 C1155 1.377 1_455 S
C1140 C1138 1.389 . S
C1140 C1141 1.524 . S
C1140 C1154 1.377 1_455 S
C1141 C1140 1.524 . S
C1141 C1142 1.397 . S
C1141 C1146 1.363 . S
C1142 H1119 0.950 . S
C1142 C1141 1.397 . S
C1142 C1143 1.334 . S
C1143 H1120 0.950 . S
C1143 C1142 1.334 . S
C1143 C1144 1.287 . S
C1144 C1143 1.287 . S
C1144 C1145 1.524 . S
C1144 H1163 0.913 . S
C1145 H1121 0.950 . S
C1145 C1144 1.524 . S
C1145 C1146 1.415 . S
C1146 H1122 0.950 . S
C1146 C1141 1.363 . S
C1146 C1145 1.415 . S
C1147 H1123 0.951 . S
C1147 C1148 1.366 . S
C1147 C1149 1.388 . S
C1148 C1147 1.366 . S
C1148 C1152 1.385 . S
C1149 H1124 0.951 . S
C1149 C1147 1.388 . S
C1149 C1150 1.366 . S
C1150 C1149 1.366 . S
C1150 C1151 1.414 . S
C1150 C1153 1.499 . S
C1151 H1125 0.950 . S
C1151 C1150 1.414 . S
C1151 C1152 1.374 . S
C1152 H1126 0.950 . S
C1152 C1148 1.385 . S
C1152 C1151 1.374 . S
C1153 C1150 1.499 . S
C1153 C1154 1.373 . S
C1153 C1155 1.389 . S
C1154 H1127 0.950 . S
C1154 C1140 1.377 1_655 S
C1154 C1153 1.373 . S
C1155 C1139 1.377 1_655 S
C1155 C1153 1.389 . S
C1155 C1156 1.524 . S
C1156 C1155 1.524 . S
C1156 C1157 1.397 . S
C1156 C1161 1.363 . S
C1157 H1128 0.950 . S
C1157 C1156 1.397 . S
C1157 C1158 1.334 1_556 S
C1158 H1129 0.950 . S
C1158 C1157 1.334 1_554 S
C1158 C1159 1.287 . S
C1159 C1158 1.287 . S
C1159 C1160 1.524 . S
C1159 H1162 0.999 . S
C1160 H1130 0.950 . S
C1160 C1159 1.524 . S
C1160 C1161 1.415 1_554 S
C1161 H1131 0.950 . S
C1161 C1156 1.363 . S
C1161 C1160 1.415 1_556 S
H1162 C1159 0.999 . S
H1163 C1144 0.913 . S
H1164 C1182 0.951 . S
H1165 C1184 0.951 . S
H1166 C1186 0.950 . S
H1167 C1187 0.950 . S
H1168 C1189 0.950 . S
H1169 C1192 0.950 . S
H1170 C1193 0.950 . S
H1171 C1195 0.950 . S
H1172 C1196 0.950 . S
H1173 C1197 0.951 . S
H1174 C1199 0.951 . S
H1175 C1201 0.950 . S
H1176 C1202 0.950 . S
H1177 C1204 0.950 . S
H1178 C1207 0.950 . S
H1179 C1208 0.950 . S
H1180 C1210 0.950 . S
H1181 C1211 0.950 . S
C1182 H1164 0.951 . S
C1182 C1183 1.366 . S
C1182 C1184 1.388 . S
C1183 C1182 1.366 . S
C1183 C1187 1.385 . S
C1184 H1165 0.951 . S
C1184 C1182 1.388 . S
C1184 C1185 1.366 . S
C1185 C1184 1.366 . S
C1185 C1186 1.414 . S
C1185 C1188 1.499 . S
C1186 H1166 0.950 . S
C1186 C1185 1.414 . S
C1186 C1187 1.374 . S
C1187 H1167 0.950 . S
C1187 C1183 1.385 . S
C1187 C1186 1.374 . S
C1188 C1185 1.499 . S
C1188 C1189 1.373 . S
C1188 C1190 1.389 . S
C1189 H1168 0.950 . S
C1189 C1188 1.373 . S
C1189 C1205 1.377 . S
C1190 C1188 1.389 . S
C1190 C1191 1.524 . S
C1190 C1204 1.377 . S
C1191 C1190 1.524 . S
C1191 C1192 1.397 . S
C1191 C1196 1.363 . S
C1192 H1169 0.950 . S
C1192 C1191 1.397 . S
C1192 C1193 1.334 . S
C1193 H1170 0.950 . S
C1193 C1192 1.334 . S
C1193 C1194 1.287 . S
C1194 C1193 1.287 . S
C1194 C1195 1.524 . S
C1194 H1213 0.913 . S
C1195 H1171 0.950 . S
C1195 C1194 1.524 . S
C1195 C1196 1.415 . S
C1196 H1172 0.950 . S
C1196 C1191 1.363 . S
C1196 C1195 1.415 . S
C1197 H1173 0.951 . S
C1197 C1198 1.366 . S
C1197 C1199 1.388 . S
C1198 C1197 1.366 . S
C1198 C1202 1.385 . S
C1199 H1174 0.951 . S
C1199 C1197 1.388 . S
C1199 C1200 1.366 . S
C1200 C1199 1.366 . S
C1200 C1201 1.414 . S
C1200 C1203 1.499 . S
C1201 H1175 0.950 . S
C1201 C1200 1.414 . S
C1201 C1202 1.374 . S
C1202 H1176 0.950 . S
C1202 C1198 1.385 . S
C1202 C1201 1.374 . S
C1203 C1200 1.499 . S
C1203 C1204 1.373 . S
C1203 C1205 1.389 . S
C1204 H1177 0.950 . S
C1204 C1190 1.377 . S
C1204 C1203 1.373 . S
C1205 C1189 1.377 . S
C1205 C1203 1.389 . S
C1205 C1206 1.524 . S
C1206 C1205 1.524 . S
C1206 C1207 1.397 . S
C1206 C1211 1.363 . S
C1207 H1178 0.950 . S
C1207 C1206 1.397 . S
C1207 C1208 1.334 . S
C1208 H1179 0.950 . S
C1208 C1207 1.334 . S
C1208 C1209 1.287 . S
C1209 C1208 1.287 . S
C1209 C1210 1.524 . S
C1209 H1212 0.999 . S
C1210 H1180 0.950 . S
C1210 C1209 1.524 . S
C1210 C1211 1.415 . S
C1211 H1181 0.950 . S
C1211 C1206 1.363 . S
C1211 C1210 1.415 . S
H1212 C1209 0.999 . S
H1213 C1194 0.913 . S
H1214 C1232 0.951 . S
H1215 C1234 0.951 . S
H1216 C1236 0.950 . S
H1217 C1237 0.950 . S
H1218 C1239 0.950 . S
H1219 C1242 0.950 . S
H1220 C1243 0.950 . S
H1221 C1245 0.950 1_556 S
H1222 C1246 0.950 . S
H1223 C1247 0.951 . S
H1224 C1249 0.951 . S
H1225 C1251 0.950 . S
H1226 C1252 0.950 . S
H1227 C1254 0.950 . S
H1228 C1257 0.950 . S
H1229 C1258 0.950 . S
H1230 C1260 0.950 . S
H1231 C1261 0.950 . S
C1232 H1214 0.951 . S
C1232 C1233 1.366 . S
C1232 C1234 1.388 1_554 S
C1233 C1232 1.366 . S
C1233 C1237 1.385 . S
C1234 H1215 0.951 . S
C1234 C1232 1.388 1_556 S
C1234 C1235 1.366 1_556 S
C1235 C1234 1.366 1_554 S
C1235 C1236 1.414 . S
C1235 C1238 1.499 1_554 S
C1236 H1216 0.950 . S
C1236 C1235 1.414 . S
C1236 C1237 1.374 . S
C1237 H1217 0.950 . S
C1237 C1233 1.385 . S
C1237 C1236 1.374 . S
C1238 C1235 1.499 1_556 S
C1238 C1239 1.373 . S
C1238 C1240 1.389 . S
C1239 H1218 0.950 . S
C1239 C1238 1.373 . S
C1239 C1255 1.377 . S
C1240 C1238 1.389 . S
C1240 C1241 1.524 . S
C1240 C1254 1.377 . S
C1241 C1240 1.524 . S
C1241 C1242 1.397 1_556 S
C1241 C1246 1.363 . S
C1242 H1219 0.950 . S
C1242 C1241 1.397 1_554 S
C1242 C1243 1.334 . S
C1243 H1220 0.950 . S
C1243 C1242 1.334 . S
C1243 C1244 1.287 . S
C1244 C1243 1.287 . S
C1244 C1245 1.524 . S
C1244 H1263 0.913 . S
C1245 H1221 0.950 1_554 S
C1245 C1244 1.524 . S
C1245 C1246 1.415 1_554 S
C1246 H1222 0.950 . S
C1246 C1241 1.363 . S
C1246 C1245 1.415 1_556 S
C1247 H1223 0.951 . S
C1247 C1248 1.366 . S
C1247 C1249 1.388 . S
C1248 C1247 1.366 . S
C1248 C1252 1.385 . S
C1249 H1224 0.951 . S
C1249 C1247 1.388 . S
C1249 C1250 1.366 . S
C1250 C1249 1.366 . S
C1250 C1251 1.414 . S
C1250 C1253 1.499 . S
C1251 H1225 0.950 . S
C1251 C1250 1.414 . S
C1251 C1252 1.374 . S
C1252 H1226 0.950 . S
C1252 C1248 1.385 . S
C1252 C1251 1.374 . S
C1253 C1250 1.499 . S
C1253 C1254 1.373 . S
C1253 C1255 1.389 . S
C1254 H1227 0.950 . S
C1254 C1240 1.377 . S
C1254 C1253 1.373 . S
C1255 C1239 1.377 . S
C1255 C1253 1.389 . S
C1255 C1256 1.524 . S
C1256 C1255 1.524 . S
C1256 C1257 1.397 . S
C1256 C1261 1.363 . S
C1257 H1228 0.950 . S
C1257 C1256 1.397 . S
C1257 C1258 1.334 . S
C1258 H1229 0.950 . S
C1258 C1257 1.334 . S
C1258 C1259 1.287 . S
C1259 C1258 1.287 . S
C1259 C1260 1.524 . S
C1259 H1262 0.999 . S
C1260 H1230 0.950 . S
C1260 C1259 1.524 . S
C1260 C1261 1.415 . S
C1261 H1231 0.950 . S
C1261 C1256 1.363 . S
C1261 C1260 1.415 . S
H1262 C1259 0.999 . S
H1263 C1244 0.913 . S
H1264 C1282 0.951 . S
H1265 C1284 0.951 . S
H1266 C1286 0.950 . S
H1267 C1287 0.950 . S
H1268 C1289 0.950 . S
H1269 C1292 0.950 . S
H1270 C1293 0.950 . S
H1271 C1295 0.950 . S
H1272 C1296 0.950 . S
H1273 C1297 0.951 . S
H1274 C1299 0.951 . S
H1275 C1301 0.950 . S
H1276 C1302 0.950 . S
H1277 C1304 0.950 . S
H1278 C1307 0.950 . S
H1279 C1308 0.950 . S
H1280 C1310 0.950 . S
H1281 C1311 0.950 . S
C1282 H1264 0.951 . S
C1282 C1283 1.366 . S
C1282 C1284 1.388 . S
C1283 C1282 1.366 . S
C1283 C1287 1.385 1_556 S
C1284 H1265 0.951 . S
C1284 C1282 1.388 . S
C1284 C1285 1.366 1_556 S
C1285 C1284 1.366 1_554 S
C1285 C1286 1.414 . S
C1285 C1288 1.499 . S
C1286 H1266 0.950 . S
C1286 C1285 1.414 . S
C1286 C1287 1.374 . S
C1287 H1267 0.950 . S
C1287 C1283 1.385 1_554 S
C1287 C1286 1.374 . S
C1288 C1285 1.499 . S
C1288 C1289 1.373 . S
C1288 C1290 1.389 . S
C1289 H1268 0.950 . S
C1289 C1288 1.373 . S
C1289 C1305 1.377 . S
C1290 C1288 1.389 . S
C1290 C1291 1.524 . S
C1290 C1304 1.377 . S
C1291 C1290 1.524 . S
C1291 C1292 1.397 . S
C1291 C1296 1.363 1_554 S
C1292 H1269 0.950 . S
C1292 C1291 1.397 . S
C1292 C1293 1.334 . S
C1293 H1270 0.950 . S
C1293 C1292 1.334 . S
C1293 C1294 1.287 1_554 S
C1294 C1293 1.287 1_556 S
C1294 C1295 1.524 . S
C1294 H1313 0.913 . S
C1295 H1271 0.950 . S
C1295 C1294 1.524 . S
C1295 C1296 1.415 . S
C1296 H1272 0.950 . S
C1296 C1291 1.363 1_556 S
C1296 C1295 1.415 . S
C1297 H1273 0.951 . S
C1297 C1298 1.366 . S
C1297 C1299 1.388 . S
C1298 C1297 1.366 . S
C1298 C1302 1.385 . S
C1299 H1274 0.951 . S
C1299 C1297 1.388 . S
C1299 C1300 1.366 . S
C1300 C1299 1.366 . S
C1300 C1301 1.414 . S
C1300 C1303 1.499 . S
C1301 H1275 0.950 . S
C1301 C1300 1.414 . S
C1301 C1302 1.374 . S
C1302 H1276 0.950 . S
C1302 C1298 1.385 . S
C1302 C1301 1.374 . S
C1303 C1300 1.499 . S
C1303 C1304 1.373 . S
C1303 C1305 1.389 . S
C1304 H1277 0.950 . S
C1304 C1290 1.377 . S
C1304 C1303 1.373 . S
C1305 C1289 1.377 . S
C1305 C1303 1.389 . S
C1305 C1306 1.524 . S
C1306 C1305 1.524 . S
C1306 C1307 1.397 . S
C1306 C1311 1.363 . S
C1307 H1278 0.950 . S
C1307 C1306 1.397 . S
C1307 C1308 1.334 . S
C1308 H1279 0.950 . S
C1308 C1307 1.334 . S
C1308 C1309 1.287 . S
C1309 C1308 1.287 . S
C1309 C1310 1.524 . S
C1309 H1312 0.999 . S
C1310 H1280 0.950 . S
C1310 C1309 1.524 . S
C1310 C1311 1.415 . S
C1311 H1281 0.950 . S
C1311 C1306 1.363 . S
C1311 C1310 1.415 . S
H1312 C1309 0.999 . S
H1313 C1294 0.913 . S
H1314 C1332 0.951 . S
H1315 C1334 0.951 . S
H1316 C1336 0.950 . S
H1317 C1337 0.950 . S
H1318 C1339 0.950 . S
H1319 C1342 0.950 . S
H1320 C1343 0.950 . S
H1321 C1345 0.950 . S
H1322 C1346 0.950 . S
H1323 C1347 0.951 . S
H1324 C1349 0.951 . S
H1325 C1351 0.950 . S
H1326 C1352 0.950 . S
H1327 C1354 0.950 . S
H1328 C1357 0.950 . S
H1329 C1358 0.950 . S
H1330 C1360 0.950 . S
H1331 C1361 0.950 . S
C1332 H1314 0.951 . S
C1332 C1333 1.366 . S
C1332 C1334 1.388 . S
C1333 C1332 1.366 . S
C1333 C1337 1.385 . S
C1334 H1315 0.951 . S
C1334 C1332 1.388 . S
C1334 C1335 1.366 . S
C1335 C1334 1.366 . S
C1335 C1336 1.414 . S
C1335 C1338 1.499 . S
C1336 H1316 0.950 . S
C1336 C1335 1.414 . S
C1336 C1337 1.374 . S
C1337 H1317 0.950 . S
C1337 C1333 1.385 . S
C1337 C1336 1.374 . S
C1338 C1335 1.499 . S
C1338 C1339 1.373 . S
C1338 C1340 1.389 . S
C1339 H1318 0.950 . S
C1339 C1338 1.373 . S
C1339 C1355 1.377 . S
C1340 C1338 1.389 . S
C1340 C1341 1.524 . S
C1340 C1354 1.377 . S
C1341 C1340 1.524 . S
C1341 C1342 1.397 . S
C1341 C1346 1.363 . S
C1342 H1319 0.950 . S
C1342 C1341 1.397 . S
C1342 C1343 1.334 . S
C1343 H1320 0.950 . S
C1343 C1342 1.334 . S
C1343 C1344 1.287 . S
C1344 C1343 1.287 . S
C1344 C1345 1.524 . S
C1344 H1363 0.913 . S
C1345 H1321 0.950 . S
C1345 C1344 1.524 . S
C1345 C1346 1.415 . S
C1346 H1322 0.950 . S
C1346 C1341 1.363 . S
C1346 C1345 1.415 . S
C1347 H1323 0.951 . S
C1347 C1348 1.366 . S
C1347 C1349 1.388 . S
C1348 C1347 1.366 . S
C1348 C1352 1.385 . S
C1349 H1324 0.951 . S
C1349 C1347 1.388 . S
C1349 C1350 1.366 . S
C1350 C1349 1.366 . S
C1350 C1351 1.414 . S
C1350 C1353 1.499 . S
C1351 H1325 0.950 . S
C1351 C1350 1.414 . S
C1351 C1352 1.374 . S
C1352 H1326 0.950 . S
C1352 C1348 1.385 . S
C1352 C1351 1.374 . S
C1353 C1350 1.499 . S
C1353 C1354 1.373 . S
C1353 C1355 1.389 . S
C1354 H1327 0.950 . S
C1354 C1340 1.377 . S
C1354 C1353 1.373 . S
C1355 C1339 1.377 . S
C1355 C1353 1.389 . S
C1355 C1356 1.524 . S
C1356 C1355 1.524 . S
C1356 C1357 1.397 . S
C1356 C1361 1.363 . S
C1357 H1328 0.950 . S
C1357 C1356 1.397 . S
C1357 C1358 1.334 . S
C1358 H1329 0.950 . S
C1358 C1357 1.334 . S
C1358 C1359 1.287 . S
C1359 C1358 1.287 . S
C1359 C1360 1.524 . S
C1359 H1362 0.999 . S
C1360 H1330 0.950 . S
C1360 C1359 1.524 . S
C1360 C1361 1.415 . S
C1361 H1331 0.950 . S
C1361 C1356 1.363 . S
C1361 C1360 1.415 . S
H1362 C1359 0.999 . S
H1363 C1344 0.913 . S
H1364 C1382 0.951 . S
H1365 C1384 0.951 . S
H1366 C1386 0.950 . S
H1367 C1387 0.950 . S
H1368 C1389 0.950 . S
H1369 C1392 0.950 . S
H1370 C1393 0.950 . S
H1371 C1395 0.950 . S
H1372 C1396 0.950 . S
H1373 C1397 0.951 . S
H1374 C1399 0.951 . S
H1375 C1401 0.950 . S
H1376 C1402 0.950 . S
H1377 C1404 0.950 . S
H1378 C1407 0.950 . S
H1379 C1408 0.950 . S
H1380 C1410 0.950 . S
H1381 C1411 0.950 . S
C1382 H1364 0.951 . S
C1382 C1383 1.366 . S
C1382 C1384 1.388 . S
C1383 C1382 1.366 . S
C1383 C1387 1.385 . S
C1384 H1365 0.951 . S
C1384 C1382 1.388 . S
C1384 C1385 1.366 . S
C1385 C1384 1.366 . S
C1385 C1386 1.414 . S
C1385 C1388 1.499 . S
C1386 H1366 0.950 . S
C1386 C1385 1.414 . S
C1386 C1387 1.374 . S
C1387 H1367 0.950 . S
C1387 C1383 1.385 . S
C1387 C1386 1.374 . S
C1388 C1385 1.499 . S
C1388 C1389 1.373 . S
C1388 C1390 1.389 . S
C1389 H1368 0.950 . S
C1389 C1388 1.373 . S
C1389 C1405 1.377 . S
C1390 C1388 1.389 . S
C1390 C1391 1.524 . S
C1390 C1404 1.377 . S
C1391 C1390 1.524 . S
C1391 C1392 1.397 . S
C1391 C1396 1.363 . S
C1392 H1369 0.950 . S
C1392 C1391 1.397 . S
C1392 C1393 1.334 . S
C1393 H1370 0.950 . S
C1393 C1392 1.334 . S
C1393 C1394 1.287 . S
C1394 C1393 1.287 . S
C1394 C1395 1.524 . S
C1394 H1413 0.913 . S
C1395 H1371 0.950 . S
C1395 C1394 1.524 . S
C1395 C1396 1.415 . S
C1396 H1372 0.950 . S
C1396 C1391 1.363 . S
C1396 C1395 1.415 . S
C1397 H1373 0.951 . S
C1397 C1398 1.366 . S
C1397 C1399 1.388 . S
C1398 C1397 1.366 . S
C1398 C1402 1.385 . S
C1399 H1374 0.951 . S
C1399 C1397 1.388 . S
C1399 C1400 1.366 . S
C1400 C1399 1.366 . S
C1400 C1401 1.414 . S
C1400 C1403 1.499 . S
C1401 H1375 0.950 . S
C1401 C1400 1.414 . S
C1401 C1402 1.374 . S
C1402 H1376 0.950 . S
C1402 C1398 1.385 . S
C1402 C1401 1.374 . S
C1403 C1400 1.499 . S
C1403 C1404 1.373 . S
C1403 C1405 1.389 . S
C1404 H1377 0.950 . S
C1404 C1390 1.377 . S
C1404 C1403 1.373 . S
C1405 C1389 1.377 . S
C1405 C1403 1.389 . S
C1405 C1406 1.524 . S
C1406 C1405 1.524 . S
C1406 C1407 1.397 . S
C1406 C1411 1.363 . S
C1407 H1378 0.950 . S
C1407 C1406 1.397 . S
C1407 C1408 1.334 . S
C1408 H1379 0.950 . S
C1408 C1407 1.334 . S
C1408 C1409 1.287 . S
C1409 C1408 1.287 . S
C1409 C1410 1.524 . S
C1409 H1412 0.999 . S
C1410 H1380 0.950 . S
C1410 C1409 1.524 . S
C1410 C1411 1.415 . S
C1411 H1381 0.950 . S
C1411 C1406 1.363 . S
C1411 C1410 1.415 . S
H1412 C1409 0.999 . S
H1413 C1394 0.913 . S
H1414 C1432 0.951 . S
H1415 C1434 0.951 . S
H1416 C1436 0.950 . S
H1417 C1437 0.950 . S
H1418 C1439 0.950 . S
H1419 C1442 0.950 . S
H1420 C1443 0.950 . S
H1421 C1445 0.950 . S
H1422 C1446 0.950 . S
H1423 C1447 0.951 . S
H1424 C1449 0.951 . S
H1425 C1451 0.950 . S
H1426 C1452 0.950 . S
H1427 C1454 0.950 . S
H1428 C1457 0.950 . S
H1429 C1458 0.950 . S
H1430 C1460 0.950 . S
H1431 C1461 0.950 . S
C1432 H1414 0.951 . S
C1432 C1433 1.366 . S
C1432 C1434 1.388 . S
C1433 C1432 1.366 . S
C1433 C1437 1.385 . S
C1434 H1415 0.951 . S
C1434 C1432 1.388 . S
C1434 C1435 1.366 . S
C1435 C1434 1.366 . S
C1435 C1436 1.414 . S
C1435 C1438 1.499 . S
C1436 H1416 0.950 . S
C1436 C1435 1.414 . S
C1436 C1437 1.374 . S
C1437 H1417 0.950 . S
C1437 C1433 1.385 . S
C1437 C1436 1.374 . S
C1438 C1435 1.499 . S
C1438 C1439 1.373 . S
C1438 C1440 1.389 . S
C1439 H1418 0.950 . S
C1439 C1438 1.373 . S
C1439 C1455 1.377 . S
C1440 C1438 1.389 . S
C1440 C1441 1.524 . S
C1440 C1454 1.377 . S
C1441 C1440 1.524 . S
C1441 C1442 1.397 . S
C1441 C1446 1.363 . S
C1442 H1419 0.950 . S
C1442 C1441 1.397 . S
C1442 C1443 1.334 . S
C1443 H1420 0.950 . S
C1443 C1442 1.334 . S
C1443 C1444 1.287 . S
C1444 C1443 1.287 . S
C1444 C1445 1.524 . S
C1444 H1463 0.913 . S
C1445 H1421 0.950 . S
C1445 C1444 1.524 . S
C1445 C1446 1.415 . S
C1446 H1422 0.950 . S
C1446 C1441 1.363 . S
C1446 C1445 1.415 . S
C1447 H1423 0.951 . S
C1447 C1448 1.366 . S
C1447 C1449 1.388 . S
C1448 C1447 1.366 . S
C1448 C1452 1.385 . S
C1449 H1424 0.951 . S
C1449 C1447 1.388 . S
C1449 C1450 1.366 . S
C1450 C1449 1.366 . S
C1450 C1451 1.414 . S
C1450 C1453 1.499 . S
C1451 H1425 0.950 . S
C1451 C1450 1.414 . S
C1451 C1452 1.374 . S
C1452 H1426 0.950 . S
C1452 C1448 1.385 . S
C1452 C1451 1.374 . S
C1453 C1450 1.499 . S
C1453 C1454 1.373 . S
C1453 C1455 1.389 . S
C1454 H1427 0.950 . S
C1454 C1440 1.377 . S
C1454 C1453 1.373 . S
C1455 C1439 1.377 . S
C1455 C1453 1.389 . S
C1455 C1456 1.524 . S
C1456 C1455 1.524 . S
C1456 C1457 1.397 . S
C1456 C1461 1.363 . S
C1457 H1428 0.950 . S
C1457 C1456 1.397 . S
C1457 C1458 1.334 . S
C1458 H1429 0.950 . S
C1458 C1457 1.334 . S
C1458 C1459 1.287 . S
C1459 C1458 1.287 . S
C1459 C1460 1.524 . S
C1459 H1462 0.999 . S
C1460 H1430 0.950 . S
C1460 C1459 1.524 . S
C1460 C1461 1.415 . S
C1461 H1431 0.950 . S
C1461 C1456 1.363 . S
C1461 C1460 1.415 . S
H1462 C1459 0.999 . S
H1463 C1444 0.913 . S
H1464 C1482 0.951 . S
H1465 C1484 0.951 . S
H1466 C1486 0.950 . S
H1467 C1487 0.950 . S
H1468 C1489 0.950 . S
H1469 C1492 0.950 . S
H1470 C1493 0.950 . S
H1471 C1495 0.950 . S
H1472 C1496 0.950 . S
H1473 C1497 0.951 . S
H1474 C1499 0.951 . S
H1475 C1501 0.950 . S
H1476 C1502 0.950 . S
H1477 C1504 0.950 . S
H1478 C1507 0.950 . S
H1479 C1508 0.950 . S
H1480 C1510 0.950 . S
H1481 C1511 0.950 . S
C1482 H1464 0.951 . S
C1482 C1483 1.366 . S
C1482 C1484 1.388 . S
C1483 C1482 1.366 . S
C1483 C1487 1.385 . S
C1484 H1465 0.951 . S
C1484 C1482 1.388 . S
C1484 C1485 1.366 . S
C1485 C1484 1.366 . S
C1485 C1486 1.414 . S
C1485 C1488 1.499 . S
C1486 H1466 0.950 . S
C1486 C1485 1.414 . S
C1486 C1487 1.374 . S
C1487 H1467 0.950 . S
C1487 C1483 1.385 . S
C1487 C1486 1.374 . S
C1488 C1485 1.499 . S
C1488 C1489 1.373 . S
C1488 C1490 1.389 . S
C1489 H1468 0.950 . S
C1489 C1488 1.373 . S
C1489 C1505 1.377 . S
C1490 C1488 1.389 . S
C1490 C1491 1.524 . S
C1490 C1504 1.377 . S
C1491 C1490 1.524 . S
C1491 C1492 1.397 1_554 S
C1491 C1496 1.363 . S
C1492 H1469 0.950 . S
C1492 C1491 1.397 1_556 S
C1492 C1493 1.334 . S
C1493 H1470 0.950 . S
C1493 C1492 1.334 . S
C1493 C1494 1.287 . S
C1494 C1493 1.287 . S
C1494 C1495 1.524 . S
C1494 H1513 0.913 . S
C1495 H1471 0.950 . S
C1495 C1494 1.524 . S
C1495 C1496 1.415 1_556 S
C1496 H1472 0.950 . S
C1496 C1491 1.363 . S
C1496 C1495 1.415 1_554 S
C1497 H1473 0.951 . S
C1497 C1498 1.366 . S
C1497 C1499 1.388 . S
C1498 C1497 1.366 . S
C1498 C1502 1.385 . S
C1499 H1474 0.951 . S
C1499 C1497 1.388 . S
C1499 C1500 1.366 . S
C1500 C1499 1.366 . S
C1500 C1501 1.414 . S
C1500 C1503 1.499 . S
C1501 H1475 0.950 . S
C1501 C1500 1.414 . S
C1501 C1502 1.374 . S
C1502 H1476 0.950 . S
C1502 C1498 1.385 . S
C1502 C1501 1.374 . S
C1503 C1500 1.499 . S
C1503 C1504 1.373 . S
C1503 C1505 1.389 . S
C1504 H1477 0.950 . S
C1504 C1490 1.377 . S
C1504 C1503 1.373 . S
C1505 C1489 1.377 . S
C1505 C1503 1.389 . S
C1505 C1506 1.524 . S
C1506 C1505 1.524 . S
C1506 C1507 1.397 . S
C1506 C1511 1.363 . S
C1507 H1478 0.950 . S
C1507 C1506 1.397 . S
C1507 C1508 1.334 . S
C1508 H1479 0.950 . S
C1508 C1507 1.334 . S
C1508 C1509 1.287 . S
C1509 C1508 1.287 . S
C1509 C1510 1.524 . S
C1509 H1512 0.999 . S
C1510 H1480 0.950 . S
C1510 C1509 1.524 . S
C1510 C1511 1.415 . S
C1511 H1481 0.950 . S
C1511 C1506 1.363 . S
C1511 C1510 1.415 . S
H1512 C1509 0.999 . S
H1513 C1494 0.913 . S
H1514 C1532 0.951 . S
H1515 C1534 0.951 . S
H1516 C1536 0.950 . S
H1517 C1537 0.950 . S
H1518 C1539 0.950 . S
H1519 C1542 0.950 . S
H1520 C1543 0.950 . S
H1521 C1545 0.950 . S
H1522 C1546 0.950 . S
H1523 C1547 0.951 . S
H1524 C1549 0.951 . S
H1525 C1551 0.950 . S
H1526 C1552 0.950 . S
H1527 C1554 0.950 . S
H1528 C1557 0.950 . S
H1529 C1558 0.950 . S
H1530 C1560 0.950 . S
H1531 C1561 0.950 . S
C1532 H1514 0.951 . S
C1532 C1533 1.366 . S
C1532 C1534 1.388 . S
C1533 C1532 1.366 . S
C1533 C1537 1.385 . S
C1534 H1515 0.951 . S
C1534 C1532 1.388 . S
C1534 C1535 1.366 . S
C1535 C1534 1.366 . S
C1535 C1536 1.414 . S
C1535 C1538 1.499 . S
C1536 H1516 0.950 . S
C1536 C1535 1.414 . S
C1536 C1537 1.374 . S
C1537 H1517 0.950 . S
C1537 C1533 1.385 . S
C1537 C1536 1.374 . S
C1538 C1535 1.499 . S
C1538 C1539 1.373 . S
C1538 C1540 1.389 . S
C1539 H1518 0.950 . S
C1539 C1538 1.373 . S
C1539 C1555 1.377 . S
C1540 C1538 1.389 . S
C1540 C1541 1.524 . S
C1540 C1554 1.377 . S
C1541 C1540 1.524 . S
C1541 C1542 1.397 . S
C1541 C1546 1.363 . S
C1542 H1519 0.950 . S
C1542 C1541 1.397 . S
C1542 C1543 1.334 . S
C1543 H1520 0.950 . S
C1543 C1542 1.334 . S
C1543 C1544 1.287 . S
C1544 C1543 1.287 . S
C1544 C1545 1.524 . S
C1544 H1563 0.913 . S
C1545 H1521 0.950 . S
C1545 C1544 1.524 . S
C1545 C1546 1.415 . S
C1546 H1522 0.950 . S
C1546 C1541 1.363 . S
C1546 C1545 1.415 . S
C1547 H1523 0.951 . S
C1547 C1548 1.366 . S
C1547 C1549 1.388 . S
C1548 C1547 1.366 . S
C1548 C1552 1.385 . S
C1549 H1524 0.951 . S
C1549 C1547 1.388 . S
C1549 C1550 1.366 . S
C1550 C1549 1.366 . S
C1550 C1551 1.414 . S
C1550 C1553 1.499 . S
C1551 H1525 0.950 . S
C1551 C1550 1.414 . S
C1551 C1552 1.374 . S
C1552 H1526 0.950 . S
C1552 C1548 1.385 . S
C1552 C1551 1.374 . S
C1553 C1550 1.499 . S
C1553 C1554 1.373 . S
C1553 C1555 1.389 . S
C1554 H1527 0.950 . S
C1554 C1540 1.377 . S
C1554 C1553 1.373 . S
C1555 C1539 1.377 . S
C1555 C1553 1.389 . S
C1555 C1556 1.524 . S
C1556 C1555 1.524 . S
C1556 C1557 1.397 . S
C1556 C1561 1.363 . S
C1557 H1528 0.950 . S
C1557 C1556 1.397 . S
C1557 C1558 1.334 . S
C1558 H1529 0.950 . S
C1558 C1557 1.334 . S
C1558 C1559 1.287 . S
C1559 C1558 1.287 . S
C1559 C1560 1.524 . S
C1559 H1562 0.999 . S
C1560 H1530 0.950 . S
C1560 C1559 1.524 . S
C1560 C1561 1.415 . S
C1561 H1531 0.950 . S
C1561 C1556 1.363 . S
C1561 C1560 1.415 . S
H1562 C1559 0.999 . S
H1563 C1544 0.913 . S
H1564 C1582 0.951 . S
H1565 C1584 0.951 . S
H1566 C1586 0.950 . S
H1567 C1587 0.950 . S
H1568 C1589 0.950 . S
H1569 C1592 0.950 . S
H1570 C1593 0.950 . S
H1571 C1595 0.950 . S
H1572 C1596 0.950 . S
H1573 C1597 0.951 . S
H1574 C1599 0.951 . S
H1575 C1601 0.950 . S
H1576 C1602 0.950 . S
H1577 C1604 0.950 . S
H1578 C1607 0.950 . S
H1579 C1608 0.950 . S
H1580 C1610 0.950 . S
H1581 C1611 0.950 . S
C1582 H1564 0.951 . S
C1582 C1583 1.366 . S
C1582 C1584 1.388 . S
C1583 C1582 1.366 . S
C1583 C1587 1.385 . S
C1584 H1565 0.951 . S
C1584 C1582 1.388 . S
C1584 C1585 1.366 . S
C1585 C1584 1.366 . S
C1585 C1586 1.414 . S
C1585 C1588 1.499 . S
C1586 H1566 0.950 . S
C1586 C1585 1.414 . S
C1586 C1587 1.374 . S
C1587 H1567 0.950 . S
C1587 C1583 1.385 . S
C1587 C1586 1.374 . S
C1588 C1585 1.499 . S
C1588 C1589 1.373 . S
C1588 C1590 1.389 . S
C1589 H1568 0.950 . S
C1589 C1588 1.373 . S
C1589 C1605 1.377 . S
C1590 C1588 1.389 . S
C1590 C1591 1.524 . S
C1590 C1604 1.377 . S
C1591 C1590 1.524 . S
C1591 C1592 1.397 . S
C1591 C1596 1.363 . S
C1592 H1569 0.950 . S
C1592 C1591 1.397 . S
C1592 C1593 1.334 . S
C1593 H1570 0.950 . S
C1593 C1592 1.334 . S
C1593 C1594 1.287 . S
C1594 C1593 1.287 . S
C1594 C1595 1.524 . S
C1594 H1613 0.913 . S
C1595 H1571 0.950 . S
C1595 C1594 1.524 . S
C1595 C1596 1.415 . S
C1596 H1572 0.950 . S
C1596 C1591 1.363 . S
C1596 C1595 1.415 . S
C1597 H1573 0.951 . S
C1597 C1598 1.366 . S
C1597 C1599 1.388 . S
C1598 C1597 1.366 . S
C1598 C1602 1.385 . S
C1599 H1574 0.951 . S
C1599 C1597 1.388 . S
C1599 C1600 1.366 . S
C1600 C1599 1.366 . S
C1600 C1601 1.414 . S
C1600 C1603 1.499 . S
C1601 H1575 0.950 . S
C1601 C1600 1.414 . S
C1601 C1602 1.374 . S
C1602 H1576 0.950 . S
C1602 C1598 1.385 . S
C1602 C1601 1.374 . S
C1603 C1600 1.499 . S
C1603 C1604 1.373 . S
C1603 C1605 1.389 . S
C1604 H1577 0.950 . S
C1604 C1590 1.377 . S
C1604 C1603 1.373 . S
C1605 C1589 1.377 . S
C1605 C1603 1.389 . S
C1605 C1606 1.524 . S
C1606 C1605 1.524 . S
C1606 C1607 1.397 . S
C1606 C1611 1.363 . S
C1607 H1578 0.950 . S
C1607 C1606 1.397 . S
C1607 C1608 1.334 . S
C1608 H1579 0.950 . S
C1608 C1607 1.334 . S
C1608 C1609 1.287 . S
C1609 C1608 1.287 . S
C1609 C1610 1.524 . S
C1609 H1612 0.999 . S
C1610 H1580 0.950 . S
C1610 C1609 1.524 . S
C1610 C1611 1.415 . S
C1611 H1581 0.950 . S
C1611 C1606 1.363 . S
C1611 C1610 1.415 . S
H1612 C1609 0.999 . S
H1613 C1594 0.913 . S
H1614 C1632 0.951 . S
H1615 C1634 0.951 . S
H1616 C1636 0.950 . S
H1617 C1637 0.950 . S
H1618 C1639 0.950 . S
H1619 C1642 0.950 . S
H1620 C1643 0.950 . S
H1621 C1645 0.950 . S
H1622 C1646 0.950 . S
H1623 C1647 0.951 . S
H1624 C1649 0.951 . S
H1625 C1651 0.950 . S
H1626 C1652 0.950 . S
H1627 C1654 0.950 . S
H1628 C1657 0.950 . S
H1629 C1658 0.950 . S
H1630 C1660 0.950 . S
H1631 C1661 0.950 . S
C1632 H1614 0.951 . S
C1632 C1633 1.366 . S
C1632 C1634 1.388 . S
C1633 C1632 1.366 . S
C1633 C1637 1.385 . S
C1634 H1615 0.951 . S
C1634 C1632 1.388 . S
C1634 C1635 1.366 . S
C1635 C1634 1.366 . S
C1635 C1636 1.414 . S
C1635 C1638 1.499 . S
C1636 H1616 0.950 . S
C1636 C1635 1.414 . S
C1636 C1637 1.374 . S
C1637 H1617 0.950 . S
C1637 C1633 1.385 . S
C1637 C1636 1.374 . S
C1638 C1635 1.499 . S
C1638 C1639 1.373 . S
C1638 C1640 1.389 . S
C1639 H1618 0.950 . S
C1639 C1638 1.373 . S
C1639 C1655 1.377 . S
C1640 C1638 1.389 . S
C1640 C1641 1.524 . S
C1640 C1654 1.377 . S
C1641 C1640 1.524 . S
C1641 C1642 1.397 . S
C1641 C1646 1.363 . S
C1642 H1619 0.950 . S
C1642 C1641 1.397 . S
C1642 C1643 1.334 . S
C1643 H1620 0.950 . S
C1643 C1642 1.334 . S
C1643 C1644 1.287 . S
C1644 C1643 1.287 . S
C1644 C1645 1.524 . S
C1644 H1663 0.913 . S
C1645 H1621 0.950 . S
C1645 C1644 1.524 . S
C1645 C1646 1.415 . S
C1646 H1622 0.950 . S
C1646 C1641 1.363 . S
C1646 C1645 1.415 . S
C1647 H1623 0.951 . S
C1647 C1648 1.366 . S
C1647 C1649 1.388 . S
C1648 C1647 1.366 . S
C1648 C1652 1.385 . S
C1649 H1624 0.951 . S
C1649 C1647 1.388 . S
C1649 C1650 1.366 . S
C1650 C1649 1.366 . S
C1650 C1651 1.414 . S
C1650 C1653 1.499 . S
C1651 H1625 0.950 . S
C1651 C1650 1.414 . S
C1651 C1652 1.374 . S
C1652 H1626 0.950 . S
C1652 C1648 1.385 . S
C1652 C1651 1.374 . S
C1653 C1650 1.499 . S
C1653 C1654 1.373 . S
C1653 C1655 1.389 . S
C1654 H1627 0.950 . S
C1654 C1640 1.377 . S
C1654 C1653 1.373 . S
C1655 C1639 1.377 . S
C1655 C1653 1.389 . S
C1655 C1656 1.524 . S
C1656 C1655 1.524 . S
C1656 C1657 1.397 . S
C1656 C1661 1.363 . S
C1657 H1628 0.950 . S
C1657 C1656 1.397 . S
C1657 C1658 1.334 . S
C1658 H1629 0.950 . S
C1658 C1657 1.334 . S
C1658 C1659 1.287 . S
C1659 C1658 1.287 . S
C1659 C1660 1.524 . S
C1659 H1662 0.999 . S
C1660 H1630 0.950 . S
C1660 C1659 1.524 . S
C1660 C1661 1.415 . S
C1661 H1631 0.950 . S
C1661 C1656 1.363 . S
C1661 C1660 1.415 . S
H1662 C1659 0.999 . S
H1663 C1644 0.913 . S
H1664 C1682 0.951 . S
H1665 C1684 0.951 . S
H1666 C1686 0.950 . S
H1667 C1687 0.950 . S
H1668 C1689 0.950 . S
H1669 C1692 0.950 . S
H1670 C1693 0.950 . S
H1671 C1695 0.950 1_554 S
H1672 C1696 0.950 . S
H1673 C1697 0.951 . S
H1674 C1699 0.951 . S
H1675 C1701 0.950 . S
H1676 C1702 0.950 . S
H1677 C1704 0.950 . S
H1678 C1707 0.950 . S
H1679 C1708 0.950 . S
H1680 C1710 0.950 . S
H1681 C1711 0.950 . S
C1682 H1664 0.951 . S
C1682 C1683 1.366 . S
C1682 C1684 1.388 . S
C1683 C1682 1.366 . S
C1683 C1687 1.385 . S
C1684 H1665 0.951 . S
C1684 C1682 1.388 . S
C1684 C1685 1.366 . S
C1685 C1684 1.366 . S
C1685 C1686 1.414 . S
C1685 C1688 1.499 . S
C1686 H1666 0.950 . S
C1686 C1685 1.414 . S
C1686 C1687 1.374 . S
C1687 H1667 0.950 . S
C1687 C1683 1.385 . S
C1687 C1686 1.374 . S
C1688 C1685 1.499 . S
C1688 C1689 1.373 . S
C1688 C1690 1.389 . S
C1689 H1668 0.950 . S
C1689 C1688 1.373 . S
C1689 C1705 1.377 . S
C1690 C1688 1.389 . S
C1690 C1691 1.524 . S
C1690 C1704 1.377 . S
C1691 C1690 1.524 . S
C1691 C1692 1.397 . S
C1691 C1696 1.363 . S
C1692 H1669 0.950 . S
C1692 C1691 1.397 . S
C1692 C1693 1.334 . S
C1693 H1670 0.950 . S
C1693 C1692 1.334 . S
C1693 C1694 1.287 . S
C1694 C1693 1.287 . S
C1694 C1695 1.524 . S
C1694 H1713 0.913 . S
C1695 H1671 0.950 1_556 S
C1695 C1694 1.524 . S
C1695 C1696 1.415 . S
C1696 H1672 0.950 . S
C1696 C1691 1.363 . S
C1696 C1695 1.415 . S
C1697 H1673 0.951 . S
C1697 C1698 1.366 . S
C1697 C1699 1.388 . S
C1698 C1697 1.366 . S
C1698 C1702 1.385 . S
C1699 H1674 0.951 . S
C1699 C1697 1.388 . S
C1699 C1700 1.366 . S
C1700 C1699 1.366 . S
C1700 C1701 1.414 . S
C1700 C1703 1.499 . S
C1701 H1675 0.950 . S
C1701 C1700 1.414 . S
C1701 C1702 1.374 . S
C1702 H1676 0.950 . S
C1702 C1698 1.385 . S
C1702 C1701 1.374 . S
C1703 C1700 1.499 . S
C1703 C1704 1.373 . S
C1703 C1705 1.389 . S
C1704 H1677 0.950 . S
C1704 C1690 1.377 . S
C1704 C1703 1.373 . S
C1705 C1689 1.377 . S
C1705 C1703 1.389 . S
C1705 C1706 1.524 . S
C1706 C1705 1.524 . S
C1706 C1707 1.397 . S
C1706 C1711 1.363 . S
C1707 H1678 0.950 . S
C1707 C1706 1.397 . S
C1707 C1708 1.334 . S
C1708 H1679 0.950 . S
C1708 C1707 1.334 . S
C1708 C1709 1.287 . S
C1709 C1708 1.287 . S
C1709 C1710 1.524 . S
C1709 H1712 0.999 . S
C1710 H1680 0.950 . S
C1710 C1709 1.524 . S
C1710 C1711 1.415 . S
C1711 H1681 0.950 . S
C1711 C1706 1.363 . S
C1711 C1710 1.415 . S
H1712 C1709 0.999 . S
H1713 C1694 0.913 . S
H1714 C1732 0.951 . S
H1715 C1734 0.951 . S
H1716 C1736 0.950 1_554 S
H1717 C1737 0.950 . S
H1718 C1739 0.950 . S
H1719 C1742 0.950 . S
H1720 C1743 0.950 . S
H1721 C1745 0.950 . S
H1722 C1746 0.950 . S
H1723 C1747 0.951 . S
H1724 C1749 0.954 . S
H1725 C1751 0.950 . S
H1726 C1752 0.950 . S
H1727 C1754 0.950 . S
H1728 C1757 0.950 . S
H1729 C1758 0.950 . S
H1730 C1760 0.950 . S
H1731 C1761 0.950 . S
C1732 H1714 0.951 . S
C1732 C1733 1.366 . S
C1732 C1734 1.388 . S
C1733 C1732 1.366 . S
C1733 C1737 1.385 . S
C1734 H1715 0.951 . S
C1734 C1732 1.388 . S
C1734 C1735 1.366 . S
C1735 C1734 1.366 . S
C1735 C1736 1.414 . S
C1735 C1738 1.499 . S
C1736 H1716 0.950 1_556 S
C1736 C1735 1.414 . S
C1736 C1737 1.374 . S
C1737 H1717 0.950 . S
C1737 C1733 1.385 . S
C1737 C1736 1.374 . S
C1738 C1735 1.499 . S
C1738 C1739 1.373 . S
C1738 C1740 1.389 . S
C1739 H1718 0.950 . S
C1739 C1738 1.373 . S
C1739 C1755 1.377 . S
C1740 C1738 1.389 . S
C1740 C1741 1.524 . S
C1740 C1754 1.377 . S
C1741 C1740 1.524 . S
C1741 C1742 1.397 . S
C1741 C1746 1.363 . S
C1742 H1719 0.950 . S
C1742 C1741 1.397 . S
C1742 C1743 1.334 . S
C1743 H1720 0.950 . S
C1743 C1742 1.334 . S
C1743 C1744 1.287 . S
C1744 C1743 1.287 . S
C1744 C1745 1.524 . S
C1744 H1763 0.913 . S
C1745 H1721 0.950 . S
C1745 C1744 1.524 . S
C1745 C1746 1.415 . S
C1746 H1722 0.950 . S
C1746 C1741 1.363 . S
C1746 C1745 1.415 . S
C1747 H1723 0.951 . S
C1747 C1748 1.366 1_554 S
C1747 C1749 1.388 . S
C1748 C1747 1.366 1_556 S
C1748 C1752 1.385 . S
C1749 H1724 0.954 . S
C1749 C1747 1.388 . S
C1749 C1750 1.362 1_554 S
C1750 C1749 1.362 1_556 S
C1750 C1751 1.414 . S
C1750 C1753 1.499 . S
C1751 H1725 0.950 . S
C1751 C1750 1.414 . S
C1751 C1752 1.374 . S
C1752 H1726 0.950 . S
C1752 C1748 1.385 . S
C1752 C1751 1.374 . S
C1753 C1750 1.499 . S
C1753 C1754 1.373 . S
C1753 C1755 1.389 . S
C1754 H1727 0.950 . S
C1754 C1740 1.377 . S
C1754 C1753 1.373 . S
C1755 C1739 1.377 . S
C1755 C1753 1.389 . S
C1755 C1756 1.524 . S
C1756 C1755 1.524 . S
C1756 C1757 1.397 . S
C1756 C1761 1.363 1_556 S
C1757 H1728 0.950 . S
C1757 C1756 1.397 . S
C1757 C1758 1.334 . S
C1758 H1729 0.950 . S
C1758 C1757 1.334 . S
C1758 C1759 1.287 1_556 S
C1759 C1758 1.287 1_554 S
C1759 C1760 1.524 . S
C1759 H1762 0.999 . S
C1760 H1730 0.950 . S
C1760 C1759 1.524 . S
C1760 C1761 1.415 . S
C1761 H1731 0.950 . S
C1761 C1756 1.363 1_554 S
C1761 C1760 1.415 . S
H1762 C1759 0.999 . S
H1763 C1744 0.913 . S
H1764 C1782 0.951 . S
H1765 C1784 0.951 . S
H1766 C1786 0.950 . S
H1767 C1787 0.950 . S
H1768 C1789 0.950 . S
H1769 C1792 0.950 . S
H1770 C1793 0.950 . S
H1771 C1795 0.950 . S
H1772 C1796 0.950 . S
H1773 C1797 0.951 . S
H1774 C1799 0.951 . S
H1775 C1801 0.950 . S
H1776 C1802 0.950 . S
H1777 C1804 0.950 . S
H1778 C1807 0.950 . S
H1779 C1808 0.950 . S
H1780 C1810 0.950 . S
H1781 C1811 0.950 . S
C1782 H1764 0.951 . S
C1782 C1783 1.366 . S
C1782 C1784 1.388 . S
C1783 C1782 1.366 . S
C1783 C1787 1.385 . S
C1784 H1765 0.951 . S
C1784 C1782 1.388 . S
C1784 C1785 1.366 . S
C1785 C1784 1.366 . S
C1785 C1786 1.414 . S
C1785 C1788 1.499 . S
C1786 H1766 0.950 . S
C1786 C1785 1.414 . S
C1786 C1787 1.374 . S
C1787 H1767 0.950 . S
C1787 C1783 1.385 . S
C1787 C1786 1.374 . S
C1788 C1785 1.499 . S
C1788 C1789 1.373 . S
C1788 C1790 1.389 . S
C1789 H1768 0.950 . S
C1789 C1788 1.373 . S
C1789 C1805 1.377 . S
C1790 C1788 1.389 . S
C1790 C1791 1.524 . S
C1790 C1804 1.377 . S
C1791 C1790 1.524 . S
C1791 C1792 1.397 . S
C1791 C1796 1.363 . S
C1792 H1769 0.950 . S
C1792 C1791 1.397 . S
C1792 C1793 1.334 . S
C1793 H1770 0.950 . S
C1793 C1792 1.334 . S
C1793 C1794 1.287 . S
C1794 C1793 1.287 . S
C1794 C1795 1.524 . S
C1794 H1813 0.913 . S
C1795 H1771 0.950 . S
C1795 C1794 1.524 . S
C1795 C1796 1.415 . S
C1796 H1772 0.950 . S
C1796 C1791 1.363 . S
C1796 C1795 1.415 . S
C1797 H1773 0.951 . S
C1797 C1798 1.366 . S
C1797 C1799 1.388 . S
C1798 C1797 1.366 . S
C1798 C1802 1.385 . S
C1799 H1774 0.951 . S
C1799 C1797 1.388 . S
C1799 C1800 1.366 . S
C1800 C1799 1.366 . S
C1800 C1801 1.414 . S
C1800 C1803 1.499 . S
C1801 H1775 0.950 . S
C1801 C1800 1.414 . S
C1801 C1802 1.374 . S
C1802 H1776 0.950 . S
C1802 C1798 1.385 . S
C1802 C1801 1.374 . S
C1803 C1800 1.499 . S
C1803 C1804 1.373 . S
C1803 C1805 1.389 . S
C1804 H1777 0.950 . S
C1804 C1790 1.377 . S
C1804 C1803 1.373 . S
C1805 C1789 1.377 . S
C1805 C1803 1.389 . S
C1805 C1806 1.524 . S
C1806 C1805 1.524 . S
C1806 C1807 1.397 . S
C1806 C1811 1.363 . S
C1807 H1778 0.950 . S
C1807 C1806 1.397 . S
C1807 C1808 1.334 . S
C1808 H1779 0.950 . S
C1808 C1807 1.334 . S
C1808 C1809 1.287 . S
C1809 C1808 1.287 . S
C1809 C1810 1.524 . S
C1809 H1812 0.999 . S
C1810 H1780 0.950 . S
C1810 C1809 1.524 . S
C1810 C1811 1.415 . S
C1811 H1781 0.950 . S
C1811 C1806 1.363 . S
C1811 C1810 1.415 . S
H1812 C1809 0.999 . S
H1813 C1794 0.913 . S
H1814 C1832 0.951 . S
H1815 C1834 0.951 . S
H1816 C1836 0.950 . S
H1817 C1837 0.950 . S
H1818 C1839 0.950 . S
H1819 C1842 0.950 . S
H1820 C1843 0.950 . S
H1821 C1845 0.950 . S
H1822 C1846 0.950 . S
H1823 C1847 0.951 . S
H1824 C1849 0.951 . S
H1825 C1851 0.950 . S
H1826 C1852 0.950 . S
H1827 C1854 0.950 . S
H1828 C1857 0.950 . S
H1829 C1858 0.950 . S
H1830 C1860 0.950 . S
H1831 C1861 0.950 . S
C1832 H1814 0.951 . S
C1832 C1833 1.366 . S
C1832 C1834 1.388 . S
C1833 C1832 1.366 . S
C1833 C1837 1.385 . S
C1834 H1815 0.951 . S
C1834 C1832 1.388 . S
C1834 C1835 1.366 . S
C1835 C1834 1.366 . S
C1835 C1836 1.414 . S
C1835 C1838 1.499 . S
C1836 H1816 0.950 . S
C1836 C1835 1.414 . S
C1836 C1837 1.374 . S
C1837 H1817 0.950 . S
C1837 C1833 1.385 . S
C1837 C1836 1.374 . S
C1838 C1835 1.499 . S
C1838 C1839 1.373 . S
C1838 C1840 1.389 . S
C1839 H1818 0.950 . S
C1839 C1838 1.373 . S
C1839 C1855 1.377 . S
C1840 C1838 1.389 . S
C1840 C1841 1.524 . S
C1840 C1854 1.377 . S
C1841 C1840 1.524 . S
C1841 C1842 1.397 . S
C1841 C1846 1.363 . S
C1842 H1819 0.950 . S
C1842 C1841 1.397 . S
C1842 C1843 1.334 . S
C1843 H1820 0.950 . S
C1843 C1842 1.334 . S
C1843 C1844 1.287 . S
C1844 C1843 1.287 . S
C1844 C1845 1.524 . S
C1844 H1863 0.913 . S
C1845 H1821 0.950 . S
C1845 C1844 1.524 . S
C1845 C1846 1.415 . S
C1846 H1822 0.950 . S
C1846 C1841 1.363 . S
C1846 C1845 1.415 . S
C1847 H1823 0.951 . S
C1847 C1848 1.366 . S
C1847 C1849 1.388 . S
C1848 C1847 1.366 . S
C1848 C1852 1.385 . S
C1849 H1824 0.951 . S
C1849 C1847 1.388 . S
C1849 C1850 1.366 . S
C1850 C1849 1.366 . S
C1850 C1851 1.414 . S
C1850 C1853 1.499 . S
C1851 H1825 0.950 . S
C1851 C1850 1.414 . S
C1851 C1852 1.374 . S
C1852 H1826 0.950 . S
C1852 C1848 1.385 . S
C1852 C1851 1.374 . S
C1853 C1850 1.499 . S
C1853 C1854 1.373 . S
C1853 C1855 1.389 . S
C1854 H1827 0.950 . S
C1854 C1840 1.377 . S
C1854 C1853 1.373 . S
C1855 C1839 1.377 . S
C1855 C1853 1.389 . S
C1855 C1856 1.524 . S
C1856 C1855 1.524 . S
C1856 C1857 1.397 . S
C1856 C1861 1.363 . S
C1857 H1828 0.950 . S
C1857 C1856 1.397 . S
C1857 C1858 1.334 . S
C1858 H1829 0.950 . S
C1858 C1857 1.334 . S
C1858 C1859 1.287 . S
C1859 C1858 1.287 . S
C1859 C1860 1.524 . S
C1859 H1862 0.999 . S
C1860 H1830 0.950 . S
C1860 C1859 1.524 . S
C1860 C1861 1.415 . S
C1861 H1831 0.950 . S
C1861 C1856 1.363 . S
C1861 C1860 1.415 . S
H1862 C1859 0.999 . S
H1863 C1844 0.913 . S
H1864 C1882 0.951 . S
H1865 C1884 0.951 . S
H1866 C1886 0.950 . S
H1867 C1887 0.950 . S
H1868 C1889 0.950 . S
H1869 C1892 0.950 . S
H1870 C1893 0.950 . S
H1871 C1895 0.950 . S
H1872 C1896 0.950 . S
H1873 C1897 0.951 . S
H1874 C1899 0.951 . S
H1875 C1901 0.950 . S
H1876 C1902 0.950 . S
H1877 C1904 0.950 . S
H1878 C1907 0.950 . S
H1879 C1908 0.950 . S
H1880 C1910 0.950 . S
H1881 C1911 0.950 . S
C1882 H1864 0.951 . S
C1882 C1883 1.366 . S
C1882 C1884 1.388 . S
C1883 C1882 1.366 . S
C1883 C1887 1.385 . S
C1884 H1865 0.951 . S
C1884 C1882 1.388 . S
C1884 C1885 1.366 . S
C1885 C1884 1.366 . S
C1885 C1886 1.414 . S
C1885 C1888 1.499 . S
C1886 H1866 0.950 . S
C1886 C1885 1.414 . S
C1886 C1887 1.374 . S
C1887 H1867 0.950 . S
C1887 C1883 1.385 . S
C1887 C1886 1.374 . S
C1888 C1885 1.499 . S
C1888 C1889 1.373 . S
C1888 C1890 1.389 . S
C1889 H1868 0.950 . S
C1889 C1888 1.373 . S
C1889 C1905 1.377 . S
C1890 C1888 1.389 . S
C1890 C1891 1.524 . S
C1890 C1904 1.377 . S
C1891 C1890 1.524 . S
C1891 C1892 1.397 . S
C1891 C1896 1.363 . S
C1892 H1869 0.950 . S
C1892 C1891 1.397 . S
C1892 C1893 1.334 . S
C1893 H1870 0.950 . S
C1893 C1892 1.334 . S
C1893 C1894 1.287 . S
C1894 C1893 1.287 . S
C1894 C1895 1.524 . S
C1894 H1913 0.913 . S
C1895 H1871 0.950 . S
C1895 C1894 1.524 . S
C1895 C1896 1.415 . S
C1896 H1872 0.950 . S
C1896 C1891 1.363 . S
C1896 C1895 1.415 . S
C1897 H1873 0.951 . S
C1897 C1898 1.366 . S
C1897 C1899 1.388 . S
C1898 C1897 1.366 . S
C1898 C1902 1.385 . S
C1899 H1874 0.951 . S
C1899 C1897 1.388 . S
C1899 C1900 1.366 . S
C1900 C1899 1.366 . S
C1900 C1901 1.414 . S
C1900 C1903 1.499 . S
C1901 H1875 0.950 . S
C1901 C1900 1.414 . S
C1901 C1902 1.374 . S
C1902 H1876 0.950 . S
C1902 C1898 1.385 . S
C1902 C1901 1.374 . S
C1903 C1900 1.499 . S
C1903 C1904 1.373 . S
C1903 C1905 1.389 . S
C1904 H1877 0.950 . S
C1904 C1890 1.377 . S
C1904 C1903 1.373 . S
C1905 C1889 1.377 . S
C1905 C1903 1.389 . S
C1905 C1906 1.524 . S
C1906 C1905 1.524 . S
C1906 C1907 1.397 . S
C1906 C1911 1.363 . S
C1907 H1878 0.950 . S
C1907 C1906 1.397 . S
C1907 C1908 1.334 . S
C1908 H1879 0.950 . S
C1908 C1907 1.334 . S
C1908 C1909 1.287 . S
C1909 C1908 1.287 . S
C1909 C1910 1.524 . S
C1909 H1912 0.999 . S
C1910 H1880 0.950 . S
C1910 C1909 1.524 . S
C1910 C1911 1.415 . S
C1911 H1881 0.950 . S
C1911 C1906 1.363 . S
C1911 C1910 1.415 . S
H1912 C1909 0.999 . S
H1913 C1894 0.913 . S
H1914 C1932 0.951 . S
H1915 C1934 0.951 . S
H1916 C1936 0.950 . S
H1917 C1937 0.950 . S
H1918 C1939 0.950 . S
H1919 C1942 0.950 . S
H1920 C1943 0.950 . S
H1921 C1945 0.950 . S
H1922 C1946 0.950 . S
H1923 C1947 0.951 . S
H1924 C1949 0.951 . S
H1925 C1951 0.950 . S
H1926 C1952 0.950 . S
H1927 C1954 0.950 . S
H1928 C1957 0.950 . S
H1929 C1958 0.950 . S
H1930 C1960 0.950 . S
H1931 C1961 0.950 . S
C1932 H1914 0.951 . S
C1932 C1933 1.366 . S
C1932 C1934 1.388 . S
C1933 C1932 1.366 . S
C1933 C1937 1.385 . S
C1934 H1915 0.951 . S
C1934 C1932 1.388 . S
C1934 C1935 1.366 . S
C1935 C1934 1.366 . S
C1935 C1936 1.414 . S
C1935 C1938 1.499 . S
C1936 H1916 0.950 . S
C1936 C1935 1.414 . S
C1936 C1937 1.374 . S
C1937 H1917 0.950 . S
C1937 C1933 1.385 . S
C1937 C1936 1.374 . S
C1938 C1935 1.499 . S
C1938 C1939 1.373 . S
C1938 C1940 1.389 . S
C1939 H1918 0.950 . S
C1939 C1938 1.373 . S
C1939 C1955 1.377 . S
C1940 C1938 1.389 . S
C1940 C1941 1.524 . S
C1940 C1954 1.377 . S
C1941 C1940 1.524 . S
C1941 C1942 1.397 . S
C1941 C1946 1.363 . S
C1942 H1919 0.950 . S
C1942 C1941 1.397 . S
C1942 C1943 1.334 1_556 S
C1943 H1920 0.950 . S
C1943 C1942 1.334 1_554 S
C1943 C1944 1.287 . S
C1944 C1943 1.287 . S
C1944 C1945 1.524 1_554 S
C1944 H1963 0.913 . S
C1945 H1921 0.950 . S
C1945 C1944 1.524 1_556 S
C1945 C1946 1.415 . S
C1946 H1922 0.950 . S
C1946 C1941 1.363 . S
C1946 C1945 1.415 . S
C1947 H1923 0.951 . S
C1947 C1948 1.366 . S
C1947 C1949 1.388 . S
C1948 C1947 1.366 . S
C1948 C1952 1.385 . S
C1949 H1924 0.951 . S
C1949 C1947 1.388 . S
C1949 C1950 1.366 . S
C1950 C1949 1.366 . S
C1950 C1951 1.414 . S
C1950 C1953 1.499 . S
C1951 H1925 0.950 . S
C1951 C1950 1.414 . S
C1951 C1952 1.374 . S
C1952 H1926 0.950 . S
C1952 C1948 1.385 . S
C1952 C1951 1.374 . S
C1953 C1950 1.499 . S
C1953 C1954 1.373 . S
C1953 C1955 1.389 . S
C1954 H1927 0.950 . S
C1954 C1940 1.377 . S
C1954 C1953 1.373 . S
C1955 C1939 1.377 . S
C1955 C1953 1.389 . S
C1955 C1956 1.524 . S
C1956 C1955 1.524 . S
C1956 C1957 1.397 . S
C1956 C1961 1.363 . S
C1957 H1928 0.950 . S
C1957 C1956 1.397 . S
C1957 C1958 1.334 . S
C1958 H1929 0.950 . S
C1958 C1957 1.334 . S
C1958 C1959 1.287 . S
C1959 C1958 1.287 . S
C1959 C1960 1.524 . S
C1959 H1962 0.999 . S
C1960 H1930 0.950 . S
C1960 C1959 1.524 . S
C1960 C1961 1.415 . S
C1961 H1931 0.950 . S
C1961 C1956 1.363 . S
C1961 C1960 1.415 . S
H1962 C1959 0.999 . S
H1963 C1944 0.913 . S
H1964 C1982 0.951 . S
H1965 C1984 0.951 . S
H1966 C1986 0.950 . S
H1967 C1987 0.950 . S
H1968 C1989 0.950 . S
H1969 C1992 0.950 . S
H1970 C1993 0.950 . S
H1971 C1995 0.950 . S
H1972 C1996 0.950 . S
H1973 C1997 0.951 . S
H1974 C1999 0.951 . S
H1975 C2001 0.950 . S
H1976 C2002 0.950 . S
H1977 C2004 0.950 . S
H1978 C2007 0.950 . S
H1979 C2008 0.950 . S
H1980 C2010 0.950 . S
H1981 C2011 0.950 . S
C1982 H1964 0.951 . S
C1982 C1983 1.366 . S
C1982 C1984 1.388 . S
C1983 C1982 1.366 . S
C1983 C1987 1.385 . S
C1984 H1965 0.951 . S
C1984 C1982 1.388 . S
C1984 C1985 1.366 . S
C1985 C1984 1.366 . S
C1985 C1986 1.414 . S
C1985 C1988 1.499 . S
C1986 H1966 0.950 . S
C1986 C1985 1.414 . S
C1986 C1987 1.374 . S
C1987 H1967 0.950 . S
C1987 C1983 1.385 . S
C1987 C1986 1.374 . S
C1988 C1985 1.499 . S
C1988 C1989 1.373 . S
C1988 C1990 1.389 . S
C1989 H1968 0.950 . S
C1989 C1988 1.373 . S
C1989 C2005 1.377 . S
C1990 C1988 1.389 . S
C1990 C1991 1.524 . S
C1990 C2004 1.377 . S
C1991 C1990 1.524 . S
C1991 C1992 1.397 . S
C1991 C1996 1.363 . S
C1992 H1969 0.950 . S
C1992 C1991 1.397 . S
C1992 C1993 1.334 . S
C1993 H1970 0.950 . S
C1993 C1992 1.334 . S
C1993 C1994 1.287 . S
C1994 C1993 1.287 . S
C1994 C1995 1.524 . S
C1994 H2013 0.913 . S
C1995 H1971 0.950 . S
C1995 C1994 1.524 . S
C1995 C1996 1.415 . S
C1996 H1972 0.950 . S
C1996 C1991 1.363 . S
C1996 C1995 1.415 . S
C1997 H1973 0.951 . S
C1997 C1998 1.366 . S
C1997 C1999 1.388 . S
C1998 C1997 1.366 . S
C1998 C2002 1.385 1_554 S
C1999 H1974 0.951 . S
C1999 C1997 1.388 . S
C1999 C2000 1.366 1_554 S
C2000 C1999 1.366 1_556 S
C2000 C2001 1.414 . S
C2000 C2003 1.499 . S
C2001 H1975 0.950 . S
C2001 C2000 1.414 . S
C2001 C2002 1.374 . S
C2002 H1976 0.950 . S
C2002 C1998 1.385 1_556 S
C2002 C2001 1.374 . S
C2003 C2000 1.499 . S
C2003 C2004 1.373 . S
C2003 C2005 1.389 . S
C2004 H1977 0.950 . S
C2004 C1990 1.377 . S
C2004 C2003 1.373 . S
C2005 C1989 1.377 . S
C2005 C2003 1.389 . S
C2005 C2006 1.524 . S
C2006 C2005 1.524 . S
C2006 C2007 1.397 . S
C2006 C2011 1.363 1_556 S
C2007 H1978 0.950 . S
C2007 C2006 1.397 . S
C2007 C2008 1.334 . S
C2008 H1979 0.950 . S
C2008 C2007 1.334 . S
C2008 C2009 1.287 1_556 S
C2009 C2008 1.287 1_554 S
C2009 C2010 1.524 . S
C2009 H2012 0.999 . S
C2010 H1980 0.950 . S
C2010 C2009 1.524 . S
C2010 C2011 1.415 . S
C2011 H1981 0.950 . S
C2011 C2006 1.363 1_554 S
C2011 C2010 1.415 . S
H2012 C2009 0.999 . S
H2013 C1994 0.913 . S
H2014 C2032 0.951 . S
H2015 C2034 0.951 . S
H2016 C2036 0.950 . S
H2017 C2037 0.950 . S
H2018 C2039 0.950 . S
H2019 C2042 0.950 . S
H2020 C2043 0.950 . S
H2021 C2045 0.950 . S
H2022 C2046 0.950 . S
H2023 C2047 0.951 . S
H2024 C2049 0.951 . S
H2025 C2051 0.950 . S
H2026 C2052 0.950 . S
H2027 C2054 0.950 . S
H2028 C2057 0.950 . S
H2029 C2058 0.950 . S
H2030 C2060 0.950 . S
H2031 C2061 0.950 . S
C2032 H2014 0.951 . S
C2032 C2033 1.366 . S
C2032 C2034 1.388 . S
C2033 C2032 1.366 . S
C2033 C2037 1.385 . S
C2034 H2015 0.951 . S
C2034 C2032 1.388 . S
C2034 C2035 1.366 . S
C2035 C2034 1.366 . S
C2035 C2036 1.414 . S
C2035 C2038 1.499 . S
C2036 H2016 0.950 . S
C2036 C2035 1.414 . S
C2036 C2037 1.374 . S
C2037 H2017 0.950 . S
C2037 C2033 1.385 . S
C2037 C2036 1.374 . S
C2038 C2035 1.499 . S
C2038 C2039 1.373 . S
C2038 C2040 1.389 . S
C2039 H2018 0.950 . S
C2039 C2038 1.373 . S
C2039 C2055 1.377 . S
C2040 C2038 1.389 . S
C2040 C2041 1.524 . S
C2040 C2054 1.377 . S
C2041 C2040 1.524 . S
C2041 C2042 1.397 . S
C2041 C2046 1.363 . S
C2042 H2019 0.950 . S
C2042 C2041 1.397 . S
C2042 C2043 1.334 . S
C2043 H2020 0.950 . S
C2043 C2042 1.334 . S
C2043 C2044 1.287 . S
C2044 C2043 1.287 . S
C2044 C2045 1.524 . S
C2044 H2063 0.913 . S
C2045 H2021 0.950 . S
C2045 C2044 1.524 . S
C2045 C2046 1.415 . S
C2046 H2022 0.950 . S
C2046 C2041 1.363 . S
C2046 C2045 1.415 . S
C2047 H2023 0.951 . S
C2047 C2048 1.366 . S
C2047 C2049 1.388 . S
C2048 C2047 1.366 . S
C2048 C2052 1.385 1_556 S
C2049 H2024 0.951 . S
C2049 C2047 1.388 . S
C2049 C2050 1.366 1_556 S
C2050 C2049 1.366 1_554 S
C2050 C2051 1.414 . S
C2050 C2053 1.499 . S
C2051 H2025 0.950 . S
C2051 C2050 1.414 . S
C2051 C2052 1.374 . S
C2052 H2026 0.950 . S
C2052 C2048 1.385 1_554 S
C2052 C2051 1.374 . S
C2053 C2050 1.499 . S
C2053 C2054 1.373 . S
C2053 C2055 1.389 . S
C2054 H2027 0.950 . S
C2054 C2040 1.377 . S
C2054 C2053 1.373 . S
C2055 C2039 1.377 . S
C2055 C2053 1.389 . S
C2055 C2056 1.524 1_554 S
C2056 C2055 1.524 1_556 S
C2056 C2057 1.397 1_556 S
C2056 C2061 1.363 . S
C2057 H2028 0.950 . S
C2057 C2056 1.397 1_554 S
C2057 C2058 1.334 1_554 S
C2058 H2029 0.950 . S
C2058 C2057 1.334 1_556 S
C2058 C2059 1.287 . S
C2059 C2058 1.287 . S
C2059 C2060 1.524 . S
C2059 H2062 0.999 . S
C2060 H2030 0.950 . S
C2060 C2059 1.524 . S
C2060 C2061 1.415 . S
C2061 H2031 0.950 . S
C2061 C2056 1.363 . S
C2061 C2060 1.415 . S
H2062 C2059 0.999 . S
H2063 C2044 0.913 . S
C283 C6 1.547 . S
C298 C8 1.552 . S
C333 C28 1.548 1_556 S
C348 C30 1.552 . S
C383 C52 1.552 . S
C398 C50 1.548 . S
C433 C72 1.547 . S
C448 C74 1.552 . S
C483 C96 1.552 . S
C498 C94 1.547 . S
C533 C116 1.547 . S
C548 C118 1.552 . S
C583 C139 1.547 1_554 S
C598 C136 1.553 . S
C633 C158 1.552 . S
C648 C161 1.548 . S
C683 C180 1.553 1_556 S
C698 C183 1.547 . S
C733 C202 1.552 . S
C748 C205 1.547 . S
C783 C227 1.548 . S
C798 C224 1.552 . S
C833 C246 1.553 . S
C848 C249 1.547 . S
C883 C4 1.422 1_556 S
C898 C162 1.422 . S
C933 C184 1.421 . S
C948 C26 1.421 . S
C983 C206 1.422 . S
C998 C48 1.422 . S
C1033 C70 1.421 . S
C1048 C228 1.421 . S
C1083 C92 1.421 . S
C1098 C250 1.421 . S
C1133 C114 1.421 . S
C1148 C140 1.421 . S
C1183 C5 0.940 . S
C1198 C229 0.941 . S
C1233 C27 0.941 . S
C1248 C251 0.942 . S
C1283 C141 0.942 . S
C1298 C49 0.940 . S
C1333 C71 0.942 . S
C1348 C163 0.940 . S
C1383 C93 0.940 . S
C1398 C185 0.940 . S
C1433 C207 0.942 . S
C1448 C115 0.941 . S
C1483 C9 1.064 . S
C1498 C181 1.064 . S
C1533 C203 1.063 . S
C1548 C31 1.063 . S
C1583 C225 1.065 . S
C1598 C53 1.065 . S
C1633 C75 1.063 . S
C1648 C247 1.063 . S
C1683 C137 1.064 . S
C1698 C97 1.064 . S
C1733 C119 1.065 . S
C1748 C159 1.065 . S
C1783 C7 0.977 . S
C1798 C226 0.978 . S
C1833 C29 0.977 . S
C1848 C248 0.978 . S
C1883 C51 0.978 . S
C1898 C138 0.978 . S
C1933 C160 0.978 . S
C1948 C73 0.978 . S
C1983 C95 0.978 . S
C1998 C182 0.976 . S
C2033 C204 0.978 . S
C2048 C117 0.977 . S
