# Generated by pormake.
# Topology uks, (4)-cn, num edge types: 1
# Building blocks:
#     Node 0, Type 0, BuildingBlock: KOZSID_clean_sbu_0, # of connection points: 4
#     Node 1, Type 0, BuildingBlock: KOZSID_clean_sbu_0, # of connection points: 4
#     Node 2, Type 0, BuildingBlock: KOZSID_clean_sbu_0, # of connection points: 4
#     Node 3, Type 0, BuildingBlock: KOZSID_clean_sbu_0, # of connection points: 4
#     Node 4, Type 0, BuildingBlock: KOZSID_clean_sbu_0, # of connection points: 4
#     Node 5, Type 0, BuildingBlock: KOZSID_clean_sbu_0, # of connection points: 4
#     Node 6, Type 0, BuildingBlock: KOZSID_clean_sbu_0, # of connection points: 4
#     Node 7, Type 0, BuildingBlock: KOZSID_clean_sbu_0, # of connection points: 4
#     Node 8, Type 0, BuildingBlock: KOZSID_clean_sbu_0, # of connection points: 4
#     Node 9, Type 0, BuildingBlock: KOZSID_clean_sbu_0, # of connection points: 4
#     Node 10, Type 0, BuildingBlock: KOZSID_clean_sbu_0, # of connection points: 4
#     Node 11, Type 0, BuildingBlock: KOZSID_clean_sbu_0, # of connection points: 4
#     Node 12, Type 0, BuildingBlock: KOZSID_clean_sbu_0, # of connection points: 4
#     Node 13, Type 0, BuildingBlock: KOZSID_clean_sbu_0, # of connection points: 4
#     Node 14, Type 0, BuildingBlock: KOZSID_clean_sbu_0, # of connection points: 4
#     Node 15, Type 0, BuildingBlock: KOZSID_clean_sbu_0, # of connection points: 4
#     Node 16, Type 0, BuildingBlock: KOZSID_clean_sbu_0, # of connection points: 4
#     Node 17, Type 0, BuildingBlock: KOZSID_clean_sbu_0, # of connection points: 4
#     Node 18, Type 0, BuildingBlock: KOZSID_clean_sbu_0, # of connection points: 4
#     Node 19, Type 0, BuildingBlock: KOZSID_clean_sbu_0, # of connection points: 4
#     Node 20, Type 0, BuildingBlock: KOZSID_clean_sbu_0, # of connection points: 4
#     Node 21, Type 0, BuildingBlock: KOZSID_clean_sbu_0, # of connection points: 4
#     Node 22, Type 0, BuildingBlock: KOZSID_clean_sbu_0, # of connection points: 4
#     Node 23, Type 0, BuildingBlock: KOZSID_clean_sbu_0, # of connection points: 4
#     Edge 24, Type (0, 0), BuildingBlock: XIVTED_clean_linker_0, # of connection points: 2
#     Edge 25, Type (0, 0), BuildingBlock: XIVTED_clean_linker_0, # of connection points: 2
#     Edge 26, Type (0, 0), BuildingBlock: XIVTED_clean_linker_0, # of connection points: 2
#     Edge 27, Type (0, 0), BuildingBlock: XIVTED_clean_linker_0, # of connection points: 2
#     Edge 28, Type (0, 0), BuildingBlock: XIVTED_clean_linker_0, # of connection points: 2
#     Edge 29, Type (0, 0), BuildingBlock: XIVTED_clean_linker_0, # of connection points: 2
#     Edge 30, Type (0, 0), BuildingBlock: XIVTED_clean_linker_0, # of connection points: 2
#     Edge 31, Type (0, 0), BuildingBlock: XIVTED_clean_linker_0, # of connection points: 2
#     Edge 32, Type (0, 0), BuildingBlock: XIVTED_clean_linker_0, # of connection points: 2
#     Edge 33, Type (0, 0), BuildingBlock: XIVTED_clean_linker_0, # of connection points: 2
#     Edge 34, Type (0, 0), BuildingBlock: XIVTED_clean_linker_0, # of connection points: 2
#     Edge 35, Type (0, 0), BuildingBlock: XIVTED_clean_linker_0, # of connection points: 2
#     Edge 36, Type (0, 0), BuildingBlock: XIVTED_clean_linker_0, # of connection points: 2
#     Edge 37, Type (0, 0), BuildingBlock: XIVTED_clean_linker_0, # of connection points: 2
#     Edge 38, Type (0, 0), BuildingBlock: XIVTED_clean_linker_0, # of connection points: 2
#     Edge 39, Type (0, 0), BuildingBlock: XIVTED_clean_linker_0, # of connection points: 2
#     Edge 40, Type (0, 0), BuildingBlock: XIVTED_clean_linker_0, # of connection points: 2
#     Edge 41, Type (0, 0), BuildingBlock: XIVTED_clean_linker_0, # of connection points: 2
#     Edge 42, Type (0, 0), BuildingBlock: XIVTED_clean_linker_0, # of connection points: 2
#     Edge 43, Type (0, 0), BuildingBlock: XIVTED_clean_linker_0, # of connection points: 2
#     Edge 44, Type (0, 0), BuildingBlock: XIVTED_clean_linker_0, # of connection points: 2
#     Edge 45, Type (0, 0), BuildingBlock: XIVTED_clean_linker_0, # of connection points: 2
#     Edge 46, Type (0, 0), BuildingBlock: XIVTED_clean_linker_0, # of connection points: 2
#     Edge 47, Type (0, 0), BuildingBlock: XIVTED_clean_linker_0, # of connection points: 2
#     Edge 48, Type (0, 0), BuildingBlock: XIVTED_clean_linker_0, # of connection points: 2
#     Edge 49, Type (0, 0), BuildingBlock: XIVTED_clean_linker_0, # of connection points: 2
#     Edge 50, Type (0, 0), BuildingBlock: XIVTED_clean_linker_0, # of connection points: 2
#     Edge 51, Type (0, 0), BuildingBlock: XIVTED_clean_linker_0, # of connection points: 2
#     Edge 52, Type (0, 0), BuildingBlock: XIVTED_clean_linker_0, # of connection points: 2
#     Edge 53, Type (0, 0), BuildingBlock: XIVTED_clean_linker_0, # of connection points: 2
#     Edge 54, Type (0, 0), BuildingBlock: XIVTED_clean_linker_0, # of connection points: 2
#     Edge 55, Type (0, 0), BuildingBlock: XIVTED_clean_linker_0, # of connection points: 2
#     Edge 56, Type (0, 0), BuildingBlock: XIVTED_clean_linker_0, # of connection points: 2
#     Edge 57, Type (0, 0), BuildingBlock: XIVTED_clean_linker_0, # of connection points: 2
#     Edge 58, Type (0, 0), BuildingBlock: XIVTED_clean_linker_0, # of connection points: 2
#     Edge 59, Type (0, 0), BuildingBlock: XIVTED_clean_linker_0, # of connection points: 2
#     Edge 60, Type (0, 0), BuildingBlock: XIVTED_clean_linker_0, # of connection points: 2
#     Edge 61, Type (0, 0), BuildingBlock: XIVTED_clean_linker_0, # of connection points: 2
#     Edge 62, Type (0, 0), BuildingBlock: XIVTED_clean_linker_0, # of connection points: 2
#     Edge 63, Type (0, 0), BuildingBlock: XIVTED_clean_linker_0, # of connection points: 2
#     Edge 64, Type (0, 0), BuildingBlock: XIVTED_clean_linker_0, # of connection points: 2
#     Edge 65, Type (0, 0), BuildingBlock: XIVTED_clean_linker_0, # of connection points: 2
#     Edge 66, Type (0, 0), BuildingBlock: XIVTED_clean_linker_0, # of connection points: 2
#     Edge 67, Type (0, 0), BuildingBlock: XIVTED_clean_linker_0, # of connection points: 2
#     Edge 68, Type (0, 0), BuildingBlock: XIVTED_clean_linker_0, # of connection points: 2
#     Edge 69, Type (0, 0), BuildingBlock: XIVTED_clean_linker_0, # of connection points: 2
#     Edge 70, Type (0, 0), BuildingBlock: XIVTED_clean_linker_0, # of connection points: 2
#     Edge 71, Type (0, 0), BuildingBlock: XIVTED_clean_linker_0, # of connection points: 2
# Relax obj value: 0.062
# Max RMSD: 0.070
# Mean RMSD: 0.058
data_MOF--net-uks--node1-KOZSID_clean_sbu_0--edge1-XIVTED_clean_linker_0
_symmetry_space_group_name_H-M    P1
_symmetry_Int_Tables_number       1
_symmetry_cell_setting            triclinic
loop_
_symmetry_equiv_pos_as_xyz
'x, y, z'
_cell_length_a     61.969084
_cell_length_b     73.193036
_cell_length_c     64.58212
_cell_angle_alpha  89.214183
_cell_angle_beta   90.977995
_cell_angle_gamma 90.125466
loop_
_atom_site_label
_atom_site_type_symbol
_atom_site_fract_x
_atom_site_fract_y
_atom_site_fract_z
_atom_type_partial_charge
C0 C 0.07855 0.38172 0.70761 0.0
C1 C 0.06273 0.38558 0.7219 0.0
C2 C 0.07299 0.39271 0.73879 0.0
C3 C 0.09444 0.39259 0.73411 0.0
N4 N 0.09857 0.38601 0.71511 0.0
Co5 Co 0.12787 0.38122 0.70343 0.0
N6 N 0.14295 0.38942 0.72952 0.0
C7 C 0.13355 0.39634 0.74645 0.0
C8 C 0.14785 0.40066 0.76204 0.0
C9 C 0.16763 0.39621 0.75469 0.0
C10 C 0.16425 0.38944 0.73491 0.0
N11 N 0.1571 0.37588 0.69196 0.0
C12 C 0.17703 0.37669 0.70106 0.0
C13 C 0.19299 0.37127 0.68765 0.0
C14 C 0.18282 0.3667 0.66953 0.0
C15 C 0.16132 0.36959 0.67285 0.0
N16 N 0.11283 0.3733 0.67724 0.0
C17 C 0.12231 0.36835 0.65946 0.0
C18 C 0.10794 0.36402 0.64393 0.0
C19 C 0.08807 0.36604 0.65236 0.0
C20 C 0.09146 0.37129 0.67275 0.0
N21 N 0.12935 0.40674 0.6923 0.0
C22 C 0.13428 0.44304 0.67741 0.0
C23 C 0.13943 0.42812 0.66518 0.0
C24 C 0.137 0.41035 0.67287 0.0
C25 C 0.1259 0.4394 0.69702 0.0
C26 C 0.12342 0.42134 0.70399 0.0
N27 N 0.1265 0.3559 0.71446 0.0
C28 C 0.12913 0.32337 0.70927 0.0
C29 C 0.12486 0.31993 0.7301 0.0
C30 C 0.12132 0.33474 0.74298 0.0
C31 C 0.12204 0.35249 0.73486 0.0
C32 C 0.13004 0.34134 0.70186 0.0
H33 H 0.11894 0.36324 0.74536 0.0
H34 H 0.13372 0.34314 0.68591 0.0
H35 H 0.14163 0.39982 0.66278 0.0
H36 H 0.11694 0.41962 0.71901 0.0
C37 C 0.11113 0.39728 0.74784 0.0
C38 C 0.07388 0.37345 0.68743 0.0
C39 C 0.18172 0.38264 0.7222 0.0
C40 C 0.14472 0.36649 0.65839 0.0
H41 H 0.04557 0.38307 0.72068 0.0
H42 H 0.06573 0.39683 0.75312 0.0
H43 H 0.14427 0.40595 0.77717 0.0
H44 H 0.18278 0.3975 0.76313 0.0
H45 H 0.21021 0.37068 0.69065 0.0
H46 H 0.19022 0.36179 0.6556 0.0
H47 H 0.1115 0.35944 0.62849 0.0
H48 H 0.07282 0.36355 0.64448 0.0
H49 H 0.14541 0.43006 0.64965 0.0
H50 H 0.12171 0.45038 0.70725 0.0
H51 H 0.13219 0.31226 0.6988 0.0
H52 H 0.11777 0.33263 0.75921 0.0
C53 C 0.60969 0.63203 0.16427 0.0
C54 C 0.61442 0.63972 0.14511 0.0
C55 C 0.63635 0.64082 0.14418 0.0
C56 C 0.64374 0.63382 0.16276 0.0
N57 N 0.62785 0.62805 0.17539 0.0
Co58 Co 0.63128 0.6175 0.2041 0.0
N59 N 0.66316 0.62152 0.20375 0.0
C60 C 0.67464 0.6302 0.18895 0.0
C61 C 0.69629 0.63125 0.19345 0.0
C62 C 0.69882 0.6223 0.212 0.0
C63 C 0.6785 0.61606 0.21757 0.0
N64 N 0.63487 0.60629 0.2325 0.0
C65 C 0.65314 0.60091 0.24268 0.0
C66 C 0.64863 0.59164 0.26099 0.0
C67 C 0.6267 0.59101 0.26237 0.0
C68 C 0.61912 0.59973 0.24481 0.0
N69 N 0.59925 0.61404 0.20466 0.0
C70 C 0.58753 0.60683 0.22026 0.0
C71 C 0.56571 0.60695 0.21641 0.0
C72 C 0.56331 0.61514 0.19741 0.0
C73 C 0.58389 0.6196 0.19083 0.0
N74 N 0.63518 0.59271 0.19221 0.0
C75 C 0.64415 0.55674 0.17905 0.0
C76 C 0.62747 0.56022 0.1928 0.0
C77 C 0.62331 0.57808 0.1991 0.0
C78 C 0.65563 0.57179 0.17135 0.0
C79 C 0.65085 0.58948 0.17798 0.0
N80 N 0.62762 0.64234 0.21617 0.0
C81 C 0.61403 0.66215 0.24286 0.0
C82 C 0.62327 0.67761 0.23352 0.0
C83 C 0.63454 0.675 0.21521 0.0
C84 C 0.63644 0.65751 0.20689 0.0
C85 C 0.61632 0.64485 0.234 0.0
H86 H 0.64521 0.65667 0.19293 0.0
H87 H 0.60874 0.63373 0.24185 0.0
H88 H 0.61066 0.57966 0.20989 0.0
H89 H 0.66043 0.60029 0.17175 0.0
C90 C 0.66507 0.63504 0.16994 0.0
C91 C 0.58787 0.63034 0.17212 0.0
C92 C 0.67484 0.60338 0.23478 0.0
C93 C 0.59748 0.60039 0.23848 0.0
H94 H 0.60326 0.64475 0.13332 0.0
H95 H 0.64573 0.64696 0.13192 0.0
H96 H 0.70886 0.63699 0.18391 0.0
H97 H 0.71405 0.61988 0.22001 0.0
H98 H 0.65993 0.58538 0.27187 0.0
H99 H 0.6174 0.5842 0.27424 0.0
H100 H 0.55305 0.60206 0.22642 0.0
H101 H 0.54812 0.61803 0.18952 0.0
H102 H 0.61764 0.5492 0.19886 0.0
H103 H 0.66876 0.56998 0.16073 0.0
H104 H 0.6048 0.66335 0.25686 0.0
H105 H 0.64227 0.68636 0.20737 0.0
C106 C 0.42515 0.14015 0.69134 0.0
C107 C 0.4437 0.13618 0.70288 0.0
C108 C 0.43716 0.12801 0.72084 0.0
C109 C 0.41509 0.12744 0.71927 0.0
N110 N 0.40711 0.13442 0.70121 0.0
Co111 Co 0.37579 0.13747 0.69327 0.0
N112 N 0.36608 0.12794 0.72087 0.0
C113 C 0.37878 0.12057 0.73602 0.0
C114 C 0.36771 0.1154 0.75334 0.0
C115 C 0.34668 0.11977 0.74905 0.0
C116 C 0.34607 0.12734 0.72922 0.0
N117 N 0.34454 0.14147 0.68572 0.0
C118 C 0.32663 0.14013 0.6975 0.0
C119 C 0.30813 0.14483 0.68622 0.0
C120 C 0.3146 0.14962 0.66679 0.0
C121 C 0.33657 0.14757 0.66727 0.0
N122 N 0.38549 0.14659 0.66551 0.0
C123 C 0.37267 0.15086 0.64901 0.0
C124 C 0.3838 0.15714 0.63217 0.0
C125 C 0.40498 0.15703 0.63833 0.0
C126 C 0.4056 0.15061 0.65865 0.0
N127 N 0.3744 0.11201 0.68244 0.0
C128 C 0.36858 0.07521 0.67068 0.0
C129 C 0.35747 0.08933 0.66041 0.0
C130 C 0.36075 0.10745 0.66635 0.0
C131 C 0.38361 0.07996 0.68602 0.0
C132 C 0.38623 0.09819 0.69158 0.0
N133 N 0.37702 0.16248 0.70412 0.0
C134 C 0.36906 0.19464 0.70065 0.0
C135 C 0.37758 0.19786 0.72047 0.0
C136 C 0.38615 0.18306 0.73175 0.0
C137 C 0.38555 0.16563 0.72342 0.0
C138 C 0.36909 0.17698 0.69276 0.0
H139 H 0.39201 0.15485 0.73289 0.0
H140 H 0.36245 0.17526 0.67753 0.0
H141 H 0.35167 0.11739 0.65786 0.0
H142 H 0.39776 0.10054 0.70355 0.0
C143 C 0.40128 0.12087 0.7346 0.0
C144 C 0.42552 0.14941 0.67113 0.0
C145 C 0.32627 0.13435 0.71927 0.0
C146 C 0.35025 0.15133 0.65075 0.0
H147 H 0.46024 0.13906 0.6988 0.0
H148 H 0.44727 0.12334 0.73368 0.0
H149 H 0.37427 0.10982 0.76772 0.0
H150 H 0.33342 0.11799 0.75956 0.0
H151 H 0.29165 0.14483 0.69149 0.0
H152 H 0.3045 0.15422 0.65391 0.0
H153 H 0.37721 0.16207 0.61751 0.0
H154 H 0.41834 0.1617 0.62908 0.0
H155 H 0.34571 0.08645 0.64829 0.0
H156 H 0.39324 0.06963 0.69399 0.0
H157 H 0.36205 0.20559 0.69134 0.0
H158 H 0.39342 0.18484 0.74695 0.0
C159 C 0.89788 0.88269 0.16413 0.0
C160 C 0.90085 0.87828 0.14355 0.0
C161 C 0.88082 0.87527 0.13518 0.0
C162 C 0.86687 0.87799 0.15108 0.0
N163 N 0.87673 0.88279 0.16905 0.0
Co164 Co 0.86279 0.88713 0.19635 0.0
N165 N 0.83353 0.88133 0.18444 0.0
C166 C 0.82847 0.87773 0.16444 0.0
C167 C 0.80696 0.87439 0.16096 0.0
C168 C 0.79772 0.87585 0.17987 0.0
C169 C 0.81425 0.87993 0.19385 0.0
N170 N 0.84902 0.89085 0.22383 0.0
C171 C 0.82837 0.88804 0.2296 0.0
C172 C 0.82575 0.89121 0.25057 0.0
C173 C 0.84546 0.89621 0.25831 0.0
C174 C 0.85895 0.8957 0.24176 0.0
N175 N 0.89201 0.89341 0.20806 0.0
C176 C 0.89675 0.89918 0.22742 0.0
C177 C 0.91828 0.90251 0.23086 0.0
C178 C 0.92791 0.89851 0.21265 0.0
C179 C 0.91161 0.89293 0.19914 0.0
N180 N 0.85815 0.91356 0.18886 0.0
C181 C 0.84934 0.95084 0.17896 0.0
C182 C 0.85609 0.94539 0.19888 0.0
C183 C 0.86041 0.92695 0.20341 0.0
C184 C 0.84752 0.93725 0.16399 0.0
C185 C 0.85196 0.91894 0.1692 0.0
N186 N 0.86708 0.86082 0.20397 0.0
C187 C 0.8779 0.83745 0.22906 0.0
C188 C 0.86921 0.8235 0.21676 0.0
C189 C 0.86018 0.82871 0.19751 0.0
C190 C 0.85947 0.8472 0.19141 0.0
C191 C 0.87665 0.85578 0.22247 0.0
H192 H 0.8523 0.85022 0.1766 0.0
H193 H 0.8833 0.8657 0.23275 0.0
H194 H 0.86548 0.92394 0.21888 0.0
H195 H 0.85003 0.9094 0.15703 0.0
C196 C 0.8445 0.87603 0.14969 0.0
C197 C 0.91569 0.88625 0.17847 0.0
C198 C 0.8109 0.88204 0.21593 0.0
C199 C 0.88098 0.89965 0.24256 0.0
H200 H 0.91598 0.8772 0.13551 0.0
H201 H 0.87691 0.87137 0.11945 0.0
H202 H 0.79903 0.87085 0.14649 0.0
H203 H 0.78078 0.87388 0.18308 0.0
H204 H 0.81115 0.88987 0.25943 0.0
H205 H 0.84953 0.89961 0.27417 0.0
H206 H 0.92612 0.90674 0.24512 0.0
H207 H 0.94506 0.89917 0.20979 0.0
H208 H 0.85823 0.95533 0.21102 0.0
H209 H 0.84223 0.9406 0.14833 0.0
H210 H 0.88568 0.83434 0.24381 0.0
H211 H 0.8531 0.81868 0.18727 0.0
C212 C 0.08223 0.13188 0.81001 0.0
C213 C 0.06491 0.12503 0.79861 0.0
C214 C 0.07345 0.11429 0.78355 0.0
C215 C 0.09541 0.11513 0.78661 0.0
N216 N 0.10119 0.12575 0.80261 0.0
Co217 Co 0.13115 0.13064 0.81236 0.0
N218 N 0.14339 0.12288 0.78565 0.0
C219 C 0.1331 0.11272 0.77131 0.0
C220 C 0.14552 0.10934 0.7544 0.0
C221 C 0.16492 0.1177 0.75847 0.0
C222 C 0.16332 0.12566 0.77779 0.0
N223 N 0.16113 0.13567 0.82212 0.0
C224 C 0.17961 0.13747 0.81125 0.0
C225 C 0.19713 0.14047 0.82447 0.0
C226 C 0.18931 0.14038 0.84423 0.0
C227 C 0.16753 0.13732 0.84203 0.0
N228 N 0.11881 0.13814 0.83909 0.0
C229 C 0.12971 0.13941 0.85722 0.0
C230 C 0.11701 0.14534 0.87299 0.0
C231 C 0.09688 0.14787 0.86423 0.0
C232 C 0.09837 0.1432 0.84354 0.0
N233 N 0.13357 0.1055 0.82287 0.0
C234 C 0.13772 0.06936 0.83748 0.0
C235 C 0.11866 0.07924 0.84052 0.0
C236 C 0.11696 0.09729 0.83317 0.0
C237 C 0.15468 0.07818 0.82727 0.0
C238 C 0.15222 0.09603 0.81996 0.0
N239 N 0.12887 0.15566 0.80192 0.0
C240 C 0.13422 0.18781 0.80694 0.0
C241 C 0.1269 0.19159 0.78667 0.0
C242 C 0.12026 0.17692 0.77433 0.0
C243 C 0.12125 0.15911 0.78228 0.0
C244 C 0.13521 0.16981 0.81418 0.0
H245 H 0.11606 0.1481 0.77246 0.0
H246 H 0.14121 0.16735 0.82971 0.0
H247 H 0.10214 0.10458 0.83572 0.0
H248 H 0.16555 0.10214 0.81193 0.0
C249 C 0.11098 0.10902 0.77286 0.0
C250 C 0.08007 0.14291 0.8287 0.0
C251 C 0.18152 0.13431 0.78889 0.0
C252 C 0.1523 0.13841 0.85777 0.0
H253 H 0.04792 0.12745 0.801 0.0
H254 H 0.0647 0.10731 0.77134 0.0
H255 H 0.14084 0.10215 0.74049 0.0
H256 H 0.17872 0.11775 0.74843 0.0
H257 H 0.21386 0.14216 0.82032 0.0
H258 H 0.19838 0.14269 0.85843 0.0
H259 H 0.12201 0.14837 0.88871 0.0
H260 H 0.08283 0.15272 0.87218 0.0
H261 H 0.10504 0.07303 0.8482 0.0
H262 H 0.16997 0.07143 0.82498 0.0
H263 H 0.13911 0.19866 0.81725 0.0
H264 H 0.11472 0.17907 0.7585 0.0
C265 C 0.88413 0.63932 0.33691 0.0
C266 C 0.88046 0.64792 0.35558 0.0
C267 C 0.86012 0.65522 0.35422 0.0
C268 C 0.85239 0.65055 0.33497 0.0
N269 N 0.86654 0.64054 0.3243 0.0
Co270 Co 0.86175 0.63082 0.29618 0.0
N271 N 0.83037 0.63401 0.29822 0.0
C272 C 0.82006 0.64545 0.31077 0.0
C273 C 0.79801 0.64452 0.30829 0.0
C274 C 0.79443 0.63162 0.29334 0.0
C275 C 0.81459 0.62533 0.28767 0.0
N276 N 0.85664 0.62097 0.26816 0.0
C277 C 0.83878 0.61251 0.26074 0.0
C278 C 0.84229 0.60577 0.24111 0.0
C279 C 0.86305 0.61055 0.23611 0.0
C280 C 0.87112 0.61972 0.253 0.0
N281 N 0.89328 0.62786 0.29388 0.0
C282 C 0.90408 0.62615 0.27607 0.0
C283 C 0.92598 0.62499 0.27914 0.0
C284 C 0.92913 0.62626 0.30013 0.0
C285 C 0.90885 0.6281 0.3088 0.0
N286 N 0.85924 0.6059 0.30781 0.0
C287 C 0.85244 0.56969 0.32181 0.0
C288 C 0.86679 0.57362 0.30576 0.0
C289 C 0.8699 0.59171 0.29899 0.0
C290 C 0.84203 0.58445 0.33104 0.0
C291 C 0.84576 0.60237 0.32396 0.0
N292 N 0.86409 0.65578 0.28445 0.0
C293 C 0.85085 0.67959 0.26124 0.0
C294 C 0.86617 0.69202 0.26899 0.0
C295 C 0.88065 0.68571 0.28442 0.0
C296 C 0.87944 0.66763 0.29179 0.0
C297 C 0.85001 0.66165 0.2692 0.0
H298 H 0.89089 0.66332 0.30361 0.0
H299 H 0.83773 0.65258 0.26319 0.0
H300 H 0.88056 0.59415 0.28622 0.0
H301 H 0.83737 0.61337 0.33129 0.0
C302 C 0.83118 0.65319 0.32757 0.0
C303 C 0.90528 0.63236 0.3307 0.0
C304 C 0.81853 0.61136 0.27215 0.0
C305 C 0.89301 0.62295 0.25733 0.0
H306 H 0.89155 0.64921 0.36861 0.0
H307 H 0.85182 0.66267 0.36605 0.0
H308 H 0.78594 0.65148 0.31716 0.0
H309 H 0.77883 0.62713 0.28756 0.0
H310 H 0.83139 0.59783 0.23157 0.0
H311 H 0.87171 0.60657 0.22248 0.0
H312 H 0.93818 0.62301 0.2676 0.0
H313 H 0.94466 0.62625 0.30802 0.0
H314 H 0.87511 0.56275 0.29799 0.0
H315 H 0.83106 0.58221 0.3437 0.0
H316 H 0.83919 0.6838 0.24944 0.0
H317 H 0.893 0.69464 0.2907 0.0
C318 C 0.43028 0.37864 0.81397 0.0
C319 C 0.44797 0.38287 0.80189 0.0
C320 C 0.44018 0.39161 0.78451 0.0
C321 C 0.41826 0.3922 0.78693 0.0
N322 N 0.4116 0.38468 0.80498 0.0
Co323 Co 0.38092 0.38144 0.81391 0.0
N324 N 0.36928 0.3918 0.7871 0.0
C325 C 0.38084 0.40012 0.77211 0.0
C326 C 0.3685 0.40591 0.75547 0.0
C327 C 0.34785 0.40092 0.76007 0.0
C328 C 0.34876 0.39235 0.77936 0.0
N329 N 0.35025 0.37697 0.82226 0.0
C330 C 0.33164 0.37809 0.81092 0.0
C331 C 0.31396 0.37268 0.82243 0.0
C332 C 0.3217 0.36772 0.84161 0.0
C333 C 0.34358 0.37033 0.84071 0.0
N334 N 0.39254 0.37171 0.84101 0.0
C335 C 0.38091 0.36735 0.85789 0.0
C336 C 0.39321 0.36088 0.87423 0.0
C337 C 0.41393 0.36102 0.86733 0.0
C338 C 0.4131 0.36764 0.84709 0.0
N339 N 0.38043 0.40657 0.82575 0.0
C340 C 0.37658 0.44298 0.83942 0.0
C341 C 0.36434 0.42892 0.84818 0.0
C342 C 0.36662 0.41101 0.84131 0.0
C343 C 0.3916 0.43833 0.82453 0.0
C344 C 0.39327 0.42029 0.81804 0.0
N345 N 0.38128 0.3568 0.80214 0.0
C346 C 0.37403 0.32451 0.8051 0.0
C347 C 0.38067 0.32183 0.78476 0.0
C348 C 0.38786 0.33701 0.77342 0.0
C349 C 0.38788 0.35425 0.78228 0.0
C350 C 0.37463 0.34197 0.81348 0.0
H351 H 0.39326 0.36538 0.77282 0.0
H352 H 0.36947 0.34326 0.82911 0.0
H353 H 0.35666 0.40118 0.84871 0.0
H354 H 0.40497 0.41805 0.80656 0.0
C355 C 0.40339 0.39969 0.77267 0.0
C356 C 0.43208 0.36905 0.83395 0.0
C357 C 0.32989 0.38431 0.78934 0.0
C358 C 0.35838 0.3667 0.85681 0.0
H359 H 0.46478 0.3799 0.80527 0.0
H360 H 0.44937 0.39676 0.77157 0.0
H361 H 0.374 0.4122 0.74124 0.0
H362 H 0.33383 0.40294 0.7501 0.0
H363 H 0.2972 0.37232 0.81745 0.0
H364 H 0.31251 0.36264 0.85458 0.0
H365 H 0.38767 0.35577 0.88902 0.0
H366 H 0.42793 0.35625 0.87604 0.0
H367 H 0.35248 0.43174 0.85982 0.0
H368 H 0.40198 0.44861 0.8177 0.0
H369 H 0.36805 0.31328 0.81448 0.0
H370 H 0.39361 0.33565 0.75777 0.0
C371 C 0.60348 0.85287 0.35728 0.0
C372 C 0.60645 0.84826 0.37804 0.0
C373 C 0.62799 0.85084 0.38252 0.0
C374 C 0.63693 0.85673 0.36428 0.0
N375 N 0.62234 0.85798 0.34869 0.0
Co376 Co 0.62814 0.86503 0.31959 0.0
N377 N 0.65923 0.85952 0.32316 0.0
C378 C 0.67008 0.85805 0.34137 0.0
C379 C 0.69162 0.85452 0.339 0.0
C380 C 0.69451 0.85396 0.31803 0.0
C381 C 0.67446 0.85719 0.3087 0.0
N382 N 0.63366 0.87213 0.29048 0.0
C383 C 0.65085 0.86848 0.27864 0.0
C384 C 0.64801 0.87588 0.25883 0.0
C385 C 0.62862 0.88485 0.25858 0.0
C386 C 0.62062 0.88234 0.27809 0.0
N387 N 0.59712 0.87067 0.31623 0.0
C388 C 0.58801 0.88158 0.30162 0.0
C389 C 0.56601 0.88283 0.30347 0.0
C390 C 0.56108 0.87202 0.32029 0.0
C391 C 0.58043 0.86474 0.32767 0.0
N392 N 0.63383 0.89038 0.32804 0.0
C393 C 0.64243 0.92684 0.33905 0.0
C394 C 0.65533 0.91776 0.32489 0.0
C395 C 0.65087 0.89968 0.31971 0.0
C396 C 0.62521 0.91711 0.34785 0.0
C397 C 0.6211 0.89896 0.34204 0.0
N398 N 0.62283 0.83974 0.31093 0.0
C399 C 0.60842 0.81852 0.28595 0.0
C400 C 0.61909 0.80385 0.29591 0.0
C401 C 0.63101 0.80758 0.31407 0.0
C402 C 0.63261 0.82551 0.32131 0.0
C403 C 0.61046 0.83626 0.29368 0.0
H404 H 0.64228 0.82792 0.33503 0.0
H405 H 0.60239 0.84724 0.28541 0.0
H406 H 0.6613 0.89326 0.30884 0.0
H407 H 0.60757 0.89189 0.34878 0.0
C408 C 0.65902 0.85742 0.36012 0.0
C409 C 0.5827 0.85298 0.34609 0.0
C410 C 0.67111 0.86026 0.28634 0.0
C411 C 0.59983 0.88703 0.28432 0.0
H412 H 0.59448 0.84337 0.38877 0.0
H413 H 0.63629 0.84775 0.39703 0.0
H414 H 0.70369 0.8522 0.35106 0.0
H415 H 0.70974 0.85183 0.31049 0.0
H416 H 0.65905 0.87524 0.24606 0.0
H417 H 0.62106 0.89195 0.24557 0.0
H418 H 0.55477 0.88995 0.29322 0.0
H419 H 0.54512 0.86969 0.32634 0.0
H420 H 0.66904 0.92454 0.31794 0.0
H421 H 0.61474 0.92358 0.35881 0.0
H422 H 0.59861 0.8164 0.27216 0.0
H423 H 0.6397 0.79686 0.32233 0.0
C424 C 0.6738 0.12839 0.41105 0.0
C425 C 0.65176 0.13161 0.41024 0.0
C426 C 0.64516 0.12855 0.39013 0.0
C427 C 0.66352 0.12366 0.37991 0.0
N428 N 0.68111 0.12353 0.39237 0.0
Co429 Co 0.71087 0.11753 0.38448 0.0
N430 N 0.7041 0.1225 0.355 0.0
C431 C 0.68426 0.12271 0.34613 0.0
C432 C 0.68476 0.12633 0.32523 0.0
C433 C 0.70622 0.12837 0.32076 0.0
C434 C 0.71768 0.12589 0.33929 0.0
N435 N 0.74066 0.11147 0.37669 0.0
C436 C 0.75126 0.11592 0.35924 0.0
C437 C 0.77221 0.10918 0.36006 0.0
C438 C 0.7745 0.09992 0.37858 0.0
C439 C 0.75497 0.10161 0.38808 0.0
N440 N 0.7175 0.11233 0.41395 0.0
C441 C 0.73386 0.10211 0.42161 0.0
C442 C 0.7341 0.10118 0.44289 0.0
C443 C 0.71678 0.11144 0.44884 0.0
C444 C 0.70699 0.11802 0.43076 0.0
N445 N 0.70228 0.09186 0.3807 0.0
C446 C 0.68805 0.05581 0.3736 0.0
C447 C 0.70219 0.06468 0.35998 0.0
C448 C 0.70902 0.08258 0.36375 0.0
C449 C 0.68167 0.06535 0.3912 0.0
C450 C 0.68898 0.08326 0.39448 0.0
N451 N 0.71938 0.14327 0.38798 0.0
C452 C 0.74469 0.16606 0.4001 0.0
C453 C 0.7325 0.18019 0.39067 0.0
C454 C 0.71334 0.17523 0.3802 0.0
C455 C 0.70705 0.15686 0.37917 0.0
C456 C 0.73791 0.14779 0.39853 0.0
H457 H 0.69232 0.15364 0.37088 0.0
H458 H 0.74781 0.13729 0.4057 0.0
H459 H 0.71961 0.08898 0.35273 0.0
H460 H 0.68357 0.09028 0.40802 0.0
C461 C 0.66574 0.12263 0.35837 0.0
C462 C 0.68736 0.129 0.42974 0.0
C463 C 0.74133 0.12507 0.34111 0.0
C464 C 0.75073 0.09697 0.40876 0.0
H465 H 0.6416 0.13572 0.42281 0.0
H466 H 0.62912 0.1305 0.3836 0.0
H467 H 0.67117 0.12794 0.31462 0.0
H468 H 0.71267 0.13114 0.30557 0.0
H469 H 0.78449 0.11065 0.34844 0.0
H470 H 0.78895 0.09338 0.38471 0.0
H471 H 0.74603 0.09464 0.45291 0.0
H472 H 0.712 0.11387 0.4646 0.0
H473 H 0.70807 0.05787 0.34641 0.0
H474 H 0.67067 0.05925 0.40216 0.0
H475 H 0.75938 0.16901 0.40873 0.0
H476 H 0.70339 0.18537 0.37233 0.0
C477 C 0.92331 0.19159 0.88225 0.0
C478 C 0.9377 0.19422 0.89866 0.0
C479 C 0.92581 0.20016 0.91496 0.0
C480 C 0.9049 0.20093 0.90763 0.0
N481 N 0.90291 0.19596 0.88771 0.0
Co482 Co 0.87558 0.19544 0.87113 0.0
N483 N 0.86042 0.21126 0.89106 0.0
C484 C 0.86717 0.21477 0.91054 0.0
C485 C 0.85392 0.22665 0.92052 0.0
C486 C 0.83766 0.23067 0.90657 0.0
C487 C 0.8417 0.22078 0.88883 0.0
N488 N 0.8483 0.19484 0.85449 0.0
C489 C 0.83033 0.20538 0.85546 0.0
C490 C 0.81457 0.19938 0.84155 0.0
C491 C 0.82296 0.18463 0.83167 0.0
C492 C 0.84326 0.18233 0.84007 0.0
N493 N 0.89064 0.17954 0.85132 0.0
C494 C 0.88101 0.16864 0.83731 0.0
C495 C 0.89546 0.15896 0.82591 0.0
C496 C 0.91544 0.16401 0.83332 0.0
C497 C 0.91203 0.17656 0.84885 0.0
N498 N 0.86628 0.17384 0.88661 0.0
C499 C 0.85412 0.14528 0.9131 0.0
C500 C 0.87472 0.14565 0.90446 0.0
C501 C 0.88049 0.16006 0.89127 0.0
C502 C 0.83936 0.1589 0.90706 0.0
C503 C 0.84571 0.17294 0.89379 0.0
N504 N 0.88488 0.21701 0.85585 0.0
C505 C 0.89009 0.23251 0.82343 0.0
C506 C 0.8975 0.24799 0.83384 0.0
C507 C 0.89862 0.24776 0.85541 0.0
C508 C 0.89249 0.23198 0.86616 0.0
C509 C 0.88366 0.21721 0.83474 0.0
H510 H 0.89377 0.23196 0.8828 0.0
H511 H 0.87753 0.2056 0.82641 0.0
H512 H 0.89669 0.16037 0.88547 0.0
H513 H 0.83417 0.18351 0.89013 0.0
C514 C 0.88763 0.20915 0.91759 0.0
C515 C 0.92929 0.18398 0.86217 0.0
C516 C 0.82664 0.21962 0.87092 0.0
C517 C 0.85885 0.17015 0.83314 0.0
H518 H 0.95498 0.1921 0.89886 0.0
H519 H 0.93184 0.20417 0.93005 0.0
H520 H 0.85624 0.23229 0.9358 0.0
H521 H 0.82434 0.23981 0.90926 0.0
H522 H 0.79846 0.20475 0.83914 0.0
H523 H 0.81526 0.1767 0.81958 0.0
H524 H 0.89195 0.14979 0.81328 0.0
H525 H 0.93073 0.15886 0.82807 0.0
H526 H 0.88657 0.13527 0.90842 0.0
H527 H 0.82336 0.15946 0.91349 0.0
H528 H 0.88879 0.23243 0.80668 0.0
H529 H 0.90422 0.25961 0.86383 0.0
C530 C 0.84029 0.3716 0.40492 0.0
C531 C 0.86119 0.36473 0.40498 0.0
C532 C 0.86445 0.35785 0.38575 0.0
C533 C 0.84548 0.36087 0.37507 0.0
N534 N 0.83048 0.36952 0.38617 0.0
Co535 Co 0.80058 0.37583 0.37664 0.0
N536 N 0.80766 0.37084 0.34735 0.0
C537 C 0.82514 0.36195 0.34059 0.0
C538 C 0.82585 0.36085 0.31945 0.0
C539 C 0.80755 0.36943 0.31239 0.0
C540 C 0.79664 0.37522 0.32975 0.0
N541 N 0.77071 0.38215 0.36718 0.0
C542 C 0.76279 0.38533 0.34783 0.0
C543 C 0.74088 0.38924 0.34804 0.0
C544 C 0.73481 0.38828 0.36827 0.0
C545 C 0.75329 0.38387 0.37919 0.0
N546 N 0.7935 0.38085 0.40595 0.0
C547 C 0.77366 0.38341 0.41365 0.0
C548 C 0.7739 0.38769 0.43424 0.0
C549 C 0.79519 0.38751 0.44004 0.0
C550 C 0.80674 0.38286 0.42263 0.0
N551 N 0.80928 0.40158 0.37258 0.0
C552 C 0.81957 0.43848 0.36351 0.0
C553 C 0.80128 0.43378 0.37499 0.0
C554 C 0.79644 0.41541 0.37928 0.0
C555 C 0.83293 0.42415 0.35726 0.0
C556 C 0.82758 0.40593 0.362 0.0
N557 N 0.79166 0.35003 0.38033 0.0
C558 C 0.79232 0.32144 0.39963 0.0
C559 C 0.77873 0.31315 0.38488 0.0
C560 C 0.77189 0.32377 0.36778 0.0
C561 C 0.77861 0.34198 0.36574 0.0
C562 C 0.79842 0.33985 0.39715 0.0
H563 H 0.77322 0.34947 0.3522 0.0
H564 H 0.80865 0.34578 0.40885 0.0
H565 H 0.78202 0.41247 0.38776 0.0
H566 H 0.83807 0.39536 0.35664 0.0
C567 C 0.84193 0.35723 0.35419 0.0
C568 C 0.8294 0.37721 0.42373 0.0
C569 C 0.77479 0.38275 0.32885 0.0
C570 C 0.75549 0.38398 0.40067 0.0
H571 H 0.87268 0.36415 0.41775 0.0
H572 H 0.87896 0.35146 0.3802 0.0
H573 H 0.83844 0.35496 0.31024 0.0
H574 H 0.80258 0.37093 0.29631 0.0
H575 H 0.73033 0.3922 0.33489 0.0
H576 H 0.71897 0.39099 0.37432 0.0
H577 H 0.76027 0.39085 0.44382 0.0
H578 H 0.80148 0.38972 0.45555 0.0
H579 H 0.79062 0.44421 0.38068 0.0
H580 H 0.84716 0.42686 0.34822 0.0
H581 H 0.79794 0.31387 0.41319 0.0
H582 H 0.76166 0.31797 0.35579 0.0
C583 C 0.58326 0.30697 0.89104 0.0
C584 C 0.56732 0.29845 0.9025 0.0
C585 C 0.5761 0.28263 0.91028 0.0
C586 C 0.59685 0.28241 0.90321 0.0
N587 N 0.602 0.29737 0.89178 0.0
Co588 Co 0.62984 0.30206 0.87713 0.0
N589 N 0.6411 0.27703 0.88446 0.0
C590 C 0.63045 0.26373 0.89491 0.0
C591 C 0.642 0.24789 0.89736 0.0
C592 C 0.66129 0.25131 0.88815 0.0
C593 C 0.66053 0.26921 0.88077 0.0
N594 N 0.6579 0.30695 0.86284 0.0
C595 C 0.67617 0.29671 0.86205 0.0
C596 C 0.69265 0.30621 0.85226 0.0
C597 C 0.68455 0.32285 0.84656 0.0
C598 C 0.66375 0.32276 0.85334 0.0
N599 N 0.61825 0.32687 0.86921 0.0
C600 C 0.62859 0.34013 0.85845 0.0
C601 C 0.61595 0.35499 0.85368 0.0
C602 C 0.59614 0.35079 0.86133 0.0
C603 C 0.59789 0.33356 0.87044 0.0
N604 N 0.64274 0.31178 0.90302 0.0
C605 C 0.66199 0.32479 0.93965 0.0
C606 C 0.66215 0.33533 0.92151 0.0
C607 C 0.65254 0.32859 0.90348 0.0
C608 C 0.65193 0.30776 0.93925 0.0
C609 C 0.64245 0.30161 0.92097 0.0
N610 N 0.6167 0.29249 0.85148 0.0
C611 C 0.6072 0.29694 0.81547 0.0
C612 C 0.59167 0.28309 0.81667 0.0
C613 C 0.5897 0.27342 0.83529 0.0
C614 C 0.60253 0.27812 0.85227 0.0
C615 C 0.61951 0.30135 0.83294 0.0
H616 H 0.60026 0.27024 0.86601 0.0
H617 H 0.63091 0.31217 0.83123 0.0
H618 H 0.65335 0.33722 0.89017 0.0
H619 H 0.63501 0.28858 0.92186 0.0
C620 C 0.61033 0.26707 0.9037 0.0
C621 C 0.57946 0.32349 0.87861 0.0
C622 C 0.67897 0.27833 0.87107 0.0
C623 C 0.64957 0.33753 0.85158 0.0
H624 H 0.55079 0.30286 0.90426 0.0
H625 H 0.56786 0.27197 0.91886 0.0
H626 H 0.63721 0.23549 0.90537 0.0
H627 H 0.67458 0.2418 0.88734 0.0
H628 H 0.70907 0.30186 0.84988 0.0
H629 H 0.693 0.3339 0.83887 0.0
H630 H 0.62034 0.36707 0.84484 0.0
H631 H 0.58184 0.35917 0.85966 0.0
H632 H 0.66983 0.34864 0.92116 0.0
H633 H 0.651 0.29928 0.95309 0.0
H634 H 0.61002 0.30429 0.8011 0.0
H635 H 0.57811 0.26242 0.83693 0.0
C636 C 0.68177 0.35913 0.09716 0.0
C637 C 0.66049 0.35655 0.09077 0.0
C638 C 0.64825 0.35737 0.10823 0.0
C639 C 0.66271 0.36035 0.12418 0.0
N640 N 0.68323 0.36141 0.11783 0.0
Co641 Co 0.70929 0.36533 0.13539 0.0
N642 N 0.69362 0.35786 0.16069 0.0
C643 C 0.67201 0.3568 0.16258 0.0
C644 C 0.66579 0.35164 0.18208 0.0
C645 C 0.68461 0.34962 0.19326 0.0
C646 C 0.70134 0.3537 0.17988 0.0
N647 N 0.73546 0.36929 0.1528 0.0
C648 C 0.7398 0.36371 0.17246 0.0
C649 C 0.76043 0.36907 0.17868 0.0
C650 C 0.76895 0.37882 0.16253 0.0
C651 C 0.75322 0.37875 0.14734 0.0
N652 N 0.72474 0.37297 0.1101 0.0
C653 C 0.74308 0.38279 0.10922 0.0
C654 C 0.74974 0.38591 0.0893 0.0
C655 C 0.73461 0.37752 0.07693 0.0
C656 C 0.71959 0.36975 0.09012 0.0
N657 N 0.70052 0.39084 0.13966 0.0
C658 C 0.68713 0.427 0.14665 0.0
C659 C 0.69557 0.41602 0.16279 0.0
C660 C 0.70205 0.39813 0.159 0.0
C661 C 0.68588 0.41946 0.12676 0.0
C662 C 0.69265 0.40142 0.12361 0.0
N663 N 0.71806 0.33978 0.1313 0.0
C664 C 0.74576 0.31755 0.12459 0.0
C665 C 0.73128 0.30306 0.12794 0.0
C666 C 0.70989 0.30749 0.1326 0.0
C667 C 0.70361 0.32582 0.13407 0.0
C668 C 0.73888 0.3357 0.12638 0.0
H669 H 0.68705 0.32869 0.13767 0.0
H670 H 0.75055 0.34644 0.12407 0.0
H671 H 0.70825 0.39019 0.17185 0.0
H672 H 0.69133 0.39598 0.10819 0.0
C673 C 0.65829 0.3587 0.14527 0.0
C674 C 0.70015 0.36015 0.08333 0.0
C675 C 0.72377 0.35629 0.18677 0.0
C676 C 0.75559 0.38543 0.12712 0.0
H677 H 0.65447 0.35423 0.0752 0.0
H678 H 0.63102 0.35516 0.10926 0.0
H679 H 0.64954 0.34942 0.18748 0.0
H680 H 0.68585 0.34613 0.20957 0.0
H681 H 0.76816 0.36677 0.19364 0.0
H682 H 0.78482 0.38498 0.16186 0.0
H683 H 0.7644 0.39263 0.08439 0.0
H684 H 0.73466 0.37707 0.06019 0.0
H685 H 0.69736 0.42121 0.17835 0.0
H686 H 0.67936 0.42729 0.11377 0.0
H687 H 0.76249 0.31492 0.1211 0.0
H688 H 0.69797 0.29686 0.13498 0.0
C689 C 0.57325 0.21334 0.61057 0.0
C690 C 0.55689 0.22191 0.59924 0.0
C691 C 0.56587 0.23704 0.59018 0.0
C692 C 0.58714 0.23683 0.59644 0.0
N693 N 0.5924 0.22224 0.60858 0.0
Co694 Co 0.62097 0.21742 0.62277 0.0
N695 N 0.6331 0.24152 0.61308 0.0
C696 C 0.62283 0.25418 0.60105 0.0
C697 C 0.63511 0.26936 0.59695 0.0
C698 C 0.6544 0.26623 0.60689 0.0
C699 C 0.65286 0.24919 0.61646 0.0
N700 N 0.64947 0.21259 0.63713 0.0
C701 C 0.6677 0.22293 0.63826 0.0
C702 C 0.68401 0.214 0.64939 0.0
C703 C 0.67582 0.19756 0.65561 0.0
C704 C 0.65511 0.19728 0.6479 0.0
N705 N 0.6088 0.19342 0.63264 0.0
C706 C 0.61932 0.18027 0.6437 0.0
C707 C 0.60645 0.16587 0.6494 0.0
C708 C 0.58636 0.17026 0.64196 0.0
C709 C 0.58816 0.18713 0.63207 0.0
N710 N 0.63172 0.20567 0.5974 0.0
C711 C 0.64582 0.18894 0.5611 0.0
C712 C 0.64878 0.1804 0.58037 0.0
C713 C 0.64176 0.18899 0.5982 0.0
C714 C 0.63592 0.20599 0.56027 0.0
C715 C 0.62905 0.214 0.5784 0.0
N716 N 0.60989 0.22901 0.64776 0.0
C717 C 0.60064 0.2266 0.68372 0.0
C718 C 0.58722 0.24188 0.68171 0.0
C719 C 0.5863 0.25118 0.66275 0.0
C720 C 0.5979 0.24468 0.64616 0.0
C721 C 0.61187 0.2205 0.66667 0.0
H722 H 0.59645 0.25227 0.63206 0.0
H723 H 0.6217 0.20868 0.66897 0.0
H724 H 0.64467 0.18183 0.61236 0.0
H725 H 0.62152 0.22689 0.5765 0.0
C726 C 0.6017 0.2513 0.59366 0.0
C727 C 0.56962 0.19729 0.62377 0.0
C728 C 0.67063 0.24096 0.62859 0.0
C729 C 0.64062 0.18281 0.65047 0.0
H730 H 0.54006 0.21796 0.59825 0.0
H731 H 0.5576 0.24747 0.58106 0.0
H732 H 0.63059 0.28128 0.58778 0.0
H733 H 0.66808 0.27545 0.60705 0.0
H734 H 0.70027 0.21875 0.65252 0.0
H735 H 0.68406 0.187 0.66457 0.0
H736 H 0.6109 0.15405 0.65877 0.0
H737 H 0.57188 0.16226 0.6443 0.0
H738 H 0.65664 0.16722 0.58173 0.0
H739 H 0.63306 0.21303 0.54561 0.0
H740 H 0.60261 0.21942 0.69841 0.0
H741 H 0.57641 0.26326 0.66057 0.0
C742 C 0.79115 0.08568 0.13348 0.0
C743 C 0.77578 0.0721 0.13039 0.0
C744 C 0.75878 0.08009 0.11987 0.0
C745 C 0.76466 0.09803 0.11709 0.0
N746 N 0.7842 0.10189 0.12541 0.0
Co747 Co 0.79888 0.12605 0.12396 0.0
N748 N 0.77143 0.13895 0.11713 0.0
C749 C 0.75328 0.13112 0.10969 0.0
C750 C 0.73692 0.14345 0.10611 0.0
C751 C 0.74536 0.16009 0.11153 0.0
C752 C 0.76646 0.15697 0.1182 0.0
N753 N 0.81348 0.15023 0.12226 0.0
C754 C 0.80508 0.16734 0.1229 0.0
C755 C 0.82133 0.18041 0.12184 0.0
C756 C 0.84039 0.17113 0.12004 0.0
C757 C 0.83484 0.15297 0.12028 0.0
N758 N 0.82636 0.11317 0.1309 0.0
C759 C 0.84632 0.11998 0.12815 0.0
C760 C 0.86231 0.10805 0.13429 0.0
C761 C 0.85177 0.09268 0.14111 0.0
C762 C 0.82982 0.09606 0.13864 0.0
N763 N 0.80385 0.12235 0.09458 0.0
C764 C 0.81117 0.11686 0.05265 0.0
C765 C 0.81541 0.10296 0.06716 0.0
C766 C 0.81146 0.10592 0.088 0.0
C767 C 0.80307 0.13353 0.05945 0.0
C768 C 0.79968 0.13606 0.08051 0.0
N769 N 0.79394 0.12954 0.15323 0.0
C770 C 0.80739 0.13675 0.18726 0.0
C771 C 0.78781 0.13116 0.19568 0.0
C772 C 0.77106 0.12554 0.18247 0.0
C773 C 0.77439 0.12499 0.16126 0.0
C774 C 0.81019 0.13572 0.16592 0.0
H775 H 0.76132 0.12042 0.15142 0.0
H776 H 0.82566 0.13945 0.15978 0.0
H777 H 0.81467 0.09487 0.09876 0.0
H778 H 0.79383 0.14914 0.0854 0.0
C779 C 0.75125 0.11206 0.10945 0.0
C780 C 0.81294 0.08219 0.14202 0.0
C781 C 0.78186 0.17158 0.12349 0.0
C782 C 0.84926 0.13836 0.12261 0.0
H783 H 0.7769 0.05783 0.13488 0.0
H784 H 0.74375 0.07366 0.11524 0.0
H785 H 0.7206 0.14063 0.10081 0.0
H786 H 0.73704 0.17306 0.11044 0.0
H787 H 0.81971 0.19509 0.12245 0.0
H788 H 0.85646 0.17694 0.11964 0.0
H789 H 0.87956 0.11041 0.13436 0.0
H790 H 0.85939 0.08033 0.14699 0.0
H791 H 0.82164 0.08988 0.06241 0.0
H792 H 0.7999 0.1447 0.04864 0.0
H793 H 0.82068 0.14115 0.19712 0.0
H794 H 0.75559 0.12134 0.18853 0.0
C795 C 0.92219 0.31021 0.63893 0.0
C796 C 0.93879 0.29772 0.63644 0.0
C797 C 0.92968 0.28233 0.6282 0.0
C798 C 0.90804 0.28603 0.62645 0.0
N799 N 0.90294 0.30278 0.63316 0.0
Co800 Co 0.87323 0.31282 0.63527 0.0
N801 N 0.85978 0.28814 0.63295 0.0
C802 C 0.86973 0.27299 0.62638 0.0
C803 C 0.85657 0.25791 0.62613 0.0
C804 C 0.83695 0.26395 0.6326 0.0
C805 C 0.8392 0.28252 0.63632 0.0
N806 N 0.84353 0.32299 0.63709 0.0
C807 C 0.82423 0.31449 0.63978 0.0
C808 C 0.80741 0.32701 0.63888 0.0
C809 C 0.81645 0.3438 0.63517 0.0
C810 C 0.8382 0.34068 0.63402 0.0
N811 N 0.88671 0.3374 0.63769 0.0
C812 C 0.87668 0.35346 0.63425 0.0
C813 C 0.89014 0.36822 0.63671 0.0
C814 C 0.90991 0.36097 0.64198 0.0
C815 C 0.90736 0.34212 0.64256 0.0
N816 N 0.8718 0.31586 0.60525 0.0
C817 C 0.86689 0.32548 0.56346 0.0
C818 C 0.88596 0.32969 0.57437 0.0
C819 C 0.88823 0.32447 0.59514 0.0
C820 C 0.85118 0.31499 0.57354 0.0
C821 C 0.85377 0.3106 0.59444 0.0
N822 N 0.87495 0.31009 0.6652 0.0
C823 C 0.87471 0.3241 0.69863 0.0
C824 C 0.88564 0.30905 0.70719 0.0
C825 C 0.88972 0.29403 0.69468 0.0
C826 C 0.88407 0.29476 0.67378 0.0
C827 C 0.86952 0.32436 0.67752 0.0
H828 H 0.88794 0.28322 0.66439 0.0
H829 H 0.86201 0.33644 0.67102 0.0
H830 H 0.90291 0.32817 0.60323 0.0
H831 H 0.84077 0.30353 0.60193 0.0
C832 C 0.89194 0.27298 0.62302 0.0
C833 C 0.92521 0.32914 0.64602 0.0
C834 C 0.82086 0.29459 0.64057 0.0
C835 C 0.85419 0.35412 0.63214 0.0
H836 H 0.95568 0.29926 0.64048 0.0
H837 H 0.93771 0.26955 0.62515 0.0
H838 H 0.86081 0.24408 0.62208 0.0
H839 H 0.8225 0.25572 0.63393 0.0
H840 H 0.79032 0.32423 0.64013 0.0
H841 H 0.80814 0.35676 0.63366 0.0
H842 H 0.88596 0.38255 0.6355 0.0
H843 H 0.92454 0.36868 0.64484 0.0
H844 H 0.89867 0.33768 0.56736 0.0
H845 H 0.83654 0.31067 0.56561 0.0
H846 H 0.87099 0.33584 0.70796 0.0
H847 H 0.89751 0.28187 0.70096 0.0
C848 C 0.37621 0.70658 0.06842 0.0
C849 C 0.37994 0.71778 0.05134 0.0
C850 C 0.38781 0.73399 0.05881 0.0
C851 C 0.38856 0.73179 0.07996 0.0
N852 N 0.38171 0.71522 0.0863 0.0
Co853 Co 0.38018 0.70671 0.11568 0.0
N854 N 0.3817 0.73211 0.12663 0.0
C855 C 0.38746 0.747 0.11552 0.0
C856 C 0.38673 0.76283 0.1266 0.0
C857 C 0.38057 0.7576 0.14607 0.0
C858 C 0.37819 0.73872 0.14597 0.0
N859 N 0.37896 0.69807 0.14513 0.0
C860 C 0.37669 0.70741 0.16314 0.0
C861 C 0.37877 0.69565 0.18013 0.0
C862 C 0.38259 0.67858 0.1726 0.0
C863 C 0.38276 0.68074 0.15148 0.0
N864 N 0.37834 0.68142 0.10454 0.0
C865 C 0.38193 0.66599 0.11557 0.0
C866 C 0.37858 0.6505 0.10418 0.0
C867 C 0.37257 0.65657 0.08473 0.0
C868 C 0.37275 0.67552 0.08522 0.0
N869 N 0.41165 0.70493 0.11713 0.0
C870 C 0.45521 0.69622 0.12368 0.0
C871 C 0.4441 0.69047 0.10578 0.0
C872 C 0.42247 0.69528 0.10262 0.0
C873 C 0.44451 0.70796 0.13704 0.0
C874 C 0.42276 0.71187 0.13371 0.0
N875 N 0.34896 0.70811 0.11414 0.0
C876 C 0.31485 0.69265 0.11613 0.0
C877 C 0.30501 0.70686 0.10481 0.0
C878 C 0.31736 0.72217 0.09933 0.0
C879 C 0.33929 0.72255 0.10421 0.0
C880 C 0.33684 0.6936 0.12074 0.0
H881 H 0.34853 0.73425 0.09929 0.0
H882 H 0.34418 0.68224 0.12888 0.0
H883 H 0.41422 0.69032 0.08897 0.0
H884 H 0.41483 0.7198 0.14519 0.0
C885 C 0.39123 0.74584 0.09426 0.0
C886 C 0.36864 0.68751 0.06694 0.0
C887 C 0.37516 0.72751 0.16499 0.0
C888 C 0.38448 0.66664 0.13713 0.0
H889 H 0.37719 0.71461 0.03519 0.0
H890 H 0.39149 0.7462 0.04991 0.0
H891 H 0.38995 0.77659 0.12111 0.0
H892 H 0.37856 0.76668 0.15896 0.0
H893 H 0.37829 0.69908 0.19635 0.0
H894 H 0.38489 0.66608 0.18149 0.0
H895 H 0.37936 0.63646 0.10961 0.0
H896 H 0.3684 0.64796 0.07178 0.0
H897 H 0.45153 0.6815 0.09481 0.0
H898 H 0.45253 0.71354 0.15057 0.0
H899 H 0.30579 0.68068 0.12089 0.0
H900 H 0.31019 0.73378 0.09125 0.0
C901 C 0.4193 0.82959 0.37357 0.0
C902 C 0.42662 0.84665 0.3671 0.0
C903 C 0.4088 0.85658 0.3616 0.0
C904 C 0.39173 0.84508 0.36504 0.0
N905 N 0.39749 0.82843 0.37256 0.0
Co906 Co 0.37788 0.80745 0.37949 0.0
N907 N 0.35192 0.82165 0.3698 0.0
C908 C 0.35139 0.83906 0.36255 0.0
C909 C 0.33116 0.84496 0.35681 0.0
C910 C 0.31796 0.8304 0.3605 0.0
C911 C 0.33101 0.81646 0.36834 0.0
N912 N 0.35842 0.78645 0.38635 0.0
C913 C 0.33691 0.78465 0.3833 0.0
C914 C 0.3295 0.76773 0.39022 0.0
C915 C 0.34707 0.75843 0.39768 0.0
C916 C 0.36407 0.77015 0.39496 0.0
N917 N 0.40398 0.79332 0.38911 0.0
C918 C 0.40444 0.77625 0.39741 0.0
C919 C 0.4248 0.77007 0.40218 0.0
C920 C 0.43824 0.78395 0.39647 0.0
C921 C 0.4252 0.79785 0.38854 0.0
N922 N 0.37399 0.81716 0.40844 0.0
C923 C 0.3636 0.82996 0.44908 0.0
C924 C 0.36835 0.81154 0.44533 0.0
C925 C 0.3737 0.80562 0.42538 0.0
C926 C 0.36497 0.84188 0.43184 0.0
C927 C 0.37002 0.83531 0.41201 0.0
N928 N 0.38103 0.7976 0.35066 0.0
C929 C 0.38264 0.77161 0.32749 0.0
C930 C 0.38065 0.78283 0.30979 0.0
C931 C 0.37965 0.80174 0.31308 0.0
C932 C 0.3797 0.80875 0.33338 0.0
C933 C 0.38311 0.77917 0.34745 0.0
H934 H 0.37826 0.82324 0.3348 0.0
H935 H 0.3849 0.76977 0.36014 0.0
H936 H 0.37721 0.79147 0.42409 0.0
H937 H 0.37041 0.8452 0.39975 0.0
C938 C 0.37022 0.8493 0.36062 0.0
C939 C 0.43375 0.81489 0.38017 0.0
C940 C 0.32294 0.79843 0.37371 0.0
C941 C 0.38557 0.76608 0.39974 0.0
H942 H 0.44315 0.85137 0.36626 0.0
H943 H 0.40836 0.87043 0.35552 0.0
H944 H 0.32662 0.85817 0.3504 0.0
H945 H 0.30072 0.82999 0.35755 0.0
H946 H 0.31312 0.76258 0.38976 0.0
H947 H 0.34744 0.74469 0.40409 0.0
H948 H 0.42936 0.7569 0.4087 0.0
H949 H 0.45567 0.7838 0.39776 0.0
H950 H 0.36755 0.80136 0.45757 0.0
H951 H 0.36222 0.85638 0.43343 0.0
H952 H 0.38396 0.75694 0.32598 0.0
H953 H 0.37815 0.81114 0.30003 0.0
C954 C 0.1922 0.87679 0.93431 0.0
C955 C 0.20433 0.88383 0.9506 0.0
C956 C 0.22033 0.8943 0.94196 0.0
C957 C 0.21711 0.89315 0.92091 0.0
N958 N 0.2001 0.88261 0.91578 0.0
Co959 Co 0.19021 0.87725 0.88698 0.0
N960 N 0.21827 0.88488 0.87481 0.0
C961 C 0.23338 0.89501 0.88459 0.0
C962 C 0.25101 0.8986 0.87261 0.0
C963 C 0.24661 0.89049 0.854 0.0
C964 C 0.22637 0.88245 0.85554 0.0
N965 N 0.18028 0.87158 0.8582 0.0
C966 C 0.19151 0.87001 0.8403 0.0
C967 C 0.17759 0.86652 0.82374 0.0
C968 C 0.15711 0.8661 0.83144 0.0
C969 C 0.15953 0.86936 0.85223 0.0
N970 N 0.16218 0.86984 0.89924 0.0
C971 C 0.14343 0.86806 0.88864 0.0
C972 C 0.1268 0.86228 0.9009 0.0
C973 C 0.13561 0.86036 0.92045 0.0
C974 C 0.15721 0.8652 0.91911 0.0
N975 N 0.17973 0.90236 0.88342 0.0
C976 C 0.16828 0.9392 0.87827 0.0
C977 C 0.17764 0.92952 0.86221 0.0
C978 C 0.18333 0.91134 0.86512 0.0
C979 C 0.16381 0.92976 0.89678 0.0
C980 C 0.16964 0.91129 0.89903 0.0
N981 N 0.20078 0.85245 0.89034 0.0
C982 C 0.19584 0.82022 0.88591 0.0
C983 C 0.21709 0.81714 0.89266 0.0
C984 C 0.2298 0.83194 0.89887 0.0
C985 C 0.22126 0.84948 0.89776 0.0
C986 C 0.18803 0.83803 0.88474 0.0
H987 H 0.23139 0.86067 0.90254 0.0
H988 H 0.17184 0.84016 0.8789 0.0
H989 H 0.19109 0.90473 0.85252 0.0
H990 H 0.1664 0.90435 0.9135 0.0
C991 C 0.23163 0.89885 0.90572 0.0
C992 C 0.17233 0.86591 0.93706 0.0
C993 C 0.2147 0.87414 0.83782 0.0
C994 C 0.14318 0.86841 0.86694 0.0
H995 H 0.20181 0.88169 0.967 0.0
H996 H 0.23329 0.90128 0.95007 0.0
H997 H 0.26555 0.9059 0.87701 0.0
H998 H 0.25702 0.89073 0.84071 0.0
H999 H 0.18173 0.86498 0.80765 0.0
H1000 H 0.14225 0.86349 0.82292 0.0
H1001 H 0.11048 0.85892 0.89604 0.0
H1002 H 0.12709 0.85571 0.93402 0.0
H1003 H 0.18083 0.936 0.84739 0.0
H1004 H 0.15648 0.93668 0.90959 0.0
H1005 H 0.18563 0.80905 0.88085 0.0
H1006 H 0.24626 0.82997 0.90435 0.0
C1007 C 0.12092 0.69938 0.42202 0.0
C1008 C 0.11048 0.70796 0.43804 0.0
C1009 C 0.09582 0.71977 0.42906 0.0
C1010 C 0.09801 0.71777 0.40809 0.0
N1011 N 0.11328 0.70557 0.40328 0.0
Co1012 Co 0.12072 0.69843 0.37457 0.0
N1013 N 0.10642 0.72038 0.3618 0.0
C1014 C 0.09225 0.73115 0.37139 0.0
C1015 C 0.08554 0.7457 0.35931 0.0
C1016 C 0.09594 0.74387 0.34087 0.0
C1017 C 0.10829 0.72809 0.34253 0.0
N1018 N 0.1281 0.69127 0.34585 0.0
C1019 C 0.12789 0.70111 0.32776 0.0
C1020 C 0.13361 0.69018 0.31134 0.0
C1021 C 0.13759 0.67307 0.3194 0.0
C1022 C 0.13399 0.67438 0.34024 0.0
N1023 N 0.13506 0.67652 0.38726 0.0
C1024 C 0.1405 0.6614 0.37695 0.0
C1025 C 0.15003 0.64831 0.38946 0.0
C1026 C 0.15042 0.65554 0.40894 0.0
C1027 C 0.14095 0.67268 0.40729 0.0
N1028 N 0.09361 0.68493 0.37231 0.0
C1029 C 0.05219 0.6701 0.37088 0.0
C1030 C 0.06017 0.67997 0.35399 0.0
C1031 C 0.08096 0.68711 0.35493 0.0
C1032 C 0.06572 0.66678 0.38804 0.0
C1033 C 0.08642 0.67441 0.38849 0.0
N1034 N 0.14743 0.71207 0.37674 0.0
C1035 C 0.18472 0.71561 0.36836 0.0
C1036 C 0.18415 0.73379 0.3748 0.0
C1037 C 0.16517 0.74058 0.38313 0.0
C1038 C 0.14703 0.72948 0.38403 0.0
C1039 C 0.16615 0.70493 0.36954 0.0
H1040 H 0.13247 0.73525 0.38993 0.0
H1041 H 0.16674 0.6911 0.36408 0.0
H1042 H 0.08643 0.695 0.34184 0.0
H1043 H 0.09626 0.67235 0.40223 0.0
C1044 C 0.08852 0.72889 0.39263 0.0
C1045 C 0.13634 0.68422 0.42527 0.0
C1046 C 0.12038 0.72019 0.32517 0.0
C1047 C 0.13903 0.66104 0.35529 0.0
H1048 H 0.11298 0.7057 0.4545 0.0
H1049 H 0.08524 0.72906 0.4369 0.0
H1050 H 0.07506 0.75676 0.36366 0.0
H1051 H 0.09453 0.75319 0.3278 0.0
H1052 H 0.1345 0.69406 0.29515 0.0
H1053 H 0.14303 0.66123 0.31112 0.0
H1054 H 0.15648 0.63526 0.3849 0.0
H1055 H 0.15675 0.64885 0.42279 0.0
H1056 H 0.0502 0.68252 0.34031 0.0
H1057 H 0.06002 0.65912 0.40134 0.0
H1058 H 0.19929 0.70975 0.36225 0.0
H1059 H 0.16404 0.75459 0.38821 0.0
C1060 C 0.30283 0.63191 0.92028 0.0
C1061 C 0.29129 0.62424 0.93645 0.0
C1062 C 0.27583 0.61319 0.92767 0.0
C1063 C 0.27878 0.61463 0.90668 0.0
N1064 N 0.29508 0.62593 0.90169 0.0
Co1065 Co 0.30447 0.63171 0.87298 0.0
N1066 N 0.27691 0.62273 0.86029 0.0
C1067 C 0.2625 0.61194 0.86997 0.0
C1068 C 0.24503 0.60762 0.85763 0.0
C1069 C 0.24879 0.61597 0.8389 0.0
C1070 C 0.26851 0.62489 0.84075 0.0
N1071 N 0.31391 0.63768 0.84428 0.0
C1072 C 0.30251 0.63871 0.82604 0.0
C1073 C 0.3161 0.64269 0.80971 0.0
C1074 C 0.33658 0.64402 0.81793 0.0
C1075 C 0.33447 0.64077 0.83878 0.0
N1076 N 0.33206 0.64052 0.88574 0.0
C1077 C 0.35058 0.64322 0.87556 0.0
C1078 C 0.36688 0.64983 0.88804 0.0
C1079 C 0.35813 0.65127 0.90731 0.0
C1080 C 0.3369 0.6453 0.90563 0.0
N1081 N 0.31674 0.60722 0.87072 0.0
C1082 C 0.33462 0.57238 0.86662 0.0
C1083 C 0.33741 0.58208 0.88505 0.0
C1084 C 0.32839 0.59951 0.88675 0.0
C1085 C 0.32247 0.58041 0.85048 0.0
C1086 C 0.31371 0.59772 0.85283 0.0
N1087 N 0.29231 0.65597 0.87518 0.0
C1088 C 0.29628 0.68847 0.87216 0.0
C1089 C 0.27542 0.69093 0.87966 0.0
C1090 C 0.26313 0.67546 0.88468 0.0
C1091 C 0.27192 0.65813 0.88245 0.0
C1092 C 0.30432 0.67091 0.86987 0.0
H1093 H 0.26225 0.64648 0.8867 0.0
H1094 H 0.32037 0.66943 0.86402 0.0
H1095 H 0.33096 0.60678 0.901 0.0
H1096 H 0.30448 0.60337 0.84004 0.0
C1097 C 0.26457 0.60824 0.89128 0.0
C1098 C 0.32213 0.64352 0.92329 0.0
C1099 C 0.27951 0.63386 0.82317 0.0
C1100 C 0.35079 0.64268 0.85389 0.0
H1101 H 0.29388 0.62632 0.95286 0.0
H1102 H 0.26342 0.60556 0.93564 0.0
H1103 H 0.23095 0.59972 0.86188 0.0
H1104 H 0.2383 0.61535 0.82536 0.0
H1105 H 0.31176 0.64404 0.79346 0.0
H1106 H 0.3512 0.64728 0.80971 0.0
H1107 H 0.38292 0.65396 0.88348 0.0
H1108 H 0.36646 0.65629 0.92094 0.0
H1109 H 0.34675 0.5764 0.8979 0.0
H1110 H 0.31951 0.57328 0.83611 0.0
H1111 H 0.30653 0.7 0.86837 0.0
H1112 H 0.2468 0.67665 0.89019 0.0
C1113 C 0.11211 0.8095 0.08676 0.0
C1114 C 0.09622 0.80501 0.07228 0.0
C1115 C 0.08005 0.7964 0.08291 0.0
C1116 C 0.08691 0.79594 0.10323 0.0
N1117 N 0.10646 0.80361 0.10609 0.0
Co1118 Co 0.12229 0.80512 0.13323 0.0
N1119 N 0.1035 0.7864 0.14683 0.0
C1120 C 0.0843 0.78069 0.13923 0.0
C1121 C 0.07476 0.76765 0.15151 0.0
C1122 C 0.0886 0.76519 0.16808 0.0
C1123 C 0.10582 0.77708 0.1652 0.0
N1124 N 0.13842 0.80659 0.16024 0.0
C1125 C 0.13794 0.79568 0.17756 0.0
C1126 C 0.15119 0.80275 0.19309 0.0
C1127 C 0.16006 0.81851 0.18536 0.0
C1128 C 0.15178 0.82033 0.16562 0.0
N1129 N 0.14085 0.824 0.11975 0.0
C1130 C 0.1536 0.83593 0.12987 0.0
C1131 C 0.16439 0.84762 0.11685 0.0
C1132 C 0.15798 0.84283 0.09725 0.0
C1133 C 0.14362 0.82836 0.09938 0.0
N1134 N 0.1025 0.82415 0.14203 0.0
C1135 C 0.06636 0.84477 0.15173 0.0
C1136 C 0.07638 0.83355 0.16671 0.0
C1137 C 0.09437 0.82338 0.16156 0.0
C1138 C 0.07628 0.8471 0.13254 0.0
C1139 C 0.09452 0.83675 0.12806 0.0
N1140 N 0.14149 0.78599 0.12432 0.0
C1141 C 0.17718 0.7752 0.11794 0.0
C1142 C 0.16858 0.75921 0.10949 0.0
C1143 C 0.14632 0.75666 0.10885 0.0
C1144 C 0.13303 0.77034 0.11614 0.0
C1145 C 0.16332 0.78837 0.12551 0.0
H1146 H 0.11589 0.76826 0.11493 0.0
H1147 H 0.17022 0.80052 0.13216 0.0
H1148 H 0.10067 0.81396 0.17304 0.0
H1149 H 0.10123 0.83805 0.11282 0.0
C1150 C 0.0773 0.78596 0.11929 0.0
C1151 C 0.13166 0.82028 0.0818 0.0
C1152 C 0.12306 0.78013 0.181 0.0
C1153 C 0.15763 0.83375 0.15113 0.0
H1154 H 0.09627 0.80763 0.05576 0.0
H1155 H 0.06543 0.79052 0.07643 0.0
H1156 H 0.05983 0.76038 0.14849 0.0
H1157 H 0.08612 0.75578 0.18088 0.0
H1158 H 0.15365 0.79747 0.20867 0.0
H1159 H 0.1713 0.82753 0.19319 0.0
H1160 H 0.17609 0.85799 0.12105 0.0
H1161 H 0.16313 0.84936 0.08303 0.0
H1162 H 0.06961 0.83179 0.18197 0.0
H1163 H 0.06919 0.85582 0.12058 0.0
H1164 H 0.19447 0.77737 0.11891 0.0
H1165 H 0.13928 0.74435 0.10246 0.0
C1166 C 0.1987 0.63351 0.5767 0.0
C1167 C 0.21257 0.62834 0.56121 0.0
C1168 C 0.23027 0.62077 0.57084 0.0
C1169 C 0.22625 0.62164 0.59162 0.0
N1170 N 0.20689 0.62907 0.59587 0.0
Co1171 Co 0.19525 0.63347 0.62426 0.0
N1172 N 0.22297 0.62556 0.63849 0.0
C1173 C 0.24078 0.61935 0.62903 0.0
C1174 C 0.25771 0.61574 0.64238 0.0
C1175 C 0.25039 0.62 0.66153 0.0
C1176 C 0.22923 0.62589 0.65886 0.0
N1177 N 0.18361 0.63792 0.65264 0.0
C1178 C 0.19334 0.63695 0.67176 0.0
C1179 C 0.17899 0.64114 0.68724 0.0
C1180 C 0.15972 0.64514 0.67767 0.0
C1181 C 0.16325 0.6431 0.65694 0.0
N1182 N 0.16775 0.64185 0.60998 0.0
C1183 C 0.14953 0.64716 0.61942 0.0
C1184 C 0.13374 0.65334 0.60597 0.0
C1185 C 0.14247 0.65219 0.58676 0.0
C1186 C 0.16316 0.64524 0.58953 0.0
N1187 N 0.18419 0.60783 0.62567 0.0
C1188 C 0.16994 0.57146 0.63218 0.0
C1189 C 0.15585 0.5862 0.63403 0.0
C1190 C 0.16322 0.60406 0.63074 0.0
C1191 C 0.19102 0.57524 0.62605 0.0
C1192 C 0.19763 0.59328 0.62271 0.0
N1193 N 0.20619 0.65871 0.62306 0.0
C1194 C 0.20119 0.69087 0.62879 0.0
C1195 C 0.2223 0.69441 0.62279 0.0
C1196 C 0.23513 0.67995 0.61656 0.0
C1197 C 0.22672 0.66231 0.61662 0.0
C1198 C 0.19354 0.67298 0.62895 0.0
H1199 H 0.23714 0.65179 0.61153 0.0
H1200 H 0.17746 0.67096 0.6341 0.0
H1201 H 0.15163 0.6145 0.63265 0.0
H1202 H 0.21385 0.59499 0.61812 0.0
C1203 C 0.24129 0.61765 0.60746 0.0
C1204 C 0.17808 0.64281 0.57232 0.0
C1205 C 0.21599 0.63202 0.67612 0.0
C1206 C 0.14835 0.64732 0.64106 0.0
H1207 H 0.21032 0.63018 0.54466 0.0
H1208 H 0.24473 0.61589 0.56357 0.0
H1209 H 0.27364 0.6109 0.63858 0.0
H1210 H 0.25974 0.61912 0.67581 0.0
H1211 H 0.18215 0.6414 0.70377 0.0
H1212 H 0.14499 0.64942 0.68495 0.0
H1213 H 0.11802 0.65863 0.60974 0.0
H1214 H 0.13463 0.65645 0.5724 0.0
H1215 H 0.13915 0.58406 0.63813 0.0
H1216 H 0.20271 0.56441 0.62441 0.0
H1217 H 0.19083 0.70178 0.63386 0.0
H1218 H 0.25154 0.68226 0.61159 0.0
C1219 C 0.29613 0.883 0.59517 0.0
C1220 C 0.28234 0.88898 0.57932 0.0
C1221 C 0.26646 0.89902 0.58831 0.0
C1222 C 0.27111 0.89846 0.60916 0.0
N1223 N 0.28885 0.88859 0.61388 0.0
Co1224 Co 0.29998 0.88336 0.64252 0.0
N1225 N 0.27237 0.8906 0.65557 0.0
C1226 C 0.25663 0.90043 0.64611 0.0
C1227 C 0.23937 0.90348 0.65863 0.0
C1228 C 0.24464 0.89525 0.67723 0.0
C1229 C 0.265 0.88769 0.67512 0.0
N1230 N 0.31118 0.87799 0.67109 0.0
C1231 C 0.30068 0.876 0.68938 0.0
C1232 C 0.31528 0.87291 0.70558 0.0
C1233 C 0.33547 0.87313 0.6972 0.0
C1234 C 0.33219 0.87635 0.6764 0.0
N1235 N 0.32758 0.87624 0.62949 0.0
C1236 C 0.3468 0.8751 0.63943 0.0
C1237 C 0.36326 0.8703 0.62664 0.0
C1238 C 0.35383 0.86837 0.60741 0.0
C1239 C 0.33201 0.872 0.60952 0.0
N1240 N 0.31036 0.90855 0.64467 0.0
C1241 C 0.32582 0.94437 0.64846 0.0
C1242 C 0.32856 0.93471 0.63009 0.0
C1243 C 0.32074 0.91683 0.62852 0.0
C1244 C 0.3149 0.93577 0.66471 0.0
C1245 C 0.30737 0.91794 0.66253 0.0
N1246 N 0.28971 0.85841 0.6404 0.0
C1247 C 0.29645 0.82622 0.64315 0.0
C1248 C 0.27551 0.82253 0.63581 0.0
C1249 C 0.26176 0.83722 0.6311 0.0
C1250 C 0.26921 0.85503 0.63338 0.0
C1251 C 0.30316 0.84424 0.64549 0.0
H1252 H 0.2584 0.86604 0.62934 0.0
H1253 H 0.31933 0.84671 0.65117 0.0
H1254 H 0.32323 0.90967 0.61428 0.0
H1255 H 0.29914 0.91179 0.67541 0.0
C1256 C 0.25723 0.90399 0.62477 0.0
C1257 C 0.31648 0.87289 0.5919 0.0
C1258 C 0.27739 0.87908 0.69241 0.0
C1259 C 0.34797 0.87569 0.66112 0.0
H1260 H 0.28335 0.88627 0.56296 0.0
H1261 H 0.25256 0.90517 0.58063 0.0
H1262 H 0.22439 0.91032 0.65453 0.0
H1263 H 0.23464 0.89497 0.69079 0.0
H1264 H 0.31175 0.87113 0.72184 0.0
H1265 H 0.3507 0.87088 0.70529 0.0
H1266 H 0.37999 0.8679 0.63089 0.0
H1267 H 0.36214 0.86489 0.59341 0.0
H1268 H 0.33702 0.94077 0.61716 0.0
H1269 H 0.31199 0.94279 0.67905 0.0
H1270 H 0.30775 0.81533 0.64675 0.0
H1271 H 0.2453 0.83504 0.62578 0.0
H1272 H 0.15581 0.21924 0.79456 0.0
H1273 H 0.10391 0.29032 0.71392 0.0
H1274 H 0.09731 0.20757 0.75979 0.0
H1275 H 0.14503 0.3066 0.76501 0.0
H1276 H 0.10409 0.25893 0.7277 0.0
H1277 H 0.15477 0.25053 0.78121 0.0
C1278 C 0.14262 0.22324 0.78428 0.0
C1279 C 0.12654 0.21067 0.77843 0.0
C1280 C 0.113 0.2694 0.73592 0.0
C1281 C 0.12563 0.24646 0.76268 0.0
C1282 C 0.11299 0.28724 0.72802 0.0
C1283 C 0.12446 0.301 0.73839 0.0
C1284 C 0.12484 0.26529 0.7541 0.0
C1285 C 0.13584 0.29639 0.75667 0.0
C1286 C 0.14214 0.24111 0.77657 0.0
C1287 C 0.11023 0.21664 0.76455 0.0
N1288 N 0.13586 0.27888 0.76388 0.0
N1289 N 0.11023 0.23409 0.75709 0.0
H1290 H 0.69183 0.60645 0.27386 0.0
H1291 H 0.79755 0.58675 0.29622 0.0
H1292 H 0.7011 0.57937 0.21586 0.0
H1293 H 0.79707 0.61063 0.23481 0.0
H1294 H 0.76088 0.57496 0.28965 0.0
H1295 H 0.72849 0.59785 0.28465 0.0
C1296 C 0.70125 0.59794 0.26384 0.0
C1297 C 0.69361 0.59357 0.244 0.0
C1298 C 0.76933 0.58205 0.27737 0.0
C1299 C 0.73555 0.58441 0.25579 0.0
C1300 C 0.79013 0.5887 0.28103 0.0
C1301 C 0.80034 0.59945 0.26592 0.0
C1302 C 0.759 0.58605 0.25839 0.0
C1303 C 0.79006 0.60196 0.24663 0.0
C1304 C 0.72214 0.59305 0.26996 0.0
C1305 C 0.70662 0.58298 0.23128 0.0
N1306 N 0.7698 0.59543 0.24347 0.0
N1307 N 0.72735 0.57937 0.23706 0.0
H1308 H 0.38886 0.28863 0.80368 0.0
H1309 H 0.38338 0.23098 0.70061 0.0
H1310 H 0.37106 0.3129 0.74444 0.0
H1311 H 0.37146 0.20716 0.76097 0.0
H1312 H 0.38356 0.26125 0.71611 0.0
H1313 H 0.38739 0.25853 0.78796 0.0
C1314 C 0.38449 0.28768 0.78742 0.0
C1315 C 0.38004 0.30341 0.77541 0.0
C1316 C 0.38087 0.24935 0.72589 0.0
C1317 C 0.37887 0.26898 0.75727 0.0
C1318 C 0.38065 0.23207 0.71706 0.0
C1319 C 0.37747 0.21641 0.72948 0.0
C1320 C 0.3782 0.25098 0.74731 0.0
C1321 C 0.37444 0.21874 0.75081 0.0
C1322 C 0.38377 0.27048 0.77846 0.0
C1323 C 0.37499 0.30125 0.75427 0.0
N1324 N 0.37501 0.23568 0.75906 0.0
N1325 N 0.37464 0.28436 0.74585 0.0
H1326 H 0.69566 0.83408 0.2682 0.0
H1327 H 0.7819 0.90746 0.22745 0.0
H1328 H 0.69069 0.89217 0.27677 0.0
H1329 H 0.79132 0.84935 0.22342 0.0
H1330 H 0.74663 0.90198 0.24289 0.0
H1331 H 0.72929 0.83907 0.24914 0.0
C1332 C 0.70162 0.84786 0.2658 0.0
C1333 C 0.69054 0.86278 0.27369 0.0
C1334 C 0.75633 0.89038 0.2386 0.0
C1335 C 0.72862 0.86863 0.25235 0.0
C1336 C 0.77636 0.89355 0.22982 0.0
C1337 C 0.78927 0.8788 0.22443 0.0
C1338 C 0.74927 0.87233 0.24196 0.0
C1339 C 0.78163 0.86099 0.22756 0.0
C1340 C 0.72073 0.85073 0.25504 0.0
C1341 C 0.69881 0.88039 0.2706 0.0
N1342 N 0.76206 0.85821 0.23625 0.0
N1343 N 0.71738 0.88284 0.26016 0.0
H1344 H 0.77566 0.10154 0.21804 0.0
H1345 H 0.75475 0.15596 0.3209 0.0
H1346 H 0.79387 0.15812 0.22419 0.0
H1347 H 0.75442 0.09723 0.31746 0.0
H1348 H 0.77029 0.1576 0.28609 0.0
H1349 H 0.76867 0.09992 0.25502 0.0
C1350 C 0.77823 0.11361 0.22731 0.0
C1351 C 0.78508 0.13003 0.21821 0.0
C1352 C 0.76723 0.14436 0.29315 0.0
C1353 C 0.77708 0.12838 0.26044 0.0
C1354 C 0.75845 0.14346 0.31291 0.0
C1355 C 0.75364 0.12646 0.32184 0.0
C1356 C 0.77075 0.12811 0.28236 0.0
C1357 C 0.75823 0.11056 0.311 0.0
C1358 C 0.77438 0.11268 0.24841 0.0
C1359 C 0.78852 0.14525 0.23079 0.0
N1360 N 0.76638 0.11178 0.29172 0.0
N1361 N 0.78418 0.14414 0.25134 0.0
H1362 H 0.92529 0.29999 0.72273 0.0
H1363 H 0.87576 0.28016 0.83263 0.0
H1364 H 0.86206 0.31718 0.74128 0.0
H1365 H 0.93039 0.25256 0.80718 0.0
H1366 H 0.8781 0.3034 0.805 0.0
H1367 H 0.9344 0.29274 0.75885 0.0
C1368 C 0.91347 0.30251 0.73453 0.0
C1369 C 0.89268 0.3086 0.72909 0.0
C1370 C 0.89001 0.2926 0.80587 0.0
C1371 C 0.90288 0.30027 0.77024 0.0
C1372 C 0.88874 0.27944 0.82164 0.0
C1373 C 0.90275 0.26447 0.82179 0.0
C1374 C 0.90534 0.29055 0.79029 0.0
C1375 C 0.91921 0.26391 0.80729 0.0
C1376 C 0.91869 0.29847 0.7551 0.0
C1377 C 0.87814 0.3122 0.74489 0.0
N1378 N 0.91985 0.27662 0.79187 0.0
N1379 N 0.88334 0.30755 0.76479 0.0
H1380 H 0.76679 0.40764 0.29797 0.0
H1381 H 0.73134 0.33144 0.21802 0.0
H1382 H 0.75557 0.35164 0.31621 0.0
H1383 H 0.72445 0.38911 0.20539 0.0
H1384 H 0.73975 0.33832 0.25445 0.0
H1385 H 0.75044 0.40132 0.26392 0.0
C1386 C 0.76049 0.39413 0.29479 0.0
C1387 C 0.76239 0.38009 0.30952 0.0
C1388 C 0.73616 0.34944 0.24372 0.0
C1389 C 0.74426 0.37262 0.27103 0.0
C1390 C 0.73148 0.34549 0.22306 0.0
C1391 C 0.72752 0.35977 0.20896 0.0
C1392 C 0.73703 0.36778 0.24999 0.0
C1393 C 0.72764 0.3778 0.21595 0.0
C1394 C 0.75124 0.39047 0.27548 0.0
C1395 C 0.75426 0.36272 0.30498 0.0
N1396 N 0.73257 0.38133 0.23598 0.0
N1397 N 0.74574 0.35937 0.28596 0.0
H1398 H 0.56592 0.22198 0.71121 0.0
H1399 H 0.57401 0.30563 0.78664 0.0
H1400 H 0.58178 0.27738 0.69325 0.0
H1401 H 0.5799 0.24873 0.80449 0.0
H1402 H 0.56048 0.29632 0.75261 0.0
H1403 H 0.55449 0.23303 0.74484 0.0
C1404 C 0.56664 0.23649 0.71422 0.0
C1405 C 0.57558 0.24871 0.69979 0.0
C1406 C 0.56421 0.28593 0.76422 0.0
C1407 C 0.56237 0.26136 0.7379 0.0
C1408 C 0.57213 0.2912 0.78354 0.0
C1409 C 0.57888 0.27793 0.79812 0.0
C1410 C 0.56312 0.26729 0.75956 0.0
C1411 C 0.57522 0.25946 0.79365 0.0
C1412 C 0.55994 0.24279 0.73329 0.0
C1413 C 0.57534 0.26744 0.70407 0.0
N1414 N 0.568 0.25468 0.77457 0.0
N1415 N 0.56932 0.27316 0.72297 0.0
H1416 H 0.28534 0.71719 0.06833 0.0
H1417 H 0.17299 0.72442 0.12409 0.0
H1418 H 0.27181 0.6951 0.12908 0.0
H1419 H 0.197 0.76226 0.07822 0.0
H1420 H 0.20284 0.70361 0.11664 0.0
H1421 H 0.24683 0.72305 0.06292 0.0
C1422 C 0.27421 0.71329 0.08037 0.0
C1423 C 0.28177 0.70633 0.09949 0.0
C1424 C 0.20115 0.71622 0.10779 0.0
C1425 C 0.23796 0.71274 0.09329 0.0
C1426 C 0.18423 0.72802 0.11202 0.0
C1427 C 0.18308 0.74508 0.10201 0.0
C1428 C 0.21674 0.72164 0.09342 0.0
C1429 C 0.19777 0.74929 0.08647 0.0
C1430 C 0.25228 0.71649 0.0772 0.0
C1431 C 0.26667 0.70081 0.11425 0.0
N1432 N 0.21426 0.73773 0.08283 0.0
N1433 N 0.24545 0.70452 0.11103 0.0
H1434 H 0.28945 0.80737 0.3979 0.0
H1435 H 0.21078 0.73657 0.34166 0.0
H1436 H 0.30545 0.77892 0.34231 0.0
H1437 H 0.20011 0.7586 0.40232 0.0
H1438 H 0.24238 0.75631 0.33827 0.0
H1439 H 0.25288 0.79463 0.39583 0.0
C1440 C 0.28493 0.79876 0.38501 0.0
C1441 C 0.30008 0.794 0.37027 0.0
C1442 C 0.23303 0.7569 0.35225 0.0
C1443 C 0.25899 0.77915 0.36799 0.0
C1444 C 0.21516 0.74552 0.35428 0.0
C1445 C 0.20305 0.74582 0.37241 0.0
C1446 C 0.23879 0.76858 0.36849 0.0
C1447 C 0.20901 0.758 0.38807 0.0
C1448 C 0.26424 0.79141 0.38387 0.0
C1449 C 0.29393 0.78276 0.35389 0.0
N1450 N 0.22659 0.76882 0.3858 0.0
N1451 N 0.27381 0.77548 0.35329 0.0
H1452 H 0.25446 0.80718 0.87474 0.0
H1453 H 0.24922 0.70314 0.91042 0.0
H1454 H 0.20064 0.78546 0.90876 0.0
H1455 H 0.28155 0.72118 0.85496 0.0
H1456 H 0.23499 0.73398 0.91433 0.0
H1457 H 0.26905 0.77628 0.87217 0.0
C1458 C 0.24587 0.79587 0.88183 0.0
C1459 C 0.22639 0.79872 0.89198 0.0
C1460 C 0.24519 0.73109 0.90133 0.0
C1461 C 0.24285 0.76358 0.88908 0.0
C1462 C 0.25322 0.7135 0.89899 0.0
C1463 C 0.26661 0.70952 0.8823 0.0
C1464 C 0.25087 0.74482 0.88709 0.0
C1465 C 0.27164 0.72365 0.86826 0.0
C1466 C 0.25408 0.7783 0.88023 0.0
C1467 C 0.21567 0.78369 0.90072 0.0
N1468 N 0.26383 0.7407 0.87103 0.0
N1469 N 0.2241 0.76668 0.89915 0.0
H1470 H 0.25978 0.70534 0.64129 0.0
H1471 H 0.24924 0.80912 0.60495 0.0
H1472 H 0.20466 0.72558 0.60639 0.0
H1473 H 0.28491 0.79248 0.66012 0.0
H1474 H 0.23661 0.77773 0.60104 0.0
H1475 H 0.27358 0.73664 0.64377 0.0
C1476 C 0.25072 0.71641 0.63403 0.0
C1477 C 0.23111 0.71304 0.62366 0.0
C1478 C 0.24721 0.78102 0.61397 0.0
C1479 C 0.24666 0.74858 0.62638 0.0
C1480 C 0.25433 0.79893 0.61632 0.0
C1481 C 0.26808 0.80349 0.63298 0.0
C1482 C 0.25413 0.76756 0.6282 0.0
C1483 C 0.27458 0.78958 0.64688 0.0
C1484 C 0.25849 0.73419 0.63555 0.0
C1485 C 0.21979 0.72775 0.61463 0.0
N1486 N 0.26758 0.7722 0.64415 0.0
N1487 N 0.22779 0.74495 0.61613 0.0
H1488 H 0.87217 0.7919 0.19368 0.0
H1489 H 0.87222 0.72326 0.2916 0.0
H1490 H 0.86614 0.80979 0.25678 0.0
H1491 H 0.86167 0.7053 0.22891 0.0
H1492 H 0.87331 0.75492 0.27894 0.0
H1493 H 0.8712 0.7602 0.20607 0.0
C1494 C 0.87054 0.7893 0.21011 0.0
C1495 C 0.86922 0.80385 0.2241 0.0
C1496 C 0.87075 0.74407 0.26793 0.0
C1497 C 0.86854 0.7672 0.23848 0.0
C1498 C 0.87026 0.72593 0.27514 0.0
C1499 C 0.86687 0.71147 0.26134 0.0
C1500 C 0.86807 0.74794 0.24665 0.0
C1501 C 0.86412 0.71594 0.24019 0.0
C1502 C 0.8701 0.77109 0.21719 0.0
C1503 C 0.86761 0.79927 0.24529 0.0
N1504 N 0.86489 0.7337 0.23351 0.0
N1505 N 0.86736 0.78146 0.25177 0.0
H1506 H 0.20431 0.35233 0.73455 0.0
H1507 H 0.31037 0.35386 0.7739 0.0
H1508 H 0.20984 0.41083 0.72976 0.0
H1509 H 0.30145 0.41185 0.77943 0.0
H1510 H 0.27527 0.35162 0.75635 0.0
H1511 H 0.2404 0.35092 0.75023 0.0
C1512 C 0.21337 0.36486 0.73662 0.0
C1513 C 0.20421 0.38169 0.73086 0.0
C1514 C 0.28062 0.36487 0.76153 0.0
C1515 C 0.24597 0.38038 0.74852 0.0
C1516 C 0.30085 0.36612 0.7714 0.0
C1517 C 0.30873 0.38304 0.77802 0.0
C1518 C 0.26797 0.3807 0.75847 0.0
C1519 C 0.2959 0.39856 0.77445 0.0
C1520 C 0.23414 0.36411 0.74549 0.0
C1521 C 0.21644 0.39759 0.734 0.0
N1522 N 0.27619 0.39702 0.76494 0.0
N1523 N 0.23661 0.39655 0.74267 0.0
H1524 H 0.61802 0.77055 0.31668 0.0
H1525 H 0.61836 0.71081 0.21328 0.0
H1526 H 0.61879 0.7938 0.2549 0.0
H1527 H 0.62367 0.68724 0.27478 0.0
H1528 H 0.61671 0.74115 0.22839 0.0
H1529 H 0.61835 0.73998 0.30181 0.0
C1530 C 0.61831 0.7693 0.3 0.0
C1531 C 0.6184 0.78497 0.2871 0.0
C1532 C 0.61821 0.72935 0.23861 0.0
C1533 C 0.61855 0.74974 0.2699 0.0
C1534 C 0.61929 0.71195 0.22997 0.0
C1535 C 0.62132 0.69626 0.24269 0.0
C1536 C 0.61912 0.73128 0.26023 0.0
C1537 C 0.62191 0.6988 0.26427 0.0
C1538 C 0.61839 0.75178 0.29151 0.0
C1539 C 0.61839 0.78227 0.26556 0.0
N1540 N 0.62088 0.71591 0.27231 0.0
N1541 N 0.61851 0.76509 0.2577 0.0
H1542 H 0.30329 0.16416 0.7313 0.0
H1543 H 0.20724 0.10503 0.78127 0.0
H1544 H 0.30192 0.10535 0.73275 0.0
H1545 H 0.20547 0.16367 0.77556 0.0
H1546 H 0.24278 0.10502 0.76511 0.0
H1547 H 0.26841 0.16453 0.74889 0.0
C1548 C 0.29564 0.15134 0.73547 0.0
C1549 C 0.3055 0.13471 0.73076 0.0
C1550 C 0.23469 0.11792 0.76733 0.0
C1551 C 0.26559 0.13495 0.75078 0.0
C1552 C 0.21442 0.1179 0.77654 0.0
C1553 C 0.20338 0.13436 0.77945 0.0
C1554 C 0.24415 0.13455 0.7611 0.0
C1555 C 0.21344 0.1507 0.77337 0.0
C1556 C 0.27574 0.15153 0.74547 0.0
C1557 C 0.29491 0.11845 0.73631 0.0
N1558 N 0.23322 0.1504 0.76443 0.0
N1559 N 0.27558 0.11898 0.74603 0.0
H1560 H 0.26861 0.8484 0.71618 0.0
H1561 H 0.22449 0.90434 0.81389 0.0
H1562 H 0.26559 0.90707 0.71805 0.0
H1563 H 0.22605 0.8456 0.81254 0.0
H1564 H 0.23972 0.90546 0.77901 0.0
H1565 H 0.25357 0.84683 0.75128 0.0
C1566 C 0.26471 0.86095 0.72396 0.0
C1567 C 0.2681 0.87788 0.71396 0.0
C1568 C 0.23683 0.89228 0.78628 0.0
C1569 C 0.25093 0.87626 0.75443 0.0
C1570 C 0.22817 0.89166 0.80628 0.0
C1571 C 0.22423 0.87485 0.81635 0.0
C1572 C 0.24159 0.87597 0.77597 0.0
C1573 C 0.22899 0.85886 0.80549 0.0
C1574 C 0.25611 0.86007 0.74403 0.0
C1575 C 0.26296 0.89371 0.72497 0.0
N1576 N 0.23743 0.8598 0.78601 0.0
N1577 N 0.25465 0.89252 0.74444 0.0
H1578 H 0.15587 0.72905 0.30182 0.0
H1579 H 0.09013 0.78002 0.20943 0.0
H1580 H 0.08647 0.73156 0.29945 0.0
H1581 H 0.15462 0.75981 0.20159 0.0
H1582 H 0.0894 0.7654 0.24389 0.0
H1583 H 0.1568 0.74309 0.26691 0.0
C1584 C 0.14083 0.73273 0.29407 0.0
C1585 C 0.12109 0.72947 0.30397 0.0
C1586 C 0.10369 0.76403 0.23462 0.0
C1587 C 0.12201 0.74568 0.26373 0.0
C1588 C 0.10407 0.77231 0.21483 0.0
C1589 C 0.12228 0.77084 0.20221 0.0
C1590 C 0.12187 0.75449 0.24238 0.0
C1591 C 0.14012 0.76115 0.21055 0.0
C1592 C 0.14136 0.7407 0.27408 0.0
C1593 C 0.10211 0.73429 0.29286 0.0
N1594 N 0.13951 0.75346 0.23001 0.0
N1595 N 0.10305 0.74223 0.27358 0.0
H1596 H 0.27042 0.60406 0.79892 0.0
H1597 H 0.22346 0.66197 0.70072 0.0
H1598 H 0.26676 0.66276 0.79786 0.0
H1599 H 0.22927 0.60339 0.70155 0.0
H1600 H 0.23857 0.66267 0.73623 0.0
H1601 H 0.25493 0.60357 0.76363 0.0
C1602 C 0.26619 0.61686 0.79129 0.0
C1603 C 0.26963 0.63346 0.80156 0.0
C1604 C 0.23659 0.64964 0.7287 0.0
C1605 C 0.25199 0.63308 0.76073 0.0
C1606 C 0.22792 0.64924 0.70839 0.0
C1607 C 0.22517 0.63261 0.69802 0.0
C1608 C 0.24255 0.63324 0.73895 0.0
C1609 C 0.23122 0.61654 0.70883 0.0
C1610 C 0.2574 0.61659 0.77107 0.0
C1611 C 0.2642 0.64964 0.79067 0.0
N1612 N 0.23958 0.61726 0.72856 0.0
N1613 N 0.25565 0.64905 0.77099 0.0
H1614 H 0.35721 0.75298 0.29628 0.0
H1615 H 0.40672 0.74963 0.1824 0.0
H1616 H 0.40118 0.79415 0.27392 0.0
H1617 H 0.3457 0.72466 0.1967 0.0
H1618 H 0.40764 0.76349 0.21687 0.0
H1619 H 0.3555 0.73989 0.26144 0.0
C1620 C 0.36661 0.75926 0.28411 0.0
C1621 C 0.37939 0.77478 0.28828 0.0
C1622 C 0.39397 0.75507 0.21247 0.0
C1623 C 0.37763 0.75957 0.24799 0.0
C1624 C 0.39337 0.7472 0.1927 0.0
C1625 C 0.37585 0.73622 0.18629 0.0
C1626 C 0.37723 0.75163 0.22647 0.0
C1627 C 0.35942 0.73315 0.20076 0.0
C1628 C 0.36551 0.7518 0.26412 0.0
C1629 C 0.39098 0.7823 0.27159 0.0
N1630 N 0.36056 0.74068 0.22007 0.0
N1631 N 0.38998 0.77457 0.25238 0.0
H1632 H 0.70365 0.26752 0.90466 0.0
H1633 H 0.80921 0.24318 0.84182 0.0
H1634 H 0.70369 0.26853 0.83795 0.0
H1635 H 0.79472 0.21661 0.89988 0.0
H1636 H 0.77308 0.2572 0.8415 0.0
H1637 H 0.73954 0.25322 0.90481 0.0
C1638 C 0.71123 0.2647 0.89005 0.0
C1639 C 0.70073 0.26929 0.87127 0.0
C1640 C 0.77791 0.24841 0.85438 0.0
C1641 C 0.74196 0.25333 0.87132 0.0
C1642 C 0.79851 0.2405 0.85461 0.0
C1643 C 0.80516 0.22906 0.87112 0.0
C1644 C 0.76393 0.24505 0.87093 0.0
C1645 C 0.79051 0.22576 0.88714 0.0
C1646 C 0.73168 0.25658 0.89015 0.0
C1647 C 0.71132 0.26538 0.85277 0.0
N1648 N 0.77071 0.23384 0.88676 0.0
N1649 N 0.73142 0.25782 0.85325 0.0
H1650 H 0.80004 0.28243 0.60579 0.0
H1651 H 0.68964 0.25604 0.66302 0.0
H1652 H 0.7905 0.29043 0.67089 0.0
H1653 H 0.7004 0.24692 0.59831 0.0
H1654 H 0.72585 0.26967 0.66614 0.0
H1655 H 0.76321 0.27029 0.60259 0.0
C1656 C 0.79013 0.28154 0.61942 0.0
C1657 C 0.79834 0.28721 0.63868 0.0
C1658 C 0.7203 0.26478 0.65122 0.0
C1659 C 0.75601 0.27349 0.63517 0.0
C1660 C 0.69963 0.25706 0.64945 0.0
C1661 C 0.69207 0.2504 0.63038 0.0
C1662 C 0.73357 0.26587 0.63378 0.0
C1663 C 0.70563 0.25197 0.61326 0.0
C1664 C 0.76909 0.27466 0.61761 0.0
C1665 C 0.78478 0.28604 0.65582 0.0
N1666 N 0.72569 0.25948 0.61537 0.0
N1667 N 0.76433 0.27928 0.65369 0.0
H1668 H 0.759 0.28754 0.10026 0.0
H1669 H 0.75735 0.18742 0.1532 0.0
H1670 H 0.7202 0.27387 0.15312 0.0
H1671 H 0.78815 0.19951 0.09535 0.0
H1672 H 0.74457 0.21921 0.15429 0.0
H1673 H 0.77109 0.25576 0.09914 0.0
C1674 C 0.75306 0.2779 0.1117 0.0
C1675 C 0.73852 0.28353 0.12682 0.0
C1676 C 0.75419 0.21495 0.14138 0.0
C1677 C 0.75233 0.24686 0.12557 0.0
C1678 C 0.76151 0.19684 0.1408 0.0
C1679 C 0.77419 0.19096 0.1244 0.0
C1680 C 0.75956 0.22733 0.12538 0.0
C1681 C 0.77882 0.2036 0.10851 0.0
C1682 C 0.75989 0.25968 0.11097 0.0
C1683 C 0.73121 0.27022 0.14102 0.0
N1684 N 0.77164 0.22116 0.10946 0.0
N1685 N 0.73824 0.2526 0.1401 0.0
H1686 H 0.73831 0.29868 0.37821 0.0
H1687 H 0.77416 0.19415 0.3914 0.0
H1688 H 0.80298 0.28301 0.39651 0.0
H1689 H 0.7076 0.21156 0.39144 0.0
H1690 H 0.78539 0.2262 0.39141 0.0
H1691 H 0.72721 0.26662 0.38062 0.0
C1692 C 0.75021 0.2885 0.38271 0.0
C1693 C 0.77166 0.29363 0.38711 0.0
C1694 C 0.76833 0.22298 0.39148 0.0
C1695 C 0.75899 0.25667 0.38984 0.0
C1696 C 0.76183 0.2046 0.39161 0.0
C1697 C 0.73977 0.19985 0.39135 0.0
C1698 C 0.75274 0.2369 0.39086 0.0
C1699 C 0.72475 0.21429 0.39119 0.0
C1700 C 0.74382 0.27017 0.38419 0.0
C1701 C 0.78625 0.27976 0.39311 0.0
N1702 N 0.73149 0.23204 0.39083 0.0
N1703 N 0.77971 0.26195 0.39414 0.0
H1704 H 0.18208 0.53947 0.61366 0.0
H1705 H 0.11041 0.47404 0.68477 0.0
H1706 H 0.142 0.55979 0.66233 0.0
H1707 H 0.1671 0.45581 0.65298 0.0
H1708 H 0.11791 0.50526 0.67298 0.0
H1709 H 0.1726 0.50832 0.62398 0.0
C1710 C 0.17133 0.53745 0.62653 0.0
C1711 C 0.16302 0.55241 0.63723 0.0
C1712 C 0.12863 0.49437 0.66857 0.0
C1713 C 0.15177 0.51664 0.64884 0.0
C1714 C 0.12446 0.47653 0.6754 0.0
C1715 C 0.13813 0.46212 0.66993 0.0
C1716 C 0.14647 0.49786 0.656 0.0
C1717 C 0.15582 0.46629 0.65734 0.0
C1718 C 0.16585 0.51963 0.63234 0.0
C1719 C 0.14866 0.54879 0.65343 0.0
N1720 N 0.15944 0.48373 0.6508 0.0
N1721 N 0.14352 0.5313 0.65876 0.0
H1722 H 0.48828 0.68541 0.09813 0.0
H1723 H 0.56863 0.65858 0.19102 0.0
H1724 H 0.47165 0.68931 0.16272 0.0
H1725 H 0.56737 0.62837 0.1342 0.0
H1726 H 0.53784 0.67668 0.17817 0.0
H1727 H 0.52217 0.67054 0.10876 0.0
C1728 C 0.49166 0.68329 0.11448 0.0
C1729 C 0.47687 0.68875 0.12949 0.0
C1730 C 0.54446 0.66622 0.16844 0.0
C1731 C 0.51587 0.67226 0.14159 0.0
C1732 C 0.56193 0.65596 0.17573 0.0
C1733 C 0.5704 0.64211 0.16356 0.0
C1734 C 0.53557 0.66269 0.14877 0.0
C1735 C 0.56129 0.6391 0.14388 0.0
C1736 C 0.51106 0.67489 0.12047 0.0
C1737 C 0.48255 0.68588 0.15047 0.0
N1738 N 0.54429 0.64936 0.13702 0.0
N1739 N 0.50157 0.6779 0.15586 0.0
H1740 H 0.3454 0.95917 0.68263 0.0
H1741 H 0.35907 0.05931 0.63304 0.0
H1742 H 0.32563 0.97266 0.61985 0.0
H1743 H 0.36704 0.04646 0.6982 0.0
H1744 H 0.35002 0.02723 0.62677 0.0
H1745 H 0.35704 0.99066 0.68735 0.0
C1746 C 0.34343 0.96877 0.66983 0.0
C1747 C 0.33425 0.96328 0.65089 0.0
C1748 C 0.35385 0.03147 0.64241 0.0
C1749 C 0.34784 0.99945 0.65614 0.0
C1750 C 0.35893 0.0498 0.64603 0.0
C1751 C 0.3639 0.05567 0.66619 0.0
C1752 C 0.3538 0.01891 0.65905 0.0
C1753 C 0.36374 0.04261 0.68234 0.0
C1754 C 0.35018 0.98676 0.67251 0.0
C1755 C 0.33268 0.97626 0.63469 0.0
N1756 N 0.35876 0.02491 0.67841 0.0
N1757 N 0.3393 0.99378 0.63772 0.0
H1758 H 0.04978 0.87887 0.142 0.0
H1759 H 0.93182 0.8521 0.1817 0.0
H1760 H 0.03278 0.82666 0.16906 0.0
H1761 H 0.94893 0.90703 0.1637 0.0
H1762 H 0.9686 0.84222 0.17453 0.0
H1763 H 0.01267 0.88939 0.14746 0.0
C1764 C 0.03829 0.86968 0.14913 0.0
C1765 C 0.04444 0.85197 0.15535 0.0
C1766 C 0.9644 0.85645 0.1721 0.0
C1767 C 0.00217 0.86377 0.16145 0.0
C1768 C 0.94345 0.86201 0.17613 0.0
C1769 C 0.93766 0.88031 0.17328 0.0
C1770 C 0.97962 0.86933 0.16514 0.0
C1771 C 0.95306 0.89278 0.16606 0.0
C1772 C 0.01718 0.87568 0.15227 0.0
C1773 C 0.02892 0.84056 0.16446 0.0
N1774 N 0.97346 0.88707 0.16224 0.0
N1775 N 0.00856 0.84665 0.16719 0.0
H1776 H 0.194 0.96447 0.85952 0.0
H1777 H 0.12162 0.05236 0.87265 0.0
H1778 H 0.1331 0.95944 0.89062 0.0
H1779 H 0.1592 0.04182 0.81836 0.0
H1780 H 0.12834 0.02077 0.88455 0.0
H1781 H 0.18535 0.99599 0.85055 0.0
C1782 C 0.17875 0.96997 0.86446 0.0
C1783 C 0.16399 0.95908 0.87536 0.0
C1784 C 0.13502 0.02551 0.87004 0.0
C1785 C 0.15421 0.99548 0.86544 0.0
C1786 C 0.13113 0.04347 0.86315 0.0
C1787 C 0.14017 0.04998 0.84459 0.0
C1788 C 0.14828 0.01416 0.85844 0.0
C1789 C 0.15247 0.03777 0.83307 0.0
C1790 C 0.17387 0.98801 0.85936 0.0
C1791 C 0.14487 0.9673 0.88206 0.0
N1792 N 0.15633 0.0206 0.84029 0.0
N1793 N 0.14043 0.98505 0.87689 0.0
H1794 H 0.93489 0.60949 0.34951 0.0
H1795 H 0.01751 0.69193 0.36493 0.0
H1796 H 0.91974 0.66634 0.33915 0.0
H1797 H 0.03518 0.63577 0.37671 0.0
H1798 H 0.97995 0.68268 0.36082 0.0
H1799 H 0.96999 0.6185 0.36468 0.0
C1800 C 0.9388 0.62385 0.35099 0.0
C1801 C 0.92454 0.63725 0.34334 0.0
C1802 C 0.99191 0.67231 0.36448 0.0
C1803 C 0.96436 0.64762 0.36016 0.0
C1804 C 0.01334 0.67761 0.36677 0.0
C1805 C 0.02934 0.66452 0.37082 0.0
C1806 C 0.98644 0.65371 0.36591 0.0
C1807 C 0.0232 0.6462 0.37344 0.0
C1808 C 0.95877 0.62899 0.35951 0.0
C1809 C 0.93028 0.65566 0.34516 0.0
N1810 N 0.00218 0.64125 0.3706 0.0
N1811 N 0.9498 0.66029 0.35324 0.0
H1812 H 0.35485 0.55928 0.83268 0.0
H1813 H 0.36761 0.45733 0.87762 0.0
H1814 H 0.33603 0.54357 0.89444 0.0
H1815 H 0.37702 0.473 0.81369 0.0
H1816 H 0.35969 0.48924 0.88547 0.0
H1817 H 0.36721 0.52822 0.82702 0.0
C1818 C 0.35334 0.54927 0.84508 0.0
C1819 C 0.34411 0.55397 0.86396 0.0
C1820 C 0.36363 0.48566 0.86977 0.0
C1821 C 0.35838 0.51828 0.85763 0.0
C1822 C 0.36805 0.46744 0.86524 0.0
C1823 C 0.37299 0.4624 0.84494 0.0
C1824 C 0.36416 0.49895 0.85389 0.0
C1825 C 0.37364 0.47619 0.82962 0.0
C1826 C 0.36047 0.53153 0.84186 0.0
C1827 C 0.34307 0.54054 0.87966 0.0
N1828 N 0.36922 0.49376 0.83441 0.0
N1829 N 0.34995 0.52324 0.87608 0.0
H1830 H 0.46287 0.82518 0.40987 0.0
H1831 H 0.5614 0.86292 0.38085 0.0
H1832 H 0.45749 0.8106 0.34564 0.0
H1833 H 0.55888 0.82525 0.33023 0.0
H1834 H 0.52634 0.8517 0.39227 0.0
H1835 H 0.5012 0.83226 0.40511 0.0
C1836 C 0.46995 0.82342 0.39481 0.0
C1837 C 0.4573 0.81743 0.37807 0.0
C1838 C 0.53368 0.84537 0.3791 0.0
C1839 C 0.50062 0.826 0.37222 0.0
C1840 C 0.5537 0.85181 0.3726 0.0
C1841 C 0.56314 0.84459 0.35496 0.0
C1842 C 0.52295 0.83178 0.36764 0.0
C1843 C 0.55218 0.83085 0.34415 0.0
C1844 C 0.49169 0.82765 0.39199 0.0
C1845 C 0.46692 0.81524 0.35883 0.0
N1846 N 0.53255 0.82499 0.35056 0.0
N1847 N 0.48805 0.81958 0.3564 0.0
H1848 H 0.66673 0.20457 0.52845 0.0
H1849 H 0.6626 0.11427 0.46002 0.0
H1850 H 0.64015 0.15331 0.54996 0.0
H1851 H 0.69553 0.16361 0.4417 0.0
H1852 H 0.65237 0.12882 0.49243 0.0
H1853 H 0.67603 0.19021 0.49592 0.0
C1854 C 0.66286 0.19028 0.52629 0.0
C1855 C 0.65262 0.1801 0.54185 0.0
C1856 C 0.66176 0.13651 0.48132 0.0
C1857 C 0.66323 0.16358 0.50475 0.0
C1858 C 0.66744 0.12826 0.46289 0.0
C1859 C 0.67973 0.13793 0.44846 0.0
C1860 C 0.66848 0.15452 0.48516 0.0
C1861 C 0.68592 0.15589 0.45261 0.0
C1862 C 0.66822 0.18207 0.50776 0.0
C1863 C 0.64822 0.16158 0.53841 0.0
N1864 N 0.68022 0.16366 0.47067 0.0
N1865 N 0.65348 0.15391 0.52015 0.0
H1866 H 0.78504 0.12359 0.01902 0.0
H1867 H 0.88089 0.13308 0.94456 0.0
H1868 H 0.84873 0.10467 0.03647 0.0
H1869 H 0.81521 0.12881 0.92159 0.0
H1870 H 0.86986 0.11933 0.97717 0.0
H1871 H 0.79533 0.12318 0.98262 0.0
C1872 C 0.80111 0.11913 0.01509 0.0
C1873 C 0.81618 0.11438 0.03064 0.0
C1874 C 0.85794 0.121 0.96482 0.0
C1875 C 0.82812 0.11402 0.98926 0.0
C1876 C 0.86427 0.12876 0.94606 0.0
C1877 C 0.84884 0.13259 0.93042 0.0
C1878 C 0.83601 0.11739 0.9681 0.0
C1879 C 0.82751 0.12673 0.93348 0.0
C1880 C 0.80693 0.11875 0.99437 0.0
C1881 C 0.8367 0.10848 0.02486 0.0
N1882 N 0.8216 0.11986 0.95217 0.0
N1883 N 0.84224 0.10881 0.00461 0.0
H1884 H 0.82802 0.33612 0.54658 0.0
H1885 H 0.86482 0.38751 0.4472 0.0
H1886 H 0.89586 0.33295 0.53218 0.0
H1887 H 0.81179 0.34925 0.44549 0.0
H1888 H 0.87614 0.37443 0.48121 0.0
H1889 H 0.82079 0.34828 0.51204 0.0
C1890 C 0.84143 0.3377 0.53618 0.0
C1891 C 0.86259 0.33304 0.54232 0.0
C1892 C 0.86215 0.36893 0.47315 0.0
C1893 C 0.85431 0.34792 0.50306 0.0
C1894 C 0.8557 0.37635 0.45396 0.0
C1895 C 0.83733 0.36947 0.44377 0.0
C1896 C 0.84971 0.35499 0.48213 0.0
C1897 C 0.82596 0.35501 0.45297 0.0
C1898 C 0.83724 0.34487 0.51654 0.0
C1899 C 0.87931 0.33638 0.52825 0.0
N1900 N 0.83214 0.34842 0.4718 0.0
N1901 N 0.87483 0.34373 0.5092 0.0
H1902 H 0.65836 0.35893 0.95583 0.0
H1903 H 0.71264 0.32929 0.0643 0.0
H1904 H 0.68703 0.30607 0.96787 0.0
H1905 H 0.68169 0.38119 0.05304 0.0
H1906 H 0.70692 0.32169 0.02772 0.0
H1907 H 0.67076 0.36878 0.99001 0.0
C1908 C 0.66756 0.34951 0.96556 0.0
C1909 C 0.67148 0.33161 0.95918 0.0
C1910 C 0.70144 0.33478 0.03319 0.0
C1911 C 0.6854 0.34264 0.9983 0.0
C1912 C 0.70467 0.33903 0.05397 0.0
C1913 C 0.69731 0.35569 0.06136 0.0
C1914 C 0.69079 0.34734 0.01992 0.0
C1915 C 0.6873 0.3681 0.04767 0.0
C1916 C 0.6745 0.35508 0.98511 0.0
C1917 C 0.68332 0.31988 0.97241 0.0
N1918 N 0.68418 0.36363 0.02754 0.0
N1919 N 0.68972 0.32556 0.99144 0.0
H1920 H 0.88122 0.5412 0.32683 0.0
H1921 H 0.79086 0.46638 0.35426 0.0
H1922 H 0.8136 0.55388 0.33203 0.0
H1923 H 0.85925 0.45563 0.35934 0.0
H1924 H 0.79886 0.49806 0.34491 0.0
H1925 H 0.87347 0.50954 0.33711 0.0
C1926 C 0.86472 0.53735 0.33007 0.0
C1927 C 0.84806 0.55036 0.32855 0.0
C1928 C 0.81213 0.48879 0.34811 0.0
C1929 C 0.83904 0.51393 0.34041 0.0
C1930 C 0.80759 0.47062 0.35363 0.0
C1931 C 0.82436 0.45807 0.35777 0.0
C1932 C 0.83366 0.49464 0.34652 0.0
C1933 C 0.84569 0.46456 0.35608 0.0
C1934 C 0.86032 0.51925 0.33606 0.0
C1935 C 0.82704 0.54448 0.33322 0.0
N1936 N 0.84969 0.4823 0.35058 0.0
N1937 N 0.82314 0.52676 0.33882 0.0
H1938 H 0.45365 0.33956 0.81925 0.0
H1939 H 0.55689 0.35176 0.89514 0.0
H1940 H 0.45891 0.38187 0.86471 0.0
H1941 H 0.55139 0.30906 0.85017 0.0
H1942 H 0.52066 0.36254 0.88491 0.0
H1943 H 0.48905 0.32778 0.83073 0.0
C1944 C 0.4623 0.34629 0.83173 0.0
C1945 C 0.45338 0.36158 0.84118 0.0
C1946 C 0.52728 0.35077 0.8773 0.0
C1947 C 0.4939 0.34832 0.85438 0.0
C1948 C 0.54791 0.34463 0.88318 0.0
C1949 C 0.55702 0.32958 0.87342 0.0
C1950 C 0.51566 0.34177 0.86152 0.0
C1951 C 0.54484 0.32074 0.85803 0.0
C1952 C 0.48247 0.33959 0.83828 0.0
C1953 C 0.46522 0.36994 0.85717 0.0
N1954 N 0.52483 0.327 0.8525 0.0
N1955 N 0.48484 0.36322 0.86326 0.0
H1956 H 0.67921 0.02758 0.40123 0.0
H1957 H 0.65277 0.95492 0.31257 0.0
H1958 H 0.67794 0.04066 0.33583 0.0
H1959 H 0.64288 0.94324 0.37735 0.0
H1960 H 0.66274 0.98621 0.32118 0.0
H1961 H 0.66645 0.99671 0.39327 0.0
C1962 C 0.67615 0.02408 0.38521 0.0
C1963 C 0.67988 0.0369 0.3692 0.0
C1964 C 0.65832 0.97687 0.33356 0.0
C1965 C 0.66546 1.00131 0.35997 0.0
C1966 C 0.6527 0.95893 0.32865 0.0
C1967 C 0.6471 0.94632 0.34426 0.0
C1968 C 0.65858 0.9824 0.35432 0.0
C1969 C 0.64698 0.95248 0.36479 0.0
C1970 C 0.66893 0.00637 0.38068 0.0
C1971 C 0.67582 0.03129 0.34874 0.0
N1972 N 0.6528 0.97002 0.36924 0.0
N1973 N 0.66895 0.014 0.34476 0.0
H1974 H 0.05352 0.12922 0.85866 0.0
H1975 H 0.95575 0.19846 0.83264 0.0
H1976 H 0.05681 0.17115 0.81142 0.0
H1977 H 0.95429 0.15785 0.88144 0.0
H1978 H 0.99277 0.18903 0.82466 0.0
H1979 H 0.01727 0.13974 0.86736 0.0
C1980 C 0.04663 0.1408 0.8503 0.0
C1981 C 0.05828 0.1496 0.83461 0.0
C1982 C 0.98444 0.18226 0.83722 0.0
C1983 C 0.01658 0.16154 0.84413 0.0
C1984 C 0.96338 0.18768 0.84179 0.0
C1985 C 0.9522 0.17912 0.85794 0.0
C1986 C 0.99432 0.16802 0.84878 0.0
C1987 C 0.96256 0.16499 0.86911 0.0
C1988 C 0.02591 0.14677 0.85518 0.0
C1989 C 0.04843 0.1642 0.82383 0.0
N1990 N 0.98299 0.1599 0.86433 0.0
N1991 N 0.02818 0.16974 0.82879 0.0
H1992 H 0.83474 0.05763 0.11879 0.0
H1993 H 0.82918 0.97614 0.20328 0.0
H1994 H 0.80454 0.06314 0.1779 0.0
H1995 H 0.85751 0.97048 0.14313 0.0
H1996 H 0.82085 0.00804 0.19478 0.0
H1997 H 0.84388 0.02586 0.12779 0.0
C1998 C 0.83021 0.05212 0.13376 0.0
C1999 C 0.81916 0.06302 0.14777 0.0
C2000 C 0.82889 0.99983 0.18343 0.0
C2001 C 0.82927 0.02658 0.15815 0.0
C2002 C 0.8338 0.98158 0.18832 0.0
C2003 C 0.84414 0.97044 0.17394 0.0
C2004 C 0.83435 0.00717 0.16398 0.0
C2005 C 0.84931 0.97835 0.15466 0.0
C2006 C 0.83534 0.03398 0.13888 0.0
C2007 C 0.81328 0.05519 0.1668 0.0
N2008 N 0.84441 0.99615 0.1503 0.0
N2009 N 0.81843 0.03747 0.17145 0.0
H2010 H 0.06125 0.339 0.67647 0.0
H2011 H 0.93659 0.3465 0.68191 0.0
H2012 H 0.03592 0.39314 0.68494 0.0
H2013 H 0.96315 0.32872 0.62434 0.0
H2014 H 0.9726 0.35809 0.69227 0.0
H2015 H 0.02488 0.3286 0.66602 0.0
C2016 C 0.04801 0.34864 0.6763 0.0
C2017 C 0.05158 0.36692 0.68179 0.0
C2018 C 0.97044 0.35148 0.67747 0.0
C2019 C 0.01003 0.35498 0.67051 0.0
C2020 C 0.95003 0.34486 0.67158 0.0
C2021 C 0.94703 0.3361 0.65253 0.0
C2022 C 0.98801 0.34896 0.6644 0.0
C2023 C 0.9649 0.33469 0.63952 0.0
C2024 C 0.02736 0.3427 0.67037 0.0
C2025 C 0.03381 0.37886 0.68123 0.0
N2026 N 0.98471 0.34072 0.64584 0.0
N2027 N 0.01372 0.37264 0.67597 0.0
H2028 H 0.66635 0.43961 0.18091 0.0
H2029 H 0.65838 0.54386 0.14156 0.0
H2030 H 0.69053 0.45803 0.12189 0.0
H2031 H 0.64321 0.52564 0.2035 0.0
H2032 H 0.66833 0.5125 0.13312 0.0
H2033 H 0.65571 0.47083 0.18833 0.0
C2034 C 0.66956 0.4502 0.16951 0.0
C2035 C 0.67963 0.44605 0.15079 0.0
C2036 C 0.66278 0.51538 0.14854 0.0
C2037 C 0.66703 0.48212 0.15916 0.0
C2038 C 0.65718 0.53335 0.15344 0.0
C2039 C 0.64985 0.53757 0.17332 0.0
C2040 C 0.66102 0.50142 0.16358 0.0
C2041 C 0.64836 0.52315 0.18787 0.0
C2042 C 0.66334 0.46809 0.17374 0.0
C2043 C 0.68273 0.46045 0.13646 0.0
N2044 N 0.65388 0.50583 0.18272 0.0
N2045 N 0.67653 0.4778 0.14097 0.0
H2046 H 0.45005 0.13643 0.63965 0.0
H2047 H 0.54351 0.2122 0.65262 0.0
H2048 H 0.44817 0.1792 0.68466 0.0
H2049 H 0.54548 0.16916 0.60795 0.0
H2050 H 0.50795 0.20116 0.66369 0.0
H2051 H 0.48442 0.14873 0.62706 0.0
C2052 C 0.4569 0.14849 0.64677 0.0
C2053 C 0.44627 0.15693 0.66307 0.0
C2054 C 0.51606 0.19416 0.65138 0.0
C2055 C 0.48565 0.17106 0.64893 0.0
C2056 C 0.53627 0.20052 0.64503 0.0
C2057 C 0.5473 0.19155 0.62938 0.0
C2058 C 0.5068 0.17869 0.64199 0.0
C2059 C 0.5374 0.17642 0.62007 0.0
C2060 C 0.4765 0.15551 0.63964 0.0
C2061 C 0.45587 0.17239 0.67198 0.0
N2062 N 0.51777 0.17043 0.62655 0.0
N2063 N 0.47498 0.17896 0.66481 0.0
H2064 H 0.37268 0.81446 0.48818 0.0
H2065 H 0.32096 0.8936 0.55585 0.0
H2066 H 0.33966 0.8607 0.46002 0.0
H2067 H 0.32895 0.83866 0.57934 0.0
H2068 H 0.33192 0.88337 0.52149 0.0
H2069 H 0.36096 0.82448 0.52201 0.0
C2070 C 0.36287 0.82663 0.48879 0.0
C2071 C 0.35719 0.83649 0.47052 0.0
C2072 C 0.33113 0.8735 0.5341 0.0
C2073 C 0.34418 0.84851 0.51025 0.0
C2074 C 0.32468 0.87931 0.55375 0.0
C2075 C 0.32326 0.86688 0.57052 0.0
C2076 C 0.33695 0.85516 0.5311 0.0
C2077 C 0.3294 0.8487 0.56688 0.0
C2078 C 0.35629 0.83242 0.5084 0.0
C2079 C 0.34494 0.85256 0.47323 0.0
N2080 N 0.33598 0.84343 0.54772 0.0
N2081 N 0.33901 0.85802 0.49252 0.0
H2082 H 0.10688 0.84237 0.05593 0.0
H2083 H 0.14051 0.87996 0.96148 0.0
H2084 H 0.16741 0.81369 0.05797 0.0
H2085 H 0.18925 0.83822 0.96195 0.0
H2086 H 0.12954 0.86989 0.99593 0.0
H2087 H 0.11505 0.85372 0.02121 0.0
C2088 C 0.1219 0.83837 0.04897 0.0
C2089 C 0.13627 0.82677 0.05988 0.0
C2090 C 0.14235 0.86254 0.98858 0.0
C2091 C 0.14654 0.84056 0.01983 0.0
C2092 C 0.14872 0.86845 0.96878 0.0
C2093 C 0.16552 0.8597 0.95849 0.0
C2094 C 0.15285 0.84764 0.99854 0.0
C2095 C 0.17599 0.84522 0.9691 0.0
C2096 C 0.12682 0.84513 0.02909 0.0
C2097 C 0.15572 0.82243 0.05011 0.0
N2098 N 0.1695 0.83966 0.98839 0.0
N2099 N 0.16021 0.82923 0.03076 0.0
H2100 H 0.1961 0.67056 0.54909 0.0
H2101 H 0.12037 0.65504 0.44766 0.0
H2102 H 0.14668 0.62929 0.5457 0.0
H2103 H 0.16587 0.69931 0.45263 0.0
H2104 H 0.13039 0.64499 0.48303 0.0
H2105 H 0.18619 0.68076 0.51368 0.0
C2106 C 0.18314 0.66365 0.54088 0.0
C2107 C 0.17213 0.64912 0.5505 0.0
C2108 C 0.13827 0.65689 0.47646 0.0
C2109 C 0.16064 0.66068 0.50966 0.0
C2110 C 0.13256 0.66261 0.4562 0.0
C2111 C 0.14246 0.67794 0.44703 0.0
C2112 C 0.15405 0.66654 0.48788 0.0
C2113 C 0.15795 0.68734 0.45899 0.0
C2114 C 0.17745 0.66949 0.52063 0.0
C2115 C 0.15551 0.64063 0.539 0.0
N2116 N 0.1633 0.68149 0.47865 0.0
N2117 N 0.15032 0.6465 0.51933 0.0
H2118 H 0.38899 0.66251 0.04215 0.0
H2119 H 0.30218 0.66897 0.94746 0.0
H2120 H 0.33232 0.6963 0.0437 0.0
H2121 H 0.35631 0.63223 0.94848 0.0
H2122 H 0.31283 0.67933 0.98234 0.0
H2123 H 0.37747 0.65155 0.00789 0.0
C2124 C 0.37394 0.66743 0.03542 0.0
C2125 C 0.36137 0.68005 0.04616 0.0
C2126 C 0.32246 0.66905 0.97495 0.0
C2127 C 0.34822 0.66786 0.00631 0.0
C2128 C 0.31637 0.66314 0.95499 0.0
C2129 C 0.32858 0.64996 0.94476 0.0
C2130 C 0.34093 0.6617 0.985 0.0
C2131 C 0.34666 0.6427 0.9555 0.0
C2132 C 0.36741 0.66126 0.01572 0.0
C2133 C 0.34238 0.68639 0.03619 0.0
N2134 N 0.3523 0.64869 0.97484 0.0
N2135 N 0.3364 0.68026 0.01697 0.0
loop_
_geom_bond_atom_site_label_1
_geom_bond_atom_site_label_2
_geom_bond_distance
_geom_bond_site_symmetry_2
_ccdc_geom_bond_type
C0 C1 1.443 . S
C0 N4 1.376 . S
C0 C38 1.389 . S
C1 C0 1.443 . S
C1 C2 1.340 . S
C1 H41 0.951 . S
C2 C1 1.340 . S
C2 C3 1.439 . S
C2 H42 0.950 . S
C3 C2 1.439 . S
C3 N4 1.374 . S
C3 C37 1.395 . S
N4 C0 1.376 . S
N4 C3 1.374 . S
N4 Co5 2.008 . S
Co5 N4 2.008 . S
Co5 N6 1.995 . S
Co5 N11 2.008 . S
Co5 N16 1.995 . S
Co5 N21 2.282 . S
Co5 N27 2.282 . S
N6 Co5 1.995 . S
N6 C7 1.376 . S
N6 C10 1.383 . S
C7 N6 1.376 . S
C7 C8 1.446 . S
C7 C37 1.391 . S
C8 C7 1.446 . S
C8 C9 1.339 . S
C8 H43 0.949 . S
C9 C8 1.339 . S
C9 C10 1.439 . S
C9 H44 0.950 . S
C10 N6 1.383 . S
C10 C9 1.439 . S
C10 C39 1.392 . S
N11 Co5 2.008 . S
N11 C12 1.376 . S
N11 C15 1.374 . S
C12 N11 1.376 . S
C12 C13 1.443 . S
C12 C39 1.389 . S
C13 C12 1.443 . S
C13 C14 1.340 . S
C13 H45 0.951 . S
C14 C13 1.340 . S
C14 C15 1.439 . S
C14 H46 0.950 . S
C15 N11 1.374 . S
C15 C14 1.439 . S
C15 C40 1.395 . S
N16 Co5 1.995 . S
N16 C17 1.376 . S
N16 C20 1.383 . S
C17 N16 1.376 . S
C17 C18 1.446 . S
C17 C40 1.391 . S
C18 C17 1.446 . S
C18 C19 1.339 . S
C18 H47 0.949 . S
C19 C18 1.339 . S
C19 C20 1.439 . S
C19 H48 0.950 . S
C20 N16 1.383 . S
C20 C19 1.439 . S
C20 C38 1.392 . S
N21 Co5 2.282 . S
N21 C24 1.332 . S
N21 C26 1.332 . S
C22 C23 1.386 . S
C22 C25 1.388 . S
C23 C22 1.386 . S
C23 C24 1.382 . S
C23 H49 0.950 . S
C24 N21 1.332 . S
C24 C23 1.382 . S
C24 H35 0.952 . S
C25 C22 1.388 . S
C25 C26 1.382 . S
C25 H50 0.950 . S
C26 N21 1.332 . S
C26 C25 1.382 . S
C26 H36 0.948 . S
N27 Co5 2.282 . S
N27 C31 1.332 . S
N27 C32 1.332 . S
C28 C29 1.388 . S
C28 C32 1.382 . S
C28 H51 0.950 . S
C29 C28 1.388 . S
C29 C30 1.386 . S
C30 C29 1.386 . S
C30 C31 1.382 . S
C30 H52 0.950 . S
C31 N27 1.332 . S
C31 C30 1.382 . S
C31 H33 0.952 . S
C32 N27 1.332 . S
C32 C28 1.382 . S
C32 H34 0.948 . S
H33 C31 0.952 . S
H34 C32 0.948 . S
H35 C24 0.952 . S
H36 C26 0.948 . S
C37 C3 1.395 . S
C37 C7 1.391 . S
C38 C0 1.389 . S
C38 C20 1.392 . S
C39 C10 1.392 . S
C39 C12 1.389 . S
C40 C15 1.395 . S
C40 C17 1.391 . S
H41 C1 0.951 . S
H42 C2 0.950 . S
H43 C8 0.949 . S
H44 C9 0.950 . S
H45 C13 0.951 . S
H46 C14 0.950 . S
H47 C18 0.949 . S
H48 C19 0.950 . S
H49 C23 0.950 . S
H50 C25 0.950 . S
H51 C28 0.950 . S
H52 C30 0.950 . S
C53 C54 1.443 . S
C53 N57 1.376 . S
C53 C91 1.389 . S
C54 C53 1.443 . S
C54 C55 1.340 . S
C54 H94 0.951 . S
C55 C54 1.340 . S
C55 C56 1.439 . S
C55 H95 0.950 . S
C56 C55 1.439 . S
C56 N57 1.374 . S
C56 C90 1.395 . S
N57 C53 1.376 . S
N57 C56 1.374 . S
N57 Co58 2.008 . S
Co58 N57 2.008 . S
Co58 N59 1.995 . S
Co58 N64 2.008 . S
Co58 N69 1.995 . S
Co58 N74 2.282 . S
Co58 N80 2.282 . S
N59 Co58 1.995 . S
N59 C60 1.376 . S
N59 C63 1.383 . S
C60 N59 1.376 . S
C60 C61 1.446 . S
C60 C90 1.391 . S
C61 C60 1.446 . S
C61 C62 1.339 . S
C61 H96 0.949 . S
C62 C61 1.339 . S
C62 C63 1.439 . S
C62 H97 0.950 . S
C63 N59 1.383 . S
C63 C62 1.439 . S
C63 C92 1.392 . S
N64 Co58 2.008 . S
N64 C65 1.376 . S
N64 C68 1.374 . S
C65 N64 1.376 . S
C65 C66 1.443 . S
C65 C92 1.389 . S
C66 C65 1.443 . S
C66 C67 1.340 . S
C66 H98 0.951 . S
C67 C66 1.340 . S
C67 C68 1.439 . S
C67 H99 0.950 . S
C68 N64 1.374 . S
C68 C67 1.439 . S
C68 C93 1.395 . S
N69 Co58 1.995 . S
N69 C70 1.376 . S
N69 C73 1.383 . S
C70 N69 1.376 . S
C70 C71 1.446 . S
C70 C93 1.391 . S
C71 C70 1.446 . S
C71 C72 1.339 . S
C71 H100 0.949 . S
C72 C71 1.339 . S
C72 C73 1.439 . S
C72 H101 0.950 . S
C73 N69 1.383 . S
C73 C72 1.439 . S
C73 C91 1.392 . S
N74 Co58 2.282 . S
N74 C77 1.332 . S
N74 C79 1.332 . S
C75 C76 1.386 . S
C75 C78 1.388 . S
C76 C75 1.386 . S
C76 C77 1.382 . S
C76 H102 0.950 . S
C77 N74 1.332 . S
C77 C76 1.382 . S
C77 H88 0.952 . S
C78 C75 1.388 . S
C78 C79 1.382 . S
C78 H103 0.950 . S
C79 N74 1.332 . S
C79 C78 1.382 . S
C79 H89 0.948 . S
N80 Co58 2.282 . S
N80 C84 1.332 . S
N80 C85 1.332 . S
C81 C82 1.388 . S
C81 C85 1.382 . S
C81 H104 0.950 . S
C82 C81 1.388 . S
C82 C83 1.386 . S
C83 C82 1.386 . S
C83 C84 1.382 . S
C83 H105 0.950 . S
C84 N80 1.332 . S
C84 C83 1.382 . S
C84 H86 0.952 . S
C85 N80 1.332 . S
C85 C81 1.382 . S
C85 H87 0.948 . S
H86 C84 0.952 . S
H87 C85 0.948 . S
H88 C77 0.952 . S
H89 C79 0.948 . S
C90 C56 1.395 . S
C90 C60 1.391 . S
C91 C53 1.389 . S
C91 C73 1.392 . S
C92 C63 1.392 . S
C92 C65 1.389 . S
C93 C68 1.395 . S
C93 C70 1.391 . S
H94 C54 0.951 . S
H95 C55 0.950 . S
H96 C61 0.949 . S
H97 C62 0.950 . S
H98 C66 0.951 . S
H99 C67 0.950 . S
H100 C71 0.949 . S
H101 C72 0.950 . S
H102 C76 0.950 . S
H103 C78 0.950 . S
H104 C81 0.950 . S
H105 C83 0.950 . S
C106 C107 1.443 . S
C106 N110 1.376 . S
C106 C144 1.389 . S
C107 C106 1.443 . S
C107 C108 1.340 . S
C107 H147 0.951 . S
C108 C107 1.340 . S
C108 C109 1.439 . S
C108 H148 0.950 . S
C109 C108 1.439 . S
C109 N110 1.374 . S
C109 C143 1.395 . S
N110 C106 1.376 . S
N110 C109 1.374 . S
N110 Co111 2.008 . S
Co111 N110 2.008 . S
Co111 N112 1.995 . S
Co111 N117 2.008 . S
Co111 N122 1.995 . S
Co111 N127 2.282 . S
Co111 N133 2.282 . S
N112 Co111 1.995 . S
N112 C113 1.376 . S
N112 C116 1.383 . S
C113 N112 1.376 . S
C113 C114 1.446 . S
C113 C143 1.391 . S
C114 C113 1.446 . S
C114 C115 1.339 . S
C114 H149 0.949 . S
C115 C114 1.339 . S
C115 C116 1.439 . S
C115 H150 0.950 . S
C116 N112 1.383 . S
C116 C115 1.439 . S
C116 C145 1.392 . S
N117 Co111 2.008 . S
N117 C118 1.376 . S
N117 C121 1.374 . S
C118 N117 1.376 . S
C118 C119 1.443 . S
C118 C145 1.389 . S
C119 C118 1.443 . S
C119 C120 1.340 . S
C119 H151 0.951 . S
C120 C119 1.340 . S
C120 C121 1.439 . S
C120 H152 0.950 . S
C121 N117 1.374 . S
C121 C120 1.439 . S
C121 C146 1.395 . S
N122 Co111 1.995 . S
N122 C123 1.376 . S
N122 C126 1.383 . S
C123 N122 1.376 . S
C123 C124 1.446 . S
C123 C146 1.391 . S
C124 C123 1.446 . S
C124 C125 1.339 . S
C124 H153 0.949 . S
C125 C124 1.339 . S
C125 C126 1.439 . S
C125 H154 0.950 . S
C126 N122 1.383 . S
C126 C125 1.439 . S
C126 C144 1.392 . S
N127 Co111 2.282 . S
N127 C130 1.332 . S
N127 C132 1.332 . S
C128 C129 1.386 . S
C128 C131 1.388 . S
C129 C128 1.386 . S
C129 C130 1.382 . S
C129 H155 0.950 . S
C130 N127 1.332 . S
C130 C129 1.382 . S
C130 H141 0.952 . S
C131 C128 1.388 . S
C131 C132 1.382 . S
C131 H156 0.950 . S
C132 N127 1.332 . S
C132 C131 1.382 . S
C132 H142 0.948 . S
N133 Co111 2.282 . S
N133 C137 1.332 . S
N133 C138 1.332 . S
C134 C135 1.388 . S
C134 C138 1.382 . S
C134 H157 0.950 . S
C135 C134 1.388 . S
C135 C136 1.386 . S
C136 C135 1.386 . S
C136 C137 1.382 . S
C136 H158 0.950 . S
C137 N133 1.332 . S
C137 C136 1.382 . S
C137 H139 0.952 . S
C138 N133 1.332 . S
C138 C134 1.382 . S
C138 H140 0.948 . S
H139 C137 0.952 . S
H140 C138 0.948 . S
H141 C130 0.952 . S
H142 C132 0.948 . S
C143 C109 1.395 . S
C143 C113 1.391 . S
C144 C106 1.389 . S
C144 C126 1.392 . S
C145 C116 1.392 . S
C145 C118 1.389 . S
C146 C121 1.395 . S
C146 C123 1.391 . S
H147 C107 0.951 . S
H148 C108 0.950 . S
H149 C114 0.949 . S
H150 C115 0.950 . S
H151 C119 0.951 . S
H152 C120 0.950 . S
H153 C124 0.949 . S
H154 C125 0.950 . S
H155 C129 0.950 . S
H156 C131 0.950 . S
H157 C134 0.950 . S
H158 C136 0.950 . S
C159 C160 1.443 . S
C159 N163 1.376 . S
C159 C197 1.389 . S
C160 C159 1.443 . S
C160 C161 1.340 . S
C160 H200 0.951 . S
C161 C160 1.340 . S
C161 C162 1.439 . S
C161 H201 0.950 . S
C162 C161 1.439 . S
C162 N163 1.374 . S
C162 C196 1.395 . S
N163 C159 1.376 . S
N163 C162 1.374 . S
N163 Co164 2.008 . S
Co164 N163 2.008 . S
Co164 N165 1.995 . S
Co164 N170 2.008 . S
Co164 N175 1.995 . S
Co164 N180 2.282 . S
Co164 N186 2.282 . S
N165 Co164 1.995 . S
N165 C166 1.376 . S
N165 C169 1.383 . S
C166 N165 1.376 . S
C166 C167 1.446 . S
C166 C196 1.391 . S
C167 C166 1.446 . S
C167 C168 1.339 . S
C167 H202 0.949 . S
C168 C167 1.339 . S
C168 C169 1.439 . S
C168 H203 0.950 . S
C169 N165 1.383 . S
C169 C168 1.439 . S
C169 C198 1.392 . S
N170 Co164 2.008 . S
N170 C171 1.376 . S
N170 C174 1.374 . S
C171 N170 1.376 . S
C171 C172 1.443 . S
C171 C198 1.389 . S
C172 C171 1.443 . S
C172 C173 1.340 . S
C172 H204 0.951 . S
C173 C172 1.340 . S
C173 C174 1.439 . S
C173 H205 0.950 . S
C174 N170 1.374 . S
C174 C173 1.439 . S
C174 C199 1.395 . S
N175 Co164 1.995 . S
N175 C176 1.376 . S
N175 C179 1.383 . S
C176 N175 1.376 . S
C176 C177 1.446 . S
C176 C199 1.391 . S
C177 C176 1.446 . S
C177 C178 1.339 . S
C177 H206 0.949 . S
C178 C177 1.339 . S
C178 C179 1.439 . S
C178 H207 0.950 . S
C179 N175 1.383 . S
C179 C178 1.439 . S
C179 C197 1.392 . S
N180 Co164 2.282 . S
N180 C183 1.332 . S
N180 C185 1.332 . S
C181 C182 1.386 . S
C181 C184 1.388 . S
C182 C181 1.386 . S
C182 C183 1.382 . S
C182 H208 0.950 . S
C183 N180 1.332 . S
C183 C182 1.382 . S
C183 H194 0.952 . S
C184 C181 1.388 . S
C184 C185 1.382 . S
C184 H209 0.950 . S
C185 N180 1.332 . S
C185 C184 1.382 . S
C185 H195 0.948 . S
N186 Co164 2.282 . S
N186 C190 1.332 . S
N186 C191 1.332 . S
C187 C188 1.388 . S
C187 C191 1.382 . S
C187 H210 0.950 . S
C188 C187 1.388 . S
C188 C189 1.386 . S
C189 C188 1.386 . S
C189 C190 1.382 . S
C189 H211 0.950 . S
C190 N186 1.332 . S
C190 C189 1.382 . S
C190 H192 0.952 . S
C191 N186 1.332 . S
C191 C187 1.382 . S
C191 H193 0.948 . S
H192 C190 0.952 . S
H193 C191 0.948 . S
H194 C183 0.952 . S
H195 C185 0.948 . S
C196 C162 1.395 . S
C196 C166 1.391 . S
C197 C159 1.389 . S
C197 C179 1.392 . S
C198 C169 1.392 . S
C198 C171 1.389 . S
C199 C174 1.395 . S
C199 C176 1.391 . S
H200 C160 0.951 . S
H201 C161 0.950 . S
H202 C167 0.949 . S
H203 C168 0.950 . S
H204 C172 0.951 . S
H205 C173 0.950 . S
H206 C177 0.949 . S
H207 C178 0.950 . S
H208 C182 0.950 . S
H209 C184 0.950 . S
H210 C187 0.950 . S
H211 C189 0.950 . S
C212 C213 1.443 . S
C212 N216 1.376 . S
C212 C250 1.389 . S
C213 C212 1.443 . S
C213 C214 1.340 . S
C213 H253 0.951 . S
C214 C213 1.340 . S
C214 C215 1.439 . S
C214 H254 0.950 . S
C215 C214 1.439 . S
C215 N216 1.374 . S
C215 C249 1.395 . S
N216 C212 1.376 . S
N216 C215 1.374 . S
N216 Co217 2.008 . S
Co217 N216 2.008 . S
Co217 N218 1.995 . S
Co217 N223 2.008 . S
Co217 N228 1.995 . S
Co217 N233 2.282 . S
Co217 N239 2.282 . S
N218 Co217 1.995 . S
N218 C219 1.376 . S
N218 C222 1.383 . S
C219 N218 1.376 . S
C219 C220 1.446 . S
C219 C249 1.391 . S
C220 C219 1.446 . S
C220 C221 1.339 . S
C220 H255 0.949 . S
C221 C220 1.339 . S
C221 C222 1.439 . S
C221 H256 0.950 . S
C222 N218 1.383 . S
C222 C221 1.439 . S
C222 C251 1.392 . S
N223 Co217 2.008 . S
N223 C224 1.376 . S
N223 C227 1.374 . S
C224 N223 1.376 . S
C224 C225 1.443 . S
C224 C251 1.389 . S
C225 C224 1.443 . S
C225 C226 1.340 . S
C225 H257 0.951 . S
C226 C225 1.340 . S
C226 C227 1.439 . S
C226 H258 0.950 . S
C227 N223 1.374 . S
C227 C226 1.439 . S
C227 C252 1.395 . S
N228 Co217 1.995 . S
N228 C229 1.376 . S
N228 C232 1.383 . S
C229 N228 1.376 . S
C229 C230 1.446 . S
C229 C252 1.391 . S
C230 C229 1.446 . S
C230 C231 1.339 . S
C230 H259 0.949 . S
C231 C230 1.339 . S
C231 C232 1.439 . S
C231 H260 0.950 . S
C232 N228 1.383 . S
C232 C231 1.439 . S
C232 C250 1.392 . S
N233 Co217 2.282 . S
N233 C236 1.332 . S
N233 C238 1.332 . S
C234 C235 1.386 . S
C234 C237 1.388 . S
C235 C234 1.386 . S
C235 C236 1.382 . S
C235 H261 0.950 . S
C236 N233 1.332 . S
C236 C235 1.382 . S
C236 H247 0.952 . S
C237 C234 1.388 . S
C237 C238 1.382 . S
C237 H262 0.950 . S
C238 N233 1.332 . S
C238 C237 1.382 . S
C238 H248 0.948 . S
N239 Co217 2.282 . S
N239 C243 1.332 . S
N239 C244 1.332 . S
C240 C241 1.388 . S
C240 C244 1.382 . S
C240 H263 0.950 . S
C241 C240 1.388 . S
C241 C242 1.386 . S
C242 C241 1.386 . S
C242 C243 1.382 . S
C242 H264 0.950 . S
C243 N239 1.332 . S
C243 C242 1.382 . S
C243 H245 0.952 . S
C244 N239 1.332 . S
C244 C240 1.382 . S
C244 H246 0.948 . S
H245 C243 0.952 . S
H246 C244 0.948 . S
H247 C236 0.952 . S
H248 C238 0.948 . S
C249 C215 1.395 . S
C249 C219 1.391 . S
C250 C212 1.389 . S
C250 C232 1.392 . S
C251 C222 1.392 . S
C251 C224 1.389 . S
C252 C227 1.395 . S
C252 C229 1.391 . S
H253 C213 0.951 . S
H254 C214 0.950 . S
H255 C220 0.949 . S
H256 C221 0.950 . S
H257 C225 0.951 . S
H258 C226 0.950 . S
H259 C230 0.949 . S
H260 C231 0.950 . S
H261 C235 0.950 . S
H262 C237 0.950 . S
H263 C240 0.950 . S
H264 C242 0.950 . S
C265 C266 1.443 . S
C265 N269 1.376 . S
C265 C303 1.389 . S
C266 C265 1.443 . S
C266 C267 1.340 . S
C266 H306 0.951 . S
C267 C266 1.340 . S
C267 C268 1.439 . S
C267 H307 0.950 . S
C268 C267 1.439 . S
C268 N269 1.374 . S
C268 C302 1.395 . S
N269 C265 1.376 . S
N269 C268 1.374 . S
N269 Co270 2.008 . S
Co270 N269 2.008 . S
Co270 N271 1.995 . S
Co270 N276 2.008 . S
Co270 N281 1.995 . S
Co270 N286 2.282 . S
Co270 N292 2.282 . S
N271 Co270 1.995 . S
N271 C272 1.376 . S
N271 C275 1.383 . S
C272 N271 1.376 . S
C272 C273 1.446 . S
C272 C302 1.391 . S
C273 C272 1.446 . S
C273 C274 1.339 . S
C273 H308 0.949 . S
C274 C273 1.339 . S
C274 C275 1.439 . S
C274 H309 0.950 . S
C275 N271 1.383 . S
C275 C274 1.439 . S
C275 C304 1.392 . S
N276 Co270 2.008 . S
N276 C277 1.376 . S
N276 C280 1.374 . S
C277 N276 1.376 . S
C277 C278 1.443 . S
C277 C304 1.389 . S
C278 C277 1.443 . S
C278 C279 1.340 . S
C278 H310 0.951 . S
C279 C278 1.340 . S
C279 C280 1.439 . S
C279 H311 0.950 . S
C280 N276 1.374 . S
C280 C279 1.439 . S
C280 C305 1.395 . S
N281 Co270 1.995 . S
N281 C282 1.376 . S
N281 C285 1.383 . S
C282 N281 1.376 . S
C282 C283 1.446 . S
C282 C305 1.391 . S
C283 C282 1.446 . S
C283 C284 1.339 . S
C283 H312 0.949 . S
C284 C283 1.339 . S
C284 C285 1.439 . S
C284 H313 0.950 . S
C285 N281 1.383 . S
C285 C284 1.439 . S
C285 C303 1.392 . S
N286 Co270 2.282 . S
N286 C289 1.332 . S
N286 C291 1.332 . S
C287 C288 1.386 . S
C287 C290 1.388 . S
C288 C287 1.386 . S
C288 C289 1.382 . S
C288 H314 0.950 . S
C289 N286 1.332 . S
C289 C288 1.382 . S
C289 H300 0.952 . S
C290 C287 1.388 . S
C290 C291 1.382 . S
C290 H315 0.950 . S
C291 N286 1.332 . S
C291 C290 1.382 . S
C291 H301 0.948 . S
N292 Co270 2.282 . S
N292 C296 1.332 . S
N292 C297 1.332 . S
C293 C294 1.388 . S
C293 C297 1.382 . S
C293 H316 0.950 . S
C294 C293 1.388 . S
C294 C295 1.386 . S
C295 C294 1.386 . S
C295 C296 1.382 . S
C295 H317 0.950 . S
C296 N292 1.332 . S
C296 C295 1.382 . S
C296 H298 0.952 . S
C297 N292 1.332 . S
C297 C293 1.382 . S
C297 H299 0.948 . S
H298 C296 0.952 . S
H299 C297 0.948 . S
H300 C289 0.952 . S
H301 C291 0.948 . S
C302 C268 1.395 . S
C302 C272 1.391 . S
C303 C265 1.389 . S
C303 C285 1.392 . S
C304 C275 1.392 . S
C304 C277 1.389 . S
C305 C280 1.395 . S
C305 C282 1.391 . S
H306 C266 0.951 . S
H307 C267 0.950 . S
H308 C273 0.949 . S
H309 C274 0.950 . S
H310 C278 0.951 . S
H311 C279 0.950 . S
H312 C283 0.949 . S
H313 C284 0.950 . S
H314 C288 0.950 . S
H315 C290 0.950 . S
H316 C293 0.950 . S
H317 C295 0.950 . S
C318 C319 1.443 . S
C318 N322 1.376 . S
C318 C356 1.389 . S
C319 C318 1.443 . S
C319 C320 1.340 . S
C319 H359 0.951 . S
C320 C319 1.340 . S
C320 C321 1.439 . S
C320 H360 0.950 . S
C321 C320 1.439 . S
C321 N322 1.374 . S
C321 C355 1.395 . S
N322 C318 1.376 . S
N322 C321 1.374 . S
N322 Co323 2.008 . S
Co323 N322 2.008 . S
Co323 N324 1.995 . S
Co323 N329 2.008 . S
Co323 N334 1.995 . S
Co323 N339 2.282 . S
Co323 N345 2.282 . S
N324 Co323 1.995 . S
N324 C325 1.376 . S
N324 C328 1.383 . S
C325 N324 1.376 . S
C325 C326 1.446 . S
C325 C355 1.391 . S
C326 C325 1.446 . S
C326 C327 1.339 . S
C326 H361 0.949 . S
C327 C326 1.339 . S
C327 C328 1.439 . S
C327 H362 0.950 . S
C328 N324 1.383 . S
C328 C327 1.439 . S
C328 C357 1.392 . S
N329 Co323 2.008 . S
N329 C330 1.376 . S
N329 C333 1.374 . S
C330 N329 1.376 . S
C330 C331 1.443 . S
C330 C357 1.389 . S
C331 C330 1.443 . S
C331 C332 1.340 . S
C331 H363 0.951 . S
C332 C331 1.340 . S
C332 C333 1.439 . S
C332 H364 0.950 . S
C333 N329 1.374 . S
C333 C332 1.439 . S
C333 C358 1.395 . S
N334 Co323 1.995 . S
N334 C335 1.376 . S
N334 C338 1.383 . S
C335 N334 1.376 . S
C335 C336 1.446 . S
C335 C358 1.391 . S
C336 C335 1.446 . S
C336 C337 1.339 . S
C336 H365 0.949 . S
C337 C336 1.339 . S
C337 C338 1.439 . S
C337 H366 0.950 . S
C338 N334 1.383 . S
C338 C337 1.439 . S
C338 C356 1.392 . S
N339 Co323 2.282 . S
N339 C342 1.332 . S
N339 C344 1.332 . S
C340 C341 1.386 . S
C340 C343 1.388 . S
C341 C340 1.386 . S
C341 C342 1.382 . S
C341 H367 0.950 . S
C342 N339 1.332 . S
C342 C341 1.382 . S
C342 H353 0.952 . S
C343 C340 1.388 . S
C343 C344 1.382 . S
C343 H368 0.950 . S
C344 N339 1.332 . S
C344 C343 1.382 . S
C344 H354 0.948 . S
N345 Co323 2.282 . S
N345 C349 1.332 . S
N345 C350 1.332 . S
C346 C347 1.388 . S
C346 C350 1.382 . S
C346 H369 0.950 . S
C347 C346 1.388 . S
C347 C348 1.386 . S
C348 C347 1.386 . S
C348 C349 1.382 . S
C348 H370 0.950 . S
C349 N345 1.332 . S
C349 C348 1.382 . S
C349 H351 0.952 . S
C350 N345 1.332 . S
C350 C346 1.382 . S
C350 H352 0.948 . S
H351 C349 0.952 . S
H352 C350 0.948 . S
H353 C342 0.952 . S
H354 C344 0.948 . S
C355 C321 1.395 . S
C355 C325 1.391 . S
C356 C318 1.389 . S
C356 C338 1.392 . S
C357 C328 1.392 . S
C357 C330 1.389 . S
C358 C333 1.395 . S
C358 C335 1.391 . S
H359 C319 0.951 . S
H360 C320 0.950 . S
H361 C326 0.949 . S
H362 C327 0.950 . S
H363 C331 0.951 . S
H364 C332 0.950 . S
H365 C336 0.949 . S
H366 C337 0.950 . S
H367 C341 0.950 . S
H368 C343 0.950 . S
H369 C346 0.950 . S
H370 C348 0.950 . S
C371 C372 1.443 . S
C371 N375 1.376 . S
C371 C409 1.389 . S
C372 C371 1.443 . S
C372 C373 1.340 . S
C372 H412 0.951 . S
C373 C372 1.340 . S
C373 C374 1.439 . S
C373 H413 0.950 . S
C374 C373 1.439 . S
C374 N375 1.374 . S
C374 C408 1.395 . S
N375 C371 1.376 . S
N375 C374 1.374 . S
N375 Co376 2.008 . S
Co376 N375 2.008 . S
Co376 N377 1.995 . S
Co376 N382 2.008 . S
Co376 N387 1.995 . S
Co376 N392 2.282 . S
Co376 N398 2.282 . S
N377 Co376 1.995 . S
N377 C378 1.376 . S
N377 C381 1.383 . S
C378 N377 1.376 . S
C378 C379 1.446 . S
C378 C408 1.391 . S
C379 C378 1.446 . S
C379 C380 1.339 . S
C379 H414 0.949 . S
C380 C379 1.339 . S
C380 C381 1.439 . S
C380 H415 0.950 . S
C381 N377 1.383 . S
C381 C380 1.439 . S
C381 C410 1.392 . S
N382 Co376 2.008 . S
N382 C383 1.376 . S
N382 C386 1.374 . S
C383 N382 1.376 . S
C383 C384 1.443 . S
C383 C410 1.389 . S
C384 C383 1.443 . S
C384 C385 1.340 . S
C384 H416 0.951 . S
C385 C384 1.340 . S
C385 C386 1.439 . S
C385 H417 0.950 . S
C386 N382 1.374 . S
C386 C385 1.439 . S
C386 C411 1.395 . S
N387 Co376 1.995 . S
N387 C388 1.376 . S
N387 C391 1.383 . S
C388 N387 1.376 . S
C388 C389 1.446 . S
C388 C411 1.391 . S
C389 C388 1.446 . S
C389 C390 1.339 . S
C389 H418 0.949 . S
C390 C389 1.339 . S
C390 C391 1.439 . S
C390 H419 0.950 . S
C391 N387 1.383 . S
C391 C390 1.439 . S
C391 C409 1.392 . S
N392 Co376 2.282 . S
N392 C395 1.332 . S
N392 C397 1.332 . S
C393 C394 1.386 . S
C393 C396 1.388 . S
C394 C393 1.386 . S
C394 C395 1.382 . S
C394 H420 0.950 . S
C395 N392 1.332 . S
C395 C394 1.382 . S
C395 H406 0.952 . S
C396 C393 1.388 . S
C396 C397 1.382 . S
C396 H421 0.950 . S
C397 N392 1.332 . S
C397 C396 1.382 . S
C397 H407 0.948 . S
N398 Co376 2.282 . S
N398 C402 1.332 . S
N398 C403 1.332 . S
C399 C400 1.388 . S
C399 C403 1.382 . S
C399 H422 0.950 . S
C400 C399 1.388 . S
C400 C401 1.386 . S
C401 C400 1.386 . S
C401 C402 1.382 . S
C401 H423 0.950 . S
C402 N398 1.332 . S
C402 C401 1.382 . S
C402 H404 0.952 . S
C403 N398 1.332 . S
C403 C399 1.382 . S
C403 H405 0.948 . S
H404 C402 0.952 . S
H405 C403 0.948 . S
H406 C395 0.952 . S
H407 C397 0.948 . S
C408 C374 1.395 . S
C408 C378 1.391 . S
C409 C371 1.389 . S
C409 C391 1.392 . S
C410 C381 1.392 . S
C410 C383 1.389 . S
C411 C386 1.395 . S
C411 C388 1.391 . S
H412 C372 0.951 . S
H413 C373 0.950 . S
H414 C379 0.949 . S
H415 C380 0.950 . S
H416 C384 0.951 . S
H417 C385 0.950 . S
H418 C389 0.949 . S
H419 C390 0.950 . S
H420 C394 0.950 . S
H421 C396 0.950 . S
H422 C399 0.950 . S
H423 C401 0.950 . S
C424 C425 1.443 . S
C424 N428 1.376 . S
C424 C462 1.389 . S
C425 C424 1.443 . S
C425 C426 1.340 . S
C425 H465 0.951 . S
C426 C425 1.340 . S
C426 C427 1.439 . S
C426 H466 0.950 . S
C427 C426 1.439 . S
C427 N428 1.374 . S
C427 C461 1.395 . S
N428 C424 1.376 . S
N428 C427 1.374 . S
N428 Co429 2.008 . S
Co429 N428 2.008 . S
Co429 N430 1.995 . S
Co429 N435 2.008 . S
Co429 N440 1.995 . S
Co429 N445 2.282 . S
Co429 N451 2.282 . S
N430 Co429 1.995 . S
N430 C431 1.376 . S
N430 C434 1.383 . S
C431 N430 1.376 . S
C431 C432 1.446 . S
C431 C461 1.391 . S
C432 C431 1.446 . S
C432 C433 1.339 . S
C432 H467 0.949 . S
C433 C432 1.339 . S
C433 C434 1.439 . S
C433 H468 0.950 . S
C434 N430 1.383 . S
C434 C433 1.439 . S
C434 C463 1.392 . S
N435 Co429 2.008 . S
N435 C436 1.376 . S
N435 C439 1.374 . S
C436 N435 1.376 . S
C436 C437 1.443 . S
C436 C463 1.389 . S
C437 C436 1.443 . S
C437 C438 1.340 . S
C437 H469 0.951 . S
C438 C437 1.340 . S
C438 C439 1.439 . S
C438 H470 0.950 . S
C439 N435 1.374 . S
C439 C438 1.439 . S
C439 C464 1.395 . S
N440 Co429 1.995 . S
N440 C441 1.376 . S
N440 C444 1.383 . S
C441 N440 1.376 . S
C441 C442 1.446 . S
C441 C464 1.391 . S
C442 C441 1.446 . S
C442 C443 1.339 . S
C442 H471 0.949 . S
C443 C442 1.339 . S
C443 C444 1.439 . S
C443 H472 0.950 . S
C444 N440 1.383 . S
C444 C443 1.439 . S
C444 C462 1.392 . S
N445 Co429 2.282 . S
N445 C448 1.332 . S
N445 C450 1.332 . S
C446 C447 1.386 . S
C446 C449 1.388 . S
C447 C446 1.386 . S
C447 C448 1.382 . S
C447 H473 0.950 . S
C448 N445 1.332 . S
C448 C447 1.382 . S
C448 H459 0.952 . S
C449 C446 1.388 . S
C449 C450 1.382 . S
C449 H474 0.950 . S
C450 N445 1.332 . S
C450 C449 1.382 . S
C450 H460 0.948 . S
N451 Co429 2.282 . S
N451 C455 1.332 . S
N451 C456 1.332 . S
C452 C453 1.388 . S
C452 C456 1.382 . S
C452 H475 0.950 . S
C453 C452 1.388 . S
C453 C454 1.386 . S
C454 C453 1.386 . S
C454 C455 1.382 . S
C454 H476 0.950 . S
C455 N451 1.332 . S
C455 C454 1.382 . S
C455 H457 0.952 . S
C456 N451 1.332 . S
C456 C452 1.382 . S
C456 H458 0.948 . S
H457 C455 0.952 . S
H458 C456 0.948 . S
H459 C448 0.952 . S
H460 C450 0.948 . S
C461 C427 1.395 . S
C461 C431 1.391 . S
C462 C424 1.389 . S
C462 C444 1.392 . S
C463 C434 1.392 . S
C463 C436 1.389 . S
C464 C439 1.395 . S
C464 C441 1.391 . S
H465 C425 0.951 . S
H466 C426 0.950 . S
H467 C432 0.949 . S
H468 C433 0.950 . S
H469 C437 0.951 . S
H470 C438 0.950 . S
H471 C442 0.949 . S
H472 C443 0.950 . S
H473 C447 0.950 . S
H474 C449 0.950 . S
H475 C452 0.950 . S
H476 C454 0.950 . S
C477 C478 1.443 . S
C477 N481 1.376 . S
C477 C515 1.389 . S
C478 C477 1.443 . S
C478 C479 1.340 . S
C478 H518 0.951 . S
C479 C478 1.340 . S
C479 C480 1.439 . S
C479 H519 0.950 . S
C480 C479 1.439 . S
C480 N481 1.374 . S
C480 C514 1.395 . S
N481 C477 1.376 . S
N481 C480 1.374 . S
N481 Co482 2.008 . S
Co482 N481 2.008 . S
Co482 N483 1.995 . S
Co482 N488 2.008 . S
Co482 N493 1.995 . S
Co482 N498 2.282 . S
Co482 N504 2.282 . S
N483 Co482 1.995 . S
N483 C484 1.376 . S
N483 C487 1.383 . S
C484 N483 1.376 . S
C484 C485 1.446 . S
C484 C514 1.391 . S
C485 C484 1.446 . S
C485 C486 1.339 . S
C485 H520 0.949 . S
C486 C485 1.339 . S
C486 C487 1.439 . S
C486 H521 0.950 . S
C487 N483 1.383 . S
C487 C486 1.439 . S
C487 C516 1.392 . S
N488 Co482 2.008 . S
N488 C489 1.376 . S
N488 C492 1.374 . S
C489 N488 1.376 . S
C489 C490 1.443 . S
C489 C516 1.389 . S
C490 C489 1.443 . S
C490 C491 1.340 . S
C490 H522 0.951 . S
C491 C490 1.340 . S
C491 C492 1.439 . S
C491 H523 0.950 . S
C492 N488 1.374 . S
C492 C491 1.439 . S
C492 C517 1.395 . S
N493 Co482 1.995 . S
N493 C494 1.376 . S
N493 C497 1.383 . S
C494 N493 1.376 . S
C494 C495 1.446 . S
C494 C517 1.391 . S
C495 C494 1.446 . S
C495 C496 1.339 . S
C495 H524 0.949 . S
C496 C495 1.339 . S
C496 C497 1.439 . S
C496 H525 0.950 . S
C497 N493 1.383 . S
C497 C496 1.439 . S
C497 C515 1.392 . S
N498 Co482 2.282 . S
N498 C501 1.332 . S
N498 C503 1.332 . S
C499 C500 1.386 . S
C499 C502 1.388 . S
C500 C499 1.386 . S
C500 C501 1.382 . S
C500 H526 0.950 . S
C501 N498 1.332 . S
C501 C500 1.382 . S
C501 H512 0.952 . S
C502 C499 1.388 . S
C502 C503 1.382 . S
C502 H527 0.950 . S
C503 N498 1.332 . S
C503 C502 1.382 . S
C503 H513 0.948 . S
N504 Co482 2.282 . S
N504 C508 1.332 . S
N504 C509 1.332 . S
C505 C506 1.388 . S
C505 C509 1.382 . S
C505 H528 0.950 . S
C506 C505 1.388 . S
C506 C507 1.386 . S
C507 C506 1.386 . S
C507 C508 1.382 . S
C507 H529 0.950 . S
C508 N504 1.332 . S
C508 C507 1.382 . S
C508 H510 0.952 . S
C509 N504 1.332 . S
C509 C505 1.382 . S
C509 H511 0.948 . S
H510 C508 0.952 . S
H511 C509 0.948 . S
H512 C501 0.952 . S
H513 C503 0.948 . S
C514 C480 1.395 . S
C514 C484 1.391 . S
C515 C477 1.389 . S
C515 C497 1.392 . S
C516 C487 1.392 . S
C516 C489 1.389 . S
C517 C492 1.395 . S
C517 C494 1.391 . S
H518 C478 0.951 . S
H519 C479 0.950 . S
H520 C485 0.949 . S
H521 C486 0.950 . S
H522 C490 0.951 . S
H523 C491 0.950 . S
H524 C495 0.949 . S
H525 C496 0.950 . S
H526 C500 0.950 . S
H527 C502 0.950 . S
H528 C505 0.950 . S
H529 C507 0.950 . S
C530 C531 1.443 . S
C530 N534 1.376 . S
C530 C568 1.389 . S
C531 C530 1.443 . S
C531 C532 1.340 . S
C531 H571 0.951 . S
C532 C531 1.340 . S
C532 C533 1.439 . S
C532 H572 0.950 . S
C533 C532 1.439 . S
C533 N534 1.374 . S
C533 C567 1.395 . S
N534 C530 1.376 . S
N534 C533 1.374 . S
N534 Co535 2.008 . S
Co535 N534 2.008 . S
Co535 N536 1.995 . S
Co535 N541 2.008 . S
Co535 N546 1.995 . S
Co535 N551 2.282 . S
Co535 N557 2.282 . S
N536 Co535 1.995 . S
N536 C537 1.376 . S
N536 C540 1.383 . S
C537 N536 1.376 . S
C537 C538 1.446 . S
C537 C567 1.391 . S
C538 C537 1.446 . S
C538 C539 1.339 . S
C538 H573 0.949 . S
C539 C538 1.339 . S
C539 C540 1.439 . S
C539 H574 0.950 . S
C540 N536 1.383 . S
C540 C539 1.439 . S
C540 C569 1.392 . S
N541 Co535 2.008 . S
N541 C542 1.376 . S
N541 C545 1.374 . S
C542 N541 1.376 . S
C542 C543 1.443 . S
C542 C569 1.389 . S
C543 C542 1.443 . S
C543 C544 1.340 . S
C543 H575 0.951 . S
C544 C543 1.340 . S
C544 C545 1.439 . S
C544 H576 0.950 . S
C545 N541 1.374 . S
C545 C544 1.439 . S
C545 C570 1.395 . S
N546 Co535 1.995 . S
N546 C547 1.376 . S
N546 C550 1.383 . S
C547 N546 1.376 . S
C547 C548 1.446 . S
C547 C570 1.391 . S
C548 C547 1.446 . S
C548 C549 1.339 . S
C548 H577 0.949 . S
C549 C548 1.339 . S
C549 C550 1.439 . S
C549 H578 0.950 . S
C550 N546 1.383 . S
C550 C549 1.439 . S
C550 C568 1.392 . S
N551 Co535 2.282 . S
N551 C554 1.332 . S
N551 C556 1.332 . S
C552 C553 1.386 . S
C552 C555 1.388 . S
C553 C552 1.386 . S
C553 C554 1.382 . S
C553 H579 0.950 . S
C554 N551 1.332 . S
C554 C553 1.382 . S
C554 H565 0.952 . S
C555 C552 1.388 . S
C555 C556 1.382 . S
C555 H580 0.950 . S
C556 N551 1.332 . S
C556 C555 1.382 . S
C556 H566 0.948 . S
N557 Co535 2.282 . S
N557 C561 1.332 . S
N557 C562 1.332 . S
C558 C559 1.388 . S
C558 C562 1.382 . S
C558 H581 0.950 . S
C559 C558 1.388 . S
C559 C560 1.386 . S
C560 C559 1.386 . S
C560 C561 1.382 . S
C560 H582 0.950 . S
C561 N557 1.332 . S
C561 C560 1.382 . S
C561 H563 0.952 . S
C562 N557 1.332 . S
C562 C558 1.382 . S
C562 H564 0.948 . S
H563 C561 0.952 . S
H564 C562 0.948 . S
H565 C554 0.952 . S
H566 C556 0.948 . S
C567 C533 1.395 . S
C567 C537 1.391 . S
C568 C530 1.389 . S
C568 C550 1.392 . S
C569 C540 1.392 . S
C569 C542 1.389 . S
C570 C545 1.395 . S
C570 C547 1.391 . S
H571 C531 0.951 . S
H572 C532 0.950 . S
H573 C538 0.949 . S
H574 C539 0.950 . S
H575 C543 0.951 . S
H576 C544 0.950 . S
H577 C548 0.949 . S
H578 C549 0.950 . S
H579 C553 0.950 . S
H580 C555 0.950 . S
H581 C558 0.950 . S
H582 C560 0.950 . S
C583 C584 1.443 . S
C583 N587 1.376 . S
C583 C621 1.389 . S
C584 C583 1.443 . S
C584 C585 1.340 . S
C584 H624 0.951 . S
C585 C584 1.340 . S
C585 C586 1.439 . S
C585 H625 0.950 . S
C586 C585 1.439 . S
C586 N587 1.374 . S
C586 C620 1.395 . S
N587 C583 1.376 . S
N587 C586 1.374 . S
N587 Co588 2.008 . S
Co588 N587 2.008 . S
Co588 N589 1.995 . S
Co588 N594 2.008 . S
Co588 N599 1.995 . S
Co588 N604 2.282 . S
Co588 N610 2.282 . S
N589 Co588 1.995 . S
N589 C590 1.376 . S
N589 C593 1.383 . S
C590 N589 1.376 . S
C590 C591 1.446 . S
C590 C620 1.391 . S
C591 C590 1.446 . S
C591 C592 1.339 . S
C591 H626 0.949 . S
C592 C591 1.339 . S
C592 C593 1.439 . S
C592 H627 0.950 . S
C593 N589 1.383 . S
C593 C592 1.439 . S
C593 C622 1.392 . S
N594 Co588 2.008 . S
N594 C595 1.376 . S
N594 C598 1.374 . S
C595 N594 1.376 . S
C595 C596 1.443 . S
C595 C622 1.389 . S
C596 C595 1.443 . S
C596 C597 1.340 . S
C596 H628 0.951 . S
C597 C596 1.340 . S
C597 C598 1.439 . S
C597 H629 0.950 . S
C598 N594 1.374 . S
C598 C597 1.439 . S
C598 C623 1.395 . S
N599 Co588 1.995 . S
N599 C600 1.376 . S
N599 C603 1.383 . S
C600 N599 1.376 . S
C600 C601 1.446 . S
C600 C623 1.391 . S
C601 C600 1.446 . S
C601 C602 1.339 . S
C601 H630 0.949 . S
C602 C601 1.339 . S
C602 C603 1.439 . S
C602 H631 0.950 . S
C603 N599 1.383 . S
C603 C602 1.439 . S
C603 C621 1.392 . S
N604 Co588 2.282 . S
N604 C607 1.332 . S
N604 C609 1.332 . S
C605 C606 1.386 . S
C605 C608 1.388 . S
C606 C605 1.386 . S
C606 C607 1.382 . S
C606 H632 0.950 . S
C607 N604 1.332 . S
C607 C606 1.382 . S
C607 H618 0.952 . S
C608 C605 1.388 . S
C608 C609 1.382 . S
C608 H633 0.950 . S
C609 N604 1.332 . S
C609 C608 1.382 . S
C609 H619 0.948 . S
N610 Co588 2.282 . S
N610 C614 1.332 . S
N610 C615 1.332 . S
C611 C612 1.388 . S
C611 C615 1.382 . S
C611 H634 0.950 . S
C612 C611 1.388 . S
C612 C613 1.386 . S
C613 C612 1.386 . S
C613 C614 1.382 . S
C613 H635 0.950 . S
C614 N610 1.332 . S
C614 C613 1.382 . S
C614 H616 0.952 . S
C615 N610 1.332 . S
C615 C611 1.382 . S
C615 H617 0.948 . S
H616 C614 0.952 . S
H617 C615 0.948 . S
H618 C607 0.952 . S
H619 C609 0.948 . S
C620 C586 1.395 . S
C620 C590 1.391 . S
C621 C583 1.389 . S
C621 C603 1.392 . S
C622 C593 1.392 . S
C622 C595 1.389 . S
C623 C598 1.395 . S
C623 C600 1.391 . S
H624 C584 0.951 . S
H625 C585 0.950 . S
H626 C591 0.949 . S
H627 C592 0.950 . S
H628 C596 0.951 . S
H629 C597 0.950 . S
H630 C601 0.949 . S
H631 C602 0.950 . S
H632 C606 0.950 . S
H633 C608 0.950 . S
H634 C611 0.950 . S
H635 C613 0.950 . S
C636 C637 1.443 . S
C636 N640 1.376 . S
C636 C674 1.389 . S
C637 C636 1.443 . S
C637 C638 1.340 . S
C637 H677 0.951 . S
C638 C637 1.340 . S
C638 C639 1.439 . S
C638 H678 0.950 . S
C639 C638 1.439 . S
C639 N640 1.374 . S
C639 C673 1.395 . S
N640 C636 1.376 . S
N640 C639 1.374 . S
N640 Co641 2.008 . S
Co641 N640 2.008 . S
Co641 N642 1.995 . S
Co641 N647 2.008 . S
Co641 N652 1.995 . S
Co641 N657 2.282 . S
Co641 N663 2.282 . S
N642 Co641 1.995 . S
N642 C643 1.376 . S
N642 C646 1.383 . S
C643 N642 1.376 . S
C643 C644 1.446 . S
C643 C673 1.391 . S
C644 C643 1.446 . S
C644 C645 1.339 . S
C644 H679 0.949 . S
C645 C644 1.339 . S
C645 C646 1.439 . S
C645 H680 0.950 . S
C646 N642 1.383 . S
C646 C645 1.439 . S
C646 C675 1.392 . S
N647 Co641 2.008 . S
N647 C648 1.376 . S
N647 C651 1.374 . S
C648 N647 1.376 . S
C648 C649 1.443 . S
C648 C675 1.389 . S
C649 C648 1.443 . S
C649 C650 1.340 . S
C649 H681 0.951 . S
C650 C649 1.340 . S
C650 C651 1.439 . S
C650 H682 0.950 . S
C651 N647 1.374 . S
C651 C650 1.439 . S
C651 C676 1.395 . S
N652 Co641 1.995 . S
N652 C653 1.376 . S
N652 C656 1.383 . S
C653 N652 1.376 . S
C653 C654 1.446 . S
C653 C676 1.391 . S
C654 C653 1.446 . S
C654 C655 1.339 . S
C654 H683 0.949 . S
C655 C654 1.339 . S
C655 C656 1.439 . S
C655 H684 0.950 . S
C656 N652 1.383 . S
C656 C655 1.439 . S
C656 C674 1.392 . S
N657 Co641 2.282 . S
N657 C660 1.332 . S
N657 C662 1.332 . S
C658 C659 1.386 . S
C658 C661 1.388 . S
C659 C658 1.386 . S
C659 C660 1.382 . S
C659 H685 0.950 . S
C660 N657 1.332 . S
C660 C659 1.382 . S
C660 H671 0.952 . S
C661 C658 1.388 . S
C661 C662 1.382 . S
C661 H686 0.950 . S
C662 N657 1.332 . S
C662 C661 1.382 . S
C662 H672 0.948 . S
N663 Co641 2.282 . S
N663 C667 1.332 . S
N663 C668 1.332 . S
C664 C665 1.388 . S
C664 C668 1.382 . S
C664 H687 0.950 . S
C665 C664 1.388 . S
C665 C666 1.386 . S
C666 C665 1.386 . S
C666 C667 1.382 . S
C666 H688 0.950 . S
C667 N663 1.332 . S
C667 C666 1.382 . S
C667 H669 0.952 . S
C668 N663 1.332 . S
C668 C664 1.382 . S
C668 H670 0.948 . S
H669 C667 0.952 . S
H670 C668 0.948 . S
H671 C660 0.952 . S
H672 C662 0.948 . S
C673 C639 1.395 . S
C673 C643 1.391 . S
C674 C636 1.389 . S
C674 C656 1.392 . S
C675 C646 1.392 . S
C675 C648 1.389 . S
C676 C651 1.395 . S
C676 C653 1.391 . S
H677 C637 0.951 . S
H678 C638 0.950 . S
H679 C644 0.949 . S
H680 C645 0.950 . S
H681 C649 0.951 . S
H682 C650 0.950 . S
H683 C654 0.949 . S
H684 C655 0.950 . S
H685 C659 0.950 . S
H686 C661 0.950 . S
H687 C664 0.950 . S
H688 C666 0.950 . S
C689 C690 1.443 . S
C689 N693 1.376 . S
C689 C727 1.389 . S
C690 C689 1.443 . S
C690 C691 1.340 . S
C690 H730 0.951 . S
C691 C690 1.340 . S
C691 C692 1.439 . S
C691 H731 0.950 . S
C692 C691 1.439 . S
C692 N693 1.374 . S
C692 C726 1.395 . S
N693 C689 1.376 . S
N693 C692 1.374 . S
N693 Co694 2.008 . S
Co694 N693 2.008 . S
Co694 N695 1.995 . S
Co694 N700 2.008 . S
Co694 N705 1.995 . S
Co694 N710 2.282 . S
Co694 N716 2.282 . S
N695 Co694 1.995 . S
N695 C696 1.376 . S
N695 C699 1.383 . S
C696 N695 1.376 . S
C696 C697 1.446 . S
C696 C726 1.391 . S
C697 C696 1.446 . S
C697 C698 1.339 . S
C697 H732 0.949 . S
C698 C697 1.339 . S
C698 C699 1.439 . S
C698 H733 0.950 . S
C699 N695 1.383 . S
C699 C698 1.439 . S
C699 C728 1.392 . S
N700 Co694 2.008 . S
N700 C701 1.376 . S
N700 C704 1.374 . S
C701 N700 1.376 . S
C701 C702 1.443 . S
C701 C728 1.389 . S
C702 C701 1.443 . S
C702 C703 1.340 . S
C702 H734 0.951 . S
C703 C702 1.340 . S
C703 C704 1.439 . S
C703 H735 0.950 . S
C704 N700 1.374 . S
C704 C703 1.439 . S
C704 C729 1.395 . S
N705 Co694 1.995 . S
N705 C706 1.376 . S
N705 C709 1.383 . S
C706 N705 1.376 . S
C706 C707 1.446 . S
C706 C729 1.391 . S
C707 C706 1.446 . S
C707 C708 1.339 . S
C707 H736 0.949 . S
C708 C707 1.339 . S
C708 C709 1.439 . S
C708 H737 0.950 . S
C709 N705 1.383 . S
C709 C708 1.439 . S
C709 C727 1.392 . S
N710 Co694 2.282 . S
N710 C713 1.332 . S
N710 C715 1.332 . S
C711 C712 1.386 . S
C711 C714 1.388 . S
C712 C711 1.386 . S
C712 C713 1.382 . S
C712 H738 0.950 . S
C713 N710 1.332 . S
C713 C712 1.382 . S
C713 H724 0.952 . S
C714 C711 1.388 . S
C714 C715 1.382 . S
C714 H739 0.950 . S
C715 N710 1.332 . S
C715 C714 1.382 . S
C715 H725 0.948 . S
N716 Co694 2.282 . S
N716 C720 1.332 . S
N716 C721 1.332 . S
C717 C718 1.388 . S
C717 C721 1.382 . S
C717 H740 0.950 . S
C718 C717 1.388 . S
C718 C719 1.386 . S
C719 C718 1.386 . S
C719 C720 1.382 . S
C719 H741 0.950 . S
C720 N716 1.332 . S
C720 C719 1.382 . S
C720 H722 0.952 . S
C721 N716 1.332 . S
C721 C717 1.382 . S
C721 H723 0.948 . S
H722 C720 0.952 . S
H723 C721 0.948 . S
H724 C713 0.952 . S
H725 C715 0.948 . S
C726 C692 1.395 . S
C726 C696 1.391 . S
C727 C689 1.389 . S
C727 C709 1.392 . S
C728 C699 1.392 . S
C728 C701 1.389 . S
C729 C704 1.395 . S
C729 C706 1.391 . S
H730 C690 0.951 . S
H731 C691 0.950 . S
H732 C697 0.949 . S
H733 C698 0.950 . S
H734 C702 0.951 . S
H735 C703 0.950 . S
H736 C707 0.949 . S
H737 C708 0.950 . S
H738 C712 0.950 . S
H739 C714 0.950 . S
H740 C717 0.950 . S
H741 C719 0.950 . S
C742 C743 1.443 . S
C742 N746 1.376 . S
C742 C780 1.389 . S
C743 C742 1.443 . S
C743 C744 1.340 . S
C743 H783 0.951 . S
C744 C743 1.340 . S
C744 C745 1.439 . S
C744 H784 0.950 . S
C745 C744 1.439 . S
C745 N746 1.374 . S
C745 C779 1.395 . S
N746 C742 1.376 . S
N746 C745 1.374 . S
N746 Co747 2.008 . S
Co747 N746 2.008 . S
Co747 N748 1.995 . S
Co747 N753 2.008 . S
Co747 N758 1.995 . S
Co747 N763 2.282 . S
Co747 N769 2.282 . S
N748 Co747 1.995 . S
N748 C749 1.376 . S
N748 C752 1.383 . S
C749 N748 1.376 . S
C749 C750 1.446 . S
C749 C779 1.391 . S
C750 C749 1.446 . S
C750 C751 1.339 . S
C750 H785 0.949 . S
C751 C750 1.339 . S
C751 C752 1.439 . S
C751 H786 0.950 . S
C752 N748 1.383 . S
C752 C751 1.439 . S
C752 C781 1.392 . S
N753 Co747 2.008 . S
N753 C754 1.376 . S
N753 C757 1.374 . S
C754 N753 1.376 . S
C754 C755 1.443 . S
C754 C781 1.389 . S
C755 C754 1.443 . S
C755 C756 1.340 . S
C755 H787 0.951 . S
C756 C755 1.340 . S
C756 C757 1.439 . S
C756 H788 0.950 . S
C757 N753 1.374 . S
C757 C756 1.439 . S
C757 C782 1.395 . S
N758 Co747 1.995 . S
N758 C759 1.376 . S
N758 C762 1.383 . S
C759 N758 1.376 . S
C759 C760 1.446 . S
C759 C782 1.391 . S
C760 C759 1.446 . S
C760 C761 1.339 . S
C760 H789 0.949 . S
C761 C760 1.339 . S
C761 C762 1.439 . S
C761 H790 0.950 . S
C762 N758 1.383 . S
C762 C761 1.439 . S
C762 C780 1.392 . S
N763 Co747 2.282 . S
N763 C766 1.332 . S
N763 C768 1.332 . S
C764 C765 1.386 . S
C764 C767 1.388 . S
C765 C764 1.386 . S
C765 C766 1.382 . S
C765 H791 0.950 . S
C766 N763 1.332 . S
C766 C765 1.382 . S
C766 H777 0.952 . S
C767 C764 1.388 . S
C767 C768 1.382 . S
C767 H792 0.950 . S
C768 N763 1.332 . S
C768 C767 1.382 . S
C768 H778 0.948 . S
N769 Co747 2.282 . S
N769 C773 1.332 . S
N769 C774 1.332 . S
C770 C771 1.388 . S
C770 C774 1.382 . S
C770 H793 0.950 . S
C771 C770 1.388 . S
C771 C772 1.386 . S
C772 C771 1.386 . S
C772 C773 1.382 . S
C772 H794 0.950 . S
C773 N769 1.332 . S
C773 C772 1.382 . S
C773 H775 0.952 . S
C774 N769 1.332 . S
C774 C770 1.382 . S
C774 H776 0.948 . S
H775 C773 0.952 . S
H776 C774 0.948 . S
H777 C766 0.952 . S
H778 C768 0.948 . S
C779 C745 1.395 . S
C779 C749 1.391 . S
C780 C742 1.389 . S
C780 C762 1.392 . S
C781 C752 1.392 . S
C781 C754 1.389 . S
C782 C757 1.395 . S
C782 C759 1.391 . S
H783 C743 0.951 . S
H784 C744 0.950 . S
H785 C750 0.949 . S
H786 C751 0.950 . S
H787 C755 0.951 . S
H788 C756 0.950 . S
H789 C760 0.949 . S
H790 C761 0.950 . S
H791 C765 0.950 . S
H792 C767 0.950 . S
H793 C770 0.950 . S
H794 C772 0.950 . S
C795 C796 1.443 . S
C795 N799 1.376 . S
C795 C833 1.389 . S
C796 C795 1.443 . S
C796 C797 1.340 . S
C796 H836 0.951 . S
C797 C796 1.340 . S
C797 C798 1.439 . S
C797 H837 0.950 . S
C798 C797 1.439 . S
C798 N799 1.374 . S
C798 C832 1.395 . S
N799 C795 1.376 . S
N799 C798 1.374 . S
N799 Co800 2.008 . S
Co800 N799 2.008 . S
Co800 N801 1.995 . S
Co800 N806 2.008 . S
Co800 N811 1.995 . S
Co800 N816 2.282 . S
Co800 N822 2.282 . S
N801 Co800 1.995 . S
N801 C802 1.376 . S
N801 C805 1.383 . S
C802 N801 1.376 . S
C802 C803 1.446 . S
C802 C832 1.391 . S
C803 C802 1.446 . S
C803 C804 1.339 . S
C803 H838 0.949 . S
C804 C803 1.339 . S
C804 C805 1.439 . S
C804 H839 0.950 . S
C805 N801 1.383 . S
C805 C804 1.439 . S
C805 C834 1.392 . S
N806 Co800 2.008 . S
N806 C807 1.376 . S
N806 C810 1.374 . S
C807 N806 1.376 . S
C807 C808 1.443 . S
C807 C834 1.389 . S
C808 C807 1.443 . S
C808 C809 1.340 . S
C808 H840 0.951 . S
C809 C808 1.340 . S
C809 C810 1.439 . S
C809 H841 0.950 . S
C810 N806 1.374 . S
C810 C809 1.439 . S
C810 C835 1.395 . S
N811 Co800 1.995 . S
N811 C812 1.376 . S
N811 C815 1.383 . S
C812 N811 1.376 . S
C812 C813 1.446 . S
C812 C835 1.391 . S
C813 C812 1.446 . S
C813 C814 1.339 . S
C813 H842 0.949 . S
C814 C813 1.339 . S
C814 C815 1.439 . S
C814 H843 0.950 . S
C815 N811 1.383 . S
C815 C814 1.439 . S
C815 C833 1.392 . S
N816 Co800 2.282 . S
N816 C819 1.332 . S
N816 C821 1.332 . S
C817 C818 1.386 . S
C817 C820 1.388 . S
C818 C817 1.386 . S
C818 C819 1.382 . S
C818 H844 0.950 . S
C819 N816 1.332 . S
C819 C818 1.382 . S
C819 H830 0.952 . S
C820 C817 1.388 . S
C820 C821 1.382 . S
C820 H845 0.950 . S
C821 N816 1.332 . S
C821 C820 1.382 . S
C821 H831 0.948 . S
N822 Co800 2.282 . S
N822 C826 1.332 . S
N822 C827 1.332 . S
C823 C824 1.388 . S
C823 C827 1.382 . S
C823 H846 0.950 . S
C824 C823 1.388 . S
C824 C825 1.386 . S
C825 C824 1.386 . S
C825 C826 1.382 . S
C825 H847 0.950 . S
C826 N822 1.332 . S
C826 C825 1.382 . S
C826 H828 0.952 . S
C827 N822 1.332 . S
C827 C823 1.382 . S
C827 H829 0.948 . S
H828 C826 0.952 . S
H829 C827 0.948 . S
H830 C819 0.952 . S
H831 C821 0.948 . S
C832 C798 1.395 . S
C832 C802 1.391 . S
C833 C795 1.389 . S
C833 C815 1.392 . S
C834 C805 1.392 . S
C834 C807 1.389 . S
C835 C810 1.395 . S
C835 C812 1.391 . S
H836 C796 0.951 . S
H837 C797 0.950 . S
H838 C803 0.949 . S
H839 C804 0.950 . S
H840 C808 0.951 . S
H841 C809 0.950 . S
H842 C813 0.949 . S
H843 C814 0.950 . S
H844 C818 0.950 . S
H845 C820 0.950 . S
H846 C823 0.950 . S
H847 C825 0.950 . S
C848 C849 1.443 . S
C848 N852 1.376 . S
C848 C886 1.389 . S
C849 C848 1.443 . S
C849 C850 1.340 . S
C849 H889 0.951 . S
C850 C849 1.340 . S
C850 C851 1.439 . S
C850 H890 0.950 . S
C851 C850 1.439 . S
C851 N852 1.374 . S
C851 C885 1.395 . S
N852 C848 1.376 . S
N852 C851 1.374 . S
N852 Co853 2.008 . S
Co853 N852 2.008 . S
Co853 N854 1.995 . S
Co853 N859 2.008 . S
Co853 N864 1.995 . S
Co853 N869 2.282 . S
Co853 N875 2.282 . S
N854 Co853 1.995 . S
N854 C855 1.376 . S
N854 C858 1.383 . S
C855 N854 1.376 . S
C855 C856 1.446 . S
C855 C885 1.391 . S
C856 C855 1.446 . S
C856 C857 1.339 . S
C856 H891 0.949 . S
C857 C856 1.339 . S
C857 C858 1.439 . S
C857 H892 0.950 . S
C858 N854 1.383 . S
C858 C857 1.439 . S
C858 C887 1.392 . S
N859 Co853 2.008 . S
N859 C860 1.376 . S
N859 C863 1.374 . S
C860 N859 1.376 . S
C860 C861 1.443 . S
C860 C887 1.389 . S
C861 C860 1.443 . S
C861 C862 1.340 . S
C861 H893 0.951 . S
C862 C861 1.340 . S
C862 C863 1.439 . S
C862 H894 0.950 . S
C863 N859 1.374 . S
C863 C862 1.439 . S
C863 C888 1.395 . S
N864 Co853 1.995 . S
N864 C865 1.376 . S
N864 C868 1.383 . S
C865 N864 1.376 . S
C865 C866 1.446 . S
C865 C888 1.391 . S
C866 C865 1.446 . S
C866 C867 1.339 . S
C866 H895 0.949 . S
C867 C866 1.339 . S
C867 C868 1.439 . S
C867 H896 0.950 . S
C868 N864 1.383 . S
C868 C867 1.439 . S
C868 C886 1.392 . S
N869 Co853 2.282 . S
N869 C872 1.332 . S
N869 C874 1.332 . S
C870 C871 1.386 . S
C870 C873 1.388 . S
C871 C870 1.386 . S
C871 C872 1.382 . S
C871 H897 0.950 . S
C872 N869 1.332 . S
C872 C871 1.382 . S
C872 H883 0.952 . S
C873 C870 1.388 . S
C873 C874 1.382 . S
C873 H898 0.950 . S
C874 N869 1.332 . S
C874 C873 1.382 . S
C874 H884 0.948 . S
N875 Co853 2.282 . S
N875 C879 1.332 . S
N875 C880 1.332 . S
C876 C877 1.388 . S
C876 C880 1.382 . S
C876 H899 0.950 . S
C877 C876 1.388 . S
C877 C878 1.386 . S
C878 C877 1.386 . S
C878 C879 1.382 . S
C878 H900 0.950 . S
C879 N875 1.332 . S
C879 C878 1.382 . S
C879 H881 0.952 . S
C880 N875 1.332 . S
C880 C876 1.382 . S
C880 H882 0.948 . S
H881 C879 0.952 . S
H882 C880 0.948 . S
H883 C872 0.952 . S
H884 C874 0.948 . S
C885 C851 1.395 . S
C885 C855 1.391 . S
C886 C848 1.389 . S
C886 C868 1.392 . S
C887 C858 1.392 . S
C887 C860 1.389 . S
C888 C863 1.395 . S
C888 C865 1.391 . S
H889 C849 0.951 . S
H890 C850 0.950 . S
H891 C856 0.949 . S
H892 C857 0.950 . S
H893 C861 0.951 . S
H894 C862 0.950 . S
H895 C866 0.949 . S
H896 C867 0.950 . S
H897 C871 0.950 . S
H898 C873 0.950 . S
H899 C876 0.950 . S
H900 C878 0.950 . S
C901 C902 1.443 . S
C901 N905 1.376 . S
C901 C939 1.389 . S
C902 C901 1.443 . S
C902 C903 1.340 . S
C902 H942 0.951 . S
C903 C902 1.340 . S
C903 C904 1.439 . S
C903 H943 0.950 . S
C904 C903 1.439 . S
C904 N905 1.374 . S
C904 C938 1.395 . S
N905 C901 1.376 . S
N905 C904 1.374 . S
N905 Co906 2.008 . S
Co906 N905 2.008 . S
Co906 N907 1.995 . S
Co906 N912 2.008 . S
Co906 N917 1.995 . S
Co906 N922 2.282 . S
Co906 N928 2.282 . S
N907 Co906 1.995 . S
N907 C908 1.376 . S
N907 C911 1.383 . S
C908 N907 1.376 . S
C908 C909 1.446 . S
C908 C938 1.391 . S
C909 C908 1.446 . S
C909 C910 1.339 . S
C909 H944 0.949 . S
C910 C909 1.339 . S
C910 C911 1.439 . S
C910 H945 0.950 . S
C911 N907 1.383 . S
C911 C910 1.439 . S
C911 C940 1.392 . S
N912 Co906 2.008 . S
N912 C913 1.376 . S
N912 C916 1.374 . S
C913 N912 1.376 . S
C913 C914 1.443 . S
C913 C940 1.389 . S
C914 C913 1.443 . S
C914 C915 1.340 . S
C914 H946 0.951 . S
C915 C914 1.340 . S
C915 C916 1.439 . S
C915 H947 0.950 . S
C916 N912 1.374 . S
C916 C915 1.439 . S
C916 C941 1.395 . S
N917 Co906 1.995 . S
N917 C918 1.376 . S
N917 C921 1.383 . S
C918 N917 1.376 . S
C918 C919 1.446 . S
C918 C941 1.391 . S
C919 C918 1.446 . S
C919 C920 1.339 . S
C919 H948 0.949 . S
C920 C919 1.339 . S
C920 C921 1.439 . S
C920 H949 0.950 . S
C921 N917 1.383 . S
C921 C920 1.439 . S
C921 C939 1.392 . S
N922 Co906 2.282 . S
N922 C925 1.332 . S
N922 C927 1.332 . S
C923 C924 1.386 . S
C923 C926 1.388 . S
C924 C923 1.386 . S
C924 C925 1.382 . S
C924 H950 0.950 . S
C925 N922 1.332 . S
C925 C924 1.382 . S
C925 H936 0.952 . S
C926 C923 1.388 . S
C926 C927 1.382 . S
C926 H951 0.950 . S
C927 N922 1.332 . S
C927 C926 1.382 . S
C927 H937 0.948 . S
N928 Co906 2.282 . S
N928 C932 1.332 . S
N928 C933 1.332 . S
C929 C930 1.388 . S
C929 C933 1.382 . S
C929 H952 0.950 . S
C930 C929 1.388 . S
C930 C931 1.386 . S
C931 C930 1.386 . S
C931 C932 1.382 . S
C931 H953 0.950 . S
C932 N928 1.332 . S
C932 C931 1.382 . S
C932 H934 0.952 . S
C933 N928 1.332 . S
C933 C929 1.382 . S
C933 H935 0.948 . S
H934 C932 0.952 . S
H935 C933 0.948 . S
H936 C925 0.952 . S
H937 C927 0.948 . S
C938 C904 1.395 . S
C938 C908 1.391 . S
C939 C901 1.389 . S
C939 C921 1.392 . S
C940 C911 1.392 . S
C940 C913 1.389 . S
C941 C916 1.395 . S
C941 C918 1.391 . S
H942 C902 0.951 . S
H943 C903 0.950 . S
H944 C909 0.949 . S
H945 C910 0.950 . S
H946 C914 0.951 . S
H947 C915 0.950 . S
H948 C919 0.949 . S
H949 C920 0.950 . S
H950 C924 0.950 . S
H951 C926 0.950 . S
H952 C929 0.950 . S
H953 C931 0.950 . S
C954 C955 1.443 . S
C954 N958 1.376 . S
C954 C992 1.389 . S
C955 C954 1.443 . S
C955 C956 1.340 . S
C955 H995 0.951 . S
C956 C955 1.340 . S
C956 C957 1.439 . S
C956 H996 0.950 . S
C957 C956 1.439 . S
C957 N958 1.374 . S
C957 C991 1.395 . S
N958 C954 1.376 . S
N958 C957 1.374 . S
N958 Co959 2.008 . S
Co959 N958 2.008 . S
Co959 N960 1.995 . S
Co959 N965 2.008 . S
Co959 N970 1.995 . S
Co959 N975 2.282 . S
Co959 N981 2.282 . S
N960 Co959 1.995 . S
N960 C961 1.376 . S
N960 C964 1.383 . S
C961 N960 1.376 . S
C961 C962 1.446 . S
C961 C991 1.391 . S
C962 C961 1.446 . S
C962 C963 1.339 . S
C962 H997 0.949 . S
C963 C962 1.339 . S
C963 C964 1.439 . S
C963 H998 0.950 . S
C964 N960 1.383 . S
C964 C963 1.439 . S
C964 C993 1.392 . S
N965 Co959 2.008 . S
N965 C966 1.376 . S
N965 C969 1.374 . S
C966 N965 1.376 . S
C966 C967 1.443 . S
C966 C993 1.389 . S
C967 C966 1.443 . S
C967 C968 1.340 . S
C967 H999 0.951 . S
C968 C967 1.340 . S
C968 C969 1.439 . S
C968 H1000 0.950 . S
C969 N965 1.374 . S
C969 C968 1.439 . S
C969 C994 1.395 . S
N970 Co959 1.995 . S
N970 C971 1.376 . S
N970 C974 1.383 . S
C971 N970 1.376 . S
C971 C972 1.446 . S
C971 C994 1.391 . S
C972 C971 1.446 . S
C972 C973 1.339 . S
C972 H1001 0.949 . S
C973 C972 1.339 . S
C973 C974 1.439 . S
C973 H1002 0.950 . S
C974 N970 1.383 . S
C974 C973 1.439 . S
C974 C992 1.392 . S
N975 Co959 2.282 . S
N975 C978 1.332 . S
N975 C980 1.332 . S
C976 C977 1.386 . S
C976 C979 1.388 . S
C977 C976 1.386 . S
C977 C978 1.382 . S
C977 H1003 0.950 . S
C978 N975 1.332 . S
C978 C977 1.382 . S
C978 H989 0.952 . S
C979 C976 1.388 . S
C979 C980 1.382 . S
C979 H1004 0.950 . S
C980 N975 1.332 . S
C980 C979 1.382 . S
C980 H990 0.948 . S
N981 Co959 2.282 . S
N981 C985 1.332 . S
N981 C986 1.332 . S
C982 C983 1.388 . S
C982 C986 1.382 . S
C982 H1005 0.950 . S
C983 C982 1.388 . S
C983 C984 1.386 . S
C984 C983 1.386 . S
C984 C985 1.382 . S
C984 H1006 0.950 . S
C985 N981 1.332 . S
C985 C984 1.382 . S
C985 H987 0.952 . S
C986 N981 1.332 . S
C986 C982 1.382 . S
C986 H988 0.948 . S
H987 C985 0.952 . S
H988 C986 0.948 . S
H989 C978 0.952 . S
H990 C980 0.948 . S
C991 C957 1.395 . S
C991 C961 1.391 . S
C992 C954 1.389 . S
C992 C974 1.392 . S
C993 C964 1.392 . S
C993 C966 1.389 . S
C994 C969 1.395 . S
C994 C971 1.391 . S
H995 C955 0.951 . S
H996 C956 0.950 . S
H997 C962 0.949 . S
H998 C963 0.950 . S
H999 C967 0.951 . S
H1000 C968 0.950 . S
H1001 C972 0.949 . S
H1002 C973 0.950 . S
H1003 C977 0.950 . S
H1004 C979 0.950 . S
H1005 C982 0.950 . S
H1006 C984 0.950 . S
C1007 C1008 1.443 . S
C1007 N1011 1.376 . S
C1007 C1045 1.389 . S
C1008 C1007 1.443 . S
C1008 C1009 1.340 . S
C1008 H1048 0.951 . S
C1009 C1008 1.340 . S
C1009 C1010 1.439 . S
C1009 H1049 0.950 . S
C1010 C1009 1.439 . S
C1010 N1011 1.374 . S
C1010 C1044 1.395 . S
N1011 C1007 1.376 . S
N1011 C1010 1.374 . S
N1011 Co1012 2.008 . S
Co1012 N1011 2.008 . S
Co1012 N1013 1.995 . S
Co1012 N1018 2.008 . S
Co1012 N1023 1.995 . S
Co1012 N1028 2.282 . S
Co1012 N1034 2.282 . S
N1013 Co1012 1.995 . S
N1013 C1014 1.376 . S
N1013 C1017 1.383 . S
C1014 N1013 1.376 . S
C1014 C1015 1.446 . S
C1014 C1044 1.391 . S
C1015 C1014 1.446 . S
C1015 C1016 1.339 . S
C1015 H1050 0.949 . S
C1016 C1015 1.339 . S
C1016 C1017 1.439 . S
C1016 H1051 0.950 . S
C1017 N1013 1.383 . S
C1017 C1016 1.439 . S
C1017 C1046 1.392 . S
N1018 Co1012 2.008 . S
N1018 C1019 1.376 . S
N1018 C1022 1.374 . S
C1019 N1018 1.376 . S
C1019 C1020 1.443 . S
C1019 C1046 1.389 . S
C1020 C1019 1.443 . S
C1020 C1021 1.340 . S
C1020 H1052 0.951 . S
C1021 C1020 1.340 . S
C1021 C1022 1.439 . S
C1021 H1053 0.950 . S
C1022 N1018 1.374 . S
C1022 C1021 1.439 . S
C1022 C1047 1.395 . S
N1023 Co1012 1.995 . S
N1023 C1024 1.376 . S
N1023 C1027 1.383 . S
C1024 N1023 1.376 . S
C1024 C1025 1.446 . S
C1024 C1047 1.391 . S
C1025 C1024 1.446 . S
C1025 C1026 1.339 . S
C1025 H1054 0.949 . S
C1026 C1025 1.339 . S
C1026 C1027 1.439 . S
C1026 H1055 0.950 . S
C1027 N1023 1.383 . S
C1027 C1026 1.439 . S
C1027 C1045 1.392 . S
N1028 Co1012 2.282 . S
N1028 C1031 1.332 . S
N1028 C1033 1.332 . S
C1029 C1030 1.386 . S
C1029 C1032 1.388 . S
C1030 C1029 1.386 . S
C1030 C1031 1.382 . S
C1030 H1056 0.950 . S
C1031 N1028 1.332 . S
C1031 C1030 1.382 . S
C1031 H1042 0.952 . S
C1032 C1029 1.388 . S
C1032 C1033 1.382 . S
C1032 H1057 0.950 . S
C1033 N1028 1.332 . S
C1033 C1032 1.382 . S
C1033 H1043 0.948 . S
N1034 Co1012 2.282 . S
N1034 C1038 1.332 . S
N1034 C1039 1.332 . S
C1035 C1036 1.388 . S
C1035 C1039 1.382 . S
C1035 H1058 0.950 . S
C1036 C1035 1.388 . S
C1036 C1037 1.386 . S
C1037 C1036 1.386 . S
C1037 C1038 1.382 . S
C1037 H1059 0.950 . S
C1038 N1034 1.332 . S
C1038 C1037 1.382 . S
C1038 H1040 0.952 . S
C1039 N1034 1.332 . S
C1039 C1035 1.382 . S
C1039 H1041 0.948 . S
H1040 C1038 0.952 . S
H1041 C1039 0.948 . S
H1042 C1031 0.952 . S
H1043 C1033 0.948 . S
C1044 C1010 1.395 . S
C1044 C1014 1.391 . S
C1045 C1007 1.389 . S
C1045 C1027 1.392 . S
C1046 C1017 1.392 . S
C1046 C1019 1.389 . S
C1047 C1022 1.395 . S
C1047 C1024 1.391 . S
H1048 C1008 0.951 . S
H1049 C1009 0.950 . S
H1050 C1015 0.949 . S
H1051 C1016 0.950 . S
H1052 C1020 0.951 . S
H1053 C1021 0.950 . S
H1054 C1025 0.949 . S
H1055 C1026 0.950 . S
H1056 C1030 0.950 . S
H1057 C1032 0.950 . S
H1058 C1035 0.950 . S
H1059 C1037 0.950 . S
C1060 C1061 1.443 . S
C1060 N1064 1.376 . S
C1060 C1098 1.389 . S
C1061 C1060 1.443 . S
C1061 C1062 1.340 . S
C1061 H1101 0.951 . S
C1062 C1061 1.340 . S
C1062 C1063 1.439 . S
C1062 H1102 0.950 . S
C1063 C1062 1.439 . S
C1063 N1064 1.374 . S
C1063 C1097 1.395 . S
N1064 C1060 1.376 . S
N1064 C1063 1.374 . S
N1064 Co1065 2.008 . S
Co1065 N1064 2.008 . S
Co1065 N1066 1.995 . S
Co1065 N1071 2.008 . S
Co1065 N1076 1.995 . S
Co1065 N1081 2.282 . S
Co1065 N1087 2.282 . S
N1066 Co1065 1.995 . S
N1066 C1067 1.376 . S
N1066 C1070 1.383 . S
C1067 N1066 1.376 . S
C1067 C1068 1.446 . S
C1067 C1097 1.391 . S
C1068 C1067 1.446 . S
C1068 C1069 1.339 . S
C1068 H1103 0.949 . S
C1069 C1068 1.339 . S
C1069 C1070 1.439 . S
C1069 H1104 0.950 . S
C1070 N1066 1.383 . S
C1070 C1069 1.439 . S
C1070 C1099 1.392 . S
N1071 Co1065 2.008 . S
N1071 C1072 1.376 . S
N1071 C1075 1.374 . S
C1072 N1071 1.376 . S
C1072 C1073 1.443 . S
C1072 C1099 1.389 . S
C1073 C1072 1.443 . S
C1073 C1074 1.340 . S
C1073 H1105 0.951 . S
C1074 C1073 1.340 . S
C1074 C1075 1.439 . S
C1074 H1106 0.950 . S
C1075 N1071 1.374 . S
C1075 C1074 1.439 . S
C1075 C1100 1.395 . S
N1076 Co1065 1.995 . S
N1076 C1077 1.376 . S
N1076 C1080 1.383 . S
C1077 N1076 1.376 . S
C1077 C1078 1.446 . S
C1077 C1100 1.391 . S
C1078 C1077 1.446 . S
C1078 C1079 1.339 . S
C1078 H1107 0.949 . S
C1079 C1078 1.339 . S
C1079 C1080 1.439 . S
C1079 H1108 0.950 . S
C1080 N1076 1.383 . S
C1080 C1079 1.439 . S
C1080 C1098 1.392 . S
N1081 Co1065 2.282 . S
N1081 C1084 1.332 . S
N1081 C1086 1.332 . S
C1082 C1083 1.386 . S
C1082 C1085 1.388 . S
C1083 C1082 1.386 . S
C1083 C1084 1.382 . S
C1083 H1109 0.950 . S
C1084 N1081 1.332 . S
C1084 C1083 1.382 . S
C1084 H1095 0.952 . S
C1085 C1082 1.388 . S
C1085 C1086 1.382 . S
C1085 H1110 0.950 . S
C1086 N1081 1.332 . S
C1086 C1085 1.382 . S
C1086 H1096 0.948 . S
N1087 Co1065 2.282 . S
N1087 C1091 1.332 . S
N1087 C1092 1.332 . S
C1088 C1089 1.388 . S
C1088 C1092 1.382 . S
C1088 H1111 0.950 . S
C1089 C1088 1.388 . S
C1089 C1090 1.386 . S
C1090 C1089 1.386 . S
C1090 C1091 1.382 . S
C1090 H1112 0.950 . S
C1091 N1087 1.332 . S
C1091 C1090 1.382 . S
C1091 H1093 0.952 . S
C1092 N1087 1.332 . S
C1092 C1088 1.382 . S
C1092 H1094 0.948 . S
H1093 C1091 0.952 . S
H1094 C1092 0.948 . S
H1095 C1084 0.952 . S
H1096 C1086 0.948 . S
C1097 C1063 1.395 . S
C1097 C1067 1.391 . S
C1098 C1060 1.389 . S
C1098 C1080 1.392 . S
C1099 C1070 1.392 . S
C1099 C1072 1.389 . S
C1100 C1075 1.395 . S
C1100 C1077 1.391 . S
H1101 C1061 0.951 . S
H1102 C1062 0.950 . S
H1103 C1068 0.949 . S
H1104 C1069 0.950 . S
H1105 C1073 0.951 . S
H1106 C1074 0.950 . S
H1107 C1078 0.949 . S
H1108 C1079 0.950 . S
H1109 C1083 0.950 . S
H1110 C1085 0.950 . S
H1111 C1088 0.950 . S
H1112 C1090 0.950 . S
C1113 C1114 1.443 . S
C1113 N1117 1.376 . S
C1113 C1151 1.389 . S
C1114 C1113 1.443 . S
C1114 C1115 1.340 . S
C1114 H1154 0.951 . S
C1115 C1114 1.340 . S
C1115 C1116 1.439 . S
C1115 H1155 0.950 . S
C1116 C1115 1.439 . S
C1116 N1117 1.374 . S
C1116 C1150 1.395 . S
N1117 C1113 1.376 . S
N1117 C1116 1.374 . S
N1117 Co1118 2.008 . S
Co1118 N1117 2.008 . S
Co1118 N1119 1.995 . S
Co1118 N1124 2.008 . S
Co1118 N1129 1.995 . S
Co1118 N1134 2.282 . S
Co1118 N1140 2.282 . S
N1119 Co1118 1.995 . S
N1119 C1120 1.376 . S
N1119 C1123 1.383 . S
C1120 N1119 1.376 . S
C1120 C1121 1.446 . S
C1120 C1150 1.391 . S
C1121 C1120 1.446 . S
C1121 C1122 1.339 . S
C1121 H1156 0.949 . S
C1122 C1121 1.339 . S
C1122 C1123 1.439 . S
C1122 H1157 0.950 . S
C1123 N1119 1.383 . S
C1123 C1122 1.439 . S
C1123 C1152 1.392 . S
N1124 Co1118 2.008 . S
N1124 C1125 1.376 . S
N1124 C1128 1.374 . S
C1125 N1124 1.376 . S
C1125 C1126 1.443 . S
C1125 C1152 1.389 . S
C1126 C1125 1.443 . S
C1126 C1127 1.340 . S
C1126 H1158 0.951 . S
C1127 C1126 1.340 . S
C1127 C1128 1.439 . S
C1127 H1159 0.950 . S
C1128 N1124 1.374 . S
C1128 C1127 1.439 . S
C1128 C1153 1.395 . S
N1129 Co1118 1.995 . S
N1129 C1130 1.376 . S
N1129 C1133 1.383 . S
C1130 N1129 1.376 . S
C1130 C1131 1.446 . S
C1130 C1153 1.391 . S
C1131 C1130 1.446 . S
C1131 C1132 1.339 . S
C1131 H1160 0.949 . S
C1132 C1131 1.339 . S
C1132 C1133 1.439 . S
C1132 H1161 0.950 . S
C1133 N1129 1.383 . S
C1133 C1132 1.439 . S
C1133 C1151 1.392 . S
N1134 Co1118 2.282 . S
N1134 C1137 1.332 . S
N1134 C1139 1.332 . S
C1135 C1136 1.386 . S
C1135 C1138 1.388 . S
C1136 C1135 1.386 . S
C1136 C1137 1.382 . S
C1136 H1162 0.950 . S
C1137 N1134 1.332 . S
C1137 C1136 1.382 . S
C1137 H1148 0.952 . S
C1138 C1135 1.388 . S
C1138 C1139 1.382 . S
C1138 H1163 0.950 . S
C1139 N1134 1.332 . S
C1139 C1138 1.382 . S
C1139 H1149 0.948 . S
N1140 Co1118 2.282 . S
N1140 C1144 1.332 . S
N1140 C1145 1.332 . S
C1141 C1142 1.388 . S
C1141 C1145 1.382 . S
C1141 H1164 0.950 . S
C1142 C1141 1.388 . S
C1142 C1143 1.386 . S
C1143 C1142 1.386 . S
C1143 C1144 1.382 . S
C1143 H1165 0.950 . S
C1144 N1140 1.332 . S
C1144 C1143 1.382 . S
C1144 H1146 0.952 . S
C1145 N1140 1.332 . S
C1145 C1141 1.382 . S
C1145 H1147 0.948 . S
H1146 C1144 0.952 . S
H1147 C1145 0.948 . S
H1148 C1137 0.952 . S
H1149 C1139 0.948 . S
C1150 C1116 1.395 . S
C1150 C1120 1.391 . S
C1151 C1113 1.389 . S
C1151 C1133 1.392 . S
C1152 C1123 1.392 . S
C1152 C1125 1.389 . S
C1153 C1128 1.395 . S
C1153 C1130 1.391 . S
H1154 C1114 0.951 . S
H1155 C1115 0.950 . S
H1156 C1121 0.949 . S
H1157 C1122 0.950 . S
H1158 C1126 0.951 . S
H1159 C1127 0.950 . S
H1160 C1131 0.949 . S
H1161 C1132 0.950 . S
H1162 C1136 0.950 . S
H1163 C1138 0.950 . S
H1164 C1141 0.950 . S
H1165 C1143 0.950 . S
C1166 C1167 1.443 . S
C1166 N1170 1.376 . S
C1166 C1204 1.389 . S
C1167 C1166 1.443 . S
C1167 C1168 1.340 . S
C1167 H1207 0.951 . S
C1168 C1167 1.340 . S
C1168 C1169 1.439 . S
C1168 H1208 0.950 . S
C1169 C1168 1.439 . S
C1169 N1170 1.374 . S
C1169 C1203 1.395 . S
N1170 C1166 1.376 . S
N1170 C1169 1.374 . S
N1170 Co1171 2.008 . S
Co1171 N1170 2.008 . S
Co1171 N1172 1.995 . S
Co1171 N1177 2.008 . S
Co1171 N1182 1.995 . S
Co1171 N1187 2.282 . S
Co1171 N1193 2.282 . S
N1172 Co1171 1.995 . S
N1172 C1173 1.376 . S
N1172 C1176 1.383 . S
C1173 N1172 1.376 . S
C1173 C1174 1.446 . S
C1173 C1203 1.391 . S
C1174 C1173 1.446 . S
C1174 C1175 1.339 . S
C1174 H1209 0.949 . S
C1175 C1174 1.339 . S
C1175 C1176 1.439 . S
C1175 H1210 0.950 . S
C1176 N1172 1.383 . S
C1176 C1175 1.439 . S
C1176 C1205 1.392 . S
N1177 Co1171 2.008 . S
N1177 C1178 1.376 . S
N1177 C1181 1.374 . S
C1178 N1177 1.376 . S
C1178 C1179 1.443 . S
C1178 C1205 1.389 . S
C1179 C1178 1.443 . S
C1179 C1180 1.340 . S
C1179 H1211 0.951 . S
C1180 C1179 1.340 . S
C1180 C1181 1.439 . S
C1180 H1212 0.950 . S
C1181 N1177 1.374 . S
C1181 C1180 1.439 . S
C1181 C1206 1.395 . S
N1182 Co1171 1.995 . S
N1182 C1183 1.376 . S
N1182 C1186 1.383 . S
C1183 N1182 1.376 . S
C1183 C1184 1.446 . S
C1183 C1206 1.391 . S
C1184 C1183 1.446 . S
C1184 C1185 1.339 . S
C1184 H1213 0.949 . S
C1185 C1184 1.339 . S
C1185 C1186 1.439 . S
C1185 H1214 0.950 . S
C1186 N1182 1.383 . S
C1186 C1185 1.439 . S
C1186 C1204 1.392 . S
N1187 Co1171 2.282 . S
N1187 C1190 1.332 . S
N1187 C1192 1.332 . S
C1188 C1189 1.386 . S
C1188 C1191 1.388 . S
C1189 C1188 1.386 . S
C1189 C1190 1.382 . S
C1189 H1215 0.950 . S
C1190 N1187 1.332 . S
C1190 C1189 1.382 . S
C1190 H1201 0.952 . S
C1191 C1188 1.388 . S
C1191 C1192 1.382 . S
C1191 H1216 0.950 . S
C1192 N1187 1.332 . S
C1192 C1191 1.382 . S
C1192 H1202 0.948 . S
N1193 Co1171 2.282 . S
N1193 C1197 1.332 . S
N1193 C1198 1.332 . S
C1194 C1195 1.388 . S
C1194 C1198 1.382 . S
C1194 H1217 0.950 . S
C1195 C1194 1.388 . S
C1195 C1196 1.386 . S
C1196 C1195 1.386 . S
C1196 C1197 1.382 . S
C1196 H1218 0.950 . S
C1197 N1193 1.332 . S
C1197 C1196 1.382 . S
C1197 H1199 0.952 . S
C1198 N1193 1.332 . S
C1198 C1194 1.382 . S
C1198 H1200 0.948 . S
H1199 C1197 0.952 . S
H1200 C1198 0.948 . S
H1201 C1190 0.952 . S
H1202 C1192 0.948 . S
C1203 C1169 1.395 . S
C1203 C1173 1.391 . S
C1204 C1166 1.389 . S
C1204 C1186 1.392 . S
C1205 C1176 1.392 . S
C1205 C1178 1.389 . S
C1206 C1181 1.395 . S
C1206 C1183 1.391 . S
H1207 C1167 0.951 . S
H1208 C1168 0.950 . S
H1209 C1174 0.949 . S
H1210 C1175 0.950 . S
H1211 C1179 0.951 . S
H1212 C1180 0.950 . S
H1213 C1184 0.949 . S
H1214 C1185 0.950 . S
H1215 C1189 0.950 . S
H1216 C1191 0.950 . S
H1217 C1194 0.950 . S
H1218 C1196 0.950 . S
C1219 C1220 1.443 . S
C1219 N1223 1.376 . S
C1219 C1257 1.389 . S
C1220 C1219 1.443 . S
C1220 C1221 1.340 . S
C1220 H1260 0.951 . S
C1221 C1220 1.340 . S
C1221 C1222 1.439 . S
C1221 H1261 0.950 . S
C1222 C1221 1.439 . S
C1222 N1223 1.374 . S
C1222 C1256 1.395 . S
N1223 C1219 1.376 . S
N1223 C1222 1.374 . S
N1223 Co1224 2.008 . S
Co1224 N1223 2.008 . S
Co1224 N1225 1.995 . S
Co1224 N1230 2.008 . S
Co1224 N1235 1.995 . S
Co1224 N1240 2.282 . S
Co1224 N1246 2.282 . S
N1225 Co1224 1.995 . S
N1225 C1226 1.376 . S
N1225 C1229 1.383 . S
C1226 N1225 1.376 . S
C1226 C1227 1.446 . S
C1226 C1256 1.391 . S
C1227 C1226 1.446 . S
C1227 C1228 1.339 . S
C1227 H1262 0.949 . S
C1228 C1227 1.339 . S
C1228 C1229 1.439 . S
C1228 H1263 0.950 . S
C1229 N1225 1.383 . S
C1229 C1228 1.439 . S
C1229 C1258 1.392 . S
N1230 Co1224 2.008 . S
N1230 C1231 1.376 . S
N1230 C1234 1.374 . S
C1231 N1230 1.376 . S
C1231 C1232 1.443 . S
C1231 C1258 1.389 . S
C1232 C1231 1.443 . S
C1232 C1233 1.340 . S
C1232 H1264 0.951 . S
C1233 C1232 1.340 . S
C1233 C1234 1.439 . S
C1233 H1265 0.950 . S
C1234 N1230 1.374 . S
C1234 C1233 1.439 . S
C1234 C1259 1.395 . S
N1235 Co1224 1.995 . S
N1235 C1236 1.376 . S
N1235 C1239 1.383 . S
C1236 N1235 1.376 . S
C1236 C1237 1.446 . S
C1236 C1259 1.391 . S
C1237 C1236 1.446 . S
C1237 C1238 1.339 . S
C1237 H1266 0.949 . S
C1238 C1237 1.339 . S
C1238 C1239 1.439 . S
C1238 H1267 0.950 . S
C1239 N1235 1.383 . S
C1239 C1238 1.439 . S
C1239 C1257 1.392 . S
N1240 Co1224 2.282 . S
N1240 C1243 1.332 . S
N1240 C1245 1.332 . S
C1241 C1242 1.386 . S
C1241 C1244 1.388 . S
C1242 C1241 1.386 . S
C1242 C1243 1.382 . S
C1242 H1268 0.950 . S
C1243 N1240 1.332 . S
C1243 C1242 1.382 . S
C1243 H1254 0.952 . S
C1244 C1241 1.388 . S
C1244 C1245 1.382 . S
C1244 H1269 0.950 . S
C1245 N1240 1.332 . S
C1245 C1244 1.382 . S
C1245 H1255 0.948 . S
N1246 Co1224 2.282 . S
N1246 C1250 1.332 . S
N1246 C1251 1.332 . S
C1247 C1248 1.388 . S
C1247 C1251 1.382 . S
C1247 H1270 0.950 . S
C1248 C1247 1.388 . S
C1248 C1249 1.386 . S
C1249 C1248 1.386 . S
C1249 C1250 1.382 . S
C1249 H1271 0.950 . S
C1250 N1246 1.332 . S
C1250 C1249 1.382 . S
C1250 H1252 0.952 . S
C1251 N1246 1.332 . S
C1251 C1247 1.382 . S
C1251 H1253 0.948 . S
H1252 C1250 0.952 . S
H1253 C1251 0.948 . S
H1254 C1243 0.952 . S
H1255 C1245 0.948 . S
C1256 C1222 1.395 . S
C1256 C1226 1.391 . S
C1257 C1219 1.389 . S
C1257 C1239 1.392 . S
C1258 C1229 1.392 . S
C1258 C1231 1.389 . S
C1259 C1234 1.395 . S
C1259 C1236 1.391 . S
H1260 C1220 0.951 . S
H1261 C1221 0.950 . S
H1262 C1227 0.949 . S
H1263 C1228 0.950 . S
H1264 C1232 0.951 . S
H1265 C1233 0.950 . S
H1266 C1237 0.949 . S
H1267 C1238 0.950 . S
H1268 C1242 0.950 . S
H1269 C1244 0.950 . S
H1270 C1247 0.950 . S
H1271 C1249 0.950 . S
H1272 C1278 0.930 . S
H1273 C1282 0.930 . S
H1274 C1287 0.929 . S
H1275 C1285 0.929 . S
H1276 C1280 0.929 . S
H1277 C1286 0.929 . S
C1278 H1272 0.930 . S
C1278 C1279 1.367 . S
C1278 C1286 1.378 . S
C1279 C1278 1.367 . S
C1279 C1287 1.433 . S
C1280 H1276 0.929 . S
C1280 C1282 1.378 . S
C1280 C1284 1.350 . S
C1281 C1284 1.463 . S
C1281 C1286 1.350 . S
C1281 N1289 1.427 . S
C1282 H1273 0.930 . S
C1282 C1280 1.378 . S
C1282 C1283 1.367 . S
C1283 C1282 1.367 . S
C1283 C1285 1.433 . S
C1284 C1280 1.350 . S
C1284 C1281 1.463 . S
C1284 N1288 1.427 . S
C1285 H1275 0.929 . S
C1285 C1283 1.433 . S
C1285 N1288 1.384 . S
C1286 H1277 0.929 . S
C1286 C1278 1.378 . S
C1286 C1281 1.350 . S
C1287 H1274 0.929 . S
C1287 C1279 1.433 . S
C1287 N1289 1.384 . S
N1288 C1284 1.427 . S
N1288 C1285 1.384 . S
N1289 C1281 1.427 . S
N1289 C1287 1.384 . S
H1290 C1296 0.930 . S
H1291 C1300 0.930 . S
H1292 C1305 0.929 . S
H1293 C1303 0.929 . S
H1294 C1298 0.929 . S
H1295 C1304 0.929 . S
C1296 H1290 0.930 . S
C1296 C1297 1.367 . S
C1296 C1304 1.378 . S
C1297 C1296 1.367 . S
C1297 C1305 1.433 . S
C1298 H1294 0.929 . S
C1298 C1300 1.378 . S
C1298 C1302 1.350 . S
C1299 C1302 1.463 . S
C1299 C1304 1.350 . S
C1299 N1307 1.427 . S
C1300 H1291 0.930 . S
C1300 C1298 1.378 . S
C1300 C1301 1.367 . S
C1301 C1300 1.367 . S
C1301 C1303 1.433 . S
C1302 C1298 1.350 . S
C1302 C1299 1.463 . S
C1302 N1306 1.427 . S
C1303 H1293 0.929 . S
C1303 C1301 1.433 . S
C1303 N1306 1.384 . S
C1304 H1295 0.929 . S
C1304 C1296 1.378 . S
C1304 C1299 1.350 . S
C1305 H1292 0.929 . S
C1305 C1297 1.433 . S
C1305 N1307 1.384 . S
N1306 C1302 1.427 . S
N1306 C1303 1.384 . S
N1307 C1299 1.427 . S
N1307 C1305 1.384 . S
H1308 C1314 0.930 . S
H1309 C1318 0.930 . S
H1310 C1323 0.929 . S
H1311 C1321 0.929 . S
H1312 C1316 0.929 . S
H1313 C1322 0.929 . S
C1314 H1308 0.930 . S
C1314 C1315 1.367 . S
C1314 C1322 1.378 . S
C1315 C1314 1.367 . S
C1315 C1323 1.433 . S
C1316 H1312 0.929 . S
C1316 C1318 1.378 . S
C1316 C1320 1.350 . S
C1317 C1320 1.463 . S
C1317 C1322 1.350 . S
C1317 N1325 1.427 . S
C1318 H1309 0.930 . S
C1318 C1316 1.378 . S
C1318 C1319 1.367 . S
C1319 C1318 1.367 . S
C1319 C1321 1.433 . S
C1320 C1316 1.350 . S
C1320 C1317 1.463 . S
C1320 N1324 1.427 . S
C1321 H1311 0.929 . S
C1321 C1319 1.433 . S
C1321 N1324 1.384 . S
C1322 H1313 0.929 . S
C1322 C1314 1.378 . S
C1322 C1317 1.350 . S
C1323 H1310 0.929 . S
C1323 C1315 1.433 . S
C1323 N1325 1.384 . S
N1324 C1320 1.427 . S
N1324 C1321 1.384 . S
N1325 C1317 1.427 . S
N1325 C1323 1.384 . S
H1326 C1332 0.930 . S
H1327 C1336 0.930 . S
H1328 C1341 0.929 . S
H1329 C1339 0.929 . S
H1330 C1334 0.929 . S
H1331 C1340 0.929 . S
C1332 H1326 0.930 . S
C1332 C1333 1.367 . S
C1332 C1340 1.378 . S
C1333 C1332 1.367 . S
C1333 C1341 1.433 . S
C1334 H1330 0.929 . S
C1334 C1336 1.378 . S
C1334 C1338 1.350 . S
C1335 C1338 1.463 . S
C1335 C1340 1.350 . S
C1335 N1343 1.427 . S
C1336 H1327 0.930 . S
C1336 C1334 1.378 . S
C1336 C1337 1.367 . S
C1337 C1336 1.367 . S
C1337 C1339 1.433 . S
C1338 C1334 1.350 . S
C1338 C1335 1.463 . S
C1338 N1342 1.427 . S
C1339 H1329 0.929 . S
C1339 C1337 1.433 . S
C1339 N1342 1.384 . S
C1340 H1331 0.929 . S
C1340 C1332 1.378 . S
C1340 C1335 1.350 . S
C1341 H1328 0.929 . S
C1341 C1333 1.433 . S
C1341 N1343 1.384 . S
N1342 C1338 1.427 . S
N1342 C1339 1.384 . S
N1343 C1335 1.427 . S
N1343 C1341 1.384 . S
H1344 C1350 0.930 . S
H1345 C1354 0.930 . S
H1346 C1359 0.929 . S
H1347 C1357 0.929 . S
H1348 C1352 0.929 . S
H1349 C1358 0.929 . S
C1350 H1344 0.930 . S
C1350 C1351 1.367 . S
C1350 C1358 1.378 . S
C1351 C1350 1.367 . S
C1351 C1359 1.433 . S
C1352 H1348 0.929 . S
C1352 C1354 1.378 . S
C1352 C1356 1.350 . S
C1353 C1356 1.463 . S
C1353 C1358 1.350 . S
C1353 N1361 1.427 . S
C1354 H1345 0.930 . S
C1354 C1352 1.378 . S
C1354 C1355 1.367 . S
C1355 C1354 1.367 . S
C1355 C1357 1.433 . S
C1356 C1352 1.350 . S
C1356 C1353 1.463 . S
C1356 N1360 1.427 . S
C1357 H1347 0.929 . S
C1357 C1355 1.433 . S
C1357 N1360 1.384 . S
C1358 H1349 0.929 . S
C1358 C1350 1.378 . S
C1358 C1353 1.350 . S
C1359 H1346 0.929 . S
C1359 C1351 1.433 . S
C1359 N1361 1.384 . S
N1360 C1356 1.427 . S
N1360 C1357 1.384 . S
N1361 C1353 1.427 . S
N1361 C1359 1.384 . S
H1362 C1368 0.930 . S
H1363 C1372 0.930 . S
H1364 C1377 0.929 . S
H1365 C1375 0.929 . S
H1366 C1370 0.929 . S
H1367 C1376 0.929 . S
C1368 H1362 0.930 . S
C1368 C1369 1.367 . S
C1368 C1376 1.378 . S
C1369 C1368 1.367 . S
C1369 C1377 1.433 . S
C1370 H1366 0.929 . S
C1370 C1372 1.378 . S
C1370 C1374 1.350 . S
C1371 C1374 1.463 . S
C1371 C1376 1.350 . S
C1371 N1379 1.427 . S
C1372 H1363 0.930 . S
C1372 C1370 1.378 . S
C1372 C1373 1.367 . S
C1373 C1372 1.367 . S
C1373 C1375 1.433 . S
C1374 C1370 1.350 . S
C1374 C1371 1.463 . S
C1374 N1378 1.427 . S
C1375 H1365 0.929 . S
C1375 C1373 1.433 . S
C1375 N1378 1.384 . S
C1376 H1367 0.929 . S
C1376 C1368 1.378 . S
C1376 C1371 1.350 . S
C1377 H1364 0.929 . S
C1377 C1369 1.433 . S
C1377 N1379 1.384 . S
N1378 C1374 1.427 . S
N1378 C1375 1.384 . S
N1379 C1371 1.427 . S
N1379 C1377 1.384 . S
H1380 C1386 0.930 . S
H1381 C1390 0.930 . S
H1382 C1395 0.929 . S
H1383 C1393 0.929 . S
H1384 C1388 0.929 . S
H1385 C1394 0.929 . S
C1386 H1380 0.930 . S
C1386 C1387 1.367 . S
C1386 C1394 1.378 . S
C1387 C1386 1.367 . S
C1387 C1395 1.433 . S
C1388 H1384 0.929 . S
C1388 C1390 1.378 . S
C1388 C1392 1.350 . S
C1389 C1392 1.463 . S
C1389 C1394 1.350 . S
C1389 N1397 1.427 . S
C1390 H1381 0.930 . S
C1390 C1388 1.378 . S
C1390 C1391 1.367 . S
C1391 C1390 1.367 . S
C1391 C1393 1.433 . S
C1392 C1388 1.350 . S
C1392 C1389 1.463 . S
C1392 N1396 1.427 . S
C1393 H1383 0.929 . S
C1393 C1391 1.433 . S
C1393 N1396 1.384 . S
C1394 H1385 0.929 . S
C1394 C1386 1.378 . S
C1394 C1389 1.350 . S
C1395 H1382 0.929 . S
C1395 C1387 1.433 . S
C1395 N1397 1.384 . S
N1396 C1392 1.427 . S
N1396 C1393 1.384 . S
N1397 C1389 1.427 . S
N1397 C1395 1.384 . S
H1398 C1404 0.930 . S
H1399 C1408 0.930 . S
H1400 C1413 0.929 . S
H1401 C1411 0.929 . S
H1402 C1406 0.929 . S
H1403 C1412 0.929 . S
C1404 H1398 0.930 . S
C1404 C1405 1.367 . S
C1404 C1412 1.378 . S
C1405 C1404 1.367 . S
C1405 C1413 1.433 . S
C1406 H1402 0.929 . S
C1406 C1408 1.378 . S
C1406 C1410 1.350 . S
C1407 C1410 1.463 . S
C1407 C1412 1.350 . S
C1407 N1415 1.427 . S
C1408 H1399 0.930 . S
C1408 C1406 1.378 . S
C1408 C1409 1.367 . S
C1409 C1408 1.367 . S
C1409 C1411 1.433 . S
C1410 C1406 1.350 . S
C1410 C1407 1.463 . S
C1410 N1414 1.427 . S
C1411 H1401 0.929 . S
C1411 C1409 1.433 . S
C1411 N1414 1.384 . S
C1412 H1403 0.929 . S
C1412 C1404 1.378 . S
C1412 C1407 1.350 . S
C1413 H1400 0.929 . S
C1413 C1405 1.433 . S
C1413 N1415 1.384 . S
N1414 C1410 1.427 . S
N1414 C1411 1.384 . S
N1415 C1407 1.427 . S
N1415 C1413 1.384 . S
H1416 C1422 0.930 . S
H1417 C1426 0.930 . S
H1418 C1431 0.929 . S
H1419 C1429 0.929 . S
H1420 C1424 0.929 . S
H1421 C1430 0.929 . S
C1422 H1416 0.930 . S
C1422 C1423 1.367 . S
C1422 C1430 1.378 . S
C1423 C1422 1.367 . S
C1423 C1431 1.433 . S
C1424 H1420 0.929 . S
C1424 C1426 1.378 . S
C1424 C1428 1.350 . S
C1425 C1428 1.463 . S
C1425 C1430 1.350 . S
C1425 N1433 1.427 . S
C1426 H1417 0.930 . S
C1426 C1424 1.378 . S
C1426 C1427 1.367 . S
C1427 C1426 1.367 . S
C1427 C1429 1.433 . S
C1428 C1424 1.350 . S
C1428 C1425 1.463 . S
C1428 N1432 1.427 . S
C1429 H1419 0.929 . S
C1429 C1427 1.433 . S
C1429 N1432 1.384 . S
C1430 H1421 0.929 . S
C1430 C1422 1.378 . S
C1430 C1425 1.350 . S
C1431 H1418 0.929 . S
C1431 C1423 1.433 . S
C1431 N1433 1.384 . S
N1432 C1428 1.427 . S
N1432 C1429 1.384 . S
N1433 C1425 1.427 . S
N1433 C1431 1.384 . S
H1434 C1440 0.930 . S
H1435 C1444 0.930 . S
H1436 C1449 0.929 . S
H1437 C1447 0.929 . S
H1438 C1442 0.929 . S
H1439 C1448 0.929 . S
C1440 H1434 0.930 . S
C1440 C1441 1.367 . S
C1440 C1448 1.378 . S
C1441 C1440 1.367 . S
C1441 C1449 1.433 . S
C1442 H1438 0.929 . S
C1442 C1444 1.378 . S
C1442 C1446 1.350 . S
C1443 C1446 1.463 . S
C1443 C1448 1.350 . S
C1443 N1451 1.427 . S
C1444 H1435 0.930 . S
C1444 C1442 1.378 . S
C1444 C1445 1.367 . S
C1445 C1444 1.367 . S
C1445 C1447 1.433 . S
C1446 C1442 1.350 . S
C1446 C1443 1.463 . S
C1446 N1450 1.427 . S
C1447 H1437 0.929 . S
C1447 C1445 1.433 . S
C1447 N1450 1.384 . S
C1448 H1439 0.929 . S
C1448 C1440 1.378 . S
C1448 C1443 1.350 . S
C1449 H1436 0.929 . S
C1449 C1441 1.433 . S
C1449 N1451 1.384 . S
N1450 C1446 1.427 . S
N1450 C1447 1.384 . S
N1451 C1443 1.427 . S
N1451 C1449 1.384 . S
H1452 C1458 0.930 . S
H1453 C1462 0.930 . S
H1454 C1467 0.929 . S
H1455 C1465 0.929 . S
H1456 C1460 0.929 . S
H1457 C1466 0.929 . S
C1458 H1452 0.930 . S
C1458 C1459 1.367 . S
C1458 C1466 1.378 . S
C1459 C1458 1.367 . S
C1459 C1467 1.433 . S
C1460 H1456 0.929 . S
C1460 C1462 1.378 . S
C1460 C1464 1.350 . S
C1461 C1464 1.463 . S
C1461 C1466 1.350 . S
C1461 N1469 1.427 . S
C1462 H1453 0.930 . S
C1462 C1460 1.378 . S
C1462 C1463 1.367 . S
C1463 C1462 1.367 . S
C1463 C1465 1.433 . S
C1464 C1460 1.350 . S
C1464 C1461 1.463 . S
C1464 N1468 1.427 . S
C1465 H1455 0.929 . S
C1465 C1463 1.433 . S
C1465 N1468 1.384 . S
C1466 H1457 0.929 . S
C1466 C1458 1.378 . S
C1466 C1461 1.350 . S
C1467 H1454 0.929 . S
C1467 C1459 1.433 . S
C1467 N1469 1.384 . S
N1468 C1464 1.427 . S
N1468 C1465 1.384 . S
N1469 C1461 1.427 . S
N1469 C1467 1.384 . S
H1470 C1476 0.930 . S
H1471 C1480 0.930 . S
H1472 C1485 0.929 . S
H1473 C1483 0.929 . S
H1474 C1478 0.929 . S
H1475 C1484 0.929 . S
C1476 H1470 0.930 . S
C1476 C1477 1.367 . S
C1476 C1484 1.378 . S
C1477 C1476 1.367 . S
C1477 C1485 1.433 . S
C1478 H1474 0.929 . S
C1478 C1480 1.378 . S
C1478 C1482 1.350 . S
C1479 C1482 1.463 . S
C1479 C1484 1.350 . S
C1479 N1487 1.427 . S
C1480 H1471 0.930 . S
C1480 C1478 1.378 . S
C1480 C1481 1.367 . S
C1481 C1480 1.367 . S
C1481 C1483 1.433 . S
C1482 C1478 1.350 . S
C1482 C1479 1.463 . S
C1482 N1486 1.427 . S
C1483 H1473 0.929 . S
C1483 C1481 1.433 . S
C1483 N1486 1.384 . S
C1484 H1475 0.929 . S
C1484 C1476 1.378 . S
C1484 C1479 1.350 . S
C1485 H1472 0.929 . S
C1485 C1477 1.433 . S
C1485 N1487 1.384 . S
N1486 C1482 1.427 . S
N1486 C1483 1.384 . S
N1487 C1479 1.427 . S
N1487 C1485 1.384 . S
H1488 C1494 0.930 . S
H1489 C1498 0.930 . S
H1490 C1503 0.929 . S
H1491 C1501 0.929 . S
H1492 C1496 0.929 . S
H1493 C1502 0.929 . S
C1494 H1488 0.930 . S
C1494 C1495 1.367 . S
C1494 C1502 1.378 . S
C1495 C1494 1.367 . S
C1495 C1503 1.433 . S
C1496 H1492 0.929 . S
C1496 C1498 1.378 . S
C1496 C1500 1.350 . S
C1497 C1500 1.463 . S
C1497 C1502 1.350 . S
C1497 N1505 1.427 . S
C1498 H1489 0.930 . S
C1498 C1496 1.378 . S
C1498 C1499 1.367 . S
C1499 C1498 1.367 . S
C1499 C1501 1.433 . S
C1500 C1496 1.350 . S
C1500 C1497 1.463 . S
C1500 N1504 1.427 . S
C1501 H1491 0.929 . S
C1501 C1499 1.433 . S
C1501 N1504 1.384 . S
C1502 H1493 0.929 . S
C1502 C1494 1.378 . S
C1502 C1497 1.350 . S
C1503 H1490 0.929 . S
C1503 C1495 1.433 . S
C1503 N1505 1.384 . S
N1504 C1500 1.427 . S
N1504 C1501 1.384 . S
N1505 C1497 1.427 . S
N1505 C1503 1.384 . S
H1506 C1512 0.930 . S
H1507 C1516 0.930 . S
H1508 C1521 0.929 . S
H1509 C1519 0.929 . S
H1510 C1514 0.929 . S
H1511 C1520 0.929 . S
C1512 H1506 0.930 . S
C1512 C1513 1.367 . S
C1512 C1520 1.378 . S
C1513 C1512 1.367 . S
C1513 C1521 1.433 . S
C1514 H1510 0.929 . S
C1514 C1516 1.378 . S
C1514 C1518 1.350 . S
C1515 C1518 1.463 . S
C1515 C1520 1.350 . S
C1515 N1523 1.427 . S
C1516 H1507 0.930 . S
C1516 C1514 1.378 . S
C1516 C1517 1.367 . S
C1517 C1516 1.367 . S
C1517 C1519 1.433 . S
C1518 C1514 1.350 . S
C1518 C1515 1.463 . S
C1518 N1522 1.427 . S
C1519 H1509 0.929 . S
C1519 C1517 1.433 . S
C1519 N1522 1.384 . S
C1520 H1511 0.929 . S
C1520 C1512 1.378 . S
C1520 C1515 1.350 . S
C1521 H1508 0.929 . S
C1521 C1513 1.433 . S
C1521 N1523 1.384 . S
N1522 C1518 1.427 . S
N1522 C1519 1.384 . S
N1523 C1515 1.427 . S
N1523 C1521 1.384 . S
H1524 C1530 0.930 . S
H1525 C1534 0.930 . S
H1526 C1539 0.929 . S
H1527 C1537 0.929 . S
H1528 C1532 0.929 . S
H1529 C1538 0.929 . S
C1530 H1524 0.930 . S
C1530 C1531 1.367 . S
C1530 C1538 1.378 . S
C1531 C1530 1.367 . S
C1531 C1539 1.433 . S
C1532 H1528 0.929 . S
C1532 C1534 1.378 . S
C1532 C1536 1.350 . S
C1533 C1536 1.463 . S
C1533 C1538 1.350 . S
C1533 N1541 1.427 . S
C1534 H1525 0.930 . S
C1534 C1532 1.378 . S
C1534 C1535 1.367 . S
C1535 C1534 1.367 . S
C1535 C1537 1.433 . S
C1536 C1532 1.350 . S
C1536 C1533 1.463 . S
C1536 N1540 1.427 . S
C1537 H1527 0.929 . S
C1537 C1535 1.433 . S
C1537 N1540 1.384 . S
C1538 H1529 0.929 . S
C1538 C1530 1.378 . S
C1538 C1533 1.350 . S
C1539 H1526 0.929 . S
C1539 C1531 1.433 . S
C1539 N1541 1.384 . S
N1540 C1536 1.427 . S
N1540 C1537 1.384 . S
N1541 C1533 1.427 . S
N1541 C1539 1.384 . S
H1542 C1548 0.930 . S
H1543 C1552 0.930 . S
H1544 C1557 0.929 . S
H1545 C1555 0.929 . S
H1546 C1550 0.929 . S
H1547 C1556 0.929 . S
C1548 H1542 0.930 . S
C1548 C1549 1.367 . S
C1548 C1556 1.378 . S
C1549 C1548 1.367 . S
C1549 C1557 1.433 . S
C1550 H1546 0.929 . S
C1550 C1552 1.378 . S
C1550 C1554 1.350 . S
C1551 C1554 1.463 . S
C1551 C1556 1.350 . S
C1551 N1559 1.427 . S
C1552 H1543 0.930 . S
C1552 C1550 1.378 . S
C1552 C1553 1.367 . S
C1553 C1552 1.367 . S
C1553 C1555 1.433 . S
C1554 C1550 1.350 . S
C1554 C1551 1.463 . S
C1554 N1558 1.427 . S
C1555 H1545 0.929 . S
C1555 C1553 1.433 . S
C1555 N1558 1.384 . S
C1556 H1547 0.929 . S
C1556 C1548 1.378 . S
C1556 C1551 1.350 . S
C1557 H1544 0.929 . S
C1557 C1549 1.433 . S
C1557 N1559 1.384 . S
N1558 C1554 1.427 . S
N1558 C1555 1.384 . S
N1559 C1551 1.427 . S
N1559 C1557 1.384 . S
H1560 C1566 0.930 . S
H1561 C1570 0.930 . S
H1562 C1575 0.929 . S
H1563 C1573 0.929 . S
H1564 C1568 0.929 . S
H1565 C1574 0.929 . S
C1566 H1560 0.930 . S
C1566 C1567 1.367 . S
C1566 C1574 1.378 . S
C1567 C1566 1.367 . S
C1567 C1575 1.433 . S
C1568 H1564 0.929 . S
C1568 C1570 1.378 . S
C1568 C1572 1.350 . S
C1569 C1572 1.463 . S
C1569 C1574 1.350 . S
C1569 N1577 1.427 . S
C1570 H1561 0.930 . S
C1570 C1568 1.378 . S
C1570 C1571 1.367 . S
C1571 C1570 1.367 . S
C1571 C1573 1.433 . S
C1572 C1568 1.350 . S
C1572 C1569 1.463 . S
C1572 N1576 1.427 . S
C1573 H1563 0.929 . S
C1573 C1571 1.433 . S
C1573 N1576 1.384 . S
C1574 H1565 0.929 . S
C1574 C1566 1.378 . S
C1574 C1569 1.350 . S
C1575 H1562 0.929 . S
C1575 C1567 1.433 . S
C1575 N1577 1.384 . S
N1576 C1572 1.427 . S
N1576 C1573 1.384 . S
N1577 C1569 1.427 . S
N1577 C1575 1.384 . S
H1578 C1584 0.930 . S
H1579 C1588 0.930 . S
H1580 C1593 0.929 . S
H1581 C1591 0.929 . S
H1582 C1586 0.929 . S
H1583 C1592 0.929 . S
C1584 H1578 0.930 . S
C1584 C1585 1.367 . S
C1584 C1592 1.378 . S
C1585 C1584 1.367 . S
C1585 C1593 1.433 . S
C1586 H1582 0.929 . S
C1586 C1588 1.378 . S
C1586 C1590 1.350 . S
C1587 C1590 1.463 . S
C1587 C1592 1.350 . S
C1587 N1595 1.427 . S
C1588 H1579 0.930 . S
C1588 C1586 1.378 . S
C1588 C1589 1.367 . S
C1589 C1588 1.367 . S
C1589 C1591 1.433 . S
C1590 C1586 1.350 . S
C1590 C1587 1.463 . S
C1590 N1594 1.427 . S
C1591 H1581 0.929 . S
C1591 C1589 1.433 . S
C1591 N1594 1.384 . S
C1592 H1583 0.929 . S
C1592 C1584 1.378 . S
C1592 C1587 1.350 . S
C1593 H1580 0.929 . S
C1593 C1585 1.433 . S
C1593 N1595 1.384 . S
N1594 C1590 1.427 . S
N1594 C1591 1.384 . S
N1595 C1587 1.427 . S
N1595 C1593 1.384 . S
H1596 C1602 0.930 . S
H1597 C1606 0.930 . S
H1598 C1611 0.929 . S
H1599 C1609 0.929 . S
H1600 C1604 0.929 . S
H1601 C1610 0.929 . S
C1602 H1596 0.930 . S
C1602 C1603 1.367 . S
C1602 C1610 1.378 . S
C1603 C1602 1.367 . S
C1603 C1611 1.433 . S
C1604 H1600 0.929 . S
C1604 C1606 1.378 . S
C1604 C1608 1.350 . S
C1605 C1608 1.463 . S
C1605 C1610 1.350 . S
C1605 N1613 1.427 . S
C1606 H1597 0.930 . S
C1606 C1604 1.378 . S
C1606 C1607 1.367 . S
C1607 C1606 1.367 . S
C1607 C1609 1.433 . S
C1608 C1604 1.350 . S
C1608 C1605 1.463 . S
C1608 N1612 1.427 . S
C1609 H1599 0.929 . S
C1609 C1607 1.433 . S
C1609 N1612 1.384 . S
C1610 H1601 0.929 . S
C1610 C1602 1.378 . S
C1610 C1605 1.350 . S
C1611 H1598 0.929 . S
C1611 C1603 1.433 . S
C1611 N1613 1.384 . S
N1612 C1608 1.427 . S
N1612 C1609 1.384 . S
N1613 C1605 1.427 . S
N1613 C1611 1.384 . S
H1614 C1620 0.930 . S
H1615 C1624 0.930 . S
H1616 C1629 0.929 . S
H1617 C1627 0.929 . S
H1618 C1622 0.929 . S
H1619 C1628 0.929 . S
C1620 H1614 0.930 . S
C1620 C1621 1.367 . S
C1620 C1628 1.378 . S
C1621 C1620 1.367 . S
C1621 C1629 1.433 . S
C1622 H1618 0.929 . S
C1622 C1624 1.378 . S
C1622 C1626 1.350 . S
C1623 C1626 1.463 . S
C1623 C1628 1.350 . S
C1623 N1631 1.427 . S
C1624 H1615 0.930 . S
C1624 C1622 1.378 . S
C1624 C1625 1.367 . S
C1625 C1624 1.367 . S
C1625 C1627 1.433 . S
C1626 C1622 1.350 . S
C1626 C1623 1.463 . S
C1626 N1630 1.427 . S
C1627 H1617 0.929 . S
C1627 C1625 1.433 . S
C1627 N1630 1.384 . S
C1628 H1619 0.929 . S
C1628 C1620 1.378 . S
C1628 C1623 1.350 . S
C1629 H1616 0.929 . S
C1629 C1621 1.433 . S
C1629 N1631 1.384 . S
N1630 C1626 1.427 . S
N1630 C1627 1.384 . S
N1631 C1623 1.427 . S
N1631 C1629 1.384 . S
H1632 C1638 0.930 . S
H1633 C1642 0.930 . S
H1634 C1647 0.929 . S
H1635 C1645 0.929 . S
H1636 C1640 0.929 . S
H1637 C1646 0.929 . S
C1638 H1632 0.930 . S
C1638 C1639 1.367 . S
C1638 C1646 1.378 . S
C1639 C1638 1.367 . S
C1639 C1647 1.433 . S
C1640 H1636 0.929 . S
C1640 C1642 1.378 . S
C1640 C1644 1.350 . S
C1641 C1644 1.463 . S
C1641 C1646 1.350 . S
C1641 N1649 1.427 . S
C1642 H1633 0.930 . S
C1642 C1640 1.378 . S
C1642 C1643 1.367 . S
C1643 C1642 1.367 . S
C1643 C1645 1.433 . S
C1644 C1640 1.350 . S
C1644 C1641 1.463 . S
C1644 N1648 1.427 . S
C1645 H1635 0.929 . S
C1645 C1643 1.433 . S
C1645 N1648 1.384 . S
C1646 H1637 0.929 . S
C1646 C1638 1.378 . S
C1646 C1641 1.350 . S
C1647 H1634 0.929 . S
C1647 C1639 1.433 . S
C1647 N1649 1.384 . S
N1648 C1644 1.427 . S
N1648 C1645 1.384 . S
N1649 C1641 1.427 . S
N1649 C1647 1.384 . S
H1650 C1656 0.930 . S
H1651 C1660 0.930 . S
H1652 C1665 0.929 . S
H1653 C1663 0.929 . S
H1654 C1658 0.929 . S
H1655 C1664 0.929 . S
C1656 H1650 0.930 . S
C1656 C1657 1.367 . S
C1656 C1664 1.378 . S
C1657 C1656 1.367 . S
C1657 C1665 1.433 . S
C1658 H1654 0.929 . S
C1658 C1660 1.378 . S
C1658 C1662 1.350 . S
C1659 C1662 1.463 . S
C1659 C1664 1.350 . S
C1659 N1667 1.427 . S
C1660 H1651 0.930 . S
C1660 C1658 1.378 . S
C1660 C1661 1.367 . S
C1661 C1660 1.367 . S
C1661 C1663 1.433 . S
C1662 C1658 1.350 . S
C1662 C1659 1.463 . S
C1662 N1666 1.427 . S
C1663 H1653 0.929 . S
C1663 C1661 1.433 . S
C1663 N1666 1.384 . S
C1664 H1655 0.929 . S
C1664 C1656 1.378 . S
C1664 C1659 1.350 . S
C1665 H1652 0.929 . S
C1665 C1657 1.433 . S
C1665 N1667 1.384 . S
N1666 C1662 1.427 . S
N1666 C1663 1.384 . S
N1667 C1659 1.427 . S
N1667 C1665 1.384 . S
H1668 C1674 0.930 . S
H1669 C1678 0.930 . S
H1670 C1683 0.929 . S
H1671 C1681 0.929 . S
H1672 C1676 0.929 . S
H1673 C1682 0.929 . S
C1674 H1668 0.930 . S
C1674 C1675 1.367 . S
C1674 C1682 1.378 . S
C1675 C1674 1.367 . S
C1675 C1683 1.433 . S
C1676 H1672 0.929 . S
C1676 C1678 1.378 . S
C1676 C1680 1.350 . S
C1677 C1680 1.463 . S
C1677 C1682 1.350 . S
C1677 N1685 1.427 . S
C1678 H1669 0.930 . S
C1678 C1676 1.378 . S
C1678 C1679 1.367 . S
C1679 C1678 1.367 . S
C1679 C1681 1.433 . S
C1680 C1676 1.350 . S
C1680 C1677 1.463 . S
C1680 N1684 1.427 . S
C1681 H1671 0.929 . S
C1681 C1679 1.433 . S
C1681 N1684 1.384 . S
C1682 H1673 0.929 . S
C1682 C1674 1.378 . S
C1682 C1677 1.350 . S
C1683 H1670 0.929 . S
C1683 C1675 1.433 . S
C1683 N1685 1.384 . S
N1684 C1680 1.427 . S
N1684 C1681 1.384 . S
N1685 C1677 1.427 . S
N1685 C1683 1.384 . S
H1686 C1692 0.930 . S
H1687 C1696 0.930 . S
H1688 C1701 0.929 . S
H1689 C1699 0.929 . S
H1690 C1694 0.929 . S
H1691 C1700 0.929 . S
C1692 H1686 0.930 . S
C1692 C1693 1.367 . S
C1692 C1700 1.378 . S
C1693 C1692 1.367 . S
C1693 C1701 1.433 . S
C1694 H1690 0.929 . S
C1694 C1696 1.378 . S
C1694 C1698 1.350 . S
C1695 C1698 1.463 . S
C1695 C1700 1.350 . S
C1695 N1703 1.427 . S
C1696 H1687 0.930 . S
C1696 C1694 1.378 . S
C1696 C1697 1.367 . S
C1697 C1696 1.367 . S
C1697 C1699 1.433 . S
C1698 C1694 1.350 . S
C1698 C1695 1.463 . S
C1698 N1702 1.427 . S
C1699 H1689 0.929 . S
C1699 C1697 1.433 . S
C1699 N1702 1.384 . S
C1700 H1691 0.929 . S
C1700 C1692 1.378 . S
C1700 C1695 1.350 . S
C1701 H1688 0.929 . S
C1701 C1693 1.433 . S
C1701 N1703 1.384 . S
N1702 C1698 1.427 . S
N1702 C1699 1.384 . S
N1703 C1695 1.427 . S
N1703 C1701 1.384 . S
H1704 C1710 0.930 . S
H1705 C1714 0.930 . S
H1706 C1719 0.929 . S
H1707 C1717 0.929 . S
H1708 C1712 0.929 . S
H1709 C1718 0.929 . S
C1710 H1704 0.930 . S
C1710 C1711 1.367 . S
C1710 C1718 1.378 . S
C1711 C1710 1.367 . S
C1711 C1719 1.433 . S
C1712 H1708 0.929 . S
C1712 C1714 1.378 . S
C1712 C1716 1.350 . S
C1713 C1716 1.463 . S
C1713 C1718 1.350 . S
C1713 N1721 1.427 . S
C1714 H1705 0.930 . S
C1714 C1712 1.378 . S
C1714 C1715 1.367 . S
C1715 C1714 1.367 . S
C1715 C1717 1.433 . S
C1716 C1712 1.350 . S
C1716 C1713 1.463 . S
C1716 N1720 1.427 . S
C1717 H1707 0.929 . S
C1717 C1715 1.433 . S
C1717 N1720 1.384 . S
C1718 H1709 0.929 . S
C1718 C1710 1.378 . S
C1718 C1713 1.350 . S
C1719 H1706 0.929 . S
C1719 C1711 1.433 . S
C1719 N1721 1.384 . S
N1720 C1716 1.427 . S
N1720 C1717 1.384 . S
N1721 C1713 1.427 . S
N1721 C1719 1.384 . S
H1722 C1728 0.930 . S
H1723 C1732 0.930 . S
H1724 C1737 0.929 . S
H1725 C1735 0.929 . S
H1726 C1730 0.929 . S
H1727 C1736 0.929 . S
C1728 H1722 0.930 . S
C1728 C1729 1.367 . S
C1728 C1736 1.378 . S
C1729 C1728 1.367 . S
C1729 C1737 1.433 . S
C1730 H1726 0.929 . S
C1730 C1732 1.378 . S
C1730 C1734 1.350 . S
C1731 C1734 1.463 . S
C1731 C1736 1.350 . S
C1731 N1739 1.427 . S
C1732 H1723 0.930 . S
C1732 C1730 1.378 . S
C1732 C1733 1.367 . S
C1733 C1732 1.367 . S
C1733 C1735 1.433 . S
C1734 C1730 1.350 . S
C1734 C1731 1.463 . S
C1734 N1738 1.427 . S
C1735 H1725 0.929 . S
C1735 C1733 1.433 . S
C1735 N1738 1.384 . S
C1736 H1727 0.929 . S
C1736 C1728 1.378 . S
C1736 C1731 1.350 . S
C1737 H1724 0.929 . S
C1737 C1729 1.433 . S
C1737 N1739 1.384 . S
N1738 C1734 1.427 . S
N1738 C1735 1.384 . S
N1739 C1731 1.427 . S
N1739 C1737 1.384 . S
H1740 C1746 0.930 . S
H1741 C1750 0.930 . S
H1742 C1755 0.929 . S
H1743 C1753 0.929 . S
H1744 C1748 0.929 . S
H1745 C1754 0.929 . S
C1746 H1740 0.930 . S
C1746 C1747 1.367 . S
C1746 C1754 1.378 . S
C1747 C1746 1.367 . S
C1747 C1755 1.433 . S
C1748 H1744 0.929 . S
C1748 C1750 1.378 . S
C1748 C1752 1.350 . S
C1749 C1752 1.463 1_565 S
C1749 C1754 1.350 . S
C1749 N1757 1.427 . S
C1750 H1741 0.930 . S
C1750 C1748 1.378 . S
C1750 C1751 1.367 . S
C1751 C1750 1.367 . S
C1751 C1753 1.433 . S
C1752 C1748 1.350 . S
C1752 C1749 1.463 1_545 S
C1752 N1756 1.427 . S
C1753 H1743 0.929 . S
C1753 C1751 1.433 . S
C1753 N1756 1.384 . S
C1754 H1745 0.929 . S
C1754 C1746 1.378 . S
C1754 C1749 1.350 . S
C1755 H1742 0.929 . S
C1755 C1747 1.433 . S
C1755 N1757 1.384 . S
N1756 C1752 1.427 . S
N1756 C1753 1.384 . S
N1757 C1749 1.427 . S
N1757 C1755 1.384 . S
H1758 C1764 0.930 . S
H1759 C1768 0.930 . S
H1760 C1773 0.929 . S
H1761 C1771 0.929 . S
H1762 C1766 0.929 . S
H1763 C1772 0.929 . S
C1764 H1758 0.930 . S
C1764 C1765 1.367 1_655 S
C1764 C1772 1.378 . S
C1765 C1764 1.367 1_455 S
C1765 C1773 1.433 . S
C1766 H1762 0.929 . S
C1766 C1768 1.378 . S
C1766 C1770 1.350 . S
C1767 C1770 1.463 . S
C1767 C1772 1.350 . S
C1767 N1775 1.382 1_655 S
C1768 H1759 0.930 . S
C1768 C1766 1.378 . S
C1768 C1769 1.367 . S
C1769 C1768 1.367 . S
C1769 C1771 1.433 . S
C1770 C1766 1.350 . S
C1770 C1767 1.463 . S
C1770 N1774 1.427 . S
C1771 H1761 0.929 . S
C1771 C1769 1.433 . S
C1771 N1774 1.384 . S
C1772 H1763 0.929 . S
C1772 C1764 1.378 . S
C1772 C1767 1.350 . S
C1773 H1760 0.929 . S
C1773 C1765 1.433 . S
C1773 N1775 1.418 . S
N1774 C1770 1.427 . S
N1774 C1771 1.384 . S
N1775 C1767 1.382 1_455 S
N1775 C1773 1.418 . S
H1776 C1782 0.930 . S
H1777 C1786 0.930 . S
H1778 C1791 0.929 . S
H1779 C1789 0.929 . S
H1780 C1784 0.929 . S
H1781 C1790 0.929 . S
C1782 H1776 0.930 . S
C1782 C1783 1.367 . S
C1782 C1790 1.378 . S
C1783 C1782 1.367 . S
C1783 C1791 1.433 . S
C1784 H1780 0.929 . S
C1784 C1786 1.378 . S
C1784 C1788 1.350 . S
C1785 C1788 1.463 1_565 S
C1785 C1790 1.350 . S
C1785 N1793 1.427 . S
C1786 H1777 0.930 . S
C1786 C1784 1.378 . S
C1786 C1787 1.367 . S
C1787 C1786 1.367 . S
C1787 C1789 1.433 . S
C1788 C1784 1.350 . S
C1788 C1785 1.463 1_545 S
C1788 N1792 1.427 . S
C1789 H1779 0.929 . S
C1789 C1787 1.433 . S
C1789 N1792 1.384 . S
C1790 H1781 0.929 . S
C1790 C1782 1.378 . S
C1790 C1785 1.350 . S
C1791 H1778 0.929 . S
C1791 C1783 1.433 . S
C1791 N1793 1.384 . S
N1792 C1788 1.427 . S
N1792 C1789 1.384 . S
N1793 C1785 1.427 . S
N1793 C1791 1.384 . S
H1794 C1800 0.930 . S
H1795 C1804 0.930 . S
H1796 C1809 0.929 . S
H1797 C1807 0.929 . S
H1798 C1802 0.929 . S
H1799 C1808 0.929 . S
C1800 H1794 0.930 . S
C1800 C1801 1.367 . S
C1800 C1808 1.378 . S
C1801 C1800 1.367 . S
C1801 C1809 1.433 . S
C1802 H1798 0.929 . S
C1802 C1804 1.378 1_655 S
C1802 C1806 1.350 . S
C1803 C1806 1.463 . S
C1803 C1808 1.350 . S
C1803 N1811 1.427 . S
C1804 H1795 0.930 . S
C1804 C1802 1.378 1_455 S
C1804 C1805 1.367 . S
C1805 C1804 1.367 . S
C1805 C1807 1.433 . S
C1806 C1802 1.350 . S
C1806 C1803 1.463 . S
C1806 N1810 1.427 1_655 S
C1807 H1797 0.929 . S
C1807 C1805 1.433 . S
C1807 N1810 1.384 . S
C1808 H1799 0.929 . S
C1808 C1800 1.378 . S
C1808 C1803 1.350 . S
C1809 H1796 0.929 . S
C1809 C1801 1.433 . S
C1809 N1811 1.384 . S
N1810 C1806 1.427 1_455 S
N1810 C1807 1.384 . S
N1811 C1803 1.427 . S
N1811 C1809 1.384 . S
H1812 C1818 0.930 . S
H1813 C1822 0.930 . S
H1814 C1827 0.929 . S
H1815 C1825 0.929 . S
H1816 C1820 0.929 . S
H1817 C1826 0.929 . S
C1818 H1812 0.930 . S
C1818 C1819 1.367 . S
C1818 C1826 1.378 . S
C1819 C1818 1.367 . S
C1819 C1827 1.433 . S
C1820 H1816 0.929 . S
C1820 C1822 1.378 . S
C1820 C1824 1.350 . S
C1821 C1824 1.463 . S
C1821 C1826 1.350 . S
C1821 N1829 1.427 . S
C1822 H1813 0.930 . S
C1822 C1820 1.378 . S
C1822 C1823 1.367 . S
C1823 C1822 1.367 . S
C1823 C1825 1.433 . S
C1824 C1820 1.350 . S
C1824 C1821 1.463 . S
C1824 N1828 1.427 . S
C1825 H1815 0.929 . S
C1825 C1823 1.433 . S
C1825 N1828 1.384 . S
C1826 H1817 0.929 . S
C1826 C1818 1.378 . S
C1826 C1821 1.350 . S
C1827 H1814 0.929 . S
C1827 C1819 1.433 . S
C1827 N1829 1.384 . S
N1828 C1824 1.427 . S
N1828 C1825 1.384 . S
N1829 C1821 1.427 . S
N1829 C1827 1.384 . S
H1830 C1836 0.930 . S
H1831 C1840 0.930 . S
H1832 C1845 0.929 . S
H1833 C1843 0.929 . S
H1834 C1838 0.929 . S
H1835 C1844 0.929 . S
C1836 H1830 0.930 . S
C1836 C1837 1.367 . S
C1836 C1844 1.378 . S
C1837 C1836 1.367 . S
C1837 C1845 1.433 . S
C1838 H1834 0.929 . S
C1838 C1840 1.378 . S
C1838 C1842 1.350 . S
C1839 C1842 1.463 . S
C1839 C1844 1.350 . S
C1839 N1847 1.427 . S
C1840 H1831 0.930 . S
C1840 C1838 1.378 . S
C1840 C1841 1.367 . S
C1841 C1840 1.367 . S
C1841 C1843 1.433 . S
C1842 C1838 1.350 . S
C1842 C1839 1.463 . S
C1842 N1846 1.427 . S
C1843 H1833 0.929 . S
C1843 C1841 1.433 . S
C1843 N1846 1.384 . S
C1844 H1835 0.929 . S
C1844 C1836 1.378 . S
C1844 C1839 1.350 . S
C1845 H1832 0.929 . S
C1845 C1837 1.433 . S
C1845 N1847 1.384 . S
N1846 C1842 1.427 . S
N1846 C1843 1.384 . S
N1847 C1839 1.427 . S
N1847 C1845 1.384 . S
H1848 C1854 0.930 . S
H1849 C1858 0.930 . S
H1850 C1863 0.929 . S
H1851 C1861 0.929 . S
H1852 C1856 0.929 . S
H1853 C1862 0.929 . S
C1854 H1848 0.930 . S
C1854 C1855 1.367 . S
C1854 C1862 1.378 . S
C1855 C1854 1.367 . S
C1855 C1863 1.433 . S
C1856 H1852 0.929 . S
C1856 C1858 1.378 . S
C1856 C1860 1.350 . S
C1857 C1860 1.463 . S
C1857 C1862 1.350 . S
C1857 N1865 1.427 . S
C1858 H1849 0.930 . S
C1858 C1856 1.378 . S
C1858 C1859 1.367 . S
C1859 C1858 1.367 . S
C1859 C1861 1.433 . S
C1860 C1856 1.350 . S
C1860 C1857 1.463 . S
C1860 N1864 1.427 . S
C1861 H1851 0.929 . S
C1861 C1859 1.433 . S
C1861 N1864 1.384 . S
C1862 H1853 0.929 . S
C1862 C1854 1.378 . S
C1862 C1857 1.350 . S
C1863 H1850 0.929 . S
C1863 C1855 1.433 . S
C1863 N1865 1.384 . S
N1864 C1860 1.427 . S
N1864 C1861 1.384 . S
N1865 C1857 1.427 . S
N1865 C1863 1.384 . S
H1866 C1872 0.930 . S
H1867 C1876 0.943 . S
H1868 C1881 0.929 . S
H1869 C1879 0.929 . S
H1870 C1874 0.929 . S
H1871 C1880 0.929 1_556 S
C1872 H1866 0.930 . S
C1872 C1873 1.367 . S
C1872 C1880 1.378 . S
C1873 C1872 1.367 . S
C1873 C1881 1.433 . S
C1874 H1870 0.929 . S
C1874 C1876 1.395 . S
C1874 C1878 1.350 . S
C1875 C1878 1.463 . S
C1875 C1880 1.350 . S
C1875 N1883 1.427 . S
C1876 H1867 0.943 . S
C1876 C1874 1.395 . S
C1876 C1877 1.337 1_554 S
C1877 C1876 1.337 1_556 S
C1877 C1879 1.433 . S
C1878 C1874 1.350 . S
C1878 C1875 1.463 . S
C1878 N1882 1.427 1_554 S
C1879 H1869 0.929 . S
C1879 C1877 1.433 . S
C1879 N1882 1.384 . S
C1880 H1871 0.929 1_554 S
C1880 C1872 1.378 . S
C1880 C1875 1.350 . S
C1881 H1868 0.929 . S
C1881 C1873 1.433 . S
C1881 N1883 1.384 . S
N1882 C1878 1.427 1_556 S
N1882 C1879 1.384 . S
N1883 C1875 1.427 . S
N1883 C1881 1.384 . S
H1884 C1890 0.930 . S
H1885 C1894 0.930 . S
H1886 C1899 0.929 . S
H1887 C1897 0.929 . S
H1888 C1892 0.929 . S
H1889 C1898 0.929 . S
C1890 H1884 0.930 . S
C1890 C1891 1.367 . S
C1890 C1898 1.378 . S
C1891 C1890 1.367 . S
C1891 C1899 1.433 . S
C1892 H1888 0.929 . S
C1892 C1894 1.378 . S
C1892 C1896 1.350 . S
C1893 C1896 1.463 . S
C1893 C1898 1.350 . S
C1893 N1901 1.427 . S
C1894 H1885 0.930 . S
C1894 C1892 1.378 . S
C1894 C1895 1.367 . S
C1895 C1894 1.367 . S
C1895 C1897 1.433 . S
C1896 C1892 1.350 . S
C1896 C1893 1.463 . S
C1896 N1900 1.427 . S
C1897 H1887 0.929 . S
C1897 C1895 1.433 . S
C1897 N1900 1.384 . S
C1898 H1889 0.929 . S
C1898 C1890 1.378 . S
C1898 C1893 1.350 . S
C1899 H1886 0.929 . S
C1899 C1891 1.433 . S
C1899 N1901 1.384 . S
N1900 C1896 1.427 . S
N1900 C1897 1.384 . S
N1901 C1893 1.427 . S
N1901 C1899 1.384 . S
H1902 C1908 0.930 . S
H1903 C1912 0.930 . S
H1904 C1917 0.929 . S
H1905 C1915 0.929 . S
H1906 C1910 0.929 . S
H1907 C1916 0.929 . S
C1908 H1902 0.930 . S
C1908 C1909 1.367 . S
C1908 C1916 1.378 1_556 S
C1909 C1908 1.367 . S
C1909 C1917 1.433 . S
C1910 H1906 0.929 . S
C1910 C1912 1.378 . S
C1910 C1914 1.350 . S
C1911 C1914 1.463 . S
C1911 C1916 1.350 . S
C1911 N1919 1.427 . S
C1912 H1903 0.930 . S
C1912 C1910 1.378 . S
C1912 C1913 1.367 . S
C1913 C1912 1.367 . S
C1913 C1915 1.433 . S
C1914 C1910 1.350 . S
C1914 C1911 1.463 . S
C1914 N1918 1.427 . S
C1915 H1905 0.929 . S
C1915 C1913 1.433 . S
C1915 N1918 1.384 . S
C1916 H1907 0.929 . S
C1916 C1908 1.378 1_554 S
C1916 C1911 1.350 . S
C1917 H1904 0.929 . S
C1917 C1909 1.433 . S
C1917 N1919 1.384 1_556 S
N1918 C1914 1.427 . S
N1918 C1915 1.384 . S
N1919 C1911 1.427 . S
N1919 C1917 1.384 1_554 S
H1920 C1926 0.930 . S
H1921 C1930 0.930 . S
H1922 C1935 0.929 . S
H1923 C1933 0.929 . S
H1924 C1928 0.929 . S
H1925 C1934 0.929 . S
C1926 H1920 0.930 . S
C1926 C1927 1.367 . S
C1926 C1934 1.378 . S
C1927 C1926 1.367 . S
C1927 C1935 1.433 . S
C1928 H1924 0.929 . S
C1928 C1930 1.378 . S
C1928 C1932 1.350 . S
C1929 C1932 1.463 . S
C1929 C1934 1.350 . S
C1929 N1937 1.427 . S
C1930 H1921 0.930 . S
C1930 C1928 1.378 . S
C1930 C1931 1.367 . S
C1931 C1930 1.367 . S
C1931 C1933 1.433 . S
C1932 C1928 1.350 . S
C1932 C1929 1.463 . S
C1932 N1936 1.427 . S
C1933 H1923 0.929 . S
C1933 C1931 1.433 . S
C1933 N1936 1.384 . S
C1934 H1925 0.929 . S
C1934 C1926 1.378 . S
C1934 C1929 1.350 . S
C1935 H1922 0.929 . S
C1935 C1927 1.433 . S
C1935 N1937 1.384 . S
N1936 C1932 1.427 . S
N1936 C1933 1.384 . S
N1937 C1929 1.427 . S
N1937 C1935 1.384 . S
H1938 C1944 0.930 . S
H1939 C1948 0.930 . S
H1940 C1953 0.929 . S
H1941 C1951 0.929 . S
H1942 C1946 0.929 . S
H1943 C1952 0.929 . S
C1944 H1938 0.930 . S
C1944 C1945 1.367 . S
C1944 C1952 1.378 . S
C1945 C1944 1.367 . S
C1945 C1953 1.433 . S
C1946 H1942 0.929 . S
C1946 C1948 1.378 . S
C1946 C1950 1.350 . S
C1947 C1950 1.463 . S
C1947 C1952 1.350 . S
C1947 N1955 1.427 . S
C1948 H1939 0.930 . S
C1948 C1946 1.378 . S
C1948 C1949 1.367 . S
C1949 C1948 1.367 . S
C1949 C1951 1.433 . S
C1950 C1946 1.350 . S
C1950 C1947 1.463 . S
C1950 N1954 1.427 . S
C1951 H1941 0.929 . S
C1951 C1949 1.433 . S
C1951 N1954 1.384 . S
C1952 H1943 0.929 . S
C1952 C1944 1.378 . S
C1952 C1947 1.350 . S
C1953 H1940 0.929 . S
C1953 C1945 1.433 . S
C1953 N1955 1.384 . S
N1954 C1950 1.427 . S
N1954 C1951 1.384 . S
N1955 C1947 1.427 . S
N1955 C1953 1.384 . S
H1956 C1962 0.930 . S
H1957 C1966 0.930 . S
H1958 C1971 0.929 . S
H1959 C1969 0.929 . S
H1960 C1964 0.929 . S
H1961 C1970 0.929 . S
C1962 H1956 0.930 . S
C1962 C1963 1.367 . S
C1962 C1970 1.378 . S
C1963 C1962 1.367 . S
C1963 C1971 1.433 . S
C1964 H1960 0.929 . S
C1964 C1966 1.378 . S
C1964 C1968 1.350 . S
C1965 C1968 1.467 1_545 S
C1965 C1970 1.348 . S
C1965 N1973 1.426 . S
C1966 H1957 0.930 . S
C1966 C1964 1.378 . S
C1966 C1967 1.367 . S
C1967 C1966 1.367 . S
C1967 C1969 1.433 . S
C1968 C1964 1.350 . S
C1968 C1965 1.467 1_565 S
C1968 N1972 1.427 . S
C1969 H1959 0.929 . S
C1969 C1967 1.433 . S
C1969 N1972 1.384 . S
C1970 H1961 0.929 . S
C1970 C1962 1.378 . S
C1970 C1965 1.348 . S
C1971 H1958 0.929 . S
C1971 C1963 1.433 . S
C1971 N1973 1.384 . S
N1972 C1968 1.427 . S
N1972 C1969 1.384 . S
N1973 C1965 1.426 . S
N1973 C1971 1.384 . S
H1974 C1980 0.930 . S
H1975 C1984 0.930 . S
H1976 C1989 0.929 . S
H1977 C1987 0.929 . S
H1978 C1982 0.929 1_455 S
H1979 C1988 0.929 . S
C1980 H1974 0.930 . S
C1980 C1981 1.367 . S
C1980 C1988 1.378 . S
C1981 C1980 1.367 . S
C1981 C1989 1.433 . S
C1982 H1978 0.929 1_655 S
C1982 C1984 1.378 . S
C1982 C1986 1.350 . S
C1983 C1986 1.463 1_455 S
C1983 C1988 1.350 . S
C1983 N1991 1.427 . S
C1984 H1975 0.930 . S
C1984 C1982 1.378 . S
C1984 C1985 1.367 . S
C1985 C1984 1.367 . S
C1985 C1987 1.433 . S
C1986 C1982 1.350 . S
C1986 C1983 1.463 1_655 S
C1986 N1990 1.427 . S
C1987 H1977 0.929 . S
C1987 C1985 1.433 . S
C1987 N1990 1.384 . S
C1988 H1979 0.929 . S
C1988 C1980 1.378 . S
C1988 C1983 1.350 . S
C1989 H1976 0.929 . S
C1989 C1981 1.433 . S
C1989 N1991 1.384 . S
N1990 C1986 1.427 . S
N1990 C1987 1.384 . S
N1991 C1983 1.427 . S
N1991 C1989 1.384 . S
H1992 C1998 0.930 . S
H1993 C2002 0.930 . S
H1994 C2007 0.929 . S
H1995 C2005 0.929 . S
H1996 C2000 0.932 1_545 S
H1997 C2006 0.929 . S
C1998 H1992 0.930 . S
C1998 C1999 1.367 . S
C1998 C2006 1.378 . S
C1999 C1998 1.367 . S
C1999 C2007 1.433 . S
C2000 H1996 0.932 1_565 S
C2000 C2002 1.374 . S
C2000 C2004 1.351 1_565 S
C2001 C2004 1.463 . S
C2001 C2006 1.350 . S
C2001 N2009 1.427 . S
C2002 H1993 0.930 . S
C2002 C2000 1.374 . S
C2002 C2003 1.367 . S
C2003 C2002 1.367 . S
C2003 C2005 1.433 . S
C2004 C2000 1.351 1_545 S
C2004 C2001 1.463 . S
C2004 N2008 1.427 1_545 S
C2005 H1995 0.929 . S
C2005 C2003 1.433 . S
C2005 N2008 1.384 . S
C2006 H1997 0.929 . S
C2006 C1998 1.378 . S
C2006 C2001 1.350 . S
C2007 H1994 0.929 . S
C2007 C1999 1.433 . S
C2007 N2009 1.384 . S
N2008 C2004 1.427 1_565 S
N2008 C2005 1.384 . S
N2009 C2001 1.427 . S
N2009 C2007 1.384 . S
H2010 C2016 0.930 . S
H2011 C2020 0.930 . S
H2012 C2025 0.929 . S
H2013 C2023 0.929 . S
H2014 C2018 0.929 . S
H2015 C2024 0.929 . S
C2016 H2010 0.930 . S
C2016 C2017 1.367 . S
C2016 C2024 1.378 . S
C2017 C2016 1.367 . S
C2017 C2025 1.433 . S
C2018 H2014 0.929 . S
C2018 C2020 1.378 . S
C2018 C2022 1.350 . S
C2019 C2022 1.463 1_455 S
C2019 C2024 1.350 . S
C2019 N2027 1.427 . S
C2020 H2011 0.930 . S
C2020 C2018 1.378 . S
C2020 C2021 1.367 . S
C2021 C2020 1.367 . S
C2021 C2023 1.433 . S
C2022 C2018 1.350 . S
C2022 C2019 1.463 1_655 S
C2022 N2026 1.422 1_655 S
C2023 H2013 0.929 . S
C2023 C2021 1.433 . S
C2023 N2026 1.373 1_655 S
C2024 H2015 0.929 . S
C2024 C2016 1.378 . S
C2024 C2019 1.350 . S
C2025 H2012 0.929 . S
C2025 C2017 1.433 . S
C2025 N2027 1.384 . S
N2026 C2022 1.422 1_455 S
N2026 C2023 1.373 1_455 S
N2027 C2019 1.427 . S
N2027 C2025 1.384 . S
H2028 C2034 0.930 . S
H2029 C2038 0.930 . S
H2030 C2043 0.929 . S
H2031 C2041 0.929 . S
H2032 C2036 0.929 . S
H2033 C2042 0.929 . S
C2034 H2028 0.930 . S
C2034 C2035 1.367 . S
C2034 C2042 1.378 . S
C2035 C2034 1.367 . S
C2035 C2043 1.433 . S
C2036 H2032 0.929 . S
C2036 C2038 1.378 . S
C2036 C2040 1.350 . S
C2037 C2040 1.463 . S
C2037 C2042 1.350 . S
C2037 N2045 1.427 . S
C2038 H2029 0.930 . S
C2038 C2036 1.378 . S
C2038 C2039 1.367 . S
C2039 C2038 1.367 . S
C2039 C2041 1.433 . S
C2040 C2036 1.350 . S
C2040 C2037 1.463 . S
C2040 N2044 1.427 . S
C2041 H2031 0.929 . S
C2041 C2039 1.433 . S
C2041 N2044 1.384 . S
C2042 H2033 0.929 . S
C2042 C2034 1.378 . S
C2042 C2037 1.350 . S
C2043 H2030 0.929 . S
C2043 C2035 1.433 . S
C2043 N2045 1.384 . S
N2044 C2040 1.427 . S
N2044 C2041 1.384 . S
N2045 C2037 1.427 . S
N2045 C2043 1.384 . S
H2046 C2052 0.930 . S
H2047 C2056 0.930 . S
H2048 C2061 0.929 . S
H2049 C2059 0.929 . S
H2050 C2054 0.929 . S
H2051 C2060 0.929 . S
C2052 H2046 0.930 . S
C2052 C2053 1.367 . S
C2052 C2060 1.378 . S
C2053 C2052 1.367 . S
C2053 C2061 1.433 . S
C2054 H2050 0.929 . S
C2054 C2056 1.378 . S
C2054 C2058 1.350 . S
C2055 C2058 1.463 . S
C2055 C2060 1.350 . S
C2055 N2063 1.427 . S
C2056 H2047 0.930 . S
C2056 C2054 1.378 . S
C2056 C2057 1.367 . S
C2057 C2056 1.367 . S
C2057 C2059 1.433 . S
C2058 C2054 1.350 . S
C2058 C2055 1.463 . S
C2058 N2062 1.427 . S
C2059 H2049 0.929 . S
C2059 C2057 1.433 . S
C2059 N2062 1.384 . S
C2060 H2051 0.929 . S
C2060 C2052 1.378 . S
C2060 C2055 1.350 . S
C2061 H2048 0.929 . S
C2061 C2053 1.433 . S
C2061 N2063 1.384 . S
N2062 C2058 1.427 . S
N2062 C2059 1.384 . S
N2063 C2055 1.427 . S
N2063 C2061 1.384 . S
H2064 C2070 0.930 . S
H2065 C2074 0.930 . S
H2066 C2079 0.929 . S
H2067 C2077 0.929 . S
H2068 C2072 0.929 . S
H2069 C2078 0.929 . S
C2070 H2064 0.930 . S
C2070 C2071 1.367 . S
C2070 C2078 1.378 . S
C2071 C2070 1.367 . S
C2071 C2079 1.433 . S
C2072 H2068 0.929 . S
C2072 C2074 1.378 . S
C2072 C2076 1.350 . S
C2073 C2076 1.463 . S
C2073 C2078 1.350 . S
C2073 N2081 1.427 . S
C2074 H2065 0.930 . S
C2074 C2072 1.378 . S
C2074 C2075 1.367 . S
C2075 C2074 1.367 . S
C2075 C2077 1.433 . S
C2076 C2072 1.350 . S
C2076 C2073 1.463 . S
C2076 N2080 1.427 . S
C2077 H2067 0.929 . S
C2077 C2075 1.433 . S
C2077 N2080 1.384 . S
C2078 H2069 0.929 . S
C2078 C2070 1.378 . S
C2078 C2073 1.350 . S
C2079 H2066 0.929 . S
C2079 C2071 1.433 . S
C2079 N2081 1.384 . S
N2080 C2076 1.427 . S
N2080 C2077 1.384 . S
N2081 C2073 1.427 . S
N2081 C2079 1.384 . S
H2082 C2088 0.930 . S
H2083 C2092 0.930 . S
H2084 C2097 0.929 . S
H2085 C2095 0.929 . S
H2086 C2090 0.929 1_554 S
H2087 C2096 0.929 1_556 S
C2088 H2082 0.930 . S
C2088 C2089 1.367 . S
C2088 C2096 1.378 . S
C2089 C2088 1.367 . S
C2089 C2097 1.433 . S
C2090 H2086 0.929 1_556 S
C2090 C2092 1.378 . S
C2090 C2094 1.350 . S
C2091 C2094 1.463 1_554 S
C2091 C2096 1.350 . S
C2091 N2099 1.427 . S
C2092 H2083 0.930 . S
C2092 C2090 1.378 . S
C2092 C2093 1.367 . S
C2093 C2092 1.367 . S
C2093 C2095 1.433 . S
C2094 C2090 1.350 . S
C2094 C2091 1.463 1_556 S
C2094 N2098 1.427 . S
C2095 H2085 0.929 . S
C2095 C2093 1.433 . S
C2095 N2098 1.384 . S
C2096 H2087 0.929 1_554 S
C2096 C2088 1.378 . S
C2096 C2091 1.350 . S
C2097 H2084 0.929 . S
C2097 C2089 1.433 . S
C2097 N2099 1.384 . S
N2098 C2094 1.427 . S
N2098 C2095 1.384 . S
N2099 C2091 1.427 . S
N2099 C2097 1.384 . S
H2100 C2106 0.930 . S
H2101 C2110 0.930 . S
H2102 C2115 0.929 . S
H2103 C2113 0.929 . S
H2104 C2108 0.929 . S
H2105 C2114 0.929 . S
C2106 H2100 0.930 . S
C2106 C2107 1.367 . S
C2106 C2114 1.378 . S
C2107 C2106 1.367 . S
C2107 C2115 1.433 . S
C2108 H2104 0.929 . S
C2108 C2110 1.378 . S
C2108 C2112 1.350 . S
C2109 C2112 1.463 . S
C2109 C2114 1.350 . S
C2109 N2117 1.427 . S
C2110 H2101 0.930 . S
C2110 C2108 1.378 . S
C2110 C2111 1.367 . S
C2111 C2110 1.367 . S
C2111 C2113 1.433 . S
C2112 C2108 1.350 . S
C2112 C2109 1.463 . S
C2112 N2116 1.427 . S
C2113 H2103 0.929 . S
C2113 C2111 1.433 . S
C2113 N2116 1.384 . S
C2114 H2105 0.929 . S
C2114 C2106 1.378 . S
C2114 C2109 1.350 . S
C2115 H2102 0.929 . S
C2115 C2107 1.433 . S
C2115 N2117 1.384 . S
N2116 C2112 1.427 . S
N2116 C2113 1.384 . S
N2117 C2109 1.427 . S
N2117 C2115 1.384 . S
H2118 C2124 0.930 . S
H2119 C2128 0.930 . S
H2120 C2133 0.929 . S
H2121 C2131 0.929 . S
H2122 C2126 0.929 . S
H2123 C2132 0.929 . S
C2124 H2118 0.930 . S
C2124 C2125 1.367 . S
C2124 C2132 1.378 . S
C2125 C2124 1.367 . S
C2125 C2133 1.433 . S
C2126 H2122 0.929 . S
C2126 C2128 1.378 . S
C2126 C2130 1.350 . S
C2127 C2130 1.463 1_554 S
C2127 C2132 1.350 . S
C2127 N2135 1.427 1_554 S
C2128 H2119 0.930 . S
C2128 C2126 1.378 . S
C2128 C2129 1.367 . S
C2129 C2128 1.367 . S
C2129 C2131 1.433 . S
C2130 C2126 1.350 . S
C2130 C2127 1.463 1_556 S
C2130 N2134 1.427 . S
C2131 H2121 0.929 . S
C2131 C2129 1.433 . S
C2131 N2134 1.384 . S
C2132 H2123 0.929 . S
C2132 C2124 1.378 . S
C2132 C2127 1.350 . S
C2133 H2120 0.929 . S
C2133 C2125 1.433 . S
C2133 N2135 1.384 1_554 S
N2134 C2130 1.427 . S
N2134 C2131 1.384 . S
N2135 C2127 1.427 1_556 S
N2135 C2133 1.384 1_556 S
C1279 C241 1.428 . S
C1283 C29 1.432 . S
C1297 C92 1.465 . S
C1301 C304 1.479 . S
C1315 C347 1.521 . S
C1319 C135 1.521 . S
C1333 C410 1.577 . S
C1337 C198 1.573 . S
C1351 C771 1.291 . S
C1355 C463 1.295 . S
C1369 C824 1.311 . S
C1373 C506 1.302 . S
C1387 C569 1.488 . S
C1391 C675 1.494 . S
C1405 C718 1.314 . S
C1409 C612 1.321 . S
C1423 C877 1.263 . S
C1427 C1142 1.267 . S
C1441 C940 1.591 . S
C1445 C1036 1.571 . S
C1459 C983 1.492 . S
C1463 C1089 1.499 . S
C1477 C1195 1.402 . S
C1481 C1248 1.412 . S
C1495 C188 1.730 . S
C1499 C294 1.722 . S
C1513 C39 2.052 . S
C1517 C357 2.052 . S
C1531 C400 1.739 . S
C1535 C82 1.748 . S
C1549 C145 2.085 . S
C1553 C251 2.087 . S
C1567 C1258 2.138 . S
C1571 C993 2.149 . S
C1585 C1046 2.361 . S
C1589 C1152 2.350 . S
C1603 C1099 2.167 . S
C1607 C1205 2.169 . S
C1621 C930 2.023 . S
C1625 C887 2.033 . S
C1639 C622 2.136 . S
C1643 C516 2.136 . S
C1657 C834 2.213 . S
C1661 C728 2.213 . S
C1675 C665 1.991 . S
C1679 C781 1.990 . S
C1693 C559 1.644 . S
C1697 C453 1.630 . S
C1711 C1188 1.646 . S
C1715 C22 1.650 . S
C1729 C870 1.470 . S
C1733 C91 1.457 . S
C1747 C1241 1.697 . S
C1751 C128 1.696 . S
C1765 C1135 1.515 . S
C1769 C197 1.505 . S
C1783 C976 1.626 . S
C1787 C234 1.629 . S
C1801 C303 1.529 . S
C1805 C1029 1.534 . S
C1819 C1082 1.734 . S
C1823 C340 1.731 . S
C1837 C939 1.493 . S
C1841 C409 1.498 . S
C1855 C711 1.447 . S
C1859 C462 1.437 . S
C1873 C764 1.487 . S
C1877 C499 1.488 . S
C1891 C817 1.308 . S
C1895 C568 1.298 . S
C1909 C605 1.386 . S
C1913 C674 1.381 . S
C1927 C287 1.739 . S
C1931 C552 1.749 . S
C1945 C356 2.006 . S
C1949 C621 2.007 . S
C1963 C446 1.766 . S
C1967 C393 1.769 . S
C1981 C250 1.960 . S
C1985 C515 1.963 . S
C1999 C780 1.795 . S
C2003 C181 1.792 . S
C2017 C38 1.946 . S
C2021 C833 1.947 . S
C2035 C658 1.729 . S
C2039 C75 1.736 . S
C2053 C144 2.009 . S
C2057 C727 2.014 . S
C2071 C923 2.058 . S
C2075 C1257 2.063 . S
C2089 C1151 2.102 . S
C2093 C992 2.105 . S
C2107 C1204 2.137 . S
C2111 C1045 2.142 . S
C2125 C886 2.091 . S
C2129 C1098 2.085 . S
