# Generated by pormake.
# Topology ulj, (4)-cn, num edge types: 1
# Building blocks:
#     Node 0, Type 0, BuildingBlock: QUQFOY_clean_sbu_1, # of connection points: 4
#     Node 1, Type 0, BuildingBlock: QUQFOY_clean_sbu_1, # of connection points: 4
#     Node 2, Type 0, BuildingBlock: QUQFOY_clean_sbu_1, # of connection points: 4
#     Node 3, Type 0, BuildingBlock: QUQFOY_clean_sbu_1, # of connection points: 4
#     Node 4, Type 0, BuildingBlock: QUQFOY_clean_sbu_1, # of connection points: 4
#     Node 5, Type 0, BuildingBlock: QUQFOY_clean_sbu_1, # of connection points: 4
#     Node 6, Type 0, BuildingBlock: QUQFOY_clean_sbu_1, # of connection points: 4
#     Node 7, Type 0, BuildingBlock: QUQFOY_clean_sbu_1, # of connection points: 4
#     Node 8, Type 0, BuildingBlock: QUQFOY_clean_sbu_1, # of connection points: 4
#     Node 9, Type 0, BuildingBlock: QUQFOY_clean_sbu_1, # of connection points: 4
#     Node 10, Type 0, BuildingBlock: QUQFOY_clean_sbu_1, # of connection points: 4
#     Node 11, Type 0, BuildingBlock: QUQFOY_clean_sbu_1, # of connection points: 4
#     Node 12, Type 0, BuildingBlock: QUQFOY_clean_sbu_1, # of connection points: 4
#     Node 13, Type 0, BuildingBlock: QUQFOY_clean_sbu_1, # of connection points: 4
#     Node 14, Type 0, BuildingBlock: QUQFOY_clean_sbu_1, # of connection points: 4
#     Node 15, Type 0, BuildingBlock: QUQFOY_clean_sbu_1, # of connection points: 4
#     Node 16, Type 0, BuildingBlock: QUQFOY_clean_sbu_1, # of connection points: 4
#     Node 17, Type 0, BuildingBlock: QUQFOY_clean_sbu_1, # of connection points: 4
#     Node 18, Type 0, BuildingBlock: QUQFOY_clean_sbu_1, # of connection points: 4
#     Node 19, Type 0, BuildingBlock: QUQFOY_clean_sbu_1, # of connection points: 4
#     Node 20, Type 0, BuildingBlock: QUQFOY_clean_sbu_1, # of connection points: 4
#     Node 21, Type 0, BuildingBlock: QUQFOY_clean_sbu_1, # of connection points: 4
#     Node 22, Type 0, BuildingBlock: QUQFOY_clean_sbu_1, # of connection points: 4
#     Node 23, Type 0, BuildingBlock: QUQFOY_clean_sbu_1, # of connection points: 4
#     Node 24, Type 0, BuildingBlock: QUQFOY_clean_sbu_1, # of connection points: 4
#     Node 25, Type 0, BuildingBlock: QUQFOY_clean_sbu_1, # of connection points: 4
#     Node 26, Type 0, BuildingBlock: QUQFOY_clean_sbu_1, # of connection points: 4
#     Node 27, Type 0, BuildingBlock: QUQFOY_clean_sbu_1, # of connection points: 4
#     Node 28, Type 0, BuildingBlock: QUQFOY_clean_sbu_1, # of connection points: 4
#     Node 29, Type 0, BuildingBlock: QUQFOY_clean_sbu_1, # of connection points: 4
#     Node 30, Type 0, BuildingBlock: QUQFOY_clean_sbu_1, # of connection points: 4
#     Node 31, Type 0, BuildingBlock: QUQFOY_clean_sbu_1, # of connection points: 4
#     Node 32, Type 0, BuildingBlock: QUQFOY_clean_sbu_1, # of connection points: 4
#     Node 33, Type 0, BuildingBlock: QUQFOY_clean_sbu_1, # of connection points: 4
#     Node 34, Type 0, BuildingBlock: QUQFOY_clean_sbu_1, # of connection points: 4
#     Node 35, Type 0, BuildingBlock: QUQFOY_clean_sbu_1, # of connection points: 4
#     Node 36, Type 0, BuildingBlock: QUQFOY_clean_sbu_1, # of connection points: 4
#     Node 37, Type 0, BuildingBlock: QUQFOY_clean_sbu_1, # of connection points: 4
#     Node 38, Type 0, BuildingBlock: QUQFOY_clean_sbu_1, # of connection points: 4
#     Node 39, Type 0, BuildingBlock: QUQFOY_clean_sbu_1, # of connection points: 4
#     Node 40, Type 0, BuildingBlock: QUQFOY_clean_sbu_1, # of connection points: 4
#     Node 41, Type 0, BuildingBlock: QUQFOY_clean_sbu_1, # of connection points: 4
#     Node 42, Type 0, BuildingBlock: QUQFOY_clean_sbu_1, # of connection points: 4
#     Node 43, Type 0, BuildingBlock: QUQFOY_clean_sbu_1, # of connection points: 4
#     Node 44, Type 0, BuildingBlock: QUQFOY_clean_sbu_1, # of connection points: 4
#     Node 45, Type 0, BuildingBlock: QUQFOY_clean_sbu_1, # of connection points: 4
#     Node 46, Type 0, BuildingBlock: QUQFOY_clean_sbu_1, # of connection points: 4
#     Node 47, Type 0, BuildingBlock: QUQFOY_clean_sbu_1, # of connection points: 4
#     Edge 48, Type (0, 0), BuildingBlock: KIFKEQ_clean_linker_1, # of connection points: 2
#     Edge 49, Type (0, 0), BuildingBlock: KIFKEQ_clean_linker_1, # of connection points: 2
#     Edge 50, Type (0, 0), BuildingBlock: KIFKEQ_clean_linker_1, # of connection points: 2
#     Edge 51, Type (0, 0), BuildingBlock: KIFKEQ_clean_linker_1, # of connection points: 2
#     Edge 52, Type (0, 0), BuildingBlock: KIFKEQ_clean_linker_1, # of connection points: 2
#     Edge 53, Type (0, 0), BuildingBlock: KIFKEQ_clean_linker_1, # of connection points: 2
#     Edge 54, Type (0, 0), BuildingBlock: KIFKEQ_clean_linker_1, # of connection points: 2
#     Edge 55, Type (0, 0), BuildingBlock: KIFKEQ_clean_linker_1, # of connection points: 2
#     Edge 56, Type (0, 0), BuildingBlock: KIFKEQ_clean_linker_1, # of connection points: 2
#     Edge 57, Type (0, 0), BuildingBlock: KIFKEQ_clean_linker_1, # of connection points: 2
#     Edge 58, Type (0, 0), BuildingBlock: KIFKEQ_clean_linker_1, # of connection points: 2
#     Edge 59, Type (0, 0), BuildingBlock: KIFKEQ_clean_linker_1, # of connection points: 2
#     Edge 60, Type (0, 0), BuildingBlock: KIFKEQ_clean_linker_1, # of connection points: 2
#     Edge 61, Type (0, 0), BuildingBlock: KIFKEQ_clean_linker_1, # of connection points: 2
#     Edge 62, Type (0, 0), BuildingBlock: KIFKEQ_clean_linker_1, # of connection points: 2
#     Edge 63, Type (0, 0), BuildingBlock: KIFKEQ_clean_linker_1, # of connection points: 2
#     Edge 64, Type (0, 0), BuildingBlock: KIFKEQ_clean_linker_1, # of connection points: 2
#     Edge 65, Type (0, 0), BuildingBlock: KIFKEQ_clean_linker_1, # of connection points: 2
#     Edge 66, Type (0, 0), BuildingBlock: KIFKEQ_clean_linker_1, # of connection points: 2
#     Edge 67, Type (0, 0), BuildingBlock: KIFKEQ_clean_linker_1, # of connection points: 2
#     Edge 68, Type (0, 0), BuildingBlock: KIFKEQ_clean_linker_1, # of connection points: 2
#     Edge 69, Type (0, 0), BuildingBlock: KIFKEQ_clean_linker_1, # of connection points: 2
#     Edge 70, Type (0, 0), BuildingBlock: KIFKEQ_clean_linker_1, # of connection points: 2
#     Edge 71, Type (0, 0), BuildingBlock: KIFKEQ_clean_linker_1, # of connection points: 2
#     Edge 72, Type (0, 0), BuildingBlock: KIFKEQ_clean_linker_1, # of connection points: 2
#     Edge 73, Type (0, 0), BuildingBlock: KIFKEQ_clean_linker_1, # of connection points: 2
#     Edge 74, Type (0, 0), BuildingBlock: KIFKEQ_clean_linker_1, # of connection points: 2
#     Edge 75, Type (0, 0), BuildingBlock: KIFKEQ_clean_linker_1, # of connection points: 2
#     Edge 76, Type (0, 0), BuildingBlock: KIFKEQ_clean_linker_1, # of connection points: 2
#     Edge 77, Type (0, 0), BuildingBlock: KIFKEQ_clean_linker_1, # of connection points: 2
#     Edge 78, Type (0, 0), BuildingBlock: KIFKEQ_clean_linker_1, # of connection points: 2
#     Edge 79, Type (0, 0), BuildingBlock: KIFKEQ_clean_linker_1, # of connection points: 2
#     Edge 80, Type (0, 0), BuildingBlock: KIFKEQ_clean_linker_1, # of connection points: 2
#     Edge 81, Type (0, 0), BuildingBlock: KIFKEQ_clean_linker_1, # of connection points: 2
#     Edge 82, Type (0, 0), BuildingBlock: KIFKEQ_clean_linker_1, # of connection points: 2
#     Edge 83, Type (0, 0), BuildingBlock: KIFKEQ_clean_linker_1, # of connection points: 2
#     Edge 84, Type (0, 0), BuildingBlock: KIFKEQ_clean_linker_1, # of connection points: 2
#     Edge 85, Type (0, 0), BuildingBlock: KIFKEQ_clean_linker_1, # of connection points: 2
#     Edge 86, Type (0, 0), BuildingBlock: KIFKEQ_clean_linker_1, # of connection points: 2
#     Edge 87, Type (0, 0), BuildingBlock: KIFKEQ_clean_linker_1, # of connection points: 2
#     Edge 88, Type (0, 0), BuildingBlock: KIFKEQ_clean_linker_1, # of connection points: 2
#     Edge 89, Type (0, 0), BuildingBlock: KIFKEQ_clean_linker_1, # of connection points: 2
#     Edge 90, Type (0, 0), BuildingBlock: KIFKEQ_clean_linker_1, # of connection points: 2
#     Edge 91, Type (0, 0), BuildingBlock: KIFKEQ_clean_linker_1, # of connection points: 2
#     Edge 92, Type (0, 0), BuildingBlock: KIFKEQ_clean_linker_1, # of connection points: 2
#     Edge 93, Type (0, 0), BuildingBlock: KIFKEQ_clean_linker_1, # of connection points: 2
#     Edge 94, Type (0, 0), BuildingBlock: KIFKEQ_clean_linker_1, # of connection points: 2
#     Edge 95, Type (0, 0), BuildingBlock: KIFKEQ_clean_linker_1, # of connection points: 2
#     Edge 96, Type (0, 0), BuildingBlock: KIFKEQ_clean_linker_1, # of connection points: 2
#     Edge 97, Type (0, 0), BuildingBlock: KIFKEQ_clean_linker_1, # of connection points: 2
#     Edge 98, Type (0, 0), BuildingBlock: KIFKEQ_clean_linker_1, # of connection points: 2
#     Edge 99, Type (0, 0), BuildingBlock: KIFKEQ_clean_linker_1, # of connection points: 2
#     Edge 100, Type (0, 0), BuildingBlock: KIFKEQ_clean_linker_1, # of connection points: 2
#     Edge 101, Type (0, 0), BuildingBlock: KIFKEQ_clean_linker_1, # of connection points: 2
#     Edge 102, Type (0, 0), BuildingBlock: KIFKEQ_clean_linker_1, # of connection points: 2
#     Edge 103, Type (0, 0), BuildingBlock: KIFKEQ_clean_linker_1, # of connection points: 2
#     Edge 104, Type (0, 0), BuildingBlock: KIFKEQ_clean_linker_1, # of connection points: 2
#     Edge 105, Type (0, 0), BuildingBlock: KIFKEQ_clean_linker_1, # of connection points: 2
#     Edge 106, Type (0, 0), BuildingBlock: KIFKEQ_clean_linker_1, # of connection points: 2
#     Edge 107, Type (0, 0), BuildingBlock: KIFKEQ_clean_linker_1, # of connection points: 2
#     Edge 108, Type (0, 0), BuildingBlock: KIFKEQ_clean_linker_1, # of connection points: 2
#     Edge 109, Type (0, 0), BuildingBlock: KIFKEQ_clean_linker_1, # of connection points: 2
#     Edge 110, Type (0, 0), BuildingBlock: KIFKEQ_clean_linker_1, # of connection points: 2
#     Edge 111, Type (0, 0), BuildingBlock: KIFKEQ_clean_linker_1, # of connection points: 2
#     Edge 112, Type (0, 0), BuildingBlock: KIFKEQ_clean_linker_1, # of connection points: 2
#     Edge 113, Type (0, 0), BuildingBlock: KIFKEQ_clean_linker_1, # of connection points: 2
#     Edge 114, Type (0, 0), BuildingBlock: KIFKEQ_clean_linker_1, # of connection points: 2
#     Edge 115, Type (0, 0), BuildingBlock: KIFKEQ_clean_linker_1, # of connection points: 2
#     Edge 116, Type (0, 0), BuildingBlock: KIFKEQ_clean_linker_1, # of connection points: 2
#     Edge 117, Type (0, 0), BuildingBlock: KIFKEQ_clean_linker_1, # of connection points: 2
#     Edge 118, Type (0, 0), BuildingBlock: KIFKEQ_clean_linker_1, # of connection points: 2
#     Edge 119, Type (0, 0), BuildingBlock: KIFKEQ_clean_linker_1, # of connection points: 2
#     Edge 120, Type (0, 0), BuildingBlock: KIFKEQ_clean_linker_1, # of connection points: 2
#     Edge 121, Type (0, 0), BuildingBlock: KIFKEQ_clean_linker_1, # of connection points: 2
#     Edge 122, Type (0, 0), BuildingBlock: KIFKEQ_clean_linker_1, # of connection points: 2
#     Edge 123, Type (0, 0), BuildingBlock: KIFKEQ_clean_linker_1, # of connection points: 2
#     Edge 124, Type (0, 0), BuildingBlock: KIFKEQ_clean_linker_1, # of connection points: 2
#     Edge 125, Type (0, 0), BuildingBlock: KIFKEQ_clean_linker_1, # of connection points: 2
#     Edge 126, Type (0, 0), BuildingBlock: KIFKEQ_clean_linker_1, # of connection points: 2
#     Edge 127, Type (0, 0), BuildingBlock: KIFKEQ_clean_linker_1, # of connection points: 2
#     Edge 128, Type (0, 0), BuildingBlock: KIFKEQ_clean_linker_1, # of connection points: 2
#     Edge 129, Type (0, 0), BuildingBlock: KIFKEQ_clean_linker_1, # of connection points: 2
#     Edge 130, Type (0, 0), BuildingBlock: KIFKEQ_clean_linker_1, # of connection points: 2
#     Edge 131, Type (0, 0), BuildingBlock: KIFKEQ_clean_linker_1, # of connection points: 2
#     Edge 132, Type (0, 0), BuildingBlock: KIFKEQ_clean_linker_1, # of connection points: 2
#     Edge 133, Type (0, 0), BuildingBlock: KIFKEQ_clean_linker_1, # of connection points: 2
#     Edge 134, Type (0, 0), BuildingBlock: KIFKEQ_clean_linker_1, # of connection points: 2
#     Edge 135, Type (0, 0), BuildingBlock: KIFKEQ_clean_linker_1, # of connection points: 2
#     Edge 136, Type (0, 0), BuildingBlock: KIFKEQ_clean_linker_1, # of connection points: 2
#     Edge 137, Type (0, 0), BuildingBlock: KIFKEQ_clean_linker_1, # of connection points: 2
#     Edge 138, Type (0, 0), BuildingBlock: KIFKEQ_clean_linker_1, # of connection points: 2
#     Edge 139, Type (0, 0), BuildingBlock: KIFKEQ_clean_linker_1, # of connection points: 2
#     Edge 140, Type (0, 0), BuildingBlock: KIFKEQ_clean_linker_1, # of connection points: 2
#     Edge 141, Type (0, 0), BuildingBlock: KIFKEQ_clean_linker_1, # of connection points: 2
#     Edge 142, Type (0, 0), BuildingBlock: KIFKEQ_clean_linker_1, # of connection points: 2
#     Edge 143, Type (0, 0), BuildingBlock: KIFKEQ_clean_linker_1, # of connection points: 2
# Relax obj value: 0.218
# Max RMSD: 0.293
# Mean RMSD: 0.263
data_MOF--net-ulj--node1-QUQFOY_clean_sbu_1--edge1-KIFKEQ_clean_linker_1
_symmetry_space_group_name_H-M    P1
_symmetry_Int_Tables_number       1
_symmetry_cell_setting            triclinic
loop_
_symmetry_equiv_pos_as_xyz
'x, y, z'
_cell_length_a     60.731342
_cell_length_b     65.548968
_cell_length_c     68.27062
_cell_angle_alpha  89.98587
_cell_angle_beta   90.016882
_cell_angle_gamma 89.99788
loop_
_atom_site_label
_atom_site_type_symbol
_atom_site_fract_x
_atom_site_fract_y
_atom_site_fract_z
_atom_type_partial_charge
O0 O 0.10583 0.18015 0.3368 0.0
Cd1 Cd 0.13408 0.19653 0.33137 0.0
Cd2 Cd 0.11688 0.19527 0.29436 0.0
O3 O 0.08915 0.18391 0.30827 0.0
O4 O 0.14193 0.21178 0.35593 0.0
O5 O 0.13185 0.22658 0.32817 0.0
C6 C 0.13751 0.22825 0.34629 0.0
C7 C 0.11724 0.22312 0.27295 0.0
C8 C 0.08914 0.17743 0.32585 0.0
C9 C 0.15974 0.173 0.30229 0.0
O10 O 0.14334 0.17585 0.29102 0.0
O11 O 0.16032 0.18119 0.31918 0.0
O12 O 0.10999 0.20555 0.26732 0.0
O13 O 0.12284 0.2251 0.29106 0.0
O14 O 0.39912 0.61719 0.8955 0.0
Cd15 Cd 0.42225 0.59452 0.89894 0.0
Cd16 Cd 0.42196 0.60699 0.93693 0.0
O17 O 0.40646 0.63176 0.9239 0.0
O18 O 0.44186 0.59343 0.87539 0.0
O19 O 0.45216 0.6051 0.90444 0.0
C20 C 0.45672 0.60191 0.88624 0.0
C21 C 0.449 0.61157 0.96104 0.0
C22 C 0.39705 0.63214 0.90724 0.0
C23 C 0.40595 0.56419 0.9273 0.0
O24 O 0.40624 0.57912 0.93921 0.0
O25 O 0.41324 0.56639 0.90997 0.0
O26 O 0.42846 0.61479 0.96471 0.0
O27 O 0.45434 0.60676 0.94335 0.0
O28 O 0.87876 0.32309 0.34616 0.0
Cd29 Cd 0.85124 0.30562 0.34081 0.0
Cd30 Cd 0.8691 0.30478 0.3039 0.0
O31 O 0.89602 0.3171 0.31822 0.0
O32 O 0.84356 0.28811 0.36407 0.0
O33 O 0.85674 0.27633 0.33604 0.0
C34 C 0.85025 0.27281 0.35369 0.0
C35 C 0.87117 0.27792 0.28133 0.0
C36 C 0.89565 0.32498 0.33527 0.0
C37 C 0.82574 0.32696 0.31018 0.0
O38 O 0.84244 0.32364 0.29942 0.0
O39 O 0.82479 0.31967 0.32744 0.0
O40 O 0.87787 0.296 0.2768 0.0
O41 O 0.86468 0.27484 0.29904 0.0
O42 O 0.59003 0.87546 0.89326 0.0
Cd43 Cd 0.5675 0.89855 0.89706 0.0
Cd44 Cd 0.56743 0.88511 0.9349 0.0
O45 O 0.58192 0.86024 0.92119 0.0
O46 O 0.54706 0.90013 0.87396 0.0
O47 O 0.53774 0.88821 0.90316 0.0
C48 C 0.53255 0.89159 0.88514 0.0
C49 C 0.54005 0.88105 0.95879 0.0
C50 C 0.59151 0.86013 0.9046 0.0
C51 C 0.58521 0.92746 0.92615 0.0
O52 O 0.58451 0.91221 0.93767 0.0
O53 O 0.57745 0.92608 0.90889 0.0
O54 O 0.56037 0.87676 0.96246 0.0
O55 O 0.5351 0.88667 0.94125 0.0
O56 O 0.11222 0.81633 0.15572 0.0
Cd57 Cd 0.1407 0.80023 0.1612 0.0
Cd58 Cd 0.12234 0.7996 0.198 0.0
O59 O 0.09497 0.81138 0.18383 0.0
O60 O 0.14927 0.78496 0.13677 0.0
O61 O 0.13862 0.77021 0.16438 0.0
C62 C 0.14473 0.7685 0.14639 0.0
C63 C 0.12218 0.77134 0.21897 0.0
C64 C 0.09527 0.81851 0.16647 0.0
C65 C 0.16499 0.82297 0.19183 0.0
O66 O 0.1484 0.81915 0.20259 0.0
O67 O 0.16625 0.81566 0.17459 0.0
O68 O 0.11464 0.78876 0.2247 0.0
O69 O 0.12832 0.76971 0.20099 0.0
O70 O 0.09493 0.61978 0.1027 0.0
Cd71 Cd 0.07239 0.5968 0.0975 0.0
Cd72 Cd 0.08265 0.60628 0.0605 0.0
O73 O 0.09649 0.63207 0.07268 0.0
O74 O 0.05419 0.59578 0.12183 0.0
O75 O 0.04146 0.60598 0.09303 0.0
C76 C 0.03834 0.6034 0.11156 0.0
C77 C 0.05544 0.60767 0.0364 0.0
C78 C 0.10116 0.63352 0.09078 0.0
C79 C 0.09512 0.56471 0.07449 0.0
O80 O 0.09936 0.57898 0.06245 0.0
O81 O 0.0825 0.56789 0.08904 0.0
O82 O 0.07584 0.61118 0.03223 0.0
O83 O 0.05042 0.60419 0.05446 0.0
O84 O 0.8943 0.68408 0.1585 0.0
Cd85 Cd 0.86529 0.69919 0.16485 0.0
Cd86 Cd 0.88247 0.69626 0.2019 0.0
O87 O 0.90942 0.68391 0.18799 0.0
O88 O 0.85676 0.71558 0.14114 0.0
O89 O 0.86643 0.72914 0.16957 0.0
C90 C 0.86065 0.73163 0.15156 0.0
C91 C 0.88397 0.72325 0.22414 0.0
C92 C 0.91019 0.67955 0.16985 0.0
C93 C 0.83964 0.67434 0.19337 0.0
O94 O 0.85559 0.67758 0.20501 0.0
O95 O 0.83941 0.68241 0.1764 0.0
O96 O 0.89025 0.70516 0.22912 0.0
O97 O 0.87821 0.72618 0.20619 0.0
O98 O 0.90601 0.88249 0.1091 0.0
Cd99 Cd 0.92926 0.90452 0.1027 0.0
Cd100 Cd 0.91659 0.89559 0.06607 0.0
O101 O 0.90349 0.86995 0.0792 0.0
O102 O 0.95055 0.90473 0.12514 0.0
O103 O 0.9585 0.89291 0.0956 0.0
C104 C 0.96427 0.89564 0.1136 0.0
C105 C 0.94189 0.89444 0.04037 0.0
C106 C 0.89936 0.86867 0.09742 0.0
C107 C 0.90646 0.93734 0.08042 0.0
O108 O 0.90053 0.92305 0.06899 0.0
O109 O 0.92015 0.93383 0.09414 0.0
O110 O 0.92123 0.89093 0.03738 0.0
O111 O 0.94825 0.89759 0.05814 0.0
O112 O 0.35043 0.08475 0.23486 0.0
Cd113 Cd 0.32363 0.08756 0.21629 0.0
Cd114 Cd 0.33526 0.12555 0.21807 0.0
O115 O 0.36426 0.11536 0.22973 0.0
O116 O 0.31924 0.06082 0.20306 0.0
O117 O 0.32953 0.08888 0.18744 0.0
C118 C 0.32524 0.06957 0.18697 0.0
C119 C 0.33259 0.15086 0.19442 0.0
C120 C 0.36564 0.09782 0.23752 0.0
C121 C 0.29336 0.11398 0.2381 0.0
O122 O 0.3092 0.12655 0.23708 0.0
O123 O 0.29432 0.09724 0.22874 0.0
O124 O 0.33964 0.15478 0.21182 0.0
O125 O 0.32882 0.13205 0.1899 0.0
O126 O 0.38396 0.36628 0.04398 0.0
Cd127 Cd 0.41223 0.36907 0.02783 0.0
Cd128 Cd 0.39662 0.40798 0.02036 0.0
O129 O 0.37043 0.39654 0.03647 0.0
O130 O 0.41941 0.3422 0.016 0.0
O131 O 0.40857 0.36923 0.99889 0.0
C132 C 0.41395 0.35013 0.99936 0.0
C133 C 0.38824 0.43198 0.99609 0.0
C134 C 0.36867 0.37944 0.04511 0.0
C135 C 0.44124 0.40204 0.04078 0.0
O136 O 0.42648 0.4137 0.03375 0.0
O137 O 0.43909 0.3828 0.04036 0.0
O138 O 0.38582 0.43595 0.01441 0.0
O139 O 0.39496 0.41399 0.99126 0.0
O140 O 0.64447 0.42631 0.23488 0.0
Cd141 Cd 0.67203 0.42122 0.2177 0.0
Cd142 Cd 0.65699 0.38414 0.21945 0.0
O143 O 0.62801 0.3971 0.22845 0.0
O144 O 0.68005 0.44684 0.20354 0.0
O145 O 0.66649 0.41935 0.18893 0.0
C146 C 0.67317 0.43802 0.18776 0.0
C147 C 0.66076 0.35912 0.19567 0.0
C148 C 0.62773 0.41469 0.23626 0.0
C149 C 0.69815 0.39269 0.24149 0.0
O150 O 0.68103 0.38167 0.24037 0.0
O151 O 0.69951 0.40895 0.23138 0.0
O152 O 0.65141 0.35525 0.21223 0.0
O153 O 0.6661 0.37778 0.19193 0.0
O154 O 0.62638 0.12562 0.03545 0.0
Cd155 Cd 0.59838 0.11775 0.01992 0.0
Cd156 Cd 0.61813 0.0817 0.02067 0.0
O157 O 0.64538 0.09765 0.02951 0.0
O158 O 0.5876 0.14352 0.00783 0.0
O159 O 0.60113 0.11759 0.99081 0.0
C160 C 0.59369 0.13607 0.99118 0.0
C161 C 0.62029 0.05704 0.99612 0.0
C162 C 0.64426 0.11557 0.03647 0.0
C163 C 0.57652 0.08655 0.04373 0.0
O164 O 0.59439 0.07675 0.0416 0.0
O165 O 0.57309 0.10296 0.0343 0.0
O166 O 0.6289 0.05412 0.01315 0.0
O167 O 0.61099 0.07441 0.99271 0.0
O168 O 0.34941 0.91424 0.26728 0.0
Cd169 Cd 0.32235 0.9107 0.28538 0.0
Cd170 Cd 0.335 0.87312 0.28328 0.0
O171 O 0.36434 0.88421 0.27305 0.0
O172 O 0.31744 0.93721 0.29893 0.0
O173 O 0.32823 0.90912 0.31423 0.0
C174 C 0.32378 0.9284 0.31488 0.0
C175 C 0.33141 0.84708 0.30611 0.0
C176 C 0.36529 0.90176 0.2652 0.0
C177 C 0.29363 0.88423 0.2622 0.0
O178 O 0.30998 0.87224 0.26316 0.0
O179 O 0.29351 0.90054 0.27229 0.0
O180 O 0.33957 0.84378 0.28897 0.0
O181 O 0.32707 0.8657 0.31095 0.0
O182 O 0.12608 0.36944 0.95628 0.0
Cd183 Cd 0.09798 0.37319 0.9728 0.0
Cd184 Cd 0.11623 0.40956 0.98044 0.0
O185 O 0.14382 0.39555 0.96915 0.0
O186 O 0.08981 0.3469 0.98539 0.0
O187 O 0.10189 0.37404 0.00165 0.0
C188 C 0.09576 0.35514 0.00177 0.0
C189 C 0.1211 0.43474 0.00448 0.0
C190 C 0.14358 0.3799 0.95818 0.0
C191 C 0.07457 0.40678 0.95519 0.0
O192 O 0.09125 0.41673 0.96114 0.0
O193 O 0.07221 0.38815 0.9598 0.0
O194 O 0.12737 0.43734 0.98666 0.0
O195 O 0.11271 0.4173 0.00906 0.0
O196 O 0.65479 0.57734 0.26401 0.0
Cd197 Cd 0.68242 0.58105 0.28137 0.0
Cd198 Cd 0.66925 0.61878 0.28038 0.0
O199 O 0.63971 0.60703 0.27112 0.0
O200 O 0.6886 0.55528 0.29606 0.0
O201 O 0.67621 0.58363 0.30995 0.0
C202 C 0.68167 0.56466 0.31152 0.0
C203 C 0.67373 0.64358 0.30437 0.0
C204 C 0.63859 0.58964 0.26296 0.0
C205 C 0.71 0.60882 0.25817 0.0
O206 O 0.69346 0.62055 0.25956 0.0
O207 O 0.71059 0.59232 0.26797 0.0
O208 O 0.66475 0.64783 0.28774 0.0
O209 O 0.67843 0.62476 0.30802 0.0
O210 O 0.87656 0.13718 0.96763 0.0
Cd211 Cd 0.90546 0.13541 0.983 0.0
Cd212 Cd 0.89272 0.09499 0.98797 0.0
O213 O 0.86561 0.10543 0.97235 0.0
O214 O 0.91147 0.16274 0.9943 0.0
O215 O 0.90323 0.13545 0.01211 0.0
C216 C 0.90734 0.15481 0.01123 0.0
C217 C 0.88676 0.06873 0.01074 0.0
C218 C 0.86243 0.12312 0.96523 0.0
C219 C 0.9363 0.10523 0.96735 0.0
O220 O 0.92273 0.09224 0.97405 0.0
O221 O 0.93273 0.12422 0.96891 0.0
O222 O 0.88509 0.06581 0.99217 0.0
O223 O 0.89117 0.08697 0.01668 0.0
O224 O 0.23104 0.31045 0.10821 0.0
Cd225 Cd 0.21103 0.28747 0.11865 0.0
Cd226 Cd 0.22447 0.30522 0.15124 0.0
O227 O 0.23459 0.32964 0.13453 0.0
O228 O 0.19417 0.27859 0.09499 0.0
O229 O 0.17866 0.29346 0.12051 0.0
C230 C 0.17686 0.28634 0.10299 0.0
C231 C 0.19647 0.30388 0.17434 0.0
C232 C 0.23792 0.3267 0.11635 0.0
C233 C 0.2429 0.26415 0.1419 0.0
O234 O 0.24579 0.28091 0.15089 0.0
O235 O 0.22713 0.26216 0.12978 0.0
O236 O 0.2156 0.31113 0.17893 0.0
O237 O 0.19305 0.29877 0.15634 0.0
O238 O 0.22836 0.68351 0.38649 0.0
Cd239 Cd 0.20909 0.70642 0.37481 0.0
Cd240 Cd 0.22574 0.68889 0.34294 0.0
O241 O 0.23494 0.66466 0.36038 0.0
O242 O 0.19028 0.71513 0.39738 0.0
O243 O 0.17699 0.70008 0.37099 0.0
C244 C 0.17374 0.70715 0.38836 0.0
C245 C 0.19887 0.69002 0.31877 0.0
C246 C 0.23632 0.66745 0.37879 0.0
C247 C 0.24235 0.73035 0.35335 0.0
O248 O 0.24632 0.71369 0.34451 0.0
O249 O 0.22572 0.73192 0.36459 0.0
O250 O 0.21831 0.68304 0.31485 0.0
O251 O 0.19455 0.69496 0.33665 0.0
O252 O 0.92287 0.56864 0.87536 0.0
Cd253 Cd 0.9191 0.55359 0.90167 0.0
Cd254 Cd 0.9571 0.53495 0.89065 0.0
O255 O 0.94719 0.5466 0.86407 0.0
O256 O 0.8875 0.54498 0.90508 0.0
O257 O 0.91488 0.52391 0.89812 0.0
C258 C 0.89407 0.52682 0.90047 0.0
C259 C 0.97281 0.50246 0.8918 0.0
C260 C 0.93415 0.56147 0.86125 0.0
C261 C 0.95768 0.56332 0.92597 0.0
O262 O 0.96816 0.55423 0.91241 0.0
O263 O 0.93671 0.56365 0.92584 0.0
O264 O 0.98318 0.51771 0.88428 0.0
O265 O 0.95309 0.50546 0.89812 0.0
O266 O 0.77324 0.80254 0.39496 0.0
Cd267 Cd 0.79381 0.77984 0.3848 0.0
Cd268 Cd 0.7814 0.79723 0.35167 0.0
O269 O 0.77019 0.82122 0.3682 0.0
O270 O 0.81195 0.77229 0.40815 0.0
O271 O 0.8256 0.7874 0.38189 0.0
C272 C 0.82841 0.78096 0.39956 0.0
C273 C 0.80859 0.79805 0.3278 0.0
C274 C 0.76648 0.81858 0.38635 0.0
C275 C 0.76344 0.75578 0.36067 0.0
O276 O 0.76087 0.7724 0.35138 0.0
O277 O 0.77851 0.75408 0.37353 0.0
O278 O 0.7889 0.8044 0.32396 0.0
O279 O 0.81296 0.79246 0.3455 0.0
O280 O 0.57323 0.43484 0.37557 0.0
Cd281 Cd 0.58117 0.44714 0.4024 0.0
Cd282 Cd 0.54442 0.46887 0.39624 0.0
O283 O 0.55071 0.45989 0.36784 0.0
O284 O 0.61393 0.45049 0.40319 0.0
O285 O 0.59023 0.4762 0.40151 0.0
C286 C 0.61033 0.46983 0.40123 0.0
C287 C 0.53316 0.50238 0.40184 0.0
C288 C 0.56182 0.44431 0.36289 0.0
C289 C 0.5449 0.43726 0.4289 0.0
O290 O 0.53372 0.44801 0.41695 0.0
O291 O 0.56571 0.43601 0.4271 0.0
O292 O 0.52017 0.48924 0.39385 0.0
O293 O 0.55283 0.49663 0.40629 0.0
O294 O 0.26616 0.7113 0.60184 0.0
Cd295 Cd 0.28908 0.73029 0.61432 0.0
Cd296 Cd 0.27851 0.70716 0.64431 0.0
O297 O 0.26882 0.68622 0.62332 0.0
O298 O 0.31011 0.73956 0.59342 0.0
O299 O 0.31878 0.71806 0.61723 0.0
C300 C 0.32423 0.72728 0.60128 0.0
C301 C 0.30422 0.70305 0.66933 0.0
C302 C 0.26178 0.69313 0.60705 0.0
C303 C 0.26021 0.74959 0.64221 0.0
O304 O 0.25725 0.73131 0.64787 0.0
O305 O 0.27588 0.75386 0.63054 0.0
O306 O 0.28463 0.69556 0.67107 0.0
O307 O 0.3094 0.71157 0.65296 0.0
O308 O 0.92245 0.42947 0.62445 0.0
Cd309 Cd 0.91894 0.44388 0.59782 0.0
Cd310 Cd 0.95853 0.45981 0.60722 0.0
O311 O 0.94888 0.44997 0.63461 0.0
O312 O 0.88771 0.45335 0.59478 0.0
O313 O 0.91607 0.47386 0.60023 0.0
C314 C 0.89507 0.47147 0.5985 0.0
C315 C 0.97684 0.491 0.60414 0.0
C316 C 0.93469 0.4362 0.63811 0.0
C317 C 0.95518 0.43018 0.57291 0.0
O318 O 0.96693 0.43893 0.58585 0.0
O319 O 0.9343 0.43155 0.57356 0.0
O320 O 0.98645 0.47519 0.61141 0.0
O321 O 0.95641 0.48935 0.59924 0.0
O322 O 0.07516 0.07373 0.62366 0.0
Cd323 Cd 0.07691 0.05708 0.59798 0.0
Cd324 Cd 0.0361 0.04741 0.60771 0.0
O325 O 0.04763 0.05535 0.63498 0.0
O326 O 0.10772 0.04643 0.59528 0.0
O327 O 0.07887 0.02725 0.60271 0.0
C328 C 0.0999 0.0289 0.6005 0.0
C329 C 0.01625 0.01729 0.60359 0.0
C330 C 0.06304 0.0681 0.63786 0.0
C331 C 0.04242 0.0741 0.57273 0.0
O332 O 0.02994 0.0697 0.58707 0.0
O333 O 0.06235 0.06809 0.57258 0.0
O334 O 0.00758 0.033 0.61195 0.0
O335 O 0.0365 0.01852 0.59801 0.0
O336 O 0.60612 0.67543 0.83971 0.0
Cd337 Cd 0.63323 0.69312 0.83346 0.0
Cd338 Cd 0.61553 0.69133 0.79676 0.0
O339 O 0.58871 0.67932 0.81151 0.0
O340 O 0.6413 0.71021 0.85684 0.0
O341 O 0.62775 0.72262 0.82921 0.0
C342 C 0.63454 0.72574 0.84685 0.0
C343 C 0.61361 0.71808 0.77413 0.0
C344 C 0.58926 0.67254 0.829 0.0
C345 C 0.65936 0.67067 0.80384 0.0
O346 O 0.64253 0.67273 0.79293 0.0
O347 O 0.65999 0.67906 0.82063 0.0
O348 O 0.60695 0.69998 0.76959 0.0
O349 O 0.61996 0.7212 0.79188 0.0
O350 O 0.89898 0.12285 0.39398 0.0
Cd351 Cd 0.92192 0.09987 0.39641 0.0
Cd352 Cd 0.92163 0.11074 0.43448 0.0
O353 O 0.90639 0.13632 0.42285 0.0
O354 O 0.94096 0.09962 0.37253 0.0
O355 O 0.95217 0.10972 0.40188 0.0
C356 C 0.9562 0.10741 0.38344 0.0
C357 C 0.94799 0.11372 0.45941 0.0
C358 C 0.89689 0.13731 0.40625 0.0
C359 C 0.90413 0.06889 0.42292 0.0
O360 O 0.90487 0.08332 0.43536 0.0
O361 O 0.91206 0.0714 0.40587 0.0
O362 O 0.92733 0.11651 0.46278 0.0
O363 O 0.95392 0.11022 0.44158 0.0
O364 O 0.38164 0.81727 0.84384 0.0
Cd365 Cd 0.35407 0.79991 0.83825 0.0
Cd366 Cd 0.37112 0.80046 0.80129 0.0
O367 O 0.39832 0.81254 0.81542 0.0
O368 O 0.34637 0.7826 0.86163 0.0
O369 O 0.35916 0.77042 0.83363 0.0
C370 C 0.35279 0.76713 0.85136 0.0
C371 C 0.37295 0.77374 0.77858 0.0
C372 C 0.39827 0.81973 0.83276 0.0
C373 C 0.32791 0.82235 0.80863 0.0
O374 O 0.34435 0.81939 0.79745 0.0
O375 O 0.32741 0.81449 0.82567 0.0
O376 O 0.37958 0.79185 0.77409 0.0
O377 O 0.36655 0.77057 0.7963 0.0
O378 O 0.088 0.37679 0.39206 0.0
Cd379 Cd 0.06664 0.4004 0.39786 0.0
Cd380 Cd 0.07168 0.38667 0.43558 0.0
O381 O 0.08646 0.3624 0.42133 0.0
O382 O 0.04562 0.40329 0.37536 0.0
O383 O 0.03656 0.3912 0.40456 0.0
C384 C 0.03103 0.39513 0.38671 0.0
C385 C 0.04499 0.38237 0.45996 0.0
C386 C 0.09266 0.3621 0.40352 0.0
C387 C 0.08749 0.4293 0.42568 0.0
O388 O 0.08797 0.41415 0.43731 0.0
O389 O 0.07826 0.42774 0.409 0.0
O390 O 0.06549 0.37859 0.46339 0.0
O391 O 0.03954 0.38749 0.44239 0.0
O392 O 0.60454 0.31471 0.66208 0.0
Cd393 Cd 0.63344 0.29904 0.66744 0.0
Cd394 Cd 0.61738 0.3012 0.7051 0.0
O395 O 0.58984 0.31338 0.69174 0.0
O396 O 0.6418 0.28286 0.64348 0.0
O397 O 0.6309 0.26911 0.67141 0.0
C398 C 0.63697 0.26673 0.65348 0.0
C399 C 0.6178 0.27349 0.72666 0.0
C400 C 0.58876 0.31857 0.67379 0.0
C401 C 0.6598 0.32331 0.69608 0.0
O402 O 0.64394 0.3203 0.70786 0.0
O403 O 0.65978 0.31509 0.67917 0.0
O404 O 0.6109 0.29117 0.73231 0.0
O405 O 0.62293 0.27132 0.70847 0.0
O406 O 0.59744 0.11649 0.6078 0.0
Cd407 Cd 0.57447 0.09362 0.60502 0.0
Cd408 Cd 0.57409 0.10555 0.56673 0.0
O409 O 0.58959 0.13061 0.57927 0.0
O410 O 0.5546 0.09322 0.62843 0.0
O411 O 0.5447 0.10398 0.59893 0.0
C412 C 0.53992 0.10141 0.61717 0.0
C413 C 0.54687 0.10987 0.54268 0.0
C414 C 0.5992 0.13129 0.59585 0.0
C415 C 0.59078 0.06301 0.57718 0.0
O416 O 0.58997 0.07768 0.56498 0.0
O417 O 0.58367 0.06538 0.59454 0.0
O418 O 0.56745 0.11248 0.53876 0.0
O419 O 0.5416 0.10569 0.56052 0.0
O420 O 0.39317 0.18123 0.66068 0.0
Cd421 Cd 0.36631 0.19929 0.66701 0.0
Cd422 Cd 0.38454 0.19786 0.70354 0.0
O423 O 0.41073 0.18489 0.68884 0.0
O424 O 0.35799 0.21622 0.64357 0.0
O425 O 0.37192 0.22884 0.67096 0.0
C426 C 0.36485 0.23184 0.65339 0.0
C427 C 0.38805 0.22478 0.72577 0.0
C428 C 0.40994 0.178 0.67142 0.0
C429 C 0.3403 0.17756 0.69726 0.0
O430 O 0.35716 0.1799 0.70807 0.0
O431 O 0.33962 0.18546 0.68025 0.0
O432 O 0.39399 0.20651 0.73045 0.0
O433 O 0.38141 0.22791 0.7081 0.0
O434 O 0.40453 0.38275 0.6074 0.0
Cd435 Cd 0.42741 0.40573 0.60457 0.0
Cd436 Cd 0.42774 0.39368 0.56693 0.0
O437 O 0.41337 0.3681 0.57946 0.0
O438 O 0.44546 0.40606 0.62903 0.0
O439 O 0.45801 0.39607 0.60005 0.0
C440 C 0.46114 0.39827 0.61864 0.0
C441 C 0.45466 0.3905 0.54259 0.0
C442 C 0.40343 0.36759 0.59585 0.0
C443 C 0.41025 0.43594 0.57685 0.0
O444 O 0.41077 0.42098 0.56498 0.0
O445 O 0.41794 0.43396 0.59407 0.0
O446 O 0.43424 0.38657 0.53906 0.0
O447 O 0.46004 0.39522 0.56031 0.0
O448 O 0.85015 0.58369 0.73332 0.0
Cd449 Cd 0.82273 0.58659 0.71552 0.0
Cd450 Cd 0.83446 0.62461 0.71781 0.0
O451 O 0.86399 0.61434 0.72838 0.0
O452 O 0.81803 0.55973 0.70246 0.0
O453 O 0.82791 0.58771 0.68656 0.0
C454 C 0.82373 0.56839 0.68625 0.0
C455 C 0.82978 0.6486 0.69325 0.0
C456 C 0.86556 0.59661 0.73575 0.0
C457 C 0.79317 0.61288 0.73847 0.0
O458 O 0.80913 0.62533 0.73759 0.0
O459 O 0.79379 0.5964 0.72864 0.0
O460 O 0.83771 0.65363 0.71011 0.0
O461 O 0.82639 0.62949 0.68977 0.0
O462 O 0.86403 0.87582 0.53778 0.0
Cd463 Cd 0.89265 0.8833 0.52319 0.0
Cd464 Cd 0.87084 0.91825 0.51697 0.0
O465 O 0.84443 0.90222 0.52787 0.0
O466 O 0.90536 0.85748 0.51273 0.0
O467 O 0.89126 0.88195 0.4941 0.0
C468 C 0.89966 0.86388 0.49555 0.0
C469 C 0.86686 0.93994 0.49007 0.0
C470 C 0.8458 0.88531 0.53689 0.0
C471 C 0.9117 0.9194 0.54234 0.0
O472 O 0.89413 0.92812 0.53667 0.0
O473 O 0.91572 0.90109 0.53735 0.0
O474 O 0.85783 0.94398 0.5067 0.0
O475 O 0.8774 0.92294 0.48834 0.0
O476 O 0.1426 0.92173 0.73869 0.0
Cd477 Cd 0.17043 0.91731 0.72169 0.0
Cd478 Cd 0.15667 0.87995 0.72462 0.0
O479 O 0.12699 0.892 0.73289 0.0
O480 O 0.17659 0.94347 0.70768 0.0
O481 O 0.16532 0.91534 0.6928 0.0
C482 C 0.17037 0.93445 0.6918 0.0
C483 C 0.16254 0.85563 0.70064 0.0
C484 C 0.12612 0.90982 0.74016 0.0
C485 C 0.19763 0.89012 0.74607 0.0
O486 O 0.18061 0.8789 0.7457 0.0
O487 O 0.19854 0.90597 0.73532 0.0
O488 O 0.15304 0.85093 0.71694 0.0
O489 O 0.16677 0.87461 0.69728 0.0
O490 O 0.12609 0.62926 0.52991 0.0
Cd491 Cd 0.09752 0.62018 0.51576 0.0
Cd492 Cd 0.11742 0.58396 0.51901 0.0
O493 O 0.14428 0.60015 0.52814 0.0
O494 O 0.08622 0.64514 0.50245 0.0
O495 O 0.09934 0.61823 0.48665 0.0
C496 C 0.09187 0.63669 0.48613 0.0
C497 C 0.12021 0.55943 0.49449 0.0
C498 C 0.14351 0.61889 0.53268 0.0
C499 C 0.07555 0.58993 0.54132 0.0
O500 O 0.09312 0.57963 0.53942 0.0
O501 O 0.07256 0.60621 0.53154 0.0
O502 O 0.12837 0.55641 0.51168 0.0
O503 O 0.1109 0.57676 0.49097 0.0
O504 O 0.84742 0.41752 0.76492 0.0
Cd505 Cd 0.81976 0.41435 0.78237 0.0
Cd506 Cd 0.8322 0.37645 0.781 0.0
O507 O 0.86174 0.38727 0.77088 0.0
O508 O 0.81469 0.44101 0.79569 0.0
O509 O 0.82466 0.41289 0.81136 0.0
C510 C 0.82039 0.43222 0.81183 0.0
C511 C 0.82825 0.35132 0.80473 0.0
C512 C 0.86315 0.40483 0.76313 0.0
C513 C 0.79118 0.38739 0.75928 0.0
O514 O 0.80731 0.37519 0.76076 0.0
O515 O 0.79123 0.40404 0.76886 0.0
O516 O 0.83647 0.34729 0.78776 0.0
O517 O 0.82399 0.37014 0.80885 0.0
O518 O 0.62279 0.86972 0.45847 0.0
Cd519 Cd 0.59509 0.87495 0.47535 0.0
Cd520 Cd 0.6161 0.90917 0.48277 0.0
O521 O 0.64297 0.89282 0.47348 0.0
O522 O 0.58404 0.84838 0.48548 0.0
O523 O 0.5987 0.87254 0.50418 0.0
C524 C 0.59059 0.85437 0.50256 0.0
C525 C 0.61987 0.93223 0.50868 0.0
C526 C 0.64139 0.87803 0.46158 0.0
C527 C 0.57568 0.91049 0.45727 0.0
O528 O 0.59408 0.91856 0.46156 0.0
O529 O 0.57067 0.89294 0.46372 0.0
O530 O 0.62925 0.93524 0.49202 0.0
O531 O 0.60883 0.91558 0.51101 0.0
O532 O 0.15223 0.0838 0.76522 0.0
Cd533 Cd 0.17958 0.08585 0.78322 0.0
Cd534 Cd 0.16704 0.12396 0.78367 0.0
O535 O 0.13782 0.11377 0.77229 0.0
O536 O 0.18435 0.05847 0.79543 0.0
O537 O 0.17429 0.08588 0.81214 0.0
C538 C 0.17851 0.06657 0.81189 0.0
C539 C 0.17113 0.14638 0.8097 0.0
C540 C 0.13661 0.09665 0.76365 0.0
C541 C 0.20852 0.11447 0.76218 0.0
O542 O 0.19235 0.12658 0.76401 0.0
O543 O 0.20827 0.09723 0.77077 0.0
O544 O 0.16264 0.15228 0.79332 0.0
O545 O 0.17546 0.12723 0.81186 0.0
O546 O 0.3759 0.63215 0.46031 0.0
Cd547 Cd 0.40461 0.63165 0.47605 0.0
Cd548 Cd 0.39142 0.5914 0.48332 0.0
O549 O 0.36451 0.60093 0.46694 0.0
O550 O 0.40973 0.66025 0.48442 0.0
O551 O 0.40288 0.63481 0.50507 0.0
C552 C 0.40622 0.65405 0.5021 0.0
C553 C 0.38486 0.56711 0.50779 0.0
C554 C 0.36162 0.6181 0.45869 0.0
C555 C 0.43568 0.6002 0.46309 0.0
O556 O 0.42174 0.5877 0.47009 0.0
O557 O 0.43222 0.61928 0.46344 0.0
O558 O 0.38282 0.56283 0.48949 0.0
O559 O 0.39013 0.58554 0.51249 0.0
O560 O 0.71854 0.79732 0.6004 0.0
Cd561 Cd 0.69926 0.77452 0.6121 0.0
Cd562 Cd 0.71128 0.79474 0.64369 0.0
O563 O 0.71964 0.81853 0.62542 0.0
O564 O 0.68111 0.76485 0.58947 0.0
O565 O 0.66721 0.78081 0.61516 0.0
C566 C 0.6644 0.77328 0.59789 0.0
C567 C 0.68464 0.7944 0.66811 0.0
C568 C 0.72385 0.81453 0.60758 0.0
C569 C 0.73186 0.75391 0.63641 0.0
O570 O 0.7338 0.77134 0.64437 0.0
O571 O 0.71619 0.75038 0.6245 0.0
O572 O 0.70374 0.80248 0.67131 0.0
O573 O 0.68045 0.78777 0.65072 0.0
O574 O 0.72896 0.19026 0.89364 0.0
Cd575 Cd 0.70907 0.2127 0.88196 0.0
Cd576 Cd 0.72494 0.19443 0.84997 0.0
O577 O 0.73477 0.17075 0.86783 0.0
O578 O 0.69019 0.22126 0.9046 0.0
O579 O 0.67718 0.20559 0.87844 0.0
C580 C 0.67385 0.2127 0.89577 0.0
C581 C 0.69756 0.19465 0.82622 0.0
C582 C 0.73672 0.17402 0.88612 0.0
C583 C 0.74131 0.23637 0.8591 0.0
O584 O 0.74519 0.2195 0.85059 0.0
O585 O 0.72503 0.23813 0.87073 0.0
O586 O 0.71699 0.18779 0.82212 0.0
O587 O 0.69358 0.20001 0.84404 0.0
O588 O 0.41869 0.07206 0.3794 0.0
Cd589 Cd 0.41638 0.05572 0.40532 0.0
Cd590 Cd 0.45793 0.04704 0.39665 0.0
O591 O 0.44804 0.05545 0.36915 0.0
O592 O 0.38575 0.04444 0.40743 0.0
O593 O 0.41527 0.02575 0.40112 0.0
C594 C 0.39416 0.02696 0.40284 0.0
C595 C 0.4785 0.01742 0.40077 0.0
C596 C 0.43204 0.06739 0.36575 0.0
C597 C 0.44948 0.07361 0.43148 0.0
O598 O 0.46263 0.06908 0.4177 0.0
O599 O 0.42961 0.06747 0.43105 0.0
O600 O 0.48728 0.03382 0.39386 0.0
O601 O 0.45779 0.01768 0.40491 0.0
O602 O 0.27647 0.30495 0.89628 0.0
Cd603 Cd 0.29518 0.28046 0.88749 0.0
Cd604 Cd 0.28683 0.29719 0.85269 0.0
O605 O 0.27379 0.32134 0.86813 0.0
O606 O 0.31229 0.27229 0.91118 0.0
O607 O 0.32754 0.28519 0.88449 0.0
C608 C 0.32961 0.27901 0.90233 0.0
C609 C 0.31488 0.29919 0.82962 0.0
C610 C 0.27001 0.32027 0.88642 0.0
C611 C 0.26634 0.2563 0.86153 0.0
O612 O 0.26698 0.27191 0.85049 0.0
O613 O 0.27809 0.25554 0.87694 0.0
O614 O 0.29512 0.30498 0.82536 0.0
O615 O 0.31887 0.29356 0.84738 0.0
O616 O 0.06494 0.93744 0.87565 0.0
Cd617 Cd 0.07214 0.95094 0.90204 0.0
Cd618 Cd 0.03497 0.97276 0.89361 0.0
O619 O 0.04257 0.96198 0.86596 0.0
O620 O 0.10487 0.95586 0.904 0.0
O621 O 0.07997 0.98 0.89921 0.0
C622 C 0.10038 0.97478 0.90035 0.0
C623 C 0.02496 0.00684 0.89837 0.0
C624 C 0.05389 0.94613 0.86221 0.0
C625 C 0.03418 0.94277 0.92764 0.0
O626 O 0.02354 0.95296 0.91488 0.0
O627 O 0.05507 0.94138 0.92661 0.0
O628 O 0.01156 0.99407 0.89033 0.0
O629 O 0.04428 0.00042 0.90307 0.0
O630 O 0.76781 0.20383 0.10636 0.0
Cd631 Cd 0.78683 0.22612 0.11926 0.0
Cd632 Cd 0.77233 0.20573 0.15028 0.0
O633 O 0.76398 0.18265 0.13122 0.0
O634 O 0.80595 0.23624 0.09745 0.0
O635 O 0.81876 0.2196 0.12317 0.0
C636 C 0.82231 0.22764 0.10624 0.0
C637 C 0.79874 0.20467 0.17485 0.0
C638 C 0.76132 0.1868 0.11317 0.0
C639 C 0.7538 0.24737 0.14307 0.0
O640 O 0.75085 0.22998 0.15089 0.0
O641 O 0.76989 0.25035 0.13148 0.0
O642 O 0.77932 0.19718 0.17781 0.0
O643 O 0.80328 0.21158 0.15763 0.0
O644 O 0.41896 0.92766 0.12448 0.0
Cd645 Cd 0.41567 0.94226 0.09787 0.0
Cd646 Cd 0.45592 0.95707 0.10698 0.0
O647 O 0.44644 0.94714 0.13431 0.0
O648 O 0.38488 0.95297 0.09508 0.0
O649 O 0.41419 0.97232 0.10041 0.0
C650 C 0.39309 0.97078 0.09878 0.0
C651 C 0.47552 0.9876 0.10437 0.0
C652 C 0.43176 0.93386 0.13797 0.0
C653 C 0.45117 0.92787 0.07244 0.0
O654 O 0.46333 0.9363 0.08527 0.0
O655 O 0.43034 0.92966 0.07338 0.0
O656 O 0.48453 0.97128 0.11117 0.0
O657 O 0.45498 0.98683 0.09964 0.0
O658 O 0.57569 0.57263 0.12541 0.0
Cd659 Cd 0.58228 0.56055 0.09822 0.0
Cd660 Cd 0.54563 0.53827 0.10607 0.0
O661 O 0.5536 0.54755 0.13408 0.0
O662 O 0.61496 0.55633 0.09621 0.0
O663 O 0.59049 0.53136 0.09876 0.0
C664 C 0.61078 0.5371 0.09828 0.0
C665 C 0.53476 0.50453 0.10093 0.0
C666 C 0.56499 0.56312 0.13855 0.0
C667 C 0.54435 0.56979 0.07321 0.0
O668 O 0.53393 0.55889 0.08558 0.0
O669 O 0.5652 0.57142 0.07424 0.0
O670 O 0.52186 0.51745 0.10936 0.0
O671 O 0.55408 0.51063 0.09583 0.0
H672 H 0.20201 0.30368 0.21404 0.0
H673 H 0.15367 0.29233 0.16893 0.0
H674 H 0.17788 0.28809 0.23816 0.0
H675 H 0.12909 0.27735 0.19321 0.0
H676 H 0.1146 0.22129 0.23307 0.0
H677 H 0.1296 0.24556 0.20976 0.0
H678 H 0.14515 0.28685 0.25717 0.0
H679 H 0.13076 0.26213 0.2806 0.0
C680 C 0.18592 0.29845 0.20939 0.0
C681 C 0.17991 0.29896 0.18953 0.0
C682 C 0.17198 0.28955 0.22326 0.0
C683 C 0.15161 0.28112 0.21762 0.0
C684 C 0.14486 0.28322 0.19801 0.0
C685 C 0.1589 0.29195 0.1841 0.0
C686 C 0.12075 0.23573 0.23851 0.0
C687 C 0.12176 0.23964 0.25871 0.0
C688 C 0.12929 0.24977 0.2251 0.0
C689 C 0.1389 0.26813 0.23156 0.0
C690 C 0.13833 0.27269 0.25169 0.0
C691 C 0.12992 0.25857 0.26512 0.0
H692 H 0.56036 0.59044 0.04109 0.0
H693 H 0.49982 0.57192 0.06923 0.0
H694 H 0.53906 0.60503 0.01401 0.0
H695 H 0.47882 0.58601 0.04228 0.0
H696 H 0.44324 0.62337 0.99902 0.0
H697 H 0.468 0.61734 0.02649 0.0
H698 H 0.51638 0.59213 0.98693 0.0
H699 H 0.49181 0.59867 0.95936 0.0
C700 C 0.54255 0.58962 0.04159 0.0
C701 C 0.53182 0.57994 0.05731 0.0
C702 C 0.53037 0.59789 0.02604 0.0
C703 C 0.50723 0.59676 0.026 0.0
C704 C 0.49658 0.58751 0.04197 0.0
C705 C 0.50869 0.57923 0.05738 0.0
C706 C 0.45933 0.61692 0.99612 0.0
C707 C 0.46544 0.61125 0.97705 0.0
C708 C 0.47348 0.61335 0.01189 0.0
C709 C 0.49402 0.6039 0.00896 0.0
C710 C 0.50074 0.5995 0.98971 0.0
C711 C 0.4866 0.60318 0.9739 0.0
H712 H 0.85771 0.23844 0.28645 0.0
H713 H 0.87711 0.28164 0.24188 0.0
H714 H 0.84518 0.21491 0.26111 0.0
H715 H 0.86402 0.25855 0.21668 0.0
H716 H 0.79062 0.20203 0.21411 0.0
H717 H 0.81358 0.21528 0.24036 0.0
H718 H 0.86556 0.22756 0.19874 0.0
H719 H 0.84219 0.21496 0.17237 0.0
C720 C 0.8597 0.24276 0.27123 0.0
C721 C 0.86812 0.26203 0.26617 0.0
C722 C 0.85237 0.22932 0.25671 0.0
C723 C 0.85323 0.23492 0.23683 0.0
C724 C 0.86324 0.25357 0.23178 0.0
C725 C 0.87067 0.26693 0.24628 0.0
C726 C 0.80715 0.20707 0.21063 0.0
C727 C 0.81444 0.2078 0.19113 0.0
C728 C 0.82042 0.21461 0.22573 0.0
C729 C 0.84134 0.22286 0.22165 0.0
C730 C 0.84935 0.22181 0.20235 0.0
C731 C 0.836 0.21446 0.18724 0.0
H732 H 0.49895 0.89797 0.95769 0.0
H733 H 0.54395 0.86603 0.99593 0.0
H734 H 0.47512 0.90534 0.98551 0.0
H735 H 0.51974 0.87273 0.02363 0.0
H736 H 0.49471 0.91929 0.0685 0.0
H737 H 0.5133 0.90365 0.04108 0.0
H738 H 0.45086 0.89474 0.01193 0.0
H739 H 0.43203 0.91107 0.03953 0.0
C740 C 0.50345 0.89202 0.97195 0.0
C741 C 0.52354 0.88174 0.97469 0.0
C742 C 0.48971 0.89617 0.9879 0.0
C743 C 0.49571 0.88997 0.00689 0.0
C744 C 0.5149 0.87819 0.00928 0.0
C745 C 0.52873 0.87424 0.99339 0.0
C746 C 0.4848 0.91387 0.05637 0.0
C747 C 0.46184 0.9166 0.05619 0.0
C748 C 0.49551 0.90466 0.04066 0.0
C749 C 0.48361 0.8978 0.02429 0.0
C750 C 0.46054 0.89998 0.02426 0.0
C751 C 0.44974 0.90926 0.0401 0.0
H752 H 0.20624 0.69118 0.2793 0.0
H753 H 0.15558 0.70048 0.32278 0.0
H754 H 0.18282 0.70682 0.25461 0.0
H755 H 0.13178 0.71553 0.29793 0.0
H756 H 0.11789 0.77229 0.25878 0.0
H757 H 0.13246 0.74779 0.2821 0.0
H758 H 0.15078 0.7078 0.23448 0.0
H759 H 0.13678 0.73273 0.21106 0.0
C760 C 0.18982 0.69596 0.28345 0.0
C761 C 0.18291 0.69487 0.30305 0.0
C762 C 0.17629 0.7049 0.26925 0.0
C763 C 0.15548 0.71279 0.27431 0.0
C764 C 0.1479 0.71008 0.2936 0.0
C765 C 0.16149 0.70131 0.30783 0.0
C766 C 0.12456 0.75807 0.25328 0.0
C767 C 0.12644 0.7546 0.23306 0.0
C768 C 0.13286 0.74391 0.26669 0.0
C769 C 0.1431 0.72585 0.26021 0.0
C770 C 0.14344 0.72171 0.23999 0.0
C771 C 0.13525 0.73595 0.22656 0.0
H772 H 0.01337 0.59298 0.03928 0.0
H773 H 0.05979 0.61825 0.99794 0.0
H774 H 0.98816 0.58514 0.01246 0.0
H775 H 0.03437 0.61102 0.97125 0.0
H776 H 0.00222 0.56596 0.92915 0.0
H777 H 0.02374 0.57983 0.95578 0.0
H778 H 0.96406 0.59688 0.98607 0.0
H779 H 0.94219 0.5824 0.95928 0.0
C780 C 0.01798 0.59728 0.02452 0.0
C781 C 0.03872 0.60597 0.02069 0.0
C782 C 0.00348 0.59287 0.00914 0.0
C783 C 0.00937 0.59715 0.98965 0.0
C784 C 0.02952 0.60707 0.98604 0.0
C785 C 0.04406 0.61132 0.00136 0.0
C786 C 0.99355 0.57275 0.94138 0.0
C787 C 0.97041 0.57299 0.94204 0.0
C788 C 0.00597 0.58091 0.95664 0.0
C789 C 0.99568 0.58965 0.97304 0.0
C790 C 0.97251 0.59016 0.97369 0.0
C791 C 0.95998 0.58195 0.95831 0.0
H792 H 0.88883 0.72006 0.26375 0.0
H793 H 0.87091 0.76273 0.21821 0.0
H794 H 0.87519 0.74357 0.28836 0.0
H795 H 0.85783 0.78667 0.24296 0.0
H796 H 0.80177 0.80001 0.28832 0.0
H797 H 0.82557 0.78645 0.26288 0.0
H798 H 0.87623 0.77487 0.30597 0.0
H799 H 0.85201 0.78784 0.33156 0.0
C800 C 0.8826 0.73475 0.25902 0.0
C801 C 0.88061 0.73937 0.23902 0.0
C802 C 0.87486 0.74835 0.27318 0.0
C803 C 0.86509 0.76696 0.26766 0.0
C804 C 0.86483 0.77229 0.2477 0.0
C805 C 0.87246 0.75862 0.23352 0.0
C806 C 0.81818 0.79505 0.2923 0.0
C807 C 0.82484 0.79464 0.312 0.0
C808 C 0.83194 0.78734 0.27766 0.0
C809 C 0.85274 0.77921 0.28239 0.0
C810 C 0.86013 0.78056 0.30187 0.0
C811 C 0.84629 0.78811 0.31654 0.0
H812 H 0.05046 0.92046 0.95864 0.0
H813 H 0.98978 0.94265 0.93327 0.0
H814 H 0.02953 0.9051 0.98551 0.0
H815 H 0.96917 0.92781 0.96007 0.0
H816 H 0.93396 0.88734 0.00157 0.0
H817 H 0.95762 0.89585 0.97394 0.0
H818 H 0.00826 0.91607 0.01394 0.0
H819 H 0.98481 0.90703 0.04159 0.0
C820 C 0.03271 0.92202 0.95875 0.0
C821 C 0.02184 0.93282 0.94379 0.0
C822 C 0.02073 0.91328 0.97417 0.0
C823 C 0.99764 0.91511 0.97491 0.0
C824 C 0.98686 0.92572 0.95981 0.0
C825 C 0.99876 0.93442 0.94448 0.0
C826 C 0.95028 0.89327 0.00448 0.0
C827 C 0.9574 0.89671 0.02377 0.0
C828 C 0.9638 0.89828 0.98864 0.0
C829 C 0.98471 0.90697 0.9917 0.0
C830 C 0.99231 0.90932 0.01103 0.0
C831 C 0.97881 0.90421 0.02689 0.0
H832 H 0.28937 0.14574 0.26343 0.0
H833 H 0.25318 0.0947 0.2395 0.0
H834 H 0.25677 0.15684 0.28092 0.0
H835 H 0.22036 0.1058 0.2574 0.0
H836 H 0.16297 0.15233 0.26769 0.0
H837 H 0.19507 0.13508 0.25437 0.0
H838 H 0.23124 0.14827 0.30737 0.0
H839 H 0.19916 0.16591 0.32066 0.0
C840 C 0.27449 0.13673 0.26206 0.0
C841 C 0.27382 0.11943 0.24991 0.0
C842 C 0.25584 0.14302 0.27227 0.0
C843 C 0.23599 0.1322 0.27056 0.0
C844 C 0.23541 0.11453 0.25887 0.0
C845 C 0.2542 0.10814 0.24869 0.0
C846 C 0.17768 0.1514 0.27662 0.0
C847 C 0.17858 0.16075 0.29516 0.0
C848 C 0.19603 0.14133 0.26903 0.0
C849 C 0.21572 0.1404 0.27977 0.0
C850 C 0.21635 0.14897 0.29865 0.0
C851 C 0.19796 0.15903 0.30628 0.0
H852 H 0.39092 0.5547 0.9637 0.0
H853 H 0.40461 0.5277 0.90725 0.0
H854 H 0.38288 0.52141 0.97699 0.0
H855 H 0.39568 0.49401 0.92053 0.0
H856 H 0.35894 0.46305 0.99784 0.0
H857 H 0.3585 0.4938 0.97787 0.0
H858 H 0.41139 0.46943 0.94252 0.0
H859 H 0.41084 0.43811 0.96198 0.0
C860 C 0.3918 0.54168 0.95397 0.0
C861 C 0.39854 0.54393 0.93441 0.0
C862 C 0.38696 0.52248 0.96159 0.0
C863 C 0.3885 0.5049 0.94984 0.0
C864 C 0.39453 0.50717 0.93005 0.0
C865 C 0.39951 0.5265 0.92241 0.0
C866 C 0.37007 0.46409 0.98547 0.0
C867 C 0.38509 0.44836 0.98155 0.0
C868 C 0.36997 0.48178 0.97411 0.0
C869 C 0.38534 0.4844 0.9589 0.0
C870 C 0.39928 0.46797 0.95407 0.0
C871 C 0.39903 0.45002 0.96523 0.0
H872 H 0.78559 0.33493 0.32705 0.0
H873 H 0.82423 0.3467 0.27507 0.0
H874 H 0.75477 0.35368 0.31265 0.0
H875 H 0.79348 0.36502 0.2607 0.0
H876 H 0.69838 0.36074 0.267 0.0
H877 H 0.7293 0.34732 0.28549 0.0
H878 H 0.77064 0.39574 0.26334 0.0
H879 H 0.73962 0.4091 0.24444 0.0
C880 C 0.78757 0.34159 0.31264 0.0
C881 C 0.80732 0.33917 0.30216 0.0
C882 C 0.76991 0.35227 0.30437 0.0
C883 C 0.7717 0.36082 0.28553 0.0
C884 C 0.79166 0.35888 0.27534 0.0
C885 C 0.80924 0.34818 0.28354 0.0
C886 C 0.714 0.36868 0.26616 0.0
C887 C 0.71659 0.38589 0.25406 0.0
C888 C 0.73169 0.36105 0.27693 0.0
C889 C 0.75243 0.37042 0.27584 0.0
C890 C 0.75489 0.38806 0.26429 0.0
C891 C 0.73712 0.39576 0.25353 0.0
H892 H 0.58701 0.96466 0.90739 0.0
H893 H 0.60318 0.93478 0.96198 0.0
H894 H 0.59912 0.99728 0.92116 0.0
H895 H 0.61454 0.96707 0.97575 0.0
H896 H 0.6465 0.02344 0.99496 0.0
H897 H 0.64163 0.99307 0.97495 0.0
H898 H 0.58673 0.02168 0.94546 0.0
H899 H 0.59225 0.05246 0.96503 0.0
C900 C 0.59329 0.965 0.92223 0.0
C901 C 0.59406 0.94709 0.93357 0.0
C902 C 0.60011 0.9837 0.93016 0.0
C903 C 0.60788 0.98484 0.94956 0.0
C904 C 0.6091 0.96679 0.96064 0.0
C905 C 0.60236 0.94821 0.95276 0.0
C906 C 0.63366 0.02339 0.98394 0.0
C907 C 0.61957 0.04021 0.98173 0.0
C908 C 0.63077 0.00593 0.97254 0.0
C909 C 0.61347 0.00472 0.95888 0.0
C910 C 0.60027 0.02208 0.95577 0.0
C911 C 0.60337 0.03971 0.96704 0.0
H912 H 0.20486 0.83193 0.17495 0.0
H913 H 0.16622 0.84234 0.22719 0.0
H914 H 0.23569 0.85019 0.18981 0.0
H915 H 0.19704 0.86017 0.24204 0.0
H916 H 0.25261 0.90196 0.26027 0.0
H917 H 0.22103 0.89035 0.24093 0.0
H918 H 0.26071 0.84188 0.21661 0.0
H919 H 0.29207 0.85352 0.2355 0.0
C920 C 0.20286 0.83823 0.18951 0.0
C921 C 0.18315 0.83546 0.19995 0.0
C922 C 0.22053 0.84864 0.19804 0.0
C923 C 0.21884 0.85653 0.21715 0.0
C924 C 0.19882 0.85449 0.22723 0.0
C925 C 0.1812 0.84407 0.21875 0.0
C926 C 0.2546 0.88899 0.2506 0.0
C927 C 0.27478 0.87856 0.24957 0.0
C928 C 0.23653 0.8823 0.23959 0.0
C929 C 0.23837 0.86518 0.22725 0.0
C930 C 0.25878 0.85527 0.22574 0.0
C931 C 0.27673 0.86185 0.23676 0.0
H932 H 0.10803 0.43554 0.0431 0.0
H933 H 0.13583 0.47308 0.99735 0.0
H934 H 0.10581 0.46544 0.0645 0.0
H935 H 0.13275 0.50275 0.01805 0.0
H936 H 0.13403 0.55438 0.05763 0.0
H937 H 0.1447 0.52109 0.045 0.0
H938 H 0.08419 0.49533 0.06748 0.0
H939 H 0.07435 0.52846 0.08119 0.0
C940 C 0.11387 0.4501 0.03769 0.0
C941 C 0.122 0.45195 0.0185 0.0
C942 C 0.11246 0.46727 0.04989 0.0
C943 C 0.11904 0.48663 0.04307 0.0
C944 C 0.12792 0.48815 0.02409 0.0
C945 C 0.1295 0.47106 0.01206 0.0
C946 C 0.12331 0.54145 0.06026 0.0
C947 C 0.10327 0.54399 0.07016 0.0
C948 C 0.1293 0.52238 0.05289 0.0
C949 C 0.11505 0.50554 0.0547 0.0
C950 C 0.09568 0.50784 0.06584 0.0
C951 C 0.08995 0.52687 0.07365 0.0
H952 H 0.83735 0.65231 0.22714 0.0
H953 H 0.80001 0.6672 0.17513 0.0
H954 H 0.80613 0.63361 0.24007 0.0
H955 H 0.76867 0.64801 0.18807 0.0
H956 H 0.71146 0.64104 0.23304 0.0
H957 H 0.74291 0.65387 0.21494 0.0
H958 H 0.78241 0.60379 0.23638 0.0
H959 H 0.75082 0.59104 0.25494 0.0
C960 C 0.82255 0.65139 0.21832 0.0
C961 C 0.8211 0.66148 0.20017 0.0
C962 C 0.8047 0.64046 0.22569 0.0
C963 C 0.7849 0.63933 0.21513 0.0
C964 C 0.78366 0.64878 0.19664 0.0
C965 C 0.80161 0.65972 0.18921 0.0
C966 C 0.72677 0.6326 0.23379 0.0
C967 C 0.7287 0.61514 0.24565 0.0
C968 C 0.74477 0.63988 0.22323 0.0
C969 C 0.76518 0.6299 0.22426 0.0
C970 C 0.76693 0.61194 0.23548 0.0
C971 C 0.74884 0.6046 0.24604 0.0
H972 H 0.89601 0.06748 0.05024 0.0
H973 H 0.87399 0.03017 0.0019 0.0
H974 H 0.89694 0.03717 0.0713 0.0
H975 H 0.87545 0.00021 0.02248 0.0
H976 H 0.86863 0.94887 0.06224 0.0
H977 H 0.85971 0.98242 0.04918 0.0
H978 H 0.91944 0.00671 0.07451 0.0
H979 H 0.92783 0.9732 0.08832 0.0
C980 C 0.8911 0.0529 0.04419 0.0
C981 C 0.88501 0.05122 0.02438 0.0
C982 C 0.89177 0.03552 0.05621 0.0
C983 C 0.88625 0.0162 0.04864 0.0
C984 C 0.87942 0.01481 0.029 0.0
C985 C 0.87877 0.03205 0.01708 0.0
C986 C 0.87959 0.96149 0.0654 0.0
C987 C 0.89908 0.95836 0.07606 0.0
C988 C 0.87457 0.98071 0.05782 0.0
C989 C 0.88913 0.99719 0.06035 0.0
C990 C 0.9078 0.99441 0.07229 0.0
C991 C 0.91266 0.97518 0.08018 0.0
H992 H 0.28603 0.26765 0.15126 0.0
H993 H 0.23548 0.22303 0.13945 0.0
H994 H 0.31203 0.24053 0.15858 0.0
H995 H 0.26111 0.19571 0.14796 0.0
H996 H 0.33684 0.19149 0.20119 0.0
H997 H 0.31739 0.21874 0.18489 0.0
H998 H 0.29311 0.17608 0.14165 0.0
H999 H 0.31198 0.14838 0.15873 0.0
C1000 C 0.28048 0.25197 0.15034 0.0
C1001 C 0.25866 0.2474 0.14514 0.0
C1002 C 0.29537 0.2364 0.15456 0.0
C1003 C 0.28865 0.21588 0.1542 0.0
C1004 C 0.267 0.2113 0.14819 0.0
C1005 C 0.2522 0.22693 0.14351 0.0
C1006 C 0.32778 0.18793 0.18796 0.0
C1007 C 0.32568 0.16771 0.18144 0.0
C1008 C 0.31664 0.20366 0.17848 0.0
C1009 C 0.30334 0.19964 0.16204 0.0
C1010 C 0.30277 0.17965 0.15453 0.0
C1011 C 0.3138 0.16381 0.16418 0.0
H1012 H 0.33663 0.80672 0.2984 0.0
H1013 H 0.30879 0.84818 0.34089 0.0
H1014 H 0.31702 0.77866 0.31327 0.0
H1015 H 0.28972 0.81969 0.35653 0.0
H1016 H 0.28593 0.72821 0.34517 0.0
H1017 H 0.31127 0.75615 0.33898 0.0
H1018 H 0.25859 0.79937 0.34877 0.0
H1019 H 0.23355 0.77123 0.35611 0.0
C1020 C 0.32684 0.80975 0.31134 0.0
C1021 C 0.32404 0.82974 0.3183 0.0
C1022 C 0.31561 0.79356 0.32 0.0
C1023 C 0.30148 0.79687 0.33601 0.0
C1024 C 0.30006 0.81665 0.34395 0.0
C1025 C 0.3112 0.83295 0.33514 0.0
C1026 C 0.27983 0.74371 0.34616 0.0
C1027 C 0.2577 0.74758 0.3508 0.0
C1028 C 0.29435 0.75975 0.34257 0.0
C1029 C 0.28697 0.78008 0.34304 0.0
C1030 C 0.26497 0.78396 0.34847 0.0
C1031 C 0.25053 0.76785 0.35249 0.0
H1032 H 0.96081 0.47177 0.91665 0.0
H1033 H 0.01081 0.4893 0.8749 0.0
H1034 H 0.98449 0.44433 0.92846 0.0
H1035 H 0.03416 0.46152 0.88629 0.0
H1036 H 0.07942 0.44352 0.93757 0.0
H1037 H 0.05302 0.46194 0.9179 0.0
H1038 H 0.00657 0.41239 0.92384 0.0
H1039 H 0.03331 0.3937 0.944 0.0
C1040 C 0.97653 0.46931 0.90953 0.0
C1041 C 0.98425 0.48296 0.89522 0.0
C1042 C 0.99004 0.45353 0.91625 0.0
C1043 C 0.01136 0.45111 0.9086 0.0
C1044 C 0.018 0.46337 0.89277 0.0
C1045 C 0.00462 0.47924 0.88622 0.0
C1046 C 0.06367 0.43639 0.93465 0.0
C1047 C 0.0584 0.4172 0.94249 0.0
C1048 C 0.0486 0.44688 0.92311 0.0
C1049 C 0.0278 0.43851 0.91912 0.0
C1050 C 0.02252 0.41916 0.92668 0.0
C1051 C 0.03779 0.4085 0.93819 0.0
H1052 H 0.72054 0.75909 0.35073 0.0
H1053 H 0.77132 0.71461 0.36223 0.0
H1054 H 0.6951 0.73203 0.34195 0.0
H1055 H 0.74624 0.68733 0.35224 0.0
H1056 H 0.69502 0.64015 0.33966 0.0
H1057 H 0.71425 0.66724 0.35728 0.0
H1058 H 0.69053 0.71112 0.3149 0.0
H1059 H 0.67072 0.68442 0.29804 0.0
C1060 C 0.72626 0.74344 0.35129 0.0
C1061 C 0.74798 0.73891 0.35683 0.0
C1062 C 0.7117 0.72791 0.34619 0.0
C1063 C 0.71865 0.70746 0.34599 0.0
C1064 C 0.74018 0.70286 0.35237 0.0
C1065 C 0.75465 0.71846 0.35794 0.0
C1066 C 0.69346 0.6557 0.33447 0.0
C1067 C 0.68147 0.66012 0.31737 0.0
C1068 C 0.70469 0.67119 0.34443 0.0
C1069 C 0.70425 0.69138 0.33741 0.0
C1070 C 0.69112 0.69587 0.32098 0.0
C1071 C 0.67976 0.68048 0.31118 0.0
H1072 H 0.46147 0.57045 0.47778 0.0
H1073 H 0.45458 0.61096 0.42832 0.0
H1074 H 0.49104 0.55234 0.46099 0.0
H1075 H 0.48388 0.59226 0.41109 0.0
H1076 H 0.49801 0.52266 0.38658 0.0
H1077 H 0.47974 0.55249 0.40052 0.0
H1078 H 0.53073 0.55721 0.44432 0.0
H1079 H 0.54936 0.52758 0.43013 0.0
C1080 C 0.46668 0.57571 0.46346 0.0
C1081 C 0.45582 0.59196 0.45424 0.0
C1082 C 0.48367 0.56547 0.45393 0.0
C1083 C 0.4897 0.57099 0.43481 0.0
C1084 C 0.47954 0.58787 0.42589 0.0
C1085 C 0.46288 0.59852 0.43571 0.0
C1086 C 0.50567 0.53044 0.3988 0.0
C1087 C 0.5249 0.52268 0.40747 0.0
C1088 C 0.49533 0.5476 0.40666 0.0
C1089 C 0.50385 0.55701 0.42349 0.0
C1090 C 0.52393 0.55017 0.43129 0.0
C1091 C 0.53453 0.53324 0.42319 0.0
H1092 H 0.26584 0.7911 0.64357 0.0
H1093 H 0.21808 0.74346 0.65379 0.0
H1094 H 0.23916 0.81651 0.65467 0.0
H1095 H 0.19116 0.76869 0.6638 0.0
H1096 H 0.16234 0.81472 0.70724 0.0
H1097 H 0.18461 0.78928 0.69095 0.0
H1098 H 0.20574 0.83433 0.64864 0.0
H1099 H 0.18404 0.86017 0.66565 0.0
C1100 C 0.24958 0.78612 0.64798 0.0
C1101 C 0.24418 0.76531 0.64817 0.0
C1102 C 0.23418 0.80066 0.65414 0.0
C1103 C 0.21298 0.79466 0.66027 0.0
C1104 C 0.20744 0.77387 0.65967 0.0
C1105 C 0.2229 0.75937 0.65389 0.0
C1106 C 0.17133 0.81915 0.69421 0.0
C1107 C 0.17159 0.83951 0.68786 0.0
C1108 C 0.18413 0.80449 0.68478 0.0
C1109 C 0.19727 0.80977 0.66858 0.0
C1110 C 0.19625 0.82985 0.66136 0.0
C1111 C 0.18359 0.8446 0.67095 0.0
H1112 H 0.03194 0.5848 0.53354 0.0
H1113 H 0.08107 0.57703 0.57851 0.0
H1114 H 0.00605 0.56435 0.55259 0.0
H1115 H 0.05491 0.5579 0.59834 0.0
H1116 H 0.02098 0.49639 0.60756 0.0
H1117 H 0.04269 0.52462 0.59566 0.0
H1118 H 0.98318 0.55681 0.57952 0.0
H1119 H 0.96134 0.52775 0.59072 0.0
C1120 C 0.03684 0.57934 0.54787 0.0
C1121 C 0.05846 0.58213 0.55452 0.0
C1122 C 0.02201 0.56769 0.55887 0.0
C1123 C 0.02852 0.55902 0.57688 0.0
C1124 C 0.04955 0.5637 0.58427 0.0
C1125 C 0.06449 0.57481 0.57304 0.0
C1126 C 0.01246 0.5096 0.60178 0.0
C1127 C 0.98946 0.50973 0.59988 0.0
C1128 C 0.02495 0.52598 0.59506 0.0
C1129 C 0.01476 0.54311 0.58652 0.0
C1130 C 0.99162 0.54375 0.58569 0.0
C1131 C 0.97909 0.52716 0.59223 0.0
H1132 H 0.90609 0.95747 0.55724 0.0
H1133 H 0.95299 0.9079 0.55484 0.0
H1134 H 0.93228 0.97796 0.57524 0.0
H1135 H 0.97934 0.92854 0.57343 0.0
H1136 H 0.02654 0.9856 0.57925 0.0
H1137 H 0.00167 0.95913 0.56737 0.0
H1138 H 0.95086 0.98129 0.60622 0.0
H1139 H 0.97546 0.00811 0.61762 0.0
C1140 C 0.92193 0.95082 0.56075 0.0
C1141 C 0.92747 0.93106 0.55447 0.0
C1142 C 0.93691 0.96254 0.57129 0.0
C1143 C 0.95786 0.95484 0.5759 0.0
C1144 C 0.96334 0.93492 0.57 0.0
C1145 C 0.94825 0.92309 0.55942 0.0
C1146 C 0.01019 0.98458 0.5855 0.0
C1147 C 0.00278 0.99915 0.59908 0.0
C1148 C 0.99598 0.96933 0.57877 0.0
C1149 C 0.97417 0.96833 0.58561 0.0
C1150 C 0.9674 0.98196 0.60033 0.0
C1151 C 0.98152 0.99728 0.60692 0.0
H1152 H 0.64177 0.78216 0.66535 0.0
H1153 H 0.69247 0.7968 0.70744 0.0
H1154 H 0.6189 0.76838 0.69152 0.0
H1155 H 0.67005 0.78239 0.73347 0.0
H1156 H 0.62628 0.75778 0.7793 0.0
H1157 H 0.63847 0.78158 0.75407 0.0
H1158 H 0.62128 0.73753 0.70949 0.0
H1159 H 0.60848 0.71416 0.7346 0.0
C1160 C 0.64787 0.78277 0.68026 0.0
C1161 C 0.66906 0.79031 0.6843 0.0
C1162 C 0.63482 0.77473 0.69525 0.0
C1163 C 0.64275 0.77386 0.71459 0.0
C1164 C 0.66326 0.78289 0.71882 0.0
C1165 C 0.67622 0.79111 0.70384 0.0
C1166 C 0.6246 0.75341 0.76407 0.0
C1167 C 0.61666 0.73397 0.75896 0.0
C1168 C 0.63174 0.767 0.7496 0.0
C1169 C 0.63122 0.76141 0.72972 0.0
C1170 C 0.62178 0.74252 0.7246 0.0
C1171 C 0.61451 0.72901 0.73904 0.0
H1172 H 0.99314 0.11224 0.45749 0.0
H1173 H 0.93888 0.11242 0.49835 0.0
H1174 H 0.01885 0.107 0.48457 0.0
H1175 H 0.96409 0.10616 0.52509 0.0
H1176 H 0.01135 0.10379 0.57338 0.0
H1177 H 0.99124 0.11793 0.54571 0.0
H1178 H 0.03048 0.08138 0.50615 0.0
H1179 H 0.05153 0.06838 0.53393 0.0
C1180 C 0.98673 0.1113 0.47227 0.0
C1181 C 0.96398 0.11274 0.47577 0.0
C1182 C 0.00144 0.10813 0.4878 0.0
C1183 C 0.99368 0.10606 0.50715 0.0
C1184 C 0.97092 0.10809 0.51056 0.0
C1185 C 0.95632 0.11155 0.49513 0.0
C1186 C 0.01594 0.09915 0.5587 0.0
C1187 C 0.03284 0.08489 0.55577 0.0
C1188 C 0.00427 0.10708 0.54281 0.0
C1189 C 0.00876 0.10047 0.5236 0.0
C1190 C 0.02657 0.08701 0.52064 0.0
C1191 C 0.03863 0.07946 0.53657 0.0
H1192 H 0.35828 0.73455 0.78334 0.0
H1193 H 0.38058 0.77719 0.73935 0.0
H1194 H 0.34658 0.71105 0.75765 0.0
H1195 H 0.36838 0.75413 0.71379 0.0
H1196 H 0.3482 0.71132 0.66874 0.0
H1197 H 0.37056 0.72295 0.69619 0.0
H1198 H 0.31609 0.71169 0.73548 0.0
H1199 H 0.29411 0.69938 0.70814 0.0
C1200 C 0.36108 0.73875 0.76819 0.0
C1201 C 0.37009 0.75786 0.76337 0.0
C1202 C 0.35424 0.72532 0.75347 0.0
C1203 C 0.35623 0.73075 0.73361 0.0
C1204 C 0.36675 0.74925 0.72887 0.0
C1205 C 0.37366 0.76261 0.74357 0.0
C1206 C 0.34125 0.71075 0.68335 0.0
C1207 C 0.31928 0.70476 0.68626 0.0
C1208 C 0.35402 0.71756 0.69907 0.0
C1209 C 0.34499 0.71876 0.718 0.0
C1210 C 0.32368 0.71093 0.72115 0.0
C1211 C 0.31099 0.7039 0.70544 0.0
H1212 H 0.0031 0.39747 0.45875 0.0
H1213 H 0.05029 0.36942 0.49771 0.0
H1214 H 0.97941 0.40522 0.48654 0.0
H1215 H 0.02623 0.3765 0.52544 0.0
H1216 H -0.00085 0.42367 0.56876 0.0
H1217 H 0.0183 0.4078 0.54174 0.0
H1218 H 0.95611 0.39484 0.51358 0.0
H1219 H 0.93671 0.41138 0.54072 0.0
C1220 C 0.00814 0.39245 0.47319 0.0
C1221 C 0.02875 0.38315 0.47609 0.0
C1222 C 0.99448 0.39681 0.48914 0.0
C1223 C 0.00108 0.39183 0.50829 0.0
C1224 C 0.02089 0.38102 0.51094 0.0
C1225 C 0.03464 0.37684 0.49503 0.0
C1226 C 0.98943 0.41732 0.55693 0.0
C1227 C 0.96635 0.41895 0.55688 0.0
C1228 C 0.00047 0.40798 0.54146 0.0
C1229 C 0.98878 0.3999 0.52548 0.0
C1230 C 0.96563 0.40104 0.5256 0.0
C1231 C 0.95451 0.41045 0.54117 0.0
H1232 H 0.6322 0.23473 0.71909 0.0
H1233 H 0.61475 0.27522 0.76653 0.0
H1234 H 0.64701 0.2103 0.74261 0.0
H1235 H 0.63005 0.25117 0.78993 0.0
H1236 H 0.65424 0.20463 0.83084 0.0
H1237 H 0.6297 0.21902 0.80621 0.0
H1238 H 0.67978 0.21002 0.76208 0.0
H1239 H 0.70398 0.19506 0.78659 0.0
C1240 C 0.63114 0.23826 0.73457 0.0
C1241 C 0.62252 0.25704 0.74093 0.0
C1242 C 0.63978 0.2243 0.74804 0.0
C1243 C 0.64005 0.22884 0.76817 0.0
C1244 C 0.62998 0.24701 0.77459 0.0
C1245 C 0.62126 0.2609 0.76113 0.0
C1246 C 0.65979 0.20525 0.81577 0.0
C1247 C 0.68117 0.19896 0.8107 0.0
C1248 C 0.64576 0.21363 0.80167 0.0
C1249 C 0.65287 0.21608 0.7822 0.0
C1250 C 0.67364 0.20829 0.77687 0.0
C1251 C 0.6876 0.19975 0.79096 0.0
H1252 H 0.44135 0.06647 0.47022 0.0
H1253 H 0.47828 0.10508 0.43103 0.0
H1254 H 0.46287 0.07919 0.49786 0.0
H1255 H 0.49885 0.11886 0.45862 0.0
H1256 H 0.55404 0.11099 0.50338 0.0
H1257 H 0.52746 0.10613 0.4774 0.0
H1258 H 0.47487 0.10433 0.52008 0.0
H1259 H 0.50191 0.10827 0.54631 0.0
C1260 C 0.45353 0.07825 0.46767 0.0
C1261 C 0.45838 0.08465 0.44854 0.0
C1262 C 0.46588 0.08561 0.4835 0.0
C1263 C 0.48303 0.09978 0.48049 0.0
C1264 C 0.48635 0.10747 0.46147 0.0
C1265 C 0.47441 0.09976 0.44566 0.0
C1266 C 0.53679 0.10986 0.50724 0.0
C1267 C 0.53013 0.10989 0.52692 0.0
C1268 C 0.52141 0.10721 0.49227 0.0
C1269 C 0.49886 0.10482 0.49652 0.0
C1270 C 0.49209 0.10579 0.51622 0.0
C1271 C 0.50757 0.1082 0.53127 0.0
H1272 H 0.37738 0.26492 0.72028 0.0
H1273 H 0.39334 0.22101 0.76528 0.0
H1274 H 0.36567 0.28912 0.74532 0.0
H1275 H 0.38098 0.24477 0.79019 0.0
H1276 H 0.35808 0.28824 0.83397 0.0
H1277 H 0.3826 0.27556 0.80845 0.0
H1278 H 0.33329 0.28963 0.76479 0.0
H1279 H 0.30926 0.3029 0.79013 0.0
C1280 C 0.37882 0.26058 0.73553 0.0
C1281 C 0.38592 0.24092 0.74079 0.0
C1282 C 0.37197 0.27441 0.74989 0.0
C1283 C 0.37194 0.2688 0.76978 0.0
C1284 C 0.38088 0.24976 0.77507 0.0
C1285 C 0.38787 0.23601 0.76074 0.0
C1286 C 0.35276 0.28916 0.81884 0.0
C1287 C 0.33157 0.29623 0.8141 0.0
C1288 C 0.36677 0.28176 0.80422 0.0
C1289 C 0.35979 0.28114 0.78458 0.0
C1290 C 0.33936 0.28994 0.7797 0.0
C1291 C 0.32545 0.29747 0.7943 0.0
H1292 H 0.56282 0.41711 0.46052 0.0
H1293 H 0.50065 0.4337 0.4341 0.0
H1294 H 0.54305 0.40156 0.48802 0.0
H1295 H 0.48115 0.41857 0.46144 0.0
H1296 H 0.44887 0.37868 0.50465 0.0
H1297 H 0.47261 0.38623 0.47685 0.0
H1298 H 0.52033 0.41344 0.51583 0.0
H1299 H 0.49676 0.40544 0.54376 0.0
C1300 C 0.54498 0.41732 0.46049 0.0
C1301 C 0.53333 0.42671 0.44513 0.0
C1302 C 0.53368 0.40849 0.47627 0.0
C1303 C 0.51052 0.40873 0.47688 0.0
C1304 C 0.49897 0.41776 0.4613 0.0
C1305 C 0.5102 0.42662 0.44566 0.0
C1306 C 0.46462 0.3859 0.50736 0.0
C1307 C 0.47079 0.39171 0.52638 0.0
C1308 C 0.47818 0.39034 0.4914 0.0
C1309 C 0.49818 0.40078 0.49408 0.0
C1310 C 0.50507 0.40532 0.51326 0.0
C1311 C 0.49151 0.4008 0.52927 0.0
H1312 H 0.69932 0.66466 0.82168 0.0
H1313 H 0.66271 0.65016 0.76917 0.0
H1314 H 0.73157 0.64749 0.80814 0.0
H1315 H 0.69496 0.63342 0.75559 0.0
H1316 H 0.7894 0.6446 0.76393 0.0
H1317 H 0.75693 0.65569 0.78162 0.0
H1318 H 0.72043 0.60452 0.75844 0.0
H1319 H 0.75308 0.59349 0.7403 0.0
C1320 C 0.69808 0.65771 0.80734 0.0
C1321 C 0.67849 0.65897 0.79645 0.0
C1322 C 0.71657 0.64792 0.79955 0.0
C1323 C 0.71584 0.63918 0.78075 0.0
C1324 C 0.696 0.63978 0.7702 0.0
C1325 C 0.67756 0.64956 0.77795 0.0
C1326 C 0.77453 0.63556 0.76269 0.0
C1327 C 0.77378 0.61825 0.75053 0.0
C1328 C 0.75594 0.64184 0.77301 0.0
C1329 C 0.73609 0.63101 0.77143 0.0
C1330 C 0.73546 0.6133 0.75979 0.0
C1331 C 0.75417 0.60694 0.74947 0.0
H1332 H 0.89678 0.94431 0.46046 0.0
H1333 H 0.83802 0.97119 0.48496 0.0
H1334 H 0.90244 0.97476 0.44045 0.0
H1335 H 0.84313 0.00122 0.46446 0.0
H1336 H 0.88218 0.06051 0.45664 0.0
H1337 H 0.86963 0.02779 0.46851 0.0
H1338 H 0.89169 0.99913 0.415 0.0
H1339 H 0.90486 0.03225 0.40312 0.0
C1340 C 0.88466 0.95642 0.46104 0.0
C1341 C 0.86719 0.95559 0.47451 0.0
C1342 C 0.88786 0.97387 0.44954 0.0
C1343 C 0.87352 0.99064 0.4512 0.0
C1344 C 0.85484 0.98882 0.46325 0.0
C1345 C 0.85182 0.97157 0.47491 0.0
C1346 C 0.88421 0.04733 0.44724 0.0
C1347 C 0.89468 0.04902 0.42896 0.0
C1348 C 0.87677 0.02851 0.45399 0.0
C1349 C 0.8795 0.01079 0.44267 0.0
C1350 C 0.88943 0.01248 0.42412 0.0
C1351 C 0.89688 0.03145 0.41728 0.0
H1352 H 0.2397 0.9056 0.7462 0.0
H1353 H 0.19862 0.85965 0.77315 0.0
H1354 H 0.27168 0.89186 0.76355 0.0
H1355 H 0.23041 0.84579 0.79003 0.0
H1356 H 0.28939 0.83176 0.82765 0.0
H1357 H 0.2583 0.85136 0.81492 0.0
H1358 H 0.29322 0.86061 0.76052 0.0
H1359 H 0.32432 0.84148 0.77327 0.0
C1360 C 0.23743 0.89276 0.75598 0.0
C1361 C 0.21665 0.88362 0.75813 0.0
C1362 C 0.25576 0.88481 0.76582 0.0
C1363 C 0.25362 0.86764 0.77807 0.0
C1364 C 0.23264 0.85914 0.78089 0.0
C1365 C 0.2144 0.86702 0.77105 0.0
C1366 C 0.29048 0.83811 0.81303 0.0
C1367 C 0.30929 0.8349 0.80144 0.0
C1368 C 0.27266 0.84931 0.80573 0.0
C1369 C 0.27328 0.85754 0.78669 0.0
C1370 C 0.29232 0.85476 0.77533 0.0
C1371 C 0.31009 0.84359 0.78261 0.0
H1372 H 0.09183 0.55408 0.46385 0.0
H1373 H 0.14806 0.52705 0.49254 0.0
H1374 H 0.08726 0.52329 0.44416 0.0
H1375 H 0.14427 0.49672 0.47227 0.0
H1376 H 0.10781 0.43712 0.46036 0.0
H1377 H 0.11888 0.4697 0.47354 0.0
H1378 H 0.09926 0.49934 0.41972 0.0
H1379 H 0.08733 0.46638 0.40661 0.0
C1380 C 0.1036 0.54178 0.46552 0.0
C1381 C 0.12005 0.54277 0.47995 0.0
C1382 C 0.10106 0.52415 0.45417 0.0
C1383 C 0.11513 0.50731 0.45688 0.0
C1384 C 0.13272 0.50913 0.47019 0.0
C1385 C 0.135 0.52656 0.48174 0.0
C1386 C 0.10603 0.45049 0.45117 0.0
C1387 C 0.09651 0.4491 0.43245 0.0
C1388 C 0.11261 0.46926 0.4587 0.0
C1389 C 0.11007 0.48724 0.4477 0.0
C1390 C 0.10125 0.48582 0.42867 0.0
C1391 C 0.09454 0.46693 0.42111 0.0
H1392 H 0.78887 0.35537 0.73402 0.0
H1393 H 0.7506 0.40578 0.75653 0.0
H1394 H 0.75696 0.34299 0.71629 0.0
H1395 H 0.71852 0.39347 0.73833 0.0
H1396 H 0.69915 0.33019 0.67731 0.0
H1397 H 0.73085 0.34917 0.68979 0.0
H1398 H 0.69445 0.36389 0.74228 0.0
H1399 H 0.66284 0.34539 0.72978 0.0
C1400 C 0.7737 0.364 0.73498 0.0
C1401 C 0.77221 0.38144 0.74692 0.0
C1402 C 0.75543 0.35698 0.72462 0.0
C1403 C 0.73518 0.36719 0.72594 0.0
C1404 C 0.73387 0.38514 0.73721 0.0
C1405 C 0.75225 0.39224 0.74756 0.0
C1406 C 0.69785 0.3377 0.69139 0.0
C1407 C 0.67854 0.33607 0.70262 0.0
C1408 C 0.71601 0.34852 0.69857 0.0
C1409 C 0.71518 0.35798 0.71706 0.0
C1410 C 0.69556 0.35702 0.72788 0.0
C1411 C 0.67749 0.3462 0.72077 0.0
H1412 H 0.64943 0.96311 0.51217 0.0
H1413 H 0.59077 0.93824 0.53875 0.0
H1414 H 0.6461 0.99352 0.53238 0.0
H1415 H 0.58693 0.96909 0.55856 0.0
H1416 H 0.61041 0.05425 0.54239 0.0
H1417 H 0.62058 0.02117 0.52958 0.0
H1418 H 0.60027 0.99273 0.58375 0.0
H1419 H 0.58952 0.02618 0.59658 0.0
C1420 C 0.63599 0.96403 0.52257 0.0
C1421 C 0.62017 0.94846 0.52369 0.0
C1422 C 0.634 0.98151 0.53407 0.0
C1423 C 0.61596 0.98397 0.54676 0.0
C1424 C 0.60106 0.96769 0.54898 0.0
C1425 C 0.60321 0.95002 0.53759 0.0
C1426 C 0.60828 0.04103 0.55172 0.0
C1427 C 0.59902 0.04289 0.57049 0.0
C1428 C 0.61433 0.022 0.54441 0.0
C1429 C 0.61135 0.00424 0.55566 0.0
C1430 C 0.60264 0.0061 0.57467 0.0
C1431 C 0.5966 0.02526 0.58205 0.0
H1432 H 0.33766 0.15683 0.73187 0.0
H1433 H 0.30002 0.17155 0.67998 0.0
H1434 H 0.30596 0.13921 0.74552 0.0
H1435 H 0.26831 0.15358 0.69364 0.0
H1436 H 0.21109 0.14756 0.73823 0.0
H1437 H 0.24305 0.16043 0.72087 0.0
H1438 H 0.28147 0.10939 0.74172 0.0
H1439 H 0.24932 0.09651 0.75948 0.0
C1440 C 0.32269 0.15615 0.72327 0.0
C1441 C 0.32133 0.16579 0.70489 0.0
C1442 C 0.30457 0.14586 0.73105 0.0
C1443 C 0.28463 0.14501 0.72068 0.0
C1444 C 0.28341 0.15416 0.70206 0.0
C1445 C 0.30159 0.16441 0.69423 0.0
C1446 C 0.22628 0.13894 0.73904 0.0
C1447 C 0.2277 0.12107 0.7504 0.0
C1448 C 0.24457 0.14626 0.72892 0.0
C1449 C 0.26479 0.13595 0.72992 0.0
C1450 C 0.26613 0.11776 0.74082 0.0
C1451 C 0.24772 0.11034 0.75091 0.0
H1452 H 0.39422 0.44476 0.54064 0.0
H1453 H 0.40795 0.47252 0.59674 0.0
H1454 H 0.38449 0.47763 0.52735 0.0
H1455 H 0.39728 0.5058 0.58346 0.0
H1456 H 0.40845 0.5622 0.54157 0.0
H1457 H 0.41107 0.53103 0.56114 0.0
H1458 H 0.35881 0.50412 0.52673 0.0
H1459 H 0.35724 0.53473 0.50662 0.0
C1460 C 0.39477 0.45785 0.5503 0.0
C1461 C 0.40199 0.45594 0.56977 0.0
C1462 C 0.38894 0.47681 0.54268 0.0
C1463 C 0.38992 0.4945 0.55432 0.0
C1464 C 0.39651 0.49256 0.57402 0.0
C1465 C 0.40249 0.47346 0.58167 0.0
C1466 C 0.39722 0.54974 0.53855 0.0
C1467 C 0.38288 0.55068 0.52245 0.0
C1468 C 0.39866 0.53188 0.54978 0.0
C1469 C 0.38552 0.5148 0.54524 0.0
C1470 C 0.36972 0.51666 0.53026 0.0
C1471 C 0.36865 0.53427 0.51882 0.0
H1472 H 0.83088 0.68967 0.69864 0.0
H1473 H 0.80902 0.64344 0.65793 0.0
H1474 H 0.80924 0.71495 0.68154 0.0
H1475 H 0.78794 0.66914 0.64006 0.0
H1476 H 0.72717 0.71233 0.63603 0.0
H1477 H 0.75459 0.68702 0.64582 0.0
H1478 H 0.80233 0.73519 0.65432 0.0
H1479 H 0.7746 0.76033 0.6457 0.0
C1480 C 0.822 0.68502 0.68562 0.0
C1481 C 0.82143 0.66449 0.67982 0.0
C1482 C 0.8096 0.69961 0.67569 0.0
C1483 C 0.79652 0.69409 0.65951 0.0
C1484 C 0.79739 0.67383 0.65274 0.0
C1485 C 0.80969 0.65915 0.66283 0.0
C1486 C 0.74358 0.71739 0.63991 0.0
C1487 C 0.74866 0.73826 0.64053 0.0
C1488 C 0.7594 0.70291 0.64533 0.0
C1489 C 0.78069 0.70905 0.6511 0.0
C1490 C 0.78599 0.72991 0.65052 0.0
C1491 C 0.7701 0.74434 0.64553 0.0
H1492 H 0.80622 0.35404 0.83973 0.0
H1493 H 0.833 0.31062 0.79852 0.0
H1494 H 0.78765 0.3263 0.85701 0.0
H1495 H 0.81388 0.28328 0.81505 0.0
H1496 H 0.73202 0.27727 0.86032 0.0
H1497 H 0.75644 0.30528 0.85103 0.0
H1498 H 0.80944 0.26218 0.84212 0.0
H1499 H 0.7847 0.23433 0.85027 0.0
C1500 C 0.80848 0.33856 0.83458 0.0
C1501 C 0.82093 0.33455 0.81766 0.0
C1502 C 0.79763 0.32268 0.84434 0.0
C1503 C 0.79896 0.30254 0.83731 0.0
C1504 C 0.8126 0.29849 0.82111 0.0
C1505 C 0.82354 0.31426 0.8115 0.0
C1506 C 0.74894 0.2739 0.8565 0.0
C1507 C 0.75636 0.25365 0.8556 0.0
C1508 C 0.76303 0.28994 0.85134 0.0
C1509 C 0.78491 0.28601 0.84555 0.0
C1510 C 0.79257 0.26578 0.84593 0.0
C1511 C 0.77841 0.24979 0.85066 0.0
H1512 H 0.58541 0.93348 0.4256 0.0
H1513 H 0.53124 0.91369 0.46176 0.0
H1514 H 0.56096 0.95631 0.40782 0.0
H1515 H 0.50688 0.93765 0.44503 0.0
H1516 H 0.4647 0.97837 0.40787 0.0
H1517 H 0.48735 0.94934 0.41772 0.0
H1518 H 0.54538 0.98754 0.41456 0.0
H1519 H 0.52298 0.01587 0.40371 0.0
C1520 C 0.56817 0.93404 0.42966 0.0
C1521 C 0.56016 0.92209 0.44511 0.0
C1522 C 0.55417 0.94723 0.41961 0.0
C1523 C 0.532 0.94927 0.42526 0.0
C1524 C 0.52377 0.93643 0.44012 0.0
C1525 C 0.53771 0.92277 0.44981 0.0
C1526 C 0.48236 0.98036 0.409 0.0
C1527 C 0.4921 0.99935 0.40506 0.0
C1528 C 0.49534 0.96378 0.41477 0.0
C1529 C 0.51825 0.966 0.41703 0.0
C1530 C 0.52791 0.98498 0.41259 0.0
C1531 C 0.51503 0.00136 0.40649 0.0
H1532 H 0.25522 0.22296 0.88392 0.0
H1533 H 0.24229 0.25195 0.82821 0.0
H1534 H 0.22815 0.19651 0.87607 0.0
H1535 H 0.2159 0.22556 0.82028 0.0
H1536 H 0.1592 0.18632 0.81267 0.0
H1537 H 0.18001 0.21318 0.82894 0.0
H1538 H 0.2236 0.16791 0.85373 0.0
H1539 H 0.20227 0.14102 0.83804 0.0
C1540 C 0.24672 0.22363 0.86999 0.0
C1541 C 0.25092 0.23957 0.85669 0.0
C1542 C 0.2312 0.20852 0.86552 0.0
C1543 C 0.21959 0.20909 0.84769 0.0
C1544 C 0.22403 0.22494 0.83439 0.0
C1545 C 0.23941 0.23998 0.83885 0.0
C1546 C 0.17279 0.18208 0.82211 0.0
C1547 C 0.17934 0.16162 0.82382 0.0
C1548 C 0.18485 0.19746 0.83128 0.0
C1549 C 0.20388 0.19272 0.84212 0.0
C1550 C 0.20908 0.17211 0.84545 0.0
C1551 C 0.19683 0.15667 0.83644 0.0
H1552 H 0.04511 0.03297 0.9237 0.0
H1553 H 0.98792 0.02696 0.88645 0.0
H1554 H 0.02876 0.06302 0.93904 0.0
H1555 H 0.97185 0.05726 0.90159 0.0
H1556 H 0.95032 0.11596 0.93091 0.0
H1557 H 0.97717 0.09718 0.91084 0.0
H1558 H 0.99215 0.05857 0.96033 0.0
H1559 H 0.96493 0.07674 0.97999 0.0
C1560 C 0.0294 0.03844 0.91834 0.0
C1561 C 0.01757 0.02741 0.90414 0.0
C1562 C 0.02011 0.05564 0.9271 0.0
C1563 C -0.00092 0.06231 0.92152 0.0
C1564 C 0.9882 0.05248 0.90602 0.0
C1565 C 0.99731 0.03506 0.89747 0.0
C1566 C 0.95992 0.10387 0.93757 0.0
C1567 C 0.9557 0.09766 0.95688 0.0
C1568 C 0.97515 0.09315 0.92612 0.0
C1569 C 0.98669 0.07654 0.93412 0.0
C1570 C 0.98366 0.07149 0.95392 0.0
C1571 C 0.96807 0.08179 0.96513 0.0
H1572 H 0.71088 0.24301 0.15316 0.0
H1573 H 0.76045 0.28866 0.14161 0.0
H1574 H 0.68444 0.26957 0.16103 0.0
H1575 H 0.73437 0.31539 0.15061 0.0
H1576 H 0.68223 0.3617 0.16044 0.0
H1577 H 0.70214 0.33432 0.14394 0.0
H1578 H 0.67803 0.29145 0.18708 0.0
H1579 H 0.65748 0.31843 0.20281 0.0
C1580 C 0.71615 0.25878 0.15244 0.0
C1581 C 0.7378 0.26379 0.14706 0.0
C1582 C 0.70099 0.27404 0.15699 0.0
C1583 C 0.70725 0.29469 0.15672 0.0
C1584 C 0.7288 0.2997 0.15073 0.0
C1585 C 0.74386 0.2844 0.14577 0.0
C1586 C 0.6807 0.34629 0.16601 0.0
C1587 C 0.66846 0.34227 0.18305 0.0
C1588 C 0.69233 0.33063 0.1567 0.0
C1589 C 0.6921 0.31069 0.16435 0.0
C1590 C 0.67854 0.3065 0.18057 0.0
C1591 C 0.66675 0.32207 0.18971 0.0
H1592 H 0.53257 0.08288 0.03666 0.0
H1593 H 0.58272 0.07087 0.07987 0.0
H1594 H 0.50649 0.06219 0.05523 0.0
H1595 H 0.55644 0.05145 0.09929 0.0
H1596 H 0.51995 0.99103 0.10674 0.0
H1597 H 0.54259 0.0189 0.09544 0.0
H1598 H 0.48416 0.05414 0.08231 0.0
H1599 H 0.46134 0.02547 0.09284 0.0
C1600 C 0.53771 0.07637 0.05051 0.0
C1601 C 0.55962 0.07807 0.05675 0.0
C1602 C 0.52277 0.06459 0.06125 0.0
C1603 C 0.52946 0.05471 0.07861 0.0
C1604 C 0.5509 0.0582 0.08567 0.0
C1605 C 0.56592 0.06945 0.07467 0.0
C1606 C 0.51188 0.00483 0.10174 0.0
C1607 C 0.48887 0.00596 0.10048 0.0
C1608 C 0.52492 0.02099 0.09538 0.0
C1609 C 0.51528 0.03889 0.08787 0.0
C1610 C 0.49217 0.04048 0.08767 0.0
C1611 C 0.47908 0.02411 0.09383 0.0
H1612 H 0.55168 0.47903 0.07327 0.0
H1613 H 0.49965 0.48404 0.11616 0.0
H1614 H 0.53393 0.44874 0.05957 0.0
H1615 H 0.48226 0.45349 0.10269 0.0
H1616 H 0.46542 0.43277 0.02584 0.0
H1617 H 0.49386 0.45249 0.04254 0.0
H1618 H 0.48835 0.41318 0.09305 0.0
H1619 H 0.46025 0.39284 0.0759 0.0
C1620 C 0.53687 0.47329 0.08017 0.0
C1621 C 0.52681 0.48404 0.09556 0.0
C1622 C 0.52678 0.45597 0.07235 0.0
C1623 C 0.50679 0.44891 0.0801 0.0
C1624 C 0.49779 0.45857 0.0966 0.0
C1625 C 0.50764 0.47612 0.10418 0.0
C1626 C 0.47077 0.42801 0.04028 0.0
C1627 C 0.46075 0.41142 0.04967 0.0
C1628 C 0.48709 0.43918 0.04977 0.0
C1629 C 0.49324 0.43426 0.06901 0.0
C1630 C 0.4839 0.41711 0.07815 0.0
C1631 C 0.46794 0.40553 0.06838 0.0
H1632 H 0.12867 0.23656 0.38456 0.0
H1633 H 0.14489 0.26523 0.32954 0.0
H1634 H 0.12126 0.26984 0.39891 0.0
H1635 H 0.1391 0.29868 0.34411 0.0
H1636 H 0.09482 0.35005 0.36548 0.0
H1637 H 0.10947 0.31847 0.35258 0.0
H1638 H 0.13163 0.30154 0.41062 0.0
H1639 H 0.11556 0.33283 0.42368 0.0
C1640 C 0.13131 0.25008 0.37573 0.0
C1641 C 0.1371 0.24837 0.35592 0.0
C1642 C 0.12717 0.26924 0.38397 0.0
C1643 C 0.1292 0.28712 0.37264 0.0
C1644 C 0.13662 0.28531 0.35316 0.0
C1645 C 0.14019 0.26615 0.34482 0.0
C1646 C 0.10302 0.33969 0.37547 0.0
C1647 C 0.10392 0.34387 0.39561 0.0
C1648 C 0.11165 0.32155 0.36804 0.0
C1649 C 0.12184 0.30726 0.38049 0.0
C1650 C 0.12353 0.3119 0.40059 0.0
C1651 C 0.11447 0.32991 0.40809 0.0
H1652 H 0.58756 0.65127 0.86332 0.0
H1653 H 0.54845 0.66701 0.81261 0.0
H1654 H 0.55688 0.63191 0.87657 0.0
H1655 H 0.51742 0.64809 0.82622 0.0
H1656 H 0.4711 0.59885 0.8483 0.0
H1657 H 0.50397 0.61438 0.83405 0.0
H1658 H 0.52181 0.63825 0.8909 0.0
H1659 H 0.4895 0.62229 0.90515 0.0
C1660 C 0.57236 0.65071 0.85503 0.0
C1661 C 0.57042 0.66081 0.83694 0.0
C1662 C 0.55472 0.63963 0.86268 0.0
C1663 C 0.53463 0.63849 0.85253 0.0
C1664 C 0.53275 0.64841 0.83432 0.0
C1665 C 0.55048 0.6594 0.82658 0.0
C1666 C 0.48224 0.60717 0.85778 0.0
C1667 C 0.47768 0.60936 0.87785 0.0
C1668 C 0.50096 0.61623 0.84958 0.0
C1669 C 0.51547 0.62769 0.86129 0.0
C1670 C 0.51118 0.62933 0.88147 0.0
C1671 C 0.49256 0.62023 0.88965 0.0
H1672 H 0.86267 0.23824 0.33466 0.0
H1673 H 0.84194 0.26029 0.39138 0.0
H1674 H 0.8699 0.2049 0.34859 0.0
H1675 H 0.84867 0.22648 0.40534 0.0
H1676 H 0.8961 0.17414 0.42513 0.0
H1677 H 0.88067 0.2061 0.41316 0.0
H1678 H 0.85453 0.17472 0.36258 0.0
H1679 H 0.87055 0.14291 0.37423 0.0
C1680 C 0.85927 0.23587 0.35007 0.0
C1681 C 0.85189 0.25198 0.36195 0.0
C1682 C 0.86327 0.21664 0.35805 0.0
C1683 C 0.85991 0.21296 0.37812 0.0
C1684 C 0.85169 0.22887 0.38988 0.0
C1685 C 0.8477 0.2482 0.38186 0.0
C1686 C 0.88679 0.174 0.41159 0.0
C1687 C 0.88484 0.15603 0.40049 0.0
C1688 C 0.87781 0.19233 0.40478 0.0
C1689 C 0.86656 0.19305 0.38678 0.0
C1690 C 0.8635 0.1748 0.37629 0.0
C1691 C 0.87261 0.15653 0.38302 0.0
H1692 H 0.5 0.87225 0.90526 0.0
H1693 H 0.51721 0.89364 0.84737 0.0
H1694 H 0.46729 0.85603 0.89213 0.0
H1695 H 0.48388 0.87783 0.83423 0.0
H1696 H 0.40093 0.84209 0.86637 0.0
H1697 H 0.43194 0.86192 0.87833 0.0
H1698 H 0.47007 0.8439 0.82777 0.0
H1699 H 0.4387 0.82452 0.81544 0.0
C1700 C 0.49659 0.87382 0.88975 0.0
C1701 C 0.51127 0.88419 0.87734 0.0
C1702 C 0.47773 0.86456 0.88222 0.0
C1703 C 0.47296 0.86553 0.86209 0.0
C1704 C 0.48725 0.87652 0.84976 0.0
C1705 C 0.50623 0.88575 0.85731 0.0
C1706 C 0.41592 0.84233 0.85777 0.0
C1707 C 0.41737 0.83159 0.84 0.0
C1708 C 0.43374 0.85369 0.86467 0.0
C1709 C 0.45356 0.85447 0.85407 0.0
C1710 C 0.45496 0.84388 0.83618 0.0
C1711 C 0.43703 0.83262 0.82919 0.0
H1712 H 0.13661 0.75967 0.10802 0.0
H1713 H 0.15231 0.73179 0.16354 0.0
H1714 H 0.12961 0.72612 0.09399 0.0
H1715 H 0.14687 0.69814 0.14933 0.0
H1716 H 0.12453 0.66235 0.07029 0.0
H1717 H 0.14028 0.69401 0.0829 0.0
H1718 H 0.117 0.67848 0.14092 0.0
H1719 H 0.10255 0.64664 0.12853 0.0
C1720 C 0.13923 0.74628 0.11703 0.0
C1721 C 0.14473 0.74829 0.1369 0.0
C1722 C 0.13531 0.72698 0.10898 0.0
C1723 C 0.13725 0.70926 0.12057 0.0
C1724 C 0.14445 0.71137 0.14008 0.0
C1725 C 0.14782 0.73066 0.14822 0.0
C1726 C 0.12312 0.66564 0.08579 0.0
C1727 C 0.11229 0.65199 0.0984 0.0
C1728 C 0.13201 0.68386 0.09302 0.0
C1729 C 0.12995 0.68899 0.11298 0.0
C1730 C 0.11947 0.67502 0.12557 0.0
C1731 C 0.11097 0.65672 0.11842 0.0
H1732 H 0.92537 0.6794 0.13233 0.0
H1733 H 0.93737 0.65348 0.18947 0.0
H1734 H 0.95558 0.65951 0.1189 0.0
H1735 H 0.96672 0.6325 0.17591 0.0
H1736 H 0.03318 0.61449 0.14965 0.0
H1737 H 0.00227 0.63257 0.16405 0.0
H1738 H 0.96665 0.62728 0.10937 0.0
H1739 H 0.99831 0.61036 0.0947 0.0
C1740 C 0.93442 0.66931 0.14198 0.0
C1741 C 0.92912 0.66807 0.16195 0.0
C1742 C 0.95161 0.65767 0.13425 0.0
C1743 C 0.96359 0.64413 0.14622 0.0
C1744 C 0.95819 0.64294 0.16625 0.0
C1745 C 0.9413 0.65494 0.17406 0.0
C1746 C 0.0186 0.61695 0.14081 0.0
C1747 C 0.01817 0.61111 0.12104 0.0
C1748 C 0.00078 0.6273 0.14908 0.0
C1749 C 0.98191 0.63169 0.13787 0.0
C1750 C 0.98109 0.62476 0.11834 0.0
C1751 C -0.00088 0.61482 0.10996 0.0
H1752 H 0.8667 0.74208 0.11329 0.0
H1753 H 0.85423 0.76773 0.17042 0.0
H1754 H 0.8724 0.77615 0.10008 0.0
H1755 H 0.85843 0.80195 0.15709 0.0
H1756 H 0.90016 0.85507 0.13507 0.0
H1757 H 0.88696 0.82277 0.14758 0.0
H1758 H 0.86021 0.80817 0.09052 0.0
H1759 H 0.87472 0.84023 0.07776 0.0
C1760 C 0.86455 0.75508 0.12289 0.0
C1761 C 0.86027 0.75227 0.14291 0.0
C1762 C 0.8677 0.7747 0.11531 0.0
C1763 C 0.86621 0.79198 0.12752 0.0
C1764 C 0.86041 0.78908 0.14731 0.0
C1765 C 0.85777 0.76946 0.15495 0.0
C1766 C 0.89122 0.8451 0.12524 0.0
C1767 C 0.88862 0.85017 0.10539 0.0
C1768 C 0.88345 0.82652 0.13246 0.0
C1769 C 0.87248 0.81263 0.12011 0.0
C1770 C 0.86897 0.81819 0.10042 0.0
C1771 C 0.87713 0.83666 0.0931 0.0
H1772 H 0.99463 0.87348 0.09332 0.0
H1773 H 0.98059 0.89733 0.15099 0.0
H1774 H 0.02623 0.85522 0.10633 0.0
H1775 H 0.01272 0.87945 0.16395 0.0
H1776 H 0.05502 0.82489 0.18381 0.0
H1777 H 0.02424 0.84487 0.17107 0.0
H1778 H 0.06229 0.85945 0.11945 0.0
H1779 H 0.09265 0.83909 0.13182 0.0
C1780 C 0.99852 0.87513 0.10873 0.0
C1781 C 0.98506 0.88684 0.12112 0.0
C1782 C 0.01671 0.86468 0.11619 0.0
C1783 C 0.02198 0.86576 0.13623 0.0
C1784 C 0.00891 0.878 0.14852 0.0
C1785 C 0.99063 0.88842 0.14105 0.0
C1786 C 0.05676 0.8323 0.16971 0.0
C1787 C 0.07627 0.83026 0.1588 0.0
C1788 C 0.03919 0.84391 0.16248 0.0
C1789 C 0.04078 0.8538 0.14423 0.0
C1790 C 0.06034 0.85181 0.13341 0.0
C1791 C 0.07781 0.84015 0.14057 0.0
H1792 H 0.39072 0.1258 0.25693 0.0
H1793 H 0.37853 0.061 0.25232 0.0
H1794 H 0.41187 0.12004 0.28685 0.0
H1795 H 0.39997 0.05532 0.28207 0.0
H1796 H 0.4491 0.05163 0.33205 0.0
H1797 H 0.43861 0.06003 0.29847 0.0
H1798 H 0.39517 0.10706 0.32003 0.0
H1799 H 0.40536 0.09853 0.35367 0.0
C1800 C 0.39313 0.11027 0.26193 0.0
C1801 C 0.38275 0.09385 0.25241 0.0
C1802 C 0.40512 0.10703 0.2791 0.0
C1803 C 0.4073 0.08729 0.2868 0.0
C1804 C 0.39857 0.07069 0.27637 0.0
C1805 C 0.38626 0.07395 0.25938 0.0
C1806 C 0.4376 0.06401 0.32964 0.0
C1807 C 0.4279 0.07434 0.34551 0.0
C1808 C 0.4316 0.06875 0.31042 0.0
C1809 C 0.41614 0.08416 0.30673 0.0
C1810 C 0.40733 0.09523 0.32251 0.0
C1811 C 0.41303 0.09027 0.34175 0.0
H1812 H 0.40237 0.36201 0.96245 0.0
H1813 H 0.419 0.30876 0.99674 0.0
H1814 H 0.38938 0.34015 0.93614 0.0
H1815 H 0.40621 0.28683 0.9702 0.0
H1816 H 0.36622 0.29968 0.89008 0.0
H1817 H 0.395 0.31377 0.91104 0.0
H1818 H 0.36777 0.28134 0.96052 0.0
H1819 H 0.33928 0.26712 0.93963 0.0
C1820 C 0.40387 0.34564 0.96414 0.0
C1821 C 0.41127 0.33713 0.98183 0.0
C1822 C 0.39657 0.33307 0.94897 0.0
C1823 C 0.3965 0.31173 0.9512 0.0
C1824 C 0.40578 0.30322 0.96819 0.0
C1825 C 0.41315 0.3158 0.98336 0.0
C1826 C 0.36682 0.29502 0.9053 0.0
C1827 C 0.35021 0.28264 0.91332 0.0
C1828 C 0.38326 0.30318 0.91731 0.0
C1829 C 0.38342 0.29899 0.9375 0.0
C1830 C 0.3682 0.28485 0.94503 0.0
C1831 C 0.35174 0.27677 0.93305 0.0
H1832 H 0.59539 0.38985 0.25066 0.0
H1833 H 0.61965 0.45181 0.25296 0.0
H1834 H 0.57225 0.39652 0.27914 0.0
H1835 H 0.59651 0.45839 0.28138 0.0
H1836 H 0.57804 0.4089 0.34763 0.0
H1837 H 0.58676 0.40195 0.31347 0.0
H1838 H 0.55858 0.45987 0.29671 0.0
H1839 H 0.54973 0.46687 0.33096 0.0
C1840 C 0.5953 0.40507 0.25684 0.0
C1841 C 0.60969 0.42021 0.24979 0.0
C1842 C 0.58211 0.40883 0.2732 0.0
C1843 C 0.58285 0.42785 0.28262 0.0
C1844 C 0.59554 0.44359 0.27438 0.0
C1845 C 0.6089 0.43978 0.25815 0.0
C1846 C 0.57325 0.41996 0.33663 0.0
C1847 C 0.56347 0.43854 0.34202 0.0
C1848 C 0.57808 0.41591 0.31703 0.0
C1849 C 0.57342 0.43043 0.30246 0.0
C1850 C 0.56244 0.44848 0.30768 0.0
C1851 C 0.55734 0.45243 0.32728 0.0
H1852 H 0.58511 0.17694 0.98866 0.0
H1853 H 0.60617 0.1252 0.95422 0.0
H1854 H 0.59657 0.19988 0.96243 0.0
H1855 H 0.61779 0.14807 0.92819 0.0
H1856 H 0.66258 0.22391 0.93295 0.0
H1857 H 0.63472 0.20789 0.95331 0.0
H1858 H 0.61072 0.17429 0.90324 0.0
H1859 H 0.63885 0.1902 0.88282 0.0
C1860 C 0.5916 0.17041 0.97528 0.0
C1861 C 0.59514 0.14927 0.97366 0.0
C1862 C 0.59823 0.18358 0.96029 0.0
C1863 C 0.6084 0.17584 0.94337 0.0
C1864 C 0.60991 0.15457 0.94098 0.0
C1865 C 0.60337 0.14142 0.95598 0.0
C1866 C 0.65093 0.21363 0.92612 0.0
C1867 C 0.65326 0.20797 0.90639 0.0
C1868 C 0.63483 0.20449 0.93779 0.0
C1869 C 0.62077 0.18951 0.92995 0.0
C1870 C 0.62159 0.18551 0.90975 0.0
C1871 C 0.63765 0.19471 0.89805 0.0
H1872 H 0.39281 0.87481 0.24703 0.0
H1873 H 0.37677 0.93896 0.25044 0.0
H1874 H 0.4147 0.88125 0.21769 0.0
H1875 H 0.39883 0.94534 0.22124 0.0
H1876 H 0.40833 0.9008 0.15055 0.0
H1877 H 0.39865 0.89221 0.18423 0.0
H1878 H 0.43722 0.94305 0.20515 0.0
H1879 H 0.44716 0.9516 0.17146 0.0
C1880 C 0.39452 0.89037 0.24192 0.0
C1881 C 0.38282 0.90636 0.25088 0.0
C1882 C 0.40695 0.894 0.22506 0.0
C1883 C 0.40821 0.91372 0.21712 0.0
C1884 C 0.39819 0.92999 0.22711 0.0
C1885 C 0.38549 0.92633 0.24379 0.0
C1886 C 0.41508 0.90992 0.16234 0.0
C1887 C 0.42834 0.92697 0.15834 0.0
C1888 C 0.40968 0.9049 0.18162 0.0
C1889 C 0.4172 0.917 0.19725 0.0
C1890 C 0.43121 0.93353 0.19334 0.0
C1891 C 0.43689 0.93836 0.17406 0.0
H1892 H 0.16821 0.27333 0.06583 0.0
H1893 H 0.14028 0.30804 0.11355 0.0
H1894 H 0.14063 0.28717 0.04376 0.0
H1895 H 0.1124 0.32173 0.09142 0.0
H1896 H 0.10676 0.36811 0.03844 0.0
H1897 H 0.11902 0.34708 0.06563 0.0
H1898 H 0.10259 0.29274 0.03293 0.0
H1899 H 0.09053 0.31387 0.00551 0.0
C1900 C 0.15572 0.28339 0.07177 0.0
C1901 C 0.15673 0.28994 0.09133 0.0
C1902 C 0.13978 0.29125 0.05911 0.0
C1903 C 0.12455 0.30584 0.06577 0.0
C1904 C 0.12417 0.31078 0.08581 0.0
C1905 C 0.14009 0.30285 0.09849 0.0
C1906 C 0.10521 0.3517 0.03722 0.0
C1907 C 0.09809 0.34266 0.01968 0.0
C1908 C 0.11208 0.3396 0.0529 0.0
C1909 C 0.11203 0.31821 0.05134 0.0
C1910 C 0.1031 0.30918 0.03444 0.0
C1911 C 0.09613 0.3213 0.01877 0.0
H1912 H 0.6069 0.61579 0.24952 0.0
H1913 H 0.62864 0.5531 0.24589 0.0
H1914 H 0.58222 0.61014 0.22184 0.0
H1915 H 0.604 0.54755 0.21827 0.0
H1916 H 0.55422 0.54065 0.17092 0.0
H1917 H 0.56541 0.54719 0.2047 0.0
H1918 H 0.59403 0.60458 0.1869 0.0
H1919 H 0.58293 0.59812 0.15321 0.0
C1920 C 0.60598 0.60065 0.2432 0.0
C1921 C 0.62003 0.58497 0.24967 0.0
C1922 C 0.5919 0.59748 0.22731 0.0
C1923 C 0.59142 0.57851 0.21776 0.0
C1924 C 0.60394 0.56232 0.22538 0.0
C1925 C 0.61817 0.56554 0.24115 0.0
C1926 C 0.56244 0.5549 0.17429 0.0
C1927 C 0.56797 0.56876 0.15935 0.0
C1928 C 0.56888 0.55858 0.19362 0.0
C1929 C 0.58068 0.57631 0.19839 0.0
C1930 C 0.58476 0.59086 0.1837 0.0
C1931 C 0.57855 0.58708 0.16436 0.0
H1932 H 0.83363 0.23989 0.0694 0.0
H1933 H 0.8581 0.20629 0.11933 0.0
H1934 H 0.8623 0.22513 0.04912 0.0
H1935 H 0.88715 0.19174 0.09903 0.0
H1936 H 0.91292 0.19613 0.01357 0.0
H1937 H 0.90018 0.21845 0.03979 0.0
H1938 H 0.88215 0.16562 0.0741 0.0
H1939 H 0.89523 0.14339 0.04815 0.0
C1940 C 0.84562 0.22993 0.07623 0.0
C1941 C 0.84326 0.22388 0.09584 0.0
C1942 C 0.86219 0.22151 0.06459 0.0
C1943 C 0.87675 0.2069 0.07237 0.0
C1944 C 0.87588 0.20262 0.09253 0.0
C1945 C 0.8593 0.21106 0.10418 0.0
C1946 C 0.9068 0.18928 0.02695 0.0
C1947 C 0.90465 0.16799 0.02864 0.0
C1948 C 0.89945 0.20209 0.04194 0.0
C1949 C 0.88982 0.19385 0.0589 0.0
C1950 C 0.8896 0.17253 0.06131 0.0
C1951 C 0.89697 0.15973 0.04633 0.0
H1952 H 0.35351 0.34174 0.05469 0.0
H1953 H 0.33782 0.40583 0.05996 0.0
H1954 H 0.31925 0.33308 0.07133 0.0
H1955 H 0.30353 0.39697 0.07711 0.0
H1956 H 0.26405 0.35801 0.1299 0.0
H1957 H 0.29467 0.37404 0.11218 0.0
H1958 H 0.27641 0.3413 0.05987 0.0
H1959 H 0.24577 0.32561 0.07716 0.0
C1960 C 0.34285 0.35398 0.05954 0.0
C1961 C 0.34832 0.37446 0.05597 0.0
C1962 C 0.32322 0.34901 0.06897 0.0
C1963 C 0.30883 0.36439 0.07532 0.0
C1964 C 0.31443 0.3849 0.07227 0.0
C1965 C 0.33396 0.38991 0.06245 0.0
C1966 C 0.26614 0.35475 0.11447 0.0
C1967 C 0.25271 0.34026 0.10504 0.0
C1968 C 0.28365 0.3639 0.10437 0.0
C1969 C 0.28795 0.35856 0.08483 0.0
C1970 C 0.27349 0.34543 0.07502 0.0
C1971 C 0.25595 0.33648 0.08496 0.0
H1972 H 0.26524 0.63742 0.36723 0.0
H1973 H 0.2386 0.66714 0.41855 0.0
H1974 H 0.29387 0.62171 0.38762 0.0
H1975 H 0.26724 0.65172 0.43858 0.0
H1976 H 0.34323 0.65498 0.45123 0.0
H1977 H 0.3099 0.6623 0.4327 0.0
H1978 H 0.30075 0.59805 0.42166 0.0
H1979 H 0.33417 0.5905 0.44075 0.0
C1980 C 0.26505 0.64011 0.38288 0.0
C1981 C 0.24991 0.65385 0.3912 0.0
C1982 C 0.28142 0.63111 0.39451 0.0
C1983 C 0.28284 0.63582 0.41454 0.0
C1984 C 0.26657 0.64807 0.42311 0.0
C1985 C 0.25019 0.65689 0.4116 0.0
C1986 C 0.33415 0.64236 0.44492 0.0
C1987 C 0.3413 0.62216 0.44745 0.0
C1988 C 0.31501 0.64655 0.43442 0.0
C1989 C 0.30278 0.6307 0.42592 0.0
C1990 C 0.30995 0.61048 0.42816 0.0
C1991 C 0.32896 0.6062 0.43909 0.0
H1992 H 0.9032 0.48679 0.89373 0.0
H1993 H 0.84957 0.53007 0.8943 0.0
H1994 H 0.88014 0.46234 0.87671 0.0
H1995 H 0.82615 0.50528 0.87751 0.0
H1996 H 0.83586 0.41894 0.84734 0.0
H1997 H 0.84869 0.44002 0.87454 0.0
H1998 H 0.82726 0.49409 0.84373 0.0
H1999 H 0.81406 0.47309 0.8169 0.0
C2000 C 0.88624 0.49086 0.89076 0.0
C2001 C 0.87833 0.5105 0.89509 0.0
C2002 C 0.87292 0.47674 0.88107 0.0
C2003 C 0.85135 0.48193 0.87545 0.0
C2004 C 0.84282 0.50094 0.88132 0.0
C2005 C 0.85618 0.51508 0.89109 0.0
C2006 C 0.8334 0.4353 0.8466 0.0
C2007 C 0.82424 0.44436 0.82981 0.0
C2008 C 0.84085 0.44739 0.86215 0.0
C2009 C 0.83929 0.46878 0.86124 0.0
C2010 C 0.82859 0.47768 0.84507 0.0
C2011 C 0.82114 0.46561 0.82955 0.0
H2012 H 0.64257 0.85445 0.42868 0.0
H2013 H 0.68454 0.88656 0.4695 0.0
H2014 H 0.6749 0.84408 0.40996 0.0
H2015 H 0.7169 0.87598 0.45076 0.0
H2016 H 0.76407 0.82401 0.42579 0.0
H2017 H 0.73476 0.84112 0.44388 0.0
H2018 H 0.70564 0.86093 0.38941 0.0
H2019 H 0.73509 0.84392 0.37122 0.0
C2020 C 0.65868 0.85925 0.43368 0.0
C2021 C 0.66102 0.87124 0.45061 0.0
C2022 C 0.67715 0.85351 0.42284 0.0
C2023 C 0.69833 0.85941 0.42885 0.0
C2024 C 0.70072 0.87128 0.44583 0.0
C2025 C 0.68222 0.87728 0.45653 0.0
C2026 C 0.75171 0.83244 0.41769 0.0
C2027 C 0.75175 0.83251 0.39711 0.0
C2028 C 0.73499 0.84225 0.42805 0.0
C2029 C 0.71785 0.85208 0.418 0.0
C2030 C 0.71858 0.85323 0.39746 0.0
C2031 C 0.73552 0.84367 0.38708 0.0
H2032 H 0.61478 0.5101 0.41047 0.0
H2033 H 0.64497 0.46137 0.37769 0.0
H2034 H 0.6384 0.53478 0.39406 0.0
H2035 H 0.66701 0.48582 0.35986 0.0
H2036 H 0.70326 0.53098 0.32533 0.0
H2037 H 0.69251 0.50952 0.35287 0.0
H2038 H 0.63831 0.55062 0.36497 0.0
H2039 H 0.65044 0.57265 0.33876 0.0
C2040 C 0.62679 0.50469 0.39994 0.0
C2041 C 0.62802 0.4839 0.39526 0.0
C2042 C 0.64012 0.51885 0.39023 0.0
C2043 C 0.65427 0.51261 0.37498 0.0
C2044 C 0.65661 0.49151 0.37149 0.0
C2045 C 0.64385 0.47732 0.38172 0.0
C2046 C 0.68941 0.53558 0.33431 0.0
C2047 C 0.67757 0.55336 0.32986 0.0
C2048 C 0.68302 0.52317 0.35 0.0
C2049 C 0.66412 0.52786 0.36114 0.0
C2050 C 0.65311 0.54637 0.35719 0.0
C2051 C 0.65996 0.55907 0.34194 0.0
H2052 H 0.16048 0.65619 0.52467 0.0
H2053 H 0.16964 0.60321 0.56121 0.0
H2054 H 0.19144 0.67285 0.54059 0.0
H2055 H 0.19935 0.62041 0.5786 0.0
H2056 H 0.26098 0.65178 0.60056 0.0
H2057 H 0.2345 0.63291 0.58052 0.0
H2058 H 0.19982 0.68932 0.5686 0.0
H2059 H 0.22713 0.70791 0.58705 0.0
C2060 C 0.16908 0.64824 0.5363 0.0
C2061 C 0.16272 0.62856 0.54185 0.0
C2062 C 0.18672 0.65782 0.54562 0.0
C2063 C 0.19782 0.64825 0.56128 0.0
C2064 C 0.19156 0.62827 0.5665 0.0
C2065 C 0.1744 0.61843 0.55667 0.0
C2066 C 0.24776 0.65999 0.5934 0.0
C2067 C 0.24618 0.68125 0.59513 0.0
C2068 C 0.23246 0.64923 0.58202 0.0
C2069 C 0.21492 0.6595 0.57269 0.0
C2070 C 0.21337 0.6808 0.57485 0.0
C2071 C 0.22896 0.69152 0.58564 0.0
H2072 H 0.81648 0.52765 0.68125 0.0
H2073 H 0.84005 0.58122 0.65092 0.0
H2074 H 0.82934 0.50632 0.65453 0.0
H2075 H 0.8526 0.55981 0.62386 0.0
H2076 H 0.85042 0.46986 0.60407 0.0
H2077 H 0.82781 0.49543 0.62058 0.0
H2078 H 0.88346 0.53647 0.62203 0.0
H2079 H 0.90579 0.51122 0.60528 0.0
C2080 C 0.82391 0.53494 0.66864 0.0
C2081 C 0.82756 0.5561 0.66837 0.0
C2082 C 0.83115 0.52269 0.65319 0.0
C2083 C 0.84221 0.53132 0.6371 0.0
C2084 C 0.84442 0.55266 0.63618 0.0
C2085 C 0.83715 0.56493 0.65166 0.0
C2086 C 0.85761 0.48459 0.60737 0.0
C2087 C 0.88 0.48839 0.60366 0.0
C2088 C 0.84469 0.49919 0.61696 0.0
C2089 C 0.85391 0.51786 0.62296 0.0
C2090 C 0.87574 0.52232 0.61758 0.0
C2091 C 0.88863 0.50775 0.60804 0.0
H2092 H 0.17842 0.97489 0.68538 0.0
H2093 H 0.15356 0.92066 0.65703 0.0
H2094 H 0.16553 0.99548 0.65806 0.0
H2095 H 0.14094 0.94129 0.62946 0.0
H2096 H 0.08826 0.98992 0.60977 0.0
H2097 H 0.11027 0.96514 0.62756 0.0
H2098 H 0.16683 0.00488 0.62345 0.0
H2099 H 0.1446 0.02995 0.60582 0.0
C2100 C 0.17072 0.96728 0.67308 0.0
C2101 C 0.16671 0.94618 0.67354 0.0
C2102 C 0.16344 0.97909 0.65731 0.0
C2103 C 0.15198 0.97006 0.64164 0.0
C2104 C 0.14942 0.94874 0.64144 0.0
C2105 C 0.15675 0.93692 0.65721 0.0
C2106 C 0.10554 0.99317 0.61219 0.0
C2107 C 0.11458 0.01204 0.60664 0.0
C2108 C 0.11823 0.97888 0.62232 0.0
C2109 C 0.14026 0.98314 0.62718 0.0
C2110 C 0.14981 0.00129 0.6202 0.0
C2111 C 0.1371 0.01559 0.60997 0.0
H2112 H 0.62125 0.76079 0.82899 0.0
H2113 H 0.64449 0.73735 0.88444 0.0
H2114 H 0.61478 0.79384 0.84392 0.0
H2115 H 0.6385 0.77079 0.89936 0.0
H2116 H 0.61615 0.85528 0.87138 0.0
H2117 H 0.63106 0.82366 0.85816 0.0
H2118 H 0.60684 0.79093 0.9087 0.0
H2119 H 0.59248 0.82261 0.92219 0.0
C2120 C 0.62534 0.76278 0.84432 0.0
C2121 C 0.63322 0.74638 0.85557 0.0
C2122 C 0.62178 0.78183 0.85287 0.0
C2123 C 0.62606 0.785 0.87288 0.0
C2124 C 0.63476 0.76879 0.88397 0.0
C2125 C 0.63832 0.74967 0.8754 0.0
C2126 C 0.61427 0.84139 0.87982 0.0
C2127 C 0.6029 0.84146 0.89775 0.0
C2128 C 0.62274 0.82323 0.87219 0.0
C2129 C 0.61992 0.80469 0.88224 0.0
C2130 C 0.60949 0.80493 0.90063 0.0
C2131 C 0.60113 0.82312 0.90832 0.0
H2132 H 0.98925 0.12754 0.40223 0.0
H2133 H 0.96987 0.10517 0.34524 0.0
H2134 H 0.02133 0.14373 0.38781 0.0
H2135 H 0.00253 0.12089 0.33081 0.0
H2136 H 0.08699 0.15607 0.36001 0.0
H2137 H 0.05604 0.13718 0.37323 0.0
H2138 H 0.01668 0.15436 0.32311 0.0
H2139 H 0.0481 0.1728 0.30947 0.0
C2140 C 0.99205 0.12577 0.38665 0.0
C2141 C 0.97698 0.11508 0.37488 0.0
C2142 C 0.01053 0.13501 0.37837 0.0
C2143 C 0.01453 0.13368 0.35811 0.0
C2144 C -0.00023 0.1225 0.34641 0.0
C2145 C 0.98117 0.11332 0.35471 0.0
C2146 C 0.07176 0.15586 0.35176 0.0
C2147 C 0.06999 0.16608 0.33372 0.0
C2148 C 0.05394 0.14505 0.35941 0.0
C2149 C 0.03379 0.14433 0.34933 0.0
C2150 C 0.03205 0.15438 0.33116 0.0
C2151 C 0.04999 0.16509 0.32341 0.0
H2152 H 0.3955 0.66929 0.92546 0.0
H2153 H 0.37226 0.63732 0.87411 0.0
H2154 H 0.38086 0.70108 0.91246 0.0
H2155 H 0.35701 0.66902 0.86138 0.0
H2156 H 0.36599 0.73233 0.83303 0.0
H2157 H 0.37271 0.69912 0.84751 0.0
H2158 H 0.3494 0.72136 0.90338 0.0
H2159 H 0.34322 0.75499 0.88889 0.0
C2160 C 0.38686 0.66895 0.91159 0.0
C2161 C 0.38532 0.65078 0.90072 0.0
C2162 C 0.37833 0.6872 0.90417 0.0
C2163 C 0.36794 0.68769 0.88575 0.0
C2164 C 0.36531 0.66929 0.87542 0.0
C2165 C 0.37396 0.65107 0.88278 0.0
C2166 C 0.36204 0.73013 0.84836 0.0
C2167 C 0.35423 0.74638 0.85984 0.0
C2168 C 0.36575 0.71097 0.85665 0.0
C2169 C 0.36166 0.70752 0.87666 0.0
C2170 C 0.35302 0.72357 0.88799 0.0
C2171 C 0.34934 0.7428 0.87967 0.0
H2172 H 0.99792 0.3771 0.40724 0.0
H2173 H 0.01529 0.39781 0.34916 0.0
H2174 H 0.96465 0.36161 0.39435 0.0
H2175 H 0.98147 0.38272 0.33627 0.0
H2176 H 0.89817 0.34801 0.36851 0.0
H2177 H 0.92927 0.36785 0.38031 0.0
H2178 H 0.9676 0.34865 0.33028 0.0
H2179 H 0.93619 0.32924 0.31812 0.0
C2180 C 0.99442 0.3787 0.39175 0.0
C2181 C 0.00933 0.38858 0.3792 0.0
C2182 C 0.97524 0.36987 0.38436 0.0
C2183 C 0.97044 0.37079 0.36424 0.0
C2184 C 0.98488 0.38144 0.3518 0.0
C2185 C 0.00415 0.39026 0.3592 0.0
C2186 C 0.91321 0.34801 0.35999 0.0
C2187 C 0.91473 0.33691 0.34242 0.0
C2188 C 0.93107 0.35938 0.36679 0.0
C2189 C 0.95097 0.35982 0.35629 0.0
C2190 C 0.95242 0.34889 0.3386 0.0
C2191 C 0.93448 0.3376 0.33171 0.0
H2192 H 0.64628 0.25627 0.61542 0.0
H2193 H 0.62711 0.23067 0.67119 0.0
H2194 H 0.64212 0.22273 0.60019 0.0
H2195 H 0.62236 0.19754 0.656 0.0
H2196 H 0.62533 0.13677 0.62806 0.0
H2197 H 0.63943 0.16885 0.64097 0.0
H2198 H 0.61195 0.20086 0.5913 0.0
H2199 H 0.5985 0.16872 0.57809 0.0
C2200 C 0.6414 0.24347 0.62446 0.0
C2201 C 0.63689 0.24617 0.64448 0.0
C2202 C 0.63888 0.22428 0.61571 0.0
C2203 C 0.6318 0.20741 0.62682 0.0
C2204 C 0.62815 0.21004 0.647 0.0
C2205 C 0.63071 0.22915 0.65572 0.0
C2206 C 0.62262 0.15061 0.61972 0.0
C2207 C 0.61055 0.1502 0.60215 0.0
C2208 C 0.63061 0.16903 0.62718 0.0
C2209 C 0.62654 0.18752 0.61735 0.0
C2210 C 0.61556 0.18694 0.59921 0.0
C2211 C 0.60773 0.16848 0.59167 0.0
H2212 H 0.41074 0.15566 0.6377 0.0
H2213 H 0.45057 0.17182 0.68783 0.0
H2214 H 0.44053 0.13461 0.62518 0.0
H2215 H 0.48071 0.15126 0.67494 0.0
H2216 H 0.52511 0.09995 0.65507 0.0
H2217 H 0.49264 0.11687 0.66853 0.0
H2218 H 0.47581 0.13881 0.61072 0.0
H2219 H 0.50766 0.12144 0.59726 0.0
C2220 C 0.42592 0.15485 0.64599 0.0
C2221 C 0.42832 0.16553 0.66372 0.0
C2222 C 0.44304 0.1428 0.63878 0.0
C2223 C 0.46305 0.14125 0.64902 0.0
C2224 C 0.4654 0.15184 0.66683 0.0
C2225 C 0.44819 0.16378 0.67413 0.0
C2226 C 0.51425 0.10811 0.64522 0.0
C2227 C 0.51899 0.1094 0.62512 0.0
C2228 C 0.49576 0.11797 0.65295 0.0
C2229 C 0.48171 0.12937 0.64074 0.0
C2230 C 0.4861 0.13 0.62054 0.0
C2231 C 0.50446 0.12009 0.61281 0.0
H2232 H 0.37878 0.36182 0.62892 0.0
H2233 H 0.40344 0.33024 0.57787 0.0
H2234 H 0.36515 0.32966 0.64204 0.0
H2235 H 0.3903 0.29802 0.59124 0.0
H2236 H 0.35448 0.24318 0.6158 0.0
H2237 H 0.35938 0.27677 0.60081 0.0
H2238 H 0.38301 0.30037 0.65605 0.0
H2239 H 0.37768 0.26714 0.67103 0.0
C2240 C 0.3811 0.34806 0.62039 0.0
C2241 C 0.39243 0.34859 0.60244 0.0
C2242 C 0.37339 0.32959 0.62797 0.0
C2243 C 0.37689 0.3112 0.61784 0.0
C2244 C 0.38716 0.31189 0.59938 0.0
C2245 C 0.3948 0.33039 0.59175 0.0
C2246 C 0.36043 0.25564 0.62478 0.0
C2247 C 0.3658 0.25247 0.64457 0.0
C2248 C 0.36335 0.27485 0.61617 0.0
C2249 C 0.37164 0.29127 0.6272 0.0
C2250 C 0.37629 0.28818 0.64716 0.0
C2251 C 0.37339 0.26904 0.65573 0.0
H2252 H 0.50111 0.39149 0.6017 0.0
H2253 H 0.46604 0.38565 0.65638 0.0
H2254 H 0.53244 0.37353 0.61577 0.0
H2255 H 0.49665 0.36653 0.67017 0.0
H2256 H 0.56161 0.34366 0.69465 0.0
H2257 H 0.53224 0.36534 0.68207 0.0
H2258 H 0.54292 0.34081 0.624 0.0
H2259 H 0.5731 0.32023 0.63647 0.0
C2260 C 0.50018 0.38643 0.61679 0.0
C2261 C 0.48117 0.38996 0.62794 0.0
C2262 C 0.51802 0.37588 0.62482 0.0
C2263 C 0.51705 0.36813 0.64406 0.0
C2264 C 0.49824 0.37237 0.65541 0.0
C2265 C 0.4806 0.38334 0.6475 0.0
C2266 C 0.55755 0.34288 0.67922 0.0
C2267 C 0.56964 0.33029 0.66653 0.0
C2268 C 0.54065 0.35529 0.67197 0.0
C2269 C 0.53516 0.35506 0.65192 0.0
C2270 C 0.54697 0.34195 0.63939 0.0
C2271 C 0.56415 0.32992 0.64657 0.0
H2272 H 0.91123 0.59539 0.84988 0.0
H2273 H 0.94897 0.54476 0.82705 0.0
H2274 H 0.90107 0.60507 0.81661 0.0
H2275 H 0.9387 0.55449 0.79379 0.0
H2276 H 0.87825 0.5593 0.74936 0.0
H2277 H 0.90091 0.55253 0.77807 0.0
H2278 H 0.91517 0.61684 0.78331 0.0
H2279 H 0.89254 0.62368 0.75447 0.0
C2280 C 0.91768 0.58655 0.83777 0.0
C2281 C 0.93066 0.56916 0.84113 0.0
C2282 C 0.91201 0.5922 0.8187 0.0
C2283 C 0.91905 0.58046 0.80265 0.0
C2284 C 0.93297 0.56372 0.80593 0.0
C2285 C 0.93884 0.55819 0.82498 0.0
C2286 C 0.88671 0.57193 0.75629 0.0
C2287 C 0.88336 0.59204 0.74982 0.0
C2288 C 0.89978 0.56805 0.77269 0.0
C2289 C 0.90955 0.58421 0.78302 0.0
C2290 C 0.9076 0.60414 0.77569 0.0
C2291 C 0.89476 0.60801 0.75912 0.0
H2292 H 0.88903 0.8728 0.45767 0.0
H2293 H 0.90998 0.82324 0.49504 0.0
H2294 H 0.88 0.84856 0.43201 0.0
H2295 H 0.90118 0.7989 0.46914 0.0
H2296 H 0.83841 0.7711 0.43738 0.0
H2297 H 0.86438 0.78883 0.45838 0.0
H2298 H 0.88939 0.82193 0.40838 0.0
H2299 H 0.86308 0.80434 0.38732 0.0
C2300 C 0.89237 0.85677 0.46019 0.0
C2301 C 0.89979 0.84992 0.47853 0.0
C2302 C 0.88733 0.84283 0.44539 0.0
C2303 C 0.88957 0.82174 0.44863 0.0
C2304 C 0.89896 0.81504 0.46632 0.0
C2305 C 0.90408 0.82901 0.48112 0.0
C2306 C 0.84992 0.78165 0.43073 0.0
C2307 C 0.84832 0.78666 0.41077 0.0
C2308 C 0.86495 0.79178 0.44278 0.0
C2309 C 0.87866 0.80712 0.43511 0.0
C2310 C 0.87873 0.81047 0.41477 0.0
C2311 C 0.86372 0.8003 0.4027 0.0
H2312 H 0.09387 0.88508 0.75494 0.0
H2313 H 0.11651 0.9476 0.75457 0.0
H2314 H 0.06896 0.89305 0.78192 0.0
H2315 H 0.09172 0.95546 0.78151 0.0
H2316 H 0.07046 0.90979 0.84961 0.0
H2317 H 0.0808 0.90074 0.81631 0.0
H2318 H 0.05342 0.95744 0.79519 0.0
H2319 H 0.04303 0.96659 0.82864 0.0
C2320 C 0.09309 0.90065 0.76021 0.0
C2321 C 0.10747 0.91564 0.75289 0.0
C2322 C 0.07888 0.90517 0.7757 0.0
C2323 C 0.07863 0.92479 0.78397 0.0
C2324 C 0.09146 0.94022 0.77539 0.0
C2325 C 0.1058 0.93567 0.76003 0.0
C2326 C 0.06619 0.92013 0.83783 0.0
C2327 C 0.05625 0.93903 0.84179 0.0
C2328 C 0.07194 0.91487 0.81871 0.0
C2329 C 0.06802 0.92846 0.80318 0.0
C2330 C 0.05675 0.94676 0.80693 0.0
C2331 C 0.05077 0.95195 0.82607 0.0
H2332 H 0.08317 0.67734 0.48147 0.0
H2333 H 0.10384 0.62365 0.44969 0.0
H2334 H 0.09486 0.69874 0.45415 0.0
H2335 H 0.11573 0.64499 0.42259 0.0
H2336 H 0.16186 0.72025 0.42477 0.0
H2337 H 0.13324 0.70572 0.44529 0.0
H2338 H 0.10977 0.67002 0.39636 0.0
H2339 H 0.13869 0.68445 0.37579 0.0
C2340 C 0.08959 0.67004 0.46843 0.0
C2341 C 0.09304 0.64883 0.4679 0.0
C2342 C 0.09636 0.68233 0.45281 0.0
C2343 C 0.10658 0.67361 0.43636 0.0
C2344 C 0.10783 0.65223 0.435 0.0
C2345 C 0.10114 0.63996 0.45062 0.0
C2346 C 0.15018 0.70981 0.41819 0.0
C2347 C 0.15286 0.70315 0.3988 0.0
C2348 C 0.13363 0.70154 0.42995 0.0
C2349 C 0.11945 0.68642 0.42254 0.0
C2350 C 0.12068 0.68139 0.40256 0.0
C2351 C 0.1372 0.68974 0.39076 0.0
H2352 H 0.89172 0.37784 0.74628 0.0
H2353 H 0.87507 0.44192 0.74834 0.0
H2354 H 0.91516 0.38411 0.71787 0.0
H2355 H 0.89859 0.44812 0.72004 0.0
H2356 H 0.94838 0.45471 0.67185 0.0
H2357 H 0.93729 0.44635 0.70531 0.0
H2358 H 0.9013 0.39415 0.68381 0.0
H2359 H 0.91218 0.40251 0.6504 0.0
C2360 C 0.89357 0.39335 0.74107 0.0
C2361 C 0.88128 0.40935 0.74936 0.0
C2362 C 0.90691 0.39689 0.72475 0.0
C2363 C 0.90846 0.41653 0.71666 0.0
C2364 C 0.89777 0.43283 0.72603 0.0
C2365 C 0.88421 0.42926 0.74219 0.0
C2366 C 0.93848 0.4412 0.6743 0.0
C2367 C 0.93094 0.42938 0.65847 0.0
C2368 C 0.93212 0.43648 0.69344 0.0
C2369 C 0.91843 0.41965 0.69711 0.0
C2370 C 0.91206 0.4071 0.68142 0.0
C2371 C 0.91814 0.41198 0.66227 0.0
H2372 H 0.58195 0.8134 0.50231 0.0
H2373 H 0.60126 0.86283 0.54048 0.0
H2374 H 0.59127 0.78885 0.52792 0.0
H2375 H 0.61076 0.83842 0.56586 0.0
H2376 H 0.65493 0.76272 0.56013 0.0
H2377 H 0.62832 0.77953 0.53904 0.0
H2378 H 0.60136 0.81126 0.58903 0.0
H2379 H 0.62828 0.79463 0.61018 0.0
C2380 C 0.58762 0.81907 0.51633 0.0
C2381 C 0.59127 0.84003 0.51927 0.0
C2382 C 0.59302 0.80499 0.53097 0.0
C2383 C 0.602 0.81165 0.54883 0.0
C2384 C 0.60371 0.83274 0.55235 0.0
C2385 C 0.59844 0.84677 0.53771 0.0
C2386 C 0.64284 0.77272 0.56677 0.0
C2387 C 0.6441 0.77777 0.58673 0.0
C2388 C 0.62746 0.78231 0.55466 0.0
C2389 C 0.61306 0.79711 0.56231 0.0
C2390 C 0.61257 0.80025 0.58267 0.0
C2391 C 0.62794 0.79063 0.59479 0.0
H2392 H 0.08929 0.09984 0.64924 0.0
H2393 H 0.04872 0.05115 0.67208 0.0
H2394 H 0.10153 0.10785 0.68244 0.0
H2395 H 0.06122 0.05908 0.70522 0.0
H2396 H 0.12353 0.06013 0.74841 0.0
H2397 H 0.10051 0.05489 0.71955 0.0
H2398 H 0.08761 0.11958 0.71668 0.0
H2399 H 0.11042 0.12488 0.74572 0.0
C2400 C 0.08272 0.09107 0.66136 0.0
C2401 C 0.06818 0.07478 0.65802 0.0
C2402 C 0.08961 0.09574 0.68036 0.0
C2403 C 0.08232 0.08403 0.69633 0.0
C2404 C 0.06711 0.06828 0.69312 0.0
C2405 C 0.05994 0.06381 0.67415 0.0
C2406 C 0.11529 0.07316 0.74196 0.0
C2407 C 0.11894 0.09292 0.74923 0.0
C2408 C 0.10206 0.07015 0.72548 0.0
C2409 C 0.0925 0.08688 0.71582 0.0
C2410 C 0.09496 0.10647 0.72381 0.0
C2411 C 0.1079 0.10946 0.74049 0.0
H2412 H 0.41615 0.64952 0.5409 0.0
H2413 H 0.38878 0.69182 0.4991 0.0
H2414 H 0.40489 0.67181 0.56763 0.0
H2415 H 0.37548 0.71306 0.52544 0.0
H2416 H 0.34639 0.74819 0.57257 0.0
H2417 H 0.37472 0.73451 0.55097 0.0
H2418 H 0.37368 0.67791 0.58379 0.0
H2419 H 0.34731 0.69235 0.60605 0.0
C2420 C 0.40784 0.6637 0.53749 0.0
C2421 C 0.4031 0.66888 0.51804 0.0
C2422 C 0.40109 0.67643 0.5528 0.0
C2423 C 0.38852 0.69412 0.54898 0.0
C2424 C 0.38521 0.69984 0.52929 0.0
C2425 C 0.39271 0.68752 0.51403 0.0
C2426 C 0.35286 0.73308 0.57541 0.0
C2427 C 0.34443 0.72123 0.59078 0.0
C2428 C 0.36891 0.72505 0.56288 0.0
C2429 C 0.37621 0.70472 0.56502 0.0
C2430 C 0.36891 0.69361 0.58146 0.0
C2431 C 0.35348 0.70188 0.5943 0.0
H2432 H 0.83867 0.84562 0.54658 0.0
H2433 H 0.80863 0.90535 0.5489 0.0
H2434 H 0.80637 0.83103 0.56253 0.0
H2435 H 0.77635 0.89063 0.56528 0.0
H2436 H 0.74255 0.85113 0.61836 0.0
H2437 H 0.77045 0.87034 0.60007 0.0
H2438 H 0.76426 0.82829 0.55179 0.0
H2439 H 0.73635 0.80933 0.56964 0.0
C2440 C 0.8252 0.85564 0.55053 0.0
C2441 C 0.82614 0.87661 0.54646 0.0
C2442 C 0.8067 0.84727 0.55957 0.0
C2443 C 0.78893 0.85975 0.56501 0.0
C2444 C 0.78989 0.88076 0.5612 0.0
C2445 C 0.80828 0.88911 0.55178 0.0
C2446 C 0.74676 0.84628 0.60367 0.0
C2447 C 0.73745 0.82852 0.59559 0.0
C2448 C 0.76269 0.85728 0.59323 0.0
C2449 C 0.76963 0.85053 0.57471 0.0
C2450 C 0.75934 0.8336 0.56617 0.0
C2451 C 0.74332 0.82279 0.57643 0.0
H2452 H 0.83492 0.09629 0.94634 0.0
H2453 H 0.84389 0.16028 0.95934 0.0
H2454 H 0.80149 0.10458 0.92761 0.0
H2455 H 0.81059 0.16834 0.94109 0.0
H2456 H 0.73992 0.17461 0.92583 0.0
H2457 H 0.76858 0.15909 0.94575 0.0
H2458 H 0.79392 0.12785 0.89493 0.0
H2459 H 0.76521 0.1436 0.87466 0.0
C2460 C 0.82968 0.11205 0.94532 0.0
C2461 C 0.84201 0.12765 0.95428 0.0
C2462 C 0.81066 0.11675 0.93458 0.0
C2463 C 0.80346 0.13704 0.9331 0.0
C2464 C 0.81568 0.15254 0.94222 0.0
C2465 C 0.83481 0.14793 0.95257 0.0
C2466 C 0.75127 0.16411 0.91889 0.0
C2467 C 0.75055 0.16067 0.89856 0.0
C2468 C 0.76766 0.15524 0.93034 0.0
C2469 C 0.78359 0.14259 0.92178 0.0
C2470 C 0.78177 0.13759 0.90183 0.0
C2471 C 0.76536 0.1466 0.89026 0.0
H2472 H 0.31465 0.96864 0.32093 0.0
H2473 H 0.34309 0.91583 0.34911 0.0
H2474 H 0.32801 0.99017 0.34733 0.0
H2475 H 0.35622 0.93743 0.37584 0.0
H2476 H 0.40721 0.98833 0.39359 0.0
H2477 H 0.38576 0.96247 0.37669 0.0
H2478 H 0.32767 0.00017 0.38163 0.0
H2479 H 0.34933 0.02633 0.3983 0.0
C2480 C 0.32329 0.96154 0.33302 0.0
C2481 C 0.32807 0.94056 0.33276 0.0
C2482 C 0.33084 0.97389 0.34828 0.0
C2483 C 0.34339 0.96557 0.36365 0.0
C2484 C 0.34686 0.94435 0.36408 0.0
C2485 C 0.33924 0.93196 0.34881 0.0
C2486 C 0.38975 0.99093 0.39152 0.0
C2487 C 0.38006 0.00954 0.39702 0.0
C2488 C 0.37738 0.97601 0.3819 0.0
C2489 C 0.35503 0.97936 0.37755 0.0
C2490 C 0.34494 0.99728 0.38447 0.0
C2491 C 0.35732 0.01221 0.39415 0.0
H2492 H 0.2386 0.34419 0.86935 0.0
H2493 H 0.26799 0.32946 0.92524 0.0
H2494 H 0.20892 0.36233 0.8862 0.0
H2495 H 0.23849 0.34772 0.94198 0.0
H2496 H 0.18597 0.39227 0.96475 0.0
H2497 H 0.21893 0.38255 0.94632 0.0
H2498 H 0.17901 0.34552 0.90792 0.0
H2499 H 0.14618 0.35497 0.92635 0.0
C2500 C 0.2391 0.34538 0.88517 0.0
C2501 C 0.25544 0.33524 0.89601 0.0
C2502 C 0.22206 0.35561 0.89479 0.0
C2503 C 0.22134 0.35617 0.91536 0.0
C2504 C 0.2387 0.34755 0.92611 0.0
C2505 C 0.25553 0.33706 0.91653 0.0
C2506 C 0.18424 0.38211 0.95232 0.0
C2507 C 0.16352 0.37425 0.94707 0.0
C2508 C 0.20307 0.37661 0.9418 0.0
C2509 C 0.20142 0.36347 0.92563 0.0
C2510 C 0.18067 0.35594 0.92016 0.0
C2511 C 0.16193 0.36116 0.93084 0.0
H2512 H 0.14356 0.96721 0.891 0.0
H2513 H 0.09592 0.01582 0.89622 0.0
H2514 H 0.1686 0.99038 0.87392 0.0
H2515 H 0.12046 0.03867 0.87886 0.0
H2516 H 0.16689 0.07904 0.84872 0.0
H2517 H 0.15376 0.05773 0.87558 0.0
H2518 H 0.16698 0.00381 0.84112 0.0
H2519 H 0.18067 0.02504 0.8146 0.0
C2520 C 0.13868 0.98296 0.88899 0.0
C2521 C 0.11764 0.98961 0.89472 0.0
C2522 C 0.15294 0.9962 0.87904 0.0
C2523 C 0.14643 0.01632 0.87469 0.0
C2524 C 0.12617 0.02337 0.882 0.0
C2525 C 0.11197 0.01018 0.8919 0.0
C2526 C 0.16747 0.06262 0.84707 0.0
C2527 C 0.17451 0.05375 0.8294 0.0
C2528 C 0.15985 0.0504 0.86244 0.0
C2529 C 0.15897 0.02905 0.86044 0.0
C2530 C 0.16756 0.02017 0.8433 0.0
C2531 C 0.17529 0.03238 0.82799 0.0
H2532 H 0.65204 0.15578 0.04356 0.0
H2533 H 0.68001 0.09574 0.05171 0.0
H2534 H 0.68325 0.17075 0.06085 0.0
H2535 H 0.71119 0.11084 0.06929 0.0
H2536 H 0.74138 0.15042 0.12262 0.0
H2537 H 0.71498 0.13141 0.10255 0.0
H2538 H 0.72531 0.17355 0.05487 0.0
H2539 H 0.75169 0.19241 0.0746 0.0
C2540 C 0.66488 0.1458 0.049 0.0
C2541 C 0.6636 0.12461 0.04628 0.0
C2542 C 0.68278 0.15437 0.05878 0.0
C2543 C 0.6996 0.14191 0.0663 0.0
C2544 C 0.69838 0.12072 0.06363 0.0
C2545 C 0.68062 0.11214 0.05351 0.0
C2546 C 0.73837 0.15537 0.10773 0.0
C2547 C 0.7484 0.1731 0.10033 0.0
C2548 C 0.7233 0.14447 0.09626 0.0
C2549 C 0.71795 0.15126 0.07732 0.0
C2550 C 0.72895 0.16822 0.06954 0.0
C2551 C 0.7441 0.17896 0.08087 0.0
H2552 H 0.40577 0.00993 0.10608 0.0
H2553 H 0.34834 0.97109 0.10396 0.0
H2554 H 0.38458 0.03595 0.12293 0.0
H2555 H 0.3269 0.99745 0.12054 0.0
H2556 H 0.31641 0.02921 0.18142 0.0
H2557 H 0.32866 0.00774 0.1546 0.0
H2558 H 0.35493 0.06063 0.1249 0.0
H2559 H 0.34297 0.08218 0.15209 0.0
C2560 C 0.38842 0.00719 0.10866 0.0
C2561 C 0.37885 0.98828 0.10401 0.0
C2562 C 0.37619 0.02221 0.11825 0.0
C2563 C 0.35411 0.01866 0.1234 0.0
C2564 C 0.344 0.00049 0.11711 0.0
C2565 C 0.35625 0.98544 0.10748 0.0
C2566 C 0.32441 0.03636 0.16902 0.0
C2567 C 0.32902 0.05736 0.16905 0.0
C2568 C 0.33129 0.02404 0.1535 0.0
C2569 C 0.34296 0.03242 0.13763 0.0
C2570 C 0.34624 0.05366 0.13704 0.0
C2571 C 0.33931 0.06601 0.15258 0.0
H2572 H 0.64292 0.432 0.15916 0.0
H2573 H 0.69747 0.47063 0.17527 0.0
H2574 H 0.63354 0.45494 0.13277 0.0
H2575 H 0.68948 0.49296 0.14762 0.0
H2576 H 0.64537 0.54383 0.12235 0.0
H2577 H 0.66568 0.51806 0.14014 0.0
H2578 H 0.63613 0.47119 0.10394 0.0
H2579 H 0.61419 0.4972 0.08756 0.0
C2580 C 0.65341 0.44509 0.15656 0.0
C2581 C 0.67069 0.44972 0.16942 0.0
C2582 C 0.64817 0.4583 0.1412 0.0
C2583 C 0.66048 0.47625 0.13796 0.0
C2584 C 0.67905 0.47979 0.14991 0.0
C2585 C 0.68384 0.46688 0.16568 0.0
C2586 C 0.64376 0.52805 0.11784 0.0
C2587 C 0.62808 0.52244 0.10377 0.0
C2588 C 0.65549 0.51311 0.12806 0.0
C2589 C 0.65223 0.4922 0.12404 0.0
C2590 C 0.63846 0.48694 0.10818 0.0
C2591 C 0.62614 0.50186 0.09847 0.0
loop_
_geom_bond_atom_site_label_1
_geom_bond_atom_site_label_2
_geom_bond_distance
_geom_bond_site_symmetry_2
_ccdc_geom_bond_type
O0 Cd1 2.223 . S
O0 C8 1.315 . S
Cd1 O0 2.223 . S
Cd1 O4 2.297 . S
Cd1 O5 2.439 . S
Cd1 O11 2.240 . S
Cd2 O3 2.240 . S
Cd2 O10 2.223 . S
Cd2 O12 2.297 . S
Cd2 O13 2.439 . S
O3 Cd2 2.240 . S
O3 C8 1.279 . S
O4 Cd1 2.297 . S
O4 C6 1.247 . S
O5 Cd1 2.439 . S
O5 C6 1.208 . S
C6 O4 1.247 . S
C6 O5 1.208 . S
C7 O12 1.247 . S
C7 O13 1.208 . S
C8 O0 1.315 . S
C8 O3 1.279 . S
C9 O10 1.315 . S
C9 O11 1.279 . S
O10 Cd2 2.223 . S
O10 C9 1.315 . S
O11 Cd1 2.240 . S
O11 C9 1.279 . S
O12 Cd2 2.297 . S
O12 C7 1.247 . S
O13 Cd2 2.439 . S
O13 C7 1.208 . S
O14 Cd15 2.223 . S
O14 C22 1.315 . S
Cd15 O14 2.223 . S
Cd15 O18 2.297 . S
Cd15 O19 2.439 . S
Cd15 O25 2.240 . S
Cd16 O17 2.240 . S
Cd16 O24 2.223 . S
Cd16 O26 2.297 . S
Cd16 O27 2.439 . S
O17 Cd16 2.240 . S
O17 C22 1.279 . S
O18 Cd15 2.297 . S
O18 C20 1.247 . S
O19 Cd15 2.439 . S
O19 C20 1.208 . S
C20 O18 1.247 . S
C20 O19 1.208 . S
C21 O26 1.247 . S
C21 O27 1.208 . S
C22 O14 1.315 . S
C22 O17 1.279 . S
C23 O24 1.315 . S
C23 O25 1.279 . S
O24 Cd16 2.223 . S
O24 C23 1.315 . S
O25 Cd15 2.240 . S
O25 C23 1.279 . S
O26 Cd16 2.297 . S
O26 C21 1.247 . S
O27 Cd16 2.439 . S
O27 C21 1.208 . S
O28 Cd29 2.223 . S
O28 C36 1.315 . S
Cd29 O28 2.223 . S
Cd29 O32 2.297 . S
Cd29 O33 2.439 . S
Cd29 O39 2.240 . S
Cd30 O31 2.240 . S
Cd30 O38 2.223 . S
Cd30 O40 2.297 . S
Cd30 O41 2.439 . S
O31 Cd30 2.240 . S
O31 C36 1.279 . S
O32 Cd29 2.297 . S
O32 C34 1.247 . S
O33 Cd29 2.439 . S
O33 C34 1.208 . S
C34 O32 1.247 . S
C34 O33 1.208 . S
C35 O40 1.247 . S
C35 O41 1.208 . S
C36 O28 1.315 . S
C36 O31 1.279 . S
C37 O38 1.315 . S
C37 O39 1.279 . S
O38 Cd30 2.223 . S
O38 C37 1.315 . S
O39 Cd29 2.240 . S
O39 C37 1.279 . S
O40 Cd30 2.297 . S
O40 C35 1.247 . S
O41 Cd30 2.439 . S
O41 C35 1.208 . S
O42 Cd43 2.223 . S
O42 C50 1.315 . S
Cd43 O42 2.223 . S
Cd43 O46 2.297 . S
Cd43 O47 2.439 . S
Cd43 O53 2.240 . S
Cd44 O45 2.240 . S
Cd44 O52 2.223 . S
Cd44 O54 2.297 . S
Cd44 O55 2.439 . S
O45 Cd44 2.240 . S
O45 C50 1.279 . S
O46 Cd43 2.297 . S
O46 C48 1.247 . S
O47 Cd43 2.439 . S
O47 C48 1.208 . S
C48 O46 1.247 . S
C48 O47 1.208 . S
C49 O54 1.247 . S
C49 O55 1.208 . S
C50 O42 1.315 . S
C50 O45 1.279 . S
C51 O52 1.315 . S
C51 O53 1.279 . S
O52 Cd44 2.223 . S
O52 C51 1.315 . S
O53 Cd43 2.240 . S
O53 C51 1.279 . S
O54 Cd44 2.297 . S
O54 C49 1.247 . S
O55 Cd44 2.439 . S
O55 C49 1.208 . S
O56 Cd57 2.223 . S
O56 C64 1.315 . S
Cd57 O56 2.223 . S
Cd57 O60 2.297 . S
Cd57 O61 2.439 . S
Cd57 O67 2.240 . S
Cd58 O59 2.240 . S
Cd58 O66 2.223 . S
Cd58 O68 2.297 . S
Cd58 O69 2.439 . S
O59 Cd58 2.240 . S
O59 C64 1.279 . S
O60 Cd57 2.297 . S
O60 C62 1.247 . S
O61 Cd57 2.439 . S
O61 C62 1.208 . S
C62 O60 1.247 . S
C62 O61 1.208 . S
C63 O68 1.247 . S
C63 O69 1.208 . S
C64 O56 1.315 . S
C64 O59 1.279 . S
C65 O66 1.315 . S
C65 O67 1.279 . S
O66 Cd58 2.223 . S
O66 C65 1.315 . S
O67 Cd57 2.240 . S
O67 C65 1.279 . S
O68 Cd58 2.297 . S
O68 C63 1.247 . S
O69 Cd58 2.439 . S
O69 C63 1.208 . S
O70 Cd71 2.223 1_455 S
O70 C78 1.315 . S
Cd71 O70 2.223 1_655 S
Cd71 O74 2.297 . S
Cd71 O75 2.439 . S
Cd71 O81 2.240 1_655 S
Cd72 O73 2.240 . S
Cd72 O80 2.223 . S
Cd72 O82 2.281 1_455 S
Cd72 O83 2.439 1_455 S
O73 Cd72 2.240 . S
O73 C78 1.279 . S
O74 Cd71 2.297 . S
O74 C76 1.247 . S
O75 Cd71 2.439 . S
O75 C76 1.208 . S
C76 O74 1.247 . S
C76 O75 1.208 . S
C77 O82 1.287 . S
C77 O83 1.208 . S
C78 O70 1.315 . S
C78 O73 1.279 . S
C79 O80 1.315 . S
C79 O81 1.279 . S
O80 Cd72 2.223 . S
O80 C79 1.315 . S
O81 Cd71 2.240 1_455 S
O81 C79 1.279 . S
O82 Cd72 2.281 1_655 S
O82 C77 1.287 . S
O83 Cd72 2.439 1_655 S
O83 C77 1.208 . S
O84 Cd85 2.223 . S
O84 C92 1.315 . S
Cd85 O84 2.223 . S
Cd85 O88 2.297 . S
Cd85 O89 2.439 . S
Cd85 O95 2.240 . S
Cd86 O87 2.240 . S
Cd86 O94 2.223 . S
Cd86 O96 2.297 . S
Cd86 O97 2.439 . S
O87 Cd86 2.240 . S
O87 C92 1.279 . S
O88 Cd85 2.297 . S
O88 C90 1.247 . S
O89 Cd85 2.439 . S
O89 C90 1.208 . S
C90 O88 1.247 . S
C90 O89 1.208 . S
C91 O96 1.247 . S
C91 O97 1.208 . S
C92 O84 1.315 . S
C92 O87 1.279 . S
C93 O94 1.315 . S
C93 O95 1.279 . S
O94 Cd86 2.223 . S
O94 C93 1.315 . S
O95 Cd85 2.240 . S
O95 C93 1.279 . S
O96 Cd86 2.297 . S
O96 C91 1.247 . S
O97 Cd86 2.439 . S
O97 C91 1.208 . S
O98 Cd99 2.223 1_655 S
O98 C106 1.315 . S
Cd99 O98 2.223 1_455 S
Cd99 O102 2.297 . S
Cd99 O103 2.439 . S
Cd99 O109 2.240 1_455 S
Cd100 O101 2.240 . S
Cd100 O108 2.223 . S
Cd100 O110 2.280 1_655 S
Cd100 O111 2.439 1_655 S
O101 Cd100 2.240 . S
O101 C106 1.279 . S
O102 Cd99 2.297 . S
O102 C104 1.247 . S
O103 Cd99 2.439 . S
O103 C104 1.208 . S
C104 O102 1.247 . S
C104 O103 1.208 . S
C105 O110 1.288 . S
C105 O111 1.208 . S
C106 O98 1.315 . S
C106 O101 1.279 . S
C107 O108 1.315 . S
C107 O109 1.279 . S
O108 Cd100 2.223 . S
O108 C107 1.315 . S
O109 Cd99 2.240 1_655 S
O109 C107 1.279 . S
O110 Cd100 2.280 1_455 S
O110 C105 1.288 . S
O111 Cd100 2.439 1_455 S
O111 C105 1.208 . S
O112 Cd113 2.223 . S
O112 C120 1.315 . S
Cd113 O112 2.223 . S
Cd113 O116 2.297 . S
Cd113 O117 2.439 . S
Cd113 O123 2.240 . S
Cd114 O115 2.240 . S
Cd114 O122 2.223 . S
Cd114 O124 2.297 . S
Cd114 O125 2.439 . S
O115 Cd114 2.240 . S
O115 C120 1.279 . S
O116 Cd113 2.297 . S
O116 C118 1.247 . S
O117 Cd113 2.439 . S
O117 C118 1.208 . S
C118 O116 1.247 . S
C118 O117 1.208 . S
C119 O124 1.247 . S
C119 O125 1.208 . S
C120 O112 1.315 . S
C120 O115 1.279 . S
C121 O122 1.315 . S
C121 O123 1.279 . S
O122 Cd114 2.223 . S
O122 C121 1.315 . S
O123 Cd113 2.240 . S
O123 C121 1.279 . S
O124 Cd114 2.297 . S
O124 C119 1.247 . S
O125 Cd114 2.439 . S
O125 C119 1.208 . S
O126 Cd127 2.223 1_554 S
O126 C134 1.315 . S
Cd127 O126 2.223 1_556 S
Cd127 O130 2.297 . S
Cd127 O131 2.439 . S
Cd127 O137 2.240 1_556 S
Cd128 O129 2.240 . S
Cd128 O136 2.223 . S
Cd128 O138 2.309 . S
Cd128 O139 2.439 1_554 S
O129 Cd128 2.240 . S
O129 C134 1.279 . S
O130 Cd127 2.297 . S
O130 C132 1.247 . S
O131 Cd127 2.439 . S
O131 C132 1.208 . S
C132 O130 1.247 . S
C132 O131 1.208 . S
C133 O138 1.217 1_556 S
C133 O139 1.208 . S
C134 O126 1.315 . S
C134 O129 1.279 . S
C135 O136 1.315 . S
C135 O137 1.279 . S
O136 Cd128 2.223 . S
O136 C135 1.315 . S
O137 Cd127 2.240 1_554 S
O137 C135 1.279 . S
O138 Cd128 2.309 . S
O138 C133 1.217 1_554 S
O139 Cd128 2.439 1_556 S
O139 C133 1.208 . S
O140 Cd141 2.223 . S
O140 C148 1.315 . S
Cd141 O140 2.223 . S
Cd141 O144 2.297 . S
Cd141 O145 2.439 . S
Cd141 O151 2.240 . S
Cd142 O143 2.240 . S
Cd142 O150 2.223 . S
Cd142 O152 2.297 . S
Cd142 O153 2.439 . S
O143 Cd142 2.240 . S
O143 C148 1.279 . S
O144 Cd141 2.297 . S
O144 C146 1.247 . S
O145 Cd141 2.439 . S
O145 C146 1.208 . S
C146 O144 1.247 . S
C146 O145 1.208 . S
C147 O152 1.247 . S
C147 O153 1.208 . S
C148 O140 1.315 . S
C148 O143 1.279 . S
C149 O150 1.315 . S
C149 O151 1.279 . S
O150 Cd142 2.223 . S
O150 C149 1.315 . S
O151 Cd141 2.240 . S
O151 C149 1.279 . S
O152 Cd142 2.297 . S
O152 C147 1.247 . S
O153 Cd142 2.439 . S
O153 C147 1.208 . S
O154 Cd155 2.223 1_554 S
O154 C162 1.315 . S
Cd155 O154 2.223 1_556 S
Cd155 O158 2.297 . S
Cd155 O159 2.439 . S
Cd155 O165 2.240 1_556 S
Cd156 O157 2.240 . S
Cd156 O164 2.223 . S
Cd156 O166 2.308 . S
Cd156 O167 2.439 1_554 S
O157 Cd156 2.240 . S
O157 C162 1.279 . S
O158 Cd155 2.297 . S
O158 C160 1.247 . S
O159 Cd155 2.439 . S
O159 C160 1.208 . S
C160 O158 1.247 . S
C160 O159 1.208 . S
C161 O166 1.221 1_556 S
C161 O167 1.208 . S
C162 O154 1.315 . S
C162 O157 1.279 . S
C163 O164 1.315 . S
C163 O165 1.279 . S
O164 Cd156 2.223 . S
O164 C163 1.315 . S
O165 Cd155 2.240 1_554 S
O165 C163 1.279 . S
O166 Cd156 2.308 . S
O166 C161 1.221 1_554 S
O167 Cd156 2.439 1_556 S
O167 C161 1.208 . S
O168 Cd169 2.223 . S
O168 C176 1.315 . S
Cd169 O168 2.223 . S
Cd169 O172 2.297 . S
Cd169 O173 2.439 . S
Cd169 O179 2.240 . S
Cd170 O171 2.240 . S
Cd170 O178 2.223 . S
Cd170 O180 2.297 . S
Cd170 O181 2.439 . S
O171 Cd170 2.240 . S
O171 C176 1.279 . S
O172 Cd169 2.297 . S
O172 C174 1.247 . S
O173 Cd169 2.439 . S
O173 C174 1.208 . S
C174 O172 1.247 . S
C174 O173 1.208 . S
C175 O180 1.247 . S
C175 O181 1.208 . S
C176 O168 1.315 . S
C176 O171 1.279 . S
C177 O178 1.315 . S
C177 O179 1.279 . S
O178 Cd170 2.223 . S
O178 C177 1.315 . S
O179 Cd169 2.240 . S
O179 C177 1.279 . S
O180 Cd170 2.297 . S
O180 C175 1.247 . S
O181 Cd170 2.439 . S
O181 C175 1.208 . S
O182 Cd183 2.223 1_556 S
O182 C190 1.315 . S
Cd183 O182 2.223 1_554 S
Cd183 O186 2.297 . S
Cd183 O187 2.439 . S
Cd183 O193 2.240 1_554 S
Cd184 O185 2.240 . S
Cd184 O192 2.223 . S
Cd184 O194 2.297 . S
Cd184 O195 2.439 1_556 S
O185 Cd184 2.240 . S
O185 C190 1.279 . S
O186 Cd183 2.297 . S
O186 C188 1.247 . S
O187 Cd183 2.439 . S
O187 C188 1.208 . S
C188 O186 1.247 . S
C188 O187 1.208 . S
C189 O194 1.247 1_554 S
C189 O195 1.208 . S
C190 O182 1.315 . S
C190 O185 1.279 . S
C191 O192 1.315 . S
C191 O193 1.279 . S
O192 Cd184 2.223 . S
O192 C191 1.315 . S
O193 Cd183 2.240 1_556 S
O193 C191 1.279 . S
O194 Cd184 2.297 . S
O194 C189 1.247 1_556 S
O195 Cd184 2.439 1_554 S
O195 C189 1.208 . S
O196 Cd197 2.223 . S
O196 C204 1.315 . S
Cd197 O196 2.223 . S
Cd197 O200 2.297 . S
Cd197 O201 2.439 . S
Cd197 O207 2.240 . S
Cd198 O199 2.240 . S
Cd198 O206 2.223 . S
Cd198 O208 2.297 . S
Cd198 O209 2.439 . S
O199 Cd198 2.240 . S
O199 C204 1.279 . S
O200 Cd197 2.297 . S
O200 C202 1.247 . S
O201 Cd197 2.439 . S
O201 C202 1.208 . S
C202 O200 1.247 . S
C202 O201 1.208 . S
C203 O208 1.247 . S
C203 O209 1.208 . S
C204 O196 1.315 . S
C204 O199 1.279 . S
C205 O206 1.315 . S
C205 O207 1.279 . S
O206 Cd198 2.223 . S
O206 C205 1.315 . S
O207 Cd197 2.240 . S
O207 C205 1.279 . S
O208 Cd198 2.297 . S
O208 C203 1.247 . S
O209 Cd198 2.439 . S
O209 C203 1.208 . S
O210 Cd211 2.223 1_556 S
O210 C218 1.315 . S
Cd211 O210 2.223 1_554 S
Cd211 O214 2.297 . S
Cd211 O215 2.439 . S
Cd211 O221 2.240 1_554 S
Cd212 O213 2.240 . S
Cd212 O220 2.223 . S
Cd212 O222 2.297 . S
Cd212 O223 2.439 1_556 S
O213 Cd212 2.240 . S
O213 C218 1.279 . S
O214 Cd211 2.297 . S
O214 C216 1.247 . S
O215 Cd211 2.439 . S
O215 C216 1.208 . S
C216 O214 1.247 . S
C216 O215 1.208 . S
C217 O222 1.247 1_554 S
C217 O223 1.208 . S
C218 O210 1.315 . S
C218 O213 1.279 . S
C219 O220 1.315 . S
C219 O221 1.279 . S
O220 Cd212 2.223 . S
O220 C219 1.315 . S
O221 Cd211 2.240 1_556 S
O221 C219 1.279 . S
O222 Cd212 2.297 . S
O222 C217 1.247 1_556 S
O223 Cd212 2.439 1_554 S
O223 C217 1.208 . S
O224 Cd225 2.223 . S
O224 C232 1.315 . S
Cd225 O224 2.223 . S
Cd225 O228 2.297 . S
Cd225 O229 2.439 . S
Cd225 O235 2.240 . S
Cd226 O227 2.240 . S
Cd226 O234 2.223 . S
Cd226 O236 2.297 . S
Cd226 O237 2.439 . S
O227 Cd226 2.240 . S
O227 C232 1.279 . S
O228 Cd225 2.297 . S
O228 C230 1.247 . S
O229 Cd225 2.439 . S
O229 C230 1.208 . S
C230 O228 1.247 . S
C230 O229 1.208 . S
C231 O236 1.247 . S
C231 O237 1.208 . S
C232 O224 1.315 . S
C232 O227 1.279 . S
C233 O234 1.315 . S
C233 O235 1.279 . S
O234 Cd226 2.223 . S
O234 C233 1.315 . S
O235 Cd225 2.240 . S
O235 C233 1.279 . S
O236 Cd226 2.297 . S
O236 C231 1.247 . S
O237 Cd226 2.439 . S
O237 C231 1.208 . S
O238 Cd239 2.223 . S
O238 C246 1.315 . S
Cd239 O238 2.223 . S
Cd239 O242 2.297 . S
Cd239 O243 2.439 . S
Cd239 O249 2.240 . S
Cd240 O241 2.240 . S
Cd240 O248 2.223 . S
Cd240 O250 2.297 . S
Cd240 O251 2.439 . S
O241 Cd240 2.240 . S
O241 C246 1.279 . S
O242 Cd239 2.297 . S
O242 C244 1.247 . S
O243 Cd239 2.439 . S
O243 C244 1.208 . S
C244 O242 1.247 . S
C244 O243 1.208 . S
C245 O250 1.247 . S
C245 O251 1.208 . S
C246 O238 1.315 . S
C246 O241 1.279 . S
C247 O248 1.315 . S
C247 O249 1.279 . S
O248 Cd240 2.223 . S
O248 C247 1.315 . S
O249 Cd239 2.240 . S
O249 C247 1.279 . S
O250 Cd240 2.297 . S
O250 C245 1.247 . S
O251 Cd240 2.439 . S
O251 C245 1.208 . S
O252 Cd253 2.223 . S
O252 C260 1.315 . S
Cd253 O252 2.223 . S
Cd253 O256 2.297 . S
Cd253 O257 2.439 . S
Cd253 O263 2.240 . S
Cd254 O255 2.240 . S
Cd254 O262 2.223 . S
Cd254 O264 2.297 . S
Cd254 O265 2.439 . S
O255 Cd254 2.240 . S
O255 C260 1.279 . S
O256 Cd253 2.297 . S
O256 C258 1.247 . S
O257 Cd253 2.439 . S
O257 C258 1.208 . S
C258 O256 1.247 . S
C258 O257 1.208 . S
C259 O264 1.247 . S
C259 O265 1.208 . S
C260 O252 1.315 . S
C260 O255 1.279 . S
C261 O262 1.315 . S
C261 O263 1.279 . S
O262 Cd254 2.223 . S
O262 C261 1.315 . S
O263 Cd253 2.240 . S
O263 C261 1.279 . S
O264 Cd254 2.297 . S
O264 C259 1.247 . S
O265 Cd254 2.439 . S
O265 C259 1.208 . S
O266 Cd267 2.223 . S
O266 C274 1.315 . S
Cd267 O266 2.223 . S
Cd267 O270 2.297 . S
Cd267 O271 2.439 . S
Cd267 O277 2.240 . S
Cd268 O269 2.240 . S
Cd268 O276 2.223 . S
Cd268 O278 2.297 . S
Cd268 O279 2.439 . S
O269 Cd268 2.240 . S
O269 C274 1.279 . S
O270 Cd267 2.297 . S
O270 C272 1.247 . S
O271 Cd267 2.439 . S
O271 C272 1.208 . S
C272 O270 1.247 . S
C272 O271 1.208 . S
C273 O278 1.247 . S
C273 O279 1.208 . S
C274 O266 1.315 . S
C274 O269 1.279 . S
C275 O276 1.315 . S
C275 O277 1.279 . S
O276 Cd268 2.223 . S
O276 C275 1.315 . S
O277 Cd267 2.240 . S
O277 C275 1.279 . S
O278 Cd268 2.297 . S
O278 C273 1.247 . S
O279 Cd268 2.439 . S
O279 C273 1.208 . S
O280 Cd281 2.223 . S
O280 C288 1.315 . S
Cd281 O280 2.223 . S
Cd281 O284 2.297 . S
Cd281 O285 2.439 . S
Cd281 O291 2.240 . S
Cd282 O283 2.240 . S
Cd282 O290 2.223 . S
Cd282 O292 2.297 . S
Cd282 O293 2.439 . S
O283 Cd282 2.240 . S
O283 C288 1.279 . S
O284 Cd281 2.297 . S
O284 C286 1.247 . S
O285 Cd281 2.439 . S
O285 C286 1.208 . S
C286 O284 1.247 . S
C286 O285 1.208 . S
C287 O292 1.247 . S
C287 O293 1.208 . S
C288 O280 1.315 . S
C288 O283 1.279 . S
C289 O290 1.315 . S
C289 O291 1.279 . S
O290 Cd282 2.223 . S
O290 C289 1.315 . S
O291 Cd281 2.240 . S
O291 C289 1.279 . S
O292 Cd282 2.297 . S
O292 C287 1.247 . S
O293 Cd282 2.439 . S
O293 C287 1.208 . S
O294 Cd295 2.223 . S
O294 C302 1.315 . S
Cd295 O294 2.223 . S
Cd295 O298 2.297 . S
Cd295 O299 2.439 . S
Cd295 O305 2.240 . S
Cd296 O297 2.240 . S
Cd296 O304 2.223 . S
Cd296 O306 2.297 . S
Cd296 O307 2.439 . S
O297 Cd296 2.240 . S
O297 C302 1.279 . S
O298 Cd295 2.297 . S
O298 C300 1.247 . S
O299 Cd295 2.439 . S
O299 C300 1.208 . S
C300 O298 1.247 . S
C300 O299 1.208 . S
C301 O306 1.247 . S
C301 O307 1.208 . S
C302 O294 1.315 . S
C302 O297 1.279 . S
C303 O304 1.315 . S
C303 O305 1.279 . S
O304 Cd296 2.223 . S
O304 C303 1.315 . S
O305 Cd295 2.240 . S
O305 C303 1.279 . S
O306 Cd296 2.297 . S
O306 C301 1.247 . S
O307 Cd296 2.439 . S
O307 C301 1.208 . S
O308 Cd309 2.223 . S
O308 C316 1.315 . S
Cd309 O308 2.223 . S
Cd309 O312 2.297 . S
Cd309 O313 2.439 . S
Cd309 O319 2.240 . S
Cd310 O311 2.240 . S
Cd310 O318 2.223 . S
Cd310 O320 2.297 . S
Cd310 O321 2.439 . S
O311 Cd310 2.240 . S
O311 C316 1.279 . S
O312 Cd309 2.297 . S
O312 C314 1.247 . S
O313 Cd309 2.439 . S
O313 C314 1.208 . S
C314 O312 1.247 . S
C314 O313 1.208 . S
C315 O320 1.247 . S
C315 O321 1.208 . S
C316 O308 1.315 . S
C316 O311 1.279 . S
C317 O318 1.315 . S
C317 O319 1.279 . S
O318 Cd310 2.223 . S
O318 C317 1.315 . S
O319 Cd309 2.240 . S
O319 C317 1.279 . S
O320 Cd310 2.297 . S
O320 C315 1.247 . S
O321 Cd310 2.439 . S
O321 C315 1.208 . S
O322 Cd323 2.223 1_545 S
O322 C330 1.315 . S
Cd323 O322 2.223 1_565 S
Cd323 O326 2.297 . S
Cd323 O327 2.439 . S
Cd323 O333 2.240 1_565 S
Cd324 O325 2.240 . S
Cd324 O332 2.223 . S
Cd324 O334 2.297 1_545 S
Cd324 O335 2.439 1_545 S
O325 Cd324 2.240 . S
O325 C330 1.279 . S
O326 Cd323 2.297 . S
O326 C328 1.247 . S
O327 Cd323 2.439 . S
O327 C328 1.208 . S
C328 O326 1.247 . S
C328 O327 1.208 . S
C329 O334 1.247 . S
C329 O335 1.208 . S
C330 O322 1.315 . S
C330 O325 1.279 . S
C331 O332 1.315 . S
C331 O333 1.279 . S
O332 Cd324 2.223 . S
O332 C331 1.315 . S
O333 Cd323 2.240 1_545 S
O333 C331 1.279 . S
O334 Cd324 2.297 1_565 S
O334 C329 1.247 . S
O335 Cd324 2.439 1_565 S
O335 C329 1.208 . S
O336 Cd337 2.223 . S
O336 C344 1.315 . S
Cd337 O336 2.223 . S
Cd337 O340 2.297 . S
Cd337 O341 2.439 . S
Cd337 O347 2.240 . S
Cd338 O339 2.240 . S
Cd338 O346 2.223 . S
Cd338 O348 2.297 . S
Cd338 O349 2.439 . S
O339 Cd338 2.240 . S
O339 C344 1.279 . S
O340 Cd337 2.297 . S
O340 C342 1.247 . S
O341 Cd337 2.439 . S
O341 C342 1.208 . S
C342 O340 1.247 . S
C342 O341 1.208 . S
C343 O348 1.247 . S
C343 O349 1.208 . S
C344 O336 1.315 . S
C344 O339 1.279 . S
C345 O346 1.315 . S
C345 O347 1.279 . S
O346 Cd338 2.223 . S
O346 C345 1.315 . S
O347 Cd337 2.240 . S
O347 C345 1.279 . S
O348 Cd338 2.297 . S
O348 C343 1.247 . S
O349 Cd338 2.439 . S
O349 C343 1.208 . S
O350 Cd351 2.223 1_655 S
O350 C358 1.315 . S
Cd351 O350 2.223 1_455 S
Cd351 O354 2.297 . S
Cd351 O355 2.439 . S
Cd351 O361 2.240 1_455 S
Cd352 O353 2.240 . S
Cd352 O360 2.223 . S
Cd352 O362 2.280 1_655 S
Cd352 O363 2.439 1_655 S
O353 Cd352 2.240 . S
O353 C358 1.279 . S
O354 Cd351 2.297 . S
O354 C356 1.247 . S
O355 Cd351 2.439 . S
O355 C356 1.208 . S
C356 O354 1.247 . S
C356 O355 1.208 . S
C357 O362 1.288 . S
C357 O363 1.208 . S
C358 O350 1.315 . S
C358 O353 1.279 . S
C359 O360 1.315 . S
C359 O361 1.279 . S
O360 Cd352 2.223 . S
O360 C359 1.315 . S
O361 Cd351 2.240 1_655 S
O361 C359 1.279 . S
O362 Cd352 2.280 1_455 S
O362 C357 1.288 . S
O363 Cd352 2.439 1_455 S
O363 C357 1.208 . S
O364 Cd365 2.223 . S
O364 C372 1.315 . S
Cd365 O364 2.223 . S
Cd365 O368 2.297 . S
Cd365 O369 2.439 . S
Cd365 O375 2.240 . S
Cd366 O367 2.240 . S
Cd366 O374 2.223 . S
Cd366 O376 2.297 . S
Cd366 O377 2.439 . S
O367 Cd366 2.240 . S
O367 C372 1.279 . S
O368 Cd365 2.297 . S
O368 C370 1.247 . S
O369 Cd365 2.439 . S
O369 C370 1.208 . S
C370 O368 1.247 . S
C370 O369 1.208 . S
C371 O376 1.247 . S
C371 O377 1.208 . S
C372 O364 1.315 . S
C372 O367 1.279 . S
C373 O374 1.315 . S
C373 O375 1.279 . S
O374 Cd366 2.223 . S
O374 C373 1.315 . S
O375 Cd365 2.240 . S
O375 C373 1.279 . S
O376 Cd366 2.297 . S
O376 C371 1.247 . S
O377 Cd366 2.439 . S
O377 C371 1.208 . S
O378 Cd379 2.223 1_455 S
O378 C386 1.315 . S
Cd379 O378 2.223 1_655 S
Cd379 O382 2.297 . S
Cd379 O383 2.439 . S
Cd379 O389 2.240 1_655 S
Cd380 O381 2.240 . S
Cd380 O388 2.223 . S
Cd380 O390 2.280 1_455 S
Cd380 O391 2.439 1_455 S
O381 Cd380 2.240 . S
O381 C386 1.279 . S
O382 Cd379 2.297 . S
O382 C384 1.247 . S
O383 Cd379 2.439 . S
O383 C384 1.208 . S
C384 O382 1.247 . S
C384 O383 1.208 . S
C385 O390 1.287 . S
C385 O391 1.208 . S
C386 O378 1.315 . S
C386 O381 1.279 . S
C387 O388 1.315 . S
C387 O389 1.279 . S
O388 Cd380 2.223 . S
O388 C387 1.315 . S
O389 Cd379 2.240 1_455 S
O389 C387 1.279 . S
O390 Cd380 2.280 1_655 S
O390 C385 1.287 . S
O391 Cd380 2.439 1_655 S
O391 C385 1.208 . S
O392 Cd393 2.223 . S
O392 C400 1.315 . S
Cd393 O392 2.223 . S
Cd393 O396 2.297 . S
Cd393 O397 2.439 . S
Cd393 O403 2.240 . S
Cd394 O395 2.240 . S
Cd394 O402 2.223 . S
Cd394 O404 2.297 . S
Cd394 O405 2.439 . S
O395 Cd394 2.240 . S
O395 C400 1.279 . S
O396 Cd393 2.297 . S
O396 C398 1.247 . S
O397 Cd393 2.439 . S
O397 C398 1.208 . S
C398 O396 1.247 . S
C398 O397 1.208 . S
C399 O404 1.247 . S
C399 O405 1.208 . S
C400 O392 1.315 . S
C400 O395 1.279 . S
C401 O402 1.315 . S
C401 O403 1.279 . S
O402 Cd394 2.223 . S
O402 C401 1.315 . S
O403 Cd393 2.240 . S
O403 C401 1.279 . S
O404 Cd394 2.297 . S
O404 C399 1.247 . S
O405 Cd394 2.439 . S
O405 C399 1.208 . S
O406 Cd407 2.223 . S
O406 C414 1.315 . S
Cd407 O406 2.223 . S
Cd407 O410 2.297 . S
Cd407 O411 2.439 . S
Cd407 O417 2.240 . S
Cd408 O409 2.240 . S
Cd408 O416 2.223 . S
Cd408 O418 2.297 . S
Cd408 O419 2.439 . S
O409 Cd408 2.240 . S
O409 C414 1.279 . S
O410 Cd407 2.297 . S
O410 C412 1.247 . S
O411 Cd407 2.439 . S
O411 C412 1.208 . S
C412 O410 1.247 . S
C412 O411 1.208 . S
C413 O418 1.247 . S
C413 O419 1.208 . S
C414 O406 1.315 . S
C414 O409 1.279 . S
C415 O416 1.315 . S
C415 O417 1.279 . S
O416 Cd408 2.223 . S
O416 C415 1.315 . S
O417 Cd407 2.240 . S
O417 C415 1.279 . S
O418 Cd408 2.297 . S
O418 C413 1.247 . S
O419 Cd408 2.439 . S
O419 C413 1.208 . S
O420 Cd421 2.223 . S
O420 C428 1.315 . S
Cd421 O420 2.223 . S
Cd421 O424 2.297 . S
Cd421 O425 2.439 . S
Cd421 O431 2.240 . S
Cd422 O423 2.240 . S
Cd422 O430 2.223 . S
Cd422 O432 2.297 . S
Cd422 O433 2.439 . S
O423 Cd422 2.240 . S
O423 C428 1.279 . S
O424 Cd421 2.297 . S
O424 C426 1.247 . S
O425 Cd421 2.439 . S
O425 C426 1.208 . S
C426 O424 1.247 . S
C426 O425 1.208 . S
C427 O432 1.247 . S
C427 O433 1.208 . S
C428 O420 1.315 . S
C428 O423 1.279 . S
C429 O430 1.315 . S
C429 O431 1.279 . S
O430 Cd422 2.223 . S
O430 C429 1.315 . S
O431 Cd421 2.240 . S
O431 C429 1.279 . S
O432 Cd422 2.297 . S
O432 C427 1.247 . S
O433 Cd422 2.439 . S
O433 C427 1.208 . S
O434 Cd435 2.223 . S
O434 C442 1.315 . S
Cd435 O434 2.223 . S
Cd435 O438 2.297 . S
Cd435 O439 2.439 . S
Cd435 O445 2.240 . S
Cd436 O437 2.240 . S
Cd436 O444 2.223 . S
Cd436 O446 2.297 . S
Cd436 O447 2.439 . S
O437 Cd436 2.240 . S
O437 C442 1.279 . S
O438 Cd435 2.297 . S
O438 C440 1.247 . S
O439 Cd435 2.439 . S
O439 C440 1.208 . S
C440 O438 1.247 . S
C440 O439 1.208 . S
C441 O446 1.247 . S
C441 O447 1.208 . S
C442 O434 1.315 . S
C442 O437 1.279 . S
C443 O444 1.315 . S
C443 O445 1.279 . S
O444 Cd436 2.223 . S
O444 C443 1.315 . S
O445 Cd435 2.240 . S
O445 C443 1.279 . S
O446 Cd436 2.297 . S
O446 C441 1.247 . S
O447 Cd436 2.439 . S
O447 C441 1.208 . S
O448 Cd449 2.223 . S
O448 C456 1.315 . S
Cd449 O448 2.223 . S
Cd449 O452 2.297 . S
Cd449 O453 2.439 . S
Cd449 O459 2.240 . S
Cd450 O451 2.240 . S
Cd450 O458 2.223 . S
Cd450 O460 2.297 . S
Cd450 O461 2.439 . S
O451 Cd450 2.240 . S
O451 C456 1.279 . S
O452 Cd449 2.297 . S
O452 C454 1.247 . S
O453 Cd449 2.439 . S
O453 C454 1.208 . S
C454 O452 1.247 . S
C454 O453 1.208 . S
C455 O460 1.247 . S
C455 O461 1.208 . S
C456 O448 1.315 . S
C456 O451 1.279 . S
C457 O458 1.315 . S
C457 O459 1.279 . S
O458 Cd450 2.223 . S
O458 C457 1.315 . S
O459 Cd449 2.240 . S
O459 C457 1.279 . S
O460 Cd450 2.297 . S
O460 C455 1.247 . S
O461 Cd450 2.439 . S
O461 C455 1.208 . S
O462 Cd463 2.223 . S
O462 C470 1.315 . S
Cd463 O462 2.223 . S
Cd463 O466 2.297 . S
Cd463 O467 2.439 . S
Cd463 O473 2.240 . S
Cd464 O465 2.240 . S
Cd464 O472 2.223 . S
Cd464 O474 2.297 . S
Cd464 O475 2.439 . S
O465 Cd464 2.240 . S
O465 C470 1.279 . S
O466 Cd463 2.297 . S
O466 C468 1.247 . S
O467 Cd463 2.439 . S
O467 C468 1.208 . S
C468 O466 1.247 . S
C468 O467 1.208 . S
C469 O474 1.247 . S
C469 O475 1.208 . S
C470 O462 1.315 . S
C470 O465 1.279 . S
C471 O472 1.315 . S
C471 O473 1.279 . S
O472 Cd464 2.223 . S
O472 C471 1.315 . S
O473 Cd463 2.240 . S
O473 C471 1.279 . S
O474 Cd464 2.297 . S
O474 C469 1.247 . S
O475 Cd464 2.439 . S
O475 C469 1.208 . S
O476 Cd477 2.223 . S
O476 C484 1.315 . S
Cd477 O476 2.223 . S
Cd477 O480 2.297 . S
Cd477 O481 2.439 . S
Cd477 O487 2.240 . S
Cd478 O479 2.240 . S
Cd478 O486 2.223 . S
Cd478 O488 2.297 . S
Cd478 O489 2.439 . S
O479 Cd478 2.240 . S
O479 C484 1.279 . S
O480 Cd477 2.297 . S
O480 C482 1.247 . S
O481 Cd477 2.439 . S
O481 C482 1.208 . S
C482 O480 1.247 . S
C482 O481 1.208 . S
C483 O488 1.247 . S
C483 O489 1.208 . S
C484 O476 1.315 . S
C484 O479 1.279 . S
C485 O486 1.315 . S
C485 O487 1.279 . S
O486 Cd478 2.223 . S
O486 C485 1.315 . S
O487 Cd477 2.240 . S
O487 C485 1.279 . S
O488 Cd478 2.297 . S
O488 C483 1.247 . S
O489 Cd478 2.439 . S
O489 C483 1.208 . S
O490 Cd491 2.223 . S
O490 C498 1.315 . S
Cd491 O490 2.223 . S
Cd491 O494 2.297 . S
Cd491 O495 2.439 . S
Cd491 O501 2.240 . S
Cd492 O493 2.240 . S
Cd492 O500 2.223 . S
Cd492 O502 2.297 . S
Cd492 O503 2.439 . S
O493 Cd492 2.240 . S
O493 C498 1.279 . S
O494 Cd491 2.297 . S
O494 C496 1.247 . S
O495 Cd491 2.439 . S
O495 C496 1.208 . S
C496 O494 1.247 . S
C496 O495 1.208 . S
C497 O502 1.247 . S
C497 O503 1.208 . S
C498 O490 1.315 . S
C498 O493 1.279 . S
C499 O500 1.315 . S
C499 O501 1.279 . S
O500 Cd492 2.223 . S
O500 C499 1.315 . S
O501 Cd491 2.240 . S
O501 C499 1.279 . S
O502 Cd492 2.297 . S
O502 C497 1.247 . S
O503 Cd492 2.439 . S
O503 C497 1.208 . S
O504 Cd505 2.223 . S
O504 C512 1.315 . S
Cd505 O504 2.223 . S
Cd505 O508 2.297 . S
Cd505 O509 2.439 . S
Cd505 O515 2.240 . S
Cd506 O507 2.240 . S
Cd506 O514 2.223 . S
Cd506 O516 2.297 . S
Cd506 O517 2.439 . S
O507 Cd506 2.240 . S
O507 C512 1.279 . S
O508 Cd505 2.297 . S
O508 C510 1.247 . S
O509 Cd505 2.439 . S
O509 C510 1.208 . S
C510 O508 1.247 . S
C510 O509 1.208 . S
C511 O516 1.247 . S
C511 O517 1.208 . S
C512 O504 1.315 . S
C512 O507 1.279 . S
C513 O514 1.315 . S
C513 O515 1.279 . S
O514 Cd506 2.223 . S
O514 C513 1.315 . S
O515 Cd505 2.240 . S
O515 C513 1.279 . S
O516 Cd506 2.297 . S
O516 C511 1.247 . S
O517 Cd506 2.439 . S
O517 C511 1.208 . S
O518 Cd519 2.223 . S
O518 C526 1.315 . S
Cd519 O518 2.223 . S
Cd519 O522 2.297 . S
Cd519 O523 2.439 . S
Cd519 O529 2.240 . S
Cd520 O521 2.240 . S
Cd520 O528 2.223 . S
Cd520 O530 2.297 . S
Cd520 O531 2.439 . S
O521 Cd520 2.240 . S
O521 C526 1.279 . S
O522 Cd519 2.297 . S
O522 C524 1.247 . S
O523 Cd519 2.439 . S
O523 C524 1.208 . S
C524 O522 1.247 . S
C524 O523 1.208 . S
C525 O530 1.247 . S
C525 O531 1.208 . S
C526 O518 1.315 . S
C526 O521 1.279 . S
C527 O528 1.315 . S
C527 O529 1.279 . S
O528 Cd520 2.223 . S
O528 C527 1.315 . S
O529 Cd519 2.240 . S
O529 C527 1.279 . S
O530 Cd520 2.297 . S
O530 C525 1.247 . S
O531 Cd520 2.439 . S
O531 C525 1.208 . S
O532 Cd533 2.223 . S
O532 C540 1.315 . S
Cd533 O532 2.223 . S
Cd533 O536 2.297 . S
Cd533 O537 2.439 . S
Cd533 O543 2.240 . S
Cd534 O535 2.240 . S
Cd534 O542 2.223 . S
Cd534 O544 2.297 . S
Cd534 O545 2.439 . S
O535 Cd534 2.240 . S
O535 C540 1.279 . S
O536 Cd533 2.297 . S
O536 C538 1.247 . S
O537 Cd533 2.439 . S
O537 C538 1.208 . S
C538 O536 1.247 . S
C538 O537 1.208 . S
C539 O544 1.247 . S
C539 O545 1.208 . S
C540 O532 1.315 . S
C540 O535 1.279 . S
C541 O542 1.315 . S
C541 O543 1.279 . S
O542 Cd534 2.223 . S
O542 C541 1.315 . S
O543 Cd533 2.240 . S
O543 C541 1.279 . S
O544 Cd534 2.297 . S
O544 C539 1.247 . S
O545 Cd534 2.439 . S
O545 C539 1.208 . S
O546 Cd547 2.223 . S
O546 C554 1.315 . S
Cd547 O546 2.223 . S
Cd547 O550 2.297 . S
Cd547 O551 2.439 . S
Cd547 O557 2.240 . S
Cd548 O549 2.240 . S
Cd548 O556 2.223 . S
Cd548 O558 2.297 . S
Cd548 O559 2.439 . S
O549 Cd548 2.240 . S
O549 C554 1.279 . S
O550 Cd547 2.297 . S
O550 C552 1.247 . S
O551 Cd547 2.439 . S
O551 C552 1.208 . S
C552 O550 1.247 . S
C552 O551 1.208 . S
C553 O558 1.247 . S
C553 O559 1.208 . S
C554 O546 1.315 . S
C554 O549 1.279 . S
C555 O556 1.315 . S
C555 O557 1.279 . S
O556 Cd548 2.223 . S
O556 C555 1.315 . S
O557 Cd547 2.240 . S
O557 C555 1.279 . S
O558 Cd548 2.297 . S
O558 C553 1.247 . S
O559 Cd548 2.439 . S
O559 C553 1.208 . S
O560 Cd561 2.223 . S
O560 C568 1.315 . S
Cd561 O560 2.223 . S
Cd561 O564 2.297 . S
Cd561 O565 2.439 . S
Cd561 O571 2.240 . S
Cd562 O563 2.240 . S
Cd562 O570 2.223 . S
Cd562 O572 2.297 . S
Cd562 O573 2.439 . S
O563 Cd562 2.240 . S
O563 C568 1.279 . S
O564 Cd561 2.297 . S
O564 C566 1.247 . S
O565 Cd561 2.439 . S
O565 C566 1.208 . S
C566 O564 1.247 . S
C566 O565 1.208 . S
C567 O572 1.247 . S
C567 O573 1.208 . S
C568 O560 1.315 . S
C568 O563 1.279 . S
C569 O570 1.315 . S
C569 O571 1.279 . S
O570 Cd562 2.223 . S
O570 C569 1.315 . S
O571 Cd561 2.240 . S
O571 C569 1.279 . S
O572 Cd562 2.297 . S
O572 C567 1.247 . S
O573 Cd562 2.439 . S
O573 C567 1.208 . S
O574 Cd575 2.223 . S
O574 C582 1.315 . S
Cd575 O574 2.223 . S
Cd575 O578 2.297 . S
Cd575 O579 2.439 . S
Cd575 O585 2.240 . S
Cd576 O577 2.240 . S
Cd576 O584 2.223 . S
Cd576 O586 2.297 . S
Cd576 O587 2.439 . S
O577 Cd576 2.240 . S
O577 C582 1.279 . S
O578 Cd575 2.297 . S
O578 C580 1.247 . S
O579 Cd575 2.439 . S
O579 C580 1.208 . S
C580 O578 1.247 . S
C580 O579 1.208 . S
C581 O586 1.247 . S
C581 O587 1.208 . S
C582 O574 1.315 . S
C582 O577 1.279 . S
C583 O584 1.315 . S
C583 O585 1.279 . S
O584 Cd576 2.223 . S
O584 C583 1.315 . S
O585 Cd575 2.240 . S
O585 C583 1.279 . S
O586 Cd576 2.297 . S
O586 C581 1.247 . S
O587 Cd576 2.439 . S
O587 C581 1.208 . S
O588 Cd589 2.223 1_545 S
O588 C596 1.315 . S
Cd589 O588 2.223 1_565 S
Cd589 O592 2.297 . S
Cd589 O593 2.439 . S
Cd589 O599 2.240 1_565 S
Cd590 O591 2.240 . S
Cd590 O598 2.223 . S
Cd590 O600 2.281 1_545 S
Cd590 O601 2.439 1_545 S
O591 Cd590 2.240 . S
O591 C596 1.279 . S
O592 Cd589 2.297 . S
O592 C594 1.247 . S
O593 Cd589 2.439 . S
O593 C594 1.208 . S
C594 O592 1.247 . S
C594 O593 1.208 . S
C595 O600 1.288 . S
C595 O601 1.208 . S
C596 O588 1.315 . S
C596 O591 1.279 . S
C597 O598 1.315 . S
C597 O599 1.279 . S
O598 Cd590 2.223 . S
O598 C597 1.315 . S
O599 Cd589 2.240 1_545 S
O599 C597 1.279 . S
O600 Cd590 2.281 1_565 S
O600 C595 1.288 . S
O601 Cd590 2.439 1_565 S
O601 C595 1.208 . S
O602 Cd603 2.223 . S
O602 C610 1.315 . S
Cd603 O602 2.223 . S
Cd603 O606 2.297 . S
Cd603 O607 2.439 . S
Cd603 O613 2.240 . S
Cd604 O605 2.240 . S
Cd604 O612 2.223 . S
Cd604 O614 2.297 . S
Cd604 O615 2.439 . S
O605 Cd604 2.240 . S
O605 C610 1.279 . S
O606 Cd603 2.297 . S
O606 C608 1.247 . S
O607 Cd603 2.439 . S
O607 C608 1.208 . S
C608 O606 1.247 . S
C608 O607 1.208 . S
C609 O614 1.247 . S
C609 O615 1.208 . S
C610 O602 1.315 . S
C610 O605 1.279 . S
C611 O612 1.315 . S
C611 O613 1.279 . S
O612 Cd604 2.223 . S
O612 C611 1.315 . S
O613 Cd603 2.240 . S
O613 C611 1.279 . S
O614 Cd604 2.297 . S
O614 C609 1.247 . S
O615 Cd604 2.439 . S
O615 C609 1.208 . S
O616 Cd617 2.223 1_565 S
O616 C624 1.315 . S
Cd617 O616 2.223 1_545 S
Cd617 O620 2.297 . S
Cd617 O621 2.439 . S
Cd617 O627 2.240 1_545 S
Cd618 O619 2.240 . S
Cd618 O626 2.223 . S
Cd618 O628 2.297 1_565 S
Cd618 O629 2.439 1_565 S
O619 Cd618 2.240 . S
O619 C624 1.279 . S
O620 Cd617 2.297 . S
O620 C622 1.247 . S
O621 Cd617 2.439 . S
O621 C622 1.208 . S
C622 O620 1.247 . S
C622 O621 1.208 . S
C623 O628 1.247 . S
C623 O629 1.208 . S
C624 O616 1.315 . S
C624 O619 1.279 . S
C625 O626 1.315 . S
C625 O627 1.279 . S
O626 Cd618 2.223 . S
O626 C625 1.315 . S
O627 Cd617 2.240 1_565 S
O627 C625 1.279 . S
O628 Cd618 2.297 1_545 S
O628 C623 1.247 . S
O629 Cd618 2.439 1_545 S
O629 C623 1.208 . S
O630 Cd631 2.223 . S
O630 C638 1.315 . S
Cd631 O630 2.223 . S
Cd631 O634 2.297 . S
Cd631 O635 2.439 . S
Cd631 O641 2.240 . S
Cd632 O633 2.240 . S
Cd632 O640 2.223 . S
Cd632 O642 2.297 . S
Cd632 O643 2.439 . S
O633 Cd632 2.240 . S
O633 C638 1.279 . S
O634 Cd631 2.297 . S
O634 C636 1.247 . S
O635 Cd631 2.439 . S
O635 C636 1.208 . S
C636 O634 1.247 . S
C636 O635 1.208 . S
C637 O642 1.247 . S
C637 O643 1.208 . S
C638 O630 1.315 . S
C638 O633 1.279 . S
C639 O640 1.315 . S
C639 O641 1.279 . S
O640 Cd632 2.223 . S
O640 C639 1.315 . S
O641 Cd631 2.240 . S
O641 C639 1.279 . S
O642 Cd632 2.297 . S
O642 C637 1.247 . S
O643 Cd632 2.439 . S
O643 C637 1.208 . S
O644 Cd645 2.223 1_565 S
O644 C652 1.315 . S
Cd645 O644 2.223 1_545 S
Cd645 O648 2.297 . S
Cd645 O649 2.439 . S
Cd645 O655 2.240 1_545 S
Cd646 O647 2.240 . S
Cd646 O654 2.223 . S
Cd646 O656 2.282 1_565 S
Cd646 O657 2.439 1_565 S
O647 Cd646 2.240 . S
O647 C652 1.279 . S
O648 Cd645 2.297 . S
O648 C650 1.247 . S
O649 Cd645 2.439 . S
O649 C650 1.208 . S
C650 O648 1.247 . S
C650 O649 1.208 . S
C651 O656 1.286 . S
C651 O657 1.208 . S
C652 O644 1.315 . S
C652 O647 1.279 . S
C653 O654 1.315 . S
C653 O655 1.279 . S
O654 Cd646 2.223 . S
O654 C653 1.315 . S
O655 Cd645 2.240 1_565 S
O655 C653 1.279 . S
O656 Cd646 2.282 1_545 S
O656 C651 1.286 . S
O657 Cd646 2.439 1_545 S
O657 C651 1.208 . S
O658 Cd659 2.223 . S
O658 C666 1.315 . S
Cd659 O658 2.223 . S
Cd659 O662 2.297 . S
Cd659 O663 2.439 . S
Cd659 O669 2.240 . S
Cd660 O661 2.240 . S
Cd660 O668 2.223 . S
Cd660 O670 2.297 . S
Cd660 O671 2.439 . S
O661 Cd660 2.240 . S
O661 C666 1.279 . S
O662 Cd659 2.297 . S
O662 C664 1.247 . S
O663 Cd659 2.439 . S
O663 C664 1.208 . S
C664 O662 1.247 . S
C664 O663 1.208 . S
C665 O670 1.247 . S
C665 O671 1.208 . S
C666 O658 1.315 . S
C666 O661 1.279 . S
C667 O668 1.315 . S
C667 O669 1.279 . S
O668 Cd660 2.223 . S
O668 C667 1.315 . S
O669 Cd659 2.240 . S
O669 C667 1.279 . S
O670 Cd660 2.297 . S
O670 C665 1.247 . S
O671 Cd660 2.439 . S
O671 C665 1.208 . S
H672 C680 0.950 . S
H673 C685 0.950 . S
H674 C682 0.950 . S
H675 C684 0.950 . S
H676 C686 0.950 . S
H677 C688 0.950 . S
H678 C690 0.950 . S
H679 C691 0.950 . S
C680 H672 0.950 . S
C680 C681 1.386 . S
C680 C682 1.391 . S
C681 C680 1.386 . S
C681 C685 1.393 . S
C682 H674 0.950 . S
C682 C680 1.391 . S
C682 C683 1.400 . S
C683 C682 1.400 . S
C683 C684 1.398 . S
C683 C689 1.491 . S
C684 H675 0.950 . S
C684 C683 1.398 . S
C684 C685 1.391 . S
C685 H673 0.950 . S
C685 C681 1.393 . S
C685 C684 1.391 . S
C686 H676 0.950 . S
C686 C687 1.386 . S
C686 C688 1.391 . S
C687 C686 1.386 . S
C687 C691 1.393 . S
C688 H677 0.950 . S
C688 C686 1.391 . S
C688 C689 1.400 . S
C689 C683 1.491 . S
C689 C688 1.400 . S
C689 C690 1.398 . S
C690 H678 0.950 . S
C690 C689 1.398 . S
C690 C691 1.391 . S
C691 H679 0.950 . S
C691 C687 1.393 . S
C691 C690 1.391 . S
H692 C700 0.950 . S
H693 C705 0.950 . S
H694 C702 0.950 . S
H695 C704 0.950 . S
H696 C706 0.950 1_554 S
H697 C708 0.950 . S
H698 C710 0.950 . S
H699 C711 0.950 . S
C700 H692 0.950 . S
C700 C701 1.386 . S
C700 C702 1.391 . S
C701 C700 1.386 . S
C701 C705 1.393 . S
C702 H694 0.950 . S
C702 C700 1.391 . S
C702 C703 1.400 . S
C703 C702 1.400 . S
C703 C704 1.398 . S
C703 C709 1.491 . S
C704 H695 0.950 . S
C704 C703 1.398 . S
C704 C705 1.391 . S
C705 H693 0.950 . S
C705 C701 1.393 . S
C705 C704 1.391 . S
C706 H696 0.950 1_556 S
C706 C707 1.386 . S
C706 C708 1.391 1_556 S
C707 C706 1.386 . S
C707 C711 1.393 . S
C708 H697 0.950 . S
C708 C706 1.391 1_554 S
C708 C709 1.400 . S
C709 C703 1.491 . S
C709 C708 1.400 . S
C709 C710 1.398 1_554 S
C710 H698 0.950 . S
C710 C709 1.398 1_556 S
C710 C711 1.391 . S
C711 H699 0.950 . S
C711 C707 1.393 . S
C711 C710 1.391 . S
H712 C720 0.950 . S
H713 C725 0.950 . S
H714 C722 0.950 . S
H715 C724 0.950 . S
H716 C726 0.950 . S
H717 C728 0.950 . S
H718 C730 0.950 . S
H719 C731 0.950 . S
C720 H712 0.950 . S
C720 C721 1.386 . S
C720 C722 1.391 . S
C721 C720 1.386 . S
C721 C725 1.393 . S
C722 H714 0.950 . S
C722 C720 1.391 . S
C722 C723 1.400 . S
C723 C722 1.400 . S
C723 C724 1.398 . S
C723 C729 1.491 . S
C724 H715 0.950 . S
C724 C723 1.398 . S
C724 C725 1.391 . S
C725 H713 0.950 . S
C725 C721 1.393 . S
C725 C724 1.391 . S
C726 H716 0.950 . S
C726 C727 1.386 . S
C726 C728 1.391 . S
C727 C726 1.386 . S
C727 C731 1.393 . S
C728 H717 0.950 . S
C728 C726 1.391 . S
C728 C729 1.400 . S
C729 C723 1.491 . S
C729 C728 1.400 . S
C729 C730 1.398 . S
C730 H718 0.950 . S
C730 C729 1.398 . S
C730 C731 1.391 . S
C731 H719 0.950 . S
C731 C727 1.393 . S
C731 C730 1.391 . S
H732 C740 0.950 . S
H733 C745 0.950 . S
H734 C742 0.950 . S
H735 C744 0.950 . S
H736 C746 0.950 . S
H737 C748 0.950 . S
H738 C750 0.950 . S
H739 C751 0.950 . S
C740 H732 0.950 . S
C740 C741 1.386 . S
C740 C742 1.391 1_556 S
C741 C740 1.386 . S
C741 C745 1.393 . S
C742 H734 0.950 . S
C742 C740 1.391 1_554 S
C742 C743 1.400 . S
C743 C742 1.400 . S
C743 C744 1.398 . S
C743 C749 1.491 . S
C744 H735 0.950 . S
C744 C743 1.398 . S
C744 C745 1.391 1_554 S
C745 H733 0.950 . S
C745 C741 1.393 . S
C745 C744 1.391 1_556 S
C746 H736 0.950 . S
C746 C747 1.386 . S
C746 C748 1.391 . S
C747 C746 1.386 . S
C747 C751 1.393 . S
C748 H737 0.950 . S
C748 C746 1.391 . S
C748 C749 1.400 . S
C749 C743 1.491 . S
C749 C748 1.400 . S
C749 C750 1.398 . S
C750 H738 0.950 . S
C750 C749 1.398 . S
C750 C751 1.391 . S
C751 H739 0.950 . S
C751 C747 1.393 . S
C751 C750 1.391 . S
H752 C760 0.950 . S
H753 C765 0.950 . S
H754 C762 0.950 . S
H755 C764 0.950 . S
H756 C766 0.950 . S
H757 C768 0.950 . S
H758 C770 0.950 . S
H759 C771 0.950 . S
C760 H752 0.950 . S
C760 C761 1.386 . S
C760 C762 1.391 . S
C761 C760 1.386 . S
C761 C765 1.393 . S
C762 H754 0.950 . S
C762 C760 1.391 . S
C762 C763 1.400 . S
C763 C762 1.400 . S
C763 C764 1.398 . S
C763 C769 1.491 . S
C764 H755 0.950 . S
C764 C763 1.398 . S
C764 C765 1.391 . S
C765 H753 0.950 . S
C765 C761 1.393 . S
C765 C764 1.391 . S
C766 H756 0.950 . S
C766 C767 1.386 . S
C766 C768 1.391 . S
C767 C766 1.386 . S
C767 C771 1.393 . S
C768 H757 0.950 . S
C768 C766 1.391 . S
C768 C769 1.400 . S
C769 C763 1.491 . S
C769 C768 1.400 . S
C769 C770 1.398 . S
C770 H758 0.950 . S
C770 C769 1.398 . S
C770 C771 1.391 . S
C771 H759 0.950 . S
C771 C767 1.393 . S
C771 C770 1.391 . S
H772 C780 0.950 . S
H773 C785 0.950 . S
H774 C782 0.963 . S
H775 C784 0.950 . S
H776 C786 0.950 . S
H777 C788 0.950 . S
H778 C790 0.950 . S
H779 C791 0.950 . S
C780 H772 0.950 . S
C780 C781 1.386 . S
C780 C782 1.416 . S
C781 C780 1.386 . S
C781 C785 1.393 1_554 S
C782 H774 0.963 . S
C782 C780 1.416 . S
C782 C783 1.364 1_554 S
C783 C782 1.364 1_556 S
C783 C784 1.398 . S
C783 C789 1.491 . S
C784 H775 0.950 . S
C784 C783 1.398 . S
C784 C785 1.391 . S
C785 H773 0.950 . S
C785 C781 1.393 1_556 S
C785 C784 1.391 . S
C786 H776 0.950 . S
C786 C787 1.386 . S
C786 C788 1.391 . S
C787 C786 1.386 . S
C787 C791 1.393 . S
C788 H777 0.950 . S
C788 C786 1.391 . S
C788 C789 1.400 . S
C789 C783 1.491 . S
C789 C788 1.400 . S
C789 C790 1.398 . S
C790 H778 0.950 . S
C790 C789 1.398 . S
C790 C791 1.391 . S
C791 H779 0.950 . S
C791 C787 1.393 . S
C791 C790 1.391 . S
H792 C800 0.950 . S
H793 C805 0.950 . S
H794 C802 0.950 . S
H795 C804 0.950 . S
H796 C806 0.950 . S
H797 C808 0.950 . S
H798 C810 0.950 . S
H799 C811 0.950 . S
C800 H792 0.950 . S
C800 C801 1.386 . S
C800 C802 1.391 . S
C801 C800 1.386 . S
C801 C805 1.393 . S
C802 H794 0.950 . S
C802 C800 1.391 . S
C802 C803 1.400 . S
C803 C802 1.400 . S
C803 C804 1.398 . S
C803 C809 1.491 . S
C804 H795 0.950 . S
C804 C803 1.398 . S
C804 C805 1.391 . S
C805 H793 0.950 . S
C805 C801 1.393 . S
C805 C804 1.391 . S
C806 H796 0.950 . S
C806 C807 1.386 . S
C806 C808 1.391 . S
C807 C806 1.386 . S
C807 C811 1.393 . S
C808 H797 0.950 . S
C808 C806 1.391 . S
C808 C809 1.400 . S
C809 C803 1.491 . S
C809 C808 1.400 . S
C809 C810 1.398 . S
C810 H798 0.950 . S
C810 C809 1.398 . S
C810 C811 1.391 . S
C811 H799 0.950 . S
C811 C807 1.393 . S
C811 C810 1.391 . S
H812 C820 0.950 . S
H813 C825 0.950 . S
H814 C822 0.950 . S
H815 C824 0.950 . S
H816 C826 0.950 . S
H817 C828 0.950 . S
H818 C830 0.968 . S
H819 C831 0.950 . S
C820 H812 0.950 . S
C820 C821 1.386 . S
C820 C822 1.391 . S
C821 C820 1.386 . S
C821 C825 1.393 . S
C822 H814 0.950 . S
C822 C820 1.391 . S
C822 C823 1.400 . S
C823 C822 1.400 . S
C823 C824 1.398 . S
C823 C829 1.491 . S
C824 H815 0.950 . S
C824 C823 1.398 . S
C824 C825 1.391 . S
C825 H813 0.950 . S
C825 C821 1.393 . S
C825 C824 1.391 . S
C826 H816 0.950 . S
C826 C827 1.386 1_556 S
C826 C828 1.391 . S
C827 C826 1.386 1_554 S
C827 C831 1.393 . S
C828 H817 0.950 . S
C828 C826 1.391 . S
C828 C829 1.400 . S
C829 C823 1.491 . S
C829 C828 1.400 . S
C829 C830 1.349 1_556 S
C830 H818 0.968 . S
C830 C829 1.349 1_554 S
C830 C831 1.424 . S
C831 H819 0.950 . S
C831 C827 1.393 . S
C831 C830 1.424 . S
H832 C840 0.950 . S
H833 C845 0.950 . S
H834 C842 0.950 . S
H835 C844 0.950 . S
H836 C846 0.950 . S
H837 C848 0.950 . S
H838 C850 0.950 . S
H839 C851 0.950 . S
C840 H832 0.950 . S
C840 C841 1.386 . S
C840 C842 1.391 . S
C841 C840 1.386 . S
C841 C845 1.393 . S
C842 H834 0.950 . S
C842 C840 1.391 . S
C842 C843 1.400 . S
C843 C842 1.400 . S
C843 C844 1.398 . S
C843 C849 1.491 . S
C844 H835 0.950 . S
C844 C843 1.398 . S
C844 C845 1.391 . S
C845 H833 0.950 . S
C845 C841 1.393 . S
C845 C844 1.391 . S
C846 H836 0.950 . S
C846 C847 1.386 . S
C846 C848 1.391 . S
C847 C846 1.386 . S
C847 C851 1.393 . S
C848 H837 0.950 . S
C848 C846 1.391 . S
C848 C849 1.400 . S
C849 C843 1.491 . S
C849 C848 1.400 . S
C849 C850 1.398 . S
C850 H838 0.950 . S
C850 C849 1.398 . S
C850 C851 1.391 . S
C851 H839 0.950 . S
C851 C847 1.393 . S
C851 C850 1.391 . S
H852 C860 0.950 . S
H853 C865 0.950 . S
H854 C862 0.950 . S
H855 C864 0.950 . S
H856 C866 0.950 . S
H857 C868 0.950 . S
H858 C870 0.950 . S
H859 C871 0.950 . S
C860 H852 0.950 . S
C860 C861 1.386 . S
C860 C862 1.391 . S
C861 C860 1.386 . S
C861 C865 1.393 . S
C862 H854 0.950 . S
C862 C860 1.391 . S
C862 C863 1.400 . S
C863 C862 1.400 . S
C863 C864 1.398 . S
C863 C869 1.491 . S
C864 H855 0.950 . S
C864 C863 1.398 . S
C864 C865 1.391 . S
C865 H853 0.950 . S
C865 C861 1.393 . S
C865 C864 1.391 . S
C866 H856 0.950 . S
C866 C867 1.386 . S
C866 C868 1.391 . S
C867 C866 1.386 . S
C867 C871 1.393 . S
C868 H857 0.950 . S
C868 C866 1.391 . S
C868 C869 1.400 . S
C869 C863 1.491 . S
C869 C868 1.400 . S
C869 C870 1.398 . S
C870 H858 0.950 . S
C870 C869 1.398 . S
C870 C871 1.391 . S
C871 H859 0.950 . S
C871 C867 1.393 . S
C871 C870 1.391 . S
H872 C880 0.950 . S
H873 C885 0.950 . S
H874 C882 0.950 . S
H875 C884 0.950 . S
H876 C886 0.950 . S
H877 C888 0.950 . S
H878 C890 0.950 . S
H879 C891 0.950 . S
C880 H872 0.950 . S
C880 C881 1.386 . S
C880 C882 1.391 . S
C881 C880 1.386 . S
C881 C885 1.393 . S
C882 H874 0.950 . S
C882 C880 1.391 . S
C882 C883 1.400 . S
C883 C882 1.400 . S
C883 C884 1.398 . S
C883 C889 1.491 . S
C884 H875 0.950 . S
C884 C883 1.398 . S
C884 C885 1.391 . S
C885 H873 0.950 . S
C885 C881 1.393 . S
C885 C884 1.391 . S
C886 H876 0.950 . S
C886 C887 1.386 . S
C886 C888 1.391 . S
C887 C886 1.386 . S
C887 C891 1.393 . S
C888 H877 0.950 . S
C888 C886 1.391 . S
C888 C889 1.400 . S
C889 C883 1.491 . S
C889 C888 1.400 . S
C889 C890 1.398 . S
C890 H878 0.950 . S
C890 C889 1.398 . S
C890 C891 1.391 . S
C891 H879 0.950 . S
C891 C887 1.393 . S
C891 C890 1.391 . S
H892 C900 0.950 . S
H893 C905 0.950 . S
H894 C902 0.950 . S
H895 C904 0.950 . S
H896 C906 0.950 . S
H897 C908 0.950 . S
H898 C910 0.950 . S
H899 C911 0.950 . S
C900 H892 0.950 . S
C900 C901 1.386 . S
C900 C902 1.391 . S
C901 C900 1.386 . S
C901 C905 1.393 . S
C902 H894 0.950 . S
C902 C900 1.391 . S
C902 C903 1.400 . S
C903 C902 1.400 . S
C903 C904 1.398 . S
C903 C909 1.491 . S
C904 H895 0.950 . S
C904 C903 1.398 . S
C904 C905 1.391 . S
C905 H893 0.950 . S
C905 C901 1.393 . S
C905 C904 1.391 . S
C906 H896 0.950 . S
C906 C907 1.386 . S
C906 C908 1.391 1_545 S
C907 C906 1.386 . S
C907 C911 1.393 . S
C908 H897 0.950 . S
C908 C906 1.391 1_565 S
C908 C909 1.400 . S
C909 C903 1.491 . S
C909 C908 1.400 . S
C909 C910 1.398 1_565 S
C910 H898 0.950 . S
C910 C909 1.398 1_545 S
C910 C911 1.391 . S
C911 H899 0.950 . S
C911 C907 1.393 . S
C911 C910 1.391 . S
H912 C920 0.950 . S
H913 C925 0.950 . S
H914 C922 0.950 . S
H915 C924 0.950 . S
H916 C926 0.950 . S
H917 C928 0.950 . S
H918 C930 0.950 . S
H919 C931 0.950 . S
C920 H912 0.950 . S
C920 C921 1.386 . S
C920 C922 1.391 . S
C921 C920 1.386 . S
C921 C925 1.393 . S
C922 H914 0.950 . S
C922 C920 1.391 . S
C922 C923 1.400 . S
C923 C922 1.400 . S
C923 C924 1.398 . S
C923 C929 1.491 . S
C924 H915 0.950 . S
C924 C923 1.398 . S
C924 C925 1.391 . S
C925 H913 0.950 . S
C925 C921 1.393 . S
C925 C924 1.391 . S
C926 H916 0.950 . S
C926 C927 1.386 . S
C926 C928 1.391 . S
C927 C926 1.386 . S
C927 C931 1.393 . S
C928 H917 0.950 . S
C928 C926 1.391 . S
C928 C929 1.400 . S
C929 C923 1.491 . S
C929 C928 1.400 . S
C929 C930 1.398 . S
C930 H918 0.950 . S
C930 C929 1.398 . S
C930 C931 1.391 . S
C931 H919 0.950 . S
C931 C927 1.393 . S
C931 C930 1.391 . S
H932 C940 0.950 . S
H933 C945 0.950 . S
H934 C942 0.950 . S
H935 C944 0.950 . S
H936 C946 0.950 . S
H937 C948 0.950 . S
H938 C950 0.950 . S
H939 C951 0.950 1_655 S
C940 H932 0.950 . S
C940 C941 1.386 . S
C940 C942 1.391 . S
C941 C940 1.386 . S
C941 C945 1.393 . S
C942 H934 0.950 . S
C942 C940 1.391 . S
C942 C943 1.400 . S
C943 C942 1.400 . S
C943 C944 1.398 . S
C943 C949 1.491 . S
C944 H935 0.950 . S
C944 C943 1.398 . S
C944 C945 1.391 . S
C945 H933 0.950 . S
C945 C941 1.393 . S
C945 C944 1.391 . S
C946 H936 0.950 . S
C946 C947 1.386 . S
C946 C948 1.391 . S
C947 C946 1.386 . S
C947 C951 1.393 . S
C948 H937 0.950 . S
C948 C946 1.391 . S
C948 C949 1.400 . S
C949 C943 1.491 . S
C949 C948 1.400 . S
C949 C950 1.398 . S
C950 H938 0.950 . S
C950 C949 1.398 . S
C950 C951 1.391 . S
C951 H939 0.950 1_455 S
C951 C947 1.393 . S
C951 C950 1.391 . S
H952 C960 0.950 . S
H953 C965 0.950 . S
H954 C962 0.950 . S
H955 C964 0.950 . S
H956 C966 0.950 . S
H957 C968 0.950 . S
H958 C970 0.950 . S
H959 C971 0.950 . S
C960 H952 0.950 . S
C960 C961 1.386 . S
C960 C962 1.391 . S
C961 C960 1.386 . S
C961 C965 1.393 . S
C962 H954 0.950 . S
C962 C960 1.391 . S
C962 C963 1.400 . S
C963 C962 1.400 . S
C963 C964 1.398 . S
C963 C969 1.491 . S
C964 H955 0.950 . S
C964 C963 1.398 . S
C964 C965 1.391 . S
C965 H953 0.950 . S
C965 C961 1.393 . S
C965 C964 1.391 . S
C966 H956 0.950 . S
C966 C967 1.386 . S
C966 C968 1.391 . S
C967 C966 1.386 . S
C967 C971 1.393 . S
C968 H957 0.950 . S
C968 C966 1.391 . S
C968 C969 1.400 . S
C969 C963 1.491 . S
C969 C968 1.400 . S
C969 C970 1.398 . S
C970 H958 0.950 . S
C970 C969 1.398 . S
C970 C971 1.391 . S
C971 H959 0.950 . S
C971 C967 1.393 . S
C971 C970 1.391 . S
H972 C980 0.950 . S
H973 C985 0.950 . S
H974 C982 0.950 . S
H975 C984 0.950 . S
H976 C986 0.950 . S
H977 C988 0.950 . S
H978 C990 0.950 . S
H979 C991 0.910 1_455 S
C980 H972 0.950 . S
C980 C981 1.386 . S
C980 C982 1.391 . S
C981 C980 1.386 . S
C981 C985 1.393 . S
C982 H974 0.950 . S
C982 C980 1.391 . S
C982 C983 1.400 1_545 S
C983 C982 1.400 1_565 S
C983 C984 1.398 . S
C983 C989 1.491 . S
C984 H975 0.950 . S
C984 C983 1.398 . S
C984 C985 1.391 1_565 S
C985 H973 0.950 . S
C985 C981 1.393 . S
C985 C984 1.391 1_545 S
C986 H976 0.950 . S
C986 C987 1.386 . S
C986 C988 1.391 . S
C987 C986 1.386 . S
C987 C991 1.393 . S
C988 H977 0.950 . S
C988 C986 1.391 . S
C988 C989 1.400 . S
C989 C983 1.491 . S
C989 C988 1.400 . S
C989 C990 1.398 . S
C990 H978 0.950 . S
C990 C989 1.398 . S
C990 C991 1.391 . S
C991 H979 0.910 1_655 S
C991 C987 1.393 . S
C991 C990 1.391 . S
H992 C1000 0.950 . S
H993 C1005 0.950 . S
H994 C1002 0.950 . S
H995 C1004 0.950 . S
H996 C1006 0.950 . S
H997 C1008 0.950 . S
H998 C1010 0.950 . S
H999 C1011 0.950 . S
C1000 H992 0.950 . S
C1000 C1001 1.386 . S
C1000 C1002 1.391 . S
C1001 C1000 1.386 . S
C1001 C1005 1.393 . S
C1002 H994 0.950 . S
C1002 C1000 1.391 . S
C1002 C1003 1.400 . S
C1003 C1002 1.400 . S
C1003 C1004 1.398 . S
C1003 C1009 1.491 . S
C1004 H995 0.950 . S
C1004 C1003 1.398 . S
C1004 C1005 1.391 . S
C1005 H993 0.950 . S
C1005 C1001 1.393 . S
C1005 C1004 1.391 . S
C1006 H996 0.950 . S
C1006 C1007 1.386 . S
C1006 C1008 1.391 . S
C1007 C1006 1.386 . S
C1007 C1011 1.393 . S
C1008 H997 0.950 . S
C1008 C1006 1.391 . S
C1008 C1009 1.400 . S
C1009 C1003 1.491 . S
C1009 C1008 1.400 . S
C1009 C1010 1.398 . S
C1010 H998 0.950 . S
C1010 C1009 1.398 . S
C1010 C1011 1.391 . S
C1011 H999 0.950 . S
C1011 C1007 1.393 . S
C1011 C1010 1.391 . S
H1012 C1020 0.950 . S
H1013 C1025 0.950 . S
H1014 C1022 0.950 . S
H1015 C1024 0.950 . S
H1016 C1026 0.950 . S
H1017 C1028 0.950 . S
H1018 C1030 0.950 . S
H1019 C1031 0.950 . S
C1020 H1012 0.950 . S
C1020 C1021 1.386 . S
C1020 C1022 1.391 . S
C1021 C1020 1.386 . S
C1021 C1025 1.393 . S
C1022 H1014 0.950 . S
C1022 C1020 1.391 . S
C1022 C1023 1.400 . S
C1023 C1022 1.400 . S
C1023 C1024 1.398 . S
C1023 C1029 1.491 . S
C1024 H1015 0.950 . S
C1024 C1023 1.398 . S
C1024 C1025 1.391 . S
C1025 H1013 0.950 . S
C1025 C1021 1.393 . S
C1025 C1024 1.391 . S
C1026 H1016 0.950 . S
C1026 C1027 1.386 . S
C1026 C1028 1.391 . S
C1027 C1026 1.386 . S
C1027 C1031 1.393 . S
C1028 H1017 0.950 . S
C1028 C1026 1.391 . S
C1028 C1029 1.400 . S
C1029 C1023 1.491 . S
C1029 C1028 1.400 . S
C1029 C1030 1.398 . S
C1030 H1018 0.950 . S
C1030 C1029 1.398 . S
C1030 C1031 1.391 . S
C1031 H1019 0.950 . S
C1031 C1027 1.393 . S
C1031 C1030 1.391 . S
H1032 C1040 0.950 . S
H1033 C1045 0.950 . S
H1034 C1042 0.950 . S
H1035 C1044 0.950 . S
H1036 C1046 0.950 . S
H1037 C1048 0.950 . S
H1038 C1050 0.950 . S
H1039 C1051 0.950 . S
C1040 H1032 0.950 . S
C1040 C1041 1.386 . S
C1040 C1042 1.391 . S
C1041 C1040 1.386 . S
C1041 C1045 1.393 . S
C1042 H1034 0.950 . S
C1042 C1040 1.391 . S
C1042 C1043 1.400 . S
C1043 C1042 1.400 . S
C1043 C1044 1.398 . S
C1043 C1049 1.491 1_655 S
C1044 H1035 0.950 . S
C1044 C1043 1.398 . S
C1044 C1045 1.391 . S
C1045 H1033 0.950 . S
C1045 C1041 1.393 . S
C1045 C1044 1.391 . S
C1046 H1036 0.950 . S
C1046 C1047 1.386 . S
C1046 C1048 1.391 . S
C1047 C1046 1.386 . S
C1047 C1051 1.393 . S
C1048 H1037 0.950 . S
C1048 C1046 1.391 . S
C1048 C1049 1.400 . S
C1049 C1043 1.491 1_455 S
C1049 C1048 1.400 . S
C1049 C1050 1.398 . S
C1050 H1038 0.950 . S
C1050 C1049 1.398 . S
C1050 C1051 1.391 . S
C1051 H1039 0.950 . S
C1051 C1047 1.393 . S
C1051 C1050 1.391 . S
H1052 C1060 0.950 . S
H1053 C1065 0.950 . S
H1054 C1062 0.950 . S
H1055 C1064 0.950 . S
H1056 C1066 0.950 . S
H1057 C1068 0.950 . S
H1058 C1070 0.950 . S
H1059 C1071 0.950 . S
C1060 H1052 0.950 . S
C1060 C1061 1.386 . S
C1060 C1062 1.391 . S
C1061 C1060 1.386 . S
C1061 C1065 1.393 . S
C1062 H1054 0.950 . S
C1062 C1060 1.391 . S
C1062 C1063 1.400 . S
C1063 C1062 1.400 . S
C1063 C1064 1.398 . S
C1063 C1069 1.491 . S
C1064 H1055 0.950 . S
C1064 C1063 1.398 . S
C1064 C1065 1.391 . S
C1065 H1053 0.950 . S
C1065 C1061 1.393 . S
C1065 C1064 1.391 . S
C1066 H1056 0.950 . S
C1066 C1067 1.386 . S
C1066 C1068 1.391 . S
C1067 C1066 1.386 . S
C1067 C1071 1.393 . S
C1068 H1057 0.950 . S
C1068 C1066 1.391 . S
C1068 C1069 1.400 . S
C1069 C1063 1.491 . S
C1069 C1068 1.400 . S
C1069 C1070 1.398 . S
C1070 H1058 0.950 . S
C1070 C1069 1.398 . S
C1070 C1071 1.391 . S
C1071 H1059 0.950 . S
C1071 C1067 1.393 . S
C1071 C1070 1.391 . S
H1072 C1080 0.950 . S
H1073 C1085 0.950 . S
H1074 C1082 0.950 . S
H1075 C1084 0.950 . S
H1076 C1086 0.950 . S
H1077 C1088 0.950 . S
H1078 C1090 0.950 . S
H1079 C1091 0.950 . S
C1080 H1072 0.950 . S
C1080 C1081 1.386 . S
C1080 C1082 1.391 . S
C1081 C1080 1.386 . S
C1081 C1085 1.393 . S
C1082 H1074 0.950 . S
C1082 C1080 1.391 . S
C1082 C1083 1.400 . S
C1083 C1082 1.400 . S
C1083 C1084 1.398 . S
C1083 C1089 1.491 . S
C1084 H1075 0.950 . S
C1084 C1083 1.398 . S
C1084 C1085 1.391 . S
C1085 H1073 0.950 . S
C1085 C1081 1.393 . S
C1085 C1084 1.391 . S
C1086 H1076 0.950 . S
C1086 C1087 1.386 . S
C1086 C1088 1.391 . S
C1087 C1086 1.386 . S
C1087 C1091 1.393 . S
C1088 H1077 0.950 . S
C1088 C1086 1.391 . S
C1088 C1089 1.400 . S
C1089 C1083 1.491 . S
C1089 C1088 1.400 . S
C1089 C1090 1.398 . S
C1090 H1078 0.950 . S
C1090 C1089 1.398 . S
C1090 C1091 1.391 . S
C1091 H1079 0.950 . S
C1091 C1087 1.393 . S
C1091 C1090 1.391 . S
H1092 C1100 0.950 . S
H1093 C1105 0.950 . S
H1094 C1102 0.950 . S
H1095 C1104 0.950 . S
H1096 C1106 0.950 . S
H1097 C1108 0.950 . S
H1098 C1110 0.950 . S
H1099 C1111 0.950 . S
C1100 H1092 0.950 . S
C1100 C1101 1.386 . S
C1100 C1102 1.391 . S
C1101 C1100 1.386 . S
C1101 C1105 1.393 . S
C1102 H1094 0.950 . S
C1102 C1100 1.391 . S
C1102 C1103 1.400 . S
C1103 C1102 1.400 . S
C1103 C1104 1.398 . S
C1103 C1109 1.491 . S
C1104 H1095 0.950 . S
C1104 C1103 1.398 . S
C1104 C1105 1.391 . S
C1105 H1093 0.950 . S
C1105 C1101 1.393 . S
C1105 C1104 1.391 . S
C1106 H1096 0.950 . S
C1106 C1107 1.386 . S
C1106 C1108 1.391 . S
C1107 C1106 1.386 . S
C1107 C1111 1.393 . S
C1108 H1097 0.950 . S
C1108 C1106 1.391 . S
C1108 C1109 1.400 . S
C1109 C1103 1.491 . S
C1109 C1108 1.400 . S
C1109 C1110 1.398 . S
C1110 H1098 0.950 . S
C1110 C1109 1.398 . S
C1110 C1111 1.391 . S
C1111 H1099 0.950 . S
C1111 C1107 1.393 . S
C1111 C1110 1.391 . S
H1112 C1120 0.950 . S
H1113 C1125 0.950 . S
H1114 C1122 0.912 1_655 S
H1115 C1124 0.950 . S
H1116 C1126 0.950 . S
H1117 C1128 0.950 1_455 S
H1118 C1130 0.950 . S
H1119 C1131 0.950 . S
C1120 H1112 0.950 . S
C1120 C1121 1.386 . S
C1120 C1122 1.422 . S
C1121 C1120 1.386 . S
C1121 C1125 1.393 . S
C1122 H1114 0.912 1_455 S
C1122 C1120 1.422 . S
C1122 C1123 1.408 . S
C1123 C1122 1.408 . S
C1123 C1124 1.398 . S
C1123 C1129 1.491 1_455 S
C1124 H1115 0.950 . S
C1124 C1123 1.398 . S
C1124 C1125 1.391 . S
C1125 H1113 0.950 . S
C1125 C1121 1.393 . S
C1125 C1124 1.391 . S
C1126 H1116 0.950 . S
C1126 C1127 1.386 . S
C1126 C1128 1.391 . S
C1127 C1126 1.386 . S
C1127 C1131 1.393 . S
C1128 H1117 0.950 1_655 S
C1128 C1126 1.391 . S
C1128 C1129 1.400 . S
C1129 C1123 1.491 1_655 S
C1129 C1128 1.400 . S
C1129 C1130 1.398 . S
C1130 H1118 0.950 . S
C1130 C1129 1.398 . S
C1130 C1131 1.391 . S
C1131 H1119 0.950 . S
C1131 C1127 1.393 . S
C1131 C1130 1.391 . S
H1132 C1140 0.950 . S
H1133 C1145 0.950 . S
H1134 C1142 0.950 . S
H1135 C1144 0.950 . S
H1136 C1146 0.950 . S
H1137 C1148 0.950 . S
H1138 C1150 0.950 . S
H1139 C1151 0.950 . S
C1140 H1132 0.950 . S
C1140 C1141 1.386 . S
C1140 C1142 1.391 . S
C1141 C1140 1.386 . S
C1141 C1145 1.393 . S
C1142 H1134 0.950 . S
C1142 C1140 1.391 . S
C1142 C1143 1.400 . S
C1143 C1142 1.400 . S
C1143 C1144 1.398 . S
C1143 C1149 1.491 1_655 S
C1144 H1135 0.950 . S
C1144 C1143 1.398 . S
C1144 C1145 1.391 . S
C1145 H1133 0.950 . S
C1145 C1141 1.393 . S
C1145 C1144 1.391 . S
C1146 H1136 0.950 . S
C1146 C1147 1.386 . S
C1146 C1148 1.391 . S
C1147 C1146 1.386 . S
C1147 C1151 1.393 . S
C1148 H1137 0.950 . S
C1148 C1146 1.391 . S
C1148 C1149 1.400 . S
C1149 C1143 1.491 1_455 S
C1149 C1148 1.400 . S
C1149 C1150 1.398 . S
C1150 H1138 0.950 . S
C1150 C1149 1.398 . S
C1150 C1151 1.391 . S
C1151 H1139 0.950 . S
C1151 C1147 1.393 . S
C1151 C1150 1.391 . S
H1152 C1160 0.950 . S
H1153 C1165 0.950 . S
H1154 C1162 0.950 . S
H1155 C1164 0.950 . S
H1156 C1166 0.950 . S
H1157 C1168 0.950 . S
H1158 C1170 0.950 . S
H1159 C1171 0.950 . S
C1160 H1152 0.950 . S
C1160 C1161 1.386 . S
C1160 C1162 1.391 . S
C1161 C1160 1.386 . S
C1161 C1165 1.393 . S
C1162 H1154 0.950 . S
C1162 C1160 1.391 . S
C1162 C1163 1.400 . S
C1163 C1162 1.400 . S
C1163 C1164 1.398 . S
C1163 C1169 1.491 . S
C1164 H1155 0.950 . S
C1164 C1163 1.398 . S
C1164 C1165 1.391 . S
C1165 H1153 0.950 . S
C1165 C1161 1.393 . S
C1165 C1164 1.391 . S
C1166 H1156 0.950 . S
C1166 C1167 1.386 . S
C1166 C1168 1.391 . S
C1167 C1166 1.386 . S
C1167 C1171 1.393 . S
C1168 H1157 0.950 . S
C1168 C1166 1.391 . S
C1168 C1169 1.400 . S
C1169 C1163 1.491 . S
C1169 C1168 1.400 . S
C1169 C1170 1.398 . S
C1170 H1158 0.950 . S
C1170 C1169 1.398 . S
C1170 C1171 1.391 . S
C1171 H1159 0.950 . S
C1171 C1167 1.393 . S
C1171 C1170 1.391 . S
H1172 C1180 0.950 . S
H1173 C1185 0.950 . S
H1174 C1182 0.950 . S
H1175 C1184 0.950 . S
H1176 C1186 0.950 . S
H1177 C1188 0.950 . S
H1178 C1190 0.950 . S
H1179 C1191 0.950 . S
C1180 H1172 0.950 . S
C1180 C1181 1.386 . S
C1180 C1182 1.391 . S
C1181 C1180 1.386 . S
C1181 C1185 1.393 . S
C1182 H1174 0.950 . S
C1182 C1180 1.391 . S
C1182 C1183 1.400 . S
C1183 C1182 1.400 . S
C1183 C1184 1.398 . S
C1183 C1189 1.491 . S
C1184 H1175 0.950 . S
C1184 C1183 1.398 . S
C1184 C1185 1.391 . S
C1185 H1173 0.950 . S
C1185 C1181 1.393 . S
C1185 C1184 1.391 . S
C1186 H1176 0.950 . S
C1186 C1187 1.386 . S
C1186 C1188 1.391 . S
C1187 C1186 1.386 . S
C1187 C1191 1.393 . S
C1188 H1177 0.950 . S
C1188 C1186 1.391 . S
C1188 C1189 1.400 . S
C1189 C1183 1.491 . S
C1189 C1188 1.400 . S
C1189 C1190 1.398 . S
C1190 H1178 0.950 . S
C1190 C1189 1.398 . S
C1190 C1191 1.391 . S
C1191 H1179 0.950 . S
C1191 C1187 1.393 . S
C1191 C1190 1.391 . S
H1192 C1200 0.950 . S
H1193 C1205 0.950 . S
H1194 C1202 0.950 . S
H1195 C1204 0.950 . S
H1196 C1206 0.950 . S
H1197 C1208 0.950 . S
H1198 C1210 0.950 . S
H1199 C1211 0.950 . S
C1200 H1192 0.950 . S
C1200 C1201 1.386 . S
C1200 C1202 1.391 . S
C1201 C1200 1.386 . S
C1201 C1205 1.393 . S
C1202 H1194 0.950 . S
C1202 C1200 1.391 . S
C1202 C1203 1.400 . S
C1203 C1202 1.400 . S
C1203 C1204 1.398 . S
C1203 C1209 1.491 . S
C1204 H1195 0.950 . S
C1204 C1203 1.398 . S
C1204 C1205 1.391 . S
C1205 H1193 0.950 . S
C1205 C1201 1.393 . S
C1205 C1204 1.391 . S
C1206 H1196 0.950 . S
C1206 C1207 1.386 . S
C1206 C1208 1.391 . S
C1207 C1206 1.386 . S
C1207 C1211 1.393 . S
C1208 H1197 0.950 . S
C1208 C1206 1.391 . S
C1208 C1209 1.400 . S
C1209 C1203 1.491 . S
C1209 C1208 1.400 . S
C1209 C1210 1.398 . S
C1210 H1198 0.950 . S
C1210 C1209 1.398 . S
C1210 C1211 1.391 . S
C1211 H1199 0.950 . S
C1211 C1207 1.393 . S
C1211 C1210 1.391 . S
H1212 C1220 0.950 . S
H1213 C1225 0.950 . S
H1214 C1222 0.950 . S
H1215 C1224 0.950 . S
H1216 C1226 0.950 . S
H1217 C1228 0.950 . S
H1218 C1230 0.950 . S
H1219 C1231 0.950 . S
C1220 H1212 0.950 . S
C1220 C1221 1.386 . S
C1220 C1222 1.391 . S
C1221 C1220 1.386 . S
C1221 C1225 1.393 . S
C1222 H1214 0.950 . S
C1222 C1220 1.391 . S
C1222 C1223 1.400 . S
C1223 C1222 1.400 . S
C1223 C1224 1.398 . S
C1223 C1229 1.491 . S
C1224 H1215 0.950 . S
C1224 C1223 1.398 . S
C1224 C1225 1.391 . S
C1225 H1213 0.950 . S
C1225 C1221 1.393 . S
C1225 C1224 1.391 . S
C1226 H1216 0.950 . S
C1226 C1227 1.386 . S
C1226 C1228 1.391 . S
C1227 C1226 1.386 . S
C1227 C1231 1.393 . S
C1228 H1217 0.950 . S
C1228 C1226 1.391 . S
C1228 C1229 1.400 . S
C1229 C1223 1.491 . S
C1229 C1228 1.400 . S
C1229 C1230 1.398 . S
C1230 H1218 0.950 . S
C1230 C1229 1.398 . S
C1230 C1231 1.391 . S
C1231 H1219 0.950 . S
C1231 C1227 1.393 . S
C1231 C1230 1.391 . S
H1232 C1240 0.950 . S
H1233 C1245 0.950 . S
H1234 C1242 0.950 . S
H1235 C1244 0.950 . S
H1236 C1246 0.950 . S
H1237 C1248 0.950 . S
H1238 C1250 0.950 . S
H1239 C1251 0.950 . S
C1240 H1232 0.950 . S
C1240 C1241 1.386 . S
C1240 C1242 1.391 . S
C1241 C1240 1.386 . S
C1241 C1245 1.393 . S
C1242 H1234 0.950 . S
C1242 C1240 1.391 . S
C1242 C1243 1.400 . S
C1243 C1242 1.400 . S
C1243 C1244 1.398 . S
C1243 C1249 1.491 . S
C1244 H1235 0.950 . S
C1244 C1243 1.398 . S
C1244 C1245 1.391 . S
C1245 H1233 0.950 . S
C1245 C1241 1.393 . S
C1245 C1244 1.391 . S
C1246 H1236 0.950 . S
C1246 C1247 1.386 . S
C1246 C1248 1.391 . S
C1247 C1246 1.386 . S
C1247 C1251 1.393 . S
C1248 H1237 0.950 . S
C1248 C1246 1.391 . S
C1248 C1249 1.400 . S
C1249 C1243 1.491 . S
C1249 C1248 1.400 . S
C1249 C1250 1.398 . S
C1250 H1238 0.950 . S
C1250 C1249 1.398 . S
C1250 C1251 1.391 . S
C1251 H1239 0.950 . S
C1251 C1247 1.393 . S
C1251 C1250 1.391 . S
H1252 C1260 0.950 . S
H1253 C1265 0.950 . S
H1254 C1262 0.950 . S
H1255 C1264 0.950 . S
H1256 C1266 0.950 . S
H1257 C1268 0.950 . S
H1258 C1270 0.950 . S
H1259 C1271 0.950 . S
C1260 H1252 0.950 . S
C1260 C1261 1.386 . S
C1260 C1262 1.391 . S
C1261 C1260 1.386 . S
C1261 C1265 1.393 . S
C1262 H1254 0.950 . S
C1262 C1260 1.391 . S
C1262 C1263 1.400 . S
C1263 C1262 1.400 . S
C1263 C1264 1.398 . S
C1263 C1269 1.491 . S
C1264 H1255 0.950 . S
C1264 C1263 1.398 . S
C1264 C1265 1.391 . S
C1265 H1253 0.950 . S
C1265 C1261 1.393 . S
C1265 C1264 1.391 . S
C1266 H1256 0.950 . S
C1266 C1267 1.386 . S
C1266 C1268 1.391 . S
C1267 C1266 1.386 . S
C1267 C1271 1.393 . S
C1268 H1257 0.950 . S
C1268 C1266 1.391 . S
C1268 C1269 1.400 . S
C1269 C1263 1.491 . S
C1269 C1268 1.400 . S
C1269 C1270 1.398 . S
C1270 H1258 0.950 . S
C1270 C1269 1.398 . S
C1270 C1271 1.391 . S
C1271 H1259 0.950 . S
C1271 C1267 1.393 . S
C1271 C1270 1.391 . S
H1272 C1280 0.950 . S
H1273 C1285 0.950 . S
H1274 C1282 0.950 . S
H1275 C1284 0.950 . S
H1276 C1286 0.950 . S
H1277 C1288 0.950 . S
H1278 C1290 0.950 . S
H1279 C1291 0.950 . S
C1280 H1272 0.950 . S
C1280 C1281 1.386 . S
C1280 C1282 1.391 . S
C1281 C1280 1.386 . S
C1281 C1285 1.393 . S
C1282 H1274 0.950 . S
C1282 C1280 1.391 . S
C1282 C1283 1.400 . S
C1283 C1282 1.400 . S
C1283 C1284 1.398 . S
C1283 C1289 1.491 . S
C1284 H1275 0.950 . S
C1284 C1283 1.398 . S
C1284 C1285 1.391 . S
C1285 H1273 0.950 . S
C1285 C1281 1.393 . S
C1285 C1284 1.391 . S
C1286 H1276 0.950 . S
C1286 C1287 1.386 . S
C1286 C1288 1.391 . S
C1287 C1286 1.386 . S
C1287 C1291 1.393 . S
C1288 H1277 0.950 . S
C1288 C1286 1.391 . S
C1288 C1289 1.400 . S
C1289 C1283 1.491 . S
C1289 C1288 1.400 . S
C1289 C1290 1.398 . S
C1290 H1278 0.950 . S
C1290 C1289 1.398 . S
C1290 C1291 1.391 . S
C1291 H1279 0.950 . S
C1291 C1287 1.393 . S
C1291 C1290 1.391 . S
H1292 C1300 0.950 . S
H1293 C1305 0.950 . S
H1294 C1302 0.950 . S
H1295 C1304 0.950 . S
H1296 C1306 0.950 . S
H1297 C1308 0.950 . S
H1298 C1310 0.950 . S
H1299 C1311 0.950 . S
C1300 H1292 0.950 . S
C1300 C1301 1.386 . S
C1300 C1302 1.391 . S
C1301 C1300 1.386 . S
C1301 C1305 1.393 . S
C1302 H1294 0.950 . S
C1302 C1300 1.391 . S
C1302 C1303 1.400 . S
C1303 C1302 1.400 . S
C1303 C1304 1.398 . S
C1303 C1309 1.491 . S
C1304 H1295 0.950 . S
C1304 C1303 1.398 . S
C1304 C1305 1.391 . S
C1305 H1293 0.950 . S
C1305 C1301 1.393 . S
C1305 C1304 1.391 . S
C1306 H1296 0.950 . S
C1306 C1307 1.386 . S
C1306 C1308 1.391 . S
C1307 C1306 1.386 . S
C1307 C1311 1.393 . S
C1308 H1297 0.950 . S
C1308 C1306 1.391 . S
C1308 C1309 1.400 . S
C1309 C1303 1.491 . S
C1309 C1308 1.400 . S
C1309 C1310 1.398 . S
C1310 H1298 0.950 . S
C1310 C1309 1.398 . S
C1310 C1311 1.391 . S
C1311 H1299 0.950 . S
C1311 C1307 1.393 . S
C1311 C1310 1.391 . S
H1312 C1320 0.950 . S
H1313 C1325 0.950 . S
H1314 C1322 0.950 . S
H1315 C1324 0.950 . S
H1316 C1326 0.950 . S
H1317 C1328 0.950 . S
H1318 C1330 0.950 . S
H1319 C1331 0.950 . S
C1320 H1312 0.950 . S
C1320 C1321 1.386 . S
C1320 C1322 1.391 . S
C1321 C1320 1.386 . S
C1321 C1325 1.393 . S
C1322 H1314 0.950 . S
C1322 C1320 1.391 . S
C1322 C1323 1.400 . S
C1323 C1322 1.400 . S
C1323 C1324 1.398 . S
C1323 C1329 1.491 . S
C1324 H1315 0.950 . S
C1324 C1323 1.398 . S
C1324 C1325 1.391 . S
C1325 H1313 0.950 . S
C1325 C1321 1.393 . S
C1325 C1324 1.391 . S
C1326 H1316 0.950 . S
C1326 C1327 1.386 . S
C1326 C1328 1.391 . S
C1327 C1326 1.386 . S
C1327 C1331 1.393 . S
C1328 H1317 0.950 . S
C1328 C1326 1.391 . S
C1328 C1329 1.400 . S
C1329 C1323 1.491 . S
C1329 C1328 1.400 . S
C1329 C1330 1.398 . S
C1330 H1318 0.950 . S
C1330 C1329 1.398 . S
C1330 C1331 1.391 . S
C1331 H1319 0.950 . S
C1331 C1327 1.393 . S
C1331 C1330 1.391 . S
H1332 C1340 0.950 . S
H1333 C1345 0.950 . S
H1334 C1342 0.950 . S
H1335 C1344 0.950 . S
H1336 C1346 0.950 . S
H1337 C1348 0.950 . S
H1338 C1350 0.950 . S
H1339 C1351 0.950 . S
C1340 H1332 0.950 . S
C1340 C1341 1.386 . S
C1340 C1342 1.391 . S
C1341 C1340 1.386 . S
C1341 C1345 1.393 . S
C1342 H1334 0.950 . S
C1342 C1340 1.391 . S
C1342 C1343 1.400 1_565 S
C1343 C1342 1.400 1_545 S
C1343 C1344 1.398 . S
C1343 C1349 1.491 . S
C1344 H1335 0.950 . S
C1344 C1343 1.398 . S
C1344 C1345 1.391 1_545 S
C1345 H1333 0.950 . S
C1345 C1341 1.393 . S
C1345 C1344 1.391 1_565 S
C1346 H1336 0.950 . S
C1346 C1347 1.386 . S
C1346 C1348 1.391 . S
C1347 C1346 1.386 . S
C1347 C1351 1.393 . S
C1348 H1337 0.950 . S
C1348 C1346 1.391 . S
C1348 C1349 1.400 . S
C1349 C1343 1.491 . S
C1349 C1348 1.400 . S
C1349 C1350 1.398 . S
C1350 H1338 0.950 . S
C1350 C1349 1.398 . S
C1350 C1351 1.391 . S
C1351 H1339 0.950 . S
C1351 C1347 1.393 . S
C1351 C1350 1.391 . S
H1352 C1360 0.950 . S
H1353 C1365 0.950 . S
H1354 C1362 0.950 . S
H1355 C1364 0.950 . S
H1356 C1366 0.950 . S
H1357 C1368 0.950 . S
H1358 C1370 0.950 . S
H1359 C1371 0.950 . S
C1360 H1352 0.950 . S
C1360 C1361 1.386 . S
C1360 C1362 1.391 . S
C1361 C1360 1.386 . S
C1361 C1365 1.393 . S
C1362 H1354 0.950 . S
C1362 C1360 1.391 . S
C1362 C1363 1.400 . S
C1363 C1362 1.400 . S
C1363 C1364 1.398 . S
C1363 C1369 1.491 . S
C1364 H1355 0.950 . S
C1364 C1363 1.398 . S
C1364 C1365 1.391 . S
C1365 H1353 0.950 . S
C1365 C1361 1.393 . S
C1365 C1364 1.391 . S
C1366 H1356 0.950 . S
C1366 C1367 1.386 . S
C1366 C1368 1.391 . S
C1367 C1366 1.386 . S
C1367 C1371 1.393 . S
C1368 H1357 0.950 . S
C1368 C1366 1.391 . S
C1368 C1369 1.400 . S
C1369 C1363 1.491 . S
C1369 C1368 1.400 . S
C1369 C1370 1.398 . S
C1370 H1358 0.950 . S
C1370 C1369 1.398 . S
C1370 C1371 1.391 . S
C1371 H1359 0.950 . S
C1371 C1367 1.393 . S
C1371 C1370 1.391 . S
H1372 C1380 0.950 . S
H1373 C1385 0.950 . S
H1374 C1382 0.950 . S
H1375 C1384 0.950 . S
H1376 C1386 0.950 . S
H1377 C1388 0.950 . S
H1378 C1390 0.950 . S
H1379 C1391 0.950 . S
C1380 H1372 0.950 . S
C1380 C1381 1.386 . S
C1380 C1382 1.391 . S
C1381 C1380 1.386 . S
C1381 C1385 1.393 . S
C1382 H1374 0.950 . S
C1382 C1380 1.391 . S
C1382 C1383 1.400 . S
C1383 C1382 1.400 . S
C1383 C1384 1.398 . S
C1383 C1389 1.491 . S
C1384 H1375 0.950 . S
C1384 C1383 1.398 . S
C1384 C1385 1.391 . S
C1385 H1373 0.950 . S
C1385 C1381 1.393 . S
C1385 C1384 1.391 . S
C1386 H1376 0.950 . S
C1386 C1387 1.386 . S
C1386 C1388 1.391 . S
C1387 C1386 1.386 . S
C1387 C1391 1.393 . S
C1388 H1377 0.950 . S
C1388 C1386 1.391 . S
C1388 C1389 1.400 . S
C1389 C1383 1.491 . S
C1389 C1388 1.400 . S
C1389 C1390 1.398 . S
C1390 H1378 0.950 . S
C1390 C1389 1.398 . S
C1390 C1391 1.391 . S
C1391 H1379 0.950 . S
C1391 C1387 1.393 . S
C1391 C1390 1.391 . S
H1392 C1400 0.950 . S
H1393 C1405 0.950 . S
H1394 C1402 0.950 . S
H1395 C1404 0.950 . S
H1396 C1406 0.950 . S
H1397 C1408 0.950 . S
H1398 C1410 0.950 . S
H1399 C1411 0.950 . S
C1400 H1392 0.950 . S
C1400 C1401 1.386 . S
C1400 C1402 1.391 . S
C1401 C1400 1.386 . S
C1401 C1405 1.393 . S
C1402 H1394 0.950 . S
C1402 C1400 1.391 . S
C1402 C1403 1.400 . S
C1403 C1402 1.400 . S
C1403 C1404 1.398 . S
C1403 C1409 1.491 . S
C1404 H1395 0.950 . S
C1404 C1403 1.398 . S
C1404 C1405 1.391 . S
C1405 H1393 0.950 . S
C1405 C1401 1.393 . S
C1405 C1404 1.391 . S
C1406 H1396 0.950 . S
C1406 C1407 1.386 . S
C1406 C1408 1.391 . S
C1407 C1406 1.386 . S
C1407 C1411 1.393 . S
C1408 H1397 0.950 . S
C1408 C1406 1.391 . S
C1408 C1409 1.400 . S
C1409 C1403 1.491 . S
C1409 C1408 1.400 . S
C1409 C1410 1.398 . S
C1410 H1398 0.950 . S
C1410 C1409 1.398 . S
C1410 C1411 1.391 . S
C1411 H1399 0.950 . S
C1411 C1407 1.393 . S
C1411 C1410 1.391 . S
H1412 C1420 0.950 . S
H1413 C1425 0.950 . S
H1414 C1422 0.945 1_545 S
H1415 C1424 0.950 . S
H1416 C1426 0.950 . S
H1417 C1428 0.950 . S
H1418 C1430 0.950 . S
H1419 C1431 0.950 . S
C1420 H1412 0.950 . S
C1420 C1421 1.386 . S
C1420 C1422 1.397 . S
C1421 C1420 1.386 . S
C1421 C1425 1.393 . S
C1422 H1414 0.945 1_565 S
C1422 C1420 1.397 . S
C1422 C1423 1.400 1_565 S
C1423 C1422 1.400 1_545 S
C1423 C1424 1.398 1_545 S
C1423 C1429 1.491 . S
C1424 H1415 0.950 . S
C1424 C1423 1.398 1_565 S
C1424 C1425 1.391 . S
C1425 H1413 0.950 . S
C1425 C1421 1.393 . S
C1425 C1424 1.391 . S
C1426 H1416 0.950 . S
C1426 C1427 1.386 . S
C1426 C1428 1.391 . S
C1427 C1426 1.386 . S
C1427 C1431 1.393 . S
C1428 H1417 0.950 . S
C1428 C1426 1.391 . S
C1428 C1429 1.400 . S
C1429 C1423 1.491 . S
C1429 C1428 1.400 . S
C1429 C1430 1.398 . S
C1430 H1418 0.950 . S
C1430 C1429 1.398 . S
C1430 C1431 1.391 . S
C1431 H1419 0.950 . S
C1431 C1427 1.393 . S
C1431 C1430 1.391 . S
H1432 C1440 0.950 . S
H1433 C1445 0.950 . S
H1434 C1442 0.950 . S
H1435 C1444 0.950 . S
H1436 C1446 0.950 . S
H1437 C1448 0.950 . S
H1438 C1450 0.950 . S
H1439 C1451 0.950 . S
C1440 H1432 0.950 . S
C1440 C1441 1.386 . S
C1440 C1442 1.391 . S
C1441 C1440 1.386 . S
C1441 C1445 1.393 . S
C1442 H1434 0.950 . S
C1442 C1440 1.391 . S
C1442 C1443 1.400 . S
C1443 C1442 1.400 . S
C1443 C1444 1.398 . S
C1443 C1449 1.491 . S
C1444 H1435 0.950 . S
C1444 C1443 1.398 . S
C1444 C1445 1.391 . S
C1445 H1433 0.950 . S
C1445 C1441 1.393 . S
C1445 C1444 1.391 . S
C1446 H1436 0.950 . S
C1446 C1447 1.386 . S
C1446 C1448 1.391 . S
C1447 C1446 1.386 . S
C1447 C1451 1.393 . S
C1448 H1437 0.950 . S
C1448 C1446 1.391 . S
C1448 C1449 1.400 . S
C1449 C1443 1.491 . S
C1449 C1448 1.400 . S
C1449 C1450 1.398 . S
C1450 H1438 0.950 . S
C1450 C1449 1.398 . S
C1450 C1451 1.391 . S
C1451 H1439 0.950 . S
C1451 C1447 1.393 . S
C1451 C1450 1.391 . S
H1452 C1460 0.950 . S
H1453 C1465 0.950 . S
H1454 C1462 0.950 . S
H1455 C1464 0.950 . S
H1456 C1466 0.950 . S
H1457 C1468 0.950 . S
H1458 C1470 0.950 . S
H1459 C1471 0.950 . S
C1460 H1452 0.950 . S
C1460 C1461 1.386 . S
C1460 C1462 1.391 . S
C1461 C1460 1.386 . S
C1461 C1465 1.393 . S
C1462 H1454 0.950 . S
C1462 C1460 1.391 . S
C1462 C1463 1.400 . S
C1463 C1462 1.400 . S
C1463 C1464 1.398 . S
C1463 C1469 1.491 . S
C1464 H1455 0.950 . S
C1464 C1463 1.398 . S
C1464 C1465 1.391 . S
C1465 H1453 0.950 . S
C1465 C1461 1.393 . S
C1465 C1464 1.391 . S
C1466 H1456 0.950 . S
C1466 C1467 1.386 . S
C1466 C1468 1.391 . S
C1467 C1466 1.386 . S
C1467 C1471 1.393 . S
C1468 H1457 0.950 . S
C1468 C1466 1.391 . S
C1468 C1469 1.400 . S
C1469 C1463 1.491 . S
C1469 C1468 1.400 . S
C1469 C1470 1.398 . S
C1470 H1458 0.950 . S
C1470 C1469 1.398 . S
C1470 C1471 1.391 . S
C1471 H1459 0.950 . S
C1471 C1467 1.393 . S
C1471 C1470 1.391 . S
H1472 C1480 0.950 . S
H1473 C1485 0.950 . S
H1474 C1482 0.950 . S
H1475 C1484 0.950 . S
H1476 C1486 0.950 . S
H1477 C1488 0.950 . S
H1478 C1490 0.950 . S
H1479 C1491 0.950 . S
C1480 H1472 0.950 . S
C1480 C1481 1.386 . S
C1480 C1482 1.391 . S
C1481 C1480 1.386 . S
C1481 C1485 1.393 . S
C1482 H1474 0.950 . S
C1482 C1480 1.391 . S
C1482 C1483 1.400 . S
C1483 C1482 1.400 . S
C1483 C1484 1.398 . S
C1483 C1489 1.491 . S
C1484 H1475 0.950 . S
C1484 C1483 1.398 . S
C1484 C1485 1.391 . S
C1485 H1473 0.950 . S
C1485 C1481 1.393 . S
C1485 C1484 1.391 . S
C1486 H1476 0.950 . S
C1486 C1487 1.386 . S
C1486 C1488 1.391 . S
C1487 C1486 1.386 . S
C1487 C1491 1.393 . S
C1488 H1477 0.950 . S
C1488 C1486 1.391 . S
C1488 C1489 1.400 . S
C1489 C1483 1.491 . S
C1489 C1488 1.400 . S
C1489 C1490 1.398 . S
C1490 H1478 0.950 . S
C1490 C1489 1.398 . S
C1490 C1491 1.391 . S
C1491 H1479 0.950 . S
C1491 C1487 1.393 . S
C1491 C1490 1.391 . S
H1492 C1500 0.950 . S
H1493 C1505 0.950 . S
H1494 C1502 0.950 . S
H1495 C1504 0.950 . S
H1496 C1506 0.950 . S
H1497 C1508 0.950 . S
H1498 C1510 0.950 . S
H1499 C1511 0.950 . S
C1500 H1492 0.950 . S
C1500 C1501 1.386 . S
C1500 C1502 1.391 . S
C1501 C1500 1.386 . S
C1501 C1505 1.393 . S
C1502 H1494 0.950 . S
C1502 C1500 1.391 . S
C1502 C1503 1.400 . S
C1503 C1502 1.400 . S
C1503 C1504 1.398 . S
C1503 C1509 1.491 . S
C1504 H1495 0.950 . S
C1504 C1503 1.398 . S
C1504 C1505 1.391 . S
C1505 H1493 0.950 . S
C1505 C1501 1.393 . S
C1505 C1504 1.391 . S
C1506 H1496 0.950 . S
C1506 C1507 1.386 . S
C1506 C1508 1.391 . S
C1507 C1506 1.386 . S
C1507 C1511 1.393 . S
C1508 H1497 0.950 . S
C1508 C1506 1.391 . S
C1508 C1509 1.400 . S
C1509 C1503 1.491 . S
C1509 C1508 1.400 . S
C1509 C1510 1.398 . S
C1510 H1498 0.950 . S
C1510 C1509 1.398 . S
C1510 C1511 1.391 . S
C1511 H1499 0.950 . S
C1511 C1507 1.393 . S
C1511 C1510 1.391 . S
H1512 C1520 0.950 . S
H1513 C1525 0.950 . S
H1514 C1522 0.950 . S
H1515 C1524 0.950 . S
H1516 C1526 0.950 . S
H1517 C1528 0.950 . S
H1518 C1530 0.950 . S
H1519 C1531 0.950 . S
C1520 H1512 0.950 . S
C1520 C1521 1.386 . S
C1520 C1522 1.391 . S
C1521 C1520 1.386 . S
C1521 C1525 1.393 . S
C1522 H1514 0.950 . S
C1522 C1520 1.391 . S
C1522 C1523 1.400 . S
C1523 C1522 1.400 . S
C1523 C1524 1.398 . S
C1523 C1529 1.491 . S
C1524 H1515 0.950 . S
C1524 C1523 1.398 . S
C1524 C1525 1.391 . S
C1525 H1513 0.950 . S
C1525 C1521 1.393 . S
C1525 C1524 1.391 . S
C1526 H1516 0.950 . S
C1526 C1527 1.386 . S
C1526 C1528 1.391 . S
C1527 C1526 1.386 . S
C1527 C1531 1.393 . S
C1528 H1517 0.950 . S
C1528 C1526 1.391 . S
C1528 C1529 1.400 . S
C1529 C1523 1.491 . S
C1529 C1528 1.400 . S
C1529 C1530 1.398 . S
C1530 H1518 0.950 . S
C1530 C1529 1.398 . S
C1530 C1531 1.391 . S
C1531 H1519 0.950 . S
C1531 C1527 1.393 . S
C1531 C1530 1.391 . S
H1532 C1540 0.950 . S
H1533 C1545 0.950 . S
H1534 C1542 0.950 . S
H1535 C1544 0.950 . S
H1536 C1546 0.950 . S
H1537 C1548 0.950 . S
H1538 C1550 0.950 . S
H1539 C1551 0.950 . S
C1540 H1532 0.950 . S
C1540 C1541 1.386 . S
C1540 C1542 1.391 . S
C1541 C1540 1.386 . S
C1541 C1545 1.393 . S
C1542 H1534 0.950 . S
C1542 C1540 1.391 . S
C1542 C1543 1.400 . S
C1543 C1542 1.400 . S
C1543 C1544 1.398 . S
C1543 C1549 1.491 . S
C1544 H1535 0.950 . S
C1544 C1543 1.398 . S
C1544 C1545 1.391 . S
C1545 H1533 0.950 . S
C1545 C1541 1.393 . S
C1545 C1544 1.391 . S
C1546 H1536 0.950 . S
C1546 C1547 1.386 . S
C1546 C1548 1.391 . S
C1547 C1546 1.386 . S
C1547 C1551 1.393 . S
C1548 H1537 0.950 . S
C1548 C1546 1.391 . S
C1548 C1549 1.400 . S
C1549 C1543 1.491 . S
C1549 C1548 1.400 . S
C1549 C1550 1.398 . S
C1550 H1538 0.950 . S
C1550 C1549 1.398 . S
C1550 C1551 1.391 . S
C1551 H1539 0.950 . S
C1551 C1547 1.393 . S
C1551 C1550 1.391 . S
H1552 C1560 0.950 . S
H1553 C1565 0.950 . S
H1554 C1562 0.950 . S
H1555 C1564 0.950 1_655 S
H1556 C1566 0.950 . S
H1557 C1568 0.950 . S
H1558 C1570 0.950 1_455 S
H1559 C1571 0.950 . S
C1560 H1552 0.950 . S
C1560 C1561 1.386 . S
C1560 C1562 1.391 . S
C1561 C1560 1.386 . S
C1561 C1565 1.393 . S
C1562 H1554 0.950 . S
C1562 C1560 1.391 . S
C1562 C1563 1.400 . S
C1563 C1562 1.400 . S
C1563 C1564 1.398 . S
C1563 C1569 1.491 1_455 S
C1564 H1555 0.950 1_455 S
C1564 C1563 1.398 . S
C1564 C1565 1.391 . S
C1565 H1553 0.950 . S
C1565 C1561 1.393 . S
C1565 C1564 1.391 . S
C1566 H1556 0.950 . S
C1566 C1567 1.386 . S
C1566 C1568 1.391 . S
C1567 C1566 1.386 . S
C1567 C1571 1.393 . S
C1568 H1557 0.950 . S
C1568 C1566 1.391 . S
C1568 C1569 1.400 . S
C1569 C1563 1.491 1_655 S
C1569 C1568 1.400 . S
C1569 C1570 1.398 . S
C1570 H1558 0.950 1_655 S
C1570 C1569 1.398 . S
C1570 C1571 1.391 . S
C1571 H1559 0.950 . S
C1571 C1567 1.393 . S
C1571 C1570 1.391 . S
H1572 C1580 0.950 . S
H1573 C1585 0.950 . S
H1574 C1582 0.950 . S
H1575 C1584 0.950 . S
H1576 C1586 0.950 . S
H1577 C1588 0.950 . S
H1578 C1590 0.950 . S
H1579 C1591 0.950 . S
C1580 H1572 0.950 . S
C1580 C1581 1.386 . S
C1580 C1582 1.391 . S
C1581 C1580 1.386 . S
C1581 C1585 1.393 . S
C1582 H1574 0.950 . S
C1582 C1580 1.391 . S
C1582 C1583 1.400 . S
C1583 C1582 1.400 . S
C1583 C1584 1.398 . S
C1583 C1589 1.491 . S
C1584 H1575 0.950 . S
C1584 C1583 1.398 . S
C1584 C1585 1.391 . S
C1585 H1573 0.950 . S
C1585 C1581 1.393 . S
C1585 C1584 1.391 . S
C1586 H1576 0.950 . S
C1586 C1587 1.386 . S
C1586 C1588 1.391 . S
C1587 C1586 1.386 . S
C1587 C1591 1.393 . S
C1588 H1577 0.950 . S
C1588 C1586 1.391 . S
C1588 C1589 1.400 . S
C1589 C1583 1.491 . S
C1589 C1588 1.400 . S
C1589 C1590 1.398 . S
C1590 H1578 0.950 . S
C1590 C1589 1.398 . S
C1590 C1591 1.391 . S
C1591 H1579 0.950 . S
C1591 C1587 1.393 . S
C1591 C1590 1.391 . S
H1592 C1600 0.950 . S
H1593 C1605 0.950 . S
H1594 C1602 0.950 . S
H1595 C1604 0.950 . S
H1596 C1606 0.950 . S
H1597 C1608 0.950 . S
H1598 C1610 0.950 . S
H1599 C1611 0.950 . S
C1600 H1592 0.950 . S
C1600 C1601 1.386 . S
C1600 C1602 1.391 . S
C1601 C1600 1.386 . S
C1601 C1605 1.393 . S
C1602 H1594 0.950 . S
C1602 C1600 1.391 . S
C1602 C1603 1.400 . S
C1603 C1602 1.400 . S
C1603 C1604 1.398 . S
C1603 C1609 1.491 . S
C1604 H1595 0.950 . S
C1604 C1603 1.398 . S
C1604 C1605 1.391 . S
C1605 H1593 0.950 . S
C1605 C1601 1.393 . S
C1605 C1604 1.391 . S
C1606 H1596 0.950 . S
C1606 C1607 1.386 . S
C1606 C1608 1.391 . S
C1607 C1606 1.386 . S
C1607 C1611 1.393 . S
C1608 H1597 0.950 . S
C1608 C1606 1.391 . S
C1608 C1609 1.400 . S
C1609 C1603 1.491 . S
C1609 C1608 1.400 . S
C1609 C1610 1.398 . S
C1610 H1598 0.950 . S
C1610 C1609 1.398 . S
C1610 C1611 1.391 . S
C1611 H1599 0.950 . S
C1611 C1607 1.393 . S
C1611 C1610 1.391 . S
H1612 C1620 0.950 . S
H1613 C1625 0.950 . S
H1614 C1622 0.950 . S
H1615 C1624 0.950 . S
H1616 C1626 0.950 . S
H1617 C1628 0.950 . S
H1618 C1630 0.950 . S
H1619 C1631 0.950 . S
C1620 H1612 0.950 . S
C1620 C1621 1.386 . S
C1620 C1622 1.391 . S
C1621 C1620 1.386 . S
C1621 C1625 1.393 . S
C1622 H1614 0.950 . S
C1622 C1620 1.391 . S
C1622 C1623 1.400 . S
C1623 C1622 1.400 . S
C1623 C1624 1.398 . S
C1623 C1629 1.491 . S
C1624 H1615 0.950 . S
C1624 C1623 1.398 . S
C1624 C1625 1.391 . S
C1625 H1613 0.950 . S
C1625 C1621 1.393 . S
C1625 C1624 1.391 . S
C1626 H1616 0.950 . S
C1626 C1627 1.386 . S
C1626 C1628 1.391 . S
C1627 C1626 1.386 . S
C1627 C1631 1.393 . S
C1628 H1617 0.950 . S
C1628 C1626 1.391 . S
C1628 C1629 1.400 . S
C1629 C1623 1.491 . S
C1629 C1628 1.400 . S
C1629 C1630 1.398 . S
C1630 H1618 0.950 . S
C1630 C1629 1.398 . S
C1630 C1631 1.391 . S
C1631 H1619 0.950 . S
C1631 C1627 1.393 . S
C1631 C1630 1.391 . S
H1632 C1640 0.950 . S
H1633 C1645 0.950 . S
H1634 C1642 0.950 . S
H1635 C1644 0.950 . S
H1636 C1646 0.950 . S
H1637 C1648 0.950 . S
H1638 C1650 0.950 . S
H1639 C1651 0.950 . S
C1640 H1632 0.950 . S
C1640 C1641 1.386 . S
C1640 C1642 1.391 . S
C1641 C1640 1.386 . S
C1641 C1645 1.393 . S
C1642 H1634 0.950 . S
C1642 C1640 1.391 . S
C1642 C1643 1.400 . S
C1643 C1642 1.400 . S
C1643 C1644 1.398 . S
C1643 C1649 1.491 . S
C1644 H1635 0.950 . S
C1644 C1643 1.398 . S
C1644 C1645 1.391 . S
C1645 H1633 0.950 . S
C1645 C1641 1.393 . S
C1645 C1644 1.391 . S
C1646 H1636 0.950 . S
C1646 C1647 1.386 . S
C1646 C1648 1.391 . S
C1647 C1646 1.386 . S
C1647 C1651 1.393 . S
C1648 H1637 0.950 . S
C1648 C1646 1.391 . S
C1648 C1649 1.400 . S
C1649 C1643 1.491 . S
C1649 C1648 1.400 . S
C1649 C1650 1.398 . S
C1650 H1638 0.950 . S
C1650 C1649 1.398 . S
C1650 C1651 1.391 . S
C1651 H1639 0.950 . S
C1651 C1647 1.393 . S
C1651 C1650 1.391 . S
H1652 C1660 0.950 . S
H1653 C1665 0.950 . S
H1654 C1662 0.950 . S
H1655 C1664 0.950 . S
H1656 C1666 0.950 . S
H1657 C1668 0.950 . S
H1658 C1670 0.950 . S
H1659 C1671 0.950 . S
C1660 H1652 0.950 . S
C1660 C1661 1.386 . S
C1660 C1662 1.391 . S
C1661 C1660 1.386 . S
C1661 C1665 1.393 . S
C1662 H1654 0.950 . S
C1662 C1660 1.391 . S
C1662 C1663 1.400 . S
C1663 C1662 1.400 . S
C1663 C1664 1.398 . S
C1663 C1669 1.491 . S
C1664 H1655 0.950 . S
C1664 C1663 1.398 . S
C1664 C1665 1.391 . S
C1665 H1653 0.950 . S
C1665 C1661 1.393 . S
C1665 C1664 1.391 . S
C1666 H1656 0.950 . S
C1666 C1667 1.386 . S
C1666 C1668 1.391 . S
C1667 C1666 1.386 . S
C1667 C1671 1.393 . S
C1668 H1657 0.950 . S
C1668 C1666 1.391 . S
C1668 C1669 1.400 . S
C1669 C1663 1.491 . S
C1669 C1668 1.400 . S
C1669 C1670 1.398 . S
C1670 H1658 0.950 . S
C1670 C1669 1.398 . S
C1670 C1671 1.391 . S
C1671 H1659 0.950 . S
C1671 C1667 1.393 . S
C1671 C1670 1.391 . S
H1672 C1680 0.950 . S
H1673 C1685 0.950 . S
H1674 C1682 0.950 . S
H1675 C1684 0.950 . S
H1676 C1686 0.950 . S
H1677 C1688 0.950 . S
H1678 C1690 0.950 . S
H1679 C1691 0.950 . S
C1680 H1672 0.950 . S
C1680 C1681 1.386 . S
C1680 C1682 1.391 . S
C1681 C1680 1.386 . S
C1681 C1685 1.393 . S
C1682 H1674 0.950 . S
C1682 C1680 1.391 . S
C1682 C1683 1.400 . S
C1683 C1682 1.400 . S
C1683 C1684 1.398 . S
C1683 C1689 1.491 . S
C1684 H1675 0.950 . S
C1684 C1683 1.398 . S
C1684 C1685 1.391 . S
C1685 H1673 0.950 . S
C1685 C1681 1.393 . S
C1685 C1684 1.391 . S
C1686 H1676 0.950 . S
C1686 C1687 1.386 . S
C1686 C1688 1.391 . S
C1687 C1686 1.386 . S
C1687 C1691 1.393 . S
C1688 H1677 0.950 . S
C1688 C1686 1.391 . S
C1688 C1689 1.400 . S
C1689 C1683 1.491 . S
C1689 C1688 1.400 . S
C1689 C1690 1.398 . S
C1690 H1678 0.950 . S
C1690 C1689 1.398 . S
C1690 C1691 1.391 . S
C1691 H1679 0.950 . S
C1691 C1687 1.393 . S
C1691 C1690 1.391 . S
H1692 C1700 0.950 . S
H1693 C1705 0.950 . S
H1694 C1702 0.950 . S
H1695 C1704 0.950 . S
H1696 C1706 0.950 . S
H1697 C1708 0.950 . S
H1698 C1710 0.950 . S
H1699 C1711 0.950 . S
C1700 H1692 0.950 . S
C1700 C1701 1.386 . S
C1700 C1702 1.391 . S
C1701 C1700 1.386 . S
C1701 C1705 1.393 . S
C1702 H1694 0.950 . S
C1702 C1700 1.391 . S
C1702 C1703 1.400 . S
C1703 C1702 1.400 . S
C1703 C1704 1.398 . S
C1703 C1709 1.491 . S
C1704 H1695 0.950 . S
C1704 C1703 1.398 . S
C1704 C1705 1.391 . S
C1705 H1693 0.950 . S
C1705 C1701 1.393 . S
C1705 C1704 1.391 . S
C1706 H1696 0.950 . S
C1706 C1707 1.386 . S
C1706 C1708 1.391 . S
C1707 C1706 1.386 . S
C1707 C1711 1.393 . S
C1708 H1697 0.950 . S
C1708 C1706 1.391 . S
C1708 C1709 1.400 . S
C1709 C1703 1.491 . S
C1709 C1708 1.400 . S
C1709 C1710 1.398 . S
C1710 H1698 0.950 . S
C1710 C1709 1.398 . S
C1710 C1711 1.391 . S
C1711 H1699 0.950 . S
C1711 C1707 1.393 . S
C1711 C1710 1.391 . S
H1712 C1720 0.950 . S
H1713 C1725 0.950 . S
H1714 C1722 0.950 . S
H1715 C1724 0.950 . S
H1716 C1726 0.950 . S
H1717 C1728 0.950 . S
H1718 C1730 0.950 . S
H1719 C1731 0.950 . S
C1720 H1712 0.950 . S
C1720 C1721 1.386 . S
C1720 C1722 1.391 . S
C1721 C1720 1.386 . S
C1721 C1725 1.393 . S
C1722 H1714 0.950 . S
C1722 C1720 1.391 . S
C1722 C1723 1.400 . S
C1723 C1722 1.400 . S
C1723 C1724 1.398 . S
C1723 C1729 1.491 . S
C1724 H1715 0.950 . S
C1724 C1723 1.398 . S
C1724 C1725 1.391 . S
C1725 H1713 0.950 . S
C1725 C1721 1.393 . S
C1725 C1724 1.391 . S
C1726 H1716 0.950 . S
C1726 C1727 1.386 . S
C1726 C1728 1.391 . S
C1727 C1726 1.386 . S
C1727 C1731 1.393 . S
C1728 H1717 0.950 . S
C1728 C1726 1.391 . S
C1728 C1729 1.400 . S
C1729 C1723 1.491 . S
C1729 C1728 1.400 . S
C1729 C1730 1.398 . S
C1730 H1718 0.950 . S
C1730 C1729 1.398 . S
C1730 C1731 1.391 . S
C1731 H1719 0.950 . S
C1731 C1727 1.393 . S
C1731 C1730 1.391 . S
H1732 C1740 0.950 . S
H1733 C1745 0.950 . S
H1734 C1742 0.950 . S
H1735 C1744 0.950 . S
H1736 C1746 0.950 . S
H1737 C1748 0.950 . S
H1738 C1750 0.950 . S
H1739 C1751 0.950 . S
C1740 H1732 0.950 . S
C1740 C1741 1.386 . S
C1740 C1742 1.391 . S
C1741 C1740 1.386 . S
C1741 C1745 1.393 . S
C1742 H1734 0.950 . S
C1742 C1740 1.391 . S
C1742 C1743 1.400 . S
C1743 C1742 1.400 . S
C1743 C1744 1.398 . S
C1743 C1749 1.491 . S
C1744 H1735 0.950 . S
C1744 C1743 1.398 . S
C1744 C1745 1.391 . S
C1745 H1733 0.950 . S
C1745 C1741 1.393 . S
C1745 C1744 1.391 . S
C1746 H1736 0.950 . S
C1746 C1747 1.386 . S
C1746 C1748 1.391 . S
C1747 C1746 1.386 . S
C1747 C1751 1.393 . S
C1748 H1737 0.950 . S
C1748 C1746 1.391 . S
C1748 C1749 1.400 . S
C1749 C1743 1.491 . S
C1749 C1748 1.400 . S
C1749 C1750 1.398 . S
C1750 H1738 0.950 . S
C1750 C1749 1.398 . S
C1750 C1751 1.391 . S
C1751 H1739 0.950 . S
C1751 C1747 1.393 . S
C1751 C1750 1.391 . S
H1752 C1760 0.950 . S
H1753 C1765 0.950 . S
H1754 C1762 0.950 . S
H1755 C1764 0.950 . S
H1756 C1766 0.950 . S
H1757 C1768 0.950 . S
H1758 C1770 0.950 . S
H1759 C1771 0.950 . S
C1760 H1752 0.950 . S
C1760 C1761 1.386 . S
C1760 C1762 1.391 . S
C1761 C1760 1.386 . S
C1761 C1765 1.393 . S
C1762 H1754 0.950 . S
C1762 C1760 1.391 . S
C1762 C1763 1.400 . S
C1763 C1762 1.400 . S
C1763 C1764 1.398 . S
C1763 C1769 1.491 . S
C1764 H1755 0.950 . S
C1764 C1763 1.398 . S
C1764 C1765 1.391 . S
C1765 H1753 0.950 . S
C1765 C1761 1.393 . S
C1765 C1764 1.391 . S
C1766 H1756 0.950 . S
C1766 C1767 1.386 . S
C1766 C1768 1.391 . S
C1767 C1766 1.386 . S
C1767 C1771 1.393 . S
C1768 H1757 0.950 . S
C1768 C1766 1.391 . S
C1768 C1769 1.400 . S
C1769 C1763 1.491 . S
C1769 C1768 1.400 . S
C1769 C1770 1.398 . S
C1770 H1758 0.950 . S
C1770 C1769 1.398 . S
C1770 C1771 1.391 . S
C1771 H1759 0.950 . S
C1771 C1767 1.393 . S
C1771 C1770 1.391 . S
H1772 C1780 0.950 . S
H1773 C1785 0.950 . S
H1774 C1782 0.950 . S
H1775 C1784 0.950 . S
H1776 C1786 0.950 . S
H1777 C1788 0.950 . S
H1778 C1790 0.950 . S
H1779 C1791 0.950 . S
C1780 H1772 0.950 . S
C1780 C1781 1.386 . S
C1780 C1782 1.391 . S
C1781 C1780 1.386 . S
C1781 C1785 1.393 . S
C1782 H1774 0.950 . S
C1782 C1780 1.391 . S
C1782 C1783 1.400 . S
C1783 C1782 1.400 . S
C1783 C1784 1.398 . S
C1783 C1789 1.491 . S
C1784 H1775 0.950 . S
C1784 C1783 1.398 . S
C1784 C1785 1.391 . S
C1785 H1773 0.950 . S
C1785 C1781 1.393 . S
C1785 C1784 1.391 . S
C1786 H1776 0.950 . S
C1786 C1787 1.386 . S
C1786 C1788 1.391 . S
C1787 C1786 1.386 . S
C1787 C1791 1.393 . S
C1788 H1777 0.950 . S
C1788 C1786 1.391 . S
C1788 C1789 1.400 . S
C1789 C1783 1.491 . S
C1789 C1788 1.400 . S
C1789 C1790 1.398 . S
C1790 H1778 0.950 . S
C1790 C1789 1.398 . S
C1790 C1791 1.391 . S
C1791 H1779 0.950 . S
C1791 C1787 1.393 . S
C1791 C1790 1.391 . S
H1792 C1800 0.950 . S
H1793 C1805 0.950 . S
H1794 C1802 0.950 . S
H1795 C1804 0.950 . S
H1796 C1806 0.950 . S
H1797 C1808 0.950 . S
H1798 C1810 0.950 . S
H1799 C1811 0.950 . S
C1800 H1792 0.950 . S
C1800 C1801 1.386 . S
C1800 C1802 1.391 . S
C1801 C1800 1.386 . S
C1801 C1805 1.393 . S
C1802 H1794 0.950 . S
C1802 C1800 1.391 . S
C1802 C1803 1.400 . S
C1803 C1802 1.400 . S
C1803 C1804 1.398 . S
C1803 C1809 1.491 . S
C1804 H1795 0.950 . S
C1804 C1803 1.398 . S
C1804 C1805 1.391 . S
C1805 H1793 0.950 . S
C1805 C1801 1.393 . S
C1805 C1804 1.391 . S
C1806 H1796 0.950 . S
C1806 C1807 1.386 . S
C1806 C1808 1.391 . S
C1807 C1806 1.386 . S
C1807 C1811 1.393 . S
C1808 H1797 0.950 . S
C1808 C1806 1.391 . S
C1808 C1809 1.400 . S
C1809 C1803 1.491 . S
C1809 C1808 1.400 . S
C1809 C1810 1.398 . S
C1810 H1798 0.950 . S
C1810 C1809 1.398 . S
C1810 C1811 1.391 . S
C1811 H1799 0.950 . S
C1811 C1807 1.393 . S
C1811 C1810 1.391 . S
H1812 C1820 0.950 . S
H1813 C1825 0.950 . S
H1814 C1822 0.950 . S
H1815 C1824 0.950 . S
H1816 C1826 0.950 . S
H1817 C1828 0.950 . S
H1818 C1830 0.950 . S
H1819 C1831 0.950 . S
C1820 H1812 0.950 . S
C1820 C1821 1.386 . S
C1820 C1822 1.391 . S
C1821 C1820 1.386 . S
C1821 C1825 1.393 . S
C1822 H1814 0.950 . S
C1822 C1820 1.391 . S
C1822 C1823 1.400 . S
C1823 C1822 1.400 . S
C1823 C1824 1.398 . S
C1823 C1829 1.491 . S
C1824 H1815 0.950 . S
C1824 C1823 1.398 . S
C1824 C1825 1.391 . S
C1825 H1813 0.950 . S
C1825 C1821 1.393 . S
C1825 C1824 1.391 . S
C1826 H1816 0.950 . S
C1826 C1827 1.386 . S
C1826 C1828 1.391 . S
C1827 C1826 1.386 . S
C1827 C1831 1.393 . S
C1828 H1817 0.950 . S
C1828 C1826 1.391 . S
C1828 C1829 1.400 . S
C1829 C1823 1.491 . S
C1829 C1828 1.400 . S
C1829 C1830 1.398 . S
C1830 H1818 0.950 . S
C1830 C1829 1.398 . S
C1830 C1831 1.391 . S
C1831 H1819 0.950 . S
C1831 C1827 1.393 . S
C1831 C1830 1.391 . S
H1832 C1840 0.950 . S
H1833 C1845 0.950 . S
H1834 C1842 0.950 . S
H1835 C1844 0.950 . S
H1836 C1846 0.950 . S
H1837 C1848 0.950 . S
H1838 C1850 0.950 . S
H1839 C1851 0.950 . S
C1840 H1832 0.950 . S
C1840 C1841 1.386 . S
C1840 C1842 1.391 . S
C1841 C1840 1.386 . S
C1841 C1845 1.393 . S
C1842 H1834 0.950 . S
C1842 C1840 1.391 . S
C1842 C1843 1.400 . S
C1843 C1842 1.400 . S
C1843 C1844 1.398 . S
C1843 C1849 1.491 . S
C1844 H1835 0.950 . S
C1844 C1843 1.398 . S
C1844 C1845 1.391 . S
C1845 H1833 0.950 . S
C1845 C1841 1.393 . S
C1845 C1844 1.391 . S
C1846 H1836 0.950 . S
C1846 C1847 1.386 . S
C1846 C1848 1.391 . S
C1847 C1846 1.386 . S
C1847 C1851 1.393 . S
C1848 H1837 0.950 . S
C1848 C1846 1.391 . S
C1848 C1849 1.400 . S
C1849 C1843 1.491 . S
C1849 C1848 1.400 . S
C1849 C1850 1.398 . S
C1850 H1838 0.950 . S
C1850 C1849 1.398 . S
C1850 C1851 1.391 . S
C1851 H1839 0.950 . S
C1851 C1847 1.393 . S
C1851 C1850 1.391 . S
H1852 C1860 0.950 . S
H1853 C1865 0.950 . S
H1854 C1862 0.950 . S
H1855 C1864 0.950 . S
H1856 C1866 0.950 . S
H1857 C1868 0.950 . S
H1858 C1870 0.950 . S
H1859 C1871 0.950 . S
C1860 H1852 0.950 . S
C1860 C1861 1.386 . S
C1860 C1862 1.391 . S
C1861 C1860 1.386 . S
C1861 C1865 1.393 . S
C1862 H1854 0.950 . S
C1862 C1860 1.391 . S
C1862 C1863 1.400 . S
C1863 C1862 1.400 . S
C1863 C1864 1.398 . S
C1863 C1869 1.491 . S
C1864 H1855 0.950 . S
C1864 C1863 1.398 . S
C1864 C1865 1.391 . S
C1865 H1853 0.950 . S
C1865 C1861 1.393 . S
C1865 C1864 1.391 . S
C1866 H1856 0.950 . S
C1866 C1867 1.386 . S
C1866 C1868 1.391 . S
C1867 C1866 1.386 . S
C1867 C1871 1.393 . S
C1868 H1857 0.950 . S
C1868 C1866 1.391 . S
C1868 C1869 1.400 . S
C1869 C1863 1.491 . S
C1869 C1868 1.400 . S
C1869 C1870 1.398 . S
C1870 H1858 0.950 . S
C1870 C1869 1.398 . S
C1870 C1871 1.391 . S
C1871 H1859 0.950 . S
C1871 C1867 1.393 . S
C1871 C1870 1.391 . S
H1872 C1880 0.950 . S
H1873 C1885 0.950 . S
H1874 C1882 0.950 . S
H1875 C1884 0.950 . S
H1876 C1886 0.950 . S
H1877 C1888 0.950 . S
H1878 C1890 0.950 . S
H1879 C1891 0.950 . S
C1880 H1872 0.950 . S
C1880 C1881 1.386 . S
C1880 C1882 1.391 . S
C1881 C1880 1.386 . S
C1881 C1885 1.393 . S
C1882 H1874 0.950 . S
C1882 C1880 1.391 . S
C1882 C1883 1.400 . S
C1883 C1882 1.400 . S
C1883 C1884 1.398 . S
C1883 C1889 1.491 . S
C1884 H1875 0.950 . S
C1884 C1883 1.398 . S
C1884 C1885 1.391 . S
C1885 H1873 0.950 . S
C1885 C1881 1.393 . S
C1885 C1884 1.391 . S
C1886 H1876 0.950 . S
C1886 C1887 1.386 . S
C1886 C1888 1.391 . S
C1887 C1886 1.386 . S
C1887 C1891 1.393 . S
C1888 H1877 0.950 . S
C1888 C1886 1.391 . S
C1888 C1889 1.400 . S
C1889 C1883 1.491 . S
C1889 C1888 1.400 . S
C1889 C1890 1.398 . S
C1890 H1878 0.950 . S
C1890 C1889 1.398 . S
C1890 C1891 1.391 . S
C1891 H1879 0.950 . S
C1891 C1887 1.393 . S
C1891 C1890 1.391 . S
H1892 C1900 0.950 . S
H1893 C1905 0.950 . S
H1894 C1902 0.950 . S
H1895 C1904 0.950 . S
H1896 C1906 0.950 . S
H1897 C1908 0.950 . S
H1898 C1910 0.950 . S
H1899 C1911 0.950 . S
C1900 H1892 0.950 . S
C1900 C1901 1.386 . S
C1900 C1902 1.391 . S
C1901 C1900 1.386 . S
C1901 C1905 1.393 . S
C1902 H1894 0.950 . S
C1902 C1900 1.391 . S
C1902 C1903 1.400 . S
C1903 C1902 1.400 . S
C1903 C1904 1.398 . S
C1903 C1909 1.491 . S
C1904 H1895 0.950 . S
C1904 C1903 1.398 . S
C1904 C1905 1.391 . S
C1905 H1893 0.950 . S
C1905 C1901 1.393 . S
C1905 C1904 1.391 . S
C1906 H1896 0.950 . S
C1906 C1907 1.386 . S
C1906 C1908 1.391 . S
C1907 C1906 1.386 . S
C1907 C1911 1.393 . S
C1908 H1897 0.950 . S
C1908 C1906 1.391 . S
C1908 C1909 1.400 . S
C1909 C1903 1.491 . S
C1909 C1908 1.400 . S
C1909 C1910 1.398 . S
C1910 H1898 0.950 . S
C1910 C1909 1.398 . S
C1910 C1911 1.391 . S
C1911 H1899 0.950 . S
C1911 C1907 1.393 . S
C1911 C1910 1.391 . S
H1912 C1920 0.950 . S
H1913 C1925 0.950 . S
H1914 C1922 0.950 . S
H1915 C1924 0.950 . S
H1916 C1926 0.950 . S
H1917 C1928 0.950 . S
H1918 C1930 0.950 . S
H1919 C1931 0.950 . S
C1920 H1912 0.950 . S
C1920 C1921 1.386 . S
C1920 C1922 1.391 . S
C1921 C1920 1.386 . S
C1921 C1925 1.393 . S
C1922 H1914 0.950 . S
C1922 C1920 1.391 . S
C1922 C1923 1.400 . S
C1923 C1922 1.400 . S
C1923 C1924 1.398 . S
C1923 C1929 1.491 . S
C1924 H1915 0.950 . S
C1924 C1923 1.398 . S
C1924 C1925 1.391 . S
C1925 H1913 0.950 . S
C1925 C1921 1.393 . S
C1925 C1924 1.391 . S
C1926 H1916 0.950 . S
C1926 C1927 1.386 . S
C1926 C1928 1.391 . S
C1927 C1926 1.386 . S
C1927 C1931 1.393 . S
C1928 H1917 0.950 . S
C1928 C1926 1.391 . S
C1928 C1929 1.400 . S
C1929 C1923 1.491 . S
C1929 C1928 1.400 . S
C1929 C1930 1.398 . S
C1930 H1918 0.950 . S
C1930 C1929 1.398 . S
C1930 C1931 1.391 . S
C1931 H1919 0.950 . S
C1931 C1927 1.393 . S
C1931 C1930 1.391 . S
H1932 C1940 0.950 . S
H1933 C1945 0.950 . S
H1934 C1942 0.950 . S
H1935 C1944 0.950 . S
H1936 C1946 0.950 . S
H1937 C1948 0.950 . S
H1938 C1950 0.950 . S
H1939 C1951 0.950 . S
C1940 H1932 0.950 . S
C1940 C1941 1.386 . S
C1940 C1942 1.391 . S
C1941 C1940 1.386 . S
C1941 C1945 1.393 . S
C1942 H1934 0.950 . S
C1942 C1940 1.391 . S
C1942 C1943 1.400 . S
C1943 C1942 1.400 . S
C1943 C1944 1.398 . S
C1943 C1949 1.491 . S
C1944 H1935 0.950 . S
C1944 C1943 1.398 . S
C1944 C1945 1.391 . S
C1945 H1933 0.950 . S
C1945 C1941 1.393 . S
C1945 C1944 1.391 . S
C1946 H1936 0.950 . S
C1946 C1947 1.386 . S
C1946 C1948 1.391 . S
C1947 C1946 1.386 . S
C1947 C1951 1.393 . S
C1948 H1937 0.950 . S
C1948 C1946 1.391 . S
C1948 C1949 1.400 . S
C1949 C1943 1.491 . S
C1949 C1948 1.400 . S
C1949 C1950 1.398 . S
C1950 H1938 0.950 . S
C1950 C1949 1.398 . S
C1950 C1951 1.391 . S
C1951 H1939 0.950 . S
C1951 C1947 1.393 . S
C1951 C1950 1.391 . S
H1952 C1960 0.950 . S
H1953 C1965 0.950 . S
H1954 C1962 0.950 . S
H1955 C1964 0.950 . S
H1956 C1966 0.950 . S
H1957 C1968 0.950 . S
H1958 C1970 0.950 . S
H1959 C1971 0.950 . S
C1960 H1952 0.950 . S
C1960 C1961 1.386 . S
C1960 C1962 1.391 . S
C1961 C1960 1.386 . S
C1961 C1965 1.393 . S
C1962 H1954 0.950 . S
C1962 C1960 1.391 . S
C1962 C1963 1.400 . S
C1963 C1962 1.400 . S
C1963 C1964 1.398 . S
C1963 C1969 1.491 . S
C1964 H1955 0.950 . S
C1964 C1963 1.398 . S
C1964 C1965 1.391 . S
C1965 H1953 0.950 . S
C1965 C1961 1.393 . S
C1965 C1964 1.391 . S
C1966 H1956 0.950 . S
C1966 C1967 1.386 . S
C1966 C1968 1.391 . S
C1967 C1966 1.386 . S
C1967 C1971 1.393 . S
C1968 H1957 0.950 . S
C1968 C1966 1.391 . S
C1968 C1969 1.400 . S
C1969 C1963 1.491 . S
C1969 C1968 1.400 . S
C1969 C1970 1.398 . S
C1970 H1958 0.950 . S
C1970 C1969 1.398 . S
C1970 C1971 1.391 . S
C1971 H1959 0.950 . S
C1971 C1967 1.393 . S
C1971 C1970 1.391 . S
H1972 C1980 0.950 . S
H1973 C1985 0.950 . S
H1974 C1982 0.950 . S
H1975 C1984 0.950 . S
H1976 C1986 0.950 . S
H1977 C1988 0.950 . S
H1978 C1990 0.950 . S
H1979 C1991 0.950 . S
C1980 H1972 0.950 . S
C1980 C1981 1.386 . S
C1980 C1982 1.391 . S
C1981 C1980 1.386 . S
C1981 C1985 1.393 . S
C1982 H1974 0.950 . S
C1982 C1980 1.391 . S
C1982 C1983 1.400 . S
C1983 C1982 1.400 . S
C1983 C1984 1.398 . S
C1983 C1989 1.491 . S
C1984 H1975 0.950 . S
C1984 C1983 1.398 . S
C1984 C1985 1.391 . S
C1985 H1973 0.950 . S
C1985 C1981 1.393 . S
C1985 C1984 1.391 . S
C1986 H1976 0.950 . S
C1986 C1987 1.386 . S
C1986 C1988 1.391 . S
C1987 C1986 1.386 . S
C1987 C1991 1.393 . S
C1988 H1977 0.950 . S
C1988 C1986 1.391 . S
C1988 C1989 1.400 . S
C1989 C1983 1.491 . S
C1989 C1988 1.400 . S
C1989 C1990 1.398 . S
C1990 H1978 0.950 . S
C1990 C1989 1.398 . S
C1990 C1991 1.391 . S
C1991 H1979 0.950 . S
C1991 C1987 1.393 . S
C1991 C1990 1.391 . S
H1992 C2000 0.950 . S
H1993 C2005 0.950 . S
H1994 C2002 0.950 . S
H1995 C2004 0.950 . S
H1996 C2006 0.950 . S
H1997 C2008 0.950 . S
H1998 C2010 0.950 . S
H1999 C2011 0.950 . S
C2000 H1992 0.950 . S
C2000 C2001 1.386 . S
C2000 C2002 1.391 . S
C2001 C2000 1.386 . S
C2001 C2005 1.393 . S
C2002 H1994 0.950 . S
C2002 C2000 1.391 . S
C2002 C2003 1.400 . S
C2003 C2002 1.400 . S
C2003 C2004 1.398 . S
C2003 C2009 1.491 . S
C2004 H1995 0.950 . S
C2004 C2003 1.398 . S
C2004 C2005 1.391 . S
C2005 H1993 0.950 . S
C2005 C2001 1.393 . S
C2005 C2004 1.391 . S
C2006 H1996 0.950 . S
C2006 C2007 1.386 . S
C2006 C2008 1.391 . S
C2007 C2006 1.386 . S
C2007 C2011 1.393 . S
C2008 H1997 0.950 . S
C2008 C2006 1.391 . S
C2008 C2009 1.400 . S
C2009 C2003 1.491 . S
C2009 C2008 1.400 . S
C2009 C2010 1.398 . S
C2010 H1998 0.950 . S
C2010 C2009 1.398 . S
C2010 C2011 1.391 . S
C2011 H1999 0.950 . S
C2011 C2007 1.393 . S
C2011 C2010 1.391 . S
H2012 C2020 0.950 . S
H2013 C2025 0.950 . S
H2014 C2022 0.950 . S
H2015 C2024 0.950 . S
H2016 C2026 0.950 . S
H2017 C2028 0.950 . S
H2018 C2030 0.950 . S
H2019 C2031 0.950 . S
C2020 H2012 0.950 . S
C2020 C2021 1.386 . S
C2020 C2022 1.391 . S
C2021 C2020 1.386 . S
C2021 C2025 1.393 . S
C2022 H2014 0.950 . S
C2022 C2020 1.391 . S
C2022 C2023 1.400 . S
C2023 C2022 1.400 . S
C2023 C2024 1.398 . S
C2023 C2029 1.491 . S
C2024 H2015 0.950 . S
C2024 C2023 1.398 . S
C2024 C2025 1.391 . S
C2025 H2013 0.950 . S
C2025 C2021 1.393 . S
C2025 C2024 1.391 . S
C2026 H2016 0.950 . S
C2026 C2027 1.386 . S
C2026 C2028 1.391 . S
C2027 C2026 1.386 . S
C2027 C2031 1.393 . S
C2028 H2017 0.950 . S
C2028 C2026 1.391 . S
C2028 C2029 1.400 . S
C2029 C2023 1.491 . S
C2029 C2028 1.400 . S
C2029 C2030 1.398 . S
C2030 H2018 0.950 . S
C2030 C2029 1.398 . S
C2030 C2031 1.391 . S
C2031 H2019 0.950 . S
C2031 C2027 1.393 . S
C2031 C2030 1.391 . S
H2032 C2040 0.950 . S
H2033 C2045 0.950 . S
H2034 C2042 0.950 . S
H2035 C2044 0.950 . S
H2036 C2046 0.950 . S
H2037 C2048 0.950 . S
H2038 C2050 0.950 . S
H2039 C2051 0.950 . S
C2040 H2032 0.950 . S
C2040 C2041 1.386 . S
C2040 C2042 1.391 . S
C2041 C2040 1.386 . S
C2041 C2045 1.393 . S
C2042 H2034 0.950 . S
C2042 C2040 1.391 . S
C2042 C2043 1.400 . S
C2043 C2042 1.400 . S
C2043 C2044 1.398 . S
C2043 C2049 1.491 . S
C2044 H2035 0.950 . S
C2044 C2043 1.398 . S
C2044 C2045 1.391 . S
C2045 H2033 0.950 . S
C2045 C2041 1.393 . S
C2045 C2044 1.391 . S
C2046 H2036 0.950 . S
C2046 C2047 1.386 . S
C2046 C2048 1.391 . S
C2047 C2046 1.386 . S
C2047 C2051 1.393 . S
C2048 H2037 0.950 . S
C2048 C2046 1.391 . S
C2048 C2049 1.400 . S
C2049 C2043 1.491 . S
C2049 C2048 1.400 . S
C2049 C2050 1.398 . S
C2050 H2038 0.950 . S
C2050 C2049 1.398 . S
C2050 C2051 1.391 . S
C2051 H2039 0.950 . S
C2051 C2047 1.393 . S
C2051 C2050 1.391 . S
H2052 C2060 0.950 . S
H2053 C2065 0.950 . S
H2054 C2062 0.950 . S
H2055 C2064 0.950 . S
H2056 C2066 0.950 . S
H2057 C2068 0.950 . S
H2058 C2070 0.950 . S
H2059 C2071 0.950 . S
C2060 H2052 0.950 . S
C2060 C2061 1.386 . S
C2060 C2062 1.391 . S
C2061 C2060 1.386 . S
C2061 C2065 1.393 . S
C2062 H2054 0.950 . S
C2062 C2060 1.391 . S
C2062 C2063 1.400 . S
C2063 C2062 1.400 . S
C2063 C2064 1.398 . S
C2063 C2069 1.491 . S
C2064 H2055 0.950 . S
C2064 C2063 1.398 . S
C2064 C2065 1.391 . S
C2065 H2053 0.950 . S
C2065 C2061 1.393 . S
C2065 C2064 1.391 . S
C2066 H2056 0.950 . S
C2066 C2067 1.386 . S
C2066 C2068 1.391 . S
C2067 C2066 1.386 . S
C2067 C2071 1.393 . S
C2068 H2057 0.950 . S
C2068 C2066 1.391 . S
C2068 C2069 1.400 . S
C2069 C2063 1.491 . S
C2069 C2068 1.400 . S
C2069 C2070 1.398 . S
C2070 H2058 0.950 . S
C2070 C2069 1.398 . S
C2070 C2071 1.391 . S
C2071 H2059 0.950 . S
C2071 C2067 1.393 . S
C2071 C2070 1.391 . S
H2072 C2080 0.950 . S
H2073 C2085 0.950 . S
H2074 C2082 0.950 . S
H2075 C2084 0.950 . S
H2076 C2086 0.950 . S
H2077 C2088 0.950 . S
H2078 C2090 0.950 . S
H2079 C2091 0.950 . S
C2080 H2072 0.950 . S
C2080 C2081 1.386 . S
C2080 C2082 1.391 . S
C2081 C2080 1.386 . S
C2081 C2085 1.393 . S
C2082 H2074 0.950 . S
C2082 C2080 1.391 . S
C2082 C2083 1.400 . S
C2083 C2082 1.400 . S
C2083 C2084 1.398 . S
C2083 C2089 1.491 . S
C2084 H2075 0.950 . S
C2084 C2083 1.398 . S
C2084 C2085 1.391 . S
C2085 H2073 0.950 . S
C2085 C2081 1.393 . S
C2085 C2084 1.391 . S
C2086 H2076 0.950 . S
C2086 C2087 1.386 . S
C2086 C2088 1.391 . S
C2087 C2086 1.386 . S
C2087 C2091 1.393 . S
C2088 H2077 0.950 . S
C2088 C2086 1.391 . S
C2088 C2089 1.400 . S
C2089 C2083 1.491 . S
C2089 C2088 1.400 . S
C2089 C2090 1.398 . S
C2090 H2078 0.950 . S
C2090 C2089 1.398 . S
C2090 C2091 1.391 . S
C2091 H2079 0.950 . S
C2091 C2087 1.393 . S
C2091 C2090 1.391 . S
H2092 C2100 0.950 . S
H2093 C2105 0.950 . S
H2094 C2102 0.950 . S
H2095 C2104 0.950 . S
H2096 C2106 0.950 . S
H2097 C2108 0.950 . S
H2098 C2110 0.950 . S
H2099 C2111 0.950 . S
C2100 H2092 0.950 . S
C2100 C2101 1.386 . S
C2100 C2102 1.391 . S
C2101 C2100 1.386 . S
C2101 C2105 1.393 . S
C2102 H2094 0.950 . S
C2102 C2100 1.391 . S
C2102 C2103 1.400 . S
C2103 C2102 1.400 . S
C2103 C2104 1.398 . S
C2103 C2109 1.491 . S
C2104 H2095 0.950 . S
C2104 C2103 1.398 . S
C2104 C2105 1.391 . S
C2105 H2093 0.950 . S
C2105 C2101 1.393 . S
C2105 C2104 1.391 . S
C2106 H2096 0.950 . S
C2106 C2107 1.386 . S
C2106 C2108 1.391 . S
C2107 C2106 1.386 . S
C2107 C2111 1.393 . S
C2108 H2097 0.950 . S
C2108 C2106 1.391 . S
C2108 C2109 1.400 . S
C2109 C2103 1.491 . S
C2109 C2108 1.400 . S
C2109 C2110 1.398 . S
C2110 H2098 0.950 . S
C2110 C2109 1.398 . S
C2110 C2111 1.391 . S
C2111 H2099 0.950 . S
C2111 C2107 1.393 . S
C2111 C2110 1.391 . S
H2112 C2120 0.950 . S
H2113 C2125 0.950 . S
H2114 C2122 0.950 . S
H2115 C2124 0.950 . S
H2116 C2126 0.950 . S
H2117 C2128 0.950 . S
H2118 C2130 0.950 . S
H2119 C2131 0.950 . S
C2120 H2112 0.950 . S
C2120 C2121 1.386 . S
C2120 C2122 1.391 . S
C2121 C2120 1.386 . S
C2121 C2125 1.393 . S
C2122 H2114 0.950 . S
C2122 C2120 1.391 . S
C2122 C2123 1.400 . S
C2123 C2122 1.400 . S
C2123 C2124 1.398 . S
C2123 C2129 1.491 . S
C2124 H2115 0.950 . S
C2124 C2123 1.398 . S
C2124 C2125 1.391 . S
C2125 H2113 0.950 . S
C2125 C2121 1.393 . S
C2125 C2124 1.391 . S
C2126 H2116 0.950 . S
C2126 C2127 1.386 . S
C2126 C2128 1.391 . S
C2127 C2126 1.386 . S
C2127 C2131 1.393 . S
C2128 H2117 0.950 . S
C2128 C2126 1.391 . S
C2128 C2129 1.400 . S
C2129 C2123 1.491 . S
C2129 C2128 1.400 . S
C2129 C2130 1.398 . S
C2130 H2118 0.950 . S
C2130 C2129 1.398 . S
C2130 C2131 1.391 . S
C2131 H2119 0.950 . S
C2131 C2127 1.393 . S
C2131 C2130 1.391 . S
H2132 C2140 0.950 . S
H2133 C2145 0.950 . S
H2134 C2142 0.950 . S
H2135 C2144 0.950 . S
H2136 C2146 0.950 . S
H2137 C2148 0.950 . S
H2138 C2150 0.950 . S
H2139 C2151 0.950 . S
C2140 H2132 0.950 . S
C2140 C2141 1.386 . S
C2140 C2142 1.391 . S
C2141 C2140 1.386 . S
C2141 C2145 1.393 . S
C2142 H2134 0.950 . S
C2142 C2140 1.391 . S
C2142 C2143 1.400 . S
C2143 C2142 1.400 . S
C2143 C2144 1.398 . S
C2143 C2149 1.491 . S
C2144 H2135 0.950 . S
C2144 C2143 1.398 . S
C2144 C2145 1.391 . S
C2145 H2133 0.950 . S
C2145 C2141 1.393 . S
C2145 C2144 1.391 . S
C2146 H2136 0.950 . S
C2146 C2147 1.386 . S
C2146 C2148 1.391 . S
C2147 C2146 1.386 . S
C2147 C2151 1.393 . S
C2148 H2137 0.950 . S
C2148 C2146 1.391 . S
C2148 C2149 1.400 . S
C2149 C2143 1.491 . S
C2149 C2148 1.400 . S
C2149 C2150 1.398 . S
C2150 H2138 0.950 . S
C2150 C2149 1.398 . S
C2150 C2151 1.391 . S
C2151 H2139 0.950 . S
C2151 C2147 1.393 . S
C2151 C2150 1.391 . S
H2152 C2160 0.950 . S
H2153 C2165 0.950 . S
H2154 C2162 0.950 . S
H2155 C2164 0.950 . S
H2156 C2166 0.950 . S
H2157 C2168 0.950 . S
H2158 C2170 0.950 . S
H2159 C2171 0.950 . S
C2160 H2152 0.950 . S
C2160 C2161 1.386 . S
C2160 C2162 1.391 . S
C2161 C2160 1.386 . S
C2161 C2165 1.393 . S
C2162 H2154 0.950 . S
C2162 C2160 1.391 . S
C2162 C2163 1.400 . S
C2163 C2162 1.400 . S
C2163 C2164 1.398 . S
C2163 C2169 1.491 . S
C2164 H2155 0.950 . S
C2164 C2163 1.398 . S
C2164 C2165 1.391 . S
C2165 H2153 0.950 . S
C2165 C2161 1.393 . S
C2165 C2164 1.391 . S
C2166 H2156 0.950 . S
C2166 C2167 1.386 . S
C2166 C2168 1.391 . S
C2167 C2166 1.386 . S
C2167 C2171 1.393 . S
C2168 H2157 0.950 . S
C2168 C2166 1.391 . S
C2168 C2169 1.400 . S
C2169 C2163 1.491 . S
C2169 C2168 1.400 . S
C2169 C2170 1.398 . S
C2170 H2158 0.950 . S
C2170 C2169 1.398 . S
C2170 C2171 1.391 . S
C2171 H2159 0.950 . S
C2171 C2167 1.393 . S
C2171 C2170 1.391 . S
H2172 C2180 0.950 . S
H2173 C2185 0.950 . S
H2174 C2182 0.950 . S
H2175 C2184 0.950 . S
H2176 C2186 0.950 . S
H2177 C2188 0.950 . S
H2178 C2190 0.950 . S
H2179 C2191 0.950 . S
C2180 H2172 0.950 . S
C2180 C2181 1.386 . S
C2180 C2182 1.391 . S
C2181 C2180 1.386 . S
C2181 C2185 1.393 . S
C2182 H2174 0.950 . S
C2182 C2180 1.391 . S
C2182 C2183 1.400 . S
C2183 C2182 1.400 . S
C2183 C2184 1.398 . S
C2183 C2189 1.491 . S
C2184 H2175 0.950 . S
C2184 C2183 1.398 . S
C2184 C2185 1.391 . S
C2185 H2173 0.950 . S
C2185 C2181 1.393 . S
C2185 C2184 1.391 . S
C2186 H2176 0.950 . S
C2186 C2187 1.386 . S
C2186 C2188 1.391 . S
C2187 C2186 1.386 . S
C2187 C2191 1.393 . S
C2188 H2177 0.950 . S
C2188 C2186 1.391 . S
C2188 C2189 1.400 . S
C2189 C2183 1.491 . S
C2189 C2188 1.400 . S
C2189 C2190 1.398 . S
C2190 H2178 0.950 . S
C2190 C2189 1.398 . S
C2190 C2191 1.391 . S
C2191 H2179 0.950 . S
C2191 C2187 1.393 . S
C2191 C2190 1.391 . S
H2192 C2200 0.950 . S
H2193 C2205 0.950 . S
H2194 C2202 0.950 . S
H2195 C2204 0.950 . S
H2196 C2206 0.950 . S
H2197 C2208 0.950 . S
H2198 C2210 0.950 . S
H2199 C2211 0.950 . S
C2200 H2192 0.950 . S
C2200 C2201 1.386 . S
C2200 C2202 1.391 . S
C2201 C2200 1.386 . S
C2201 C2205 1.393 . S
C2202 H2194 0.950 . S
C2202 C2200 1.391 . S
C2202 C2203 1.400 . S
C2203 C2202 1.400 . S
C2203 C2204 1.398 . S
C2203 C2209 1.491 . S
C2204 H2195 0.950 . S
C2204 C2203 1.398 . S
C2204 C2205 1.391 . S
C2205 H2193 0.950 . S
C2205 C2201 1.393 . S
C2205 C2204 1.391 . S
C2206 H2196 0.950 . S
C2206 C2207 1.386 . S
C2206 C2208 1.391 . S
C2207 C2206 1.386 . S
C2207 C2211 1.393 . S
C2208 H2197 0.950 . S
C2208 C2206 1.391 . S
C2208 C2209 1.400 . S
C2209 C2203 1.491 . S
C2209 C2208 1.400 . S
C2209 C2210 1.398 . S
C2210 H2198 0.950 . S
C2210 C2209 1.398 . S
C2210 C2211 1.391 . S
C2211 H2199 0.950 . S
C2211 C2207 1.393 . S
C2211 C2210 1.391 . S
H2212 C2220 0.950 . S
H2213 C2225 0.950 . S
H2214 C2222 0.950 . S
H2215 C2224 0.950 . S
H2216 C2226 0.950 . S
H2217 C2228 0.950 . S
H2218 C2230 0.950 . S
H2219 C2231 0.950 . S
C2220 H2212 0.950 . S
C2220 C2221 1.386 . S
C2220 C2222 1.391 . S
C2221 C2220 1.386 . S
C2221 C2225 1.393 . S
C2222 H2214 0.950 . S
C2222 C2220 1.391 . S
C2222 C2223 1.400 . S
C2223 C2222 1.400 . S
C2223 C2224 1.398 . S
C2223 C2229 1.491 . S
C2224 H2215 0.950 . S
C2224 C2223 1.398 . S
C2224 C2225 1.391 . S
C2225 H2213 0.950 . S
C2225 C2221 1.393 . S
C2225 C2224 1.391 . S
C2226 H2216 0.950 . S
C2226 C2227 1.386 . S
C2226 C2228 1.391 . S
C2227 C2226 1.386 . S
C2227 C2231 1.393 . S
C2228 H2217 0.950 . S
C2228 C2226 1.391 . S
C2228 C2229 1.400 . S
C2229 C2223 1.491 . S
C2229 C2228 1.400 . S
C2229 C2230 1.398 . S
C2230 H2218 0.950 . S
C2230 C2229 1.398 . S
C2230 C2231 1.391 . S
C2231 H2219 0.950 . S
C2231 C2227 1.393 . S
C2231 C2230 1.391 . S
H2232 C2240 0.950 . S
H2233 C2245 0.950 . S
H2234 C2242 0.950 . S
H2235 C2244 0.950 . S
H2236 C2246 0.950 . S
H2237 C2248 0.950 . S
H2238 C2250 0.950 . S
H2239 C2251 0.950 . S
C2240 H2232 0.950 . S
C2240 C2241 1.386 . S
C2240 C2242 1.391 . S
C2241 C2240 1.386 . S
C2241 C2245 1.393 . S
C2242 H2234 0.950 . S
C2242 C2240 1.391 . S
C2242 C2243 1.400 . S
C2243 C2242 1.400 . S
C2243 C2244 1.398 . S
C2243 C2249 1.491 . S
C2244 H2235 0.950 . S
C2244 C2243 1.398 . S
C2244 C2245 1.391 . S
C2245 H2233 0.950 . S
C2245 C2241 1.393 . S
C2245 C2244 1.391 . S
C2246 H2236 0.950 . S
C2246 C2247 1.386 . S
C2246 C2248 1.391 . S
C2247 C2246 1.386 . S
C2247 C2251 1.393 . S
C2248 H2237 0.950 . S
C2248 C2246 1.391 . S
C2248 C2249 1.400 . S
C2249 C2243 1.491 . S
C2249 C2248 1.400 . S
C2249 C2250 1.398 . S
C2250 H2238 0.950 . S
C2250 C2249 1.398 . S
C2250 C2251 1.391 . S
C2251 H2239 0.950 . S
C2251 C2247 1.393 . S
C2251 C2250 1.391 . S
H2252 C2260 0.950 . S
H2253 C2265 0.950 . S
H2254 C2262 0.950 . S
H2255 C2264 0.950 . S
H2256 C2266 0.950 . S
H2257 C2268 0.950 . S
H2258 C2270 0.950 . S
H2259 C2271 0.950 . S
C2260 H2252 0.950 . S
C2260 C2261 1.386 . S
C2260 C2262 1.391 . S
C2261 C2260 1.386 . S
C2261 C2265 1.393 . S
C2262 H2254 0.950 . S
C2262 C2260 1.391 . S
C2262 C2263 1.400 . S
C2263 C2262 1.400 . S
C2263 C2264 1.398 . S
C2263 C2269 1.491 . S
C2264 H2255 0.950 . S
C2264 C2263 1.398 . S
C2264 C2265 1.391 . S
C2265 H2253 0.950 . S
C2265 C2261 1.393 . S
C2265 C2264 1.391 . S
C2266 H2256 0.950 . S
C2266 C2267 1.386 . S
C2266 C2268 1.391 . S
C2267 C2266 1.386 . S
C2267 C2271 1.393 . S
C2268 H2257 0.950 . S
C2268 C2266 1.391 . S
C2268 C2269 1.400 . S
C2269 C2263 1.491 . S
C2269 C2268 1.400 . S
C2269 C2270 1.398 . S
C2270 H2258 0.950 . S
C2270 C2269 1.398 . S
C2270 C2271 1.391 . S
C2271 H2259 0.950 . S
C2271 C2267 1.393 . S
C2271 C2270 1.391 . S
H2272 C2280 0.950 . S
H2273 C2285 0.950 . S
H2274 C2282 0.950 . S
H2275 C2284 0.950 . S
H2276 C2286 0.950 . S
H2277 C2288 0.950 . S
H2278 C2290 0.950 . S
H2279 C2291 0.950 . S
C2280 H2272 0.950 . S
C2280 C2281 1.386 . S
C2280 C2282 1.391 . S
C2281 C2280 1.386 . S
C2281 C2285 1.393 . S
C2282 H2274 0.950 . S
C2282 C2280 1.391 . S
C2282 C2283 1.400 . S
C2283 C2282 1.400 . S
C2283 C2284 1.398 . S
C2283 C2289 1.491 . S
C2284 H2275 0.950 . S
C2284 C2283 1.398 . S
C2284 C2285 1.391 . S
C2285 H2273 0.950 . S
C2285 C2281 1.393 . S
C2285 C2284 1.391 . S
C2286 H2276 0.950 . S
C2286 C2287 1.386 . S
C2286 C2288 1.391 . S
C2287 C2286 1.386 . S
C2287 C2291 1.393 . S
C2288 H2277 0.950 . S
C2288 C2286 1.391 . S
C2288 C2289 1.400 . S
C2289 C2283 1.491 . S
C2289 C2288 1.400 . S
C2289 C2290 1.398 . S
C2290 H2278 0.950 . S
C2290 C2289 1.398 . S
C2290 C2291 1.391 . S
C2291 H2279 0.950 . S
C2291 C2287 1.393 . S
C2291 C2290 1.391 . S
H2292 C2300 0.950 . S
H2293 C2305 0.950 . S
H2294 C2302 0.950 . S
H2295 C2304 0.950 . S
H2296 C2306 0.950 . S
H2297 C2308 0.950 . S
H2298 C2310 0.950 . S
H2299 C2311 0.950 . S
C2300 H2292 0.950 . S
C2300 C2301 1.386 . S
C2300 C2302 1.391 . S
C2301 C2300 1.386 . S
C2301 C2305 1.393 . S
C2302 H2294 0.950 . S
C2302 C2300 1.391 . S
C2302 C2303 1.400 . S
C2303 C2302 1.400 . S
C2303 C2304 1.398 . S
C2303 C2309 1.491 . S
C2304 H2295 0.950 . S
C2304 C2303 1.398 . S
C2304 C2305 1.391 . S
C2305 H2293 0.950 . S
C2305 C2301 1.393 . S
C2305 C2304 1.391 . S
C2306 H2296 0.950 . S
C2306 C2307 1.386 . S
C2306 C2308 1.391 . S
C2307 C2306 1.386 . S
C2307 C2311 1.393 . S
C2308 H2297 0.950 . S
C2308 C2306 1.391 . S
C2308 C2309 1.400 . S
C2309 C2303 1.491 . S
C2309 C2308 1.400 . S
C2309 C2310 1.398 . S
C2310 H2298 0.950 . S
C2310 C2309 1.398 . S
C2310 C2311 1.391 . S
C2311 H2299 0.950 . S
C2311 C2307 1.393 . S
C2311 C2310 1.391 . S
H2312 C2320 0.950 . S
H2313 C2325 0.950 . S
H2314 C2322 0.950 . S
H2315 C2324 0.950 . S
H2316 C2326 0.950 . S
H2317 C2328 0.950 . S
H2318 C2330 0.950 . S
H2319 C2331 0.950 . S
C2320 H2312 0.950 . S
C2320 C2321 1.386 . S
C2320 C2322 1.391 . S
C2321 C2320 1.386 . S
C2321 C2325 1.393 . S
C2322 H2314 0.950 . S
C2322 C2320 1.391 . S
C2322 C2323 1.400 . S
C2323 C2322 1.400 . S
C2323 C2324 1.398 . S
C2323 C2329 1.491 . S
C2324 H2315 0.950 . S
C2324 C2323 1.398 . S
C2324 C2325 1.391 . S
C2325 H2313 0.950 . S
C2325 C2321 1.393 . S
C2325 C2324 1.391 . S
C2326 H2316 0.950 . S
C2326 C2327 1.386 . S
C2326 C2328 1.391 . S
C2327 C2326 1.386 . S
C2327 C2331 1.393 . S
C2328 H2317 0.950 . S
C2328 C2326 1.391 . S
C2328 C2329 1.400 . S
C2329 C2323 1.491 . S
C2329 C2328 1.400 . S
C2329 C2330 1.398 . S
C2330 H2318 0.950 . S
C2330 C2329 1.398 . S
C2330 C2331 1.391 . S
C2331 H2319 0.950 . S
C2331 C2327 1.393 . S
C2331 C2330 1.391 . S
H2332 C2340 0.950 . S
H2333 C2345 0.950 . S
H2334 C2342 0.950 . S
H2335 C2344 0.950 . S
H2336 C2346 0.950 . S
H2337 C2348 0.950 . S
H2338 C2350 0.950 . S
H2339 C2351 0.950 . S
C2340 H2332 0.950 . S
C2340 C2341 1.386 . S
C2340 C2342 1.391 . S
C2341 C2340 1.386 . S
C2341 C2345 1.393 . S
C2342 H2334 0.950 . S
C2342 C2340 1.391 . S
C2342 C2343 1.400 . S
C2343 C2342 1.400 . S
C2343 C2344 1.398 . S
C2343 C2349 1.491 . S
C2344 H2335 0.950 . S
C2344 C2343 1.398 . S
C2344 C2345 1.391 . S
C2345 H2333 0.950 . S
C2345 C2341 1.393 . S
C2345 C2344 1.391 . S
C2346 H2336 0.950 . S
C2346 C2347 1.386 . S
C2346 C2348 1.391 . S
C2347 C2346 1.386 . S
C2347 C2351 1.393 . S
C2348 H2337 0.950 . S
C2348 C2346 1.391 . S
C2348 C2349 1.400 . S
C2349 C2343 1.491 . S
C2349 C2348 1.400 . S
C2349 C2350 1.398 . S
C2350 H2338 0.950 . S
C2350 C2349 1.398 . S
C2350 C2351 1.391 . S
C2351 H2339 0.950 . S
C2351 C2347 1.393 . S
C2351 C2350 1.391 . S
H2352 C2360 0.950 . S
H2353 C2365 0.950 . S
H2354 C2362 0.950 . S
H2355 C2364 0.950 . S
H2356 C2366 0.950 . S
H2357 C2368 0.950 . S
H2358 C2370 0.950 . S
H2359 C2371 0.950 . S
C2360 H2352 0.950 . S
C2360 C2361 1.386 . S
C2360 C2362 1.391 . S
C2361 C2360 1.386 . S
C2361 C2365 1.393 . S
C2362 H2354 0.950 . S
C2362 C2360 1.391 . S
C2362 C2363 1.400 . S
C2363 C2362 1.400 . S
C2363 C2364 1.398 . S
C2363 C2369 1.491 . S
C2364 H2355 0.950 . S
C2364 C2363 1.398 . S
C2364 C2365 1.391 . S
C2365 H2353 0.950 . S
C2365 C2361 1.393 . S
C2365 C2364 1.391 . S
C2366 H2356 0.950 . S
C2366 C2367 1.386 . S
C2366 C2368 1.391 . S
C2367 C2366 1.386 . S
C2367 C2371 1.393 . S
C2368 H2357 0.950 . S
C2368 C2366 1.391 . S
C2368 C2369 1.400 . S
C2369 C2363 1.491 . S
C2369 C2368 1.400 . S
C2369 C2370 1.398 . S
C2370 H2358 0.950 . S
C2370 C2369 1.398 . S
C2370 C2371 1.391 . S
C2371 H2359 0.950 . S
C2371 C2367 1.393 . S
C2371 C2370 1.391 . S
H2372 C2380 0.950 . S
H2373 C2385 0.950 . S
H2374 C2382 0.950 . S
H2375 C2384 0.950 . S
H2376 C2386 0.950 . S
H2377 C2388 0.950 . S
H2378 C2390 0.950 . S
H2379 C2391 0.950 . S
C2380 H2372 0.950 . S
C2380 C2381 1.386 . S
C2380 C2382 1.391 . S
C2381 C2380 1.386 . S
C2381 C2385 1.393 . S
C2382 H2374 0.950 . S
C2382 C2380 1.391 . S
C2382 C2383 1.400 . S
C2383 C2382 1.400 . S
C2383 C2384 1.398 . S
C2383 C2389 1.491 . S
C2384 H2375 0.950 . S
C2384 C2383 1.398 . S
C2384 C2385 1.391 . S
C2385 H2373 0.950 . S
C2385 C2381 1.393 . S
C2385 C2384 1.391 . S
C2386 H2376 0.950 . S
C2386 C2387 1.386 . S
C2386 C2388 1.391 . S
C2387 C2386 1.386 . S
C2387 C2391 1.393 . S
C2388 H2377 0.950 . S
C2388 C2386 1.391 . S
C2388 C2389 1.400 . S
C2389 C2383 1.491 . S
C2389 C2388 1.400 . S
C2389 C2390 1.398 . S
C2390 H2378 0.950 . S
C2390 C2389 1.398 . S
C2390 C2391 1.391 . S
C2391 H2379 0.950 . S
C2391 C2387 1.393 . S
C2391 C2390 1.391 . S
H2392 C2400 0.950 . S
H2393 C2405 0.950 . S
H2394 C2402 0.950 . S
H2395 C2404 0.950 . S
H2396 C2406 0.950 . S
H2397 C2408 0.950 . S
H2398 C2410 0.950 . S
H2399 C2411 0.950 . S
C2400 H2392 0.950 . S
C2400 C2401 1.386 . S
C2400 C2402 1.391 . S
C2401 C2400 1.386 . S
C2401 C2405 1.393 . S
C2402 H2394 0.950 . S
C2402 C2400 1.391 . S
C2402 C2403 1.400 . S
C2403 C2402 1.400 . S
C2403 C2404 1.398 . S
C2403 C2409 1.491 . S
C2404 H2395 0.950 . S
C2404 C2403 1.398 . S
C2404 C2405 1.391 . S
C2405 H2393 0.950 . S
C2405 C2401 1.393 . S
C2405 C2404 1.391 . S
C2406 H2396 0.950 . S
C2406 C2407 1.386 . S
C2406 C2408 1.391 . S
C2407 C2406 1.386 . S
C2407 C2411 1.393 . S
C2408 H2397 0.950 . S
C2408 C2406 1.391 . S
C2408 C2409 1.400 . S
C2409 C2403 1.491 . S
C2409 C2408 1.400 . S
C2409 C2410 1.398 . S
C2410 H2398 0.950 . S
C2410 C2409 1.398 . S
C2410 C2411 1.391 . S
C2411 H2399 0.950 . S
C2411 C2407 1.393 . S
C2411 C2410 1.391 . S
H2412 C2420 0.950 . S
H2413 C2425 0.950 . S
H2414 C2422 0.950 . S
H2415 C2424 0.950 . S
H2416 C2426 0.950 . S
H2417 C2428 0.950 . S
H2418 C2430 0.950 . S
H2419 C2431 0.950 . S
C2420 H2412 0.950 . S
C2420 C2421 1.386 . S
C2420 C2422 1.391 . S
C2421 C2420 1.386 . S
C2421 C2425 1.393 . S
C2422 H2414 0.950 . S
C2422 C2420 1.391 . S
C2422 C2423 1.400 . S
C2423 C2422 1.400 . S
C2423 C2424 1.398 . S
C2423 C2429 1.491 . S
C2424 H2415 0.950 . S
C2424 C2423 1.398 . S
C2424 C2425 1.391 . S
C2425 H2413 0.950 . S
C2425 C2421 1.393 . S
C2425 C2424 1.391 . S
C2426 H2416 0.950 . S
C2426 C2427 1.386 . S
C2426 C2428 1.391 . S
C2427 C2426 1.386 . S
C2427 C2431 1.393 . S
C2428 H2417 0.950 . S
C2428 C2426 1.391 . S
C2428 C2429 1.400 . S
C2429 C2423 1.491 . S
C2429 C2428 1.400 . S
C2429 C2430 1.398 . S
C2430 H2418 0.950 . S
C2430 C2429 1.398 . S
C2430 C2431 1.391 . S
C2431 H2419 0.950 . S
C2431 C2427 1.393 . S
C2431 C2430 1.391 . S
H2432 C2440 0.950 . S
H2433 C2445 0.950 . S
H2434 C2442 0.950 . S
H2435 C2444 0.950 . S
H2436 C2446 0.950 . S
H2437 C2448 0.950 . S
H2438 C2450 0.950 . S
H2439 C2451 0.950 . S
C2440 H2432 0.950 . S
C2440 C2441 1.386 . S
C2440 C2442 1.391 . S
C2441 C2440 1.386 . S
C2441 C2445 1.393 . S
C2442 H2434 0.950 . S
C2442 C2440 1.391 . S
C2442 C2443 1.400 . S
C2443 C2442 1.400 . S
C2443 C2444 1.398 . S
C2443 C2449 1.491 . S
C2444 H2435 0.950 . S
C2444 C2443 1.398 . S
C2444 C2445 1.391 . S
C2445 H2433 0.950 . S
C2445 C2441 1.393 . S
C2445 C2444 1.391 . S
C2446 H2436 0.950 . S
C2446 C2447 1.386 . S
C2446 C2448 1.391 . S
C2447 C2446 1.386 . S
C2447 C2451 1.393 . S
C2448 H2437 0.950 . S
C2448 C2446 1.391 . S
C2448 C2449 1.400 . S
C2449 C2443 1.491 . S
C2449 C2448 1.400 . S
C2449 C2450 1.398 . S
C2450 H2438 0.950 . S
C2450 C2449 1.398 . S
C2450 C2451 1.391 . S
C2451 H2439 0.950 . S
C2451 C2447 1.393 . S
C2451 C2450 1.391 . S
H2452 C2460 0.950 . S
H2453 C2465 0.950 . S
H2454 C2462 0.950 . S
H2455 C2464 0.950 . S
H2456 C2466 0.950 . S
H2457 C2468 0.950 . S
H2458 C2470 0.950 . S
H2459 C2471 0.950 . S
C2460 H2452 0.950 . S
C2460 C2461 1.386 . S
C2460 C2462 1.391 . S
C2461 C2460 1.386 . S
C2461 C2465 1.393 . S
C2462 H2454 0.950 . S
C2462 C2460 1.391 . S
C2462 C2463 1.400 . S
C2463 C2462 1.400 . S
C2463 C2464 1.398 . S
C2463 C2469 1.491 . S
C2464 H2455 0.950 . S
C2464 C2463 1.398 . S
C2464 C2465 1.391 . S
C2465 H2453 0.950 . S
C2465 C2461 1.393 . S
C2465 C2464 1.391 . S
C2466 H2456 0.950 . S
C2466 C2467 1.386 . S
C2466 C2468 1.391 . S
C2467 C2466 1.386 . S
C2467 C2471 1.393 . S
C2468 H2457 0.950 . S
C2468 C2466 1.391 . S
C2468 C2469 1.400 . S
C2469 C2463 1.491 . S
C2469 C2468 1.400 . S
C2469 C2470 1.398 . S
C2470 H2458 0.950 . S
C2470 C2469 1.398 . S
C2470 C2471 1.391 . S
C2471 H2459 0.950 . S
C2471 C2467 1.393 . S
C2471 C2470 1.391 . S
H2472 C2480 0.950 . S
H2473 C2485 0.950 . S
H2474 C2482 0.950 . S
H2475 C2484 0.950 . S
H2476 C2486 0.950 . S
H2477 C2488 0.950 . S
H2478 C2490 0.950 . S
H2479 C2491 0.950 . S
C2480 H2472 0.950 . S
C2480 C2481 1.386 . S
C2480 C2482 1.391 . S
C2481 C2480 1.386 . S
C2481 C2485 1.393 . S
C2482 H2474 0.950 . S
C2482 C2480 1.391 . S
C2482 C2483 1.400 . S
C2483 C2482 1.400 . S
C2483 C2484 1.398 . S
C2483 C2489 1.491 . S
C2484 H2475 0.950 . S
C2484 C2483 1.398 . S
C2484 C2485 1.391 . S
C2485 H2473 0.950 . S
C2485 C2481 1.393 . S
C2485 C2484 1.391 . S
C2486 H2476 0.950 . S
C2486 C2487 1.386 . S
C2486 C2488 1.391 . S
C2487 C2486 1.386 . S
C2487 C2491 1.393 . S
C2488 H2477 0.950 . S
C2488 C2486 1.391 . S
C2488 C2489 1.400 . S
C2489 C2483 1.491 . S
C2489 C2488 1.400 . S
C2489 C2490 1.398 . S
C2490 H2478 0.950 . S
C2490 C2489 1.398 . S
C2490 C2491 1.391 . S
C2491 H2479 0.950 . S
C2491 C2487 1.393 . S
C2491 C2490 1.391 . S
H2492 C2500 0.950 . S
H2493 C2505 0.950 . S
H2494 C2502 0.950 . S
H2495 C2504 0.950 . S
H2496 C2506 0.950 . S
H2497 C2508 0.950 . S
H2498 C2510 0.950 . S
H2499 C2511 0.950 . S
C2500 H2492 0.950 . S
C2500 C2501 1.386 . S
C2500 C2502 1.391 . S
C2501 C2500 1.386 . S
C2501 C2505 1.393 . S
C2502 H2494 0.950 . S
C2502 C2500 1.391 . S
C2502 C2503 1.400 . S
C2503 C2502 1.400 . S
C2503 C2504 1.398 . S
C2503 C2509 1.491 . S
C2504 H2495 0.950 . S
C2504 C2503 1.398 . S
C2504 C2505 1.391 . S
C2505 H2493 0.950 . S
C2505 C2501 1.393 . S
C2505 C2504 1.391 . S
C2506 H2496 0.950 . S
C2506 C2507 1.386 . S
C2506 C2508 1.391 . S
C2507 C2506 1.386 . S
C2507 C2511 1.393 . S
C2508 H2497 0.950 . S
C2508 C2506 1.391 . S
C2508 C2509 1.400 . S
C2509 C2503 1.491 . S
C2509 C2508 1.400 . S
C2509 C2510 1.398 . S
C2510 H2498 0.950 . S
C2510 C2509 1.398 . S
C2510 C2511 1.391 . S
C2511 H2499 0.950 . S
C2511 C2507 1.393 . S
C2511 C2510 1.391 . S
H2512 C2520 0.950 . S
H2513 C2525 0.950 . S
H2514 C2522 0.950 . S
H2515 C2524 0.950 . S
H2516 C2526 0.950 . S
H2517 C2528 0.950 . S
H2518 C2530 0.950 . S
H2519 C2531 0.950 . S
C2520 H2512 0.950 . S
C2520 C2521 1.386 . S
C2520 C2522 1.391 . S
C2521 C2520 1.386 . S
C2521 C2525 1.393 . S
C2522 H2514 0.950 . S
C2522 C2520 1.391 . S
C2522 C2523 1.400 . S
C2523 C2522 1.400 . S
C2523 C2524 1.398 . S
C2523 C2529 1.491 . S
C2524 H2515 0.950 . S
C2524 C2523 1.398 . S
C2524 C2525 1.391 . S
C2525 H2513 0.950 . S
C2525 C2521 1.393 . S
C2525 C2524 1.391 . S
C2526 H2516 0.950 . S
C2526 C2527 1.386 . S
C2526 C2528 1.391 . S
C2527 C2526 1.386 . S
C2527 C2531 1.393 . S
C2528 H2517 0.950 . S
C2528 C2526 1.391 . S
C2528 C2529 1.400 . S
C2529 C2523 1.491 . S
C2529 C2528 1.400 . S
C2529 C2530 1.398 . S
C2530 H2518 0.950 . S
C2530 C2529 1.398 . S
C2530 C2531 1.391 . S
C2531 H2519 0.950 . S
C2531 C2527 1.393 . S
C2531 C2530 1.391 . S
H2532 C2540 0.950 . S
H2533 C2545 0.950 . S
H2534 C2542 0.950 . S
H2535 C2544 0.950 . S
H2536 C2546 0.950 . S
H2537 C2548 0.950 . S
H2538 C2550 0.950 . S
H2539 C2551 0.950 . S
C2540 H2532 0.950 . S
C2540 C2541 1.386 . S
C2540 C2542 1.391 . S
C2541 C2540 1.386 . S
C2541 C2545 1.393 . S
C2542 H2534 0.950 . S
C2542 C2540 1.391 . S
C2542 C2543 1.400 . S
C2543 C2542 1.400 . S
C2543 C2544 1.398 . S
C2543 C2549 1.491 . S
C2544 H2535 0.950 . S
C2544 C2543 1.398 . S
C2544 C2545 1.391 . S
C2545 H2533 0.950 . S
C2545 C2541 1.393 . S
C2545 C2544 1.391 . S
C2546 H2536 0.950 . S
C2546 C2547 1.386 . S
C2546 C2548 1.391 . S
C2547 C2546 1.386 . S
C2547 C2551 1.393 . S
C2548 H2537 0.950 . S
C2548 C2546 1.391 . S
C2548 C2549 1.400 . S
C2549 C2543 1.491 . S
C2549 C2548 1.400 . S
C2549 C2550 1.398 . S
C2550 H2538 0.950 . S
C2550 C2549 1.398 . S
C2550 C2551 1.391 . S
C2551 H2539 0.950 . S
C2551 C2547 1.393 . S
C2551 C2550 1.391 . S
H2552 C2560 0.950 . S
H2553 C2565 0.950 . S
H2554 C2562 0.950 . S
H2555 C2564 0.950 . S
H2556 C2566 0.950 . S
H2557 C2568 0.950 . S
H2558 C2570 0.950 . S
H2559 C2571 0.950 . S
C2560 H2552 0.950 . S
C2560 C2561 1.386 . S
C2560 C2562 1.391 . S
C2561 C2560 1.386 . S
C2561 C2565 1.393 . S
C2562 H2554 0.950 . S
C2562 C2560 1.391 . S
C2562 C2563 1.400 . S
C2563 C2562 1.400 . S
C2563 C2564 1.398 . S
C2563 C2569 1.491 . S
C2564 H2555 0.950 . S
C2564 C2563 1.398 . S
C2564 C2565 1.391 . S
C2565 H2553 0.950 . S
C2565 C2561 1.393 . S
C2565 C2564 1.391 . S
C2566 H2556 0.950 . S
C2566 C2567 1.386 . S
C2566 C2568 1.391 . S
C2567 C2566 1.386 . S
C2567 C2571 1.393 . S
C2568 H2557 0.950 . S
C2568 C2566 1.391 . S
C2568 C2569 1.400 . S
C2569 C2563 1.491 . S
C2569 C2568 1.400 . S
C2569 C2570 1.398 . S
C2570 H2558 0.950 . S
C2570 C2569 1.398 . S
C2570 C2571 1.391 . S
C2571 H2559 0.950 . S
C2571 C2567 1.393 . S
C2571 C2570 1.391 . S
H2572 C2580 0.950 . S
H2573 C2585 0.950 . S
H2574 C2582 0.950 . S
H2575 C2584 0.950 . S
H2576 C2586 0.950 . S
H2577 C2588 0.950 . S
H2578 C2590 0.950 . S
H2579 C2591 0.950 . S
C2580 H2572 0.950 . S
C2580 C2581 1.386 . S
C2580 C2582 1.391 . S
C2581 C2580 1.386 . S
C2581 C2585 1.393 . S
C2582 H2574 0.950 . S
C2582 C2580 1.391 . S
C2582 C2583 1.400 . S
C2583 C2582 1.400 . S
C2583 C2584 1.398 . S
C2583 C2589 1.491 . S
C2584 H2575 0.950 . S
C2584 C2583 1.398 . S
C2584 C2585 1.391 . S
C2585 H2573 0.950 . S
C2585 C2581 1.393 . S
C2585 C2584 1.391 . S
C2586 H2576 0.950 . S
C2586 C2587 1.386 . S
C2586 C2588 1.391 . S
C2587 C2586 1.386 . S
C2587 C2591 1.393 . S
C2588 H2577 0.950 . S
C2588 C2586 1.391 . S
C2588 C2589 1.400 . S
C2589 C2583 1.491 . S
C2589 C2588 1.400 . S
C2589 C2590 1.398 . S
C2590 H2578 0.950 . S
C2590 C2589 1.398 . S
C2590 C2591 1.391 . S
C2591 H2579 0.950 . S
C2591 C2587 1.393 . S
C2591 C2590 1.391 . S
C681 C231 1.166 . S
C687 C7 1.192 . S
C701 C667 0.881 . S
C707 C21 1.002 . S
C721 C35 1.203 . S
C727 C637 1.160 . S
C741 C49 0.936 . S
C747 C653 0.893 . S
C761 C245 1.221 . S
C767 C63 1.241 . S
C781 C77 1.254 . S
C787 C261 1.042 . S
C801 C91 1.259 . S
C807 C273 1.193 . S
C821 C625 1.012 . S
C827 C105 1.233 . S
C841 C121 1.251 . S
C847 C9 1.147 . S
C861 C23 1.038 . S
C867 C133 1.221 . S
C881 C37 1.109 . S
C887 C149 1.260 . S
C901 C51 1.054 . S
C907 C161 1.217 . S
C921 C65 1.130 . S
C927 C177 1.285 . S
C941 C189 0.901 . S
C947 C79 0.800 . S
C961 C93 1.140 . S
C967 C205 1.292 . S
C981 C217 0.905 . S
C987 C107 0.806 . S
C1001 C233 1.245 . S
C1007 C119 1.305 . S
C1021 C175 1.278 . S
C1027 C247 1.244 . S
C1041 C259 1.097 . S
C1047 C191 0.991 . S
C1061 C275 1.256 . S
C1067 C203 1.327 . S
C1081 C555 0.957 . S
C1087 C287 1.160 . S
C1101 C303 1.310 . S
C1107 C483 1.330 . S
C1121 C499 0.983 . S
C1127 C315 1.168 . S
C1141 C471 1.019 . S
C1147 C329 1.196 . S
C1161 C567 1.048 . S
C1167 C343 1.099 . S
C1181 C357 1.232 . S
C1187 C331 1.000 . S
C1201 C371 1.065 . S
C1207 C301 1.071 . S
C1221 C385 1.247 . S
C1227 C317 1.069 . S
C1241 C399 1.038 . S
C1247 C581 1.030 . S
C1261 C597 0.828 . S
C1267 C413 0.947 . S
C1281 C427 1.015 . S
C1287 C609 1.023 . S
C1301 C289 0.877 . S
C1307 C441 0.994 . S
C1321 C345 1.382 . S
C1327 C457 1.579 . S
C1341 C469 0.849 . S
C1347 C359 0.800 . S
C1361 C485 1.619 . S
C1367 C373 1.446 . S
C1381 C497 0.838 . S
C1387 C387 0.813 . S
C1401 C513 1.566 . S
C1407 C401 1.415 . S
C1421 C525 1.153 . S
C1427 C415 1.072 . S
C1441 C429 1.410 . S
C1447 C541 1.601 . S
C1461 C443 1.030 . S
C1467 C553 1.164 . S
C1481 C455 1.378 . S
C1487 C569 1.311 . S
C1501 C511 1.393 . S
C1507 C583 1.342 . S
C1521 C527 1.041 . S
C1527 C595 1.185 . S
C1541 C611 1.318 . S
C1547 C539 1.361 . S
C1561 C623 1.137 . S
C1567 C219 0.961 . S
C1581 C639 1.302 . S
C1587 C147 1.357 . S
C1601 C163 0.937 . S
C1607 C651 1.140 . S
C1621 C665 1.094 . S
C1627 C135 0.935 . S
C1641 C6 0.881 . S
C1647 C386 0.859 . S
C1661 C344 1.462 . S
C1667 C20 1.469 . S
C1681 C34 0.842 . S
C1687 C358 0.839 . S
C1701 C48 1.449 . S
C1707 C372 1.451 . S
C1721 C62 0.935 . S
C1727 C78 0.923 . S
C1741 C92 1.892 . S
C1747 C76 1.938 . S
C1761 C90 0.904 . S
C1767 C106 0.919 . S
C1781 C104 1.929 . S
C1787 C64 1.891 . S
C1801 C120 1.374 . S
C1807 C596 1.525 . S
C1821 C132 1.628 . S
C1827 C608 1.556 . S
C1841 C148 1.494 . S
C1847 C288 1.661 . S
C1861 C160 1.656 . S
C1867 C580 1.604 . S
C1881 C176 1.344 . S
C1887 C652 1.481 . S
C1901 C230 1.494 . S
C1907 C188 1.571 . S
C1921 C204 1.451 . S
C1927 C666 1.617 . S
C1941 C636 1.514 . S
C1947 C216 1.595 . S
C1961 C134 1.740 . S
C1967 C232 1.601 . S
C1981 C246 1.749 . S
C1987 C554 1.902 . S
C2001 C258 1.452 . S
C2007 C510 1.413 . S
C2021 C526 1.923 . S
C2027 C274 1.767 . S
C2041 C286 1.258 . S
C2047 C202 1.217 . S
C2061 C498 1.701 . S
C2067 C302 1.556 . S
C2081 C454 1.432 . S
C2087 C314 1.471 . S
C2101 C482 1.481 . S
C2107 C328 1.515 . S
C2121 C342 1.860 . S
C2127 C50 1.881 . S
C2141 C356 1.881 . S
C2147 C8 1.854 . S
C2161 C22 1.909 . S
C2167 C370 1.889 . S
C2181 C384 1.884 . S
C2187 C36 1.857 . S
C2201 C398 1.826 . S
C2207 C414 1.844 . S
C2221 C428 1.395 . S
C2227 C412 1.404 . S
C2241 C442 1.873 . S
C2247 C426 1.844 . S
C2261 C440 1.420 . S
C2267 C400 1.415 . S
C2281 C260 1.809 . S
C2287 C456 1.633 . S
C2301 C468 1.538 . S
C2307 C272 1.480 . S
C2321 C484 1.603 . S
C2327 C624 1.725 . S
C2341 C496 1.508 . S
C2347 C244 1.451 . S
C2361 C512 1.669 . S
C2367 C316 1.846 . S
C2381 C524 1.591 . S
C2387 C566 1.539 . S
C2401 C330 1.778 . S
C2407 C540 1.602 . S
C2421 C552 1.569 . S
C2427 C300 1.496 . S
C2441 C470 1.720 . S
C2447 C568 1.604 . S
C2461 C218 1.556 . S
C2467 C582 1.455 . S
C2481 C174 1.275 . S
C2487 C594 1.306 . S
C2501 C610 1.404 . S
C2507 C190 1.529 . S
C2521 C622 1.493 . S
C2527 C538 1.473 . S
C2541 C162 1.768 . S
C2547 C638 1.642 . S
C2561 C650 1.289 . S
C2567 C118 1.253 . S
C2581 C146 1.220 . S
C2587 C664 1.245 . S
