# Generated by pormake.
# Topology gme, (4)-cn, num edge types: 1
# Building blocks:
#     Node 0, Type 0, BuildingBlock: NAHDIM_clean_sbu_0, # of connection points: 4
#     Node 1, Type 0, BuildingBlock: NAHDIM_clean_sbu_0, # of connection points: 4
#     Node 2, Type 0, BuildingBlock: NAHDIM_clean_sbu_0, # of connection points: 4
#     Node 3, Type 0, BuildingBlock: NAHDIM_clean_sbu_0, # of connection points: 4
#     Node 4, Type 0, BuildingBlock: NAHDIM_clean_sbu_0, # of connection points: 4
#     Node 5, Type 0, BuildingBlock: NAHDIM_clean_sbu_0, # of connection points: 4
#     Node 6, Type 0, BuildingBlock: NAHDIM_clean_sbu_0, # of connection points: 4
#     Node 7, Type 0, BuildingBlock: NAHDIM_clean_sbu_0, # of connection points: 4
#     Node 8, Type 0, BuildingBlock: NAHDIM_clean_sbu_0, # of connection points: 4
#     Node 9, Type 0, BuildingBlock: NAHDIM_clean_sbu_0, # of connection points: 4
#     Node 10, Type 0, BuildingBlock: NAHDIM_clean_sbu_0, # of connection points: 4
#     Node 11, Type 0, BuildingBlock: NAHDIM_clean_sbu_0, # of connection points: 4
#     Node 12, Type 0, BuildingBlock: NAHDIM_clean_sbu_0, # of connection points: 4
#     Node 13, Type 0, BuildingBlock: NAHDIM_clean_sbu_0, # of connection points: 4
#     Node 14, Type 0, BuildingBlock: NAHDIM_clean_sbu_0, # of connection points: 4
#     Node 15, Type 0, BuildingBlock: NAHDIM_clean_sbu_0, # of connection points: 4
#     Node 16, Type 0, BuildingBlock: NAHDIM_clean_sbu_0, # of connection points: 4
#     Node 17, Type 0, BuildingBlock: NAHDIM_clean_sbu_0, # of connection points: 4
#     Node 18, Type 0, BuildingBlock: NAHDIM_clean_sbu_0, # of connection points: 4
#     Node 19, Type 0, BuildingBlock: NAHDIM_clean_sbu_0, # of connection points: 4
#     Node 20, Type 0, BuildingBlock: NAHDIM_clean_sbu_0, # of connection points: 4
#     Node 21, Type 0, BuildingBlock: NAHDIM_clean_sbu_0, # of connection points: 4
#     Node 22, Type 0, BuildingBlock: NAHDIM_clean_sbu_0, # of connection points: 4
#     Node 23, Type 0, BuildingBlock: NAHDIM_clean_sbu_0, # of connection points: 4
#     Edge 24, Type (0, 0), BuildingBlock: KIFKEQ_clean_linker_1, # of connection points: 2
#     Edge 25, Type (0, 0), BuildingBlock: KIFKEQ_clean_linker_1, # of connection points: 2
#     Edge 26, Type (0, 0), BuildingBlock: KIFKEQ_clean_linker_1, # of connection points: 2
#     Edge 27, Type (0, 0), BuildingBlock: KIFKEQ_clean_linker_1, # of connection points: 2
#     Edge 28, Type (0, 0), BuildingBlock: KIFKEQ_clean_linker_1, # of connection points: 2
#     Edge 29, Type (0, 0), BuildingBlock: KIFKEQ_clean_linker_1, # of connection points: 2
#     Edge 30, Type (0, 0), BuildingBlock: KIFKEQ_clean_linker_1, # of connection points: 2
#     Edge 31, Type (0, 0), BuildingBlock: KIFKEQ_clean_linker_1, # of connection points: 2
#     Edge 32, Type (0, 0), BuildingBlock: KIFKEQ_clean_linker_1, # of connection points: 2
#     Edge 33, Type (0, 0), BuildingBlock: KIFKEQ_clean_linker_1, # of connection points: 2
#     Edge 34, Type (0, 0), BuildingBlock: KIFKEQ_clean_linker_1, # of connection points: 2
#     Edge 35, Type (0, 0), BuildingBlock: KIFKEQ_clean_linker_1, # of connection points: 2
#     Edge 36, Type (0, 0), BuildingBlock: KIFKEQ_clean_linker_1, # of connection points: 2
#     Edge 37, Type (0, 0), BuildingBlock: KIFKEQ_clean_linker_1, # of connection points: 2
#     Edge 38, Type (0, 0), BuildingBlock: KIFKEQ_clean_linker_1, # of connection points: 2
#     Edge 39, Type (0, 0), BuildingBlock: KIFKEQ_clean_linker_1, # of connection points: 2
#     Edge 40, Type (0, 0), BuildingBlock: KIFKEQ_clean_linker_1, # of connection points: 2
#     Edge 41, Type (0, 0), BuildingBlock: KIFKEQ_clean_linker_1, # of connection points: 2
#     Edge 42, Type (0, 0), BuildingBlock: KIFKEQ_clean_linker_1, # of connection points: 2
#     Edge 43, Type (0, 0), BuildingBlock: KIFKEQ_clean_linker_1, # of connection points: 2
#     Edge 44, Type (0, 0), BuildingBlock: KIFKEQ_clean_linker_1, # of connection points: 2
#     Edge 45, Type (0, 0), BuildingBlock: KIFKEQ_clean_linker_1, # of connection points: 2
#     Edge 46, Type (0, 0), BuildingBlock: KIFKEQ_clean_linker_1, # of connection points: 2
#     Edge 47, Type (0, 0), BuildingBlock: KIFKEQ_clean_linker_1, # of connection points: 2
#     Edge 48, Type (0, 0), BuildingBlock: KIFKEQ_clean_linker_1, # of connection points: 2
#     Edge 49, Type (0, 0), BuildingBlock: KIFKEQ_clean_linker_1, # of connection points: 2
#     Edge 50, Type (0, 0), BuildingBlock: KIFKEQ_clean_linker_1, # of connection points: 2
#     Edge 51, Type (0, 0), BuildingBlock: KIFKEQ_clean_linker_1, # of connection points: 2
#     Edge 52, Type (0, 0), BuildingBlock: KIFKEQ_clean_linker_1, # of connection points: 2
#     Edge 53, Type (0, 0), BuildingBlock: KIFKEQ_clean_linker_1, # of connection points: 2
#     Edge 54, Type (0, 0), BuildingBlock: KIFKEQ_clean_linker_1, # of connection points: 2
#     Edge 55, Type (0, 0), BuildingBlock: KIFKEQ_clean_linker_1, # of connection points: 2
#     Edge 56, Type (0, 0), BuildingBlock: KIFKEQ_clean_linker_1, # of connection points: 2
#     Edge 57, Type (0, 0), BuildingBlock: KIFKEQ_clean_linker_1, # of connection points: 2
#     Edge 58, Type (0, 0), BuildingBlock: KIFKEQ_clean_linker_1, # of connection points: 2
#     Edge 59, Type (0, 0), BuildingBlock: KIFKEQ_clean_linker_1, # of connection points: 2
#     Edge 60, Type (0, 0), BuildingBlock: KIFKEQ_clean_linker_1, # of connection points: 2
#     Edge 61, Type (0, 0), BuildingBlock: KIFKEQ_clean_linker_1, # of connection points: 2
#     Edge 62, Type (0, 0), BuildingBlock: KIFKEQ_clean_linker_1, # of connection points: 2
#     Edge 63, Type (0, 0), BuildingBlock: KIFKEQ_clean_linker_1, # of connection points: 2
#     Edge 64, Type (0, 0), BuildingBlock: KIFKEQ_clean_linker_1, # of connection points: 2
#     Edge 65, Type (0, 0), BuildingBlock: KIFKEQ_clean_linker_1, # of connection points: 2
#     Edge 66, Type (0, 0), BuildingBlock: KIFKEQ_clean_linker_1, # of connection points: 2
#     Edge 67, Type (0, 0), BuildingBlock: KIFKEQ_clean_linker_1, # of connection points: 2
#     Edge 68, Type (0, 0), BuildingBlock: KIFKEQ_clean_linker_1, # of connection points: 2
#     Edge 69, Type (0, 0), BuildingBlock: KIFKEQ_clean_linker_1, # of connection points: 2
#     Edge 70, Type (0, 0), BuildingBlock: KIFKEQ_clean_linker_1, # of connection points: 2
#     Edge 71, Type (0, 0), BuildingBlock: KIFKEQ_clean_linker_1, # of connection points: 2
# Relax obj value: 0.157
# Max RMSD: 0.150
# Mean RMSD: 0.150
data_MOF--net-gme--node1-NAHDIM_clean_sbu_0--edge1-KIFKEQ_clean_linker_1
_symmetry_space_group_name_H-M    P1
_symmetry_Int_Tables_number       1
_symmetry_cell_setting            triclinic
loop_
_symmetry_equiv_pos_as_xyz
'x, y, z'
_cell_length_a     63.347944
_cell_length_b     63.347802
_cell_length_c     52.120118
_cell_angle_alpha  89.944112
_cell_angle_beta   89.932416
_cell_angle_gamma 119.9646
loop_
_atom_site_label
_atom_site_type_symbol
_atom_site_fract_x
_atom_site_fract_y
_atom_site_fract_z
_atom_type_partial_charge
C0 C 0.4012 0.0643 0.04636 0.0
O1 O 0.42059 0.08437 0.0386 0.0
O2 O 0.41704 0.12071 0.08102 0.0
Zn3 Zn 0.41562 0.08989 0.09322 0.0
O4 O 0.449 0.0936 0.09366 0.0
C5 C 0.40004 0.0971 0.14304 0.0
O6 O 0.40555 0.11839 0.13332 0.0
O7 O 0.39477 0.06241 0.06971 0.0
C8 C 0.46546 0.10854 0.10869 0.0
O9 O 0.46068 0.12226 0.12376 0.0
C10 C 0.43548 0.13821 0.07018 0.0
O11 O 0.45484 0.1363 0.06559 0.0
O12 O 0.40234 0.08186 0.12919 0.0
C13 C 0.33609 0.40509 0.56401 0.0
O14 O 0.33417 0.4237 0.55589 0.0
O15 O 0.2988 0.42289 0.6024 0.0
Zn16 Zn 0.32932 0.42243 0.61163 0.0
O17 O 0.35813 0.4562 0.60843 0.0
C18 C 0.30669 0.39899 0.65958 0.0
O19 O 0.28645 0.39265 0.64697 0.0
O20 O 0.33417 0.40037 0.58787 0.0
C21 C 0.364 0.47141 0.62667 0.0
O22 O 0.35094 0.46485 0.64782 0.0
C23 C 0.29861 0.43938 0.58866 0.0
O24 O 0.3192 0.45707 0.57945 0.0
O25 O 0.32702 0.41114 0.64812 0.0
C26 C 0.92432 0.33899 0.0511 0.0
O27 O 0.9098 0.34802 0.04795 0.0
O28 O 0.87125 0.30284 0.09965 0.0
Zn29 Zn 0.9048 0.3319 0.10141 0.0
O30 O 0.90324 0.36272 0.09906 0.0
C31 C 0.91441 0.31151 0.14602 0.0
O32 O 0.90114 0.291 0.13359 0.0
O33 O 0.92535 0.33064 0.07293 0.0
C34 C 0.88798 0.36532 0.11254 0.0
O35 O 0.87302 0.34744 0.12766 0.0
C36 C 0.85487 0.30057 0.08405 0.0
O37 O 0.85965 0.31809 0.06754 0.0
O38 O 0.91909 0.33149 0.13551 0.0
C39 C 0.57726 0.92166 0.56398 0.0
O40 O 0.55967 0.90081 0.55525 0.0
O41 O 0.5577 0.86699 0.6028 0.0
Zn42 Zn 0.55753 0.89774 0.61135 0.0
O43 O 0.52382 0.89277 0.6073 0.0
C44 C 0.58515 0.90343 0.65694 0.0
O45 O 0.59626 0.89546 0.64182 0.0
O46 O 0.58029 0.92472 0.58805 0.0
C47 C 0.50831 0.88359 0.62533 0.0
O48 O 0.51445 0.87708 0.64674 0.0
C49 C 0.54211 0.85026 0.58848 0.0
O50 O 0.52462 0.85279 0.57807 0.0
O51 O 0.56822 0.90643 0.64787 0.0
C52 C 0.66494 0.59556 0.04212 0.0
O53 O 0.67035 0.57898 0.03484 0.0
O54 O 0.69605 0.57551 0.08612 0.0
Zn55 Zn 0.66525 0.57653 0.09193 0.0
O56 O 0.6364 0.54266 0.08966 0.0
C57 C 0.6856 0.60212 0.13947 0.0
O58 O 0.70641 0.60791 0.1283 0.0
O59 O 0.66209 0.59799 0.06585 0.0
C60 C 0.63287 0.52747 0.10742 0.0
O61 O 0.64826 0.53432 0.12668 0.0
C62 C 0.69674 0.55825 0.07447 0.0
O63 O 0.67656 0.54025 0.06497 0.0
O64 O 0.66583 0.58936 0.12732 0.0
C65 C 0.05991 0.65084 0.55177 0.0
O66 O 0.08061 0.6532 0.54358 0.0
O67 O 0.11458 0.68842 0.58921 0.0
Zn68 Zn 0.08386 0.65804 0.59956 0.0
O69 O 0.08871 0.62892 0.59764 0.0
C70 C 0.08383 0.68172 0.64725 0.0
O71 O 0.09993 0.70163 0.63538 0.0
O72 O 0.05702 0.65258 0.57562 0.0
C73 C 0.09193 0.61947 0.61771 0.0
O74 O 0.09239 0.62905 0.64019 0.0
C75 C 0.13543 0.69064 0.59275 0.0
O76 O 0.13694 0.67247 0.60293 0.0
O77 O 0.07442 0.66147 0.63551 0.0
C78 C 0.91719 0.582 0.432 0.0
O79 O 0.89635 0.56396 0.44031 0.0
O80 O 0.8626 0.56581 0.39373 0.0
Zn81 Zn 0.89275 0.56458 0.38488 0.0
O82 O 0.88658 0.5304 0.38862 0.0
C83 C 0.90051 0.59238 0.33838 0.0
O84 O 0.89406 0.60524 0.35277 0.0
O85 O 0.92004 0.58648 0.40811 0.0
C86 C 0.9045 0.52669 0.38953 0.0
O87 O 0.92675 0.54543 0.38855 0.0
C88 C 0.84176 0.54728 0.38996 0.0
O89 O 0.84031 0.52733 0.38067 0.0
O90 O 0.90161 0.57462 0.34827 0.0
C91 C 0.33611 0.91797 0.932 0.0
O92 O 0.3319 0.89713 0.94189 0.0
O93 O 0.3004 0.86263 0.89549 0.0
Zn94 Zn 0.33183 0.89245 0.88587 0.0
O95 O 0.3604 0.88727 0.89076 0.0
C96 C 0.31232 0.90252 0.84078 0.0
O97 O 0.29514 0.89981 0.85685 0.0
O98 O 0.33668 0.92033 0.90779 0.0
C99 C 0.36741 0.87842 0.87303 0.0
O100 O 0.3554 0.87205 0.85125 0.0
C101 C 0.29879 0.84275 0.90284 0.0
O102 O 0.31863 0.84118 0.90477 0.0
O103 O 0.33005 0.90043 0.84904 0.0
C104 C 0.40533 0.33354 0.44156 0.0
O105 O 0.42366 0.33098 0.44929 0.0
O106 O 0.42392 0.29761 0.40327 0.0
Zn107 Zn 0.4225 0.32763 0.39354 0.0
O108 O 0.4559 0.3575 0.39476 0.0
C109 C 0.39887 0.30394 0.3459 0.0
O110 O 0.39303 0.2838 0.35856 0.0
O111 O 0.4007 0.33232 0.41773 0.0
C112 C 0.46927 0.36402 0.37481 0.0
O113 O 0.46129 0.35068 0.35397 0.0
C114 C 0.44373 0.29717 0.4044 0.0
O115 O 0.46444 0.31723 0.39991 0.0
O116 O 0.41025 0.32427 0.35741 0.0
C117 C 0.05397 0.38229 0.92034 0.0
O118 O 0.07543 0.38566 0.92692 0.0
O119 O 0.11137 0.41767 0.88928 0.0
Zn120 Zn 0.08055 0.41729 0.87979 0.0
O121 O 0.08444 0.45044 0.88484 0.0
C122 C 0.07627 0.39178 0.8328 0.0
O123 O 0.08196 0.37858 0.84762 0.0
O124 O 0.0521 0.39328 0.90084 0.0
C125 C 0.10345 0.4696 0.87736 0.0
O126 O 0.12118 0.4677 0.86657 0.0
C127 C 0.12434 0.4288 0.90863 0.0
O128 O 0.11729 0.44052 0.92405 0.0
O129 O 0.07415 0.40898 0.84261 0.0
C130 C 0.65375 0.06134 0.44055 0.0
O131 O 0.65533 0.08207 0.44726 0.0
O132 O 0.69117 0.11468 0.39981 0.0
Zn133 Zn 0.66075 0.0832 0.39163 0.0
O134 O 0.63128 0.08727 0.39252 0.0
C135 C 0.68343 0.08083 0.34426 0.0
O136 O 0.70372 0.09607 0.35606 0.0
O137 O 0.65604 0.0576 0.41705 0.0
C138 C 0.62911 0.10136 0.37674 0.0
O139 O 0.64677 0.11389 0.36028 0.0
C140 C 0.69157 0.13319 0.40974 0.0
O141 O 0.67099 0.13218 0.41598 0.0
O142 O 0.66326 0.07258 0.35604 0.0
C143 C 0.59987 0.67198 0.92174 0.0
O144 O 0.60622 0.69514 0.92192 0.0
O145 O 0.5643 0.69861 0.9039 0.0
Zn146 Zn 0.55837 0.66604 0.89229 0.0
O147 O 0.52373 0.64039 0.89954 0.0
C148 C 0.58238 0.67016 0.84276 0.0
O149 O 0.59987 0.66998 0.85609 0.0
O150 O 0.58058 0.6568 0.91013 0.0
C151 C 0.50686 0.63664 0.88386 0.0
O152 O 0.51221 0.65031 0.86322 0.0
C153 C 0.55615 0.70269 0.92445 0.0
O154 O 0.54301 0.68458 0.94021 0.0
O155 O 0.56384 0.6683 0.85427 0.0
C156 C 0.61651 0.94048 0.93638 0.0
O157 O 0.6195 0.92163 0.94015 0.0
O158 O 0.58219 0.88059 0.91242 0.0
Zn159 Zn 0.5805 0.90941 0.89887 0.0
O160 O 0.54611 0.90292 0.90018 0.0
C161 C 0.59315 0.89999 0.84849 0.0
O162 O 0.58921 0.87955 0.85919 0.0
O163 O 0.60131 0.93919 0.91971 0.0
C164 C 0.5292 0.88539 0.88775 0.0
O165 O 0.53428 0.87088 0.87444 0.0
C166 C 0.5666 0.86503 0.92782 0.0
O167 O 0.54857 0.86783 0.93612 0.0
O168 O 0.59115 0.91561 0.86197 0.0
C169 C 0.65528 0.59459 0.42512 0.0
O170 O 0.65792 0.57623 0.43255 0.0
O171 O 0.68853 0.57453 0.38373 0.0
Zn172 Zn 0.65791 0.5757 0.37701 0.0
O173 O 0.62854 0.54252 0.38143 0.0
C174 C 0.67642 0.60434 0.33059 0.0
O175 O 0.69535 0.61836 0.34494 0.0
O176 O 0.65521 0.5987 0.40128 0.0
C177 C 0.6261 0.52489 0.36769 0.0
O178 O 0.64321 0.52864 0.35102 0.0
C179 C 0.68895 0.55792 0.39703 0.0
O180 O 0.66871 0.54084 0.40752 0.0
O181 O 0.65836 0.5858 0.34054 0.0
C182 C 0.06416 0.67207 0.92958 0.0
O183 O 0.08691 0.68774 0.93531 0.0
O184 O 0.11748 0.69145 0.89176 0.0
Zn185 Zn 0.08549 0.66098 0.88606 0.0
O186 O 0.08947 0.63182 0.89167 0.0
C187 C 0.07642 0.67889 0.83885 0.0
O188 O 0.08231 0.69841 0.85263 0.0
O189 O 0.05948 0.65918 0.90946 0.0
C190 C 0.10274 0.62818 0.87606 0.0
O191 O 0.11359 0.64377 0.85726 0.0
C192 C 0.13321 0.69253 0.90762 0.0
O193 O 0.12826 0.67325 0.92148 0.0
O194 O 0.07595 0.66058 0.84942 0.0
C195 C 0.40164 0.06474 0.42821 0.0
O196 O 0.41954 0.08555 0.43664 0.0
O197 O 0.42207 0.11937 0.38913 0.0
Zn198 Zn 0.42123 0.08808 0.38058 0.0
O199 O 0.4547 0.09224 0.38424 0.0
C200 C 0.39478 0.08405 0.33423 0.0
O201 O 0.38448 0.09336 0.34872 0.0
O202 O 0.39831 0.06147 0.40419 0.0
C203 C 0.46988 0.10076 0.36583 0.0
O204 O 0.46354 0.10703 0.34441 0.0
C205 C 0.43901 0.13642 0.40201 0.0
O206 O 0.45689 0.13366 0.41084 0.0
O207 O 0.41044 0.07952 0.34404 0.0
C208 C 0.32806 0.40616 0.94588 0.0
O209 O 0.32332 0.42249 0.95555 0.0
O210 O 0.28934 0.4225 0.90797 0.0
Zn211 Zn 0.32188 0.42603 0.89966 0.0
O212 O 0.34897 0.46036 0.90498 0.0
C213 C 0.30549 0.39922 0.85191 0.0
O214 O 0.28686 0.38349 0.86573 0.0
O215 O 0.32802 0.40382 0.92169 0.0
C216 C 0.34931 0.47799 0.89299 0.0
O217 O 0.33108 0.47367 0.87774 0.0
C218 C 0.2864 0.43726 0.92195 0.0
O219 O 0.30544 0.45593 0.93234 0.0
O220 O 0.3224 0.41813 0.86257 0.0
C221 C 0.92241 0.3236 0.43006 0.0
O222 O 0.90228 0.32167 0.43947 0.0
O223 O 0.86716 0.29292 0.38936 0.0
Zn224 Zn 0.89915 0.32346 0.38366 0.0
O225 O 0.89686 0.35321 0.39159 0.0
C226 C 0.91421 0.31032 0.33688 0.0
O227 O 0.91409 0.29321 0.35125 0.0
O228 O 0.92508 0.32397 0.40589 0.0
C229 C 0.88347 0.35871 0.37836 0.0
O230 O 0.87021 0.34409 0.35979 0.0
C231 C 0.85084 0.2914 0.40467 0.0
O232 O 0.85471 0.31062 0.41796 0.0
O233 O 0.90862 0.32518 0.34682 0.0
C234 C 0.06686 0.39769 0.54506 0.0
O235 O 0.08734 0.41585 0.53619 0.0
O236 O 0.1216 0.42029 0.58369 0.0
Zn237 Zn 0.08963 0.41777 0.59292 0.0
O238 O 0.09144 0.45035 0.59117 0.0
C239 C 0.09121 0.39636 0.64164 0.0
O240 O 0.10899 0.39456 0.63083 0.0
O241 O 0.06377 0.39471 0.56913 0.0
C242 C 0.10259 0.46597 0.60867 0.0
O243 O 0.11343 0.46074 0.62706 0.0
C244 C 0.14068 0.43976 0.57695 0.0
O245 O 0.14005 0.4601 0.57492 0.0
O246 O 0.08036 0.40523 0.62892 0.0
C247 C 0.66681 0.07684 0.06098 0.0
O248 O 0.67617 0.09969 0.05384 0.0
O249 O 0.69115 0.12737 0.10265 0.0
Zn250 Zn 0.66023 0.09569 0.10827 0.0
O251 O 0.63098 0.09974 0.10345 0.0
C252 C 0.6776 0.08262 0.1533 0.0
O253 O 0.69615 0.08717 0.13839 0.0
O254 O 0.65874 0.07076 0.0837 0.0
C255 C 0.62397 0.10804 0.12173 0.0
O256 O 0.63625 0.11413 0.14335 0.0
C257 C 0.69193 0.14631 0.09342 0.0
O258 O 0.67158 0.14567 0.08699 0.0
O259 O 0.66009 0.08465 0.14427 0.0
C260 C 0.58613 0.66134 0.5528 0.0
O261 O 0.56746 0.66355 0.54557 0.0
O262 O 0.56656 0.69579 0.58991 0.0
Zn263 Zn 0.56892 0.66655 0.60077 0.0
O264 O 0.53608 0.63615 0.60016 0.0
C265 C 0.58162 0.68716 0.65135 0.0
O266 O 0.57476 0.70199 0.64184 0.0
O267 O 0.59097 0.66229 0.57655 0.0
C268 C 0.51937 0.63352 0.61557 0.0
O269 O 0.52352 0.65129 0.63142 0.0
C270 C 0.54776 0.69497 0.58024 0.0
O271 O 0.52825 0.67377 0.57594 0.0
O272 O 0.58148 0.67089 0.63699 0.0
C273 C 0.92827 0.60822 0.05654 0.0
O274 O 0.90654 0.6051 0.05175 0.0
O275 O 0.87236 0.57247 0.08758 0.0
Zn276 Zn 0.9038 0.57459 0.09857 0.0
O277 O 0.90081 0.54141 0.09691 0.0
C278 C 0.9004 0.59592 0.1466 0.0
O279 O 0.88358 0.59839 0.13452 0.0
O280 O 0.93114 0.59727 0.07548 0.0
C281 C 0.89471 0.52777 0.11664 0.0
O282 O 0.89013 0.53546 0.13821 0.0
C283 C 0.85196 0.55283 0.08834 0.0
O284 O 0.85103 0.53267 0.09615 0.0
O285 O 0.9116 0.58688 0.13482 0.0
C286 C 0.32557 0.92525 0.55204 0.0
O287 O 0.32439 0.90476 0.54511 0.0
O288 O 0.28813 0.87104 0.59296 0.0
Zn289 Zn 0.31854 0.90274 0.60065 0.0
O290 O 0.34789 0.89854 0.5988 0.0
C291 C 0.29752 0.90353 0.64987 0.0
O292 O 0.27698 0.88738 0.63914 0.0
O293 O 0.32293 0.9286 0.57557 0.0
C294 C 0.34943 0.88335 0.6135 0.0
O295 O 0.33131 0.87003 0.62918 0.0
C296 C 0.28798 0.85372 0.58051 0.0
O297 O 0.30848 0.85652 0.57114 0.0
O298 O 0.31704 0.91301 0.63672 0.0
C299 C 0.40945 0.34009 0.05862 0.0
O300 O 0.42931 0.34102 0.04974 0.0
O301 O 0.42791 0.30093 0.09284 0.0
Zn302 Zn 0.4275 0.33097 0.10426 0.0
O303 O 0.46048 0.36098 0.10123 0.0
C304 C 0.4196 0.31209 0.15543 0.0
O305 O 0.43019 0.30052 0.14591 0.0
O306 O 0.40428 0.33563 0.08226 0.0
C307 C 0.47986 0.36286 0.11056 0.0
O308 O 0.47887 0.34413 0.12256 0.0
C309 C 0.44244 0.29957 0.077 0.0
O310 O 0.45938 0.31944 0.06577 0.0
O311 O 0.41643 0.32651 0.14108 0.0
H312 H 0.41364 0.06602 0.29911 0.0
H313 H 0.36625 0.09656 0.30599 0.0
H314 H 0.41051 0.06634 0.25265 0.0
H315 H 0.36279 0.09647 0.25934 0.0
H316 H 0.39643 0.12677 0.17863 0.0
H317 H 0.39085 0.12023 0.22476 0.0
H318 H 0.38354 0.04907 0.21585 0.0
H319 H 0.38958 0.05577 0.16971 0.0
C320 C 0.40222 0.07243 0.29073 0.0
C321 C 0.39038 0.08148 0.30625 0.0
C322 C 0.40029 0.07246 0.26406 0.0
C323 C 0.38648 0.08154 0.2523 0.0
C324 C 0.37382 0.08966 0.26785 0.0
C325 C 0.37571 0.08959 0.29457 0.0
C326 C 0.39333 0.1096 0.18645 0.0
C327 C 0.39373 0.09191 0.17053 0.0
C328 C 0.38997 0.10578 0.21289 0.0
C329 C 0.38691 0.08419 0.22398 0.0
C330 C 0.38621 0.06604 0.20791 0.0
C331 C 0.38957 0.06986 0.18146 0.0
H332 H 0.34468 0.40686 0.69054 0.0
H333 H 0.2673 0.38086 0.69172 0.0
H334 H 0.3445 0.40338 0.73708 0.0
H335 H 0.26726 0.37806 0.73833 0.0
H336 H 0.272 0.36175 0.82217 0.0
H337 H 0.27234 0.358 0.77554 0.0
H338 H 0.34056 0.42604 0.77184 0.0
H339 H 0.34055 0.42947 0.81819 0.0
C340 C 0.3276 0.40025 0.70072 0.0
C341 C 0.30605 0.39437 0.68746 0.0
C342 C 0.32752 0.39838 0.72741 0.0
C343 C 0.30593 0.39073 0.74147 0.0
C344 C 0.28417 0.38381 0.7281 0.0
C345 C 0.28422 0.38555 0.70136 0.0
C346 C 0.28718 0.37576 0.81139 0.0
C347 C 0.3062 0.39595 0.82388 0.0
C348 C 0.28731 0.37367 0.78467 0.0
C349 C 0.30646 0.39172 0.76995 0.0
C350 C 0.32572 0.41159 0.78258 0.0
C351 C 0.32561 0.41365 0.8092 0.0
H352 H 0.89826 0.27208 0.17783 0.0
H353 H 0.94448 0.35039 0.17589 0.0
H354 H 0.9028 0.27252 0.22425 0.0
H355 H 0.94956 0.35074 0.22222 0.0
H356 H 0.91653 0.34397 0.30275 0.0
H357 H 0.92146 0.34444 0.25659 0.0
H358 H 0.92888 0.28034 0.2616 0.0
H359 H 0.92339 0.27955 0.30811 0.0
C360 C 0.90987 0.28932 0.18723 0.0
C361 C 0.92066 0.31124 0.17327 0.0
C362 C 0.91258 0.28956 0.21385 0.0
C363 C 0.92625 0.31172 0.22697 0.0
C364 C 0.93847 0.33343 0.21273 0.0
C365 C 0.93564 0.33321 0.18617 0.0
C366 C 0.91943 0.33007 0.29411 0.0
C367 C 0.91936 0.31159 0.30909 0.0
C368 C 0.92249 0.33048 0.2676 0.0
C369 C 0.92561 0.31245 0.2554 0.0
C370 C 0.92629 0.29436 0.27044 0.0
C371 C 0.92323 0.29396 0.29706 0.0
H372 H 0.61659 0.89387 0.6837 0.0
H373 H 0.56603 0.92039 0.69296 0.0
H374 H 0.62284 0.89606 0.73006 0.0
H375 H 0.57202 0.92222 0.73916 0.0
H376 H 0.59951 0.93902 0.82 0.0
H377 H 0.60172 0.94301 0.77342 0.0
H378 H 0.5976 0.87305 0.76706 0.0
H379 H 0.59578 0.86919 0.81362 0.0
C380 C 0.60699 0.90037 0.69558 0.0
C381 C 0.59069 0.90681 0.68468 0.0
C382 C 0.61049 0.90151 0.72213 0.0
C383 C 0.59787 0.90923 0.73826 0.0
C384 C 0.58225 0.91648 0.72724 0.0
C385 C 0.57868 0.91526 0.70075 0.0
C386 C 0.59939 0.92462 0.80869 0.0
C387 C 0.59722 0.90367 0.8205 0.0
C388 C 0.60056 0.92688 0.782 0.0
C389 C 0.59962 0.90826 0.76657 0.0
C390 C 0.59857 0.88782 0.77843 0.0
C391 C 0.59738 0.88554 0.80512 0.0
H392 H 0.64162 0.57653 0.29561 0.0
H393 H 0.71252 0.64115 0.30217 0.0
H394 H 0.64419 0.58017 0.24927 0.0
H395 H 0.71478 0.64525 0.25549 0.0
H396 H 0.72291 0.61973 0.17407 0.0
H397 H 0.72037 0.62407 0.22019 0.0
H398 H 0.64434 0.60282 0.21267 0.0
H399 H 0.6467 0.59766 0.16665 0.0
C400 C 0.6576 0.5918 0.28717 0.0
C401 C 0.67697 0.60842 0.30259 0.0
C402 C 0.65899 0.594 0.26053 0.0
C403 C 0.67972 0.61299 0.2486 0.0
C404 C 0.6987 0.63022 0.26406 0.0
C405 C 0.69735 0.62795 0.2908 0.0
C406 C 0.70574 0.6163 0.18221 0.0
C407 C 0.68492 0.60801 0.16678 0.0
C408 C 0.70431 0.61894 0.20867 0.0
C409 C 0.68207 0.61354 0.2202 0.0
C410 C 0.66162 0.60662 0.20448 0.0
C411 C 0.663 0.60377 0.17809 0.0
H412 H 0.04859 0.64503 0.6761 0.0
H413 H 0.10703 0.71978 0.68061 0.0
H414 H 0.04257 0.64459 0.72229 0.0
H415 H 0.10152 0.7191 0.72691 0.0
H416 H 0.0781 0.71548 0.80924 0.0
H417 H 0.07585 0.71658 0.76252 0.0
H418 H 0.06524 0.64375 0.75861 0.0
H419 H 0.06682 0.6424 0.80503 0.0
C420 C 0.06005 0.66142 0.68693 0.0
C421 C 0.07847 0.68236 0.67474 0.0
C422 C 0.05667 0.66113 0.71342 0.0
C423 C 0.07175 0.6817 0.72835 0.0
C424 C 0.08943 0.70301 0.71598 0.0
C425 C 0.0927 0.70336 0.68943 0.0
C426 C 0.07495 0.6996 0.79839 0.0
C427 C 0.07279 0.67892 0.81084 0.0
C428 C 0.0738 0.70028 0.77162 0.0
C429 C 0.07047 0.68031 0.7568 0.0
C430 C 0.06747 0.65934 0.76939 0.0
C431 C 0.06856 0.65863 0.79607 0.0
H432 H 0.87383 0.60695 0.17974 0.0
H433 H 0.93594 0.5961 0.17633 0.0
H434 H 0.87717 0.6098 0.22631 0.0
H435 H 0.9397 0.59965 0.22282 0.0
H436 H 0.91301 0.56832 0.3037 0.0
H437 H 0.91606 0.57331 0.25746 0.0
H438 H 0.9007 0.63237 0.26346 0.0
H439 H 0.89703 0.62696 0.30999 0.0
C440 C 0.88849 0.60565 0.18888 0.0
C441 C 0.90441 0.60097 0.17438 0.0
C442 C 0.89049 0.60743 0.21559 0.0
C443 C 0.90855 0.60469 0.22831 0.0
C444 C 0.92528 0.60135 0.21364 0.0
C445 C 0.92319 0.59943 0.18698 0.0
C446 C 0.91049 0.58254 0.29525 0.0
C447 C 0.90459 0.59713 0.31053 0.0
C448 C 0.91244 0.58553 0.26869 0.0
C449 C 0.90863 0.60325 0.25674 0.0
C450 C 0.90346 0.61837 0.27208 0.0
C451 C 0.90148 0.61535 0.29873 0.0
H452 H 0.27563 0.90517 0.81593 0.0
H453 H 0.34486 0.90894 0.80306 0.0
H454 H 0.27175 0.90945 0.76984 0.0
H455 H 0.34076 0.91274 0.75722 0.0
H456 H 0.33684 0.93614 0.67776 0.0
H457 H 0.34034 0.93964 0.72428 0.0
H458 H 0.26461 0.88415 0.73177 0.0
H459 H 0.26094 0.88101 0.68522 0.0
C460 C 0.29007 0.90705 0.80331 0.0
C461 C 0.3105 0.9066 0.81314 0.0
C462 C 0.28779 0.9094 0.77693 0.0
C463 C 0.30594 0.91144 0.75988 0.0
C464 C 0.32663 0.9116 0.76984 0.0
C465 C 0.32889 0.90922 0.79614 0.0
C466 C 0.32083 0.92495 0.6893 0.0
C467 C 0.29868 0.90808 0.6778 0.0
C468 C 0.32287 0.92687 0.71597 0.0
C469 C 0.30285 0.91193 0.73171 0.0
C470 C 0.28035 0.89603 0.72018 0.0
C471 C 0.27827 0.89415 0.69348 0.0
H472 H 0.38016 0.26436 0.31406 0.0
H473 H 0.41103 0.34257 0.31399 0.0
H474 H 0.38079 0.26455 0.26725 0.0
H475 H 0.41207 0.34277 0.26736 0.0
H476 H 0.39882 0.33441 0.18197 0.0
H477 H 0.38866 0.33046 0.22758 0.0
H478 H 0.41397 0.27889 0.23611 0.0
H479 H 0.42367 0.28246 0.19062 0.0
C480 C 0.38676 0.28154 0.30409 0.0
C481 C 0.39579 0.30347 0.31775 0.0
C482 C 0.38725 0.28166 0.27728 0.0
C483 C 0.39674 0.3037 0.26362 0.0
C484 C 0.40448 0.32545 0.27728 0.0
C485 C 0.404 0.32534 0.30405 0.0
C486 C 0.40201 0.32207 0.19355 0.0
C487 C 0.41221 0.30888 0.18271 0.0
C488 C 0.39625 0.31987 0.21968 0.0
C489 C 0.40052 0.30438 0.23546 0.0
C490 C 0.41011 0.29071 0.22443 0.0
C491 C 0.41588 0.29293 0.19836 0.0
H492 H 0.11611 0.38522 0.67688 0.0
H493 H 0.05311 0.39409 0.66843 0.0
H494 H 0.10924 0.38039 0.72306 0.0
H495 H 0.04586 0.38859 0.71447 0.0
H496 H 0.06569 0.41673 0.79732 0.0
H497 H 0.0664 0.41381 0.75096 0.0
H498 H 0.08298 0.35564 0.75802 0.0
H499 H 0.08284 0.35896 0.80471 0.0
C500 C 0.10054 0.38569 0.68481 0.0
C501 C 0.08536 0.39038 0.66907 0.0
C502 C 0.09651 0.38277 0.71127 0.0
C503 C 0.07714 0.38435 0.72246 0.0
C504 C 0.06122 0.38776 0.70649 0.0
C505 C 0.06533 0.39081 0.6801 0.0
C506 C 0.06926 0.40314 0.78905 0.0
C507 C 0.07439 0.3882 0.80471 0.0
C508 C 0.06948 0.40133 0.76242 0.0
C509 C 0.07476 0.38449 0.75078 0.0
C510 C 0.07913 0.36899 0.76643 0.0
C511 C 0.07892 0.37081 0.79316 0.0
H512 H 0.6456 0.04742 0.31531 0.0
H513 H 0.72154 0.10303 0.31063 0.0
H514 H 0.64423 0.04311 0.26882 0.0
H515 H 0.71998 0.09922 0.26409 0.0
H516 H 0.71335 0.07986 0.18013 0.0
H517 H 0.71504 0.07465 0.22641 0.0
H518 H 0.64449 0.06895 0.23489 0.0
H519 H 0.64254 0.07353 0.1889 0.0
C520 C 0.66207 0.05856 0.30438 0.0
C521 C 0.68359 0.07581 0.3166 0.0
C522 C 0.66125 0.05616 0.27773 0.0
C523 C 0.68188 0.07108 0.26272 0.0
C524 C 0.7038 0.08732 0.27508 0.0
C525 C 0.70466 0.08961 0.30177 0.0
C526 C 0.69807 0.07716 0.19188 0.0
C527 C 0.67789 0.07728 0.18087 0.0
C528 C 0.6991 0.07428 0.21838 0.0
C529 C 0.67994 0.07144 0.23435 0.0
C530 C 0.65941 0.07072 0.22315 0.0
C531 C 0.65838 0.07355 0.19674 0.0
H532 H 0.59416 0.65773 0.678 0.0
H533 H 0.57963 0.71709 0.68763 0.0
H534 H 0.59679 0.65498 0.72454 0.0
H535 H 0.58245 0.71438 0.73397 0.0
H536 H 0.55179 0.67641 0.81112 0.0
H537 H 0.55492 0.68245 0.76496 0.0
H538 H 0.62055 0.67763 0.76412 0.0
H539 H 0.61743 0.67144 0.8107 0.0
C540 C 0.5919 0.67042 0.69 0.0
C541 C 0.58639 0.68744 0.67914 0.0
C542 C 0.59351 0.66889 0.71662 0.0
C543 C 0.58952 0.68427 0.73283 0.0
C544 C 0.5852 0.70203 0.72192 0.0
C545 C 0.5837 0.70364 0.69536 0.0
C546 C 0.56693 0.67664 0.80119 0.0
C547 C 0.58439 0.67347 0.8146 0.0
C548 C 0.56881 0.68029 0.77474 0.0
C549 C 0.58811 0.68074 0.76101 0.0
C550 C 0.60547 0.67732 0.77428 0.0
C551 C 0.6037 0.67384 0.8009 0.0
H552 H 0.39679 0.14578 0.06906 0.0
H553 H 0.47511 0.183 0.06077 0.0
H554 H 0.39774 0.18459 0.06638 0.0
H555 H 0.47618 0.222 0.05903 0.0
H556 H 0.46846 0.28853 0.04273 0.0
H557 H 0.4659 0.24905 0.03647 0.0
H558 H 0.41046 0.21778 0.09534 0.0
H559 H 0.41248 0.25666 0.10101 0.0
C560 C 0.41421 0.16226 0.06652 0.0
C561 C 0.4359 0.16139 0.06544 0.0
C562 C 0.41477 0.18452 0.06512 0.0
C563 C 0.43708 0.20645 0.06294 0.0
C564 C 0.45868 0.20546 0.06054 0.0
C565 C 0.45808 0.18311 0.06167 0.0
C566 C 0.45561 0.27314 0.05416 0.0
C567 C 0.44067 0.27573 0.07235 0.0
C568 C 0.45421 0.25056 0.05064 0.0
C569 C 0.43788 0.23021 0.0653 0.0
C570 C 0.42286 0.23288 0.08331 0.0
C571 C 0.42417 0.2553 0.08671 0.0
H572 H 0.18677 0.47907 0.57445 0.0
H573 H 0.14688 0.40035 0.57267 0.0
H574 H 0.22506 0.47866 0.5746 0.0
H575 H 0.18507 0.39994 0.57197 0.0
H576 H 0.25401 0.40802 0.60889 0.0
H577 H 0.21613 0.4082 0.60282 0.0
H578 H 0.25246 0.46954 0.55113 0.0
H579 H 0.29075 0.46981 0.55782 0.0
C580 C 0.18619 0.4617 0.57361 0.0
C581 C 0.16383 0.43974 0.57387 0.0
C582 C 0.20813 0.46146 0.57357 0.0
C583 C 0.20812 0.43925 0.57361 0.0
C584 C 0.18572 0.41735 0.57255 0.0
C585 C 0.16382 0.41758 0.57281 0.0
C586 C 0.25395 0.42149 0.59611 0.0
C587 C 0.27541 0.43895 0.58389 0.0
C588 C 0.23215 0.42148 0.59247 0.0
C589 C 0.23122 0.43882 0.57638 0.0
C590 C 0.25263 0.4561 0.56385 0.0
C591 C 0.27453 0.45618 0.5676 0.0
H592 H 0.83832 0.26356 0.1188 0.0
H593 H 0.8167 0.28724 0.05094 0.0
H594 H 0.79877 0.22668 0.12012 0.0
H595 H 0.77712 0.24981 0.0519 0.0
H596 H 0.7003 0.19163 0.07987 0.0
H597 H 0.73956 0.22923 0.07693 0.0
H598 H 0.77625 0.18937 0.0965 0.0
H599 H 0.73716 0.15207 0.1001 0.0
C600 C 0.82516 0.26083 0.10405 0.0
C601 C 0.83068 0.27829 0.0847 0.0
C602 C 0.80252 0.2396 0.10473 0.0
C603 C 0.78487 0.23521 0.08599 0.0
C604 C 0.79027 0.25276 0.06673 0.0
C605 C 0.81297 0.27413 0.06611 0.0
C606 C 0.71677 0.19092 0.08347 0.0
C607 C 0.71562 0.16893 0.09042 0.0
C608 C 0.73926 0.21243 0.08165 0.0
C609 C 0.761 0.21231 0.08667 0.0
C610 C 0.75981 0.19017 0.09302 0.0
C611 C 0.73739 0.16876 0.09495 0.0
H612 H 0.50796 0.70038 0.57325 0.0
H613 H 0.58649 0.74113 0.57866 0.0
H614 H 0.50702 0.73839 0.57249 0.0
H615 H 0.58565 0.77908 0.57696 0.0
H616 H 0.57257 0.8375 0.61173 0.0
H617 H 0.57408 0.80028 0.60631 0.0
H618 H 0.51676 0.7753 0.5497 0.0
H619 H 0.51471 0.81248 0.55577 0.0
C620 C 0.52504 0.71746 0.57375 0.0
C621 C 0.54727 0.71779 0.57636 0.0
C622 C 0.52452 0.73926 0.5732 0.0
C623 C 0.54625 0.76179 0.57501 0.0
C624 C 0.56854 0.76204 0.57617 0.0
C625 C 0.56904 0.7403 0.577 0.0
C626 C 0.56034 0.82416 0.59803 0.0
C627 C 0.54347 0.82792 0.58423 0.0
C628 C 0.56134 0.80285 0.59476 0.0
C629 C 0.54564 0.78483 0.57744 0.0
C630 C 0.52894 0.78871 0.56338 0.0
C631 C 0.52783 0.81004 0.56678 0.0
H632 H 0.7045 0.52317 0.05329 0.0
H633 H 0.74125 0.59256 0.09235 0.0
H634 H 0.74236 0.5218 0.05308 0.0
H635 H 0.77877 0.59094 0.09254 0.0
H636 H 0.8477 0.59134 0.07142 0.0
H637 H 0.81036 0.59267 0.06451 0.0
H638 H 0.76776 0.51655 0.08505 0.0
H639 H 0.80508 0.51504 0.09148 0.0
C640 C 0.72066 0.53817 0.06171 0.0
C641 C 0.71986 0.55792 0.07292 0.0
C642 C 0.74229 0.53732 0.0617 0.0
C643 C 0.76353 0.55624 0.07282 0.0
C644 C 0.76282 0.57623 0.0835 0.0
C645 C 0.74124 0.57707 0.08354 0.0
C646 C 0.83037 0.57481 0.07424 0.0
C647 C 0.82935 0.55312 0.08222 0.0
C648 C 0.80899 0.57562 0.07038 0.0
C649 C 0.78613 0.55477 0.07444 0.0
C650 C 0.78509 0.53286 0.08154 0.0
C651 C 0.80649 0.53204 0.08538 0.0
H652 H 0.24255 0.84251 0.59665 0.0
H653 H 0.28188 0.8113 0.55993 0.0
H654 H 0.20566 0.80281 0.5965 0.0
H655 H 0.24472 0.77153 0.55949 0.0
H656 H 0.18275 0.7017 0.59841 0.0
H657 H 0.21939 0.74116 0.59226 0.0
H658 H 0.17524 0.77186 0.56784 0.0
H659 H 0.13854 0.73251 0.57433 0.0
C660 C 0.24327 0.82723 0.58827 0.0
C661 C 0.26519 0.83003 0.57843 0.0
C662 C 0.22206 0.8045 0.58804 0.0
C663 C 0.22231 0.78404 0.57802 0.0
C664 C 0.24407 0.78694 0.56759 0.0
C665 C 0.2653 0.80973 0.56773 0.0
C666 C 0.18085 0.71681 0.59153 0.0
C667 C 0.15773 0.71402 0.58707 0.0
C668 C 0.20187 0.73938 0.58785 0.0
C669 C 0.20018 0.75963 0.57967 0.0
C670 C 0.17709 0.75666 0.57447 0.0
C671 C 0.15608 0.73408 0.5781 0.0
H672 H 0.83854 0.58679 0.40543 0.0
H673 H 0.79453 0.51085 0.38476 0.0
H674 H 0.80176 0.58964 0.41031 0.0
H675 H 0.75782 0.51385 0.38934 0.0
H676 H 0.69541 0.52267 0.41986 0.0
H677 H 0.73266 0.52025 0.42129 0.0
H678 H 0.77111 0.58866 0.38048 0.0
H679 H 0.73408 0.59128 0.3793 0.0
C680 C 0.82103 0.57067 0.40207 0.0
C681 C 0.81945 0.54863 0.39454 0.0
C682 C 0.79999 0.57235 0.40476 0.0
C683 C 0.77694 0.552 0.40009 0.0
C684 C 0.77532 0.52978 0.39331 0.0
C685 C 0.79636 0.52812 0.39053 0.0
C686 C 0.71187 0.5373 0.41139 0.0
C687 C 0.71177 0.55711 0.39936 0.0
C688 C 0.73315 0.53584 0.41212 0.0
C689 C 0.75476 0.55423 0.40095 0.0
C690 C 0.7548 0.57434 0.38951 0.0
C691 C 0.73353 0.57576 0.38869 0.0
H692 H 0.14936 0.73449 0.88024 0.0
H693 H 0.1711 0.70151 0.93954 0.0
H694 H 0.18924 0.77093 0.88188 0.0
H695 H 0.21102 0.7384 0.9416 0.0
H696 H 0.28784 0.79574 0.91146 0.0
H697 H 0.24747 0.75975 0.91508 0.0
H698 H 0.21471 0.80521 0.90887 0.0
H699 H 0.25495 0.84106 0.90458 0.0
C700 C 0.16257 0.73511 0.89383 0.0
C701 C 0.15708 0.71507 0.90971 0.0
C702 C 0.18541 0.7561 0.8949 0.0
C703 C 0.20329 0.7576 0.91193 0.0
C704 C 0.19771 0.73769 0.92809 0.0
C705 C 0.17481 0.71662 0.92699 0.0
C706 C 0.27203 0.79806 0.91109 0.0
C707 C 0.27457 0.8212 0.90744 0.0
C708 C 0.2489 0.77745 0.91331 0.0
C709 C 0.22788 0.77961 0.91203 0.0
C710 C 0.23052 0.80289 0.90942 0.0
C711 C 0.2536 0.82345 0.90708 0.0
H712 H 0.4056 0.14822 0.3847 0.0
H713 H 0.47252 0.17697 0.42795 0.0
H714 H 0.4068 0.18701 0.38859 0.0
H715 H 0.47341 0.21577 0.43234 0.0
H716 H 0.48197 0.28871 0.40214 0.0
H717 H 0.48042 0.24956 0.40458 0.0
H718 H 0.4029 0.21376 0.41885 0.0
H719 H 0.40432 0.25282 0.41578 0.0
C720 C 0.42044 0.16274 0.3953 0.0
C721 C 0.43904 0.15955 0.40589 0.0
C722 C 0.42103 0.18495 0.3977 0.0
C723 C 0.4402 0.20449 0.4108 0.0
C724 C 0.45855 0.20115 0.42188 0.0
C725 C 0.45797 0.17889 0.41946 0.0
C726 C 0.46463 0.27252 0.40605 0.0
C727 C 0.44323 0.27384 0.40851 0.0
C728 C 0.46377 0.25009 0.4076 0.0
C729 C 0.4415 0.22853 0.41172 0.0
C730 C 0.42027 0.23 0.4152 0.0
C731 C 0.42111 0.2524 0.41357 0.0
H732 H 0.27462 0.47078 0.93939 0.0
H733 H 0.24287 0.39737 0.91014 0.0
H734 H 0.23463 0.46761 0.93866 0.0
H735 H 0.20286 0.39389 0.91022 0.0
H736 H 0.14532 0.40962 0.87803 0.0
H737 H 0.18373 0.41066 0.88435 0.0
H738 H 0.19378 0.44843 0.95628 0.0
H739 H 0.15539 0.44801 0.94954 0.0
C740 C 0.25903 0.45382 0.93326 0.0
C741 C 0.26192 0.43445 0.92449 0.0
C742 C 0.23609 0.45195 0.93295 0.0
C743 C 0.2156 0.4306 0.92407 0.0
C744 C 0.21837 0.4108 0.9166 0.0
C745 C 0.24128 0.41275 0.91668 0.0
C746 C 0.15562 0.41806 0.89527 0.0
C747 C 0.14732 0.42878 0.91326 0.0
C748 C 0.17759 0.41849 0.89901 0.0
C749 C 0.19177 0.42948 0.92092 0.0
C750 C 0.18338 0.44001 0.93909 0.0
C751 C 0.16136 0.43968 0.93528 0.0
H752 H 0.73722 0.1395 0.4053 0.0
H753 H 0.69889 0.17871 0.42001 0.0
H754 H 0.77584 0.17756 0.40643 0.0
H755 H 0.73757 0.217 0.4203 0.0
H756 H 0.81379 0.27992 0.4389 0.0
H757 H 0.77552 0.24137 0.44275 0.0
H758 H 0.79698 0.21234 0.37925 0.0
H759 H 0.83533 0.25039 0.37593 0.0
C760 C 0.73704 0.15627 0.40881 0.0
C761 C 0.715 0.15613 0.41239 0.0
C762 C 0.75918 0.17811 0.4093 0.0
C763 C 0.75979 0.20038 0.41313 0.0
C764 C 0.73777 0.20016 0.41752 0.0
C765 C 0.71559 0.17823 0.41724 0.0
C766 C 0.81033 0.26525 0.42584 0.0
C767 C 0.82761 0.26818 0.40716 0.0
C768 C 0.78836 0.24321 0.42797 0.0
C769 C 0.78322 0.22372 0.41139 0.0
C770 C 0.80053 0.22677 0.39268 0.0
C771 C 0.82249 0.24868 0.39066 0.0
H772 H 0.53932 0.71819 0.9647 0.0
H773 H 0.58234 0.74322 0.89526 0.0
H774 H 0.54424 0.75872 0.97071 0.0
H775 H 0.58664 0.78309 0.90083 0.0
H776 H 0.60504 0.8575 0.92199 0.0
H777 H 0.60496 0.81919 0.92624 0.0
H778 H 0.52959 0.78346 0.95037 0.0
H779 H 0.52998 0.82205 0.94699 0.0
C780 C 0.54993 0.73234 0.95083 0.0
C781 C 0.56033 0.72745 0.92944 0.0
C782 C 0.55265 0.7555 0.95421 0.0
C783 C 0.56586 0.77416 0.93628 0.0
C784 C 0.57673 0.76933 0.91529 0.0
C785 C 0.57407 0.74632 0.91196 0.0
C786 C 0.58857 0.84154 0.92859 0.0
C787 C 0.56741 0.84267 0.9338 0.0
C788 C 0.58848 0.81957 0.93092 0.0
C789 C 0.56714 0.79816 0.93819 0.0
C790 C 0.54638 0.79962 0.94487 0.0
C791 C 0.54656 0.82171 0.9428 0.0
H792 H 0.34466 0.96306 0.91763 0.0
H793 H 0.34061 0.92038 0.98417 0.0
H794 H 0.35715 -0.00141 0.94488 0.0
H795 H 0.35362 0.95604 0.01129 0.0
H796 H 0.36108 0.02003 0.05653 0.0
H797 H 0.34205 0.98455 0.02848 0.0
H798 H 0.39372 0.02576 0.96866 0.0
H799 H 0.41238 0.06133 -0.00358 0.0
C800 C 0.34633 0.96123 0.93809 0.0
C801 C 0.34184 0.93896 0.94873 0.0
C802 C 0.35358 0.98161 0.95367 0.0
C803 C 0.35653 0.98017 0.9802 0.0
C804 C 0.35125 0.95768 0.99095 0.0
C805 C 0.34395 0.93728 0.97538 0.0
C806 C 0.36821 0.02159 0.03729 0.0
C807 C 0.38835 0.04344 0.02874 0.0
C808 C 0.35738 0.00122 0.02129 0.0
C809 C 0.36647 0.0023 -0.00358 0.0
C810 C 0.3861 0.02441 0.98761 0.0
C811 C 0.3969 0.04477 0.00359 0.0
H812 H 0.41334 0.34161 0.49299 0.0
H813 H 0.3664 0.3398 0.43187 0.0
H814 H 0.39347 0.35593 0.52257 0.0
H815 H 0.34614 0.35361 0.46165 0.0
H816 H 0.34382 0.41227 0.51247 0.0
H817 H 0.35762 0.39176 0.48323 0.0
H818 H 0.35581 0.34539 0.54507 0.0
H819 H 0.34248 0.36632 0.57456 0.0
C820 C 0.39854 0.34392 0.48595 0.0
C821 C 0.39162 0.33982 0.46003 0.0
C822 C 0.38703 0.35198 0.50296 0.0
C823 C 0.36831 0.35604 0.49442 0.0
C824 C 0.36076 0.35102 0.46871 0.0
C825 C 0.3723 0.343 0.45169 0.0
C826 C 0.34615 0.39756 0.51981 0.0
C827 C 0.34227 0.39108 0.54588 0.0
C828 C 0.3539 0.38568 0.50299 0.0
C829 C 0.35789 0.367 0.51185 0.0
C830 C 0.35322 0.35995 0.53775 0.0
C831 C 0.34548 0.37186 0.5546 0.0
H832 H 0.05405 0.36963 0.97037 0.0
H833 H 0.00612 0.36515 0.90908 0.0
H834 H 0.02027 0.35452 0.00055 0.0
H835 H 0.97204 0.34908 0.93906 0.0
H836 H 0.95318 0.3182 0.04941 0.0
H837 H 0.98197 0.32268 0.01579 0.0
H838 H 0.96113 0.3675 0.97221 0.0
H839 H 0.93189 0.36229 0.00523 0.0
C840 C 0.03614 0.36479 0.96322 0.0
C841 C 0.03279 0.36896 0.93748 0.0
C842 C 0.01671 0.356 0.98051 0.0
C843 C 0.99349 0.35093 0.97231 0.0
C844 C 0.98982 0.35339 0.94613 0.0
C845 C 0.00931 0.36246 0.92892 0.0
C846 C 0.95458 0.32877 0.03248 0.0
C847 C 0.94042 0.34007 0.03004 0.0
C848 C 0.97113 0.3314 0.01327 0.0
C849 C 0.97396 0.34552 0.99133 0.0
C850 C 0.95918 0.35614 0.98861 0.0
C851 C 0.94252 0.35334 0.00768 0.0
H852 H 0.64269 0.06161 0.49114 0.0
H853 H 0.6496 0.01673 0.43307 0.0
H854 H 0.62734 0.02777 0.52131 0.0
H855 H 0.63476 0.98304 0.4635 0.0
H856 H 0.57347 0.92176 0.51188 0.0
H857 H 0.59543 0.95596 0.48276 0.0
H858 H 0.63703 0.00135 0.54637 0.0
H859 H 0.61463 0.9672 0.57569 0.0
C860 C 0.64131 0.04465 0.48493 0.0
C861 C 0.64709 0.04176 0.45963 0.0
C862 C 0.63265 0.02529 0.50229 0.0
C863 C 0.62967 0.00266 0.49473 0.0
C864 C 0.63647 0.00012 0.46975 0.0
C865 C 0.64507 0.01946 0.45237 0.0
C866 C 0.58744 0.93896 0.51965 0.0
C867 C 0.59215 0.94183 0.54612 0.0
C868 C 0.60017 0.95853 0.50292 0.0
C869 C 0.61793 0.9814 0.51227 0.0
C870 C 0.62321 0.98405 0.53864 0.0
C871 C 0.61045 0.96446 0.55541 0.0
H872 H 0.6646 0.59157 0.98988 0.0
H873 H 0.65479 0.63206 0.05093 0.0
H874 H 0.65315 0.61268 0.95849 0.0
H875 H 0.64309 0.65286 0.01959 0.0
H876 H 0.6371 0.69756 0.95556 0.0
H877 H 0.65727 0.68163 0.98291 0.0
H878 H 0.61399 0.6105 0.94882 0.0
H879 H 0.59409 0.62637 0.92138 0.0
C880 C 0.66024 0.60513 -0.00341 0.0
C881 C 0.66034 0.60995 0.02291 0.0
C882 C 0.65362 0.61714 0.97862 0.0
C883 C 0.64709 0.6343 0.98661 0.0
C884 C 0.64825 0.6399 0.01282 0.0
C885 C 0.65477 0.62783 0.03079 0.0
C886 C 0.63215 0.67861 0.95367 0.0
C887 C 0.61385 0.66317 0.93649 0.0
C888 C 0.64362 0.66949 0.9694 0.0
C889 C 0.63713 0.64481 0.96807 0.0
C890 C 0.61957 0.62966 0.95011 0.0
C891 C 0.60803 0.63872 0.93453 0.0
H892 H 0.05863 0.64177 0.50042 0.0
H893 H 0.01525 0.64547 0.56246 0.0
H894 H 0.024 0.62786 0.47159 0.0
H895 H 0.98077 0.63208 0.53343 0.0
H896 H 0.91808 0.57462 0.48347 0.0
H897 H 0.95291 0.59414 0.51215 0.0
H898 H -0.00249 0.63962 0.44979 0.0
H899 H 0.96275 0.61969 0.42089 0.0
C900 C 0.04181 0.63993 0.50782 0.0
C901 C 0.03962 0.6445 0.53377 0.0
C902 C 0.022 0.63211 0.49125 0.0
C903 C -0.0004 0.62876 0.50026 0.0
C904 C -0.00233 0.63413 0.52602 0.0
C905 C 0.01747 0.64191 0.5426 0.0
C906 C 0.93524 0.58894 0.47591 0.0
C907 C 0.9377 0.59547 0.44987 0.0
C908 C 0.95519 0.60024 0.4924 0.0
C909 C 0.978 0.61836 0.48321 0.0
C910 C 0.98025 0.62546 0.45735 0.0
C911 C 0.96031 0.61413 0.44084 0.0
H912 H 0.6169 0.98345 0.93094 0.0
H913 H 0.64413 0.94674 0.97911 0.0
H914 H 0.63336 0.01763 0.96053 0.0
H915 H 0.66093 0.98126 0.00864 0.0
H916 H 0.64947 0.02847 0.07003 0.0
H917 H 0.64178 -0.00305 0.03873 0.0
H918 H 0.67105 0.05127 0.9787 0.0
H919 H 0.67847 0.08288 0.00997 0.0
C920 C 0.6267 0.98282 0.94767 0.0
C921 C 0.62898 0.96227 0.95284 0.0
C922 C 0.63631 0.00251 0.96452 0.0
C923 C 0.64835 0.00207 0.98695 0.0
C924 C 0.6515 0.98196 0.99162 0.0
C925 C 0.64198 0.96226 0.97466 0.0
C926 C 0.65449 0.03375 0.05021 0.0
C927 C 0.6643 0.05813 0.04242 0.0
C928 C 0.65027 0.0157 0.03231 0.0
C929 C 0.65573 0.02164 0.00626 0.0
C930 C 0.66641 0.04615 -0.00138 0.0
C931 C 0.67071 0.06423 0.01654 0.0
H932 H 0.6501 0.58748 0.47685 0.0
H933 H 0.64839 0.63331 0.41634 0.0
H934 H 0.63674 0.60728 0.50752 0.0
H935 H 0.63559 0.65361 0.44726 0.0
H936 H 0.62611 0.65646 0.56114 0.0
H937 H 0.64706 0.64449 0.53016 0.0
H938 H 0.59826 0.64168 0.47066 0.0
H939 H 0.57776 0.65422 0.50138 0.0
C940 C 0.64727 0.60207 0.47017 0.0
C941 C 0.65001 0.60863 0.44411 0.0
C942 C 0.63977 0.61356 0.48781 0.0
C943 C 0.63496 0.63193 0.47979 0.0
C944 C 0.63878 0.63925 0.45393 0.0
C945 C 0.64621 0.6277 0.43626 0.0
C946 C 0.62004 0.65355 0.54138 0.0
C947 C 0.60014 0.65606 0.53375 0.0
C948 C 0.63199 0.64661 0.52366 0.0
C949 C 0.62423 0.64199 0.49799 0.0
C950 C 0.60489 0.64538 0.49021 0.0
C951 C 0.59301 0.65239 0.50788 0.0
H952 H 0.92709 0.6278 0.01012 0.0
H953 H 0.97594 0.6212 0.06312 0.0
H954 H 0.96039 0.64796 0.97924 0.0
H955 H 0.00901 0.64108 0.03223 0.0
H956 H 0.06818 0.69063 0.97782 0.0
H957 H 0.03553 0.67975 0.00901 0.0
H958 H 0.98274 0.63261 0.95309 0.0
H959 H 0.01522 0.64359 0.92188 0.0
C960 C 0.94497 0.6309 0.01531 0.0
C961 C 0.94883 0.62268 0.03894 0.0
C962 C 0.96399 0.64236 -0.0024 0.0
C963 C 0.98724 0.64598 0.0033 0.0
C964 C 0.99135 0.63877 0.0274 0.0
C965 C 0.97233 0.6272 0.04501 0.0
C966 C 0.04957 0.67823 0.97207 0.0
C967 C 0.0443 0.66774 0.94749 0.0
C968 C 0.03091 0.67195 0.98995 0.0
C969 C 0.00664 0.65523 0.98352 0.0
C970 C 0.00125 0.64571 0.95854 0.0
C971 C 0.0199 0.65186 0.94072 0.0
H972 H 0.33071 0.97025 0.56019 0.0
H973 H 0.3357 0.92501 0.5012 0.0
H974 H 0.34549 0.00407 0.52988 0.0
H975 H 0.35097 0.95891 0.47116 0.0
H976 H 0.36346 0.01946 0.41716 0.0
H977 H 0.34122 0.98556 0.44679 0.0
H978 H 0.38449 0.03085 0.50968 0.0
H979 H 0.40631 0.06484 0.48025 0.0
C980 C 0.33479 0.96746 0.54072 0.0
C981 C 0.33224 0.94501 0.53315 0.0
C982 C 0.34337 0.98687 0.5234 0.0
C983 C 0.34958 0.98423 0.49817 0.0
C984 C 0.34611 0.96148 0.49036 0.0
C985 C 0.3375 0.94208 0.50765 0.0
C986 C 0.36805 0.02225 0.43736 0.0
C987 C 0.38679 0.04478 0.44634 0.0
C988 C 0.35537 0.0028 0.4543 0.0
C989 C 0.36118 0.00547 0.48055 0.0
C990 C 0.37935 0.02826 0.48963 0.0
C991 C 0.392 0.04771 0.47271 0.0
H992 H 0.36764 0.34048 0.07092 0.0
H993 H 0.41701 0.35264 0.00801 0.0
H994 H 0.34432 0.35267 0.04355 0.0
H995 H 0.39407 0.36529 0.98093 0.0
H996 H 0.33428 0.41008 -0.00218 0.0
H997 H 0.35112 0.39078 0.02486 0.0
H998 H 0.35548 0.35148 0.95925 0.0
H999 H 0.33914 0.37121 0.93202 0.0
C1000 C 0.37344 0.34563 0.05123 0.0
C1001 C 0.39427 0.34576 0.04167 0.0
C1002 C 0.36014 0.3527 0.0356 0.0
C1003 C 0.3674 0.36003 0.01012 0.0
C1004 C 0.3878 0.35944 0.00037 0.0
C1005 C 0.40106 0.35235 0.01597 0.0
C1006 C 0.33858 0.39713 0.9892 0.0
C1007 C 0.33565 0.39239 0.96273 0.0
C1008 C 0.34809 0.38594 0.00474 0.0
C1009 C 0.3548 0.36973 0.99415 0.0
C1010 C 0.35086 0.36419 0.96788 0.0
C1011 C 0.3414 0.37542 0.95232 0.0
H1012 H 0.0238 0.35695 0.557 0.0
H1013 H 0.06443 0.40354 0.49344 0.0
H1014 H 0.98891 0.33403 0.52897 0.0
H1015 H 0.02935 0.38106 0.4656 0.0
H1016 H 0.96684 0.32948 0.41682 0.0
H1017 H 0.00232 0.34292 0.44444 0.0
H1018 H 0.95994 0.34317 0.50937 0.0
H1019 H 0.92444 0.32919 0.48201 0.0
C1020 C 0.02534 0.36219 0.537 0.0
C1021 C 0.04676 0.38224 0.52748 0.0
C1022 C 0.00532 0.34911 0.52097 0.0
C1023 C 0.00626 0.35587 0.49514 0.0
C1024 C 0.02809 0.37521 0.48535 0.0
C1025 C 0.04817 0.38822 0.50135 0.0
C1026 C 0.96501 0.33204 0.43708 0.0
C1027 C 0.94291 0.32855 0.44719 0.0
C1028 C 0.98537 0.33985 0.45286 0.0
C1029 C 0.98402 0.34435 0.47903 0.0
C1030 C 0.96156 0.33964 0.48935 0.0
C1031 C 0.94121 0.33177 0.47361 0.0
H1032 H 0.50602 0.14106 0.1352 0.0
H1033 H 0.47922 0.07933 0.08405 0.0
H1034 H 0.5453 0.14276 0.13726 0.0
H1035 H 0.51812 0.08055 0.08673 0.0
H1036 H 0.59727 0.10173 0.07835 0.0
H1037 H 0.56001 0.10373 0.07424 0.0
H1038 H 0.56292 0.12015 0.15507 0.0
H1039 H 0.60057 0.11889 0.15899 0.0
C1040 C 0.50849 0.12783 0.12444 0.0
C1041 C 0.48949 0.11004 0.1095 0.0
C1042 C 0.53096 0.12872 0.12573 0.0
C1043 C 0.53487 0.11176 0.11221 0.0
C1044 C 0.5159 0.09413 0.09708 0.0
C1045 C 0.49351 0.09333 0.09567 0.0
C1046 C 0.59001 0.10589 0.09521 0.0
C1047 C 0.60182 0.11006 0.11902 0.0
C1048 C 0.56858 0.10691 0.09289 0.0
C1049 C 0.55838 0.11198 0.11435 0.0
C1050 C 0.57043 0.11652 0.13807 0.0
C1051 C 0.59195 0.11565 0.14036 0.0
H1052 H 0.47812 0.62362 0.64201 0.0
H1053 H 0.50732 0.59126 0.5903 0.0
H1054 H 0.43963 0.58524 0.64368 0.0
H1055 H 0.46922 0.55273 0.59263 0.0
H1056 H 0.39105 0.4928 0.58369 0.0
H1057 H 0.42751 0.53272 0.58006 0.0
H1058 H 0.42296 0.54503 0.66094 0.0
H1059 H 0.38603 0.50544 0.66435 0.0
C1060 C 0.47634 0.6083 0.63105 0.0
C1061 C 0.49578 0.61047 0.61606 0.0
C1062 C 0.45432 0.58625 0.63212 0.0
C1063 C 0.45131 0.56584 0.61835 0.0
C1064 C 0.47073 0.56815 0.60317 0.0
C1065 C 0.49266 0.59023 0.60195 0.0
C1066 C 0.39778 0.50408 0.60067 0.0
C1067 C 0.38571 0.49593 0.62433 0.0
C1068 C 0.41877 0.52693 0.59862 0.0
C1069 C 0.42828 0.54207 0.62023 0.0
C1070 C 0.41597 0.53401 0.64382 0.0
C1071 C 0.39487 0.51123 0.64582 0.0
H1072 H 0.91858 0.40679 0.08605 0.0
H1073 H 0.85686 0.37639 0.13769 0.0
H1074 H 0.91941 0.44563 0.08661 0.0
H1075 H 0.85732 0.4151 0.13773 0.0
H1076 H 0.8847 0.49549 0.15586 0.0
H1077 H 0.88228 0.45595 0.15405 0.0
H1078 H 0.8971 0.46527 0.07262 0.0
H1079 H 0.90012 0.50514 0.07453 0.0
C1080 C 0.90505 0.40832 0.09735 0.0
C1081 C 0.88772 0.38853 0.11193 0.0
C1082 C 0.90544 0.43056 0.09754 0.0
C1083 C 0.88847 0.4335 0.11226 0.0
C1084 C 0.87089 0.41356 0.1265 0.0
C1085 C 0.87054 0.39133 0.12636 0.0
C1086 C 0.88741 0.48911 0.13755 0.0
C1087 C 0.89269 0.50351 0.11536 0.0
C1088 C 0.88586 0.46635 0.13649 0.0
C1089 C 0.88948 0.45743 0.11319 0.0
C1090 C 0.89454 0.47175 0.09094 0.0
C1091 C 0.89615 0.49455 0.09201 0.0
H1092 H 0.35723 0.85022 0.63918 0.0
H1093 H 0.39222 0.91235 0.58834 0.0
H1094 H 0.39465 0.8482 0.64077 0.0
H1095 H 0.42978 0.91084 0.59058 0.0
H1096 H 0.48797 0.89013 0.58204 0.0
H1097 H 0.44862 0.88793 0.57794 0.0
H1098 H 0.43474 0.87043 0.65861 0.0
H1099 H 0.47373 0.87185 0.66249 0.0
C1100 C 0.37291 0.86345 0.62836 0.0
C1101 C 0.37178 0.88148 0.61369 0.0
C1102 C 0.3944 0.86239 0.62939 0.0
C1103 C 0.41528 0.87941 0.61589 0.0
C1104 C 0.41397 0.89721 0.60092 0.0
C1105 C 0.39246 0.89817 0.59976 0.0
C1106 C 0.47645 0.88567 0.59887 0.0
C1107 C 0.48401 0.88126 0.62262 0.0
C1108 C 0.45394 0.88454 0.59655 0.0
C1109 C 0.43855 0.87915 0.61797 0.0
C1110 C 0.44597 0.87431 0.64163 0.0
C1111 C 0.4684 0.87527 0.6439 0.0
H1112 H 0.59969 0.50637 0.06876 0.0
H1113 H 0.61761 0.49232 0.1445 0.0
H1114 H 0.56375 0.46586 0.06818 0.0
H1115 H 0.58131 0.45206 0.14421 0.0
H1116 H 0.52514 0.37317 0.12681 0.0
H1117 H 0.563 0.41224 0.12469 0.0
H1118 H 0.52456 0.44464 0.08858 0.0
H1119 H 0.48701 0.40559 0.09006 0.0
C1120 C 0.59594 0.49465 0.08531 0.0
C1121 C 0.61145 0.50261 0.10673 0.0
C1122 C 0.57527 0.47146 0.08502 0.0
C1123 C 0.56955 0.45573 0.1062 0.0
C1124 C 0.58531 0.46357 0.12744 0.0
C1125 C 0.60605 0.48673 0.12768 0.0
C1126 C 0.52482 0.38862 0.1183 0.0
C1127 C 0.50305 0.38627 0.10865 0.0
C1128 C 0.54649 0.41104 0.1172 0.0
C1129 C 0.54683 0.4316 0.10649 0.0
C1130 C 0.52507 0.42912 0.0966 0.0
C1131 C 0.50347 0.40673 0.09761 0.0
H1132 H 0.12727 0.50442 0.6412 0.0
H1133 H 0.07795 0.48036 0.57666 0.0
H1134 H 0.12617 0.54229 0.64259 0.0
H1135 H 0.0763 0.51792 0.57851 0.0
H1136 H 0.09477 0.59246 0.65699 0.0
H1137 H 0.09828 0.55601 0.65407 0.0
H1138 H 0.09981 0.56118 0.57132 0.0
H1139 H 0.0956 0.59731 0.57424 0.0
C1140 C 0.11617 0.5072 0.62732 0.0
C1141 C 0.10264 0.48935 0.60887 0.0
C1142 C 0.11543 0.52886 0.62821 0.0
C1143 C 0.10105 0.53312 0.61075 0.0
C1144 C 0.08781 0.51539 0.59204 0.0
C1145 C 0.08865 0.49378 0.59107 0.0
C1146 C 0.09591 0.58587 0.63817 0.0
C1147 C 0.09482 0.59775 0.61585 0.0
C1148 C 0.09809 0.56504 0.63649 0.0
C1149 C 0.09936 0.55566 0.61245 0.0
C1150 C 0.09854 0.56771 0.59013 0.0
C1151 C 0.09625 0.5885 0.59181 0.0
H1152 H 0.86097 0.48395 0.38772 0.0
H1153 H 0.93868 0.51261 0.39324 0.0
H1154 H 0.85441 0.44257 0.38727 0.0
H1155 H 0.9321 0.47131 0.39245 0.0
H1156 H 0.9108 0.39383 0.41347 0.0
H1157 H 0.91462 0.43384 0.41834 0.0
H1158 H 0.86241 0.41707 0.35745 0.0
H1159 H 0.85831 0.37688 0.35275 0.0
C1160 C 0.87664 0.48143 0.38894 0.0
C1161 C 0.90036 0.50157 0.39044 0.0
C1162 C 0.87287 0.45774 0.38854 0.0
C1163 C 0.89273 0.45369 0.38978 0.0
C1164 C 0.9164 0.47382 0.39177 0.0
C1165 C 0.92018 0.4975 0.39206 0.0
C1166 C 0.89997 0.39857 0.40125 0.0
C1167 C 0.88436 0.38222 0.38259 0.0
C1168 C 0.90227 0.42155 0.40396 0.0
C1169 C 0.88895 0.42866 0.38816 0.0
C1170 C 0.87277 0.41204 0.37006 0.0
C1171 C 0.87051 0.38906 0.36728 0.0
H1172 H 0.48854 0.84935 0.8642 0.0
H1173 H 0.5138 0.91418 0.91039 0.0
H1174 H 0.44815 0.8452 0.86212 0.0
H1175 H 0.47375 0.91039 0.90774 0.0
H1176 H 0.39434 0.88684 0.91663 0.0
H1177 H 0.43216 0.88606 0.92167 0.0
H1178 H 0.42881 0.86561 0.84206 0.0
H1179 H 0.39064 0.86575 0.8372 0.0
C1180 C 0.48548 0.86269 0.87394 0.0
C1181 C 0.5044 0.88213 0.88739 0.0
C1182 C 0.46237 0.86038 0.87262 0.0
C1183 C 0.45772 0.87749 0.88471 0.0
C1184 C 0.47657 0.89668 0.89853 0.0
C1185 C 0.49961 0.89894 0.8999 0.0
C1186 C 0.40158 0.882 0.90025 0.0
C1187 C 0.38957 0.87652 0.87646 0.0
C1188 C 0.42333 0.88167 0.9031 0.0
C1189 C 0.43363 0.87596 0.88222 0.0
C1190 C 0.42125 0.86983 0.85861 0.0
C1191 C 0.39943 0.87006 0.85578 0.0
H1192 H 0.49969 0.38538 0.33405 0.0
H1193 H 0.49294 0.3939 0.4154 0.0
H1194 H 0.53814 0.42366 0.33333 0.0
H1195 H 0.53184 0.43192 0.41482 0.0
H1196 H 0.58556 0.51236 0.39668 0.0
H1197 H 0.54845 0.4729 0.39911 0.0
H1198 H 0.57982 0.44286 0.34714 0.0
H1199 H 0.61672 0.48257 0.34413 0.0
C1200 C 0.50655 0.3953 0.35185 0.0
C1201 C 0.49321 0.38666 0.37476 0.0
C1202 C 0.52869 0.41719 0.35147 0.0
C1203 C 0.53809 0.43089 0.37402 0.0
C1204 C 0.52494 0.422 0.39704 0.0
C1205 C 0.50271 0.40015 0.3974 0.0
C1206 C 0.58459 0.49732 0.38584 0.0
C1207 C 0.60403 0.50063 0.37009 0.0
C1208 C 0.56335 0.47464 0.38737 0.0
C1209 C 0.56113 0.45471 0.37329 0.0
C1210 C 0.58079 0.45793 0.35792 0.0
C1211 C 0.60199 0.48066 0.35629 0.0
H1212 H 0.06817 0.47903 0.8942 0.0
H1213 H 0.14209 0.51443 0.86552 0.0
H1214 H 0.0696 0.51809 0.89538 0.0
H1215 H 0.14377 0.55371 0.8674 0.0
H1216 H 0.12514 0.61239 0.84271 0.0
H1217 H 0.12661 0.57477 0.84482 0.0
H1218 H 0.0875 0.55672 0.91686 0.0
H1219 H 0.08543 0.59406 0.91436 0.0
C1220 C 0.08484 0.4952 0.88843 0.0
C1221 C 0.10497 0.4936 0.87961 0.0
C1222 C 0.08572 0.51765 0.88927 0.0
C1223 C 0.10679 0.53905 0.88145 0.0
C1224 C 0.12713 0.53752 0.87319 0.0
C1225 C 0.12621 0.51502 0.87224 0.0
C1226 C 0.11698 0.60047 0.85908 0.0
C1227 C 0.10501 0.60613 0.87827 0.0
C1228 C 0.11796 0.57896 0.86038 0.0
C1229 C 0.10711 0.56267 0.88097 0.0
C1230 C 0.0957 0.56867 0.90052 0.0
C1231 C 0.09461 0.59013 0.89915 0.0
H1232 H 0.58693 0.07322 0.40323 0.0
H1233 H 0.62036 0.13304 0.34937 0.0
H1234 H 0.54918 0.07437 0.40103 0.0
H1235 H 0.58279 0.13476 0.34782 0.0
H1236 H 0.50339 0.1107 0.32794 0.0
H1237 H 0.54234 0.11199 0.33137 0.0
H1238 H 0.53042 0.09749 0.41274 0.0
H1239 H 0.49108 0.09538 0.40909 0.0
C1240 C 0.58631 0.08682 0.39113 0.0
C1241 C 0.60661 0.10297 0.37638 0.0
C1242 C 0.56468 0.08758 0.38999 0.0
C1243 C 0.5629 0.10466 0.37423 0.0
C1244 C 0.58339 0.12112 0.35984 0.0
C1245 C 0.60498 0.12023 0.36084 0.0
C1246 C 0.50913 0.10788 0.34658 0.0
C1247 C 0.49409 0.10279 0.36821 0.0
C1248 C 0.53155 0.10877 0.34859 0.0
C1249 C 0.53953 0.10479 0.37233 0.0
C1250 C 0.52467 0.10022 0.39407 0.0
C1251 C 0.50216 0.09913 0.39201 0.0
H1252 H 0.48822 0.6084 0.92674 0.0
H1253 H 0.46946 0.61748 0.84943 0.0
H1254 H 0.44854 0.5718 0.93161 0.0
H1255 H 0.43018 0.58044 0.85392 0.0
H1256 H 0.3546 0.52048 0.87348 0.0
H1257 H 0.3911 0.56067 0.87392 0.0
H1258 H 0.42928 0.53117 0.9161 0.0
H1259 H 0.39266 0.49137 0.91644 0.0
C1260 C 0.47558 0.60262 0.91081 0.0
C1261 C 0.48204 0.61572 0.88763 0.0
C1262 C 0.45288 0.58156 0.91355 0.0
C1263 C 0.43622 0.57299 0.89308 0.0
C1264 C 0.4424 0.58662 0.87021 0.0
C1265 C 0.46501 0.60781 0.86756 0.0
C1266 C 0.37073 0.52267 0.88307 0.0
C1267 C 0.37078 0.50272 0.89479 0.0
C1268 C 0.3917 0.54568 0.88321 0.0
C1269 C 0.41321 0.54918 0.89491 0.0
C1270 C 0.41298 0.5293 0.90723 0.0
C1271 C 0.39199 0.50638 0.90727 0.0
loop_
_geom_bond_atom_site_label_1
_geom_bond_atom_site_label_2
_geom_bond_distance
_geom_bond_site_symmetry_2
_ccdc_geom_bond_type
C0 O1 1.160 . S
C0 O7 1.185 . S
O1 C0 1.160 . S
O2 Zn3 1.899 . S
O2 C10 1.284 . S
Zn3 O2 1.899 . S
Zn3 O4 2.032 . S
Zn3 O7 2.086 . S
Zn3 O12 1.977 . S
O4 Zn3 2.032 . S
O4 C8 1.278 . S
C5 O6 1.203 . S
C5 O12 1.267 . S
O6 C5 1.203 . S
O7 C0 1.185 . S
O7 Zn3 2.086 . S
C8 O4 1.278 . S
C8 O9 1.211 . S
O9 C8 1.211 . S
C10 O2 1.284 . S
C10 O11 1.273 . S
O11 C10 1.273 . S
O12 Zn3 1.977 . S
O12 C5 1.267 . S
C13 O14 1.160 . S
C13 O20 1.185 . S
O14 C13 1.160 . S
O15 Zn16 1.899 . S
O15 C23 1.284 . S
Zn16 O15 1.899 . S
Zn16 O17 2.032 . S
Zn16 O20 2.086 . S
Zn16 O25 1.977 . S
O17 Zn16 2.032 . S
O17 C21 1.278 . S
C18 O19 1.203 . S
C18 O25 1.267 . S
O19 C18 1.203 . S
O20 C13 1.185 . S
O20 Zn16 2.086 . S
C21 O17 1.278 . S
C21 O22 1.211 . S
O22 C21 1.211 . S
C23 O15 1.284 . S
C23 O24 1.273 . S
O24 C23 1.273 . S
O25 Zn16 1.977 . S
O25 C18 1.267 . S
C26 O27 1.160 . S
C26 O33 1.185 . S
O27 C26 1.160 . S
O28 Zn29 1.899 . S
O28 C36 1.284 . S
Zn29 O28 1.899 . S
Zn29 O30 2.032 . S
Zn29 O33 2.086 . S
Zn29 O38 1.977 . S
O30 Zn29 2.032 . S
O30 C34 1.278 . S
C31 O32 1.203 . S
C31 O38 1.267 . S
O32 C31 1.203 . S
O33 C26 1.185 . S
O33 Zn29 2.086 . S
C34 O30 1.278 . S
C34 O35 1.211 . S
O35 C34 1.211 . S
C36 O28 1.284 . S
C36 O37 1.273 . S
O37 C36 1.273 . S
O38 Zn29 1.977 . S
O38 C31 1.267 . S
C39 O40 1.160 . S
C39 O46 1.185 . S
O40 C39 1.160 . S
O41 Zn42 1.899 . S
O41 C49 1.284 . S
Zn42 O41 1.899 . S
Zn42 O43 2.032 . S
Zn42 O46 2.086 . S
Zn42 O51 1.977 . S
O43 Zn42 2.032 . S
O43 C47 1.278 . S
C44 O45 1.203 . S
C44 O51 1.267 . S
O45 C44 1.203 . S
O46 C39 1.185 . S
O46 Zn42 2.086 . S
C47 O43 1.278 . S
C47 O48 1.211 . S
O48 C47 1.211 . S
C49 O41 1.284 . S
C49 O50 1.273 . S
O50 C49 1.273 . S
O51 Zn42 1.977 . S
O51 C44 1.267 . S
C52 O53 1.160 . S
C52 O59 1.185 . S
O53 C52 1.160 . S
O54 Zn55 1.899 . S
O54 C62 1.284 . S
Zn55 O54 1.899 . S
Zn55 O56 2.032 . S
Zn55 O59 2.086 . S
Zn55 O64 1.977 . S
O56 Zn55 2.032 . S
O56 C60 1.278 . S
C57 O58 1.203 . S
C57 O64 1.267 . S
O58 C57 1.203 . S
O59 C52 1.185 . S
O59 Zn55 2.086 . S
C60 O56 1.278 . S
C60 O61 1.211 . S
O61 C60 1.211 . S
C62 O54 1.284 . S
C62 O63 1.273 . S
O63 C62 1.273 . S
O64 Zn55 1.977 . S
O64 C57 1.267 . S
C65 O66 1.160 . S
C65 O72 1.185 . S
O66 C65 1.160 . S
O67 Zn68 1.899 . S
O67 C75 1.284 . S
Zn68 O67 1.899 . S
Zn68 O69 2.032 . S
Zn68 O72 2.086 . S
Zn68 O77 1.977 . S
O69 Zn68 2.032 . S
O69 C73 1.278 . S
C70 O71 1.203 . S
C70 O77 1.267 . S
O71 C70 1.203 . S
O72 C65 1.185 . S
O72 Zn68 2.086 . S
C73 O69 1.278 . S
C73 O74 1.211 . S
O74 C73 1.211 . S
C75 O67 1.284 . S
C75 O76 1.273 . S
O76 C75 1.273 . S
O77 Zn68 1.977 . S
O77 C70 1.267 . S
C78 O79 1.160 . S
C78 O85 1.185 . S
O79 C78 1.160 . S
O80 Zn81 1.899 . S
O80 C88 1.284 . S
Zn81 O80 1.899 . S
Zn81 O82 2.032 . S
Zn81 O85 2.086 . S
Zn81 O90 1.977 . S
O82 Zn81 2.032 . S
O82 C86 1.278 . S
C83 O84 1.203 . S
C83 O90 1.267 . S
O84 C83 1.203 . S
O85 C78 1.185 . S
O85 Zn81 2.086 . S
C86 O82 1.278 . S
C86 O87 1.211 . S
O87 C86 1.211 . S
C88 O80 1.284 . S
C88 O89 1.273 . S
O89 C88 1.273 . S
O90 Zn81 1.977 . S
O90 C83 1.267 . S
C91 O92 1.160 . S
C91 O98 1.185 . S
O92 C91 1.160 . S
O93 Zn94 1.899 . S
O93 C101 1.284 . S
Zn94 O93 1.899 . S
Zn94 O95 2.032 . S
Zn94 O98 2.086 . S
Zn94 O103 1.977 . S
O95 Zn94 2.032 . S
O95 C99 1.278 . S
C96 O97 1.203 . S
C96 O103 1.267 . S
O97 C96 1.203 . S
O98 C91 1.185 . S
O98 Zn94 2.086 . S
C99 O95 1.278 . S
C99 O100 1.211 . S
O100 C99 1.211 . S
C101 O93 1.284 . S
C101 O102 1.273 . S
O102 C101 1.273 . S
O103 Zn94 1.977 . S
O103 C96 1.267 . S
C104 O105 1.160 . S
C104 O111 1.185 . S
O105 C104 1.160 . S
O106 Zn107 1.899 . S
O106 C114 1.284 . S
Zn107 O106 1.899 . S
Zn107 O108 2.032 . S
Zn107 O111 2.086 . S
Zn107 O116 1.977 . S
O108 Zn107 2.032 . S
O108 C112 1.278 . S
C109 O110 1.203 . S
C109 O116 1.267 . S
O110 C109 1.203 . S
O111 C104 1.185 . S
O111 Zn107 2.086 . S
C112 O108 1.278 . S
C112 O113 1.211 . S
O113 C112 1.211 . S
C114 O106 1.284 . S
C114 O115 1.273 . S
O115 C114 1.273 . S
O116 Zn107 1.977 . S
O116 C109 1.267 . S
C117 O118 1.160 . S
C117 O124 1.185 . S
O118 C117 1.160 . S
O119 Zn120 1.899 . S
O119 C127 1.284 . S
Zn120 O119 1.899 . S
Zn120 O121 2.032 . S
Zn120 O124 2.086 . S
Zn120 O129 1.977 . S
O121 Zn120 2.032 . S
O121 C125 1.278 . S
C122 O123 1.203 . S
C122 O129 1.267 . S
O123 C122 1.203 . S
O124 C117 1.185 . S
O124 Zn120 2.086 . S
C125 O121 1.278 . S
C125 O126 1.211 . S
O126 C125 1.211 . S
C127 O119 1.284 . S
C127 O128 1.273 . S
O128 C127 1.273 . S
O129 Zn120 1.977 . S
O129 C122 1.267 . S
C130 O131 1.160 . S
C130 O137 1.185 . S
O131 C130 1.160 . S
O132 Zn133 1.899 . S
O132 C140 1.284 . S
Zn133 O132 1.899 . S
Zn133 O134 2.032 . S
Zn133 O137 2.086 . S
Zn133 O142 1.977 . S
O134 Zn133 2.032 . S
O134 C138 1.278 . S
C135 O136 1.203 . S
C135 O142 1.267 . S
O136 C135 1.203 . S
O137 C130 1.185 . S
O137 Zn133 2.086 . S
C138 O134 1.278 . S
C138 O139 1.211 . S
O139 C138 1.211 . S
C140 O132 1.284 . S
C140 O141 1.273 . S
O141 C140 1.273 . S
O142 Zn133 1.977 . S
O142 C135 1.267 . S
C143 O144 1.160 . S
C143 O150 1.185 . S
O144 C143 1.160 . S
O145 Zn146 1.899 . S
O145 C153 1.284 . S
Zn146 O145 1.899 . S
Zn146 O147 2.032 . S
Zn146 O150 2.086 . S
Zn146 O155 1.977 . S
O147 Zn146 2.032 . S
O147 C151 1.278 . S
C148 O149 1.203 . S
C148 O155 1.267 . S
O149 C148 1.203 . S
O150 C143 1.185 . S
O150 Zn146 2.086 . S
C151 O147 1.278 . S
C151 O152 1.211 . S
O152 C151 1.211 . S
C153 O145 1.284 . S
C153 O154 1.273 . S
O154 C153 1.273 . S
O155 Zn146 1.977 . S
O155 C148 1.267 . S
C156 O157 1.160 . S
C156 O163 1.185 . S
O157 C156 1.160 . S
O158 Zn159 1.899 . S
O158 C166 1.284 . S
Zn159 O158 1.899 . S
Zn159 O160 2.032 . S
Zn159 O163 2.086 . S
Zn159 O168 1.977 . S
O160 Zn159 2.032 . S
O160 C164 1.278 . S
C161 O162 1.203 . S
C161 O168 1.267 . S
O162 C161 1.203 . S
O163 C156 1.185 . S
O163 Zn159 2.086 . S
C164 O160 1.278 . S
C164 O165 1.211 . S
O165 C164 1.211 . S
C166 O158 1.284 . S
C166 O167 1.273 . S
O167 C166 1.273 . S
O168 Zn159 1.977 . S
O168 C161 1.267 . S
C169 O170 1.160 . S
C169 O176 1.185 . S
O170 C169 1.160 . S
O171 Zn172 1.899 . S
O171 C179 1.284 . S
Zn172 O171 1.899 . S
Zn172 O173 2.032 . S
Zn172 O176 2.086 . S
Zn172 O181 1.977 . S
O173 Zn172 2.032 . S
O173 C177 1.278 . S
C174 O175 1.203 . S
C174 O181 1.267 . S
O175 C174 1.203 . S
O176 C169 1.185 . S
O176 Zn172 2.086 . S
C177 O173 1.278 . S
C177 O178 1.211 . S
O178 C177 1.211 . S
C179 O171 1.284 . S
C179 O180 1.273 . S
O180 C179 1.273 . S
O181 Zn172 1.977 . S
O181 C174 1.267 . S
C182 O183 1.160 . S
C182 O189 1.185 . S
O183 C182 1.160 . S
O184 Zn185 1.899 . S
O184 C192 1.284 . S
Zn185 O184 1.899 . S
Zn185 O186 2.032 . S
Zn185 O189 2.086 . S
Zn185 O194 1.977 . S
O186 Zn185 2.032 . S
O186 C190 1.278 . S
C187 O188 1.203 . S
C187 O194 1.267 . S
O188 C187 1.203 . S
O189 C182 1.185 . S
O189 Zn185 2.086 . S
C190 O186 1.278 . S
C190 O191 1.211 . S
O191 C190 1.211 . S
C192 O184 1.284 . S
C192 O193 1.273 . S
O193 C192 1.273 . S
O194 Zn185 1.977 . S
O194 C187 1.267 . S
C195 O196 1.160 . S
C195 O202 1.185 . S
O196 C195 1.160 . S
O197 Zn198 1.899 . S
O197 C205 1.284 . S
Zn198 O197 1.899 . S
Zn198 O199 2.032 . S
Zn198 O202 2.086 . S
Zn198 O207 1.977 . S
O199 Zn198 2.032 . S
O199 C203 1.278 . S
C200 O201 1.203 . S
C200 O207 1.267 . S
O201 C200 1.203 . S
O202 C195 1.185 . S
O202 Zn198 2.086 . S
C203 O199 1.278 . S
C203 O204 1.211 . S
O204 C203 1.211 . S
C205 O197 1.284 . S
C205 O206 1.273 . S
O206 C205 1.273 . S
O207 Zn198 1.977 . S
O207 C200 1.267 . S
C208 O209 1.160 . S
C208 O215 1.185 . S
O209 C208 1.160 . S
O210 Zn211 1.899 . S
O210 C218 1.284 . S
Zn211 O210 1.899 . S
Zn211 O212 2.032 . S
Zn211 O215 2.086 . S
Zn211 O220 1.977 . S
O212 Zn211 2.032 . S
O212 C216 1.278 . S
C213 O214 1.203 . S
C213 O220 1.267 . S
O214 C213 1.203 . S
O215 C208 1.185 . S
O215 Zn211 2.086 . S
C216 O212 1.278 . S
C216 O217 1.211 . S
O217 C216 1.211 . S
C218 O210 1.284 . S
C218 O219 1.273 . S
O219 C218 1.273 . S
O220 Zn211 1.977 . S
O220 C213 1.267 . S
C221 O222 1.160 . S
C221 O228 1.185 . S
O222 C221 1.160 . S
O223 Zn224 1.899 . S
O223 C231 1.284 . S
Zn224 O223 1.899 . S
Zn224 O225 2.032 . S
Zn224 O228 2.086 . S
Zn224 O233 1.977 . S
O225 Zn224 2.032 . S
O225 C229 1.278 . S
C226 O227 1.203 . S
C226 O233 1.267 . S
O227 C226 1.203 . S
O228 C221 1.185 . S
O228 Zn224 2.086 . S
C229 O225 1.278 . S
C229 O230 1.211 . S
O230 C229 1.211 . S
C231 O223 1.284 . S
C231 O232 1.273 . S
O232 C231 1.273 . S
O233 Zn224 1.977 . S
O233 C226 1.267 . S
C234 O235 1.160 . S
C234 O241 1.185 . S
O235 C234 1.160 . S
O236 Zn237 1.899 . S
O236 C244 1.284 . S
Zn237 O236 1.899 . S
Zn237 O238 2.032 . S
Zn237 O241 2.086 . S
Zn237 O246 1.977 . S
O238 Zn237 2.032 . S
O238 C242 1.278 . S
C239 O240 1.203 . S
C239 O246 1.267 . S
O240 C239 1.203 . S
O241 C234 1.185 . S
O241 Zn237 2.086 . S
C242 O238 1.278 . S
C242 O243 1.211 . S
O243 C242 1.211 . S
C244 O236 1.284 . S
C244 O245 1.273 . S
O245 C244 1.273 . S
O246 Zn237 1.977 . S
O246 C239 1.267 . S
C247 O248 1.160 . S
C247 O254 1.185 . S
O248 C247 1.160 . S
O249 Zn250 1.899 . S
O249 C257 1.284 . S
Zn250 O249 1.899 . S
Zn250 O251 2.032 . S
Zn250 O254 2.086 . S
Zn250 O259 1.977 . S
O251 Zn250 2.032 . S
O251 C255 1.278 . S
C252 O253 1.203 . S
C252 O259 1.267 . S
O253 C252 1.203 . S
O254 C247 1.185 . S
O254 Zn250 2.086 . S
C255 O251 1.278 . S
C255 O256 1.211 . S
O256 C255 1.211 . S
C257 O249 1.284 . S
C257 O258 1.273 . S
O258 C257 1.273 . S
O259 Zn250 1.977 . S
O259 C252 1.267 . S
C260 O261 1.160 . S
C260 O267 1.185 . S
O261 C260 1.160 . S
O262 Zn263 1.899 . S
O262 C270 1.284 . S
Zn263 O262 1.899 . S
Zn263 O264 2.032 . S
Zn263 O267 2.086 . S
Zn263 O272 1.977 . S
O264 Zn263 2.032 . S
O264 C268 1.278 . S
C265 O266 1.203 . S
C265 O272 1.267 . S
O266 C265 1.203 . S
O267 C260 1.185 . S
O267 Zn263 2.086 . S
C268 O264 1.278 . S
C268 O269 1.211 . S
O269 C268 1.211 . S
C270 O262 1.284 . S
C270 O271 1.273 . S
O271 C270 1.273 . S
O272 Zn263 1.977 . S
O272 C265 1.267 . S
C273 O274 1.160 . S
C273 O280 1.185 . S
O274 C273 1.160 . S
O275 Zn276 1.899 . S
O275 C283 1.284 . S
Zn276 O275 1.899 . S
Zn276 O277 2.032 . S
Zn276 O280 2.086 . S
Zn276 O285 1.977 . S
O277 Zn276 2.032 . S
O277 C281 1.278 . S
C278 O279 1.203 . S
C278 O285 1.267 . S
O279 C278 1.203 . S
O280 C273 1.185 . S
O280 Zn276 2.086 . S
C281 O277 1.278 . S
C281 O282 1.211 . S
O282 C281 1.211 . S
C283 O275 1.284 . S
C283 O284 1.273 . S
O284 C283 1.273 . S
O285 Zn276 1.977 . S
O285 C278 1.267 . S
C286 O287 1.160 . S
C286 O293 1.185 . S
O287 C286 1.160 . S
O288 Zn289 1.899 . S
O288 C296 1.284 . S
Zn289 O288 1.899 . S
Zn289 O290 2.032 . S
Zn289 O293 2.086 . S
Zn289 O298 1.977 . S
O290 Zn289 2.032 . S
O290 C294 1.278 . S
C291 O292 1.203 . S
C291 O298 1.267 . S
O292 C291 1.203 . S
O293 C286 1.185 . S
O293 Zn289 2.086 . S
C294 O290 1.278 . S
C294 O295 1.211 . S
O295 C294 1.211 . S
C296 O288 1.284 . S
C296 O297 1.273 . S
O297 C296 1.273 . S
O298 Zn289 1.977 . S
O298 C291 1.267 . S
C299 O300 1.160 . S
C299 O306 1.185 . S
O300 C299 1.160 . S
O301 Zn302 1.899 . S
O301 C309 1.284 . S
Zn302 O301 1.899 . S
Zn302 O303 2.032 . S
Zn302 O306 2.086 . S
Zn302 O311 1.977 . S
O303 Zn302 2.032 . S
O303 C307 1.278 . S
C304 O305 1.203 . S
C304 O311 1.267 . S
O305 C304 1.203 . S
O306 C299 1.185 . S
O306 Zn302 2.086 . S
C307 O303 1.278 . S
C307 O308 1.211 . S
O308 C307 1.211 . S
C309 O301 1.284 . S
C309 O310 1.273 . S
O310 C309 1.273 . S
O311 Zn302 1.977 . S
O311 C304 1.267 . S
H312 C320 0.950 . S
H313 C325 0.950 . S
H314 C322 0.950 . S
H315 C324 0.950 . S
H316 C326 0.950 . S
H317 C328 0.950 . S
H318 C330 0.950 . S
H319 C331 0.950 . S
C320 H312 0.950 . S
C320 C321 1.386 . S
C320 C322 1.391 . S
C321 C320 1.386 . S
C321 C325 1.393 . S
C322 H314 0.950 . S
C322 C320 1.391 . S
C322 C323 1.400 . S
C323 C322 1.400 . S
C323 C324 1.398 . S
C323 C329 1.491 . S
C324 H315 0.950 . S
C324 C323 1.398 . S
C324 C325 1.391 . S
C325 H313 0.950 . S
C325 C321 1.393 . S
C325 C324 1.391 . S
C326 H316 0.950 . S
C326 C327 1.386 . S
C326 C328 1.391 . S
C327 C326 1.386 . S
C327 C331 1.393 . S
C328 H317 0.950 . S
C328 C326 1.391 . S
C328 C329 1.400 . S
C329 C323 1.491 . S
C329 C328 1.400 . S
C329 C330 1.398 . S
C330 H318 0.950 . S
C330 C329 1.398 . S
C330 C331 1.391 . S
C331 H319 0.950 . S
C331 C327 1.393 . S
C331 C330 1.391 . S
H332 C340 0.950 . S
H333 C345 0.950 . S
H334 C342 0.950 . S
H335 C344 0.950 . S
H336 C346 0.950 . S
H337 C348 0.950 . S
H338 C350 0.950 . S
H339 C351 0.950 . S
C340 H332 0.950 . S
C340 C341 1.386 . S
C340 C342 1.391 . S
C341 C340 1.386 . S
C341 C345 1.393 . S
C342 H334 0.950 . S
C342 C340 1.391 . S
C342 C343 1.400 . S
C343 C342 1.400 . S
C343 C344 1.398 . S
C343 C349 1.491 . S
C344 H335 0.950 . S
C344 C343 1.398 . S
C344 C345 1.391 . S
C345 H333 0.950 . S
C345 C341 1.393 . S
C345 C344 1.391 . S
C346 H336 0.950 . S
C346 C347 1.386 . S
C346 C348 1.391 . S
C347 C346 1.386 . S
C347 C351 1.393 . S
C348 H337 0.950 . S
C348 C346 1.391 . S
C348 C349 1.400 . S
C349 C343 1.491 . S
C349 C348 1.400 . S
C349 C350 1.398 . S
C350 H338 0.950 . S
C350 C349 1.398 . S
C350 C351 1.391 . S
C351 H339 0.950 . S
C351 C347 1.393 . S
C351 C350 1.391 . S
H352 C360 0.950 . S
H353 C365 0.950 . S
H354 C362 0.950 . S
H355 C364 0.950 . S
H356 C366 0.950 . S
H357 C368 0.950 . S
H358 C370 0.950 . S
H359 C371 0.950 . S
C360 H352 0.950 . S
C360 C361 1.386 . S
C360 C362 1.391 . S
C361 C360 1.386 . S
C361 C365 1.393 . S
C362 H354 0.950 . S
C362 C360 1.391 . S
C362 C363 1.400 . S
C363 C362 1.400 . S
C363 C364 1.398 . S
C363 C369 1.491 . S
C364 H355 0.950 . S
C364 C363 1.398 . S
C364 C365 1.391 . S
C365 H353 0.950 . S
C365 C361 1.393 . S
C365 C364 1.391 . S
C366 H356 0.950 . S
C366 C367 1.386 . S
C366 C368 1.391 . S
C367 C366 1.386 . S
C367 C371 1.393 . S
C368 H357 0.950 . S
C368 C366 1.391 . S
C368 C369 1.400 . S
C369 C363 1.491 . S
C369 C368 1.400 . S
C369 C370 1.398 . S
C370 H358 0.950 . S
C370 C369 1.398 . S
C370 C371 1.391 . S
C371 H359 0.950 . S
C371 C367 1.393 . S
C371 C370 1.391 . S
H372 C380 0.950 . S
H373 C385 0.950 . S
H374 C382 0.950 . S
H375 C384 0.950 . S
H376 C386 0.950 . S
H377 C388 0.950 . S
H378 C390 0.950 . S
H379 C391 0.950 . S
C380 H372 0.950 . S
C380 C381 1.386 . S
C380 C382 1.391 . S
C381 C380 1.386 . S
C381 C385 1.393 . S
C382 H374 0.950 . S
C382 C380 1.391 . S
C382 C383 1.400 . S
C383 C382 1.400 . S
C383 C384 1.398 . S
C383 C389 1.491 . S
C384 H375 0.950 . S
C384 C383 1.398 . S
C384 C385 1.391 . S
C385 H373 0.950 . S
C385 C381 1.393 . S
C385 C384 1.391 . S
C386 H376 0.950 . S
C386 C387 1.386 . S
C386 C388 1.391 . S
C387 C386 1.386 . S
C387 C391 1.393 . S
C388 H377 0.950 . S
C388 C386 1.391 . S
C388 C389 1.400 . S
C389 C383 1.491 . S
C389 C388 1.400 . S
C389 C390 1.398 . S
C390 H378 0.950 . S
C390 C389 1.398 . S
C390 C391 1.391 . S
C391 H379 0.950 . S
C391 C387 1.393 . S
C391 C390 1.391 . S
H392 C400 0.950 . S
H393 C405 0.950 . S
H394 C402 0.950 . S
H395 C404 0.950 . S
H396 C406 0.950 . S
H397 C408 0.950 . S
H398 C410 0.950 . S
H399 C411 0.950 . S
C400 H392 0.950 . S
C400 C401 1.386 . S
C400 C402 1.391 . S
C401 C400 1.386 . S
C401 C405 1.393 . S
C402 H394 0.950 . S
C402 C400 1.391 . S
C402 C403 1.400 . S
C403 C402 1.400 . S
C403 C404 1.398 . S
C403 C409 1.491 . S
C404 H395 0.950 . S
C404 C403 1.398 . S
C404 C405 1.391 . S
C405 H393 0.950 . S
C405 C401 1.393 . S
C405 C404 1.391 . S
C406 H396 0.950 . S
C406 C407 1.386 . S
C406 C408 1.391 . S
C407 C406 1.386 . S
C407 C411 1.393 . S
C408 H397 0.950 . S
C408 C406 1.391 . S
C408 C409 1.400 . S
C409 C403 1.491 . S
C409 C408 1.400 . S
C409 C410 1.398 . S
C410 H398 0.950 . S
C410 C409 1.398 . S
C410 C411 1.391 . S
C411 H399 0.950 . S
C411 C407 1.393 . S
C411 C410 1.391 . S
H412 C420 0.950 . S
H413 C425 0.950 . S
H414 C422 0.950 . S
H415 C424 0.950 . S
H416 C426 0.950 . S
H417 C428 0.950 . S
H418 C430 0.950 . S
H419 C431 0.950 . S
C420 H412 0.950 . S
C420 C421 1.386 . S
C420 C422 1.391 . S
C421 C420 1.386 . S
C421 C425 1.393 . S
C422 H414 0.950 . S
C422 C420 1.391 . S
C422 C423 1.400 . S
C423 C422 1.400 . S
C423 C424 1.398 . S
C423 C429 1.491 . S
C424 H415 0.950 . S
C424 C423 1.398 . S
C424 C425 1.391 . S
C425 H413 0.950 . S
C425 C421 1.393 . S
C425 C424 1.391 . S
C426 H416 0.950 . S
C426 C427 1.386 . S
C426 C428 1.391 . S
C427 C426 1.386 . S
C427 C431 1.393 . S
C428 H417 0.950 . S
C428 C426 1.391 . S
C428 C429 1.400 . S
C429 C423 1.491 . S
C429 C428 1.400 . S
C429 C430 1.398 . S
C430 H418 0.950 . S
C430 C429 1.398 . S
C430 C431 1.391 . S
C431 H419 0.950 . S
C431 C427 1.393 . S
C431 C430 1.391 . S
H432 C440 0.950 . S
H433 C445 0.950 . S
H434 C442 0.950 . S
H435 C444 0.950 . S
H436 C446 0.950 . S
H437 C448 0.950 . S
H438 C450 0.950 . S
H439 C451 0.950 . S
C440 H432 0.950 . S
C440 C441 1.386 . S
C440 C442 1.391 . S
C441 C440 1.386 . S
C441 C445 1.393 . S
C442 H434 0.950 . S
C442 C440 1.391 . S
C442 C443 1.400 . S
C443 C442 1.400 . S
C443 C444 1.398 . S
C443 C449 1.491 . S
C444 H435 0.950 . S
C444 C443 1.398 . S
C444 C445 1.391 . S
C445 H433 0.950 . S
C445 C441 1.393 . S
C445 C444 1.391 . S
C446 H436 0.950 . S
C446 C447 1.386 . S
C446 C448 1.391 . S
C447 C446 1.386 . S
C447 C451 1.393 . S
C448 H437 0.950 . S
C448 C446 1.391 . S
C448 C449 1.400 . S
C449 C443 1.491 . S
C449 C448 1.400 . S
C449 C450 1.398 . S
C450 H438 0.950 . S
C450 C449 1.398 . S
C450 C451 1.391 . S
C451 H439 0.950 . S
C451 C447 1.393 . S
C451 C450 1.391 . S
H452 C460 0.950 . S
H453 C465 0.950 . S
H454 C462 0.950 . S
H455 C464 0.950 . S
H456 C466 0.950 . S
H457 C468 0.950 . S
H458 C470 0.950 . S
H459 C471 0.950 . S
C460 H452 0.950 . S
C460 C461 1.386 . S
C460 C462 1.391 . S
C461 C460 1.386 . S
C461 C465 1.393 . S
C462 H454 0.950 . S
C462 C460 1.391 . S
C462 C463 1.400 . S
C463 C462 1.400 . S
C463 C464 1.398 . S
C463 C469 1.491 . S
C464 H455 0.950 . S
C464 C463 1.398 . S
C464 C465 1.391 . S
C465 H453 0.950 . S
C465 C461 1.393 . S
C465 C464 1.391 . S
C466 H456 0.950 . S
C466 C467 1.386 . S
C466 C468 1.391 . S
C467 C466 1.386 . S
C467 C471 1.393 . S
C468 H457 0.950 . S
C468 C466 1.391 . S
C468 C469 1.400 . S
C469 C463 1.491 . S
C469 C468 1.400 . S
C469 C470 1.398 . S
C470 H458 0.950 . S
C470 C469 1.398 . S
C470 C471 1.391 . S
C471 H459 0.950 . S
C471 C467 1.393 . S
C471 C470 1.391 . S
H472 C480 0.950 . S
H473 C485 0.950 . S
H474 C482 0.950 . S
H475 C484 0.950 . S
H476 C486 0.950 . S
H477 C488 0.950 . S
H478 C490 0.950 . S
H479 C491 0.950 . S
C480 H472 0.950 . S
C480 C481 1.386 . S
C480 C482 1.391 . S
C481 C480 1.386 . S
C481 C485 1.393 . S
C482 H474 0.950 . S
C482 C480 1.391 . S
C482 C483 1.400 . S
C483 C482 1.400 . S
C483 C484 1.398 . S
C483 C489 1.491 . S
C484 H475 0.950 . S
C484 C483 1.398 . S
C484 C485 1.391 . S
C485 H473 0.950 . S
C485 C481 1.393 . S
C485 C484 1.391 . S
C486 H476 0.950 . S
C486 C487 1.386 . S
C486 C488 1.391 . S
C487 C486 1.386 . S
C487 C491 1.393 . S
C488 H477 0.950 . S
C488 C486 1.391 . S
C488 C489 1.400 . S
C489 C483 1.491 . S
C489 C488 1.400 . S
C489 C490 1.398 . S
C490 H478 0.950 . S
C490 C489 1.398 . S
C490 C491 1.391 . S
C491 H479 0.950 . S
C491 C487 1.393 . S
C491 C490 1.391 . S
H492 C500 0.950 . S
H493 C505 0.950 . S
H494 C502 0.950 . S
H495 C504 0.950 . S
H496 C506 0.950 . S
H497 C508 0.950 . S
H498 C510 0.950 . S
H499 C511 0.950 . S
C500 H492 0.950 . S
C500 C501 1.386 . S
C500 C502 1.391 . S
C501 C500 1.386 . S
C501 C505 1.393 . S
C502 H494 0.950 . S
C502 C500 1.391 . S
C502 C503 1.400 . S
C503 C502 1.400 . S
C503 C504 1.398 . S
C503 C509 1.491 . S
C504 H495 0.950 . S
C504 C503 1.398 . S
C504 C505 1.391 . S
C505 H493 0.950 . S
C505 C501 1.393 . S
C505 C504 1.391 . S
C506 H496 0.950 . S
C506 C507 1.386 . S
C506 C508 1.391 . S
C507 C506 1.386 . S
C507 C511 1.393 . S
C508 H497 0.950 . S
C508 C506 1.391 . S
C508 C509 1.400 . S
C509 C503 1.491 . S
C509 C508 1.400 . S
C509 C510 1.398 . S
C510 H498 0.950 . S
C510 C509 1.398 . S
C510 C511 1.391 . S
C511 H499 0.950 . S
C511 C507 1.393 . S
C511 C510 1.391 . S
H512 C520 0.950 . S
H513 C525 0.950 . S
H514 C522 0.950 . S
H515 C524 0.950 . S
H516 C526 0.950 . S
H517 C528 0.950 . S
H518 C530 0.950 . S
H519 C531 0.950 . S
C520 H512 0.950 . S
C520 C521 1.386 . S
C520 C522 1.391 . S
C521 C520 1.386 . S
C521 C525 1.393 . S
C522 H514 0.950 . S
C522 C520 1.391 . S
C522 C523 1.400 . S
C523 C522 1.400 . S
C523 C524 1.398 . S
C523 C529 1.491 . S
C524 H515 0.950 . S
C524 C523 1.398 . S
C524 C525 1.391 . S
C525 H513 0.950 . S
C525 C521 1.393 . S
C525 C524 1.391 . S
C526 H516 0.950 . S
C526 C527 1.386 . S
C526 C528 1.391 . S
C527 C526 1.386 . S
C527 C531 1.393 . S
C528 H517 0.950 . S
C528 C526 1.391 . S
C528 C529 1.400 . S
C529 C523 1.491 . S
C529 C528 1.400 . S
C529 C530 1.398 . S
C530 H518 0.950 . S
C530 C529 1.398 . S
C530 C531 1.391 . S
C531 H519 0.950 . S
C531 C527 1.393 . S
C531 C530 1.391 . S
H532 C540 0.950 . S
H533 C545 0.950 . S
H534 C542 0.950 . S
H535 C544 0.950 . S
H536 C546 0.950 . S
H537 C548 0.950 . S
H538 C550 0.950 . S
H539 C551 0.950 . S
C540 H532 0.950 . S
C540 C541 1.386 . S
C540 C542 1.391 . S
C541 C540 1.386 . S
C541 C545 1.393 . S
C542 H534 0.950 . S
C542 C540 1.391 . S
C542 C543 1.400 . S
C543 C542 1.400 . S
C543 C544 1.398 . S
C543 C549 1.491 . S
C544 H535 0.950 . S
C544 C543 1.398 . S
C544 C545 1.391 . S
C545 H533 0.950 . S
C545 C541 1.393 . S
C545 C544 1.391 . S
C546 H536 0.950 . S
C546 C547 1.386 . S
C546 C548 1.391 . S
C547 C546 1.386 . S
C547 C551 1.393 . S
C548 H537 0.950 . S
C548 C546 1.391 . S
C548 C549 1.400 . S
C549 C543 1.491 . S
C549 C548 1.400 . S
C549 C550 1.398 . S
C550 H538 0.950 . S
C550 C549 1.398 . S
C550 C551 1.391 . S
C551 H539 0.950 . S
C551 C547 1.393 . S
C551 C550 1.391 . S
H552 C560 0.950 . S
H553 C565 0.950 . S
H554 C562 0.950 . S
H555 C564 0.950 . S
H556 C566 0.950 . S
H557 C568 0.950 . S
H558 C570 0.950 . S
H559 C571 0.950 . S
C560 H552 0.950 . S
C560 C561 1.386 . S
C560 C562 1.391 . S
C561 C560 1.386 . S
C561 C565 1.393 . S
C562 H554 0.950 . S
C562 C560 1.391 . S
C562 C563 1.400 . S
C563 C562 1.400 . S
C563 C564 1.398 . S
C563 C569 1.491 . S
C564 H555 0.950 . S
C564 C563 1.398 . S
C564 C565 1.391 . S
C565 H553 0.950 . S
C565 C561 1.393 . S
C565 C564 1.391 . S
C566 H556 0.950 . S
C566 C567 1.386 . S
C566 C568 1.391 . S
C567 C566 1.386 . S
C567 C571 1.393 . S
C568 H557 0.950 . S
C568 C566 1.391 . S
C568 C569 1.400 . S
C569 C563 1.491 . S
C569 C568 1.400 . S
C569 C570 1.398 . S
C570 H558 0.950 . S
C570 C569 1.398 . S
C570 C571 1.391 . S
C571 H559 0.950 . S
C571 C567 1.393 . S
C571 C570 1.391 . S
H572 C580 0.950 . S
H573 C585 0.950 . S
H574 C582 0.950 . S
H575 C584 0.950 . S
H576 C586 0.950 . S
H577 C588 0.950 . S
H578 C590 0.950 . S
H579 C591 0.950 . S
C580 H572 0.950 . S
C580 C581 1.386 . S
C580 C582 1.391 . S
C581 C580 1.386 . S
C581 C585 1.393 . S
C582 H574 0.950 . S
C582 C580 1.391 . S
C582 C583 1.400 . S
C583 C582 1.400 . S
C583 C584 1.398 . S
C583 C589 1.491 . S
C584 H575 0.950 . S
C584 C583 1.398 . S
C584 C585 1.391 . S
C585 H573 0.950 . S
C585 C581 1.393 . S
C585 C584 1.391 . S
C586 H576 0.950 . S
C586 C587 1.386 . S
C586 C588 1.391 . S
C587 C586 1.386 . S
C587 C591 1.393 . S
C588 H577 0.950 . S
C588 C586 1.391 . S
C588 C589 1.400 . S
C589 C583 1.491 . S
C589 C588 1.400 . S
C589 C590 1.398 . S
C590 H578 0.950 . S
C590 C589 1.398 . S
C590 C591 1.391 . S
C591 H579 0.950 . S
C591 C587 1.393 . S
C591 C590 1.391 . S
H592 C600 0.950 . S
H593 C605 0.950 . S
H594 C602 0.950 . S
H595 C604 0.950 . S
H596 C606 0.950 . S
H597 C608 0.950 . S
H598 C610 0.950 . S
H599 C611 0.950 . S
C600 H592 0.950 . S
C600 C601 1.386 . S
C600 C602 1.391 . S
C601 C600 1.386 . S
C601 C605 1.393 . S
C602 H594 0.950 . S
C602 C600 1.391 . S
C602 C603 1.400 . S
C603 C602 1.400 . S
C603 C604 1.398 . S
C603 C609 1.491 . S
C604 H595 0.950 . S
C604 C603 1.398 . S
C604 C605 1.391 . S
C605 H593 0.950 . S
C605 C601 1.393 . S
C605 C604 1.391 . S
C606 H596 0.950 . S
C606 C607 1.386 . S
C606 C608 1.391 . S
C607 C606 1.386 . S
C607 C611 1.393 . S
C608 H597 0.950 . S
C608 C606 1.391 . S
C608 C609 1.400 . S
C609 C603 1.491 . S
C609 C608 1.400 . S
C609 C610 1.398 . S
C610 H598 0.950 . S
C610 C609 1.398 . S
C610 C611 1.391 . S
C611 H599 0.950 . S
C611 C607 1.393 . S
C611 C610 1.391 . S
H612 C620 0.950 . S
H613 C625 0.950 . S
H614 C622 0.950 . S
H615 C624 0.950 . S
H616 C626 0.950 . S
H617 C628 0.950 . S
H618 C630 0.950 . S
H619 C631 0.950 . S
C620 H612 0.950 . S
C620 C621 1.386 . S
C620 C622 1.391 . S
C621 C620 1.386 . S
C621 C625 1.393 . S
C622 H614 0.950 . S
C622 C620 1.391 . S
C622 C623 1.400 . S
C623 C622 1.400 . S
C623 C624 1.398 . S
C623 C629 1.491 . S
C624 H615 0.950 . S
C624 C623 1.398 . S
C624 C625 1.391 . S
C625 H613 0.950 . S
C625 C621 1.393 . S
C625 C624 1.391 . S
C626 H616 0.950 . S
C626 C627 1.386 . S
C626 C628 1.391 . S
C627 C626 1.386 . S
C627 C631 1.393 . S
C628 H617 0.950 . S
C628 C626 1.391 . S
C628 C629 1.400 . S
C629 C623 1.491 . S
C629 C628 1.400 . S
C629 C630 1.398 . S
C630 H618 0.950 . S
C630 C629 1.398 . S
C630 C631 1.391 . S
C631 H619 0.950 . S
C631 C627 1.393 . S
C631 C630 1.391 . S
H632 C640 0.950 . S
H633 C645 0.950 . S
H634 C642 0.950 . S
H635 C644 0.950 . S
H636 C646 0.950 . S
H637 C648 0.950 . S
H638 C650 0.950 . S
H639 C651 0.950 . S
C640 H632 0.950 . S
C640 C641 1.386 . S
C640 C642 1.391 . S
C641 C640 1.386 . S
C641 C645 1.393 . S
C642 H634 0.950 . S
C642 C640 1.391 . S
C642 C643 1.400 . S
C643 C642 1.400 . S
C643 C644 1.398 . S
C643 C649 1.491 . S
C644 H635 0.950 . S
C644 C643 1.398 . S
C644 C645 1.391 . S
C645 H633 0.950 . S
C645 C641 1.393 . S
C645 C644 1.391 . S
C646 H636 0.950 . S
C646 C647 1.386 . S
C646 C648 1.391 . S
C647 C646 1.386 . S
C647 C651 1.393 . S
C648 H637 0.950 . S
C648 C646 1.391 . S
C648 C649 1.400 . S
C649 C643 1.491 . S
C649 C648 1.400 . S
C649 C650 1.398 . S
C650 H638 0.950 . S
C650 C649 1.398 . S
C650 C651 1.391 . S
C651 H639 0.950 . S
C651 C647 1.393 . S
C651 C650 1.391 . S
H652 C660 0.950 . S
H653 C665 0.950 . S
H654 C662 0.950 . S
H655 C664 0.950 . S
H656 C666 0.950 . S
H657 C668 0.950 . S
H658 C670 0.950 . S
H659 C671 0.950 . S
C660 H652 0.950 . S
C660 C661 1.386 . S
C660 C662 1.391 . S
C661 C660 1.386 . S
C661 C665 1.393 . S
C662 H654 0.950 . S
C662 C660 1.391 . S
C662 C663 1.400 . S
C663 C662 1.400 . S
C663 C664 1.398 . S
C663 C669 1.491 . S
C664 H655 0.950 . S
C664 C663 1.398 . S
C664 C665 1.391 . S
C665 H653 0.950 . S
C665 C661 1.393 . S
C665 C664 1.391 . S
C666 H656 0.950 . S
C666 C667 1.386 . S
C666 C668 1.391 . S
C667 C666 1.386 . S
C667 C671 1.393 . S
C668 H657 0.950 . S
C668 C666 1.391 . S
C668 C669 1.400 . S
C669 C663 1.491 . S
C669 C668 1.400 . S
C669 C670 1.398 . S
C670 H658 0.950 . S
C670 C669 1.398 . S
C670 C671 1.391 . S
C671 H659 0.950 . S
C671 C667 1.393 . S
C671 C670 1.391 . S
H672 C680 0.950 . S
H673 C685 0.950 . S
H674 C682 0.950 . S
H675 C684 0.950 . S
H676 C686 0.950 . S
H677 C688 0.950 . S
H678 C690 0.950 . S
H679 C691 0.950 . S
C680 H672 0.950 . S
C680 C681 1.386 . S
C680 C682 1.391 . S
C681 C680 1.386 . S
C681 C685 1.393 . S
C682 H674 0.950 . S
C682 C680 1.391 . S
C682 C683 1.400 . S
C683 C682 1.400 . S
C683 C684 1.398 . S
C683 C689 1.491 . S
C684 H675 0.950 . S
C684 C683 1.398 . S
C684 C685 1.391 . S
C685 H673 0.950 . S
C685 C681 1.393 . S
C685 C684 1.391 . S
C686 H676 0.950 . S
C686 C687 1.386 . S
C686 C688 1.391 . S
C687 C686 1.386 . S
C687 C691 1.393 . S
C688 H677 0.950 . S
C688 C686 1.391 . S
C688 C689 1.400 . S
C689 C683 1.491 . S
C689 C688 1.400 . S
C689 C690 1.398 . S
C690 H678 0.950 . S
C690 C689 1.398 . S
C690 C691 1.391 . S
C691 H679 0.950 . S
C691 C687 1.393 . S
C691 C690 1.391 . S
H692 C700 0.950 . S
H693 C705 0.950 . S
H694 C702 0.950 . S
H695 C704 0.950 . S
H696 C706 0.950 . S
H697 C708 0.950 . S
H698 C710 0.950 . S
H699 C711 0.950 . S
C700 H692 0.950 . S
C700 C701 1.386 . S
C700 C702 1.391 . S
C701 C700 1.386 . S
C701 C705 1.393 . S
C702 H694 0.950 . S
C702 C700 1.391 . S
C702 C703 1.400 . S
C703 C702 1.400 . S
C703 C704 1.398 . S
C703 C709 1.491 . S
C704 H695 0.950 . S
C704 C703 1.398 . S
C704 C705 1.391 . S
C705 H693 0.950 . S
C705 C701 1.393 . S
C705 C704 1.391 . S
C706 H696 0.950 . S
C706 C707 1.386 . S
C706 C708 1.391 . S
C707 C706 1.386 . S
C707 C711 1.393 . S
C708 H697 0.950 . S
C708 C706 1.391 . S
C708 C709 1.400 . S
C709 C703 1.491 . S
C709 C708 1.400 . S
C709 C710 1.398 . S
C710 H698 0.950 . S
C710 C709 1.398 . S
C710 C711 1.391 . S
C711 H699 0.950 . S
C711 C707 1.393 . S
C711 C710 1.391 . S
H712 C720 0.950 . S
H713 C725 0.950 . S
H714 C722 0.950 . S
H715 C724 0.950 . S
H716 C726 0.950 . S
H717 C728 0.950 . S
H718 C730 0.950 . S
H719 C731 0.950 . S
C720 H712 0.950 . S
C720 C721 1.386 . S
C720 C722 1.391 . S
C721 C720 1.386 . S
C721 C725 1.393 . S
C722 H714 0.950 . S
C722 C720 1.391 . S
C722 C723 1.400 . S
C723 C722 1.400 . S
C723 C724 1.398 . S
C723 C729 1.491 . S
C724 H715 0.950 . S
C724 C723 1.398 . S
C724 C725 1.391 . S
C725 H713 0.950 . S
C725 C721 1.393 . S
C725 C724 1.391 . S
C726 H716 0.950 . S
C726 C727 1.386 . S
C726 C728 1.391 . S
C727 C726 1.386 . S
C727 C731 1.393 . S
C728 H717 0.950 . S
C728 C726 1.391 . S
C728 C729 1.400 . S
C729 C723 1.491 . S
C729 C728 1.400 . S
C729 C730 1.398 . S
C730 H718 0.950 . S
C730 C729 1.398 . S
C730 C731 1.391 . S
C731 H719 0.950 . S
C731 C727 1.393 . S
C731 C730 1.391 . S
H732 C740 0.950 . S
H733 C745 0.950 . S
H734 C742 0.950 . S
H735 C744 0.950 . S
H736 C746 0.950 . S
H737 C748 0.950 . S
H738 C750 0.950 . S
H739 C751 0.950 . S
C740 H732 0.950 . S
C740 C741 1.386 . S
C740 C742 1.391 . S
C741 C740 1.386 . S
C741 C745 1.393 . S
C742 H734 0.950 . S
C742 C740 1.391 . S
C742 C743 1.400 . S
C743 C742 1.400 . S
C743 C744 1.398 . S
C743 C749 1.491 . S
C744 H735 0.950 . S
C744 C743 1.398 . S
C744 C745 1.391 . S
C745 H733 0.950 . S
C745 C741 1.393 . S
C745 C744 1.391 . S
C746 H736 0.950 . S
C746 C747 1.386 . S
C746 C748 1.391 . S
C747 C746 1.386 . S
C747 C751 1.393 . S
C748 H737 0.950 . S
C748 C746 1.391 . S
C748 C749 1.400 . S
C749 C743 1.491 . S
C749 C748 1.400 . S
C749 C750 1.398 . S
C750 H738 0.950 . S
C750 C749 1.398 . S
C750 C751 1.391 . S
C751 H739 0.950 . S
C751 C747 1.393 . S
C751 C750 1.391 . S
H752 C760 0.950 . S
H753 C765 0.950 . S
H754 C762 0.950 . S
H755 C764 0.950 . S
H756 C766 0.950 . S
H757 C768 0.950 . S
H758 C770 0.950 . S
H759 C771 0.950 . S
C760 H752 0.950 . S
C760 C761 1.386 . S
C760 C762 1.391 . S
C761 C760 1.386 . S
C761 C765 1.393 . S
C762 H754 0.950 . S
C762 C760 1.391 . S
C762 C763 1.400 . S
C763 C762 1.400 . S
C763 C764 1.398 . S
C763 C769 1.491 . S
C764 H755 0.950 . S
C764 C763 1.398 . S
C764 C765 1.391 . S
C765 H753 0.950 . S
C765 C761 1.393 . S
C765 C764 1.391 . S
C766 H756 0.950 . S
C766 C767 1.386 . S
C766 C768 1.391 . S
C767 C766 1.386 . S
C767 C771 1.393 . S
C768 H757 0.950 . S
C768 C766 1.391 . S
C768 C769 1.400 . S
C769 C763 1.491 . S
C769 C768 1.400 . S
C769 C770 1.398 . S
C770 H758 0.950 . S
C770 C769 1.398 . S
C770 C771 1.391 . S
C771 H759 0.950 . S
C771 C767 1.393 . S
C771 C770 1.391 . S
H772 C780 0.950 . S
H773 C785 0.950 . S
H774 C782 0.950 . S
H775 C784 0.950 . S
H776 C786 0.950 . S
H777 C788 0.950 . S
H778 C790 0.950 . S
H779 C791 0.950 . S
C780 H772 0.950 . S
C780 C781 1.386 . S
C780 C782 1.391 . S
C781 C780 1.386 . S
C781 C785 1.393 . S
C782 H774 0.950 . S
C782 C780 1.391 . S
C782 C783 1.400 . S
C783 C782 1.400 . S
C783 C784 1.398 . S
C783 C789 1.491 . S
C784 H775 0.950 . S
C784 C783 1.398 . S
C784 C785 1.391 . S
C785 H773 0.950 . S
C785 C781 1.393 . S
C785 C784 1.391 . S
C786 H776 0.950 . S
C786 C787 1.386 . S
C786 C788 1.391 . S
C787 C786 1.386 . S
C787 C791 1.393 . S
C788 H777 0.950 . S
C788 C786 1.391 . S
C788 C789 1.400 . S
C789 C783 1.491 . S
C789 C788 1.400 . S
C789 C790 1.398 . S
C790 H778 0.950 . S
C790 C789 1.398 . S
C790 C791 1.391 . S
C791 H779 0.950 . S
C791 C787 1.393 . S
C791 C790 1.391 . S
H792 C800 0.950 . S
H793 C805 0.950 . S
H794 C802 0.950 1_545 S
H795 C804 0.950 1_554 S
H796 C806 0.950 . S
H797 C808 0.950 1_565 S
H798 C810 0.950 1_556 S
H799 C811 0.950 . S
C800 H792 0.950 . S
C800 C801 1.386 . S
C800 C802 1.391 . S
C801 C800 1.386 . S
C801 C805 1.393 . S
C802 H794 0.950 1_565 S
C802 C800 1.391 . S
C802 C803 1.400 . S
C803 C802 1.400 . S
C803 C804 1.398 . S
C803 C809 1.491 1_566 S
C804 H795 0.950 1_556 S
C804 C803 1.398 . S
C804 C805 1.391 . S
C805 H793 0.950 . S
C805 C801 1.393 . S
C805 C804 1.391 . S
C806 H796 0.950 . S
C806 C807 1.386 . S
C806 C808 1.391 . S
C807 C806 1.386 . S
C807 C811 1.393 . S
C808 H797 0.950 1_545 S
C808 C806 1.391 . S
C808 C809 1.400 . S
C809 C803 1.491 1_544 S
C809 C808 1.400 . S
C809 C810 1.398 . S
C810 H798 0.950 1_554 S
C810 C809 1.398 . S
C810 C811 1.391 . S
C811 H799 0.950 . S
C811 C807 1.393 . S
C811 C810 1.391 . S
H812 C820 0.950 . S
H813 C825 0.950 . S
H814 C822 0.950 . S
H815 C824 0.950 . S
H816 C826 0.950 . S
H817 C828 0.950 . S
H818 C830 0.950 . S
H819 C831 0.950 . S
C820 H812 0.950 . S
C820 C821 1.386 . S
C820 C822 1.391 . S
C821 C820 1.386 . S
C821 C825 1.393 . S
C822 H814 0.950 . S
C822 C820 1.391 . S
C822 C823 1.400 . S
C823 C822 1.400 . S
C823 C824 1.398 . S
C823 C829 1.491 . S
C824 H815 0.950 . S
C824 C823 1.398 . S
C824 C825 1.391 . S
C825 H813 0.950 . S
C825 C821 1.393 . S
C825 C824 1.391 . S
C826 H816 0.950 . S
C826 C827 1.386 . S
C826 C828 1.391 . S
C827 C826 1.386 . S
C827 C831 1.393 . S
C828 H817 0.950 . S
C828 C826 1.391 . S
C828 C829 1.400 . S
C829 C823 1.491 . S
C829 C828 1.400 . S
C829 C830 1.398 . S
C830 H818 0.950 . S
C830 C829 1.398 . S
C830 C831 1.391 . S
C831 H819 0.950 . S
C831 C827 1.393 . S
C831 C830 1.391 . S
H832 C840 0.950 . S
H833 C845 0.950 . S
H834 C842 0.950 . S
H835 C844 0.950 . S
H836 C846 0.950 . S
H837 C848 0.950 . S
H838 C850 0.950 . S
H839 C851 0.950 . S
C840 H832 0.950 . S
C840 C841 1.386 . S
C840 C842 1.391 . S
C841 C840 1.386 . S
C841 C845 1.393 . S
C842 H834 0.950 . S
C842 C840 1.391 . S
C842 C843 1.400 . S
C843 C842 1.400 . S
C843 C844 1.398 . S
C843 C849 1.491 1_456 S
C844 H835 0.950 . S
C844 C843 1.398 . S
C844 C845 1.391 . S
C845 H833 0.950 . S
C845 C841 1.393 . S
C845 C844 1.391 . S
C846 H836 0.950 . S
C846 C847 1.386 . S
C846 C848 1.391 . S
C847 C846 1.386 . S
C847 C851 1.393 . S
C848 H837 0.950 . S
C848 C846 1.391 . S
C848 C849 1.400 . S
C849 C843 1.491 1_654 S
C849 C848 1.400 . S
C849 C850 1.398 . S
C850 H838 0.950 . S
C850 C849 1.398 . S
C850 C851 1.391 . S
C851 H839 0.950 . S
C851 C847 1.393 . S
C851 C850 1.391 . S
H852 C860 0.950 . S
H853 C865 0.950 . S
H854 C862 0.950 . S
H855 C864 0.950 1_565 S
H856 C866 0.950 . S
H857 C868 0.950 . S
H858 C870 0.950 1_545 S
H859 C871 0.950 . S
C860 H852 0.950 . S
C860 C861 1.386 . S
C860 C862 1.391 . S
C861 C860 1.386 . S
C861 C865 1.393 . S
C862 H854 0.950 . S
C862 C860 1.391 . S
C862 C863 1.400 . S
C863 C862 1.400 . S
C863 C864 1.398 . S
C863 C869 1.491 1_545 S
C864 H855 0.950 1_545 S
C864 C863 1.398 . S
C864 C865 1.391 . S
C865 H853 0.950 . S
C865 C861 1.393 . S
C865 C864 1.391 . S
C866 H856 0.950 . S
C866 C867 1.386 . S
C866 C868 1.391 . S
C867 C866 1.386 . S
C867 C871 1.393 . S
C868 H857 0.950 . S
C868 C866 1.391 . S
C868 C869 1.400 . S
C869 C863 1.491 1_565 S
C869 C868 1.400 . S
C869 C870 1.398 . S
C870 H858 0.950 1_565 S
C870 C869 1.398 . S
C870 C871 1.391 . S
C871 H859 0.950 . S
C871 C867 1.393 . S
C871 C870 1.391 . S
H872 C880 0.950 . S
H873 C885 0.950 . S
H874 C882 0.950 . S
H875 C884 0.950 . S
H876 C886 0.950 . S
H877 C888 0.950 . S
H878 C890 0.950 . S
H879 C891 0.950 . S
C880 H872 0.950 . S
C880 C881 1.386 . S
C880 C882 1.391 . S
C881 C880 1.386 . S
C881 C885 1.393 . S
C882 H874 0.950 . S
C882 C880 1.391 . S
C882 C883 1.400 . S
C883 C882 1.400 . S
C883 C884 1.398 . S
C883 C889 1.491 1_554 S
C884 H875 0.950 . S
C884 C883 1.398 . S
C884 C885 1.391 . S
C885 H873 0.950 . S
C885 C881 1.393 . S
C885 C884 1.391 . S
C886 H876 0.950 . S
C886 C887 1.386 . S
C886 C888 1.391 . S
C887 C886 1.386 . S
C887 C891 1.393 . S
C888 H877 0.950 . S
C888 C886 1.391 . S
C888 C889 1.400 . S
C889 C883 1.491 1_556 S
C889 C888 1.400 . S
C889 C890 1.398 . S
C890 H878 0.950 . S
C890 C889 1.398 . S
C890 C891 1.391 . S
C891 H879 0.950 . S
C891 C887 1.393 . S
C891 C890 1.391 . S
H892 C900 0.950 . S
H893 C905 0.950 . S
H894 C902 0.950 . S
H895 C904 0.950 1_655 S
H896 C906 0.950 . S
H897 C908 0.950 . S
H898 C910 0.950 1_455 S
H899 C911 0.950 . S
C900 H892 0.950 . S
C900 C901 1.386 . S
C900 C902 1.391 . S
C901 C900 1.386 . S
C901 C905 1.393 . S
C902 H894 0.950 . S
C902 C900 1.391 . S
C902 C903 1.400 . S
C903 C902 1.400 . S
C903 C904 1.398 . S
C903 C909 1.491 1_455 S
C904 H895 0.950 1_455 S
C904 C903 1.398 . S
C904 C905 1.391 . S
C905 H893 0.950 . S
C905 C901 1.393 . S
C905 C904 1.391 . S
C906 H896 0.950 . S
C906 C907 1.386 . S
C906 C908 1.391 . S
C907 C906 1.386 . S
C907 C911 1.393 . S
C908 H897 0.950 . S
C908 C906 1.391 . S
C908 C909 1.400 . S
C909 C903 1.491 1_655 S
C909 C908 1.400 . S
C909 C910 1.398 . S
C910 H898 0.950 1_655 S
C910 C909 1.398 . S
C910 C911 1.391 . S
C911 H899 0.950 . S
C911 C907 1.393 . S
C911 C910 1.391 . S
H912 C920 0.950 . S
H913 C925 0.950 . S
H914 C922 0.950 . S
H915 C924 0.944 1_554 S
H916 C926 0.950 . S
H917 C928 0.950 . S
H918 C930 0.944 1_556 S
H919 C931 0.950 . S
C920 H912 0.950 . S
C920 C921 1.386 . S
C920 C922 1.391 . S
C921 C920 1.386 . S
C921 C925 1.393 . S
C922 H914 0.950 . S
C922 C920 1.391 . S
C922 C923 1.400 . S
C923 C922 1.400 . S
C923 C924 1.398 . S
C923 C929 1.491 1_566 S
C924 H915 0.944 1_556 S
C924 C923 1.398 . S
C924 C925 1.391 . S
C925 H913 0.950 . S
C925 C921 1.393 . S
C925 C924 1.391 . S
C926 H916 0.950 . S
C926 C927 1.386 . S
C926 C928 1.391 . S
C927 C926 1.386 . S
C927 C931 1.393 . S
C928 H917 0.950 . S
C928 C926 1.391 . S
C928 C929 1.400 . S
C929 C923 1.491 1_544 S
C929 C928 1.400 . S
C929 C930 1.398 . S
C930 H918 0.944 1_554 S
C930 C929 1.398 . S
C930 C931 1.391 . S
C931 H919 0.950 . S
C931 C927 1.393 . S
C931 C930 1.391 . S
H932 C940 0.950 . S
H933 C945 0.950 . S
H934 C942 0.950 . S
H935 C944 0.950 . S
H936 C946 0.950 . S
H937 C948 0.950 . S
H938 C950 0.950 . S
H939 C951 0.950 . S
C940 H932 0.950 . S
C940 C941 1.386 . S
C940 C942 1.391 . S
C941 C940 1.386 . S
C941 C945 1.393 . S
C942 H934 0.950 . S
C942 C940 1.391 . S
C942 C943 1.400 . S
C943 C942 1.400 . S
C943 C944 1.398 . S
C943 C949 1.491 . S
C944 H935 0.950 . S
C944 C943 1.398 . S
C944 C945 1.391 . S
C945 H933 0.950 . S
C945 C941 1.393 . S
C945 C944 1.391 . S
C946 H936 0.950 . S
C946 C947 1.386 . S
C946 C948 1.391 . S
C947 C946 1.386 . S
C947 C951 1.393 . S
C948 H937 0.950 . S
C948 C946 1.391 . S
C948 C949 1.400 . S
C949 C943 1.491 . S
C949 C948 1.400 . S
C949 C950 1.398 . S
C950 H938 0.950 . S
C950 C949 1.398 . S
C950 C951 1.391 . S
C951 H939 0.950 . S
C951 C947 1.393 . S
C951 C950 1.391 . S
H952 C960 0.950 . S
H953 C965 0.950 . S
H954 C962 0.950 . S
H955 C964 0.946 1_455 S
H956 C966 0.950 . S
H957 C968 0.950 . S
H958 C970 0.946 1_655 S
H959 C971 0.950 . S
C960 H952 0.950 . S
C960 C961 1.386 . S
C960 C962 1.391 . S
C961 C960 1.386 . S
C961 C965 1.393 . S
C962 H954 0.950 . S
C962 C960 1.391 . S
C962 C963 1.400 . S
C963 C962 1.400 . S
C963 C964 1.398 . S
C963 C969 1.491 1_654 S
C964 H955 0.946 1_655 S
C964 C963 1.398 . S
C964 C965 1.391 . S
C965 H953 0.950 . S
C965 C961 1.393 . S
C965 C964 1.391 . S
C966 H956 0.950 . S
C966 C967 1.386 . S
C966 C968 1.391 . S
C967 C966 1.386 . S
C967 C971 1.393 . S
C968 H957 0.950 . S
C968 C966 1.391 . S
C968 C969 1.400 . S
C969 C963 1.491 1_456 S
C969 C968 1.400 . S
C969 C970 1.398 . S
C970 H958 0.946 1_455 S
C970 C969 1.398 . S
C970 C971 1.391 . S
C971 H959 0.950 . S
C971 C967 1.393 . S
C971 C970 1.391 . S
H972 C980 0.950 . S
H973 C985 0.950 . S
H974 C982 0.950 1_545 S
H975 C984 0.950 . S
H976 C986 0.950 . S
H977 C988 0.950 1_565 S
H978 C990 0.950 . S
H979 C991 0.950 . S
C980 H972 0.950 . S
C980 C981 1.386 . S
C980 C982 1.391 . S
C981 C980 1.386 . S
C981 C985 1.393 . S
C982 H974 0.950 1_565 S
C982 C980 1.391 . S
C982 C983 1.400 . S
C983 C982 1.400 . S
C983 C984 1.398 . S
C983 C989 1.491 1_565 S
C984 H975 0.950 . S
C984 C983 1.398 . S
C984 C985 1.391 . S
C985 H973 0.950 . S
C985 C981 1.393 . S
C985 C984 1.391 . S
C986 H976 0.950 . S
C986 C987 1.386 . S
C986 C988 1.391 . S
C987 C986 1.386 . S
C987 C991 1.393 . S
C988 H977 0.950 1_545 S
C988 C986 1.391 . S
C988 C989 1.400 . S
C989 C983 1.491 1_545 S
C989 C988 1.400 . S
C989 C990 1.398 . S
C990 H978 0.950 . S
C990 C989 1.398 . S
C990 C991 1.391 . S
C991 H979 0.950 . S
C991 C987 1.393 . S
C991 C990 1.391 . S
H992 C1000 0.950 . S
H993 C1005 0.950 . S
H994 C1002 0.950 . S
H995 C1004 0.950 . S
H996 C1006 0.950 . S
H997 C1008 0.950 . S
H998 C1010 0.950 . S
H999 C1011 0.950 . S
C1000 H992 0.950 . S
C1000 C1001 1.386 . S
C1000 C1002 1.391 . S
C1001 C1000 1.386 . S
C1001 C1005 1.393 . S
C1002 H994 0.950 . S
C1002 C1000 1.391 . S
C1002 C1003 1.400 . S
C1003 C1002 1.400 . S
C1003 C1004 1.398 . S
C1003 C1009 1.491 1_554 S
C1004 H995 0.950 . S
C1004 C1003 1.398 . S
C1004 C1005 1.391 . S
C1005 H993 0.950 . S
C1005 C1001 1.393 . S
C1005 C1004 1.391 . S
C1006 H996 0.950 . S
C1006 C1007 1.386 . S
C1006 C1008 1.391 . S
C1007 C1006 1.386 . S
C1007 C1011 1.393 . S
C1008 H997 0.950 . S
C1008 C1006 1.391 . S
C1008 C1009 1.400 . S
C1009 C1003 1.491 1_556 S
C1009 C1008 1.400 . S
C1009 C1010 1.398 . S
C1010 H998 0.950 . S
C1010 C1009 1.398 . S
C1010 C1011 1.391 . S
C1011 H999 0.950 . S
C1011 C1007 1.393 . S
C1011 C1010 1.391 . S
H1012 C1020 0.950 . S
H1013 C1025 0.950 . S
H1014 C1022 0.950 1_655 S
H1015 C1024 0.950 . S
H1016 C1026 0.950 . S
H1017 C1028 0.950 1_455 S
H1018 C1030 0.950 . S
H1019 C1031 0.950 . S
C1020 H1012 0.950 . S
C1020 C1021 1.386 . S
C1020 C1022 1.391 . S
C1021 C1020 1.386 . S
C1021 C1025 1.393 . S
C1022 H1014 0.950 1_455 S
C1022 C1020 1.391 . S
C1022 C1023 1.400 . S
C1023 C1022 1.400 . S
C1023 C1024 1.398 . S
C1023 C1029 1.491 1_455 S
C1024 H1015 0.950 . S
C1024 C1023 1.398 . S
C1024 C1025 1.391 . S
C1025 H1013 0.950 . S
C1025 C1021 1.393 . S
C1025 C1024 1.391 . S
C1026 H1016 0.950 . S
C1026 C1027 1.386 . S
C1026 C1028 1.391 . S
C1027 C1026 1.386 . S
C1027 C1031 1.393 . S
C1028 H1017 0.950 1_655 S
C1028 C1026 1.391 . S
C1028 C1029 1.400 . S
C1029 C1023 1.491 1_655 S
C1029 C1028 1.400 . S
C1029 C1030 1.398 . S
C1030 H1018 0.950 . S
C1030 C1029 1.398 . S
C1030 C1031 1.391 . S
C1031 H1019 0.950 . S
C1031 C1027 1.393 . S
C1031 C1030 1.391 . S
H1032 C1040 0.950 . S
H1033 C1045 0.950 . S
H1034 C1042 0.950 . S
H1035 C1044 0.950 . S
H1036 C1046 0.950 . S
H1037 C1048 0.950 . S
H1038 C1050 0.950 . S
H1039 C1051 0.950 . S
C1040 H1032 0.950 . S
C1040 C1041 1.386 . S
C1040 C1042 1.391 . S
C1041 C1040 1.386 . S
C1041 C1045 1.393 . S
C1042 H1034 0.950 . S
C1042 C1040 1.391 . S
C1042 C1043 1.400 . S
C1043 C1042 1.400 . S
C1043 C1044 1.398 . S
C1043 C1049 1.491 . S
C1044 H1035 0.950 . S
C1044 C1043 1.398 . S
C1044 C1045 1.391 . S
C1045 H1033 0.950 . S
C1045 C1041 1.393 . S
C1045 C1044 1.391 . S
C1046 H1036 0.950 . S
C1046 C1047 1.386 . S
C1046 C1048 1.391 . S
C1047 C1046 1.386 . S
C1047 C1051 1.393 . S
C1048 H1037 0.950 . S
C1048 C1046 1.391 . S
C1048 C1049 1.400 . S
C1049 C1043 1.491 . S
C1049 C1048 1.400 . S
C1049 C1050 1.398 . S
C1050 H1038 0.950 . S
C1050 C1049 1.398 . S
C1050 C1051 1.391 . S
C1051 H1039 0.950 . S
C1051 C1047 1.393 . S
C1051 C1050 1.391 . S
H1052 C1060 0.950 . S
H1053 C1065 0.950 . S
H1054 C1062 0.950 . S
H1055 C1064 0.950 . S
H1056 C1066 0.950 . S
H1057 C1068 0.950 . S
H1058 C1070 0.950 . S
H1059 C1071 0.950 . S
C1060 H1052 0.950 . S
C1060 C1061 1.386 . S
C1060 C1062 1.391 . S
C1061 C1060 1.386 . S
C1061 C1065 1.393 . S
C1062 H1054 0.950 . S
C1062 C1060 1.391 . S
C1062 C1063 1.400 . S
C1063 C1062 1.400 . S
C1063 C1064 1.398 . S
C1063 C1069 1.491 . S
C1064 H1055 0.950 . S
C1064 C1063 1.398 . S
C1064 C1065 1.391 . S
C1065 H1053 0.950 . S
C1065 C1061 1.393 . S
C1065 C1064 1.391 . S
C1066 H1056 0.950 . S
C1066 C1067 1.386 . S
C1066 C1068 1.391 . S
C1067 C1066 1.386 . S
C1067 C1071 1.393 . S
C1068 H1057 0.950 . S
C1068 C1066 1.391 . S
C1068 C1069 1.400 . S
C1069 C1063 1.491 . S
C1069 C1068 1.400 . S
C1069 C1070 1.398 . S
C1070 H1058 0.950 . S
C1070 C1069 1.398 . S
C1070 C1071 1.391 . S
C1071 H1059 0.950 . S
C1071 C1067 1.393 . S
C1071 C1070 1.391 . S
H1072 C1080 0.950 . S
H1073 C1085 0.950 . S
H1074 C1082 0.950 . S
H1075 C1084 0.950 . S
H1076 C1086 0.950 . S
H1077 C1088 0.950 . S
H1078 C1090 0.950 . S
H1079 C1091 0.950 . S
C1080 H1072 0.950 . S
C1080 C1081 1.386 . S
C1080 C1082 1.391 . S
C1081 C1080 1.386 . S
C1081 C1085 1.393 . S
C1082 H1074 0.950 . S
C1082 C1080 1.391 . S
C1082 C1083 1.400 . S
C1083 C1082 1.400 . S
C1083 C1084 1.398 . S
C1083 C1089 1.491 . S
C1084 H1075 0.950 . S
C1084 C1083 1.398 . S
C1084 C1085 1.391 . S
C1085 H1073 0.950 . S
C1085 C1081 1.393 . S
C1085 C1084 1.391 . S
C1086 H1076 0.950 . S
C1086 C1087 1.386 . S
C1086 C1088 1.391 . S
C1087 C1086 1.386 . S
C1087 C1091 1.393 . S
C1088 H1077 0.950 . S
C1088 C1086 1.391 . S
C1088 C1089 1.400 . S
C1089 C1083 1.491 . S
C1089 C1088 1.400 . S
C1089 C1090 1.398 . S
C1090 H1078 0.950 . S
C1090 C1089 1.398 . S
C1090 C1091 1.391 . S
C1091 H1079 0.950 . S
C1091 C1087 1.393 . S
C1091 C1090 1.391 . S
H1092 C1100 0.950 . S
H1093 C1105 0.950 . S
H1094 C1102 0.950 . S
H1095 C1104 0.950 . S
H1096 C1106 0.950 . S
H1097 C1108 0.950 . S
H1098 C1110 0.950 . S
H1099 C1111 0.950 . S
C1100 H1092 0.950 . S
C1100 C1101 1.386 . S
C1100 C1102 1.391 . S
C1101 C1100 1.386 . S
C1101 C1105 1.393 . S
C1102 H1094 0.950 . S
C1102 C1100 1.391 . S
C1102 C1103 1.400 . S
C1103 C1102 1.400 . S
C1103 C1104 1.398 . S
C1103 C1109 1.491 . S
C1104 H1095 0.950 . S
C1104 C1103 1.398 . S
C1104 C1105 1.391 . S
C1105 H1093 0.950 . S
C1105 C1101 1.393 . S
C1105 C1104 1.391 . S
C1106 H1096 0.950 . S
C1106 C1107 1.386 . S
C1106 C1108 1.391 . S
C1107 C1106 1.386 . S
C1107 C1111 1.393 . S
C1108 H1097 0.950 . S
C1108 C1106 1.391 . S
C1108 C1109 1.400 . S
C1109 C1103 1.491 . S
C1109 C1108 1.400 . S
C1109 C1110 1.398 . S
C1110 H1098 0.950 . S
C1110 C1109 1.398 . S
C1110 C1111 1.391 . S
C1111 H1099 0.950 . S
C1111 C1107 1.393 . S
C1111 C1110 1.391 . S
H1112 C1120 0.950 . S
H1113 C1125 0.950 . S
H1114 C1122 0.950 . S
H1115 C1124 0.950 . S
H1116 C1126 0.950 . S
H1117 C1128 0.950 . S
H1118 C1130 0.950 . S
H1119 C1131 0.950 . S
C1120 H1112 0.950 . S
C1120 C1121 1.386 . S
C1120 C1122 1.391 . S
C1121 C1120 1.386 . S
C1121 C1125 1.393 . S
C1122 H1114 0.950 . S
C1122 C1120 1.391 . S
C1122 C1123 1.400 . S
C1123 C1122 1.400 . S
C1123 C1124 1.398 . S
C1123 C1129 1.491 . S
C1124 H1115 0.950 . S
C1124 C1123 1.398 . S
C1124 C1125 1.391 . S
C1125 H1113 0.950 . S
C1125 C1121 1.393 . S
C1125 C1124 1.391 . S
C1126 H1116 0.950 . S
C1126 C1127 1.386 . S
C1126 C1128 1.391 . S
C1127 C1126 1.386 . S
C1127 C1131 1.393 . S
C1128 H1117 0.950 . S
C1128 C1126 1.391 . S
C1128 C1129 1.400 . S
C1129 C1123 1.491 . S
C1129 C1128 1.400 . S
C1129 C1130 1.398 . S
C1130 H1118 0.950 . S
C1130 C1129 1.398 . S
C1130 C1131 1.391 . S
C1131 H1119 0.950 . S
C1131 C1127 1.393 . S
C1131 C1130 1.391 . S
H1132 C1140 0.950 . S
H1133 C1145 0.950 . S
H1134 C1142 0.950 . S
H1135 C1144 0.950 . S
H1136 C1146 0.950 . S
H1137 C1148 0.950 . S
H1138 C1150 0.950 . S
H1139 C1151 0.950 . S
C1140 H1132 0.950 . S
C1140 C1141 1.386 . S
C1140 C1142 1.391 . S
C1141 C1140 1.386 . S
C1141 C1145 1.393 . S
C1142 H1134 0.950 . S
C1142 C1140 1.391 . S
C1142 C1143 1.400 . S
C1143 C1142 1.400 . S
C1143 C1144 1.398 . S
C1143 C1149 1.491 . S
C1144 H1135 0.950 . S
C1144 C1143 1.398 . S
C1144 C1145 1.391 . S
C1145 H1133 0.950 . S
C1145 C1141 1.393 . S
C1145 C1144 1.391 . S
C1146 H1136 0.950 . S
C1146 C1147 1.386 . S
C1146 C1148 1.391 . S
C1147 C1146 1.386 . S
C1147 C1151 1.393 . S
C1148 H1137 0.950 . S
C1148 C1146 1.391 . S
C1148 C1149 1.400 . S
C1149 C1143 1.491 . S
C1149 C1148 1.400 . S
C1149 C1150 1.398 . S
C1150 H1138 0.950 . S
C1150 C1149 1.398 . S
C1150 C1151 1.391 . S
C1151 H1139 0.950 . S
C1151 C1147 1.393 . S
C1151 C1150 1.391 . S
H1152 C1160 0.950 . S
H1153 C1165 0.950 . S
H1154 C1162 0.950 . S
H1155 C1164 0.950 . S
H1156 C1166 0.950 . S
H1157 C1168 0.950 . S
H1158 C1170 0.950 . S
H1159 C1171 0.950 . S
C1160 H1152 0.950 . S
C1160 C1161 1.386 . S
C1160 C1162 1.391 . S
C1161 C1160 1.386 . S
C1161 C1165 1.393 . S
C1162 H1154 0.950 . S
C1162 C1160 1.391 . S
C1162 C1163 1.400 . S
C1163 C1162 1.400 . S
C1163 C1164 1.398 . S
C1163 C1169 1.491 . S
C1164 H1155 0.950 . S
C1164 C1163 1.398 . S
C1164 C1165 1.391 . S
C1165 H1153 0.950 . S
C1165 C1161 1.393 . S
C1165 C1164 1.391 . S
C1166 H1156 0.950 . S
C1166 C1167 1.386 . S
C1166 C1168 1.391 . S
C1167 C1166 1.386 . S
C1167 C1171 1.393 . S
C1168 H1157 0.950 . S
C1168 C1166 1.391 . S
C1168 C1169 1.400 . S
C1169 C1163 1.491 . S
C1169 C1168 1.400 . S
C1169 C1170 1.398 . S
C1170 H1158 0.950 . S
C1170 C1169 1.398 . S
C1170 C1171 1.391 . S
C1171 H1159 0.950 . S
C1171 C1167 1.393 . S
C1171 C1170 1.391 . S
H1172 C1180 0.950 . S
H1173 C1185 0.950 . S
H1174 C1182 0.950 . S
H1175 C1184 0.950 . S
H1176 C1186 0.950 . S
H1177 C1188 0.950 . S
H1178 C1190 0.950 . S
H1179 C1191 0.950 . S
C1180 H1172 0.950 . S
C1180 C1181 1.386 . S
C1180 C1182 1.391 . S
C1181 C1180 1.386 . S
C1181 C1185 1.393 . S
C1182 H1174 0.950 . S
C1182 C1180 1.391 . S
C1182 C1183 1.400 . S
C1183 C1182 1.400 . S
C1183 C1184 1.398 . S
C1183 C1189 1.491 . S
C1184 H1175 0.950 . S
C1184 C1183 1.398 . S
C1184 C1185 1.391 . S
C1185 H1173 0.950 . S
C1185 C1181 1.393 . S
C1185 C1184 1.391 . S
C1186 H1176 0.950 . S
C1186 C1187 1.386 . S
C1186 C1188 1.391 . S
C1187 C1186 1.386 . S
C1187 C1191 1.393 . S
C1188 H1177 0.950 . S
C1188 C1186 1.391 . S
C1188 C1189 1.400 . S
C1189 C1183 1.491 . S
C1189 C1188 1.400 . S
C1189 C1190 1.398 . S
C1190 H1178 0.950 . S
C1190 C1189 1.398 . S
C1190 C1191 1.391 . S
C1191 H1179 0.950 . S
C1191 C1187 1.393 . S
C1191 C1190 1.391 . S
H1192 C1200 0.950 . S
H1193 C1205 0.950 . S
H1194 C1202 0.950 . S
H1195 C1204 0.950 . S
H1196 C1206 0.950 . S
H1197 C1208 0.950 . S
H1198 C1210 0.950 . S
H1199 C1211 0.950 . S
C1200 H1192 0.950 . S
C1200 C1201 1.386 . S
C1200 C1202 1.391 . S
C1201 C1200 1.386 . S
C1201 C1205 1.393 . S
C1202 H1194 0.950 . S
C1202 C1200 1.391 . S
C1202 C1203 1.400 . S
C1203 C1202 1.400 . S
C1203 C1204 1.398 . S
C1203 C1209 1.491 . S
C1204 H1195 0.950 . S
C1204 C1203 1.398 . S
C1204 C1205 1.391 . S
C1205 H1193 0.950 . S
C1205 C1201 1.393 . S
C1205 C1204 1.391 . S
C1206 H1196 0.950 . S
C1206 C1207 1.386 . S
C1206 C1208 1.391 . S
C1207 C1206 1.386 . S
C1207 C1211 1.393 . S
C1208 H1197 0.950 . S
C1208 C1206 1.391 . S
C1208 C1209 1.400 . S
C1209 C1203 1.491 . S
C1209 C1208 1.400 . S
C1209 C1210 1.398 . S
C1210 H1198 0.950 . S
C1210 C1209 1.398 . S
C1210 C1211 1.391 . S
C1211 H1199 0.950 . S
C1211 C1207 1.393 . S
C1211 C1210 1.391 . S
H1212 C1220 0.950 . S
H1213 C1225 0.950 . S
H1214 C1222 0.950 . S
H1215 C1224 0.950 . S
H1216 C1226 0.950 . S
H1217 C1228 0.950 . S
H1218 C1230 0.950 . S
H1219 C1231 0.950 . S
C1220 H1212 0.950 . S
C1220 C1221 1.386 . S
C1220 C1222 1.391 . S
C1221 C1220 1.386 . S
C1221 C1225 1.393 . S
C1222 H1214 0.950 . S
C1222 C1220 1.391 . S
C1222 C1223 1.400 . S
C1223 C1222 1.400 . S
C1223 C1224 1.398 . S
C1223 C1229 1.491 . S
C1224 H1215 0.950 . S
C1224 C1223 1.398 . S
C1224 C1225 1.391 . S
C1225 H1213 0.950 . S
C1225 C1221 1.393 . S
C1225 C1224 1.391 . S
C1226 H1216 0.950 . S
C1226 C1227 1.386 . S
C1226 C1228 1.391 . S
C1227 C1226 1.386 . S
C1227 C1231 1.393 . S
C1228 H1217 0.950 . S
C1228 C1226 1.391 . S
C1228 C1229 1.400 . S
C1229 C1223 1.491 . S
C1229 C1228 1.400 . S
C1229 C1230 1.398 . S
C1230 H1218 0.950 . S
C1230 C1229 1.398 . S
C1230 C1231 1.391 . S
C1231 H1219 0.950 . S
C1231 C1227 1.393 . S
C1231 C1230 1.391 . S
H1232 C1240 0.950 . S
H1233 C1245 0.950 . S
H1234 C1242 0.950 . S
H1235 C1244 0.950 . S
H1236 C1246 0.950 . S
H1237 C1248 0.950 . S
H1238 C1250 0.950 . S
H1239 C1251 0.950 . S
C1240 H1232 0.950 . S
C1240 C1241 1.386 . S
C1240 C1242 1.391 . S
C1241 C1240 1.386 . S
C1241 C1245 1.393 . S
C1242 H1234 0.950 . S
C1242 C1240 1.391 . S
C1242 C1243 1.400 . S
C1243 C1242 1.400 . S
C1243 C1244 1.398 . S
C1243 C1249 1.491 . S
C1244 H1235 0.950 . S
C1244 C1243 1.398 . S
C1244 C1245 1.391 . S
C1245 H1233 0.950 . S
C1245 C1241 1.393 . S
C1245 C1244 1.391 . S
C1246 H1236 0.950 . S
C1246 C1247 1.386 . S
C1246 C1248 1.391 . S
C1247 C1246 1.386 . S
C1247 C1251 1.393 . S
C1248 H1237 0.950 . S
C1248 C1246 1.391 . S
C1248 C1249 1.400 . S
C1249 C1243 1.491 . S
C1249 C1248 1.400 . S
C1249 C1250 1.398 . S
C1250 H1238 0.950 . S
C1250 C1249 1.398 . S
C1250 C1251 1.391 . S
C1251 H1239 0.950 . S
C1251 C1247 1.393 . S
C1251 C1250 1.391 . S
H1252 C1260 0.950 . S
H1253 C1265 0.950 . S
H1254 C1262 0.950 . S
H1255 C1264 0.950 . S
H1256 C1266 0.950 . S
H1257 C1268 0.950 . S
H1258 C1270 0.950 . S
H1259 C1271 0.950 . S
C1260 H1252 0.950 . S
C1260 C1261 1.386 . S
C1260 C1262 1.391 . S
C1261 C1260 1.386 . S
C1261 C1265 1.393 . S
C1262 H1254 0.950 . S
C1262 C1260 1.391 . S
C1262 C1263 1.400 . S
C1263 C1262 1.400 . S
C1263 C1264 1.398 . S
C1263 C1269 1.491 . S
C1264 H1255 0.950 . S
C1264 C1263 1.398 . S
C1264 C1265 1.391 . S
C1265 H1253 0.950 . S
C1265 C1261 1.393 . S
C1265 C1264 1.391 . S
C1266 H1256 0.950 . S
C1266 C1267 1.386 . S
C1266 C1268 1.391 . S
C1267 C1266 1.386 . S
C1267 C1271 1.393 . S
C1268 H1257 0.950 . S
C1268 C1266 1.391 . S
C1268 C1269 1.400 . S
C1269 C1263 1.491 . S
C1269 C1268 1.400 . S
C1269 C1270 1.398 . S
C1270 H1258 0.950 . S
C1270 C1269 1.398 . S
C1270 C1271 1.391 . S
C1271 H1259 0.950 . S
C1271 C1267 1.393 . S
C1271 C1270 1.391 . S
C321 C200 1.337 . S
C327 C5 1.326 . S
C341 C18 1.324 . S
C347 C213 1.339 . S
C361 C31 1.345 . S
C367 C226 1.318 . S
C381 C44 1.345 . S
C387 C161 1.318 . S
C401 C174 1.346 . S
C407 C57 1.318 . S
C421 C70 1.318 . S
C427 C187 1.345 . S
C441 C278 1.322 . S
C447 C83 1.341 . S
C461 C96 1.343 . S
C467 C291 1.320 . S
C481 C109 1.325 . S
C487 C304 1.339 . S
C501 C239 1.318 . S
C507 C122 1.346 . S
C521 C135 1.320 . S
C527 C252 1.344 . S
C541 C265 1.318 . S
C547 C148 1.346 . S
C561 C10 1.156 . S
C567 C309 1.173 . S
C581 C244 1.166 . S
C587 C23 1.163 . S
C601 C36 1.158 . S
C607 C257 1.170 . S
C621 C270 1.166 . S
C627 C49 1.163 . S
C641 C62 1.170 . S
C647 C283 1.159 . S
C661 C296 1.164 . S
C667 C75 1.165 . S
C681 C88 1.155 . S
C687 C179 1.173 . S
C701 C192 1.173 . S
C707 C101 1.156 . S
C721 C205 1.158 . S
C727 C114 1.170 . S
C741 C218 1.154 . S
C747 C127 1.174 . S
C761 C140 1.157 . S
C767 C231 1.171 . S
C781 C153 1.174 . S
C787 C166 1.155 . S
C801 C91 1.152 . S
C807 C0 1.153 . S
C821 C104 1.152 . S
C827 C13 1.151 . S
C841 C117 1.155 . S
C847 C26 1.155 . S
C861 C130 1.152 . S
C867 C39 1.151 . S
C881 C52 1.155 . S
C887 C143 1.155 . S
C901 C65 1.138 . S
C907 C78 1.137 . S
C921 C156 1.135 . S
C927 C247 1.135 . S
C941 C169 1.135 . S
C947 C260 1.135 . S
C961 C273 1.155 . S
C967 C182 1.155 . S
C981 C286 1.142 . S
C987 C195 1.141 . S
C1001 C299 1.155 . S
C1007 C208 1.156 . S
C1021 C234 1.143 . S
C1027 C221 1.141 . S
C1041 C8 1.390 . S
C1047 C255 1.415 . S
C1061 C268 1.416 . S
C1067 C21 1.390 . S
C1081 C34 1.411 . S
C1087 C281 1.394 . S
C1101 C294 1.402 . S
C1107 C47 1.404 . S
C1121 C60 1.416 . S
C1127 C307 1.390 . S
C1141 C242 1.408 . S
C1147 C73 1.397 . S
C1161 C86 1.393 . S
C1167 C229 1.411 . S
C1181 C164 1.415 . S
C1187 C99 1.390 . S
C1201 C112 1.395 . S
C1207 C177 1.411 . S
C1221 C125 1.408 . S
C1227 C190 1.397 . S
C1241 C138 1.397 . S
C1247 C203 1.408 . S
C1261 C151 1.415 . S
C1267 C216 1.390 . S
