# Generated by pormake.
# Topology qtz-x, (6)-cn, num edge types: 1
# Building blocks:
#     Node 0, Type 0, BuildingBlock: KUMBUR_clean_sbu_0, # of connection points: 6
#     Node 1, Type 0, BuildingBlock: KUMBUR_clean_sbu_0, # of connection points: 6
#     Node 2, Type 0, BuildingBlock: KUMBUR_clean_sbu_0, # of connection points: 6
#     Edge 3, Type (0, 0), BuildingBlock: MIFKUJ_clean_linker_0, # of connection points: 2
#     Edge 4, Type (0, 0), BuildingBlock: MIFKUJ_clean_linker_0, # of connection points: 2
#     Edge 5, Type (0, 0), BuildingBlock: MIFKUJ_clean_linker_0, # of connection points: 2
#     Edge 6, Type (0, 0), BuildingBlock: MIFKUJ_clean_linker_0, # of connection points: 2
#     Edge 7, Type (0, 0), BuildingBlock: MIFKUJ_clean_linker_0, # of connection points: 2
#     Edge 8, Type (0, 0), BuildingBlock: MIFKUJ_clean_linker_0, # of connection points: 2
#     Edge 9, Type (0, 0), BuildingBlock: MIFKUJ_clean_linker_0, # of connection points: 2
#     Edge 10, Type (0, 0), BuildingBlock: MIFKUJ_clean_linker_0, # of connection points: 2
#     Edge 11, Type (0, 0), BuildingBlock: MIFKUJ_clean_linker_0, # of connection points: 2
# Relax obj value: 0.167
# Max RMSD: 0.276
# Mean RMSD: 0.276
data_MOF--net-qtz-x--node1-KUMBUR_clean_sbu_0--edge1-MIFKUJ_clean_linker_0
_symmetry_space_group_name_H-M    P1
_symmetry_Int_Tables_number       1
_symmetry_cell_setting            triclinic
loop_
_symmetry_equiv_pos_as_xyz
'x, y, z'
_cell_length_a     19.349785
_cell_length_b     19.303459
_cell_length_c     62.707473
_cell_angle_alpha  89.955339
_cell_angle_beta   89.873921
_cell_angle_gamma 120.141
loop_
_atom_site_label
_atom_site_type_symbol
_atom_site_fract_x
_atom_site_fract_y
_atom_site_fract_z
_atom_type_partial_charge
Tb0 Tb 0.24266 0.49047 0.18945 0.0
C1 C 0.91654 0.4523 0.17338 0.0
C2 C 0.82498 0.33729 0.19441 0.0
C3 C 0.79296 0.44122 0.18643 0.0
C4 C 0.89794 0.38136 0.18334 0.0
C5 C 0.86378 0.48259 0.17448 0.0
C6 C 0.77343 0.36847 0.19631 0.0
C7 C 0.95075 0.58744 0.15009 0.0
N8 N 0.98454 0.48934 0.16162 0.0
C9 C 0.00089 0.55473 0.1494 0.0
C10 C 0.88239 0.55182 0.1629 0.0
Tb11 Tb 0.06138 0.42969 0.16087 0.0
N12 N 0.94826 0.35229 0.18061 0.0
C13 C 0.9265 0.27681 0.18755 0.0
C14 C 0.80432 0.26157 0.20232 0.0
C15 C 0.85517 0.23107 0.19881 0.0
H16 H 0.05346 0.5829 0.13942 0.0
H17 H 0.83894 0.17183 0.20449 0.0
H18 H 0.71726 0.3357 0.20483 0.0
H19 H 0.96466 0.63988 0.14068 0.0
H20 H 0.96432 0.25162 0.18464 0.0
H21 H 0.45845 0.75914 0.14651 0.0
H22 H 0.74789 0.22492 0.21036 0.0
H23 H 0.2604 0.33963 0.20999 0.0
H24 H 0.3334 0.6741 0.16474 0.0
H25 H 0.35548 0.29125 0.20794 0.0
H26 H 0.75175 0.46363 0.18756 0.0
H27 H 0.55767 0.71589 0.14202 0.0
H28 H 0.59956 0.61534 0.1497 0.0
H29 H 0.84337 0.57696 0.16329 0.0
H30 H 0.57003 0.48664 0.16512 0.0
N31 N 0.35663 0.57836 0.17086 0.0
C32 C 0.37439 0.65236 0.16342 0.0
C33 C 0.50171 0.67681 0.15007 0.0
C34 C 0.48532 0.60282 0.15828 0.0
C35 C 0.44609 0.70165 0.1527 0.0
C36 C 0.41139 0.55407 0.16865 0.0
H37 H 0.47941 0.36556 0.18675 0.0
N38 N 0.32665 0.439 0.18899 0.0
C39 C 0.3674 0.34478 0.19933 0.0
C40 C 0.39572 0.48213 0.17786 0.0
C41 C 0.3134 0.37264 0.20039 0.0
C42 C 0.43709 0.38672 0.1873 0.0
C43 C 0.45285 0.45711 0.17677 0.0
O44 O 0.22723 0.54215 0.21747 0.0
O45 O 0.11464 0.43667 0.19154 0.0
O46 O 0.08473 0.53085 0.18112 0.0
O47 O 0.22326 0.5925 0.18429 0.0
O48 O 0.16424 0.38074 0.20705 0.0
O49 O 0.32885 0.52797 0.21398 0.0
O50 O 0.04083 0.43622 0.12816 0.0
O51 O 0.18901 0.47716 0.15865 0.0
O52 O 0.21957 0.38576 0.17074 0.0
O53 O 0.08401 0.32844 0.16273 0.0
O54 O 0.14209 0.527 0.13941 0.0
O55 O 0.9876 0.32246 0.14446 0.0
C56 C 0.09832 0.38022 0.20435 0.0
C57 C 0.27863 0.51838 0.24902 0.0
C58 C 0.29529 0.54541 0.28732 0.0
C59 C 0.30807 0.57307 0.26606 0.0
C60 C 0.25171 0.46271 0.29136 0.0
C61 C 0.23861 0.43589 0.25352 0.0
C62 C 0.22409 0.4084 0.27453 0.0
C63 C 0.15551 0.5944 0.18493 0.0
C64 C 0.28971 0.54842 0.22683 0.0
C65 C 0.52527 0.5046 0.166 0.0
C66 C 0.5418 0.57764 0.15703 0.0
C67 C 0.2073 0.52852 0.14414 0.0
C68 C 0.91263 0.33826 0.1169 0.0
C69 C 0.91017 0.35108 0.09492 0.0
C70 C 0.83803 0.33406 0.08499 0.0
C71 C 0.76837 0.30427 0.09753 0.0
C72 C 0.84203 0.3072 0.12897 0.0
C73 C 0.77051 0.29072 0.11932 0.0
C74 C 0.15081 0.32527 0.16411 0.0
C75 C 0.98975 0.35987 0.12693 0.0
H76 H 0.34091 0.63689 0.26282 0.0
H77 H 0.24156 0.44004 0.30756 0.0
H78 H 0.2191 0.39216 0.24101 0.0
H79 H 0.19228 0.34467 0.27777 0.0
H80 H 0.96451 0.37367 0.08559 0.0
H81 H 0.71222 0.29215 0.09057 0.0
H82 H 0.84187 0.29569 0.14584 0.0
H83 H 0.71652 0.26758 0.12879 0.0
Tb84 Tb 0.63639 0.92668 0.5204 0.0
C85 C 0.89788 0.27812 0.50801 0.0
C86 C 0.86392 0.34973 0.53362 0.0
C87 C 0.0028 0.40156 0.52358 0.0
C88 C 0.8413 0.28372 0.51998 0.0
C89 C 0.97903 0.3382 0.50908 0.0
C90 C 0.94525 0.40725 0.53588 0.0
C91 C 0.00478 0.27422 0.4795 0.0
N92 N 0.87223 0.21668 0.49404 0.0
C93 C 0.92342 0.21661 0.47896 0.0
C94 C 0.03299 0.33459 0.49487 0.0
Tb95 Tb 0.73875 0.12319 0.49462 0.0
N96 N 0.76345 0.2278 0.51692 0.0
C97 C 0.70474 0.239 0.52557 0.0
C98 C 0.804 0.35779 0.54379 0.0
C99 C 0.72406 0.30309 0.53939 0.0
H100 H 0.90176 0.17075 0.46685 0.0
H101 H 0.67715 0.31 0.54669 0.0
H102 H 0.96391 0.45789 0.54647 0.0
H103 H 0.04551 0.27235 0.46796 0.0
H104 H 0.64251 0.19754 0.52252 0.0
H105 H 0.70295 0.75465 0.46427 0.0
H106 H 0.81877 0.40749 0.55444 0.0
H107 H 0.47249 0.86863 0.54889 0.0
H108 H 0.73518 0.8608 0.49053 0.0
H109 H 0.32897 0.7668 0.54668 0.0
H110 H 0.06501 0.44787 0.52485 0.0
H111 H 0.56199 0.65756 0.45564 0.0
H112 H 0.41609 0.60372 0.46359 0.0
H113 H 0.09573 0.37986 0.49506 0.0
H114 H 0.31332 0.60725 0.48609 0.0
N115 N 0.61352 0.82678 0.49656 0.0
C116 C 0.67326 0.81914 0.48713 0.0
C117 C 0.57572 0.70431 0.46723 0.0
C118 C 0.51481 0.70887 0.47801 0.0
C119 C 0.6553 0.7588 0.47212 0.0
C120 C 0.53609 0.77123 0.49283 0.0
H121 H 0.28048 0.66696 0.51751 0.0
N122 N 0.50331 0.8313 0.52027 0.0
C123 C 0.37026 0.76866 0.5347 0.0
C124 C 0.4786 0.77376 0.50514 0.0
C125 C 0.45141 0.82659 0.53583 0.0
C126 C 0.34304 0.71261 0.51819 0.0
C127 C 0.3978 0.71338 0.50345 0.0
O128 O 0.62689 0.90379 0.55347 0.0
O129 O 0.70546 0.05538 0.52401 0.0
O130 O 0.83141 0.10748 0.50915 0.0
O131 O 0.76334 0.96812 0.51444 0.0
O132 O 0.614 0.99235 0.54518 0.0
O133 O 0.68153 0.85599 0.53298 0.0
O134 O 0.75209 0.14512 0.46157 0.0
O135 O 0.66763 0.99505 0.49123 0.0
O136 O 0.54245 0.94608 0.50836 0.0
O137 O 0.61289 0.08465 0.50121 0.0
O138 O 0.75805 0.0542 0.46996 0.0
O139 O 0.69249 0.19119 0.481 0.0
C140 C 0.67075 0.06286 0.54016 0.0
C141 C 0.60949 0.77865 0.56305 0.0
C142 C 0.57362 0.69884 0.5959 0.0
C143 C 0.62248 0.77114 0.5848 0.0
C144 C 0.51146 0.63453 0.58468 0.0
C145 C 0.54891 0.71271 0.5522 0.0
C146 C 0.49998 0.64132 0.563 0.0
C147 C 0.82919 0.03919 0.51313 0.0
C148 C 0.65639 0.85662 0.55222 0.0
C149 C 0.37528 0.65367 0.48785 0.0
C150 C 0.43379 0.65156 0.47508 0.0
C151 C 0.69839 0.98504 0.47467 0.0
C152 C 0.77049 0.27041 0.45159 0.0
C153 C 0.78903 0.27248 0.42981 0.0
C154 C 0.83692 0.34591 0.41924 0.0
C155 C 0.86552 0.41754 0.43079 0.0
C156 C 0.80044 0.34269 0.46286 0.0
C157 C 0.84743 0.41573 0.45244 0.0
C158 C 0.54626 0.01514 0.5042 0.0
C159 C 0.72227 0.19215 0.46225 0.0
H160 H 0.67101 0.82149 0.59292 0.0
H161 H 0.47089 0.57883 0.59265 0.0
H162 H 0.53894 0.71643 0.53542 0.0
H163 H 0.45245 0.59117 0.55456 0.0
H164 H 0.76589 0.21673 0.42108 0.0
H165 H 0.90314 0.47494 0.42318 0.0
H166 H 0.78799 0.34291 0.4797 0.0
H167 H 0.87044 0.47121 0.46123 0.0
Tb168 Tb 0.6682 0.56907 0.85411 0.0
C169 C 0.72303 0.28452 0.83958 0.0
C170 C 0.8383 0.31303 0.86085 0.0
C171 C 0.73942 0.17505 0.85267 0.0
C172 C 0.79235 0.33909 0.84966 0.0
C173 C 0.69605 0.20183 0.84069 0.0
C174 C 0.81066 0.23063 0.86268 0.0
C175 C 0.58956 0.17914 0.81658 0.0
N176 N 0.68393 0.31301 0.82785 0.0
C177 C 0.61928 0.26179 0.81579 0.0
C178 C 0.62765 0.1489 0.82925 0.0
Tb179 Tb 0.73753 0.44934 0.82736 0.0
N180 N 0.8175 0.41808 0.84726 0.0
C181 C 0.89098 0.47443 0.85469 0.0
C182 C 0.91208 0.3706 0.86912 0.0
C183 C 0.93866 0.45166 0.86596 0.0
H184 H 0.58906 0.28412 0.80595 0.0
H185 H -0.00377 0.49668 0.87204 0.0
H186 H 0.8448 0.20943 0.87138 0.0
H187 H 0.53734 0.13887 0.80739 0.0
H188 H 0.91298 0.53735 0.85231 0.0
H189 H 0.41432 0.52369 0.80741 0.0
H190 H 0.95014 0.35315 0.87725 0.0
H191 H 0.81246 0.73353 0.8771 0.0
H192 H 0.49438 0.48212 0.82836 0.0
H193 H 0.86556 0.87893 0.87535 0.0
H194 H 0.71953 0.11174 0.85382 0.0
H195 H 0.46256 0.66749 0.80173 0.0
H196 H 0.56854 0.81091 0.80766 0.0
H197 H 0.60485 0.0849 0.82971 0.0
H198 H 0.69199 0.90797 0.82606 0.0
N199 N 0.58999 0.60113 0.8337 0.0
C200 C 0.51721 0.54512 0.8258 0.0
C201 C 0.49922 0.64958 0.81039 0.0
C202 C 0.57235 0.70679 0.81906 0.0
C203 C 0.4714 0.5684 0.81382 0.0
C204 C 0.61638 0.68023 0.83096 0.0
H205 H 0.8027 0.93386 0.8516 0.0
N206 N 0.72176 0.70546 0.85387 0.0
C207 C 0.81482 0.83899 0.86565 0.0
C208 C 0.68493 0.73449 0.84139 0.0
C209 C 0.78436 0.75624 0.86659 0.0
C210 C 0.77938 0.86979 0.85217 0.0
C211 C 0.71266 0.81729 0.8401 0.0
O212 O 0.66764 0.58565 0.88727 0.0
O213 O 0.7203 0.49362 0.85708 0.0
O214 O 0.63624 0.36829 0.84718 0.0
O215 O 0.57252 0.44332 0.84972 0.0
O216 O 0.76519 0.5915 0.87611 0.0
O217 O 0.55783 0.5298 0.8696 0.0
O218 O 0.73694 0.42363 0.7947 0.0
O219 O 0.68588 0.52515 0.82423 0.0
O220 O 0.7716 0.65165 0.83518 0.0
O221 O 0.83367 0.57519 0.83124 0.0
O222 O 0.64149 0.42773 0.80516 0.0
O223 O 0.84774 0.49531 0.81152 0.0
C224 C 0.77039 0.52939 0.87165 0.0
C225 C 0.5639 0.60296 0.90057 0.0
C226 C 0.52334 0.63196 0.93476 0.0
C227 C 0.5433 0.58417 0.92219 0.0
C228 C 0.52338 0.69817 0.92544 0.0
C229 C 0.56234 0.66855 0.89146 0.0
C230 C 0.54216 0.71585 0.90387 0.0
C231 C 0.57214 0.37441 0.85088 0.0
C232 C 0.5908 0.55615 0.88815 0.0
C233 C 0.6714 0.84456 0.82739 0.0
C234 C 0.60115 0.78932 0.81692 0.0
C235 C 0.63681 0.49028 0.80937 0.0
C236 C 0.84784 0.41403 0.78319 0.0
C237 C 0.83938 0.40265 0.76103 0.0
C238 C 0.87072 0.36032 0.75033 0.0
C239 C 0.9111 0.32972 0.7622 0.0
C240 C 0.888 0.38263 0.79476 0.0
C241 C 0.91946 0.3408 0.78426 0.0
C242 C 0.83481 0.6446 0.83086 0.0
C243 C 0.81454 0.45906 0.79373 0.0
H244 H 0.54463 0.53368 0.92934 0.0
H245 H 0.50802 0.73566 0.93482 0.0
H246 H 0.57712 0.68353 0.87486 0.0
H247 H 0.54148 0.76663 0.89676 0.0
H248 H 0.80888 0.42747 0.7521 0.0
H249 H 0.93494 0.29594 0.7545 0.0
H250 H 0.89535 0.39053 0.81184 0.0
H251 H 0.95021 0.31659 0.79327 0.0
H252 H 0.03219 0.6196 0.19473 0.0
H253 H 0.03182 0.74557 0.19179 0.0
H254 H 0.28554 0.87121 0.17956 0.0
H255 H 0.28638 0.74563 0.18222 0.0
H256 H 0.11431 0.89894 0.2107 0.0
H257 H 0.31663 0.99193 0.13627 0.0
H258 H 0.3564 0.9279 0.10854 0.0
H259 H 0.13073 0.71041 0.11502 0.0
H260 H 0.08923 0.77364 0.1425 0.0
H261 H 0.27437 0.30058 0.15487 0.0
H262 H 0.27425 0.17427 0.15776 0.0
H263 H 0.0202 0.04905 0.16958 0.0
H264 H 0.01984 0.17526 0.1669 0.0
H265 H 0.19153 0.02117 0.13853 0.0
H266 H 0.99063 0.92907 0.21352 0.0
H267 H 0.95308 0.99331 0.24171 0.0
H268 H 0.17839 0.21062 0.23437 0.0
H269 H 0.21786 0.14726 0.20645 0.0
C270 C 0.08811 0.67411 0.19157 0.0
C271 C 0.15875 0.67202 0.18777 0.0
C272 C 0.08784 0.74612 0.19011 0.0
C273 C 0.15828 0.81714 0.18496 0.0
C274 C 0.23025 0.81652 0.18314 0.0
C275 C 0.23055 0.74453 0.18462 0.0
C276 C 0.15515 0.88993 0.1794 0.0
C277 C 0.13035 0.92524 0.19488 0.0
C278 C 0.17718 0.92458 0.15881 0.0
C279 C 0.2002 0.88728 0.14159 0.0
C280 C 0.27532 0.93065 0.13166 0.0
C281 C 0.2982 0.89446 0.11601 0.0
C282 C 0.24626 0.81503 0.11009 0.0
C283 C 0.17104 0.77181 0.11968 0.0
C284 C 0.14782 0.80779 0.13528 0.0
C285 C 0.2182 0.2459 0.15771 0.0
C286 C 0.14734 0.2479 0.16109 0.0
C287 C 0.21822 0.17382 0.15922 0.0
C288 C 0.1475 0.10287 0.16424 0.0
C289 C 0.07554 0.10362 0.16594 0.0
C290 C 0.07538 0.17568 0.16432 0.0
C291 C 0.15049 0.03006 0.16981 0.0
C292 C 0.17536 0.99481 0.15434 0.0
C293 C 0.12878 0.99565 0.19043 0.0
C294 C 0.10677 0.03354 0.20773 0.0
C295 C 0.03233 0.99037 0.21802 0.0
C296 C 0.01071 0.02667 0.23394 0.0
C297 C 0.06324 0.10603 0.23979 0.0
C298 C 0.13768 0.14921 0.22979 0.0
C299 C 0.15968 0.11313 0.21391 0.0
H300 H 0.04631 0.13401 0.25209 0.0
H301 H 0.26423 0.78703 0.09804 0.0
H302 H 0.45249 0.9734 0.53883 0.0
H303 H 0.33182 0.98166 0.5438 0.0
H304 H 0.35893 0.078 0.48017 0.0
H305 H 0.4806 0.06936 0.47522 0.0
H306 H 0.32551 0.16073 0.51011 0.0
H307 H 0.22546 0.88382 0.49041 0.0
H308 H 0.21052 0.74968 0.49391 0.0
H309 H 0.11586 0.7274 0.55713 0.0
H310 H 0.13151 0.86201 0.55416 0.0
H311 H 0.94579 0.08936 0.48372 0.0
H312 H 0.07381 0.09492 0.48709 0.0
H313 H 0.0084 0.99425 0.55045 0.0
H314 H 0.8795 0.98982 0.54704 0.0
H315 H 0.06433 0.91856 0.52605 0.0
H316 H 0.14854 0.18734 0.54449 0.0
H317 H 0.16144 0.32064 0.5414 0.0
H318 H 0.28528 0.35972 0.48179 0.0
H319 H 0.2717 0.22593 0.48425 0.0
C320 C 0.43108 0.99382 0.52572 0.0
C321 C 0.47287 0.01759 0.50636 0.0
C322 C 0.36308 -0.0004 0.52866 0.0
C323 C 0.33611 0.02902 0.5122 0.0
C324 C 0.37898 0.05462 0.49296 0.0
C325 C 0.44762 0.04929 0.49008 0.0
C326 C 0.26301 0.03308 0.51516 0.0
C327 C 0.26811 0.10787 0.51337 0.0
C328 C 0.18936 0.96422 0.52035 0.0
C329 C 0.1803 0.88332 0.52213 0.0
C330 C 0.20211 0.85063 0.50513 0.0
C331 C 0.19336 0.77443 0.507 0.0
C332 C 0.16216 0.73003 0.52572 0.0
C333 C 0.13994 0.76184 0.54264 0.0
C334 C 0.14872 0.83806 0.54087 0.0
C335 C 0.95999 0.07107 0.49857 0.0
C336 C 0.90501 0.04174 0.51538 0.0
C337 C 0.03263 0.07366 0.50046 0.0
C338 C 0.051 0.04688 0.51923 0.0
C339 C -0.00469 0.01614 0.53598 0.0
C340 C 0.92223 0.01343 0.53403 0.0
C341 C 0.12623 0.04594 0.52042 0.0
C342 C 0.12179 0.97176 0.52306 0.0
C343 C 0.20047 0.11545 0.51612 0.0
C344 C 0.20878 0.19621 0.51453 0.0
C345 C 0.17797 0.224 0.53062 0.0
C346 C 0.18548 0.29974 0.529 0.0
C347 C 0.22434 0.34867 0.51144 0.0
C348 C 0.25538 0.3218 0.49541 0.0
C349 C 0.24782 0.24601 0.49692 0.0
H350 H 0.23047 0.40745 0.51026 0.0
H351 H 0.15505 0.67091 0.52712 0.0
H352 H 0.9837 0.66168 0.83238 0.0
H353 H 0.11083 0.78678 0.83466 0.0
H354 H 0.98964 0.92074 0.8256 0.0
H355 H 0.86194 0.79563 0.82287 0.0
H356 H 0.14152 0.98921 0.80524 0.0
H357 H 0.01929 0.88576 0.87384 0.0
H358 H 0.95604 0.77851 0.90077 0.0
H359 H 0.17071 0.76547 0.90491 0.0
H360 H 0.23473 0.87156 0.87762 0.0
H361 H 0.42266 0.35537 0.8485 0.0
H362 H 0.29642 0.22932 0.84633 0.0
H363 H 0.41973 0.09832 0.85706 0.0
H364 H 0.54647 0.22447 0.85982 0.0
H365 H 0.26774 0.02738 0.87646 0.0
H366 H 0.39059 0.12996 0.80826 0.0
H367 H 0.45483 0.23613 0.78108 0.0
H368 H 0.24053 0.2494 0.77585 0.0
H369 H 0.1755 0.14435 0.80335 0.0
C370 C 0.98397 0.71753 0.83047 0.0
C371 C 0.91241 0.71885 0.82816 0.0
C372 C 0.05676 0.78896 0.83178 0.0
C373 C 0.05906 0.86264 0.83076 0.0
C374 C 0.98876 0.86427 0.82661 0.0
C375 C 0.91585 0.79278 0.82527 0.0
C376 C 0.13313 0.93727 0.83621 0.0
C377 C 0.16875 -0.00199 0.82084 0.0
C378 C 0.16891 0.94773 0.85652 0.0
C379 C 0.13163 0.88622 0.87356 0.0
C380 C 0.05293 0.85981 0.88042 0.0
C381 C 0.0169 0.79918 0.89574 0.0
C382 C 0.05931 0.76514 0.90453 0.0
C383 C 0.13794 0.79188 0.89807 0.0
C384 C 0.17414 0.85229 0.88268 0.0
C385 C 0.42299 0.29998 0.85083 0.0
C386 C 0.49491 0.29976 0.85362 0.0
C387 C 0.35073 0.228 0.84957 0.0
C388 C 0.34932 0.1548 0.85104 0.0
C389 C 0.4199 0.15436 0.85569 0.0
C390 C 0.49227 0.22644 0.85704 0.0
C391 C 0.27598 0.07951 0.84551 0.0
C392 C 0.24054 0.0186 0.86084 0.0
C393 C 0.2405 0.06874 0.82514 0.0
C394 C 0.27836 0.1297 0.808 0.0
C395 C 0.35726 0.15575 0.80139 0.0
C396 C 0.39385 0.21578 0.78594 0.0
C397 C 0.35183 0.24959 0.77677 0.0
C398 C 0.27302 0.22318 0.78298 0.0
C399 C 0.23624 0.16337 0.7985 0.0
H400 H 0.38027 0.29614 0.76483 0.0
H401 H 0.03131 0.71813 0.91637 0.0
H402 H 0.40252 0.49487 0.95232 0.0
H403 H 0.36066 0.47131 0.98998 0.0
H404 H 0.55712 0.70457 1.00619 0.0
H405 H 0.5976 0.7291 0.96856 0.0
H406 H 0.52737 0.5724 0.03582 0.0
H407 H 0.39862 0.70088 1.00052 0.0
H408 H 0.3159 0.71365 0.97269 0.0
H409 H 0.11704 0.48537 0.99068 0.0
H410 H 0.19926 0.47066 0.01843 0.0
H411 H 0.2662 0.65467 0.11748 0.0
H412 H 0.33888 0.67195 0.0842 0.0
H413 H 0.35278 0.46045 0.09836 0.0
H414 H 0.28158 0.44441 0.13206 0.0
H415 H 0.27646 0.57102 0.05311 0.0
H416 H 0.48649 0.45172 0.06876 0.0
H417 H 0.58602 0.45714 0.09431 0.0
H418 H 0.63716 0.69048 0.1147 0.0
H419 H 0.5359 0.68504 0.08981 0.0
C420 C 0.4372 0.54047 0.96402 0.0
C421 C 0.50298 0.61387 0.95764 0.0
C422 C 0.41333 0.52703 0.98546 0.0
C423 C 0.45589 0.58623 1.00083 0.0
C424 C 0.52378 0.65804 0.99458 0.0
C425 C 0.54657 0.67215 0.97313 0.0
C426 C 0.42634 0.57653 0.0231 0.0
C427 C 0.47216 0.57141 0.03965 0.0
C428 C 0.35482 0.57597 0.02806 0.0
C429 C 0.30539 0.58418 0.01133 0.0
C430 C 0.33758 0.65296 0.99837 0.0
C431 C 0.29076 0.66065 0.98265 0.0
C432 C 0.21139 0.60029 0.97989 0.0
C433 C 0.17863 0.532 0.99282 0.0
C434 C 0.22532 0.52394 1.00854 0.0
C435 C 0.2871 0.6134 0.1138 0.0
C436 C 0.26817 0.54823 0.12731 0.0
C437 C 0.32831 0.62301 0.09472 0.0
C438 C 0.35074 0.56707 0.08854 0.0
C439 C 0.3369 0.50492 0.10277 0.0
C440 C 0.2961 0.4957 0.12207 0.0
C441 C 0.37831 0.56853 0.0662 0.0
C442 C 0.33134 0.57113 0.04946 0.0
C443 C 0.44912 0.56751 0.06112 0.0
C444 C 0.50331 0.56758 0.07765 0.0
C445 C 0.51821 0.50357 0.07896 0.0
C446 C 0.57472 0.50657 0.09334 0.0
C447 C 0.61757 0.57393 0.10621 0.0
C448 C 0.60325 0.63796 0.1049 0.0
C449 C 0.54571 0.63459 0.09084 0.0
H450 H 0.662 0.57661 0.11717 0.0
H451 H 0.17531 0.60679 0.96778 0.0
H452 H 0.88599 0.2525 0.39894 0.0
H453 H 0.92211 0.25669 0.36132 0.0
H454 H 0.87293 0.44826 0.35018 0.0
H455 H 0.83584 0.44375 0.38776 0.0
H456 H 0.80824 0.33399 0.31934 0.0
H457 H 0.05979 0.4865 0.35361 0.0
H458 H 0.16779 0.51726 0.37923 0.0
H459 H 0.19537 0.32615 0.35377 0.0
H460 H 0.08596 0.29264 0.32838 0.0
H461 H 0.02168 0.45897 0.21873 0.0
H462 H 0.96137 0.44482 0.254 0.0
H463 H -0.00015 0.24808 0.26816 0.0
H464 H 0.05884 0.26123 0.23278 0.0
H465 H 0.07082 0.37107 0.29714 0.0
H466 H 0.80068 0.20191 0.26957 0.0
H467 H 0.68595 0.16456 0.24574 0.0
H468 H 0.70154 0.39115 0.25746 0.0
H469 H 0.81475 0.42856 0.28196 0.0
C470 C 0.88238 0.29517 0.38845 0.0
C471 C 0.8581 0.34785 0.39633 0.0
C472 C 0.9037 0.29797 0.367 0.0
C473 C 0.901 0.35335 0.35297 0.0
C474 C 0.87578 0.40529 0.36073 0.0
C475 C 0.85505 0.40295 0.38222 0.0
C476 C 0.92322 0.35603 0.33015 0.0
C477 C 0.86618 0.34328 0.31451 0.0
C478 C -0.00167 0.36683 0.32379 0.0
C479 C 0.06352 0.38615 0.3393 0.0
C480 C 0.0879 0.45012 0.35368 0.0
C481 C 0.14955 0.46818 0.36814 0.0
C482 C 0.18805 0.42336 0.36821 0.0
C483 C 0.1652 0.36056 0.35377 0.0
C484 C 0.10323 0.3419 0.33937 0.0
C485 C 0.01447 0.41078 0.22903 0.0
C486 C 0.04476 0.36094 0.22302 0.0
C487 C 0.98018 0.40287 0.24924 0.0
C488 C 0.97638 0.34557 0.26376 0.0
C489 C 0.0022 0.29273 0.25723 0.0
C490 C 0.03559 0.30005 0.23701 0.0
C491 C 0.9553 0.34723 0.28648 0.0
C492 C 0.01298 0.3617 0.30206 0.0
C493 C 0.88121 0.33832 0.29281 0.0
C494 C 0.8163 0.31819 0.27737 0.0
C495 C 0.77983 0.24385 0.26694 0.0
C496 C 0.71469 0.22242 0.2535 0.0
C497 C 0.68667 0.27558 0.25002 0.0
C498 C 0.72334 0.35006 0.26015 0.0
C499 C 0.78754 0.37115 0.27395 0.0
H500 H 0.6365 0.259 0.2395 0.0
H501 H 0.23562 0.4373 0.37945 0.0
H502 H 0.71574 0.65021 0.79789 0.0
H503 H 0.70424 0.70492 0.76363 0.0
H504 H 0.51059 0.47243 0.74581 0.0
H505 H 0.52062 0.41785 0.78016 0.0
H506 H 0.67966 0.56413 0.72041 0.0
H507 H 0.43454 0.57056 0.74264 0.0
H508 H 0.3604 0.61474 0.76572 0.0
H509 H 0.55027 0.85888 0.75978 0.0
H510 H 0.62464 0.81602 0.73633 0.0
H511 H 0.55127 0.56395 0.61682 0.0
H512 H 0.56378 0.54621 0.65459 0.0
H513 H 0.64441 0.79602 0.66554 0.0
H514 H 0.62487 0.81273 0.62783 0.0
H515 H 0.55002 0.71591 0.69603 0.0
H516 H 0.77542 0.71444 0.66605 0.0
H517 H 0.84654 0.67501 0.64051 0.0
H518 H 0.70958 0.431 0.66183 0.0
H519 H 0.63713 0.46879 0.68738 0.0
C520 C 0.66861 0.61157 0.78708 0.0
C521 C 0.61876 0.52972 0.79174 0.0
C522 C 0.66235 0.64286 0.76745 0.0
C523 C 0.6067 0.59257 0.75222 0.0
C524 C 0.55364 0.51223 0.75741 0.0
C525 C 0.55942 0.48119 0.77702 0.0
C526 C 0.61174 0.61948 0.72985 0.0
C527 C 0.6512 0.59713 0.71499 0.0
C528 C 0.57734 0.66496 0.72301 0.0
C529 C 0.53513 0.69015 0.73795 0.0
C530 C 0.46051 0.63355 0.74639 0.0
C531 C 0.41815 0.65842 0.75933 0.0
C532 C 0.45047 0.73962 0.76414 0.0
C533 C 0.52521 0.79608 0.75599 0.0
C534 C 0.56728 0.77159 0.7428 0.0
C535 C 0.57053 0.6152 0.62718 0.0
C536 C 0.58656 0.68986 0.61904 0.0
C537 C 0.57921 0.60521 0.64887 0.0
C538 C 0.60696 0.67013 0.66301 0.0
C539 C 0.62351 0.74498 0.655 0.0
C540 C 0.6132 0.75469 0.63329 0.0
C541 C 0.61611 0.65858 0.68616 0.0
C542 C 0.57986 0.68408 0.70129 0.0
C543 C 0.65489 0.61698 0.6933 0.0
C544 C 0.70038 0.59441 0.67852 0.0
C545 C 0.76033 0.65234 0.66526 0.0
C546 C 0.80087 0.63028 0.65078 0.0
C547 C 0.78224 0.5505 0.64946 0.0
C548 C 0.72375 0.49275 0.66282 0.0
C549 C 0.68311 0.51451 0.67736 0.0
H550 H 0.81323 0.53348 0.6381 0.0
H551 H 0.41781 0.7587 0.77427 0.0
H552 H 0.90058 0.59979 0.89673 0.0
H553 H 0.92047 0.54868 0.93055 0.0
H554 H 0.70392 0.32377 0.91997 0.0
H555 H 0.68481 0.37416 0.88594 0.0
H556 H 0.70839 0.41442 0.95765 0.0
H557 H 0.85864 0.28956 0.92996 0.0
H558 H 0.96367 0.28426 0.90882 0.0
H559 H 0.14046 0.50983 0.93504 0.0
H560 H 0.03641 0.51468 0.95693 0.0
H561 H 0.71918 0.24127 0.05672 0.0
H562 H 0.71273 0.26508 0.01874 0.0
H563 H 0.9445 0.47866 0.02205 0.0
H564 H 0.95057 0.45688 0.06025 0.0
H565 H 0.93045 0.3858 0.98718 0.0
H566 H 0.78476 0.49683 0.01974 0.0
H567 H 0.68298 0.50196 0.04235 0.0
H568 H 0.49656 0.31156 1.00607 0.0
H569 H 0.59725 0.30434 0.98345 0.0
C570 C 0.85898 0.53842 0.90129 0.0
C571 C 0.79152 0.4908 0.88872 0.0
C572 C 0.87044 0.5092 0.92054 0.0
C573 C 0.81364 0.43245 0.92774 0.0
C574 C 0.74869 0.38295 0.91459 0.0
C575 C 0.738 0.4117 0.89511 0.0
C576 C 0.81505 0.41039 0.9503 0.0
C577 C 0.7558 0.40616 0.96408 0.0
C578 C 0.8786 0.40315 0.95875 0.0
C579 C 0.94015 0.4028 0.94488 0.0
C580 C 0.9199 0.33815 0.9311 0.0
C581 C 0.97925 0.33491 0.91914 0.0
C582 C 0.05861 0.39701 0.92046 0.0
C583 C 0.07895 0.46195 0.93398 0.0
C584 C 0.02002 0.46463 0.94631 0.0
C585 C 0.76846 0.29394 0.04949 0.0
C586 C 0.8352 0.34741 0.06166 0.0
C587 C 0.76478 0.30719 0.02773 0.0
C588 C 0.82782 0.37396 0.01762 0.0
C589 C 0.89523 0.42666 0.02955 0.0
C590 C 0.89872 0.41384 0.05138 0.0
C591 C 0.82312 0.3888 0.9946 0.0
C592 C 0.88216 0.39268 0.98079 0.0
C593 C 0.75944 0.39643 0.98616 0.0
C594 C 0.69866 0.39932 1.00006 0.0
C595 C 0.72209 0.45532 0.01675 0.0
C596 C 0.66459 0.45879 0.02953 0.0
C597 C 0.58338 0.40698 0.02568 0.0
C598 C 0.5595 0.35155 1.00906 0.0
C599 C 0.61677 0.34773 0.99625 0.0
H600 H 0.53895 0.40996 0.03554 0.0
H601 H 0.10435 0.39464 0.91106 0.0
H602 H 0.45195 0.65682 0.29267 0.0
H603 H 0.51569 0.73287 0.32514 0.0
H604 H 0.28489 0.63515 0.35534 0.0
H605 H 0.22097 0.55726 0.32302 0.0
H606 H 0.4039 0.81163 0.36246 0.0
H607 H 0.36843 0.54679 0.36764 0.0
H608 H 0.37819 0.43167 0.35449 0.0
H609 H 0.63382 0.57837 0.35146 0.0
H610 H 0.6252 0.69474 0.36424 0.0
H611 H 0.5363 0.90602 0.46851 0.0
H612 H 0.46297 0.82724 0.43751 0.0
H613 H 0.68378 0.86785 0.40921 0.0
H614 H 0.75705 0.94423 0.44075 0.0
H615 H 0.56514 0.71781 0.40139 0.0
H616 H 0.60379 0.98302 0.39554 0.0
H617 H 0.59713 0.09971 0.40885 0.0
H618 H 0.34132 0.95724 0.41261 0.0
H619 H 0.3466 0.83927 0.39963 0.0
C620 C 0.41478 0.65306 0.30607 0.0
C621 C 0.3317 0.60134 0.30542 0.0
C622 C 0.45117 0.69616 0.3246 0.0
C623 C 0.40489 0.68915 0.34262 0.0
C624 C 0.32144 0.64126 0.34157 0.0
C625 C 0.28514 0.59685 0.32318 0.0
C626 C 0.44432 0.72615 0.36306 0.0
C627 C 0.43837 0.79066 0.37114 0.0
C628 C 0.49041 0.69951 0.3741 0.0
C629 C 0.49603 0.62958 0.36666 0.0
C630 C 0.4266 0.5546 0.36398 0.0
C631 C 0.43194 0.48912 0.35662 0.0
C632 C 0.50661 0.49774 0.35208 0.0
C633 C 0.57603 0.57182 0.35495 0.0
C634 C 0.57092 0.63755 0.36225 0.0
C635 C 0.56897 0.89646 0.45597 0.0
C636 C 0.65221 0.92996 0.4572 0.0
C637 C 0.52709 0.85209 0.43813 0.0
C638 C 0.56801 0.8426 0.42088 0.0
C639 C 0.65093 0.87431 0.42232 0.0
C640 C 0.69273 0.91809 0.44027 0.0
C641 C 0.52526 0.80384 0.40085 0.0
C642 C 0.53063 0.73892 0.39279 0.0
C643 C 0.47926 0.83066 0.38974 0.0
C644 C 0.47562 0.90217 0.39676 0.0
C645 C 0.54613 0.97652 0.39926 0.0
C646 C 0.54262 0.04287 0.40676 0.0
C647 C 0.46885 0.03584 0.41161 0.0
C648 C 0.39842 0.96255 0.40886 0.0
C649 C 0.40162 0.89594 0.40141 0.0
H650 H 0.46624 0.08721 0.41747 0.0
H651 H 0.51069 0.44699 0.34639 0.0
H652 H 0.98 0.37076 0.72064 0.0
H653 H 0.95828 0.34017 0.68248 0.0
H654 H 0.71502 0.28862 0.68903 0.0
H655 H 0.73569 0.31744 0.72717 0.0
H656 H 0.72677 0.16963 0.66852 0.0
H657 H 0.85542 0.45598 0.66674 0.0
H658 H 0.962 0.59526 0.67269 0.0
H659 H 0.12278 0.55617 0.63408 0.0
H660 H 0.01717 0.4162 0.62805 0.0
H661 H 0.59173 0.10954 0.56607 0.0
H662 H 0.6408 0.18632 0.59901 0.0
H663 H 0.87686 0.22578 0.58584 0.0
H664 H 0.828 0.15058 0.55233 0.0
H665 H 0.87821 0.35397 0.60897 0.0
H666 H 0.75793 0.06957 0.6123 0.0
H667 H 0.65282 0.93162 0.60424 0.0
H668 H 0.48367 0.96452 0.64079 0.0
H669 H 0.58716 0.10426 0.64832 0.0
C670 C 0.92189 0.35288 0.71394 0.0
C671 C 0.85947 0.34628 0.72695 0.0
C672 C 0.90983 0.33614 0.69211 0.0
C673 C 0.83515 0.31245 0.68292 0.0
C674 C 0.77316 0.30692 0.69581 0.0
C675 C 0.78523 0.32392 0.71758 0.0
C676 C 0.81966 0.28878 0.66016 0.0
C677 C 0.75935 0.21036 0.65553 0.0
C678 C 0.86433 0.34111 0.64324 0.0
C679 C 0.9283 0.42515 0.64708 0.0
C680 C 0.9136 0.47673 0.65966 0.0
C681 C 0.97387 0.55595 0.66302 0.0
C682 C 0.04923 0.58453 0.65382 0.0
C683 C 0.06439 0.53394 0.64122 0.0
C684 C 0.00425 0.45466 0.6378 0.0
C685 C 0.65467 0.13697 0.56988 0.0
C686 C 0.70623 0.12459 0.55677 0.0
C687 C 0.68267 0.18082 0.58865 0.0
C688 C 0.76204 0.21033 0.59506 0.0
C689 C 0.81539 0.20343 0.58117 0.0
C690 C 0.7875 0.16043 0.56209 0.0
C691 C 0.78443 0.23567 0.61751 0.0
C692 C 0.84606 0.31362 0.62205 0.0
C693 C 0.742 0.18273 0.63451 0.0
C694 C 0.68023 0.09773 0.63072 0.0
C695 C 0.69822 0.04766 0.6185 0.0
C696 C 0.63886 0.96911 0.614 0.0
C697 C 0.56162 0.93911 0.62204 0.0
C698 C 0.54355 0.98782 0.63457 0.0
C699 C 0.6025 0.06685 0.6389 0.0
H700 H 0.51583 0.87813 0.61857 0.0
H701 H 0.09583 0.6459 0.65643 0.0
loop_
_geom_bond_atom_site_label_1
_geom_bond_atom_site_label_2
_geom_bond_distance
_geom_bond_site_symmetry_2
_ccdc_geom_bond_type
Tb0 N31 2.660 . S
Tb0 N38 2.600 . S
Tb0 O44 2.546 . S
Tb0 O45 2.610 1_455 S
Tb0 O47 2.320 . S
Tb0 O48 2.552 . S
Tb0 O49 2.413 . S
Tb0 O51 2.362 . S
Tb0 O52 2.421 . S
Tb0 C64 2.833 . S
C1 C4 1.432 . S
C1 C5 1.414 . S
C1 N8 1.359 . S
C2 C4 1.417 . S
C2 C6 1.432 . S
C2 C14 1.410 . S
C3 C5 1.444 . S
C3 C6 1.317 . S
C3 H26 0.929 . S
C4 C1 1.432 . S
C4 C2 1.417 . S
C4 N12 1.360 . S
C5 C1 1.414 . S
C5 C3 1.444 . S
C5 C10 1.385 . S
C6 C2 1.432 . S
C6 C3 1.317 . S
C6 H18 0.930 . S
C7 C9 1.392 . S
C7 C10 1.370 . S
C7 H19 0.931 . S
N8 C1 1.359 . S
N8 C9 1.327 . S
N8 Tb11 2.600 . S
C9 C7 1.392 . S
C9 N8 1.327 . S
C9 H16 0.930 . S
C10 C5 1.385 . S
C10 C7 1.370 . S
C10 H29 0.930 . S
Tb11 N8 2.600 . S
Tb11 N12 2.660 . S
Tb11 O45 2.362 . S
Tb11 O46 2.421 . S
Tb11 O50 2.546 . S
Tb11 O51 2.610 1_655 S
Tb11 O53 2.320 . S
Tb11 O54 2.552 . S
Tb11 O55 2.413 . S
Tb11 C75 2.833 . S
N12 C4 1.360 . S
N12 Tb11 2.660 . S
N12 C13 1.305 . S
C13 N12 1.305 . S
C13 C15 1.407 . S
C13 H20 0.930 . S
C14 C2 1.410 . S
C14 C15 1.345 . S
C14 H22 0.930 . S
C15 C13 1.407 . S
C15 C14 1.345 . S
C15 H17 0.930 . S
H16 C9 0.930 . S
H17 C15 0.930 . S
H18 C6 0.930 . S
H19 C7 0.931 . S
H20 C13 0.930 . S
H21 C35 0.930 . S
H22 C14 0.930 . S
H23 C41 0.930 . S
H24 C32 0.930 . S
H25 C39 0.931 . S
H26 C3 0.929 . S
H27 C33 0.930 . S
H28 C66 0.930 . S
H29 C10 0.930 . S
H30 C65 0.929 . S
N31 Tb0 2.660 . S
N31 C32 1.305 . S
N31 C36 1.360 . S
C32 H24 0.930 . S
C32 N31 1.305 . S
C32 C35 1.407 . S
C33 H27 0.930 . S
C33 C34 1.410 . S
C33 C35 1.345 . S
C34 C33 1.410 . S
C34 C36 1.417 . S
C34 C66 1.432 . S
C35 H21 0.930 . S
C35 C32 1.407 . S
C35 C33 1.345 . S
C36 N31 1.360 . S
C36 C34 1.417 . S
C36 C40 1.432 . S
H37 C42 0.930 . S
N38 Tb0 2.600 . S
N38 C40 1.359 . S
N38 C41 1.327 . S
C39 H25 0.931 . S
C39 C41 1.392 . S
C39 C42 1.370 . S
C40 C36 1.432 . S
C40 N38 1.359 . S
C40 C43 1.414 . S
C41 H23 0.930 . S
C41 N38 1.327 . S
C41 C39 1.392 . S
C42 H37 0.930 . S
C42 C39 1.370 . S
C42 C43 1.385 . S
C43 C40 1.414 . S
C43 C42 1.385 . S
C43 C65 1.444 . S
O44 Tb0 2.546 . S
O44 C64 1.251 . S
O45 Tb0 2.610 1_655 S
O45 Tb11 2.362 . S
O45 C56 1.283 . S
O46 Tb11 2.421 . S
O46 C63 1.262 1_655 S
O47 Tb0 2.320 . S
O47 C63 1.260 . S
O48 Tb0 2.552 . S
O48 C56 1.243 1_455 S
O49 Tb0 2.413 . S
O49 C64 1.256 . S
O50 Tb11 2.546 . S
O50 C75 1.251 . S
O51 Tb0 2.362 . S
O51 Tb11 2.610 1_455 S
O51 C67 1.283 . S
O52 Tb0 2.421 . S
O52 C74 1.262 1_455 S
O53 Tb11 2.320 . S
O53 C74 1.260 . S
O54 Tb11 2.552 . S
O54 C67 1.243 1_655 S
O55 Tb11 2.413 . S
O55 C75 1.256 . S
C56 O45 1.283 . S
C56 O48 1.243 1_655 S
C57 C59 1.382 . S
C57 C61 1.393 . S
C57 C64 1.500 . S
C58 C59 1.400 . S
C58 C60 1.384 . S
C59 C57 1.382 . S
C59 C58 1.400 . S
C59 H76 0.930 . S
C60 C58 1.384 . S
C60 C62 1.392 . S
C60 H77 0.931 . S
C61 C57 1.393 . S
C61 C62 1.401 . S
C61 H78 0.930 . S
C62 C60 1.392 . S
C62 C61 1.401 . S
C62 H79 0.930 . S
C63 O46 1.262 1_455 S
C63 O47 1.260 . S
C64 Tb0 2.833 . S
C64 O44 1.251 . S
C64 O49 1.256 . S
C64 C57 1.500 . S
C65 H30 0.929 . S
C65 C43 1.444 . S
C65 C66 1.317 . S
C66 H28 0.930 . S
C66 C34 1.432 . S
C66 C65 1.317 . S
C67 O51 1.283 . S
C67 O54 1.243 1_455 S
C68 C69 1.382 . S
C68 C72 1.393 . S
C68 C75 1.500 . S
C69 C68 1.382 . S
C69 C70 1.400 . S
C69 H80 0.930 . S
C70 C69 1.400 . S
C70 C71 1.384 . S
C71 C70 1.384 . S
C71 C73 1.392 . S
C71 H81 0.931 . S
C72 C68 1.393 . S
C72 C73 1.401 . S
C72 H82 0.930 . S
C73 C71 1.392 . S
C73 C72 1.401 . S
C73 H83 0.930 . S
C74 O52 1.262 1_655 S
C74 O53 1.260 . S
C75 Tb11 2.833 . S
C75 O50 1.251 . S
C75 O55 1.256 . S
C75 C68 1.500 . S
H76 C59 0.930 . S
H77 C60 0.931 . S
H78 C61 0.930 . S
H79 C62 0.930 . S
H80 C69 0.930 . S
H81 C71 0.931 . S
H82 C72 0.930 . S
H83 C73 0.930 . S
Tb84 N115 2.660 1_545 S
Tb84 N122 2.600 1_545 S
Tb84 O128 2.546 . S
Tb84 O129 2.610 . S
Tb84 O131 2.320 . S
Tb84 O132 2.552 . S
Tb84 O133 2.413 . S
Tb84 O135 2.362 . S
Tb84 O136 2.421 . S
Tb84 C148 2.833 1_545 S
C85 C88 1.432 . S
C85 C89 1.414 1_655 S
C85 N92 1.359 . S
C86 C88 1.417 . S
C86 C90 1.432 1_655 S
C86 C98 1.410 . S
C87 C89 1.444 . S
C87 C90 1.317 . S
C87 H110 0.929 . S
C88 C85 1.432 . S
C88 C86 1.417 . S
C88 N96 1.360 . S
C89 C85 1.414 1_455 S
C89 C87 1.444 . S
C89 C94 1.385 . S
C90 C86 1.432 1_455 S
C90 C87 1.317 . S
C90 H102 0.930 . S
C91 C93 1.392 . S
C91 C94 1.370 . S
C91 H103 0.931 . S
N92 C85 1.359 . S
N92 C93 1.327 1_655 S
N92 Tb95 2.600 . S
C93 C91 1.392 . S
C93 N92 1.327 1_455 S
C93 H100 0.930 . S
C94 C89 1.385 . S
C94 C91 1.370 . S
C94 H113 0.930 . S
Tb95 N92 2.600 . S
Tb95 N96 2.660 . S
Tb95 O129 2.362 . S
Tb95 O130 2.421 . S
Tb95 O134 2.546 . S
Tb95 O135 2.610 . S
Tb95 O137 2.320 . S
Tb95 O138 2.552 . S
Tb95 O139 2.413 . S
Tb95 C159 2.833 . S
N96 C88 1.360 . S
N96 Tb95 2.660 . S
N96 C97 1.305 . S
C97 N96 1.305 . S
C97 C99 1.407 . S
C97 H104 0.930 . S
C98 C86 1.410 . S
C98 C99 1.345 . S
C98 H106 0.930 . S
C99 C97 1.407 . S
C99 C98 1.345 . S
C99 H101 0.930 . S
H100 C93 0.930 . S
H101 C99 0.930 . S
H102 C90 0.930 . S
H103 C91 0.931 . S
H104 C97 0.930 . S
H105 C119 0.930 . S
H106 C98 0.930 . S
H107 C125 0.930 1_545 S
H108 C116 0.930 1_545 S
H109 C123 0.931 . S
H110 C87 0.929 . S
H111 C117 0.930 . S
H112 C150 0.930 . S
H113 C94 0.930 . S
H114 C149 0.929 . S
N115 Tb84 2.660 1_565 S
N115 C116 1.305 . S
N115 C120 1.360 . S
C116 H108 0.930 1_565 S
C116 N115 1.305 . S
C116 C119 1.407 . S
C117 H111 0.930 . S
C117 C118 1.410 . S
C117 C119 1.345 . S
C118 C117 1.410 . S
C118 C120 1.417 . S
C118 C150 1.432 . S
C119 H105 0.930 . S
C119 C116 1.407 . S
C119 C117 1.345 . S
C120 N115 1.360 . S
C120 C118 1.417 . S
C120 C124 1.432 . S
H121 C126 0.930 . S
N122 Tb84 2.600 1_565 S
N122 C124 1.359 . S
N122 C125 1.327 . S
C123 H109 0.931 . S
C123 C125 1.392 . S
C123 C126 1.370 . S
C124 C120 1.432 . S
C124 N122 1.359 . S
C124 C127 1.414 . S
C125 H107 0.930 1_565 S
C125 N122 1.327 . S
C125 C123 1.392 . S
C126 H121 0.930 . S
C126 C123 1.370 . S
C126 C127 1.385 . S
C127 C124 1.414 . S
C127 C126 1.385 . S
C127 C149 1.444 . S
O128 Tb84 2.546 . S
O128 C148 1.251 1_545 S
O129 Tb84 2.610 . S
O129 Tb95 2.362 . S
O129 C140 1.283 . S
O130 Tb95 2.421 . S
O130 C147 1.262 . S
O131 Tb84 2.320 . S
O131 C147 1.260 . S
O132 Tb84 2.552 . S
O132 C140 1.243 . S
O133 Tb84 2.413 . S
O133 C148 1.256 1_545 S
O134 Tb95 2.546 . S
O134 C159 1.251 . S
O135 Tb84 2.362 . S
O135 Tb95 2.610 . S
O135 C151 1.283 . S
O136 Tb84 2.421 . S
O136 C158 1.262 . S
O137 Tb95 2.320 . S
O137 C158 1.260 . S
O138 Tb95 2.552 . S
O138 C151 1.243 . S
O139 Tb95 2.413 . S
O139 C159 1.256 . S
C140 O129 1.283 . S
C140 O132 1.243 . S
C141 C143 1.382 . S
C141 C145 1.393 . S
C141 C148 1.500 . S
C142 C143 1.400 . S
C142 C144 1.384 . S
C143 C141 1.382 . S
C143 C142 1.400 . S
C143 H160 0.930 . S
C144 C142 1.384 . S
C144 C146 1.392 . S
C144 H161 0.931 . S
C145 C141 1.393 . S
C145 C146 1.401 . S
C145 H162 0.930 . S
C146 C144 1.392 . S
C146 C145 1.401 . S
C146 H163 0.930 . S
C147 O130 1.262 . S
C147 O131 1.260 . S
C148 Tb84 2.833 1_565 S
C148 O128 1.251 1_565 S
C148 O133 1.256 1_565 S
C148 C141 1.500 . S
C149 H114 0.929 . S
C149 C127 1.444 . S
C149 C150 1.317 . S
C150 H112 0.930 . S
C150 C118 1.432 . S
C150 C149 1.317 . S
C151 O135 1.283 . S
C151 O138 1.243 . S
C152 C153 1.382 . S
C152 C156 1.393 . S
C152 C159 1.500 . S
C153 C152 1.382 . S
C153 C154 1.400 . S
C153 H164 0.930 . S
C154 C153 1.400 . S
C154 C155 1.384 . S
C155 C154 1.384 . S
C155 C157 1.392 . S
C155 H165 0.931 . S
C156 C152 1.393 . S
C156 C157 1.401 . S
C156 H166 0.930 1_655 S
C157 C155 1.392 . S
C157 C156 1.401 . S
C157 H167 0.930 1_655 S
C158 O136 1.262 . S
C158 O137 1.260 . S
C159 Tb95 2.833 . S
C159 O134 1.251 . S
C159 O139 1.256 . S
C159 C152 1.500 . S
H160 C143 0.930 . S
H161 C144 0.931 . S
H162 C145 0.930 . S
H163 C146 0.930 . S
H164 C153 0.930 . S
H165 C155 0.931 . S
H166 C156 0.930 1_455 S
H167 C157 0.930 1_455 S
Tb168 N199 2.660 . S
Tb168 N206 2.600 . S
Tb168 O212 2.546 . S
Tb168 O213 2.610 . S
Tb168 O215 2.320 . S
Tb168 O216 2.552 . S
Tb168 O217 2.413 . S
Tb168 O219 2.362 . S
Tb168 O220 2.421 . S
Tb168 C232 2.833 . S
C169 C172 1.432 . S
C169 C173 1.414 . S
C169 N176 1.359 . S
C170 C172 1.417 . S
C170 C174 1.432 . S
C170 C182 1.410 1_655 S
C171 C173 1.444 . S
C171 C174 1.317 . S
C171 H194 0.929 . S
C172 C169 1.432 . S
C172 C170 1.417 . S
C172 N180 1.360 . S
C173 C169 1.414 . S
C173 C171 1.444 . S
C173 C178 1.385 . S
C174 C170 1.432 . S
C174 C171 1.317 . S
C174 H186 0.930 . S
C175 C177 1.392 . S
C175 C178 1.370 . S
C175 H187 0.931 . S
N176 C169 1.359 . S
N176 C177 1.327 . S
N176 Tb179 2.600 . S
C177 C175 1.392 . S
C177 N176 1.327 . S
C177 H184 0.930 . S
C178 C173 1.385 . S
C178 C175 1.370 . S
C178 H197 0.930 1_545 S
Tb179 N176 2.600 . S
Tb179 N180 2.660 . S
Tb179 O213 2.362 . S
Tb179 O214 2.421 . S
Tb179 O218 2.546 . S
Tb179 O219 2.610 . S
Tb179 O221 2.320 . S
Tb179 O222 2.552 . S
Tb179 O223 2.413 . S
Tb179 C243 2.833 . S
N180 C172 1.360 . S
N180 Tb179 2.660 . S
N180 C181 1.305 . S
C181 N180 1.305 . S
C181 C183 1.407 1_655 S
C181 H188 0.930 . S
C182 C170 1.410 1_455 S
C182 C183 1.345 . S
C182 H190 0.930 . S
C183 C181 1.407 1_455 S
C183 C182 1.345 . S
C183 H185 0.930 . S
H184 C177 0.930 . S
H185 C183 0.930 . S
H186 C174 0.930 . S
H187 C175 0.931 . S
H188 C181 0.930 . S
H189 C203 0.930 . S
H190 C182 0.930 . S
H191 C209 0.930 . S
H192 C200 0.930 . S
H193 C207 0.931 . S
H194 C171 0.929 . S
H195 C201 0.930 . S
H196 C234 0.930 . S
H197 C178 0.930 1_565 S
H198 C233 0.929 . S
N199 Tb168 2.660 . S
N199 C200 1.305 . S
N199 C204 1.360 . S
C200 H192 0.930 . S
C200 N199 1.305 . S
C200 C203 1.407 . S
C201 H195 0.930 . S
C201 C202 1.410 . S
C201 C203 1.345 . S
C202 C201 1.410 . S
C202 C204 1.417 . S
C202 C234 1.432 . S
C203 H189 0.930 . S
C203 C200 1.407 . S
C203 C201 1.345 . S
C204 N199 1.360 . S
C204 C202 1.417 . S
C204 C208 1.432 . S
H205 C210 0.930 . S
N206 Tb168 2.600 . S
N206 C208 1.359 . S
N206 C209 1.327 . S
C207 H193 0.931 . S
C207 C209 1.392 . S
C207 C210 1.370 . S
C208 C204 1.432 . S
C208 N206 1.359 . S
C208 C211 1.414 . S
C209 H191 0.930 . S
C209 N206 1.327 . S
C209 C207 1.392 . S
C210 H205 0.930 . S
C210 C207 1.370 . S
C210 C211 1.385 . S
C211 C208 1.414 . S
C211 C210 1.385 . S
C211 C233 1.444 . S
O212 Tb168 2.546 . S
O212 C232 1.251 . S
O213 Tb168 2.610 . S
O213 Tb179 2.362 . S
O213 C224 1.283 . S
O214 Tb179 2.421 . S
O214 C231 1.262 . S
O215 Tb168 2.320 . S
O215 C231 1.260 . S
O216 Tb168 2.552 . S
O216 C224 1.243 . S
O217 Tb168 2.413 . S
O217 C232 1.256 . S
O218 Tb179 2.546 . S
O218 C243 1.251 . S
O219 Tb168 2.362 . S
O219 Tb179 2.610 . S
O219 C235 1.283 . S
O220 Tb168 2.421 . S
O220 C242 1.262 . S
O221 Tb179 2.320 . S
O221 C242 1.260 . S
O222 Tb179 2.552 . S
O222 C235 1.243 . S
O223 Tb179 2.413 . S
O223 C243 1.256 . S
C224 O213 1.283 . S
C224 O216 1.243 . S
C225 C227 1.382 . S
C225 C229 1.393 . S
C225 C232 1.500 . S
C226 C227 1.400 . S
C226 C228 1.384 . S
C227 C225 1.382 . S
C227 C226 1.400 . S
C227 H244 0.930 . S
C228 C226 1.384 . S
C228 C230 1.392 . S
C228 H245 0.931 . S
C229 C225 1.393 . S
C229 C230 1.401 . S
C229 H246 0.930 . S
C230 C228 1.392 . S
C230 C229 1.401 . S
C230 H247 0.930 . S
C231 O214 1.262 . S
C231 O215 1.260 . S
C232 Tb168 2.833 . S
C232 O212 1.251 . S
C232 O217 1.256 . S
C232 C225 1.500 . S
C233 H198 0.929 . S
C233 C211 1.444 . S
C233 C234 1.317 . S
C234 H196 0.930 . S
C234 C202 1.432 . S
C234 C233 1.317 . S
C235 O219 1.283 . S
C235 O222 1.243 . S
C236 C237 1.382 . S
C236 C240 1.393 . S
C236 C243 1.500 . S
C237 C236 1.382 . S
C237 C238 1.400 . S
C237 H248 0.930 . S
C238 C237 1.400 . S
C238 C239 1.384 . S
C239 C238 1.384 . S
C239 C241 1.392 . S
C239 H249 0.931 . S
C240 C236 1.393 . S
C240 C241 1.401 . S
C240 H250 0.930 . S
C241 C239 1.392 . S
C241 C240 1.401 . S
C241 H251 0.930 . S
C242 O220 1.262 . S
C242 O221 1.260 . S
C243 Tb179 2.833 . S
C243 O218 1.251 . S
C243 O223 1.256 . S
C243 C236 1.500 . S
H244 C227 0.930 . S
H245 C228 0.931 . S
H246 C229 0.930 . S
H247 C230 0.930 . S
H248 C237 0.930 . S
H249 C239 0.931 . S
H250 C240 0.930 . S
H251 C241 0.930 . S
H252 C270 0.951 . S
H253 C272 0.951 . S
H254 C274 0.950 . S
H255 C275 0.950 . S
H256 C277 0.950 . S
H257 C280 0.950 . S
H258 C281 0.950 . S
H259 C283 0.950 . S
H260 C284 0.950 1_655 S
H261 C285 0.951 . S
H262 C287 0.951 . S
H263 C289 0.950 . S
H264 C290 0.950 . S
H265 C292 0.950 . S
H266 C295 0.950 . S
H267 C296 0.950 . S
H268 C298 0.950 . S
H269 C299 0.950 1_455 S
C270 H252 0.951 . S
C270 C271 1.366 1_655 S
C270 C272 1.388 . S
C271 C270 1.366 1_455 S
C271 C275 1.385 . S
C272 H253 0.951 . S
C272 C270 1.388 . S
C272 C273 1.366 1_655 S
C273 C272 1.366 1_455 S
C273 C274 1.414 . S
C273 C276 1.499 . S
C274 H254 0.950 . S
C274 C273 1.414 . S
C274 C275 1.374 . S
C275 H255 0.950 . S
C275 C271 1.385 . S
C275 C274 1.374 . S
C276 C273 1.499 . S
C276 C277 1.373 1_455 S
C276 C278 1.389 . S
C277 H256 0.950 . S
C277 C276 1.373 1_655 S
C277 C293 1.377 . S
C278 C276 1.389 . S
C278 C279 1.524 . S
C278 C292 1.377 . S
C279 C278 1.524 . S
C279 C280 1.397 . S
C279 C284 1.363 . S
C280 H257 0.950 . S
C280 C279 1.397 . S
C280 C281 1.334 . S
C281 H258 0.950 . S
C281 C280 1.334 . S
C281 C282 1.287 . S
C282 C281 1.287 . S
C282 C283 1.524 . S
C282 H301 0.913 . S
C283 H259 0.950 . S
C283 C282 1.524 . S
C283 C284 1.415 . S
C284 H260 0.950 1_455 S
C284 C279 1.363 . S
C284 C283 1.415 . S
C285 H261 0.951 . S
C285 C286 1.366 1_455 S
C285 C287 1.388 . S
C286 C285 1.366 1_655 S
C286 C290 1.385 . S
C287 H262 0.951 . S
C287 C285 1.388 . S
C287 C288 1.366 1_455 S
C288 C287 1.366 1_655 S
C288 C289 1.414 . S
C288 C291 1.499 1_545 S
C289 H263 0.950 . S
C289 C288 1.414 . S
C289 C290 1.374 . S
C290 H264 0.950 . S
C290 C286 1.385 . S
C290 C289 1.374 . S
C291 C288 1.499 1_565 S
C291 C292 1.373 1_655 S
C291 C293 1.389 . S
C292 H265 0.950 . S
C292 C278 1.377 . S
C292 C291 1.373 1_455 S
C293 C277 1.377 . S
C293 C291 1.389 . S
C293 C294 1.524 . S
C294 C293 1.524 . S
C294 C295 1.397 . S
C294 C299 1.363 . S
C295 H266 0.950 . S
C295 C294 1.397 . S
C295 C296 1.334 . S
C296 H267 0.950 . S
C296 C295 1.334 . S
C296 C297 1.287 . S
C297 C296 1.287 . S
C297 C298 1.524 . S
C297 H300 0.999 1_565 S
C298 H268 0.950 . S
C298 C297 1.524 . S
C298 C299 1.415 . S
C299 H269 0.950 1_655 S
C299 C294 1.363 . S
C299 C298 1.415 . S
H300 C297 0.999 1_545 S
H301 C282 0.913 . S
H302 C320 0.951 . S
H303 C322 0.951 . S
H304 C324 0.950 . S
H305 C325 0.950 . S
H306 C327 0.950 . S
H307 C330 0.950 . S
H308 C331 0.950 . S
H309 C333 0.950 . S
H310 C334 0.950 . S
H311 C335 0.951 1_655 S
H312 C337 0.951 . S
H313 C339 0.950 . S
H314 C340 0.950 1_655 S
H315 C342 0.950 . S
H316 C345 0.950 . S
H317 C346 0.950 . S
H318 C348 0.950 . S
H319 C349 0.950 . S
C320 H302 0.951 . S
C320 C321 1.366 . S
C320 C322 1.388 . S
C321 C320 1.366 . S
C321 C325 1.385 . S
C322 H303 0.951 . S
C322 C320 1.388 . S
C322 C323 1.366 . S
C323 C322 1.366 . S
C323 C324 1.414 . S
C323 C326 1.499 . S
C324 H304 0.950 . S
C324 C323 1.414 . S
C324 C325 1.374 . S
C325 H305 0.950 . S
C325 C321 1.385 . S
C325 C324 1.374 . S
C326 C323 1.499 . S
C326 C327 1.373 . S
C326 C328 1.389 . S
C327 H306 0.950 . S
C327 C326 1.373 . S
C327 C343 1.377 . S
C328 C326 1.389 . S
C328 C329 1.524 . S
C328 C342 1.377 . S
C329 C328 1.524 . S
C329 C330 1.398 . S
C329 C334 1.363 . S
C330 H307 0.950 . S
C330 C329 1.398 . S
C330 C331 1.333 1_545 S
C331 H308 0.950 . S
C331 C330 1.333 1_565 S
C331 C332 1.287 . S
C332 C331 1.287 . S
C332 C333 1.524 . S
C332 H351 0.913 . S
C333 H309 0.950 . S
C333 C332 1.524 . S
C333 C334 1.415 1_565 S
C334 H310 0.950 . S
C334 C329 1.363 . S
C334 C333 1.415 1_545 S
C335 H311 0.951 1_455 S
C335 C336 1.366 1_455 S
C335 C337 1.388 . S
C336 C335 1.366 1_655 S
C336 C340 1.385 1_655 S
C337 H312 0.951 . S
C337 C335 1.388 . S
C337 C338 1.366 . S
C338 C337 1.366 . S
C338 C339 1.414 . S
C338 C341 1.499 . S
C339 H313 0.950 . S
C339 C338 1.414 . S
C339 C340 1.374 . S
C340 H314 0.950 1_455 S
C340 C336 1.385 1_455 S
C340 C339 1.374 . S
C341 C338 1.499 . S
C341 C342 1.373 . S
C341 C343 1.389 . S
C342 H315 0.950 . S
C342 C328 1.377 . S
C342 C341 1.373 . S
C343 C327 1.377 . S
C343 C341 1.389 . S
C343 C344 1.524 . S
C344 C343 1.524 . S
C344 C345 1.397 . S
C344 C349 1.363 . S
C345 H316 0.950 . S
C345 C344 1.397 . S
C345 C346 1.334 . S
C346 H317 0.950 . S
C346 C345 1.334 . S
C346 C347 1.287 . S
C347 C346 1.287 . S
C347 C348 1.524 . S
C347 H350 0.999 . S
C348 H318 0.950 . S
C348 C347 1.524 . S
C348 C349 1.415 . S
C349 H319 0.950 . S
C349 C344 1.363 . S
C349 C348 1.415 . S
H350 C347 0.999 . S
H351 C332 0.913 . S
H352 C370 0.951 . S
H353 C372 0.951 . S
H354 C374 0.950 . S
H355 C375 0.950 . S
H356 C377 0.950 . S
H357 C380 0.950 . S
H358 C381 0.950 . S
H359 C383 0.950 . S
H360 C384 0.950 . S
H361 C385 0.951 . S
H362 C387 0.951 . S
H363 C389 0.950 . S
H364 C390 0.950 . S
H365 C392 0.950 . S
H366 C395 0.950 . S
H367 C396 0.950 . S
H368 C398 0.950 . S
H369 C399 0.950 . S
C370 H352 0.951 . S
C370 C371 1.366 1_455 S
C370 C372 1.388 . S
C371 C370 1.366 1_655 S
C371 C375 1.385 . S
C372 H353 0.951 . S
C372 C370 1.388 . S
C372 C373 1.366 . S
C373 C372 1.366 . S
C373 C374 1.414 . S
C373 C376 1.499 . S
C374 H354 0.950 . S
C374 C373 1.414 . S
C374 C375 1.374 1_455 S
C375 H355 0.950 . S
C375 C371 1.385 . S
C375 C374 1.374 1_655 S
C376 C373 1.499 . S
C376 C377 1.373 . S
C376 C378 1.389 . S
C377 H356 0.950 . S
C377 C376 1.373 . S
C377 C393 1.377 . S
C378 C376 1.389 . S
C378 C379 1.524 . S
C378 C392 1.377 . S
C379 C378 1.524 . S
C379 C380 1.397 . S
C379 C384 1.363 . S
C380 H357 0.950 . S
C380 C379 1.397 . S
C380 C381 1.334 . S
C381 H358 0.950 . S
C381 C380 1.334 . S
C381 C382 1.287 . S
C382 C381 1.287 . S
C382 C383 1.524 . S
C382 H401 0.913 . S
C383 H359 0.950 . S
C383 C382 1.524 . S
C383 C384 1.415 . S
C384 H360 0.950 . S
C384 C379 1.363 . S
C384 C383 1.415 . S
C385 H361 0.951 . S
C385 C386 1.366 . S
C385 C387 1.388 . S
C386 C385 1.366 . S
C386 C390 1.385 . S
C387 H362 0.951 . S
C387 C385 1.388 . S
C387 C388 1.366 . S
C388 C387 1.366 . S
C388 C389 1.414 . S
C388 C391 1.499 1_545 S
C389 H363 0.950 . S
C389 C388 1.414 . S
C389 C390 1.374 . S
C390 H364 0.950 . S
C390 C386 1.385 . S
C390 C389 1.374 . S
C391 C388 1.499 1_565 S
C391 C392 1.373 . S
C391 C393 1.389 . S
C392 H365 0.950 . S
C392 C378 1.377 . S
C392 C391 1.373 . S
C393 C377 1.377 . S
C393 C391 1.389 . S
C393 C394 1.524 1_565 S
C394 C393 1.524 1_545 S
C394 C395 1.397 . S
C394 C399 1.363 . S
C395 H366 0.950 . S
C395 C394 1.397 . S
C395 C396 1.334 . S
C396 H367 0.950 . S
C396 C395 1.334 . S
C396 C397 1.287 . S
C397 C396 1.287 . S
C397 C398 1.524 . S
C397 H400 0.999 . S
C398 H368 0.950 . S
C398 C397 1.524 . S
C398 C399 1.415 . S
C399 H369 0.950 . S
C399 C394 1.363 . S
C399 C398 1.415 . S
H400 C397 0.999 . S
H401 C382 0.913 . S
H402 C420 0.951 . S
H403 C422 0.951 . S
H404 C424 0.950 1_554 S
H405 C425 0.950 . S
H406 C427 0.950 . S
H407 C430 0.950 . S
H408 C431 0.950 . S
H409 C433 0.950 . S
H410 C434 0.950 . S
H411 C435 0.951 . S
H412 C437 0.951 . S
H413 C439 0.950 . S
H414 C440 0.950 . S
H415 C442 0.950 . S
H416 C445 0.950 . S
H417 C446 0.950 . S
H418 C448 0.950 . S
H419 C449 0.950 . S
C420 H402 0.951 . S
C420 C421 1.366 . S
C420 C422 1.388 . S
C421 C420 1.366 . S
C421 C425 1.385 . S
C422 H403 0.951 . S
C422 C420 1.388 . S
C422 C423 1.366 . S
C423 C422 1.366 . S
C423 C424 1.414 . S
C423 C426 1.499 1_556 S
C424 H404 0.950 1_556 S
C424 C423 1.414 . S
C424 C425 1.374 . S
C425 H405 0.950 . S
C425 C421 1.385 . S
C425 C424 1.374 . S
C426 C423 1.499 1_554 S
C426 C427 1.373 . S
C426 C428 1.389 . S
C427 H406 0.950 . S
C427 C426 1.373 . S
C427 C443 1.377 . S
C428 C426 1.389 . S
C428 C429 1.524 1_554 S
C428 C442 1.377 . S
C429 C428 1.524 1_556 S
C429 C430 1.397 . S
C429 C434 1.363 . S
C430 H407 0.950 . S
C430 C429 1.397 . S
C430 C431 1.334 . S
C431 H408 0.950 . S
C431 C430 1.334 . S
C431 C432 1.287 . S
C432 C431 1.287 . S
C432 C433 1.524 . S
C432 H451 0.913 . S
C433 H409 0.950 . S
C433 C432 1.524 . S
C433 C434 1.415 . S
C434 H410 0.950 . S
C434 C429 1.363 . S
C434 C433 1.415 . S
C435 H411 0.951 . S
C435 C436 1.366 . S
C435 C437 1.388 . S
C436 C435 1.366 . S
C436 C440 1.385 . S
C437 H412 0.951 . S
C437 C435 1.388 . S
C437 C438 1.366 . S
C438 C437 1.366 . S
C438 C439 1.414 . S
C438 C441 1.499 . S
C439 H413 0.950 . S
C439 C438 1.414 . S
C439 C440 1.374 . S
C440 H414 0.950 . S
C440 C436 1.385 . S
C440 C439 1.374 . S
C441 C438 1.499 . S
C441 C442 1.373 . S
C441 C443 1.389 . S
C442 H415 0.950 . S
C442 C428 1.377 . S
C442 C441 1.373 . S
C443 C427 1.377 . S
C443 C441 1.389 . S
C443 C444 1.524 . S
C444 C443 1.524 . S
C444 C445 1.397 . S
C444 C449 1.363 . S
C445 H416 0.950 . S
C445 C444 1.397 . S
C445 C446 1.334 . S
C446 H417 0.950 . S
C446 C445 1.334 . S
C446 C447 1.287 . S
C447 C446 1.287 . S
C447 C448 1.524 . S
C447 H450 0.999 . S
C448 H418 0.950 . S
C448 C447 1.524 . S
C448 C449 1.415 . S
C449 H419 0.950 . S
C449 C444 1.363 . S
C449 C448 1.415 . S
H450 C447 0.999 . S
H451 C432 0.913 . S
H452 C470 0.951 . S
H453 C472 0.951 . S
H454 C474 0.950 . S
H455 C475 0.950 . S
H456 C477 0.950 . S
H457 C480 0.950 1_655 S
H458 C481 0.950 . S
H459 C483 0.950 . S
H460 C484 0.950 1_655 S
H461 C485 0.951 . S
H462 C487 0.951 . S
H463 C489 0.950 . S
H464 C490 0.950 . S
H465 C492 0.950 . S
H466 C495 0.950 . S
H467 C496 0.950 . S
H468 C498 0.950 . S
H469 C499 0.950 . S
C470 H452 0.951 . S
C470 C471 1.366 . S
C470 C472 1.388 . S
C471 C470 1.366 . S
C471 C475 1.385 . S
C472 H453 0.951 . S
C472 C470 1.388 . S
C472 C473 1.366 . S
C473 C472 1.366 . S
C473 C474 1.414 . S
C473 C476 1.499 . S
C474 H454 0.950 . S
C474 C473 1.414 . S
C474 C475 1.374 . S
C475 H455 0.950 . S
C475 C471 1.385 . S
C475 C474 1.374 . S
C476 C473 1.499 . S
C476 C477 1.373 . S
C476 C478 1.389 . S
C477 H456 0.950 . S
C477 C476 1.373 . S
C477 C493 1.377 . S
C478 C476 1.389 . S
C478 C479 1.524 . S
C478 C492 1.377 . S
C479 C478 1.524 . S
C479 C480 1.397 1_655 S
C479 C484 1.363 1_655 S
C480 H457 0.950 1_455 S
C480 C479 1.397 1_455 S
C480 C481 1.334 . S
C481 H458 0.950 . S
C481 C480 1.334 . S
C481 C482 1.287 . S
C482 C481 1.287 . S
C482 C483 1.524 . S
C482 H501 0.913 . S
C483 H459 0.950 . S
C483 C482 1.524 . S
C483 C484 1.415 . S
C484 H460 0.950 1_455 S
C484 C479 1.363 1_455 S
C484 C483 1.415 . S
C485 H461 0.951 . S
C485 C486 1.366 . S
C485 C487 1.388 . S
C486 C485 1.366 . S
C486 C490 1.385 . S
C487 H462 0.951 . S
C487 C485 1.388 . S
C487 C488 1.366 . S
C488 C487 1.366 . S
C488 C489 1.414 . S
C488 C491 1.499 . S
C489 H463 0.950 . S
C489 C488 1.414 . S
C489 C490 1.374 . S
C490 H464 0.950 . S
C490 C486 1.385 . S
C490 C489 1.374 . S
C491 C488 1.499 . S
C491 C492 1.373 . S
C491 C493 1.389 . S
C492 H465 0.950 . S
C492 C478 1.377 . S
C492 C491 1.373 . S
C493 C477 1.377 . S
C493 C491 1.389 . S
C493 C494 1.524 . S
C494 C493 1.524 . S
C494 C495 1.397 . S
C494 C499 1.363 . S
C495 H466 0.950 . S
C495 C494 1.397 . S
C495 C496 1.334 . S
C496 H467 0.950 . S
C496 C495 1.334 . S
C496 C497 1.287 . S
C497 C496 1.287 . S
C497 C498 1.524 . S
C497 H500 0.999 . S
C498 H468 0.950 . S
C498 C497 1.524 . S
C498 C499 1.415 . S
C499 H469 0.950 . S
C499 C494 1.363 . S
C499 C498 1.415 . S
H500 C497 0.999 . S
H501 C482 0.913 . S
H502 C520 0.951 . S
H503 C522 0.951 . S
H504 C524 0.950 . S
H505 C525 0.950 . S
H506 C527 0.950 . S
H507 C530 0.950 . S
H508 C531 0.950 . S
H509 C533 0.950 . S
H510 C534 0.950 . S
H511 C535 0.951 . S
H512 C537 0.951 . S
H513 C539 0.950 . S
H514 C540 0.950 . S
H515 C542 0.950 . S
H516 C545 0.950 . S
H517 C546 0.950 1_455 S
H518 C548 0.950 . S
H519 C549 0.950 . S
C520 H502 0.951 . S
C520 C521 1.366 . S
C520 C522 1.388 . S
C521 C520 1.366 . S
C521 C525 1.385 . S
C522 H503 0.951 . S
C522 C520 1.388 . S
C522 C523 1.366 . S
C523 C522 1.366 . S
C523 C524 1.414 . S
C523 C526 1.499 . S
C524 H504 0.950 . S
C524 C523 1.414 . S
C524 C525 1.374 . S
C525 H505 0.950 . S
C525 C521 1.385 . S
C525 C524 1.374 . S
C526 C523 1.499 . S
C526 C527 1.373 . S
C526 C528 1.389 . S
C527 H506 0.950 . S
C527 C526 1.373 . S
C527 C543 1.377 . S
C528 C526 1.389 . S
C528 C529 1.524 . S
C528 C542 1.377 . S
C529 C528 1.524 . S
C529 C530 1.397 . S
C529 C534 1.363 . S
C530 H507 0.950 . S
C530 C529 1.397 . S
C530 C531 1.334 . S
C531 H508 0.950 . S
C531 C530 1.334 . S
C531 C532 1.287 . S
C532 C531 1.287 . S
C532 C533 1.524 . S
C532 H551 0.913 . S
C533 H509 0.950 . S
C533 C532 1.524 . S
C533 C534 1.415 . S
C534 H510 0.950 . S
C534 C529 1.363 . S
C534 C533 1.415 . S
C535 H511 0.951 . S
C535 C536 1.366 . S
C535 C537 1.388 . S
C536 C535 1.366 . S
C536 C540 1.385 . S
C537 H512 0.951 . S
C537 C535 1.388 . S
C537 C538 1.366 . S
C538 C537 1.366 . S
C538 C539 1.414 . S
C538 C541 1.499 . S
C539 H513 0.950 . S
C539 C538 1.414 . S
C539 C540 1.374 . S
C540 H514 0.950 . S
C540 C536 1.385 . S
C540 C539 1.374 . S
C541 C538 1.499 . S
C541 C542 1.373 . S
C541 C543 1.389 . S
C542 H515 0.950 . S
C542 C528 1.377 . S
C542 C541 1.373 . S
C543 C527 1.377 . S
C543 C541 1.389 . S
C543 C544 1.524 . S
C544 C543 1.524 . S
C544 C545 1.397 . S
C544 C549 1.363 . S
C545 H516 0.950 . S
C545 C544 1.397 . S
C545 C546 1.334 . S
C546 H517 0.950 1_655 S
C546 C545 1.334 . S
C546 C547 1.287 . S
C547 C546 1.287 . S
C547 C548 1.524 . S
C547 H550 0.999 . S
C548 H518 0.950 . S
C548 C547 1.524 . S
C548 C549 1.415 . S
C549 H519 0.950 . S
C549 C544 1.363 . S
C549 C548 1.415 . S
H550 C547 0.999 . S
H551 C532 0.913 . S
H552 C570 0.951 . S
H553 C572 0.951 . S
H554 C574 0.950 . S
H555 C575 0.950 . S
H556 C577 0.950 . S
H557 C580 0.950 . S
H558 C581 0.950 . S
H559 C583 0.950 . S
H560 C584 0.950 . S
H561 C585 0.951 . S
H562 C587 0.951 . S
H563 C589 0.950 . S
H564 C590 0.950 . S
H565 C592 0.950 . S
H566 C595 0.950 . S
H567 C596 0.950 . S
H568 C598 0.950 . S
H569 C599 0.950 . S
C570 H552 0.951 . S
C570 C571 1.366 . S
C570 C572 1.388 . S
C571 C570 1.366 . S
C571 C575 1.385 . S
C572 H553 0.951 . S
C572 C570 1.388 . S
C572 C573 1.366 . S
C573 C572 1.366 . S
C573 C574 1.414 . S
C573 C576 1.499 . S
C574 H554 0.950 . S
C574 C573 1.414 . S
C574 C575 1.374 . S
C575 H555 0.950 . S
C575 C571 1.385 . S
C575 C574 1.374 . S
C576 C573 1.499 . S
C576 C577 1.373 . S
C576 C578 1.389 . S
C577 H556 0.950 . S
C577 C576 1.373 . S
C577 C593 1.377 . S
C578 C576 1.389 . S
C578 C579 1.524 . S
C578 C592 1.377 . S
C579 C578 1.524 . S
C579 C580 1.397 . S
C579 C584 1.363 . S
C580 H557 0.950 . S
C580 C579 1.397 . S
C580 C581 1.334 . S
C581 H558 0.950 . S
C581 C580 1.334 . S
C581 C582 1.287 . S
C582 C581 1.287 . S
C582 C583 1.524 . S
C582 H601 0.913 . S
C583 H559 0.950 . S
C583 C582 1.524 . S
C583 C584 1.415 . S
C584 H560 0.950 . S
C584 C579 1.363 . S
C584 C583 1.415 . S
C585 H561 0.951 . S
C585 C586 1.366 . S
C585 C587 1.388 . S
C586 C585 1.366 . S
C586 C590 1.385 . S
C587 H562 0.951 . S
C587 C585 1.388 . S
C587 C588 1.366 . S
C588 C587 1.366 . S
C588 C589 1.414 . S
C588 C591 1.499 1_554 S
C589 H563 0.950 . S
C589 C588 1.414 . S
C589 C590 1.374 . S
C590 H564 0.950 . S
C590 C586 1.385 . S
C590 C589 1.374 . S
C591 C588 1.499 1_556 S
C591 C592 1.373 . S
C591 C593 1.389 . S
C592 H565 0.950 . S
C592 C578 1.377 . S
C592 C591 1.373 . S
C593 C577 1.377 . S
C593 C591 1.389 . S
C593 C594 1.524 . S
C594 C593 1.524 . S
C594 C595 1.397 1_556 S
C594 C599 1.363 . S
C595 H566 0.950 . S
C595 C594 1.397 1_554 S
C595 C596 1.334 . S
C596 H567 0.950 . S
C596 C595 1.334 . S
C596 C597 1.287 . S
C597 C596 1.287 . S
C597 C598 1.524 . S
C597 H600 0.999 . S
C598 H568 0.950 . S
C598 C597 1.524 . S
C598 C599 1.415 1_554 S
C599 H569 0.950 . S
C599 C594 1.363 . S
C599 C598 1.415 1_556 S
H600 C597 0.999 . S
H601 C582 0.913 . S
H602 C620 0.951 . S
H603 C622 0.951 . S
H604 C624 0.950 . S
H605 C625 0.950 . S
H606 C627 0.950 . S
H607 C630 0.950 . S
H608 C631 0.950 . S
H609 C633 0.950 . S
H610 C634 0.950 . S
H611 C635 0.951 . S
H612 C637 0.951 . S
H613 C639 0.950 . S
H614 C640 0.950 . S
H615 C642 0.950 . S
H616 C645 0.950 . S
H617 C646 0.950 . S
H618 C648 0.950 . S
H619 C649 0.950 1_565 S
C620 H602 0.951 . S
C620 C621 1.366 . S
C620 C622 1.388 . S
C621 C620 1.366 . S
C621 C625 1.385 . S
C622 H603 0.951 . S
C622 C620 1.388 . S
C622 C623 1.366 . S
C623 C622 1.366 . S
C623 C624 1.414 . S
C623 C626 1.499 . S
C624 H604 0.950 . S
C624 C623 1.414 . S
C624 C625 1.374 . S
C625 H605 0.950 . S
C625 C621 1.385 . S
C625 C624 1.374 . S
C626 C623 1.499 . S
C626 C627 1.373 . S
C626 C628 1.389 . S
C627 H606 0.950 . S
C627 C626 1.373 . S
C627 C643 1.377 . S
C628 C626 1.389 . S
C628 C629 1.524 . S
C628 C642 1.377 . S
C629 C628 1.524 . S
C629 C630 1.397 . S
C629 C634 1.363 . S
C630 H607 0.950 . S
C630 C629 1.397 . S
C630 C631 1.334 . S
C631 H608 0.950 . S
C631 C630 1.334 . S
C631 C632 1.287 . S
C632 C631 1.287 . S
C632 C633 1.524 . S
C632 H651 0.913 . S
C633 H609 0.950 . S
C633 C632 1.524 . S
C633 C634 1.415 . S
C634 H610 0.950 . S
C634 C629 1.363 . S
C634 C633 1.415 . S
C635 H611 0.951 . S
C635 C636 1.366 . S
C635 C637 1.388 1_545 S
C636 C635 1.366 . S
C636 C640 1.385 . S
C637 H612 0.951 . S
C637 C635 1.388 1_565 S
C637 C638 1.366 . S
C638 C637 1.366 . S
C638 C639 1.414 . S
C638 C641 1.499 . S
C639 H613 0.950 . S
C639 C638 1.414 . S
C639 C640 1.374 1_565 S
C640 H614 0.950 . S
C640 C636 1.385 . S
C640 C639 1.374 1_545 S
C641 C638 1.499 . S
C641 C642 1.373 . S
C641 C643 1.389 . S
C642 H615 0.950 . S
C642 C628 1.377 . S
C642 C641 1.373 . S
C643 C627 1.377 . S
C643 C641 1.389 . S
C643 C644 1.524 1_565 S
C644 C643 1.524 1_545 S
C644 C645 1.397 . S
C644 C649 1.363 . S
C645 H616 0.950 . S
C645 C644 1.397 . S
C645 C646 1.334 . S
C646 H617 0.950 . S
C646 C645 1.334 . S
C646 C647 1.287 . S
C647 C646 1.287 . S
C647 C648 1.524 . S
C647 H650 0.999 . S
C648 H618 0.950 . S
C648 C647 1.524 . S
C648 C649 1.415 . S
C649 H619 0.950 1_545 S
C649 C644 1.363 . S
C649 C648 1.415 . S
H650 C647 0.999 . S
H651 C632 0.913 . S
H652 C670 0.951 . S
H653 C672 0.951 . S
H654 C674 0.950 . S
H655 C675 0.950 . S
H656 C677 0.950 . S
H657 C680 0.950 . S
H658 C681 0.950 . S
H659 C683 0.950 . S
H660 C684 0.950 . S
H661 C685 0.951 . S
H662 C687 0.951 . S
H663 C689 0.950 1_455 S
H664 C690 0.950 . S
H665 C692 0.950 . S
H666 C695 0.950 . S
H667 C696 0.950 . S
H668 C698 0.950 . S
H669 C699 0.950 . S
C670 H652 0.951 . S
C670 C671 1.366 . S
C670 C672 1.388 . S
C671 C670 1.366 . S
C671 C675 1.385 1_455 S
C672 H653 0.951 . S
C672 C670 1.388 . S
C672 C673 1.366 1_455 S
C673 C672 1.366 1_655 S
C673 C674 1.414 . S
C673 C676 1.499 . S
C674 H654 0.950 . S
C674 C673 1.414 . S
C674 C675 1.374 . S
C675 H655 0.950 . S
C675 C671 1.385 1_655 S
C675 C674 1.374 . S
C676 C673 1.499 . S
C676 C677 1.373 . S
C676 C678 1.389 . S
C677 H656 0.950 . S
C677 C676 1.373 . S
C677 C693 1.377 . S
C678 C676 1.389 . S
C678 C679 1.524 1_655 S
C678 C692 1.377 . S
C679 C678 1.524 1_455 S
C679 C680 1.397 1_455 S
C679 C684 1.363 . S
C680 H657 0.950 . S
C680 C679 1.397 1_655 S
C680 C681 1.334 1_655 S
C681 H658 0.950 . S
C681 C680 1.334 1_455 S
C681 C682 1.287 . S
C682 C681 1.287 . S
C682 C683 1.524 . S
C682 H701 0.913 . S
C683 H659 0.950 . S
C683 C682 1.524 . S
C683 C684 1.415 . S
C684 H660 0.950 . S
C684 C679 1.363 . S
C684 C683 1.415 . S
C685 H661 0.951 . S
C685 C686 1.366 . S
C685 C687 1.388 . S
C686 C685 1.366 . S
C686 C690 1.385 . S
C687 H662 0.951 . S
C687 C685 1.388 . S
C687 C688 1.366 . S
C688 C687 1.366 . S
C688 C689 1.414 . S
C688 C691 1.499 . S
C689 H663 0.950 1_655 S
C689 C688 1.414 . S
C689 C690 1.374 . S
C690 H664 0.950 . S
C690 C686 1.385 . S
C690 C689 1.374 . S
C691 C688 1.499 . S
C691 C692 1.373 . S
C691 C693 1.389 . S
C692 H665 0.950 . S
C692 C678 1.377 . S
C692 C691 1.373 . S
C693 C677 1.377 . S
C693 C691 1.389 . S
C693 C694 1.524 . S
C694 C693 1.524 . S
C694 C695 1.397 . S
C694 C699 1.363 . S
C695 H666 0.950 . S
C695 C694 1.397 . S
C695 C696 1.334 . S
C696 H667 0.950 . S
C696 C695 1.334 . S
C696 C697 1.287 . S
C697 C696 1.287 . S
C697 C698 1.524 . S
C697 H700 0.999 1_545 S
C698 H668 0.950 . S
C698 C697 1.524 . S
C698 C699 1.415 . S
C699 H669 0.950 . S
C699 C694 1.363 . S
C699 C698 1.415 . S
H700 C697 0.999 1_565 S
H701 C682 0.913 . S
C271 C63 1.311 . S
C286 C74 1.311 . S
C321 C158 1.311 . S
C336 C147 1.311 . S
C371 C242 1.311 . S
C386 C231 1.311 . S
C421 C226 1.981 . S
C436 C67 2.142 . S
C471 C154 0.854 . S
C486 C56 0.913 . S
C521 C235 2.143 . S
C536 C142 1.980 . S
C571 C224 0.912 . S
C586 C70 0.853 . S
C621 C58 1.981 . S
C636 C151 2.143 . S
C671 C238 0.850 1_455 S
C686 C140 0.915 . S
