# Generated by pormake.
# Topology wli, (5)-cn, num edge types: 1
# Building blocks:
#     Node 0, Type 0, BuildingBlock: BEQFEK_clean_sbu_0, # of connection points: 5
#     Node 1, Type 0, BuildingBlock: BEQFEK_clean_sbu_0, # of connection points: 5
#     Node 2, Type 0, BuildingBlock: BEQFEK_clean_sbu_0, # of connection points: 5
#     Node 3, Type 0, BuildingBlock: BEQFEK_clean_sbu_0, # of connection points: 5
#     Node 4, Type 0, BuildingBlock: BEQFEK_clean_sbu_0, # of connection points: 5
#     Node 5, Type 0, BuildingBlock: BEQFEK_clean_sbu_0, # of connection points: 5
#     Edge 6, Type (0, 0), BuildingBlock: AJUNOK_clean_linker_0, # of connection points: 2
#     Edge 7, Type (0, 0), BuildingBlock: AJUNOK_clean_linker_0, # of connection points: 2
#     Edge 8, Type (0, 0), BuildingBlock: AJUNOK_clean_linker_0, # of connection points: 2
#     Edge 9, Type (0, 0), BuildingBlock: AJUNOK_clean_linker_0, # of connection points: 2
#     Edge 10, Type (0, 0), BuildingBlock: AJUNOK_clean_linker_0, # of connection points: 2
#     Edge 11, Type (0, 0), BuildingBlock: AJUNOK_clean_linker_0, # of connection points: 2
#     Edge 12, Type (0, 0), BuildingBlock: AJUNOK_clean_linker_0, # of connection points: 2
#     Edge 13, Type (0, 0), BuildingBlock: AJUNOK_clean_linker_0, # of connection points: 2
#     Edge 14, Type (0, 0), BuildingBlock: AJUNOK_clean_linker_0, # of connection points: 2
#     Edge 15, Type (0, 0), BuildingBlock: AJUNOK_clean_linker_0, # of connection points: 2
#     Edge 16, Type (0, 0), BuildingBlock: AJUNOK_clean_linker_0, # of connection points: 2
#     Edge 17, Type (0, 0), BuildingBlock: AJUNOK_clean_linker_0, # of connection points: 2
#     Edge 18, Type (0, 0), BuildingBlock: AJUNOK_clean_linker_0, # of connection points: 2
#     Edge 19, Type (0, 0), BuildingBlock: AJUNOK_clean_linker_0, # of connection points: 2
#     Edge 20, Type (0, 0), BuildingBlock: AJUNOK_clean_linker_0, # of connection points: 2
# Relax obj value: 0.176
# Max RMSD: 0.113
# Mean RMSD: 0.113
data_MOF--net-wli--node1-BEQFEK_clean_sbu_0--edge1-AJUNOK_clean_linker_0
_symmetry_space_group_name_H-M    P1
_symmetry_Int_Tables_number       1
_symmetry_cell_setting            triclinic
loop_
_symmetry_equiv_pos_as_xyz
'x, y, z'
_cell_length_a     27.835633
_cell_length_b     27.792944
_cell_length_c     21.983047
_cell_angle_alpha  90.000494
_cell_angle_beta   90.107647
_cell_angle_gamma 119.89277
loop_
_atom_site_label
_atom_site_type_symbol
_atom_site_fract_x
_atom_site_fract_y
_atom_site_fract_z
_atom_type_partial_charge
Co0 Co 0.23386 0.45338 0.96203 0.0
Co1 Co 0.14601 0.37043 0.05617 0.0
C2 C 0.23785 0.35408 0.00983 0.0
O3 O 0.2569 0.39802 0.97804 0.0
O4 O 0.19488 0.3378 0.0428 0.0
C5 C 0.34408 0.53196 0.92726 0.0
O6 O 0.35594 0.5141 0.97726 0.0
C7 C 0.09865 0.3141 0.17434 0.0
C8 C 0.01387 0.30062 0.16583 0.0
C9 C 0.04908 0.29532 0.2066 0.0
N10 N 0.09258 0.3307 0.11863 0.0
N11 N 0.04137 0.32124 0.11361 0.0
C12 C 0.151 0.31633 0.19491 0.0
H13 H 0.17436 0.31404 0.15536 0.0
H14 H 0.17767 0.35633 0.21845 0.0
H15 H 0.14177 0.28156 0.22637 0.0
C16 C 0.24399 0.53494 0.0567 0.0
N17 N 0.22355 0.48249 0.03631 0.0
N18 N 0.18657 0.44792 0.07536 0.0
C19 C 0.18163 0.47752 0.12117 0.0
C20 C 0.21791 0.53355 0.11104 0.0
C21 C 0.28852 0.58518 0.02528 0.0
H22 H 0.32728 0.58328 0.02613 0.0
H23 H 0.29717 0.62428 0.048 0.0
H24 H 0.27673 0.5855 0.97711 0.0
O25 O 0.16377 0.41827 0.91352 0.0
O26 O 0.10319 0.36068 0.98117 0.0
H27 H 0.09733 0.42647 0.14866 0.0
H28 H 0.13583 0.4857 0.19669 0.0
C29 C 0.13834 0.45331 0.16977 0.0
H30 H 0.14794 0.42785 0.20086 0.0
H31 H 0.02596 0.33154 0.07553 0.0
O32 O 0.29368 0.51228 0.91175 0.0
C33 C 0.1145 0.38184 0.92818 0.0
Co34 Co 0.59625 0.79819 0.63088 0.0
Co35 Co 0.68275 0.79742 0.72291 0.0
C36 C 0.69301 0.90382 0.67596 0.0
O37 O 0.64913 0.87719 0.64455 0.0
O38 O 0.71132 0.87862 0.70878 0.0
C39 C 0.51482 0.82635 0.59687 0.0
O40 O 0.5323 0.85585 0.64703 0.0
C41 C 0.72959 0.80611 0.84538 0.0
C42 C 0.77576 0.76115 0.83383 0.0
C43 C 0.76073 0.78766 0.8768 0.0
N44 N 0.72571 0.7904 0.78686 0.0
N45 N 0.75408 0.76423 0.78014 0.0
C46 C 0.70545 0.83974 0.86986 0.0
H47 H 0.69957 0.86333 0.83268 0.0
H48 H 0.66444 0.81208 0.89049 0.0
H49 H 0.7328 0.86861 0.90569 0.0
C50 C 0.518 0.72687 0.72769 0.0
N51 N 0.56968 0.75982 0.70612 0.0
N52 N 0.60558 0.75665 0.74267 0.0
C53 C 0.57757 0.71931 0.7868 0.0
C54 C 0.5213 0.70034 0.77986 0.0
C55 C 0.46673 0.7212 0.69863 0.0
H56 H 0.4684 0.76179 0.70056 0.0
H57 H 0.42841 0.69064 0.7221 0.0
H58 H 0.46499 0.70931 0.65017 0.0
O59 O 0.63314 0.7642 0.58315 0.0
O60 O 0.69411 0.7645 0.64896 0.0
H61 H 0.57114 0.65062 0.83939 0.0
H62 H 0.61778 0.71798 0.86961 0.0
C63 C 0.60242 0.69381 0.82701 0.0
H64 H 0.63737 0.69325 0.80365 0.0
H65 H 0.75738 0.74707 0.73924 0.0
O66 O 0.53556 0.79656 0.58094 0.0
C67 C 0.67126 0.75316 0.59671 0.0
Co68 Co 0.25067 0.81698 0.2993 0.0
Co69 Co 0.25115 0.90416 0.39079 0.0
C70 C 0.14496 0.80757 0.34436 0.0
O71 O 0.17143 0.78985 0.31332 0.0
O72 O 0.17012 0.85143 0.37658 0.0
C73 C 0.22579 0.70869 0.26154 0.0
O74 O 0.19556 0.6935 0.31114 0.0
C75 C 0.24314 0.946 0.51185 0.0
C76 C 0.28869 0.03654 0.49605 0.0
C77 C 0.26242 0.99695 0.54095 0.0
N78 N 0.25798 0.95553 0.45292 0.0
N79 N 0.28421 0.00967 0.44365 0.0
C80 C 0.2156 0.88939 0.53984 0.0
H81 H 0.22193 0.86015 0.5112 0.0
H82 H 0.23162 0.89088 0.5865 0.0
H83 H 0.17036 0.87349 0.54249 0.0
C84 C 0.32245 0.81012 0.39589 0.0
N85 N 0.28958 0.82913 0.37431 0.0
N86 N 0.29227 0.86775 0.41127 0.0
C87 C 0.32895 0.87618 0.45606 0.0
C88 C 0.3483 0.83907 0.4487 0.0
C89 C 0.32847 0.76485 0.36638 0.0
H90 H 0.28804 0.72593 0.36765 0.0
H91 H 0.35897 0.75683 0.3899 0.0
H92 H 0.34066 0.77556 0.31811 0.0
O93 O 0.28367 0.88723 0.25122 0.0
O94 O 0.2838 0.94813 0.31673 0.0
H95 H 0.39508 0.93637 0.51291 0.0
H96 H 0.32641 0.91364 0.54025 0.0
C97 C 0.35231 0.92467 0.4988 0.0
H98 H 0.35308 0.96091 0.47683 0.0
H99 H 0.30094 0.02846 0.40198 0.0
O100 O 0.2543 0.75987 0.24822 0.0
C101 C 0.29482 0.93641 0.26455 0.0
Co102 Co 0.45499 0.22732 0.0398 0.0
Co103 Co 0.36881 0.13603 0.95108 0.0
C104 C 0.35671 0.23231 0.99406 0.0
O105 O 0.40163 0.25252 0.02413 0.0
O106 O 0.33879 0.18748 0.96376 0.0
C107 C 0.53534 0.33761 0.0753 0.0
O108 O 0.51782 0.35078 0.02594 0.0
C109 C 0.31954 0.0947 0.83048 0.0
C110 C 0.27733 1.00387 0.84342 0.0
C111 C 0.2893 0.04448 0.8001 0.0
N112 N 0.32582 0.08419 0.88877 0.0
N113 N 0.29982 0.02979 0.89638 0.0
C114 C 0.34071 0.1518 0.80521 0.0
H115 H 0.3456 0.18119 0.84204 0.0
H116 H 0.3818 0.16674 0.784 0.0
H117 H 0.31205 0.15135 0.76973 0.0
C118 C 0.53294 0.23392 0.9433 0.0
N119 N 0.48136 0.21394 0.96564 0.0
N120 N 0.44576 0.17368 0.93011 0.0
C121 C 0.47401 0.16519 0.88551 0.0
C122 C 0.52994 0.20392 0.89148 0.0
C123 C 0.5838 0.28094 0.97124 0.0
H124 H 0.58706 0.27129 0.01952 0.0
H125 H 0.58019 0.31884 0.96992 0.0
H126 H 0.6221 0.29 0.9467 0.0
O127 O 0.41888 0.15808 0.08977 0.0
O128 O 0.3587 0.09399 0.02642 0.0
H129 H 0.41594 0.07904 0.8683 0.0
H130 H 0.48196 0.10476 0.83113 0.0
C131 C 0.4499 0.11525 0.84479 0.0
H132 H 0.43333 0.1238 0.80293 0.0
H133 H 0.29876 0.01031 0.93735 0.0
O134 O 0.51545 0.28676 0.0892 0.0
C135 C 0.38142 0.10817 0.0786 0.0
Co136 Co 0.81935 0.24757 0.71306 0.0
Co137 Co 0.90616 0.25285 0.61791 0.0
C138 C 0.81373 0.14452 0.66042 0.0
O139 O 0.79561 0.16963 0.6933 0.0
O140 O 0.85728 0.17093 0.62826 0.0
C141 C 0.71005 0.22174 0.74191 0.0
O142 O 0.70089 0.20128 0.68651 0.0
C143 C 0.95545 0.242 0.50288 0.0
C144 C 0.03204 0.32367 0.49994 0.0
C145 C 1.00034 0.27616 0.46578 0.0
N146 N 0.95963 0.26941 0.55488 0.0
N147 N 1.00628 0.3175 0.55342 0.0
C148 C 0.91065 0.18353 0.49133 0.0
H149 H 0.9046 0.15817 0.53256 0.0
H150 H 0.87106 0.1828 0.4822 0.0
H151 H 0.92118 0.16479 0.4527 0.0
C152 C 0.81341 0.32517 0.62478 0.0
N153 N 0.83067 0.28954 0.64149 0.0
N154 N 0.86454 0.28936 0.59982 0.0
C155 C 0.86849 0.32392 0.55444 0.0
C156 C 0.8367 0.348 0.56903 0.0
C157 C 0.78104 0.34233 0.66469 0.0
H158 H 0.79122 0.34083 0.71319 0.0
H159 H 0.73616 0.31335 0.65759 0.0
H160 H 0.78972 0.38485 0.65341 0.0
O161 O 0.88837 0.28048 0.76129 0.0
O162 O 0.94957 0.28456 0.69394 0.0
H163 H 0.94726 0.36199 0.51032 0.0
H164 H 0.8917 0.35641 0.46327 0.0
C165 C 0.90296 0.3351 0.49848 0.0
H166 H 0.89681 0.29551 0.47954 0.0
H167 H 0.01907 0.3474 0.5877 0.0
O168 O 0.75901 0.24496 0.76327 0.0
C169 C 0.93767 0.29312 0.74734 0.0
Co170 Co 0.80001 0.59106 0.37144 0.0
Co171 Co 0.7971 0.67886 0.2831 0.0
C172 C 0.90451 0.68783 0.32466 0.0
O173 O 0.87851 0.64353 0.35547 0.0
O174 O 0.87877 0.70701 0.29405 0.0
C175 C 0.8364 0.53545 0.45168 0.0
O176 O 0.87795 0.58622 0.45861 0.0
C177 C 0.80307 0.73023 0.1638 0.0
C178 C 0.75534 0.77278 0.18136 0.0
C179 C 0.78272 0.76149 0.13585 0.0
N180 N 0.78811 0.72347 0.22273 0.0
N181 N 0.76038 0.74978 0.23308 0.0
C182 C 0.8315 0.70253 0.13458 0.0
H183 H 0.82512 0.66619 0.16181 0.0
H184 H 0.8162 0.68941 0.08743 0.0
H185 H 0.8767 0.73218 0.13303 0.0
C186 C 0.72925 0.51439 0.27537 0.0
N187 N 0.76069 0.56614 0.29731 0.0
N188 N 0.75583 0.60164 0.26183 0.0
C189 C 0.71848 0.57287 0.21774 0.0
C190 C 0.70071 0.51664 0.22451 0.0
C191 C 0.72872 0.46447 0.30175 0.0
H192 H 0.77167 0.47478 0.31309 0.0
H193 H 0.71058 0.42896 0.26957 0.0
H194 H 0.7044 0.45246 0.34453 0.0
O195 O 0.76792 0.62744 0.42251 0.0
O196 O 0.76677 0.68949 0.3597 0.0
H197 H 0.69473 0.63364 0.19604 0.0
H198 H 0.65149 0.56642 0.16212 0.0
C199 C 0.69465 0.59744 0.17488 0.0
H200 H 0.71978 0.61096 0.13277 0.0
H201 H 0.74308 0.7503 0.27497 0.0
O202 O 0.79626 0.52741 0.41731 0.0
C203 C 0.75718 0.6662 0.4116 0.0
C204 C 0.23444 0.62441 0.24727 0.0
C205 C 0.22675 0.66647 0.22193 0.0
C206 C 0.2334 0.58259 0.21061 0.0
C207 C 0.22319 0.5807 0.14772 0.0
H208 H 0.24151 0.62396 0.29571 0.0
H209 H 0.2397 0.55093 0.23173 0.0
S210 S 0.196 0.67895 0.06058 0.0
N211 N 0.20762 0.70342 0.1308 0.0
N212 N 0.202 0.62276 0.06246 0.0
C213 C 0.21469 0.6222 0.12208 0.0
C214 C 0.21736 0.66563 0.1591 0.0
C215 C 0.43021 0.61199 0.79102 0.0
C216 C 0.47553 0.65842 0.81788 0.0
C217 C 0.38709 0.57178 0.82667 0.0
C218 C 0.38886 0.57565 0.89048 0.0
H219 H 0.42836 0.6063 0.74216 0.0
H220 H 0.35288 0.53667 0.80426 0.0
S221 S 0.4977 0.68946 0.98295 0.0
N222 N 0.51832 0.70696 0.91195 0.0
N223 N 0.43911 0.62964 0.9791 0.0
C224 C 0.43414 0.62146 0.91793 0.0
C225 C 0.47713 0.66319 0.88159 0.0
C226 C 0.43655 0.83602 0.46042 0.0
C227 C 0.38975 0.83429 0.48697 0.0
C228 C 0.47617 0.83186 0.49616 0.0
C229 C 0.47128 0.82776 0.55982 0.0
H230 H 0.44296 0.84128 0.41174 0.0
H231 H 0.51167 0.83346 0.47398 0.0
S232 S 0.35612 0.82031 0.65145 0.0
N233 N 0.33974 0.82572 0.58052 0.0
N234 N 0.41594 0.82144 0.64795 0.0
C235 C 0.42506 0.82653 0.58697 0.0
C236 C 0.38395 0.82911 0.5505 0.0
C237 C 0.62188 0.20909 0.87893 0.0
C238 C 0.5759 0.20935 0.85276 0.0
C239 C 0.66554 0.21398 0.84277 0.0
C240 C 0.66403 0.21784 0.77905 0.0
H241 H 0.62391 0.20457 0.92766 0.0
H242 H 0.70019 0.21358 0.86481 0.0
S243 S 0.55326 0.22151 0.68859 0.0
N244 N 0.53216 0.21564 0.75975 0.0
N245 N 0.61302 0.22245 0.69142 0.0
C246 C 0.61803 0.21767 0.75232 0.0
C247 C 0.57417 0.21384 0.78927 0.0
C248 C 0.78795 0.43673 0.48815 0.0
C249 C 0.83722 0.48813 0.48198 0.0
C250 C 0.78791 0.39148 0.51669 0.0
C251 C 0.83723 0.39582 0.53891 0.0
H252 H 0.74903 0.43149 0.47132 0.0
H253 H 0.74918 0.35274 0.521 0.0
S254 S 0.97712 0.52041 0.53462 0.0
N255 N 0.9367 0.54015 0.501 0.0
N256 N 0.93616 0.45504 0.55425 0.0
C257 C 0.88662 0.44664 0.53314 0.0
C258 C 0.88674 0.49283 0.50474 0.0
C259 C 0.62134 0.42956 0.08759 0.0
C260 C 0.57773 0.38174 0.11417 0.0
C261 C 0.66134 0.47261 0.12367 0.0
C262 C 0.65847 0.46983 0.18756 0.0
H263 H 0.62491 0.43348 0.03855 0.0
H264 H 0.69482 0.50832 0.10137 0.0
S265 S 0.54889 0.35591 0.27906 0.0
N266 N 0.53258 0.33492 0.20789 0.0
N267 N 0.6058 0.41719 0.27566 0.0
C268 C 0.61424 0.42275 0.2146 0.0
C269 C 0.57435 0.37834 0.1779 0.0
C270 C 0.03817 0.34138 0.77689 0.0
C271 C 0.98214 0.31775 0.79412 0.0
C272 C 0.0809 0.3635 0.82025 0.0
C273 C 0.06927 0.36225 0.88262 0.0
H274 H 0.04928 0.34263 0.72948 0.0
H275 H 0.12324 0.38039 0.80486 0.0
S276 S 0.93009 0.30814 0.95176 0.0
N277 N 0.91781 0.29674 0.8782 0.0
N278 N 0.99797 0.33815 0.95927 0.0
C279 C 0.01363 0.3399 0.90041 0.0
C280 C 0.97015 0.31775 0.85633 0.0
C281 C 0.70664 0.71534 0.44387 0.0
C282 C 0.7333 0.68531 0.45986 0.0
C283 C 0.68539 0.73582 0.48826 0.0
C284 C 0.69065 0.72784 0.55052 0.0
H285 H 0.70222 0.72334 0.39655 0.0
H286 H 0.66592 0.75928 0.47363 0.0
S287 S 0.7547 0.65005 0.61675 0.0
N288 N 0.76198 0.64699 0.54259 0.0
N289 N 0.72243 0.68579 0.62599 0.0
C290 C 0.71631 0.69704 0.56722 0.0
C291 C 0.73744 0.67565 0.52196 0.0
C292 C 0.33225 0.00876 0.1114 0.0
C293 C 0.36271 0.06545 0.12708 0.0
C294 C 0.31168 0.9673 0.15602 0.0
C295 C 0.32005 0.98083 0.21818 0.0
H296 H 0.32385 0.99612 0.06416 0.0
H297 H 0.28785 0.92438 0.14163 0.0
S298 S 0.39944 0.12266 0.28368 0.0
N299 N 0.40208 0.13269 0.20947 0.0
N300 N 0.3632 0.05479 0.29326 0.0
C301 C 0.3514 0.03723 0.23459 0.0
C302 C 0.37283 0.07949 0.18911 0.0
C303 C 0.35324 0.32004 0.99693 0.0
C304 C 0.3248 0.2617 0.996 0.0
C305 C 0.32462 0.34941 1.00148 0.0
C306 C 0.26659 0.32154 0.00714 0.0
H307 H 0.39803 0.34324 0.99362 0.0
H308 H 0.34821 0.39436 1.00129 0.0
S309 S 0.17281 0.16904 0.00826 0.0
N310 N 0.23543 0.17698 1.00098 0.0
N311 N 0.18159 0.23232 0.0116 0.0
C312 C 0.23762 0.2632 0.00699 0.0
C313 C 0.26674 0.23323 1.00074 0.0
C314 C 0.81119 0.05342 0.66955 0.0
C315 C 0.78316 0.08327 0.66102 0.0
C316 C 0.78177 0.99534 0.67598 0.0
C317 C 0.72349 0.96524 0.67251 0.0
H318 H 0.85599 0.07519 0.67285 0.0
H319 H 0.80482 0.97383 0.68279 0.0
S320 S 0.6312 0.02448 0.64878 0.0
N321 N 0.69434 0.07886 0.64895 0.0
N322 N 0.63916 0.97001 0.65906 0.0
C323 C 0.69527 0.99483 0.66292 0.0
C324 C 0.72508 0.05378 0.6577 0.0
C325 C 0.054 0.80536 0.33553 0.0
C326 C 0.08371 0.77682 0.34096 0.0
C327 C 0.99608 0.77645 0.32795 0.0
C328 C 0.96589 0.71803 0.32713 0.0
H329 H 0.07575 0.85031 0.33595 0.0
H330 H 0.97472 0.79993 0.32414 0.0
S331 S 0.02432 0.62408 0.34097 0.0
N332 N 0.07875 0.68711 0.34501 0.0
N333 N 0.9702 0.63284 0.33271 0.0
C334 C 0.99523 0.68917 0.33311 0.0
C335 C 0.05405 0.71853 0.33952 0.0
C336 C 0.06544 0.29601 0.37937 0.0
C337 C 0.01049 0.27127 0.40024 0.0
C338 C 0.07792 0.30159 0.31711 0.0
C339 C 0.03588 0.28136 0.27252 0.0
H340 H 0.09951 0.31373 0.41156 0.0
H341 H 0.12105 0.32502 0.30494 0.0
S342 S 0.88458 0.2137 0.30294 0.0
N343 N 0.91353 0.22904 0.37092 0.0
N344 N 0.93624 0.23376 0.25452 0.0
C345 C 0.98042 0.25443 0.29301 0.0
C346 C 0.96786 0.25065 0.3565 0.0
C347 C 0.72416 0.77036 0.98309 0.0
C348 C 0.76909 0.78682 0.94324 0.0
C349 C 0.72959 0.76339 0.04537 0.0
C350 C 0.78003 0.77224 0.07017 0.0
H351 H 0.68383 0.76053 0.96586 0.0
H352 H 0.69339 0.74922 0.07402 0.0
S353 S 0.9118 0.82199 0.98607 0.0
N354 N 0.86654 0.81527 0.93328 0.0
N355 N 0.87722 0.8038 0.05082 0.0
C356 C 0.82584 0.79075 0.03119 0.0
C357 C 0.82018 0.79746 0.9676 0.0
C358 C 0.32335 0.06392 0.69303 0.0
C359 C 0.2796 0.0345 0.73395 0.0
C360 C 0.31674 0.05172 0.63075 0.0
C361 C 0.26623 0.00943 0.60695 0.0
H362 H 0.3637 0.09521 0.70933 0.0
H363 H 0.35211 0.07467 0.60123 0.0
S364 S 0.13724 0.92416 0.69447 0.0
N365 N 0.18322 0.96338 0.74632 0.0
N366 N 0.1702 0.94159 0.6287 0.0
C367 C 0.22159 0.98087 0.64713 0.0
C368 C 0.2285 0.99303 0.71079 0.0
loop_
_geom_bond_atom_site_label_1
_geom_bond_atom_site_label_2
_geom_bond_distance
_geom_bond_site_symmetry_2
_ccdc_geom_bond_type
Co0 O3 1.970 . S
Co0 N17 1.989 1_556 S
Co0 O25 1.967 . S
Co0 O32 1.920 . S
Co1 O4 1.966 . S
Co1 N10 2.022 . S
Co1 N18 1.993 . S
Co1 O26 1.941 1_554 S
C2 O3 1.258 1_554 S
C2 O4 1.263 . S
O3 Co0 1.970 . S
O3 C2 1.258 1_556 S
O4 Co1 1.966 . S
O4 C2 1.263 . S
C5 O6 1.235 . S
C5 O32 1.289 . S
O6 C5 1.235 . S
C7 C9 1.400 . S
C7 N10 1.351 . S
C7 C12 1.501 . S
C8 C9 1.387 . S
C8 N11 1.341 . S
C9 C7 1.400 . S
C9 C8 1.387 . S
N10 Co1 2.022 . S
N10 C7 1.351 . S
N10 N11 1.365 . S
N11 C8 1.341 . S
N11 N10 1.365 . S
N11 H31 0.862 . S
C12 C7 1.501 . S
C12 H13 0.961 . S
C12 H14 0.961 . S
C12 H15 0.960 . S
H13 C12 0.961 . S
H14 C12 0.961 . S
H15 C12 0.960 . S
C16 N17 1.342 . S
C16 C20 1.401 . S
C16 C21 1.499 1_554 S
N17 Co0 1.989 1_554 S
N17 C16 1.342 . S
N17 N18 1.388 . S
N18 Co1 1.993 . S
N18 N17 1.388 . S
N18 C19 1.346 . S
C19 N18 1.346 . S
C19 C20 1.396 . S
C19 C29 1.510 . S
C20 C16 1.401 . S
C20 C19 1.396 . S
C21 C16 1.499 1_556 S
C21 H22 0.959 . S
C21 H23 0.960 1_556 S
C21 H24 0.961 . S
H22 C21 0.959 . S
H23 C21 0.960 1_554 S
H24 C21 0.961 . S
O25 Co0 1.967 . S
O25 C33 1.258 . S
O26 Co1 1.941 1_556 S
O26 C33 1.266 . S
H27 C29 0.959 . S
H28 C29 0.961 . S
C29 C19 1.510 . S
C29 H27 0.959 . S
C29 H28 0.961 . S
C29 H30 0.960 . S
H30 C29 0.960 . S
H31 N11 0.862 . S
O32 Co0 1.920 . S
O32 C5 1.289 . S
C33 O25 1.258 . S
C33 O26 1.266 . S
Co34 O37 1.970 . S
Co34 N51 1.989 . S
Co34 O59 1.967 . S
Co34 O66 1.920 . S
Co35 O38 1.966 . S
Co35 N44 2.022 . S
Co35 N52 1.993 . S
Co35 O60 1.941 . S
C36 O37 1.258 . S
C36 O38 1.263 . S
O37 Co34 1.970 . S
O37 C36 1.258 . S
O38 Co35 1.966 . S
O38 C36 1.263 . S
C39 O40 1.235 . S
C39 O66 1.289 . S
O40 C39 1.235 . S
C41 C43 1.400 . S
C41 N44 1.351 . S
C41 C46 1.501 . S
C42 C43 1.387 . S
C42 N45 1.341 . S
C43 C41 1.400 . S
C43 C42 1.387 . S
N44 Co35 2.022 . S
N44 C41 1.351 . S
N44 N45 1.365 . S
N45 C42 1.341 . S
N45 N44 1.365 . S
N45 H65 0.862 . S
C46 C41 1.501 . S
C46 H47 0.961 . S
C46 H48 0.961 . S
C46 H49 0.960 . S
H47 C46 0.961 . S
H48 C46 0.961 . S
H49 C46 0.960 . S
C50 N51 1.342 . S
C50 C54 1.401 . S
C50 C55 1.499 . S
N51 Co34 1.989 . S
N51 C50 1.342 . S
N51 N52 1.388 . S
N52 Co35 1.993 . S
N52 N51 1.388 . S
N52 C53 1.346 . S
C53 N52 1.346 . S
C53 C54 1.396 . S
C53 C63 1.510 . S
C54 C50 1.401 . S
C54 C53 1.396 . S
C55 C50 1.499 . S
C55 H56 0.959 . S
C55 H57 0.960 . S
C55 H58 0.961 . S
H56 C55 0.959 . S
H57 C55 0.960 . S
H58 C55 0.961 . S
O59 Co34 1.967 . S
O59 C67 1.258 . S
O60 Co35 1.941 . S
O60 C67 1.266 . S
H61 C63 0.959 . S
H62 C63 0.961 . S
C63 C53 1.510 . S
C63 H61 0.959 . S
C63 H62 0.961 . S
C63 H64 0.960 . S
H64 C63 0.960 . S
H65 N45 0.862 . S
O66 Co34 1.920 . S
O66 C39 1.289 . S
C67 O59 1.258 . S
C67 O60 1.266 . S
Co68 O71 1.970 . S
Co68 N85 1.989 . S
Co68 O93 1.967 . S
Co68 O100 1.920 . S
Co69 O72 1.966 . S
Co69 N78 2.022 . S
Co69 N86 1.993 . S
Co69 O94 1.941 . S
C70 O71 1.258 . S
C70 O72 1.263 . S
O71 Co68 1.970 . S
O71 C70 1.258 . S
O72 Co69 1.966 . S
O72 C70 1.263 . S
C73 O74 1.235 . S
C73 O100 1.289 . S
O74 C73 1.235 . S
C75 C77 1.400 . S
C75 N78 1.351 . S
C75 C80 1.501 . S
C76 C77 1.387 1_545 S
C76 N79 1.341 . S
C77 C75 1.400 . S
C77 C76 1.387 1_565 S
N78 Co69 2.022 . S
N78 C75 1.351 . S
N78 N79 1.365 1_565 S
N79 C76 1.341 . S
N79 N78 1.365 1_545 S
N79 H99 0.862 . S
C80 C75 1.501 . S
C80 H81 0.961 . S
C80 H82 0.961 . S
C80 H83 0.960 . S
H81 C80 0.961 . S
H82 C80 0.961 . S
H83 C80 0.960 . S
C84 N85 1.342 . S
C84 C88 1.401 . S
C84 C89 1.499 . S
N85 Co68 1.989 . S
N85 C84 1.342 . S
N85 N86 1.388 . S
N86 Co69 1.993 . S
N86 N85 1.388 . S
N86 C87 1.346 . S
C87 N86 1.346 . S
C87 C88 1.396 . S
C87 C97 1.510 . S
C88 C84 1.401 . S
C88 C87 1.396 . S
C89 C84 1.499 . S
C89 H90 0.959 . S
C89 H91 0.960 . S
C89 H92 0.961 . S
H90 C89 0.959 . S
H91 C89 0.960 . S
H92 C89 0.961 . S
O93 Co68 1.967 . S
O93 C101 1.258 . S
O94 Co69 1.941 . S
O94 C101 1.266 . S
H95 C97 0.959 . S
H96 C97 0.961 . S
C97 C87 1.510 . S
C97 H95 0.959 . S
C97 H96 0.961 . S
C97 H98 0.960 . S
H98 C97 0.960 . S
H99 N79 0.862 . S
O100 Co68 1.920 . S
O100 C73 1.289 . S
C101 O93 1.258 . S
C101 O94 1.266 . S
Co102 O105 1.970 . S
Co102 N119 1.989 1_554 S
Co102 O127 1.967 . S
Co102 O134 1.920 . S
Co103 O106 1.966 . S
Co103 N112 2.022 . S
Co103 N120 1.993 . S
Co103 O128 1.941 1_556 S
C104 O105 1.258 1_556 S
C104 O106 1.263 . S
O105 Co102 1.970 . S
O105 C104 1.258 1_554 S
O106 Co103 1.966 . S
O106 C104 1.263 . S
C107 O108 1.235 . S
C107 O134 1.289 . S
O108 C107 1.235 . S
C109 C111 1.400 . S
C109 N112 1.351 . S
C109 C114 1.501 . S
C110 C111 1.387 . S
C110 N113 1.341 . S
C111 C109 1.400 . S
C111 C110 1.387 . S
N112 Co103 2.022 . S
N112 C109 1.351 . S
N112 N113 1.365 . S
N113 C110 1.341 . S
N113 N112 1.365 . S
N113 H133 0.862 . S
C114 C109 1.501 . S
C114 H115 0.961 . S
C114 H116 0.961 . S
C114 H117 0.960 . S
H115 C114 0.961 . S
H116 C114 0.961 . S
H117 C114 0.960 . S
C118 N119 1.342 . S
C118 C122 1.401 . S
C118 C123 1.499 1_556 S
N119 Co102 1.989 1_556 S
N119 C118 1.342 . S
N119 N120 1.388 . S
N120 Co103 1.993 . S
N120 N119 1.388 . S
N120 C121 1.346 . S
C121 N120 1.346 . S
C121 C122 1.396 . S
C121 C131 1.510 . S
C122 C118 1.401 . S
C122 C121 1.396 . S
C123 C118 1.499 1_554 S
C123 H124 0.959 . S
C123 H125 0.960 1_554 S
C123 H126 0.961 . S
H124 C123 0.959 . S
H125 C123 0.960 1_556 S
H126 C123 0.961 . S
O127 Co102 1.967 . S
O127 C135 1.258 . S
O128 Co103 1.941 1_554 S
O128 C135 1.266 . S
H129 C131 0.959 . S
H130 C131 0.961 . S
C131 C121 1.510 . S
C131 H129 0.959 . S
C131 H130 0.961 . S
C131 H132 0.960 . S
H132 C131 0.960 . S
H133 N113 0.862 . S
O134 Co102 1.920 . S
O134 C107 1.289 . S
C135 O127 1.258 . S
C135 O128 1.266 . S
Co136 O139 1.970 . S
Co136 N153 1.989 . S
Co136 O161 1.967 . S
Co136 O168 1.920 . S
Co137 O140 1.966 . S
Co137 N146 2.022 . S
Co137 N154 1.993 . S
Co137 O162 1.941 . S
C138 O139 1.258 . S
C138 O140 1.263 . S
O139 Co136 1.970 . S
O139 C138 1.258 . S
O140 Co137 1.966 . S
O140 C138 1.263 . S
C141 O142 1.235 . S
C141 O168 1.289 . S
O142 C141 1.235 . S
C143 C145 1.400 . S
C143 N146 1.351 . S
C143 C148 1.501 . S
C144 C145 1.387 1_455 S
C144 N147 1.341 . S
C145 C143 1.400 . S
C145 C144 1.387 1_655 S
N146 Co137 2.022 . S
N146 C143 1.351 . S
N146 N147 1.365 1_655 S
N147 C144 1.341 . S
N147 N146 1.365 1_455 S
N147 H167 0.862 . S
C148 C143 1.501 . S
C148 H149 0.961 . S
C148 H150 0.961 . S
C148 H151 0.960 . S
H149 C148 0.961 . S
H150 C148 0.961 . S
H151 C148 0.960 . S
C152 N153 1.342 . S
C152 C156 1.401 . S
C152 C157 1.499 . S
N153 Co136 1.989 . S
N153 C152 1.342 . S
N153 N154 1.388 . S
N154 Co137 1.993 . S
N154 N153 1.388 . S
N154 C155 1.346 . S
C155 N154 1.346 . S
C155 C156 1.396 . S
C155 C165 1.510 . S
C156 C152 1.401 . S
C156 C155 1.396 . S
C157 C152 1.499 . S
C157 H158 0.959 . S
C157 H159 0.960 . S
C157 H160 0.961 . S
H158 C157 0.959 . S
H159 C157 0.960 . S
H160 C157 0.961 . S
O161 Co136 1.967 . S
O161 C169 1.258 . S
O162 Co137 1.941 . S
O162 C169 1.266 . S
H163 C165 0.959 . S
H164 C165 0.961 . S
C165 C155 1.510 . S
C165 H163 0.959 . S
C165 H164 0.961 . S
C165 H166 0.960 . S
H166 C165 0.960 . S
H167 N147 0.862 . S
O168 Co136 1.920 . S
O168 C141 1.289 . S
C169 O161 1.258 . S
C169 O162 1.266 . S
Co170 O173 1.970 . S
Co170 N187 1.989 . S
Co170 O195 1.967 . S
Co170 O202 1.920 . S
Co171 O174 1.966 . S
Co171 N180 2.022 . S
Co171 N188 1.993 . S
Co171 O196 1.941 . S
C172 O173 1.258 . S
C172 O174 1.263 . S
O173 Co170 1.970 . S
O173 C172 1.258 . S
O174 Co171 1.966 . S
O174 C172 1.263 . S
C175 O176 1.235 . S
C175 O202 1.289 . S
O176 C175 1.235 . S
C177 C179 1.400 . S
C177 N180 1.351 . S
C177 C182 1.501 . S
C178 C179 1.387 . S
C178 N181 1.341 . S
C179 C177 1.400 . S
C179 C178 1.387 . S
N180 Co171 2.022 . S
N180 C177 1.351 . S
N180 N181 1.365 . S
N181 C178 1.341 . S
N181 N180 1.365 . S
N181 H201 0.862 . S
C182 C177 1.501 . S
C182 H183 0.961 . S
C182 H184 0.961 . S
C182 H185 0.960 . S
H183 C182 0.961 . S
H184 C182 0.961 . S
H185 C182 0.960 . S
C186 N187 1.342 . S
C186 C190 1.401 . S
C186 C191 1.499 . S
N187 Co170 1.989 . S
N187 C186 1.342 . S
N187 N188 1.388 . S
N188 Co171 1.993 . S
N188 N187 1.388 . S
N188 C189 1.346 . S
C189 N188 1.346 . S
C189 C190 1.396 . S
C189 C199 1.510 . S
C190 C186 1.401 . S
C190 C189 1.396 . S
C191 C186 1.499 . S
C191 H192 0.959 . S
C191 H193 0.960 . S
C191 H194 0.961 . S
H192 C191 0.959 . S
H193 C191 0.960 . S
H194 C191 0.961 . S
O195 Co170 1.967 . S
O195 C203 1.258 . S
O196 Co171 1.941 . S
O196 C203 1.266 . S
H197 C199 0.959 . S
H198 C199 0.961 . S
C199 C189 1.510 . S
C199 H197 0.959 . S
C199 H198 0.961 . S
C199 H200 0.960 . S
H200 C199 0.960 . S
H201 N181 0.862 . S
O202 Co170 1.920 . S
O202 C175 1.289 . S
C203 O195 1.258 . S
C203 O196 1.266 . S
C204 C205 1.369 . S
C204 C206 1.419 . S
C204 H208 0.930 . S
C205 C204 1.369 . S
C205 C214 1.429 . S
C206 C204 1.419 . S
C206 C207 1.363 . S
C206 H209 0.929 . S
C207 C206 1.363 . S
C207 C213 1.428 . S
H208 C204 0.930 . S
H209 C206 0.929 . S
S210 N211 1.613 . S
S210 N212 1.610 . S
N211 S210 1.613 . S
N211 C214 1.350 . S
N212 S210 1.610 . S
N212 C213 1.351 . S
C213 C207 1.428 . S
C213 N212 1.351 . S
C213 C214 1.434 . S
C214 C205 1.429 . S
C214 N211 1.350 . S
C214 C213 1.434 . S
C215 C216 1.369 . S
C215 C217 1.419 . S
C215 H219 0.930 . S
C216 C215 1.369 . S
C216 C225 1.429 . S
C217 C215 1.419 . S
C217 C218 1.363 . S
C217 H220 0.929 . S
C218 C217 1.363 . S
C218 C224 1.428 . S
H219 C215 0.930 . S
H220 C217 0.929 . S
S221 N222 1.613 . S
S221 N223 1.610 . S
N222 S221 1.613 . S
N222 C225 1.350 . S
N223 S221 1.610 . S
N223 C224 1.351 . S
C224 C218 1.428 . S
C224 N223 1.351 . S
C224 C225 1.434 . S
C225 C216 1.429 . S
C225 N222 1.350 . S
C225 C224 1.434 . S
C226 C227 1.369 . S
C226 C228 1.419 . S
C226 H230 0.930 . S
C227 C226 1.369 . S
C227 C236 1.429 . S
C228 C226 1.419 . S
C228 C229 1.363 . S
C228 H231 0.929 . S
C229 C228 1.363 . S
C229 C235 1.428 . S
H230 C226 0.930 . S
H231 C228 0.929 . S
S232 N233 1.613 . S
S232 N234 1.610 . S
N233 S232 1.613 . S
N233 C236 1.350 . S
N234 S232 1.610 . S
N234 C235 1.351 . S
C235 C229 1.428 . S
C235 N234 1.351 . S
C235 C236 1.434 . S
C236 C227 1.429 . S
C236 N233 1.350 . S
C236 C235 1.434 . S
C237 C238 1.369 . S
C237 C239 1.419 . S
C237 H241 0.930 . S
C238 C237 1.369 . S
C238 C247 1.429 . S
C239 C237 1.419 . S
C239 C240 1.363 . S
C239 H242 0.929 . S
C240 C239 1.363 . S
C240 C246 1.428 . S
H241 C237 0.930 . S
H242 C239 0.929 . S
S243 N244 1.613 . S
S243 N245 1.610 . S
N244 S243 1.613 . S
N244 C247 1.350 . S
N245 S243 1.610 . S
N245 C246 1.351 . S
C246 C240 1.428 . S
C246 N245 1.351 . S
C246 C247 1.434 . S
C247 C238 1.429 . S
C247 N244 1.350 . S
C247 C246 1.434 . S
C248 C249 1.369 . S
C248 C250 1.419 . S
C248 H252 0.930 . S
C249 C248 1.369 . S
C249 C258 1.429 . S
C250 C248 1.419 . S
C250 C251 1.363 . S
C250 H253 0.929 . S
C251 C250 1.363 . S
C251 C257 1.428 . S
H252 C248 0.930 . S
H253 C250 0.929 . S
S254 N255 1.613 . S
S254 N256 1.610 . S
N255 S254 1.613 . S
N255 C258 1.350 . S
N256 S254 1.610 . S
N256 C257 1.351 . S
C257 C251 1.428 . S
C257 N256 1.351 . S
C257 C258 1.434 . S
C258 C249 1.429 . S
C258 N255 1.350 . S
C258 C257 1.434 . S
C259 C260 1.369 . S
C259 C261 1.419 . S
C259 H263 0.930 . S
C260 C259 1.369 . S
C260 C269 1.429 . S
C261 C259 1.419 . S
C261 C262 1.363 . S
C261 H264 0.929 . S
C262 C261 1.363 . S
C262 C268 1.428 . S
H263 C259 0.930 . S
H264 C261 0.929 . S
S265 N266 1.613 . S
S265 N267 1.610 . S
N266 S265 1.613 . S
N266 C269 1.350 . S
N267 S265 1.610 . S
N267 C268 1.351 . S
C268 C262 1.428 . S
C268 N267 1.351 . S
C268 C269 1.434 . S
C269 C260 1.429 . S
C269 N266 1.350 . S
C269 C268 1.434 . S
C270 C271 1.369 1_455 S
C270 C272 1.419 . S
C270 H274 0.930 . S
C271 C270 1.369 1_655 S
C271 C280 1.429 . S
C272 C270 1.419 . S
C272 C273 1.363 . S
C272 H275 0.929 . S
C273 C272 1.363 . S
C273 C279 1.428 . S
H274 C270 0.930 . S
H275 C272 0.929 . S
S276 N277 1.613 . S
S276 N278 1.610 1_655 S
N277 S276 1.613 . S
N277 C280 1.350 . S
N278 S276 1.610 1_455 S
N278 C279 1.351 . S
C279 C273 1.428 . S
C279 N278 1.351 . S
C279 C280 1.434 1_455 S
C280 C271 1.429 . S
C280 N277 1.350 . S
C280 C279 1.434 1_655 S
C281 C282 1.369 . S
C281 C283 1.419 . S
C281 H285 0.930 . S
C282 C281 1.369 . S
C282 C291 1.429 . S
C283 C281 1.419 . S
C283 C284 1.363 . S
C283 H286 0.929 . S
C284 C283 1.363 . S
C284 C290 1.428 . S
H285 C281 0.930 . S
H286 C283 0.929 . S
S287 N288 1.613 . S
S287 N289 1.610 . S
N288 S287 1.613 . S
N288 C291 1.350 . S
N289 S287 1.610 . S
N289 C290 1.351 . S
C290 C284 1.428 . S
C290 N289 1.351 . S
C290 C291 1.434 . S
C291 C282 1.429 . S
C291 N288 1.350 . S
C291 C290 1.434 . S
C292 C293 1.369 . S
C292 C294 1.419 1_545 S
C292 H296 0.930 . S
C293 C292 1.369 . S
C293 C302 1.429 . S
C294 C292 1.419 1_565 S
C294 C295 1.363 . S
C294 H297 0.929 . S
C295 C294 1.363 . S
C295 C301 1.428 1_565 S
H296 C292 0.930 . S
H297 C294 0.929 . S
S298 N299 1.613 . S
S298 N300 1.610 . S
N299 S298 1.613 . S
N299 C302 1.350 . S
N300 S298 1.610 . S
N300 C301 1.351 . S
C301 C295 1.428 1_545 S
C301 N300 1.351 . S
C301 C302 1.434 . S
C302 C293 1.429 . S
C302 N299 1.350 . S
C302 C301 1.434 . S
C303 C304 1.369 . S
C303 C305 1.419 . S
C303 H307 0.930 . S
C304 C303 1.369 . S
C304 C313 1.429 1_556 S
C305 C303 1.419 . S
C305 C306 1.363 1_556 S
C305 H308 0.929 . S
C306 C305 1.363 1_554 S
C306 C312 1.428 . S
H307 C303 0.930 . S
H308 C305 0.929 . S
S309 N310 1.613 . S
S309 N311 1.610 . S
N310 S309 1.613 . S
N310 C313 1.350 . S
N311 S309 1.610 . S
N311 C312 1.351 . S
C312 C306 1.428 . S
C312 N311 1.351 . S
C312 C313 1.434 . S
C313 C304 1.429 1_554 S
C313 N310 1.350 . S
C313 C312 1.434 . S
C314 C315 1.369 . S
C314 C316 1.419 1_545 S
C314 H318 0.930 . S
C315 C314 1.369 . S
C315 C324 1.429 . S
C316 C314 1.419 1_565 S
C316 C317 1.363 . S
C316 H319 0.929 . S
C317 C316 1.363 . S
C317 C323 1.428 . S
H318 C314 0.930 . S
H319 C316 0.929 . S
S320 N321 1.613 . S
S320 N322 1.610 1_545 S
N321 S320 1.613 . S
N321 C324 1.350 . S
N322 S320 1.610 1_565 S
N322 C323 1.351 . S
C323 C317 1.428 . S
C323 N322 1.351 . S
C323 C324 1.434 1_565 S
C324 C315 1.429 . S
C324 N321 1.350 . S
C324 C323 1.434 1_545 S
C325 C326 1.369 . S
C325 C327 1.419 1_455 S
C325 H329 0.930 . S
C326 C325 1.369 . S
C326 C335 1.429 . S
C327 C325 1.419 1_655 S
C327 C328 1.363 . S
C327 H330 0.929 . S
C328 C327 1.363 . S
C328 C334 1.428 . S
H329 C325 0.930 . S
H330 C327 0.929 . S
S331 N332 1.613 . S
S331 N333 1.610 1_455 S
N332 S331 1.613 . S
N332 C335 1.350 . S
N333 S331 1.610 1_655 S
N333 C334 1.351 . S
C334 C328 1.428 . S
C334 N333 1.351 . S
C334 C335 1.434 1_655 S
C335 C326 1.429 . S
C335 N332 1.350 . S
C335 C334 1.434 1_455 S
C336 C337 1.369 1_455 S
C336 C338 1.419 . S
C336 H340 0.930 . S
C337 C336 1.369 1_655 S
C337 C346 1.429 . S
C338 C336 1.419 . S
C338 C339 1.363 . S
C338 H341 0.929 . S
C339 C338 1.363 . S
C339 C345 1.428 1_455 S
H340 C336 0.930 . S
H341 C338 0.929 . S
S342 N343 1.613 . S
S342 N344 1.610 . S
N343 S342 1.613 . S
N343 C346 1.350 . S
N344 S342 1.610 . S
N344 C345 1.351 . S
C345 C339 1.428 1_655 S
C345 N344 1.351 . S
C345 C346 1.434 . S
C346 C337 1.429 . S
C346 N343 1.350 . S
C346 C345 1.434 . S
C347 C348 1.369 . S
C347 C349 1.419 1_556 S
C347 H351 0.930 . S
C348 C347 1.369 . S
C348 C357 1.429 . S
C349 C347 1.419 1_554 S
C349 C350 1.363 . S
C349 H352 0.929 . S
C350 C349 1.363 . S
C350 C356 1.428 . S
H351 C347 0.930 . S
H352 C349 0.929 . S
S353 N354 1.602 1_554 S
S353 N355 1.622 . S
N354 S353 1.602 1_556 S
N354 C357 1.350 . S
N355 S353 1.622 . S
N355 C356 1.351 . S
C356 C350 1.428 . S
C356 N355 1.351 . S
C356 C357 1.434 1_554 S
C357 C348 1.429 . S
C357 N354 1.350 . S
C357 C356 1.434 1_556 S
C358 C359 1.369 . S
C358 C360 1.419 . S
C358 H362 0.930 . S
C359 C358 1.369 . S
C359 C368 1.429 1_545 S
C360 C358 1.419 . S
C360 C361 1.363 1_545 S
C360 H363 0.929 . S
C361 C360 1.363 1_565 S
C361 C367 1.428 . S
H362 C358 0.930 . S
H363 C360 0.929 . S
S364 N365 1.613 . S
S364 N366 1.610 . S
N365 S364 1.613 . S
N365 C368 1.350 . S
N366 S364 1.610 . S
N366 C367 1.351 . S
C367 C361 1.428 . S
C367 N366 1.351 . S
C367 C368 1.434 . S
C368 C359 1.429 1_565 S
C368 N365 1.350 . S
C368 C367 1.434 . S
C205 C73 1.573 . S
C207 C20 1.603 . S
C216 C54 1.602 . S
C218 C5 1.568 . S
C227 C88 1.602 . S
C229 C39 1.568 . S
C238 C122 1.602 . S
C240 C141 1.568 . S
C249 C175 1.569 . S
C251 C156 1.603 . S
C260 C107 1.573 . S
C262 C190 1.603 . S
C271 C169 1.297 . S
C273 C33 1.296 . S
C282 C203 1.298 . S
C284 C67 1.295 . S
C293 C135 1.299 . S
C295 C101 1.295 . S
C304 C104 1.619 . S
C306 C2 1.619 . S
C315 C138 1.616 . S
C317 C36 1.616 . S
C326 C70 1.615 . S
C328 C172 1.616 . S
C337 C145 1.480 . S
C339 C9 1.476 . S
C348 C43 1.480 . S
C350 C179 1.481 . S
C359 C111 1.476 . S
C361 C77 1.480 . S
