# Generated by pormake.
# Topology atn, (4)-cn, num edge types: 1
# Building blocks:
#     Node 0, Type 0, BuildingBlock: UXUYUI_clean_sbu_0, # of connection points: 4
#     Node 1, Type 0, BuildingBlock: UXUYUI_clean_sbu_0, # of connection points: 4
#     Node 2, Type 0, BuildingBlock: UXUYUI_clean_sbu_0, # of connection points: 4
#     Node 3, Type 0, BuildingBlock: UXUYUI_clean_sbu_0, # of connection points: 4
#     Node 4, Type 0, BuildingBlock: UXUYUI_clean_sbu_0, # of connection points: 4
#     Node 5, Type 0, BuildingBlock: UXUYUI_clean_sbu_0, # of connection points: 4
#     Node 6, Type 0, BuildingBlock: UXUYUI_clean_sbu_0, # of connection points: 4
#     Node 7, Type 0, BuildingBlock: UXUYUI_clean_sbu_0, # of connection points: 4
#     Node 8, Type 0, BuildingBlock: UXUYUI_clean_sbu_0, # of connection points: 4
#     Node 9, Type 0, BuildingBlock: UXUYUI_clean_sbu_0, # of connection points: 4
#     Node 10, Type 0, BuildingBlock: UXUYUI_clean_sbu_0, # of connection points: 4
#     Node 11, Type 0, BuildingBlock: UXUYUI_clean_sbu_0, # of connection points: 4
#     Node 12, Type 0, BuildingBlock: UXUYUI_clean_sbu_0, # of connection points: 4
#     Node 13, Type 0, BuildingBlock: UXUYUI_clean_sbu_0, # of connection points: 4
#     Node 14, Type 0, BuildingBlock: UXUYUI_clean_sbu_0, # of connection points: 4
#     Node 15, Type 0, BuildingBlock: UXUYUI_clean_sbu_0, # of connection points: 4
#     Edge 16, Type (0, 0), BuildingBlock: XIVTED_clean_linker_0, # of connection points: 2
#     Edge 17, Type (0, 0), BuildingBlock: XIVTED_clean_linker_0, # of connection points: 2
#     Edge 18, Type (0, 0), BuildingBlock: XIVTED_clean_linker_0, # of connection points: 2
#     Edge 19, Type (0, 0), BuildingBlock: XIVTED_clean_linker_0, # of connection points: 2
#     Edge 20, Type (0, 0), BuildingBlock: XIVTED_clean_linker_0, # of connection points: 2
#     Edge 21, Type (0, 0), BuildingBlock: XIVTED_clean_linker_0, # of connection points: 2
#     Edge 22, Type (0, 0), BuildingBlock: XIVTED_clean_linker_0, # of connection points: 2
#     Edge 23, Type (0, 0), BuildingBlock: XIVTED_clean_linker_0, # of connection points: 2
#     Edge 24, Type (0, 0), BuildingBlock: XIVTED_clean_linker_0, # of connection points: 2
#     Edge 25, Type (0, 0), BuildingBlock: XIVTED_clean_linker_0, # of connection points: 2
#     Edge 26, Type (0, 0), BuildingBlock: XIVTED_clean_linker_0, # of connection points: 2
#     Edge 27, Type (0, 0), BuildingBlock: XIVTED_clean_linker_0, # of connection points: 2
#     Edge 28, Type (0, 0), BuildingBlock: XIVTED_clean_linker_0, # of connection points: 2
#     Edge 29, Type (0, 0), BuildingBlock: XIVTED_clean_linker_0, # of connection points: 2
#     Edge 30, Type (0, 0), BuildingBlock: XIVTED_clean_linker_0, # of connection points: 2
#     Edge 31, Type (0, 0), BuildingBlock: XIVTED_clean_linker_0, # of connection points: 2
#     Edge 32, Type (0, 0), BuildingBlock: XIVTED_clean_linker_0, # of connection points: 2
#     Edge 33, Type (0, 0), BuildingBlock: XIVTED_clean_linker_0, # of connection points: 2
#     Edge 34, Type (0, 0), BuildingBlock: XIVTED_clean_linker_0, # of connection points: 2
#     Edge 35, Type (0, 0), BuildingBlock: XIVTED_clean_linker_0, # of connection points: 2
#     Edge 36, Type (0, 0), BuildingBlock: XIVTED_clean_linker_0, # of connection points: 2
#     Edge 37, Type (0, 0), BuildingBlock: XIVTED_clean_linker_0, # of connection points: 2
#     Edge 38, Type (0, 0), BuildingBlock: XIVTED_clean_linker_0, # of connection points: 2
#     Edge 39, Type (0, 0), BuildingBlock: XIVTED_clean_linker_0, # of connection points: 2
#     Edge 40, Type (0, 0), BuildingBlock: XIVTED_clean_linker_0, # of connection points: 2
#     Edge 41, Type (0, 0), BuildingBlock: XIVTED_clean_linker_0, # of connection points: 2
#     Edge 42, Type (0, 0), BuildingBlock: XIVTED_clean_linker_0, # of connection points: 2
#     Edge 43, Type (0, 0), BuildingBlock: XIVTED_clean_linker_0, # of connection points: 2
#     Edge 44, Type (0, 0), BuildingBlock: XIVTED_clean_linker_0, # of connection points: 2
#     Edge 45, Type (0, 0), BuildingBlock: XIVTED_clean_linker_0, # of connection points: 2
#     Edge 46, Type (0, 0), BuildingBlock: XIVTED_clean_linker_0, # of connection points: 2
#     Edge 47, Type (0, 0), BuildingBlock: XIVTED_clean_linker_0, # of connection points: 2
# Relax obj value: 0.164
# Max RMSD: 0.140
# Mean RMSD: 0.140
data_MOF--net-atn--node1-UXUYUI_clean_sbu_0--edge1-XIVTED_clean_linker_0
_symmetry_space_group_name_H-M    P1
_symmetry_Int_Tables_number       1
_symmetry_cell_setting            triclinic
loop_
_symmetry_equiv_pos_as_xyz
'x, y, z'
_cell_length_a     91.730783
_cell_length_b     91.739149
_cell_length_c     37.618739
_cell_angle_alpha  89.997642
_cell_angle_beta   89.987089
_cell_angle_gamma 90.009127
loop_
_atom_site_label
_atom_site_type_symbol
_atom_site_fract_x
_atom_site_fract_y
_atom_site_fract_z
_atom_type_partial_charge
Li0 Li 0.21166 0.39211 0.00099 0.0
Li1 Li 0.20104 0.37003 0.02661 0.0
Li2 Li 0.22475 0.36961 0.99423 0.0
Li3 Li 0.20208 0.37207 0.96124 0.0
C4 C 0.22481 0.38848 0.06551 0.0
N5 N 0.23475 0.40688 0.11841 0.0
C6 C 0.21766 0.38905 0.0983 0.0
C7 C 0.23713 0.39715 0.05981 0.0
C8 C 0.22283 0.39845 0.12467 0.0
C9 C 0.24195 0.40642 0.08682 0.0
C10 C 0.17713 0.38802 0.0017 0.0
C11 C 0.15149 0.38294 0.99432 0.0
N12 N 0.14822 0.39501 0.01374 0.0
C13 C 0.17349 0.40049 0.02112 0.0
C14 C 0.16602 0.37927 0.98779 0.0
C15 C 0.15883 0.40379 0.02711 0.0
C16 C 0.21826 0.42035 0.97794 0.0
N17 N 0.21344 0.41257 0.00631 0.0
C18 C 0.21202 0.43413 0.0417 0.0
C19 C 0.2101 0.41915 0.03763 0.0
C20 C 0.21713 0.44249 0.01295 0.0
C21 C 0.22014 0.43539 0.98063 0.0
H22 H 0.22059 0.41487 0.95315 0.0
H23 H 0.20601 0.41277 0.0596 0.0
C24 C 0.19438 0.34872 0.07742 0.0
N25 N 0.19071 0.36231 0.06611 0.0
C26 C 0.18775 0.34278 0.1075 0.0
C27 C 0.17378 0.36497 0.11389 0.0
C28 C 0.18066 0.37046 0.08366 0.0
C29 C 0.17738 0.351 0.12631 0.0
H30 H 0.20265 0.3426 0.06342 0.0
H31 H 0.17826 0.38138 0.07489 0.0
C32 C 0.23272 0.38408 0.93725 0.0
N33 N 0.25856 0.38351 0.89951 0.0
C34 C 0.23381 0.37588 0.90606 0.0
C35 C 0.24471 0.39216 0.94897 0.0
C36 C 0.24698 0.37569 0.88742 0.0
C37 C 0.2577 0.39169 0.92961 0.0
C38 C 0.2007 0.34296 0.98509 0.0
C39 C 0.2078 0.33053 0.97234 0.0
C40 C 0.18572 0.34246 0.99171 0.0
C41 C 0.19973 0.31789 0.96581 0.0
C42 C 0.17803 0.32962 0.98491 0.0
N43 N 0.18513 0.31771 0.97215 0.0
C44 C 0.25385 0.3638 0.01614 0.0
C45 C 0.24561 0.3509 0.96538 0.0
C46 C 0.26731 0.35673 0.01458 0.0
N47 N 0.24334 0.36071 0.99183 0.0
C48 C 0.25885 0.34354 0.96289 0.0
C49 C 0.26989 0.34631 0.98792 0.0
H50 H 0.25172 0.37156 0.03705 0.0
H51 H 0.23702 0.34866 0.94648 0.0
C52 C 0.18241 0.37646 0.90387 0.0
N53 N 0.19279 0.36752 0.91769 0.0
C54 C 0.17595 0.37316 0.87119 0.0
C55 C 0.19119 0.35171 0.86749 0.0
C56 C 0.19728 0.35538 0.90019 0.0
C57 C 0.18042 0.36068 0.8525 0.0
H58 H 0.17927 0.38622 0.91805 0.0
H59 H 0.20581 0.34867 0.91134 0.0
O60 O 0.21984 0.37937 0.03935 0.0
O61 O 0.19146 0.38472 0.99532 0.0
O62 O 0.22001 0.38415 0.9563 0.0
O63 O 0.20845 0.35545 0.99139 0.0
H64 H 0.20821 0.38233 0.10338 0.0
H65 H 0.24282 0.39684 0.03469 0.0
H66 H 0.21736 0.39904 0.1501 0.0
H67 H 0.2514 0.41326 0.08264 0.0
H68 H 0.1428 0.37624 0.9838 0.0
H69 H 0.18189 0.40749 0.03175 0.0
H70 H 0.16854 0.36984 0.97172 0.0
H71 H 0.15589 0.41335 0.04237 0.0
H72 H 0.20967 0.43905 0.06722 0.0
H73 H 0.22373 0.44139 0.95744 0.0
H74 H 0.19103 0.33206 0.11652 0.0
H75 H 0.16581 0.37165 0.12752 0.0
H76 H 0.22463 0.36963 0.8965 0.0
H77 H 0.24401 0.3987 0.9728 0.0
H78 H 0.24801 0.36931 0.86338 0.0
H79 H 0.26709 0.39782 0.9385 0.0
H80 H 0.21941 0.33064 0.9674 0.0
H81 H 0.18013 0.35182 0.00247 0.0
H82 H 0.20507 0.30823 0.95574 0.0
H83 H 0.16643 0.32911 0.98992 0.0
H84 H 0.27554 0.35931 0.03422 0.0
H85 H 0.26023 0.33542 0.94226 0.0
H86 H 0.16782 0.38046 0.86032 0.0
H87 H 0.19487 0.34192 0.85412 0.0
Li88 Li 0.60154 0.21002 0.99669 0.0
Li89 Li 0.62408 0.20194 0.02433 0.0
Li90 Li 0.623 0.22622 0.99358 0.0
Li91 Li 0.62337 0.20317 0.96048 0.0
C92 C 0.60416 0.22782 0.05874 0.0
N93 N 0.58794 0.24502 0.10433 0.0
C94 C 0.60038 0.22267 0.09248 0.0
C95 C 0.59995 0.24185 0.04852 0.0
C96 C 0.59209 0.23148 0.11504 0.0
C97 C 0.59168 0.25034 0.07185 0.0
C98 C 0.61061 0.17736 0.0076 0.0
C99 C 0.62204 0.1546 0.02345 0.0
N100 N 0.60973 0.15057 0.0411 0.0
C101 C 0.59803 0.17295 0.02561 0.0
C102 C 0.62267 0.16807 0.00621 0.0
C103 C 0.59782 0.15938 0.04247 0.0
C104 C 0.57343 0.20982 0.96776 0.0
N105 N 0.58093 0.20924 -0.00115 0.0
C106 C 0.55878 0.20732 0.03186 0.0
C107 C 0.57397 0.20779 0.03053 0.0
C108 C 0.5507 0.20833 0.00021 0.0
C109 C 0.55824 0.20955 0.96783 0.0
H110 H 0.57926 0.21061 0.94285 0.0
H111 H 0.58021 0.20676 0.05473 0.0
C112 C 0.6465 0.19208 0.06961 0.0
N113 N 0.63182 0.19229 0.06477 0.0
C114 C 0.65244 0.18583 0.10017 0.0
C115 C 0.62805 0.17994 0.11991 0.0
C116 C 0.62258 0.18641 0.08911 0.0
C117 C 0.64316 0.17973 0.12589 0.0
H118 H 0.65358 0.19701 0.05004 0.0
H119 H 0.61094 0.18697 0.0849 0.0
C120 C 0.60353 0.23077 0.93477 0.0
N121 N 0.59047 0.25256 0.89522 0.0
C122 C 0.60768 0.2331 0.89947 0.0
C123 C 0.59261 0.23944 0.9498 0.0
C124 C 0.60099 0.2442 0.87996 0.0
C125 C 0.58617 0.25041 0.92942 0.0
C126 C 0.65126 0.20952 0.97393 0.0
C127 C 0.65762 0.2215 0.95697 0.0
C128 C 0.65787 0.19584 0.97148 0.0
C129 C 0.67041 0.21953 0.93739 0.0
C130 C 0.67064 0.19431 0.9516 0.0
N131 N 0.67659 0.20608 0.93509 0.0
C132 C 0.63928 0.24815 0.02383 0.0
C133 C 0.62813 0.25577 0.97016 0.0
C134 C 0.64662 0.2614 0.02672 0.0
N135 N 0.63042 0.24552 0.99565 0.0
C136 C 0.63513 0.26925 0.97217 0.0
C137 C 0.64477 0.27211 0.00037 0.0
H138 H 0.64101 0.23971 0.04346 0.0
H139 H 0.6212 0.25346 0.94776 0.0
C140 C 0.6264 0.1805 0.90993 0.0
N141 N 0.62964 0.19464 0.91717 0.0
C142 C 0.63084 0.17422 0.8779 0.0
C143 C 0.64187 0.19719 0.86149 0.0
C144 C 0.63711 0.20303 0.89365 0.0
C145 C 0.63871 0.18259 0.85314 0.0
H146 H 0.62024 0.17413 0.92888 0.0
H147 H 0.63938 0.2143 0.8999 0.0
O148 O 0.61237 0.21935 0.03645 0.0
O149 O 0.61108 0.19068 0.99132 0.0
O150 O 0.61 0.21994 0.9542 0.0
O151 O 0.63866 0.2112 0.99294 0.0
H152 H 0.60371 0.21193 0.10108 0.0
H153 H 0.60313 0.24623 0.02304 0.0
H154 H 0.58899 0.22757 0.14109 0.0
H155 H 0.58831 0.2612 0.06419 0.0
H156 H 0.63133 0.14734 0.02281 0.0
H157 H 0.58857 0.17995 0.02674 0.0
H158 H 0.63244 0.17127 0.99217 0.0
H159 H 0.58819 0.15586 0.05669 0.0
H160 H 0.55346 0.20599 0.05734 0.0
H161 H 0.55251 0.21048 0.94279 0.0
H162 H 0.66415 0.1858 0.10367 0.0
H163 H 0.62051 0.17555 0.13932 0.0
H164 H 0.61601 0.22644 0.88724 0.0
H165 H 0.589 0.23762 0.97676 0.0
H166 H 0.60416 0.24615 0.85267 0.0
H167 H 0.57771 0.25719 0.94075 0.0
H168 H 0.65267 0.23217 0.95857 0.0
H169 H 0.65316 0.18648 0.98465 0.0
H170 H 0.67541 0.22868 0.92394 0.0
H171 H 0.67583 0.18376 0.9493 0.0
H172 H 0.65413 0.26296 0.0486 0.0
H173 H 0.63322 0.27723 0.95148 0.0
H174 H 0.62794 0.163 0.87239 0.0
H175 H 0.64808 0.20402 0.84355 0.0
Li176 Li 0.79022 0.62381 0.03555 0.0
Li177 Li 0.78249 0.60283 0.00108 0.0
Li178 Li 0.7921 0.62443 0.97202 0.0
Li179 Li 0.76809 0.62447 -0.00042 0.0
C180 C 0.81495 0.60918 0.98727 0.0
N181 N 0.83997 0.60585 0.94722 0.0
C182 C 0.81664 0.59699 0.96539 0.0
C183 C 0.826 0.61966 0.98888 0.0
C184 C 0.82938 0.5955 0.94535 0.0
C185 C 0.83856 0.61779 0.96838 0.0
C186 C 0.76857 0.60051 0.06135 0.0
C187 C 0.75372 0.57923 0.07179 0.0
N188 N 0.76228 0.57568 0.10001 0.0
C189 C 0.77719 0.59667 0.09052 0.0
C190 C 0.7567 0.59176 0.05197 0.0
C191 C 0.77383 0.58408 0.10972 0.0
C192 C 0.78945 0.63648 0.1032 0.0
N193 N 0.7984 0.62982 0.07942 0.0
C194 C 0.81863 0.63202 0.11896 0.0
C195 C 0.81269 0.62736 0.08672 0.0
C196 C 0.80974 0.63932 0.14358 0.0
C197 C 0.79496 0.64149 0.13548 0.0
H198 H 0.77805 0.63798 0.09689 0.0
H199 H 0.81948 0.62182 0.06752 0.0
C200 C 0.77332 0.57463 0.97946 0.0
N201 N 0.78237 0.58223 0.0012 0.0
C202 C 0.77298 0.55945 0.98099 0.0
C203 C 0.79156 0.56024 0.02659 0.0
C204 C 0.7915 0.5754 0.02425 0.0
C205 C 0.78215 0.55209 0.0049 0.0
H206 H 0.76635 0.58035 0.96102 0.0
H207 H 0.79861 0.58179 0.04109 0.0
C208 C 0.78562 0.65158 0.02309 0.0
N209 N 0.78988 0.67546 0.06669 0.0
C210 C 0.7737 0.65858 0.03872 0.0
C211 C 0.79971 0.65677 0.02955 0.0
C212 C 0.77608 0.67063 0.06067 0.0
C213 C 0.80164 0.66883 0.05173 0.0
C214 C 0.76347 0.61438 0.93579 0.0
C215 C 0.7646 0.6241 0.90729 0.0
C216 C 0.75036 0.607 0.94168 0.0
C217 C 0.75256 0.62628 0.88517 0.0
C218 C 0.73856 0.6095 0.919 0.0
N219 N 0.7399 0.619 0.89145 0.0
C220 C 0.80465 0.62236 0.90386 0.0
C221 C 0.80816 0.64513 0.93236 0.0
C222 C 0.81172 0.62739 0.87337 0.0
N223 N 0.80291 0.63129 0.93236 0.0
C224 C 0.81539 0.65057 0.90259 0.0
C225 C 0.81707 0.64175 0.8723 0.0
H226 H 0.80021 0.61144 0.90453 0.0
H227 H 0.80652 0.65203 0.95523 0.0
C228 C 0.73799 0.62776 0.01667 0.0
N229 N 0.74916 0.63256 0.99604 0.0
C230 C 0.7243 0.63435 0.01431 0.0
C231 C 0.73393 0.65056 0.96936 0.0
C232 C 0.7474 0.64371 0.97269 0.0
C233 C 0.72218 0.64597 0.99054 0.0
H234 H 0.73976 0.61898 0.0353 0.0
H235 H 0.75659 0.64745 0.95711 0.0
O236 O 0.8024 0.61104 0.00637 0.0
O237 O 0.7719 0.6126 0.04166 0.0
O238 O 0.78354 0.63962 0.00194 0.0
O239 O 0.77506 0.61229 0.95816 0.0
H240 H 0.80815 0.58885 0.96356 0.0
H241 H 0.8248 0.62924 0.00539 0.0
H242 H 0.83081 0.58615 0.92819 0.0
H243 H 0.84715 0.62585 0.96918 0.0
H244 H 0.74464 0.5723 0.06465 0.0
H245 H 0.78648 0.60324 0.09804 0.0
H246 H 0.75 0.59448 0.02926 0.0
H247 H 0.78045 0.58094 0.13225 0.0
H248 H 0.83009 0.63019 0.12429 0.0
H249 H 0.78773 0.64688 0.15404 0.0
H250 H 0.76574 0.55353 0.96341 0.0
H251 H 0.79871 0.55499 0.04557 0.0
H252 H 0.76273 0.65468 0.03432 0.0
H253 H 0.80909 0.65136 0.01817 0.0
H254 H 0.76696 0.67612 0.07304 0.0
H255 H 0.81249 0.67287 0.05719 0.0
H256 H 0.77458 0.63005 0.90253 0.0
H257 H 0.74919 0.59963 0.96394 0.0
H258 H 0.75327 0.63381 0.86311 0.0
H259 H 0.72832 0.60394 0.92342 0.0
H260 H 0.81255 0.62025 0.85054 0.0
H261 H 0.81953 0.66163 0.90323 0.0
H262 H 0.71551 0.63047 0.03105 0.0
H263 H 0.73288 0.65968 0.95126 0.0
Li264 Li 0.37163 0.79546 0.0254 0.0
Li265 Li 0.39101 0.78483 0.98905 0.0
Li266 Li 0.37111 0.7972 0.96048 0.0
Li267 Li 0.36814 0.77367 0.9906 0.0
C268 C 0.39571 0.81366 0.0115 0.0
N269 N 0.41668 0.82922 0.04813 0.0
C270 C 0.40319 0.80721 0.03985 0.0
C271 C 0.39893 0.828 0.00177 0.0
C272 C 0.41375 0.81526 0.05801 0.0
C273 C 0.40955 0.8357 0.02066 0.0
C274 C 0.37967 0.76368 0.04955 0.0
C275 C 0.38213 0.73753 0.05315 0.0
N276 N 0.37507 0.73766 0.08494 0.0
C277 C 0.37263 0.76356 0.0825 0.0
C278 C 0.38465 0.75057 0.03499 0.0
C279 C 0.37035 0.7503 0.09989 0.0
C280 C 0.35329 0.79844 0.08315 0.0
N281 N 0.36521 0.80472 0.06813 0.0
C282 C 0.36611 0.82254 0.11445 0.0
C283 C 0.37148 0.81676 0.08271 0.0
C284 C 0.35403 0.81603 0.13107 0.0
C285 C 0.3475 0.80391 0.1147 0.0
H286 H 0.34831 0.78908 0.07058 0.0
H287 H 0.38062 0.82196 0.06997 0.0
C288 C 0.41901 0.79151 0.96474 0.0
N289 N 0.41146 0.78222 0.98601 0.0
C290 C 0.43416 0.79077 0.96312 0.0
C291 C 0.43348 0.77079 0.00507 0.0
C292 C 0.41832 0.77195 0.00594 0.0
C293 C 0.44158 0.78039 0.98373 0.0
H294 H 0.41323 0.79967 0.94949 0.0
H295 H 0.41206 0.76491 0.02315 0.0
C296 C 0.34489 0.80167 0.99546 0.0
N297 N 0.32395 0.82322 0.00021 0.0
C298 C 0.33013 0.79796 0.99672 0.0
C299 C 0.34902 0.81633 0.9967 0.0
C300 C 0.3197 0.80902 -0.0009 0.0
C301 C 0.33826 0.82706 -0.00092 0.0
C302 C 0.39049 0.77421 0.92471 0.0
C303 C 0.39474 0.78373 0.89761 0.0
C304 C 0.39775 0.76091 0.92878 0.0
C305 C 0.40633 0.7799 0.8754 0.0
C306 C 0.4093 0.75748 0.90608 0.0
N307 N 0.41333 0.76697 0.8801 0.0
C308 C 0.37402 0.81964 0.90963 0.0
C309 C 0.3521 0.80597 0.90622 0.0
C310 C 0.36996 0.82787 0.88002 0.0
N311 N 0.36514 0.80887 0.92178 0.0
C312 C 0.34752 0.81406 0.8769 0.0
C313 C 0.35658 0.82507 0.86327 0.0
H314 H 0.38437 0.82161 0.92251 0.0
H315 H 0.34534 0.79726 0.9164 0.0
C316 C 0.34665 0.75485 0.01504 0.0
N317 N 0.35732 0.75615 0.99023 0.0
C318 C 0.33829 0.7422 0.01682 0.0
C319 C 0.35198 0.7325 0.96719 0.0
C320 C 0.3601 0.74537 0.9664 0.0
C321 C 0.3409 0.7308 0.99267 0.0
H322 H 0.34467 0.76368 0.03346 0.0
H323 H 0.36862 0.74676 0.94686 0.0
O324 O 0.38559 0.80592 0.99259 0.0
O325 O 0.38177 0.77655 0.03178 0.0
O326 O 0.35519 0.79091 0.99336 0.0
O327 O 0.37934 0.77791 0.94718 0.0
H328 H 0.40087 0.79615 0.0479 0.0
H329 H 0.39328 0.83314 0.97985 0.0
H330 H 0.41962 0.81041 0.07997 0.0
H331 H 0.41214 0.84681 0.01344 0.0
H332 H 0.38577 0.7273 0.04193 0.0
H333 H 0.36904 0.77359 0.09468 0.0
H334 H 0.39018 0.75043 0.00967 0.0
H335 H 0.36484 0.75006 0.12531 0.0
H336 H 0.37153 0.83188 0.12608 0.0
H337 H 0.33796 0.79874 0.12599 0.0
H338 H 0.44 0.79828 0.94608 0.0
H339 H 0.43881 0.76279 0.02177 0.0
H340 H 0.32677 0.78665 0.9959 0.0
H341 H 0.36039 0.81942 0.99589 0.0
H342 H 0.30823 0.80631 8e-05 0.0
H343 H 0.3413 0.83845 5e-05 0.0
H344 H 0.38923 0.79401 0.89387 0.0
H345 H 0.3946 0.75336 0.94942 0.0
H346 H 0.40978 0.78721 0.85447 0.0
H347 H 0.41508 0.74728 0.90915 0.0
H348 H 0.3772 0.83631 0.87031 0.0
H349 H 0.3372 0.81146 0.86443 0.0
H350 H 0.32969 0.74147 0.03646 0.0
H351 H 0.3544 0.72395 0.94824 0.0
Li352 Li 0.19953 0.6225 0.02859 0.0
Li353 Li 0.22279 0.62453 0.99503 0.0
Li354 Li 0.20038 0.61974 0.96393 0.0
Li355 Li 0.2116 0.60112 -0.00175 0.0
C356 C 0.2047 0.64876 0.97042 0.0
N357 N 0.20304 0.67157 0.92259 0.0
C358 C 0.21461 0.6497 0.94227 0.0
C359 C 0.19392 0.65941 0.97418 0.0
C360 C 0.2136 0.66131 0.91841 0.0
C361 C 0.19327 0.67086 0.94974 0.0
C362 C 0.23034 0.61682 0.0597 0.0
C363 C 0.25521 0.61327 0.07867 0.0
N364 N 0.25403 0.62506 0.1004 0.0
C365 C 0.22936 0.62886 0.08237 0.0
C366 C 0.24334 0.60891 0.05795 0.0
C367 C 0.24146 0.63286 0.10269 0.0
C368 C 0.19213 0.62276 0.10074 0.0
N369 N 0.1888 0.62869 0.06868 0.0
C370 C 0.17108 0.6443 0.09533 0.0
C371 C 0.17835 0.63907 0.0653 0.0
C372 C 0.17467 0.63878 0.12909 0.0
C373 C 0.18524 0.62772 0.13147 0.0
H374 H 0.20043 0.61441 0.10252 0.0
H375 H 0.17572 0.64334 0.03931 0.0
C376 C 0.25202 0.63155 0.97445 0.0
N377 N 0.24037 0.63552 0.9946 0.0
C378 C 0.26462 0.64009 0.97425 0.0
C379 C 0.2529 0.65671 0.01514 0.0
C380 C 0.24052 0.64793 0.01432 0.0
C381 C 0.26516 0.65282 0.99491 0.0
H382 H 0.25148 0.62191 0.95809 0.0
H383 H 0.23093 0.65105 0.02921 0.0
C384 C 0.1776 0.60336 0.98469 0.0
N385 N 0.15096 0.59662 0.95467 0.0
C386 C 0.17696 0.59539 0.95307 0.0
C387 C 0.1647 0.60783 0.00119 0.0
C388 C 0.16338 0.59213 0.93826 0.0
C389 C 0.15133 0.60432 0.98556 0.0
C390 C 0.22675 0.59936 0.93974 0.0
C391 C 0.22111 0.59276 0.90916 0.0
C392 C 0.23953 0.59387 0.95496 0.0
C393 C 0.22836 0.58082 0.89435 0.0
C394 C 0.24643 0.58189 0.93941 0.0
N395 N 0.24076 0.57567 0.90967 0.0
C396 C 0.19697 0.62461 0.89073 0.0
C397 C 0.17579 0.62972 0.92456 0.0
C398 C 0.1899 0.6287 0.85951 0.0
N399 N 0.18977 0.6249 0.92227 0.0
C400 C 0.16826 0.63389 0.89395 0.0
C401 C 0.17532 0.63334 0.86082 0.0
H402 H 0.20833 0.62156 0.88993 0.0
H403 H 0.17052 0.63047 0.95018 0.0
C404 C 0.22033 0.57568 0.03471 0.0
N405 N 0.21447 0.58073 0.00386 0.0
C406 C 0.22242 0.56074 0.0397 0.0
C407 C 0.21241 0.55654 0.98112 0.0
C408 C 0.21025 0.57149 0.97759 0.0
C409 C 0.21856 0.55105 0.01248 0.0
H410 H 0.22324 0.58323 0.05557 0.0
H411 H 0.20518 0.57568 0.95386 0.0
O412 O 0.2052 0.63718 0.99334 0.0
O413 O 0.21868 0.6129 0.03908 0.0
O414 O 0.19077 0.60674 -0.00041 0.0
O415 O 0.21977 0.61102 0.95487 0.0
H416 H 0.22284 0.6414 0.93844 0.0
H417 H 0.18609 0.65883 0.99561 0.0
H418 H 0.22116 0.66213 0.89642 0.0
H419 H 0.18496 0.67917 0.9523 0.0
H420 H 0.26535 0.60728 0.07747 0.0
H421 H 0.21947 0.63525 0.08372 0.0
H422 H 0.24429 0.59951 0.04082 0.0
H423 H 0.24089 0.64222 0.12011 0.0
H424 H 0.1628 0.6526 0.09212 0.0
H425 H 0.1885 0.62325 0.15688 0.0
H426 H 0.27383 0.63676 0.95818 0.0
H427 H 0.25275 0.66663 0.03076 0.0
H428 H 0.18683 0.59207 0.93966 0.0
H429 H 0.16501 0.61395 0.02575 0.0
H430 H 0.16273 0.58608 0.91362 0.0
H431 H 0.14126 0.60774 -0.00202 0.0
H432 H 0.21107 0.59656 0.89736 0.0
H433 H 0.24398 0.5987 0.97876 0.0
H434 H 0.22406 0.57558 0.87083 0.0
H435 H 0.25629 0.57752 0.95106 0.0
H436 H 0.19592 0.62859 0.83475 0.0
H437 H 0.15705 0.63747 0.89622 0.0
H438 H 0.22708 0.55682 0.06436 0.0
H439 H 0.20903 0.54932 0.95988 0.0
Li440 Li 0.36894 0.22439 0.99418 0.0
Li441 Li 0.36957 0.20285 0.0335 0.0
Li442 Li 0.3907 0.21087 -0.00097 0.0
Li443 Li 0.36966 0.2005 0.96793 0.0
C444 C 0.39187 0.2262 0.05801 0.0
N445 N 0.41561 0.23515 0.09763 0.0
C446 C 0.39482 0.21971 0.09084 0.0
C447 C 0.4009 0.23737 0.04553 0.0
C448 C 0.4069 0.22436 0.11044 0.0
C449 C 0.41288 0.24169 0.06588 0.0
C450 C 0.34209 0.19988 0.00208 0.0
C451 C 0.33143 0.17636 0.01419 0.0
N452 N 0.31791 0.18224 0.0103 0.0
C453 C 0.3281 0.20571 -0.00164 0.0
C454 C 0.34379 0.18511 0.01017 0.0
C455 C 0.31601 0.19659 0.00253 0.0
C456 C 0.34875 0.24425 0.96701 0.0
N457 N 0.36034 0.24302 0.98924 0.0
C458 C 0.35825 0.26801 0.00618 0.0
C459 C 0.36524 0.25454 0.00856 0.0
C460 C 0.34613 0.26957 0.98369 0.0
C461 C 0.3415 0.25753 0.9636 0.0
H462 H 0.34499 0.23482 0.9524 0.0
H463 H 0.37438 0.25319 0.02634 0.0
C464 C 0.3721 0.18439 0.0927 0.0
N465 N 0.36337 0.19438 0.07667 0.0
C466 C 0.36774 0.17782 0.12443 0.0
C467 C 0.34537 0.19177 0.12201 0.0
C468 C 0.3503 0.1983 0.09077 0.0
C469 C 0.35416 0.18143 0.13916 0.0
H470 H 0.38247 0.18157 0.08082 0.0
H471 H 0.34366 0.20639 0.07756 0.0
C472 C 0.37946 0.2287 0.93122 0.0
N473 N 0.37437 0.25157 0.88507 0.0
C474 C 0.3693 0.22721 0.90377 0.0
C475 C 0.3871 0.24179 0.93506 0.0
C476 C 0.36688 0.2389 0.88073 0.0
C477 C 0.38435 0.25324 0.91151 0.0
C478 C 0.38852 0.17838 0.99136 0.0
C479 C 0.39981 0.17888 0.96645 0.0
C480 C 0.38349 0.16489 0.00358 0.0
C481 C 0.40576 0.16586 0.9538 0.0
C482 C 0.38973 0.15212 0.99031 0.0
N483 N 0.40064 0.15286 0.96588 0.0
C484 C 0.41817 0.20425 0.02738 0.0
C485 C 0.41884 0.21779 0.97366 0.0
C486 C 0.43334 0.20408 0.02902 0.0
N487 N 0.41129 0.21116 0.00019 0.0
C488 C 0.43404 0.21772 0.97399 0.0
C489 C 0.44144 0.21082 0.00198 0.0
H490 H 0.41182 0.19883 0.0477 0.0
H491 H 0.41305 0.22299 0.95211 0.0
C492 C 0.35054 0.18418 0.92119 0.0
N493 N 0.36434 0.18903 0.92729 0.0
C494 C 0.3473 0.17636 0.89042 0.0
C495 C 0.37236 0.17905 0.87185 0.0
C496 C 0.37514 0.18675 0.90313 0.0
C497 C 0.35828 0.17373 0.86525 0.0
H498 H 0.34187 0.18664 0.93944 0.0
H499 H 0.38586 0.19122 0.90776 0.0
O500 O 0.38023 0.22162 0.03818 0.0
O501 O 0.35399 0.20877 -0.00106 0.0
O502 O 0.38176 0.21748 0.95452 0.0
O503 O 0.38256 0.19099 0.00427 0.0
H504 H 0.38791 0.21113 0.10105 0.0
H505 H 0.39881 0.24248 0.02015 0.0
H506 H 0.40935 0.21938 0.13581 0.0
H507 H 0.42003 0.25022 0.05637 0.0
H508 H 0.33259 0.16491 0.02038 0.0
H509 H 0.32661 0.21715 0.99239 0.0
H510 H 0.35452 0.18044 0.01315 0.0
H511 H 0.30511 0.20095 -0.00032 0.0
H512 H 0.36216 0.27705 0.02203 0.0
H513 H 0.33204 0.25819 0.94645 0.0
H514 H 0.37476 0.16985 0.137 0.0
H515 H 0.33489 0.19489 0.13291 0.0
H516 H 0.3632 0.2172 0.90053 0.0
H517 H 0.39495 0.24316 0.95623 0.0
H518 H 0.35899 0.23793 0.85949 0.0
H519 H 0.39011 0.26346 0.91432 0.0
H520 H 0.40385 0.18919 0.95665 0.0
H521 H 0.37489 0.16429 0.02322 0.0
H522 H 0.41445 0.16609 0.93436 0.0
H523 H 0.38592 0.14161 -0.00052 0.0
H524 H 0.43869 0.19847 0.05075 0.0
H525 H 0.43994 0.22308 0.95273 0.0
H526 H 0.3362 0.17281 0.88586 0.0
H527 H 0.38112 0.17734 0.853 0.0
Li528 Li 0.79201 0.37148 0.03883 0.0
Li529 Li 0.76821 0.36992 0.00334 0.0
Li530 Li 0.7922 0.37151 0.97421 0.0
Li531 Li 0.78281 0.39182 0.0051 0.0
C532 C 0.79173 0.34401 0.99237 0.0
N533 N 0.80609 0.32083 0.96124 0.0
C534 C 0.7842 0.33447 0.96998 0.0
C535 C 0.80653 0.34172 -0.00087 0.0
C536 C 0.79166 0.32283 0.95444 0.0
C537 C 0.8136 0.32994 0.9831 0.0
C538 C 0.76787 0.39375 0.06367 0.0
C539 C 0.74978 0.4126 0.071 0.0
N540 N 0.75786 0.4185 0.09767 0.0
C541 C 0.77594 0.39995 0.09131 0.0
C542 C 0.75463 0.40006 0.05355 0.0
C543 C 0.77072 0.41248 0.10812 0.0
C544 C 0.80978 0.37369 0.1003 0.0
N545 N 0.80119 0.36476 0.08054 0.0
C546 C 0.80451 0.34527 0.12167 0.0
C547 C 0.79852 0.35079 0.09042 0.0
C548 C 0.81312 0.3543 0.14338 0.0
C549 C 0.81584 0.36868 0.13213 0.0
H550 H 0.8117 0.38477 0.09165 0.0
H551 H 0.79165 0.34394 0.07408 0.0
C552 C 0.7455 0.35401 0.97217 0.0
N553 N 0.74955 0.36138 0.00186 0.0
C554 C 0.7321 0.34683 0.97104 0.0
C555 C 0.72712 0.35548 0.03056 0.0
C556 C 0.74068 0.36235 0.03066 0.0
C557 C 0.72276 0.34736 0.00068 0.0
H558 H 0.75281 0.35351 0.94963 0.0
H559 H 0.74424 0.36831 0.0539 0.0
C560 C 0.81279 0.39303 0.98912 0.0
N561 N 0.83214 0.4106 0.95265 0.0
C562 C 0.80845 0.40004 0.95789 0.0
C563 C 0.82695 0.39499 0.00188 0.0
C564 C 0.81839 0.40887 0.93982 0.0
C565 C 0.83659 0.40391 0.98304 0.0
C566 C 0.76555 0.38865 0.9388 0.0
C567 C 0.77127 0.39279 0.90586 0.0
C568 C 0.75077 0.39096 0.94595 0.0
C569 C 0.76218 0.39945 0.8809 0.0
C570 C 0.74203 0.39765 0.92029 0.0
N571 N 0.74787 0.40173 0.88859 0.0
C572 C 0.79356 0.3593 0.90675 0.0
C573 C 0.81688 0.36438 0.93099 0.0
C574 C 0.79987 0.35334 0.87636 0.0
N575 N 0.80209 0.36461 0.93326 0.0
C576 C 0.82367 0.35868 0.90079 0.0
C577 C 0.8151 0.35298 0.87318 0.0
H578 H 0.78182 0.35952 0.90954 0.0
H579 H 0.82342 0.36837 0.9528 0.0
C580 C 0.79221 0.41943 0.02664 0.0
N581 N 0.78197 0.41262 0.00647 0.0
C582 C 0.79245 0.43459 0.02907 0.0
C583 C 0.77146 0.43549 0.99031 0.0
C584 C 0.77162 0.42031 0.9887 0.0
C585 C 0.78202 0.44282 0.01057 0.0
H586 H 0.80017 0.41304 0.04103 0.0
H587 H 0.76344 0.41476 0.97337 0.0
O588 O 0.78477 0.35579 0.00682 0.0
O589 O 0.77302 0.38174 0.04619 0.0
O590 O 0.80326 0.38433 0.0074 0.0
O591 O 0.77425 0.38185 0.96328 0.0
H592 H 0.77275 0.33612 0.96441 0.0
H593 H 0.81255 0.3491 0.01613 0.0
H594 H 0.786 0.3154 0.93688 0.0
H595 H 0.82508 0.3281 0.98788 0.0
H596 H 0.73961 0.41765 0.06327 0.0
H597 H 0.78621 0.39522 0.09943 0.0
H598 H 0.74826 0.39542 0.0322 0.0
H599 H 0.7769 0.41745 0.12939 0.0
H600 H 0.80237 0.33402 0.12869 0.0
H601 H 0.82227 0.3761 0.14809 0.0
H602 H 0.72935 0.34055 0.94762 0.0
H603 H 0.72021 0.3564 0.05377 0.0
H604 H 0.79751 0.39874 0.94786 0.0
H605 H 0.83046 0.38965 0.02609 0.0
H606 H 0.81517 0.41436 0.91563 0.0
H607 H 0.8476 0.40551 0.99258 0.0
H608 H 0.78261 0.39082 0.8995 0.0
H609 H 0.7461 0.38776 0.97113 0.0
H610 H 0.76648 0.40275 0.85537 0.0
H611 H 0.7306 0.39959 0.92559 0.0
H612 H 0.79291 0.34912 0.8555 0.0
H613 H 0.83546 0.35842 0.89941 0.0
H614 H 0.80063 0.43978 0.0455 0.0
H615 H 0.76329 0.4414 0.97537 0.0
Li616 Li 0.62215 0.78985 0.02628 0.0
Li617 Li 0.62332 0.76758 0.98999 0.0
Li618 Li 0.62322 0.79085 0.96051 0.0
Li619 Li 0.60166 0.78104 0.99134 0.0
C620 C 0.64959 0.79281 0.99686 0.0
N621 N 0.6727 0.81194 0.00311 0.0
C622 C 0.66383 0.78751 -0.00065 0.0
C623 C 0.64709 0.80784 0.99756 0.0
C624 C 0.67537 0.79736 0.00249 0.0
C625 C 0.65892 0.81733 0.00073 0.0
C626 C 0.59948 0.76756 0.05239 0.0
C627 C 0.57849 0.75229 0.0628 0.0
N628 N 0.57495 0.76056 0.09153 0.0
C629 C 0.59569 0.77584 0.08217 0.0
C630 C 0.59088 0.75561 0.04277 0.0
C631 C 0.58324 0.77215 0.10157 0.0
C632 C 0.62026 0.81025 0.08239 0.0
N633 N 0.62813 0.79901 0.06876 0.0
C634 C 0.64485 0.80006 0.11723 0.0
C635 C 0.64021 0.79385 0.08538 0.0
C636 C 0.6369 0.81162 0.13226 0.0
C637 C 0.62448 0.81676 0.11432 0.0
H638 H 0.61056 0.81394 0.0688 0.0
H639 H 0.64619 0.78485 0.07389 0.0
C640 C 0.64341 0.74721 0.96504 0.0
N641 N 0.63208 0.74894 0.98788 0.0
C642 C 0.65053 0.73383 0.96268 0.0
C643 C 0.63426 0.72431 0.00766 0.0
C644 C 0.62739 0.73788 0.00901 0.0
C645 C 0.64604 0.7222 0.98437 0.0
H646 H 0.64697 0.7563 0.9489 0.0
H647 H 0.61844 0.73963 0.02717 0.0
C648 C 0.60212 0.81282 0.98129 0.0
N649 N 0.58635 0.83637 0.95637 0.0
C650 C 0.59122 0.81079 0.95576 0.0
C651 C 0.60501 0.82683 0.99407 0.0
C652 C 0.58336 0.82283 0.94355 0.0
C653 C 0.59693 0.83859 0.98111 0.0
C654 C 0.6133 0.76171 0.92683 0.0
C655 C 0.6223 0.76264 0.89692 0.0
C656 C 0.60652 0.74847 0.93501 0.0
C657 C 0.62456 0.75025 0.87604 0.0
C658 C 0.60908 0.73632 0.91351 0.0
N659 N 0.61799 0.73745 0.88474 0.0
C660 C 0.64459 0.7968 0.90927 0.0
C661 C 0.6237 0.81176 0.90331 0.0
C662 C 0.65094 0.8032 0.87939 0.0
N663 N 0.63119 0.80113 0.92063 0.0
C664 C 0.6296 0.8184 0.87321 0.0
C665 C 0.64335 0.81406 0.86077 0.0
H666 H 0.65021 0.78808 0.92289 0.0
H667 H 0.61307 0.81501 0.91228 0.0
C668 C 0.57368 0.78896 0.01455 0.0
N669 N 0.58103 0.78035 0.99124 0.0
C670 C 0.55849 0.78896 0.01494 0.0
C671 C 0.55874 0.77125 0.96729 0.0
C672 C 0.57393 0.77162 0.96778 0.0
C673 C 0.55084 0.78004 0.99101 0.0
H674 H 0.57967 0.79586 0.03272 0.0
H675 H 0.58006 0.76508 0.94916 0.0
O676 O 0.63821 0.78324 0.99392 0.0
O677 O 0.61148 0.77119 0.03263 0.0
O678 O 0.60971 0.80117 0.99444 0.0
O679 O 0.61118 0.77366 0.94798 0.0
H680 H 0.66592 0.77589 -0.00114 0.0
H681 H 0.63616 0.81215 0.99565 0.0
H682 H 0.68645 0.79341 0.00444 0.0
H683 H 0.65715 0.82899 0.0013 0.0
H684 H 0.57167 0.74315 0.05544 0.0
H685 H 0.60223 0.78508 0.09012 0.0
H686 H 0.59361 0.74909 0.01978 0.0
H687 H 0.58014 0.77852 0.12455 0.0
H688 H 0.6546 0.79589 0.12986 0.0
H689 H 0.61791 0.8255 0.12519 0.0
H690 H 0.65975 0.73276 0.94486 0.0
H691 H 0.63044 0.71561 0.02473 0.0
H692 H 0.58906 0.8001 0.94489 0.0
H693 H 0.61343 0.82861 0.01372 0.0
H694 H 0.57493 0.82142 0.92373 0.0
H695 H 0.59906 0.8495 0.99076 0.0
H696 H 0.6275 0.77281 0.88989 0.0
H697 H 0.59956 0.74752 0.95806 0.0
H698 H 0.63156 0.75081 0.85293 0.0
H699 H 0.60402 0.72598 0.91978 0.0
H700 H 0.66148 0.79937 0.87035 0.0
H701 H 0.62343 0.82682 0.85976 0.0
H702 H 0.55281 0.79581 0.03385 0.0
H703 H 0.55324 0.7644 0.94806 0.0
Li704 Li 0.71024 0.89076 0.48905 0.0
Li705 Li 0.70229 0.86968 0.52352 0.0
Li706 Li 0.72418 0.86785 0.48611 0.0
Li707 Li 0.69952 0.86999 0.461 0.0
C708 C 0.72469 0.88971 0.55436 0.0
N709 N 0.73212 0.90886 0.6081 0.0
C710 C 0.71402 0.89492 0.57764 0.0
C711 C 0.73917 0.8941 0.55868 0.0
C712 C 0.71798 0.90464 0.60455 0.0
C713 C 0.7427 0.90382 0.58594 0.0
C714 C 0.67773 0.88591 0.47734 0.0
C715 C 0.65343 0.87893 0.45979 0.0
N716 N 0.65287 0.8906 0.43751 0.0
C717 C 0.67692 0.89784 0.45428 0.0
C718 C 0.6659 0.87639 0.48018 0.0
C719 C 0.66425 0.90002 0.43438 0.0
C720 C 0.71936 0.92014 0.47032 0.0
N721 N 0.7109 0.91159 0.49148 0.0
C722 C 0.70153 0.93262 0.52136 0.0
C723 C 0.70187 0.91757 0.5162 0.0
C724 C 0.71049 0.94163 0.50061 0.0
C725 C 0.7194 0.93523 0.47463 0.0
H726 H 0.726 0.91544 0.44979 0.0
H727 H 0.6949 0.91061 0.53195 0.0
C728 C 0.70351 0.85639 0.5908 0.0
N729 N 0.69465 0.86372 0.56806 0.0
C730 C 0.69813 0.85137 0.62325 0.0
C731 C 0.67477 0.86203 0.60873 0.0
C732 C 0.68059 0.86678 0.57649 0.0
C733 C 0.68353 0.85409 0.63248 0.0
H734 H 0.71471 0.85425 0.5834 0.0
H735 H 0.67389 0.87289 0.55815 0.0
C736 C 0.72921 0.8875 0.43082 0.0
N737 N 0.75312 0.90089 0.40022 0.0
C738 C 0.72928 0.89066 0.39447 0.0
C739 C 0.74135 0.89108 0.45155 0.0
C740 C 0.74146 0.89747 0.37953 0.0
C741 C 0.75332 0.89785 0.4356 0.0
C742 C 0.70505 0.84171 0.50928 0.0
C743 C 0.71663 0.83304 0.52094 0.0
C744 C 0.69077 0.83794 0.51851 0.0
C745 C 0.71374 0.82084 0.54204 0.0
C746 C 0.68833 0.82568 0.53972 0.0
N747 N 0.69977 0.81746 0.55096 0.0
C748 C 0.75066 0.85621 0.51104 0.0
C749 C 0.74742 0.85524 0.44856 0.0
C750 C 0.76386 0.84874 0.50826 0.0
N751 N 0.74268 0.85906 0.48146 0.0
C752 C 0.76068 0.84802 0.44446 0.0
C753 C 0.76896 0.84435 0.47463 0.0
H754 H 0.7465 0.85931 0.53687 0.0
H755 H 0.74079 0.85766 0.42552 0.0
C756 C 0.688 0.87195 0.39169 0.0
N757 N 0.6881 0.86376 0.42177 0.0
C758 C 0.68084 0.86695 0.36129 0.0
C759 C 0.67359 0.84543 0.39394 0.0
C760 C 0.68097 0.85081 0.42355 0.0
C761 C 0.67373 0.85337 0.362 0.0
H762 H 0.6938 0.88221 0.39108 0.0
H763 H 0.68126 0.84449 0.4477 0.0
O764 O 0.72106 0.8802 0.52775 0.0
O765 O 0.6902 0.88337 0.49628 0.0
O766 O 0.71752 0.88047 0.44555 0.0
O767 O 0.7077 0.85382 0.48898 0.0
H768 H 0.70276 0.89166 0.57474 0.0
H769 H 0.74763 0.89002 0.54126 0.0
H770 H 0.70981 0.90883 0.62258 0.0
H771 H 0.75386 0.90735 0.58952 0.0
H772 H 0.64422 0.8716 0.46156 0.0
H773 H 0.68604 0.90522 0.45143 0.0
H774 H 0.66641 0.867 0.49753 0.0
H775 H 0.66349 0.90917 0.41633 0.0
H776 H 0.69447 0.93712 0.54166 0.0
H777 H 0.72617 0.94183 0.45739 0.0
H778 H 0.70525 0.84517 0.64053 0.0
H779 H 0.66355 0.86464 0.61505 0.0
H780 H 0.72005 0.88783 0.37795 0.0
H781 H 0.74149 0.88875 0.47965 0.0
H782 H 0.74164 0.89999 0.35144 0.0
H783 H 0.76276 0.9007 0.45137 0.0
H784 H 0.72772 0.83567 0.5138 0.0
H785 H 0.68167 0.84461 0.51015 0.0
H786 H 0.7226 0.81407 0.55134 0.0
H787 H 0.67735 0.82275 0.5474 0.0
H788 H 0.76967 0.84596 0.53237 0.0
H789 H 0.76426 0.84517 0.41794 0.0
H790 H 0.68137 0.87338 0.3372 0.0
H791 H 0.66804 0.83505 0.39593 0.0
Li792 Li 0.10295 0.71023 0.50039 0.0
Li793 Li 0.12327 0.69848 0.53049 0.0
Li794 Li 0.1258 0.72269 0.50484 0.0
Li795 Li 0.12387 0.70107 0.46725 0.0
C796 C 0.11494 0.72733 0.568 0.0
N797 N 0.12041 0.74986 0.61484 0.0
C798 C 0.12498 0.72547 0.59557 0.0
C799 C 0.10762 0.7406 0.56436 0.0
C800 C 0.1276 0.737 0.61898 0.0
C801 C 0.11057 0.75188 0.58827 0.0
C802 C 0.10628 0.67716 0.51201 0.0
C803 C 0.11274 0.65286 0.53071 0.0
N804 N 0.09998 0.65192 0.549 0.0
C805 C 0.09321 0.67594 0.53087 0.0
C806 C 0.11611 0.66552 0.51177 0.0
C807 C 0.09023 0.66309 0.54943 0.0
C808 C 0.07499 0.70701 0.47136 0.0
N809 N 0.08246 0.71202 0.50001 0.0
C810 C 0.06032 0.71841 0.5294 0.0
C811 C 0.0755 0.71759 0.52882 0.0
C812 C 0.05225 0.71354 0.49989 0.0
C813 C 0.05984 0.70789 0.47046 0.0
H814 H 0.08083 0.70228 0.44921 0.0
H815 H 0.08173 0.72113 0.55162 0.0
C816 C 0.14174 0.68099 0.57323 0.0
N817 N 0.12824 0.68693 0.57035 0.0
C818 C 0.14563 0.67332 0.60383 0.0
C819 C 0.12159 0.67798 0.62768 0.0
C820 C 0.11816 0.68552 0.5966 0.0
C821 C 0.13554 0.67191 0.63173 0.0
H822 H 0.14961 0.68251 0.55219 0.0
H823 H 0.10755 0.69051 0.59361 0.0
C824 C 0.1033 0.72568 0.44068 0.0
N825 N 0.08096 0.73635 0.39885 0.0
C826 C 0.10036 0.71936 0.40764 0.0
C827 C 0.09494 0.73749 0.45234 0.0
C828 C 0.08901 0.72491 0.3869 0.0
C829 C 0.08367 0.7427 0.43084 0.0
C830 C 0.15166 0.70311 0.48242 0.0
C831 C 0.1596 0.7145 0.46708 0.0
C832 C 0.15597 0.68869 0.47654 0.0
C833 C 0.1717 0.71126 0.44597 0.0
C834 C 0.16812 0.68591 0.45518 0.0
N835 N 0.17567 0.69715 0.44047 0.0
C836 C 0.14653 0.74171 0.53353 0.0
C837 C 0.13081 0.75268 0.49125 0.0
C838 C 0.15421 0.75471 0.53758 0.0
N839 N 0.13513 0.74093 0.51055 0.0
C840 C 0.1382 0.76591 0.49443 0.0
C841 C 0.15017 0.76699 0.51757 0.0
H842 H 0.14983 0.7321 0.54812 0.0
H843 H 0.12181 0.75171 0.47293 0.0
C844 C 0.12591 0.67864 0.41609 0.0
N845 N 0.12971 0.69262 0.42354 0.0
C846 C 0.13002 0.67232 0.38388 0.0
C847 C 0.14177 0.69495 0.3676 0.0
C848 C 0.13735 0.70086 0.40001 0.0
C849 C 0.13811 0.68048 0.35914 0.0
H850 H 0.11958 0.67245 0.43501 0.0
H851 H 0.14001 0.71203 0.40649 0.0
O852 O 0.11246 0.71629 0.54433 0.0
O853 O 0.10956 0.68978 0.49435 0.0
O854 O 0.1143 0.72033 0.4615 0.0
O855 O 0.13965 0.70604 0.50276 0.0
H856 H 0.13084 0.71532 0.59862 0.0
H857 H 0.09986 0.74223 0.54309 0.0
H858 H 0.1354 0.73575 0.64033 0.0
H859 H 0.10505 0.76224 0.58564 0.0
H860 H 0.12029 0.6438 0.53097 0.0
H861 H 0.0855 0.68486 0.53148 0.0
H862 H 0.12633 0.66633 0.49753 0.0
H863 H 0.08019 0.66201 0.56427 0.0
H864 H 0.055 0.72251 0.55305 0.0
H865 H 0.05419 0.70419 0.44687 0.0
H866 H 0.15658 0.66901 0.60611 0.0
H867 H 0.11346 0.67704 0.64844 0.0
H868 H 0.10668 0.71019 0.39822 0.0
H869 H 0.09699 0.74245 0.47794 0.0
H870 H 0.08658 0.72008 0.36134 0.0
H871 H 0.07704 0.75176 0.43965 0.0
H872 H 0.15637 0.72572 0.47109 0.0
H873 H 0.14987 0.67974 0.48787 0.0
H874 H 0.17791 0.71997 0.43382 0.0
H875 H 0.17151 0.6748 0.4502 0.0
H876 H 0.16353 0.75497 0.55523 0.0
H877 H 0.13467 0.77514 0.47868 0.0
H878 H 0.1267 0.66123 0.37825 0.0
H879 H 0.14813 0.70161 0.34958 0.0
Li880 Li 0.29582 0.11896 0.53454 0.0
Li881 Li 0.28394 0.10176 0.50026 0.0
Li882 Li 0.29539 0.1226 0.47087 0.0
Li883 Li 0.27188 0.12482 0.50881 0.0
C884 C 0.31876 0.10456 0.50807 0.0
N885 N 0.34708 0.10013 0.5306 0.0
C886 C 0.32168 0.09472 0.53552 0.0
C887 C 0.33025 0.11203 0.49179 0.0
C888 C 0.33607 0.09267 0.54663 0.0
C889 C 0.34449 0.10966 0.50363 0.0
C890 C 0.27 0.09881 0.56114 0.0
C891 C 0.24822 0.08546 0.57631 0.0
N892 N 0.25654 0.07513 0.59249 0.0
C893 C 0.27832 0.08815 0.57821 0.0
C894 C 0.25482 0.09753 0.56037 0.0
C895 C 0.27132 0.07622 0.59376 0.0
C896 C 0.30024 0.12075 0.60815 0.0
N897 N 0.30708 0.12267 0.57645 0.0
C898 C 0.32831 0.13182 0.60575 0.0
C899 C 0.32087 0.12806 0.57475 0.0
C900 C 0.32142 0.1302 0.63887 0.0
C901 C 0.30722 0.12444 0.63981 0.0
H902 H 0.28915 0.11678 0.60882 0.0
H903 H 0.32598 0.12988 0.54931 0.0
C904 C 0.29257 0.07303 0.48805 0.0
N905 N 0.28056 0.08139 0.49347 0.0
C906 C 0.29123 0.05806 0.48287 0.0
C907 C 0.26509 0.06053 0.48812 0.0
C908 C 0.26696 0.07547 0.49343 0.0
C909 C 0.27734 0.05161 0.48283 0.0
H910 H 0.30325 0.07796 0.48776 0.0
H911 H 0.25754 0.08233 0.49733 0.0
C912 C 0.29583 0.14769 0.52894 0.0
N913 N 0.30792 0.16856 0.57292 0.0
C914 C 0.28836 0.1523 0.5593 0.0
C915 C 0.30941 0.15375 0.52082 0.0
C916 C 0.29467 0.16284 0.58125 0.0
C917 C 0.31534 0.16429 0.5434 0.0
C918 C 0.2674 0.10526 0.44246 0.0
C919 C 0.27447 0.09666 0.4171 0.0
C920 C 0.25232 0.10404 0.4469 0.0
C921 C 0.26632 0.08685 0.39678 0.0
C922 C 0.24456 0.09413 0.42599 0.0
N923 N 0.25166 0.0858 0.4016 0.0
C924 C 0.31042 0.11996 0.40622 0.0
C925 C 0.30521 0.14426 0.42368 0.0
C926 C 0.31682 0.12486 0.37477 0.0
N927 N 0.3047 0.12967 0.42968 0.0
C928 C 0.31177 0.14965 0.39291 0.0
C929 C 0.31753 0.13987 0.36793 0.0
H930 H 0.30994 0.10842 0.41193 0.0
H931 H 0.30038 0.1517 0.44262 0.0
C932 C 0.24841 0.13744 0.54621 0.0
N933 N 0.25438 0.13539 0.51353 0.0
C934 C 0.23581 0.14582 0.54998 0.0
C935 C 0.23569 0.14961 0.48633 0.0
C936 C 0.24833 0.14124 0.48384 0.0
C937 C 0.22933 0.15209 0.51978 0.0
H938 H 0.25355 0.13269 0.56936 0.0
H939 H 0.25345 0.13951 0.45827 0.0
O940 O 0.30476 0.10662 0.49662 0.0
O941 O 0.27666 0.11052 0.54563 0.0
O942 O 0.29 0.13711 0.50768 0.0
O943 O 0.2752 0.11481 0.46289 0.0
H944 H 0.31294 0.08875 0.54816 0.0
H945 H 0.3282 0.11968 0.47052 0.0
H946 H 0.33848 0.08515 0.56798 0.0
H947 H 0.35348 0.11542 0.49143 0.0
H948 H 0.23649 0.08427 0.5757 0.0
H949 H 0.29007 0.08905 0.57932 0.0
H950 H 0.24821 0.10566 0.54715 0.0
H951 H 0.27763 0.06784 0.60687 0.0
H952 H 0.33927 0.13612 0.60372 0.0
H953 H 0.30135 0.12329 0.66462 0.0
H954 H 0.30101 0.05161 0.47947 0.0
H955 H 0.25416 0.05607 0.48783 0.0
H956 H 0.27789 0.14764 0.56608 0.0
H957 H 0.31544 0.15015 0.4977 0.0
H958 H 0.28906 0.16643 0.60497 0.0
H959 H 0.32589 0.16899 0.5376 0.0
H960 H 0.28613 0.0974 0.41348 0.0
H961 H 0.24669 0.11051 0.46662 0.0
H962 H 0.27166 0.08005 0.37723 0.0
H963 H 0.2329 0.09301 0.42927 0.0
H964 H 0.32124 0.11703 0.35609 0.0
H965 H 0.312 0.1613 0.38823 0.0
H966 H 0.2312 0.14741 0.5762 0.0
H967 H 0.23118 0.15444 0.46247 0.0
Li968 Li 0.8706 0.28938 0.54116 0.0
Li969 Li 0.89116 0.28087 0.50613 0.0
Li970 Li 0.86879 0.29066 0.47546 0.0
Li971 Li 0.86926 0.26671 0.50456 0.0
C972 C 0.88437 0.31543 0.51351 0.0
N973 N 0.88787 0.34501 0.52487 0.0
C974 C 0.8969 0.32069 0.53031 0.0
C975 C 0.87378 0.32528 0.50173 0.0
C976 C 0.89842 0.33566 0.53605 0.0
C977 C 0.87571 0.34017 0.50792 0.0
C978 C 0.89267 0.26564 0.56681 0.0
C979 C 0.91278 0.24906 0.57525 0.0
N980 N 0.91577 0.25553 0.60695 0.0
C981 C 0.89586 0.27204 0.59961 0.0
C982 C 0.9011 0.25397 0.55464 0.0
C983 C 0.90761 0.2668 0.61947 0.0
C984 C 0.85195 0.29316 0.59923 0.0
N985 N 0.86466 0.29795 0.58484 0.0
C986 C 0.86859 0.31386 0.63421 0.0
C987 C 0.87307 0.30797 0.60177 0.0
C988 C 0.85533 0.30935 0.6494 0.0
C989 C 0.84697 0.29885 0.63136 0.0
H990 H 0.84565 0.28489 0.58573 0.0
H991 H 0.8834 0.31118 0.59054 0.0
C992 C 0.91847 0.27482 0.47514 0.0
N993 N 0.91178 0.2802 0.50457 0.0
C994 C 0.93365 0.27399 0.4737 0.0
C995 C 0.9347 0.28423 0.53289 0.0
C996 C 0.91954 0.28502 0.533 0.0
C997 C 0.94193 0.27866 0.50296 0.0
H998 H 0.91202 0.27117 0.4528 0.0
H999 H 0.91393 0.28941 0.55588 0.0
C1000 C 0.84095 0.28838 0.51218 0.0
N1001 N 0.81343 0.30045 0.51732 0.0
C1002 C 0.8286 0.27974 0.50668 0.0
C1003 C 0.83929 0.30311 0.52068 0.0
C1004 C 0.81478 0.28606 0.50927 0.0
C1005 C 0.82529 0.30902 0.52308 0.0
C1006 C 0.87957 0.26207 0.44005 0.0
C1007 C 0.86984 0.26306 0.41157 0.0
C1008 C 0.88764 0.24931 0.44498 0.0
C1009 C 0.86818 0.25116 0.38876 0.0
C1010 C 0.88566 0.23764 0.42161 0.0
N1011 N 0.87604 0.23879 0.39424 0.0
C1012 C 0.87132 0.30832 0.41457 0.0
C1013 C 0.84732 0.30009 0.42647 0.0
C1014 C 0.86666 0.31506 0.38324 0.0
N1015 N 0.86165 0.30097 0.43529 0.0
C1016 C 0.84217 0.30682 0.39577 0.0
C1017 C 0.8519 0.31423 0.37327 0.0
H1018 H 0.8827 0.30865 0.42202 0.0
H1019 H 0.8399 0.29389 0.4427 0.0
C1020 C 0.86509 0.23703 0.52394 0.0
N1021 N 0.86092 0.24789 0.50157 0.0
C1022 C 0.85827 0.22343 0.52233 0.0
C1023 C 0.84322 0.23245 0.47436 0.0
C1024 C 0.85026 0.24586 0.47702 0.0
C1025 C 0.84709 0.22106 0.49745 0.0
H1026 H 0.8735 0.239 0.54346 0.0
H1027 H 0.84705 0.25477 0.45994 0.0
O1028 O 0.88282 0.30081 0.50722 0.0
O1029 O 0.8813 0.27073 0.54683 0.0
O1030 O 0.85456 0.28234 0.5096 0.0
O1031 O 0.88115 0.27351 0.46305 0.0
H1032 H 0.90533 0.3133 0.5391 0.0
H1033 H 0.86425 0.32153 0.4876 0.0
H1034 H 0.90801 0.33985 0.54933 0.0
H1035 H 0.86756 0.34788 0.49907 0.0
H1036 H 0.91947 0.24013 0.56602 0.0
H1037 H 0.88939 0.28101 0.60954 0.0
H1038 H 0.89875 0.24886 0.5294 0.0
H1039 H 0.91026 0.2717 0.64481 0.0
H1040 H 0.87558 0.32165 0.64752 0.0
H1041 H 0.83661 0.29513 0.64175 0.0
H1042 H 0.93885 0.26958 0.45019 0.0
H1043 H 0.94072 0.28814 0.55575 0.0
H1044 H 0.82966 0.26829 0.50042 0.0
H1045 H 0.84867 0.30985 0.52602 0.0
H1046 H 0.80514 0.27951 0.50492 0.0
H1047 H 0.82386 0.3204 0.5297 0.0
H1048 H 0.86352 0.27286 0.4073 0.0
H1049 H 0.89528 0.24839 0.46673 0.0
H1050 H 0.86062 0.25174 0.36675 0.0
H1051 H 0.89176 0.22766 0.42525 0.0
H1052 H 0.87462 0.32046 0.36655 0.0
H1053 H 0.83066 0.30607 0.38964 0.0
H1054 H 0.86161 0.21492 0.54053 0.0
H1055 H 0.83447 0.23121 0.45527 0.0
Li1056 Li 0.72484 0.12253 0.49353 0.0
Li1057 Li 0.70151 0.12297 0.52551 0.0
Li1058 Li 0.71078 0.10129 0.49774 0.0
Li1059 Li 0.70218 0.12136 0.46079 0.0
C1060 C 0.72213 0.10128 0.56143 0.0
N1061 N 0.72669 0.07837 0.60787 0.0
C1062 C 0.7121 0.09843 0.58854 0.0
C1063 C 0.73457 0.09258 0.55826 0.0
C1064 C 0.71458 0.08678 0.61169 0.0
C1065 C 0.73665 0.08101 0.58188 0.0
C1066 C 0.70004 0.1491 0.48806 0.0
C1067 C 0.67574 0.15912 0.48624 0.0
N1068 N 0.68148 0.17268 0.48194 0.0
C1069 C 0.70569 0.16312 0.48357 0.0
C1070 C 0.68494 0.14705 0.48936 0.0
C1071 C 0.69613 0.17491 0.48055 0.0
C1072 C 0.7465 0.14069 0.46599 0.0
N1073 N 0.74358 0.13108 0.49251 0.0
C1074 C 0.76711 0.13483 0.51794 0.0
C1075 C 0.75352 0.12799 0.51817 0.0
C1076 C 0.77039 0.14501 0.49118 0.0
C1077 C 0.75992 0.14779 0.46474 0.0
H1078 H 0.73828 0.14297 0.44613 0.0
H1079 H 0.75083 0.12036 0.53905 0.0
C1080 C 0.67948 0.12424 0.57795 0.0
N1081 N 0.69145 0.13105 0.56463 0.0
C1082 C 0.67246 0.12982 0.60792 0.0
C1083 C 0.68995 0.14956 0.60904 0.0
C1084 C 0.69673 0.1435 0.57933 0.0
C1085 C 0.67774 0.14262 0.62389 0.0
H1086 H 0.6756 0.11431 0.56571 0.0
H1087 H 0.70632 0.14861 0.56817 0.0
C1088 C 0.73243 0.10847 0.43491 0.0
N1089 N 0.75824 0.10767 0.39691 0.0
C1090 C 0.73281 0.11318 0.39958 0.0
C1091 C 0.74513 0.10301 0.45056 0.0
C1092 C 0.74597 0.11277 0.3809 0.0
C1093 C 0.75808 0.1028 0.43105 0.0
C1094 C 0.68148 0.09986 0.47769 0.0
C1095 C 0.68647 0.09223 0.44788 0.0
C1096 C 0.66723 0.09767 0.48973 0.0
C1097 C 0.67709 0.08255 0.4306 0.0
C1098 C 0.65818 0.08791 0.47169 0.0
N1099 N 0.66326 0.08061 0.44276 0.0
C1100 C 0.70153 0.0742 0.52459 0.0
C1101 C 0.72085 0.07284 0.48282 0.0
C1102 C 0.70152 0.05909 0.52848 0.0
N1103 N 0.71117 0.08072 0.5022 0.0
C1104 C 0.72122 0.05771 0.48588 0.0
C1105 C 0.71147 0.05065 0.50897 0.0
H1106 H 0.69387 0.08078 0.53944 0.0
H1107 H 0.72819 0.07826 0.46476 0.0
C1108 C 0.70134 0.1371 0.39803 0.0
N1109 N 0.69298 0.12823 0.41855 0.0
C1110 C 0.69586 0.14279 0.36636 0.0
C1111 C 0.67295 0.13075 0.37839 0.0
C1112 C 0.67891 0.12523 0.40978 0.0
C1113 C 0.68151 0.13956 0.35601 0.0
H1114 H 0.71233 0.1397 0.40629 0.0
H1115 H 0.67221 0.11873 0.42719 0.0
O1116 O 0.71972 0.11247 0.53803 0.0
O1117 O 0.70931 0.13748 0.49074 0.0
O1118 O 0.71965 0.10892 0.45377 0.0
O1119 O 0.69047 0.10926 0.49551 0.0
H1120 H 0.70244 0.10503 0.59153 0.0
H1121 H 0.74251 0.09463 0.53766 0.0
H1122 H 0.70685 0.0844 0.63263 0.0
H1123 H 0.74617 0.07413 0.57952 0.0
H1124 H 0.66404 0.15769 0.48719 0.0
H1125 H 0.71736 0.16486 0.48238 0.0
H1126 H 0.68036 0.13628 0.49265 0.0
H1127 H 0.70035 0.18583 0.47707 0.0
H1128 H 0.7749 0.13228 0.53865 0.0
H1129 H 0.76187 0.15573 0.44399 0.0
H1130 H 0.66301 0.12421 0.61849 0.0
H1131 H 0.69444 0.15935 0.62083 0.0
H1132 H 0.72303 0.11693 0.38651 0.0
H1133 H 0.74502 0.09916 0.47767 0.0
H1134 H 0.74641 0.11645 0.3536 0.0
H1135 H 0.76801 0.09878 0.44306 0.0
H1136 H 0.69743 0.09372 0.43808 0.0
H1137 H 0.66319 0.10348 0.51276 0.0
H1138 H 0.6808 0.07658 0.40752 0.0
H1139 H 0.64713 0.08613 0.48071 0.0
H1140 H 0.69388 0.05408 0.54674 0.0
H1141 H 0.72887 0.05159 0.46981 0.0
H1142 H 0.7029 0.14947 0.34998 0.0
H1143 H 0.66171 0.1283 0.37199 0.0
Li1144 Li 0.87026 0.72408 0.4978 0.0
Li1145 Li 0.87199 0.70276 0.53664 0.0
Li1146 Li 0.89237 0.71139 0.5019 0.0
Li1147 Li 0.87144 0.70019 0.4719 0.0
C1148 C 0.8931 0.72631 0.5628 0.0
N1149 N 0.91574 0.73513 0.60628 0.0
C1150 C 0.89568 0.71917 0.59502 0.0
C1151 C 0.90191 0.73808 0.55298 0.0
C1152 C 0.90721 0.72376 0.61657 0.0
C1153 C 0.91334 0.74232 0.57522 0.0
C1154 C 0.84499 0.69805 0.50665 0.0
C1155 C 0.83667 0.67325 0.51324 0.0
N1156 N 0.82264 0.67805 0.51362 0.0
C1157 C 0.8305 0.70274 0.5071 0.0
C1158 C 0.84812 0.68318 0.50972 0.0
C1159 C 0.81935 0.69246 0.51065 0.0
C1160 C 0.8485 0.7421 0.4722 0.0
N1161 N 0.86086 0.74223 0.49199 0.0
C1162 C 0.85867 0.76785 0.50168 0.0
C1163 C 0.86607 0.75471 0.50672 0.0
C1164 C 0.84575 0.76805 0.48157 0.0
C1165 C 0.84072 0.75493 0.46666 0.0
H1166 H 0.84464 0.73196 0.46091 0.0
H1167 H 0.87594 0.75446 0.52234 0.0
C1168 C 0.87319 0.68324 0.59482 0.0
N1169 N 0.86568 0.69442 0.57984 0.0
C1170 C 0.86859 0.67731 0.62712 0.0
C1171 C 0.84852 0.69442 0.62749 0.0
C1172 C 0.85357 0.70007 0.59537 0.0
C1173 C 0.85611 0.68294 0.64396 0.0
H1174 H 0.88287 0.6791 0.58192 0.0
H1175 H 0.84784 0.70897 0.58272 0.0
C1176 C 0.88161 0.72965 0.43633 0.0
N1177 N 0.87862 0.75435 0.39481 0.0
C1178 C 0.8724 0.72954 0.40674 0.0
C1179 C 0.88947 0.74228 0.44444 0.0
C1180 C 0.87099 0.74214 0.38617 0.0
C1181 C 0.88777 0.75466 0.42324 0.0
C1182 C 0.89434 0.68112 0.49085 0.0
C1183 C 0.90198 0.68505 0.46013 0.0
C1184 C 0.89639 0.66728 0.50554 0.0
C1185 C 0.91156 0.67506 0.44465 0.0
C1186 C 0.90604 0.65758 0.48921 0.0
N1187 N 0.91337 0.66165 0.45938 0.0
C1188 C 0.92058 0.7073 0.52981 0.0
C1189 C 0.91989 0.71853 0.47302 0.0
C1190 C 0.93576 0.70798 0.5302 0.0
N1191 N 0.913 0.71276 0.50176 0.0
C1192 C 0.93506 0.71913 0.47194 0.0
C1193 C 0.94312 0.71388 0.50089 0.0
H1194 H 0.91482 0.70233 0.55175 0.0
H1195 H 0.91362 0.72239 0.45063 0.0
C1196 C 0.85142 0.69523 0.41883 0.0
N1197 N 0.8636 0.6892 0.43315 0.0
C1198 C 0.84493 0.68912 0.38888 0.0
C1199 C 0.86334 0.6703 0.38936 0.0
C1200 C 0.86939 0.67672 0.41965 0.0
C1201 C 0.85108 0.67666 0.37317 0.0
H1202 H 0.84689 0.70504 0.43034 0.0
H1203 H 0.8788 0.67178 0.43181 0.0
O1204 O 0.88191 0.7219 0.54123 0.0
O1205 O 0.85598 0.70803 0.50314 0.0
O1206 O 0.88286 0.71753 0.45738 0.0
O1207 O 0.88523 0.69084 0.50724 0.0
H1208 H 0.88893 0.71014 0.6033 0.0
H1209 H 0.90006 0.74379 0.5283 0.0
H1210 H 0.90937 0.71827 0.64147 0.0
H1211 H 0.92031 0.75132 0.56776 0.0
H1212 H 0.83893 0.66172 0.51564 0.0
H1213 H 0.82791 0.71421 0.50472 0.0
H1214 H 0.85925 0.67932 0.50938 0.0
H1215 H 0.80809 0.69594 0.51104 0.0
H1216 H 0.86301 0.77772 0.51339 0.0
H1217 H 0.83067 0.75446 0.4516 0.0
H1218 H 0.87489 0.66862 0.63906 0.0
H1219 H 0.83871 0.69893 0.63911 0.0
H1220 H 0.86639 0.71985 0.39968 0.0
H1221 H 0.8967 0.74257 0.46709 0.0
H1222 H 0.86383 0.74221 0.36333 0.0
H1223 H 0.89369 0.76454 0.42944 0.0
H1224 H 0.90043 0.69562 0.44806 0.0
H1225 H 0.89059 0.66406 0.52934 0.0
H1226 H 0.91752 0.67796 0.42086 0.0
H1227 H 0.90772 0.64683 0.5003 0.0
H1228 H 0.9417 0.70361 0.5527 0.0
H1229 H 0.94045 0.72367 0.44882 0.0
H1230 H 0.83525 0.6942 0.37804 0.0
H1231 H 0.86849 0.66072 0.37823 0.0
Li1232 Li 0.27014 0.86949 0.50228 0.0
Li1233 Li 0.294 0.87348 0.52881 0.0
Li1234 Li 0.28206 0.89243 0.49424 0.0
Li1235 Li 0.29207 0.87078 0.46576 0.0
C1236 C 0.26447 0.88188 0.56273 0.0
N1237 N 0.2415 0.87665 0.60854 0.0
C1238 C 0.26633 0.87266 0.59198 0.0
C1239 C 0.25094 0.88845 0.55683 0.0
C1240 C 0.25458 0.87017 0.61484 0.0
C1241 C 0.23946 0.88566 0.58026 0.0
C1242 C 0.29069 0.84352 0.48622 0.0
C1243 C 0.30873 0.82698 0.46274 0.0
N1244 N 0.2979 0.81844 0.44949 0.0
C1245 C 0.27974 0.83457 0.47239 0.0
C1246 C 0.30531 0.83968 0.48144 0.0
C1247 C 0.2836 0.82194 0.45392 0.0
C1248 C 0.24042 0.86367 0.48782 0.0
N1249 N 0.25202 0.85989 0.50827 0.0
C1250 C 0.23828 0.84102 0.53629 0.0
C1251 C 0.25118 0.84891 0.53241 0.0
C1252 C 0.22616 0.84447 0.51503 0.0
C1253 C 0.22729 0.85612 0.49091 0.0
H1254 H 0.24144 0.87236 0.46866 0.0
H1255 H 0.26066 0.84606 0.548 0.0
C1256 C 0.30549 0.8806 0.59563 0.0
N1257 N 0.30534 0.8701 0.57015 0.0
C1258 C 0.31265 0.87818 0.6278 0.0
C1259 C 0.31976 0.85436 0.60638 0.0
C1260 C 0.31235 0.8572 0.57475 0.0
C1261 C 0.31976 0.86483 0.6336 0.0
H1262 H 0.29972 0.89073 0.59124 0.0
H1263 H 0.31186 0.84896 0.5543 0.0
C1264 C 0.26762 0.88995 0.4338 0.0
N1265 N 0.25763 0.91097 0.38716 0.0
C1266 C 0.27463 0.89211 0.40121 0.0
C1267 C 0.25549 0.89845 0.44258 0.0
C1268 C 0.26941 0.90279 0.378 0.0
C1269 C 0.25063 0.90904 0.41868 0.0
C1270 C 0.31499 0.89042 0.50861 0.0
C1271 C 0.31535 0.90383 0.52622 0.0
C1272 C 0.32709 0.88118 0.51014 0.0
C1273 C 0.32782 0.90775 0.54525 0.0
C1274 C 0.33935 0.88549 0.52952 0.0
N1275 N 0.33946 0.89857 0.54653 0.0
C1276 C 0.27238 0.92041 0.51473 0.0
C1277 C 0.28557 0.91945 0.46057 0.0
C1278 C 0.27073 0.93546 0.51146 0.0
N1279 N 0.27963 0.91277 0.48936 0.0
C1280 C 0.284 0.93444 0.45595 0.0
C1281 C 0.27657 0.94269 0.48171 0.0
H1282 H 0.26808 0.91484 0.53777 0.0
H1283 H 0.2915 0.9131 0.44117 0.0
C1284 C 0.29272 0.85506 0.40195 0.0
N1285 N 0.30088 0.86363 0.42368 0.0
C1286 C 0.2987 0.84947 0.37073 0.0
C1287 C 0.32121 0.86205 0.38424 0.0
C1288 C 0.31483 0.86727 0.41544 0.0
C1289 C 0.31312 0.85297 0.36156 0.0
H1290 H 0.28155 0.85262 0.40889 0.0
H1291 H 0.32098 0.87428 0.433 0.0
O1292 O 0.27573 0.88421 0.53959 0.0
O1293 O 0.28713 0.85606 0.50392 0.0
O1294 O 0.27266 0.87965 0.45706 0.0
O1295 O 0.30275 0.88622 0.49058 0.0
H1296 H 0.27666 0.86733 0.59675 0.0
H1297 H 0.24926 0.89549 0.53413 0.0
H1298 H 0.25585 0.86301 0.63749 0.0
H1299 H 0.22891 0.89061 0.5759 0.0
H1300 H 0.32 0.82395 0.45861 0.0
H1301 H 0.26837 0.83742 0.47547 0.0
H1302 H 0.31395 0.84659 0.49144 0.0
H1303 H 0.27524 0.81494 0.44296 0.0
H1304 H 0.238 0.83198 0.55477 0.0
H1305 H 0.21818 0.85925 0.47426 0.0
H1306 H 0.31247 0.88655 0.64808 0.0
H1307 H 0.32492 0.84385 0.61004 0.0
H1308 H 0.28407 0.8857 0.394 0.0
H1309 H 0.25004 0.89707 0.46785 0.0
H1310 H 0.27475 0.90461 0.35276 0.0
H1311 H 0.24133 0.91577 0.42527 0.0
H1312 H 0.30605 0.91107 0.5255 0.0
H1313 H 0.32695 0.87071 0.49694 0.0
H1314 H 0.32823 0.91807 0.55913 0.0
H1315 H 0.34876 0.87841 0.53113 0.0
H1316 H 0.26523 0.94138 0.53242 0.0
H1317 H 0.28855 0.93947 0.4324 0.0
H1318 H 0.29203 0.8427 0.35365 0.0
H1319 H 0.33237 0.86494 0.37811 0.0
Li1320 Li 0.12229 0.29672 0.52743 0.0
Li1321 Li 0.12587 0.27174 0.50524 0.0
Li1322 Li 0.12317 0.29293 0.46544 0.0
Li1323 Li 0.10205 0.28441 0.50031 0.0
C1324 C 0.15127 0.29172 0.48118 0.0
N1325 N 0.1758 0.29737 0.44071 0.0
C1326 C 0.16079 0.28042 0.47211 0.0
C1327 C 0.15435 0.30594 0.47003 0.0
C1328 C 0.17311 0.28349 0.45157 0.0
C1329 C 0.16676 0.30856 0.44946 0.0
C1330 C 0.10634 0.26668 0.56031 0.0
C1331 C 0.09391 0.24356 0.55659 0.0
N1332 N 0.09399 0.24262 0.59267 0.0
C1333 C 0.1063 0.26549 0.59735 0.0
C1334 C 0.1001 0.25564 0.53975 0.0
C1335 C 0.10001 0.25324 0.61321 0.0
C1336 C 0.11972 0.30876 0.59613 0.0
N1337 N 0.12767 0.3091 0.56566 0.0
C1338 C 0.14481 0.32549 0.59173 0.0
C1339 C 0.13989 0.31738 0.56281 0.0
C1340 C 0.13719 0.32491 0.62411 0.0
C1341 C 0.1243 0.31664 0.62588 0.0
H1342 H 0.11006 0.30203 0.59761 0.0
H1343 H 0.14601 0.31744 0.53833 0.0
C1344 C 0.13937 0.24589 0.48267 0.0
N1345 N 0.13544 0.2537 0.51179 0.0
C1346 C 0.14762 0.23321 0.48642 0.0
C1347 C 0.14725 0.23667 0.55014 0.0
C1348 C 0.13909 0.24934 0.54512 0.0
C1349 C 0.15185 0.22855 0.5205 0.0
H1350 H 0.13659 0.24983 0.45644 0.0
H1351 H 0.13597 0.25589 0.56777 0.0
C1352 C 0.10581 0.31762 0.50787 0.0
N1353 N 0.10089 0.34342 0.54383 0.0
C1354 C 0.09392 0.3189 0.53089 0.0
C1355 C 0.11515 0.32949 0.50299 0.0
C1356 C 0.09162 0.33202 0.54886 0.0
C1357 C 0.11249 0.34243 0.52146 0.0
C1358 C 0.10721 0.26689 0.43493 0.0
C1359 C 0.10295 0.27495 0.40514 0.0
C1360 C 0.10535 0.25176 0.435 0.0
C1361 C 0.09678 0.26776 0.37607 0.0
C1362 C 0.09915 0.24497 0.4054 0.0
N1363 N 0.09503 0.25304 0.3768 0.0
C1364 C 0.13729 0.29141 0.39907 0.0
C1365 C 0.12462 0.31351 0.40978 0.0
C1366 C 0.14201 0.29648 0.36607 0.0
N1367 N 0.12895 0.30003 0.42027 0.0
C1368 C 0.12907 0.31902 0.37697 0.0
C1369 C 0.13798 0.31052 0.35477 0.0
H1370 H 0.1404 0.28065 0.40805 0.0
H1371 H 0.11771 0.31998 0.42686 0.0
C1372 C 0.07408 0.28135 0.53168 0.0
N1373 N 0.08143 0.28197 0.50031 0.0
C1374 C 0.05891 0.28022 0.53201 0.0
C1375 C 0.05914 0.28038 0.46778 0.0
C1376 C 0.07427 0.28164 0.46874 0.0
C1377 C 0.05122 0.27976 0.49971 0.0
H1378 H 0.07997 0.28209 0.5565 0.0
H1379 H 0.08023 0.28265 0.44423 0.0
O1380 O 0.13907 0.28888 0.501 0.0
O1381 O 0.11258 0.27857 0.54449 0.0
O1382 O 0.10846 0.30471 0.49083 0.0
O1383 O 0.11357 0.27368 0.46343 0.0
H1384 H 0.15874 0.2694 0.48089 0.0
H1385 H 0.14706 0.31481 0.47642 0.0
H1386 H 0.18053 0.27483 0.44427 0.0
H1387 H 0.16916 0.31948 0.4403 0.0
H1388 H 0.08903 0.23495 0.54097 0.0
H1389 H 0.11112 0.27393 0.61365 0.0
H1390 H 0.09995 0.25643 0.51114 0.0
H1391 H 0.09991 0.25217 0.64184 0.0
H1392 H 0.15465 0.33191 0.58895 0.0
H1393 H 0.11816 0.31574 0.65037 0.0
H1394 H 0.15115 0.22749 0.46276 0.0
H1395 H 0.15011 0.23342 0.57691 0.0
H1396 H 0.08662 0.30981 0.53512 0.0
H1397 H 0.12449 0.32867 0.48556 0.0
H1398 H 0.0825 0.33314 0.56689 0.0
H1399 H 0.11969 0.35167 0.51812 0.0
H1400 H 0.10412 0.28667 0.40466 0.0
H1401 H 0.1087 0.24528 0.4576 0.0
H1402 H 0.09336 0.27388 0.35296 0.0
H1403 H 0.09764 0.23327 0.40515 0.0
H1404 H 0.14896 0.28961 0.34994 0.0
H1405 H 0.12547 0.32978 0.36899 0.0
H1406 H 0.05327 0.28011 0.55729 0.0
H1407 H 0.05373 0.27994 0.44223 0.0
H1408 H 0.2091 0.53402 0.06729 0.0
H1409 H 0.2382 0.45979 0.98258 0.0
H1410 H 0.23205 0.53218 0.96734 0.0
H1411 H 0.20047 0.46185 0.05125 0.0
H1412 H 0.24014 0.4863 0.98555 0.0
H1413 H 0.21023 0.50732 0.07097 0.0
C1414 C 0.21455 0.52798 0.04643 0.0
C1415 C 0.22042 0.53519 0.01687 0.0
C1416 C 0.2315 0.48089 8e-05 0.0
C1417 C 0.22178 0.5049 0.0209 0.0
C1418 C 0.2303 0.46576 -0.00177 0.0
C1419 C 0.21903 0.45851 0.01634 0.0
C1420 C 0.2215 0.48882 0.02056 0.0
C1421 C 0.20942 0.46688 0.03709 0.0
C1422 C 0.21511 0.5128 0.04842 0.0
C1423 C 0.22729 0.52694 0.99037 0.0
N1424 N 0.21085 0.4816 0.03856 0.0
N1425 N 0.22778 0.51219 0.99298 0.0
H1426 H 0.45955 0.21657 0.05796 0.0
H1427 H 0.53203 0.19546 0.95256 0.0
H1428 H 0.45985 0.20402 0.94744 0.0
H1429 H 0.53238 0.22075 0.04945 0.0
H1430 H 0.50545 0.19603 0.95313 0.0
H1431 H 0.48625 0.21559 0.05833 0.0
C1432 C 0.46526 0.21357 0.03383 0.0
C1433 C 0.45754 0.2104 0.00259 0.0
C1434 C 0.51136 0.20146 0.97423 0.0
C1435 C 0.48794 0.20922 0.00283 0.0
C1436 C 0.52655 0.20121 0.97387 0.0
C1437 C 0.53451 0.20815 0.00089 0.0
C1438 C 0.50404 0.20858 0.00198 0.0
C1439 C 0.52674 0.21509 0.02828 0.0
C1440 C 0.48046 0.21308 0.034 0.0
C1441 C 0.46542 0.20669 0.97196 0.0
N1442 N 0.51194 0.21513 0.02813 0.0
N1443 N 0.4802 0.20614 0.97288 0.0
H1444 H 0.80578 0.46091 0.00905 0.0
H1445 H 0.7584 0.53405 0.0052 0.0
H1446 H 0.75878 0.46154 0.01499 0.0
H1447 H 0.80541 0.5335 0.00977 0.0
H1448 H 0.7583 0.50744 0.00808 0.0
H1449 H 0.80588 0.4875 0.00947 0.0
C1450 C 0.79548 0.46663 0.01077 0.0
C1451 C 0.78225 0.45897 0.01191 0.0
C1452 C 0.76864 0.51314 0.00854 0.0
C1453 C 0.78227 0.48944 0.01185 0.0
C1454 C 0.7687 0.52832 0.00667 0.0
C1455 C 0.78193 0.53598 0.00713 0.0
C1456 C 0.78191 0.50556 0.01072 0.0
C1457 C 0.79495 0.52802 0.00966 0.0
C1458 C 0.79554 0.48183 0.01079 0.0
C1459 C 0.76923 0.46699 0.01351 0.0
N1460 N 0.79462 0.51324 0.01122 0.0
N1461 N 0.76957 0.48178 0.01333 0.0
H1462 H 0.53269 0.80361 0.99531 0.0
H1463 H 0.45946 0.75645 0.98245 0.0
H1464 H 0.5323 0.75676 0.98474 0.0
H1465 H 0.46038 0.80346 0.98621 0.0
H1466 H 0.48612 0.75619 0.98452 0.0
H1467 H 0.50611 0.80364 0.99353 0.0
C1468 C 0.527 0.79332 0.99285 0.0
C1469 C 0.53471 0.78016 0.99025 0.0
C1470 C 0.48048 0.76656 0.9848 0.0
C1471 C 0.50427 0.78012 0.9878 0.0
C1472 C 0.46528 0.76671 0.98377 0.0
C1473 C 0.45771 0.78 0.98407 0.0
C1474 C 0.48815 0.7798 0.98633 0.0
C1475 C 0.46579 0.79298 0.98542 0.0
C1476 C 0.51182 0.79335 0.9916 0.0
C1477 C 0.52678 0.76716 0.98649 0.0
N1478 N 0.48056 0.79255 0.98658 0.0
N1479 N 0.51198 0.76747 0.98543 0.0
H1480 H 0.73505 0.0324 0.51185 0.0
H1481 H 0.687 0.95958 0.51117 0.0
H1482 H 0.68799 0.03223 0.51272 0.0
H1483 H 0.73388 0.9601 0.50143 0.0
H1484 H 0.6872 0.98612 0.51715 0.0
H1485 H 0.73488 0.0058 0.51295 0.0
C1486 C 0.72468 0.02676 0.51225 0.0
C1487 C 0.71151 0.03454 0.51191 0.0
C1488 C 0.69745 0.98042 0.51382 0.0
C1489 C 0.71123 0.0041 0.51346 0.0
C1490 C 0.69734 0.96527 0.5106 0.0
C1491 C 0.71044 0.95764 0.50559 0.0
C1492 C 0.71074 0.98798 0.5121 0.0
C1493 C 0.72351 0.96558 0.50467 0.0
C1494 C 0.72458 0.01157 0.51304 0.0
C1495 C 0.6984 0.02668 0.51321 0.0
N1496 N 0.72333 0.98031 0.5078 0.0
N1497 N 0.69859 0.01188 0.51374 0.0
H1498 H 0.96091 0.70283 0.44971 0.0
H1499 H 0.0343 0.73401 0.53089 0.0
H1500 H 0.9616 0.7255 0.55011 0.0
H1501 H 0.03305 0.6942 0.46939 0.0
H1502 H 0.00767 0.73423 0.53156 0.0
H1503 H 0.98765 0.70298 0.44913 0.0
C1504 C 0.96674 0.70791 0.47149 0.0
C1505 C 0.95917 0.71415 0.50002 0.0
C1506 C 0.0133 0.72548 0.51795 0.0
C1507 C 0.98952 0.71448 0.4994 0.0
C1508 C 0.0285 0.72527 0.51768 0.0
C1509 C 0.03604 0.71405 0.50006 0.0
C1510 C 0.00558 0.71456 0.49994 0.0
C1511 C 0.02782 0.70325 0.4827 0.0
C1512 C 0.98193 0.70792 0.47125 0.0
C1513 C 0.96713 0.72051 0.52778 0.0
N1514 N 0.01304 0.70382 0.48293 0.0
N1515 N 0.98193 0.72061 0.52669 0.0
H1516 H 0.29286 0.03374 0.43835 0.0
H1517 H 0.25363 0.96039 0.50072 0.0
H1518 H 0.25829 0.03302 0.51631 0.0
H1519 H 0.29682 0.96178 0.45492 0.0
H1520 H 0.25264 0.987 0.4978 0.0
H1521 H 0.2917 0.00721 0.43488 0.0
C1522 C 0.28503 0.02802 0.45476 0.0
C1523 C 0.2758 0.03563 0.47806 0.0
C1524 C 0.26228 0.98142 0.48825 0.0
C1525 C 0.27427 0.00528 0.47368 0.0
C1526 C 0.26291 0.96625 0.49008 0.0
C1527 C 0.27537 0.95877 0.47826 0.0
C1528 C 0.27412 0.98918 0.47418 0.0
C1529 C 0.2869 0.96698 0.46393 0.0
C1530 C 0.28433 0.01288 0.45262 0.0
C1531 C 0.26557 0.02764 0.49786 0.0
N1532 N 0.286 0.98172 0.46236 0.0
N1533 N 0.26512 0.01287 0.49536 0.0
H1534 H 0.03247 0.29351 0.45385 0.0
H1535 H 0.96025 0.26878 0.55497 0.0
H1536 H 0.03299 0.26468 0.54464 0.0
H1537 H 0.96016 0.28699 0.44922 0.0
H1538 H 0.98693 0.26853 0.55385 0.0
H1539 H 0.00594 0.29245 0.45361 0.0
C1540 C 0.02704 0.28683 0.47355 0.0
C1541 C 0.03504 0.27912 0.49923 0.0
C1542 C 0.98107 0.27251 0.53083 0.0
C1543 C 0.00457 0.27814 0.49951 0.0
C1544 C 0.96587 0.27273 0.53154 0.0
C1545 C 0.95803 0.27794 0.50216 0.0
C1546 C 0.98846 0.2777 0.5007 0.0
C1547 C 0.96581 0.28278 0.4723 0.0
C1548 C 0.01187 0.28631 0.47349 0.0
C1549 C 0.02731 0.27096 0.52462 0.0
N1550 N 0.98061 0.28263 0.47242 0.0
N1551 N 0.01251 0.27072 0.52419 0.0
H1552 H 0.28519 0.33556 0.04477 0.0
H1553 H 0.33474 0.28375 0.9259 0.0
H1554 H 0.28575 0.33717 0.93004 0.0
H1555 H 0.33801 0.28648 0.04013 0.0
H1556 H 0.31824 0.30469 0.92642 0.0
H1557 H 0.3061 0.31924 0.04336 0.0
C1558 C 0.28984 0.33269 0.01926 0.0
C1559 C 0.28357 0.33766 0.98744 0.0
C1560 C 0.32271 0.30083 0.95134 0.0
C1561 C 0.30739 0.31865 0.98566 0.0
C1562 C 0.33207 0.28885 0.95105 0.0
C1563 C 0.33764 0.2833 0.98304 0.0
C1564 C 0.31876 0.3072 0.9839 0.0
C1565 C 0.33402 0.29044 0.01483 0.0
C1566 C 0.30176 0.32327 0.01848 0.0
C1567 C 0.29001 0.33336 0.95521 0.0
N1568 N 0.32467 0.30191 0.01449 0.0
N1569 N 0.30146 0.32399 0.95513 0.0
H1570 H 0.7037 0.3422 0.94552 0.0
H1571 H 0.65308 0.28843 0.05832 0.0
H1572 H 0.71039 0.33279 0.05688 0.0
H1573 H 0.65692 0.28669 0.94393 0.0
H1574 H 0.67024 0.3088 0.05907 0.0
H1575 H 0.68267 0.32584 0.9457 0.0
C1576 C 0.70076 0.33676 0.97004 0.0
C1577 C 0.709 0.33878 0.00113 0.0
C1578 C 0.66719 0.30402 0.03382 0.0
C1579 C 0.68476 0.32027 0.00157 0.0
C1580 C 0.65745 0.29235 0.03334 0.0
C1581 C 0.65366 0.28566 0.00105 0.0
C1582 C 0.67311 0.30913 0.00177 0.0
C1583 C 0.65939 0.29151 0.96946 0.0
C1584 C 0.6887 0.32749 0.97013 0.0
C1585 C 0.70436 0.33172 0.03232 0.0
N1586 N 0.66891 0.30284 0.97065 0.0
N1587 N 0.69261 0.32272 0.03168 0.0
H1588 H 0.7048 0.65408 0.04637 0.0
H1589 H 0.65656 0.70722 0.92681 0.0
H1590 H 0.70772 0.65631 0.93197 0.0
H1591 H 0.65432 0.70558 0.04134 0.0
H1592 H 0.6727 0.68604 0.92755 0.0
H1593 H 0.68357 0.67009 0.04436 0.0
C1594 C 0.70082 0.65772 0.02076 0.0
C1595 C 0.70816 0.65401 0.98931 0.0
C1596 C 0.66855 0.6902 0.9525 0.0
C1597 C 0.68402 0.67255 0.98687 0.0
C1598 C 0.65939 0.70233 0.9521 0.0
C1599 C 0.65425 0.70829 0.98408 0.0
C1600 C 0.67268 0.68404 0.98516 0.0
C1601 C 0.658 0.70133 0.01604 0.0
C1602 C 0.68875 0.66695 0.01965 0.0
C1603 C 0.70258 0.65916 0.95692 0.0
N1604 N 0.66713 0.68969 0.01579 0.0
N1605 N 0.69094 0.66829 0.95657 0.0
H1606 H 0.28147 0.66126 0.93748 0.0
H1607 H 0.33112 0.7158 0.05098 0.0
H1608 H 0.27842 0.66616 0.05133 0.0
H1609 H 0.32978 0.71546 0.93627 0.0
H1610 H 0.31424 0.69524 0.05188 0.0
H1611 H 0.30174 0.67858 0.93694 0.0
C1612 C 0.28519 0.66584 0.96242 0.0
C1613 C 0.27819 0.66237 0.99448 0.0
C1614 C 0.31771 0.6996 0.0265 0.0
C1615 C 0.30125 0.68227 0.99402 0.0
C1616 C 0.32729 0.71139 0.02597 0.0
C1617 C 0.33174 0.71748 0.99351 0.0
C1618 C 0.3125 0.69385 0.99434 0.0
C1619 C 0.3267 0.71108 0.96191 0.0
C1620 C 0.2967 0.67579 0.96207 0.0
C1621 C 0.28336 0.66873 0.02596 0.0
N1622 N 0.31726 0.69968 0.96312 0.0
N1623 N 0.29454 0.67842 0.02492 0.0
H1624 H 0.84095 0.7896 0.53097 0.0
H1625 H 0.77412 0.82227 0.42702 0.0
H1626 H 0.83069 0.77747 0.42288 0.0
H1627 H 0.79412 0.84514 0.51484 0.0
H1628 H 0.79492 0.80594 0.42496 0.0
H1629 H 0.82428 0.81024 0.52583 0.0
C1630 C 0.83541 0.79139 0.50594 0.0
C1631 C 0.83709 0.78162 0.47747 0.0
C1632 C 0.79485 0.81465 0.44441 0.0
C1633 C 0.81776 0.80505 0.47178 0.0
C1634 C 0.78297 0.82408 0.44551 0.0
C1635 C 0.78224 0.83514 0.47128 0.0
C1636 C 0.80601 0.81605 0.46964 0.0
C1637 C 0.794 0.8366 0.49501 0.0
C1638 C 0.82584 0.80316 0.50311 0.0
C1639 C 0.82946 0.78446 0.44586 0.0
N1640 N 0.80532 0.82705 0.49391 0.0
N1641 N 0.81998 0.79579 0.44403 0.0
H1642 H 0.20917 0.83558 0.45928 0.0
H1643 H 0.16227 0.78015 0.57612 0.0
H1644 H 0.21286 0.8323 0.57345 0.0
H1645 H 0.1585 0.78443 0.46222 0.0
H1646 H 0.17904 0.80087 0.57673 0.0
H1647 H 0.18865 0.81878 0.46096 0.0
C1648 C 0.20553 0.83152 0.48481 0.0
C1649 C 0.21283 0.83531 0.51627 0.0
C1650 C 0.17442 0.79737 0.55166 0.0
C1651 C 0.18947 0.81575 0.51827 0.0
C1652 C 0.1649 0.7855 0.55128 0.0
C1653 C 0.15906 0.78047 0.51904 0.0
C1654 C 0.17819 0.8042 0.51953 0.0
C1655 C 0.16264 0.78798 0.48772 0.0
C1656 C 0.19385 0.82182 0.48572 0.0
C1657 C 0.20773 0.82947 0.54847 0.0
N1658 N 0.17207 0.79937 0.48873 0.0
N1659 N 0.19643 0.81989 0.54861 0.0
H1660 H 0.20502 0.153 0.47747 0.0
H1661 H 0.17455 0.22559 0.56733 0.0
H1662 H 0.22441 0.17325 0.56959 0.0
H1663 H 0.1521 0.20277 0.48316 0.0
H1664 H 0.19206 0.2057 0.57076 0.0
H1665 H 0.18489 0.17042 0.48073 0.0
C1666 C 0.205 0.16108 0.49846 0.0
C1667 C 0.21645 0.16174 0.52316 0.0
C1668 C 0.18324 0.20497 0.55173 0.0
C1669 C 0.19346 0.18168 0.52711 0.0
C1670 C 0.17314 0.2163 0.54992 0.0
C1671 C 0.16182 0.21591 0.52479 0.0
C1672 C 0.18212 0.19319 0.52808 0.0
C1673 C 0.16078 0.20367 0.50251 0.0
C1674 C 0.19348 0.17097 0.50043 0.0
C1675 C 0.21576 0.17228 0.55014 0.0
N1676 N 0.17086 0.19285 0.5045 0.0
N1677 N 0.20453 0.18192 0.5512 0.0
H1678 H 0.83736 0.20524 0.5544 0.0
H1679 H 0.78784 0.15293 0.43506 0.0
H1680 H 0.83764 0.20548 0.43967 0.0
H1681 H 0.78437 0.1564 0.54921 0.0
H1682 H 0.8089 0.16925 0.43665 0.0
H1683 H 0.82105 0.18423 0.55328 0.0
C1684 C 0.8342 0.20072 0.52896 0.0
C1685 C 0.83874 0.20723 0.49706 0.0
C1686 C 0.80361 0.16631 0.46138 0.0
C1687 C 0.81986 0.18332 0.49559 0.0
C1688 C 0.79155 0.15705 0.46048 0.0
C1689 C 0.78421 0.15342 0.49201 0.0
C1690 C 0.80835 0.17202 0.49403 0.0
C1691 C 0.78971 0.15883 0.52425 0.0
C1692 C 0.82479 0.18878 0.52833 0.0
C1693 C 0.83417 0.20098 0.46488 0.0
N1694 N 0.80136 0.16796 0.52439 0.0
N1695 N 0.82487 0.18945 0.46496 0.0
H1696 H 0.14045 0.29618 0.29098 0.0
H1697 H 0.1723 0.36568 0.18838 0.0
H1698 H 0.14749 0.33815 0.34001 0.0
H1699 H 0.16769 0.32325 0.14003 0.0
H1700 H 0.1621 0.35598 0.24335 0.0
H1701 H 0.14959 0.30601 0.23484 0.0
C1702 C 0.14396 0.30745 0.28998 0.0
C1703 C 0.14321 0.31635 0.32028 0.0
C1704 C 0.16328 0.34878 0.22072 0.0
C1705 C 0.15354 0.3277 0.25603 0.0
C1706 C 0.16901 0.35434 0.18922 0.0
C1707 C 0.17083 0.34527 0.15952 0.0
C1708 C 0.15931 0.33402 0.22263 0.0
C1709 C 0.16663 0.3306 0.1624 0.0
C1710 C 0.1491 0.31307 0.25787 0.0
C1711 C 0.14769 0.33093 0.31726 0.0
N1712 N 0.16106 0.32542 0.19341 0.0
N1713 N 0.15268 0.33614 0.28574 0.0
H1714 H 0.66335 0.12583 0.30856 0.0
H1715 H 0.66452 0.19125 0.16809 0.0
H1716 H 0.68605 0.16646 0.32592 0.0
H1717 H 0.63533 0.1545 0.16003 0.0
H1718 H 0.67388 0.18143 0.22394 0.0
H1719 H 0.65397 0.13545 0.25252 0.0
C1720 C 0.66629 0.13681 0.30077 0.0
C1721 C 0.67553 0.14533 0.32209 0.0
C1722 C 0.66543 0.1755 0.20998 0.0
C1723 C 0.66501 0.15631 0.25758 0.0
C1724 C 0.66016 0.18105 0.17795 0.0
C1725 C 0.64915 0.17366 0.15937 0.0
C1726 C 0.65971 0.16242 0.22347 0.0
C1727 C 0.64374 0.16061 0.17368 0.0
C1728 C 0.66099 0.14226 0.26864 0.0
C1729 C 0.67916 0.15939 0.31018 0.0
N1730 N 0.6491 0.15538 0.20485 0.0
N1731 N 0.67391 0.16441 0.27873 0.0
H1732 H 0.84872 0.64794 0.35232 0.0
H1733 H 0.80595 0.66619 0.17314 0.0
H1734 H 0.83965 0.69181 0.31686 0.0
H1735 H 0.82734 0.62494 0.19079 0.0
H1736 H 0.81594 0.67513 0.22931 0.0
H1737 H 0.8389 0.63867 0.29625 0.0
C1738 C 0.84474 0.65564 0.33279 0.0
C1739 C 0.84498 0.6707 0.33954 0.0
C1740 C 0.81847 0.66413 0.22088 0.0
C1741 C 0.83352 0.66011 0.27561 0.0
C1742 C 0.81271 0.65901 0.18898 0.0
C1743 C 0.81583 0.64482 0.17742 0.0
C1744 C 0.82729 0.65495 0.24159 0.0
C1745 C 0.82478 0.636 0.1987 0.0
C1746 C 0.83909 0.65032 0.30086 0.0
C1747 C 0.83943 0.68011 0.31333 0.0
N1748 N 0.83015 0.64118 0.22991 0.0
N1749 N 0.83389 0.67466 0.28264 0.0
H1750 H 0.31165 0.82523 0.33531 0.0
H1751 H 0.35171 0.84456 0.15277 0.0
H1752 H 0.32918 0.86782 0.31207 0.0
H1753 H 0.34334 0.80049 0.18767 0.0
H1754 H 0.3423 0.85356 0.20941 0.0
H1755 H 0.32181 0.81621 0.27939 0.0
C1756 C 0.31762 0.83268 0.31836 0.0
C1757 C 0.31957 0.84729 0.32826 0.0
C1758 C 0.34256 0.84192 0.20465 0.0
C1759 C 0.33123 0.83707 0.26432 0.0
C1760 C 0.348 0.83676 0.17237 0.0
C1761 C 0.34832 0.82173 0.16532 0.0
C1762 C 0.33732 0.83199 0.23002 0.0
C1763 C 0.34309 0.81217 0.19159 0.0
C1764 C 0.32348 0.82752 0.28657 0.0
C1765 C 0.32754 0.85645 0.30555 0.0
N1766 N 0.33777 0.81747 0.2227 0.0
N1767 N 0.33302 0.8512 0.27452 0.0
H1768 H 0.15151 0.64693 0.6411 0.0
H1769 H 0.1568 0.65653 0.85194 0.0
H1770 H 0.12953 0.68096 0.69945 0.0
H1771 H 0.17671 0.62095 0.7946 0.0
H1772 H 0.14559 0.66485 0.79672 0.0
H1773 H 0.15995 0.63657 0.69732 0.0
C1774 C 0.14843 0.65219 0.66576 0.0
C1775 C 0.13985 0.66486 0.66559 0.0
C1776 C 0.15235 0.65517 0.79624 0.0
C1777 C 0.14944 0.65306 0.73001 0.0
C1778 C 0.15868 0.65036 0.82783 0.0
C1779 C 0.16778 0.63806 0.82789 0.0
C1780 C 0.15515 0.64767 0.76442 0.0
C1781 C 0.16999 0.63064 0.79569 0.0
C1782 C 0.15319 0.64624 0.69785 0.0
C1783 C 0.13601 0.67111 0.69833 0.0
N1784 N 0.16378 0.6356 0.76524 0.0
N1785 N 0.14091 0.66521 0.72919 0.0
H1786 H 0.32068 0.1175 0.705 0.0
H1787 H 0.36691 0.18093 0.79783 0.0
H1788 H 0.33847 0.15444 0.64855 0.0
H1789 H 0.34161 0.14926 0.85608 0.0
H1790 H 0.35961 0.16919 0.74229 0.0
H1791 H 0.33107 0.12704 0.76008 0.0
C1792 C 0.32679 0.12759 0.70413 0.0
C1793 C 0.32861 0.13521 0.67205 0.0
C1794 C 0.35572 0.16476 0.76723 0.0
C1795 C 0.34068 0.14609 0.73497 0.0
C1796 C 0.35996 0.1714 0.79895 0.0
C1797 C 0.35479 0.1661 0.83159 0.0
C1798 C 0.34629 0.15271 0.76817 0.0
C1799 C 0.34568 0.15381 0.83144 0.0
C1800 C 0.33277 0.133 0.73557 0.0
C1801 C 0.3369 0.14809 0.67249 0.0
N1802 N 0.34168 0.14755 0.80021 0.0
N1803 N 0.34257 0.15315 0.70347 0.0
H1804 H 0.83716 0.36416 0.83245 0.0
H1805 H 0.84095 0.29518 0.70333 0.0
H1806 H 0.80864 0.32697 0.8418 0.0
H1807 H 0.85818 0.33739 0.67444 0.0
H1808 H 0.83174 0.30561 0.75853 0.0
H1809 H 0.84785 0.35334 0.7788 0.0
C1810 C 0.83323 0.35368 0.82329 0.0
C1811 C 0.82197 0.34646 0.84136 0.0
C1812 C 0.83754 0.31258 0.74008 0.0
C1813 C 0.83411 0.33406 0.78038 0.0
C1814 C 0.84275 0.30666 0.70842 0.0
C1815 C 0.85025 0.31544 0.68388 0.0
C1816 C 0.83996 0.32736 0.74757 0.0
C1817 C 0.85258 0.33015 0.69261 0.0
C1818 C 0.83926 0.34757 0.79265 0.0
C1819 C 0.81719 0.33296 0.82834 0.0
N1820 N 0.84745 0.33566 0.72373 0.0
N1821 N 0.82331 0.32717 0.79867 0.0
H1822 H 0.67142 0.82296 0.84817 0.0
H1823 H 0.65639 0.84257 0.6443 0.0
H1824 H 0.62921 0.81951 0.79823 0.0
H1825 H 0.69674 0.85273 0.69798 0.0
H1826 H 0.64655 0.83331 0.7001 0.0
H1827 H 0.6813 0.83294 0.79282 0.0
C1828 C 0.66425 0.82429 0.82553 0.0
C1829 C 0.64947 0.82043 0.82779 0.0
C1830 C 0.65755 0.8376 0.69972 0.0
C1831 C 0.66067 0.83184 0.7645 0.0
C1832 C 0.66315 0.84298 0.66787 0.0
C1833 C 0.67742 0.84849 0.6664 0.0
C1834 C 0.66627 0.83765 0.73038 0.0
C1835 C 0.68576 0.84842 0.69772 0.0
C1836 C 0.66987 0.83004 0.79403 0.0
C1837 C 0.64062 0.82251 0.79779 0.0
N1838 N 0.68007 0.84307 0.72841 0.0
N1839 N 0.64637 0.82802 0.76737 0.0
H1840 H 0.84468 0.69793 0.70052 0.0
H1841 H 0.83504 0.62783 0.82448 0.0
H1842 H 0.85609 0.65442 0.66662 0.0
H1843 H 0.81421 0.66924 0.84463 0.0
H1844 H 0.84507 0.63777 0.76931 0.0
H1845 H 0.83573 0.68797 0.75647 0.0
C1846 C 0.84524 0.68627 0.7047 0.0
C1847 C 0.85105 0.677 0.67859 0.0
C1848 C 0.83833 0.64466 0.78591 0.0
C1849 C 0.84103 0.66554 0.74305 0.0
C1850 C 0.83254 0.63899 0.81735 0.0
C1851 C 0.82375 0.6477 0.83936 0.0
C1852 C 0.83537 0.65917 0.77649 0.0
C1853 C 0.82112 0.66217 0.82894 0.0
C1854 C 0.84019 0.6806 0.73678 0.0
C1855 C 0.85182 0.66201 0.68604 0.0
N1856 N 0.8269 0.66743 0.79831 0.0
N1857 N 0.84685 0.65674 0.71757 0.0
H1858 H 0.30803 0.86969 0.69926 0.0
H1859 H 0.37316 0.83101 0.80462 0.0
H1860 H 0.34612 0.85199 0.6476 0.0
H1861 H 0.33013 0.83735 0.84829 0.0
H1862 H 0.36517 0.84274 0.74945 0.0
H1863 H 0.31788 0.86202 0.75668 0.0
C1864 C 0.31857 0.86438 0.70007 0.0
C1865 C 0.32626 0.8614 0.66865 0.0
C1866 C 0.35752 0.84165 0.77121 0.0
C1867 C 0.3375 0.8525 0.73415 0.0
C1868 C 0.36209 0.83505 0.80272 0.0
C1869 C 0.35225 0.83315 0.8309 0.0
C1870 C 0.34306 0.8465 0.76804 0.0
C1871 C 0.33799 0.83845 0.82699 0.0
C1872 C 0.32412 0.85991 0.7328 0.0
C1873 C 0.33978 0.85433 0.67119 0.0
N1874 N 0.33382 0.84487 0.7961 0.0
N1875 N 0.34496 0.85008 0.7034 0.0
H1876 H 0.12254 0.33931 0.67758 0.0
H1877 H 0.1948 0.35117 0.79334 0.0
H1878 H 0.16573 0.32634 0.64463 0.0
H1879 H 0.15177 0.36202 0.83144 0.0
H1880 H 0.18427 0.34383 0.73667 0.0
H1881 H 0.13295 0.34938 0.73229 0.0
C1882 C 0.1342 0.33861 0.68177 0.0
C1883 C 0.14326 0.33197 0.6564 0.0
C1884 C 0.1771 0.34785 0.75733 0.0
C1885 C 0.15524 0.34353 0.71876 0.0
C1886 C 0.18311 0.35197 0.78978 0.0
C1887 C 0.17413 0.35705 0.8173 0.0
C1888 C 0.16196 0.34876 0.75224 0.0
C1889 C 0.15909 0.3582 0.81089 0.0
C1890 C 0.14014 0.34441 0.71292 0.0
C1891 C 0.15832 0.33155 0.66306 0.0
N1892 N 0.15345 0.35398 0.77907 0.0
N1893 N 0.1638 0.33719 0.69358 0.0
H1894 H 0.64883 0.15488 0.84028 0.0
H1895 H 0.67072 0.17094 0.63883 0.0
H1896 H 0.63975 0.19571 0.78756 0.0
H1897 H 0.66929 0.1276 0.68323 0.0
H1898 H 0.66048 0.18052 0.69415 0.0
H1899 H 0.65728 0.14486 0.7838 0.0
C1900 C 0.64848 0.16172 0.81683 0.0
C1901 C 0.6436 0.1762 0.81883 0.0
C1902 C 0.66232 0.1689 0.69172 0.0
C1903 C 0.65352 0.16484 0.75415 0.0
C1904 C 0.66823 0.16345 0.66025 0.0
C1905 C 0.67087 0.14847 0.65652 0.0
C1906 C 0.65919 0.15932 0.71983 0.0
C1907 C 0.6673 0.13921 0.68493 0.0
C1908 C 0.65338 0.15599 0.78461 0.0
C1909 C 0.64367 0.18459 0.78756 0.0
N1910 N 0.66174 0.1448 0.71551 0.0
N1911 N 0.64861 0.1788 0.75659 0.0
H1912 H 0.8609 0.33949 0.3399 0.0
H1913 H 0.79983 0.33567 0.19025 0.0
H1914 H 0.83109 0.30332 0.32823 0.0
H1915 H 0.83944 0.36046 0.17564 0.0
H1916 H 0.80959 0.32606 0.24559 0.0
H1917 H 0.85181 0.34953 0.28376 0.0
C1918 C 0.85252 0.33361 0.32558 0.0
C1919 C 0.84669 0.32057 0.33914 0.0
C1920 C 0.81616 0.33358 0.23021 0.0
C1921 C 0.83609 0.33218 0.27538 0.0
C1922 C 0.81064 0.33902 0.19843 0.0
C1923 C 0.81888 0.34878 0.17781 0.0
C1924 C 0.82996 0.33804 0.24195 0.0
C1925 C 0.83263 0.35306 0.19067 0.0
C1926 C 0.84731 0.3394 0.29364 0.0
C1927 C 0.83569 0.31357 0.3195 0.0
N1928 N 0.83774 0.34767 0.22197 0.0
N1929 N 0.83071 0.31951 0.2888 0.0
H1930 H 0.63671 0.84046 0.15218 0.0
H1931 H 0.67439 0.82497 0.33986 0.0
H1932 H 0.64735 0.79747 0.19105 0.0
H1933 H 0.65859 0.86746 0.30887 0.0
H1934 H 0.66455 0.81486 0.28515 0.0
H1935 H 0.64469 0.85073 0.20895 0.0
C1936 C 0.64063 0.83316 0.1727 0.0
C1937 C 0.64144 0.81807 0.16672 0.0
C1938 C 0.66315 0.82639 0.29034 0.0
C1939 C 0.65072 0.82977 0.23157 0.0
C1940 C 0.66868 0.83217 0.32178 0.0
C1941 C 0.66727 0.8471 0.32917 0.0
C1942 C 0.65622 0.83558 0.2658 0.0
C1943 C 0.66008 0.85592 0.30415 0.0
C1944 C 0.64523 0.83905 0.20504 0.0
C1945 C 0.64678 0.80918 0.19415 0.0
N1946 N 0.65485 0.85003 0.27352 0.0
N1947 N 0.65124 0.81517 0.22528 0.0
H1948 H 0.14742 0.65252 0.3463 0.0
H1949 H 0.16759 0.66726 0.14325 0.0
H1950 H 0.13924 0.69351 0.29345 0.0
H1951 H 0.16642 0.62423 0.18976 0.0
H1952 H 0.15773 0.67723 0.19834 0.0
H1953 H 0.15509 0.64211 0.28964 0.0
C1954 C 0.14711 0.65932 0.32277 0.0
C1955 C 0.14268 0.67395 0.32475 0.0
C1956 C 0.15956 0.66559 0.19641 0.0
C1957 C 0.1517 0.66211 0.25981 0.0
C1958 C 0.16511 0.65986 0.16484 0.0
C1959 C 0.16789 0.64486 0.16178 0.0
C1960 C 0.15687 0.65629 0.22531 0.0
C1961 C 0.1647 0.63589 0.19103 0.0
C1962 C 0.15157 0.65337 0.29043 0.0
C1963 C 0.1428 0.68227 0.29339 0.0
N1964 N 0.15943 0.64175 0.22161 0.0
N1965 N 0.14728 0.67625 0.26227 0.0
H1966 H 0.33846 0.16074 0.35942 0.0
H1967 H 0.32838 0.16752 0.15096 0.0
H1968 H 0.31075 0.13145 0.30047 0.0
H1969 H 0.36857 0.17968 0.20247 0.0
H1970 H 0.31995 0.15658 0.2068 0.0
H1971 H 0.34806 0.17027 0.30311 0.0
C1972 C 0.33444 0.15633 0.33457 0.0
C1973 C 0.32384 0.14532 0.33438 0.0
C1974 C 0.33064 0.16158 0.20579 0.0
C1975 C 0.33456 0.15622 0.27031 0.0
C1976 C 0.3354 0.16787 0.17411 0.0
C1977 C 0.34915 0.17448 0.17234 0.0
C1978 C 0.33959 0.1622 0.236 0.0
C1979 C 0.35792 0.1746 0.20287 0.0
C1980 C 0.33995 0.1617 0.30258 0.0
C1981 C 0.319 0.13988 0.30161 0.0
N1982 N 0.35292 0.16867 0.23365 0.0
N1983 N 0.32429 0.1455 0.2708 0.0
loop_
_geom_bond_atom_site_label_1
_geom_bond_atom_site_label_2
_geom_bond_distance
_geom_bond_site_symmetry_2
_ccdc_geom_bond_type
Li0 N17 1.990 . S
Li0 O60 1.956 . S
Li0 O61 1.969 1_554 S
Li0 O62 1.961 1_554 S
Li1 N25 1.990 . S
Li1 O60 1.970 . S
Li1 O61 1.935 1_554 S
Li1 O63 1.961 . S
Li2 N47 1.991 . S
Li2 O60 1.938 1_556 S
Li2 O62 1.978 . S
Li2 O63 1.969 1_556 S
Li3 N53 1.990 . S
Li3 O61 1.981 . S
Li3 O62 1.970 . S
Li3 O63 1.956 1_556 S
C4 C6 1.348 . S
C4 C7 1.356 . S
C4 O60 1.325 . S
N5 C8 1.314 . S
N5 C9 1.279 . S
C6 C4 1.348 . S
C6 C8 1.353 . S
C6 H64 0.929 . S
C7 C4 1.356 . S
C7 C9 1.358 . S
C7 H65 0.930 . S
C8 N5 1.314 . S
C8 C6 1.353 . S
C8 H66 0.930 . S
C9 N5 1.279 . S
C9 C7 1.358 . S
C9 H67 0.930 . S
C10 C13 1.349 1_556 S
C10 C14 1.355 . S
C10 O61 1.324 . S
C11 N12 1.279 1_556 S
C11 C14 1.358 . S
C11 H68 0.930 . S
N12 C11 1.279 1_554 S
N12 C15 1.314 . S
C13 C10 1.349 1_554 S
C13 C15 1.353 . S
C13 H69 0.929 . S
C14 C10 1.355 . S
C14 C11 1.358 . S
C14 H70 0.930 . S
C15 N12 1.314 . S
C15 C13 1.353 . S
C15 H71 0.930 . S
C16 N17 1.314 1_556 S
C16 C21 1.353 . S
C16 H22 0.930 . S
N17 Li0 1.990 . S
N17 C16 1.314 1_554 S
N17 C19 1.279 . S
C18 C19 1.358 . S
C18 C20 1.359 . S
C18 H72 0.930 . S
C19 N17 1.279 . S
C19 C18 1.358 . S
C19 H23 0.930 . S
C20 C18 1.359 . S
C20 C21 1.345 1_554 S
C21 C16 1.353 . S
C21 C20 1.345 1_556 S
C21 H73 0.929 . S
H22 C16 0.930 . S
H23 C19 0.930 . S
C24 N25 1.314 . S
C24 C26 1.353 . S
C24 H30 0.930 . S
N25 Li1 1.990 . S
N25 C24 1.314 . S
N25 C28 1.279 . S
C26 C24 1.353 . S
C26 C29 1.348 . S
C26 H74 0.929 . S
C27 C28 1.358 . S
C27 C29 1.356 . S
C27 H75 0.930 . S
C28 N25 1.279 . S
C28 C27 1.358 . S
C28 H31 0.930 . S
C29 C26 1.348 . S
C29 C27 1.356 . S
H30 C24 0.930 . S
H31 C28 0.930 . S
C32 C34 1.348 . S
C32 C35 1.356 . S
C32 O62 1.325 . S
N33 C36 1.314 . S
N33 C37 1.279 . S
C34 C32 1.348 . S
C34 C36 1.353 . S
C34 H76 0.929 . S
C35 C32 1.356 . S
C35 C37 1.358 . S
C35 H77 0.930 . S
C36 N33 1.314 . S
C36 C34 1.353 . S
C36 H78 0.930 . S
C37 N33 1.279 . S
C37 C35 1.358 . S
C37 H79 0.930 . S
C38 C39 1.347 1_554 S
C38 C40 1.357 . S
C38 O63 1.325 . S
C39 C38 1.347 1_556 S
C39 C41 1.353 . S
C39 H80 0.929 . S
C40 C38 1.357 . S
C40 C42 1.358 . S
C40 H81 0.930 . S
C41 C39 1.353 . S
C41 N43 1.314 . S
C41 H82 0.930 . S
C42 C40 1.358 . S
C42 N43 1.279 1_554 S
C42 H83 0.930 . S
N43 C41 1.314 . S
N43 C42 1.279 1_556 S
C44 C46 1.353 . S
C44 N47 1.314 1_554 S
C44 H50 0.930 . S
C45 N47 1.279 . S
C45 C48 1.358 . S
C45 H51 0.930 . S
C46 C44 1.353 . S
C46 C49 1.345 . S
C46 H84 0.929 . S
N47 Li2 1.991 . S
N47 C44 1.314 1_556 S
N47 C45 1.279 . S
C48 C45 1.358 . S
C48 C49 1.359 1_556 S
C48 H85 0.930 . S
C49 C46 1.345 . S
C49 C48 1.359 1_554 S
H50 C44 0.930 . S
H51 C45 0.930 . S
C52 N53 1.314 . S
C52 C54 1.353 . S
C52 H58 0.930 . S
N53 Li3 1.990 . S
N53 C52 1.314 . S
N53 C56 1.279 . S
C54 C52 1.353 . S
C54 C57 1.348 . S
C54 H86 0.929 . S
C55 C56 1.358 . S
C55 C57 1.356 . S
C55 H87 0.930 . S
C56 N53 1.279 . S
C56 C55 1.358 . S
C56 H59 0.930 . S
C57 C54 1.348 . S
C57 C55 1.356 . S
H58 C52 0.930 . S
H59 C56 0.930 . S
O60 Li0 1.956 . S
O60 Li1 1.970 . S
O60 Li2 1.938 1_554 S
O60 C4 1.325 . S
O61 Li0 1.969 1_556 S
O61 Li1 1.935 1_556 S
O61 Li3 1.981 . S
O61 C10 1.324 . S
O62 Li0 1.961 1_556 S
O62 Li2 1.978 . S
O62 Li3 1.970 . S
O62 C32 1.325 . S
O63 Li1 1.961 . S
O63 Li2 1.969 1_554 S
O63 Li3 1.956 1_554 S
O63 C38 1.325 . S
H64 C6 0.929 . S
H65 C7 0.930 . S
H66 C8 0.930 . S
H67 C9 0.930 . S
H68 C11 0.930 . S
H69 C13 0.929 . S
H70 C14 0.930 . S
H71 C15 0.930 . S
H72 C18 0.930 . S
H73 C21 0.929 . S
H74 C26 0.929 . S
H75 C27 0.930 . S
H76 C34 0.929 . S
H77 C35 0.930 . S
H78 C36 0.930 . S
H79 C37 0.930 . S
H80 C39 0.929 . S
H81 C40 0.930 . S
H82 C41 0.930 . S
H83 C42 0.930 . S
H84 C46 0.929 . S
H85 C48 0.930 . S
H86 C54 0.929 . S
H87 C55 0.930 . S
Li88 N105 1.990 . S
Li88 O148 1.956 . S
Li88 O149 1.969 1_554 S
Li88 O150 1.961 1_554 S
Li89 N113 1.990 . S
Li89 O148 1.970 . S
Li89 O149 1.935 1_554 S
Li89 O151 1.961 . S
Li90 N135 1.991 . S
Li90 O148 1.938 1_556 S
Li90 O150 1.978 . S
Li90 O151 1.969 1_556 S
Li91 N141 1.990 . S
Li91 O149 1.981 . S
Li91 O150 1.970 . S
Li91 O151 1.956 1_556 S
C92 C94 1.348 . S
C92 C95 1.356 . S
C92 O148 1.325 . S
N93 C96 1.314 . S
N93 C97 1.279 . S
C94 C92 1.348 . S
C94 C96 1.353 . S
C94 H152 0.929 . S
C95 C92 1.356 . S
C95 C97 1.358 . S
C95 H153 0.930 . S
C96 N93 1.314 . S
C96 C94 1.353 . S
C96 H154 0.930 . S
C97 N93 1.279 . S
C97 C95 1.358 . S
C97 H155 0.930 . S
C98 C101 1.349 1_556 S
C98 C102 1.355 . S
C98 O149 1.324 . S
C99 N100 1.279 1_556 S
C99 C102 1.358 . S
C99 H156 0.930 . S
N100 C99 1.279 1_554 S
N100 C103 1.314 . S
C101 C98 1.349 1_554 S
C101 C103 1.353 . S
C101 H157 0.929 . S
C102 C98 1.355 . S
C102 C99 1.358 . S
C102 H158 0.930 . S
C103 N100 1.314 . S
C103 C101 1.353 . S
C103 H159 0.930 . S
C104 N105 1.314 1_556 S
C104 C109 1.353 . S
C104 H110 0.930 . S
N105 Li88 1.990 . S
N105 C104 1.314 1_554 S
N105 C107 1.279 . S
C106 C107 1.358 . S
C106 C108 1.359 . S
C106 H160 0.930 . S
C107 N105 1.279 . S
C107 C106 1.358 . S
C107 H111 0.930 . S
C108 C106 1.359 . S
C108 C109 1.345 1_554 S
C109 C104 1.353 . S
C109 C108 1.345 1_556 S
C109 H161 0.929 . S
H110 C104 0.930 . S
H111 C107 0.930 . S
C112 N113 1.314 . S
C112 C114 1.353 . S
C112 H118 0.930 . S
N113 Li89 1.990 . S
N113 C112 1.314 . S
N113 C116 1.279 . S
C114 C112 1.353 . S
C114 C117 1.348 . S
C114 H162 0.929 . S
C115 C116 1.358 . S
C115 C117 1.356 . S
C115 H163 0.930 . S
C116 N113 1.279 . S
C116 C115 1.358 . S
C116 H119 0.930 . S
C117 C114 1.348 . S
C117 C115 1.356 . S
H118 C112 0.930 . S
H119 C116 0.930 . S
C120 C122 1.348 . S
C120 C123 1.356 . S
C120 O150 1.325 . S
N121 C124 1.314 . S
N121 C125 1.279 . S
C122 C120 1.348 . S
C122 C124 1.353 . S
C122 H164 0.929 . S
C123 C120 1.356 . S
C123 C125 1.358 . S
C123 H165 0.930 . S
C124 N121 1.314 . S
C124 C122 1.353 . S
C124 H166 0.930 . S
C125 N121 1.279 . S
C125 C123 1.358 . S
C125 H167 0.930 . S
C126 C127 1.347 1_554 S
C126 C128 1.357 . S
C126 O151 1.325 . S
C127 C126 1.347 1_556 S
C127 C129 1.353 . S
C127 H168 0.929 . S
C128 C126 1.357 . S
C128 C130 1.358 . S
C128 H169 0.930 . S
C129 C127 1.353 . S
C129 N131 1.314 . S
C129 H170 0.930 . S
C130 C128 1.358 . S
C130 N131 1.279 1_554 S
C130 H171 0.930 . S
N131 C129 1.314 . S
N131 C130 1.279 1_556 S
C132 C134 1.353 . S
C132 N135 1.314 1_554 S
C132 H138 0.930 . S
C133 N135 1.279 . S
C133 C136 1.358 . S
C133 H139 0.930 . S
C134 C132 1.353 . S
C134 C137 1.345 . S
C134 H172 0.929 . S
N135 Li90 1.991 . S
N135 C132 1.314 1_556 S
N135 C133 1.279 . S
C136 C133 1.358 . S
C136 C137 1.359 1_556 S
C136 H173 0.930 . S
C137 C134 1.345 . S
C137 C136 1.359 1_554 S
H138 C132 0.930 . S
H139 C133 0.930 . S
C140 N141 1.314 . S
C140 C142 1.353 . S
C140 H146 0.930 . S
N141 Li91 1.990 . S
N141 C140 1.314 . S
N141 C144 1.279 . S
C142 C140 1.353 . S
C142 C145 1.348 . S
C142 H174 0.929 . S
C143 C144 1.358 . S
C143 C145 1.356 . S
C143 H175 0.930 . S
C144 N141 1.279 . S
C144 C143 1.358 . S
C144 H147 0.930 . S
C145 C142 1.348 . S
C145 C143 1.356 . S
H146 C140 0.930 . S
H147 C144 0.930 . S
O148 Li88 1.956 . S
O148 Li89 1.970 . S
O148 Li90 1.938 1_554 S
O148 C92 1.325 . S
O149 Li88 1.969 1_556 S
O149 Li89 1.935 1_556 S
O149 Li91 1.981 . S
O149 C98 1.324 . S
O150 Li88 1.961 1_556 S
O150 Li90 1.978 . S
O150 Li91 1.970 . S
O150 C120 1.325 . S
O151 Li89 1.961 . S
O151 Li90 1.969 1_554 S
O151 Li91 1.956 1_554 S
O151 C126 1.325 . S
H152 C94 0.929 . S
H153 C95 0.930 . S
H154 C96 0.930 . S
H155 C97 0.930 . S
H156 C99 0.930 . S
H157 C101 0.929 . S
H158 C102 0.930 . S
H159 C103 0.930 . S
H160 C106 0.930 . S
H161 C109 0.929 . S
H162 C114 0.929 . S
H163 C115 0.930 . S
H164 C122 0.929 . S
H165 C123 0.930 . S
H166 C124 0.930 . S
H167 C125 0.930 . S
H168 C127 0.929 . S
H169 C128 0.930 . S
H170 C129 0.930 . S
H171 C130 0.930 . S
H172 C134 0.929 . S
H173 C136 0.930 . S
H174 C142 0.929 . S
H175 C143 0.930 . S
Li176 N193 1.990 . S
Li176 O236 1.935 1_554 S
Li176 O237 1.970 . S
Li176 O238 1.961 . S
Li177 N201 1.990 . S
Li177 O236 1.969 1_554 S
Li177 O237 1.956 . S
Li177 O239 1.961 1_554 S
Li178 N223 1.990 . S
Li178 O236 1.981 . S
Li178 O238 1.956 1_556 S
Li178 O239 1.970 . S
Li179 N229 1.991 . S
Li179 O237 1.938 1_556 S
Li179 O238 1.969 1_556 S
Li179 O239 1.978 . S
C180 C182 1.349 1_556 S
C180 C183 1.355 . S
C180 O236 1.324 . S
N181 C184 1.314 . S
N181 C185 1.279 1_554 S
C182 C180 1.349 1_554 S
C182 C184 1.353 . S
C182 H240 0.929 . S
C183 C180 1.355 . S
C183 C185 1.358 . S
C183 H241 0.930 . S
C184 N181 1.314 . S
C184 C182 1.353 . S
C184 H242 0.930 . S
C185 N181 1.279 1_556 S
C185 C183 1.358 . S
C185 H243 0.930 . S
C186 C189 1.348 . S
C186 C190 1.356 . S
C186 O237 1.325 . S
C187 N188 1.279 . S
C187 C190 1.358 . S
C187 H244 0.930 . S
N188 C187 1.279 . S
N188 C191 1.314 . S
C189 C186 1.348 . S
C189 C191 1.353 . S
C189 H245 0.929 . S
C190 C186 1.356 . S
C190 C187 1.358 . S
C190 H246 0.930 . S
C191 N188 1.314 . S
C191 C189 1.353 . S
C191 H247 0.930 . S
C192 N193 1.314 . S
C192 C197 1.353 . S
C192 H198 0.930 . S
N193 Li176 1.990 . S
N193 C192 1.314 . S
N193 C195 1.279 . S
C194 C195 1.358 . S
C194 C196 1.356 . S
C194 H248 0.930 . S
C195 N193 1.279 . S
C195 C194 1.358 . S
C195 H199 0.930 . S
C196 C194 1.356 . S
C196 C197 1.348 . S
C197 C192 1.353 . S
C197 C196 1.348 . S
C197 H249 0.929 . S
H198 C192 0.930 . S
H199 C195 0.930 . S
C200 N201 1.314 1_556 S
C200 C202 1.353 . S
C200 H206 0.930 . S
N201 Li177 1.990 . S
N201 C200 1.314 1_554 S
N201 C204 1.279 . S
C202 C200 1.353 . S
C202 C205 1.345 1_556 S
C202 H250 0.929 . S
C203 C204 1.358 . S
C203 C205 1.359 . S
C203 H251 0.930 . S
C204 N201 1.279 . S
C204 C203 1.358 . S
C204 H207 0.930 . S
C205 C202 1.345 1_554 S
C205 C203 1.359 . S
H206 C200 0.930 . S
H207 C204 0.930 . S
C208 C210 1.347 1_554 S
C208 C211 1.357 . S
C208 O238 1.325 . S
N209 C212 1.314 . S
N209 C213 1.279 1_556 S
C210 C208 1.347 1_556 S
C210 C212 1.353 . S
C210 H252 0.929 . S
C211 C208 1.357 . S
C211 C213 1.358 . S
C211 H253 0.930 . S
C212 N209 1.314 . S
C212 C210 1.353 . S
C212 H254 0.930 . S
C213 N209 1.279 1_554 S
C213 C211 1.358 . S
C213 H255 0.930 . S
C214 C215 1.348 . S
C214 C216 1.356 . S
C214 O239 1.325 . S
C215 C214 1.348 . S
C215 C217 1.353 . S
C215 H256 0.929 . S
C216 C214 1.356 . S
C216 C218 1.358 . S
C216 H257 0.930 . S
C217 C215 1.353 . S
C217 N219 1.314 . S
C217 H258 0.930 . S
C218 C216 1.358 . S
C218 N219 1.279 . S
C218 H259 0.930 . S
N219 C217 1.314 . S
N219 C218 1.279 . S
C220 C222 1.353 . S
C220 N223 1.314 . S
C220 H226 0.930 . S
C221 N223 1.279 . S
C221 C224 1.358 . S
C221 H227 0.930 . S
C222 C220 1.353 . S
C222 C225 1.348 . S
C222 H260 0.929 . S
N223 Li178 1.990 . S
N223 C220 1.314 . S
N223 C221 1.279 . S
C224 C221 1.358 . S
C224 C225 1.356 . S
C224 H261 0.930 . S
C225 C222 1.348 . S
C225 C224 1.356 . S
H226 C220 0.930 . S
H227 C221 0.930 . S
C228 N229 1.314 1_554 S
C228 C230 1.353 . S
C228 H234 0.930 . S
N229 Li179 1.991 . S
N229 C228 1.314 1_556 S
N229 C232 1.279 . S
C230 C228 1.353 . S
C230 C233 1.345 . S
C230 H262 0.929 . S
C231 C232 1.358 . S
C231 C233 1.359 1_556 S
C231 H263 0.930 . S
C232 N229 1.279 . S
C232 C231 1.358 . S
C232 H235 0.930 . S
C233 C230 1.345 . S
C233 C231 1.359 1_554 S
H234 C228 0.930 . S
H235 C232 0.930 . S
O236 Li176 1.935 1_556 S
O236 Li177 1.969 1_556 S
O236 Li178 1.981 . S
O236 C180 1.324 . S
O237 Li176 1.970 . S
O237 Li177 1.956 . S
O237 Li179 1.938 1_554 S
O237 C186 1.325 . S
O238 Li176 1.961 . S
O238 Li178 1.956 1_554 S
O238 Li179 1.969 1_554 S
O238 C208 1.325 . S
O239 Li177 1.961 1_556 S
O239 Li178 1.970 . S
O239 Li179 1.978 . S
O239 C214 1.325 . S
H240 C182 0.929 . S
H241 C183 0.930 . S
H242 C184 0.930 . S
H243 C185 0.930 . S
H244 C187 0.930 . S
H245 C189 0.929 . S
H246 C190 0.930 . S
H247 C191 0.930 . S
H248 C194 0.930 . S
H249 C197 0.929 . S
H250 C202 0.929 . S
H251 C203 0.930 . S
H252 C210 0.929 . S
H253 C211 0.930 . S
H254 C212 0.930 . S
H255 C213 0.930 . S
H256 C215 0.929 . S
H257 C216 0.930 . S
H258 C217 0.930 . S
H259 C218 0.930 . S
H260 C222 0.929 . S
H261 C224 0.930 . S
H262 C230 0.929 . S
H263 C231 0.930 . S
Li264 N281 1.990 . S
Li264 O324 1.935 1_554 S
Li264 O325 1.970 . S
Li264 O326 1.961 . S
Li265 N289 1.990 . S
Li265 O324 1.969 1_554 S
Li265 O325 1.956 . S
Li265 O327 1.961 1_554 S
Li266 N311 1.990 . S
Li266 O324 1.981 . S
Li266 O326 1.956 1_556 S
Li266 O327 1.970 . S
Li267 N317 1.991 . S
Li267 O325 1.938 1_556 S
Li267 O326 1.969 1_556 S
Li267 O327 1.978 . S
C268 C270 1.349 1_556 S
C268 C271 1.355 . S
C268 O324 1.324 . S
N269 C272 1.314 . S
N269 C273 1.279 1_554 S
C270 C268 1.349 1_554 S
C270 C272 1.353 . S
C270 H328 0.929 . S
C271 C268 1.355 . S
C271 C273 1.358 . S
C271 H329 0.930 . S
C272 N269 1.314 . S
C272 C270 1.353 . S
C272 H330 0.930 . S
C273 N269 1.279 1_556 S
C273 C271 1.358 . S
C273 H331 0.930 . S
C274 C277 1.348 . S
C274 C278 1.356 . S
C274 O325 1.325 . S
C275 N276 1.279 . S
C275 C278 1.358 . S
C275 H332 0.930 . S
N276 C275 1.279 . S
N276 C279 1.314 . S
C277 C274 1.348 . S
C277 C279 1.353 . S
C277 H333 0.929 . S
C278 C274 1.356 . S
C278 C275 1.358 . S
C278 H334 0.930 . S
C279 N276 1.314 . S
C279 C277 1.353 . S
C279 H335 0.930 . S
C280 N281 1.314 . S
C280 C285 1.353 . S
C280 H286 0.930 . S
N281 Li264 1.990 . S
N281 C280 1.314 . S
N281 C283 1.279 . S
C282 C283 1.358 . S
C282 C284 1.356 . S
C282 H336 0.930 . S
C283 N281 1.279 . S
C283 C282 1.358 . S
C283 H287 0.930 . S
C284 C282 1.356 . S
C284 C285 1.348 . S
C285 C280 1.353 . S
C285 C284 1.348 . S
C285 H337 0.929 . S
H286 C280 0.930 . S
H287 C283 0.930 . S
C288 N289 1.314 1_556 S
C288 C290 1.353 . S
C288 H294 0.930 . S
N289 Li265 1.990 . S
N289 C288 1.314 1_554 S
N289 C292 1.279 . S
C290 C288 1.353 . S
C290 C293 1.345 1_556 S
C290 H338 0.929 . S
C291 C292 1.358 . S
C291 C293 1.359 . S
C291 H339 0.930 . S
C292 N289 1.279 . S
C292 C291 1.358 . S
C292 H295 0.930 . S
C293 C290 1.345 1_554 S
C293 C291 1.359 . S
H294 C288 0.930 . S
H295 C292 0.930 . S
C296 C298 1.347 1_554 S
C296 C299 1.357 . S
C296 O326 1.325 . S
N297 C300 1.314 . S
N297 C301 1.279 1_556 S
C298 C296 1.347 1_556 S
C298 C300 1.353 . S
C298 H340 0.929 . S
C299 C296 1.357 . S
C299 C301 1.358 . S
C299 H341 0.930 . S
C300 N297 1.314 . S
C300 C298 1.353 . S
C300 H342 0.930 . S
C301 N297 1.279 1_554 S
C301 C299 1.358 . S
C301 H343 0.930 . S
C302 C303 1.348 . S
C302 C304 1.356 . S
C302 O327 1.325 . S
C303 C302 1.348 . S
C303 C305 1.353 . S
C303 H344 0.929 . S
C304 C302 1.356 . S
C304 C306 1.358 . S
C304 H345 0.930 . S
C305 C303 1.353 . S
C305 N307 1.314 . S
C305 H346 0.930 . S
C306 C304 1.358 . S
C306 N307 1.279 . S
C306 H347 0.930 . S
N307 C305 1.314 . S
N307 C306 1.279 . S
C308 C310 1.353 . S
C308 N311 1.314 . S
C308 H314 0.930 . S
C309 N311 1.279 . S
C309 C312 1.358 . S
C309 H315 0.930 . S
C310 C308 1.353 . S
C310 C313 1.348 . S
C310 H348 0.929 . S
N311 Li266 1.990 . S
N311 C308 1.314 . S
N311 C309 1.279 . S
C312 C309 1.358 . S
C312 C313 1.356 . S
C312 H349 0.930 . S
C313 C310 1.348 . S
C313 C312 1.356 . S
H314 C308 0.930 . S
H315 C309 0.930 . S
C316 N317 1.314 1_554 S
C316 C318 1.353 . S
C316 H322 0.930 . S
N317 Li267 1.991 . S
N317 C316 1.314 1_556 S
N317 C320 1.279 . S
C318 C316 1.353 . S
C318 C321 1.345 . S
C318 H350 0.929 . S
C319 C320 1.358 . S
C319 C321 1.359 1_556 S
C319 H351 0.930 . S
C320 N317 1.279 . S
C320 C319 1.358 . S
C320 H323 0.930 . S
C321 C318 1.345 . S
C321 C319 1.359 1_554 S
H322 C316 0.930 . S
H323 C320 0.930 . S
O324 Li264 1.935 1_556 S
O324 Li265 1.969 1_556 S
O324 Li266 1.981 . S
O324 C268 1.324 . S
O325 Li264 1.970 . S
O325 Li265 1.956 . S
O325 Li267 1.938 1_554 S
O325 C274 1.325 . S
O326 Li264 1.961 . S
O326 Li266 1.956 1_554 S
O326 Li267 1.969 1_554 S
O326 C296 1.325 . S
O327 Li265 1.961 1_556 S
O327 Li266 1.970 . S
O327 Li267 1.978 . S
O327 C302 1.325 . S
H328 C270 0.929 . S
H329 C271 0.930 . S
H330 C272 0.930 . S
H331 C273 0.930 . S
H332 C275 0.930 . S
H333 C277 0.929 . S
H334 C278 0.930 . S
H335 C279 0.930 . S
H336 C282 0.930 . S
H337 C285 0.929 . S
H338 C290 0.929 . S
H339 C291 0.930 . S
H340 C298 0.929 . S
H341 C299 0.930 . S
H342 C300 0.930 . S
H343 C301 0.930 . S
H344 C303 0.929 . S
H345 C304 0.930 . S
H346 C305 0.930 . S
H347 C306 0.930 . S
H348 C310 0.929 . S
H349 C312 0.930 . S
H350 C318 0.929 . S
H351 C319 0.930 . S
Li352 N369 1.990 . S
Li352 O412 1.935 1_554 S
Li352 O413 1.970 . S
Li352 O414 1.961 . S
Li353 N377 1.990 . S
Li353 O412 1.969 1_554 S
Li353 O413 1.956 . S
Li353 O415 1.961 1_554 S
Li354 N399 1.990 . S
Li354 O412 1.981 . S
Li354 O414 1.956 1_556 S
Li354 O415 1.970 . S
Li355 N405 1.991 . S
Li355 O413 1.938 1_556 S
Li355 O414 1.969 1_556 S
Li355 O415 1.978 . S
C356 C358 1.349 1_556 S
C356 C359 1.355 . S
C356 O412 1.324 . S
N357 C360 1.314 . S
N357 C361 1.279 1_554 S
C358 C356 1.349 1_554 S
C358 C360 1.353 . S
C358 H416 0.929 . S
C359 C356 1.355 . S
C359 C361 1.358 . S
C359 H417 0.930 . S
C360 N357 1.314 . S
C360 C358 1.353 . S
C360 H418 0.930 . S
C361 N357 1.279 1_556 S
C361 C359 1.358 . S
C361 H419 0.930 . S
C362 C365 1.348 . S
C362 C366 1.356 . S
C362 O413 1.325 . S
C363 N364 1.279 . S
C363 C366 1.358 . S
C363 H420 0.930 . S
N364 C363 1.279 . S
N364 C367 1.314 . S
C365 C362 1.348 . S
C365 C367 1.353 . S
C365 H421 0.929 . S
C366 C362 1.356 . S
C366 C363 1.358 . S
C366 H422 0.930 . S
C367 N364 1.314 . S
C367 C365 1.353 . S
C367 H423 0.930 . S
C368 N369 1.314 . S
C368 C373 1.353 . S
C368 H374 0.930 . S
N369 Li352 1.990 . S
N369 C368 1.314 . S
N369 C371 1.279 . S
C370 C371 1.358 . S
C370 C372 1.356 . S
C370 H424 0.930 . S
C371 N369 1.279 . S
C371 C370 1.358 . S
C371 H375 0.930 . S
C372 C370 1.356 . S
C372 C373 1.348 . S
C373 C368 1.353 . S
C373 C372 1.348 . S
C373 H425 0.929 . S
H374 C368 0.930 . S
H375 C371 0.930 . S
C376 N377 1.314 1_556 S
C376 C378 1.353 . S
C376 H382 0.930 . S
N377 Li353 1.990 . S
N377 C376 1.314 1_554 S
N377 C380 1.279 . S
C378 C376 1.353 . S
C378 C381 1.345 1_556 S
C378 H426 0.929 . S
C379 C380 1.358 . S
C379 C381 1.359 . S
C379 H427 0.930 . S
C380 N377 1.279 . S
C380 C379 1.358 . S
C380 H383 0.930 . S
C381 C378 1.345 1_554 S
C381 C379 1.359 . S
H382 C376 0.930 . S
H383 C380 0.930 . S
C384 C386 1.346 1_554 S
C384 C387 1.357 . S
C384 O414 1.325 . S
N385 C388 1.314 . S
N385 C389 1.279 1_556 S
C386 C384 1.346 1_556 S
C386 C388 1.353 . S
C386 H428 0.929 . S
C387 C384 1.357 . S
C387 C389 1.358 . S
C387 H429 0.930 . S
C388 N385 1.314 . S
C388 C386 1.353 . S
C388 H430 0.930 . S
C389 N385 1.279 1_554 S
C389 C387 1.358 . S
C389 H431 0.930 . S
C390 C391 1.348 . S
C390 C392 1.356 . S
C390 O415 1.325 . S
C391 C390 1.348 . S
C391 C393 1.353 . S
C391 H432 0.929 . S
C392 C390 1.356 . S
C392 C394 1.358 . S
C392 H433 0.930 . S
C393 C391 1.353 . S
C393 N395 1.314 . S
C393 H434 0.930 . S
C394 C392 1.358 . S
C394 N395 1.279 . S
C394 H435 0.930 . S
N395 C393 1.314 . S
N395 C394 1.279 . S
C396 C398 1.353 . S
C396 N399 1.314 . S
C396 H402 0.930 . S
C397 N399 1.279 . S
C397 C400 1.358 . S
C397 H403 0.930 . S
C398 C396 1.353 . S
C398 C401 1.348 . S
C398 H436 0.929 . S
N399 Li354 1.990 . S
N399 C396 1.314 . S
N399 C397 1.279 . S
C400 C397 1.358 . S
C400 C401 1.356 . S
C400 H437 0.930 . S
C401 C398 1.348 . S
C401 C400 1.356 . S
H402 C396 0.930 . S
H403 C397 0.930 . S
C404 N405 1.314 1_554 S
C404 C406 1.353 . S
C404 H410 0.930 . S
N405 Li355 1.991 . S
N405 C404 1.314 1_556 S
N405 C408 1.279 . S
C406 C404 1.353 . S
C406 C409 1.345 . S
C406 H438 0.929 . S
C407 C408 1.358 . S
C407 C409 1.359 1_556 S
C407 H439 0.930 . S
C408 N405 1.279 . S
C408 C407 1.358 . S
C408 H411 0.930 . S
C409 C406 1.345 . S
C409 C407 1.359 1_554 S
H410 C404 0.930 . S
H411 C408 0.930 . S
O412 Li352 1.935 1_556 S
O412 Li353 1.969 1_556 S
O412 Li354 1.981 . S
O412 C356 1.324 . S
O413 Li352 1.970 . S
O413 Li353 1.956 . S
O413 Li355 1.938 1_554 S
O413 C362 1.325 . S
O414 Li352 1.961 . S
O414 Li354 1.956 1_554 S
O414 Li355 1.969 1_554 S
O414 C384 1.325 . S
O415 Li353 1.961 1_556 S
O415 Li354 1.970 . S
O415 Li355 1.978 . S
O415 C390 1.325 . S
H416 C358 0.929 . S
H417 C359 0.930 . S
H418 C360 0.930 . S
H419 C361 0.930 . S
H420 C363 0.930 . S
H421 C365 0.929 . S
H422 C366 0.930 . S
H423 C367 0.930 . S
H424 C370 0.930 . S
H425 C373 0.929 . S
H426 C378 0.929 . S
H427 C379 0.930 . S
H428 C386 0.929 . S
H429 C387 0.930 . S
H430 C388 0.930 . S
H431 C389 0.930 . S
H432 C391 0.929 . S
H433 C392 0.930 . S
H434 C393 0.930 . S
H435 C394 0.930 . S
H436 C398 0.929 . S
H437 C400 0.930 . S
H438 C406 0.929 . S
H439 C407 0.930 . S
Li440 N457 1.990 . S
Li440 O500 1.956 . S
Li440 O501 1.969 1_554 S
Li440 O502 1.961 1_554 S
Li441 N465 1.990 . S
Li441 O500 1.970 . S
Li441 O501 1.935 1_554 S
Li441 O503 1.961 . S
Li442 N487 1.991 . S
Li442 O500 1.938 1_556 S
Li442 O502 1.978 . S
Li442 O503 1.969 1_556 S
Li443 N493 1.990 . S
Li443 O501 1.981 . S
Li443 O502 1.970 . S
Li443 O503 1.956 1_556 S
C444 C446 1.348 . S
C444 C447 1.356 . S
C444 O500 1.325 . S
N445 C448 1.314 . S
N445 C449 1.279 . S
C446 C444 1.348 . S
C446 C448 1.353 . S
C446 H504 0.929 . S
C447 C444 1.356 . S
C447 C449 1.358 . S
C447 H505 0.930 . S
C448 N445 1.314 . S
C448 C446 1.353 . S
C448 H506 0.930 . S
C449 N445 1.279 . S
C449 C447 1.358 . S
C449 H507 0.930 . S
C450 C453 1.349 1_556 S
C450 C454 1.355 . S
C450 O501 1.324 . S
C451 N452 1.279 1_556 S
C451 C454 1.358 . S
C451 H508 0.930 . S
N452 C451 1.279 1_554 S
N452 C455 1.314 . S
C453 C450 1.349 1_554 S
C453 C455 1.353 . S
C453 H509 0.929 . S
C454 C450 1.355 . S
C454 C451 1.358 . S
C454 H510 0.930 . S
C455 N452 1.314 . S
C455 C453 1.353 . S
C455 H511 0.930 . S
C456 N457 1.314 1_556 S
C456 C461 1.353 . S
C456 H462 0.930 . S
N457 Li440 1.990 . S
N457 C456 1.314 1_554 S
N457 C459 1.279 . S
C458 C459 1.358 . S
C458 C460 1.359 . S
C458 H512 0.930 . S
C459 N457 1.279 . S
C459 C458 1.358 . S
C459 H463 0.930 . S
C460 C458 1.359 . S
C460 C461 1.345 1_554 S
C461 C456 1.353 . S
C461 C460 1.345 1_556 S
C461 H513 0.929 . S
H462 C456 0.930 . S
H463 C459 0.930 . S
C464 N465 1.314 . S
C464 C466 1.353 . S
C464 H470 0.930 . S
N465 Li441 1.990 . S
N465 C464 1.314 . S
N465 C468 1.279 . S
C466 C464 1.353 . S
C466 C469 1.348 . S
C466 H514 0.929 . S
C467 C468 1.358 . S
C467 C469 1.356 . S
C467 H515 0.930 . S
C468 N465 1.279 . S
C468 C467 1.358 . S
C468 H471 0.930 . S
C469 C466 1.348 . S
C469 C467 1.356 . S
H470 C464 0.930 . S
H471 C468 0.930 . S
C472 C474 1.348 . S
C472 C475 1.356 . S
C472 O502 1.325 . S
N473 C476 1.314 . S
N473 C477 1.279 . S
C474 C472 1.348 . S
C474 C476 1.353 . S
C474 H516 0.929 . S
C475 C472 1.356 . S
C475 C477 1.358 . S
C475 H517 0.930 . S
C476 N473 1.314 . S
C476 C474 1.353 . S
C476 H518 0.930 . S
C477 N473 1.279 . S
C477 C475 1.358 . S
C477 H519 0.930 . S
C478 C479 1.346 1_554 S
C478 C480 1.357 . S
C478 O503 1.325 . S
C479 C478 1.346 1_556 S
C479 C481 1.353 . S
C479 H520 0.929 . S
C480 C478 1.357 . S
C480 C482 1.358 . S
C480 H521 0.930 . S
C481 C479 1.353 . S
C481 N483 1.314 . S
C481 H522 0.930 . S
C482 C480 1.358 . S
C482 N483 1.279 1_554 S
C482 H523 0.930 . S
N483 C481 1.314 . S
N483 C482 1.279 1_556 S
C484 C486 1.353 . S
C484 N487 1.314 1_554 S
C484 H490 0.930 . S
C485 N487 1.279 . S
C485 C488 1.358 . S
C485 H491 0.930 . S
C486 C484 1.353 . S
C486 C489 1.345 . S
C486 H524 0.929 . S
N487 Li442 1.991 . S
N487 C484 1.314 1_556 S
N487 C485 1.279 . S
C488 C485 1.358 . S
C488 C489 1.359 1_556 S
C488 H525 0.930 . S
C489 C486 1.345 . S
C489 C488 1.359 1_554 S
H490 C484 0.930 . S
H491 C485 0.930 . S
C492 N493 1.314 . S
C492 C494 1.353 . S
C492 H498 0.930 . S
N493 Li443 1.990 . S
N493 C492 1.314 . S
N493 C496 1.279 . S
C494 C492 1.353 . S
C494 C497 1.348 . S
C494 H526 0.929 . S
C495 C496 1.358 . S
C495 C497 1.356 . S
C495 H527 0.930 . S
C496 N493 1.279 . S
C496 C495 1.358 . S
C496 H499 0.930 . S
C497 C494 1.348 . S
C497 C495 1.356 . S
H498 C492 0.930 . S
H499 C496 0.930 . S
O500 Li440 1.956 . S
O500 Li441 1.970 . S
O500 Li442 1.938 1_554 S
O500 C444 1.325 . S
O501 Li440 1.969 1_556 S
O501 Li441 1.935 1_556 S
O501 Li443 1.981 . S
O501 C450 1.324 . S
O502 Li440 1.961 1_556 S
O502 Li442 1.978 . S
O502 Li443 1.970 . S
O502 C472 1.325 . S
O503 Li441 1.961 . S
O503 Li442 1.969 1_554 S
O503 Li443 1.956 1_554 S
O503 C478 1.325 . S
H504 C446 0.929 . S
H505 C447 0.930 . S
H506 C448 0.930 . S
H507 C449 0.930 . S
H508 C451 0.930 . S
H509 C453 0.929 . S
H510 C454 0.930 . S
H511 C455 0.930 . S
H512 C458 0.930 . S
H513 C461 0.929 . S
H514 C466 0.929 . S
H515 C467 0.930 . S
H516 C474 0.929 . S
H517 C475 0.930 . S
H518 C476 0.930 . S
H519 C477 0.930 . S
H520 C479 0.929 . S
H521 C480 0.930 . S
H522 C481 0.930 . S
H523 C482 0.930 . S
H524 C486 0.929 . S
H525 C488 0.930 . S
H526 C494 0.929 . S
H527 C495 0.930 . S
Li528 N545 1.990 . S
Li528 O588 1.935 1_554 S
Li528 O589 1.970 . S
Li528 O590 1.961 . S
Li529 N553 1.990 . S
Li529 O588 1.969 1_554 S
Li529 O589 1.956 . S
Li529 O591 1.961 1_554 S
Li530 N575 1.990 . S
Li530 O588 1.981 . S
Li530 O590 1.956 1_556 S
Li530 O591 1.970 . S
Li531 N581 1.991 . S
Li531 O589 1.938 1_556 S
Li531 O590 1.969 1_556 S
Li531 O591 1.978 . S
C532 C534 1.349 1_556 S
C532 C535 1.355 . S
C532 O588 1.324 . S
N533 C536 1.314 . S
N533 C537 1.279 1_554 S
C534 C532 1.349 1_554 S
C534 C536 1.353 . S
C534 H592 0.929 . S
C535 C532 1.355 . S
C535 C537 1.358 . S
C535 H593 0.930 . S
C536 N533 1.314 . S
C536 C534 1.353 . S
C536 H594 0.930 . S
C537 N533 1.279 1_556 S
C537 C535 1.358 . S
C537 H595 0.930 . S
C538 C541 1.348 . S
C538 C542 1.356 . S
C538 O589 1.325 . S
C539 N540 1.279 . S
C539 C542 1.358 . S
C539 H596 0.930 . S
N540 C539 1.279 . S
N540 C543 1.314 . S
C541 C538 1.348 . S
C541 C543 1.353 . S
C541 H597 0.929 . S
C542 C538 1.356 . S
C542 C539 1.358 . S
C542 H598 0.930 . S
C543 N540 1.314 . S
C543 C541 1.353 . S
C543 H599 0.930 . S
C544 N545 1.314 . S
C544 C549 1.353 . S
C544 H550 0.930 . S
N545 Li528 1.990 . S
N545 C544 1.314 . S
N545 C547 1.279 . S
C546 C547 1.358 . S
C546 C548 1.356 . S
C546 H600 0.930 . S
C547 N545 1.279 . S
C547 C546 1.358 . S
C547 H551 0.930 . S
C548 C546 1.356 . S
C548 C549 1.348 . S
C549 C544 1.353 . S
C549 C548 1.348 . S
C549 H601 0.929 . S
H550 C544 0.930 . S
H551 C547 0.930 . S
C552 N553 1.314 1_556 S
C552 C554 1.353 . S
C552 H558 0.930 . S
N553 Li529 1.990 . S
N553 C552 1.314 1_554 S
N553 C556 1.279 . S
C554 C552 1.353 . S
C554 C557 1.345 1_556 S
C554 H602 0.929 . S
C555 C556 1.358 . S
C555 C557 1.359 . S
C555 H603 0.930 . S
C556 N553 1.279 . S
C556 C555 1.358 . S
C556 H559 0.930 . S
C557 C554 1.345 1_554 S
C557 C555 1.359 . S
H558 C552 0.930 . S
H559 C556 0.930 . S
C560 C562 1.346 1_554 S
C560 C563 1.357 . S
C560 O590 1.325 . S
N561 C564 1.314 . S
N561 C565 1.279 1_556 S
C562 C560 1.346 1_556 S
C562 C564 1.353 . S
C562 H604 0.929 . S
C563 C560 1.357 . S
C563 C565 1.358 . S
C563 H605 0.930 . S
C564 N561 1.314 . S
C564 C562 1.353 . S
C564 H606 0.930 . S
C565 N561 1.279 1_554 S
C565 C563 1.358 . S
C565 H607 0.930 . S
C566 C567 1.348 . S
C566 C568 1.356 . S
C566 O591 1.325 . S
C567 C566 1.348 . S
C567 C569 1.353 . S
C567 H608 0.929 . S
C568 C566 1.356 . S
C568 C570 1.358 . S
C568 H609 0.930 . S
C569 C567 1.353 . S
C569 N571 1.314 . S
C569 H610 0.930 . S
C570 C568 1.358 . S
C570 N571 1.279 . S
C570 H611 0.930 . S
N571 C569 1.314 . S
N571 C570 1.279 . S
C572 C574 1.353 . S
C572 N575 1.314 . S
C572 H578 0.930 . S
C573 N575 1.279 . S
C573 C576 1.358 . S
C573 H579 0.930 . S
C574 C572 1.353 . S
C574 C577 1.348 . S
C574 H612 0.929 . S
N575 Li530 1.990 . S
N575 C572 1.314 . S
N575 C573 1.279 . S
C576 C573 1.358 . S
C576 C577 1.356 . S
C576 H613 0.930 . S
C577 C574 1.348 . S
C577 C576 1.356 . S
H578 C572 0.930 . S
H579 C573 0.930 . S
C580 N581 1.314 1_554 S
C580 C582 1.353 . S
C580 H586 0.930 . S
N581 Li531 1.991 . S
N581 C580 1.314 1_556 S
N581 C584 1.279 . S
C582 C580 1.353 . S
C582 C585 1.345 . S
C582 H614 0.929 . S
C583 C584 1.358 . S
C583 C585 1.359 1_556 S
C583 H615 0.930 . S
C584 N581 1.279 . S
C584 C583 1.358 . S
C584 H587 0.930 . S
C585 C582 1.345 . S
C585 C583 1.359 1_554 S
H586 C580 0.930 . S
H587 C584 0.930 . S
O588 Li528 1.935 1_556 S
O588 Li529 1.969 1_556 S
O588 Li530 1.981 . S
O588 C532 1.324 . S
O589 Li528 1.970 . S
O589 Li529 1.956 . S
O589 Li531 1.938 1_554 S
O589 C538 1.325 . S
O590 Li528 1.961 . S
O590 Li530 1.956 1_554 S
O590 Li531 1.969 1_554 S
O590 C560 1.325 . S
O591 Li529 1.961 1_556 S
O591 Li530 1.970 . S
O591 Li531 1.978 . S
O591 C566 1.325 . S
H592 C534 0.929 . S
H593 C535 0.930 . S
H594 C536 0.930 . S
H595 C537 0.930 . S
H596 C539 0.930 . S
H597 C541 0.929 . S
H598 C542 0.930 . S
H599 C543 0.930 . S
H600 C546 0.930 . S
H601 C549 0.929 . S
H602 C554 0.929 . S
H603 C555 0.930 . S
H604 C562 0.929 . S
H605 C563 0.930 . S
H606 C564 0.930 . S
H607 C565 0.930 . S
H608 C567 0.929 . S
H609 C568 0.930 . S
H610 C569 0.930 . S
H611 C570 0.930 . S
H612 C574 0.929 . S
H613 C576 0.930 . S
H614 C582 0.929 . S
H615 C583 0.930 . S
Li616 N633 1.990 . S
Li616 O676 1.935 1_554 S
Li616 O677 1.970 . S
Li616 O678 1.961 . S
Li617 N641 1.990 . S
Li617 O676 1.969 1_554 S
Li617 O677 1.956 . S
Li617 O679 1.961 1_554 S
Li618 N663 1.990 . S
Li618 O676 1.981 . S
Li618 O678 1.956 1_556 S
Li618 O679 1.970 . S
Li619 N669 1.991 . S
Li619 O677 1.938 1_556 S
Li619 O678 1.969 1_556 S
Li619 O679 1.978 . S
C620 C622 1.349 1_556 S
C620 C623 1.355 . S
C620 O676 1.324 . S
N621 C624 1.314 . S
N621 C625 1.279 1_554 S
C622 C620 1.349 1_554 S
C622 C624 1.353 . S
C622 H680 0.929 . S
C623 C620 1.355 . S
C623 C625 1.358 . S
C623 H681 0.930 . S
C624 N621 1.314 . S
C624 C622 1.353 . S
C624 H682 0.930 . S
C625 N621 1.279 1_556 S
C625 C623 1.358 . S
C625 H683 0.930 . S
C626 C629 1.348 . S
C626 C630 1.356 . S
C626 O677 1.325 . S
C627 N628 1.279 . S
C627 C630 1.358 . S
C627 H684 0.930 . S
N628 C627 1.279 . S
N628 C631 1.314 . S
C629 C626 1.348 . S
C629 C631 1.353 . S
C629 H685 0.929 . S
C630 C626 1.356 . S
C630 C627 1.358 . S
C630 H686 0.930 . S
C631 N628 1.314 . S
C631 C629 1.353 . S
C631 H687 0.930 . S
C632 N633 1.314 . S
C632 C637 1.353 . S
C632 H638 0.930 . S
N633 Li616 1.990 . S
N633 C632 1.314 . S
N633 C635 1.279 . S
C634 C635 1.358 . S
C634 C636 1.356 . S
C634 H688 0.930 . S
C635 N633 1.279 . S
C635 C634 1.358 . S
C635 H639 0.930 . S
C636 C634 1.356 . S
C636 C637 1.348 . S
C637 C632 1.353 . S
C637 C636 1.348 . S
C637 H689 0.929 . S
H638 C632 0.930 . S
H639 C635 0.930 . S
C640 N641 1.314 1_556 S
C640 C642 1.353 . S
C640 H646 0.930 . S
N641 Li617 1.990 . S
N641 C640 1.314 1_554 S
N641 C644 1.279 . S
C642 C640 1.353 . S
C642 C645 1.345 1_556 S
C642 H690 0.929 . S
C643 C644 1.358 . S
C643 C645 1.359 . S
C643 H691 0.930 . S
C644 N641 1.279 . S
C644 C643 1.358 . S
C644 H647 0.930 . S
C645 C642 1.345 1_554 S
C645 C643 1.359 . S
H646 C640 0.930 . S
H647 C644 0.930 . S
C648 C650 1.346 1_554 S
C648 C651 1.357 . S
C648 O678 1.325 . S
N649 C652 1.314 . S
N649 C653 1.279 1_556 S
C650 C648 1.346 1_556 S
C650 C652 1.353 . S
C650 H692 0.929 . S
C651 C648 1.357 . S
C651 C653 1.358 . S
C651 H693 0.930 . S
C652 N649 1.314 . S
C652 C650 1.353 . S
C652 H694 0.930 . S
C653 N649 1.279 1_554 S
C653 C651 1.358 . S
C653 H695 0.930 . S
C654 C655 1.348 . S
C654 C656 1.356 . S
C654 O679 1.325 . S
C655 C654 1.348 . S
C655 C657 1.353 . S
C655 H696 0.929 . S
C656 C654 1.356 . S
C656 C658 1.358 . S
C656 H697 0.930 . S
C657 C655 1.353 . S
C657 N659 1.314 . S
C657 H698 0.930 . S
C658 C656 1.358 . S
C658 N659 1.279 . S
C658 H699 0.930 . S
N659 C657 1.314 . S
N659 C658 1.279 . S
C660 C662 1.353 . S
C660 N663 1.314 . S
C660 H666 0.930 . S
C661 N663 1.279 . S
C661 C664 1.358 . S
C661 H667 0.930 . S
C662 C660 1.353 . S
C662 C665 1.348 . S
C662 H700 0.929 . S
N663 Li618 1.990 . S
N663 C660 1.314 . S
N663 C661 1.279 . S
C664 C661 1.358 . S
C664 C665 1.356 . S
C664 H701 0.930 . S
C665 C662 1.348 . S
C665 C664 1.356 . S
H666 C660 0.930 . S
H667 C661 0.930 . S
C668 N669 1.314 1_554 S
C668 C670 1.353 . S
C668 H674 0.930 . S
N669 Li619 1.991 . S
N669 C668 1.314 1_556 S
N669 C672 1.279 . S
C670 C668 1.353 . S
C670 C673 1.345 . S
C670 H702 0.929 . S
C671 C672 1.358 . S
C671 C673 1.359 1_556 S
C671 H703 0.930 . S
C672 N669 1.279 . S
C672 C671 1.358 . S
C672 H675 0.930 . S
C673 C670 1.345 . S
C673 C671 1.359 1_554 S
H674 C668 0.930 . S
H675 C672 0.930 . S
O676 Li616 1.935 1_556 S
O676 Li617 1.969 1_556 S
O676 Li618 1.981 . S
O676 C620 1.324 . S
O677 Li616 1.970 . S
O677 Li617 1.956 . S
O677 Li619 1.938 1_554 S
O677 C626 1.325 . S
O678 Li616 1.961 . S
O678 Li618 1.956 1_554 S
O678 Li619 1.969 1_554 S
O678 C648 1.325 . S
O679 Li617 1.961 1_556 S
O679 Li618 1.970 . S
O679 Li619 1.978 . S
O679 C654 1.325 . S
H680 C622 0.929 . S
H681 C623 0.930 . S
H682 C624 0.930 . S
H683 C625 0.930 . S
H684 C627 0.930 . S
H685 C629 0.929 . S
H686 C630 0.930 . S
H687 C631 0.930 . S
H688 C634 0.930 . S
H689 C637 0.929 . S
H690 C642 0.929 . S
H691 C643 0.930 . S
H692 C650 0.929 . S
H693 C651 0.930 . S
H694 C652 0.930 . S
H695 C653 0.930 . S
H696 C655 0.929 . S
H697 C656 0.930 . S
H698 C657 0.930 . S
H699 C658 0.930 . S
H700 C662 0.929 . S
H701 C664 0.930 . S
H702 C670 0.929 . S
H703 C671 0.930 . S
Li704 N721 1.990 . S
Li704 O764 1.956 . S
Li704 O765 1.970 . S
Li704 O766 1.961 . S
Li705 N729 1.990 . S
Li705 O764 1.970 . S
Li705 O765 1.956 . S
Li705 O767 1.961 . S
Li706 N751 1.990 . S
Li706 O764 1.961 . S
Li706 O766 1.956 . S
Li706 O767 1.970 . S
Li707 N757 1.990 . S
Li707 O765 1.961 . S
Li707 O766 1.970 . S
Li707 O767 1.956 . S
C708 C710 1.348 . S
C708 C711 1.356 . S
C708 O764 1.325 . S
N709 C712 1.314 . S
N709 C713 1.279 . S
C710 C708 1.348 . S
C710 C712 1.353 . S
C710 H768 0.929 . S
C711 C708 1.356 . S
C711 C713 1.358 . S
C711 H769 0.930 . S
C712 N709 1.314 . S
C712 C710 1.353 . S
C712 H770 0.930 . S
C713 N709 1.279 . S
C713 C711 1.358 . S
C713 H771 0.930 . S
C714 C717 1.348 . S
C714 C718 1.356 . S
C714 O765 1.325 . S
C715 N716 1.279 . S
C715 C718 1.358 . S
C715 H772 0.930 . S
N716 C715 1.279 . S
N716 C719 1.314 . S
C717 C714 1.348 . S
C717 C719 1.353 . S
C717 H773 0.929 . S
C718 C714 1.356 . S
C718 C715 1.358 . S
C718 H774 0.930 . S
C719 N716 1.314 . S
C719 C717 1.353 . S
C719 H775 0.930 . S
C720 N721 1.314 . S
C720 C725 1.353 . S
C720 H726 0.930 . S
N721 Li704 1.990 . S
N721 C720 1.314 . S
N721 C723 1.279 . S
C722 C723 1.358 . S
C722 C724 1.356 . S
C722 H776 0.930 . S
C723 N721 1.279 . S
C723 C722 1.358 . S
C723 H727 0.930 . S
C724 C722 1.356 . S
C724 C725 1.348 . S
C725 C720 1.353 . S
C725 C724 1.348 . S
C725 H777 0.929 . S
H726 C720 0.930 . S
H727 C723 0.930 . S
C728 N729 1.314 . S
C728 C730 1.353 . S
C728 H734 0.930 . S
N729 Li705 1.990 . S
N729 C728 1.314 . S
N729 C732 1.279 . S
C730 C728 1.353 . S
C730 C733 1.348 . S
C730 H778 0.929 . S
C731 C732 1.358 . S
C731 C733 1.356 . S
C731 H779 0.930 . S
C732 N729 1.279 . S
C732 C731 1.358 . S
C732 H735 0.930 . S
C733 C730 1.348 . S
C733 C731 1.356 . S
H734 C728 0.930 . S
H735 C732 0.930 . S
C736 C738 1.348 . S
C736 C739 1.356 . S
C736 O766 1.325 . S
N737 C740 1.314 . S
N737 C741 1.279 . S
C738 C736 1.348 . S
C738 C740 1.353 . S
C738 H780 0.929 . S
C739 C736 1.356 . S
C739 C741 1.358 . S
C739 H781 0.930 . S
C740 N737 1.314 . S
C740 C738 1.353 . S
C740 H782 0.930 . S
C741 N737 1.279 . S
C741 C739 1.358 . S
C741 H783 0.930 . S
C742 C743 1.348 . S
C742 C744 1.356 . S
C742 O767 1.325 . S
C743 C742 1.348 . S
C743 C745 1.353 . S
C743 H784 0.929 . S
C744 C742 1.356 . S
C744 C746 1.358 . S
C744 H785 0.930 . S
C745 C743 1.353 . S
C745 N747 1.314 . S
C745 H786 0.930 . S
C746 C744 1.358 . S
C746 N747 1.279 . S
C746 H787 0.930 . S
N747 C745 1.314 . S
N747 C746 1.279 . S
C748 C750 1.353 . S
C748 N751 1.314 . S
C748 H754 0.930 . S
C749 N751 1.279 . S
C749 C752 1.358 . S
C749 H755 0.930 . S
C750 C748 1.353 . S
C750 C753 1.348 . S
C750 H788 0.929 . S
N751 Li706 1.990 . S
N751 C748 1.314 . S
N751 C749 1.279 . S
C752 C749 1.358 . S
C752 C753 1.356 . S
C752 H789 0.930 . S
C753 C750 1.348 . S
C753 C752 1.356 . S
H754 C748 0.930 . S
H755 C749 0.930 . S
C756 N757 1.314 . S
C756 C758 1.353 . S
C756 H762 0.930 . S
N757 Li707 1.990 . S
N757 C756 1.314 . S
N757 C760 1.279 . S
C758 C756 1.353 . S
C758 C761 1.348 . S
C758 H790 0.929 . S
C759 C760 1.358 . S
C759 C761 1.356 . S
C759 H791 0.930 . S
C760 N757 1.279 . S
C760 C759 1.358 . S
C760 H763 0.930 . S
C761 C758 1.348 . S
C761 C759 1.356 . S
H762 C756 0.930 . S
H763 C760 0.930 . S
O764 Li704 1.956 . S
O764 Li705 1.970 . S
O764 Li706 1.961 . S
O764 C708 1.325 . S
O765 Li704 1.970 . S
O765 Li705 1.956 . S
O765 Li707 1.961 . S
O765 C714 1.325 . S
O766 Li704 1.961 . S
O766 Li706 1.956 . S
O766 Li707 1.970 . S
O766 C736 1.325 . S
O767 Li705 1.961 . S
O767 Li706 1.970 . S
O767 Li707 1.956 . S
O767 C742 1.325 . S
H768 C710 0.929 . S
H769 C711 0.930 . S
H770 C712 0.930 . S
H771 C713 0.930 . S
H772 C715 0.930 . S
H773 C717 0.929 . S
H774 C718 0.930 . S
H775 C719 0.930 . S
H776 C722 0.930 . S
H777 C725 0.929 . S
H778 C730 0.929 . S
H779 C731 0.930 . S
H780 C738 0.929 . S
H781 C739 0.930 . S
H782 C740 0.930 . S
H783 C741 0.930 . S
H784 C743 0.929 . S
H785 C744 0.930 . S
H786 C745 0.930 . S
H787 C746 0.930 . S
H788 C750 0.929 . S
H789 C752 0.930 . S
H790 C758 0.929 . S
H791 C759 0.930 . S
Li792 N809 1.990 . S
Li792 O852 1.956 . S
Li792 O853 1.970 . S
Li792 O854 1.961 . S
Li793 N817 1.990 . S
Li793 O852 1.970 . S
Li793 O853 1.956 . S
Li793 O855 1.961 . S
Li794 N839 1.990 . S
Li794 O852 1.961 . S
Li794 O854 1.956 . S
Li794 O855 1.970 . S
Li795 N845 1.990 . S
Li795 O853 1.961 . S
Li795 O854 1.970 . S
Li795 O855 1.956 . S
C796 C798 1.348 . S
C796 C799 1.356 . S
C796 O852 1.325 . S
N797 C800 1.314 . S
N797 C801 1.279 . S
C798 C796 1.348 . S
C798 C800 1.353 . S
C798 H856 0.929 . S
C799 C796 1.356 . S
C799 C801 1.358 . S
C799 H857 0.930 . S
C800 N797 1.314 . S
C800 C798 1.353 . S
C800 H858 0.930 . S
C801 N797 1.279 . S
C801 C799 1.358 . S
C801 H859 0.930 . S
C802 C805 1.348 . S
C802 C806 1.356 . S
C802 O853 1.325 . S
C803 N804 1.279 . S
C803 C806 1.358 . S
C803 H860 0.930 . S
N804 C803 1.279 . S
N804 C807 1.314 . S
C805 C802 1.348 . S
C805 C807 1.353 . S
C805 H861 0.929 . S
C806 C802 1.356 . S
C806 C803 1.358 . S
C806 H862 0.930 . S
C807 N804 1.314 . S
C807 C805 1.353 . S
C807 H863 0.930 . S
C808 N809 1.314 . S
C808 C813 1.353 . S
C808 H814 0.930 . S
N809 Li792 1.990 . S
N809 C808 1.314 . S
N809 C811 1.279 . S
C810 C811 1.358 . S
C810 C812 1.356 . S
C810 H864 0.930 . S
C811 N809 1.279 . S
C811 C810 1.358 . S
C811 H815 0.930 . S
C812 C810 1.356 . S
C812 C813 1.348 . S
C813 C808 1.353 . S
C813 C812 1.348 . S
C813 H865 0.929 . S
H814 C808 0.930 . S
H815 C811 0.930 . S
C816 N817 1.314 . S
C816 C818 1.353 . S
C816 H822 0.930 . S
N817 Li793 1.990 . S
N817 C816 1.314 . S
N817 C820 1.279 . S
C818 C816 1.353 . S
C818 C821 1.348 . S
C818 H866 0.929 . S
C819 C820 1.358 . S
C819 C821 1.356 . S
C819 H867 0.930 . S
C820 N817 1.279 . S
C820 C819 1.358 . S
C820 H823 0.930 . S
C821 C818 1.348 . S
C821 C819 1.356 . S
H822 C816 0.930 . S
H823 C820 0.930 . S
C824 C826 1.348 . S
C824 C827 1.356 . S
C824 O854 1.325 . S
N825 C828 1.314 . S
N825 C829 1.279 . S
C826 C824 1.348 . S
C826 C828 1.353 . S
C826 H868 0.929 . S
C827 C824 1.356 . S
C827 C829 1.358 . S
C827 H869 0.930 . S
C828 N825 1.314 . S
C828 C826 1.353 . S
C828 H870 0.930 . S
C829 N825 1.279 . S
C829 C827 1.358 . S
C829 H871 0.930 . S
C830 C831 1.348 . S
C830 C832 1.356 . S
C830 O855 1.325 . S
C831 C830 1.348 . S
C831 C833 1.353 . S
C831 H872 0.929 . S
C832 C830 1.356 . S
C832 C834 1.358 . S
C832 H873 0.930 . S
C833 C831 1.353 . S
C833 N835 1.314 . S
C833 H874 0.930 . S
C834 C832 1.358 . S
C834 N835 1.279 . S
C834 H875 0.930 . S
N835 C833 1.314 . S
N835 C834 1.279 . S
C836 C838 1.353 . S
C836 N839 1.314 . S
C836 H842 0.930 . S
C837 N839 1.279 . S
C837 C840 1.358 . S
C837 H843 0.930 . S
C838 C836 1.353 . S
C838 C841 1.348 . S
C838 H876 0.929 . S
N839 Li794 1.990 . S
N839 C836 1.314 . S
N839 C837 1.279 . S
C840 C837 1.358 . S
C840 C841 1.356 . S
C840 H877 0.930 . S
C841 C838 1.348 . S
C841 C840 1.356 . S
H842 C836 0.930 . S
H843 C837 0.930 . S
C844 N845 1.314 . S
C844 C846 1.353 . S
C844 H850 0.930 . S
N845 Li795 1.990 . S
N845 C844 1.314 . S
N845 C848 1.279 . S
C846 C844 1.353 . S
C846 C849 1.348 . S
C846 H878 0.929 . S
C847 C848 1.358 . S
C847 C849 1.356 . S
C847 H879 0.930 . S
C848 N845 1.279 . S
C848 C847 1.358 . S
C848 H851 0.930 . S
C849 C846 1.348 . S
C849 C847 1.356 . S
H850 C844 0.930 . S
H851 C848 0.930 . S
O852 Li792 1.956 . S
O852 Li793 1.970 . S
O852 Li794 1.961 . S
O852 C796 1.325 . S
O853 Li792 1.970 . S
O853 Li793 1.956 . S
O853 Li795 1.961 . S
O853 C802 1.325 . S
O854 Li792 1.961 . S
O854 Li794 1.956 . S
O854 Li795 1.970 . S
O854 C824 1.325 . S
O855 Li793 1.961 . S
O855 Li794 1.970 . S
O855 Li795 1.956 . S
O855 C830 1.325 . S
H856 C798 0.929 . S
H857 C799 0.930 . S
H858 C800 0.930 . S
H859 C801 0.930 . S
H860 C803 0.930 . S
H861 C805 0.929 . S
H862 C806 0.930 . S
H863 C807 0.930 . S
H864 C810 0.930 . S
H865 C813 0.929 . S
H866 C818 0.929 . S
H867 C819 0.930 . S
H868 C826 0.929 . S
H869 C827 0.930 . S
H870 C828 0.930 . S
H871 C829 0.930 . S
H872 C831 0.929 . S
H873 C832 0.930 . S
H874 C833 0.930 . S
H875 C834 0.930 . S
H876 C838 0.929 . S
H877 C840 0.930 . S
H878 C846 0.929 . S
H879 C847 0.930 . S
Li880 N897 1.990 . S
Li880 O940 1.956 . S
Li880 O941 1.970 . S
Li880 O942 1.961 . S
Li881 N905 1.990 . S
Li881 O940 1.970 . S
Li881 O941 1.956 . S
Li881 O943 1.961 . S
Li882 N927 1.990 . S
Li882 O940 1.961 . S
Li882 O942 1.956 . S
Li882 O943 1.970 . S
Li883 N933 1.990 . S
Li883 O941 1.961 . S
Li883 O942 1.970 . S
Li883 O943 1.956 . S
C884 C886 1.348 . S
C884 C887 1.356 . S
C884 O940 1.325 . S
N885 C888 1.314 . S
N885 C889 1.279 . S
C886 C884 1.348 . S
C886 C888 1.353 . S
C886 H944 0.929 . S
C887 C884 1.356 . S
C887 C889 1.358 . S
C887 H945 0.930 . S
C888 N885 1.314 . S
C888 C886 1.353 . S
C888 H946 0.930 . S
C889 N885 1.279 . S
C889 C887 1.358 . S
C889 H947 0.930 . S
C890 C893 1.348 . S
C890 C894 1.356 . S
C890 O941 1.325 . S
C891 N892 1.279 . S
C891 C894 1.358 . S
C891 H948 0.930 . S
N892 C891 1.279 . S
N892 C895 1.314 . S
C893 C890 1.348 . S
C893 C895 1.353 . S
C893 H949 0.929 . S
C894 C890 1.356 . S
C894 C891 1.358 . S
C894 H950 0.930 . S
C895 N892 1.314 . S
C895 C893 1.353 . S
C895 H951 0.930 . S
C896 N897 1.314 . S
C896 C901 1.353 . S
C896 H902 0.930 . S
N897 Li880 1.990 . S
N897 C896 1.314 . S
N897 C899 1.279 . S
C898 C899 1.358 . S
C898 C900 1.356 . S
C898 H952 0.930 . S
C899 N897 1.279 . S
C899 C898 1.358 . S
C899 H903 0.930 . S
C900 C898 1.356 . S
C900 C901 1.348 . S
C901 C896 1.353 . S
C901 C900 1.348 . S
C901 H953 0.929 . S
H902 C896 0.930 . S
H903 C899 0.930 . S
C904 N905 1.314 . S
C904 C906 1.353 . S
C904 H910 0.930 . S
N905 Li881 1.990 . S
N905 C904 1.314 . S
N905 C908 1.279 . S
C906 C904 1.353 . S
C906 C909 1.348 . S
C906 H954 0.929 . S
C907 C908 1.358 . S
C907 C909 1.356 . S
C907 H955 0.930 . S
C908 N905 1.279 . S
C908 C907 1.358 . S
C908 H911 0.930 . S
C909 C906 1.348 . S
C909 C907 1.356 . S
H910 C904 0.930 . S
H911 C908 0.930 . S
C912 C914 1.348 . S
C912 C915 1.356 . S
C912 O942 1.325 . S
N913 C916 1.314 . S
N913 C917 1.279 . S
C914 C912 1.348 . S
C914 C916 1.353 . S
C914 H956 0.929 . S
C915 C912 1.356 . S
C915 C917 1.358 . S
C915 H957 0.930 . S
C916 N913 1.314 . S
C916 C914 1.353 . S
C916 H958 0.930 . S
C917 N913 1.279 . S
C917 C915 1.358 . S
C917 H959 0.930 . S
C918 C919 1.348 . S
C918 C920 1.356 . S
C918 O943 1.325 . S
C919 C918 1.348 . S
C919 C921 1.353 . S
C919 H960 0.929 . S
C920 C918 1.356 . S
C920 C922 1.358 . S
C920 H961 0.930 . S
C921 C919 1.353 . S
C921 N923 1.314 . S
C921 H962 0.930 . S
C922 C920 1.358 . S
C922 N923 1.279 . S
C922 H963 0.930 . S
N923 C921 1.314 . S
N923 C922 1.279 . S
C924 C926 1.353 . S
C924 N927 1.314 . S
C924 H930 0.930 . S
C925 N927 1.279 . S
C925 C928 1.358 . S
C925 H931 0.930 . S
C926 C924 1.353 . S
C926 C929 1.348 . S
C926 H964 0.929 . S
N927 Li882 1.990 . S
N927 C924 1.314 . S
N927 C925 1.279 . S
C928 C925 1.358 . S
C928 C929 1.356 . S
C928 H965 0.930 . S
C929 C926 1.348 . S
C929 C928 1.356 . S
H930 C924 0.930 . S
H931 C925 0.930 . S
C932 N933 1.314 . S
C932 C934 1.353 . S
C932 H938 0.930 . S
N933 Li883 1.990 . S
N933 C932 1.314 . S
N933 C936 1.279 . S
C934 C932 1.353 . S
C934 C937 1.348 . S
C934 H966 0.929 . S
C935 C936 1.358 . S
C935 C937 1.356 . S
C935 H967 0.930 . S
C936 N933 1.279 . S
C936 C935 1.358 . S
C936 H939 0.930 . S
C937 C934 1.348 . S
C937 C935 1.356 . S
H938 C932 0.930 . S
H939 C936 0.930 . S
O940 Li880 1.956 . S
O940 Li881 1.970 . S
O940 Li882 1.961 . S
O940 C884 1.325 . S
O941 Li880 1.970 . S
O941 Li881 1.956 . S
O941 Li883 1.961 . S
O941 C890 1.325 . S
O942 Li880 1.961 . S
O942 Li882 1.956 . S
O942 Li883 1.970 . S
O942 C912 1.325 . S
O943 Li881 1.961 . S
O943 Li882 1.970 . S
O943 Li883 1.956 . S
O943 C918 1.325 . S
H944 C886 0.929 . S
H945 C887 0.930 . S
H946 C888 0.930 . S
H947 C889 0.930 . S
H948 C891 0.930 . S
H949 C893 0.929 . S
H950 C894 0.930 . S
H951 C895 0.930 . S
H952 C898 0.930 . S
H953 C901 0.929 . S
H954 C906 0.929 . S
H955 C907 0.930 . S
H956 C914 0.929 . S
H957 C915 0.930 . S
H958 C916 0.930 . S
H959 C917 0.930 . S
H960 C919 0.929 . S
H961 C920 0.930 . S
H962 C921 0.930 . S
H963 C922 0.930 . S
H964 C926 0.929 . S
H965 C928 0.930 . S
H966 C934 0.929 . S
H967 C935 0.930 . S
Li968 N985 1.990 . S
Li968 O1028 1.956 . S
Li968 O1029 1.970 . S
Li968 O1030 1.961 . S
Li969 N993 1.990 . S
Li969 O1028 1.970 . S
Li969 O1029 1.956 . S
Li969 O1031 1.961 . S
Li970 N1015 1.990 . S
Li970 O1028 1.961 . S
Li970 O1030 1.956 . S
Li970 O1031 1.970 . S
Li971 N1021 1.990 . S
Li971 O1029 1.961 . S
Li971 O1030 1.970 . S
Li971 O1031 1.956 . S
C972 C974 1.348 . S
C972 C975 1.356 . S
C972 O1028 1.325 . S
N973 C976 1.314 . S
N973 C977 1.279 . S
C974 C972 1.348 . S
C974 C976 1.353 . S
C974 H1032 0.929 . S
C975 C972 1.356 . S
C975 C977 1.358 . S
C975 H1033 0.930 . S
C976 N973 1.314 . S
C976 C974 1.353 . S
C976 H1034 0.930 . S
C977 N973 1.279 . S
C977 C975 1.358 . S
C977 H1035 0.930 . S
C978 C981 1.348 . S
C978 C982 1.356 . S
C978 O1029 1.325 . S
C979 N980 1.279 . S
C979 C982 1.358 . S
C979 H1036 0.930 . S
N980 C979 1.279 . S
N980 C983 1.314 . S
C981 C978 1.348 . S
C981 C983 1.353 . S
C981 H1037 0.929 . S
C982 C978 1.356 . S
C982 C979 1.358 . S
C982 H1038 0.930 . S
C983 N980 1.314 . S
C983 C981 1.353 . S
C983 H1039 0.930 . S
C984 N985 1.314 . S
C984 C989 1.353 . S
C984 H990 0.930 . S
N985 Li968 1.990 . S
N985 C984 1.314 . S
N985 C987 1.279 . S
C986 C987 1.358 . S
C986 C988 1.356 . S
C986 H1040 0.930 . S
C987 N985 1.279 . S
C987 C986 1.358 . S
C987 H991 0.930 . S
C988 C986 1.356 . S
C988 C989 1.348 . S
C989 C984 1.353 . S
C989 C988 1.348 . S
C989 H1041 0.929 . S
H990 C984 0.930 . S
H991 C987 0.930 . S
C992 N993 1.314 . S
C992 C994 1.353 . S
C992 H998 0.930 . S
N993 Li969 1.990 . S
N993 C992 1.314 . S
N993 C996 1.279 . S
C994 C992 1.353 . S
C994 C997 1.348 . S
C994 H1042 0.929 . S
C995 C996 1.358 . S
C995 C997 1.356 . S
C995 H1043 0.930 . S
C996 N993 1.279 . S
C996 C995 1.358 . S
C996 H999 0.930 . S
C997 C994 1.348 . S
C997 C995 1.356 . S
H998 C992 0.930 . S
H999 C996 0.930 . S
C1000 C1002 1.348 . S
C1000 C1003 1.356 . S
C1000 O1030 1.325 . S
N1001 C1004 1.314 . S
N1001 C1005 1.279 . S
C1002 C1000 1.348 . S
C1002 C1004 1.353 . S
C1002 H1044 0.929 . S
C1003 C1000 1.356 . S
C1003 C1005 1.358 . S
C1003 H1045 0.930 . S
C1004 N1001 1.314 . S
C1004 C1002 1.353 . S
C1004 H1046 0.930 . S
C1005 N1001 1.279 . S
C1005 C1003 1.358 . S
C1005 H1047 0.930 . S
C1006 C1007 1.348 . S
C1006 C1008 1.356 . S
C1006 O1031 1.325 . S
C1007 C1006 1.348 . S
C1007 C1009 1.353 . S
C1007 H1048 0.929 . S
C1008 C1006 1.356 . S
C1008 C1010 1.358 . S
C1008 H1049 0.930 . S
C1009 C1007 1.353 . S
C1009 N1011 1.314 . S
C1009 H1050 0.930 . S
C1010 C1008 1.358 . S
C1010 N1011 1.279 . S
C1010 H1051 0.930 . S
N1011 C1009 1.314 . S
N1011 C1010 1.279 . S
C1012 C1014 1.353 . S
C1012 N1015 1.314 . S
C1012 H1018 0.930 . S
C1013 N1015 1.279 . S
C1013 C1016 1.358 . S
C1013 H1019 0.930 . S
C1014 C1012 1.353 . S
C1014 C1017 1.348 . S
C1014 H1052 0.929 . S
N1015 Li970 1.990 . S
N1015 C1012 1.314 . S
N1015 C1013 1.279 . S
C1016 C1013 1.358 . S
C1016 C1017 1.356 . S
C1016 H1053 0.930 . S
C1017 C1014 1.348 . S
C1017 C1016 1.356 . S
H1018 C1012 0.930 . S
H1019 C1013 0.930 . S
C1020 N1021 1.314 . S
C1020 C1022 1.353 . S
C1020 H1026 0.930 . S
N1021 Li971 1.990 . S
N1021 C1020 1.314 . S
N1021 C1024 1.279 . S
C1022 C1020 1.353 . S
C1022 C1025 1.348 . S
C1022 H1054 0.929 . S
C1023 C1024 1.358 . S
C1023 C1025 1.356 . S
C1023 H1055 0.930 . S
C1024 N1021 1.279 . S
C1024 C1023 1.358 . S
C1024 H1027 0.930 . S
C1025 C1022 1.348 . S
C1025 C1023 1.356 . S
H1026 C1020 0.930 . S
H1027 C1024 0.930 . S
O1028 Li968 1.956 . S
O1028 Li969 1.970 . S
O1028 Li970 1.961 . S
O1028 C972 1.325 . S
O1029 Li968 1.970 . S
O1029 Li969 1.956 . S
O1029 Li971 1.961 . S
O1029 C978 1.325 . S
O1030 Li968 1.961 . S
O1030 Li970 1.956 . S
O1030 Li971 1.970 . S
O1030 C1000 1.325 . S
O1031 Li969 1.961 . S
O1031 Li970 1.970 . S
O1031 Li971 1.956 . S
O1031 C1006 1.325 . S
H1032 C974 0.929 . S
H1033 C975 0.930 . S
H1034 C976 0.930 . S
H1035 C977 0.930 . S
H1036 C979 0.930 . S
H1037 C981 0.929 . S
H1038 C982 0.930 . S
H1039 C983 0.930 . S
H1040 C986 0.930 . S
H1041 C989 0.929 . S
H1042 C994 0.929 . S
H1043 C995 0.930 . S
H1044 C1002 0.929 . S
H1045 C1003 0.930 . S
H1046 C1004 0.930 . S
H1047 C1005 0.930 . S
H1048 C1007 0.929 . S
H1049 C1008 0.930 . S
H1050 C1009 0.930 . S
H1051 C1010 0.930 . S
H1052 C1014 0.929 . S
H1053 C1016 0.930 . S
H1054 C1022 0.929 . S
H1055 C1023 0.930 . S
Li1056 N1073 1.990 . S
Li1056 O1116 1.956 . S
Li1056 O1117 1.970 . S
Li1056 O1118 1.961 . S
Li1057 N1081 1.990 . S
Li1057 O1116 1.970 . S
Li1057 O1117 1.956 . S
Li1057 O1119 1.961 . S
Li1058 N1103 1.990 . S
Li1058 O1116 1.961 . S
Li1058 O1118 1.956 . S
Li1058 O1119 1.970 . S
Li1059 N1109 1.990 . S
Li1059 O1117 1.961 . S
Li1059 O1118 1.970 . S
Li1059 O1119 1.956 . S
C1060 C1062 1.348 . S
C1060 C1063 1.356 . S
C1060 O1116 1.325 . S
N1061 C1064 1.314 . S
N1061 C1065 1.279 . S
C1062 C1060 1.348 . S
C1062 C1064 1.353 . S
C1062 H1120 0.929 . S
C1063 C1060 1.356 . S
C1063 C1065 1.358 . S
C1063 H1121 0.930 . S
C1064 N1061 1.314 . S
C1064 C1062 1.353 . S
C1064 H1122 0.930 . S
C1065 N1061 1.279 . S
C1065 C1063 1.358 . S
C1065 H1123 0.930 . S
C1066 C1069 1.348 . S
C1066 C1070 1.356 . S
C1066 O1117 1.325 . S
C1067 N1068 1.279 . S
C1067 C1070 1.358 . S
C1067 H1124 0.930 . S
N1068 C1067 1.279 . S
N1068 C1071 1.314 . S
C1069 C1066 1.348 . S
C1069 C1071 1.353 . S
C1069 H1125 0.929 . S
C1070 C1066 1.356 . S
C1070 C1067 1.358 . S
C1070 H1126 0.930 . S
C1071 N1068 1.314 . S
C1071 C1069 1.353 . S
C1071 H1127 0.930 . S
C1072 N1073 1.314 . S
C1072 C1077 1.353 . S
C1072 H1078 0.930 . S
N1073 Li1056 1.990 . S
N1073 C1072 1.314 . S
N1073 C1075 1.279 . S
C1074 C1075 1.358 . S
C1074 C1076 1.356 . S
C1074 H1128 0.930 . S
C1075 N1073 1.279 . S
C1075 C1074 1.358 . S
C1075 H1079 0.930 . S
C1076 C1074 1.356 . S
C1076 C1077 1.348 . S
C1077 C1072 1.353 . S
C1077 C1076 1.348 . S
C1077 H1129 0.929 . S
H1078 C1072 0.930 . S
H1079 C1075 0.930 . S
C1080 N1081 1.314 . S
C1080 C1082 1.353 . S
C1080 H1086 0.930 . S
N1081 Li1057 1.990 . S
N1081 C1080 1.314 . S
N1081 C1084 1.279 . S
C1082 C1080 1.353 . S
C1082 C1085 1.348 . S
C1082 H1130 0.929 . S
C1083 C1084 1.358 . S
C1083 C1085 1.356 . S
C1083 H1131 0.930 . S
C1084 N1081 1.279 . S
C1084 C1083 1.358 . S
C1084 H1087 0.930 . S
C1085 C1082 1.348 . S
C1085 C1083 1.356 . S
H1086 C1080 0.930 . S
H1087 C1084 0.930 . S
C1088 C1090 1.348 . S
C1088 C1091 1.356 . S
C1088 O1118 1.325 . S
N1089 C1092 1.314 . S
N1089 C1093 1.279 . S
C1090 C1088 1.348 . S
C1090 C1092 1.353 . S
C1090 H1132 0.929 . S
C1091 C1088 1.356 . S
C1091 C1093 1.358 . S
C1091 H1133 0.930 . S
C1092 N1089 1.314 . S
C1092 C1090 1.353 . S
C1092 H1134 0.930 . S
C1093 N1089 1.279 . S
C1093 C1091 1.358 . S
C1093 H1135 0.930 . S
C1094 C1095 1.348 . S
C1094 C1096 1.356 . S
C1094 O1119 1.325 . S
C1095 C1094 1.348 . S
C1095 C1097 1.353 . S
C1095 H1136 0.929 . S
C1096 C1094 1.356 . S
C1096 C1098 1.358 . S
C1096 H1137 0.930 . S
C1097 C1095 1.353 . S
C1097 N1099 1.314 . S
C1097 H1138 0.930 . S
C1098 C1096 1.358 . S
C1098 N1099 1.279 . S
C1098 H1139 0.930 . S
N1099 C1097 1.314 . S
N1099 C1098 1.279 . S
C1100 C1102 1.353 . S
C1100 N1103 1.314 . S
C1100 H1106 0.930 . S
C1101 N1103 1.279 . S
C1101 C1104 1.358 . S
C1101 H1107 0.930 . S
C1102 C1100 1.353 . S
C1102 C1105 1.348 . S
C1102 H1140 0.929 . S
N1103 Li1058 1.990 . S
N1103 C1100 1.314 . S
N1103 C1101 1.279 . S
C1104 C1101 1.358 . S
C1104 C1105 1.356 . S
C1104 H1141 0.930 . S
C1105 C1102 1.348 . S
C1105 C1104 1.356 . S
H1106 C1100 0.930 . S
H1107 C1101 0.930 . S
C1108 N1109 1.314 . S
C1108 C1110 1.353 . S
C1108 H1114 0.930 . S
N1109 Li1059 1.990 . S
N1109 C1108 1.314 . S
N1109 C1112 1.279 . S
C1110 C1108 1.353 . S
C1110 C1113 1.348 . S
C1110 H1142 0.929 . S
C1111 C1112 1.358 . S
C1111 C1113 1.356 . S
C1111 H1143 0.930 . S
C1112 N1109 1.279 . S
C1112 C1111 1.358 . S
C1112 H1115 0.930 . S
C1113 C1110 1.348 . S
C1113 C1111 1.356 . S
H1114 C1108 0.930 . S
H1115 C1112 0.930 . S
O1116 Li1056 1.956 . S
O1116 Li1057 1.970 . S
O1116 Li1058 1.961 . S
O1116 C1060 1.325 . S
O1117 Li1056 1.970 . S
O1117 Li1057 1.956 . S
O1117 Li1059 1.961 . S
O1117 C1066 1.325 . S
O1118 Li1056 1.961 . S
O1118 Li1058 1.956 . S
O1118 Li1059 1.970 . S
O1118 C1088 1.325 . S
O1119 Li1057 1.961 . S
O1119 Li1058 1.970 . S
O1119 Li1059 1.956 . S
O1119 C1094 1.325 . S
H1120 C1062 0.929 . S
H1121 C1063 0.930 . S
H1122 C1064 0.930 . S
H1123 C1065 0.930 . S
H1124 C1067 0.930 . S
H1125 C1069 0.929 . S
H1126 C1070 0.930 . S
H1127 C1071 0.930 . S
H1128 C1074 0.930 . S
H1129 C1077 0.929 . S
H1130 C1082 0.929 . S
H1131 C1083 0.930 . S
H1132 C1090 0.929 . S
H1133 C1091 0.930 . S
H1134 C1092 0.930 . S
H1135 C1093 0.930 . S
H1136 C1095 0.929 . S
H1137 C1096 0.930 . S
H1138 C1097 0.930 . S
H1139 C1098 0.930 . S
H1140 C1102 0.929 . S
H1141 C1104 0.930 . S
H1142 C1110 0.929 . S
H1143 C1111 0.930 . S
Li1144 N1161 1.990 . S
Li1144 O1204 1.956 . S
Li1144 O1205 1.970 . S
Li1144 O1206 1.961 . S
Li1145 N1169 1.990 . S
Li1145 O1204 1.970 . S
Li1145 O1205 1.956 . S
Li1145 O1207 1.961 . S
Li1146 N1191 1.990 . S
Li1146 O1204 1.961 . S
Li1146 O1206 1.956 . S
Li1146 O1207 1.970 . S
Li1147 N1197 1.990 . S
Li1147 O1205 1.961 . S
Li1147 O1206 1.970 . S
Li1147 O1207 1.956 . S
C1148 C1150 1.348 . S
C1148 C1151 1.356 . S
C1148 O1204 1.325 . S
N1149 C1152 1.314 . S
N1149 C1153 1.279 . S
C1150 C1148 1.348 . S
C1150 C1152 1.353 . S
C1150 H1208 0.929 . S
C1151 C1148 1.356 . S
C1151 C1153 1.358 . S
C1151 H1209 0.930 . S
C1152 N1149 1.314 . S
C1152 C1150 1.353 . S
C1152 H1210 0.930 . S
C1153 N1149 1.279 . S
C1153 C1151 1.358 . S
C1153 H1211 0.930 . S
C1154 C1157 1.348 . S
C1154 C1158 1.356 . S
C1154 O1205 1.325 . S
C1155 N1156 1.279 . S
C1155 C1158 1.358 . S
C1155 H1212 0.930 . S
N1156 C1155 1.279 . S
N1156 C1159 1.314 . S
C1157 C1154 1.348 . S
C1157 C1159 1.353 . S
C1157 H1213 0.929 . S
C1158 C1154 1.356 . S
C1158 C1155 1.358 . S
C1158 H1214 0.930 . S
C1159 N1156 1.314 . S
C1159 C1157 1.353 . S
C1159 H1215 0.930 . S
C1160 N1161 1.314 . S
C1160 C1165 1.353 . S
C1160 H1166 0.930 . S
N1161 Li1144 1.990 . S
N1161 C1160 1.314 . S
N1161 C1163 1.279 . S
C1162 C1163 1.358 . S
C1162 C1164 1.356 . S
C1162 H1216 0.930 . S
C1163 N1161 1.279 . S
C1163 C1162 1.358 . S
C1163 H1167 0.930 . S
C1164 C1162 1.356 . S
C1164 C1165 1.348 . S
C1165 C1160 1.353 . S
C1165 C1164 1.348 . S
C1165 H1217 0.929 . S
H1166 C1160 0.930 . S
H1167 C1163 0.930 . S
C1168 N1169 1.314 . S
C1168 C1170 1.353 . S
C1168 H1174 0.930 . S
N1169 Li1145 1.990 . S
N1169 C1168 1.314 . S
N1169 C1172 1.279 . S
C1170 C1168 1.353 . S
C1170 C1173 1.348 . S
C1170 H1218 0.929 . S
C1171 C1172 1.358 . S
C1171 C1173 1.356 . S
C1171 H1219 0.930 . S
C1172 N1169 1.279 . S
C1172 C1171 1.358 . S
C1172 H1175 0.930 . S
C1173 C1170 1.348 . S
C1173 C1171 1.356 . S
H1174 C1168 0.930 . S
H1175 C1172 0.930 . S
C1176 C1178 1.348 . S
C1176 C1179 1.356 . S
C1176 O1206 1.325 . S
N1177 C1180 1.314 . S
N1177 C1181 1.279 . S
C1178 C1176 1.348 . S
C1178 C1180 1.353 . S
C1178 H1220 0.929 . S
C1179 C1176 1.356 . S
C1179 C1181 1.358 . S
C1179 H1221 0.930 . S
C1180 N1177 1.314 . S
C1180 C1178 1.353 . S
C1180 H1222 0.930 . S
C1181 N1177 1.279 . S
C1181 C1179 1.358 . S
C1181 H1223 0.930 . S
C1182 C1183 1.348 . S
C1182 C1184 1.356 . S
C1182 O1207 1.325 . S
C1183 C1182 1.348 . S
C1183 C1185 1.353 . S
C1183 H1224 0.929 . S
C1184 C1182 1.356 . S
C1184 C1186 1.358 . S
C1184 H1225 0.930 . S
C1185 C1183 1.353 . S
C1185 N1187 1.314 . S
C1185 H1226 0.930 . S
C1186 C1184 1.358 . S
C1186 N1187 1.279 . S
C1186 H1227 0.930 . S
N1187 C1185 1.314 . S
N1187 C1186 1.279 . S
C1188 C1190 1.353 . S
C1188 N1191 1.314 . S
C1188 H1194 0.930 . S
C1189 N1191 1.279 . S
C1189 C1192 1.358 . S
C1189 H1195 0.930 . S
C1190 C1188 1.353 . S
C1190 C1193 1.348 . S
C1190 H1228 0.929 . S
N1191 Li1146 1.990 . S
N1191 C1188 1.314 . S
N1191 C1189 1.279 . S
C1192 C1189 1.358 . S
C1192 C1193 1.356 . S
C1192 H1229 0.930 . S
C1193 C1190 1.348 . S
C1193 C1192 1.356 . S
H1194 C1188 0.930 . S
H1195 C1189 0.930 . S
C1196 N1197 1.314 . S
C1196 C1198 1.353 . S
C1196 H1202 0.930 . S
N1197 Li1147 1.990 . S
N1197 C1196 1.314 . S
N1197 C1200 1.279 . S
C1198 C1196 1.353 . S
C1198 C1201 1.348 . S
C1198 H1230 0.929 . S
C1199 C1200 1.358 . S
C1199 C1201 1.356 . S
C1199 H1231 0.930 . S
C1200 N1197 1.279 . S
C1200 C1199 1.358 . S
C1200 H1203 0.930 . S
C1201 C1198 1.348 . S
C1201 C1199 1.356 . S
H1202 C1196 0.930 . S
H1203 C1200 0.930 . S
O1204 Li1144 1.956 . S
O1204 Li1145 1.970 . S
O1204 Li1146 1.961 . S
O1204 C1148 1.325 . S
O1205 Li1144 1.970 . S
O1205 Li1145 1.956 . S
O1205 Li1147 1.961 . S
O1205 C1154 1.325 . S
O1206 Li1144 1.961 . S
O1206 Li1146 1.956 . S
O1206 Li1147 1.970 . S
O1206 C1176 1.325 . S
O1207 Li1145 1.961 . S
O1207 Li1146 1.970 . S
O1207 Li1147 1.956 . S
O1207 C1182 1.325 . S
H1208 C1150 0.929 . S
H1209 C1151 0.930 . S
H1210 C1152 0.930 . S
H1211 C1153 0.930 . S
H1212 C1155 0.930 . S
H1213 C1157 0.929 . S
H1214 C1158 0.930 . S
H1215 C1159 0.930 . S
H1216 C1162 0.930 . S
H1217 C1165 0.929 . S
H1218 C1170 0.929 . S
H1219 C1171 0.930 . S
H1220 C1178 0.929 . S
H1221 C1179 0.930 . S
H1222 C1180 0.930 . S
H1223 C1181 0.930 . S
H1224 C1183 0.929 . S
H1225 C1184 0.930 . S
H1226 C1185 0.930 . S
H1227 C1186 0.930 . S
H1228 C1190 0.929 . S
H1229 C1192 0.930 . S
H1230 C1198 0.929 . S
H1231 C1199 0.930 . S
Li1232 N1249 1.990 . S
Li1232 O1292 1.956 . S
Li1232 O1293 1.970 . S
Li1232 O1294 1.961 . S
Li1233 N1257 1.990 . S
Li1233 O1292 1.970 . S
Li1233 O1293 1.956 . S
Li1233 O1295 1.961 . S
Li1234 N1279 1.990 . S
Li1234 O1292 1.961 . S
Li1234 O1294 1.956 . S
Li1234 O1295 1.970 . S
Li1235 N1285 1.990 . S
Li1235 O1293 1.961 . S
Li1235 O1294 1.970 . S
Li1235 O1295 1.956 . S
C1236 C1238 1.348 . S
C1236 C1239 1.356 . S
C1236 O1292 1.325 . S
N1237 C1240 1.314 . S
N1237 C1241 1.279 . S
C1238 C1236 1.348 . S
C1238 C1240 1.353 . S
C1238 H1296 0.929 . S
C1239 C1236 1.356 . S
C1239 C1241 1.358 . S
C1239 H1297 0.930 . S
C1240 N1237 1.314 . S
C1240 C1238 1.353 . S
C1240 H1298 0.930 . S
C1241 N1237 1.279 . S
C1241 C1239 1.358 . S
C1241 H1299 0.930 . S
C1242 C1245 1.348 . S
C1242 C1246 1.356 . S
C1242 O1293 1.325 . S
C1243 N1244 1.279 . S
C1243 C1246 1.358 . S
C1243 H1300 0.930 . S
N1244 C1243 1.279 . S
N1244 C1247 1.314 . S
C1245 C1242 1.348 . S
C1245 C1247 1.353 . S
C1245 H1301 0.929 . S
C1246 C1242 1.356 . S
C1246 C1243 1.358 . S
C1246 H1302 0.930 . S
C1247 N1244 1.314 . S
C1247 C1245 1.353 . S
C1247 H1303 0.930 . S
C1248 N1249 1.314 . S
C1248 C1253 1.353 . S
C1248 H1254 0.930 . S
N1249 Li1232 1.990 . S
N1249 C1248 1.314 . S
N1249 C1251 1.279 . S
C1250 C1251 1.358 . S
C1250 C1252 1.356 . S
C1250 H1304 0.930 . S
C1251 N1249 1.279 . S
C1251 C1250 1.358 . S
C1251 H1255 0.930 . S
C1252 C1250 1.356 . S
C1252 C1253 1.348 . S
C1253 C1248 1.353 . S
C1253 C1252 1.348 . S
C1253 H1305 0.929 . S
H1254 C1248 0.930 . S
H1255 C1251 0.930 . S
C1256 N1257 1.314 . S
C1256 C1258 1.353 . S
C1256 H1262 0.930 . S
N1257 Li1233 1.990 . S
N1257 C1256 1.314 . S
N1257 C1260 1.279 . S
C1258 C1256 1.353 . S
C1258 C1261 1.348 . S
C1258 H1306 0.929 . S
C1259 C1260 1.358 . S
C1259 C1261 1.356 . S
C1259 H1307 0.930 . S
C1260 N1257 1.279 . S
C1260 C1259 1.358 . S
C1260 H1263 0.930 . S
C1261 C1258 1.348 . S
C1261 C1259 1.356 . S
H1262 C1256 0.930 . S
H1263 C1260 0.930 . S
C1264 C1266 1.348 . S
C1264 C1267 1.356 . S
C1264 O1294 1.325 . S
N1265 C1268 1.314 . S
N1265 C1269 1.279 . S
C1266 C1264 1.348 . S
C1266 C1268 1.353 . S
C1266 H1308 0.929 . S
C1267 C1264 1.356 . S
C1267 C1269 1.358 . S
C1267 H1309 0.930 . S
C1268 N1265 1.314 . S
C1268 C1266 1.353 . S
C1268 H1310 0.930 . S
C1269 N1265 1.279 . S
C1269 C1267 1.358 . S
C1269 H1311 0.930 . S
C1270 C1271 1.348 . S
C1270 C1272 1.356 . S
C1270 O1295 1.325 . S
C1271 C1270 1.348 . S
C1271 C1273 1.353 . S
C1271 H1312 0.929 . S
C1272 C1270 1.356 . S
C1272 C1274 1.358 . S
C1272 H1313 0.930 . S
C1273 C1271 1.353 . S
C1273 N1275 1.314 . S
C1273 H1314 0.930 . S
C1274 C1272 1.358 . S
C1274 N1275 1.279 . S
C1274 H1315 0.930 . S
N1275 C1273 1.314 . S
N1275 C1274 1.279 . S
C1276 C1278 1.353 . S
C1276 N1279 1.314 . S
C1276 H1282 0.930 . S
C1277 N1279 1.279 . S
C1277 C1280 1.358 . S
C1277 H1283 0.930 . S
C1278 C1276 1.353 . S
C1278 C1281 1.348 . S
C1278 H1316 0.929 . S
N1279 Li1234 1.990 . S
N1279 C1276 1.314 . S
N1279 C1277 1.279 . S
C1280 C1277 1.358 . S
C1280 C1281 1.356 . S
C1280 H1317 0.930 . S
C1281 C1278 1.348 . S
C1281 C1280 1.356 . S
H1282 C1276 0.930 . S
H1283 C1277 0.930 . S
C1284 N1285 1.314 . S
C1284 C1286 1.353 . S
C1284 H1290 0.930 . S
N1285 Li1235 1.990 . S
N1285 C1284 1.314 . S
N1285 C1288 1.279 . S
C1286 C1284 1.353 . S
C1286 C1289 1.348 . S
C1286 H1318 0.929 . S
C1287 C1288 1.358 . S
C1287 C1289 1.356 . S
C1287 H1319 0.930 . S
C1288 N1285 1.279 . S
C1288 C1287 1.358 . S
C1288 H1291 0.930 . S
C1289 C1286 1.348 . S
C1289 C1287 1.356 . S
H1290 C1284 0.930 . S
H1291 C1288 0.930 . S
O1292 Li1232 1.956 . S
O1292 Li1233 1.970 . S
O1292 Li1234 1.961 . S
O1292 C1236 1.325 . S
O1293 Li1232 1.970 . S
O1293 Li1233 1.956 . S
O1293 Li1235 1.961 . S
O1293 C1242 1.325 . S
O1294 Li1232 1.961 . S
O1294 Li1234 1.956 . S
O1294 Li1235 1.970 . S
O1294 C1264 1.325 . S
O1295 Li1233 1.961 . S
O1295 Li1234 1.970 . S
O1295 Li1235 1.956 . S
O1295 C1270 1.325 . S
H1296 C1238 0.929 . S
H1297 C1239 0.930 . S
H1298 C1240 0.930 . S
H1299 C1241 0.930 . S
H1300 C1243 0.930 . S
H1301 C1245 0.929 . S
H1302 C1246 0.930 . S
H1303 C1247 0.930 . S
H1304 C1250 0.930 . S
H1305 C1253 0.929 . S
H1306 C1258 0.929 . S
H1307 C1259 0.930 . S
H1308 C1266 0.929 . S
H1309 C1267 0.930 . S
H1310 C1268 0.930 . S
H1311 C1269 0.930 . S
H1312 C1271 0.929 . S
H1313 C1272 0.930 . S
H1314 C1273 0.930 . S
H1315 C1274 0.930 . S
H1316 C1278 0.929 . S
H1317 C1280 0.930 . S
H1318 C1286 0.929 . S
H1319 C1287 0.930 . S
Li1320 N1337 1.990 . S
Li1320 O1380 1.956 . S
Li1320 O1381 1.970 . S
Li1320 O1382 1.961 . S
Li1321 N1345 1.990 . S
Li1321 O1380 1.970 . S
Li1321 O1381 1.956 . S
Li1321 O1383 1.961 . S
Li1322 N1367 1.990 . S
Li1322 O1380 1.961 . S
Li1322 O1382 1.956 . S
Li1322 O1383 1.970 . S
Li1323 N1373 1.990 . S
Li1323 O1381 1.961 . S
Li1323 O1382 1.970 . S
Li1323 O1383 1.956 . S
C1324 C1326 1.348 . S
C1324 C1327 1.356 . S
C1324 O1380 1.325 . S
N1325 C1328 1.314 . S
N1325 C1329 1.279 . S
C1326 C1324 1.348 . S
C1326 C1328 1.353 . S
C1326 H1384 0.929 . S
C1327 C1324 1.356 . S
C1327 C1329 1.358 . S
C1327 H1385 0.930 . S
C1328 N1325 1.314 . S
C1328 C1326 1.353 . S
C1328 H1386 0.930 . S
C1329 N1325 1.279 . S
C1329 C1327 1.358 . S
C1329 H1387 0.930 . S
C1330 C1333 1.348 . S
C1330 C1334 1.356 . S
C1330 O1381 1.325 . S
C1331 N1332 1.279 . S
C1331 C1334 1.358 . S
C1331 H1388 0.930 . S
N1332 C1331 1.279 . S
N1332 C1335 1.314 . S
C1333 C1330 1.348 . S
C1333 C1335 1.353 . S
C1333 H1389 0.929 . S
C1334 C1330 1.356 . S
C1334 C1331 1.358 . S
C1334 H1390 0.930 . S
C1335 N1332 1.314 . S
C1335 C1333 1.353 . S
C1335 H1391 0.930 . S
C1336 N1337 1.314 . S
C1336 C1341 1.353 . S
C1336 H1342 0.930 . S
N1337 Li1320 1.990 . S
N1337 C1336 1.314 . S
N1337 C1339 1.279 . S
C1338 C1339 1.358 . S
C1338 C1340 1.356 . S
C1338 H1392 0.930 . S
C1339 N1337 1.279 . S
C1339 C1338 1.358 . S
C1339 H1343 0.930 . S
C1340 C1338 1.356 . S
C1340 C1341 1.348 . S
C1341 C1336 1.353 . S
C1341 C1340 1.348 . S
C1341 H1393 0.929 . S
H1342 C1336 0.930 . S
H1343 C1339 0.930 . S
C1344 N1345 1.314 . S
C1344 C1346 1.353 . S
C1344 H1350 0.930 . S
N1345 Li1321 1.990 . S
N1345 C1344 1.314 . S
N1345 C1348 1.279 . S
C1346 C1344 1.353 . S
C1346 C1349 1.348 . S
C1346 H1394 0.929 . S
C1347 C1348 1.358 . S
C1347 C1349 1.356 . S
C1347 H1395 0.930 . S
C1348 N1345 1.279 . S
C1348 C1347 1.358 . S
C1348 H1351 0.930 . S
C1349 C1346 1.348 . S
C1349 C1347 1.356 . S
H1350 C1344 0.930 . S
H1351 C1348 0.930 . S
C1352 C1354 1.348 . S
C1352 C1355 1.356 . S
C1352 O1382 1.325 . S
N1353 C1356 1.314 . S
N1353 C1357 1.279 . S
C1354 C1352 1.348 . S
C1354 C1356 1.353 . S
C1354 H1396 0.929 . S
C1355 C1352 1.356 . S
C1355 C1357 1.358 . S
C1355 H1397 0.930 . S
C1356 N1353 1.314 . S
C1356 C1354 1.353 . S
C1356 H1398 0.930 . S
C1357 N1353 1.279 . S
C1357 C1355 1.358 . S
C1357 H1399 0.930 . S
C1358 C1359 1.348 . S
C1358 C1360 1.356 . S
C1358 O1383 1.325 . S
C1359 C1358 1.348 . S
C1359 C1361 1.353 . S
C1359 H1400 0.929 . S
C1360 C1358 1.356 . S
C1360 C1362 1.358 . S
C1360 H1401 0.930 . S
C1361 C1359 1.353 . S
C1361 N1363 1.314 . S
C1361 H1402 0.930 . S
C1362 C1360 1.358 . S
C1362 N1363 1.279 . S
C1362 H1403 0.930 . S
N1363 C1361 1.314 . S
N1363 C1362 1.279 . S
C1364 C1366 1.353 . S
C1364 N1367 1.314 . S
C1364 H1370 0.930 . S
C1365 N1367 1.279 . S
C1365 C1368 1.358 . S
C1365 H1371 0.930 . S
C1366 C1364 1.353 . S
C1366 C1369 1.348 . S
C1366 H1404 0.929 . S
N1367 Li1322 1.990 . S
N1367 C1364 1.314 . S
N1367 C1365 1.279 . S
C1368 C1365 1.358 . S
C1368 C1369 1.356 . S
C1368 H1405 0.930 . S
C1369 C1366 1.348 . S
C1369 C1368 1.356 . S
H1370 C1364 0.930 . S
H1371 C1365 0.930 . S
C1372 N1373 1.314 . S
C1372 C1374 1.353 . S
C1372 H1378 0.930 . S
N1373 Li1323 1.990 . S
N1373 C1372 1.314 . S
N1373 C1376 1.279 . S
C1374 C1372 1.353 . S
C1374 C1377 1.348 . S
C1374 H1406 0.929 . S
C1375 C1376 1.358 . S
C1375 C1377 1.356 . S
C1375 H1407 0.930 . S
C1376 N1373 1.279 . S
C1376 C1375 1.358 . S
C1376 H1379 0.930 . S
C1377 C1374 1.348 . S
C1377 C1375 1.356 . S
H1378 C1372 0.930 . S
H1379 C1376 0.930 . S
O1380 Li1320 1.956 . S
O1380 Li1321 1.970 . S
O1380 Li1322 1.961 . S
O1380 C1324 1.325 . S
O1381 Li1320 1.970 . S
O1381 Li1321 1.956 . S
O1381 Li1323 1.961 . S
O1381 C1330 1.325 . S
O1382 Li1320 1.961 . S
O1382 Li1322 1.956 . S
O1382 Li1323 1.970 . S
O1382 C1352 1.325 . S
O1383 Li1321 1.961 . S
O1383 Li1322 1.970 . S
O1383 Li1323 1.956 . S
O1383 C1358 1.325 . S
H1384 C1326 0.929 . S
H1385 C1327 0.930 . S
H1386 C1328 0.930 . S
H1387 C1329 0.930 . S
H1388 C1331 0.930 . S
H1389 C1333 0.929 . S
H1390 C1334 0.930 . S
H1391 C1335 0.930 . S
H1392 C1338 0.930 . S
H1393 C1341 0.929 . S
H1394 C1346 0.929 . S
H1395 C1347 0.930 . S
H1396 C1354 0.929 . S
H1397 C1355 0.930 . S
H1398 C1356 0.930 . S
H1399 C1357 0.930 . S
H1400 C1359 0.929 . S
H1401 C1360 0.930 . S
H1402 C1361 0.930 . S
H1403 C1362 0.930 . S
H1404 C1366 0.929 . S
H1405 C1368 0.930 . S
H1406 C1374 0.929 . S
H1407 C1375 0.930 . S
H1408 C1414 0.930 . S
H1409 C1418 0.930 . S
H1410 C1423 0.929 . S
H1411 C1421 0.929 . S
H1412 C1416 0.929 . S
H1413 C1422 0.929 . S
C1414 H1408 0.930 . S
C1414 C1415 1.371 . S
C1414 C1422 1.378 . S
C1415 C1414 1.371 . S
C1415 C1423 1.429 1_554 S
C1416 H1412 0.929 . S
C1416 C1418 1.378 . S
C1416 C1420 1.352 . S
C1417 C1420 1.462 1_554 S
C1417 C1422 1.354 . S
C1417 N1425 1.424 1_554 S
C1418 H1409 0.930 . S
C1418 C1416 1.378 . S
C1418 C1419 1.369 . S
C1419 C1418 1.369 . S
C1419 C1421 1.431 1_556 S
C1420 C1416 1.352 . S
C1420 C1417 1.462 1_556 S
C1420 N1424 1.426 1_556 S
C1421 H1411 0.929 . S
C1421 C1419 1.431 1_554 S
C1421 N1424 1.384 . S
C1422 H1413 0.929 . S
C1422 C1414 1.378 . S
C1422 C1417 1.354 . S
C1423 H1410 0.929 . S
C1423 C1415 1.429 1_556 S
C1423 N1425 1.384 . S
N1424 C1420 1.426 1_554 S
N1424 C1421 1.384 . S
N1425 C1417 1.424 1_556 S
N1425 C1423 1.384 . S
H1426 C1432 0.930 . S
H1427 C1436 0.930 . S
H1428 C1441 0.929 . S
H1429 C1439 0.929 . S
H1430 C1434 0.929 . S
H1431 C1440 0.929 . S
C1432 H1426 0.930 . S
C1432 C1433 1.390 . S
C1432 C1440 1.378 . S
C1433 C1432 1.390 . S
C1433 C1441 1.410 1_554 S
C1434 H1430 0.929 . S
C1434 C1436 1.378 . S
C1434 C1438 1.372 . S
C1435 C1438 1.461 1_554 S
C1435 C1440 1.350 . S
C1435 N1443 1.427 1_554 S
C1436 H1427 0.930 . S
C1436 C1434 1.378 . S
C1436 C1437 1.384 . S
C1437 C1436 1.384 . S
C1437 C1439 1.416 1_556 S
C1438 C1434 1.372 . S
C1438 C1435 1.461 1_556 S
C1438 N1442 1.406 1_556 S
C1439 H1429 0.929 . S
C1439 C1437 1.416 1_554 S
C1439 N1442 1.384 . S
C1440 H1431 0.929 . S
C1440 C1432 1.378 . S
C1440 C1435 1.350 . S
C1441 H1428 0.929 . S
C1441 C1433 1.410 1_556 S
C1441 N1443 1.384 . S
N1442 C1438 1.406 1_554 S
N1442 C1439 1.384 . S
N1443 C1435 1.427 1_556 S
N1443 C1441 1.384 . S
H1444 C1450 0.930 . S
H1445 C1454 0.930 . S
H1446 C1459 0.929 . S
H1447 C1457 0.929 . S
H1448 C1452 0.929 . S
H1449 C1458 0.929 . S
C1450 H1444 0.930 . S
C1450 C1451 1.387 . S
C1450 C1458 1.378 . S
C1451 C1450 1.387 . S
C1451 C1459 1.413 1_554 S
C1452 H1448 0.929 . S
C1452 C1454 1.378 . S
C1452 C1456 1.368 . S
C1453 C1456 1.462 1_554 S
C1453 C1458 1.350 . S
C1453 N1461 1.427 1_554 S
C1454 H1445 0.930 . S
C1454 C1452 1.378 . S
C1454 C1455 1.382 . S
C1455 C1454 1.382 . S
C1455 C1457 1.418 1_556 S
C1456 C1452 1.368 . S
C1456 C1453 1.462 1_556 S
C1456 N1460 1.409 1_556 S
C1457 H1447 0.929 . S
C1457 C1455 1.418 1_554 S
C1457 N1460 1.384 . S
C1458 H1449 0.929 . S
C1458 C1450 1.378 . S
C1458 C1453 1.350 . S
C1459 H1446 0.929 . S
C1459 C1451 1.413 1_556 S
C1459 N1461 1.384 . S
N1460 C1456 1.409 1_554 S
N1460 C1457 1.384 . S
N1461 C1453 1.427 1_556 S
N1461 C1459 1.384 . S
H1462 C1468 0.930 . S
H1463 C1472 0.930 . S
H1464 C1477 0.929 . S
H1465 C1475 0.929 . S
H1466 C1470 0.929 . S
H1467 C1476 0.929 . S
C1468 H1462 0.930 . S
C1468 C1469 1.368 . S
C1468 C1476 1.378 . S
C1469 C1468 1.368 . S
C1469 C1477 1.432 1_554 S
C1470 H1466 0.929 . S
C1470 C1472 1.378 . S
C1470 C1474 1.350 . S
C1471 C1474 1.462 1_554 S
C1471 C1476 1.351 . S
C1471 N1479 1.427 1_554 S
C1472 H1463 0.930 . S
C1472 C1470 1.378 . S
C1472 C1473 1.367 . S
C1473 C1472 1.367 . S
C1473 C1475 1.433 1_556 S
C1474 C1470 1.350 . S
C1474 C1471 1.462 1_556 S
C1474 N1478 1.427 1_556 S
C1475 H1465 0.929 . S
C1475 C1473 1.433 1_554 S
C1475 N1478 1.384 . S
C1476 H1467 0.929 . S
C1476 C1468 1.378 . S
C1476 C1471 1.351 . S
C1477 H1464 0.929 . S
C1477 C1469 1.432 1_556 S
C1477 N1479 1.384 . S
N1478 C1474 1.427 1_554 S
N1478 C1475 1.384 . S
N1479 C1471 1.427 1_556 S
N1479 C1477 1.384 . S
H1480 C1486 0.930 . S
H1481 C1490 0.930 . S
H1482 C1495 0.929 . S
H1483 C1493 0.929 . S
H1484 C1488 0.929 . S
H1485 C1494 0.929 . S
C1486 H1480 0.930 . S
C1486 C1487 1.367 . S
C1486 C1494 1.378 . S
C1487 C1486 1.367 . S
C1487 C1495 1.433 . S
C1488 H1484 0.929 . S
C1488 C1490 1.378 . S
C1488 C1492 1.350 . S
C1489 C1492 1.463 1_545 S
C1489 C1494 1.350 . S
C1489 N1497 1.427 . S
C1490 H1481 0.930 . S
C1490 C1488 1.378 . S
C1490 C1491 1.367 . S
C1491 C1490 1.367 . S
C1491 C1493 1.433 . S
C1492 C1488 1.350 . S
C1492 C1489 1.463 1_565 S
C1492 N1496 1.427 . S
C1493 H1483 0.929 . S
C1493 C1491 1.433 . S
C1493 N1496 1.384 . S
C1494 H1485 0.929 . S
C1494 C1486 1.378 . S
C1494 C1489 1.350 . S
C1495 H1482 0.929 . S
C1495 C1487 1.433 . S
C1495 N1497 1.384 . S
N1496 C1492 1.427 . S
N1496 C1493 1.384 . S
N1497 C1489 1.427 . S
N1497 C1495 1.384 . S
H1498 C1504 0.930 . S
H1499 C1508 0.930 . S
H1500 C1513 0.929 . S
H1501 C1511 0.929 . S
H1502 C1506 0.929 . S
H1503 C1512 0.929 . S
C1504 H1498 0.930 . S
C1504 C1505 1.367 . S
C1504 C1512 1.378 . S
C1505 C1504 1.367 . S
C1505 C1513 1.433 . S
C1506 H1502 0.929 . S
C1506 C1508 1.378 . S
C1506 C1510 1.350 . S
C1507 C1510 1.463 1_655 S
C1507 C1512 1.350 . S
C1507 N1515 1.427 . S
C1508 H1499 0.930 . S
C1508 C1506 1.378 . S
C1508 C1509 1.367 . S
C1509 C1508 1.367 . S
C1509 C1511 1.433 . S
C1510 C1506 1.350 . S
C1510 C1507 1.463 1_455 S
C1510 N1514 1.427 . S
C1511 H1501 0.929 . S
C1511 C1509 1.433 . S
C1511 N1514 1.384 . S
C1512 H1503 0.929 . S
C1512 C1504 1.378 . S
C1512 C1507 1.350 . S
C1513 H1500 0.929 . S
C1513 C1505 1.433 . S
C1513 N1515 1.384 . S
N1514 C1510 1.427 . S
N1514 C1511 1.384 . S
N1515 C1507 1.427 . S
N1515 C1513 1.384 . S
H1516 C1522 0.930 . S
H1517 C1526 0.930 . S
H1518 C1531 0.929 . S
H1519 C1529 0.929 . S
H1520 C1524 0.929 . S
H1521 C1530 0.929 . S
C1522 H1516 0.930 . S
C1522 C1523 1.367 . S
C1522 C1530 1.378 . S
C1523 C1522 1.367 . S
C1523 C1531 1.433 . S
C1524 H1520 0.929 . S
C1524 C1526 1.378 . S
C1524 C1528 1.350 . S
C1525 C1528 1.463 1_545 S
C1525 C1530 1.350 . S
C1525 N1533 1.427 . S
C1526 H1517 0.930 . S
C1526 C1524 1.378 . S
C1526 C1527 1.367 . S
C1527 C1526 1.367 . S
C1527 C1529 1.433 . S
C1528 C1524 1.350 . S
C1528 C1525 1.463 1_565 S
C1528 N1532 1.427 . S
C1529 H1519 0.929 . S
C1529 C1527 1.433 . S
C1529 N1532 1.384 . S
C1530 H1521 0.929 . S
C1530 C1522 1.378 . S
C1530 C1525 1.350 . S
C1531 H1518 0.929 . S
C1531 C1523 1.433 . S
C1531 N1533 1.384 . S
N1532 C1528 1.427 . S
N1532 C1529 1.384 . S
N1533 C1525 1.427 . S
N1533 C1531 1.384 . S
H1534 C1540 0.930 . S
H1535 C1544 0.930 . S
H1536 C1549 0.929 . S
H1537 C1547 0.929 . S
H1538 C1542 0.929 . S
H1539 C1548 0.929 . S
C1540 H1534 0.930 . S
C1540 C1541 1.367 . S
C1540 C1548 1.378 . S
C1541 C1540 1.367 . S
C1541 C1549 1.433 . S
C1542 H1538 0.929 . S
C1542 C1544 1.378 . S
C1542 C1546 1.350 . S
C1543 C1546 1.463 1_455 S
C1543 C1548 1.350 . S
C1543 N1551 1.427 . S
C1544 H1535 0.930 . S
C1544 C1542 1.378 . S
C1544 C1545 1.367 . S
C1545 C1544 1.367 . S
C1545 C1547 1.433 . S
C1546 C1542 1.350 . S
C1546 C1543 1.463 1_655 S
C1546 N1550 1.427 . S
C1547 H1537 0.929 . S
C1547 C1545 1.433 . S
C1547 N1550 1.384 . S
C1548 H1539 0.929 . S
C1548 C1540 1.378 . S
C1548 C1543 1.350 . S
C1549 H1536 0.929 . S
C1549 C1541 1.433 . S
C1549 N1551 1.384 . S
N1550 C1546 1.427 . S
N1550 C1547 1.384 . S
N1551 C1543 1.427 . S
N1551 C1549 1.384 . S
H1552 C1558 0.930 . S
H1553 C1562 0.930 . S
H1554 C1567 0.929 . S
H1555 C1565 0.929 . S
H1556 C1560 0.929 . S
H1557 C1566 0.929 . S
C1558 H1552 0.930 . S
C1558 C1559 1.393 . S
C1558 C1566 1.378 . S
C1559 C1558 1.393 . S
C1559 C1567 1.407 1_554 S
C1560 H1556 0.929 . S
C1560 C1562 1.378 . S
C1560 C1564 1.376 . S
C1561 C1564 1.461 1_554 S
C1561 C1566 1.350 . S
C1561 N1569 1.427 1_554 S
C1562 H1553 0.930 . S
C1562 C1560 1.378 . S
C1562 C1563 1.387 . S
C1563 C1562 1.387 . S
C1563 C1565 1.413 1_556 S
C1564 C1560 1.376 . S
C1564 C1561 1.461 1_556 S
C1564 N1568 1.401 1_556 S
C1565 H1555 0.929 . S
C1565 C1563 1.413 1_554 S
C1565 N1568 1.384 . S
C1566 H1557 0.929 . S
C1566 C1558 1.378 . S
C1566 C1561 1.350 . S
C1567 H1554 0.929 . S
C1567 C1559 1.407 1_556 S
C1567 N1569 1.384 . S
N1568 C1564 1.401 1_554 S
N1568 C1565 1.384 . S
N1569 C1561 1.427 1_556 S
N1569 C1567 1.384 . S
H1570 C1576 0.930 . S
H1571 C1580 0.930 . S
H1572 C1585 0.929 . S
H1573 C1583 0.929 . S
H1574 C1578 0.929 . S
H1575 C1584 0.929 . S
C1576 H1570 0.930 . S
C1576 C1577 1.390 . S
C1576 C1584 1.378 . S
C1577 C1576 1.390 . S
C1577 C1585 1.410 1_556 S
C1578 H1574 0.929 . S
C1578 C1580 1.378 . S
C1578 C1582 1.350 . S
C1579 C1582 1.463 1_556 S
C1579 C1584 1.350 . S
C1579 N1587 1.427 1_556 S
C1580 H1571 0.930 . S
C1580 C1578 1.378 . S
C1580 C1581 1.367 . S
C1581 C1580 1.367 . S
C1581 C1583 1.433 1_554 S
C1582 C1578 1.350 . S
C1582 C1579 1.463 1_554 S
C1582 N1586 1.427 1_554 S
C1583 H1573 0.929 . S
C1583 C1581 1.433 1_556 S
C1583 N1586 1.384 . S
C1584 H1575 0.929 . S
C1584 C1576 1.378 . S
C1584 C1579 1.350 . S
C1585 H1572 0.929 . S
C1585 C1577 1.410 1_554 S
C1585 N1587 1.384 . S
N1586 C1582 1.427 1_556 S
N1586 C1583 1.384 . S
N1587 C1579 1.427 1_554 S
N1587 C1585 1.384 . S
H1588 C1594 0.930 . S
H1589 C1598 0.930 . S
H1590 C1603 0.929 . S
H1591 C1601 0.929 . S
H1592 C1596 0.929 . S
H1593 C1602 0.929 . S
C1594 H1588 0.930 . S
C1594 C1595 1.391 . S
C1594 C1602 1.378 . S
C1595 C1594 1.391 . S
C1595 C1603 1.409 1_554 S
C1596 H1592 0.929 . S
C1596 C1598 1.378 . S
C1596 C1600 1.374 . S
C1597 C1600 1.461 1_554 S
C1597 C1602 1.350 . S
C1597 N1605 1.427 1_554 S
C1598 H1589 0.930 . S
C1598 C1596 1.378 . S
C1598 C1599 1.385 . S
C1599 C1598 1.385 . S
C1599 C1601 1.414 1_556 S
C1600 C1596 1.374 . S
C1600 C1597 1.461 1_556 S
C1600 N1604 1.403 1_556 S
C1601 H1591 0.929 . S
C1601 C1599 1.414 1_554 S
C1601 N1604 1.384 . S
C1602 H1593 0.929 . S
C1602 C1594 1.378 . S
C1602 C1597 1.350 . S
C1603 H1590 0.929 . S
C1603 C1595 1.409 1_556 S
C1603 N1605 1.384 . S
N1604 C1600 1.403 1_554 S
N1604 C1601 1.384 . S
N1605 C1597 1.427 1_556 S
N1605 C1603 1.384 . S
H1606 C1612 0.930 . S
H1607 C1616 0.930 . S
H1608 C1621 0.929 . S
H1609 C1619 0.929 . S
H1610 C1614 0.929 . S
H1611 C1620 0.929 . S
C1612 H1606 0.930 . S
C1612 C1613 1.380 . S
C1612 C1620 1.378 . S
C1613 C1612 1.380 . S
C1613 C1621 1.420 1_556 S
C1614 H1610 0.929 . S
C1614 C1616 1.378 . S
C1614 C1618 1.371 . S
C1615 C1618 1.461 1_556 S
C1615 C1620 1.366 . S
C1615 N1623 1.411 1_556 S
C1616 H1607 0.930 . S
C1616 C1614 1.378 . S
C1616 C1617 1.385 . S
C1617 C1616 1.385 . S
C1617 C1619 1.415 1_554 S
C1618 C1614 1.371 . S
C1618 C1615 1.461 1_554 S
C1618 N1622 1.406 1_554 S
C1619 H1609 0.929 . S
C1619 C1617 1.415 1_556 S
C1619 N1622 1.384 . S
C1620 H1611 0.929 . S
C1620 C1612 1.378 . S
C1620 C1615 1.366 . S
C1621 H1608 0.929 . S
C1621 C1613 1.420 1_554 S
C1621 N1623 1.384 . S
N1622 C1618 1.406 1_556 S
N1622 C1619 1.384 . S
N1623 C1615 1.411 1_554 S
N1623 C1621 1.384 . S
H1624 C1630 0.930 . S
H1625 C1634 0.930 . S
H1626 C1639 0.929 . S
H1627 C1637 0.929 . S
H1628 C1632 0.929 . S
H1629 C1638 0.929 . S
C1630 H1624 0.930 . S
C1630 C1631 1.367 . S
C1630 C1638 1.378 . S
C1631 C1630 1.367 . S
C1631 C1639 1.433 . S
C1632 H1628 0.929 . S
C1632 C1634 1.378 . S
C1632 C1636 1.350 . S
C1633 C1636 1.463 . S
C1633 C1638 1.350 . S
C1633 N1641 1.427 . S
C1634 H1625 0.930 . S
C1634 C1632 1.378 . S
C1634 C1635 1.367 . S
C1635 C1634 1.367 . S
C1635 C1637 1.433 . S
C1636 C1632 1.350 . S
C1636 C1633 1.463 . S
C1636 N1640 1.427 . S
C1637 H1627 0.929 . S
C1637 C1635 1.433 . S
C1637 N1640 1.384 . S
C1638 H1629 0.929 . S
C1638 C1630 1.378 . S
C1638 C1633 1.350 . S
C1639 H1626 0.929 . S
C1639 C1631 1.433 . S
C1639 N1641 1.384 . S
N1640 C1636 1.427 . S
N1640 C1637 1.384 . S
N1641 C1633 1.427 . S
N1641 C1639 1.384 . S
H1642 C1648 0.930 . S
H1643 C1652 0.930 . S
H1644 C1657 0.929 . S
H1645 C1655 0.929 . S
H1646 C1650 0.929 . S
H1647 C1656 0.929 . S
C1648 H1642 0.930 . S
C1648 C1649 1.367 . S
C1648 C1656 1.378 . S
C1649 C1648 1.367 . S
C1649 C1657 1.433 . S
C1650 H1646 0.929 . S
C1650 C1652 1.378 . S
C1650 C1654 1.350 . S
C1651 C1654 1.463 . S
C1651 C1656 1.350 . S
C1651 N1659 1.427 . S
C1652 H1643 0.930 . S
C1652 C1650 1.378 . S
C1652 C1653 1.367 . S
C1653 C1652 1.367 . S
C1653 C1655 1.433 . S
C1654 C1650 1.350 . S
C1654 C1651 1.463 . S
C1654 N1658 1.427 . S
C1655 H1645 0.929 . S
C1655 C1653 1.433 . S
C1655 N1658 1.384 . S
C1656 H1647 0.929 . S
C1656 C1648 1.378 . S
C1656 C1651 1.350 . S
C1657 H1644 0.929 . S
C1657 C1649 1.433 . S
C1657 N1659 1.384 . S
N1658 C1654 1.427 . S
N1658 C1655 1.384 . S
N1659 C1651 1.427 . S
N1659 C1657 1.384 . S
H1660 C1666 0.930 . S
H1661 C1670 0.930 . S
H1662 C1675 0.929 . S
H1663 C1673 0.929 . S
H1664 C1668 0.929 . S
H1665 C1674 0.929 . S
C1666 H1660 0.930 . S
C1666 C1667 1.367 . S
C1666 C1674 1.378 . S
C1667 C1666 1.367 . S
C1667 C1675 1.433 . S
C1668 H1664 0.929 . S
C1668 C1670 1.378 . S
C1668 C1672 1.350 . S
C1669 C1672 1.463 . S
C1669 C1674 1.350 . S
C1669 N1677 1.427 . S
C1670 H1661 0.930 . S
C1670 C1668 1.378 . S
C1670 C1671 1.367 . S
C1671 C1670 1.367 . S
C1671 C1673 1.433 . S
C1672 C1668 1.350 . S
C1672 C1669 1.463 . S
C1672 N1676 1.427 . S
C1673 H1663 0.929 . S
C1673 C1671 1.433 . S
C1673 N1676 1.384 . S
C1674 H1665 0.929 . S
C1674 C1666 1.378 . S
C1674 C1669 1.350 . S
C1675 H1662 0.929 . S
C1675 C1667 1.433 . S
C1675 N1677 1.384 . S
N1676 C1672 1.427 . S
N1676 C1673 1.384 . S
N1677 C1669 1.427 . S
N1677 C1675 1.384 . S
H1678 C1684 0.930 . S
H1679 C1688 0.930 . S
H1680 C1693 0.929 . S
H1681 C1691 0.929 . S
H1682 C1686 0.929 . S
H1683 C1692 0.929 . S
C1684 H1678 0.930 . S
C1684 C1685 1.367 . S
C1684 C1692 1.378 . S
C1685 C1684 1.367 . S
C1685 C1693 1.433 . S
C1686 H1682 0.929 . S
C1686 C1688 1.378 . S
C1686 C1690 1.350 . S
C1687 C1690 1.463 . S
C1687 C1692 1.350 . S
C1687 N1695 1.427 . S
C1688 H1679 0.930 . S
C1688 C1686 1.378 . S
C1688 C1689 1.367 . S
C1689 C1688 1.367 . S
C1689 C1691 1.433 . S
C1690 C1686 1.350 . S
C1690 C1687 1.463 . S
C1690 N1694 1.427 . S
C1691 H1681 0.929 . S
C1691 C1689 1.433 . S
C1691 N1694 1.384 . S
C1692 H1683 0.929 . S
C1692 C1684 1.378 . S
C1692 C1687 1.350 . S
C1693 H1680 0.929 . S
C1693 C1685 1.433 . S
C1693 N1695 1.384 . S
N1694 C1690 1.427 . S
N1694 C1691 1.384 . S
N1695 C1687 1.427 . S
N1695 C1693 1.384 . S
H1696 C1702 0.930 . S
H1697 C1706 0.930 . S
H1698 C1711 0.929 . S
H1699 C1709 0.929 . S
H1700 C1704 0.929 . S
H1701 C1710 0.929 . S
C1702 H1696 0.930 . S
C1702 C1703 1.367 . S
C1702 C1710 1.378 . S
C1703 C1702 1.367 . S
C1703 C1711 1.433 . S
C1704 H1700 0.929 . S
C1704 C1706 1.378 . S
C1704 C1708 1.350 . S
C1705 C1708 1.463 . S
C1705 C1710 1.350 . S
C1705 N1713 1.427 . S
C1706 H1697 0.930 . S
C1706 C1704 1.378 . S
C1706 C1707 1.367 . S
C1707 C1706 1.367 . S
C1707 C1709 1.433 . S
C1708 C1704 1.350 . S
C1708 C1705 1.463 . S
C1708 N1712 1.427 . S
C1709 H1699 0.929 . S
C1709 C1707 1.433 . S
C1709 N1712 1.384 . S
C1710 H1701 0.929 . S
C1710 C1702 1.378 . S
C1710 C1705 1.350 . S
C1711 H1698 0.929 . S
C1711 C1703 1.433 . S
C1711 N1713 1.384 . S
N1712 C1708 1.427 . S
N1712 C1709 1.384 . S
N1713 C1705 1.427 . S
N1713 C1711 1.384 . S
H1714 C1720 0.930 . S
H1715 C1724 0.930 . S
H1716 C1729 0.929 . S
H1717 C1727 0.929 . S
H1718 C1722 0.929 . S
H1719 C1728 0.929 . S
C1720 H1714 0.930 . S
C1720 C1721 1.367 . S
C1720 C1728 1.378 . S
C1721 C1720 1.367 . S
C1721 C1729 1.433 . S
C1722 H1718 0.929 . S
C1722 C1724 1.378 . S
C1722 C1726 1.350 . S
C1723 C1726 1.463 . S
C1723 C1728 1.350 . S
C1723 N1731 1.427 . S
C1724 H1715 0.930 . S
C1724 C1722 1.378 . S
C1724 C1725 1.367 . S
C1725 C1724 1.367 . S
C1725 C1727 1.433 . S
C1726 C1722 1.350 . S
C1726 C1723 1.463 . S
C1726 N1730 1.427 . S
C1727 H1717 0.929 . S
C1727 C1725 1.433 . S
C1727 N1730 1.384 . S
C1728 H1719 0.929 . S
C1728 C1720 1.378 . S
C1728 C1723 1.350 . S
C1729 H1716 0.929 . S
C1729 C1721 1.433 . S
C1729 N1731 1.384 . S
N1730 C1726 1.427 . S
N1730 C1727 1.384 . S
N1731 C1723 1.427 . S
N1731 C1729 1.384 . S
H1732 C1738 0.930 . S
H1733 C1742 0.930 . S
H1734 C1747 0.929 . S
H1735 C1745 0.929 . S
H1736 C1740 0.929 . S
H1737 C1746 0.929 . S
C1738 H1732 0.930 . S
C1738 C1739 1.367 . S
C1738 C1746 1.378 . S
C1739 C1738 1.367 . S
C1739 C1747 1.433 . S
C1740 H1736 0.929 . S
C1740 C1742 1.378 . S
C1740 C1744 1.350 . S
C1741 C1744 1.463 . S
C1741 C1746 1.350 . S
C1741 N1749 1.427 . S
C1742 H1733 0.930 . S
C1742 C1740 1.378 . S
C1742 C1743 1.367 . S
C1743 C1742 1.367 . S
C1743 C1745 1.433 . S
C1744 C1740 1.350 . S
C1744 C1741 1.463 . S
C1744 N1748 1.427 . S
C1745 H1735 0.929 . S
C1745 C1743 1.433 . S
C1745 N1748 1.384 . S
C1746 H1737 0.929 . S
C1746 C1738 1.378 . S
C1746 C1741 1.350 . S
C1747 H1734 0.929 . S
C1747 C1739 1.433 . S
C1747 N1749 1.384 . S
N1748 C1744 1.427 . S
N1748 C1745 1.384 . S
N1749 C1741 1.427 . S
N1749 C1747 1.384 . S
H1750 C1756 0.930 . S
H1751 C1760 0.930 . S
H1752 C1765 0.929 . S
H1753 C1763 0.929 . S
H1754 C1758 0.929 . S
H1755 C1764 0.929 . S
C1756 H1750 0.930 . S
C1756 C1757 1.367 . S
C1756 C1764 1.378 . S
C1757 C1756 1.367 . S
C1757 C1765 1.433 . S
C1758 H1754 0.929 . S
C1758 C1760 1.378 . S
C1758 C1762 1.350 . S
C1759 C1762 1.463 . S
C1759 C1764 1.350 . S
C1759 N1767 1.427 . S
C1760 H1751 0.930 . S
C1760 C1758 1.378 . S
C1760 C1761 1.367 . S
C1761 C1760 1.367 . S
C1761 C1763 1.433 . S
C1762 C1758 1.350 . S
C1762 C1759 1.463 . S
C1762 N1766 1.427 . S
C1763 H1753 0.929 . S
C1763 C1761 1.433 . S
C1763 N1766 1.384 . S
C1764 H1755 0.929 . S
C1764 C1756 1.378 . S
C1764 C1759 1.350 . S
C1765 H1752 0.929 . S
C1765 C1757 1.433 . S
C1765 N1767 1.384 . S
N1766 C1762 1.427 . S
N1766 C1763 1.384 . S
N1767 C1759 1.427 . S
N1767 C1765 1.384 . S
H1768 C1774 0.930 . S
H1769 C1778 0.930 . S
H1770 C1783 0.929 . S
H1771 C1781 0.929 . S
H1772 C1776 0.929 . S
H1773 C1782 0.929 . S
C1774 H1768 0.930 . S
C1774 C1775 1.367 . S
C1774 C1782 1.378 . S
C1775 C1774 1.367 . S
C1775 C1783 1.433 . S
C1776 H1772 0.929 . S
C1776 C1778 1.378 . S
C1776 C1780 1.350 . S
C1777 C1780 1.463 . S
C1777 C1782 1.350 . S
C1777 N1785 1.427 . S
C1778 H1769 0.930 . S
C1778 C1776 1.378 . S
C1778 C1779 1.367 . S
C1779 C1778 1.367 . S
C1779 C1781 1.433 . S
C1780 C1776 1.350 . S
C1780 C1777 1.463 . S
C1780 N1784 1.427 . S
C1781 H1771 0.929 . S
C1781 C1779 1.433 . S
C1781 N1784 1.384 . S
C1782 H1773 0.929 . S
C1782 C1774 1.378 . S
C1782 C1777 1.350 . S
C1783 H1770 0.929 . S
C1783 C1775 1.433 . S
C1783 N1785 1.384 . S
N1784 C1780 1.427 . S
N1784 C1781 1.384 . S
N1785 C1777 1.427 . S
N1785 C1783 1.384 . S
H1786 C1792 0.930 . S
H1787 C1796 0.930 . S
H1788 C1801 0.929 . S
H1789 C1799 0.929 . S
H1790 C1794 0.929 . S
H1791 C1800 0.929 . S
C1792 H1786 0.930 . S
C1792 C1793 1.367 . S
C1792 C1800 1.378 . S
C1793 C1792 1.367 . S
C1793 C1801 1.433 . S
C1794 H1790 0.929 . S
C1794 C1796 1.378 . S
C1794 C1798 1.350 . S
C1795 C1798 1.463 . S
C1795 C1800 1.350 . S
C1795 N1803 1.427 . S
C1796 H1787 0.930 . S
C1796 C1794 1.378 . S
C1796 C1797 1.367 . S
C1797 C1796 1.367 . S
C1797 C1799 1.433 . S
C1798 C1794 1.350 . S
C1798 C1795 1.463 . S
C1798 N1802 1.427 . S
C1799 H1789 0.929 . S
C1799 C1797 1.433 . S
C1799 N1802 1.384 . S
C1800 H1791 0.929 . S
C1800 C1792 1.378 . S
C1800 C1795 1.350 . S
C1801 H1788 0.929 . S
C1801 C1793 1.433 . S
C1801 N1803 1.384 . S
N1802 C1798 1.427 . S
N1802 C1799 1.384 . S
N1803 C1795 1.427 . S
N1803 C1801 1.384 . S
H1804 C1810 0.930 . S
H1805 C1814 0.930 . S
H1806 C1819 0.929 . S
H1807 C1817 0.929 . S
H1808 C1812 0.929 . S
H1809 C1818 0.929 . S
C1810 H1804 0.930 . S
C1810 C1811 1.367 . S
C1810 C1818 1.378 . S
C1811 C1810 1.367 . S
C1811 C1819 1.433 . S
C1812 H1808 0.929 . S
C1812 C1814 1.378 . S
C1812 C1816 1.350 . S
C1813 C1816 1.463 . S
C1813 C1818 1.350 . S
C1813 N1821 1.427 . S
C1814 H1805 0.930 . S
C1814 C1812 1.378 . S
C1814 C1815 1.367 . S
C1815 C1814 1.367 . S
C1815 C1817 1.433 . S
C1816 C1812 1.350 . S
C1816 C1813 1.463 . S
C1816 N1820 1.427 . S
C1817 H1807 0.929 . S
C1817 C1815 1.433 . S
C1817 N1820 1.384 . S
C1818 H1809 0.929 . S
C1818 C1810 1.378 . S
C1818 C1813 1.350 . S
C1819 H1806 0.929 . S
C1819 C1811 1.433 . S
C1819 N1821 1.384 . S
N1820 C1816 1.427 . S
N1820 C1817 1.384 . S
N1821 C1813 1.427 . S
N1821 C1819 1.384 . S
H1822 C1828 0.930 . S
H1823 C1832 0.930 . S
H1824 C1837 0.929 . S
H1825 C1835 0.929 . S
H1826 C1830 0.929 . S
H1827 C1836 0.929 . S
C1828 H1822 0.930 . S
C1828 C1829 1.367 . S
C1828 C1836 1.378 . S
C1829 C1828 1.367 . S
C1829 C1837 1.433 . S
C1830 H1826 0.929 . S
C1830 C1832 1.378 . S
C1830 C1834 1.350 . S
C1831 C1834 1.463 . S
C1831 C1836 1.350 . S
C1831 N1839 1.427 . S
C1832 H1823 0.930 . S
C1832 C1830 1.378 . S
C1832 C1833 1.367 . S
C1833 C1832 1.367 . S
C1833 C1835 1.433 . S
C1834 C1830 1.350 . S
C1834 C1831 1.463 . S
C1834 N1838 1.427 . S
C1835 H1825 0.929 . S
C1835 C1833 1.433 . S
C1835 N1838 1.384 . S
C1836 H1827 0.929 . S
C1836 C1828 1.378 . S
C1836 C1831 1.350 . S
C1837 H1824 0.929 . S
C1837 C1829 1.433 . S
C1837 N1839 1.384 . S
N1838 C1834 1.427 . S
N1838 C1835 1.384 . S
N1839 C1831 1.427 . S
N1839 C1837 1.384 . S
H1840 C1846 0.930 . S
H1841 C1850 0.930 . S
H1842 C1855 0.929 . S
H1843 C1853 0.929 . S
H1844 C1848 0.929 . S
H1845 C1854 0.929 . S
C1846 H1840 0.930 . S
C1846 C1847 1.367 . S
C1846 C1854 1.378 . S
C1847 C1846 1.367 . S
C1847 C1855 1.433 . S
C1848 H1844 0.929 . S
C1848 C1850 1.378 . S
C1848 C1852 1.350 . S
C1849 C1852 1.463 . S
C1849 C1854 1.350 . S
C1849 N1857 1.427 . S
C1850 H1841 0.930 . S
C1850 C1848 1.378 . S
C1850 C1851 1.367 . S
C1851 C1850 1.367 . S
C1851 C1853 1.433 . S
C1852 C1848 1.350 . S
C1852 C1849 1.463 . S
C1852 N1856 1.427 . S
C1853 H1843 0.929 . S
C1853 C1851 1.433 . S
C1853 N1856 1.384 . S
C1854 H1845 0.929 . S
C1854 C1846 1.378 . S
C1854 C1849 1.350 . S
C1855 H1842 0.929 . S
C1855 C1847 1.433 . S
C1855 N1857 1.384 . S
N1856 C1852 1.427 . S
N1856 C1853 1.384 . S
N1857 C1849 1.427 . S
N1857 C1855 1.384 . S
H1858 C1864 0.930 . S
H1859 C1868 0.930 . S
H1860 C1873 0.929 . S
H1861 C1871 0.929 . S
H1862 C1866 0.929 . S
H1863 C1872 0.929 . S
C1864 H1858 0.930 . S
C1864 C1865 1.367 . S
C1864 C1872 1.378 . S
C1865 C1864 1.367 . S
C1865 C1873 1.433 . S
C1866 H1862 0.929 . S
C1866 C1868 1.378 . S
C1866 C1870 1.350 . S
C1867 C1870 1.463 . S
C1867 C1872 1.350 . S
C1867 N1875 1.427 . S
C1868 H1859 0.930 . S
C1868 C1866 1.378 . S
C1868 C1869 1.367 . S
C1869 C1868 1.367 . S
C1869 C1871 1.433 . S
C1870 C1866 1.350 . S
C1870 C1867 1.463 . S
C1870 N1874 1.427 . S
C1871 H1861 0.929 . S
C1871 C1869 1.433 . S
C1871 N1874 1.384 . S
C1872 H1863 0.929 . S
C1872 C1864 1.378 . S
C1872 C1867 1.350 . S
C1873 H1860 0.929 . S
C1873 C1865 1.433 . S
C1873 N1875 1.384 . S
N1874 C1870 1.427 . S
N1874 C1871 1.384 . S
N1875 C1867 1.427 . S
N1875 C1873 1.384 . S
H1876 C1882 0.930 . S
H1877 C1886 0.930 . S
H1878 C1891 0.929 . S
H1879 C1889 0.929 . S
H1880 C1884 0.929 . S
H1881 C1890 0.929 . S
C1882 H1876 0.930 . S
C1882 C1883 1.367 . S
C1882 C1890 1.378 . S
C1883 C1882 1.367 . S
C1883 C1891 1.433 . S
C1884 H1880 0.929 . S
C1884 C1886 1.378 . S
C1884 C1888 1.350 . S
C1885 C1888 1.463 . S
C1885 C1890 1.350 . S
C1885 N1893 1.427 . S
C1886 H1877 0.930 . S
C1886 C1884 1.378 . S
C1886 C1887 1.367 . S
C1887 C1886 1.367 . S
C1887 C1889 1.433 . S
C1888 C1884 1.350 . S
C1888 C1885 1.463 . S
C1888 N1892 1.427 . S
C1889 H1879 0.929 . S
C1889 C1887 1.433 . S
C1889 N1892 1.384 . S
C1890 H1881 0.929 . S
C1890 C1882 1.378 . S
C1890 C1885 1.350 . S
C1891 H1878 0.929 . S
C1891 C1883 1.433 . S
C1891 N1893 1.384 . S
N1892 C1888 1.427 . S
N1892 C1889 1.384 . S
N1893 C1885 1.427 . S
N1893 C1891 1.384 . S
H1894 C1900 0.930 . S
H1895 C1904 0.930 . S
H1896 C1909 0.929 . S
H1897 C1907 0.929 . S
H1898 C1902 0.929 . S
H1899 C1908 0.929 . S
C1900 H1894 0.930 . S
C1900 C1901 1.367 . S
C1900 C1908 1.378 . S
C1901 C1900 1.367 . S
C1901 C1909 1.433 . S
C1902 H1898 0.929 . S
C1902 C1904 1.378 . S
C1902 C1906 1.350 . S
C1903 C1906 1.463 . S
C1903 C1908 1.350 . S
C1903 N1911 1.427 . S
C1904 H1895 0.930 . S
C1904 C1902 1.378 . S
C1904 C1905 1.367 . S
C1905 C1904 1.367 . S
C1905 C1907 1.433 . S
C1906 C1902 1.350 . S
C1906 C1903 1.463 . S
C1906 N1910 1.427 . S
C1907 H1897 0.929 . S
C1907 C1905 1.433 . S
C1907 N1910 1.384 . S
C1908 H1899 0.929 . S
C1908 C1900 1.378 . S
C1908 C1903 1.350 . S
C1909 H1896 0.929 . S
C1909 C1901 1.433 . S
C1909 N1911 1.384 . S
N1910 C1906 1.427 . S
N1910 C1907 1.384 . S
N1911 C1903 1.427 . S
N1911 C1909 1.384 . S
H1912 C1918 0.930 . S
H1913 C1922 0.930 . S
H1914 C1927 0.929 . S
H1915 C1925 0.929 . S
H1916 C1920 0.929 . S
H1917 C1926 0.929 . S
C1918 H1912 0.930 . S
C1918 C1919 1.367 . S
C1918 C1926 1.378 . S
C1919 C1918 1.367 . S
C1919 C1927 1.433 . S
C1920 H1916 0.929 . S
C1920 C1922 1.378 . S
C1920 C1924 1.350 . S
C1921 C1924 1.463 . S
C1921 C1926 1.350 . S
C1921 N1929 1.427 . S
C1922 H1913 0.930 . S
C1922 C1920 1.378 . S
C1922 C1923 1.367 . S
C1923 C1922 1.367 . S
C1923 C1925 1.433 . S
C1924 C1920 1.350 . S
C1924 C1921 1.463 . S
C1924 N1928 1.427 . S
C1925 H1915 0.929 . S
C1925 C1923 1.433 . S
C1925 N1928 1.384 . S
C1926 H1917 0.929 . S
C1926 C1918 1.378 . S
C1926 C1921 1.350 . S
C1927 H1914 0.929 . S
C1927 C1919 1.433 . S
C1927 N1929 1.384 . S
N1928 C1924 1.427 . S
N1928 C1925 1.384 . S
N1929 C1921 1.427 . S
N1929 C1927 1.384 . S
H1930 C1936 0.930 . S
H1931 C1940 0.930 . S
H1932 C1945 0.929 . S
H1933 C1943 0.929 . S
H1934 C1938 0.929 . S
H1935 C1944 0.929 . S
C1936 H1930 0.930 . S
C1936 C1937 1.367 . S
C1936 C1944 1.378 . S
C1937 C1936 1.367 . S
C1937 C1945 1.433 . S
C1938 H1934 0.929 . S
C1938 C1940 1.378 . S
C1938 C1942 1.350 . S
C1939 C1942 1.463 . S
C1939 C1944 1.350 . S
C1939 N1947 1.427 . S
C1940 H1931 0.930 . S
C1940 C1938 1.378 . S
C1940 C1941 1.367 . S
C1941 C1940 1.367 . S
C1941 C1943 1.433 . S
C1942 C1938 1.350 . S
C1942 C1939 1.463 . S
C1942 N1946 1.427 . S
C1943 H1933 0.929 . S
C1943 C1941 1.433 . S
C1943 N1946 1.384 . S
C1944 H1935 0.929 . S
C1944 C1936 1.378 . S
C1944 C1939 1.350 . S
C1945 H1932 0.929 . S
C1945 C1937 1.433 . S
C1945 N1947 1.384 . S
N1946 C1942 1.427 . S
N1946 C1943 1.384 . S
N1947 C1939 1.427 . S
N1947 C1945 1.384 . S
H1948 C1954 0.930 . S
H1949 C1958 0.930 . S
H1950 C1963 0.929 . S
H1951 C1961 0.929 . S
H1952 C1956 0.929 . S
H1953 C1962 0.929 . S
C1954 H1948 0.930 . S
C1954 C1955 1.367 . S
C1954 C1962 1.378 . S
C1955 C1954 1.367 . S
C1955 C1963 1.433 . S
C1956 H1952 0.929 . S
C1956 C1958 1.378 . S
C1956 C1960 1.350 . S
C1957 C1960 1.463 . S
C1957 C1962 1.350 . S
C1957 N1965 1.427 . S
C1958 H1949 0.930 . S
C1958 C1956 1.378 . S
C1958 C1959 1.367 . S
C1959 C1958 1.367 . S
C1959 C1961 1.433 . S
C1960 C1956 1.350 . S
C1960 C1957 1.463 . S
C1960 N1964 1.427 . S
C1961 H1951 0.929 . S
C1961 C1959 1.433 . S
C1961 N1964 1.384 . S
C1962 H1953 0.929 . S
C1962 C1954 1.378 . S
C1962 C1957 1.350 . S
C1963 H1950 0.929 . S
C1963 C1955 1.433 . S
C1963 N1965 1.384 . S
N1964 C1960 1.427 . S
N1964 C1961 1.384 . S
N1965 C1957 1.427 . S
N1965 C1963 1.384 . S
H1966 C1972 0.930 . S
H1967 C1976 0.930 . S
H1968 C1981 0.929 . S
H1969 C1979 0.929 . S
H1970 C1974 0.929 . S
H1971 C1980 0.929 . S
C1972 H1966 0.930 . S
C1972 C1973 1.367 . S
C1972 C1980 1.378 . S
C1973 C1972 1.367 . S
C1973 C1981 1.433 . S
C1974 H1970 0.929 . S
C1974 C1976 1.378 . S
C1974 C1978 1.350 . S
C1975 C1978 1.463 . S
C1975 C1980 1.350 . S
C1975 N1983 1.427 . S
C1976 H1967 0.930 . S
C1976 C1974 1.378 . S
C1976 C1977 1.367 . S
C1977 C1976 1.367 . S
C1977 C1979 1.433 . S
C1978 C1974 1.350 . S
C1978 C1975 1.463 . S
C1978 N1982 1.427 . S
C1979 H1969 0.929 . S
C1979 C1977 1.433 . S
C1979 N1982 1.384 . S
C1980 H1971 0.929 . S
C1980 C1972 1.378 . S
C1980 C1975 1.350 . S
C1981 H1968 0.929 . S
C1981 C1973 1.433 . S
C1981 N1983 1.384 . S
N1982 C1978 1.427 . S
N1982 C1979 1.384 . S
N1983 C1975 1.427 . S
N1983 C1981 1.384 . S
C1415 C409 0.852 . S
C1419 C20 0.857 1_556 S
C1433 C489 0.855 . S
C1437 C108 0.853 1_556 S
C1451 C585 0.853 . S
C1455 C205 0.856 1_556 S
C1469 C673 0.852 . S
C1473 C293 0.857 1_556 S
C1487 C1105 0.857 . S
C1491 C724 0.852 . S
C1505 C1193 0.852 . S
C1509 C812 0.856 . S
C1523 C909 0.855 . S
C1527 C1281 0.855 . S
C1541 C1377 0.853 . S
C1545 C997 0.856 . S
C1559 C49 1.238 . S
C1563 C460 1.242 1_556 S
C1577 C557 1.239 1_556 S
C1581 C137 1.241 . S
C1595 C233 1.238 . S
C1599 C645 1.242 1_556 S
C1613 C381 1.237 1_556 S
C1617 C321 1.243 . S
C1631 C1164 1.241 . S
C1635 C753 1.239 . S
C1649 C1252 1.239 . S
C1653 C841 1.242 . S
C1667 C937 1.243 . S
C1671 C1349 1.237 . S
C1685 C1025 1.237 . S
C1689 C1076 1.244 . S
C1703 C1369 1.530 . S
C1707 C29 1.529 . S
C1721 C1113 1.533 . S
C1725 C117 1.526 . S
C1739 C1201 1.532 . S
C1743 C196 1.526 . S
C1757 C1289 1.530 . S
C1761 C284 1.527 . S
C1775 C821 1.530 . S
C1779 C401 1.534 . S
C1793 C900 1.529 . S
C1797 C497 1.536 . S
C1811 C577 1.533 . S
C1815 C988 1.532 . S
C1829 C665 1.529 . S
C1833 C733 1.535 . S
C1847 C1173 1.529 . S
C1851 C225 1.537 . S
C1865 C1261 1.531 . S
C1869 C313 1.536 . S
C1883 C1340 1.534 . S
C1887 C57 1.532 . S
C1901 C145 1.532 . S
C1905 C1085 1.532 . S
C1919 C1017 1.534 . S
C1923 C548 1.526 . S
C1937 C636 1.534 . S
C1941 C761 1.526 . S
C1955 C849 1.533 . S
C1959 C372 1.526 . S
C1973 C929 1.530 . S
C1977 C469 1.528 . S
