# Generated by pormake.
# Topology wkb, (5)-cn, num edge types: 1
# Building blocks:
#     Node 0, Type 0, BuildingBlock: XOMCOT_clean_sbu_1, # of connection points: 5
#     Node 1, Type 0, BuildingBlock: XOMCOT_clean_sbu_1, # of connection points: 5
#     Node 2, Type 0, BuildingBlock: XOMCOT_clean_sbu_1, # of connection points: 5
#     Node 3, Type 0, BuildingBlock: XOMCOT_clean_sbu_1, # of connection points: 5
#     Node 4, Type 0, BuildingBlock: XOMCOT_clean_sbu_1, # of connection points: 5
#     Node 5, Type 0, BuildingBlock: XOMCOT_clean_sbu_1, # of connection points: 5
#     Node 6, Type 0, BuildingBlock: XOMCOT_clean_sbu_1, # of connection points: 5
#     Node 7, Type 0, BuildingBlock: XOMCOT_clean_sbu_1, # of connection points: 5
#     Node 8, Type 0, BuildingBlock: XOMCOT_clean_sbu_1, # of connection points: 5
#     Node 9, Type 0, BuildingBlock: XOMCOT_clean_sbu_1, # of connection points: 5
#     Node 10, Type 0, BuildingBlock: XOMCOT_clean_sbu_1, # of connection points: 5
#     Node 11, Type 0, BuildingBlock: XOMCOT_clean_sbu_1, # of connection points: 5
#     Edge 12, Type (0, 0), BuildingBlock: UVAHIK_clean_linker_0, # of connection points: 2
#     Edge 13, Type (0, 0), BuildingBlock: UVAHIK_clean_linker_0, # of connection points: 2
#     Edge 14, Type (0, 0), BuildingBlock: UVAHIK_clean_linker_0, # of connection points: 2
#     Edge 15, Type (0, 0), BuildingBlock: UVAHIK_clean_linker_0, # of connection points: 2
#     Edge 16, Type (0, 0), BuildingBlock: UVAHIK_clean_linker_0, # of connection points: 2
#     Edge 17, Type (0, 0), BuildingBlock: UVAHIK_clean_linker_0, # of connection points: 2
#     Edge 18, Type (0, 0), BuildingBlock: UVAHIK_clean_linker_0, # of connection points: 2
#     Edge 19, Type (0, 0), BuildingBlock: UVAHIK_clean_linker_0, # of connection points: 2
#     Edge 20, Type (0, 0), BuildingBlock: UVAHIK_clean_linker_0, # of connection points: 2
#     Edge 21, Type (0, 0), BuildingBlock: UVAHIK_clean_linker_0, # of connection points: 2
#     Edge 22, Type (0, 0), BuildingBlock: UVAHIK_clean_linker_0, # of connection points: 2
#     Edge 23, Type (0, 0), BuildingBlock: UVAHIK_clean_linker_0, # of connection points: 2
#     Edge 24, Type (0, 0), BuildingBlock: UVAHIK_clean_linker_0, # of connection points: 2
#     Edge 25, Type (0, 0), BuildingBlock: UVAHIK_clean_linker_0, # of connection points: 2
#     Edge 26, Type (0, 0), BuildingBlock: UVAHIK_clean_linker_0, # of connection points: 2
#     Edge 27, Type (0, 0), BuildingBlock: UVAHIK_clean_linker_0, # of connection points: 2
#     Edge 28, Type (0, 0), BuildingBlock: UVAHIK_clean_linker_0, # of connection points: 2
#     Edge 29, Type (0, 0), BuildingBlock: UVAHIK_clean_linker_0, # of connection points: 2
#     Edge 30, Type (0, 0), BuildingBlock: UVAHIK_clean_linker_0, # of connection points: 2
#     Edge 31, Type (0, 0), BuildingBlock: UVAHIK_clean_linker_0, # of connection points: 2
#     Edge 32, Type (0, 0), BuildingBlock: UVAHIK_clean_linker_0, # of connection points: 2
#     Edge 33, Type (0, 0), BuildingBlock: UVAHIK_clean_linker_0, # of connection points: 2
#     Edge 34, Type (0, 0), BuildingBlock: UVAHIK_clean_linker_0, # of connection points: 2
#     Edge 35, Type (0, 0), BuildingBlock: UVAHIK_clean_linker_0, # of connection points: 2
#     Edge 36, Type (0, 0), BuildingBlock: UVAHIK_clean_linker_0, # of connection points: 2
#     Edge 37, Type (0, 0), BuildingBlock: UVAHIK_clean_linker_0, # of connection points: 2
#     Edge 38, Type (0, 0), BuildingBlock: UVAHIK_clean_linker_0, # of connection points: 2
#     Edge 39, Type (0, 0), BuildingBlock: UVAHIK_clean_linker_0, # of connection points: 2
#     Edge 40, Type (0, 0), BuildingBlock: UVAHIK_clean_linker_0, # of connection points: 2
#     Edge 41, Type (0, 0), BuildingBlock: UVAHIK_clean_linker_0, # of connection points: 2
# Relax obj value: 0.058
# Max RMSD: 0.101
# Mean RMSD: 0.101
data_MOF--net-wkb--node1-XOMCOT_clean_sbu_1--edge1-UVAHIK_clean_linker_0
_symmetry_space_group_name_H-M    P1
_symmetry_Int_Tables_number       1
_symmetry_cell_setting            triclinic
loop_
_symmetry_equiv_pos_as_xyz
'x, y, z'
_cell_length_a     58.975515
_cell_length_b     58.931383
_cell_length_c     46.366369
_cell_angle_alpha  89.988224
_cell_angle_beta   89.981349
_cell_angle_gamma 119.94768
loop_
_atom_site_label
_atom_site_type_symbol
_atom_site_fract_x
_atom_site_fract_y
_atom_site_fract_z
_atom_type_partial_charge
C0 C 0.08251 0.37053 0.01168 0.0
C1 C 0.07604 0.36831 0.98302 0.0
N2 N 0.0586 0.34303 0.97754 0.0
N3 N 0.06884 0.34684 0.02432 0.0
C4 C 0.05467 0.33031 0.00288 0.0
H5 H 0.09618 0.3883 0.0228 0.0
Co6 Co 0.07215 0.3412 0.06302 0.0
C7 C 1.01404 0.3038 0.07401 0.0
O8 O 1.01021 0.32226 0.08451 0.0
N9 N 0.07626 0.33557 0.10212 0.0
C10 C 0.07083 0.32973 0.14954 0.0
C11 C 0.05998 0.332 0.12434 0.0
C12 C 0.09695 0.33549 0.11453 0.0
N13 N 0.09414 0.3319 0.14339 0.0
O14 O 0.08699 0.31973 0.05135 0.0
H15 H 0.04192 0.33228 0.12284 0.0
H16 H 0.11387 0.33819 0.10263 0.0
O17 O 0.03666 0.30929 0.06449 0.0
C18 C 0.11069 0.33471 0.04349 0.0
O19 O 0.12105 0.35998 0.04808 0.0
N20 N 0.06056 0.36533 0.07294 0.0
C21 C 0.05492 0.40966 0.07973 0.0
C22 C 0.03845 0.38927 0.06112 0.0
C23 C 0.04193 0.3676 0.05758 0.0
C24 C 0.07676 0.38513 0.09105 0.0
C25 C 0.07401 0.40713 0.09511 0.0
H26 H 0.03023 0.35305 0.04161 0.0
H27 H 0.09295 0.38468 0.10141 0.0
H28 H 0.04158 0.30951 0.00582 0.0
H29 H 0.08374 0.38399 0.96729 0.0
H30 H 0.06255 0.32768 0.17085 0.0
H31 H 0.02394 0.39068 0.04814 0.0
H32 H 0.08735 0.42245 0.10954 0.0
C33 C 0.73228 0.07758 0.17525 0.0
C34 C 0.73239 0.07364 0.1461 0.0
N35 N 0.74015 0.05596 0.14169 0.0
N36 N 0.73985 0.06237 0.18914 0.0
C37 C 0.74451 0.04935 0.16816 0.0
H38 H 0.72762 0.09113 0.18575 0.0
Co39 Co 0.74641 0.06472 0.22838 0.0
C40 C 0.72585 1.00659 0.23859 0.0
O41 O 0.70307 1.00246 0.24773 0.0
N42 N 0.75393 0.068 0.26813 0.0
C43 C 0.75244 0.06184 0.31559 0.0
C44 C 0.74026 0.05144 0.2898 0.0
C45 C 0.77431 0.08835 0.28145 0.0
N46 N 0.77395 0.08511 0.31033 0.0
O47 O 0.7833 0.08018 0.21917 0.0
H48 H 0.72198 0.03342 0.28745 0.0
H49 H 0.7892 0.10527 0.27017 0.0
O50 O 0.74326 0.02941 0.22984 0.0
C51 C 0.79233 0.1041 0.21191 0.0
O52 O 0.77728 0.11439 0.21599 0.0
N53 N 0.71012 0.05239 0.2357 0.0
C54 C 0.65903 0.04416 0.2402 0.0
C55 C 0.66487 0.0295 0.22084 0.0
C56 C 0.69053 0.03416 0.21862 0.0
C57 C 0.70478 0.06725 0.25408 0.0
C58 C 0.6794 0.06309 0.25712 0.0
H59 H 0.69474 0.02337 0.2027 0.0
H60 H 0.72046 0.08333 0.26568 0.0
H61 H 0.75199 0.03619 0.1721 0.0
H62 H 0.72727 0.08314 0.1294 0.0
H63 H 0.74545 0.0532 0.33663 0.0
H64 H 0.64985 1.01482 0.20714 0.0
H65 H 0.67605 0.07555 0.27159 0.0
C66 C 0.66902 0.72104 0.34378 0.0
C67 C 0.67161 0.71716 0.31509 0.0
N68 N 0.69695 0.72508 0.30993 0.0
N69 N 0.69254 0.73091 0.35672 0.0
C70 C 0.70936 0.73358 0.33546 0.0
H71 H 0.65109 0.71668 0.35473 0.0
Co72 Co 0.69746 0.739 0.39565 0.0
C73 C 0.73567 0.71921 0.40632 0.0
O74 O 0.71739 0.69659 0.41627 0.0
N75 N 0.70228 0.74795 0.43495 0.0
C76 C 0.70755 0.74796 0.48247 0.0
C77 C 0.70645 0.73553 0.45707 0.0
C78 C 0.70095 0.76792 0.44759 0.0
N79 N 0.70409 0.76835 0.47645 0.0
O80 O 0.71841 0.7756 0.38494 0.0
H81 H 0.70758 0.71792 0.45532 0.0
H82 H 0.69694 0.78145 0.43603 0.0
O83 O 0.72987 0.73626 0.39719 0.0
C84 C 0.70341 0.78429 0.377 0.0
O85 O 0.67808 0.76907 0.38083 0.0
N86 N 0.67397 0.70285 0.40463 0.0
C87 C 0.6313 0.65179 0.41062 0.0
C88 C 0.65165 0.65718 0.39126 0.0
C89 C 0.67254 0.68278 0.38831 0.0
C90 C 0.65405 0.69789 0.42327 0.0
C91 C 0.63291 0.67253 0.42703 0.0
H92 H 0.68734 0.68658 0.37227 0.0
H93 H 0.6537 0.71383 0.43438 0.0
H94 H 0.73008 0.74114 0.33867 0.0
H95 H 0.65612 0.70926 0.29917 0.0
H96 H 0.71052 0.74235 0.50375 0.0
H97 H 0.6512 0.64184 0.37799 0.0
H98 H 0.61725 0.66949 0.44156 0.0
C99 C 0.9612 0.66312 0.50814 0.0
C100 C 0.96506 0.66699 0.47897 0.0
N101 N 0.98266 0.69241 0.47437 0.0
N102 N 0.97638 0.68595 0.52188 0.0
C103 C 0.9893 0.70352 0.50077 0.0
H104 H 0.94773 0.64496 0.51877 0.0
Co105 Co 0.97409 0.69025 0.56114 0.0
C106 C 0.03227 0.72758 0.57106 0.0
O107 O 0.03637 0.70883 0.58 0.0
N108 N 0.97082 0.69455 0.60085 0.0
C109 C 0.97688 0.69921 0.64835 0.0
C110 C 0.98755 0.69789 0.62252 0.0
C111 C 0.95014 0.69393 0.61419 0.0
N112 N 0.95335 0.69675 0.64303 0.0
O113 O 0.95875 0.71182 0.55196 0.0
H114 H 1.00594 0.69839 0.62013 0.0
H115 H 0.93267 0.69073 0.60313 0.0
O116 O 1.00944 0.7223 0.56252 0.0
C117 C 0.93485 0.69707 0.54466 0.0
O118 O 0.92449 0.6717 0.5486 0.0
N119 N 0.98633 0.66618 0.5685 0.0
C120 C 0.99427 0.62308 0.57289 0.0
C121 C 1.00887 0.64348 0.55342 0.0
C122 C 1.00436 0.66459 0.55126 0.0
C123 C 0.97157 0.64612 0.58708 0.0
C124 C 0.97559 0.62478 0.59005 0.0
H125 H 1.01511 0.6795 0.53524 0.0
H126 H 0.95564 0.64589 0.59885 0.0
H127 H 1.00241 0.72418 0.50458 0.0
H128 H 0.95558 0.65228 0.46239 0.0
H129 H 0.98574 0.70174 0.66941 0.0
H130 H 0.02338 0.64294 0.53955 0.0
H131 H 0.96319 0.60907 0.60464 0.0
C132 C 0.31856 0.95743 0.6768 0.0
C133 C 0.32247 0.96405 0.64815 0.0
N134 N 0.31394 0.98102 0.64303 0.0
N135 N 0.30809 0.97056 0.68975 0.0
C136 C 0.30508 0.98453 0.66853 0.0
H137 H 0.32329 0.9441 0.68772 0.0
Co138 Co 0.29964 0.96709 0.72855 0.0
C139 C 0.3181 0.02505 0.73872 0.0
O140 O 0.34138 0.03065 0.74772 0.0
N141 N 0.29037 0.9628 0.76767 0.0
C142 C 0.2895 0.96864 0.81492 0.0
C143 C 0.30247 0.97961 0.78964 0.0
C144 C 0.27013 0.94174 0.78023 0.0
N145 N 0.26906 0.94478 0.809 0.0
O146 O 0.26311 0.95103 0.71746 0.0
H147 H 0.32013 0.99832 0.78778 0.0
H148 H 0.25637 0.92451 0.76845 0.0
O149 O 0.30157 1.00181 0.73028 0.0
C150 C 0.25472 0.92744 0.70933 0.0
O151 O 0.27012 0.91752 0.71311 0.0
N152 N 0.33576 0.98019 0.73794 0.0
C153 C 0.38684 0.98864 0.74401 0.0
C154 C 0.38146 1.00376 0.72485 0.0
C155 C 0.35585 0.99901 0.72184 0.0
C156 C 0.34074 0.96518 0.75651 0.0
C157 C 0.3661 0.96941 0.76029 0.0
H158 H 0.35204 1.00996 0.70574 0.0
H159 H 0.3248 0.94877 0.76745 0.0
H160 H 0.29698 0.99726 0.67175 0.0
H161 H 0.33076 0.95685 0.63222 0.0
H162 H 0.29519 0.97739 0.8361 0.0
H163 H 0.3968 0.01873 0.71166 0.0
H164 H 0.36911 0.95665 0.77465 0.0
C165 C 0.37777 0.30454 0.84794 0.0
C166 C 0.37734 0.30699 0.81863 0.0
N167 N 0.35294 0.30086 0.81078 0.0
N168 N 0.35387 0.29722 0.85867 0.0
C169 C 0.33892 0.29473 0.8355 0.0
H170 H 0.39439 0.30765 0.86079 0.0
Co171 Co 0.34707 0.29042 0.89751 0.0
C172 C 0.31057 0.31275 0.90461 0.0
O173 O 0.32916 0.33523 0.91451 0.0
N174 N 0.34065 0.28257 0.93696 0.0
C175 C 0.334 0.28298 0.98415 0.0
C176 C 0.33613 0.29537 0.95834 0.0
C177 C 0.34131 0.2626 0.95044 0.0
N178 N 0.3373 0.26231 0.97914 0.0
O179 O 0.32465 0.25392 0.88764 0.0
H180 H 0.33554 0.31323 0.95587 0.0
H181 H 0.34488 0.24859 0.93942 0.0
O182 O 0.3158 0.29505 0.89643 0.0
C183 C 0.33688 0.24159 0.88241 0.0
O184 O 0.36227 0.25357 0.88686 0.0
N185 N 0.3715 0.32645 0.90572 0.0
C186 C 0.4151 0.37704 0.91078 0.0
C187 C 0.39541 0.3716 0.8905 0.0
C188 C 0.37407 0.34623 0.88804 0.0
C189 C 0.39065 0.33142 0.92545 0.0
C190 C 0.41229 0.35659 0.92869 0.0
H191 H 0.3598 0.34234 0.87132 0.0
H192 H 0.38998 0.31559 0.9379 0.0
H193 H 0.3183 0.28853 0.83672 0.0
H194 H 0.3936 0.31222 0.80412 0.0
H195 H 0.33115 0.28933 0.00505 0.0
H196 H 0.3967 0.38671 0.87615 0.0
H197 H 0.42737 0.35964 0.94408 0.0
C198 C 0.66989 0.95224 0.82011 0.0
C199 C 0.673 0.9544 0.84947 0.0
N200 N 0.69823 0.9718 0.85513 0.0
N201 N 0.69306 0.9682 0.80735 0.0
C202 C 0.71004 0.98001 0.82925 0.0
H203 H 0.65212 0.93912 0.80865 0.0
Co204 Co 0.69835 0.96697 0.76817 0.0
C205 C 0.73577 0.02546 0.76009 0.0
O206 O 0.71713 0.02979 0.75139 0.0
N207 N 0.70359 0.96468 0.72853 0.0
C208 C 0.70962 0.97186 0.68132 0.0
C209 C 0.70797 0.98211 0.7073 0.0
C210 C 0.70259 0.944 0.71479 0.0
N211 N 0.70622 0.94782 0.68603 0.0
O212 O 0.7198 0.95148 0.77749 0.0
H213 H 0.70882 1.00065 0.71005 0.0
H214 H 0.69916 0.92638 0.72568 0.0
O215 O 0.73037 1.00241 0.76799 0.0
C216 C 0.70513 0.92743 0.78435 0.0
O217 O 0.67985 0.91683 0.77973 0.0
N218 N 0.67441 0.97936 0.76059 0.0
C219 C 0.63141 0.98739 0.75566 0.0
C220 C 0.6512 1.00132 0.77597 0.0
C221 C 0.67225 0.99677 0.77836 0.0
C222 C 0.65496 0.96529 0.74112 0.0
C223 C 0.63368 0.96938 0.7379 0.0
H224 H 0.68668 1.007 0.79499 0.0
H225 H 0.65509 0.94979 0.72882 0.0
H226 H 0.73082 0.99316 0.82634 0.0
H227 H 0.65803 0.9437 0.86549 0.0
H228 H 0.71223 0.98114 0.6605 0.0
H229 H 0.65022 1.01532 0.7903 0.0
H230 H 0.61845 0.95751 0.7226 0.0
C231 C 0.72828 0.65864 0.98243 0.0
C232 C 0.72526 0.65917 0.01163 0.0
N233 N 0.73315 0.68402 0.01949 0.0
N234 N 0.73776 0.68297 0.97173 0.0
C235 C 0.7409 0.69821 0.99486 0.0
H236 H 0.72412 0.64163 0.96966 0.0
Co237 Co 0.74605 0.6899 0.93298 0.0
C238 C 0.72635 0.72848 0.92485 0.0
O239 O 0.70387 0.71052 0.91431 0.0
N240 N 0.7552 0.6965 0.8938 0.0
C241 C 0.75576 0.70373 0.84665 0.0
C242 C 0.74288 0.70131 0.87212 0.0
C243 C 0.77546 0.69599 0.88081 0.0
N244 N 0.77632 0.70038 0.85212 0.0
O245 O 0.78257 0.71048 0.94417 0.0
H246 H 0.72497 0.70182 0.87413 0.0
H247 H 0.78924 0.69228 0.89217 0.0
O248 O 0.74326 0.72235 0.93365 0.0
C249 C 0.79143 0.69534 0.95094 0.0
O250 O 0.77658 0.67019 0.9456 0.0
N251 N 0.71 0.6668 0.92352 0.0
C252 C 0.65923 0.6236 0.918 0.0
C253 C 0.66458 0.64371 0.93771 0.0
C254 C 0.69004 0.66483 0.94044 0.0
C255 C 0.70504 0.64735 0.90418 0.0
C256 C 0.67981 0.62591 0.90072 0.0
H257 H 0.69389 0.67925 0.95699 0.0
H258 H 0.72096 0.64751 0.89245 0.0
H259 H 0.74879 0.71917 0.99367 0.0
H260 H 0.71847 0.64261 0.02609 0.0
H261 H 0.74978 0.70674 0.82561 0.0
H262 H 0.64937 0.64279 0.95159 0.0
H263 H 0.67682 0.61051 0.88582 0.0
C264 C 0.08988 0.73169 0.1521 0.0
C265 C 0.08792 0.73264 0.1815 0.0
N266 N 0.06874 0.73799 0.18746 0.0
N267 N 0.07198 0.73635 0.13963 0.0
C268 C 0.05927 0.74009 0.16171 0.0
H269 H 0.10406 0.72872 0.1404 0.0
Co270 Co 0.07193 0.74185 0.10046 0.0
C271 C 1.01281 0.71759 0.0936 0.0
O272 O 1.00945 0.69482 0.08542 0.0
N273 N 0.073 0.74847 0.06065 0.0
C274 C 0.06503 0.74592 0.01346 0.0
C275 C 0.05546 0.73448 0.03985 0.0
C276 C 0.09301 0.76826 0.04625 0.0
N277 N 0.08865 0.76721 0.01761 0.0
O278 O 0.08493 0.77842 0.10897 0.0
H279 H 0.03731 0.71652 0.04318 0.0
H280 H 0.11095 0.78273 0.05633 0.0
O281 O 0.03561 0.73607 0.1009 0.0
C282 C 0.10956 0.79128 0.11359 0.0
O283 O 0.12334 0.77968 0.10902 0.0
N284 N 0.06174 0.70598 0.0936 0.0
C285 C 0.05657 0.65607 0.08872 0.0
C286 C 0.04184 0.66092 0.10898 0.0
C287 C 0.04511 0.68607 0.11149 0.0
C288 C 0.07658 0.70161 0.07417 0.0
C289 C 0.07399 0.67683 0.07105 0.0
H290 H 0.03453 0.68964 0.12826 0.0
H291 H 0.0914 0.71763 0.06166 0.0
H292 H 0.04442 0.7456 0.15899 0.0
H293 H 0.0999 0.72998 0.19731 0.0
H294 H 0.05544 0.73899 0.99283 0.0
H295 H 0.0287 0.64573 0.12367 0.0
H296 H 0.086 0.67415 0.05528 0.0
C297 C 0.37775 0.07931 0.3152 0.0
C298 C 0.37762 0.07667 0.34453 0.0
N299 N 0.35319 0.05881 0.3528 0.0
N300 N 0.35362 0.063 0.30488 0.0
C301 C 0.33886 0.05093 0.32831 0.0
H302 H 0.3943 0.0925 0.30206 0.0
Co303 Co 0.34631 0.06281 0.2662 0.0
C304 C 0.308 1.00398 0.26093 0.0
O305 O 0.32579 0.99832 0.25242 0.0
N306 N 0.33927 0.06389 0.22699 0.0
C307 C 0.33097 0.05561 0.18015 0.0
C308 C 0.33357 0.04582 0.2061 0.0
C309 C 0.34004 0.08441 0.21316 0.0
N310 N 0.33496 0.07987 0.18476 0.0
O311 O 0.32475 0.0778 0.27639 0.0
H312 H 0.33219 0.02704 0.20914 0.0
H313 H 0.34504 0.10276 0.22344 0.0
O314 O 0.3145 0.02755 0.26783 0.0
C315 C 0.33733 0.10243 0.2811 0.0
O316 O 0.36263 0.11547 0.27605 0.0
N317 N 0.3699 0.05027 0.25749 0.0
C318 C 0.41293 0.0424 0.25154 0.0
C319 C 0.39353 0.0286 0.27229 0.0
C320 C 0.37249 0.03308 0.2752 0.0
C321 C 0.38873 0.06393 0.23724 0.0
C322 C 0.41006 0.05996 0.23356 0.0
H323 H 0.35859 0.02321 0.29239 0.0
H324 H 0.38813 0.0791 0.22475 0.0
H325 H 0.31815 0.03682 0.32742 0.0
H326 H 0.39411 0.0876 0.35877 0.0
H327 H 0.32654 0.0457 0.15953 0.0
H328 H 0.39489 1.01489 0.28674 0.0
H329 H 0.42494 0.07166 0.21783 0.0
C330 C 0.31747 0.368 0.48725 0.0
C331 C 0.32093 0.36524 0.51601 0.0
N332 N 0.31272 0.33981 0.52111 0.0
N333 N 0.3076 0.3445 0.47422 0.0
C334 C 0.30449 0.32753 0.49549 0.0
H335 H 0.32216 0.38604 0.4763 0.0
Co336 Co 0.30006 0.33968 0.43521 0.0
C337 C 0.31889 0.30019 0.42665 0.0
O338 O 0.34264 0.3179 0.419 0.0
N339 N 0.29174 0.33486 0.39589 0.0
C340 C 0.2923 0.32867 0.34864 0.0
C341 C 0.30405 0.32963 0.37452 0.0
C342 C 0.27254 0.33692 0.38243 0.0
N343 N 0.27247 0.33324 0.35369 0.0
O344 O 0.26331 0.31909 0.44535 0.0
H345 H 0.32102 0.32748 0.37723 0.0
H346 H 0.25928 0.34172 0.39332 0.0
O347 O 0.30209 0.30695 0.43391 0.0
C348 C 0.25459 0.33413 0.45305 0.0
O349 O 0.26986 0.35947 0.4493 0.0
N350 N 0.3364 0.3628 0.4267 0.0
C351 C 0.38754 0.40549 0.42146 0.0
C352 C 0.3818 0.38517 0.44103 0.0
C353 C 0.35616 0.36428 0.44359 0.0
C354 C 0.34174 0.38264 0.40775 0.0
C355 C 0.36714 0.40378 0.40437 0.0
H356 H 0.35206 0.34966 0.45997 0.0
H357 H 0.32605 0.38303 0.39615 0.0
H358 H 0.29685 0.30678 0.49221 0.0
H359 H 0.32879 0.38067 0.53202 0.0
H360 H 0.29792 0.3249 0.32774 0.0
H361 H 0.39687 0.38572 0.45484 0.0
H362 H 0.37043 0.41942 0.38966 0.0
C363 C 0.9608 0.30903 0.64899 0.0
C364 C 0.96433 0.31239 0.67817 0.0
N365 N 0.98154 0.3049 0.6863 0.0
N366 N 0.9759 0.29974 0.63858 0.0
C367 C 0.98814 0.29704 0.66186 0.0
H368 H 0.94785 0.31291 0.63604 0.0
Co369 Co 0.97484 0.29136 0.59989 0.0
C370 C 0.03324 0.31148 0.59258 0.0
O371 O 0.03779 0.33405 0.5822 0.0
N372 N 0.97254 0.2821 0.56083 0.0
C373 C 0.97947 0.28136 0.51375 0.0
C374 C 0.99008 0.29391 0.53934 0.0
C375 C 0.95145 0.26243 0.54766 0.0
N376 N 0.95516 0.26155 0.51906 0.0
O377 O 0.95907 0.25484 0.61122 0.0
H378 H 1.00897 0.31121 0.54156 0.0
H379 H 0.9333 0.24953 0.55859 0.0
O380 O 1.01014 0.29437 0.60094 0.0
C381 C 0.93505 0.24575 0.61797 0.0
O382 O 0.92453 0.26042 0.61266 0.0
N383 N 0.98766 0.32741 0.59016 0.0
C384 C 0.99544 0.37825 0.58361 0.0
C385 C 1.00974 0.37294 0.604 0.0
C386 C 1.0053 0.34746 0.60723 0.0
C387 C 0.97358 0.33231 0.5702 0.0
C388 C 0.9775 0.35758 0.56622 0.0
H389 H 1.01558 0.3437 0.62418 0.0
H390 H 0.95807 0.31636 0.55828 0.0
H391 H 1.00148 0.28946 0.66091 0.0
H392 H 0.95444 0.3192 0.69243 0.0
H393 H 0.98885 0.28658 0.49282 0.0
H394 H 0.02378 0.38823 0.61797 0.0
H395 H 0.96543 0.36053 0.55079 0.0
C396 C 0.26392 0.34297 0.30446 0.0
C397 C 0.25512 0.33431 0.33264 0.0
C398 C 0.24699 0.34351 0.2838 0.0
C399 C 0.18364 0.34196 0.27583 0.0
H400 H 0.18764 0.32141 0.19735 0.0
C401 C 0.10401 0.32024 0.19116 0.0
C402 C 0.11252 0.33168 0.16377 0.0
C403 C 0.12182 0.32096 0.21143 0.0
C404 C 0.18648 0.32741 0.21912 0.0
H405 H 0.2217 0.31927 0.36128 0.0
H406 H 0.19189 0.31967 0.32512 0.0
H407 H 0.21782 0.32196 0.23366 0.0
H408 H 0.14668 0.35266 0.13632 0.0
H409 H 0.17767 0.35339 0.17162 0.0
H410 H 0.15189 0.34685 0.26129 0.0
C411 C 0.21204 0.32664 0.31909 0.0
C412 C 0.2038 0.32782 0.23993 0.0
C413 C 0.22908 0.32634 0.33982 0.0
C414 C 0.1393 0.34337 0.15699 0.0
C415 C 0.15711 0.34388 0.17724 0.0
C416 C 0.16619 0.34132 0.25509 0.0
C417 C 0.22078 0.33516 0.29078 0.0
C418 C 0.20257 0.33506 0.26856 0.0
C419 C 0.14855 0.3329 0.20474 0.0
C420 C 0.1674 0.33399 0.22656 0.0
H421 H 0.28402 0.34964 0.29846 0.0
H422 H 0.25454 0.3507 0.2624 0.0
H423 H 0.18245 0.3481 0.29752 0.0
H424 H 0.08353 0.31057 0.19699 0.0
H425 H 0.11464 0.31194 0.23231 0.0
C426 C 0.79427 0.09394 0.35877 0.0
C427 C 0.79229 0.10294 0.33128 0.0
C428 C 0.81174 0.1112 0.3792 0.0
C429 C 0.87229 0.17412 0.38643 0.0
H430 H 0.84902 0.1722 0.4651 0.0
C431 C 0.93682 0.25215 0.46986 0.0
C432 C 0.93664 0.24388 0.4983 0.0
C433 C 0.91896 0.23502 0.44963 0.0
C434 C 0.85595 0.17276 0.44334 0.0
H435 H 0.80722 0.13748 0.30405 0.0
H436 H 0.83801 0.16739 0.33956 0.0
H437 H 0.81847 0.14203 0.42942 0.0
H438 H 0.91784 0.21113 0.52783 0.0
H439 H 0.88691 0.18095 0.4924 0.0
H440 H 0.90986 0.20449 0.40029 0.0
C441 C 0.82605 0.14688 0.34512 0.0
C442 C 0.83842 0.15553 0.4229 0.0
C443 C 0.80842 0.12966 0.32473 0.0
C444 C 0.9182 0.21811 0.50614 0.0
C445 C 0.90046 0.20087 0.48584 0.0
C446 C 0.88989 0.19121 0.4069 0.0
C447 C 0.82782 0.13782 0.37257 0.0
C448 C 0.84641 0.15608 0.39425 0.0
C449 C 0.90065 0.20912 0.45731 0.0
C450 C 0.88192 0.19079 0.4356 0.0
H451 H 0.78257 0.07348 0.36449 0.0
H452 H 0.81296 0.10362 0.40008 0.0
H453 H 0.87906 0.17472 0.36457 0.0
H454 H 0.95051 0.27204 0.46334 0.0
H455 H 0.91932 0.24221 0.42805 0.0
C456 C 0.69382 0.77799 0.52488 0.0
C457 C 0.70323 0.78632 0.4968 0.0
C458 C 0.69358 0.79549 0.54495 0.0
C459 C 0.69748 0.86004 0.55148 0.0
H460 H 0.71578 0.85517 0.63069 0.0
C461 C 0.71759 0.93886 0.63756 0.0
C462 C 0.70581 0.92978 0.66471 0.0
C463 C 0.71698 0.9214 0.6168 0.0
C464 C 0.71042 0.85661 0.6087 0.0
H465 H 0.71976 0.81947 0.46767 0.0
H466 H 0.71984 0.85032 0.50288 0.0
H467 H 0.71539 0.82482 0.59478 0.0
H468 H 0.68382 0.89491 0.69094 0.0
H469 H 0.68326 0.86464 0.65491 0.0
H470 H 0.69297 0.89221 0.56551 0.0
C471 C 0.71214 0.8301 0.50926 0.0
C472 C 0.71011 0.83919 0.58812 0.0
C473 C 0.71215 0.81248 0.48908 0.0
C474 C 0.69351 0.90277 0.67056 0.0
C475 C 0.69309 0.88535 0.64986 0.0
C476 C 0.69799 0.87762 0.57205 0.0
C477 C 0.70299 0.82184 0.5375 0.0
C478 C 0.70352 0.8406 0.55927 0.0
C479 C 0.70478 0.89449 0.62277 0.0
C480 C 0.70438 0.876 0.60088 0.0
H481 H 0.68636 0.75782 0.53126 0.0
H482 H 0.68584 0.7883 0.56629 0.0
H483 H 0.69194 0.86145 0.52957 0.0
H484 H 0.72761 0.95951 0.63238 0.0
H485 H 0.72644 0.92902 0.59621 0.0
C486 C 0.91848 0.7063 0.65661 0.0
C487 C 0.93522 0.69666 0.66388 0.0
C488 C 0.90124 0.70664 0.67704 0.0
C489 C 0.88985 0.70381 0.75594 0.0
H490 H 0.82031 0.68818 0.73293 0.0
C491 C 0.80904 0.68785 0.83755 0.0
C492 C 0.79461 0.7004 0.8314 0.0
C493 C 0.82638 0.68753 0.81724 0.0
C494 C 0.83975 0.6928 0.7396 0.0
H495 H 0.94655 0.67916 0.69796 0.0
H496 H 0.91619 0.67929 0.73348 0.0
H497 H 0.84991 0.68687 0.6971 0.0
H498 H 0.78773 0.72295 0.79907 0.0
H499 H 0.81759 0.72194 0.76357 0.0
H500 H 0.87943 0.70934 0.79856 0.0
C501 C 0.91681 0.68724 0.71225 0.0
C502 C 0.85675 0.69212 0.71908 0.0
C503 C 0.93418 0.6871 0.69189 0.0
C504 C 0.79808 0.71269 0.80444 0.0
C505 C 0.81525 0.71217 0.78407 0.0
C506 C 0.87277 0.70428 0.77649 0.0
C507 C 0.90021 0.69714 0.70514 0.0
C508 C 0.88204 0.69768 0.72698 0.0
C509 C 0.82953 0.69955 0.79024 0.0
C510 C 0.84759 0.69886 0.7685 0.0
H511 H 0.91911 0.71409 0.6353 0.0
H512 H 0.88905 0.7148 0.67094 0.0
H513 H 0.90933 0.70865 0.7627 0.0
H514 H 0.80666 0.67782 0.85782 0.0
H515 H 0.83694 0.6774 0.82244 0.0
C516 C 0.24657 0.935 0.85622 0.0
C517 C 0.25033 0.92638 0.82928 0.0
C518 C 0.22889 0.91724 0.87615 0.0
C519 C 0.17052 0.85248 0.88264 0.0
H520 H 0.19227 0.85725 0.96239 0.0
C521 C 0.10659 0.77556 0.96814 0.0
C522 C 0.10617 0.7847 0.996 0.0
C523 C 0.12408 0.79244 0.94741 0.0
C524 C 0.18574 0.85585 0.9403 0.0
H525 H 0.2382 0.89204 0.80238 0.0
H526 H 0.20698 0.86116 0.83705 0.0
H527 H 0.22284 0.88751 0.92684 0.0
H528 H 0.1232 0.8188 0.02377 0.0
H529 H 0.15339 0.84841 0.98755 0.0
H530 H 0.13326 0.82114 0.89612 0.0
C531 C 0.21777 0.88177 0.84256 0.0
C532 C 0.2033 0.87314 0.91994 0.0
C533 C 0.23563 0.89952 0.82267 0.0
C534 C 0.12337 0.81112 0.00262 0.0
C535 C 0.14071 0.82805 0.98186 0.0
C536 C 0.15286 0.83529 0.90306 0.0
C537 C 0.21437 0.89045 0.86956 0.0
C538 C 0.19583 0.87169 0.89094 0.0
C539 C 0.14141 0.81888 0.95405 0.0
C540 C 0.16023 0.83685 0.93217 0.0
H541 H 0.25707 0.95553 0.86192 0.0
H542 H 0.22635 0.92452 0.89664 0.0
H543 H 0.16418 0.85111 0.86047 0.0
H544 H 0.0938 0.75521 0.96255 0.0
H545 H 0.12435 0.78462 0.92636 0.0
C546 C 0.34889 0.22886 0.99352 0.0
C547 C 0.33725 0.2441 1e-05 0.0
C548 C 0.34851 0.21098 0.01353 0.0
C549 C 0.34321 0.19636 0.09061 0.0
H550 H 0.32232 0.12575 0.06581 0.0
C551 C 0.32654 0.11555 0.17178 0.0
C552 C 0.33461 0.09769 0.16382 0.0
C553 C 0.32663 0.13322 0.15168 0.0
C554 C 0.32856 0.14548 0.07303 0.0
H555 H 0.31603 0.2522 0.03291 0.0
H556 H 0.31593 0.22138 0.06798 0.0
H557 H 0.32338 0.15728 0.03101 0.0
H558 H 0.34934 0.08443 0.12874 0.0
H559 H 0.35005 0.11564 0.09367 0.0
H560 H 0.34893 0.18487 0.13247 0.0
C561 C 0.32537 0.22343 0.04733 0.0
C562 C 0.32907 0.16349 0.0531 0.0
C563 C 0.3255 0.24114 0.02722 0.0
C564 C 0.3427 0.09777 0.13533 0.0
C565 C 0.34304 0.11563 0.11526 0.0
C566 C 0.34296 0.17844 0.1105 0.0
C567 C 0.33675 0.2081 0.0406 0.0
C568 C 0.33632 0.18907 0.06173 0.0
C569 C 0.33504 0.13361 0.12321 0.0
C570 C 0.33554 0.15274 0.10197 0.0
H571 H 0.35862 0.23086 0.97314 0.0
H572 H 0.35777 0.19966 0.00796 0.0
H573 H 0.34921 0.21608 0.09773 0.0
H574 H 0.31983 0.11564 0.19349 0.0
H575 H 0.31982 0.1464 0.15842 0.0
C576 C 0.07682 0.45878 0.08131 0.0
C577 C 0.05366 0.4343 0.08131 0.0
C578 C 0.0759 0.48203 0.08173 0.0
C579 C 0.03379 0.50979 0.1002 0.0
H580 H 0.08155 0.56669 0.05058 0.0
C581 C 0.03084 0.60662 0.08927 0.0
C582 C 0.05501 0.63002 0.08716 0.0
C583 C 0.0296 0.58225 0.08799 0.0
C584 C 0.06828 0.55115 0.06485 0.0
H585 H 1.01132 0.4152 0.08212 0.0
H586 H 1.00971 0.45593 0.08281 0.0
H587 H 0.08138 0.5253 0.04976 0.0
H588 H 0.09688 0.646 0.08293 0.0
H589 H 0.09478 0.60377 0.08094 0.0
H590 H 1.02094 0.53581 0.11559 0.0
C591 C 0.0286 0.45704 0.0826 0.0
C592 C 0.06816 0.52736 0.06433 0.0
C593 C 0.02952 0.43371 0.08197 0.0
C594 C 0.07788 0.62842 0.08398 0.0
C595 C 0.07666 0.60412 0.08282 0.0
C596 C 0.034 0.53369 0.10083 0.0
C597 C 0.05181 0.48149 0.08225 0.0
C598 C 0.05109 0.50644 0.08217 0.0
C599 C 0.05251 0.58066 0.0847 0.0
C600 C 0.05143 0.55479 0.08334 0.0
H601 H 0.09576 0.46002 0.0804 0.0
H602 H 0.09416 0.50049 0.08177 0.0
H603 H 1.02055 0.49416 0.1144 0.0
H604 H 1.01282 0.60714 0.0915 0.0
H605 H 1.01062 0.56465 0.08916 0.0
C606 C 0.44815 0.03962 0.22346 0.0
C607 C 0.43692 0.03998 0.25011 0.0
C608 C 0.4713 0.03845 0.22234 0.0
C609 C 0.52957 0.0533 0.26589 0.0
H610 H 0.53887 1.00934 0.21051 0.0
C611 C 0.62122 0.04172 0.26812 0.0
C612 C 0.63232 0.041 0.24153 0.0
C613 C 0.59676 0.04018 0.26926 0.0
C614 C 0.53675 0.02196 0.22591 0.0
H615 H 0.44147 0.03953 0.2965 0.0
H616 H 0.48154 0.0372 0.29453 0.0
H617 H 0.49757 1.00949 0.21201 0.0
H618 H 0.62627 0.0381 0.19525 0.0
H619 H 0.58383 0.03568 0.19717 0.0
H620 H 0.56877 0.06611 0.27956 0.0
C621 C 0.47252 0.03793 0.27447 0.0
C622 C 0.51302 0.02202 0.22678 0.0
C623 C 0.44934 0.03894 0.27558 0.0
C624 C 0.61815 0.03831 0.21613 0.0
C625 C 0.59375 0.03691 0.21725 0.0
C626 C 0.55331 0.05335 0.26494 0.0
C627 C 0.48391 0.03784 0.24785 0.0
C628 C 0.50911 0.03766 0.24682 0.0
C629 C 0.58279 0.03805 0.24382 0.0
C630 C 0.55726 0.03767 0.24496 0.0
H631 H 0.43904 0.04024 0.20343 0.0
H632 H 0.47964 0.0386 0.20147 0.0
H633 H 0.52742 0.06593 0.28128 0.0
H634 H 0.63144 0.04342 0.28812 0.0
H635 H 0.58878 0.04058 0.29016 0.0
C636 C 0.59609 0.61083 0.38704 0.0
C637 C 0.6077 0.62517 0.4123 0.0
C638 C 0.57318 0.5864 0.38839 0.0
C639 C 0.51687 0.54551 0.43668 0.0
H640 H 0.5051 0.4903 0.38289 0.0
C641 C 0.42766 0.44094 0.44606 0.0
C642 C 0.41407 0.42927 0.42041 0.0
C643 C 0.45186 0.46414 0.4453 0.0
C644 C 0.50801 0.50559 0.39792 0.0
H645 H 0.60464 0.62465 0.45889 0.0
H646 H 0.565 0.58184 0.46137 0.0
H647 H 0.54633 0.53174 0.38152 0.0
H648 H 0.41566 0.43261 0.37381 0.0
H649 H 0.45795 0.47312 0.37248 0.0
H650 H 0.47859 0.51921 0.45319 0.0
C651 C 0.57322 0.58972 0.44038 0.0
C652 C 0.53166 0.52942 0.39712 0.0
C653 C 0.59604 0.61426 0.439 0.0
C654 C 0.42554 0.44115 0.39396 0.0
C655 C 0.44987 0.46426 0.39319 0.0
C656 C 0.49332 0.52163 0.43761 0.0
C657 C 0.56132 0.57552 0.41507 0.0
C658 C 0.53639 0.54979 0.4164 0.0
C659 C 0.46321 0.47619 0.41887 0.0
C660 C 0.48854 0.5014 0.41817 0.0
H661 H 0.60429 0.61884 0.36607 0.0
H662 H 0.56443 0.57637 0.36839 0.0
H663 H 0.51949 0.56082 0.45152 0.0
H664 H 0.41929 0.43252 0.46683 0.0
H665 H 0.46172 0.47267 0.46546 0.0
C666 C 0.99948 0.58774 0.54857 0.0
C667 C 0.99719 0.59937 0.57407 0.0
C668 C 1.00069 0.56461 0.54954 0.0
C669 C 0.98456 0.50781 0.59726 0.0
H670 H 0.02756 0.49539 0.54347 0.0
C671 C 0.99918 0.41828 0.60753 0.0
C672 C 0.99772 0.4046 0.58209 0.0
C673 C 1.00011 0.44245 0.60639 0.0
C674 C 1.01528 0.49847 0.55847 0.0
H675 H 0.99525 0.59619 0.62067 0.0
H676 H 0.99779 0.55616 0.62246 0.0
H677 H 0.02787 0.53695 0.54212 0.0
H678 H 0.99657 0.40598 0.53542 0.0
H679 H 0.99811 0.44822 0.53342 0.0
H680 H 0.97211 0.4694 0.6137 0.0
C681 C 0.99802 0.56453 0.6016 0.0
C682 C 1.01541 0.52231 0.5577 0.0
C683 C 0.99666 0.58756 0.6006 0.0
C684 C 0.99754 0.41592 0.55543 0.0
C685 C 0.99865 0.44022 0.55428 0.0
C686 C 0.98454 0.48407 0.59813 0.0
C687 C 0.99977 0.55255 0.57606 0.0
C688 C 1.00003 0.52732 0.57707 0.0
C689 C 0.9997 0.45368 0.57977 0.0
C690 C 0.99988 0.47907 0.57875 0.0
H691 H 0.99953 0.59606 0.52772 0.0
H692 H 1.00163 0.55583 0.5294 0.0
H693 H 0.97204 0.51065 0.61213 0.0
H694 H 0.999 0.41003 0.62846 0.0
H695 H 1.00119 0.45238 0.62643 0.0
C696 C 0.42766 0.99439 0.71999 0.0
C697 C 0.4134 0.99144 0.74541 0.0
C698 C 0.45191 0.99549 0.721 0.0
C699 C 0.50692 1.00847 0.7695 0.0
H700 H 0.5203 0.96755 0.71371 0.0
C701 C 0.59537 0.99164 0.77961 0.0
C702 C 0.60772 0.99032 0.75422 0.0
C703 C 0.57236 0.99301 0.77835 0.0
C704 C 0.51714 0.97944 0.72919 0.0
H705 H 0.41386 0.98793 0.79191 0.0
H706 H 0.45622 0.98984 0.79368 0.0
H707 H 0.47924 0.96796 0.7119 0.0
H708 H 0.60587 0.99017 0.70754 0.0
H709 H 0.56605 0.99303 0.70526 0.0
H710 H 0.54487 0.02011 0.78671 0.0
C711 C 0.44863 0.99137 0.77295 0.0
C712 C 0.49351 0.97962 0.72818 0.0
C713 C 0.42425 0.99007 0.77192 0.0
C714 C 0.5967 0.99084 0.72751 0.0
C715 C 0.57378 0.99239 0.72624 0.0
C716 C 0.53065 1.00844 0.77041 0.0
C717 C 0.46264 0.99383 0.74746 0.0
C718 C 0.48804 0.99406 0.74836 0.0
C719 C 0.56113 0.99325 0.75164 0.0
C720 C 0.53608 0.99384 0.75032 0.0
H721 H 0.41978 0.99518 0.69916 0.0
H722 H 0.46228 0.99765 0.70099 0.0
H723 H 0.50349 0.02007 0.78514 0.0
H724 H 0.60306 0.99084 0.80055 0.0
H725 H 0.56303 0.9932 0.79839 0.0
C726 C 0.45128 0.41685 0.88638 0.0
C727 C 0.43918 0.40338 0.91196 0.0
C728 C 0.47434 0.44116 0.88728 0.0
C729 C 0.53033 0.48316 0.93521 0.0
H730 H 0.54238 0.53716 0.8795 0.0
C731 C 0.61943 0.58786 0.94285 0.0
C732 C 0.63294 0.59944 0.91711 0.0
C733 C 0.59537 0.56451 0.94231 0.0
C734 C 0.53942 0.52221 0.89505 0.0
H735 H 0.44171 0.40528 0.9586 0.0
H736 H 0.48175 0.44783 0.96024 0.0
H737 H 0.50116 0.49569 0.87878 0.0
H738 H 0.63136 0.59566 0.87055 0.0
H739 H 0.58936 0.5548 0.8696 0.0
H740 H 0.56856 0.50977 0.95155 0.0
C741 C 0.47369 0.43937 0.9394 0.0
C742 C 0.51577 0.49837 0.89463 0.0
C743 C 0.45066 0.41497 0.93849 0.0
C744 C 0.62156 0.58721 0.89078 0.0
C745 C 0.59738 0.5639 0.89023 0.0
C746 C 0.55391 0.50703 0.93571 0.0
C747 C 0.48594 0.45276 0.91379 0.0
C748 C 0.51091 0.47845 0.91464 0.0
C749 C 0.58409 0.55214 0.91601 0.0
C750 C 0.5588 0.52684 0.91559 0.0
H751 H 0.44329 0.4083 0.86554 0.0
H752 H 0.4834 0.45056 0.86709 0.0
H753 H 0.52758 0.46819 0.95062 0.0
H754 H 0.62774 0.59651 0.96356 0.0
H755 H 0.58557 0.55616 0.96255 0.0
C756 C 0.99545 0.28554 0.72515 0.0
C757 C 0.98996 0.3049 0.71542 0.0
C758 C 1.00088 0.28427 0.75439 0.0
C759 C 0.98909 0.30434 0.82546 0.0
H760 H 0.04889 0.29971 0.85237 0.0
C761 C 0.03912 0.34694 0.93246 0.0
C762 C 0.04655 0.33249 0.95019 0.0
C763 C 0.02898 0.33789 0.90507 0.0
C764 C 0.03181 0.30046 0.84516 0.0
H765 H 0.98771 0.3391 0.72809 0.0
H766 H 0.99712 0.33696 0.77863 0.0
H767 H 0.03822 0.29486 0.80076 0.0
H768 H 0.04911 0.29721 0.95353 0.0
H769 H 0.03165 0.2814 0.90482 0.0
H770 H 0.98331 0.31112 0.86946 0.0
C771 C 0.99651 0.3223 0.76406 0.0
C772 C 0.02573 0.29772 0.81569 0.0
C773 C 0.99117 0.32357 0.73508 0.0
C774 C 0.04329 0.30853 0.94022 0.0
C775 C 0.03352 0.29963 0.91243 0.0
C776 C 0.99518 0.30715 0.85473 0.0
C777 C 1.0008 0.30231 0.7742 0.0
C778 C 1.00489 0.30065 0.8055 0.0
C779 C 0.02634 0.31432 0.89464 0.0
C780 C 1.01712 0.30617 0.86473 0.0
H781 H 0.99457 0.27086 0.71044 0.0
H782 H 1.00427 0.26874 0.76164 0.0
H783 H 0.97252 0.30604 0.81829 0.0
H784 H 0.04132 0.36537 0.9398 0.0
H785 H 0.02387 0.34976 0.8917 0.0
C786 C 0.70279 0.95933 0.9044 0.0
C787 C 0.70993 0.97871 0.8832 0.0
C788 C 0.71167 0.96614 0.93266 0.0
C789 C 0.75732 0.02188 0.97979 0.0
H790 H 0.70331 0.98401 0.03695 0.0
C791 C 0.75186 0.0635 0.09023 0.0
C792 C 0.74346 0.0467 0.11422 0.0
C793 C 0.75272 0.05405 0.06291 0.0
C794 C 0.7188 0.99447 0.02136 0.0
H795 H 0.73272 0.02016 0.87429 0.0
H796 H 0.74754 0.03246 0.92406 0.0
H797 H 0.69559 0.96967 0.9871 0.0
H798 H 0.7304 1.00717 0.12879 0.0
H799 H 0.73154 0.9904 0.08073 0.0
H800 H 0.77984 0.04758 0.01423 0.0
C801 C 0.73562 1.01188 0.91884 0.0
C802 C 0.71443 0.98622 0.9927 0.0
C803 C 0.72709 1.00495 0.89037 0.0
C804 C 0.73697 0.02049 0.11061 0.0
C805 C 0.73751 1.01092 0.08317 0.0
C806 C 0.76156 0.03031 0.00849 0.0
C807 C 0.72746 0.99258 0.94051 0.0
C808 C 0.73345 1.00004 0.97141 0.0
C809 C 0.74494 0.02753 0.05899 0.0
C810 C 0.74215 0.0169 0.02944 0.0
H811 H 0.68994 0.9389 0.89912 0.0
H812 H 0.70559 0.95068 0.94851 0.0
H813 H 0.77259 0.03273 0.96411 0.0
H814 H 0.75733 0.08389 0.09253 0.0
H815 H 0.75833 0.06725 0.04466 0.0
C816 C 0.75331 0.71779 0.05774 0.0
C817 C 0.73375 0.69286 0.04856 0.0
C818 C 0.75514 0.72489 0.08689 0.0
C819 C 0.73663 0.69411 0.15853 0.0
H820 H 0.74024 0.75828 0.18486 0.0
C821 C 0.69365 0.70156 0.26515 0.0
C822 C 0.70775 0.72357 0.28275 0.0
C823 C 0.70291 0.70045 0.23788 0.0
C824 C 0.73982 0.74055 0.17782 0.0
H825 H 0.69978 0.65666 0.06221 0.0
H826 H 0.70296 0.66889 0.11262 0.0
H827 H 0.74473 0.75206 0.13326 0.0
H828 H 0.74267 0.76162 0.28604 0.0
H829 H 0.75885 0.75997 0.23749 0.0
H830 H 0.73047 0.682 0.20269 0.0
C831 C 0.71732 0.68271 0.09764 0.0
C832 C 0.74234 0.73698 0.14835 0.0
C833 C 0.71547 0.67571 0.06874 0.0
C834 C 0.73161 0.74439 0.2728 0.0
C835 C 0.74072 0.74351 0.24512 0.0
C836 C 0.73405 0.69763 0.1878 0.0
C837 C 0.7375 0.70709 0.10718 0.0
C838 C 0.73971 0.71326 0.13839 0.0
C839 C 0.72635 0.7215 0.22744 0.0
C840 C 0.73463 0.72043 0.19759 0.0
H841 H 0.7677 0.73136 0.04264 0.0
H842 H 0.77078 0.74388 0.09371 0.0
H843 H 0.73514 0.67588 0.1515 0.0
H844 H 0.67529 0.68524 0.27249 0.0
H845 H 0.69129 0.68338 0.22459 0.0
C846 C 0.97505 0.69603 0.42278 0.0
C847 C 0.9918 0.70482 0.44679 0.0
C848 C 0.9844 0.70622 0.3954 0.0
C849 C 0.0443 0.73322 0.35385 0.0
H850 H 1.00479 0.74677 0.29632 0.0
C851 C 0.08014 0.75456 0.23706 0.0
C852 C 0.06111 0.74173 0.21567 0.0
C853 C 0.07281 0.75583 0.26534 0.0
C854 C 1.01599 0.74291 0.31208 0.0
H855 H 0.03116 0.73186 0.46126 0.0
H856 H 0.04773 0.74963 0.41311 0.0
H857 H 0.98979 0.73879 0.34639 0.0
H858 H 1.01964 0.72113 0.20655 0.0
H859 H 1.00653 0.72241 0.2563 0.0
H860 H 0.06974 0.73592 0.3197 0.0
C861 C 0.02733 0.73482 0.41558 0.0
C862 C 1.00746 0.73848 0.34075 0.0
C863 C 1.01786 0.7248 0.44309 0.0
C864 C 0.03461 0.73119 0.22274 0.0
C865 C 0.02719 0.73206 0.2512 0.0
C866 C 0.05268 0.73739 0.32522 0.0
C867 C 1.01078 0.72527 0.39141 0.0
C868 C 1.02134 0.7332 0.36182 0.0
C869 C 0.04622 0.74387 0.273 0.0
C870 C 0.03843 0.7419 0.30385 0.0
H871 H 0.95477 0.68092 0.42513 0.0
H872 H 0.97124 0.69833 0.37717 0.0
H873 H 0.05515 0.72876 0.36951 0.0
H874 H 0.10073 0.7633 0.23192 0.0
H875 H 0.08802 0.76572 0.28133 0.0
C876 C 0.29386 0.99557 0.60596 0.0
C877 C 0.31512 0.99326 0.6159 0.0
C878 C 0.29448 1.00555 0.57835 0.0
C879 C 0.33973 0.04612 0.52142 0.0
H880 H 0.28665 1.00107 0.46644 0.0
C881 C 0.36266 0.05135 0.40235 0.0
C882 C 0.3448 0.05088 0.38204 0.0
C883 C 0.35579 0.04613 0.43127 0.0
C884 C 0.30132 1.01412 0.48164 0.0
H885 H 0.35393 1.00039 0.60571 0.0
H886 H 0.35534 0.01829 0.55791 0.0
H887 H 0.2805 0.99004 0.51794 0.0
H888 H 0.30529 0.04361 0.37594 0.0
H889 H 0.29302 0.03411 0.42703 0.0
H890 H 0.36101 0.06973 0.48535 0.0
C891 C 0.33813 1.01226 0.57117 0.0
C892 C 0.29779 1.00783 0.51105 0.0
C893 C 0.33728 1.00187 0.59837 0.0
C894 C 0.31941 0.044 0.39114 0.0
C895 C 0.31244 0.03869 0.42032 0.0
C896 C 0.34319 0.05244 0.4922 0.0
C897 C 0.31666 1.01392 0.56075 0.0
C898 C 0.31748 0.02327 0.53097 0.0
C899 C 0.33083 0.04029 0.44072 0.0
C900 C 0.32456 0.03593 0.47188 0.0
H901 H 0.27651 0.98884 0.61916 0.0
H902 H 0.2777 1.00665 0.57071 0.0
H903 H 0.355 0.05852 0.53645 0.0
H904 H 0.38213 0.05591 0.39588 0.0
H905 H 0.37011 0.04671 0.44633 0.0
C906 C 0.29272 0.30508 0.55806 0.0
C907 C 0.31387 0.32879 0.54826 0.0
C908 C 0.29334 0.29567 0.58565 0.0
C909 C 0.33853 0.30026 0.64242 0.0
H910 H 0.2857 0.29235 0.69779 0.0
C911 C 0.36208 0.31788 0.76127 0.0
C912 C 0.34432 0.30052 0.78169 0.0
C913 C 0.35502 0.31626 0.73243 0.0
C914 C 0.3003 0.29393 0.68247 0.0
H915 H 0.35246 0.3607 0.55867 0.0
H916 H 0.35388 0.34412 0.60642 0.0
H917 H 0.27938 0.29729 0.64635 0.0
H918 H 0.3048 0.26844 0.78811 0.0
H919 H 0.2922 0.26572 0.73713 0.0
H920 H 0.35991 0.29782 0.67829 0.0
C921 C 0.33676 0.33288 0.59308 0.0
C922 C 0.29667 0.29672 0.6531 0.0
C923 C 0.33591 0.34246 0.56592 0.0
C924 C 0.31884 0.28211 0.7728 0.0
C925 C 0.31169 0.28049 0.7437 0.0
C926 C 0.34208 0.29735 0.67159 0.0
C927 C 0.31541 0.30958 0.60335 0.0
C928 C 0.31627 0.30094 0.63305 0.0
C929 C 0.32998 0.29721 0.72317 0.0
C930 C 0.32356 0.29529 0.69205 0.0
H931 H 0.27548 0.29437 0.54476 0.0
H932 H 0.27666 0.27767 0.59319 0.0
H933 H 0.35374 0.30313 0.62728 0.0
H934 H 0.38162 0.33269 0.7676 0.0
H935 H 0.36928 0.32996 0.71728 0.0
C936 C 0.26354 0.28222 0.9184 0.0
C937 C 0.28322 0.30689 0.90868 0.0
C938 C 0.23957 0.27884 0.92862 0.0
C939 C 0.19874 0.31113 0.93091 0.0
H940 H 0.17715 0.27918 0.00649 0.0
C941 C 0.14842 0.34394 0.01176 0.0
C942 C 0.12593 0.32536 0.02659 0.0
C943 C 0.16295 0.33629 0.99482 0.0
C944 C 0.18258 0.28769 0.98514 0.0
H945 H 0.29269 0.34686 0.90055 0.0
H946 H 0.2512 0.34099 0.91767 0.0
H947 H 0.21084 0.27519 0.97965 0.0
H948 H 0.10132 0.28394 0.0354 0.0
H949 H 0.12756 0.27046 0.00603 0.0
H950 H 0.1716 0.32483 0.93702 0.0
C951 C 0.25396 0.32415 0.91752 0.0
C952 C 0.20187 0.2854 0.96971 0.0
C953 C 0.27786 0.32757 0.90772 0.0
C954 C 0.11853 0.29873 0.02426 0.0
C955 C 0.13353 0.29103 0.00751 0.0
C956 C 0.17967 0.31353 0.94634 0.0
C957 C 0.23471 0.29996 0.92887 0.0
C958 C 0.21087 0.29792 0.94282 0.0
C959 C 0.15574 0.30981 0.99233 0.0
C960 C 0.17202 0.30264 0.97405 0.0
H961 H 0.26726 0.26602 0.9198 0.0
H962 H 0.22513 0.25991 0.93702 0.0
H963 H 0.20471 0.32052 0.91002 0.0
H964 H 0.15477 0.36463 0.01286 0.0
H965 H 0.18014 0.35127 0.9838 0.0
C966 C 0.96668 0.27098 0.07732 0.0
C967 C 0.99271 0.27639 0.07804 0.0
C968 C 0.94632 0.247 0.08704 0.0
C969 C 0.93328 0.19468 0.13875 0.0
H970 H 0.86345 0.16493 0.10675 0.0
C971 C 0.83585 0.11128 0.19259 0.0
C972 C 0.81733 0.11955 0.19583 0.0
C973 C 0.85865 0.12617 0.17602 0.0
C974 C 0.88288 0.17283 0.11583 0.0
H975 H 1.01775 0.26046 0.08862 0.0
H976 H 0.9819 0.21814 0.10574 0.0
H977 H 0.90078 0.19783 0.07946 0.0
H978 H 0.80847 0.15 0.1841 0.0
H979 H 0.84738 0.17515 0.15526 0.0
H980 H 0.9149 0.16997 0.17559 0.0
C981 C 0.97733 0.23261 0.09757 0.0
C982 C 0.90428 0.19178 0.10026 0.0
C983 C 0.99782 0.25669 0.08743 0.0
C984 C 0.82219 0.14292 0.18226 0.0
C985 C 0.84448 0.15736 0.16547 0.0
C986 C 0.91176 0.17546 0.15431 0.0
C987 C 0.95136 0.2277 0.09806 0.0
C988 C 0.92966 0.20378 0.11198 0.0
C989 C 0.86291 0.14916 0.16193 0.0
C990 C 0.88623 0.16511 0.14344 0.0
H991 H 0.96216 0.28584 0.0704 0.0
H992 H 0.92673 0.24422 0.0874 0.0
H993 H 0.95249 0.20355 0.14854 0.0
H994 H 0.83268 0.09337 0.20273 0.0
H995 H 0.87263 0.11946 0.1737 0.0
C996 C 0.73956 0.82834 0.35867 0.0
C997 C 0.7129 0.80917 0.36067 0.0
C998 C 0.74747 0.85122 0.34222 0.0
C999 C 0.72594 0.87543 0.28091 0.0
H1000 H 0.76317 0.94466 0.31495 0.0
C1001 C 0.7115 0.95921 0.24198 0.0
C1002 C 0.73195 0.98531 0.2432 0.0
C1003 C 0.71506 0.93884 0.25193 0.0
C1004 C 0.75329 0.92556 0.30481 0.0
H1005 H 0.67381 0.79917 0.34676 0.0
H1006 H 0.68755 0.83824 0.31818 0.0
H1007 H 0.75899 0.90686 0.34177 0.0
H1008 H 0.77257 1.01047 0.25496 0.0
H1009 H 0.77891 0.97462 0.2725 0.0
H1010 H 0.71946 0.89366 0.24439 0.0
C1011 C 0.70237 0.8358 0.32925 0.0
C1012 C 0.75088 0.90392 0.32024 0.0
C1013 C 0.6945 0.81341 0.3459 0.0
C1014 C 0.75655 0.9905 0.25339 0.0
C1015 C 0.76006 0.97001 0.26376 0.0
C1016 C 0.72847 0.89696 0.26548 0.0
C1017 C 0.72889 0.85494 0.32702 0.0
C1018 C 0.7363 0.8785 0.30885 0.0
C1019 C 0.73915 0.94395 0.26369 0.0
C1020 C 0.74125 0.92218 0.27766 0.0
H1021 H 0.75421 0.82567 0.36978 0.0
H1022 H 0.76806 0.86574 0.34094 0.0
H1023 H 0.71491 0.85611 0.2714 0.0
H1024 H 0.69229 0.95461 0.23442 0.0
H1025 H 0.69837 0.91918 0.25183 0.0
C1026 C 0.76908 0.70539 0.40921 0.0
C1027 C 0.76317 0.72567 0.41053 0.0
C1028 C 0.79309 0.70918 0.41907 0.0
C1029 C 0.84426 0.74768 0.47207 0.0
H1030 H 0.87558 0.70933 0.43905 0.0
C1031 C 0.9276 0.73358 0.52599 0.0
C1032 C 0.91957 0.70679 0.52853 0.0
C1033 C 0.91283 0.74168 0.50948 0.0
C1034 C 0.86725 0.72039 0.44842 0.0
H1035 H 0.77821 0.76625 0.42235 0.0
H1036 H 0.82057 0.77302 0.43972 0.0
H1037 H 0.84277 0.7139 0.41173 0.0
H1038 H 0.88969 0.66768 0.51557 0.0
H1039 H 0.86474 0.68177 0.48683 0.0
H1040 H 0.86844 0.75338 0.50921 0.0
C1041 C 0.80648 0.75411 0.43097 0.0
C1042 C 0.84835 0.72291 0.43283 0.0
C1043 C 0.78239 0.75036 0.42068 0.0
C1044 C 0.89657 0.68847 0.5143 0.0
C1045 C 0.88225 0.69652 0.49757 0.0
C1046 C 0.86343 0.7453 0.48764 0.0
C1047 C 0.81189 0.73335 0.43084 0.0
C1048 C 0.83578 0.73563 0.44489 0.0
C1049 C 0.8902 0.72315 0.49476 0.0
C1050 C 0.87434 0.73074 0.47639 0.0
H1051 H 0.75459 0.6861 0.40169 0.0
H1052 H 0.79625 0.69259 0.41893 0.0
H1053 H 0.83494 0.7575 0.48213 0.0
H1054 H 0.94522 0.74817 0.53666 0.0
H1055 H 0.91933 0.76237 0.50773 0.0
C1056 C 0.21051 0.91921 0.69123 0.0
C1057 C 0.22987 0.91194 0.69304 0.0
C1058 C 0.18763 0.90413 0.67486 0.0
C1059 C 0.16357 0.85835 0.61354 0.0
H1060 H 0.09442 0.82656 0.64773 0.0
C1061 C 0.07965 0.76042 0.57445 0.0
C1062 C 0.05359 0.7549 0.57576 0.0
C1063 C 0.10005 0.78425 0.58447 0.0
C1064 C 0.1135 0.83571 0.63756 0.0
H1065 H 0.24024 0.88314 0.67888 0.0
H1066 H 0.20116 0.8576 0.65044 0.0
H1067 H 0.13222 0.86011 0.67447 0.0
H1068 H 0.02854 0.77047 0.58777 0.0
H1069 H 0.06445 0.81249 0.60542 0.0
H1070 H 0.1453 0.83368 0.57706 0.0
C1071 C 0.20345 0.87478 0.66159 0.0
C1072 C 0.13515 0.85491 0.65294 0.0
C1073 C 0.22584 0.88942 0.67816 0.0
C1074 C 0.04848 0.77433 0.58613 0.0
C1075 C 0.06901 0.79823 0.59656 0.0
C1076 C 0.14203 0.8394 0.59816 0.0
C1077 C 0.18411 0.88194 0.65956 0.0
C1078 C 0.16054 0.86569 0.64149 0.0
C1079 C 0.09502 0.80326 0.59639 0.0
C1080 C 0.11683 0.82703 0.61038 0.0
H1081 H 0.21301 0.93644 0.70242 0.0
H1082 H 0.17297 0.91004 0.67373 0.0
H1083 H 0.18285 0.86661 0.60397 0.0
H1084 H 0.0842 0.74579 0.56675 0.0
H1085 H 0.11968 0.78712 0.58429 0.0
C1086 C 0.33258 0.19759 0.877 0.0
C1087 C 0.32397 0.21512 0.86941 0.0
C1088 C 0.32409 0.1743 0.86168 0.0
C1089 C 0.30564 0.1482 0.78953 0.0
H1090 H 0.28798 0.08202 0.82569 0.0
C1091 C 0.28628 0.03739 0.75895 0.0
C1092 C 0.30993 0.04463 0.7446 0.0
C1093 C 0.28178 0.05659 0.77122 0.0
C1094 C 0.29247 0.10021 0.81517 0.0
H1095 H 0.29938 0.22188 0.84011 0.0
H1096 H 0.28493 0.18119 0.81263 0.0
H1097 H 0.29086 0.11789 0.85501 0.0
H1098 H 0.34662 0.07746 0.7303 0.0
H1099 H 0.33837 0.11089 0.75063 0.0
H1100 H 0.30869 0.13099 0.74996 0.0
C1101 C 0.29794 0.18537 0.83083 0.0
C1102 C 0.29429 0.1208 0.832 0.0
C1103 C 0.30599 0.20849 0.84668 0.0
C1104 C 0.32811 0.07136 0.741 0.0
C1105 C 0.32338 0.0905 0.75266 0.0
C1106 C 0.30426 0.12774 0.77277 0.0
C1107 C 0.30724 0.16822 0.83792 0.0
C1108 C 0.30142 0.14521 0.81949 0.0
C1109 C 0.3006 0.08335 0.76881 0.0
C1110 C 0.29816 0.10367 0.78549 0.0
H1111 H 0.34658 0.20231 0.89431 0.0
H1112 H 0.33183 0.16167 0.86752 0.0
H1113 H 0.31139 0.16683 0.77929 0.0
H1114 H 0.27215 0.01691 0.7625 0.0
H1115 H 0.26402 0.05048 0.78348 0.0
C1116 C 0.75763 0.77521 0.91059 0.0
C1117 C 0.73303 0.75612 0.92111 0.0
C1118 C 0.7614 0.79931 0.9002 0.0
C1119 C 0.73023 0.84132 0.89795 0.0
H1120 H 0.7608 0.86095 0.82155 0.0
C1121 C 0.69628 0.88949 0.81557 0.0
C1122 C 0.7147 0.91227 0.80102 0.0
C1123 C 0.70417 0.87523 0.83267 0.0
C1124 C 0.75268 0.85606 0.84311 0.0
H1125 H 0.69367 0.74782 0.93051 0.0
H1126 H 0.70019 0.78948 0.91308 0.0
H1127 H 0.76482 0.82756 0.84902 0.0
H1128 H 0.7561 0.93763 0.79282 0.0
H1129 H 0.76999 0.91181 0.82236 0.0
H1130 H 0.71671 0.86858 0.89131 0.0
C1131 C 0.71671 0.78623 0.91276 0.0
C1132 C 0.755 0.83695 0.85892 0.0
C1133 C 0.71291 0.76223 0.92276 0.0
C1134 C 0.74142 0.92018 0.80371 0.0
C1135 C 0.74936 0.90543 0.82057 0.0
C1136 C 0.72774 0.86015 0.88211 0.0
C1137 C 0.74074 0.80485 0.90052 0.0
C1138 C 0.74295 0.82864 0.88614 0.0
C1139 C 0.73073 0.88299 0.83554 0.0
C1140 C 0.73815 0.8671 0.85413 0.0
H1141 H 0.77338 0.77088 0.90861 0.0
H1142 H 0.78021 0.81325 0.89112 0.0
H1143 H 0.72122 0.83591 0.91907 0.0
H1144 H 0.67553 0.88275 0.81424 0.0
H1145 H 0.68933 0.85787 0.84359 0.0
C1146 C 0.82061 0.68534 0.98055 0.0
C1147 C 0.81604 0.7043 0.96762 0.0
C1148 C 0.84259 0.69261 0.9977 0.0
C1149 C 0.90971 0.74189 0.01102 0.0
H1150 H 0.89773 0.70582 0.08428 0.0
C1151 C 0.99537 0.74734 0.07926 0.0
C1152 C 0.99089 0.72268 0.08846 0.0
C1153 C 0.97465 0.75028 0.06858 0.0
C1154 C 0.90152 0.71609 0.0639 0.0
H1155 H 0.83157 0.74601 0.96227 0.0
H1156 H 0.87093 0.75886 0.99195 0.0
H1157 H 0.86069 0.70155 0.05657 0.0
H1158 H 0.96102 0.68221 0.09513 0.0
H1159 H 0.92522 0.68727 0.07701 0.0
H1160 H 0.9505 0.75524 0.01761 0.0
C1161 C 0.85699 0.73827 0.98884 0.0
C1162 C 0.88026 0.71372 0.04809 0.0
C1163 C 0.83451 0.73093 0.9719 0.0
C1164 C 0.96513 0.7015 0.08832 0.0
C1165 C 0.94452 0.70446 0.07798 0.0
C1166 C 0.93108 0.7441 0.02679 0.0
C1167 C 0.86098 0.71909 0.00226 0.0
C1168 C 0.884 0.72588 0.02105 0.0
C1169 C 0.94901 0.7287 0.06726 0.0
C1170 C 0.92716 0.73046 0.053 0.0
H1171 H 0.80691 0.66463 0.97791 0.0
H1172 H 0.84527 0.67737 0.00737 0.0
H1173 H 0.91317 0.75139 0.99019 0.0
H1174 H 1.01506 0.76398 0.07878 0.0
H1175 H 0.97881 0.76929 0.06073 0.0
C1176 C 0.11181 0.82296 0.15123 0.0
C1177 C 0.12269 0.81753 0.12706 0.0
C1178 C 0.12697 0.84559 0.16776 0.0
C1179 C 0.18727 0.91071 0.16747 0.0
H1180 H 0.19356 0.89737 0.24815 0.0
C1181 C 0.27209 0.9575 0.25732 0.0
C1182 C 0.2803 0.98429 0.25503 0.0
C1183 C 0.2482 0.93858 0.24555 0.0
C1184 C 0.19182 0.90149 0.22575 0.0
H1185 H 0.1573 0.83194 0.10039 0.0
H1186 H 0.18331 0.87179 0.1284 0.0
H1187 H 0.16006 0.86254 0.2182 0.0
H1188 H 0.26945 1.01223 0.23946 0.0
H1189 H 0.22774 0.97909 0.21843 0.0
H1190 H 0.21954 0.94936 0.17474 0.0
C1191 C 0.16325 0.85862 0.13481 0.0
C1192 C 0.17252 0.8816 0.20864 0.0
C1193 C 0.14836 0.8358 0.11876 0.0
C1194 C 0.26346 0.99171 0.24198 0.0
C1195 C 0.23973 0.97276 0.22965 0.0
C1196 C 0.20628 0.93071 0.18467 0.0
C1197 C 0.15304 0.86343 0.15999 0.0
C1198 C 0.17051 0.88576 0.1791 0.0
C1199 C 0.23216 0.94602 0.23066 0.0
C1200 C 0.20926 0.92613 0.21383 0.0
H1201 H 0.09222 0.80893 0.15839 0.0
H1202 H 0.11856 0.84879 0.18704 0.0
H1203 H 0.18616 0.91453 0.14481 0.0
H1204 H 0.28476 0.95123 0.26703 0.0
H1205 H 0.24309 0.9182 0.24652 0.0
C1206 C 0.2874 0.25659 0.40504 0.0
C1207 C 0.31069 0.27254 0.42018 0.0
C1208 C 0.283 0.23306 0.39243 0.0
C1209 C 0.29434 0.20056 0.34854 0.0
H1210 H 0.31152 0.15162 0.38454 0.0
C1211 C 0.33416 0.14276 0.28707 0.0
C1212 C 0.32491 0.11642 0.29428 0.0
C1213 C 0.32588 0.15774 0.3024 0.0
C1214 C 0.30628 0.16486 0.37425 0.0
H1215 H 0.3468 0.27568 0.43553 0.0
H1216 H 0.33873 0.23429 0.41458 0.0
H1217 H 0.30867 0.1846 0.41403 0.0
H1218 H 0.29937 0.08492 0.32295 0.0
H1219 H 0.28526 0.11144 0.35044 0.0
H1220 H 0.29337 0.18176 0.30855 0.0
C1221 C 0.32394 0.23993 0.41218 0.0
C1222 C 0.3048 0.18384 0.39111 0.0
C1223 C 0.32857 0.26364 0.4242 0.0
C1224 C 0.30652 0.10508 0.31667 0.0
C1225 C 0.29865 0.1203 0.33253 0.0
C1226 C 0.29625 0.18188 0.33163 0.0
C1227 C 0.30157 0.22481 0.39528 0.0
C1228 C 0.29931 0.20224 0.37836 0.0
C1229 C 0.30856 0.14692 0.3258 0.0
C1230 C 0.30275 0.16414 0.3442 0.0
H1231 H 0.27349 0.26318 0.40117 0.0
H1232 H 0.26555 0.22178 0.3796 0.0
H1233 H 0.29033 0.21459 0.33801 0.0
H1234 H 0.34846 0.15203 0.27001 0.0
H1235 H 0.33407 0.17821 0.29684 0.0
C1236 C 0.08042 0.32504 0.59091 0.0
C1237 C 0.05426 0.30489 0.58885 0.0
C1238 C 0.10074 0.32147 0.58084 0.0
C1239 C 0.11371 0.28409 0.52625 0.0
H1240 H 0.18329 0.32199 0.55929 0.0
C1241 C 0.21059 0.29795 0.47142 0.0
C1242 C 0.22972 0.32464 0.46939 0.0
C1243 C 0.18779 0.29 0.48801 0.0
C1244 C 0.16394 0.3111 0.54988 0.0
H1245 H 0.02891 0.26472 0.57556 0.0
H1246 H 0.06464 0.25828 0.55797 0.0
H1247 H 0.14594 0.31707 0.58694 0.0
H1248 H 0.23974 0.36374 0.48341 0.0
H1249 H 0.20081 0.34991 0.51231 0.0
H1250 H 0.13218 0.27881 0.48882 0.0
C1251 C 0.06937 0.27694 0.56741 0.0
C1252 C 0.14251 0.30836 0.56567 0.0
C1253 C 0.04893 0.28048 0.57786 0.0
C1254 C 0.22551 0.34303 0.48428 0.0
C1255 C 0.20321 0.33511 0.5011 0.0
C1256 C 0.13524 0.28666 0.51049 0.0
C1257 C 0.09552 0.29766 0.56813 0.0
C1258 C 0.11722 0.29575 0.55367 0.0
C1259 C 0.18413 0.30856 0.50336 0.0
C1260 C 0.1607 0.30106 0.52175 0.0
H1261 H 0.08511 0.34415 0.59902 0.0
H1262 H 0.12045 0.33803 0.58148 0.0
H1263 H 0.09459 0.27438 0.5162 0.0
H1264 H 0.21324 0.2833 0.46024 0.0
H1265 H 0.17332 0.26939 0.48932 0.0
C1266 C 0.8968 0.21699 0.64894 0.0
C1267 C 0.91969 0.22117 0.63481 0.0
C1268 C 0.88227 0.1949 0.66602 0.0
C1269 C 0.86303 0.12713 0.67707 0.0
H1270 H 0.84175 0.13865 0.75229 0.0
C1271 C 0.78245 0.04142 0.74496 0.0
C1272 C 0.76313 0.0467 0.75529 0.0
C1273 C 0.80633 0.06182 0.73428 0.0
C1274 C 0.84745 0.13499 0.73137 0.0
H1275 H 0.94497 0.20487 0.62731 0.0
H1276 H 0.91872 0.16529 0.65685 0.0
H1277 H 0.87452 0.17576 0.72463 0.0
H1278 H 0.75424 0.07752 0.76402 0.0
H1279 H 0.79547 0.11276 0.74599 0.0
H1280 H 0.83477 0.08647 0.6831 0.0
C1281 C 0.91245 0.17963 0.65475 0.0
C1282 C 0.86634 0.15628 0.71558 0.0
C1283 C 0.92744 0.20224 0.6379 0.0
C1284 C 0.76878 0.07283 0.75635 0.0
C1285 C 0.79256 0.0931 0.74604 0.0
C1286 C 0.84387 0.10573 0.69283 0.0
C1287 C 0.88988 0.17598 0.66929 0.0
C1288 C 0.87373 0.15274 0.68787 0.0
C1289 C 0.81144 0.08789 0.73413 0.0
C1290 C 0.83516 0.10953 0.71977 0.0
H1291 H 0.89016 0.23109 0.64726 0.0
H1292 H 0.86482 0.19251 0.67661 0.0
H1293 H 0.86826 0.12383 0.65571 0.0
H1294 H 0.77852 0.02143 0.7435 0.0
H1295 H 0.82049 0.0571 0.72548 0.0
loop_
_geom_bond_atom_site_label_1
_geom_bond_atom_site_label_2
_geom_bond_distance
_geom_bond_site_symmetry_2
_ccdc_geom_bond_type
C0 C1 1.351 . S
C0 N3 1.368 1_556 S
C0 H5 0.931 . S
C1 C0 1.351 . S
C1 N2 1.373 . S
C1 H29 0.930 . S
N2 C1 1.373 . S
N2 C4 1.340 . S
N3 C0 1.368 1_554 S
N3 C4 1.321 1_554 S
N3 Co6 2.135 . S
C4 N2 1.340 . S
C4 N3 1.321 1_556 S
C4 H28 0.930 1_556 S
H5 C0 0.931 . S
Co6 N3 2.135 . S
Co6 N9 2.121 . S
Co6 O14 2.055 . S
Co6 O17 2.039 . S
Co6 N20 2.140 . S
C7 O8 1.227 . S
C7 O17 1.265 . S
O8 C7 1.227 . S
N9 Co6 2.121 . S
N9 C11 1.375 . S
N9 C12 1.313 . S
C10 C11 1.338 . S
C10 N13 1.377 . S
C10 H30 0.930 . S
C11 N9 1.375 . S
C11 C10 1.338 . S
C11 H15 0.931 . S
C12 N9 1.313 . S
C12 N13 1.344 . S
C12 H16 0.930 . S
N13 C10 1.377 . S
N13 C12 1.344 . S
O14 Co6 2.055 . S
O14 C18 1.253 . S
H15 C11 0.931 . S
H16 C12 0.930 . S
O17 Co6 2.039 . S
O17 C7 1.265 . S
C18 O14 1.253 . S
C18 O19 1.227 . S
O19 C18 1.227 . S
N20 Co6 2.140 . S
N20 C23 1.346 . S
N20 C24 1.345 . S
C21 C22 1.387 . S
C21 C25 1.391 . S
C22 C21 1.387 . S
C22 C23 1.369 . S
C22 H31 0.929 . S
C23 N20 1.346 . S
C23 C22 1.369 . S
C23 H26 0.928 . S
C24 N20 1.345 . S
C24 C25 1.371 . S
C24 H27 0.931 . S
C25 C21 1.391 . S
C25 C24 1.371 . S
C25 H32 0.930 . S
H26 C23 0.928 . S
H27 C24 0.931 . S
H28 C4 0.930 1_554 S
H29 C1 0.930 . S
H30 C10 0.930 . S
H31 C22 0.929 . S
H32 C25 0.930 . S
C33 C34 1.351 . S
C33 N36 1.368 . S
C33 H38 0.931 . S
C34 C33 1.351 . S
C34 N35 1.373 . S
C34 H62 0.930 . S
N35 C34 1.373 . S
N35 C37 1.340 . S
N36 C33 1.368 . S
N36 C37 1.321 . S
N36 Co39 2.135 . S
C37 N35 1.340 . S
C37 N36 1.321 . S
C37 H61 0.930 . S
H38 C33 0.931 . S
Co39 N36 2.135 . S
Co39 N42 2.121 . S
Co39 O47 2.055 . S
Co39 O50 2.039 . S
Co39 N53 2.140 . S
C40 O41 1.227 . S
C40 O50 1.265 . S
O41 C40 1.227 . S
N42 Co39 2.121 . S
N42 C44 1.375 . S
N42 C45 1.313 . S
C43 C44 1.338 . S
C43 N46 1.377 . S
C43 H63 0.930 . S
C44 N42 1.375 . S
C44 C43 1.338 . S
C44 H48 0.931 . S
C45 N42 1.313 . S
C45 N46 1.344 . S
C45 H49 0.930 . S
N46 C43 1.377 . S
N46 C45 1.344 . S
O47 Co39 2.055 . S
O47 C51 1.253 . S
H48 C44 0.931 . S
H49 C45 0.930 . S
O50 Co39 2.039 . S
O50 C40 1.265 . S
C51 O47 1.253 . S
C51 O52 1.227 . S
O52 C51 1.227 . S
N53 Co39 2.140 . S
N53 C56 1.346 . S
N53 C57 1.345 . S
C54 C55 1.387 . S
C54 C58 1.391 . S
C55 C54 1.387 . S
C55 C56 1.369 . S
C55 H64 0.929 . S
C56 N53 1.346 . S
C56 C55 1.369 . S
C56 H59 0.928 . S
C57 N53 1.345 . S
C57 C58 1.371 . S
C57 H60 0.931 . S
C58 C54 1.391 . S
C58 C57 1.371 . S
C58 H65 0.930 . S
H59 C56 0.928 . S
H60 C57 0.931 . S
H61 C37 0.930 . S
H62 C34 0.930 . S
H63 C43 0.930 . S
H64 C55 0.929 . S
H65 C58 0.930 . S
C66 C67 1.351 . S
C66 N69 1.368 . S
C66 H71 0.931 . S
C67 C66 1.351 . S
C67 N68 1.373 . S
C67 H95 0.930 . S
N68 C67 1.373 . S
N68 C70 1.340 . S
N69 C66 1.368 . S
N69 C70 1.321 . S
N69 Co72 2.135 . S
C70 N68 1.340 . S
C70 N69 1.321 . S
C70 H94 0.930 . S
H71 C66 0.931 . S
Co72 N69 2.135 . S
Co72 N75 2.121 . S
Co72 O80 2.055 . S
Co72 O83 2.039 . S
Co72 N86 2.140 . S
C73 O74 1.227 . S
C73 O83 1.265 . S
O74 C73 1.227 . S
N75 Co72 2.121 . S
N75 C77 1.375 . S
N75 C78 1.313 . S
C76 C77 1.338 . S
C76 N79 1.377 . S
C76 H96 0.930 . S
C77 N75 1.375 . S
C77 C76 1.338 . S
C77 H81 0.931 . S
C78 N75 1.313 . S
C78 N79 1.344 . S
C78 H82 0.930 . S
N79 C76 1.377 . S
N79 C78 1.344 . S
O80 Co72 2.055 . S
O80 C84 1.253 . S
H81 C77 0.931 . S
H82 C78 0.930 . S
O83 Co72 2.039 . S
O83 C73 1.265 . S
C84 O80 1.253 . S
C84 O85 1.227 . S
O85 C84 1.227 . S
N86 Co72 2.140 . S
N86 C89 1.346 . S
N86 C90 1.345 . S
C87 C88 1.387 . S
C87 C91 1.391 . S
C88 C87 1.387 . S
C88 C89 1.369 . S
C88 H97 0.929 . S
C89 N86 1.346 . S
C89 C88 1.369 . S
C89 H92 0.928 . S
C90 N86 1.345 . S
C90 C91 1.371 . S
C90 H93 0.931 . S
C91 C87 1.391 . S
C91 C90 1.371 . S
C91 H98 0.930 . S
H92 C89 0.928 . S
H93 C90 0.931 . S
H94 C70 0.930 . S
H95 C67 0.930 . S
H96 C76 0.930 . S
H97 C88 0.929 . S
H98 C91 0.930 . S
C99 C100 1.351 . S
C99 N102 1.368 . S
C99 H104 0.931 . S
C100 C99 1.351 . S
C100 N101 1.373 . S
C100 H128 0.930 . S
N101 C100 1.373 . S
N101 C103 1.340 . S
N102 C99 1.368 . S
N102 C103 1.321 . S
N102 Co105 2.135 . S
C103 N101 1.340 . S
C103 N102 1.321 . S
C103 H127 0.930 . S
H104 C99 0.931 . S
Co105 N102 2.135 . S
Co105 N108 2.121 . S
Co105 O113 2.055 . S
Co105 O116 2.039 . S
Co105 N119 2.140 . S
C106 O107 1.227 . S
C106 O116 1.265 . S
O107 C106 1.227 . S
N108 Co105 2.121 . S
N108 C110 1.375 . S
N108 C111 1.313 . S
C109 C110 1.338 . S
C109 N112 1.377 . S
C109 H129 0.930 . S
C110 N108 1.375 . S
C110 C109 1.338 . S
C110 H114 0.931 . S
C111 N108 1.313 . S
C111 N112 1.344 . S
C111 H115 0.930 . S
N112 C109 1.377 . S
N112 C111 1.344 . S
O113 Co105 2.055 . S
O113 C117 1.253 . S
H114 C110 0.931 . S
H115 C111 0.930 . S
O116 Co105 2.039 . S
O116 C106 1.265 . S
C117 O113 1.253 . S
C117 O118 1.227 . S
O118 C117 1.227 . S
N119 Co105 2.140 . S
N119 C122 1.346 . S
N119 C123 1.345 . S
C120 C121 1.387 . S
C120 C124 1.391 . S
C121 C120 1.387 . S
C121 C122 1.369 . S
C121 H130 0.929 . S
C122 N119 1.346 . S
C122 C121 1.369 . S
C122 H125 0.928 . S
C123 N119 1.345 . S
C123 C124 1.371 . S
C123 H126 0.931 . S
C124 C120 1.391 . S
C124 C123 1.371 . S
C124 H131 0.930 . S
H125 C122 0.928 . S
H126 C123 0.931 . S
H127 C103 0.930 . S
H128 C100 0.930 . S
H129 C109 0.930 . S
H130 C121 0.929 . S
H131 C124 0.930 . S
C132 C133 1.351 . S
C132 N135 1.368 . S
C132 H137 0.931 . S
C133 C132 1.351 . S
C133 N134 1.373 . S
C133 H161 0.930 . S
N134 C133 1.373 . S
N134 C136 1.340 . S
N135 C132 1.368 . S
N135 C136 1.321 . S
N135 Co138 2.135 . S
C136 N134 1.340 . S
C136 N135 1.321 . S
C136 H160 0.930 . S
H137 C132 0.931 . S
Co138 N135 2.135 . S
Co138 N141 2.121 . S
Co138 O146 2.055 . S
Co138 O149 2.039 . S
Co138 N152 2.140 . S
C139 O140 1.227 . S
C139 O149 1.265 . S
O140 C139 1.227 . S
N141 Co138 2.121 . S
N141 C143 1.375 . S
N141 C144 1.313 . S
C142 C143 1.338 . S
C142 N145 1.377 . S
C142 H162 0.930 . S
C143 N141 1.375 . S
C143 C142 1.338 . S
C143 H147 0.931 . S
C144 N141 1.313 . S
C144 N145 1.344 . S
C144 H148 0.930 . S
N145 C142 1.377 . S
N145 C144 1.344 . S
O146 Co138 2.055 . S
O146 C150 1.253 . S
H147 C143 0.931 . S
H148 C144 0.930 . S
O149 Co138 2.039 . S
O149 C139 1.265 . S
C150 O146 1.253 . S
C150 O151 1.227 . S
O151 C150 1.227 . S
N152 Co138 2.140 . S
N152 C155 1.346 . S
N152 C156 1.345 . S
C153 C154 1.387 . S
C153 C157 1.391 . S
C154 C153 1.387 . S
C154 C155 1.369 . S
C154 H163 0.929 . S
C155 N152 1.346 . S
C155 C154 1.369 . S
C155 H158 0.928 . S
C156 N152 1.345 . S
C156 C157 1.371 . S
C156 H159 0.931 . S
C157 C153 1.391 . S
C157 C156 1.371 . S
C157 H164 0.930 . S
H158 C155 0.928 . S
H159 C156 0.931 . S
H160 C136 0.930 . S
H161 C133 0.930 . S
H162 C142 0.930 . S
H163 C154 0.929 . S
H164 C157 0.930 . S
C165 C166 1.351 . S
C165 N168 1.368 . S
C165 H170 0.931 . S
C166 C165 1.351 . S
C166 N167 1.373 . S
C166 H194 0.930 . S
N167 C166 1.373 . S
N167 C169 1.340 . S
N168 C165 1.368 . S
N168 C169 1.321 . S
N168 Co171 2.135 . S
C169 N167 1.340 . S
C169 N168 1.321 . S
C169 H193 0.930 . S
H170 C165 0.931 . S
Co171 N168 2.135 . S
Co171 N174 2.121 . S
Co171 O179 2.055 . S
Co171 O182 2.039 . S
Co171 N185 2.140 . S
C172 O173 1.227 . S
C172 O182 1.265 . S
O173 C172 1.227 . S
N174 Co171 2.121 . S
N174 C176 1.375 . S
N174 C177 1.313 . S
C175 C176 1.338 . S
C175 N178 1.377 . S
C175 H195 0.930 . S
C176 N174 1.375 . S
C176 C175 1.338 . S
C176 H180 0.931 . S
C177 N174 1.313 . S
C177 N178 1.344 . S
C177 H181 0.930 . S
N178 C175 1.377 . S
N178 C177 1.344 . S
O179 Co171 2.055 . S
O179 C183 1.253 . S
H180 C176 0.931 . S
H181 C177 0.930 . S
O182 Co171 2.039 . S
O182 C172 1.265 . S
C183 O179 1.253 . S
C183 O184 1.227 . S
O184 C183 1.227 . S
N185 Co171 2.140 . S
N185 C188 1.346 . S
N185 C189 1.345 . S
C186 C187 1.387 . S
C186 C190 1.391 . S
C187 C186 1.387 . S
C187 C188 1.369 . S
C187 H196 0.929 . S
C188 N185 1.346 . S
C188 C187 1.369 . S
C188 H191 0.928 . S
C189 N185 1.345 . S
C189 C190 1.371 . S
C189 H192 0.931 . S
C190 C186 1.391 . S
C190 C189 1.371 . S
C190 H197 0.930 . S
H191 C188 0.928 . S
H192 C189 0.931 . S
H193 C169 0.930 . S
H194 C166 0.930 . S
H195 C175 0.930 . S
H196 C187 0.929 . S
H197 C190 0.930 . S
C198 C199 1.351 . S
C198 N201 1.368 . S
C198 H203 0.931 . S
C199 C198 1.351 . S
C199 N200 1.373 . S
C199 H227 0.930 . S
N200 C199 1.373 . S
N200 C202 1.340 . S
N201 C198 1.368 . S
N201 C202 1.321 . S
N201 Co204 2.135 . S
C202 N200 1.340 . S
C202 N201 1.321 . S
C202 H226 0.930 . S
H203 C198 0.931 . S
Co204 N201 2.135 . S
Co204 N207 2.121 . S
Co204 O212 2.055 . S
Co204 O215 2.039 . S
Co204 N218 2.140 . S
C205 O206 1.227 . S
C205 O215 1.265 . S
O206 C205 1.227 . S
N207 Co204 2.121 . S
N207 C209 1.375 . S
N207 C210 1.313 . S
C208 C209 1.338 . S
C208 N211 1.377 . S
C208 H228 0.930 . S
C209 N207 1.375 . S
C209 C208 1.338 . S
C209 H213 0.931 . S
C210 N207 1.313 . S
C210 N211 1.344 . S
C210 H214 0.930 . S
N211 C208 1.377 . S
N211 C210 1.344 . S
O212 Co204 2.055 . S
O212 C216 1.253 . S
H213 C209 0.931 . S
H214 C210 0.930 . S
O215 Co204 2.039 . S
O215 C205 1.265 . S
C216 O212 1.253 . S
C216 O217 1.227 . S
O217 C216 1.227 . S
N218 Co204 2.140 . S
N218 C221 1.346 . S
N218 C222 1.345 . S
C219 C220 1.387 . S
C219 C223 1.391 . S
C220 C219 1.387 . S
C220 C221 1.369 . S
C220 H229 0.929 . S
C221 N218 1.346 . S
C221 C220 1.369 . S
C221 H224 0.928 . S
C222 N218 1.345 . S
C222 C223 1.371 . S
C222 H225 0.931 . S
C223 C219 1.391 . S
C223 C222 1.371 . S
C223 H230 0.930 . S
H224 C221 0.928 . S
H225 C222 0.931 . S
H226 C202 0.930 . S
H227 C199 0.930 . S
H228 C208 0.930 . S
H229 C220 0.929 . S
H230 C223 0.930 . S
C231 C232 1.351 . S
C231 N234 1.368 1_554 S
C231 H236 0.931 . S
C232 C231 1.351 . S
C232 N233 1.373 . S
C232 H260 0.930 . S
N233 C232 1.373 . S
N233 C235 1.340 . S
N234 C231 1.368 1_556 S
N234 C235 1.321 1_556 S
N234 Co237 2.135 . S
C235 N233 1.340 . S
C235 N234 1.321 1_554 S
C235 H259 0.930 1_554 S
H236 C231 0.931 . S
Co237 N234 2.135 . S
Co237 N240 2.121 . S
Co237 O245 2.055 . S
Co237 O248 2.039 . S
Co237 N251 2.140 . S
C238 O239 1.227 . S
C238 O248 1.265 . S
O239 C238 1.227 . S
N240 Co237 2.121 . S
N240 C242 1.375 . S
N240 C243 1.313 . S
C241 C242 1.338 . S
C241 N244 1.377 . S
C241 H261 0.930 . S
C242 N240 1.375 . S
C242 C241 1.338 . S
C242 H246 0.931 . S
C243 N240 1.313 . S
C243 N244 1.344 . S
C243 H247 0.930 . S
N244 C241 1.377 . S
N244 C243 1.344 . S
O245 Co237 2.055 . S
O245 C249 1.253 . S
H246 C242 0.931 . S
H247 C243 0.930 . S
O248 Co237 2.039 . S
O248 C238 1.265 . S
C249 O245 1.253 . S
C249 O250 1.227 . S
O250 C249 1.227 . S
N251 Co237 2.140 . S
N251 C254 1.346 . S
N251 C255 1.345 . S
C252 C253 1.387 . S
C252 C256 1.391 . S
C253 C252 1.387 . S
C253 C254 1.369 . S
C253 H262 0.929 . S
C254 N251 1.346 . S
C254 C253 1.369 . S
C254 H257 0.928 . S
C255 N251 1.345 . S
C255 C256 1.371 . S
C255 H258 0.931 . S
C256 C252 1.391 . S
C256 C255 1.371 . S
C256 H263 0.930 . S
H257 C254 0.928 . S
H258 C255 0.931 . S
H259 C235 0.930 1_556 S
H260 C232 0.930 . S
H261 C241 0.930 . S
H262 C253 0.929 . S
H263 C256 0.930 . S
C264 C265 1.351 . S
C264 N267 1.368 . S
C264 H269 0.931 . S
C265 C264 1.351 . S
C265 N266 1.373 . S
C265 H293 0.930 . S
N266 C265 1.373 . S
N266 C268 1.340 . S
N267 C264 1.368 . S
N267 C268 1.321 . S
N267 Co270 2.135 . S
C268 N266 1.340 . S
C268 N267 1.321 . S
C268 H292 0.930 . S
H269 C264 0.931 . S
Co270 N267 2.135 . S
Co270 N273 2.121 . S
Co270 O278 2.055 . S
Co270 O281 2.039 . S
Co270 N284 2.140 . S
C271 O272 1.227 . S
C271 O281 1.265 . S
O272 C271 1.227 . S
N273 Co270 2.121 . S
N273 C275 1.375 . S
N273 C276 1.313 . S
C274 C275 1.338 . S
C274 N277 1.377 . S
C274 H294 0.930 . S
C275 N273 1.375 . S
C275 C274 1.338 . S
C275 H279 0.931 . S
C276 N273 1.313 . S
C276 N277 1.344 . S
C276 H280 0.930 . S
N277 C274 1.377 . S
N277 C276 1.344 . S
O278 Co270 2.055 . S
O278 C282 1.253 . S
H279 C275 0.931 . S
H280 C276 0.930 . S
O281 Co270 2.039 . S
O281 C271 1.265 . S
C282 O278 1.253 . S
C282 O283 1.227 . S
O283 C282 1.227 . S
N284 Co270 2.140 . S
N284 C287 1.346 . S
N284 C288 1.345 . S
C285 C286 1.387 . S
C285 C289 1.391 . S
C286 C285 1.387 . S
C286 C287 1.369 . S
C286 H295 0.929 . S
C287 N284 1.346 . S
C287 C286 1.369 . S
C287 H290 0.928 . S
C288 N284 1.345 . S
C288 C289 1.371 . S
C288 H291 0.931 . S
C289 C285 1.391 . S
C289 C288 1.371 . S
C289 H296 0.930 . S
H290 C287 0.928 . S
H291 C288 0.931 . S
H292 C268 0.930 . S
H293 C265 0.930 . S
H294 C274 0.930 . S
H295 C286 0.929 . S
H296 C289 0.930 . S
C297 C298 1.351 . S
C297 N300 1.368 . S
C297 H302 0.931 . S
C298 C297 1.351 . S
C298 N299 1.373 . S
C298 H326 0.930 . S
N299 C298 1.373 . S
N299 C301 1.340 . S
N300 C297 1.368 . S
N300 C301 1.321 . S
N300 Co303 2.135 . S
C301 N299 1.340 . S
C301 N300 1.321 . S
C301 H325 0.930 . S
H302 C297 0.931 . S
Co303 N300 2.135 . S
Co303 N306 2.121 . S
Co303 O311 2.055 . S
Co303 O314 2.039 . S
Co303 N317 2.140 . S
C304 O305 1.227 . S
C304 O314 1.265 . S
O305 C304 1.227 . S
N306 Co303 2.121 . S
N306 C308 1.375 . S
N306 C309 1.313 . S
C307 C308 1.338 . S
C307 N310 1.377 . S
C307 H327 0.930 . S
C308 N306 1.375 . S
C308 C307 1.338 . S
C308 H312 0.931 . S
C309 N306 1.313 . S
C309 N310 1.344 . S
C309 H313 0.930 . S
N310 C307 1.377 . S
N310 C309 1.344 . S
O311 Co303 2.055 . S
O311 C315 1.253 . S
H312 C308 0.931 . S
H313 C309 0.930 . S
O314 Co303 2.039 . S
O314 C304 1.265 . S
C315 O311 1.253 . S
C315 O316 1.227 . S
O316 C315 1.227 . S
N317 Co303 2.140 . S
N317 C320 1.346 . S
N317 C321 1.345 . S
C318 C319 1.387 . S
C318 C322 1.391 . S
C319 C318 1.387 . S
C319 C320 1.369 . S
C319 H328 0.929 . S
C320 N317 1.346 . S
C320 C319 1.369 . S
C320 H323 0.928 . S
C321 N317 1.345 . S
C321 C322 1.371 . S
C321 H324 0.931 . S
C322 C318 1.391 . S
C322 C321 1.371 . S
C322 H329 0.930 . S
H323 C320 0.928 . S
H324 C321 0.931 . S
H325 C301 0.930 . S
H326 C298 0.930 . S
H327 C307 0.930 . S
H328 C319 0.929 . S
H329 C322 0.930 . S
C330 C331 1.351 . S
C330 N333 1.368 . S
C330 H335 0.931 . S
C331 C330 1.351 . S
C331 N332 1.373 . S
C331 H359 0.930 . S
N332 C331 1.373 . S
N332 C334 1.340 . S
N333 C330 1.368 . S
N333 C334 1.321 . S
N333 Co336 2.135 . S
C334 N332 1.340 . S
C334 N333 1.321 . S
C334 H358 0.930 . S
H335 C330 0.931 . S
Co336 N333 2.135 . S
Co336 N339 2.121 . S
Co336 O344 2.055 . S
Co336 O347 2.039 . S
Co336 N350 2.140 . S
C337 O338 1.227 . S
C337 O347 1.265 . S
O338 C337 1.227 . S
N339 Co336 2.121 . S
N339 C341 1.375 . S
N339 C342 1.313 . S
C340 C341 1.338 . S
C340 N343 1.377 . S
C340 H360 0.930 . S
C341 N339 1.375 . S
C341 C340 1.338 . S
C341 H345 0.931 . S
C342 N339 1.313 . S
C342 N343 1.344 . S
C342 H346 0.930 . S
N343 C340 1.377 . S
N343 C342 1.344 . S
O344 Co336 2.055 . S
O344 C348 1.253 . S
H345 C341 0.931 . S
H346 C342 0.930 . S
O347 Co336 2.039 . S
O347 C337 1.265 . S
C348 O344 1.253 . S
C348 O349 1.227 . S
O349 C348 1.227 . S
N350 Co336 2.140 . S
N350 C353 1.346 . S
N350 C354 1.345 . S
C351 C352 1.387 . S
C351 C355 1.391 . S
C352 C351 1.387 . S
C352 C353 1.369 . S
C352 H361 0.929 . S
C353 N350 1.346 . S
C353 C352 1.369 . S
C353 H356 0.928 . S
C354 N350 1.345 . S
C354 C355 1.371 . S
C354 H357 0.931 . S
C355 C351 1.391 . S
C355 C354 1.371 . S
C355 H362 0.930 . S
H356 C353 0.928 . S
H357 C354 0.931 . S
H358 C334 0.930 . S
H359 C331 0.930 . S
H360 C340 0.930 . S
H361 C352 0.929 . S
H362 C355 0.930 . S
C363 C364 1.351 . S
C363 N366 1.368 . S
C363 H368 0.931 . S
C364 C363 1.351 . S
C364 N365 1.373 . S
C364 H392 0.930 . S
N365 C364 1.373 . S
N365 C367 1.340 . S
N366 C363 1.368 . S
N366 C367 1.321 . S
N366 Co369 2.135 . S
C367 N365 1.340 . S
C367 N366 1.321 . S
C367 H391 0.930 . S
H368 C363 0.931 . S
Co369 N366 2.135 . S
Co369 N372 2.121 . S
Co369 O377 2.055 . S
Co369 O380 2.039 . S
Co369 N383 2.140 . S
C370 O371 1.227 . S
C370 O380 1.265 . S
O371 C370 1.227 . S
N372 Co369 2.121 . S
N372 C374 1.375 . S
N372 C375 1.313 . S
C373 C374 1.338 . S
C373 N376 1.377 . S
C373 H393 0.930 . S
C374 N372 1.375 . S
C374 C373 1.338 . S
C374 H378 0.931 . S
C375 N372 1.313 . S
C375 N376 1.344 . S
C375 H379 0.930 . S
N376 C373 1.377 . S
N376 C375 1.344 . S
O377 Co369 2.055 . S
O377 C381 1.253 . S
H378 C374 0.931 . S
H379 C375 0.930 . S
O380 Co369 2.039 . S
O380 C370 1.265 . S
C381 O377 1.253 . S
C381 O382 1.227 . S
O382 C381 1.227 . S
N383 Co369 2.140 . S
N383 C386 1.346 . S
N383 C387 1.345 . S
C384 C385 1.387 . S
C384 C388 1.391 . S
C385 C384 1.387 . S
C385 C386 1.369 . S
C385 H394 0.929 . S
C386 N383 1.346 . S
C386 C385 1.369 . S
C386 H389 0.928 . S
C387 N383 1.345 . S
C387 C388 1.371 . S
C387 H390 0.931 . S
C388 C384 1.391 . S
C388 C387 1.371 . S
C388 H395 0.930 . S
H389 C386 0.928 . S
H390 C387 0.931 . S
H391 C367 0.930 . S
H392 C364 0.930 . S
H393 C373 0.930 . S
H394 C385 0.929 . S
H395 C388 0.930 . S
C396 C397 1.349 . S
C396 C398 1.327 . S
C396 H421 0.950 . S
C397 C396 1.349 . S
C397 C413 1.349 . S
C398 C396 1.327 . S
C398 C417 1.429 . S
C398 H422 0.950 . S
C399 C416 1.574 . S
C399 C418 1.368 . S
C399 H423 0.949 . S
H400 C404 0.949 . S
C401 C402 1.349 . S
C401 C403 1.327 . S
C401 H424 0.950 . S
C402 C401 1.349 . S
C402 C414 1.349 . S
C403 C401 1.327 . S
C403 C419 1.429 . S
C403 H425 0.950 . S
C404 H400 0.949 . S
C404 C412 1.574 . S
C404 C420 1.368 . S
H405 C413 0.950 . S
H406 C411 0.950 . S
H407 C412 0.949 . S
H408 C414 0.950 . S
H409 C415 0.950 . S
H410 C416 0.949 . S
C411 H406 0.950 . S
C411 C413 1.327 . S
C411 C417 1.429 . S
C412 C404 1.574 . S
C412 H407 0.949 . S
C412 C418 1.368 . S
C413 C397 1.349 . S
C413 H405 0.950 . S
C413 C411 1.327 . S
C414 C402 1.349 . S
C414 H408 0.950 . S
C414 C415 1.327 . S
C415 H409 0.950 . S
C415 C414 1.327 . S
C415 C419 1.429 . S
C416 C399 1.574 . S
C416 H410 0.949 . S
C416 C420 1.368 . S
C417 C398 1.429 . S
C417 C411 1.429 . S
C417 C418 1.523 . S
C418 C399 1.368 . S
C418 C412 1.368 . S
C418 C417 1.523 . S
C419 C403 1.429 . S
C419 C415 1.429 . S
C419 C420 1.523 . S
C420 C404 1.368 . S
C420 C416 1.368 . S
C420 C419 1.523 . S
H421 C396 0.950 . S
H422 C398 0.950 . S
H423 C399 0.949 . S
H424 C401 0.950 . S
H425 C403 0.950 . S
C426 C427 1.349 . S
C426 C428 1.327 . S
C426 H451 0.950 . S
C427 C426 1.349 . S
C427 C443 1.349 . S
C428 C426 1.327 . S
C428 C447 1.429 . S
C428 H452 0.950 . S
C429 C446 1.574 . S
C429 C448 1.368 . S
C429 H453 0.949 . S
H430 C434 0.949 . S
C431 C432 1.349 . S
C431 C433 1.327 . S
C431 H454 0.950 . S
C432 C431 1.349 . S
C432 C444 1.349 . S
C433 C431 1.327 . S
C433 C449 1.429 . S
C433 H455 0.950 . S
C434 H430 0.949 . S
C434 C442 1.574 . S
C434 C450 1.368 . S
H435 C443 0.950 . S
H436 C441 0.950 . S
H437 C442 0.949 . S
H438 C444 0.950 . S
H439 C445 0.950 . S
H440 C446 0.949 . S
C441 H436 0.950 . S
C441 C443 1.327 . S
C441 C447 1.429 . S
C442 C434 1.574 . S
C442 H437 0.949 . S
C442 C448 1.368 . S
C443 C427 1.349 . S
C443 H435 0.950 . S
C443 C441 1.327 . S
C444 C432 1.349 . S
C444 H438 0.950 . S
C444 C445 1.327 . S
C445 H439 0.950 . S
C445 C444 1.327 . S
C445 C449 1.429 . S
C446 C429 1.574 . S
C446 H440 0.949 . S
C446 C450 1.368 . S
C447 C428 1.429 . S
C447 C441 1.429 . S
C447 C448 1.523 . S
C448 C429 1.368 . S
C448 C442 1.368 . S
C448 C447 1.523 . S
C449 C433 1.429 . S
C449 C445 1.429 . S
C449 C450 1.523 . S
C450 C434 1.368 . S
C450 C446 1.368 . S
C450 C449 1.523 . S
H451 C426 0.950 . S
H452 C428 0.950 . S
H453 C429 0.949 . S
H454 C431 0.950 . S
H455 C433 0.950 . S
C456 C457 1.349 . S
C456 C458 1.327 . S
C456 H481 0.950 . S
C457 C456 1.349 . S
C457 C473 1.349 . S
C458 C456 1.327 . S
C458 C477 1.429 . S
C458 H482 0.950 . S
C459 C476 1.574 . S
C459 C478 1.368 . S
C459 H483 0.949 . S
H460 C464 0.949 . S
C461 C462 1.349 . S
C461 C463 1.327 . S
C461 H484 0.950 . S
C462 C461 1.349 . S
C462 C474 1.349 . S
C463 C461 1.327 . S
C463 C479 1.429 . S
C463 H485 0.950 . S
C464 H460 0.949 . S
C464 C472 1.574 . S
C464 C480 1.368 . S
H465 C473 0.950 . S
H466 C471 0.950 . S
H467 C472 0.949 . S
H468 C474 0.950 . S
H469 C475 0.950 . S
H470 C476 0.949 . S
C471 H466 0.950 . S
C471 C473 1.327 . S
C471 C477 1.429 . S
C472 C464 1.574 . S
C472 H467 0.949 . S
C472 C478 1.368 . S
C473 C457 1.349 . S
C473 H465 0.950 . S
C473 C471 1.327 . S
C474 C462 1.349 . S
C474 H468 0.950 . S
C474 C475 1.327 . S
C475 H469 0.950 . S
C475 C474 1.327 . S
C475 C479 1.429 . S
C476 C459 1.574 . S
C476 H470 0.949 . S
C476 C480 1.368 . S
C477 C458 1.429 . S
C477 C471 1.429 . S
C477 C478 1.523 . S
C478 C459 1.368 . S
C478 C472 1.368 . S
C478 C477 1.523 . S
C479 C463 1.429 . S
C479 C475 1.429 . S
C479 C480 1.523 . S
C480 C464 1.368 . S
C480 C476 1.368 . S
C480 C479 1.523 . S
H481 C456 0.950 . S
H482 C458 0.950 . S
H483 C459 0.949 . S
H484 C461 0.950 . S
H485 C463 0.950 . S
C486 C487 1.349 . S
C486 C488 1.327 . S
C486 H511 0.950 . S
C487 C486 1.349 . S
C487 C503 1.349 . S
C488 C486 1.327 . S
C488 C507 1.429 . S
C488 H512 0.950 . S
C489 C506 1.574 . S
C489 C508 1.368 . S
C489 H513 0.949 . S
H490 C494 0.949 . S
C491 C492 1.349 . S
C491 C493 1.327 . S
C491 H514 0.950 . S
C492 C491 1.349 . S
C492 C504 1.349 . S
C493 C491 1.327 . S
C493 C509 1.429 . S
C493 H515 0.950 . S
C494 H490 0.949 . S
C494 C502 1.574 . S
C494 C510 1.368 . S
H495 C503 0.950 . S
H496 C501 0.950 . S
H497 C502 0.949 . S
H498 C504 0.950 . S
H499 C505 0.950 . S
H500 C506 0.949 . S
C501 H496 0.950 . S
C501 C503 1.327 . S
C501 C507 1.429 . S
C502 C494 1.574 . S
C502 H497 0.949 . S
C502 C508 1.368 . S
C503 C487 1.349 . S
C503 H495 0.950 . S
C503 C501 1.327 . S
C504 C492 1.349 . S
C504 H498 0.950 . S
C504 C505 1.327 . S
C505 H499 0.950 . S
C505 C504 1.327 . S
C505 C509 1.429 . S
C506 C489 1.574 . S
C506 H500 0.949 . S
C506 C510 1.368 . S
C507 C488 1.429 . S
C507 C501 1.429 . S
C507 C508 1.523 . S
C508 C489 1.368 . S
C508 C502 1.368 . S
C508 C507 1.523 . S
C509 C493 1.429 . S
C509 C505 1.429 . S
C509 C510 1.523 . S
C510 C494 1.368 . S
C510 C506 1.368 . S
C510 C509 1.523 . S
H511 C486 0.950 . S
H512 C488 0.950 . S
H513 C489 0.949 . S
H514 C491 0.950 . S
H515 C493 0.950 . S
C516 C517 1.349 . S
C516 C518 1.327 . S
C516 H541 0.950 . S
C517 C516 1.349 . S
C517 C533 1.349 . S
C518 C516 1.327 . S
C518 C537 1.429 . S
C518 H542 0.950 . S
C519 C536 1.574 . S
C519 C538 1.368 . S
C519 H543 0.949 . S
H520 C524 0.949 . S
C521 C522 1.349 1_556 S
C521 C523 1.327 . S
C521 H544 0.950 . S
C522 C521 1.349 1_554 S
C522 C534 1.349 . S
C523 C521 1.327 . S
C523 C539 1.429 . S
C523 H545 0.950 . S
C524 H520 0.949 . S
C524 C532 1.574 . S
C524 C540 1.368 . S
H525 C533 0.950 . S
H526 C531 0.950 . S
H527 C532 0.949 . S
H528 C534 0.950 . S
H529 C535 0.950 . S
H530 C536 0.949 . S
C531 H526 0.950 . S
C531 C533 1.327 . S
C531 C537 1.429 . S
C532 C524 1.574 . S
C532 H527 0.949 . S
C532 C538 1.368 . S
C533 C517 1.349 . S
C533 H525 0.950 . S
C533 C531 1.327 . S
C534 C522 1.349 . S
C534 H528 0.950 . S
C534 C535 1.327 1_554 S
C535 H529 0.950 . S
C535 C534 1.327 1_556 S
C535 C539 1.429 . S
C536 C519 1.574 . S
C536 H530 0.949 . S
C536 C540 1.368 . S
C537 C518 1.429 . S
C537 C531 1.429 . S
C537 C538 1.523 . S
C538 C519 1.368 . S
C538 C532 1.368 . S
C538 C537 1.523 . S
C539 C523 1.429 . S
C539 C535 1.429 . S
C539 C540 1.523 . S
C540 C524 1.368 . S
C540 C536 1.368 . S
C540 C539 1.523 . S
H541 C516 0.950 . S
H542 C518 0.950 . S
H543 C519 0.949 . S
H544 C521 0.950 . S
H545 C523 0.950 . S
C546 C547 1.349 . S
C546 C548 1.327 1_556 S
C546 H571 0.950 . S
C547 C546 1.349 . S
C547 C563 1.349 1_556 S
C548 C546 1.327 1_554 S
C548 C567 1.429 . S
C548 H572 0.950 . S
C549 C566 1.574 . S
C549 C568 1.368 . S
C549 H573 0.949 . S
H550 C554 0.949 . S
C551 C552 1.349 . S
C551 C553 1.327 . S
C551 H574 0.950 . S
C552 C551 1.349 . S
C552 C564 1.349 . S
C553 C551 1.327 . S
C553 C569 1.429 . S
C553 H575 0.950 . S
C554 H550 0.949 . S
C554 C562 1.574 . S
C554 C570 1.368 . S
H555 C563 0.945 1_556 S
H556 C561 0.950 . S
H557 C562 0.949 . S
H558 C564 0.950 . S
H559 C565 0.950 . S
H560 C566 0.949 . S
C561 H556 0.950 . S
C561 C563 1.327 . S
C561 C567 1.429 . S
C562 C554 1.574 . S
C562 H557 0.949 . S
C562 C568 1.368 . S
C563 C547 1.349 1_554 S
C563 H555 0.945 1_554 S
C563 C561 1.327 . S
C564 C552 1.349 . S
C564 H558 0.950 . S
C564 C565 1.327 . S
C565 H559 0.950 . S
C565 C564 1.327 . S
C565 C569 1.429 . S
C566 C549 1.574 . S
C566 H560 0.949 . S
C566 C570 1.368 . S
C567 C548 1.429 . S
C567 C561 1.429 . S
C567 C568 1.523 . S
C568 C549 1.368 . S
C568 C562 1.368 . S
C568 C567 1.523 . S
C569 C553 1.429 . S
C569 C565 1.429 . S
C569 C570 1.523 . S
C570 C554 1.368 . S
C570 C566 1.368 . S
C570 C569 1.523 . S
H571 C546 0.950 . S
H572 C548 0.950 . S
H573 C549 0.949 . S
H574 C551 0.950 . S
H575 C553 0.950 . S
C576 C577 1.349 . S
C576 C578 1.327 . S
C576 H601 0.950 . S
C577 C576 1.349 . S
C577 C593 1.349 . S
C578 C576 1.327 . S
C578 C597 1.429 . S
C578 H602 0.950 . S
C579 C596 1.574 . S
C579 C598 1.368 . S
C579 H603 0.949 . S
H580 C584 0.949 . S
C581 C582 1.349 . S
C581 C583 1.327 . S
C581 H604 0.950 . S
C582 C581 1.349 . S
C582 C594 1.349 . S
C583 C581 1.327 . S
C583 C599 1.429 . S
C583 H605 0.950 . S
C584 H580 0.949 . S
C584 C592 1.574 . S
C584 C600 1.368 . S
H585 C593 0.950 . S
H586 C591 0.950 . S
H587 C592 0.949 . S
H588 C594 0.950 . S
H589 C595 0.950 . S
H590 C596 0.949 . S
C591 H586 0.950 . S
C591 C593 1.327 . S
C591 C597 1.429 . S
C592 C584 1.574 . S
C592 H587 0.949 . S
C592 C598 1.368 . S
C593 C577 1.349 . S
C593 H585 0.950 . S
C593 C591 1.327 . S
C594 C582 1.349 . S
C594 H588 0.950 . S
C594 C595 1.327 . S
C595 H589 0.950 . S
C595 C594 1.327 . S
C595 C599 1.429 . S
C596 C579 1.574 . S
C596 H590 0.949 . S
C596 C600 1.368 . S
C597 C578 1.429 . S
C597 C591 1.429 . S
C597 C598 1.523 . S
C598 C579 1.368 . S
C598 C592 1.368 . S
C598 C597 1.523 . S
C599 C583 1.429 . S
C599 C595 1.429 . S
C599 C600 1.523 . S
C600 C584 1.368 . S
C600 C596 1.368 . S
C600 C599 1.523 . S
H601 C576 0.950 . S
H602 C578 0.950 . S
H603 C579 0.949 . S
H604 C581 0.950 . S
H605 C583 0.950 . S
C606 C607 1.349 . S
C606 C608 1.327 . S
C606 H631 0.950 . S
C607 C606 1.349 . S
C607 C623 1.349 . S
C608 C606 1.327 . S
C608 C627 1.429 . S
C608 H632 0.950 . S
C609 C626 1.574 . S
C609 C628 1.368 . S
C609 H633 0.949 . S
H610 C614 0.949 . S
C611 C612 1.349 . S
C611 C613 1.327 . S
C611 H634 0.950 . S
C612 C611 1.349 . S
C612 C624 1.349 . S
C613 C611 1.327 . S
C613 C629 1.429 . S
C613 H635 0.950 . S
C614 H610 0.949 . S
C614 C622 1.574 . S
C614 C630 1.368 . S
H615 C623 0.950 . S
H616 C621 0.950 . S
H617 C622 0.949 . S
H618 C624 0.950 . S
H619 C625 0.950 . S
H620 C626 0.949 . S
C621 H616 0.950 . S
C621 C623 1.327 . S
C621 C627 1.429 . S
C622 C614 1.574 . S
C622 H617 0.949 . S
C622 C628 1.368 . S
C623 C607 1.349 . S
C623 H615 0.950 . S
C623 C621 1.327 . S
C624 C612 1.349 . S
C624 H618 0.950 . S
C624 C625 1.327 . S
C625 H619 0.950 . S
C625 C624 1.327 . S
C625 C629 1.429 . S
C626 C609 1.574 . S
C626 H620 0.949 . S
C626 C630 1.368 . S
C627 C608 1.429 . S
C627 C621 1.429 . S
C627 C628 1.523 . S
C628 C609 1.368 . S
C628 C622 1.368 . S
C628 C627 1.523 . S
C629 C613 1.429 . S
C629 C625 1.429 . S
C629 C630 1.523 . S
C630 C614 1.368 . S
C630 C626 1.368 . S
C630 C629 1.523 . S
H631 C606 0.950 . S
H632 C608 0.950 . S
H633 C609 0.949 . S
H634 C611 0.950 . S
H635 C613 0.950 . S
C636 C637 1.349 . S
C636 C638 1.327 . S
C636 H661 0.950 . S
C637 C636 1.349 . S
C637 C653 1.349 . S
C638 C636 1.327 . S
C638 C657 1.429 . S
C638 H662 0.950 . S
C639 C656 1.574 . S
C639 C658 1.368 . S
C639 H663 0.949 . S
H640 C644 0.949 . S
C641 C642 1.349 . S
C641 C643 1.327 . S
C641 H664 0.950 . S
C642 C641 1.349 . S
C642 C654 1.349 . S
C643 C641 1.327 . S
C643 C659 1.429 . S
C643 H665 0.950 . S
C644 H640 0.949 . S
C644 C652 1.574 . S
C644 C660 1.368 . S
H645 C653 0.950 . S
H646 C651 0.950 . S
H647 C652 0.949 . S
H648 C654 0.950 . S
H649 C655 0.950 . S
H650 C656 0.949 . S
C651 H646 0.950 . S
C651 C653 1.327 . S
C651 C657 1.429 . S
C652 C644 1.574 . S
C652 H647 0.949 . S
C652 C658 1.368 . S
C653 C637 1.349 . S
C653 H645 0.950 . S
C653 C651 1.327 . S
C654 C642 1.349 . S
C654 H648 0.950 . S
C654 C655 1.327 . S
C655 H649 0.950 . S
C655 C654 1.327 . S
C655 C659 1.429 . S
C656 C639 1.574 . S
C656 H650 0.949 . S
C656 C660 1.368 . S
C657 C638 1.429 . S
C657 C651 1.429 . S
C657 C658 1.523 . S
C658 C639 1.368 . S
C658 C652 1.368 . S
C658 C657 1.523 . S
C659 C643 1.429 . S
C659 C655 1.429 . S
C659 C660 1.523 . S
C660 C644 1.368 . S
C660 C656 1.368 . S
C660 C659 1.523 . S
H661 C636 0.950 . S
H662 C638 0.950 . S
H663 C639 0.949 . S
H664 C641 0.950 . S
H665 C643 0.950 . S
C666 C667 1.349 . S
C666 C668 1.327 . S
C666 H691 0.950 . S
C667 C666 1.349 . S
C667 C683 1.349 . S
C668 C666 1.327 . S
C668 C687 1.429 . S
C668 H692 0.950 . S
C669 C686 1.574 . S
C669 C688 1.368 . S
C669 H693 0.949 . S
H670 C674 0.949 . S
C671 C672 1.349 . S
C671 C673 1.327 . S
C671 H694 0.950 . S
C672 C671 1.349 . S
C672 C684 1.349 . S
C673 C671 1.327 . S
C673 C689 1.429 . S
C673 H695 0.950 . S
C674 H670 0.949 . S
C674 C682 1.574 . S
C674 C690 1.368 . S
H675 C683 0.950 . S
H676 C681 0.950 . S
H677 C682 0.949 . S
H678 C684 0.950 . S
H679 C685 0.950 . S
H680 C686 0.949 . S
C681 H676 0.950 . S
C681 C683 1.327 . S
C681 C687 1.429 . S
C682 C674 1.574 . S
C682 H677 0.949 . S
C682 C688 1.368 . S
C683 C667 1.349 . S
C683 H675 0.950 . S
C683 C681 1.327 . S
C684 C672 1.349 . S
C684 H678 0.950 . S
C684 C685 1.327 . S
C685 H679 0.950 . S
C685 C684 1.327 . S
C685 C689 1.429 . S
C686 C669 1.574 . S
C686 H680 0.949 . S
C686 C690 1.368 . S
C687 C668 1.429 . S
C687 C681 1.429 . S
C687 C688 1.523 . S
C688 C669 1.368 . S
C688 C682 1.368 . S
C688 C687 1.523 . S
C689 C673 1.429 . S
C689 C685 1.429 . S
C689 C690 1.523 . S
C690 C674 1.368 . S
C690 C686 1.368 . S
C690 C689 1.523 . S
H691 C666 0.950 . S
H692 C668 0.950 . S
H693 C669 0.949 . S
H694 C671 0.950 . S
H695 C673 0.950 . S
C696 C697 1.349 . S
C696 C698 1.327 . S
C696 H721 0.950 . S
C697 C696 1.349 . S
C697 C713 1.349 . S
C698 C696 1.327 . S
C698 C717 1.429 . S
C698 H722 0.950 . S
C699 C716 1.574 . S
C699 C718 1.368 . S
C699 H723 0.949 . S
H700 C704 0.949 . S
C701 C702 1.349 . S
C701 C703 1.327 . S
C701 H724 0.950 . S
C702 C701 1.349 . S
C702 C714 1.349 . S
C703 C701 1.327 . S
C703 C719 1.429 . S
C703 H725 0.950 . S
C704 H700 0.949 . S
C704 C712 1.574 . S
C704 C720 1.368 . S
H705 C713 0.950 . S
H706 C711 0.950 . S
H707 C712 0.949 . S
H708 C714 0.950 . S
H709 C715 0.950 . S
H710 C716 0.949 . S
C711 H706 0.950 . S
C711 C713 1.327 . S
C711 C717 1.429 . S
C712 C704 1.574 . S
C712 H707 0.949 . S
C712 C718 1.368 . S
C713 C697 1.349 . S
C713 H705 0.950 . S
C713 C711 1.327 . S
C714 C702 1.349 . S
C714 H708 0.950 . S
C714 C715 1.327 . S
C715 H709 0.950 . S
C715 C714 1.327 . S
C715 C719 1.429 . S
C716 C699 1.574 . S
C716 H710 0.949 . S
C716 C720 1.368 . S
C717 C698 1.429 . S
C717 C711 1.429 . S
C717 C718 1.523 . S
C718 C699 1.368 . S
C718 C712 1.368 . S
C718 C717 1.523 . S
C719 C703 1.429 . S
C719 C715 1.429 . S
C719 C720 1.523 . S
C720 C704 1.368 . S
C720 C716 1.368 . S
C720 C719 1.523 . S
H721 C696 0.950 . S
H722 C698 0.950 . S
H723 C699 0.949 . S
H724 C701 0.950 . S
H725 C703 0.950 . S
C726 C727 1.349 . S
C726 C728 1.327 . S
C726 H751 0.950 . S
C727 C726 1.349 . S
C727 C743 1.349 . S
C728 C726 1.327 . S
C728 C747 1.429 . S
C728 H752 0.950 . S
C729 C746 1.574 . S
C729 C748 1.368 . S
C729 H753 0.949 . S
H730 C734 0.949 . S
C731 C732 1.349 . S
C731 C733 1.327 . S
C731 H754 0.950 . S
C732 C731 1.349 . S
C732 C744 1.349 . S
C733 C731 1.327 . S
C733 C749 1.429 . S
C733 H755 0.950 . S
C734 H730 0.949 . S
C734 C742 1.574 . S
C734 C750 1.368 . S
H735 C743 0.950 . S
H736 C741 0.950 . S
H737 C742 0.949 . S
H738 C744 0.950 . S
H739 C745 0.950 . S
H740 C746 0.949 . S
C741 H736 0.950 . S
C741 C743 1.327 . S
C741 C747 1.429 . S
C742 C734 1.574 . S
C742 H737 0.949 . S
C742 C748 1.368 . S
C743 C727 1.349 . S
C743 H735 0.950 . S
C743 C741 1.327 . S
C744 C732 1.349 . S
C744 H738 0.950 . S
C744 C745 1.327 . S
C745 H739 0.950 . S
C745 C744 1.327 . S
C745 C749 1.429 . S
C746 C729 1.574 . S
C746 H740 0.949 . S
C746 C750 1.368 . S
C747 C728 1.429 . S
C747 C741 1.429 . S
C747 C748 1.523 . S
C748 C729 1.368 . S
C748 C742 1.368 . S
C748 C747 1.523 . S
C749 C733 1.429 . S
C749 C745 1.429 . S
C749 C750 1.523 . S
C750 C734 1.368 . S
C750 C746 1.368 . S
C750 C749 1.523 . S
H751 C726 0.950 . S
H752 C728 0.950 . S
H753 C729 0.949 . S
H754 C731 0.950 . S
H755 C733 0.950 . S
C756 C757 1.349 . S
C756 C758 1.327 . S
C756 H781 0.950 . S
C757 C756 1.349 . S
C757 C773 1.349 . S
C758 C756 1.327 . S
C758 C777 1.429 . S
C758 H782 0.950 . S
C759 C776 1.565 1_655 S
C759 C778 1.368 . S
C759 H783 0.949 . S
H760 C764 0.949 . S
C761 C762 1.349 . S
C761 C763 1.327 . S
C761 H784 0.950 . S
C762 C761 1.349 . S
C762 C774 1.349 . S
C763 C761 1.327 . S
C763 C779 1.429 . S
C763 H785 0.950 . S
C764 H760 0.949 . S
C764 C772 1.565 1_455 S
C764 C780 1.368 . S
H765 C773 0.950 . S
H766 C771 0.950 . S
H767 C772 0.936 . S
H768 C774 0.950 . S
H769 C775 0.950 . S
H770 C776 0.936 . S
C771 H766 0.950 . S
C771 C773 1.327 . S
C771 C777 1.429 . S
C772 C764 1.565 1_655 S
C772 H767 0.936 . S
C772 C778 1.392 . S
C773 C757 1.349 . S
C773 H765 0.950 . S
C773 C771 1.327 . S
C774 C762 1.349 . S
C774 H768 0.950 . S
C774 C775 1.327 . S
C775 H769 0.950 . S
C775 C774 1.327 . S
C775 C779 1.429 . S
C776 C759 1.565 1_455 S
C776 H770 0.936 . S
C776 C780 1.392 . S
C777 C758 1.429 . S
C777 C771 1.429 . S
C777 C778 1.523 . S
C778 C759 1.368 . S
C778 C772 1.392 . S
C778 C777 1.523 . S
C779 C763 1.429 . S
C779 C775 1.429 . S
C779 C780 1.523 . S
C780 C764 1.368 . S
C780 C776 1.392 . S
C780 C779 1.523 . S
H781 C756 0.950 . S
H782 C758 0.950 . S
H783 C759 0.949 . S
H784 C761 0.950 . S
H785 C763 0.950 . S
C786 C787 1.349 . S
C786 C788 1.327 . S
C786 H811 0.950 . S
C787 C786 1.349 . S
C787 C803 1.349 . S
C788 C786 1.327 . S
C788 C807 1.429 . S
C788 H812 0.950 . S
C789 C806 1.574 1_556 S
C789 C808 1.368 1_545 S
C789 H813 0.949 . S
H790 C794 0.949 . S
C791 C792 1.349 . S
C791 C793 1.327 . S
C791 H814 0.950 . S
C792 C791 1.349 . S
C792 C804 1.349 . S
C793 C791 1.327 . S
C793 C809 1.429 . S
C793 H815 0.950 . S
C794 H790 0.949 . S
C794 C802 1.574 1_554 S
C794 C810 1.368 1_565 S
H795 C803 0.950 1_545 S
H796 C801 0.950 . S
H797 C802 0.949 . S
H798 C804 0.950 1_565 S
H799 C805 0.950 . S
H800 C806 0.949 . S
C801 H796 0.950 . S
C801 C803 1.327 1_545 S
C801 C807 1.429 1_545 S
C802 C794 1.574 1_556 S
C802 H797 0.949 . S
C802 C808 1.368 . S
C803 C787 1.349 . S
C803 H795 0.950 1_565 S
C803 C801 1.327 1_565 S
C804 C792 1.349 . S
C804 H798 0.950 1_545 S
C804 C805 1.327 1_545 S
C805 H799 0.950 . S
C805 C804 1.327 1_565 S
C805 C809 1.429 1_565 S
C806 C789 1.574 1_554 S
C806 H800 0.949 . S
C806 C810 1.368 . S
C807 C788 1.429 . S
C807 C801 1.429 1_565 S
C807 C808 1.523 . S
C808 C789 1.368 1_565 S
C808 C802 1.368 . S
C808 C807 1.523 . S
C809 C793 1.429 . S
C809 C805 1.429 1_545 S
C809 C810 1.523 . S
C810 C794 1.368 1_545 S
C810 C806 1.368 . S
C810 C809 1.523 . S
H811 C786 0.950 . S
H812 C788 0.950 . S
H813 C789 0.949 . S
H814 C791 0.950 . S
H815 C793 0.950 . S
C816 C817 1.349 . S
C816 C818 1.327 . S
C816 H841 0.950 . S
C817 C816 1.349 . S
C817 C833 1.349 . S
C818 C816 1.327 . S
C818 C837 1.429 . S
C818 H842 0.950 . S
C819 C836 1.574 . S
C819 C838 1.368 . S
C819 H843 0.949 . S
H820 C824 0.949 . S
C821 C822 1.349 . S
C821 C823 1.327 . S
C821 H844 0.950 . S
C822 C821 1.349 . S
C822 C834 1.349 . S
C823 C821 1.327 . S
C823 C839 1.429 . S
C823 H845 0.950 . S
C824 H820 0.949 . S
C824 C832 1.574 . S
C824 C840 1.368 . S
H825 C833 0.950 . S
H826 C831 0.950 . S
H827 C832 0.949 . S
H828 C834 0.950 . S
H829 C835 0.950 . S
H830 C836 0.949 . S
C831 H826 0.950 . S
C831 C833 1.327 . S
C831 C837 1.429 . S
C832 C824 1.574 . S
C832 H827 0.949 . S
C832 C838 1.368 . S
C833 C817 1.349 . S
C833 H825 0.950 . S
C833 C831 1.327 . S
C834 C822 1.349 . S
C834 H828 0.950 . S
C834 C835 1.327 . S
C835 H829 0.950 . S
C835 C834 1.327 . S
C835 C839 1.429 . S
C836 C819 1.574 . S
C836 H830 0.949 . S
C836 C840 1.368 . S
C837 C818 1.429 . S
C837 C831 1.429 . S
C837 C838 1.523 . S
C838 C819 1.368 . S
C838 C832 1.368 . S
C838 C837 1.523 . S
C839 C823 1.429 . S
C839 C835 1.429 . S
C839 C840 1.523 . S
C840 C824 1.368 . S
C840 C836 1.368 . S
C840 C839 1.523 . S
H841 C816 0.950 . S
H842 C818 0.950 . S
H843 C819 0.949 . S
H844 C821 0.950 . S
H845 C823 0.950 . S
C846 C847 1.349 . S
C846 C848 1.327 . S
C846 H871 0.950 . S
C847 C846 1.349 . S
C847 C863 1.349 . S
C848 C846 1.327 . S
C848 C867 1.429 . S
C848 H872 0.950 . S
C849 C866 1.574 . S
C849 C868 1.368 1_455 S
C849 H873 0.949 . S
H850 C854 0.949 . S
C851 C852 1.349 . S
C851 C853 1.327 . S
C851 H874 0.950 . S
C852 C851 1.349 . S
C852 C864 1.349 . S
C853 C851 1.327 . S
C853 C869 1.429 . S
C853 H875 0.950 . S
C854 H850 0.949 . S
C854 C862 1.574 . S
C854 C870 1.368 1_655 S
H855 C863 0.950 1_455 S
H856 C861 0.967 . S
H857 C862 0.949 . S
H858 C864 0.950 1_655 S
H859 C865 0.967 . S
H860 C866 0.949 . S
C861 H856 0.967 . S
C861 C863 1.320 1_455 S
C861 C867 1.419 1_455 S
C862 C854 1.574 . S
C862 H857 0.949 . S
C862 C868 1.368 . S
C863 C847 1.349 . S
C863 H855 0.950 1_655 S
C863 C861 1.320 1_655 S
C864 C852 1.349 . S
C864 H858 0.950 1_455 S
C864 C865 1.320 1_455 S
C865 H859 0.967 . S
C865 C864 1.320 1_655 S
C865 C869 1.419 1_655 S
C866 C849 1.574 . S
C866 H860 0.949 . S
C866 C870 1.368 . S
C867 C848 1.429 . S
C867 C861 1.419 1_655 S
C867 C868 1.523 . S
C868 C849 1.368 1_655 S
C868 C862 1.368 . S
C868 C867 1.523 . S
C869 C853 1.429 . S
C869 C865 1.419 1_455 S
C869 C870 1.523 . S
C870 C854 1.368 1_455 S
C870 C866 1.368 . S
C870 C869 1.523 . S
H871 C846 0.950 . S
H872 C848 0.950 . S
H873 C849 0.949 . S
H874 C851 0.950 . S
H875 C853 0.950 . S
C876 C877 1.349 . S
C876 C878 1.327 . S
C876 H901 0.950 . S
C877 C876 1.349 . S
C877 C893 1.349 . S
C878 C876 1.327 . S
C878 C897 1.429 . S
C878 H902 0.950 . S
C879 C896 1.574 . S
C879 C898 1.368 1_545 S
C879 H903 0.949 . S
H880 C884 0.949 . S
C881 C882 1.349 . S
C881 C883 1.327 . S
C881 H904 0.950 . S
C882 C881 1.349 . S
C882 C894 1.349 . S
C883 C881 1.327 . S
C883 C899 1.429 . S
C883 H905 0.950 . S
C884 H880 0.949 . S
C884 C892 1.574 . S
C884 C900 1.368 1_565 S
H885 C893 0.950 . S
H886 C891 0.950 1_545 S
H887 C892 0.949 . S
H888 C894 0.950 . S
H889 C895 0.950 1_565 S
H890 C896 0.949 . S
C891 H886 0.950 1_565 S
C891 C893 1.327 . S
C891 C897 1.429 . S
C892 C884 1.574 . S
C892 H887 0.949 . S
C892 C898 1.368 . S
C893 C877 1.349 . S
C893 H885 0.950 . S
C893 C891 1.327 . S
C894 C882 1.349 . S
C894 H888 0.950 . S
C894 C895 1.327 . S
C895 H889 0.950 1_545 S
C895 C894 1.327 . S
C895 C899 1.429 . S
C896 C879 1.574 . S
C896 H890 0.949 . S
C896 C900 1.368 . S
C897 C878 1.429 . S
C897 C891 1.429 . S
C897 C898 1.523 . S
C898 C879 1.368 1_565 S
C898 C892 1.368 . S
C898 C897 1.523 . S
C899 C883 1.429 . S
C899 C895 1.429 . S
C899 C900 1.523 . S
C900 C884 1.368 1_545 S
C900 C896 1.368 . S
C900 C899 1.523 . S
H901 C876 0.950 . S
H902 C878 0.950 . S
H903 C879 0.949 . S
H904 C881 0.950 . S
H905 C883 0.950 . S
C906 C907 1.349 . S
C906 C908 1.327 . S
C906 H931 0.950 . S
C907 C906 1.349 . S
C907 C923 1.349 . S
C908 C906 1.327 . S
C908 C927 1.429 . S
C908 H932 0.950 . S
C909 C926 1.574 . S
C909 C928 1.368 . S
C909 H933 0.949 . S
H910 C914 0.949 . S
C911 C912 1.349 . S
C911 C913 1.327 . S
C911 H934 0.950 . S
C912 C911 1.349 . S
C912 C924 1.349 . S
C913 C911 1.327 . S
C913 C929 1.429 . S
C913 H935 0.950 . S
C914 H910 0.949 . S
C914 C922 1.574 . S
C914 C930 1.368 . S
H915 C923 0.950 . S
H916 C921 0.950 . S
H917 C922 0.949 . S
H918 C924 0.950 . S
H919 C925 0.950 . S
H920 C926 0.949 . S
C921 H916 0.950 . S
C921 C923 1.327 . S
C921 C927 1.429 . S
C922 C914 1.574 . S
C922 H917 0.949 . S
C922 C928 1.368 . S
C923 C907 1.349 . S
C923 H915 0.950 . S
C923 C921 1.327 . S
C924 C912 1.349 . S
C924 H918 0.950 . S
C924 C925 1.327 . S
C925 H919 0.950 . S
C925 C924 1.327 . S
C925 C929 1.429 . S
C926 C909 1.574 . S
C926 H920 0.949 . S
C926 C930 1.368 . S
C927 C908 1.429 . S
C927 C921 1.429 . S
C927 C928 1.523 . S
C928 C909 1.368 . S
C928 C922 1.368 . S
C928 C927 1.523 . S
C929 C913 1.429 . S
C929 C925 1.429 . S
C929 C930 1.523 . S
C930 C914 1.368 . S
C930 C926 1.368 . S
C930 C929 1.523 . S
H931 C906 0.950 . S
H932 C908 0.950 . S
H933 C909 0.949 . S
H934 C911 0.950 . S
H935 C913 0.950 . S
C936 C937 1.349 . S
C936 C938 1.327 . S
C936 H961 0.950 . S
C937 C936 1.349 . S
C937 C953 1.349 . S
C938 C936 1.327 . S
C938 C957 1.429 . S
C938 H962 0.950 . S
C939 C956 1.574 . S
C939 C958 1.368 . S
C939 H963 0.949 . S
H940 C944 0.949 1_554 S
C941 C942 1.349 1_556 S
C941 C943 1.327 . S
C941 H964 0.950 . S
C942 C941 1.349 1_554 S
C942 C954 1.349 . S
C943 C941 1.327 . S
C943 C959 1.429 . S
C943 H965 0.950 . S
C944 H940 0.949 1_556 S
C944 C952 1.574 . S
C944 C960 1.368 . S
H945 C953 0.950 . S
H946 C951 0.950 . S
H947 C952 0.949 . S
H948 C954 0.950 . S
H949 C955 0.950 . S
H950 C956 0.949 . S
C951 H946 0.950 . S
C951 C953 1.327 . S
C951 C957 1.429 . S
C952 C944 1.574 . S
C952 H947 0.949 . S
C952 C958 1.368 . S
C953 C937 1.349 . S
C953 H945 0.950 . S
C953 C951 1.327 . S
C954 C942 1.349 . S
C954 H948 0.950 . S
C954 C955 1.327 . S
C955 H949 0.950 . S
C955 C954 1.327 . S
C955 C959 1.429 1_554 S
C956 C939 1.574 . S
C956 H950 0.949 . S
C956 C960 1.368 . S
C957 C938 1.429 . S
C957 C951 1.429 . S
C957 C958 1.523 . S
C958 C939 1.368 . S
C958 C952 1.368 . S
C958 C957 1.523 . S
C959 C943 1.429 . S
C959 C955 1.429 1_556 S
C959 C960 1.523 . S
C960 C944 1.368 . S
C960 C956 1.368 . S
C960 C959 1.523 . S
H961 C936 0.950 . S
H962 C938 0.950 . S
H963 C939 0.949 . S
H964 C941 0.950 . S
H965 C943 0.950 . S
C966 C967 1.349 . S
C966 C968 1.327 . S
C966 H991 0.950 . S
C967 C966 1.349 . S
C967 C983 1.349 . S
C968 C966 1.327 . S
C968 C987 1.429 . S
C968 H992 0.950 . S
C969 C986 1.574 . S
C969 C988 1.368 . S
C969 H993 0.949 . S
H970 C974 0.949 . S
C971 C972 1.349 . S
C971 C973 1.327 . S
C971 H994 0.950 . S
C972 C971 1.349 . S
C972 C984 1.349 . S
C973 C971 1.327 . S
C973 C989 1.429 . S
C973 H995 0.950 . S
C974 H970 0.949 . S
C974 C982 1.574 . S
C974 C990 1.368 . S
H975 C983 0.950 1_455 S
H976 C981 0.950 . S
H977 C982 0.949 . S
H978 C984 0.950 . S
H979 C985 0.950 . S
H980 C986 0.949 . S
C981 H976 0.950 . S
C981 C983 1.327 . S
C981 C987 1.429 . S
C982 C974 1.574 . S
C982 H977 0.949 . S
C982 C988 1.368 . S
C983 C967 1.349 . S
C983 H975 0.950 1_655 S
C983 C981 1.327 . S
C984 C972 1.349 . S
C984 H978 0.950 . S
C984 C985 1.327 . S
C985 H979 0.950 . S
C985 C984 1.327 . S
C985 C989 1.429 . S
C986 C969 1.574 . S
C986 H980 0.949 . S
C986 C990 1.368 . S
C987 C968 1.429 . S
C987 C981 1.429 . S
C987 C988 1.523 . S
C988 C969 1.368 . S
C988 C982 1.368 . S
C988 C987 1.523 . S
C989 C973 1.429 . S
C989 C985 1.429 . S
C989 C990 1.523 . S
C990 C974 1.368 . S
C990 C986 1.368 . S
C990 C989 1.523 . S
H991 C966 0.950 . S
H992 C968 0.950 . S
H993 C969 0.949 . S
H994 C971 0.950 . S
H995 C973 0.950 . S
C996 C997 1.349 . S
C996 C998 1.327 . S
C996 H1021 0.950 . S
C997 C996 1.349 . S
C997 C1013 1.349 . S
C998 C996 1.327 . S
C998 C1017 1.429 . S
C998 H1022 0.950 . S
C999 C1016 1.574 . S
C999 C1018 1.368 . S
C999 H1023 0.949 . S
H1000 C1004 0.949 . S
C1001 C1002 1.349 . S
C1001 C1003 1.327 . S
C1001 H1024 0.950 . S
C1002 C1001 1.349 . S
C1002 C1014 1.349 . S
C1003 C1001 1.327 . S
C1003 C1019 1.429 . S
C1003 H1025 0.950 . S
C1004 H1000 0.949 . S
C1004 C1012 1.574 . S
C1004 C1020 1.368 . S
H1005 C1013 0.950 . S
H1006 C1011 0.950 . S
H1007 C1012 0.949 . S
H1008 C1014 0.950 1_545 S
H1009 C1015 0.950 . S
H1010 C1016 0.949 . S
C1011 H1006 0.950 . S
C1011 C1013 1.327 . S
C1011 C1017 1.429 . S
C1012 C1004 1.574 . S
C1012 H1007 0.949 . S
C1012 C1018 1.368 . S
C1013 C997 1.349 . S
C1013 H1005 0.950 . S
C1013 C1011 1.327 . S
C1014 C1002 1.349 . S
C1014 H1008 0.950 1_565 S
C1014 C1015 1.327 . S
C1015 H1009 0.950 . S
C1015 C1014 1.327 . S
C1015 C1019 1.429 . S
C1016 C999 1.574 . S
C1016 H1010 0.949 . S
C1016 C1020 1.368 . S
C1017 C998 1.429 . S
C1017 C1011 1.429 . S
C1017 C1018 1.523 . S
C1018 C999 1.368 . S
C1018 C1012 1.368 . S
C1018 C1017 1.523 . S
C1019 C1003 1.429 . S
C1019 C1015 1.429 . S
C1019 C1020 1.523 . S
C1020 C1004 1.368 . S
C1020 C1016 1.368 . S
C1020 C1019 1.523 . S
H1021 C996 0.950 . S
H1022 C998 0.950 . S
H1023 C999 0.949 . S
H1024 C1001 0.950 . S
H1025 C1003 0.950 . S
C1026 C1027 1.349 . S
C1026 C1028 1.327 . S
C1026 H1051 0.950 . S
C1027 C1026 1.349 . S
C1027 C1043 1.349 . S
C1028 C1026 1.327 . S
C1028 C1047 1.429 . S
C1028 H1052 0.950 . S
C1029 C1046 1.574 . S
C1029 C1048 1.368 . S
C1029 H1053 0.949 . S
H1030 C1034 0.949 . S
C1031 C1032 1.349 . S
C1031 C1033 1.327 . S
C1031 H1054 0.950 . S
C1032 C1031 1.349 . S
C1032 C1044 1.349 . S
C1033 C1031 1.327 . S
C1033 C1049 1.429 . S
C1033 H1055 0.950 . S
C1034 H1030 0.949 . S
C1034 C1042 1.574 . S
C1034 C1050 1.368 . S
H1035 C1043 0.950 . S
H1036 C1041 0.950 . S
H1037 C1042 0.949 . S
H1038 C1044 0.950 . S
H1039 C1045 0.950 . S
H1040 C1046 0.949 . S
C1041 H1036 0.950 . S
C1041 C1043 1.327 . S
C1041 C1047 1.429 . S
C1042 C1034 1.574 . S
C1042 H1037 0.949 . S
C1042 C1048 1.368 . S
C1043 C1027 1.349 . S
C1043 H1035 0.950 . S
C1043 C1041 1.327 . S
C1044 C1032 1.349 . S
C1044 H1038 0.950 . S
C1044 C1045 1.327 . S
C1045 H1039 0.950 . S
C1045 C1044 1.327 . S
C1045 C1049 1.429 . S
C1046 C1029 1.574 . S
C1046 H1040 0.949 . S
C1046 C1050 1.368 . S
C1047 C1028 1.429 . S
C1047 C1041 1.429 . S
C1047 C1048 1.523 . S
C1048 C1029 1.368 . S
C1048 C1042 1.368 . S
C1048 C1047 1.523 . S
C1049 C1033 1.429 . S
C1049 C1045 1.429 . S
C1049 C1050 1.523 . S
C1050 C1034 1.368 . S
C1050 C1046 1.368 . S
C1050 C1049 1.523 . S
H1051 C1026 0.950 . S
H1052 C1028 0.950 . S
H1053 C1029 0.949 . S
H1054 C1031 0.950 . S
H1055 C1033 0.950 . S
C1056 C1057 1.349 . S
C1056 C1058 1.327 . S
C1056 H1081 0.950 . S
C1057 C1056 1.349 . S
C1057 C1073 1.349 . S
C1058 C1056 1.327 . S
C1058 C1077 1.429 . S
C1058 H1082 0.950 . S
C1059 C1076 1.574 . S
C1059 C1078 1.368 . S
C1059 H1083 0.949 . S
H1060 C1064 0.949 . S
C1061 C1062 1.349 . S
C1061 C1063 1.327 . S
C1061 H1084 0.950 . S
C1062 C1061 1.349 . S
C1062 C1074 1.349 . S
C1063 C1061 1.327 . S
C1063 C1079 1.429 . S
C1063 H1085 0.950 . S
C1064 H1060 0.949 . S
C1064 C1072 1.574 . S
C1064 C1080 1.368 . S
H1065 C1073 0.950 . S
H1066 C1071 0.950 . S
H1067 C1072 0.949 . S
H1068 C1074 0.950 1_655 S
H1069 C1075 0.950 . S
H1070 C1076 0.949 . S
C1071 H1066 0.950 . S
C1071 C1073 1.327 . S
C1071 C1077 1.429 . S
C1072 C1064 1.574 . S
C1072 H1067 0.949 . S
C1072 C1078 1.368 . S
C1073 C1057 1.349 . S
C1073 H1065 0.950 . S
C1073 C1071 1.327 . S
C1074 C1062 1.349 . S
C1074 H1068 0.950 1_455 S
C1074 C1075 1.327 . S
C1075 H1069 0.950 . S
C1075 C1074 1.327 . S
C1075 C1079 1.429 . S
C1076 C1059 1.574 . S
C1076 H1070 0.949 . S
C1076 C1080 1.368 . S
C1077 C1058 1.429 . S
C1077 C1071 1.429 . S
C1077 C1078 1.523 . S
C1078 C1059 1.368 . S
C1078 C1072 1.368 . S
C1078 C1077 1.523 . S
C1079 C1063 1.429 . S
C1079 C1075 1.429 . S
C1079 C1080 1.523 . S
C1080 C1064 1.368 . S
C1080 C1076 1.368 . S
C1080 C1079 1.523 . S
H1081 C1056 0.950 . S
H1082 C1058 0.950 . S
H1083 C1059 0.949 . S
H1084 C1061 0.950 . S
H1085 C1063 0.950 . S
C1086 C1087 1.349 . S
C1086 C1088 1.327 . S
C1086 H1111 0.950 . S
C1087 C1086 1.349 . S
C1087 C1103 1.349 . S
C1088 C1086 1.327 . S
C1088 C1107 1.429 . S
C1088 H1112 0.950 . S
C1089 C1106 1.574 . S
C1089 C1108 1.368 . S
C1089 H1113 0.949 . S
H1090 C1094 0.949 . S
C1091 C1092 1.349 . S
C1091 C1093 1.327 . S
C1091 H1114 0.950 1_545 S
C1092 C1091 1.349 . S
C1092 C1104 1.349 . S
C1093 C1091 1.327 . S
C1093 C1109 1.429 . S
C1093 H1115 0.950 . S
C1094 H1090 0.949 . S
C1094 C1102 1.574 . S
C1094 C1110 1.368 . S
H1095 C1103 0.950 . S
H1096 C1101 0.950 . S
H1097 C1102 0.949 . S
H1098 C1104 0.950 . S
H1099 C1105 0.950 . S
H1100 C1106 0.949 . S
C1101 H1096 0.950 . S
C1101 C1103 1.327 . S
C1101 C1107 1.429 . S
C1102 C1094 1.574 . S
C1102 H1097 0.949 . S
C1102 C1108 1.368 . S
C1103 C1087 1.349 . S
C1103 H1095 0.950 . S
C1103 C1101 1.327 . S
C1104 C1092 1.349 . S
C1104 H1098 0.950 . S
C1104 C1105 1.327 . S
C1105 H1099 0.950 . S
C1105 C1104 1.327 . S
C1105 C1109 1.429 . S
C1106 C1089 1.574 . S
C1106 H1100 0.949 . S
C1106 C1110 1.368 . S
C1107 C1088 1.429 . S
C1107 C1101 1.429 . S
C1107 C1108 1.523 . S
C1108 C1089 1.368 . S
C1108 C1102 1.368 . S
C1108 C1107 1.523 . S
C1109 C1093 1.429 . S
C1109 C1105 1.429 . S
C1109 C1110 1.523 . S
C1110 C1094 1.368 . S
C1110 C1106 1.368 . S
C1110 C1109 1.523 . S
H1111 C1086 0.950 . S
H1112 C1088 0.950 . S
H1113 C1089 0.949 . S
H1114 C1091 0.950 1_565 S
H1115 C1093 0.950 . S
C1116 C1117 1.349 . S
C1116 C1118 1.327 . S
C1116 H1141 0.950 . S
C1117 C1116 1.349 . S
C1117 C1133 1.349 . S
C1118 C1116 1.327 . S
C1118 C1137 1.429 . S
C1118 H1142 0.950 . S
C1119 C1136 1.574 . S
C1119 C1138 1.368 . S
C1119 H1143 0.949 . S
H1120 C1124 0.949 . S
C1121 C1122 1.349 . S
C1121 C1123 1.327 . S
C1121 H1144 0.950 . S
C1122 C1121 1.349 . S
C1122 C1134 1.349 . S
C1123 C1121 1.327 . S
C1123 C1139 1.429 . S
C1123 H1145 0.950 . S
C1124 H1120 0.949 . S
C1124 C1132 1.574 . S
C1124 C1140 1.368 . S
H1125 C1133 0.950 . S
H1126 C1131 0.950 . S
H1127 C1132 0.949 . S
H1128 C1134 0.950 . S
H1129 C1135 0.950 . S
H1130 C1136 0.949 . S
C1131 H1126 0.950 . S
C1131 C1133 1.327 . S
C1131 C1137 1.429 . S
C1132 C1124 1.574 . S
C1132 H1127 0.949 . S
C1132 C1138 1.368 . S
C1133 C1117 1.349 . S
C1133 H1125 0.950 . S
C1133 C1131 1.327 . S
C1134 C1122 1.349 . S
C1134 H1128 0.950 . S
C1134 C1135 1.327 . S
C1135 H1129 0.950 . S
C1135 C1134 1.327 . S
C1135 C1139 1.429 . S
C1136 C1119 1.574 . S
C1136 H1130 0.949 . S
C1136 C1140 1.368 . S
C1137 C1118 1.429 . S
C1137 C1131 1.429 . S
C1137 C1138 1.523 . S
C1138 C1119 1.368 . S
C1138 C1132 1.368 . S
C1138 C1137 1.523 . S
C1139 C1123 1.429 . S
C1139 C1135 1.429 . S
C1139 C1140 1.523 . S
C1140 C1124 1.368 . S
C1140 C1136 1.368 . S
C1140 C1139 1.523 . S
H1141 C1116 0.950 . S
H1142 C1118 0.950 . S
H1143 C1119 0.949 . S
H1144 C1121 0.950 . S
H1145 C1123 0.950 . S
C1146 C1147 1.349 . S
C1146 C1148 1.327 1_556 S
C1146 H1171 0.953 . S
C1147 C1146 1.349 . S
C1147 C1163 1.349 . S
C1148 C1146 1.327 1_554 S
C1148 C1167 1.429 . S
C1148 H1172 0.950 . S
C1149 C1166 1.574 . S
C1149 C1168 1.368 . S
C1149 H1173 0.949 . S
H1150 C1154 0.949 . S
C1151 C1152 1.349 . S
C1151 C1153 1.327 . S
C1151 H1174 0.950 1_655 S
C1152 C1151 1.349 . S
C1152 C1164 1.349 . S
C1153 C1151 1.327 . S
C1153 C1169 1.429 . S
C1153 H1175 0.950 . S
C1154 H1150 0.949 . S
C1154 C1162 1.574 . S
C1154 C1170 1.368 . S
H1155 C1163 0.950 . S
H1156 C1161 0.950 . S
H1157 C1162 0.949 . S
H1158 C1164 0.950 . S
H1159 C1165 0.950 . S
H1160 C1166 0.949 . S
C1161 H1156 0.950 . S
C1161 C1163 1.327 . S
C1161 C1167 1.429 1_556 S
C1162 C1154 1.574 . S
C1162 H1157 0.949 . S
C1162 C1168 1.368 . S
C1163 C1147 1.349 . S
C1163 H1155 0.950 . S
C1163 C1161 1.327 . S
C1164 C1152 1.349 . S
C1164 H1158 0.950 . S
C1164 C1165 1.327 . S
C1165 H1159 0.950 . S
C1165 C1164 1.327 . S
C1165 C1169 1.429 . S
C1166 C1149 1.574 . S
C1166 H1160 0.949 . S
C1166 C1170 1.368 . S
C1167 C1148 1.429 . S
C1167 C1161 1.429 1_554 S
C1167 C1168 1.523 . S
C1168 C1149 1.368 . S
C1168 C1162 1.368 . S
C1168 C1167 1.523 . S
C1169 C1153 1.429 . S
C1169 C1165 1.429 . S
C1169 C1170 1.523 . S
C1170 C1154 1.368 . S
C1170 C1166 1.368 . S
C1170 C1169 1.523 . S
H1171 C1146 0.953 . S
H1172 C1148 0.950 . S
H1173 C1149 0.949 . S
H1174 C1151 0.950 1_455 S
H1175 C1153 0.950 . S
C1176 C1177 1.349 . S
C1176 C1178 1.327 . S
C1176 H1201 0.950 . S
C1177 C1176 1.349 . S
C1177 C1193 1.349 . S
C1178 C1176 1.327 . S
C1178 C1197 1.429 . S
C1178 H1202 0.950 . S
C1179 C1196 1.574 . S
C1179 C1198 1.368 . S
C1179 H1203 0.949 . S
H1180 C1184 0.949 . S
C1181 C1182 1.349 . S
C1181 C1183 1.327 . S
C1181 H1204 0.950 1_565 S
C1182 C1181 1.349 . S
C1182 C1194 1.349 . S
C1183 C1181 1.327 . S
C1183 C1199 1.429 . S
C1183 H1205 0.950 . S
C1184 H1180 0.949 . S
C1184 C1192 1.574 . S
C1184 C1200 1.368 . S
H1185 C1193 0.950 . S
H1186 C1191 0.950 . S
H1187 C1192 0.949 . S
H1188 C1194 0.950 . S
H1189 C1195 0.950 . S
H1190 C1196 0.949 . S
C1191 H1186 0.950 . S
C1191 C1193 1.327 . S
C1191 C1197 1.429 . S
C1192 C1184 1.574 . S
C1192 H1187 0.949 . S
C1192 C1198 1.368 . S
C1193 C1177 1.349 . S
C1193 H1185 0.950 . S
C1193 C1191 1.327 . S
C1194 C1182 1.349 . S
C1194 H1188 0.950 . S
C1194 C1195 1.327 . S
C1195 H1189 0.950 . S
C1195 C1194 1.327 . S
C1195 C1199 1.429 . S
C1196 C1179 1.574 . S
C1196 H1190 0.949 . S
C1196 C1200 1.368 . S
C1197 C1178 1.429 . S
C1197 C1191 1.429 . S
C1197 C1198 1.523 . S
C1198 C1179 1.368 . S
C1198 C1192 1.368 . S
C1198 C1197 1.523 . S
C1199 C1183 1.429 . S
C1199 C1195 1.429 . S
C1199 C1200 1.523 . S
C1200 C1184 1.368 . S
C1200 C1196 1.368 . S
C1200 C1199 1.523 . S
H1201 C1176 0.950 . S
H1202 C1178 0.950 . S
H1203 C1179 0.949 . S
H1204 C1181 0.950 1_545 S
H1205 C1183 0.950 . S
C1206 C1207 1.349 . S
C1206 C1208 1.327 . S
C1206 H1231 0.950 . S
C1207 C1206 1.349 . S
C1207 C1223 1.349 . S
C1208 C1206 1.327 . S
C1208 C1227 1.429 . S
C1208 H1232 0.950 . S
C1209 C1226 1.574 . S
C1209 C1228 1.368 . S
C1209 H1233 0.949 . S
H1210 C1214 0.949 . S
C1211 C1212 1.349 . S
C1211 C1213 1.327 . S
C1211 H1234 0.950 . S
C1212 C1211 1.349 . S
C1212 C1224 1.349 . S
C1213 C1211 1.327 . S
C1213 C1229 1.429 . S
C1213 H1235 0.950 . S
C1214 H1210 0.949 . S
C1214 C1222 1.574 . S
C1214 C1230 1.368 . S
H1215 C1223 0.950 . S
H1216 C1221 0.950 . S
H1217 C1222 0.949 . S
H1218 C1224 0.950 . S
H1219 C1225 0.950 . S
H1220 C1226 0.949 . S
C1221 H1216 0.950 . S
C1221 C1223 1.327 . S
C1221 C1227 1.429 . S
C1222 C1214 1.574 . S
C1222 H1217 0.949 . S
C1222 C1228 1.368 . S
C1223 C1207 1.349 . S
C1223 H1215 0.950 . S
C1223 C1221 1.327 . S
C1224 C1212 1.349 . S
C1224 H1218 0.950 . S
C1224 C1225 1.327 . S
C1225 H1219 0.950 . S
C1225 C1224 1.327 . S
C1225 C1229 1.429 . S
C1226 C1209 1.574 . S
C1226 H1220 0.949 . S
C1226 C1230 1.368 . S
C1227 C1208 1.429 . S
C1227 C1221 1.429 . S
C1227 C1228 1.523 . S
C1228 C1209 1.368 . S
C1228 C1222 1.368 . S
C1228 C1227 1.523 . S
C1229 C1213 1.429 . S
C1229 C1225 1.429 . S
C1229 C1230 1.523 . S
C1230 C1214 1.368 . S
C1230 C1226 1.368 . S
C1230 C1229 1.523 . S
H1231 C1206 0.950 . S
H1232 C1208 0.950 . S
H1233 C1209 0.949 . S
H1234 C1211 0.950 . S
H1235 C1213 0.950 . S
C1236 C1237 1.349 . S
C1236 C1238 1.327 . S
C1236 H1261 0.950 . S
C1237 C1236 1.349 . S
C1237 C1253 1.349 . S
C1238 C1236 1.327 . S
C1238 C1257 1.429 . S
C1238 H1262 0.950 . S
C1239 C1256 1.574 . S
C1239 C1258 1.368 . S
C1239 H1263 0.949 . S
H1240 C1244 0.949 . S
C1241 C1242 1.349 . S
C1241 C1243 1.327 . S
C1241 H1264 0.950 . S
C1242 C1241 1.349 . S
C1242 C1254 1.349 . S
C1243 C1241 1.327 . S
C1243 C1259 1.429 . S
C1243 H1265 0.950 . S
C1244 H1240 0.949 . S
C1244 C1252 1.574 . S
C1244 C1260 1.368 . S
H1245 C1253 0.950 1_655 S
H1246 C1251 0.950 . S
H1247 C1252 0.949 . S
H1248 C1254 0.950 . S
H1249 C1255 0.950 . S
H1250 C1256 0.949 . S
C1251 H1246 0.950 . S
C1251 C1253 1.327 . S
C1251 C1257 1.429 . S
C1252 C1244 1.574 . S
C1252 H1247 0.949 . S
C1252 C1258 1.368 . S
C1253 C1237 1.349 . S
C1253 H1245 0.950 1_455 S
C1253 C1251 1.327 . S
C1254 C1242 1.349 . S
C1254 H1248 0.950 . S
C1254 C1255 1.327 . S
C1255 H1249 0.950 . S
C1255 C1254 1.327 . S
C1255 C1259 1.429 . S
C1256 C1239 1.574 . S
C1256 H1250 0.949 . S
C1256 C1260 1.368 . S
C1257 C1238 1.429 . S
C1257 C1251 1.429 . S
C1257 C1258 1.523 . S
C1258 C1239 1.368 . S
C1258 C1252 1.368 . S
C1258 C1257 1.523 . S
C1259 C1243 1.429 . S
C1259 C1255 1.429 . S
C1259 C1260 1.523 . S
C1260 C1244 1.368 . S
C1260 C1256 1.368 . S
C1260 C1259 1.523 . S
H1261 C1236 0.950 . S
H1262 C1238 0.950 . S
H1263 C1239 0.949 . S
H1264 C1241 0.950 . S
H1265 C1243 0.950 . S
C1266 C1267 1.349 . S
C1266 C1268 1.327 . S
C1266 H1291 0.950 . S
C1267 C1266 1.349 . S
C1267 C1283 1.349 . S
C1268 C1266 1.327 . S
C1268 C1287 1.429 . S
C1268 H1292 0.950 . S
C1269 C1286 1.574 . S
C1269 C1288 1.368 . S
C1269 H1293 0.949 . S
H1270 C1274 0.949 . S
C1271 C1272 1.349 . S
C1271 C1273 1.327 . S
C1271 H1294 0.950 1_545 S
C1272 C1271 1.349 . S
C1272 C1284 1.349 . S
C1273 C1271 1.327 . S
C1273 C1289 1.429 . S
C1273 H1295 0.950 . S
C1274 H1270 0.949 . S
C1274 C1282 1.574 . S
C1274 C1290 1.368 . S
H1275 C1283 0.950 . S
H1276 C1281 0.950 . S
H1277 C1282 0.949 . S
H1278 C1284 0.950 . S
H1279 C1285 0.950 . S
H1280 C1286 0.949 . S
C1281 H1276 0.950 . S
C1281 C1283 1.327 . S
C1281 C1287 1.429 . S
C1282 C1274 1.574 . S
C1282 H1277 0.949 . S
C1282 C1288 1.368 . S
C1283 C1267 1.349 . S
C1283 H1275 0.950 . S
C1283 C1281 1.327 . S
C1284 C1272 1.349 . S
C1284 H1278 0.950 . S
C1284 C1285 1.327 . S
C1285 H1279 0.950 . S
C1285 C1284 1.327 . S
C1285 C1289 1.429 . S
C1286 C1269 1.574 . S
C1286 H1280 0.949 . S
C1286 C1290 1.368 . S
C1287 C1268 1.429 . S
C1287 C1281 1.429 . S
C1287 C1288 1.523 . S
C1288 C1269 1.368 . S
C1288 C1282 1.368 . S
C1288 C1287 1.523 . S
C1289 C1273 1.429 . S
C1289 C1285 1.429 . S
C1289 C1290 1.523 . S
C1290 C1274 1.368 . S
C1290 C1286 1.368 . S
C1290 C1289 1.523 . S
H1291 C1266 0.950 . S
H1292 C1268 0.950 . S
H1293 C1269 0.949 . S
H1294 C1271 0.950 1_565 S
H1295 C1273 0.950 . S
C397 N343 1.005 . S
C402 N13 1.005 . S
C427 N46 1.005 . S
C432 N376 1.005 . S
C457 N79 1.005 . S
C462 N211 1.005 . S
C487 N112 1.005 . S
C492 N244 1.005 . S
C517 N145 1.005 . S
C522 N277 1.005 . S
C547 N178 1.005 . S
C552 N310 1.005 . S
C577 C21 1.423 . S
C582 C285 1.423 . S
C607 C318 1.423 . S
C612 C54 1.423 . S
C637 C87 1.423 . S
C642 C351 1.423 . S
C667 C120 1.423 . S
C672 C384 1.423 . S
C697 C153 1.423 . S
C702 C219 1.423 . S
C727 C186 1.423 . S
C732 C252 1.423 . S
C757 N365 1.161 . S
C762 N2 1.161 . S
C787 N200 1.161 . S
C792 N35 1.161 . S
C817 N233 1.161 . S
C822 N68 1.161 . S
C847 N101 1.161 . S
C852 N266 1.161 . S
C877 N134 1.161 . S
C882 N299 1.161 . S
C907 N332 1.161 . S
C912 N167 1.161 . S
C937 C172 1.994 . S
C942 C18 2.003 . S
C967 C7 1.994 1_655 S
C972 C51 2.003 . S
C997 C84 2.003 . S
C1002 C40 1.994 1_565 S
C1027 C73 1.994 . S
C1032 C117 2.003 . S
C1057 C150 2.003 . S
C1062 C106 1.994 1_455 S
C1087 C183 2.003 . S
C1092 C139 1.994 1_545 S
C1117 C238 1.994 . S
C1122 C216 2.003 . S
C1147 C249 2.003 . S
C1152 C271 1.994 1_655 S
C1177 C282 2.003 . S
C1182 C304 1.994 1_565 S
C1207 C337 1.994 . S
C1212 C315 2.003 . S
C1237 C370 1.994 1_455 S
C1242 C348 2.003 . S
C1267 C381 2.003 . S
C1272 C205 1.994 1_545 S
