# Generated by pormake.
# Topology sxb, (6)-cn, num edge types: 1
# Building blocks:
#     Node 0, Type 0, BuildingBlock: BETGAK_clean_sbu_0, # of connection points: 6
#     Node 1, Type 0, BuildingBlock: BETGAK_clean_sbu_0, # of connection points: 6
#     Node 2, Type 0, BuildingBlock: BETGAK_clean_sbu_0, # of connection points: 6
#     Node 3, Type 0, BuildingBlock: BETGAK_clean_sbu_0, # of connection points: 6
#     Edge 4, Type (0, 0), BuildingBlock: XIVTED_clean_linker_0, # of connection points: 2
#     Edge 5, Type (0, 0), BuildingBlock: XIVTED_clean_linker_0, # of connection points: 2
#     Edge 6, Type (0, 0), BuildingBlock: XIVTED_clean_linker_0, # of connection points: 2
#     Edge 7, Type (0, 0), BuildingBlock: XIVTED_clean_linker_0, # of connection points: 2
#     Edge 8, Type (0, 0), BuildingBlock: XIVTED_clean_linker_0, # of connection points: 2
#     Edge 9, Type (0, 0), BuildingBlock: XIVTED_clean_linker_0, # of connection points: 2
#     Edge 10, Type (0, 0), BuildingBlock: XIVTED_clean_linker_0, # of connection points: 2
#     Edge 11, Type (0, 0), BuildingBlock: XIVTED_clean_linker_0, # of connection points: 2
#     Edge 12, Type (0, 0), BuildingBlock: XIVTED_clean_linker_0, # of connection points: 2
#     Edge 13, Type (0, 0), BuildingBlock: XIVTED_clean_linker_0, # of connection points: 2
#     Edge 14, Type (0, 0), BuildingBlock: XIVTED_clean_linker_0, # of connection points: 2
#     Edge 15, Type (0, 0), BuildingBlock: XIVTED_clean_linker_0, # of connection points: 2
# Relax obj value: 0.431
# Max RMSD: 0.123
# Mean RMSD: 0.083
data_MOF--net-sxb--node1-BETGAK_clean_sbu_0--edge1-XIVTED_clean_linker_0
_symmetry_space_group_name_H-M    P1
_symmetry_Int_Tables_number       1
_symmetry_cell_setting            triclinic
loop_
_symmetry_equiv_pos_as_xyz
'x, y, z'
_cell_length_a     16.263865
_cell_length_b     35.6681
_cell_length_c     29.793165
_cell_angle_alpha  94.027766
_cell_angle_beta   92.895812
_cell_angle_gamma 63.185221
loop_
_atom_site_label
_atom_site_type_symbol
_atom_site_fract_x
_atom_site_fract_y
_atom_site_fract_z
_atom_type_partial_charge
La0 La 0.99712 0.10468 0.97919 0.0
La1 La 0.16718 0.1015 0.97373 0.0
C2 C 0.8674 0.09641 0.01166 0.0
C3 C 0.85926 0.09026 0.05932 0.0
C4 C 0.77791 0.11627 0.08176 0.0
C5 C 0.77169 0.11318 0.12775 0.0
C6 C 0.84689 1.0839 0.15248 0.0
C7 C 0.92926 1.05855 0.13007 0.0
C8 C 0.93559 1.06185 0.084 0.0
C9 C 1.02394 0.11435 0.89386 0.0
C10 C 0.99774 0.1909 0.97578 0.0
C11 C 0.3147 0.10742 0.9754 0.0
C12 C 0.38214 0.0927 0.01305 0.0
C13 C 0.40628 1.05319 0.03026 0.0
C14 C 0.44413 1.04428 0.07363 0.0
C15 C 0.45948 1.0745 0.1006 0.0
C16 C 0.44096 0.11291 0.08219 0.0
C17 C 0.40254 0.12192 0.03892 0.0
C18 C 0.13125 0.08979 0.05742 0.0
C19 C 0.17185 1.01424 0.96825 0.0
O20 O 0.86234 0.13285 0.00386 0.0
O21 O 0.93442 1.06584 0.98979 0.0
O22 O 0.9456 0.13021 0.91359 0.0
O23 O 1.08494 0.08994 0.92043 0.0
O24 O 0.95808 0.17147 0.99541 0.0
O25 O 1.07758 0.16749 0.95633 0.0
O26 O 0.23629 0.13868 0.98715 0.0
O27 O 0.30243 1.07873 0.95023 0.0
O28 O 0.20698 1.06856 0.03679 0.0
O29 O 1.07757 0.11692 0.03125 0.0
O30 O 0.21414 1.03484 0.95348 0.0
O31 O 1.08946 1.03632 0.98592 0.0
H32 H 0.7189 0.13891 0.06363 0.0
H33 H 0.70598 0.13246 0.14334 0.0
H34 H 0.98817 1.03564 0.14797 0.0
H35 H 1.00039 1.04218 0.0678 0.0
H36 H 0.39037 1.03008 0.01146 0.0
H37 H 0.45821 1.0143 0.08657 0.0
H38 H 0.45513 0.13634 0.10144 0.0
H39 H 0.38364 0.15274 0.02672 0.0
La40 La 0.12264 1.05677 0.48136 0.0
La41 La 1.02414 0.14444 0.46857 0.0
C42 C 0.18207 0.98467 0.51108 0.0
C43 C 0.13501 0.96312 0.53011 0.0
C44 C 0.16314 0.92052 0.51829 0.0
C45 C 0.10777 0.90176 0.52811 0.0
C46 C 1.02353 0.92551 0.54987 0.0
C47 C 0.99935 0.96731 0.5648 0.0
C48 C 1.05452 0.98607 0.55482 0.0
C49 C 0.11695 1.07519 0.3961 0.0
C50 C 0.89684 0.0994 0.47336 0.0
C51 C 0.9634 0.21725 0.44018 0.0
C52 C 1.00813 0.24311 0.4301 0.0
C53 C 0.96866 0.28553 0.44518 0.0
C54 C 1.01984 0.30809 0.44527 0.0
C55 C 0.11112 0.28832 0.43036 0.0
C56 C 0.14742 0.24688 0.41173 0.0
C57 C 1.09635 0.22439 0.41169 0.0
C58 C 1.03008 0.12562 0.55387 0.0
C59 C 0.25065 0.10165 0.4765 0.0
O60 O 0.16298 0.99233 0.46857 0.0
O61 O 0.18001 1.01724 0.53498 0.0
O62 O 0.18757 1.04663 0.41621 0.0
O63 O 1.05102 0.09144 0.42333 0.0
O64 O 0.97499 1.0672 0.48682 0.0
O65 O 0.90123 0.13302 0.45971 0.0
O66 O 0.96681 0.20962 0.48264 0.0
O67 O 0.98309 0.18347 0.41395 0.0
O68 O 0.95912 0.15394 0.53374 0.0
O69 O 1.09583 0.10982 0.52658 0.0
O70 O 0.17174 0.13492 0.46579 0.0
O71 O 0.24721 1.067 0.48739 0.0
H72 H 0.22488 0.90251 0.49902 0.0
H73 H 0.12778 0.86962 0.51572 0.0
H74 H 0.93542 0.98614 0.58211 0.0
H75 H 1.03155 1.0191 0.56428 0.0
H76 H 0.90051 0.30042 0.45942 0.0
H77 H 0.98986 0.34024 0.45918 0.0
H78 H 0.21776 0.23073 0.40033 0.0
H79 H 0.12823 0.19161 0.39986 0.0
La80 La 0.50411 0.59968 0.97078 0.0
La81 La 0.66626 0.60537 0.97817 0.0
C82 C 0.35721 0.59849 0.98906 0.0
C83 C 0.35383 0.56459 0.01338 0.0
C84 C 0.30451 0.57416 0.05322 0.0
C85 C 0.31566 0.54212 0.08107 0.0
C86 C 0.37785 0.49978 0.07011 0.0
C87 C 0.42637 0.49053 0.02987 0.0
C88 C 0.41376 0.52236 1.0017 0.0
C89 C 0.57588 0.59104 0.88982 0.0
C90 C 0.49813 0.69139 0.96725 0.0
C91 C 0.83283 0.58717 0.98328 0.0
C92 C 0.89388 0.55366 0.01268 0.0
C93 C 0.85872 0.54814 0.05265 0.0
C94 C 0.90986 0.51364 0.07843 0.0
C95 C 0.99731 0.48361 0.06474 0.0
C96 C 1.0318 0.48859 0.02418 0.0
C97 C 0.98028 0.52325 0.99828 0.0
C98 C 0.59245 0.61099 0.05819 0.0
C99 C 0.67754 0.51342 0.97453 0.0
O100 O 0.39043 0.62083 0.01309 0.0
O101 O 0.39246 0.58796 0.94891 0.0
O102 O 0.53617 0.56961 0.90307 0.0
O103 O 0.57264 0.61743 0.92126 0.0
O104 O 0.45292 0.66977 0.97662 0.0
O105 O 0.58709 0.67043 0.95874 0.0
O106 O 0.77064 0.6208 0.00402 0.0
O107 O 0.79721 0.57421 0.94903 0.0
O108 O 0.62461 0.63551 0.04575 0.0
O109 O 0.60072 0.58501 0.02575 0.0
O110 O 0.71882 0.53613 0.96445 0.0
O111 O 0.59043 0.53355 0.98569 0.0
H112 H 0.25893 0.60652 0.06332 0.0
H113 H 0.2742 0.55073 0.11084 0.0
H114 H 0.47489 0.45868 0.01998 0.0
H115 H 0.45362 0.51382 0.97137 0.0
H116 H 0.79093 0.57032 0.06397 0.0
H117 H 0.88145 0.51077 0.10938 0.0
H118 H 0.10004 0.46645 0.01315 0.0
H119 H 1.00759 0.52617 0.967 0.0
La120 La 0.63817 0.55208 0.47815 0.0
La121 La 0.54103 0.64001 0.46799 0.0
C122 C 0.69931 0.47837 0.50429 0.0
C123 C 0.65732 0.4505 0.51046 0.0
C124 C 0.70132 0.40858 0.49367 0.0
C125 C 0.65497 0.38377 0.49195 0.0
C126 C 0.56412 0.4007 0.50707 0.0
C127 C 0.52268 0.44185 0.52656 0.0
C128 C 0.56885 0.46659 0.52819 0.0
C129 C 0.62109 0.57231 0.39286 0.0
C130 C 0.41256 0.59514 0.4714 0.0
C131 C 0.48384 0.71337 0.44177 0.0
C132 C 0.52528 0.74247 0.44422 0.0
C133 C 0.48069 0.7814 0.46816 0.0
C134 C 0.52751 0.80537 0.47948 0.0
C135 C 0.61944 0.7906 0.4669 0.0
C136 C 0.66116 0.75337 0.43974 0.0
C137 C 0.61457 0.72942 0.42852 0.0
C138 C 0.55709 0.62046 0.55354 0.0
C139 C 0.76713 0.5969 0.47499 0.0
O140 O 0.70147 0.48698 0.46265 0.0
O141 O 0.67277 0.51193 0.53146 0.0
O142 O 0.69384 0.54305 0.41072 0.0
O143 O 0.55938 0.58839 0.42229 0.0
O144 O 0.49082 0.56227 0.48344 0.0
O145 O 0.41743 0.62893 0.4585 0.0
O146 O 0.46417 0.70508 0.48067 0.0
O147 O 0.52358 0.67937 0.41552 0.0
O148 O 0.48551 0.65005 0.53536 0.0
O149 O 0.61925 0.60392 0.52426 0.0
O150 O 0.68835 0.63052 0.4652 0.0
O151 O 0.7631 0.56223 0.48538 0.0
H152 H 0.76972 0.39572 0.47992 0.0
H153 H 0.68872 0.35196 0.47722 0.0
H154 H 0.45232 0.45594 0.53795 0.0
H155 H 0.53339 0.4989 0.54127 0.0
H156 H 0.41173 0.792 0.48045 0.0
H157 H 0.49381 0.83404 0.5004 0.0
H158 H 0.73134 0.74187 0.42876 0.0
H159 H 0.65051 0.69968 0.40965 0.0
H160 H 0.56711 0.74534 0.94373 0.0
H161 H 0.10309 0.96081 0.99408 0.0
H162 H 0.31688 0.74736 0.98797 0.0
H163 H 0.34738 0.95756 0.9403 0.0
H164 H 0.17979 0.88356 0.99312 0.0
H165 H 0.48876 0.82239 0.94323 0.0
C166 C 0.49559 0.76179 0.9533 0.0
C167 C 0.44923 0.73905 0.96586 0.0
C168 C 0.21677 0.89963 0.98142 0.0
C169 C 0.35782 0.82878 0.96557 0.0
C170 C 0.17278 0.94403 0.98194 0.0
C171 C 0.21805 0.96646 0.96712 0.0
C172 C 0.30772 0.87666 0.96616 0.0
C173 C 0.30886 0.94221 0.95196 0.0
C174 C 0.45065 0.80612 0.95299 0.0
C175 C 0.35615 0.76296 0.9779 0.0
N176 N 0.35022 0.8991 0.95197 0.0
N177 N 0.31409 0.80609 0.97755 0.0
H178 H 0.85713 0.45913 0.94888 0.0
H179 H 0.82735 0.24754 0.00782 0.0
H180 H 0.61641 0.45798 1.00107 0.0
H181 H 1.06198 0.24416 0.94328 0.0
H182 H 0.75284 0.32445 0.00765 0.0
H183 H 0.9361 0.38165 0.94881 0.0
C184 C 0.82045 0.44279 0.96027 0.0
C185 C 0.72876 0.46577 0.97464 0.0
C186 C 0.82063 0.30707 0.99346 0.0
C187 C 0.82002 0.37606 0.97487 0.0
C188 C 0.86363 0.26281 0.99356 0.0
C189 C 0.95177 0.23858 0.97548 0.0
C190 C 0.86541 0.32826 0.97535 0.0
C191 C 0.99421 0.26101 0.95756 0.0
C192 C 0.86584 0.39832 0.96019 0.0
C193 C 0.68613 0.44217 0.98924 0.0
N194 N 0.95103 0.3042 0.95803 0.0
N195 N 0.73158 0.39916 0.98899 0.0
H196 H 0.12324 0.33104 0.50771 0.0
H197 H 0.55615 0.35689 0.42958 0.0
H198 H 0.24194 0.28898 0.37623 0.0
H199 H 0.44234 0.39427 0.56243 0.0
H200 H 0.4455 0.32941 0.4101 0.0
H201 H 0.23854 0.35545 0.52771 0.0
C202 C 0.17254 0.32769 0.48271 0.0
C203 C 0.17282 0.30817 0.44014 0.0
C204 C 0.44521 0.3433 0.44363 0.0
C205 C 0.30675 0.33487 0.46331 0.0
C206 C 0.5091 0.35852 0.45497 0.0
C207 C 0.50806 0.37799 0.49766 0.0
C208 C 0.37975 0.34778 0.47517 0.0
C209 C 0.44456 0.37995 0.52896 0.0
C210 C 0.23919 0.34109 0.49439 0.0
C211 C 0.23976 0.30367 0.4095 0.0
N212 N 0.3824 0.3653 0.51696 0.0
N213 N 0.30436 0.31684 0.42175 0.0
H214 H 0.83913 0.96644 0.53104 0.0
H215 H 0.7925 0.75369 0.50335 0.0
H216 H 1.05398 0.84606 0.56872 0.0
H217 H 0.57094 0.87501 0.47372 0.0
H218 H 0.88467 0.78806 0.53353 0.0
H219 H 0.73382 0.93519 0.51854 0.0
C220 C 0.86358 0.93364 0.53782 0.0
C221 C 0.95574 0.90867 0.55064 0.0
C222 C 0.81578 0.80726 0.52066 0.0
C223 C 0.83618 0.87247 0.53506 0.0
C224 C 0.76353 0.78763 0.50299 0.0
C225 C 0.67467 0.8116 0.48538 0.0
C226 C 0.77908 0.85118 0.52055 0.0
C227 C 0.63936 0.85547 0.48687 0.0
C228 C 0.80355 0.91572 0.5302 0.0
C229 C 0.98391 0.86622 0.55812 0.0
N230 N 0.69211 0.8739 0.50383 0.0
N231 N 0.92456 0.8493 0.54968 0.0
H232 H 0.41618 0.1273 0.17701 0.0
H233 H 0.75219 0.13867 0.22363 0.0
H234 H 0.59403 0.99992 0.1307 0.0
H235 H 0.90635 1.00652 0.18896 0.0
H236 H 0.64345 0.12407 0.26273 0.0
H237 H 0.51689 0.11878 0.24268 0.0
C238 C 0.47616 0.09732 0.18093 0.0
C239 C 0.50075 1.06538 0.14659 0.0
C240 C 0.70178 0.0978 0.2474 0.0
C241 C 0.61893 1.05588 0.22063 0.0
C242 C 0.76499 0.10625 0.22548 0.0
C243 C 0.83103 1.07436 0.19808 0.0
C244 C 0.70377 1.05799 0.239 0.0
C245 C 0.85009 1.03283 0.20564 0.0
C246 C 0.53396 0.09233 0.21866 0.0
C247 C 0.5748 1.02628 0.15507 0.0
N248 N 0.7843 1.0257 0.22426 0.0
N249 N 0.63272 1.02301 0.19061 0.0
H250 H 0.29527 0.16585 0.45427 0.0
H251 H 0.85183 1.03608 0.49834 0.0
H252 H 0.427 1.03901 0.4976 0.0
H253 H 0.72104 0.16117 0.45006 0.0
H254 H 0.69933 1.03674 0.49912 0.0
H255 H 0.44776 0.16513 0.45338 0.0
C256 C 0.35561 0.13774 0.46367 0.0
C257 C 0.34536 0.10247 0.47603 0.0
C258 C 0.70357 1.06415 0.4883 0.0
C259 C 0.52512 0.10138 0.47515 0.0
C260 C 0.79169 1.0638 0.48782 0.0
C261 C 0.80217 0.09859 0.47403 0.0
C262 C 0.62248 0.09964 0.47502 0.0
C263 C 0.71892 0.13333 0.46098 0.0
C264 C 0.44376 0.13734 0.46314 0.0
C265 C 0.42891 1.06724 0.48777 0.0
N266 N 0.63447 0.1329 0.46185 0.0
N267 N 0.51337 1.06768 0.48706 0.0
H268 H 1.01999 0.49253 0.1562 0.0
H269 H 0.35599 0.50028 0.16216 0.0
H270 H 0.11478 0.39955 0.04589 0.0
H271 H 0.41923 0.41722 0.04275 0.0
H272 H 0.30073 0.45634 0.19656 0.0
H273 H 0.16614 0.45524 0.19489 0.0
C274 C 1.07072 0.46348 0.14048 0.0
C275 C 1.0591 0.45136 0.09571 0.0
C276 C 0.32749 0.44735 0.16293 0.0
C277 C 0.22955 0.41136 0.13771 0.0
C278 C 0.35873 0.47277 0.14308 0.0
C279 C 0.38261 0.46533 0.09749 0.0
C280 C 0.31594 0.41593 0.13593 0.0
C281 C 0.39465 0.42664 0.07667 0.0
C282 C 0.15552 0.44215 0.16255 0.0
C283 C 0.12466 0.41209 0.07876 0.0
N284 N 0.35895 0.40393 0.09566 0.0
N285 N 0.20878 0.39375 0.0994 0.0
H286 H 0.36853 0.53066 0.49279 0.0
H287 H 0.81063 0.6622 0.45623 0.0
H288 H 0.23571 0.65821 0.45158 0.0
H289 H 0.94436 0.53328 0.49298 0.0
H290 H 0.96274 0.66176 0.45531 0.0
H291 H 0.21632 0.53121 0.49386 0.0
C292 C 0.30797 0.55892 0.48391 0.0
C293 C 0.31783 0.59442 0.47202 0.0
C294 C 0.9593 0.63344 0.4636 0.0
C295 C 0.13836 0.59533 0.47332 0.0
C296 C 0.87136 0.63367 0.46415 0.0
C297 C 0.86178 0.59774 0.47468 0.0
C298 C 1.04117 0.59695 0.47368 0.0
C299 C 0.94579 0.56202 0.48462 0.0
C300 C 0.21999 0.5592 0.48454 0.0
C301 C 0.23405 0.62981 0.46096 0.0
N302 N 1.03009 0.5626 0.48387 0.0
N303 N 0.14968 0.6293 0.46193 0.0
H304 H 0.96772 0.12561 0.34202 0.0
H305 H 0.25816 1.03657 0.11477 0.0
H306 H 0.25478 1.03616 0.33621 0.0
H307 H 0.9862 0.14098 0.11396 0.0
H308 H 0.2506 1.03444 0.19583 0.0
H309 H 0.96562 0.1306 0.2595 0.0
C310 C 1.03027 0.10717 0.32355 0.0
C311 C 0.11162 1.08037 0.34634 0.0
C312 C 0.1922 1.05795 0.17826 0.0
C313 C 0.10966 1.08582 0.25183 0.0
C314 C 0.19646 1.05915 0.13166 0.0
C315 C 0.12287 0.08908 0.10719 0.0
C316 C 0.11342 0.08679 0.20146 0.0
C317 C 1.04481 0.11746 0.13138 0.0
C318 C 1.02902 0.11003 0.27642 0.0
C319 C 0.19036 1.05717 0.32042 0.0
N320 N 1.04201 0.11559 0.17711 0.0
N321 N 0.18726 1.06037 0.27502 0.0
H322 H 0.88784 0.16011 0.83522 0.0
H323 H 0.18094 1.07681 0.60794 0.0
H324 H 0.17436 1.06956 0.8378 0.0
H325 H 0.89205 0.16345 0.61396 0.0
H326 H 0.18452 1.07246 0.69057 0.0
H327 H 0.89271 0.16101 0.75385 0.0
C328 C 0.95216 0.14027 0.81866 0.0
C329 C 1.03065 0.11458 0.84379 0.0
C330 C 0.12042 0.09236 0.67373 0.0
C331 C 1.03701 0.11549 0.74903 0.0
C332 C 0.1183 0.09479 0.6265 0.0
C333 C 1.03604 0.12065 0.60372 0.0
C334 C 1.03969 0.11598 0.69847 0.0
C335 C 0.95718 0.14321 0.62975 0.0
C336 C 0.95491 0.1408 0.77186 0.0
C337 C 0.112 0.08982 0.81996 0.0
N338 N 0.96111 0.1404 0.67526 0.0
N339 N 0.11309 0.09085 0.774 0.0
H340 H 0.48387 0.63762 0.34739 0.0
H341 H 0.63993 0.53676 0.09911 0.0
H342 H 0.72774 0.52044 0.32476 0.0
H343 H 0.53161 0.67039 0.12786 0.0
H344 H 0.64194 0.52703 0.18037 0.0
H345 H 0.47058 0.64731 0.26569 0.0
C346 C 0.53448 0.61392 0.32538 0.0
C347 C 0.60778 0.57844 0.34327 0.0
C348 C 0.6169 0.55851 0.16879 0.0
C349 C 0.59101 0.58862 0.24946 0.0
C350 C 0.61516 0.5641 0.12241 0.0
C351 C 0.58549 0.60449 0.10661 0.0
C352 C 0.58637 0.59361 0.19965 0.0
C353 C 0.5551 0.63872 0.13855 0.0
C354 C 0.52677 0.61945 0.27874 0.0
C355 C 0.6705 0.54848 0.31272 0.0
N356 N 0.55571 0.63259 0.18335 0.0
N357 N 0.66034 0.55405 0.26754 0.0
H358 H 0.45308 0.67648 0.61939 0.0
H359 H 0.63212 0.52844 0.82335 0.0
H360 H 0.68882 0.55532 0.60235 0.0
H361 H 0.54227 0.66176 0.8446 0.0
H362 H 0.63762 0.53498 0.74192 0.0
H363 H 0.46732 0.66975 0.70102 0.0
C364 C 0.50797 0.64834 0.63271 0.0
C365 C 0.56953 0.61628 0.60352 0.0
C366 C 0.6176 0.56271 0.76445 0.0
C367 C 0.58477 0.60806 0.6977 0.0
C368 C 0.61429 0.55905 0.81092 0.0
C369 C 0.5872 0.59456 0.84099 0.0
C370 C 0.5906 0.60244 0.74747 0.0
C371 C 0.56432 0.63348 0.82283 0.0
C372 C 0.51612 0.64466 0.67946 0.0
C373 C 0.63929 0.58068 0.62322 0.0
N374 N 0.56503 0.63649 0.77733 0.0
N375 N 0.64415 0.57723 0.66891 0.0
loop_
_geom_bond_atom_site_label_1
_geom_bond_atom_site_label_2
_geom_bond_distance
_geom_bond_site_symmetry_2
_ccdc_geom_bond_type
La0 C2 2.928 1_565 S
La0 O20 2.521 . S
La0 O21 2.628 1_566 S
La0 O22 2.554 . S
La0 O23 2.757 1_655 S
La0 O24 2.470 1_565 S
La0 O29 2.482 1_566 S
La0 O31 2.503 1_655 S
La1 C11 2.928 . S
La1 O23 2.482 1_544 S
La1 O25 2.503 1_455 S
La1 O26 2.521 . S
La1 O27 2.628 1_544 S
La1 O28 2.554 . S
La1 O29 2.757 1_455 S
La1 O30 2.470 1_545 S
C2 La0 2.928 1_545 S
C2 C3 1.503 . S
C2 O20 1.257 1_545 S
C2 O21 1.246 1_556 S
C3 C2 1.503 . S
C3 C4 1.394 . S
C3 C8 1.373 1_556 S
C4 C3 1.394 . S
C4 C5 1.380 . S
C4 H32 0.930 1_545 S
C5 C4 1.380 . S
C5 C6 1.376 . S
C5 H33 0.930 . S
C6 C5 1.376 . S
C6 C7 1.370 1_556 S
C7 C6 1.370 1_554 S
C7 C8 1.396 . S
C7 H34 0.929 . S
C8 C3 1.373 1_554 S
C8 C7 1.396 . S
C8 H35 0.929 . S
C9 O22 1.240 . S
C9 O23 1.289 1_655 S
C10 O24 1.258 . S
C10 O25 1.256 1_556 S
C11 La1 2.928 . S
C11 C12 1.503 1_545 S
C11 O26 1.260 . S
C11 O27 1.243 1_544 S
C12 C11 1.503 1_565 S
C12 C13 1.394 . S
C12 C17 1.373 1_554 S
C13 C12 1.394 . S
C13 C14 1.380 . S
C13 H36 0.930 1_565 S
C14 C13 1.380 . S
C14 C15 1.376 . S
C14 H37 0.930 . S
C15 C14 1.376 . S
C15 C16 1.370 1_554 S
C16 C15 1.370 1_556 S
C16 C17 1.396 . S
C16 H38 0.929 . S
C17 C12 1.373 1_556 S
C17 C16 1.396 . S
C17 H39 0.929 . S
C18 O28 1.240 . S
C18 O29 1.289 1_455 S
C19 O30 1.258 . S
C19 O31 1.256 1_554 S
O20 La0 2.521 . S
O20 C2 1.257 1_565 S
O21 La0 2.628 1_544 S
O21 C2 1.246 1_554 S
O22 La0 2.554 . S
O22 C9 1.240 . S
O23 La0 2.757 1_455 S
O23 La1 2.482 1_566 S
O23 C9 1.289 1_455 S
O24 La0 2.470 1_545 S
O24 C10 1.258 . S
O25 La1 2.503 1_655 S
O25 C10 1.256 1_554 S
O26 La1 2.521 . S
O26 C11 1.260 . S
O27 La1 2.628 1_566 S
O27 C11 1.243 1_566 S
O28 La1 2.554 . S
O28 C18 1.240 . S
O29 La0 2.482 1_544 S
O29 La1 2.757 1_655 S
O29 C18 1.289 1_655 S
O30 La1 2.470 1_565 S
O30 C19 1.258 . S
O31 La0 2.503 1_455 S
O31 C19 1.256 1_556 S
H32 C4 0.930 1_565 S
H33 C5 0.930 . S
H34 C7 0.929 . S
H35 C8 0.929 . S
H36 C13 0.930 1_545 S
H37 C14 0.930 . S
H38 C16 0.929 . S
H39 C17 0.929 . S
La40 C42 2.928 1_455 S
La40 O60 2.521 1_455 S
La40 O61 2.628 1_455 S
La40 O62 2.554 . S
La40 O63 2.757 1_565 S
La40 O64 2.470 1_455 S
La40 O69 2.482 1_455 S
La40 O71 2.503 . S
La41 C51 2.928 1_655 S
La41 O63 2.482 1_655 S
La41 O65 2.503 . S
La41 O66 2.521 1_655 S
La41 O67 2.628 1_655 S
La41 O68 2.554 . S
La41 O69 2.757 1_545 S
La41 O70 2.470 1_655 S
C42 La40 2.928 1_655 S
C42 C43 1.503 . S
C42 O60 1.261 . S
C42 O61 1.243 . S
C43 C42 1.503 . S
C43 C44 1.394 . S
C43 C48 1.373 . S
C44 C43 1.394 . S
C44 C45 1.380 . S
C44 H72 0.930 . S
C45 C44 1.380 . S
C45 C46 1.376 . S
C45 H73 0.930 . S
C46 C45 1.376 . S
C46 C47 1.370 . S
C47 C46 1.370 . S
C47 C48 1.396 . S
C47 H74 0.929 . S
C48 C43 1.373 . S
C48 C47 1.396 . S
C48 H75 0.929 . S
C49 O62 1.240 . S
C49 O63 1.289 1_565 S
C50 O64 1.258 1_545 S
C50 O65 1.256 . S
C51 La41 2.928 1_455 S
C51 C52 1.503 . S
C51 O66 1.261 . S
C51 O67 1.243 . S
C52 C51 1.503 . S
C52 C53 1.394 . S
C52 C57 1.373 . S
C53 C52 1.394 . S
C53 C54 1.380 . S
C53 H76 0.930 . S
C54 C53 1.380 . S
C54 C55 1.376 . S
C54 H77 0.930 . S
C55 C54 1.376 . S
C55 C56 1.370 . S
C56 C55 1.370 . S
C56 C57 1.396 . S
C56 H78 0.929 . S
C57 C52 1.373 . S
C57 C56 1.396 . S
C57 H79 0.929 . S
C58 O68 1.240 . S
C58 O69 1.289 1_545 S
C59 O70 1.258 1_565 S
C59 O71 1.256 . S
O60 La40 2.521 1_655 S
O60 C42 1.261 . S
O61 La40 2.628 1_655 S
O61 C42 1.243 . S
O62 La40 2.554 . S
O62 C49 1.240 . S
O63 La40 2.757 1_545 S
O63 La41 2.482 1_455 S
O63 C49 1.289 1_545 S
O64 La40 2.470 1_655 S
O64 C50 1.258 1_565 S
O65 La41 2.503 . S
O65 C50 1.256 . S
O66 La41 2.521 1_455 S
O66 C51 1.261 . S
O67 La41 2.628 1_455 S
O67 C51 1.243 . S
O68 La41 2.554 . S
O68 C58 1.240 . S
O69 La40 2.482 1_655 S
O69 La41 2.757 1_565 S
O69 C58 1.289 1_565 S
O70 La41 2.470 1_455 S
O70 C59 1.258 1_545 S
O71 La40 2.503 . S
O71 C59 1.256 . S
H72 C44 0.930 . S
H73 C45 0.930 . S
H74 C47 0.929 . S
H75 C48 0.929 . S
H76 C53 0.930 . S
H77 C54 0.930 . S
H78 C56 0.929 . S
H79 C57 0.929 . S
La80 C82 2.928 . S
La80 O100 2.521 . S
La80 O101 2.628 1_556 S
La80 O102 2.554 . S
La80 O103 2.757 . S
La80 O104 2.470 . S
La80 O109 2.482 1_556 S
La80 O111 2.503 . S
La81 C91 2.928 . S
La81 O103 2.482 1_554 S
La81 O105 2.503 . S
La81 O106 2.521 . S
La81 O107 2.628 1_554 S
La81 O108 2.554 . S
La81 O109 2.757 . S
La81 O110 2.470 . S
C82 La80 2.928 . S
C82 C83 1.503 . S
C82 O100 1.261 . S
C82 O101 1.243 1_556 S
C83 C82 1.503 . S
C83 C84 1.394 . S
C83 C88 1.373 1_556 S
C84 C83 1.394 . S
C84 C85 1.380 . S
C84 H112 0.930 . S
C85 C84 1.380 . S
C85 C86 1.376 . S
C85 H113 0.930 . S
C86 C85 1.376 . S
C86 C87 1.370 1_556 S
C87 C86 1.370 1_554 S
C87 C88 1.396 . S
C87 H114 0.929 . S
C88 C83 1.373 1_554 S
C88 C87 1.396 . S
C88 H115 0.929 . S
C89 O102 1.240 . S
C89 O103 1.289 . S
C90 O104 1.258 . S
C90 O105 1.256 1_556 S
C91 La81 2.928 . S
C91 C92 1.503 . S
C91 O106 1.261 . S
C91 O107 1.243 1_554 S
C92 C91 1.503 . S
C92 C93 1.394 . S
C92 C97 1.373 1_554 S
C93 C92 1.394 . S
C93 C94 1.380 . S
C93 H116 0.930 . S
C94 C93 1.380 . S
C94 C95 1.376 . S
C94 H117 0.930 . S
C95 C94 1.376 . S
C95 C96 1.370 1_554 S
C96 C95 1.370 1_556 S
C96 C97 1.396 . S
C96 H118 0.929 . S
C97 C92 1.373 1_556 S
C97 C96 1.396 . S
C97 H119 0.929 . S
C98 O108 1.240 . S
C98 O109 1.289 . S
C99 O110 1.258 . S
C99 O111 1.256 1_554 S
O100 La80 2.521 . S
O100 C82 1.261 . S
O101 La80 2.628 1_554 S
O101 C82 1.243 1_554 S
O102 La80 2.554 . S
O102 C89 1.240 . S
O103 La80 2.757 . S
O103 La81 2.482 1_556 S
O103 C89 1.289 . S
O104 La80 2.470 . S
O104 C90 1.258 . S
O105 La81 2.503 . S
O105 C90 1.256 1_554 S
O106 La81 2.521 . S
O106 C91 1.261 . S
O107 La81 2.628 1_556 S
O107 C91 1.243 1_556 S
O108 La81 2.554 . S
O108 C98 1.240 . S
O109 La80 2.482 1_554 S
O109 La81 2.757 . S
O109 C98 1.289 . S
O110 La81 2.470 . S
O110 C99 1.258 . S
O111 La80 2.503 . S
O111 C99 1.256 1_556 S
H112 C84 0.930 . S
H113 C85 0.930 . S
H114 C87 0.929 . S
H115 C88 0.929 . S
H116 C93 0.930 . S
H117 C94 0.930 . S
H118 C96 0.929 . S
H119 C97 0.929 . S
La120 C122 2.928 . S
La120 O140 2.521 . S
La120 O141 2.628 . S
La120 O142 2.554 . S
La120 O143 2.757 . S
La120 O144 2.470 . S
La120 O149 2.482 . S
La120 O151 2.503 . S
La121 C131 2.928 . S
La121 O143 2.482 . S
La121 O145 2.503 . S
La121 O146 2.521 . S
La121 O147 2.628 . S
La121 O148 2.554 . S
La121 O149 2.757 . S
La121 O150 2.470 . S
C122 La120 2.928 . S
C122 C123 1.503 . S
C122 O140 1.261 . S
C122 O141 1.243 . S
C123 C122 1.503 . S
C123 C124 1.394 . S
C123 C128 1.373 . S
C124 C123 1.394 . S
C124 C125 1.380 . S
C124 H152 0.930 . S
C125 C124 1.380 . S
C125 C126 1.376 . S
C125 H153 0.930 . S
C126 C125 1.376 . S
C126 C127 1.370 . S
C127 C126 1.370 . S
C127 C128 1.396 . S
C127 H154 0.929 . S
C128 C123 1.373 . S
C128 C127 1.396 . S
C128 H155 0.929 . S
C129 O142 1.240 . S
C129 O143 1.289 . S
C130 O144 1.258 . S
C130 O145 1.256 . S
C131 La121 2.928 . S
C131 C132 1.503 . S
C131 O146 1.261 . S
C131 O147 1.243 . S
C132 C131 1.503 . S
C132 C133 1.394 . S
C132 C137 1.373 . S
C133 C132 1.394 . S
C133 C134 1.380 . S
C133 H156 0.930 . S
C134 C133 1.380 . S
C134 C135 1.376 . S
C134 H157 0.930 . S
C135 C134 1.376 . S
C135 C136 1.370 . S
C136 C135 1.370 . S
C136 C137 1.396 . S
C136 H158 0.929 . S
C137 C132 1.373 . S
C137 C136 1.396 . S
C137 H159 0.929 . S
C138 O148 1.240 . S
C138 O149 1.289 . S
C139 O150 1.258 . S
C139 O151 1.256 . S
O140 La120 2.521 . S
O140 C122 1.261 . S
O141 La120 2.628 . S
O141 C122 1.243 . S
O142 La120 2.554 . S
O142 C129 1.240 . S
O143 La120 2.757 . S
O143 La121 2.482 . S
O143 C129 1.289 . S
O144 La120 2.470 . S
O144 C130 1.258 . S
O145 La121 2.503 . S
O145 C130 1.256 . S
O146 La121 2.521 . S
O146 C131 1.261 . S
O147 La121 2.628 . S
O147 C131 1.243 . S
O148 La121 2.554 . S
O148 C138 1.240 . S
O149 La120 2.482 . S
O149 La121 2.757 . S
O149 C138 1.289 . S
O150 La121 2.470 . S
O150 C139 1.258 . S
O151 La120 2.503 . S
O151 C139 1.256 . S
H152 C124 0.930 . S
H153 C125 0.930 . S
H154 C127 0.929 . S
H155 C128 0.929 . S
H156 C133 0.930 . S
H157 C134 0.930 . S
H158 C136 0.929 . S
H159 C137 0.929 . S
H160 C166 0.930 . S
H161 C170 0.930 . S
H162 C175 0.929 . S
H163 C173 0.929 . S
H164 C168 0.929 . S
H165 C174 0.929 . S
C166 H160 0.930 . S
C166 C167 1.367 . S
C166 C174 1.378 . S
C167 C166 1.367 . S
C167 C175 1.433 1_554 S
C168 H164 0.929 . S
C168 C170 1.378 . S
C168 C172 1.360 . S
C169 C172 1.462 1_554 S
C169 C174 1.350 . S
C169 N177 1.427 1_554 S
C170 H161 0.930 . S
C170 C168 1.378 . S
C170 C171 1.367 . S
C171 C170 1.367 . S
C171 C173 1.433 1_556 S
C172 C168 1.360 . S
C172 C169 1.462 1_556 S
C172 N176 1.418 1_556 S
C173 H163 0.929 . S
C173 C171 1.433 1_554 S
C173 N176 1.384 . S
C174 H165 0.929 . S
C174 C166 1.378 . S
C174 C169 1.350 . S
C175 H162 0.929 . S
C175 C167 1.433 1_556 S
C175 N177 1.384 . S
N176 C172 1.418 1_554 S
N176 C173 1.384 . S
N177 C169 1.427 1_556 S
N177 C175 1.384 . S
H178 C184 0.930 . S
H179 C188 0.930 . S
H180 C193 0.929 . S
H181 C191 0.929 . S
H182 C186 0.929 . S
H183 C192 0.929 . S
C184 H178 0.930 . S
C184 C185 1.361 1_554 S
C184 C192 1.378 . S
C185 C184 1.361 1_556 S
C185 C193 1.439 . S
C186 H182 0.929 . S
C186 C188 1.378 . S
C186 C190 1.353 . S
C187 C190 1.462 1_554 S
C187 C192 1.355 . S
C187 N195 1.422 1_554 S
C188 H179 0.930 . S
C188 C186 1.378 . S
C188 C189 1.359 1_556 S
C189 C188 1.359 1_554 S
C189 C191 1.441 . S
C190 C186 1.353 . S
C190 C187 1.462 1_556 S
C190 N194 1.424 1_556 S
C191 H181 0.929 . S
C191 C189 1.441 . S
C191 N194 1.384 . S
C192 H183 0.929 . S
C192 C184 1.378 . S
C192 C187 1.355 . S
C193 H180 0.929 . S
C193 C185 1.439 . S
C193 N195 1.384 . S
N194 C190 1.424 1_554 S
N194 C191 1.384 . S
N195 C187 1.422 1_556 S
N195 C193 1.384 . S
H196 C202 0.930 . S
H197 C206 0.930 . S
H198 C211 0.929 . S
H199 C209 0.929 . S
H200 C204 0.929 . S
H201 C210 0.929 . S
C202 H196 0.930 . S
C202 C203 1.367 . S
C202 C210 1.378 . S
C203 C202 1.367 . S
C203 C211 1.433 . S
C204 H200 0.929 . S
C204 C206 1.378 . S
C204 C208 1.350 . S
C205 C208 1.463 . S
C205 C210 1.350 . S
C205 N213 1.427 . S
C206 H197 0.930 . S
C206 C204 1.378 . S
C206 C207 1.367 . S
C207 C206 1.367 . S
C207 C209 1.433 . S
C208 C204 1.350 . S
C208 C205 1.463 . S
C208 N212 1.427 . S
C209 H199 0.929 . S
C209 C207 1.433 . S
C209 N212 1.384 . S
C210 H201 0.929 . S
C210 C202 1.378 . S
C210 C205 1.350 . S
C211 H198 0.929 . S
C211 C203 1.433 . S
C211 N213 1.384 . S
N212 C208 1.427 . S
N212 C209 1.384 . S
N213 C205 1.427 . S
N213 C211 1.384 . S
H214 C220 0.930 . S
H215 C224 0.930 . S
H216 C229 0.929 . S
H217 C227 0.929 . S
H218 C222 0.929 . S
H219 C228 0.929 . S
C220 H214 0.930 . S
C220 C221 1.367 . S
C220 C228 1.378 . S
C221 C220 1.367 . S
C221 C229 1.433 . S
C222 H218 0.929 . S
C222 C224 1.378 . S
C222 C226 1.350 . S
C223 C226 1.463 . S
C223 C228 1.350 . S
C223 N231 1.427 . S
C224 H215 0.930 . S
C224 C222 1.378 . S
C224 C225 1.367 . S
C225 C224 1.367 . S
C225 C227 1.433 . S
C226 C222 1.350 . S
C226 C223 1.463 . S
C226 N230 1.427 . S
C227 H217 0.929 . S
C227 C225 1.433 . S
C227 N230 1.384 . S
C228 H219 0.929 . S
C228 C220 1.378 . S
C228 C223 1.350 . S
C229 H216 0.929 . S
C229 C221 1.433 . S
C229 N231 1.384 . S
N230 C226 1.427 . S
N230 C227 1.384 . S
N231 C223 1.427 . S
N231 C229 1.384 . S
H232 C238 0.930 . S
H233 C242 0.930 . S
H234 C247 0.929 . S
H235 C245 0.929 . S
H236 C240 0.929 . S
H237 C246 0.929 . S
C238 H232 0.930 . S
C238 C239 1.367 . S
C238 C246 1.378 . S
C239 C238 1.367 . S
C239 C247 1.433 1_554 S
C240 H236 0.929 . S
C240 C242 1.378 . S
C240 C244 1.350 . S
C241 C244 1.463 1_564 S
C241 C246 1.350 . S
C241 N249 1.427 1_554 S
C242 H233 0.930 . S
C242 C240 1.378 . S
C242 C243 1.367 . S
C243 C242 1.367 . S
C243 C245 1.433 1_556 S
C244 C240 1.350 . S
C244 C241 1.463 1_546 S
C244 N248 1.427 1_556 S
C245 H235 0.929 . S
C245 C243 1.433 1_554 S
C245 N248 1.384 . S
C246 H237 0.929 . S
C246 C238 1.378 . S
C246 C241 1.350 . S
C247 H234 0.929 . S
C247 C239 1.433 1_556 S
C247 N249 1.384 . S
N248 C244 1.427 1_554 S
N248 C245 1.384 . S
N249 C241 1.427 1_556 S
N249 C247 1.384 . S
H250 C256 0.930 . S
H251 C260 0.930 . S
H252 C265 0.929 . S
H253 C263 0.929 . S
H254 C258 0.929 . S
H255 C264 0.929 . S
C256 H250 0.930 . S
C256 C257 1.367 1_545 S
C256 C264 1.378 . S
C257 C256 1.367 1_565 S
C257 C265 1.433 . S
C258 H254 0.929 . S
C258 C260 1.378 . S
C258 C262 1.349 1_565 S
C259 C262 1.461 . S
C259 C264 1.350 . S
C259 N267 1.427 1_545 S
C260 H251 0.930 . S
C260 C258 1.378 . S
C260 C261 1.367 1_565 S
C261 C260 1.367 1_545 S
C261 C263 1.433 . S
C262 C258 1.349 1_545 S
C262 C259 1.461 . S
C262 N266 1.430 . S
C263 H253 0.929 . S
C263 C261 1.433 . S
C263 N266 1.384 . S
C264 H255 0.929 . S
C264 C256 1.378 . S
C264 C259 1.350 . S
C265 H252 0.929 . S
C265 C257 1.433 . S
C265 N267 1.384 . S
N266 C262 1.430 . S
N266 C263 1.384 . S
N267 C259 1.427 1_565 S
N267 C265 1.384 . S
H268 C274 0.930 . S
H269 C278 0.930 . S
H270 C283 0.929 . S
H271 C281 0.929 . S
H272 C276 0.929 1_655 S
H273 C282 0.929 1_455 S
C274 H268 0.930 . S
C274 C275 1.367 . S
C274 C282 1.378 . S
C275 C274 1.367 . S
C275 C283 1.433 1_554 S
C276 H272 0.929 1_455 S
C276 C278 1.378 . S
C276 C280 1.350 . S
C277 C280 1.463 1_654 S
C277 C282 1.350 . S
C277 N285 1.427 1_554 S
C278 H269 0.930 . S
C278 C276 1.378 . S
C278 C279 1.367 . S
C279 C278 1.367 . S
C279 C281 1.433 1_556 S
C280 C276 1.350 . S
C280 C277 1.463 1_456 S
C280 N284 1.427 1_556 S
C281 H271 0.929 . S
C281 C279 1.433 1_554 S
C281 N284 1.384 . S
C282 H273 0.929 1_655 S
C282 C274 1.378 . S
C282 C277 1.350 . S
C283 H270 0.929 . S
C283 C275 1.433 1_556 S
C283 N285 1.384 . S
N284 C280 1.427 1_554 S
N284 C281 1.384 . S
N285 C277 1.427 1_556 S
N285 C283 1.384 . S
H286 C292 0.930 . S
H287 C296 0.930 . S
H288 C301 0.929 . S
H289 C299 0.929 . S
H290 C294 0.929 . S
H291 C300 0.929 . S
C292 H286 0.930 . S
C292 C293 1.367 . S
C292 C300 1.378 . S
C293 C292 1.367 . S
C293 C301 1.433 . S
C294 H290 0.929 . S
C294 C296 1.378 . S
C294 C298 1.350 . S
C295 C298 1.463 1_455 S
C295 C300 1.350 . S
C295 N303 1.427 . S
C296 H287 0.930 . S
C296 C294 1.378 . S
C296 C297 1.367 . S
C297 C296 1.367 . S
C297 C299 1.433 . S
C298 C294 1.350 . S
C298 C295 1.463 1_655 S
C298 N302 1.427 . S
C299 H289 0.929 . S
C299 C297 1.433 . S
C299 N302 1.384 . S
C300 H291 0.929 . S
C300 C292 1.378 . S
C300 C295 1.350 . S
C301 H288 0.929 . S
C301 C293 1.433 . S
C301 N303 1.384 . S
N302 C298 1.427 . S
N302 C299 1.384 . S
N303 C295 1.427 . S
N303 C301 1.384 . S
H304 C310 0.930 . S
H305 C314 0.930 . S
H306 C319 0.929 . S
H307 C317 0.929 . S
H308 C312 0.929 . S
H309 C318 0.929 . S
C310 H304 0.930 . S
C310 C311 1.345 1_565 S
C310 C318 1.378 . S
C311 C310 1.345 1_545 S
C311 C319 1.458 1_655 S
C312 H308 0.929 . S
C312 C314 1.378 . S
C312 C316 1.348 1_455 S
C313 C316 1.466 . S
C313 C318 1.329 1_545 S
C313 N321 1.448 1_655 S
C314 H305 0.930 . S
C314 C312 1.378 . S
C314 C315 1.364 1_455 S
C315 C314 1.364 1_655 S
C315 C317 1.436 1_545 S
C316 C312 1.348 1_655 S
C316 C313 1.466 . S
C316 N320 1.429 1_545 S
C317 H307 0.929 . S
C317 C315 1.436 1_565 S
C317 N320 1.384 . S
C318 H309 0.929 . S
C318 C310 1.378 . S
C318 C313 1.329 1_565 S
C319 H306 0.929 . S
C319 C311 1.458 1_455 S
C319 N321 1.384 . S
N320 C316 1.429 1_565 S
N320 C317 1.384 . S
N321 C313 1.448 1_455 S
N321 C319 1.384 . S
H322 C328 0.930 . S
H323 C332 0.930 . S
H324 C337 0.929 . S
H325 C335 0.929 . S
H326 C330 0.929 . S
H327 C336 0.929 . S
C328 H322 0.930 . S
C328 C329 1.347 1_545 S
C328 C336 1.378 . S
C329 C328 1.347 1_565 S
C329 C337 1.452 1_455 S
C330 H326 0.929 . S
C330 C332 1.378 . S
C330 C334 1.350 1_655 S
C331 C334 1.463 . S
C331 C336 1.344 1_565 S
C331 N339 1.433 1_455 S
C332 H323 0.930 . S
C332 C330 1.378 . S
C332 C333 1.367 1_655 S
C333 C332 1.367 1_455 S
C333 C335 1.433 1_565 S
C334 C330 1.350 1_455 S
C334 C331 1.463 . S
C334 N338 1.427 1_565 S
C335 H325 0.929 . S
C335 C333 1.433 1_545 S
C335 N338 1.384 . S
C336 H327 0.929 . S
C336 C328 1.378 . S
C336 C331 1.344 1_545 S
C337 H324 0.929 . S
C337 C329 1.452 1_655 S
C337 N339 1.384 . S
N338 C334 1.427 1_545 S
N338 C335 1.384 . S
N339 C331 1.433 1_655 S
N339 C337 1.384 . S
H340 C346 0.930 . S
H341 C350 0.930 . S
H342 C355 0.929 . S
H343 C353 0.929 . S
H344 C348 0.929 . S
H345 C354 0.929 . S
C346 H340 0.930 . S
C346 C347 1.367 . S
C346 C354 1.378 . S
C347 C346 1.367 . S
C347 C355 1.433 . S
C348 H344 0.929 . S
C348 C350 1.378 . S
C348 C352 1.350 . S
C349 C352 1.463 . S
C349 C354 1.350 . S
C349 N357 1.427 . S
C350 H341 0.930 . S
C350 C348 1.378 . S
C350 C351 1.367 . S
C351 C350 1.367 . S
C351 C353 1.433 . S
C352 C348 1.350 . S
C352 C349 1.463 . S
C352 N356 1.427 . S
C353 H343 0.929 . S
C353 C351 1.433 . S
C353 N356 1.384 . S
C354 H345 0.929 . S
C354 C346 1.378 . S
C354 C349 1.350 . S
C355 H342 0.929 . S
C355 C347 1.433 . S
C355 N357 1.384 . S
N356 C352 1.427 . S
N356 C353 1.384 . S
N357 C349 1.427 . S
N357 C355 1.384 . S
H358 C364 0.930 . S
H359 C368 0.930 . S
H360 C373 0.929 . S
H361 C371 0.929 . S
H362 C366 0.929 . S
H363 C372 0.929 . S
C364 H358 0.930 . S
C364 C365 1.367 . S
C364 C372 1.378 . S
C365 C364 1.367 . S
C365 C373 1.433 . S
C366 H362 0.929 . S
C366 C368 1.378 . S
C366 C370 1.350 . S
C367 C370 1.463 . S
C367 C372 1.350 . S
C367 N375 1.427 . S
C368 H359 0.930 . S
C368 C366 1.378 . S
C368 C369 1.367 . S
C369 C368 1.367 . S
C369 C371 1.433 . S
C370 C366 1.350 . S
C370 C367 1.463 . S
C370 N374 1.427 . S
C371 H361 0.929 . S
C371 C369 1.433 . S
C371 N374 1.384 . S
C372 H363 0.929 . S
C372 C364 1.378 . S
C372 C367 1.350 . S
C373 H360 0.929 . S
C373 C365 1.433 . S
C373 N375 1.384 . S
N374 C370 1.427 . S
N374 C371 1.384 . S
N375 C367 1.427 . S
N375 C373 1.384 . S
C167 C90 3.604 1_554 S
C171 C19 3.604 1_556 S
C185 C99 3.605 1_556 S
C189 C10 3.605 1_554 S
C203 C55 0.171 . S
C207 C126 0.171 . S
C221 C46 0.172 . S
C225 C135 0.172 . S
C239 C15 0.988 . S
C243 C6 0.988 . S
C257 C59 4.900 . S
C261 C50 4.900 . S
C275 C95 0.987 . S
C279 C86 0.987 . S
C293 C130 4.901 . S
C297 C139 4.901 . S
C311 C49 1.435 1_645 S
C315 C18 1.442 1_655 S
C329 C9 1.464 1_455 S
C333 C58 1.457 1_465 S
C347 C129 1.454 . S
C351 C98 1.458 . S
C365 C138 1.441 . S
C369 C89 1.453 . S
