# Generated by pormake.
# Topology ecc, (8)-cn, num edge types: 1
# Building blocks:
#     Node 0, Type 0, BuildingBlock: AJUNOK_clean_sbu_0, # of connection points: 8
#     Node 1, Type 0, BuildingBlock: AJUNOK_clean_sbu_0, # of connection points: 8
#     Node 2, Type 0, BuildingBlock: AJUNOK_clean_sbu_0, # of connection points: 8
#     Node 3, Type 0, BuildingBlock: AJUNOK_clean_sbu_0, # of connection points: 8
#     Node 4, Type 0, BuildingBlock: AJUNOK_clean_sbu_0, # of connection points: 8
#     Node 5, Type 0, BuildingBlock: AJUNOK_clean_sbu_0, # of connection points: 8
#     Node 6, Type 0, BuildingBlock: AJUNOK_clean_sbu_0, # of connection points: 8
#     Node 7, Type 0, BuildingBlock: AJUNOK_clean_sbu_0, # of connection points: 8
#     Node 8, Type 0, BuildingBlock: AJUNOK_clean_sbu_0, # of connection points: 8
#     Node 9, Type 0, BuildingBlock: AJUNOK_clean_sbu_0, # of connection points: 8
#     Node 10, Type 0, BuildingBlock: AJUNOK_clean_sbu_0, # of connection points: 8
#     Node 11, Type 0, BuildingBlock: AJUNOK_clean_sbu_0, # of connection points: 8
#     Node 12, Type 0, BuildingBlock: AJUNOK_clean_sbu_0, # of connection points: 8
#     Node 13, Type 0, BuildingBlock: AJUNOK_clean_sbu_0, # of connection points: 8
#     Node 14, Type 0, BuildingBlock: AJUNOK_clean_sbu_0, # of connection points: 8
#     Node 15, Type 0, BuildingBlock: AJUNOK_clean_sbu_0, # of connection points: 8
#     Node 16, Type 0, BuildingBlock: AJUNOK_clean_sbu_0, # of connection points: 8
#     Node 17, Type 0, BuildingBlock: AJUNOK_clean_sbu_0, # of connection points: 8
#     Edge 18, Type (0, 0), BuildingBlock: XUDNAN_clean_linker_2, # of connection points: 2
#     Edge 19, Type (0, 0), BuildingBlock: XUDNAN_clean_linker_2, # of connection points: 2
#     Edge 20, Type (0, 0), BuildingBlock: XUDNAN_clean_linker_2, # of connection points: 2
#     Edge 21, Type (0, 0), BuildingBlock: XUDNAN_clean_linker_2, # of connection points: 2
#     Edge 22, Type (0, 0), BuildingBlock: XUDNAN_clean_linker_2, # of connection points: 2
#     Edge 23, Type (0, 0), BuildingBlock: XUDNAN_clean_linker_2, # of connection points: 2
#     Edge 24, Type (0, 0), BuildingBlock: XUDNAN_clean_linker_2, # of connection points: 2
#     Edge 25, Type (0, 0), BuildingBlock: XUDNAN_clean_linker_2, # of connection points: 2
#     Edge 26, Type (0, 0), BuildingBlock: XUDNAN_clean_linker_2, # of connection points: 2
#     Edge 27, Type (0, 0), BuildingBlock: XUDNAN_clean_linker_2, # of connection points: 2
#     Edge 28, Type (0, 0), BuildingBlock: XUDNAN_clean_linker_2, # of connection points: 2
#     Edge 29, Type (0, 0), BuildingBlock: XUDNAN_clean_linker_2, # of connection points: 2
#     Edge 30, Type (0, 0), BuildingBlock: XUDNAN_clean_linker_2, # of connection points: 2
#     Edge 31, Type (0, 0), BuildingBlock: XUDNAN_clean_linker_2, # of connection points: 2
#     Edge 32, Type (0, 0), BuildingBlock: XUDNAN_clean_linker_2, # of connection points: 2
#     Edge 33, Type (0, 0), BuildingBlock: XUDNAN_clean_linker_2, # of connection points: 2
#     Edge 34, Type (0, 0), BuildingBlock: XUDNAN_clean_linker_2, # of connection points: 2
#     Edge 35, Type (0, 0), BuildingBlock: XUDNAN_clean_linker_2, # of connection points: 2
#     Edge 36, Type (0, 0), BuildingBlock: XUDNAN_clean_linker_2, # of connection points: 2
#     Edge 37, Type (0, 0), BuildingBlock: XUDNAN_clean_linker_2, # of connection points: 2
#     Edge 38, Type (0, 0), BuildingBlock: XUDNAN_clean_linker_2, # of connection points: 2
#     Edge 39, Type (0, 0), BuildingBlock: XUDNAN_clean_linker_2, # of connection points: 2
#     Edge 40, Type (0, 0), BuildingBlock: XUDNAN_clean_linker_2, # of connection points: 2
#     Edge 41, Type (0, 0), BuildingBlock: XUDNAN_clean_linker_2, # of connection points: 2
#     Edge 42, Type (0, 0), BuildingBlock: XUDNAN_clean_linker_2, # of connection points: 2
#     Edge 43, Type (0, 0), BuildingBlock: XUDNAN_clean_linker_2, # of connection points: 2
#     Edge 44, Type (0, 0), BuildingBlock: XUDNAN_clean_linker_2, # of connection points: 2
#     Edge 45, Type (0, 0), BuildingBlock: XUDNAN_clean_linker_2, # of connection points: 2
#     Edge 46, Type (0, 0), BuildingBlock: XUDNAN_clean_linker_2, # of connection points: 2
#     Edge 47, Type (0, 0), BuildingBlock: XUDNAN_clean_linker_2, # of connection points: 2
#     Edge 48, Type (0, 0), BuildingBlock: XUDNAN_clean_linker_2, # of connection points: 2
#     Edge 49, Type (0, 0), BuildingBlock: XUDNAN_clean_linker_2, # of connection points: 2
#     Edge 50, Type (0, 0), BuildingBlock: XUDNAN_clean_linker_2, # of connection points: 2
#     Edge 51, Type (0, 0), BuildingBlock: XUDNAN_clean_linker_2, # of connection points: 2
#     Edge 52, Type (0, 0), BuildingBlock: XUDNAN_clean_linker_2, # of connection points: 2
#     Edge 53, Type (0, 0), BuildingBlock: XUDNAN_clean_linker_2, # of connection points: 2
#     Edge 54, Type (0, 0), BuildingBlock: XUDNAN_clean_linker_2, # of connection points: 2
#     Edge 55, Type (0, 0), BuildingBlock: XUDNAN_clean_linker_2, # of connection points: 2
#     Edge 56, Type (0, 0), BuildingBlock: XUDNAN_clean_linker_2, # of connection points: 2
#     Edge 57, Type (0, 0), BuildingBlock: XUDNAN_clean_linker_2, # of connection points: 2
#     Edge 58, Type (0, 0), BuildingBlock: XUDNAN_clean_linker_2, # of connection points: 2
#     Edge 59, Type (0, 0), BuildingBlock: XUDNAN_clean_linker_2, # of connection points: 2
#     Edge 60, Type (0, 0), BuildingBlock: XUDNAN_clean_linker_2, # of connection points: 2
#     Edge 61, Type (0, 0), BuildingBlock: XUDNAN_clean_linker_2, # of connection points: 2
#     Edge 62, Type (0, 0), BuildingBlock: XUDNAN_clean_linker_2, # of connection points: 2
#     Edge 63, Type (0, 0), BuildingBlock: XUDNAN_clean_linker_2, # of connection points: 2
#     Edge 64, Type (0, 0), BuildingBlock: XUDNAN_clean_linker_2, # of connection points: 2
#     Edge 65, Type (0, 0), BuildingBlock: XUDNAN_clean_linker_2, # of connection points: 2
#     Edge 66, Type (0, 0), BuildingBlock: XUDNAN_clean_linker_2, # of connection points: 2
#     Edge 67, Type (0, 0), BuildingBlock: XUDNAN_clean_linker_2, # of connection points: 2
#     Edge 68, Type (0, 0), BuildingBlock: XUDNAN_clean_linker_2, # of connection points: 2
#     Edge 69, Type (0, 0), BuildingBlock: XUDNAN_clean_linker_2, # of connection points: 2
#     Edge 70, Type (0, 0), BuildingBlock: XUDNAN_clean_linker_2, # of connection points: 2
#     Edge 71, Type (0, 0), BuildingBlock: XUDNAN_clean_linker_2, # of connection points: 2
#     Edge 72, Type (0, 0), BuildingBlock: XUDNAN_clean_linker_2, # of connection points: 2
#     Edge 73, Type (0, 0), BuildingBlock: XUDNAN_clean_linker_2, # of connection points: 2
#     Edge 74, Type (0, 0), BuildingBlock: XUDNAN_clean_linker_2, # of connection points: 2
#     Edge 75, Type (0, 0), BuildingBlock: XUDNAN_clean_linker_2, # of connection points: 2
#     Edge 76, Type (0, 0), BuildingBlock: XUDNAN_clean_linker_2, # of connection points: 2
#     Edge 77, Type (0, 0), BuildingBlock: XUDNAN_clean_linker_2, # of connection points: 2
#     Edge 78, Type (0, 0), BuildingBlock: XUDNAN_clean_linker_2, # of connection points: 2
#     Edge 79, Type (0, 0), BuildingBlock: XUDNAN_clean_linker_2, # of connection points: 2
#     Edge 80, Type (0, 0), BuildingBlock: XUDNAN_clean_linker_2, # of connection points: 2
#     Edge 81, Type (0, 0), BuildingBlock: XUDNAN_clean_linker_2, # of connection points: 2
#     Edge 82, Type (0, 0), BuildingBlock: XUDNAN_clean_linker_2, # of connection points: 2
#     Edge 83, Type (0, 0), BuildingBlock: XUDNAN_clean_linker_2, # of connection points: 2
#     Edge 84, Type (0, 0), BuildingBlock: XUDNAN_clean_linker_2, # of connection points: 2
#     Edge 85, Type (0, 0), BuildingBlock: XUDNAN_clean_linker_2, # of connection points: 2
#     Edge 86, Type (0, 0), BuildingBlock: XUDNAN_clean_linker_2, # of connection points: 2
#     Edge 87, Type (0, 0), BuildingBlock: XUDNAN_clean_linker_2, # of connection points: 2
#     Edge 88, Type (0, 0), BuildingBlock: XUDNAN_clean_linker_2, # of connection points: 2
#     Edge 89, Type (0, 0), BuildingBlock: XUDNAN_clean_linker_2, # of connection points: 2
# Relax obj value: 0.399
# Max RMSD: 0.267
# Mean RMSD: 0.267
data_MOF--net-ecc--node1-AJUNOK_clean_sbu_0--edge1-XUDNAN_clean_linker_2
_symmetry_space_group_name_H-M    P1
_symmetry_Int_Tables_number       1
_symmetry_cell_setting            triclinic
loop_
_symmetry_equiv_pos_as_xyz
'x, y, z'
_cell_length_a     64.535372
_cell_length_b     64.441033
_cell_length_c     25.511838
_cell_angle_alpha  90.014231
_cell_angle_beta   89.989548
_cell_angle_gamma 120.04917
loop_
_atom_site_label
_atom_site_type_symbol
_atom_site_fract_x
_atom_site_fract_y
_atom_site_fract_z
_atom_type_partial_charge
Cd0 Cd 0.18422 0.01386 0.73257 0.0
Cd1 Cd 0.25647 0.0438 0.75901 0.0
C2 C 0.17958 0.06125 0.7378 0.0
N3 N 0.18024 0.0446 0.76932 0.0
C4 C 0.16188 0.05423 0.83925 0.0
C5 C 0.1593 0.07009 0.80592 0.0
C6 C 0.16975 0.07478 0.75602 0.0
C7 C 0.1728 0.04173 0.82007 0.0
H8 H 0.18456 0.06258 0.69715 0.0
H9 H 0.17309 0.02798 0.84383 0.0
C10 C 0.21721 0.00558 0.83827 0.0
C11 C 0.24169 0.98725 0.73928 0.0
C12 C 0.24069 0.9685 0.70996 0.0
C13 C 0.2471 0.9723 0.65702 0.0
C14 C 0.25337 0.99439 0.63394 0.0
C15 C 0.25407 0.01252 0.66447 0.0
N16 N 0.24835 0.00877 0.71612 0.0
H17 H 0.23809 0.98464 0.78067 0.0
H18 H 0.26011 0.02993 0.64731 0.0
C19 C 0.24316 0.06531 0.85411 0.0
N20 N 0.2418 0.06599 0.80107 0.0
C21 C 0.22936 0.09517 0.80722 0.0
C22 C 0.23002 0.09422 0.86207 0.0
C23 C 0.23716 0.0791 0.88538 0.0
C24 C 0.23565 0.08105 0.77729 0.0
H25 H 0.24998 0.05488 0.87251 0.0
H26 H 0.23611 0.08281 0.73539 0.0
C27 C 0.22908 0.05643 0.65226 0.0
C28 C 0.13441 0.98005 0.73829 0.0
N29 N 0.19203 0.98831 0.68402 0.0
C30 C 0.19825 0.99268 0.6326 0.0
C31 C 0.19632 0.97439 0.60044 0.0
C32 C 0.18707 0.95128 0.62106 0.0
C33 C 0.18221 0.94754 0.67486 0.0
C34 C 0.18486 0.96652 0.70594 0.0
C35 C 0.30632 0.07173 0.77495 0.0
O36 O 0.20414 0.00731 0.8037 0.0
O37 O 0.23967 0.01685 0.83234 0.0
O38 O 0.24552 0.05692 0.68039 0.0
O39 O 0.20708 0.04396 0.66479 0.0
O40 O 0.14759 0.98737 0.77853 0.0
O41 O 0.14408 0.98886 0.69434 0.0
O42 O 0.29825 0.06733 0.72862 0.0
O43 O 0.29139 0.06259 0.81184 0.0
H44 H 0.20287 0.00967 0.61517 0.0
H45 H 0.17936 0.96341 0.74658 0.0
H46 H 0.1536 0.04993 0.87765 0.0
H47 H 0.16753 0.08648 0.72892 0.0
H48 H 0.23618 0.95171 0.72894 0.0
H49 H 0.25844 -0.00216 0.59301 0.0
H50 H 0.22427 0.10684 0.78754 0.0
H51 H 0.23922 0.07866 0.92741 0.0
H52 H 0.1996 0.97772 0.55879 0.0
H53 H 0.17464 0.92977 0.69164 0.0
Cd54 Cd 0.02814 0.15663 0.7307 0.0
Cd55 Cd 0.00295 0.1997 0.76063 0.0
C56 C 0.98061 0.10654 0.74419 0.0
N57 N -0.00154 0.12333 0.7744 0.0
C58 C 0.98841 0.09496 0.84389 0.0
C59 C 0.97069 0.07703 0.8121 0.0
C60 C 0.96604 0.08345 0.76284 0.0
C61 C 0.00234 0.11817 0.8239 0.0
H62 H 0.97917 0.11009 0.70355 0.0
H63 H 0.01736 0.13152 0.84627 0.0
C64 C 0.04719 0.19871 0.83139 0.0
C65 C 0.05073 0.24649 0.72095 0.0
C66 C 0.06537 0.2651 0.68697 0.0
C67 C 0.05951 0.26289 0.63368 0.0
C68 C 0.04039 0.24149 0.61481 0.0
C69 C 0.02634 0.22341 0.64991 0.0
N70 N 0.03136 0.22635 0.70205 0.0
H71 H 0.05396 0.24884 0.76265 0.0
H72 H 0.01075 0.20768 0.63534 0.0
C73 C 0.98866 0.1606 0.85314 0.0
N74 N 0.98127 0.16264 0.80446 0.0
C75 C 0.94465 0.12552 0.81617 0.0
C76 C 0.95218 0.1227 0.86595 0.0
C77 C 0.97465 0.14056 0.8841 0.0
C78 C 0.95932 0.14583 0.78647 0.0
H79 H 0.00477 0.17502 0.86961 0.0
H80 H 0.95228 0.14871 0.75072 0.0
C81 C 0.98014 0.15816 0.66277 0.0
C82 C 0.05707 0.1348 0.72182 0.0
N83 N 0.04962 0.18891 0.67543 0.0
C84 C 0.04494 0.18667 0.62316 0.0
C85 C 0.06206 0.2027 0.58815 0.0
C86 C 0.08429 0.2205 0.60734 0.0
C87 C 0.08786 0.22368 0.66149 0.0
C88 C 0.07015 0.20744 0.69518 0.0
C89 C 0.98007 0.22222 0.80871 0.0
O90 O 0.04288 0.17905 0.81086 0.0
O91 O 0.0376 0.21036 0.81441 0.0
O92 O 0.9808 0.17566 0.68679 0.0
O93 O -0.00593 0.15027 0.67479 0.0
O94 O 0.06359 0.15397 0.74708 0.0
O95 O 0.03764 0.12646 0.69618 0.0
O96 O 0.97649 0.21714 0.76037 0.0
O97 O -0.00479 0.21846 0.83162 0.0
H98 H 0.02895 0.17129 0.60827 0.0
H99 H 0.07378 0.20828 0.73667 0.0
H100 H -0.00727 0.09061 0.88185 0.0
H101 H 0.95327 0.0701 0.73614 0.0
H102 H 0.07978 0.2817 0.70266 0.0
H103 H 0.03538 0.23946 0.57379 0.0
H104 H 0.92702 0.11291 0.80132 0.0
H105 H 0.98131 0.13939 0.92227 0.0
H106 H 0.05914 0.1994 0.54642 0.0
H107 H 0.10512 0.2368 0.67729 0.0
Cd108 Cd 0.88384 0.8599 0.71588 0.0
Cd109 Cd 0.84498 0.78797 0.7671 0.0
C110 C 0.93538 0.86535 0.70821 0.0
N111 N 0.92006 0.86467 0.74553 0.0
C112 C 0.94999 0.87522 0.81192 0.0
C113 C 0.96576 0.87515 0.77407 0.0
C114 C 0.95815 0.87013 0.72178 0.0
C115 C 0.92691 0.86973 0.79664 0.0
H116 H 0.93035 0.8631 0.66739 0.0
H117 H 0.91467 0.87 0.82522 0.0
C118 C 0.85437 0.83273 0.84051 0.0
C119 C 0.80958 0.80891 0.7432 0.0
C120 C 0.79106 0.81006 0.71813 0.0
C121 C 0.78226 0.79802 0.67048 0.0
C122 C 0.79302 0.78593 0.64776 0.0
C123 C 0.8116 0.7853 0.6742 0.0
N124 N 0.81925 0.79646 0.72126 0.0
H125 H 0.8153 0.81709 0.78114 0.0
H126 H 0.81923 0.77502 0.6584 0.0
C127 C 0.87771 0.7953 0.86366 0.0
N128 N 0.88065 0.80063 0.81171 0.0
C129 C 0.92279 0.81633 0.81896 0.0
C130 C 0.92033 0.81185 0.87313 0.0
C131 C 0.89736 0.80106 0.89532 0.0
C132 C 0.90259 0.81066 0.7888 0.0
H133 H 0.85995 0.78619 0.88047 0.0
H134 H 0.90456 0.8141 0.74726 0.0
C135 C 0.88161 0.81074 0.65266 0.0
C136 C 0.90382 0.91053 0.71966 0.0
N137 N 0.85007 0.85054 0.66475 0.0
C138 C 0.84458 0.83755 0.61964 0.0
C139 C 0.82789 0.83743 0.5849 0.0
C140 C 0.81741 0.85148 0.59581 0.0
C141 C 0.82134 0.8625 0.64507 0.0
C142 C 0.83793 0.86185 0.6791 0.0
C143 C 0.82038 0.73838 0.78791 0.0
O144 O 0.86523 0.84385 0.79942 0.0
O145 O 0.8423 0.81011 0.84062 0.0
O146 O 0.86822 0.79708 0.68864 0.0
O147 O 0.88881 0.83311 0.65269 0.0
O148 O 0.88636 0.89645 0.7483 0.0
O149 O 0.9113 0.90111 0.68641 0.0
O150 O 0.83399 0.74635 0.74837 0.0
O151 O 0.81753 0.75326 0.8148 0.0
H152 H 0.85397 0.82839 0.60851 0.0
H153 H 0.84232 0.87179 0.71542 0.0
H154 H 0.95544 0.87948 0.85247 0.0
H155 H 0.97013 0.87098 0.69101 0.0
H156 H 0.78304 0.81945 0.73681 0.0
H157 H 0.7863 0.776 0.61154 0.0
H158 H 0.94012 0.82423 0.80009 0.0
H159 H 0.89443 0.79631 0.93645 0.0
H160 H 0.825 0.82838 0.54754 0.0
H161 H 0.8137 0.87361 0.65499 0.0
Cd162 Cd 0.80704 0.97674 0.21667 0.0
Cd163 Cd 0.88036 0.01089 0.26037 0.0
C164 C 0.82547 0.03087 0.25881 0.0
N165 N 0.81304 0.00731 0.27233 0.0
C166 C 0.79944 0.01633 0.35118 0.0
C167 C 0.81211 0.04088 0.33875 0.0
C168 C 0.82525 0.0481 0.2917 0.0
C169 C 0.79975 -0.00019 0.3168 0.0
H170 H 0.83496 0.03625 0.22198 0.0
H171 H 0.78913 0.98088 0.32532 0.0
C172 C 0.82951 0.96252 0.32799 0.0
C173 C 0.88816 0.96545 0.27083 0.0
C174 C 0.89732 0.95084 0.25595 0.0
C175 C 0.90522 0.9519 0.20428 0.0
C176 C 0.9016 0.96589 0.16736 0.0
C177 C 0.8915 0.97955 0.18356 0.0
N178 N 0.88578 0.97964 0.23484 0.0
H179 H 0.8849 0.96697 0.31177 0.0
H180 H 0.88996 0.99154 0.15621 0.0
C181 C 0.85739 0.02643 0.35533 0.0
N182 N 0.87555 0.03553 0.32001 0.0
C183 C 0.89254 0.07416 0.35981 0.0
C184 C 0.87471 0.06487 0.39893 0.0
C185 C 0.85635 0.04089 0.39446 0.0
C186 C 0.8925 0.05913 0.3204 0.0
H187 H 0.8438 0.00787 0.35411 0.0
H188 H 0.90673 0.06601 0.29169 0.0
C189 C 0.85019 0.01534 0.1442 0.0
C190 C 0.76069 0.96034 0.17966 0.0
N191 N 0.82145 0.95432 0.17405 0.0
C192 C 0.81774 0.95237 0.12144 0.0
C193 C 0.82392 0.93823 0.09154 0.0
C194 C 0.83345 0.92535 0.11611 0.0
C195 C 0.83698 0.9275 0.17054 0.0
C196 C 0.83076 0.94211 0.19891 0.0
C197 C 0.92973 0.04214 0.23716 0.0
O198 O 0.81305 0.96093 0.29797 0.0
O199 O 0.85169 0.97716 0.31907 0.0
O200 O 0.86169 0.0145 0.18334 0.0
O201 O 0.8277 0.00308 0.14458 0.0
O202 O 0.76444 0.94599 0.20673 0.0
O203 O 0.77778 0.98152 0.17463 0.0
O204 O 0.91285 0.03871 0.20645 0.0
O205 O 0.92383 0.03177 0.28167 0.0
H206 H 0.80953 0.9615 0.1027 0.0
H207 H 0.83304 0.9432 0.2407 0.0
H208 H 0.78943 0.00978 0.38729 0.0
H209 H 0.83482 0.06671 0.27978 0.0
H210 H 0.90055 0.94081 0.28573 0.0
H211 H 0.90788 0.96737 0.12741 0.0
H212 H 0.90743 0.09234 0.36128 0.0
H213 H 0.84165 0.03294 0.42202 0.0
H214 H 0.82115 0.93735 0.04955 0.0
H215 H 0.84401 0.91766 0.19114 0.0
Cd216 Cd 0.06889 0.82497 0.2306 0.0
Cd217 Cd 0.03499 0.86164 0.27421 0.0
C218 C 0.02018 0.77638 0.26349 0.0
N219 N 0.03722 0.79793 0.28281 0.0
C220 C 0.02441 0.78493 0.37035 0.0
C221 C 0.00742 0.76217 0.35224 0.0
C222 C 0.00493 0.75808 0.29777 0.0
C223 C 0.03946 0.80227 0.33516 0.0
H224 H 0.01938 0.77288 0.22187 0.0
H225 H 0.0534 0.81882 0.35063 0.0
C226 C 0.08355 0.86415 0.3393 0.0
C227 C 0.08168 0.91255 0.26725 0.0
C228 C 0.09607 0.93592 0.25003 0.0
C229 C 0.09365 0.94217 0.19861 0.0
C230 C 0.07826 0.92386 0.16408 0.0
C231 C 0.06431 0.9004 0.18294 0.0
N232 N 0.06583 0.89543 0.23418 0.0
H233 H 0.08169 0.90878 0.3084 0.0
H234 H 0.05097 0.88666 0.15789 0.0
C235 C 0.01365 0.83094 0.37963 0.0
N236 N 0.01115 0.82913 0.32668 0.0
C237 C 0.97379 0.79262 0.33401 0.0
C238 C 0.97529 0.79489 0.38865 0.0
C239 C -0.00402 0.8136 0.41158 0.0
C240 C -0.00783 0.8101 0.30344 0.0
H241 H 0.02849 0.84661 0.39713 0.0
H242 H 0.99041 0.8095 0.26124 0.0
C243 C 0.02602 0.82415 0.15985 0.0
C244 C 0.09554 0.80139 0.21548 0.0
N245 N 0.08927 0.86106 0.18427 0.0
C246 C 0.0869 0.85855 0.13133 0.0
C247 C 0.10086 0.87781 0.09847 0.0
C248 C 0.1177 0.89989 0.12028 0.0
C249 C 0.11915 0.90231 0.17498 0.0
C250 C 0.10502 0.88251 0.20636 0.0
C251 C 0.00556 0.88308 0.27347 0.0
O252 O 0.08519 0.85106 0.30443 0.0
O253 O 0.06626 0.86836 0.33996 0.0
O254 O 0.02649 0.83846 0.19452 0.0
O255 O 0.0383 0.81394 0.16532 0.0
O256 O 0.09099 0.80585 0.26087 0.0
O257 O 0.08795 0.80808 0.17705 0.0
O258 O -0.00029 0.86381 0.24912 0.0
O259 O 0.02428 0.89163 0.30158 0.0
H260 H 0.0752 0.84118 0.1143 0.0
H261 H 0.10744 0.88445 0.24808 0.0
H262 H 0.02663 0.78931 0.41169 0.0
H263 H -0.00765 0.74066 0.28186 0.0
H264 H 0.10704 0.9494 0.27866 0.0
H265 H 0.07581 0.92793 0.12416 0.0
H266 H 0.95772 0.77875 0.31532 0.0
H267 H -0.00276 0.81621 0.45368 0.0
H268 H 0.09954 0.87491 0.05651 0.0
H269 H 0.13169 0.91913 0.19347 0.0
Cd270 Cd 0.21883 0.23003 0.22406 0.0
Cd271 Cd 0.17813 0.16057 0.2696 0.0
C272 C 0.2582 0.21623 0.25945 0.0
N273 N 0.24627 0.22737 0.27654 0.0
C274 C 0.27256 0.24399 0.34949 0.0
C275 C 0.28503 0.23253 0.33301 0.0
C276 C 0.27758 0.21828 0.28783 0.0
C277 C 0.2531 0.24118 0.32036 0.0
H278 H 0.25307 0.20616 0.22335 0.0
H279 H 0.24385 0.25058 0.33169 0.0
C280 C 0.1819 0.20942 0.33791 0.0
C281 C 0.13686 0.17265 0.23744 0.0
C282 C 0.11347 0.16452 0.22082 0.0
C283 C 0.10287 0.14558 0.18478 0.0
C284 C 0.11707 0.13743 0.16095 0.0
C285 C 0.14045 0.14608 0.17873 0.0
N286 N 0.14936 0.16249 0.21815 0.0
H287 H 0.14396 0.18536 0.26914 0.0
H288 H 0.15039 0.13764 0.16547 0.0
C289 C 0.21966 0.18445 0.36063 0.0
N290 N 0.21367 0.17195 0.31483 0.0
C291 C 0.24122 0.15827 0.33176 0.0
C292 C 0.24515 0.16828 0.38213 0.0
C293 C 0.23602 0.18339 0.39441 0.0
C294 C 0.22532 0.16044 0.2984 0.0
H295 H 0.21062 0.19372 0.37345 0.0
H296 H 0.22053 0.15093 0.26148 0.0
C297 C 0.21244 0.18132 0.1546 0.0
C298 C 0.24979 0.27586 0.18315 0.0
N299 N 0.18276 0.22149 0.18741 0.0
C300 C 0.17413 0.20744 0.1441 0.0
C301 C 0.15441 0.20553 0.11788 0.0
C302 C 0.14385 0.21868 0.13565 0.0
C303 C 0.15271 0.23264 0.18106 0.0
C304 C 0.17239 0.23382 0.20649 0.0
C305 C 0.15305 0.10918 0.27778 0.0
O306 O 0.19642 0.22415 0.30453 0.0
O307 O 0.17356 0.18687 0.33358 0.0
O308 O 0.19822 0.16626 0.18749 0.0
O309 O 0.22104 0.20356 0.16144 0.0
O310 O 0.23688 0.27412 0.2223 0.0
O311 O 0.24736 0.25668 0.16417 0.0
O312 O 0.17481 0.12137 0.26514 0.0
O313 O 0.14299 0.1208 0.29233 0.0
H314 H 0.18291 0.19833 0.12847 0.0
H315 H 0.18011 0.24547 0.24001 0.0
H316 H 0.27789 0.25506 0.38438 0.0
H317 H 0.287 0.20937 0.27398 0.0
H318 H 0.10305 0.17138 0.23955 0.0
H319 H 0.10941 0.12268 0.13334 0.0
H320 H 0.24805 0.14662 0.32046 0.0
H321 H 0.23927 0.192 0.43238 0.0
H322 H 0.14841 0.195 0.08222 0.0
H323 H 0.1451 0.24319 0.19547 0.0
Cd324 Cd 0.85073 0.34809 0.06797 0.0
Cd325 Cd 0.92289 0.37661 0.09766 0.0
C326 C 0.86164 0.40221 0.09856 0.0
N327 N 0.85066 0.37915 0.11582 0.0
C328 C 0.82187 0.38466 0.1631 0.0
C329 C 0.83024 0.40675 0.13798 0.0
C330 C 0.85173 0.41657 0.10978 0.0
C331 C 0.83264 0.37106 0.15162 0.0
H332 H 0.87625 0.40871 0.07124 0.0
H333 H 0.82449 0.35284 0.16563 0.0
C334 C 0.88068 0.33707 0.17543 0.0
C335 C 0.89981 0.32279 0.05678 0.0
C336 C 0.89925 0.30395 0.02932 0.0
C337 C 0.91381 0.3087 0.98506 0.0
C338 C 0.92712 0.33242 0.96679 0.0
C339 C 0.92681 0.35081 0.99517 0.0
N340 N 0.91361 0.34569 0.03978 0.0
H341 H 0.88988 0.319 0.09266 0.0
H342 H 0.9384 0.3693 0.9838 0.0
C343 C 0.90434 0.39709 0.19447 0.0
N344 N 0.91412 0.40226 0.14567 0.0
C345 C 0.91761 0.44098 0.14886 0.0
C346 C 0.90737 0.43604 0.19912 0.0
C347 C 0.90076 0.4137 0.22184 0.0
C348 C 0.9213 0.42397 0.12334 0.0
H349 H 0.90011 0.38059 0.21367 0.0
H350 H 0.93032 0.42832 0.08595 0.0
C351 C 0.89707 0.39447 -0.00344 0.0
C352 C 0.80023 0.31711 0.07931 0.0
N353 N 0.85732 0.32429 0.00853 0.0
C354 C 0.87001 0.33274 0.96325 0.0
C355 C 0.86996 0.31695 0.92597 0.0
C356 C 0.85611 0.2922 0.9345 0.0
C357 C 0.84438 0.28394 0.98276 0.0
C358 C 0.84517 0.30042 0.01935 0.0
C359 C 0.97184 0.39331 0.11408 0.0
O360 O 0.86648 0.33821 0.14296 0.0
O361 O 0.90302 0.34878 0.16781 0.0
O362 O 0.91293 0.3936 0.02422 0.0
O363 O 0.87474 0.38091 0.0051 0.0
O364 O 0.81581 0.3164 0.10801 0.0
O365 O 0.80778 0.332 0.04151 0.0
O366 O 0.9656 0.40688 0.09174 0.0
O367 O 0.95548 0.37278 0.12789 0.0
H368 H 0.87947 0.35155 0.95447 0.0
H369 H 0.83513 0.29409 0.05543 0.0
H370 H 0.80524 0.37654 0.18496 0.0
H371 H 0.85865 0.43364 0.08995 0.0
H372 H 0.88834 0.28589 0.04418 0.0
H373 H 0.93897 0.33695 0.93339 0.0
H374 H 0.92305 0.4579 0.12954 0.0
H375 H 0.89382 0.40933 0.26138 0.0
H376 H 0.87922 0.32396 0.88913 0.0
H377 H 0.83312 0.26496 0.99047 0.0
Cd378 Cd 0.69555 0.49447 0.07071 0.0
Cd379 Cd 0.66247 0.53555 0.0988 0.0
C380 C 0.64182 0.4519 0.09226 0.0
N381 N 0.66406 0.46199 0.1135 0.0
C382 C 0.65475 0.42488 0.15399 0.0
C383 C 0.63313 0.41356 0.12612 0.0
C384 C 0.62569 0.42767 0.09938 0.0
C385 C 0.67013 0.44951 0.14713 0.0
H386 H 0.63732 0.46176 0.06517 0.0
H387 H 0.68804 0.45783 0.16309 0.0
C388 C 0.70371 0.53688 0.17456 0.0
C389 C 0.71589 0.57262 0.05842 0.0
C390 C 0.73411 0.58785 0.02461 0.0
C391 C 0.7289 0.58892 0.97171 0.0
C392 C 0.70541 0.57439 0.95375 0.0
C393 C 0.68765 0.55955 0.98909 0.0
N394 N 0.6932 0.5587 0.04023 0.0
H395 H 0.71991 0.57241 0.0993 0.0
H396 H 0.66931 0.5493 0.9759 0.0
C397 C 0.6457 0.49965 0.20061 0.0
N398 N 0.64072 0.50115 0.14941 0.0
C399 C 0.60457 0.46332 0.15497 0.0
C400 C 0.60948 0.46108 0.20765 0.0
C401 C 0.63041 0.47967 0.23034 0.0
C402 C 0.62027 0.48379 0.12686 0.0
H403 H 0.66077 0.5143 0.21977 0.0
H404 H 0.61605 0.48586 0.08689 0.0
C405 C 0.65285 0.49512 0.99096 0.0
C406 C 0.72561 0.47361 0.07054 0.0
N407 N 0.72242 0.52816 0.02377 0.0
C408 C 0.71944 0.53031 0.97168 0.0
C409 C 0.73931 0.54407 0.94008 0.0
C410 C 0.76222 0.55473 0.96235 0.0
C411 C 0.76441 0.55526 0.01707 0.0
C412 C 0.74406 0.54145 0.04735 0.0
C413 C 0.63268 0.55596 0.10608 0.0
O414 O 0.70172 0.52195 0.13996 0.0
O415 O 0.69174 0.54752 0.17005 0.0
O416 O 0.65154 0.50976 0.02207 0.0
O417 O 0.6671 0.4872 -0.00103 0.0
O418 O 0.72621 0.48698 0.10767 0.0
O419 O 0.7113 0.47025 0.03311 0.0
O420 O 0.62504 0.53532 0.08687 0.0
O421 O 0.65446 0.56748 0.11991 0.0
H422 H 0.70227 0.51936 0.95337 0.0
H423 H 0.74596 0.53902 0.08867 0.0
H424 H 0.66108 0.41448 0.17481 0.0
H425 H 0.60901 0.41945 0.07765 0.0
H426 H 0.75203 0.59908 0.03989 0.0
H427 H 0.70061 0.57535 0.91351 0.0
H428 H 0.58875 0.44951 0.13548 0.0
H429 H 0.63447 0.47947 0.27143 0.0
H430 H 0.73704 0.54304 0.89789 0.0
H431 H 0.78188 0.56301 0.03532 0.0
Cd432 Cd 0.54895 0.19136 0.06998 0.0
Cd433 Cd 0.50544 0.11792 0.10943 0.0
C434 C 0.59327 0.18216 0.09913 0.0
N435 N 0.5826 0.19487 0.11418 0.0
C436 C 0.61732 0.22188 0.16314 0.0
C437 C 0.62954 0.21066 0.14347 0.0
C438 C 0.6169 0.18982 0.11334 0.0
C439 C 0.59381 0.21378 0.14752 0.0
H440 H 0.58425 0.16701 0.07339 0.0
H441 H 0.58539 0.22397 0.15857 0.0
C442 C 0.50461 0.15802 0.16359 0.0
C443 C 0.45571 0.11096 0.063 0.0
C444 C 0.43947 0.10995 0.02533 0.0
C445 C 0.4478 0.11933 0.97495 0.0
C446 C 0.47227 0.13021 0.96446 0.0
C447 C 0.48769 0.13091 0.00302 0.0
N448 N 0.47934 0.12114 0.051 0.0
H449 H 0.4494 0.10294 0.10117 0.0
H450 H 0.50629 0.13925 0.99375 0.0
C451 C 0.55065 0.14928 0.191 0.0
N452 N 0.54307 0.13423 0.14891 0.0
C453 C 0.57426 0.12512 0.16206 0.0
C454 C 0.5816 0.13954 0.20697 0.0
C455 C 0.57034 0.15257 0.22018 0.0
C456 C 0.55476 0.12261 0.13362 0.0
H457 H 0.54065 0.1574 0.20485 0.0
H458 H 0.54779 0.10992 0.10161 0.0
C459 C 0.54946 0.14592 0.00327 0.0
C460 C 0.56759 0.24152 0.06806 0.0
N461 N 0.51812 0.18646 0.01567 0.0
C462 C 0.52227 0.1889 0.96328 0.0
C463 C 0.50627 0.19085 0.92991 0.0
C464 C 0.48595 0.19059 0.95079 0.0
C465 C 0.48135 0.18648 0.00471 0.0
C466 C 0.49794 0.18472 0.03677 0.0
C467 C 0.48971 0.06938 0.13018 0.0
O468 O 0.51794 0.16221 0.124 0.0
O469 O 0.49071 0.13622 0.17451 0.0
O470 O 0.53398 0.13123 0.03544 0.0
O471 O 0.55728 0.1684 0.00597 0.0
O472 O 0.55438 0.22884 0.10557 0.0
O473 O 0.57177 0.23077 0.03137 0.0
O474 O 0.49135 0.07637 0.08326 0.0
O475 O 0.49334 0.08428 0.16622 0.0
H476 H 0.53873 0.19079 0.94783 0.0
H477 H 0.49537 0.18333 0.07875 0.0
H478 H 0.6265 0.23816 0.18615 0.0
H479 H 0.62567 0.1805 0.09804 0.0
H480 H 0.42059 0.10109 0.03484 0.0
H481 H 0.4795 0.13804 0.92653 0.0
H482 H 0.58245 0.11459 0.15129 0.0
H483 H 0.57527 0.16343 0.25538 0.0
H484 H 0.5109 0.19458 0.88884 0.0
H485 H 0.46598 0.18628 0.02232 0.0
Cd486 Cd 0.47781 0.30758 0.5661 0.0
Cd487 Cd 0.54822 0.33823 0.60109 0.0
C488 C 0.48763 0.35984 0.60074 0.0
N489 N 0.48442 0.33914 0.62257 0.0
C490 C 0.48275 0.35335 0.70822 0.0
C491 C 0.48622 0.37484 0.68656 0.0
C492 C 0.48886 0.37812 0.63223 0.0
C493 C 0.48178 0.33559 0.67533 0.0
H494 H 0.48844 0.362 0.55875 0.0
H495 H 0.47801 0.3187 0.69206 0.0
C496 C 0.50156 0.29198 0.67329 0.0
C497 C 0.54789 0.28778 0.59093 0.0
C498 C 0.55724 0.27404 0.57108 0.0
C499 C 0.56914 0.28022 0.52266 0.0
C500 C 0.56832 0.29778 0.49181 0.0
C501 C 0.55799 0.31053 0.51241 0.0
N502 N 0.54937 0.30627 0.56229 0.0
H503 H 0.54168 0.28505 0.63094 0.0
H504 H 0.55922 0.32556 0.49084 0.0
C505 C 0.54138 0.36155 0.7044 0.0
N506 N 0.54162 0.36421 0.65159 0.0
C507 C 0.54779 0.40377 0.66112 0.0
C508 C 0.54949 0.4023 0.71589 0.0
C509 C 0.54515 0.38034 0.73736 0.0
C510 C 0.54422 0.38456 0.62953 0.0
H511 H 0.54043 0.34569 0.72102 0.0
H512 H 0.54509 0.38651 0.58738 0.0
C513 C 0.52067 0.35067 0.49266 0.0
C514 C 0.4286 0.2844 0.54213 0.0
N515 N 0.49157 0.28825 0.50941 0.0
C516 C 0.49154 0.29249 0.4571 0.0
C517 C 0.49819 0.28075 0.4209 0.0
C518 C 0.50376 0.26359 0.43832 0.0
C519 C 0.50266 0.25855 0.49201 0.0
C520 C 0.49648 0.27125 0.52725 0.0
C521 C 0.59867 0.36968 0.59901 0.0
O522 O 0.48545 0.29015 0.64209 0.0
O523 O 0.52352 0.30767 0.66724 0.0
O524 O 0.53541 0.35001 0.52422 0.0
O525 O 0.49843 0.33796 0.5006 0.0
O526 O 0.43696 0.27359 0.5684 0.0
O527 O 0.44299 0.30592 0.52966 0.0
O528 O 0.58598 0.36272 0.55812 0.0
O529 O 0.58823 0.36113 0.64245 0.0
H530 H 0.48563 0.30442 0.44284 0.0
H531 H 0.49525 0.26725 0.56863 0.0
H532 H 0.48031 0.35015 0.75005 0.0
H533 H 0.49095 0.39427 0.61415 0.0
H534 H 0.55794 0.26087 0.59627 0.0
H535 H 0.57764 0.30318 0.45462 0.0
H536 H 0.55057 0.42004 0.64247 0.0
H537 H 0.54687 0.3782 0.7789 0.0
H538 H 0.49819 0.28445 0.37946 0.0
H539 H 0.50645 0.24499 0.50637 0.0
Cd540 Cd 0.73401 0.15625 0.55852 0.0
Cd541 Cd 0.69771 0.18994 0.60252 0.0
C542 C 0.68186 0.11615 0.60486 0.0
N543 N 0.70538 0.1308 0.61711 0.0
C544 C 0.70089 0.10984 0.69668 0.0
C545 C 0.67719 0.09331 0.68329 0.0
C546 C 0.66721 0.09704 0.63796 0.0
C547 C 0.71492 0.12796 0.66204 0.0
H548 H 0.67483 0.11823 0.56809 0.0
H549 H 0.73388 0.13863 0.66942 0.0
C550 C 0.7456 0.19206 0.67148 0.0
C551 C 0.74267 0.24158 0.60069 0.0
C552 C 0.75846 0.26465 0.58362 0.0
C553 C 0.76012 0.27016 0.52995 0.0
C554 C 0.74647 0.25145 0.49446 0.0
C555 C 0.73079 0.22841 0.51349 0.0
N556 N 0.72924 0.224 0.56585 0.0
H557 H 0.73964 0.23835 0.6422 0.0
H558 H 0.71898 0.21441 0.48681 0.0
C559 C 0.68193 0.15226 0.70126 0.0
N560 N 0.67386 0.15703 0.65615 0.0
C561 C 0.63338 0.129 0.6793 0.0
C562 C 0.64114 0.12607 0.72865 0.0
C563 C 0.66578 0.13632 0.73775 0.0
C564 C 0.65023 0.14475 0.64335 0.0
H565 H 0.70066 0.16179 0.71098 0.0
H566 H 0.64428 0.14873 0.60705 0.0
C567 C 0.6899 0.15313 0.48825 0.0
C568 C 0.76267 0.13527 0.53811 0.0
N569 N 0.75339 0.19277 0.51465 0.0
C570 C 0.74964 0.19376 0.46243 0.0
C571 C 0.76521 0.21392 0.43339 0.0
C572 C 0.78511 0.23269 0.45817 0.0
C573 C 0.78825 0.2317 0.51206 0.0
C574 C 0.77208 0.21139 0.53976 0.0
C575 C 0.66895 0.21196 0.59949 0.0
O576 O 0.74798 0.17878 0.63847 0.0
O577 O 0.72973 0.19808 0.66622 0.0
O578 O 0.68942 0.1667 0.5235 0.0
O579 O 0.70373 0.1446 0.49187 0.0
O580 O 0.7717 0.15579 0.55884 0.0
O581 O 0.74058 0.12479 0.52725 0.0
O582 O 0.66482 0.1944 0.57042 0.0
O583 O 0.68555 0.21846 0.63313 0.0
H584 H 0.73566 0.17843 0.44229 0.0
H585 H 0.77566 0.20997 0.58041 0.0
H586 H 0.70912 0.10753 0.73154 0.0
H587 H 0.64899 0.08443 0.62638 0.0
H588 H 0.76753 0.27837 0.61309 0.0
H589 H 0.74701 0.25474 0.45276 0.0
H590 H 0.61451 0.1215 0.67089 0.0
H591 H 0.67239 0.1342 0.77524 0.0
H592 H 0.76282 0.21402 0.39136 0.0
H593 H 0.80381 0.24579 0.5318 0.0
Cd594 Cd 0.88332 0.56452 0.56075 0.0
Cd595 Cd 0.84545 0.49101 0.58301 0.0
C596 C 0.93272 0.5656 0.58175 0.0
N597 N 0.91095 0.55733 0.60485 0.0
C598 C 0.92554 0.54996 0.6847 0.0
C599 C 0.94816 0.55881 0.66203 0.0
C600 C 0.95168 0.56639 0.60974 0.0
C601 C 0.90711 0.5495 0.65533 0.0
H602 H 0.93583 0.57292 0.54255 0.0
H603 H 0.89019 0.54395 0.67393 0.0
C604 C 0.84685 0.53836 0.66548 0.0
C605 C 0.79511 0.48821 0.60569 0.0
C606 C 0.77258 0.48513 0.59612 0.0
C607 C 0.76392 0.48188 0.54458 0.0
C608 C 0.77861 0.48246 0.5034 0.0
C609 C 0.80153 0.48643 0.51472 0.0
N610 N 0.80931 0.48933 0.56522 0.0
H611 H 0.8007 0.48859 0.64573 0.0
H612 H 0.81283 0.48638 0.48345 0.0
C613 C 0.86683 0.49106 0.69418 0.0
N614 N 0.87276 0.49229 0.64285 0.0
C615 C 0.90854 0.49187 0.66455 0.0
C616 C 0.90287 0.49096 0.71791 0.0
C617 C 0.88193 0.49088 0.73264 0.0
C618 C 0.89318 0.49283 0.62724 0.0
H619 H 0.84998 0.48945 0.70507 0.0
H620 H 0.89719 0.49342 0.58591 0.0
C621 C 0.88889 0.52649 0.48329 0.0
C622 C 0.90663 0.61433 0.54019 0.0
N623 N 0.84556 0.54714 0.51983 0.0
C624 C 0.84393 0.53999 0.46901 0.0
C625 C 0.82451 0.5361 0.43811 0.0
C626 C 0.80701 0.54039 0.45916 0.0
C627 C 0.80833 0.54658 0.51221 0.0
C628 C 0.82791 0.54992 0.54205 0.0
C629 C 0.82431 0.4415 0.56034 0.0
O630 O 0.86065 0.55773 0.6416 0.0
O631 O 0.84271 0.51826 0.64726 0.0
O632 O 0.87329 0.51143 0.51417 0.0
O633 O 0.89734 0.54869 0.49109 0.0
O634 O 0.90562 0.60663 0.58624 0.0
O635 O 0.89638 0.5989 0.50452 0.0
O636 O 0.83172 0.45739 0.52485 0.0
O637 O 0.82679 0.4485 0.60772 0.0
H638 H 0.85849 0.53923 0.45054 0.0
H639 H 0.82986 0.55672 0.58146 0.0
H640 H 0.92251 0.54467 0.72555 0.0
H641 H 0.96914 0.57381 0.59157 0.0
H642 H 0.7614 0.48363 0.62923 0.0
H643 H 0.77223 0.4793 0.46332 0.0
H644 H 0.92438 0.49148 0.65206 0.0
H645 H 0.87661 0.48933 0.7734 0.0
H646 H 0.82433 0.53188 0.39693 0.0
H647 H 0.7952 0.55035 0.52938 0.0
Cd648 Cd 0.51926 0.68197 0.38671 0.0
Cd649 Cd 0.5914 0.71193 0.43139 0.0
C650 C 0.51401 0.72924 0.39269 0.0
N651 N 0.51402 0.71194 0.42311 0.0
C652 C 0.49508 0.72065 0.49324 0.0
C653 C 0.49295 0.73706 0.46094 0.0
C654 C 0.50392 0.7425 0.41152 0.0
C655 C 0.50598 0.70829 0.47343 0.0
H656 H 0.51988 0.7314 0.35242 0.0
H657 H 0.50605 0.69422 0.49643 0.0
C658 C 0.54903 0.67136 0.49675 0.0
C659 C 0.57907 0.65925 0.39349 0.0
C660 C 0.57667 0.64104 0.35995 0.0
C661 C 0.57932 0.64525 0.30579 0.0
C662 C 0.58394 0.66754 0.28655 0.0
C663 C 0.58645 0.68523 0.32136 0.0
N664 N 0.58379 0.68081 0.37376 0.0
H665 H 0.57789 0.65635 0.43533 0.0
H666 H 0.59133 0.70269 0.30623 0.0
C667 C 0.58028 0.73248 0.53353 0.0
N668 N 0.57578 0.73122 0.48123 0.0
C669 C 0.56102 0.75843 0.48995 0.0
C670 C 0.56582 0.76033 0.54381 0.0
C671 C 0.57521 0.7468 0.56581 0.0
C672 C 0.56628 0.74382 0.45924 0.0
H673 H 0.58884 0.72319 0.5499 0.0
H674 H 0.56326 0.74317 0.41782 0.0
C675 C 0.56858 0.72965 0.32315 0.0
C676 C 0.46911 0.64843 0.39295 0.0
N677 N 0.52568 0.65619 0.33647 0.0
C678 C 0.52701 0.65785 0.2834 0.0
C679 C 0.52273 0.63793 0.25354 0.0
C680 C 0.51671 0.61623 0.27892 0.0
C681 C 0.51796 0.61599 0.3338 0.0
C682 C 0.52203 0.63616 0.36193 0.0
C683 C 0.63881 0.73486 0.46677 0.0
O684 O 0.5387 0.67499 0.45876 0.0
O685 O 0.57148 0.68326 0.49977 0.0
O686 O 0.58321 0.72976 0.35656 0.0
O687 O 0.54615 0.71459 0.32504 0.0
O688 O 0.48276 0.65467 0.43252 0.0
O689 O 0.47849 0.65803 0.34919 0.0
O690 O 0.63273 0.7455 0.43373 0.0
O691 O 0.62383 0.71326 0.47711 0.0
H692 H 0.52918 0.67379 0.26425 0.0
H693 H 0.52019 0.63516 0.40399 0.0
H694 H 0.48645 0.71583 0.53125 0.0
H695 H 0.5021 0.75471 0.38528 0.0
H696 H 0.57362 0.62423 0.3763 0.0
H697 H 0.58617 0.67145 0.24496 0.0
H698 H 0.55361 0.76843 0.47152 0.0
H699 H 0.57971 0.74817 0.60704 0.0
H700 H 0.52159 0.63886 0.21134 0.0
H701 H 0.51365 0.59973 0.35486 0.0
Cd702 Cd 0.36119 0.82459 0.38761 0.0
Cd703 Cd 0.32922 0.86423 0.42092 0.0
C704 C 0.31302 0.77521 0.39534 0.0
N705 N 0.32931 0.79239 0.42757 0.0
C706 C 0.3153 0.76547 0.5003 0.0
C707 C 0.29958 0.7469 0.46681 0.0
C708 C 0.29765 0.75239 0.41439 0.0
C709 C 0.33032 0.78825 0.47952 0.0
H710 H 0.31333 0.77839 0.35378 0.0
H711 H 0.34405 0.80198 0.50382 0.0
C712 C 0.36818 0.86117 0.50103 0.0
C713 C 0.38073 0.90857 0.39331 0.0
C714 C 0.39983 0.92592 0.36404 0.0
C715 C 0.39906 0.92444 0.30906 0.0
C716 C 0.37882 0.90562 0.28502 0.0
C717 C 0.36002 0.88901 0.31568 0.0
N718 N 0.36147 0.89038 0.36885 0.0
H719 H 0.38109 0.90993 0.43554 0.0
H720 H 0.34423 0.87535 0.29644 0.0
C721 C 0.3091 0.83061 0.52291 0.0
N722 N 0.30786 0.82885 0.46973 0.0
C723 C 0.27673 0.78782 0.4756 0.0
C724 C 0.27825 0.78907 0.53045 0.0
C725 C 0.29483 0.81077 0.55405 0.0
C726 C 0.29172 0.80806 0.44585 0.0
H727 H 0.32038 0.84766 0.54163 0.0
H728 H 0.28992 0.80716 0.40382 0.0
C729 C 0.31673 0.82635 0.31163 0.0
C730 C 0.38963 0.80214 0.39044 0.0
N731 N 0.38658 0.85704 0.33738 0.0
C732 C 0.38502 0.85471 0.28451 0.0
C733 C 0.4035 0.8713 0.25311 0.0
C734 C 0.42406 0.89038 0.27632 0.0
C735 C 0.42455 0.89286 0.33116 0.0
C736 C 0.40555 0.87579 0.36112 0.0
C737 C 0.30218 0.88662 0.44092 0.0
O738 O 0.3683 0.84667 0.46785 0.0
O739 O 0.35688 0.87216 0.49257 0.0
O740 O 0.31486 0.84059 0.34278 0.0
O741 O 0.33143 0.81896 0.31944 0.0
O742 O 0.39499 0.82087 0.41651 0.0
O743 O 0.37165 0.79441 0.36016 0.0
O744 O 0.2931 0.86708 0.41591 0.0
O745 O 0.32396 0.896 0.45397 0.0
H746 H 0.37029 0.83903 0.26679 0.0
H747 H 0.40655 0.87675 0.40344 0.0
H748 H 0.31735 0.76194 0.54092 0.0
H749 H 0.28636 0.73863 0.38661 0.0
H750 H 0.41478 0.94051 0.38426 0.0
H751 H 0.37746 0.90363 0.24281 0.0
H752 H 0.2639 0.77148 0.45592 0.0
H753 H 0.29586 0.81282 0.59628 0.0
H754 H 0.40238 0.86782 0.21143 0.0
H755 H 0.43986 0.90716 0.35102 0.0
Cd756 Cd 0.22182 0.53075 0.3915 0.0
Cd757 Cd 0.18331 0.46127 0.42105 0.0
C758 C 0.27025 0.53038 0.38494 0.0
N759 N 0.25586 0.53097 0.42304 0.0
C760 C 0.28628 0.5402 0.48762 0.0
C761 C 0.30134 0.5396 0.44852 0.0
C762 C 0.29278 0.53411 0.39699 0.0
C763 C 0.26327 0.5356 0.4739 0.0
H764 H 0.265 0.52856 0.34437 0.0
H765 H 0.25182 0.53685 0.50321 0.0
C766 C 0.18531 0.50381 0.50295 0.0
C767 C 0.14133 0.47042 0.38683 0.0
C768 C 0.12171 0.46667 0.35657 0.0
C769 C 0.12183 0.46249 0.30282 0.0
C770 C 0.14227 0.46432 0.27972 0.0
C771 C 0.16102 0.46733 0.31133 0.0
N772 N 0.16019 0.46991 0.36413 0.0
H773 H 0.14038 0.47135 0.42896 0.0
H774 H 0.17468 0.46498 0.29339 0.0
C775 C 0.21801 0.47585 0.52189 0.0
N776 N 0.21859 0.47371 0.46891 0.0
C777 C 0.25754 0.47796 0.47405 0.0
C778 C 0.25717 0.48001 0.52858 0.0
C779 C 0.2374 0.47953 0.55248 0.0
C780 C 0.23796 0.47483 0.44477 0.0
H781 H 0.20205 0.47331 0.54121 0.0
H782 H 0.23802 0.47227 0.4031 0.0
C783 C 0.21896 0.48273 0.31287 0.0
C784 C 0.24367 0.58134 0.39216 0.0
N785 N 0.19054 0.52517 0.3375 0.0
C786 C 0.1931 0.5247 0.2848 0.0
C787 C 0.1759 0.52427 0.25135 0.0
C788 C 0.15651 0.5256 0.27228 0.0
C789 C 0.15432 0.52637 0.32679 0.0
C790 C 0.17166 0.526 0.35901 0.0
C791 C 0.15086 0.4127 0.4455 0.0
O792 O 0.20069 0.5199 0.47337 0.0
O793 O 0.17561 0.48192 0.49058 0.0
O794 O 0.20621 0.46518 0.34285 0.0
O795 O 0.22361 0.50393 0.32373 0.0
O796 O 0.2239 0.56782 0.41435 0.0
O797 O 0.25332 0.57144 0.36682 0.0
O798 O 0.17127 0.41838 0.42713 0.0
O799 O 0.1463 0.42937 0.45236 0.0
H800 H 0.20911 0.52598 0.26861 0.0
H801 H 0.17059 0.52732 0.40108 0.0
H802 H 0.29247 0.54482 0.52766 0.0
H803 H 0.30411 0.53446 0.36524 0.0
H804 H 0.1058 0.46467 0.37558 0.0
H805 H 0.14249 0.46048 0.23841 0.0
H806 H 0.27252 0.47812 0.45448 0.0
H807 H 0.23625 0.48036 0.59473 0.0
H808 H 0.17873 0.52483 0.20939 0.0
H809 H 0.13997 0.52821 0.34399 0.0
Cd810 Cd 0.14179 0.64477 0.89741 0.0
Cd811 Cd 0.21354 0.67087 0.92758 0.0
C812 C 0.14287 0.68993 0.94913 0.0
N813 N 0.14557 0.67116 0.96376 0.0
C814 C 0.14638 0.68117 0.05412 0.0
C815 C 0.14301 0.70034 0.0404 0.0
C816 C 0.14148 0.70482 0.98699 0.0
C817 C 0.14716 0.66651 0.01518 0.0
H818 H 0.14096 0.69281 0.90807 0.0
H819 H 0.1484 0.65115 0.02681 0.0
C820 C 0.16832 0.62442 0.99467 0.0
C821 C 0.20275 0.61868 0.88782 0.0
C822 C 0.21422 0.60567 0.87693 0.0
C823 C 0.23616 0.61694 0.85025 0.0
C824 C 0.24378 0.63929 0.82678 0.0
C825 C 0.23148 0.65148 0.83771 0.0
N826 N 0.21267 0.64181 0.87153 0.0
H827 H 0.18809 0.6114 0.91524 0.0
H828 H 0.2394 0.67013 0.82662 0.0
C829 C 0.20835 0.69004 0.03844 0.0
N830 N 0.20465 0.69244 0.98704 0.0
C831 C 0.20114 0.72692 0.00546 0.0
C832 C 0.20657 0.72594 0.0585 0.0
C833 C 0.2093 0.70654 0.07493 0.0
C834 C 0.20071 0.71016 0.97007 0.0
H835 H 0.21243 0.67641 0.0506 0.0
H836 H 0.19835 0.71202 0.92876 0.0
C837 C 0.18691 0.68774 0.82477 0.0
C838 C 0.09228 0.62192 0.8745 0.0
N839 N 0.15108 0.62044 0.84696 0.0
C840 C 0.16182 0.62715 0.79928 0.0
C841 C 0.16505 0.61105 0.76889 0.0
C842 C 0.15705 0.58772 0.7875 0.0
C843 C 0.1458 0.58123 0.83665 0.0
C844 C 0.14255 0.59779 0.86523 0.0
C845 C 0.26448 0.69885 0.92845 0.0
O846 O 0.15362 0.6264 0.96519 0.0
O847 O 0.19076 0.63866 0.99121 0.0
O848 O 0.20119 0.68496 0.85389 0.0
O849 O 0.16462 0.67664 0.83427 0.0
O850 O 0.10022 0.61298 0.90758 0.0
O851 O 0.10726 0.64178 0.8542 0.0
O852 O 0.25143 0.70728 0.91413 0.0
O853 O 0.25394 0.6777 0.94671 0.0
H854 H 0.16704 0.64454 0.78343 0.0
H855 H 0.1327 0.59237 0.9016 0.0
H856 H 0.14799 0.67722 0.09467 0.0
H857 H 0.13834 0.71907 0.97451 0.0
H858 H 0.20801 0.58854 0.89604 0.0
H859 H 0.26087 0.64864 0.80679 0.0
H860 H 0.19844 0.74115 0.99078 0.0
H861 H 0.21428 0.70507 0.11464 0.0
H862 H 0.17291 0.61666 0.73033 0.0
H863 H 0.1393 0.56349 0.85276 0.0
Cd864 Cd 0.40453 0.49285 0.88968 0.0
Cd865 Cd 0.36681 0.5251 0.92677 0.0
C866 C 0.35299 0.45074 0.92611 0.0
N867 N 0.37402 0.46782 0.94743 0.0
C868 C 0.36271 0.44856 0.03098 0.0
C869 C 0.34165 0.43021 0.00896 0.0
C870 C 0.33635 0.43174 0.95651 0.0
C871 C 0.37897 0.46711 -0.0009 0.0
H872 H 0.34975 0.45067 0.88471 0.0
H873 H 0.39632 0.4795 0.01496 0.0
C874 C 0.41386 0.52832 0.00164 0.0
C875 C 0.41872 0.57179 0.90231 0.0
C876 C 0.43146 0.59605 0.88913 0.0
C877 C 0.421 0.60529 0.85516 0.0
C878 C 0.40015 0.58938 0.82793 0.0
C879 C 0.38827 0.56514 0.84134 0.0
N880 N 0.39683 0.55731 0.88073 0.0
H881 H 0.4251 0.56542 0.93398 0.0
H882 H 0.37066 0.55333 0.82544 0.0
C883 C 0.34254 0.48905 0.02413 0.0
N884 N 0.34075 0.49035 0.97129 0.0
C885 C 0.30028 0.45835 0.97261 0.0
C886 C 0.30059 0.45926 0.02756 0.0
C887 C 0.32257 0.47311 0.05327 0.0
C888 C 0.32062 0.47461 0.945 0.0
H889 H 0.35849 0.50209 0.0443 0.0
H890 H 0.3195 0.47635 0.90311 0.0
C891 C 0.36006 0.48727 0.81555 0.0
C892 C 0.43241 0.47049 0.87029 0.0
N893 N 0.42482 0.52945 0.84593 0.0
C894 C 0.41651 0.53471 0.8018 0.0
C895 C 0.4321 0.55313 0.76907 0.0
C896 C 0.45646 0.56579 0.78125 0.0
C897 C 0.46442 0.56166 0.82895 0.0
C898 C 0.44807 0.54318 0.86111 0.0
C899 C 0.33721 0.54676 0.92919 0.0
O900 O 0.41883 0.51682 0.96844 0.0
O901 O 0.39622 0.53176 0.99577 0.0
O902 O 0.35931 0.50091 0.85021 0.0
O903 O 0.37555 0.48072 0.81856 0.0
O904 O 0.44152 0.49089 0.89162 0.0
O905 O 0.41036 0.4603 0.85938 0.0
O906 O 0.33459 0.53136 0.89509 0.0
O907 O 0.35298 0.55147 0.96413 0.0
H908 H 0.39835 0.52391 0.78936 0.0
H909 H 0.45435 0.53848 0.89593 0.0
H910 H 0.36771 0.44718 0.07082 0.0
H911 H 0.32064 0.41723 0.93804 0.0
H912 H 0.44738 0.60796 0.91126 0.0
H913 H 0.39146 0.59603 0.80209 0.0
H914 H 0.28361 0.44786 0.95158 0.0
H915 H 0.32348 0.47442 0.09564 0.0
H916 H 0.42557 0.55594 0.73212 0.0
H917 H 0.48327 0.57105 0.83885 0.0
Cd918 Cd 0.54712 0.89667 0.89527 0.0
Cd919 Cd 0.5107 0.82653 0.93757 0.0
C920 C 0.58468 0.87983 0.91465 0.0
N921 N 0.56975 0.88458 0.94332 0.0
C922 C 0.59351 0.89119 0.01992 0.0
C923 C 0.60993 0.88813 0.9899 0.0
C924 C 0.60483 0.8812 0.93748 0.0
C925 C 0.57352 0.88971 0.99541 0.0
H926 H 0.58272 0.87764 0.87287 0.0
H927 H 0.56256 0.895 0.01699 0.0
C928 C 0.51317 0.87588 0.00782 0.0
C929 C 0.46038 0.82431 0.93205 0.0
C930 C 0.43725 0.81559 0.91325 0.0
C931 C 0.43181 0.80729 0.86139 0.0
C932 C 0.45046 0.81068 0.82779 0.0
C933 C 0.47349 0.81983 0.84809 0.0
N934 N 0.47769 0.8255 0.89984 0.0
H935 H 0.46385 0.82793 0.97342 0.0
H936 H 0.48736 0.82021 0.8237 0.0
C937 C 0.54106 0.83612 0.04312 0.0
N938 N 0.54203 0.83214 0.99113 0.0
C939 C 0.57633 0.82777 0.00404 0.0
C940 C 0.57552 0.8315 0.05806 0.0
C941 C 0.55789 0.83621 0.07727 0.0
C942 C 0.55917 0.82803 0.97109 0.0
H943 H 0.52662 0.83812 0.05868 0.0
H944 H 0.55904 0.82423 0.92974 0.0
C945 C 0.54276 0.853 0.81773 0.0
C946 C 0.58113 0.94488 0.87404 0.0
N947 N 0.51247 0.88664 0.84954 0.0
C948 C 0.51515 0.89085 0.79716 0.0
C949 C 0.49561 0.88633 0.76635 0.0
C950 C 0.4732 0.87826 0.78989 0.0
C951 C 0.47099 0.87455 0.84431 0.0
C952 C 0.49106 0.879 0.87364 0.0
C953 C 0.48773 0.77547 0.93619 0.0
O954 O 0.52628 0.892 0.97535 0.0
O955 O 0.50683 0.85388 0.0013 0.0
O956 O 0.53118 0.8389 0.85483 0.0
O957 O 0.54976 0.8751 0.82108 0.0
O958 O 0.5611 0.9401 0.89319 0.0
O959 O 0.58448 0.92752 0.8654 0.0
O960 O 0.50438 0.78853 0.90471 0.0
O961 O 0.48224 0.7862 0.97056 0.0
H962 H 0.53259 0.89803 0.77923 0.0
H963 H 0.48949 0.87656 0.91555 0.0
H964 H 0.59745 0.89728 0.06019 0.0
H965 H 0.6176 0.87941 0.9131 0.0
H966 H 0.4233 0.81285 0.94071 0.0
H967 H 0.44687 0.8044 0.78762 0.0
H968 H 0.5895 0.82384 0.98784 0.0
H969 H 0.556 0.83827 0.11884 0.0
H970 H 0.49812 0.88919 0.72446 0.0
H971 H 0.45411 0.86869 0.86411 0.0
H972 H 0.10365 0.15223 0.75088 0.0
H973 H 0.03792 0.08637 0.71464 0.0
H974 H 0.0559 0.06285 0.74753 0.0
H975 H 0.14391 0.13153 0.71074 0.0
H976 H 0.1652 0.14781 0.76192 0.0
H977 H 0.14652 0.1588 0.73649 0.0
H978 H 0.1321 0.15914 0.83133 0.0
H979 H 0.14998 0.14704 0.85642 0.0
H980 H 0.11824 0.13178 0.8689 0.0
H981 H 0.08001 0.04663 0.78855 0.0
H982 H 0.11229 0.03823 0.81046 0.0
H983 H 0.16337 0.11441 0.81425 0.0
C984 C 0.09319 0.13284 0.74919 0.0
C985 C 0.06939 0.12105 0.73038 0.0
C986 C 0.05625 0.09571 0.7285 0.0
C987 C 0.06616 0.08223 0.74792 0.0
C988 C 0.08928 0.09442 0.76848 0.0
C989 C 0.10293 0.11913 0.76762 0.0
C990 C 0.12792 0.12776 0.78858 0.0
C991 C 0.147 0.14231 0.74693 0.0
C992 C 0.13231 0.14229 0.83931 0.0
C993 C 0.12644 0.10396 0.79965 0.0
C994 C 0.10366 0.08503 0.78986 0.0
C995 C 0.09789 0.06128 0.7963 0.0
C996 C 0.11626 0.05669 0.80947 0.0
C997 C 0.14013 0.07573 0.81447 0.0
C998 C 0.14513 0.09966 0.81163 0.0
H999 H 0.92502 0.03924 0.79865 0.0
H1000 H -0.00307 0.05693 0.84307 0.0
H1001 H 0.98678 0.01537 0.82589 0.0
H1002 H 0.89334 0.97458 0.84677 0.0
H1003 H 0.87327 0.96522 0.79148 0.0
H1004 H 0.88472 -0.0052 0.81859 0.0
H1005 H 0.90009 0.01251 0.72634 0.0
H1006 H 0.88988 0.98316 0.69935 0.0
H1007 H 0.92088 0.00608 0.69306 0.0
H1008 H 0.97256 0.97577 0.78368 0.0
H1009 H 0.95083 0.93566 0.7426 0.0
H1010 H 0.88735 0.94216 0.72907 0.0
C1011 C 0.93821 0.03401 0.80719 0.0
C1012 C 0.96175 0.0513 0.82218 0.0
C1013 C 0.97869 0.04396 0.83237 0.0
C1014 C 0.9732 0.02042 0.82196 0.0
C1015 C 0.95056 0.0044 0.80242 0.0
C1016 C 0.93297 0.01052 0.7971 0.0
C1017 C 0.91068 0.99039 0.77175 0.0
C1018 C 0.88924 0.98066 0.80942 0.0
C1019 C 0.90507 -0.00147 0.71955 0.0
C1020 C 0.91874 0.97227 0.76268 0.0
C1021 C 0.94197 0.98094 0.77981 0.0
C1022 C 0.95415 0.96847 0.77143 0.0
C1023 C 0.94184 0.94595 0.74732 0.0
C1024 C 0.91757 0.93606 0.73286 0.0
C1025 C 0.90594 0.94946 0.74003 0.0
H1026 H -0.00141 0.91531 0.82659 0.0
H1027 H 0.98976 0.85232 0.74531 0.0
H1028 H 0.03343 0.87172 0.73365 0.0
H1029 H 0.03887 0.95652 0.75194 0.0
H1030 H 0.05834 0.97804 0.79984 0.0
H1031 H 0.02751 0.95776 0.81576 0.0
H1032 H 0.03939 0.94168 0.89638 0.0
H1033 H 0.07037 0.96286 0.8826 0.0
H1034 H 0.06058 0.93143 0.88885 0.0
H1035 H 0.07476 0.90164 0.70704 0.0
H1036 H 0.1149 0.93678 0.69073 0.0
H1037 H 0.09874 0.97933 0.7967 0.0
C1038 C 0.00602 0.90512 0.80919 0.0
C1039 C 0.99094 0.88254 0.78604 0.0
C1040 C 0.00113 0.86979 0.76267 0.0
C1041 C 0.02588 0.88067 0.75581 0.0
C1042 C 0.04019 0.90393 0.77433 0.0
C1043 C 0.03086 0.91561 0.80302 0.0
C1044 C 0.05009 0.94119 0.81516 0.0
C1045 C 0.04328 0.95943 0.7944 0.0
C1046 C 0.05542 0.94447 0.87426 0.0
C1047 C 0.07097 0.94256 0.78503 0.0
C1048 C 0.06485 0.92086 0.76178 0.0
C1049 C 0.08013 0.91846 0.72674 0.0
C1050 C 0.10266 0.93852 0.71701 0.0
C1051 C 0.10966 0.96044 0.74279 0.0
C1052 C 0.09368 0.96253 0.77711 0.0
H1053 H 0.95743 0.86654 0.26497 0.0
H1054 H 0.0273 0.93051 0.25286 0.0
H1055 H 0.00854 0.953 0.21822 0.0
H1056 H 0.92991 0.87645 0.15108 0.0
H1057 H 0.90135 0.86635 0.18224 0.0
H1058 H 0.91997 0.85426 0.20234 0.0
H1059 H 0.91943 0.86693 0.29867 0.0
H1060 H 0.90005 0.8781 0.27903 0.0
H1061 H 0.92769 0.89755 0.31264 0.0
H1062 H 0.98274 0.96822 0.18326 0.0
H1063 H 0.9511 0.97871 0.17326 0.0
H1064 H 0.89746 0.90623 0.21568 0.0
C1065 C 0.96865 0.88533 0.25531 0.0
C1066 C -0.00626 0.89691 0.2614 0.0
C1067 C 0.008 0.9215 0.2489 0.0
C1068 C -0.00245 0.93427 0.22842 0.0
C1069 C 0.97281 0.92223 0.22158 0.0
C1070 C 0.95843 0.89856 0.23629 0.0
C1071 C 0.93214 0.89073 0.23028 0.0
C1072 C 0.92014 0.87076 0.18902 0.0
C1073 C 0.91907 0.88288 0.28331 0.0
C1074 C 0.93404 0.91388 0.21108 0.0
C1075 C 0.9577 0.9315 0.20438 0.0
C1076 C 0.96416 0.95461 0.18834 0.0
C1077 C 0.94607 0.96034 0.18223 0.0
C1078 C 0.92198 0.9432 0.19353 0.0
C1079 C 0.91577 0.91946 0.20621 0.0
H1080 H 0.16787 0.07657 0.28941 0.0
H1081 H 0.10891 0.08468 0.23329 0.0
H1082 H 0.09065 0.04446 0.1924 0.0
H1083 H 0.17305 0.04495 0.18059 0.0
H1084 H 0.1784 0.0247 0.21935 0.0
H1085 H 0.18717 0.05418 0.24392 0.0
H1086 H 0.16186 0.03606 0.3281 0.0
H1087 H 0.15397 0.00667 0.30471 0.0
H1088 H 0.13081 0.01326 0.32205 0.0
H1089 H 0.0791 0.00358 0.15732 0.0
H1090 H 0.07023 0.96189 0.14822 0.0
H1091 H 0.13718 0.98057 0.22578 0.0
C1092 C 0.15088 0.06963 0.2693 0.0
C1093 C 0.13961 0.08349 0.26482 0.0
C1094 C 0.11751 0.07403 0.23806 0.0
C1095 C 0.10727 0.05144 0.21391 0.0
C1096 C 0.11928 0.03854 0.21746 0.0
C1097 C 0.14023 0.04699 0.24581 0.0
C1098 C 0.1486 0.02885 0.24717 0.0
C1099 C 0.17326 0.03877 0.22118 0.0
C1100 C 0.14881 0.02073 0.30385 0.0
C1101 C 0.12911 0.00885 0.21497 0.0
C1102 C 0.11256 0.01493 0.19752 0.0
C1103 C 0.09198 -0.00135 0.17057 0.0
C1104 C 0.08725 0.97502 0.16491 0.0
C1105 C 0.10296 0.9679 0.18657 0.0
C1106 C 0.12485 0.98548 0.20883 0.0
H1107 H 0.07141 0.12697 0.26532 0.0
H1108 H 0.07524 0.1306 0.09567 0.0
H1109 H 0.03113 0.10409 0.09097 0.0
H1110 H 0.02661 0.06473 0.27199 0.0
H1111 H 0.01214 0.06827 0.32897 0.0
H1112 H 0.04367 0.08823 0.31858 0.0
H1113 H 0.03738 0.12482 0.3241 0.0
H1114 H 0.00585 0.10502 0.33489 0.0
H1115 H 0.0158 0.12626 0.28166 0.0
H1116 H 0.98683 0.0778 0.10554 0.0
H1117 H 0.94546 0.05259 0.13702 0.0
H1118 H 0.97075 0.0646 0.29783 0.0
C1119 C 0.06287 0.12254 0.22719 0.0
C1120 C 0.0765 0.13124 0.18076 0.0
C1121 C 0.06495 0.12435 0.13155 0.0
C1122 C 0.04 0.10929 0.12863 0.0
C1123 C 0.02709 0.10098 0.17531 0.0
C1124 C 0.03816 0.10723 0.22364 0.0
C1125 C 0.02041 0.09521 0.26789 0.0
C1126 C 0.02604 0.07809 0.29865 0.0
C1127 C 0.01982 0.11395 0.30427 0.0
C1128 C -0.00262 0.08155 0.237 0.0
C1129 C 0.0017 0.08515 0.18368 0.0
C1130 C 0.98327 0.07485 0.14713 0.0
C1131 C 0.95981 0.06068 0.16547 0.0
C1132 C 0.95488 0.05684 0.21985 0.0
C1133 C 0.97399 0.0672 0.25605 0.0
H1134 H 0.81674 0.43572 0.19116 0.0
H1135 H 0.80464 0.39361 0.05009 0.0
H1136 H 0.77638 0.40589 0.01779 0.0
H1137 H 0.75464 0.42328 0.20371 0.0
H1138 H 0.76347 0.45302 0.22675 0.0
H1139 H 0.78207 0.44012 0.24015 0.0
H1140 H 0.81805 0.47683 0.19698 0.0
H1141 H 0.79951 0.48972 0.18296 0.0
H1142 H 0.81542 0.4849 0.13065 0.0
H1143 H 0.75117 0.42373 -0.00143 0.0
H1144 H 0.72819 0.44484 0.99535 0.0
H1145 H 0.75582 0.47557 0.14875 0.0
C1146 C 0.80792 0.42907 0.15377 0.0
C1147 C 0.81277 0.41392 0.12268 0.0
C1148 C 0.80107 0.40539 0.07399 0.0
C1149 C 0.78503 0.41222 0.05541 0.0
C1150 C 0.78082 0.42751 0.08621 0.0
C1151 C 0.79167 0.43571 0.13453 0.0
C1152 C 0.78394 0.45219 0.15911 0.0
C1153 C 0.77021 0.44151 0.21047 0.0
C1154 C 0.80552 0.47741 0.16791 0.0
C1155 C 0.7675 0.45223 0.1166 0.0
C1156 C 0.76595 0.43779 0.07507 0.0
C1157 C 0.75207 0.435 0.03095 0.0
C1158 C 0.73913 0.44711 0.02944 0.0
C1159 C 0.74018 0.4618 0.07177 0.0
C1160 C 0.75468 0.46446 0.11575 0.0
H1161 H 0.61455 0.37258 0.18781 0.0
H1162 H 0.63022 0.39829 0.02735 0.0
H1163 H 0.61567 0.35727 -0.00409 0.0
H1164 H 0.6315 0.32695 0.17313 0.0
H1165 H 0.60782 0.3053 0.21428 0.0
H1166 H 0.61978 0.33688 0.22549 0.0
H1167 H 0.57726 0.33121 0.21713 0.0
H1168 H 0.56517 0.2996 0.20607 0.0
H1169 H 0.55981 0.31729 0.1591 0.0
H1170 H 0.6006 0.31455 0.98088 0.0
H1171 H 0.58331 0.27067 0.98285 0.0
H1172 H 0.57537 0.27115 0.15181 0.0
C1173 C 0.61467 0.36937 0.14616 0.0
C1174 C 0.623 0.38839 0.1098 0.0
C1175 C 0.62331 0.38378 0.0556 0.0
C1176 C 0.61529 0.36062 0.03736 0.0
C1177 C 0.60695 0.34218 0.0738 0.0
C1178 C 0.6064 0.3461 0.127 0.0
C1179 C 0.59618 0.32272 0.15714 0.0
C1180 C 0.61494 0.32299 0.19472 0.0
C1181 C 0.57324 0.3174 0.18658 0.0
C1182 C 0.59085 0.30525 0.11234 0.0
C1183 C 0.59758 0.31701 0.06479 0.0
C1184 C 0.5951 0.30501 0.01777 0.0
C1185 C 0.58532 0.28016 0.01926 0.0
C1186 C 0.57788 0.26764 0.06734 0.0
C1187 C 0.58067 0.28034 0.11445 0.0
H1188 H 0.76024 0.28669 0.02008 0.0
H1189 H 0.78382 0.31631 0.17575 0.0
H1190 H 0.7433 0.29001 0.21023 0.0
H1191 H 0.7 0.27896 0.02879 0.0
H1192 H 0.6861 0.2509 0.99375 0.0
H1193 H 0.7168 0.27299 0.98058 0.0
H1194 H 0.72898 0.24111 0.00027 0.0
H1195 H 0.69837 0.21918 0.01512 0.0
H1196 H 0.72153 0.22609 0.06284 0.0
H1197 H 0.70126 0.26013 0.22941 0.0
H1198 H 0.65778 0.23125 0.22955 0.0
H1199 H 0.66067 0.21986 0.06267 0.0
C1200 C 0.7566 0.28785 0.06109 0.0
C1201 C 0.775 0.30348 0.09545 0.0
C1202 C 0.76987 0.30435 0.14904 0.0
C1203 C 0.74697 0.28943 0.16904 0.0
C1204 C 0.72937 0.27354 0.13499 0.0
C1205 C 0.73368 0.27275 0.08204 0.0
C1206 C 0.71132 0.25368 0.05463 0.0
C1207 C 0.70307 0.26481 0.01194 0.0
C1208 C 0.7153 0.23385 0.03188 0.0
C1209 C 0.69391 0.24438 0.10033 0.0
C1210 C 0.70484 0.25591 0.14637 0.0
C1211 C 0.6924 0.25095 0.19364 0.0
C1212 C 0.66779 0.2345 0.19345 0.0
C1213 C 0.65596 0.22332 0.14628 0.0
C1214 C 0.66937 0.22779 0.09953 0.0
H1215 H 0.56368 0.23526 0.51563 0.0
H1216 H 0.61648 0.311 0.5147 0.0
H1217 H 0.64842 0.30153 0.53132 0.0
H1218 H 0.58503 0.21853 0.61566 0.0
H1219 H 0.58065 0.1905 0.59028 0.0
H1220 H 0.56213 0.20215 0.56739 0.0
H1221 H 0.57434 0.20121 0.47116 0.0
H1222 H 0.59209 0.18846 0.49325 0.0
H1223 H 0.60562 0.21537 0.45417 0.0
H1224 H 0.67245 0.28465 0.56894 0.0
H1225 H 0.68974 0.26043 0.60169 0.0
H1226 H 0.62252 0.19535 0.57082 0.0
C1227 C 0.58213 0.24967 0.51625 0.0
C1228 C 0.58775 0.27379 0.51351 0.0
C1229 C 0.61195 0.29238 0.5157 0.0
C1230 C 0.63017 0.28719 0.5257 0.0
C1231 C 0.62391 0.2633 0.53181 0.0
C1232 C 0.60066 0.24474 0.52484 0.0
C1233 C 0.59868 0.2207 0.53587 0.0
C1234 C 0.58055 0.20719 0.57992 0.0
C1235 C 0.59231 0.20554 0.48562 0.0
C1236 C 0.62404 0.22881 0.55325 0.0
C1237 C 0.63826 0.25346 0.55092 0.0
C1238 C 0.66173 0.26528 0.56947 0.0
C1239 C 0.67126 0.25145 0.58878 0.0
C1240 C 0.65739 0.22615 0.58856 0.0
C1241 C 0.63347 0.21472 0.571 0.0
H1242 H 0.83177 0.40719 0.60523 0.0
H1243 H 0.7923 0.41908 0.48276 0.0
H1244 H 0.77507 0.37701 0.45382 0.0
H1245 H 0.84638 0.36915 0.5265 0.0
H1246 H 0.84349 0.34968 0.58016 0.0
H1247 H 0.85258 0.38063 0.59256 0.0
H1248 H 0.81757 0.36791 0.65806 0.0
H1249 H 0.8089 0.33704 0.64706 0.0
H1250 H 0.78747 0.34685 0.63739 0.0
H1251 H 0.76026 0.33345 0.44219 0.0
H1252 H 0.74698 0.29071 0.45187 0.0
H1253 H 0.80056 0.30807 0.5731 0.0
C1254 C 0.8194 0.40078 0.57254 0.0
C1255 C 0.81319 0.41611 0.54611 0.0
C1256 C 0.79723 0.40743 0.50316 0.0
C1257 C 0.78748 0.38368 0.48638 0.0
C1258 C 0.79441 0.3691 0.5122 0.0
C1259 C 0.81001 0.37726 0.55431 0.0
C1260 C 0.81444 0.35781 0.57509 0.0
C1261 C 0.84079 0.36474 0.56813 0.0
C1262 C 0.80661 0.35207 0.6328 0.0
C1263 C 0.79824 0.33727 0.53921 0.0
C1264 C 0.78693 0.3442 0.50314 0.0
C1265 C 0.76931 0.32783 0.46955 0.0
C1266 C 0.76206 0.30349 0.47497 0.0
C1267 C 0.77253 0.29578 0.5136 0.0
C1268 C 0.79189 0.31321 0.54369 0.0
H1269 H 0.73105 0.44272 0.49035 0.0
H1270 H 0.73924 0.50231 0.58459 0.0
H1271 H 0.69601 0.48035 0.60384 0.0
H1272 H 0.66579 0.42323 0.44338 0.0
H1273 H 0.65842 0.39232 0.44507 0.0
H1274 H 0.68817 0.41537 0.42695 0.0
H1275 H 0.70499 0.3998 0.49929 0.0
H1276 H 0.67543 0.3777 0.52006 0.0
H1277 H 0.69601 0.39929 0.56646 0.0
H1278 H 0.65658 0.44805 0.63508 0.0
H1279 H 0.61814 0.41115 0.65387 0.0
H1280 H 0.63381 0.37328 0.53407 0.0
C1281 C 0.72344 0.45171 0.51219 0.0
C1282 C 0.73836 0.47398 0.5367 0.0
C1283 C 0.72799 0.48512 0.56598 0.0
C1284 C 0.70351 0.47275 0.57726 0.0
C1285 C 0.68964 0.44967 0.55736 0.0
C1286 C 0.69888 0.43968 0.52312 0.0
C1287 C 0.68051 0.4138 0.51092 0.0
C1288 C 0.67276 0.41103 0.45316 0.0
C1289 C 0.68981 0.39667 0.52506 0.0
C1290 C 0.66041 0.41035 0.54701 0.0
C1291 C 0.66605 0.43124 0.57345 0.0
C1292 C 0.65152 0.43179 0.61326 0.0
C1293 C 0.63004 0.41071 0.62446 0.0
C1294 C 0.6233 0.3896 0.59545 0.0
C1295 C 0.63871 0.38935 0.55658 0.0
H1296 H 0.49674 0.78119 0.47401 0.0
H1297 H 0.44603 0.70507 0.46284 0.0
H1298 H 0.4134 0.71359 0.44662 0.0
H1299 H 0.45114 0.79606 0.53817 0.0
H1300 H 0.46454 0.82448 0.50464 0.0
H1301 H 0.48285 0.81208 0.52502 0.0
H1302 H 0.49785 0.81583 0.42966 0.0
H1303 H 0.47888 0.82718 0.40821 0.0
H1304 H 0.47655 0.80086 0.37765 0.0
H1305 H 0.38904 0.7302 0.41087 0.0
H1306 H 0.37081 0.75396 0.38134 0.0
H1307 H 0.43575 0.81946 0.42371 0.0
C1308 C 0.47853 0.76643 0.47083 0.0
C1309 C 0.47369 0.74252 0.47006 0.0
C1310 C 0.44987 0.72347 0.46452 0.0
C1311 C 0.43129 0.72814 0.45479 0.0
C1312 C 0.43679 0.75193 0.45248 0.0
C1313 C 0.45955 0.77078 0.4628 0.0
C1314 C 0.4606 0.79467 0.45611 0.0
C1315 C 0.46504 0.80758 0.50914 0.0
C1316 C 0.47959 0.81055 0.41547 0.0
C1317 C 0.43545 0.78625 0.43647 0.0
C1318 C 0.42206 0.76153 0.43465 0.0
C1319 C 0.39902 0.74955 0.41369 0.0
C1320 C 0.38896 0.76318 0.39628 0.0
C1321 C 0.40184 0.78845 0.40064 0.0
C1322 C 0.42546 0.80011 0.42048 0.0
H1323 H 0.25603 0.70838 0.44064 0.0
H1324 H 0.32269 0.72796 0.52073 0.0
H1325 H 0.31449 0.68658 0.51246 0.0
H1326 H 0.22062 0.64372 0.48566 0.0
H1327 H 0.20706 0.63456 0.4218 0.0
H1328 H 0.21519 0.66385 0.44662 0.0
H1329 H 0.24 0.68238 0.36226 0.0
H1330 H 0.23308 0.65333 0.33846 0.0
H1331 H 0.26385 0.67664 0.34597 0.0
H1332 H 0.3046 0.64679 0.47663 0.0
H1333 H 0.28747 0.60666 0.43577 0.0
H1334 H 0.22738 0.61256 0.37867 0.0
C1335 C 0.26833 0.70366 0.45853 0.0
C1336 C 0.29005 0.72144 0.48096 0.0
C1337 C 0.30579 0.71467 0.50387 0.0
C1338 C 0.30146 0.69122 0.49868 0.0
C1339 C 0.28122 0.6748 0.47114 0.0
C1340 C 0.26443 0.68042 0.45299 0.0
C1341 C 0.24552 0.66032 0.41998 0.0
C1342 C 0.22062 0.64999 0.44506 0.0
C1343 C 0.24563 0.66868 0.36334 0.0
C1344 C 0.25447 0.64268 0.42205 0.0
C1345 C 0.2753 0.65156 0.45101 0.0
C1346 C 0.28799 0.63937 0.45491 0.0
C1347 C 0.27843 0.61688 0.43086 0.0
C1348 C 0.25633 0.6069 0.40414 0.0
C1349 C 0.24438 0.62004 0.39895 0.0
H1350 H 0.33451 0.58147 0.49503 0.0
H1351 H 0.32616 0.51781 0.41784 0.0
H1352 H 0.36936 0.53885 0.39817 0.0
H1353 H 0.37151 0.62213 0.41182 0.0
H1354 H 0.39157 0.64509 0.45659 0.0
H1355 H 0.36145 0.62415 0.47658 0.0
H1356 H 0.37648 0.6109 0.55667 0.0
H1357 H 0.40676 0.63273 0.53882 0.0
H1358 H 0.39847 0.60177 0.54762 0.0
H1359 H 0.40974 0.5695 0.36591 0.0
H1360 H 0.44934 0.60489 0.34658 0.0
H1361 H 0.43341 0.64795 0.45154 0.0
C1362 C 0.34206 0.57156 0.47683 0.0
C1363 C 0.32705 0.54815 0.45734 0.0
C1364 C 0.33742 0.53583 0.43271 0.0
C1365 C 0.3619 0.54768 0.42107 0.0
C1366 C 0.37586 0.57156 0.43611 0.0
C1367 C 0.36666 0.58305 0.46583 0.0
C1368 C 0.3854 0.60917 0.47458 0.0
C1369 C 0.37697 0.62611 0.45362 0.0
C1370 C 0.39218 0.61391 0.53289 0.0
C1371 C 0.40591 0.61086 0.4422 0.0
C1372 C 0.39994 0.58898 0.42009 0.0
C1373 C 0.41498 0.58654 0.38442 0.0
C1374 C 0.43721 0.60674 0.37299 0.0
C1375 C 0.44421 0.6289 0.3977 0.0
C1376 C 0.42836 0.63105 0.43245 0.0
H1377 H 0.30401 0.54142 0.85507 0.0
H1378 H 0.33996 0.58147 0.99541 0.0
H1379 H 0.31909 0.60462 0.98708 0.0
H1380 H 0.30601 0.59108 0.78486 0.0
H1381 H 0.27694 0.57326 0.7553 0.0
H1382 H 0.29467 0.55972 0.77179 0.0
H1383 H 0.2599 0.52781 0.82794 0.0
H1384 H 0.24198 0.5411 0.81126 0.0
H1385 H 0.24718 0.5373 0.8791 0.0
H1386 H 0.2951 0.62366 0.96349 0.0
H1387 H 0.26685 0.63572 0.92977 0.0
H1388 H 0.24542 0.58314 0.80525 0.0
C1389 C 0.30738 0.55496 0.88427 0.0
C1390 C 0.32359 0.55961 0.92606 0.0
C1391 C 0.32759 0.57755 0.96322 0.0
C1392 C 0.3159 0.59086 0.95867 0.0
C1393 C 0.30029 0.58602 0.9167 0.0
C1394 C 0.29585 0.56842 0.88031 0.0
C1395 C 0.27801 0.56671 0.83923 0.0
C1396 C 0.28961 0.57307 0.78456 0.0
C1397 C 0.25543 0.54174 0.83944 0.0
C1398 C 0.27271 0.58579 0.85895 0.0
C1399 C 0.28611 0.59691 0.90325 0.0
C1400 C 0.28455 0.61512 0.92888 0.0
C1401 C 0.26858 0.6219 0.90937 0.0
C1402 C 0.25425 0.61043 0.86495 0.0
C1403 C 0.25637 0.59222 0.83909 0.0
H1404 H 0.45747 0.64836 0.81608 0.0
H1405 H 0.3957 0.61683 0.91897 0.0
H1406 H 0.40572 0.65702 0.95004 0.0
H1407 H 0.49745 0.69433 0.89728 0.0
H1408 H 0.51074 0.71731 0.84778 0.0
H1409 H 0.49792 0.68628 0.82975 0.0
H1410 H 0.47045 0.69061 0.76241 0.0
H1411 H 0.48322 0.72174 0.77982 0.0
H1412 H 0.45132 0.70199 0.78332 0.0
H1413 H 0.42451 0.69942 0.97739 0.0
H1414 H 0.44833 0.74315 0.99117 0.0
H1415 H 0.49697 0.7483 0.86746 0.0
C1416 C 0.44588 0.65016 0.84418 0.0
C1417 C 0.42579 0.62977 0.86515 0.0
C1418 C 0.41102 0.63246 0.90227 0.0
C1419 C 0.41661 0.65513 0.92027 0.0
C1420 C 0.43682 0.67495 0.90003 0.0
C1421 C 0.45093 0.67286 0.86187 0.0
C1422 C 0.47155 0.69731 0.84686 0.0
C1423 C 0.49585 0.69888 0.85601 0.0
C1424 C 0.46897 0.70325 0.78971 0.0
C1425 C 0.46753 0.71313 0.8848 0.0
C1426 C 0.44729 0.69982 0.91478 0.0
C1427 C 0.44022 0.71018 0.95366 0.0
C1428 C 0.45394 0.73498 0.96146 0.0
C1429 C 0.47445 0.74912 0.93043 0.0
C1430 C 0.48135 0.73796 0.8918 0.0
H1431 H 0.39267 0.81237 0.87841 0.0
H1432 H 0.41429 0.76316 0.81806 0.0
H1433 H 0.37272 0.72997 0.82446 0.0
H1434 H 0.35692 0.77683 0.97296 0.0
H1435 H 0.33343 0.78414 0.96847 0.0
H1436 H 0.36325 0.80551 0.94745 0.0
H1437 H 0.34809 0.80785 0.85485 0.0
H1438 H 0.31796 0.78741 0.87625 0.0
H1439 H 0.32969 0.78061 0.81875 0.0
H1440 H 0.33178 0.70108 0.85733 0.0
H1441 H 0.2909 0.67935 0.89445 0.0
H1442 H 0.29516 0.7471 0.93098 0.0
C1443 C 0.38836 0.7948 0.86427 0.0
C1444 C 0.4066 0.7903 0.84772 0.0
C1445 C 0.40051 0.76708 0.8301 0.0
C1446 C 0.37697 0.74803 0.83414 0.0
C1447 C 0.35974 0.75266 0.85484 0.0
C1448 C 0.36489 0.77562 0.86775 0.0
C1449 C 0.3436 0.77545 0.89313 0.0
C1450 C 0.34968 0.78611 0.94879 0.0
C1451 C 0.33428 0.7886 0.85867 0.0
C1452 C 0.32609 0.74877 0.89457 0.0
C1453 C 0.33578 0.73593 0.87255 0.0
C1454 C 0.32374 0.71094 0.87344 0.0
C1455 C 0.30076 0.69876 0.89541 0.0
C1456 C 0.29008 0.71164 0.91554 0.0
C1457 C 0.303 0.73691 0.91557 0.0
H1458 H 0.20906 0.08299 0.62378 0.0
H1459 H 0.26615 0.0688 0.5846 0.0
H1460 H 0.28058 0.10031 0.51613 0.0
H1461 H 0.19622 0.09412 0.49575 0.0
H1462 H 0.19069 0.11768 0.51626 0.0
H1463 H 0.18567 0.09414 0.56119 0.0
H1464 H 0.21422 0.12629 0.62775 0.0
H1465 H 0.21988 0.14986 0.58202 0.0
H1466 H 0.2445 0.14747 0.60847 0.0
H1467 H 0.28581 0.13062 0.44644 0.0
H1468 H 0.28119 0.1567 0.38209 0.0
H1469 H 0.22365 0.15366 0.47599 0.0
C1470 C 0.22443 0.08635 0.60046 0.0
C1471 C 0.23633 0.07338 0.60859 0.0
C1472 C 0.25675 0.07857 0.57828 0.0
C1473 C 0.26514 0.09649 0.53977 0.0
C1474 C 0.25324 0.10935 0.53337 0.0
C1475 C 0.23341 0.10455 0.56315 0.0
C1476 C 0.22357 0.12059 0.54856 0.0
C1477 C 0.19751 0.10575 0.52927 0.0
C1478 C 0.22569 0.13703 0.59444 0.0
C1479 C 0.24044 0.13464 0.50462 0.0
C1480 C 0.2575 0.12803 0.49627 0.0
C1481 C 0.27299 0.13647 0.45343 0.0
C1482 C 0.27032 0.15136 0.4172 0.0
C1483 C 0.25257 0.15789 0.42483 0.0
C1484 C 0.23813 0.14999 0.47011 0.0
H1485 H 0.96649 0.1688 0.56929 0.0
H1486 H 0.94536 0.11399 0.68854 0.0
H1487 H 0.9077 0.08854 0.64199 0.0
H1488 H 0.90276 0.1549 0.53491 0.0
H1489 H 0.90982 0.15989 0.46608 0.0
H1490 H 0.93255 0.17685 0.51434 0.0
H1491 H 0.96037 0.16283 0.47377 0.0
H1492 H 0.93807 0.14666 0.4248 0.0
H1493 H 0.9491 0.13119 0.46475 0.0
H1494 H 0.87669 0.06682 0.57951 0.0
H1495 H 0.8597 0.04635 0.49785 0.0
H1496 H 0.89772 0.11413 0.41402 0.0
C1497 C 0.95364 0.15153 0.5855 0.0
C1498 C 0.95874 0.14304 0.63184 0.0
C1499 C 0.9419 0.12044 0.65232 0.0
C1500 C 0.9202 0.10615 0.62687 0.0
C1501 C 0.91555 0.11478 0.581 0.0
C1502 C 0.93189 0.13677 0.55984 0.0
C1503 C 0.92427 0.13969 0.5054 0.0
C1504 C 0.91691 0.15898 0.50519 0.0
C1505 C 0.94412 0.1454 0.46482 0.0
C1506 C 0.90265 0.11491 0.4974 0.0
C1507 C 0.89718 0.10149 0.54283 0.0
C1508 C 0.8804 0.07719 0.54386 0.0
C1509 C 0.87063 0.06566 0.49654 0.0
C1510 C 0.87779 0.07841 0.44844 0.0
C1511 C 0.89236 0.1037 0.44975 0.0
H1512 H 0.89211 0.82332 0.5492 0.0
H1513 H 0.89121 0.77484 0.66818 0.0
H1514 H 0.90821 0.7584 0.6051 0.0
H1515 H 0.87764 0.7804 0.43628 0.0
H1516 H 0.89705 0.80425 0.39252 0.0
H1517 H 0.88182 0.81004 0.44482 0.0
H1518 H 0.92239 0.84428 0.47994 0.0
H1519 H 0.93746 0.83892 0.42708 0.0
H1520 H 0.94616 0.83806 0.49384 0.0
H1521 H 0.93286 0.75359 0.53605 0.0
H1522 H 0.96202 0.76055 0.46527 0.0
H1523 H 0.942 0.80741 0.38688 0.0
C1524 C 0.89511 0.80894 0.56145 0.0
C1525 C 0.89039 0.80031 0.61327 0.0
C1526 C 0.89455 0.78154 0.62831 0.0
C1527 C 0.90409 0.772 0.59275 0.0
C1528 C 0.90871 0.78094 0.54186 0.0
C1529 C 0.90402 0.79874 0.52595 0.0
C1530 C 0.91228 0.80648 0.47032 0.0
C1531 C 0.89091 0.79989 0.43383 0.0
C1532 C 0.93067 0.83351 0.46769 0.0
C1533 C 0.92367 0.79139 0.4587 0.0
C1534 C 0.92129 0.77657 0.50024 0.0
C1535 C 0.93406 0.76431 0.5023 0.0
C1536 C 0.95047 0.76821 0.46203 0.0
C1537 C 0.9534 0.78382 0.42027 0.0
C1538 C 0.93903 0.7945 0.41737 0.0
H1539 H 0.05166 0.17055 0.90424 0.0
H1540 H 0.07403 0.24458 0.86747 0.0
H1541 H 0.0972 0.25752 0.95015 0.0
H1542 H 0.04576 0.17606 0.04585 0.0
H1543 H 0.05656 0.15597 0.0622 0.0
H1544 H 0.04051 0.15201 0.00182 0.0
H1545 H 0.07565 0.15446 0.94808 0.0
H1546 H 0.09164 0.15758 0.00792 0.0
H1547 H 0.10534 0.17975 0.95693 0.0
H1548 H 0.12053 0.26239 0.03186 0.0
H1549 H 0.14422 0.25917 0.10403 0.0
H1550 H 0.10471 0.18171 0.08951 0.0
C1551 C 0.06143 0.18949 0.91366 0.0
C1552 C 0.06128 0.20666 0.87974 0.0
C1553 C 0.07397 0.23123 0.89336 0.0
C1554 C 0.08701 0.23868 0.9402 0.0
C1555 C 0.08664 0.22124 0.97311 0.0
C1556 C 0.07413 0.19715 0.96047 0.0
C1557 C 0.0774 0.18206 0.0013 0.0
C1558 C 0.05364 0.16555 0.02944 0.0
C1559 C 0.08816 0.16764 0.9771 0.0
C1560 C 0.09486 0.20157 0.03741 0.0
C1561 C 0.09957 0.224 0.02112 0.0
C1562 C 0.11663 0.24493 0.04575 0.0
C1563 C 0.12987 0.24293 0.0869 0.0
C1564 C 0.12603 0.22018 0.10237 0.0
C1565 C 0.10773 0.19927 0.0786 0.0
H1566 H 0.80766 0.89592 0.03518 0.0
H1567 H 0.87239 0.91907 0.1262 0.0
H1568 H 0.88407 0.89623 0.0675 0.0
H1569 H 0.79687 0.83576 0.00408 0.0
H1570 H 0.7862 0.8364 0.93915 0.0
H1571 H 0.78213 0.85276 0.99159 0.0
H1572 H 0.80368 0.89163 0.93627 0.0
H1573 H 0.80814 0.87551 0.884 0.0
H1574 H 0.83344 0.90157 0.91197 0.0
H1575 H 0.89057 0.87428 0.99325 0.0
H1576 H 0.88961 0.85198 0.91306 0.0
H1577 H 0.82057 0.84317 0.87176 0.0
C1578 C 0.82428 0.89616 0.04292 0.0
C1579 C 0.83936 0.90967 0.0847 0.0
C1580 C 0.86064 0.909 0.09428 0.0
C1581 C 0.86743 0.89609 0.06108 0.0
C1582 C 0.85255 0.88373 0.01902 0.0
C1583 C 0.83124 0.88338 0.01035 0.0
C1584 C 0.8188 0.86942 0.96147 0.0
C1585 C 0.79457 0.84727 0.97491 0.0
C1586 C 0.81586 0.8855 0.92105 0.0
C1587 C 0.8367 0.86239 0.94324 0.0
C1588 C 0.85605 0.87077 0.97697 0.0
C1589 C 0.87539 0.86737 0.96696 0.0
C1590 C 0.87479 0.85487 0.92148 0.0
C1591 C 0.85499 0.84602 0.8872 0.0
C1592 C 0.83575 0.84974 0.89806 0.0
H1593 H 0.16982 0.97316 0.85486 0.0
H1594 H 0.24008 0.00499 0.92744 0.0
H1595 H 0.22169 0.98241 0.00849 0.0
H1596 H 0.13727 0.97358 0.96655 0.0
H1597 H 0.11126 0.94478 0.95362 0.0
H1598 H 0.12971 0.96278 0.90014 0.0
H1599 H 0.13565 0.92792 0.86912 0.0
H1600 H 0.11693 0.90962 0.922 0.0
H1601 H 0.14675 0.91433 0.91455 0.0
H1602 H 0.19628 0.95751 0.08113 0.0
H1603 H 0.16531 0.92875 0.14061 0.0
H1604 H 0.11102 0.9137 0.02242 0.0
C1605 C 0.18132 0.97535 0.8878 0.0
C1606 C 0.20635 0.99093 0.88519 0.0
C1607 C 0.22087 0.99313 0.92874 0.0
C1608 C 0.2106 0.98048 0.97494 0.0
C1609 C 0.18586 0.96566 0.97661 0.0
C1610 C 0.17139 0.96275 0.93412 0.0
C1611 C 0.14532 0.94528 0.94619 0.0
C1612 C 0.13 0.95735 0.94136 0.0
C1613 C 0.13561 0.92297 0.91087 0.0
C1614 C 0.14747 0.93928 0.00259 0.0
C1615 C 0.17102 0.95121 0.0191 0.0
C1616 C 0.17773 0.94814 0.06896 0.0
C1617 C 0.15992 0.93196 0.10268 0.0
C1618 C 0.13566 0.91912 0.08643 0.0
C1619 C 0.12939 0.92319 0.03594 0.0
H1620 H 0.83928 0.86721 0.50296 0.0
H1621 H 0.77817 0.85806 0.59248 0.0
H1622 H 0.77244 0.88385 0.52865 0.0
H1623 H 0.86353 0.92605 0.48658 0.0
H1624 H 0.87542 0.92789 0.42171 0.0
H1625 H 0.87108 0.90402 0.4649 0.0
H1626 H 0.84394 0.87197 0.39705 0.0
H1627 H 0.8491 0.89571 0.35228 0.0
H1628 H 0.81893 0.87318 0.36902 0.0
H1629 H 0.77735 0.91522 0.46059 0.0
H1630 H 0.79115 0.94739 0.39359 0.0
H1631 H 0.85124 0.93759 0.35697 0.0
C1632 C 0.82388 0.86951 0.50783 0.0
C1633 C 0.80893 0.86036 0.55212 0.0
C1634 C 0.78969 0.86479 0.5584 0.0
C1635 C 0.78637 0.87942 0.52244 0.0
C1636 C 0.80258 0.88948 0.48099 0.0
C1637 C 0.82077 0.88439 0.47336 0.0
C1638 C 0.83789 0.89973 0.43087 0.0
C1639 C 0.86347 0.91534 0.45234 0.0
C1640 C 0.83742 0.88422 0.38455 0.0
C1641 C 0.82691 0.91476 0.41629 0.0
C1642 C 0.80633 0.90841 0.44477 0.0
C1643 C 0.79334 0.92017 0.43792 0.0
C1644 C 0.80136 0.93846 0.40018 0.0
C1645 C 0.82246 0.94511 0.37097 0.0
C1646 C 0.83541 0.93323 0.37959 0.0
H1647 H 0.07892 0.87226 0.44318 0.0
H1648 H 0.1301 0.87757 0.32604 0.0
H1649 H 0.16204 0.8934 0.39251 0.0
H1650 H 0.11612 0.92513 0.50871 0.0
H1651 H 0.10516 0.91369 0.57345 0.0
H1652 H 0.08612 0.90037 0.51756 0.0
H1653 H 0.07999 0.85892 0.54539 0.0
H1654 H 0.09965 0.87244 0.60069 0.0
H1655 H 0.10567 0.85518 0.55382 0.0
H1656 H 0.18922 0.91565 0.46515 0.0
H1657 H 0.20942 0.94231 0.5403 0.0
H1658 H 0.14082 0.91757 0.61533 0.0
C1659 C 0.09684 0.8766 0.4319 0.0
C1660 C 0.10219 0.87387 0.37974 0.0
C1661 C 0.12572 0.87955 0.36604 0.0
C1662 C 0.14392 0.88835 0.40353 0.0
C1663 C 0.13815 0.89078 0.45479 0.0
C1664 C 0.11516 0.88488 0.46924 0.0
C1665 C 0.11418 0.89083 0.52616 0.0
C1666 C 0.10487 0.90857 0.53176 0.0
C1667 C 0.09897 0.86797 0.55841 0.0
C1668 C 0.14042 0.90231 0.54035 0.0
C1669 C 0.15394 0.9019 0.49874 0.0
C1670 C 0.1789 0.91521 0.49899 0.0
C1671 C 0.19028 0.93014 0.54194 0.0
C1672 C 0.17668 0.93097 0.58446 0.0
C1673 C 0.15159 0.91613 0.58451 0.0
H1674 H 0.16296 0.18825 0.43227 0.0
H1675 H 0.18145 0.25154 0.33922 0.0
H1676 H 0.16322 0.26518 0.40588 0.0
H1677 H 0.1074 0.17671 0.4711 0.0
H1678 H 0.10893 0.16708 0.53658 0.0
H1679 H 0.12623 0.16412 0.48505 0.0
H1680 H 0.1649 0.18879 0.53975 0.0
H1681 H 0.14762 0.19194 0.59143 0.0
H1682 H 0.17254 0.2182 0.56301 0.0
H1683 H 0.13587 0.26748 0.47346 0.0
H1684 H 0.10489 0.25956 0.5409 0.0
H1685 H 0.10845 0.19768 0.59399 0.0
C1686 C 0.16361 0.20522 0.42652 0.0
C1687 C 0.17347 0.21876 0.3806 0.0
C1688 C 0.17401 0.24089 0.37429 0.0
C1689 C 0.16375 0.24883 0.41198 0.0
C1690 C 0.15362 0.23476 0.45633 0.0
C1691 C 0.15393 0.21365 0.46424 0.0
C1692 C 0.1405 0.20099 0.51334 0.0
C1693 C 0.11953 0.17575 0.50072 0.0
C1694 C 0.15741 0.19994 0.55431 0.0
C1695 C 0.13168 0.21767 0.53044 0.0
C1696 C 0.13937 0.23711 0.49726 0.0
C1697 C 0.13046 0.25289 0.501 0.0
C1698 C 0.11298 0.24837 0.53922 0.0
C1699 C 0.10514 0.22854 0.57311 0.0
C1700 C 0.11501 0.21347 0.56943 0.0
H1701 H 0.9888 0.83242 0.14399 0.0
H1702 H 0.03361 0.80947 0.0653 0.0
H1703 H 0.0139 0.80778 0.98132 0.0
H1704 H 0.93547 0.79375 0.07116 0.0
H1705 H 0.92511 0.81503 0.06973 0.0
H1706 H 0.94346 0.81538 0.12322 0.0
H1707 H 0.97346 0.86013 0.10473 0.0
H1708 H 0.95538 0.85981 0.05062 0.0
H1709 H 0.98649 0.86916 0.04035 0.0
H1710 H 0.98929 0.80796 0.90671 0.0
H1711 H 0.95795 0.80538 0.84752 0.0
H1712 H 0.92937 0.82876 0.9741 0.0
C1713 C -0.00556 0.82704 0.10904 0.0
C1714 C 0.01273 0.82111 0.11095 0.0
C1715 C 0.01949 0.81391 0.06466 0.0
C1716 C 0.00859 0.81313 0.01674 0.0
C1717 C 0.99087 0.81942 0.016 0.0
C1718 C 0.98355 0.82589 0.06098 0.0
C1719 C 0.96305 0.83034 0.04986 0.0
C1720 C 0.94044 0.81256 0.08029 0.0
C1721 C 0.97004 0.85642 0.0621 0.0
C1722 C 0.96007 0.82535 0.99153 0.0
C1723 C 0.97643 0.81931 0.97276 0.0
C1724 C 0.97645 0.8128 0.92073 0.0
C1725 C 0.95868 0.81157 0.88729 0.0
C1726 C 0.94114 0.81677 0.9062 0.0
C1727 C 0.94238 0.82444 0.95862 0.0
H1728 H 0.20313 0.13599 0.1327 0.0
H1729 H 0.23267 0.20724 0.06562 0.0
H1730 H 0.23779 0.19194 0.98083 0.0
H1731 H 0.24294 0.12096 0.06335 0.0
H1732 H 0.22032 0.08991 0.05598 0.0
H1733 H 0.21946 0.10675 0.11142 0.0
H1734 H 0.17614 0.09548 0.08667 0.0
H1735 H 0.17701 0.07901 0.03051 0.0
H1736 H 0.17006 0.10265 0.02222 0.0
H1737 H 0.2399 0.16909 0.90402 0.0
H1738 H 0.24198 0.14082 0.84219 0.0
H1739 H 0.20838 0.08409 0.95821 0.0
C1740 C 0.21072 0.14839 0.10022 0.0
C1741 C 0.21736 0.17273 0.10548 0.0
C1742 C 0.2275 0.1885 0.06234 0.0
C1743 C 0.23034 0.17998 0.01401 0.0
C1744 C 0.22306 0.15575 0.0098 0.0
C1745 C 0.21375 0.14024 0.05187 0.0
C1746 C 0.20799 0.11518 0.03741 0.0
C1747 C 0.22361 0.10778 0.0689 0.0
C1748 C 0.1812 0.09702 0.04461 0.0
C1749 C 0.215 0.11894 0.98024 0.0
C1750 C 0.22382 0.14247 0.96516 0.0
C1751 C 0.23284 0.15054 0.9151 0.0
C1752 C 0.2337 0.13427 0.88006 0.0
C1753 C 0.2254 0.11023 0.89537 0.0
C1754 C 0.21515 0.1024 0.94549 0.0
H1755 H 0.94774 0.12299 0.97322 0.0
H1756 H 0.91937 0.07641 0.83712 0.0
H1757 H 0.88961 0.04424 0.89368 0.0
H1758 H 0.94273 0.07633 0.06083 0.0
H1759 H 0.93529 0.0884 0.1169 0.0
H1760 H 0.95401 0.1081 0.06568 0.0
H1761 H 0.92507 0.12452 0.05374 0.0
H1762 H 0.90611 0.10498 0.10486 0.0
H1763 H 0.89384 0.10401 0.04083 0.0
H1764 H 0.86078 0.01866 0.96375 0.0
H1765 H 0.83885 -0.00123 0.04487 0.0
H1766 H 0.88945 0.06013 0.13624 0.0
C1767 C 0.93572 0.10592 0.9551 0.0
C1768 C 0.93583 0.10244 0.90036 0.0
C1769 C 0.91932 0.07981 0.87867 0.0
C1770 C 0.90242 0.06136 0.91051 0.0
C1771 C 0.90258 0.06568 0.96405 0.0
C1772 C 0.91914 0.08719 0.98635 0.0
C1773 C 0.91599 0.08703 0.04518 0.0
C1774 C 0.93833 0.09014 0.07385 0.0
C1775 C 0.90988 0.10627 0.06211 0.0
C1776 C 0.89485 0.06206 0.05247 0.0
C1777 C 0.88712 0.05023 0.00502 0.0
C1778 C 0.86691 0.02755 0.00122 0.0
C1779 C 0.85452 0.01648 0.04731 0.0
C1780 C 0.86273 0.02794 0.09637 0.0
C1781 C 0.88313 0.05096 0.09906 0.0
H1782 H 0.90056 0.39283 0.89037 0.0
H1783 H 0.91175 0.44046 0.02048 0.0
H1784 H 0.9265 0.47473 0.95983 0.0
H1785 H 0.95249 0.4391 0.80662 0.0
H1786 H 0.93532 0.42743 0.7473 0.0
H1787 H 0.93092 0.40758 0.80135 0.0
H1788 H 0.8855 0.39337 0.80287 0.0
H1789 H 0.88979 0.41252 0.7481 0.0
H1790 H 0.87617 0.41543 0.80729 0.0
H1791 H 0.93184 0.50136 0.88668 0.0
H1792 H 0.92288 0.51689 0.80666 0.0
H1793 H 0.91038 0.45354 0.72172 0.0
C1794 C 0.90656 0.41063 0.90569 0.0
C1795 C 0.90521 0.4143 0.95958 0.0
C1796 C 0.91291 0.43754 0.97908 0.0
C1797 C 0.92156 0.45711 0.94502 0.0
C1798 C 0.92268 0.45309 0.89172 0.0
C1799 C 0.91537 0.43041 0.87206 0.0
C1800 C 0.91505 0.43034 0.81281 0.0
C1801 C 0.93462 0.42585 0.79073 0.0
C1802 C 0.89015 0.41185 0.79157 0.0
C1803 C 0.92094 0.45587 0.80246 0.0
C1804 C 0.92629 0.46899 0.84845 0.0
C1805 C 0.92841 0.49161 0.85019 0.0
C1806 C 0.92329 0.5003 0.80472 0.0
C1807 C 0.91625 0.48637 0.75844 0.0
C1808 C 0.91653 0.4647 0.75642 0.0
H1809 H 0.54172 0.40605 0.82121 0.0
H1810 H 0.58263 0.44845 0.6873 0.0
H1811 H 0.60917 0.4808 0.74604 0.0
H1812 H 0.55582 0.45858 0.91507 0.0
H1813 H 0.55882 0.44214 0.96886 0.0
H1814 H 0.5376 0.42637 0.91716 0.0
H1815 H 0.55719 0.40027 0.90298 0.0
H1816 H 0.57896 0.41635 0.95304 0.0
H1817 H 0.58867 0.41455 0.88779 0.0
H1818 H 0.63786 0.50315 0.8164 0.0
H1819 H 0.66394 0.51563 0.89497 0.0
H1820 H 0.60733 0.45785 0.98398 0.0
C1821 C 0.55583 0.4224 0.80404 0.0
C1822 C 0.56012 0.42427 0.74934 0.0
C1823 C 0.57851 0.4463 0.72872 0.0
C1824 C 0.59395 0.46492 0.76203 0.0
C1825 C 0.59083 0.46137 0.81591 0.0
C1826 C 0.57189 0.44084 0.83696 0.0
C1827 C 0.57496 0.43946 0.89559 0.0
C1828 C 0.55566 0.44179 0.92596 0.0
C1829 C 0.57496 0.4163 0.91067 0.0
C1830 C 0.59942 0.46138 0.90328 0.0
C1831 C 0.60796 0.47414 0.85711 0.0
C1832 C 0.63114 0.49369 0.85309 0.0
C1833 C 0.64591 0.50046 0.89746 0.0
C1834 C 0.63747 0.4875 0.94466 0.0
C1835 C 0.61395 0.46796 0.94794 0.0
H1836 H 0.64916 0.15251 0.81513 0.0
H1837 H 0.59559 0.08685 0.74105 0.0
H1838 H 0.56626 0.08249 0.80959 0.0
H1839 H 0.62986 0.13748 0.95343 0.0
H1840 H 0.63628 0.16767 0.96588 0.0
H1841 H 0.65361 0.16222 0.91821 0.0
H1842 H 0.64316 0.18482 0.84855 0.0
H1843 H 0.62529 0.18979 0.89538 0.0
H1844 H 0.61219 0.17482 0.83438 0.0
H1845 H 0.54218 0.08809 0.88277 0.0
H1846 H 0.52551 0.10343 0.95026 0.0
H1847 H 0.59498 0.16743 0.96732 0.0
C1848 C 0.63162 0.13655 0.81462 0.0
C1849 C 0.62479 0.11961 0.77388 0.0
C1850 C 0.60123 0.09973 0.77276 0.0
C1851 C 0.58453 0.09719 0.8114 0.0
C1852 C 0.59174 0.11489 0.84999 0.0
C1853 C 0.61481 0.13417 0.85163 0.0
C1854 C 0.61759 0.15257 0.89181 0.0
C1855 C 0.63538 0.15512 0.9349 0.0
C1856 C 0.62498 0.17692 0.86596 0.0
C1857 C 0.59238 0.1409 0.91243 0.0
C1858 C 0.57774 0.11898 0.88877 0.0
C1859 C 0.55355 0.10516 0.9016 0.0
C1860 C 0.54425 0.114 0.93972 0.0
C1861 C 0.55902 0.13665 0.96324 0.0
C1862 C 0.5833 0.15019 0.94934 0.0
H1863 H 0.71516 0.5059 0.22127 0.0
H1864 H 0.7288 0.57898 0.22774 0.0
H1865 H 0.75595 0.5872 0.30313 0.0
H1866 H 0.71414 0.49823 0.36237 0.0
H1867 H 0.72791 0.47987 0.36005 0.0
H1868 H 0.70985 0.47966 0.30594 0.0
H1869 H 0.74512 0.49108 0.24203 0.0
H1870 H 0.76321 0.49108 0.29572 0.0
H1871 H 0.77372 0.51733 0.25504 0.0
H1872 H 0.78085 0.58739 0.37754 0.0
H1873 H 0.80396 0.58024 0.44507 0.0
H1874 H 0.7743 0.50698 0.39097 0.0
C1875 C 0.72398 0.52365 0.23853 0.0
C1876 C 0.71998 0.54188 0.21906 0.0
C1877 C 0.73154 0.5648 0.24265 0.0
C1878 C 0.74697 0.5696 0.28528 0.0
C1879 C 0.75026 0.55116 0.30414 0.0
C1880 C 0.73911 0.52862 0.28166 0.0
C1881 C 0.74536 0.51186 0.31033 0.0
C1882 C 0.72298 0.49118 0.33619 0.0
C1883 C 0.75759 0.5023 0.27359 0.0
C1884 C 0.76248 0.52881 0.35126 0.0
C1885 C 0.76468 0.55124 0.34744 0.0
C1886 C 0.77919 0.56989 0.38121 0.0
C1887 C 0.79205 0.56562 0.41963 0.0
C1888 C 0.79052 0.543 0.42349 0.0
C1889 C 0.77549 0.52433 0.38902 0.0
H1890 H 0.47377 0.21872 0.40167 0.0
H1891 H 0.54541 0.27947 0.38516 0.0
H1892 H 0.55316 0.25909 0.3117 0.0
H1893 H 0.48727 0.17169 0.36951 0.0
H1894 H 0.45993 0.15435 0.33309 0.0
H1895 H 0.4609 0.17317 0.38633 0.0
H1896 H 0.44607 0.1946 0.32351 0.0
H1897 H 0.44547 0.17612 0.26986 0.0
H1898 H 0.46265 0.20832 0.26445 0.0
H1899 H 0.55301 0.23211 0.24117 0.0
H1900 H 0.54508 0.20002 0.17785 0.0
H1901 H 0.47246 0.15813 0.2346 0.0
C1902 C 0.49122 0.22737 0.38316 0.0
C1903 C 0.5093 0.25026 0.39943 0.0
C1904 C 0.53168 0.26163 0.37366 0.0
C1905 C 0.53611 0.25028 0.33185 0.0
C1906 C 0.5178 0.22778 0.31609 0.0
C1907 C 0.49579 0.21642 0.34088 0.0
C1908 C 0.47888 0.19271 0.3148 0.0
C1909 C 0.47131 0.17174 0.35323 0.0
C1910 C 0.45698 0.19297 0.29179 0.0
C1911 C 0.49492 0.19234 0.2719 0.0
C1912 C 0.51726 0.2128 0.27338 0.0
C1913 C 0.53544 0.21627 0.23899 0.0
C1914 C 0.53071 0.19825 0.20245 0.0
C1915 C 0.50801 0.17731 0.19974 0.0
C1916 C 0.48986 0.17427 0.23508 0.0
H1917 H 0.78575 0.26884 0.40102 0.0
H1918 H 0.82753 0.23551 0.44187 0.0
H1919 H 0.85843 0.26108 0.37744 0.0
H1920 H 0.79453 0.27256 0.26885 0.0
H1921 H 0.79802 0.30187 0.25937 0.0
H1922 H 0.78087 0.28375 0.31392 0.0
H1923 H 0.80758 0.31768 0.3787 0.0
H1924 H 0.82457 0.33617 0.32411 0.0
H1925 H 0.83959 0.33036 0.37675 0.0
H1926 H 0.88215 0.28651 0.30325 0.0
H1927 H 0.8986 0.3121 0.22467 0.0
H1928 H 0.84132 0.32879 0.23115 0.0
C1929 C 0.80178 0.26755 0.39717 0.0
C1930 C 0.80469 0.25064 0.42625 0.0
C1931 C 0.82548 0.24883 0.4202 0.0
C1932 C 0.84301 0.26318 0.38379 0.0
C1933 C 0.8395 0.27942 0.35469 0.0
C1934 C 0.81964 0.28202 0.36149 0.0
C1935 C 0.81973 0.30001 0.32325 0.0
C1936 C 0.79694 0.28885 0.28933 0.0
C1937 C 0.82307 0.32238 0.35244 0.0
C1938 C 0.84173 0.30564 0.29145 0.0
C1939 C 0.85319 0.29405 0.31115 0.0
C1940 C 0.87362 0.29602 0.28785 0.0
C1941 C 0.88278 0.31048 0.24335 0.0
C1942 C 0.87115 0.32224 0.22235 0.0
C1943 C 0.8504 0.31979 0.24659 0.0
H1944 H 0.48761 0.24471 0.68164 0.0
H1945 H 0.49776 0.3064 0.77032 0.0
H1946 H 0.48203 0.28123 0.84982 0.0
H1947 H 0.43346 0.19773 0.75634 0.0
H1948 H 0.44397 0.17657 0.75346 0.0
H1949 H 0.45072 0.1977 0.7008 0.0
H1950 H 0.49621 0.21337 0.71167 0.0
H1951 H 0.48933 0.19171 0.76263 0.0
H1952 H 0.50967 0.22303 0.77552 0.0
H1953 H 0.4706 0.2517 0.9204 0.0
H1954 H 0.47418 0.22394 0.98019 0.0
H1955 H 0.47169 0.18037 0.8482 0.0
C1956 C 0.48614 0.25266 0.71787 0.0
C1957 C 0.49376 0.27727 0.72062 0.0
C1958 C 0.49203 0.28748 0.76815 0.0
C1959 C 0.48273 0.27325 0.81303 0.0
C1960 C 0.47525 0.24889 0.80941 0.0
C1961 C 0.47722 0.23872 0.76324 0.0
C1962 C 0.47185 0.21325 0.77198 0.0
C1963 C 0.44862 0.19525 0.74398 0.0
C1964 C 0.49303 0.21019 0.75447 0.0
C1965 C 0.46859 0.21143 0.83097 0.0
C1966 C 0.46931 0.2317 0.85128 0.0
C1967 C 0.46961 0.23557 0.90504 0.0
C1968 C 0.47144 0.2195 0.93888 0.0
C1969 C 0.4735 0.20015 0.91864 0.0
C1970 C 0.47013 0.19505 0.86445 0.0
H1971 H 0.84094 0.29873 0.84153 0.0
H1972 H 0.85238 0.24763 0.92868 0.0
H1973 H 0.82798 0.21623 0.86341 0.0
H1974 H 0.78333 0.26335 0.82595 0.0
H1975 H 0.78036 0.27288 0.76133 0.0
H1976 H 0.80446 0.29307 0.80312 0.0
H1977 H 0.83597 0.29853 0.73339 0.0
H1978 H 0.81193 0.27928 0.68993 0.0
H1979 H 0.83519 0.27251 0.70511 0.0
H1980 H 0.79666 0.18927 0.79688 0.0
H1981 H 0.76303 0.16983 0.73365 0.0
H1982 H 0.76986 0.23878 0.69905 0.0
C1983 C 0.83951 0.28132 0.84535 0.0
C1984 C 0.84871 0.27559 0.88958 0.0
C1985 C 0.84555 0.25231 0.89461 0.0
C1986 C 0.83174 0.23444 0.85779 0.0
C1987 C 0.82131 0.24031 0.81668 0.0
C1988 C 0.8254 0.26336 0.80997 0.0
C1989 C 0.80929 0.26453 0.76858 0.0
C1990 C 0.79344 0.274 0.79114 0.0
C1991 C 0.82398 0.2796 0.72145 0.0
C1992 C 0.79468 0.23839 0.75455 0.0
C1993 C 0.80219 0.2247 0.78148 0.0
C1994 C 0.79083 0.1999 0.77532 0.0
C1995 C 0.77166 0.189 0.73989 0.0
C1996 C 0.76372 0.20288 0.71265 0.0
C1997 C 0.77528 0.22777 0.72038 0.0
H1998 H 0.79075 0.5855 0.88316 0.0
H1999 H 0.77351 0.52059 0.96856 0.0
H2000 H 0.79577 0.51105 0.90435 0.0
H2001 H 0.78587 0.56501 0.75907 0.0
H2002 H 0.81186 0.59019 0.73053 0.0
H2003 H 0.79771 0.59454 0.7869 0.0
H2004 H 0.83763 0.61349 0.83796 0.0
H2005 H 0.85217 0.60967 0.7814 0.0
H2006 H 0.85368 0.59738 0.84379 0.0
H2007 H 0.81052 0.50354 0.82382 0.0
H2008 H 0.82681 0.50268 0.73795 0.0
H2009 H 0.84109 0.57492 0.70655 0.0
C2010 C 0.79269 0.56993 0.8892 0.0
C2011 C 0.78086 0.55392 0.93098 0.0
C2012 C 0.78301 0.53328 0.93737 0.0
C2013 C 0.79545 0.52763 0.90097 0.0
C2014 C 0.80627 0.54319 0.85923 0.0
C2015 C 0.80597 0.5644 0.85393 0.0
C2016 C 0.81894 0.5774 0.80418 0.0
C2017 C 0.8026 0.58204 0.76805 0.0
C2018 C 0.84198 0.60088 0.81764 0.0
C2019 C 0.82467 0.55914 0.78076 0.0
C2020 C 0.81711 0.53962 0.81354 0.0
C2021 C 0.81765 0.51916 0.79872 0.0
C2022 C 0.82695 0.51884 0.74963 0.0
C2023 C 0.83617 0.53905 0.71623 0.0
C2024 C 0.83488 0.55947 0.73197 0.0
H2025 H 0.62288 0.17531 0.25163 0.0
H2026 H 0.57465 0.09836 0.24996 0.0
H2027 H 0.59822 0.09344 0.31984 0.0
H2028 H 0.67754 0.17186 0.27661 0.0
H2029 H 0.69063 0.198 0.31811 0.0
H2030 H 0.67081 0.19548 0.26561 0.0
H2031 H 0.64407 0.20178 0.33184 0.0
H2032 H 0.66368 0.20418 0.38456 0.0
H2033 H 0.63222 0.18229 0.38801 0.0
H2034 H 0.62579 0.09661 0.39064 0.0
H2035 H 0.65613 0.10816 0.46088 0.0
H2036 H 0.68601 0.18297 0.41912 0.0
C2037 C 0.61761 0.15747 0.26569 0.0
C2038 C 0.59731 0.13714 0.24518 0.0
C2039 C 0.59056 0.11403 0.26455 0.0
C2040 C 0.60372 0.11108 0.30431 0.0
C2041 C 0.62367 0.1314 0.32383 0.0
C2042 C 0.63074 0.15416 0.30515 0.0
C2043 C 0.65271 0.17295 0.33386 0.0
C2044 C 0.67419 0.1853 0.29631 0.0
C2045 C 0.64785 0.19137 0.36121 0.0
C2046 C 0.65614 0.15723 0.37296 0.0
C2047 C 0.63946 0.13329 0.36572 0.0
C2048 C 0.63909 0.11526 0.39659 0.0
C2049 C 0.65632 0.1219 0.43607 0.0
C2050 C 0.67318 0.1463 0.44459 0.0
C2051 C 0.67313 0.16418 0.41289 0.0
H2052 H 0.86595 0.48099 0.44447 0.0
H2053 H 0.92533 0.55256 0.41392 0.0
H2054 H 0.9341 0.53792 0.3319 0.0
H2055 H 0.89375 0.44905 0.39909 0.0
H2056 H 0.86679 0.42498 0.37087 0.0
H2057 H 0.86493 0.44146 0.42585 0.0
H2058 H 0.8367 0.45118 0.37262 0.0
H2059 H 0.83873 0.43503 0.31706 0.0
H2060 H 0.84628 0.46586 0.30989 0.0
H2061 H 0.93812 0.51478 0.2576 0.0
H2062 H 0.93793 0.4849 0.19755 0.0
H2063 H 0.87319 0.42937 0.27216 0.0
C2064 C 0.88082 0.49365 0.42063 0.0
C2065 C 0.89503 0.51791 0.43552 0.0
C2066 C 0.91424 0.53389 0.40312 0.0
C2067 C 0.91926 0.52577 0.35645 0.0
C2068 C 0.90469 0.50177 0.34267 0.0
C2069 C 0.88584 0.48596 0.3738 0.0
C2070 C 0.87334 0.46091 0.35113 0.0
C2071 C 0.87481 0.44306 0.38898 0.0
C2072 C 0.84722 0.45279 0.33681 0.0
C2073 C 0.88845 0.46501 0.30278 0.0
C2074 C 0.9064 0.48867 0.29857 0.0
C2075 C 0.92387 0.49629 0.25982 0.0
C2076 C 0.92346 0.47913 0.22549 0.0
C2077 C 0.90554 0.45463 0.22988 0.0
C2078 C 0.88735 0.44782 0.26796 0.0
H2079 H 0.56732 0.37864 0.46165 0.0
H2080 H 0.49412 0.35555 0.41524 0.0
H2081 H 0.50896 0.37876 0.33342 0.0
H2082 H 0.59295 0.43831 0.41301 0.0
H2083 H 0.62031 0.43991 0.39144 0.0
H2084 H 0.60389 0.42086 0.44564 0.0
H2085 H 0.60212 0.3846 0.39786 0.0
H2086 H 0.61835 0.40348 0.34323 0.0
H2087 H 0.5897 0.37692 0.33271 0.0
H2088 H 0.5315 0.40607 0.26004 0.0
H2089 H 0.56036 0.43673 0.2002 0.0
H2090 H 0.61891 0.43958 0.29052 0.0
C2091 C 0.55438 0.37842 0.43429 0.0
C2092 C 0.52955 0.3653 0.44479 0.0
C2093 C 0.51323 0.36552 0.40803 0.0
C2094 C 0.52146 0.37853 0.36136 0.0
C2095 C 0.54601 0.39108 0.35204 0.0
C2096 C 0.56226 0.39119 0.38743 0.0
C2097 C 0.58776 0.40684 0.36867 0.0
C2098 C 0.60205 0.42771 0.40696 0.0
C2099 C 0.60019 0.39206 0.36008 0.0
C2100 C 0.58322 0.41564 0.31731 0.0
C2101 C 0.55904 0.40634 0.30857 0.0
C2102 C 0.55049 0.4132 0.26584 0.0
C2103 C 0.56711 0.43052 0.2317 0.0
C2104 C 0.59206 0.44064 0.24021 0.0
C2105 C 0.60005 0.43249 0.28295 0.0
H2106 H 0.57183 0.7296 0.2162 0.0
H2107 H 0.58626 0.77558 0.3512 0.0
H2108 H 0.60195 0.81096 0.2935 0.0
H2109 H 0.62606 0.77776 0.13619 0.0
H2110 H 0.60939 0.7674 0.07595 0.0
H2111 H 0.60454 0.7464 0.1278 0.0
H2112 H 0.55912 0.73217 0.12856 0.0
H2113 H 0.5639 0.75241 0.07583 0.0
H2114 H 0.54975 0.75413 0.13538 0.0
H2115 H 0.60738 0.83895 0.2236 0.0
H2116 H 0.59774 0.85603 0.14765 0.0
H2117 H 0.58291 0.79365 0.05539 0.0
C2118 C 0.57872 0.74726 0.23316 0.0
C2119 C 0.57777 0.75013 0.28758 0.0
C2120 C 0.58688 0.77325 0.30928 0.0
C2121 C 0.59615 0.79343 0.27693 0.0
C2122 C 0.59683 0.79021 0.22312 0.0
C2123 C 0.58855 0.76772 0.20129 0.0
C2124 C 0.58856 0.76889 0.14207 0.0
C2125 C 0.60831 0.76488 0.11916 0.0
C2126 C 0.56386 0.75086 0.11919 0.0
C2127 C 0.59469 0.79469 0.13453 0.0
C2128 C 0.60076 0.80704 0.18161 0.0
C2129 C 0.60334 0.82977 0.18626 0.0
C2130 C 0.59775 0.83933 0.14294 0.0
C2131 C 0.58963 0.82613 0.09574 0.0
C2132 C 0.58972 0.80438 0.09056 0.0
H2133 H 0.27675 0.78295 0.30984 0.0
H2134 H 0.31721 0.84826 0.22038 0.0
H2135 H 0.2856 0.83256 0.15209 0.0
H2136 H 0.25761 0.74321 0.20735 0.0
H2137 H 0.22826 0.72333 0.23369 0.0
H2138 H 0.25255 0.74149 0.27714 0.0
H2139 H 0.22736 0.75894 0.31631 0.0
H2140 H 0.20324 0.74124 0.2715 0.0
H2141 H 0.216 0.77331 0.27381 0.0
H2142 H 0.25384 0.80731 0.08863 0.0
H2143 H 0.22803 0.7738 0.03164 0.0
H2144 H 0.20349 0.72616 0.16633 0.0
C2145 C 0.27878 0.79384 0.27573 0.0
C2146 C 0.29937 0.81643 0.2691 0.0
C2147 C 0.30158 0.83065 0.22506 0.0
C2148 C 0.28358 0.82205 0.18677 0.0
C2149 C 0.26329 0.79959 0.19433 0.0
C2150 C 0.26077 0.78572 0.23785 0.0
C2151 C 0.23842 0.76136 0.23437 0.0
C2152 C 0.24459 0.74118 0.23832 0.0
C2153 C 0.22017 0.75856 0.2765 0.0
C2154 C 0.2298 0.76292 0.18009 0.0
C2155 C 0.24401 0.78536 0.15827 0.0
C2156 C 0.2422 0.78985 0.10559 0.0
C2157 C 0.22716 0.77051 0.07335 0.0
C2158 C 0.21408 0.74692 0.09401 0.0
C2159 C 0.21373 0.74376 0.14891 0.0
H2160 H 0.28208 0.43487 0.12061 0.0
H2161 H 0.27176 0.47617 -0.00035 0.0
H2162 H 0.24541 0.48257 0.0578 0.0
H2163 H 0.21707 0.4091 0.1776 0.0
H2164 H 0.22799 0.40984 0.24297 0.0
H2165 H 0.24137 0.40334 0.1879 0.0
H2166 H 0.28279 0.4379 0.21625 0.0
H2167 H 0.2697 0.44514 0.2703 0.0
H2168 H 0.28742 0.46782 0.22259 0.0
H2169 H 0.2313 0.49476 0.1335 0.0
H2170 H 0.22021 0.5035 0.21944 0.0
H2171 H 0.23484 0.45136 0.29221 0.0
C2172 C 0.27309 0.44402 0.10566 0.0
C2173 C 0.2787 0.45474 0.05549 0.0
C2174 C 0.26724 0.46724 0.03737 0.0
C2175 C 0.25236 0.47119 0.07033 0.0
C2176 C 0.24841 0.46181 0.12069 0.0
C2177 C 0.25745 0.44753 0.13778 0.0
C2178 C 0.25156 0.44114 0.19522 0.0
C2179 C 0.23342 0.41426 0.20128 0.0
C2180 C 0.27423 0.44846 0.22797 0.0
C2181 C 0.24021 0.45618 0.20859 0.0
C2182 C 0.23843 0.46775 0.16473 0.0
C2183 C 0.23156 0.48504 0.16784 0.0
C2184 C 0.22565 0.49017 0.21694 0.0
C2185 C 0.2264 0.47789 0.26209 0.0
C2186 C 0.23364 0.46058 0.25786 0.0
H2187 H 0.41207 0.89501 0.53605 0.0
H2188 H 0.34791 0.82923 0.57928 0.0
H2189 H 0.36646 0.82847 0.66346 0.0
H2190 H 0.4521 0.87793 0.58452 0.0
H2191 H 0.47413 0.90731 0.60731 0.0
H2192 H 0.45479 0.90432 0.55355 0.0
H2193 H 0.44075 0.93013 0.60354 0.0
H2194 H 0.46013 0.93324 0.65746 0.0
H2195 H 0.42862 0.92151 0.66873 0.0
H2196 H 0.39316 0.83287 0.73856 0.0
H2197 H 0.42659 0.84175 0.79857 0.0
H2198 H 0.47312 0.90512 0.70713 0.0
C2199 C 0.40184 0.88091 0.56411 0.0
C2200 C 0.37852 0.86248 0.55248 0.0
C2201 C 0.36569 0.84371 0.58859 0.0
C2202 C 0.37606 0.84314 0.6363 0.0
C2203 C 0.39925 0.86147 0.64681 0.0
C2204 C 0.41201 0.88002 0.61181 0.0
C2205 C 0.43733 0.89631 0.63058 0.0
C2206 C 0.45565 0.89645 0.59168 0.0
C2207 C 0.44196 0.92181 0.6407 0.0
C2208 C 0.43684 0.88385 0.68114 0.0
C2209 C 0.41472 0.86388 0.69 0.0
C2210 C 0.41049 0.84867 0.73251 0.0
C2211 C 0.42955 0.85389 0.76646 0.0
C2212 C 0.45249 0.87402 0.75737 0.0
C2213 C 0.45588 0.88942 0.71481 0.0
H2214 H 0.20802 0.54781 0.54946 0.0
H2215 H 0.14694 0.47602 0.56642 0.0
H2216 H 0.13461 0.48891 0.64605 0.0
H2217 H 0.22097 0.56019 0.68881 0.0
H2218 H 0.22899 0.59116 0.68204 0.0
H2219 H 0.23372 0.57587 0.62827 0.0
H2220 H 0.2085 0.58696 0.56751 0.0
H2221 H 0.20374 0.6023 0.62101 0.0
H2222 H 0.17847 0.57882 0.58662 0.0
H2223 H 0.12699 0.51071 0.7182 0.0
H2224 H 0.12512 0.53933 0.77909 0.0
H2225 H 0.19317 0.59591 0.71891 0.0
C2226 C 0.19217 0.5347 0.57015 0.0
C2227 C 0.17841 0.51092 0.55185 0.0
C2228 C 0.15778 0.49431 0.57997 0.0
C2229 C 0.15066 0.50146 0.62518 0.0
C2230 C 0.16455 0.52512 0.64188 0.0
C2231 C 0.18497 0.54143 0.61545 0.0
C2232 C 0.19628 0.56602 0.64023 0.0
C2233 C 0.22148 0.57375 0.66109 0.0
C2234 C 0.19676 0.58461 0.60154 0.0
C2235 C 0.17883 0.56107 0.6844 0.0
C2236 C 0.16062 0.53743 0.68465 0.0
C2237 C 0.14141 0.52914 0.7192 0.0
C2238 C 0.14063 0.54556 0.75398 0.0
C2239 C 0.15909 0.56995 0.75421 0.0
C2240 C 0.17865 0.57751 0.71961 0.0
H2241 H 0.48502 0.61433 0.76789 0.0
H2242 H 0.46477 0.54522 0.69915 0.0
H2243 H 0.48855 0.56515 0.62023 0.0
H2244 H 0.4805 0.64141 0.6553 0.0
H2245 H 0.50621 0.67062 0.66656 0.0
H2246 H 0.49061 0.65149 0.72124 0.0
H2247 H 0.52985 0.65421 0.75403 0.0
H2248 H 0.54577 0.67374 0.69994 0.0
H2249 H 0.54704 0.64673 0.71017 0.0
H2250 H 0.51012 0.59154 0.54614 0.0
H2251 H 0.53135 0.62401 0.48146 0.0
H2252 H 0.53796 0.6764 0.5967 0.0
C2253 C 0.48628 0.60363 0.73664 0.0
C2254 C 0.47339 0.57844 0.73892 0.0
C2255 C 0.47478 0.56464 0.69748 0.0
C2256 C 0.4882 0.57575 0.65277 0.0
C2257 C 0.50018 0.60063 0.6506 0.0
C2258 C 0.49971 0.6145 0.69155 0.0
C2259 C 0.51308 0.64086 0.67745 0.0
C2260 C 0.49661 0.65172 0.6803 0.0
C2261 C 0.53526 0.6547 0.71248 0.0
C2262 C 0.52011 0.63943 0.62151 0.0
C2263 C 0.51268 0.61605 0.60714 0.0
C2264 C 0.51622 0.60996 0.55688 0.0
C2265 C 0.52792 0.62837 0.52029 0.0
C2266 C 0.53563 0.65232 0.53435 0.0
C2267 C 0.53191 0.65803 0.58546 0.0
H2268 H 0.171 0.62828 0.10093 0.0
H2269 H 0.14402 0.57694 0.97373 0.0
H2270 H 0.127 0.54362 0.03741 0.0
H2271 H 0.19066 0.59921 0.17921 0.0
H2272 H 0.18202 0.60653 0.24063 0.0
H2273 H 0.18781 0.62557 0.18486 0.0
H2274 H 0.14549 0.62049 0.19537 0.0
H2275 H 0.13941 0.60065 0.25035 0.0
H2276 H 0.11951 0.59087 0.19474 0.0
H2277 H 0.1209 0.51686 0.11167 0.0
H2278 H 0.12898 0.4994 0.18968 0.0
H2279 H 0.15595 0.56684 0.27148 0.0
C2280 C 0.16118 0.60996 0.08693 0.0
C2281 C 0.1587 0.60492 0.03292 0.0
C2282 C 0.14583 0.58095 0.01522 0.0
C2283 C 0.13594 0.56198 0.05107 0.0
C2284 C 0.13861 0.56738 0.1044 0.0
C2285 C 0.1508 0.59081 0.12234 0.0
C2286 C 0.15351 0.59173 0.18128 0.0
C2287 C 0.18006 0.60661 0.19738 0.0
C2288 C 0.13858 0.60151 0.20694 0.0
C2289 C 0.14306 0.5653 0.1931 0.0
C2290 C 0.13383 0.55146 0.14839 0.0
C2291 C 0.12724 0.52727 0.14735 0.0
C2292 C 0.13173 0.51741 0.19185 0.0
C2293 C 0.14254 0.53175 0.23653 0.0
C2294 C 0.14674 0.55539 0.23834 0.0
H2295 H 0.46222 0.55489 0.01275 0.0
H2296 H 0.39586 0.51726 0.0999 0.0
H2297 H 0.4186 0.5273 0.18284 0.0
H2298 H 0.50114 0.54339 0.10729 0.0
H2299 H 0.52611 0.57325 0.09838 0.0
H2300 H 0.50563 0.55825 0.04501 0.0
H2301 H 0.49757 0.59371 0.03624 0.0
H2302 H 0.51846 0.60888 0.08832 0.0
H2303 H 0.48829 0.60353 0.09326 0.0
H2304 H 0.44682 0.5448 0.25467 0.0
H2305 H 0.47643 0.57618 0.31111 0.0
H2306 H 0.52572 0.60534 0.18002 0.0
C2307 C 0.45268 0.54848 0.04949 0.0
C2308 C 0.42745 0.53531 0.0506 0.0
C2309 C 0.41523 0.52752 0.09879 0.0
C2310 C 0.42801 0.53273 0.14582 0.0
C2311 C 0.45295 0.54586 0.14377 0.0
C2312 C 0.46521 0.55407 0.09694 0.0
C2313 C 0.49155 0.5716 0.1063 0.0
C2314 C 0.50702 0.56098 0.08817 0.0
C2315 C 0.4994 0.59586 0.07949 0.0
C2316 C 0.4917 0.57351 0.16555 0.0
C2317 C 0.46955 0.55738 0.18628 0.0
C2318 C 0.46436 0.55723 0.23918 0.0
C2319 C 0.4815 0.57515 0.27115 0.0
C2320 C 0.50342 0.59334 0.24986 0.0
C2321 C 0.50912 0.59161 0.19717 0.0
H2322 H 0.47608 0.88401 0.01387 0.0
H2323 H 0.53383 0.88582 0.10377 0.0
H2324 H 0.52324 0.90278 0.17956 0.0
H2325 H 0.47869 0.93881 0.07246 0.0
H2326 H 0.44654 0.92509 0.07259 0.0
H2327 H 0.46119 0.91731 0.02249 0.0
H2328 H 0.43556 0.8722 0.04662 0.0
H2329 H 0.42036 0.87996 0.09488 0.0
H2330 H 0.43466 0.86321 0.11389 0.0
H2331 H 0.5029 0.9128 0.24773 0.0
H2332 H 0.47074 0.90727 0.30657 0.0
H2333 H 0.42747 0.90359 0.17276 0.0
C2334 C 0.48649 0.88822 0.0496 0.0
C2335 C 0.50549 0.88353 0.05399 0.0
C2336 C 0.51895 0.88908 0.10064 0.0
C2337 C 0.51335 0.89911 0.14324 0.0
C2338 C 0.49449 0.90371 0.1379 0.0
C2339 C 0.4811 0.8982 0.0924 0.0
C2340 C 0.45961 0.90144 0.09927 0.0
C2341 C 0.46165 0.92189 0.06465 0.0
C2342 C 0.43618 0.87781 0.08805 0.0
C2343 C 0.46213 0.90812 0.15679 0.0
C2344 C 0.48281 0.9101 0.17786 0.0
C2345 C 0.48691 0.9118 0.23167 0.0
C2346 C 0.46842 0.90881 0.26504 0.0
C2347 C 0.4461 0.90411 0.24427 0.0
C2348 C 0.44408 0.90647 0.18973 0.0
H2349 H 0.33927 0.51223 0.78019 0.0
H2350 H 0.34763 0.45093 0.74466 0.0
H2351 H 0.32405 0.44392 0.66329 0.0
H2352 H 0.2797 0.4887 0.735 0.0
H2353 H 0.28502 0.51677 0.70779 0.0
H2354 H 0.30252 0.51667 0.76255 0.0
H2355 H 0.34132 0.54308 0.70985 0.0
H2356 H 0.32391 0.54295 0.6545 0.0
H2357 H 0.34534 0.53303 0.6467 0.0
H2358 H 0.29946 0.44363 0.58686 0.0
H2359 H 0.27314 0.44826 0.52336 0.0
H2360 H 0.28197 0.51037 0.60878 0.0
C2361 C 0.33602 0.49721 0.75552 0.0
C2362 C 0.34515 0.48203 0.76851 0.0
C2363 C 0.34079 0.46276 0.73504 0.0
C2364 C 0.32752 0.45872 0.68886 0.0
C2365 C 0.31916 0.47434 0.67675 0.0
C2366 C 0.32319 0.49317 0.70918 0.0
C2367 C 0.31233 0.5074 0.68739 0.0
C2368 C 0.29378 0.50735 0.72544 0.0
C2369 C 0.33189 0.53313 0.67381 0.0
C2370 C 0.30072 0.49305 0.63846 0.0
C2371 C 0.30521 0.47432 0.63254 0.0
C2372 C 0.29596 0.45832 0.59079 0.0
C2373 C 0.28122 0.46119 0.55479 0.0
C2374 C 0.27577 0.47974 0.56133 0.0
C2375 C 0.286 0.49611 0.60306 0.0
H2376 H 0.53624 0.80817 0.80398 0.0
H2377 H 0.5609 0.8762 0.72454 0.0
H2378 H 0.56866 0.8595 0.6446 0.0
H2379 H 0.57947 0.79522 0.74717 0.0
H2380 H 0.55872 0.76347 0.74272 0.0
H2381 H 0.55518 0.7809 0.79342 0.0
H2382 H 0.51178 0.76605 0.76242 0.0
H2383 H 0.51518 0.74861 0.71149 0.0
H2384 H 0.50629 0.77023 0.69503 0.0
H2385 H 0.57353 0.83533 0.57375 0.0
H2386 H 0.57677 0.8059 0.51766 0.0
H2387 H 0.54809 0.75364 0.64367 0.0
C2388 C 0.54323 0.81958 0.76978 0.0
C2389 C 0.54786 0.84342 0.77025 0.0
C2390 C 0.55722 0.85785 0.72491 0.0
C2391 C 0.56163 0.84854 0.67937 0.0
C2392 C 0.55667 0.82487 0.68016 0.0
C2393 C 0.54782 0.81065 0.72427 0.0
C2394 C 0.54427 0.78591 0.71523 0.0
C2395 C 0.56038 0.78111 0.7518 0.0
C2396 C 0.5178 0.76656 0.72139 0.0
C2397 C 0.55235 0.78836 0.65889 0.0
C2398 C 0.55943 0.81095 0.63937 0.0
C2399 C 0.56793 0.81754 0.58845 0.0
C2400 C 0.56951 0.80064 0.5568 0.0
C2401 C 0.56258 0.77746 0.5763 0.0
C2402 C 0.55369 0.77127 0.62785 0.0
H2403 H 0.23386 0.7162 0.79661 0.0
H2404 H 0.16118 0.69049 0.74231 0.0
H2405 H 0.17697 0.71045 0.65719 0.0
H2406 H 0.26005 0.77388 0.73619 0.0
H2407 H 0.28767 0.77472 0.72019 0.0
H2408 H 0.27049 0.75786 0.77607 0.0
H2409 H 0.26948 0.72002 0.73872 0.0
H2410 H 0.28628 0.73668 0.68212 0.0
H2411 H 0.25777 0.7097 0.67382 0.0
H2412 H 0.20039 0.73305 0.57862 0.0
H2413 H 0.23006 0.76141 0.5157 0.0
H2414 H 0.28749 0.77209 0.62073 0.0
C2415 C 0.22122 0.71482 0.76693 0.0
C2416 C 0.19624 0.70174 0.77604 0.0
C2417 C 0.18036 0.70049 0.73628 0.0
C2418 C 0.18915 0.71156 0.68766 0.0
C2419 C 0.21382 0.72379 0.67959 0.0
C2420 C 0.22966 0.72578 0.71833 0.0
C2421 C 0.25539 0.74083 0.70038 0.0
C2422 C 0.2692 0.76315 0.73527 0.0
C2423 C 0.26796 0.72591 0.69865 0.0
C2424 C 0.25149 0.74744 0.64579 0.0
C2425 C 0.22739 0.73706 0.63428 0.0
C2426 C 0.21932 0.7412 0.58699 0.0
C2427 C 0.2363 0.75718 0.55132 0.0
C2428 C 0.26102 0.76893 0.56346 0.0
C2429 C 0.26867 0.7634 0.61061 0.0
H2430 H 0.28681 0.98045 0.60588 0.0
H2431 H 0.21454 0.92448 0.64219 0.0
H2432 H 0.21912 0.89691 0.58128 0.0
H2433 H 0.28863 0.96856 0.47172 0.0
H2434 H 0.31889 0.97403 0.47363 0.0
H2435 H 0.30957 0.98914 0.5191 0.0
H2436 H 0.32247 0.97261 0.59773 0.0
H2437 H 0.33248 0.95809 0.5524 0.0
H2438 H 0.31112 0.94081 0.60268 0.0
H2439 H 0.23181 0.8766 0.51304 0.0
H2440 H 0.25393 0.86237 0.45835 0.0
H2441 H 0.31802 0.93213 0.47172 0.0
C2442 C 0.27191 0.9624 0.60075 0.0
C2443 C 0.25004 0.95465 0.62671 0.0
C2444 C 0.23125 0.93069 0.62138 0.0
C2445 C 0.23366 0.91508 0.5868 0.0
C2446 C 0.25519 0.92377 0.55957 0.0
C2447 C 0.2742 0.94665 0.5676 0.0
C2448 C 0.29612 0.95128 0.53733 0.0
C2449 C 0.30373 0.97198 0.49811 0.0
C2450 C 0.31675 0.95596 0.57476 0.0
C2451 C 0.28642 0.92757 0.50981 0.0
C2452 C 0.26273 0.91194 0.52253 0.0
C2453 C 0.25035 0.88866 0.50285 0.0
C2454 C 0.26294 0.88084 0.47147 0.0
C2455 C 0.28758 0.89627 0.46114 0.0
C2456 C 0.29914 0.92008 0.47896 0.0
H2457 H 0.10618 0.29098 0.60126 0.0
H2458 H 0.03526 0.28259 0.59245 0.0
H2459 H 0.0507 0.31823 0.53576 0.0
H2460 H 0.1389 0.35456 0.60607 0.0
H2461 H 0.16313 0.35788 0.5651 0.0
H2462 H 0.14636 0.3311 0.60347 0.0
H2463 H 0.13733 0.30569 0.51941 0.0
H2464 H 0.1534 0.33231 0.48002 0.0
H2465 H 0.12266 0.31082 0.46495 0.0
H2466 H 0.07328 0.35513 0.48618 0.0
H2467 H 0.10295 0.39348 0.44665 0.0
H2468 H 0.15949 0.37781 0.48201 0.0
C2469 C 0.09403 0.29664 0.58668 0.0
C2470 C 0.06956 0.2841 0.60004 0.0
C2471 C 0.054 0.29194 0.58148 0.0
C2472 C 0.06256 0.31205 0.54936 0.0
C2473 C 0.08664 0.32383 0.53579 0.0
C2474 C 0.10224 0.31655 0.55363 0.0
C2475 C 0.12744 0.33309 0.53401 0.0
C2476 C 0.14498 0.34486 0.57991 0.0
C2477 C 0.13568 0.31967 0.4974 0.0
C2478 C 0.12358 0.35117 0.50404 0.0
C2479 C 0.09982 0.34524 0.50534 0.0
C2480 C 0.09189 0.35987 0.48402 0.0
C2481 C 0.10883 0.38156 0.46177 0.0
C2482 C 0.13331 0.38828 0.46103 0.0
C2483 C 0.14074 0.37268 0.48114 0.0
H2484 H 0.68658 0.76542 0.44561 0.0
H2485 H 0.63421 0.73372 0.57034 0.0
H2486 H 0.66578 0.75412 0.6362 0.0
H2487 H 0.72848 0.75567 0.50347 0.0
H2488 H 0.75471 0.78304 0.48328 0.0
H2489 H 0.72777 0.77102 0.445 0.0
H2490 H 0.72763 0.81115 0.45382 0.0
H2491 H 0.75499 0.8232 0.49105 0.0
H2492 H 0.72938 0.8236 0.51805 0.0
H2493 H 0.70173 0.77241 0.68787 0.0
H2494 H 0.7414 0.78449 0.72413 0.0
H2495 H 0.7722 0.80311 0.56814 0.0
C2496 C 0.68195 0.76344 0.48682 0.0
C2497 C 0.65826 0.74825 0.50345 0.0
C2498 C 0.65248 0.74534 0.55735 0.0
C2499 C 0.67017 0.75708 0.59494 0.0
C2500 C 0.69355 0.7716 0.57784 0.0
C2501 C 0.69965 0.77476 0.52521 0.0
C2502 C 0.72658 0.78822 0.51828 0.0
C2503 C 0.73486 0.7736 0.48561 0.0
C2504 C 0.73514 0.81302 0.49387 0.0
C2505 C 0.73443 0.79046 0.57502 0.0
C2506 C 0.71503 0.78166 0.60855 0.0
C2507 C 0.71721 0.77994 0.66236 0.0
C2508 C 0.7398 0.78688 0.68259 0.0
C2509 C 0.75979 0.79501 0.64891 0.0
C2510 C 0.75718 0.79728 0.59461 0.0
H2511 H 0.92036 0.30035 0.88161 0.0
H2512 H 0.91775 0.27492 0.04065 0.0
H2513 H 0.92849 0.24587 0.00851 0.0
H2514 H 0.90005 0.24099 0.81429 0.0
H2515 H 0.92065 0.25501 0.76069 0.0
H2516 H 0.90797 0.27083 0.79378 0.0
H2517 H 0.95065 0.30617 0.81242 0.0
H2518 H 0.9634 0.29045 0.77969 0.0
H2519 H 0.97184 0.30049 0.84629 0.0
H2520 H 0.9456 0.22495 0.965 0.0
H2521 H 0.96779 0.21162 0.90966 0.0
H2522 H 0.96046 0.24954 0.77676 0.0
C2523 C 0.92154 0.28827 0.90936 0.0
C2524 C 0.91767 0.2896 0.96351 0.0
C2525 C 0.91974 0.27375 -0.00121 0.0
C2526 C 0.92597 0.2572 0.98098 0.0
C2527 C 0.93012 0.25665 0.92777 0.0
C2528 C 0.92792 0.27159 0.89218 0.0
C2529 C 0.93603 0.26891 0.83802 0.0
C2530 C 0.91491 0.2583 0.79941 0.0
C2531 C 0.95671 0.29293 0.81797 0.0
C2532 C 0.94438 0.25121 0.84982 0.0
C2533 C 0.94034 0.24417 0.90177 0.0
C2534 C 0.94843 0.22984 0.92397 0.0
C2535 C 0.96123 0.2226 0.89239 0.0
C2536 C 0.96574 0.22965 0.83923 0.0
C2537 C 0.95685 0.24372 0.81721 0.0
H2538 H 0.75616 0.63575 0.99465 0.0
H2539 H 0.74107 0.58405 0.87082 0.0
H2540 H 0.76759 0.61705 0.81075 0.0
H2541 H 0.75103 0.67594 0.91885 0.0
H2542 H 0.77408 0.70241 0.95087 0.0
H2543 H 0.75841 0.67475 0.98655 0.0
H2544 H 0.79864 0.67688 0.00915 0.0
H2545 H 0.8145 0.70482 0.97403 0.0
H2546 H 0.81902 0.68021 0.95716 0.0
H2547 H 0.79199 0.65663 0.76199 0.0
H2548 H 0.81087 0.69858 0.72949 0.0
H2549 H 0.80697 0.72255 0.88613 0.0
C2550 C 0.75918 0.63128 0.95552 0.0
C2551 C 0.74704 0.60748 0.93741 0.0
C2552 C 0.75052 0.60229 0.88531 0.0
C2553 C 0.76557 0.62086 0.85115 0.0
C2554 C 0.77673 0.64435 0.86991 0.0
C2555 C 0.77371 0.6495 0.92108 0.0
C2556 C 0.78482 0.67605 0.93033 0.0
C2557 C 0.76596 0.68265 0.94763 0.0
C2558 C 0.80548 0.68501 0.97 0.0
C2559 C 0.79391 0.68508 0.87603 0.0
C2560 C 0.78963 0.66676 0.84171 0.0
C2561 C 0.79564 0.67112 0.78869 0.0
C2562 C 0.8062 0.69486 0.77054 0.0
C2563 C 0.80996 0.71352 0.80535 0.0
C2564 C 0.80399 0.70852 0.85859 0.0
H2565 H 0.32559 0.09795 0.86165 0.0
H2566 H 0.34383 0.07624 0.71611 0.0
H2567 H 0.38549 0.0927 0.74743 0.0
H2568 H 0.38657 0.15334 0.88644 0.0
H2569 H 0.38337 0.14726 0.95583 0.0
H2570 H 0.35733 0.13957 0.91631 0.0
H2571 H 0.33783 0.09587 0.95012 0.0
H2572 H 0.36389 0.10309 0.98848 0.0
H2573 H 0.3532 0.07925 0.94088 0.0
H2574 H 0.42107 0.10242 0.80204 0.0
H2575 H 0.4495 0.10802 0.87233 0.0
H2576 H 0.40828 0.12447 0.98197 0.0
C2577 C 0.33865 0.09751 0.83566 0.0
C2578 C 0.33182 0.08593 0.78676 0.0
C2579 C 0.34903 0.08534 0.75359 0.0
C2580 C 0.37263 0.09463 0.77109 0.0
C2581 C 0.37852 0.10478 0.82108 0.0
C2582 C 0.36212 0.10676 0.85242 0.0
C2583 C 0.37174 0.11543 0.90688 0.0
C2584 C 0.37495 0.14039 0.91693 0.0
C2585 C 0.35572 0.09732 0.94901 0.0
C2586 C 0.39556 0.11653 0.90254 0.0
C2587 C 0.39933 0.11074 0.85254 0.0
C2588 C 0.41877 0.10785 0.84075 0.0
C2589 C 0.43479 0.11104 0.88101 0.0
C2590 C 0.43123 0.117 0.93248 0.0
C2591 C 0.4115 0.12004 0.943 0.0
H2592 H 0.77441 0.03448 0.39933 0.0
H2593 H 0.84757 0.08758 0.35898 0.0
H2594 H 0.84509 0.11656 0.41814 0.0
H2595 H 0.75053 0.07054 0.40238 0.0
H2596 H 0.7313 0.05651 0.45804 0.0
H2597 H 0.74014 0.03952 0.41753 0.0
H2598 H 0.75705 0.02908 0.49933 0.0
H2599 H 0.7484 0.04634 0.54011 0.0
H2600 H 0.77902 0.05287 0.53981 0.0
H2601 H 0.83271 0.14088 0.47407 0.0
H2602 H 0.8107 0.15854 0.51705 0.0
H2603 H 0.74698 0.0883 0.52344 0.0
C2604 C 0.7903 0.05187 0.404 0.0
C2605 C 0.81128 0.05853 0.37481 0.0
C2606 C 0.83119 0.08199 0.38062 0.0
C2607 C 0.83009 0.09849 0.41471 0.0
C2608 C 0.8091 0.09114 0.44316 0.0
C2609 C 0.78964 0.06829 0.43828 0.0
C2610 C 0.76848 0.06515 0.4698 0.0
C2611 C 0.74634 0.05751 0.43482 0.0
C2612 C 0.76292 0.04731 0.51495 0.0
C2613 C 0.77847 0.0903 0.49022 0.0
C2614 C 0.80213 0.10496 0.47581 0.0
C2615 C 0.81436 0.12948 0.4865 0.0
C2616 C 0.80177 0.13934 0.51092 0.0
C2617 C 0.77723 0.12465 0.52318 0.0
C2618 C 0.76579 0.09981 0.51447 0.0
H2619 H 0.96137 0.72374 0.34371 0.0
H2620 H 0.02331 0.7556 0.44702 0.0
H2621 H 0.00113 0.72433 0.51209 0.0
H2622 H 0.91448 0.70025 0.44309 0.0
H2623 H 0.89633 0.67239 0.40884 0.0
H2624 H 0.91549 0.69933 0.37255 0.0
H2625 H 0.93621 0.67836 0.32777 0.0
H2626 H 0.91688 0.6513 0.36317 0.0
H2627 H 0.9489 0.66448 0.36787 0.0
H2628 H 0.97356 0.68917 0.56478 0.0
H2629 H 0.94444 0.64842 0.59532 0.0
H2630 H 0.90215 0.63696 0.45476 0.0
C2631 C 0.97027 0.72427 0.38004 0.0
C2632 C -0.00615 0.74275 0.39069 0.0
C2633 C 0.00487 0.74241 0.43863 0.0
C2634 C -0.00752 0.72461 0.47597 0.0
C2635 C 0.96922 0.70692 0.46453 0.0
C2636 C 0.95837 0.70624 0.41735 0.0
C2637 C 0.93438 0.68354 0.41229 0.0
C2638 C 0.91396 0.68923 0.40902 0.0
C2639 C 0.93409 0.66854 0.36499 0.0
C2640 C 0.93375 0.6715 0.46362 0.0
C2641 C 0.95375 0.68559 0.49373 0.0
C2642 C 0.95769 0.67797 0.54187 0.0
C2643 C 0.94105 0.65491 0.55898 0.0
C2644 C 0.92118 0.63977 0.52729 0.0
C2645 C 0.9172 0.64835 0.47973 0.0
H2646 H 0.40674 0.30458 0.48938 0.0
H2647 H 0.3961 0.2363 0.54546 0.0
H2648 H 0.35816 0.21527 0.49566 0.0
H2649 H 0.3451 0.29026 0.49111 0.0
H2650 H 0.34821 0.30657 0.43144 0.0
H2651 H 0.37361 0.31579 0.47391 0.0
H2652 H 0.39764 0.31265 0.39599 0.0
H2653 H 0.37216 0.30289 0.35344 0.0
H2654 H 0.386 0.28474 0.36091 0.0
H2655 H 0.32449 0.20192 0.43068 0.0
H2656 H 0.29288 0.19744 0.36907 0.0
H2657 H 0.32427 0.27443 0.36223 0.0
C2658 C 0.39622 0.28523 0.4921 0.0
C2659 C 0.40424 0.27199 0.52104 0.0
C2660 C 0.39011 0.24671 0.52352 0.0
C2661 C 0.36871 0.23464 0.49509 0.0
C2662 C 0.36187 0.24825 0.465 0.0
C2663 C 0.37496 0.273 0.4642 0.0
C2664 C 0.36408 0.28349 0.42804 0.0
C2665 C 0.35733 0.29999 0.45795 0.0
C2666 C 0.38097 0.29672 0.38188 0.0
C2667 C 0.34228 0.26077 0.40991 0.0
C2668 C 0.34174 0.24061 0.43029 0.0
C2669 C 0.32431 0.21755 0.41579 0.0
C2670 C 0.30641 0.21511 0.38117 0.0
C2671 C 0.30565 0.23545 0.36337 0.0
C2672 C 0.32412 0.25857 0.37688 0.0
H2673 H 0.12818 0.80768 0.14099 0.0
H2674 H 0.08728 0.76218 0.27072 0.0
H2675 H 0.10025 0.73326 0.24697 0.0
H2676 H 0.11543 0.76562 0.05114 0.0
H2677 H 0.14452 0.77801 0.02102 0.0
H2678 H 0.13625 0.79743 0.05391 0.0
H2679 H 0.17353 0.81343 0.1139 0.0
H2680 H 0.18227 0.79431 0.08054 0.0
H2681 H 0.17875 0.79261 0.15074 0.0
H2682 H 0.10979 0.70609 0.19816 0.0
H2683 H 0.11901 0.68378 0.13326 0.0
H2684 H 0.15777 0.74845 0.03973 0.0
C2685 C 0.12275 0.79201 0.1653 0.0
C2686 C 0.10691 0.78696 0.20756 0.0
C2687 C 0.09973 0.76632 0.23858 0.0
C2688 C 0.107 0.74987 0.2254 0.0
C2689 C 0.12206 0.7549 0.18231 0.0
C2690 C 0.13046 0.77581 0.15362 0.0
C2691 C 0.14497 0.77602 0.10683 0.0
C2692 C 0.13465 0.77945 0.05521 0.0
C2693 C 0.17145 0.79524 0.11342 0.0
C2694 C 0.14159 0.75111 0.11112 0.0
C2695 C 0.12867 0.73941 0.15541 0.0
C2696 C 0.12078 0.71532 0.16451 0.0
C2697 C 0.12619 0.7028 0.12735 0.0
C2698 C 0.13947 0.71443 0.08166 0.0
C2699 C 0.14766 0.73905 0.07424 0.0
H2700 H 0.30356 0.4102 0.0782 0.0
H2701 H 0.35495 0.39783 0.99463 0.0
H2702 H 0.3383 0.35808 0.03564 0.0
H2703 H 0.3032 0.37972 0.19924 0.0
H2704 H 0.27146 0.36644 0.2101 0.0
H2705 H 0.28761 0.3946 0.17589 0.0
H2706 H 0.25875 0.37693 0.09715 0.0
H2707 H 0.24234 0.34878 0.13116 0.0
H2708 H 0.25425 0.34971 0.06674 0.0
H2709 H 0.31678 0.32064 0.08149 0.0
H2710 H 0.28877 0.2841 0.12867 0.0
H2711 H 0.2501 0.31884 0.1849 0.0
C2712 C 0.31115 0.39897 0.06903 0.0
C2713 C 0.33044 0.40668 0.03376 0.0
C2714 C 0.34013 0.39187 0.02183 0.0
C2715 C 0.3309 0.36945 0.04498 0.0
C2716 C 0.31202 0.36223 0.0799 0.0
C2717 C 0.30202 0.37627 0.09188 0.0
C2718 C 0.28113 0.36332 0.12943 0.0
C2719 C 0.28617 0.37683 0.18177 0.0
C2720 C 0.25773 0.35945 0.1046 0.0
C2721 C 0.28098 0.33983 0.13584 0.0
C2722 C 0.29916 0.3399 0.10706 0.0
C2723 C 0.3025 0.32026 0.10446 0.0
C2724 C 0.28647 0.29961 0.13126 0.0
C2725 C 0.26737 0.29879 0.16017 0.0
C2726 C 0.26478 0.31924 0.16344 0.0
H2727 H 0.62741 0.87581 0.0753 0.0
H2728 H 0.64752 0.9258 0.94586 0.0
H2729 H 0.68824 0.94921 0.98151 0.0
H2730 H 0.6597 0.91777 0.17367 0.0
H2731 H 0.66965 0.89988 0.208 0.0
H2732 H 0.6422 0.88552 0.17115 0.0
H2733 H 0.65764 0.86195 0.11728 0.0
H2734 H 0.68502 0.87596 0.15463 0.0
H2735 H 0.68608 0.87803 0.08413 0.0
H2736 H 0.72361 0.96976 0.03483 0.0
H2737 H 0.75689 0.98379 0.09645 0.0
H2738 H 0.71652 0.91936 0.1903 0.0
C2739 C 0.64065 0.89134 0.05426 0.0
C2740 C 0.63468 0.899 0.00789 0.0
C2741 C 0.65211 0.91955 0.98102 0.0
C2742 C 0.67513 0.93301 0.00111 0.0
C2743 C 0.68037 0.92538 0.04756 0.0
C2744 C 0.66399 0.90478 0.07336 0.0
C2745 C 0.67465 0.90102 0.12293 0.0
C2746 C 0.66071 0.90106 0.17181 0.0
C2747 C 0.67593 0.87787 0.11951 0.0
C2748 C 0.69933 0.9231 0.12122 0.0
C2749 C 0.70188 0.93693 0.07765 0.0
C2750 C 0.72216 0.95894 0.06857 0.0
C2751 C 0.74084 0.96682 0.1042 0.0
C2752 C 0.73925 0.95251 0.14785 0.0
C2753 C 0.71816 0.93046 0.1569 0.0
H2754 H 0.64327 0.60214 0.10926 0.0
H2755 H 0.58619 0.5293 0.13615 0.0
H2756 H 0.56267 0.54455 0.18162 0.0
H2757 H 0.64312 0.62374 0.22634 0.0
H2758 H 0.64863 0.65296 0.20684 0.0
H2759 H 0.65835 0.63691 0.1656 0.0
H2760 H 0.63425 0.63967 0.08736 0.0
H2761 H 0.62487 0.65639 0.12794 0.0
H2762 H 0.60283 0.62954 0.09519 0.0
H2763 H 0.55081 0.56737 0.24267 0.0
H2764 H 0.54848 0.59639 0.30241 0.0
H2765 H 0.61214 0.65415 0.2304 0.0
C2766 C 0.62536 0.58952 0.12272 0.0
C2767 C 0.61639 0.56471 0.11937 0.0
C2768 C 0.59312 0.54846 0.1379 0.0
C2769 C 0.5797 0.55695 0.1639 0.0
C2770 C 0.58965 0.58165 0.16937 0.0
C2771 C 0.61165 0.59771 0.14779 0.0
C2772 C 0.61957 0.62317 0.16347 0.0
C2773 C 0.64383 0.63485 0.19228 0.0
C2774 C 0.62042 0.63807 0.11563 0.0
C2775 C 0.59938 0.61883 0.19988 0.0
C2776 C 0.58217 0.59484 0.20269 0.0
C2777 C 0.56361 0.58632 0.23923 0.0
C2778 C 0.5625 0.60287 0.27319 0.0
C2779 C 0.57965 0.62757 0.2696 0.0
C2780 C 0.5982 0.6355 0.2324 0.0
H2781 H 0.45009 0.02807 0.10361 0.0
H2782 H 0.51658 0.05749 0.18973 0.0
H2783 H 0.50328 0.01809 0.23058 0.0
H2784 H 0.41626 0.00185 0.2037 0.0
H2785 H 0.39301 0.97521 0.17258 0.0
H2786 H 0.41047 0.00173 0.13451 0.0
H2787 H 0.42295 0.97847 0.07116 0.0
H2788 H 0.405 0.95151 0.10853 0.0
H2789 H 0.43622 0.96176 0.09698 0.0
H2790 H 0.47952 0.98064 0.27875 0.0
H2791 H 0.44751 0.94767 0.32938 0.0
H2792 H 0.39518 0.94338 0.21653 0.0
C2793 C 0.4622 0.02561 0.12881 0.0
C2794 C 0.48432 0.04523 0.14331 0.0
C2795 C 0.49961 0.04224 0.1781 0.0
C2796 C 0.49226 0.01995 0.2011 0.0
C2797 C 0.46952 0.00107 0.18902 0.0
C2798 C 0.45475 0.00358 0.15315 0.0
C2799 C 0.42949 0.98258 0.15569 0.0
C2800 C 0.41127 0.99085 0.16736 0.0
C2801 C 0.42305 0.9677 0.10507 0.0
C2802 C 0.43192 0.96899 0.20124 0.0
C2803 C 0.45527 0.97941 0.21872 0.0
C2804 C 0.46128 0.97185 0.2645 0.0
C2805 C 0.44291 0.95332 0.29343 0.0
C2806 C 0.4188 0.94271 0.27664 0.0
C2807 C 0.41347 0.95048 0.22948 0.0
H2808 H 0.09314 0.47901 0.26209 0.0
H2809 H 0.1004 0.416 0.27975 0.0
H2810 H 0.06498 0.39276 0.22403 0.0
H2811 H 0.0283 0.447 0.26622 0.0
H2812 H 0.02544 0.46602 0.21846 0.0
H2813 H 0.05167 0.47782 0.25927 0.0
H2814 H 0.07767 0.49099 0.17603 0.0
H2815 H 0.05178 0.47805 0.13401 0.0
H2816 H 0.07398 0.46904 0.12747 0.0
H2817 H 0.02966 0.37628 0.16892 0.0
H2818 H -0.00832 0.36539 0.12463 0.0
H2819 H 0.00655 0.43867 0.13985 0.0
C2820 C 0.08706 0.46033 0.25409 0.0
C2821 C 0.09934 0.44915 0.27419 0.0
C2822 C 0.09108 0.42468 0.26388 0.0
C2823 C 0.07119 0.41145 0.23216 0.0
C2824 C 0.05985 0.42304 0.21122 0.0
C2825 C 0.06709 0.44675 0.22221 0.0
C2826 C 0.05072 0.4542 0.1963 0.0
C2827 C 0.03829 0.46168 0.23753 0.0
C2828 C 0.06437 0.47425 0.15602 0.0
C2829 C 0.03315 0.4309 0.16972 0.0
C2830 C 0.03904 0.41332 0.17851 0.0
C2831 C 0.02487 0.38986 0.1612 0.0
C2832 C 0.00344 0.38387 0.13605 0.0
C2833 C -0.00346 0.4013 0.1287 0.0
C2834 C 0.01187 0.42526 0.14401 0.0
H2835 H 0.45008 0.36724 0.75212 0.0
H2836 H 0.51823 0.42306 0.6924 0.0
H2837 H 0.51452 0.45314 0.74546 0.0
H2838 H 0.42204 0.40108 0.73928 0.0
H2839 H 0.40318 0.38876 0.79614 0.0
H2840 H 0.4134 0.37127 0.76153 0.0
H2841 H 0.43157 0.36592 0.84765 0.0
H2842 H 0.42148 0.38357 0.88247 0.0
H2843 H 0.45265 0.392 0.8841 0.0
H2844 H 0.50206 0.4773 0.80074 0.0
H2845 H 0.47953 0.4945 0.84304 0.0
H2846 H 0.41782 0.42322 0.8588 0.0
C2847 C 0.46452 0.38571 0.75155 0.0
C2848 C 0.48487 0.3928 0.71992 0.0
C2849 C 0.50289 0.41724 0.71778 0.0
C2850 C 0.50092 0.43439 0.74779 0.0
C2851 C 0.48054 0.42681 0.77863 0.0
C2852 C 0.46247 0.40308 0.77995 0.0
C2853 C 0.44092 0.40003 0.80995 0.0
C2854 C 0.41858 0.38969 0.7746 0.0
C2855 C 0.4364 0.38446 0.85896 0.0
C2856 C 0.44949 0.4258 0.82449 0.0
C2857 C 0.47262 0.44091 0.80736 0.0
C2858 C 0.48402 0.46564 0.81468 0.0
C2859 C 0.47115 0.47522 0.83886 0.0
C2860 C 0.44704 0.46008 0.85399 0.0
C2861 C 0.43629 0.43509 0.84768 0.0
H2862 H 0.63092 0.06903 0.72279 0.0
H2863 H 0.69619 0.06565 0.70595 0.0
H2864 H 0.67945 0.02999 0.76169 0.0
H2865 H 0.61736 0.04866 0.85596 0.0
H2866 H 0.58559 0.02964 0.84624 0.0
H2867 H 0.60229 0.05567 0.80549 0.0
H2868 H 0.58745 0.02941 0.72198 0.0
H2869 H 0.5702 0.0034 0.76237 0.0
H2870 H 0.59151 0.00379 0.71612 0.0
H2871 H 0.65807 -0.00293 0.82073 0.0
H2872 H 0.62827 0.96095 0.86675 0.0
H2873 H 0.57482 0.98224 0.84332 0.0
C2874 C 0.6415 0.0606 0.73085 0.0
C2875 C 0.66515 0.0705 0.71196 0.0
C2876 C 0.67838 0.05882 0.72195 0.0
C2877 C 0.66907 0.03858 0.75346 0.0
C2878 C 0.64631 0.02995 0.77382 0.0
C2879 C 0.63226 0.03992 0.76192 0.0
C2880 C 0.60765 0.02554 0.78656 0.0
C2881 C 0.60296 0.04079 0.82592 0.0
C2882 C 0.58805 0.0149 0.74422 0.0
C2883 C 0.61039 0.00617 0.81412 0.0
C2884 C 0.63307 0.00954 0.80672 0.0
C2885 C 0.64016 0.99403 0.82674 0.0
C2886 C 0.62316 0.97365 0.85289 0.0
C2887 C 0.59938 0.96893 0.85812 0.0
C2888 C 0.59304 0.98574 0.84027 0.0
H2889 H 0.98784 0.60158 0.68173 0.0
H2890 H 0.9543 0.52587 0.71644 0.0
H2891 H 0.98573 0.53405 0.78224 0.0
H2892 H 0.04881 0.61346 0.69072 0.0
H2893 H 0.0597 0.64282 0.71868 0.0
H2894 H 0.03424 0.63039 0.6755 0.0
H2895 H 0.00961 0.6368 0.74762 0.0
H2896 H 0.0349 0.64869 0.79137 0.0
H2897 H 0.00667 0.62354 0.81139 0.0
H2898 H 0.02069 0.55107 0.84486 0.0
H2899 H 0.05929 0.57468 0.8911 0.0
H2900 H 0.07 0.63914 0.8129 0.0
C2901 C 0.98736 0.58675 0.70279 0.0
C2902 C 0.96855 0.5631 0.69522 0.0
C2903 C 0.96829 0.54408 0.72327 0.0
C2904 C 0.98608 0.54861 0.76036 0.0
C2905 C 0.004 0.57229 0.76833 0.0
C2906 C 0.005 0.59099 0.73966 0.0
C2907 C 0.02653 0.61471 0.7543 0.0
C2908 C 0.04331 0.626 0.707 0.0
C2909 C 0.01896 0.63194 0.77756 0.0
C2910 C 0.03758 0.60644 0.79547 0.0
C2911 C 0.02422 0.58198 0.80354 0.0
C2912 C 0.03131 0.57024 0.8389 0.0
C2913 C 0.05314 0.58379 0.8652 0.0
C2914 C 0.06754 0.60866 0.85534 0.0
C2915 C 0.05929 0.62015 0.82122 0.0
loop_
_geom_bond_atom_site_label_1
_geom_bond_atom_site_label_2
_geom_bond_distance
_geom_bond_site_symmetry_2
_ccdc_geom_bond_type
Cd0 N3 2.334 . S
Cd0 N29 2.304 1_545 S
Cd0 O36 2.268 . S
Cd0 O39 2.273 . S
Cd0 O40 2.417 1_545 S
Cd0 O41 2.330 . S
Cd1 N16 2.304 . S
Cd1 N20 2.334 . S
Cd1 O37 2.273 . S
Cd1 O38 2.268 . S
Cd1 O42 2.417 . S
Cd1 O43 2.330 . S
C2 N3 1.332 . S
C2 C6 1.381 . S
C2 H8 0.931 . S
N3 Cd0 2.334 . S
N3 C2 1.332 . S
N3 C7 1.328 . S
C4 C5 1.396 . S
C4 C7 1.378 . S
C4 H46 0.931 . S
C5 C4 1.396 . S
C5 C6 1.382 . S
C6 C2 1.381 . S
C6 C5 1.382 . S
C6 H47 0.930 . S
C7 N3 1.328 . S
C7 C4 1.378 . S
C7 H9 0.930 . S
H8 C2 0.931 . S
H9 C7 0.930 . S
C10 O36 1.238 . S
C10 O37 1.253 . S
C11 C12 1.379 . S
C11 N16 1.337 1_565 S
C11 H17 0.929 . S
C12 C11 1.379 . S
C12 C13 1.380 . S
C12 H48 0.929 . S
C13 C12 1.380 . S
C13 C14 1.399 1_565 S
C14 C13 1.399 1_545 S
C14 C15 1.376 . S
C14 H49 0.931 . S
C15 C14 1.376 . S
C15 N16 1.338 . S
C15 H18 0.930 . S
N16 Cd1 2.304 . S
N16 C11 1.337 1_545 S
N16 C15 1.338 . S
H17 C11 0.929 . S
H18 C15 0.930 . S
C19 N20 1.332 . S
C19 C23 1.381 . S
C19 H25 0.931 . S
N20 Cd1 2.334 . S
N20 C19 1.332 . S
N20 C24 1.328 . S
C21 C22 1.396 . S
C21 C24 1.378 . S
C21 H50 0.931 . S
C22 C21 1.396 . S
C22 C23 1.382 . S
C23 C19 1.381 . S
C23 C22 1.382 . S
C23 H51 0.930 . S
C24 N20 1.328 . S
C24 C21 1.378 . S
C24 H26 0.930 . S
H25 C19 0.931 . S
H26 C24 0.930 . S
C27 O38 1.238 . S
C27 O39 1.253 . S
C28 O40 1.239 . S
C28 O41 1.230 1_565 S
N29 Cd0 2.304 1_565 S
N29 C30 1.337 . S
N29 C34 1.338 . S
C30 N29 1.337 . S
C30 C31 1.379 . S
C30 H44 0.929 1_565 S
C31 C30 1.379 . S
C31 C32 1.380 . S
C31 H52 0.929 . S
C32 C31 1.380 . S
C32 C33 1.399 . S
C33 C32 1.399 . S
C33 C34 1.376 . S
C33 H53 0.931 . S
C34 N29 1.338 . S
C34 C33 1.376 . S
C34 H45 0.930 . S
C35 O42 1.239 . S
C35 O43 1.230 . S
O36 Cd0 2.268 . S
O36 C10 1.238 . S
O37 Cd1 2.273 . S
O37 C10 1.253 . S
O38 Cd1 2.268 . S
O38 C27 1.238 . S
O39 Cd0 2.273 . S
O39 C27 1.253 . S
O40 Cd0 2.417 1_565 S
O40 C28 1.239 . S
O41 Cd0 2.330 . S
O41 C28 1.230 1_545 S
O42 Cd1 2.417 . S
O42 C35 1.239 . S
O43 Cd1 2.330 . S
O43 C35 1.230 . S
H44 C30 0.929 1_545 S
H45 C34 0.930 . S
H46 C4 0.931 . S
H47 C6 0.930 . S
H48 C12 0.929 . S
H49 C14 0.931 . S
H50 C21 0.931 . S
H51 C23 0.930 . S
H52 C31 0.929 . S
H53 C33 0.931 . S
Cd54 N57 2.334 . S
Cd54 N83 2.304 . S
Cd54 O90 2.268 . S
Cd54 O93 2.273 . S
Cd54 O94 2.417 . S
Cd54 O95 2.330 . S
Cd55 N70 2.304 . S
Cd55 N74 2.334 1_455 S
Cd55 O91 2.273 . S
Cd55 O92 2.268 . S
Cd55 O96 2.417 1_455 S
Cd55 O97 2.330 . S
C56 N57 1.332 1_655 S
C56 C60 1.381 . S
C56 H62 0.931 . S
N57 Cd54 2.334 . S
N57 C56 1.332 1_455 S
N57 C61 1.328 . S
C58 C59 1.396 . S
C58 C61 1.378 1_655 S
C58 H100 0.936 . S
C59 C58 1.396 . S
C59 C60 1.382 . S
C60 C56 1.381 . S
C60 C59 1.382 . S
C60 H101 0.930 . S
C61 N57 1.328 . S
C61 C58 1.378 1_455 S
C61 H63 0.930 . S
H62 C56 0.931 . S
H63 C61 0.930 . S
C64 O90 1.238 . S
C64 O91 1.253 . S
C65 C66 1.379 . S
C65 N70 1.337 . S
C65 H71 0.929 . S
C66 C65 1.379 . S
C66 C67 1.380 . S
C66 H102 0.929 . S
C67 C66 1.380 . S
C67 C68 1.399 . S
C68 C67 1.399 . S
C68 C69 1.376 . S
C68 H103 0.931 . S
C69 C68 1.376 . S
C69 N70 1.338 . S
C69 H72 0.930 . S
N70 Cd55 2.304 . S
N70 C65 1.337 . S
N70 C69 1.338 . S
H71 C65 0.929 . S
H72 C69 0.930 . S
C73 N74 1.332 . S
C73 C77 1.381 . S
C73 H79 0.931 1_655 S
N74 Cd55 2.334 1_655 S
N74 C73 1.332 . S
N74 C78 1.328 . S
C75 C76 1.396 . S
C75 C78 1.378 . S
C75 H104 0.931 . S
C76 C75 1.396 . S
C76 C77 1.382 . S
C77 C73 1.381 . S
C77 C76 1.382 . S
C77 H105 0.930 . S
C78 N74 1.328 . S
C78 C75 1.378 . S
C78 H80 0.930 . S
H79 C73 0.931 1_455 S
H80 C78 0.930 . S
C81 O92 1.238 1_655 S
C81 O93 1.253 1_655 S
C82 O94 1.239 . S
C82 O95 1.230 . S
N83 Cd54 2.304 . S
N83 C84 1.337 . S
N83 C88 1.338 . S
C84 N83 1.337 . S
C84 C85 1.379 . S
C84 H98 0.929 . S
C85 C84 1.379 . S
C85 C86 1.380 . S
C85 H106 0.929 . S
C86 C85 1.380 . S
C86 C87 1.399 . S
C87 C86 1.399 . S
C87 C88 1.376 . S
C87 H107 0.931 . S
C88 N83 1.338 . S
C88 C87 1.376 . S
C88 H99 0.930 . S
C89 O96 1.239 . S
C89 O97 1.230 1_655 S
O90 Cd54 2.268 . S
O90 C64 1.238 . S
O91 Cd55 2.273 . S
O91 C64 1.253 . S
O92 Cd55 2.268 . S
O92 C81 1.238 1_455 S
O93 Cd54 2.273 . S
O93 C81 1.253 1_455 S
O94 Cd54 2.417 . S
O94 C82 1.239 . S
O95 Cd54 2.330 . S
O95 C82 1.230 . S
O96 Cd55 2.417 1_655 S
O96 C89 1.239 . S
O97 Cd55 2.330 . S
O97 C89 1.230 1_455 S
H98 C84 0.929 . S
H99 C88 0.930 . S
H100 C58 0.936 . S
H101 C60 0.930 . S
H102 C66 0.929 . S
H103 C68 0.931 . S
H104 C75 0.931 . S
H105 C77 0.930 . S
H106 C85 0.929 . S
H107 C87 0.931 . S
Cd108 N111 2.334 . S
Cd108 N137 2.304 . S
Cd108 O144 2.268 . S
Cd108 O147 2.273 . S
Cd108 O148 2.417 . S
Cd108 O149 2.330 . S
Cd109 N124 2.304 . S
Cd109 N128 2.334 . S
Cd109 O145 2.273 . S
Cd109 O146 2.268 . S
Cd109 O150 2.417 . S
Cd109 O151 2.330 . S
C110 N111 1.332 . S
C110 C114 1.381 . S
C110 H116 0.931 . S
N111 Cd108 2.334 . S
N111 C110 1.332 . S
N111 C115 1.328 . S
C112 C113 1.396 . S
C112 C115 1.378 . S
C112 H154 0.931 . S
C113 C112 1.396 . S
C113 C114 1.382 . S
C114 C110 1.381 . S
C114 C113 1.382 . S
C114 H155 0.930 . S
C115 N111 1.328 . S
C115 C112 1.378 . S
C115 H117 0.930 . S
H116 C110 0.931 . S
H117 C115 0.930 . S
C118 O144 1.238 . S
C118 O145 1.253 . S
C119 C120 1.379 . S
C119 N124 1.337 . S
C119 H125 0.929 . S
C120 C119 1.379 . S
C120 C121 1.380 . S
C120 H156 0.929 . S
C121 C120 1.380 . S
C121 C122 1.399 . S
C122 C121 1.399 . S
C122 C123 1.376 . S
C122 H157 0.931 . S
C123 C122 1.376 . S
C123 N124 1.338 . S
C123 H126 0.930 . S
N124 Cd109 2.304 . S
N124 C119 1.337 . S
N124 C123 1.338 . S
H125 C119 0.929 . S
H126 C123 0.930 . S
C127 N128 1.332 . S
C127 C131 1.381 . S
C127 H133 0.931 . S
N128 Cd109 2.334 . S
N128 C127 1.332 . S
N128 C132 1.328 . S
C129 C130 1.396 . S
C129 C132 1.378 . S
C129 H158 0.931 . S
C130 C129 1.396 . S
C130 C131 1.382 . S
C131 C127 1.381 . S
C131 C130 1.382 . S
C131 H159 0.930 . S
C132 N128 1.328 . S
C132 C129 1.378 . S
C132 H134 0.930 . S
H133 C127 0.931 . S
H134 C132 0.930 . S
C135 O146 1.238 . S
C135 O147 1.253 . S
C136 O148 1.239 . S
C136 O149 1.230 . S
N137 Cd108 2.304 . S
N137 C138 1.337 . S
N137 C142 1.338 . S
C138 N137 1.337 . S
C138 C139 1.379 . S
C138 H152 0.929 . S
C139 C138 1.379 . S
C139 C140 1.380 . S
C139 H160 0.929 . S
C140 C139 1.380 . S
C140 C141 1.399 . S
C141 C140 1.399 . S
C141 C142 1.376 . S
C141 H161 0.931 . S
C142 N137 1.338 . S
C142 C141 1.376 . S
C142 H153 0.930 . S
C143 O150 1.239 . S
C143 O151 1.230 . S
O144 Cd108 2.268 . S
O144 C118 1.238 . S
O145 Cd109 2.273 . S
O145 C118 1.253 . S
O146 Cd109 2.268 . S
O146 C135 1.238 . S
O147 Cd108 2.273 . S
O147 C135 1.253 . S
O148 Cd108 2.417 . S
O148 C136 1.239 . S
O149 Cd108 2.330 . S
O149 C136 1.230 . S
O150 Cd109 2.417 . S
O150 C143 1.239 . S
O151 Cd109 2.330 . S
O151 C143 1.230 . S
H152 C138 0.929 . S
H153 C142 0.930 . S
H154 C112 0.931 . S
H155 C114 0.930 . S
H156 C120 0.929 . S
H157 C122 0.931 . S
H158 C129 0.931 . S
H159 C131 0.930 . S
H160 C139 0.929 . S
H161 C141 0.931 . S
Cd162 N165 2.334 1_565 S
Cd162 N191 2.304 . S
Cd162 O198 2.268 . S
Cd162 O201 2.273 1_565 S
Cd162 O202 2.417 . S
Cd162 O203 2.330 . S
Cd163 N178 2.304 1_545 S
Cd163 N182 2.334 . S
Cd163 O199 2.273 1_545 S
Cd163 O200 2.268 . S
Cd163 O204 2.417 . S
Cd163 O205 2.330 . S
C164 N165 1.332 . S
C164 C168 1.381 . S
C164 H170 0.931 . S
N165 Cd162 2.334 1_545 S
N165 C164 1.332 . S
N165 C169 1.328 . S
C166 C167 1.396 . S
C166 C169 1.378 . S
C166 H208 0.931 . S
C167 C166 1.396 . S
C167 C168 1.382 . S
C168 C164 1.381 . S
C168 C167 1.382 . S
C168 H209 0.930 . S
C169 N165 1.328 . S
C169 C166 1.378 . S
C169 H171 0.980 . S
H170 C164 0.931 . S
H171 C169 0.980 . S
C172 O198 1.238 . S
C172 O199 1.253 . S
C173 C174 1.379 . S
C173 N178 1.337 . S
C173 H179 0.929 . S
C174 C173 1.379 . S
C174 C175 1.380 . S
C174 H210 0.929 . S
C175 C174 1.380 . S
C175 C176 1.399 . S
C176 C175 1.399 . S
C176 C177 1.376 . S
C176 H211 0.931 . S
C177 C176 1.376 . S
C177 N178 1.338 . S
C177 H180 0.930 1_565 S
N178 Cd163 2.304 1_565 S
N178 C173 1.337 . S
N178 C177 1.338 . S
H179 C173 0.929 . S
H180 C177 0.930 1_545 S
C181 N182 1.332 . S
C181 C185 1.381 . S
C181 H187 0.931 . S
N182 Cd163 2.334 . S
N182 C181 1.332 . S
N182 C186 1.328 . S
C183 C184 1.396 . S
C183 C186 1.378 . S
C183 H212 0.931 . S
C184 C183 1.396 . S
C184 C185 1.382 . S
C185 C181 1.381 . S
C185 C184 1.382 . S
C185 H213 0.930 . S
C186 N182 1.328 . S
C186 C183 1.378 . S
C186 H188 0.930 . S
H187 C181 0.931 . S
H188 C186 0.930 . S
C189 O200 1.238 . S
C189 O201 1.253 . S
C190 O202 1.239 . S
C190 O203 1.230 . S
N191 Cd162 2.304 . S
N191 C192 1.337 . S
N191 C196 1.338 . S
C192 N191 1.337 . S
C192 C193 1.379 . S
C192 H206 0.929 . S
C193 C192 1.379 . S
C193 C194 1.380 . S
C193 H214 0.929 . S
C194 C193 1.380 . S
C194 C195 1.399 . S
C195 C194 1.399 . S
C195 C196 1.376 . S
C195 H215 0.931 . S
C196 N191 1.338 . S
C196 C195 1.376 . S
C196 H207 0.930 . S
C197 O204 1.239 . S
C197 O205 1.230 . S
O198 Cd162 2.268 . S
O198 C172 1.238 . S
O199 Cd163 2.273 1_565 S
O199 C172 1.253 . S
O200 Cd163 2.268 . S
O200 C189 1.238 . S
O201 Cd162 2.273 1_545 S
O201 C189 1.253 . S
O202 Cd162 2.417 . S
O202 C190 1.239 . S
O203 Cd162 2.330 . S
O203 C190 1.230 . S
O204 Cd163 2.417 . S
O204 C197 1.239 . S
O205 Cd163 2.330 . S
O205 C197 1.230 . S
H206 C192 0.929 . S
H207 C196 0.930 . S
H208 C166 0.931 . S
H209 C168 0.930 . S
H210 C174 0.929 . S
H211 C176 0.931 . S
H212 C183 0.931 . S
H213 C185 0.930 . S
H214 C193 0.929 . S
H215 C195 0.931 . S
Cd216 N219 2.334 . S
Cd216 N245 2.304 . S
Cd216 O252 2.268 . S
Cd216 O255 2.273 . S
Cd216 O256 2.417 . S
Cd216 O257 2.330 . S
Cd217 N232 2.304 . S
Cd217 N236 2.334 . S
Cd217 O253 2.273 . S
Cd217 O254 2.268 . S
Cd217 O258 2.417 . S
Cd217 O259 2.330 . S
C218 N219 1.332 . S
C218 C222 1.381 . S
C218 H224 0.931 . S
N219 Cd216 2.334 . S
N219 C218 1.332 . S
N219 C223 1.328 . S
C220 C221 1.396 . S
C220 C223 1.378 . S
C220 H262 0.931 . S
C221 C220 1.396 . S
C221 C222 1.382 . S
C222 C218 1.381 . S
C222 C221 1.382 . S
C222 H263 0.930 1_455 S
C223 N219 1.328 . S
C223 C220 1.378 . S
C223 H225 0.930 . S
H224 C218 0.931 . S
H225 C223 0.930 . S
C226 O252 1.238 . S
C226 O253 1.253 . S
C227 C228 1.379 . S
C227 N232 1.337 . S
C227 H233 0.929 . S
C228 C227 1.379 . S
C228 C229 1.380 . S
C228 H264 0.929 . S
C229 C228 1.380 . S
C229 C230 1.399 . S
C230 C229 1.399 . S
C230 C231 1.376 . S
C230 H265 0.931 . S
C231 C230 1.376 . S
C231 N232 1.338 . S
C231 H234 0.930 . S
N232 Cd217 2.304 . S
N232 C227 1.337 . S
N232 C231 1.338 . S
H233 C227 0.929 . S
H234 C231 0.930 . S
C235 N236 1.332 . S
C235 C239 1.381 . S
C235 H241 0.931 . S
N236 Cd217 2.334 . S
N236 C235 1.332 . S
N236 C240 1.328 1_455 S
C237 C238 1.396 . S
C237 C240 1.378 . S
C237 H266 0.931 . S
C238 C237 1.396 . S
C238 C239 1.382 1_655 S
C239 C235 1.381 . S
C239 C238 1.382 1_455 S
C239 H267 0.930 . S
C240 N236 1.328 1_655 S
C240 C237 1.378 . S
C240 H242 0.930 . S
H241 C235 0.931 . S
H242 C240 0.930 . S
C243 O254 1.238 . S
C243 O255 1.253 . S
C244 O256 1.239 . S
C244 O257 1.230 . S
N245 Cd216 2.304 . S
N245 C246 1.337 . S
N245 C250 1.338 . S
C246 N245 1.337 . S
C246 C247 1.379 . S
C246 H260 0.929 . S
C247 C246 1.379 . S
C247 C248 1.380 . S
C247 H268 0.929 . S
C248 C247 1.380 . S
C248 C249 1.399 . S
C249 C248 1.399 . S
C249 C250 1.376 . S
C249 H269 0.931 . S
C250 N245 1.338 . S
C250 C249 1.376 . S
C250 H261 0.930 . S
C251 O258 1.239 . S
C251 O259 1.230 . S
O252 Cd216 2.268 . S
O252 C226 1.238 . S
O253 Cd217 2.273 . S
O253 C226 1.253 . S
O254 Cd217 2.268 . S
O254 C243 1.238 . S
O255 Cd216 2.273 . S
O255 C243 1.253 . S
O256 Cd216 2.417 . S
O256 C244 1.239 . S
O257 Cd216 2.330 . S
O257 C244 1.230 . S
O258 Cd217 2.417 . S
O258 C251 1.239 . S
O259 Cd217 2.330 . S
O259 C251 1.230 . S
H260 C246 0.929 . S
H261 C250 0.930 . S
H262 C220 0.931 . S
H263 C222 0.930 1_655 S
H264 C228 0.929 . S
H265 C230 0.931 . S
H266 C237 0.931 . S
H267 C239 0.930 . S
H268 C247 0.929 . S
H269 C249 0.931 . S
Cd270 N273 2.334 . S
Cd270 N299 2.304 . S
Cd270 O306 2.268 . S
Cd270 O309 2.273 . S
Cd270 O310 2.417 . S
Cd270 O311 2.330 . S
Cd271 N286 2.304 . S
Cd271 N290 2.334 . S
Cd271 O307 2.273 . S
Cd271 O308 2.268 . S
Cd271 O312 2.417 . S
Cd271 O313 2.330 . S
C272 N273 1.332 . S
C272 C276 1.381 . S
C272 H278 0.931 . S
N273 Cd270 2.334 . S
N273 C272 1.332 . S
N273 C277 1.328 . S
C274 C275 1.396 . S
C274 C277 1.378 . S
C274 H316 0.931 . S
C275 C274 1.396 . S
C275 C276 1.382 . S
C276 C272 1.381 . S
C276 C275 1.382 . S
C276 H317 0.930 . S
C277 N273 1.328 . S
C277 C274 1.378 . S
C277 H279 0.930 . S
H278 C272 0.931 . S
H279 C277 0.930 . S
C280 O306 1.238 . S
C280 O307 1.253 . S
C281 C282 1.379 . S
C281 N286 1.337 . S
C281 H287 0.929 . S
C282 C281 1.379 . S
C282 C283 1.380 . S
C282 H318 0.929 . S
C283 C282 1.380 . S
C283 C284 1.399 . S
C284 C283 1.399 . S
C284 C285 1.376 . S
C284 H319 0.931 . S
C285 C284 1.376 . S
C285 N286 1.338 . S
C285 H288 0.930 . S
N286 Cd271 2.304 . S
N286 C281 1.337 . S
N286 C285 1.338 . S
H287 C281 0.929 . S
H288 C285 0.930 . S
C289 N290 1.332 . S
C289 C293 1.381 . S
C289 H295 0.931 . S
N290 Cd271 2.334 . S
N290 C289 1.332 . S
N290 C294 1.328 . S
C291 C292 1.396 . S
C291 C294 1.378 . S
C291 H320 0.931 . S
C292 C291 1.396 . S
C292 C293 1.382 . S
C293 C289 1.381 . S
C293 C292 1.382 . S
C293 H321 0.930 . S
C294 N290 1.328 . S
C294 C291 1.378 . S
C294 H296 0.930 . S
H295 C289 0.931 . S
H296 C294 0.930 . S
C297 O308 1.238 . S
C297 O309 1.253 . S
C298 O310 1.239 . S
C298 O311 1.230 . S
N299 Cd270 2.304 . S
N299 C300 1.337 . S
N299 C304 1.338 . S
C300 N299 1.337 . S
C300 C301 1.379 . S
C300 H314 0.929 . S
C301 C300 1.379 . S
C301 C302 1.380 . S
C301 H322 0.929 . S
C302 C301 1.380 . S
C302 C303 1.399 . S
C303 C302 1.399 . S
C303 C304 1.376 . S
C303 H323 0.931 . S
C304 N299 1.338 . S
C304 C303 1.376 . S
C304 H315 0.930 . S
C305 O312 1.239 . S
C305 O313 1.230 . S
O306 Cd270 2.268 . S
O306 C280 1.238 . S
O307 Cd271 2.273 . S
O307 C280 1.253 . S
O308 Cd271 2.268 . S
O308 C297 1.238 . S
O309 Cd270 2.273 . S
O309 C297 1.253 . S
O310 Cd270 2.417 . S
O310 C298 1.239 . S
O311 Cd270 2.330 . S
O311 C298 1.230 . S
O312 Cd271 2.417 . S
O312 C305 1.239 . S
O313 Cd271 2.330 . S
O313 C305 1.230 . S
H314 C300 0.929 . S
H315 C304 0.930 . S
H316 C274 0.931 . S
H317 C276 0.930 . S
H318 C282 0.929 . S
H319 C284 0.931 . S
H320 C291 0.931 . S
H321 C293 0.930 . S
H322 C301 0.929 . S
H323 C303 0.931 . S
Cd324 N327 2.334 . S
Cd324 N353 2.304 . S
Cd324 O360 2.268 . S
Cd324 O363 2.273 1_554 S
Cd324 O364 2.417 . S
Cd324 O365 2.330 . S
Cd325 N340 2.304 . S
Cd325 N344 2.334 . S
Cd325 O361 2.273 . S
Cd325 O362 2.268 . S
Cd325 O366 2.417 . S
Cd325 O367 2.330 . S
C326 N327 1.332 . S
C326 C330 1.381 . S
C326 H332 0.931 . S
N327 Cd324 2.334 . S
N327 C326 1.332 . S
N327 C331 1.328 . S
C328 C329 1.396 . S
C328 C331 1.378 . S
C328 H370 0.931 . S
C329 C328 1.396 . S
C329 C330 1.382 . S
C330 C326 1.381 . S
C330 C329 1.382 . S
C330 H371 0.930 . S
C331 N327 1.328 . S
C331 C328 1.378 . S
C331 H333 0.930 . S
H332 C326 0.931 . S
H333 C331 0.930 . S
C334 O360 1.238 . S
C334 O361 1.253 . S
C335 C336 1.379 . S
C335 N340 1.337 . S
C335 H341 0.929 . S
C336 C335 1.379 . S
C336 C337 1.380 1_554 S
C336 H372 0.929 . S
C337 C336 1.380 1_556 S
C337 C338 1.399 . S
C338 C337 1.399 . S
C338 C339 1.364 1_556 S
C338 H373 0.931 . S
C339 C338 1.364 1_554 S
C339 N340 1.359 . S
C339 H342 0.920 1_554 S
N340 Cd325 2.304 . S
N340 C335 1.337 . S
N340 C339 1.359 . S
H341 C335 0.929 . S
H342 C339 0.920 1_556 S
C343 N344 1.332 . S
C343 C347 1.381 . S
C343 H349 0.931 . S
N344 Cd325 2.334 . S
N344 C343 1.332 . S
N344 C348 1.328 . S
C345 C346 1.396 . S
C345 C348 1.378 . S
C345 H374 0.931 . S
C346 C345 1.396 . S
C346 C347 1.382 . S
C347 C343 1.381 . S
C347 C346 1.382 . S
C347 H375 0.930 . S
C348 N344 1.328 . S
C348 C345 1.378 . S
C348 H350 0.930 . S
H349 C343 0.931 . S
H350 C348 0.930 . S
C351 O362 1.244 . S
C351 O363 1.252 1_554 S
C352 O364 1.239 . S
C352 O365 1.230 . S
N353 Cd324 2.304 . S
N353 C354 1.337 1_554 S
N353 C358 1.338 . S
C354 N353 1.337 1_556 S
C354 C355 1.379 . S
C354 H368 0.929 . S
C355 C354 1.379 . S
C355 C356 1.380 . S
C355 H376 0.929 . S
C356 C355 1.380 . S
C356 C357 1.399 . S
C357 C356 1.399 . S
C357 C358 1.376 1_556 S
C357 H377 0.931 1_556 S
C358 N353 1.338 . S
C358 C357 1.376 1_554 S
C358 H369 0.930 . S
C359 O366 1.239 . S
C359 O367 1.230 . S
O360 Cd324 2.268 . S
O360 C334 1.238 . S
O361 Cd325 2.273 . S
O361 C334 1.253 . S
O362 Cd325 2.268 . S
O362 C351 1.244 . S
O363 Cd324 2.273 1_556 S
O363 C351 1.252 1_556 S
O364 Cd324 2.417 . S
O364 C352 1.239 . S
O365 Cd324 2.330 . S
O365 C352 1.230 . S
O366 Cd325 2.417 . S
O366 C359 1.239 . S
O367 Cd325 2.330 . S
O367 C359 1.230 . S
H368 C354 0.929 . S
H369 C358 0.930 . S
H370 C328 0.931 . S
H371 C330 0.930 . S
H372 C336 0.929 . S
H373 C338 0.931 . S
H374 C345 0.931 . S
H375 C347 0.930 . S
H376 C355 0.929 . S
H377 C357 0.931 1_554 S
Cd378 N381 2.334 . S
Cd378 N407 2.304 . S
Cd378 O414 2.268 . S
Cd378 O417 2.273 1_554 S
Cd378 O418 2.417 . S
Cd378 O419 2.330 . S
Cd379 N394 2.304 . S
Cd379 N398 2.334 . S
Cd379 O415 2.273 . S
Cd379 O416 2.268 . S
Cd379 O420 2.417 . S
Cd379 O421 2.330 . S
C380 N381 1.332 . S
C380 C384 1.381 . S
C380 H386 0.931 . S
N381 Cd378 2.334 . S
N381 C380 1.332 . S
N381 C385 1.328 . S
C382 C383 1.396 . S
C382 C385 1.378 . S
C382 H424 0.931 . S
C383 C382 1.396 . S
C383 C384 1.382 . S
C384 C380 1.381 . S
C384 C383 1.382 . S
C384 H425 0.930 . S
C385 N381 1.328 . S
C385 C382 1.378 . S
C385 H387 0.930 . S
H386 C380 0.931 . S
H387 C385 0.930 . S
C388 O414 1.238 . S
C388 O415 1.253 . S
C389 C390 1.379 . S
C389 N394 1.337 . S
C389 H395 0.929 . S
C390 C389 1.379 . S
C390 C391 1.380 1_554 S
C390 H426 0.929 . S
C391 C390 1.380 1_556 S
C391 C392 1.399 . S
C392 C391 1.399 . S
C392 C393 1.364 1_556 S
C392 H427 0.931 . S
C393 C392 1.364 1_554 S
C393 N394 1.359 . S
C393 H396 0.920 1_554 S
N394 Cd379 2.304 . S
N394 C389 1.337 . S
N394 C393 1.359 . S
H395 C389 0.929 . S
H396 C393 0.920 1_556 S
C397 N398 1.332 . S
C397 C401 1.381 . S
C397 H403 0.931 . S
N398 Cd379 2.334 . S
N398 C397 1.332 . S
N398 C402 1.328 . S
C399 C400 1.396 . S
C399 C402 1.378 . S
C399 H428 0.931 . S
C400 C399 1.396 . S
C400 C401 1.382 . S
C401 C397 1.381 . S
C401 C400 1.382 . S
C401 H429 0.930 . S
C402 N398 1.328 . S
C402 C399 1.378 . S
C402 H404 0.930 . S
H403 C397 0.931 . S
H404 C402 0.930 . S
C405 O416 1.244 . S
C405 O417 1.252 1_554 S
C406 O418 1.239 . S
C406 O419 1.230 . S
N407 Cd378 2.304 . S
N407 C408 1.337 1_554 S
N407 C412 1.338 . S
C408 N407 1.337 1_556 S
C408 C409 1.379 . S
C408 H422 0.929 . S
C409 C408 1.379 . S
C409 C410 1.380 . S
C409 H430 0.929 . S
C410 C409 1.380 . S
C410 C411 1.399 . S
C411 C410 1.399 . S
C411 C412 1.376 1_556 S
C411 H431 0.931 1_556 S
C412 N407 1.338 . S
C412 C411 1.376 1_554 S
C412 H423 0.930 . S
C413 O420 1.239 . S
C413 O421 1.230 . S
O414 Cd378 2.268 . S
O414 C388 1.238 . S
O415 Cd379 2.273 . S
O415 C388 1.253 . S
O416 Cd379 2.268 . S
O416 C405 1.244 . S
O417 Cd378 2.273 1_556 S
O417 C405 1.252 1_556 S
O418 Cd378 2.417 . S
O418 C406 1.239 . S
O419 Cd378 2.330 . S
O419 C406 1.230 . S
O420 Cd379 2.417 . S
O420 C413 1.239 . S
O421 Cd379 2.330 . S
O421 C413 1.230 . S
H422 C408 0.929 . S
H423 C412 0.930 . S
H424 C382 0.931 . S
H425 C384 0.930 . S
H426 C390 0.929 . S
H427 C392 0.931 . S
H428 C399 0.931 . S
H429 C401 0.930 . S
H430 C409 0.929 . S
H431 C411 0.931 1_554 S
Cd432 N435 2.334 . S
Cd432 N461 2.304 . S
Cd432 O468 2.268 . S
Cd432 O471 2.273 1_554 S
Cd432 O472 2.417 . S
Cd432 O473 2.330 . S
Cd433 N448 2.304 . S
Cd433 N452 2.334 . S
Cd433 O469 2.273 . S
Cd433 O470 2.268 . S
Cd433 O474 2.417 . S
Cd433 O475 2.330 . S
C434 N435 1.332 . S
C434 C438 1.381 . S
C434 H440 0.931 . S
N435 Cd432 2.334 . S
N435 C434 1.332 . S
N435 C439 1.328 . S
C436 C437 1.396 . S
C436 C439 1.378 . S
C436 H478 0.931 . S
C437 C436 1.396 . S
C437 C438 1.382 . S
C438 C434 1.381 . S
C438 C437 1.382 . S
C438 H479 0.930 . S
C439 N435 1.328 . S
C439 C436 1.378 . S
C439 H441 0.930 . S
H440 C434 0.931 . S
H441 C439 0.930 . S
C442 O468 1.238 . S
C442 O469 1.253 . S
C443 C444 1.379 . S
C443 N448 1.337 . S
C443 H449 0.929 . S
C444 C443 1.379 . S
C444 C445 1.380 1_554 S
C444 H480 0.929 . S
C445 C444 1.380 1_556 S
C445 C446 1.399 . S
C446 C445 1.399 . S
C446 C447 1.364 1_556 S
C446 H481 0.931 . S
C447 C446 1.364 1_554 S
C447 N448 1.358 . S
C447 H450 0.921 1_554 S
N448 Cd433 2.304 . S
N448 C443 1.337 . S
N448 C447 1.358 . S
H449 C443 0.929 . S
H450 C447 0.921 1_556 S
C451 N452 1.332 . S
C451 C455 1.381 . S
C451 H457 0.931 . S
N452 Cd433 2.334 . S
N452 C451 1.332 . S
N452 C456 1.328 . S
C453 C454 1.396 . S
C453 C456 1.378 . S
C453 H482 0.931 . S
C454 C453 1.396 . S
C454 C455 1.382 . S
C455 C451 1.381 . S
C455 C454 1.382 . S
C455 H483 0.930 . S
C456 N452 1.328 . S
C456 C453 1.378 . S
C456 H458 0.930 . S
H457 C451 0.931 . S
H458 C456 0.930 . S
C459 O470 1.244 . S
C459 O471 1.252 1_554 S
C460 O472 1.239 . S
C460 O473 1.230 . S
N461 Cd432 2.304 . S
N461 C462 1.337 1_554 S
N461 C466 1.338 . S
C462 N461 1.337 1_556 S
C462 C463 1.379 . S
C462 H476 0.929 . S
C463 C462 1.379 . S
C463 C464 1.380 . S
C463 H484 0.929 . S
C464 C463 1.380 . S
C464 C465 1.399 . S
C465 C464 1.399 . S
C465 C466 1.376 1_556 S
C465 H485 0.931 1_556 S
C466 N461 1.338 . S
C466 C465 1.376 1_554 S
C466 H477 0.930 . S
C467 O474 1.239 . S
C467 O475 1.230 . S
O468 Cd432 2.268 . S
O468 C442 1.238 . S
O469 Cd433 2.273 . S
O469 C442 1.253 . S
O470 Cd433 2.268 . S
O470 C459 1.244 . S
O471 Cd432 2.273 1_556 S
O471 C459 1.252 1_556 S
O472 Cd432 2.417 . S
O472 C460 1.239 . S
O473 Cd432 2.330 . S
O473 C460 1.230 . S
O474 Cd433 2.417 . S
O474 C467 1.239 . S
O475 Cd433 2.330 . S
O475 C467 1.230 . S
H476 C462 0.929 . S
H477 C466 0.930 . S
H478 C436 0.931 . S
H479 C438 0.930 . S
H480 C444 0.929 . S
H481 C446 0.931 . S
H482 C453 0.931 . S
H483 C455 0.930 . S
H484 C463 0.929 . S
H485 C465 0.931 1_554 S
Cd486 N489 2.334 . S
Cd486 N515 2.304 . S
Cd486 O522 2.268 . S
Cd486 O525 2.273 . S
Cd486 O526 2.417 . S
Cd486 O527 2.330 . S
Cd487 N502 2.304 . S
Cd487 N506 2.334 . S
Cd487 O523 2.273 . S
Cd487 O524 2.268 . S
Cd487 O528 2.417 . S
Cd487 O529 2.330 . S
C488 N489 1.332 . S
C488 C492 1.381 . S
C488 H494 0.931 . S
N489 Cd486 2.334 . S
N489 C488 1.332 . S
N489 C493 1.328 . S
C490 C491 1.396 . S
C490 C493 1.378 . S
C490 H532 0.931 . S
C491 C490 1.396 . S
C491 C492 1.382 . S
C492 C488 1.381 . S
C492 C491 1.382 . S
C492 H533 0.930 . S
C493 N489 1.328 . S
C493 C490 1.378 . S
C493 H495 0.930 . S
H494 C488 0.931 . S
H495 C493 0.930 . S
C496 O522 1.238 . S
C496 O523 1.253 . S
C497 C498 1.379 . S
C497 N502 1.337 . S
C497 H503 0.929 . S
C498 C497 1.379 . S
C498 C499 1.380 . S
C498 H534 0.929 . S
C499 C498 1.380 . S
C499 C500 1.399 . S
C500 C499 1.399 . S
C500 C501 1.376 . S
C500 H535 0.931 . S
C501 C500 1.376 . S
C501 N502 1.338 . S
C501 H504 0.930 . S
N502 Cd487 2.304 . S
N502 C497 1.337 . S
N502 C501 1.338 . S
H503 C497 0.929 . S
H504 C501 0.930 . S
C505 N506 1.332 . S
C505 C509 1.381 . S
C505 H511 0.931 . S
N506 Cd487 2.334 . S
N506 C505 1.332 . S
N506 C510 1.328 . S
C507 C508 1.396 . S
C507 C510 1.378 . S
C507 H536 0.931 . S
C508 C507 1.396 . S
C508 C509 1.382 . S
C509 C505 1.381 . S
C509 C508 1.382 . S
C509 H537 0.930 . S
C510 N506 1.328 . S
C510 C507 1.378 . S
C510 H512 0.930 . S
H511 C505 0.931 . S
H512 C510 0.930 . S
C513 O524 1.238 . S
C513 O525 1.253 . S
C514 O526 1.239 . S
C514 O527 1.230 . S
N515 Cd486 2.304 . S
N515 C516 1.337 . S
N515 C520 1.338 . S
C516 N515 1.337 . S
C516 C517 1.379 . S
C516 H530 0.929 . S
C517 C516 1.379 . S
C517 C518 1.380 . S
C517 H538 0.929 . S
C518 C517 1.380 . S
C518 C519 1.399 . S
C519 C518 1.399 . S
C519 C520 1.376 . S
C519 H539 0.931 . S
C520 N515 1.338 . S
C520 C519 1.376 . S
C520 H531 0.930 . S
C521 O528 1.239 . S
C521 O529 1.230 . S
O522 Cd486 2.268 . S
O522 C496 1.238 . S
O523 Cd487 2.273 . S
O523 C496 1.253 . S
O524 Cd487 2.268 . S
O524 C513 1.238 . S
O525 Cd486 2.273 . S
O525 C513 1.253 . S
O526 Cd486 2.417 . S
O526 C514 1.239 . S
O527 Cd486 2.330 . S
O527 C514 1.230 . S
O528 Cd487 2.417 . S
O528 C521 1.239 . S
O529 Cd487 2.330 . S
O529 C521 1.230 . S
H530 C516 0.929 . S
H531 C520 0.930 . S
H532 C490 0.931 . S
H533 C492 0.930 . S
H534 C498 0.929 . S
H535 C500 0.931 . S
H536 C507 0.931 . S
H537 C509 0.930 . S
H538 C517 0.929 . S
H539 C519 0.931 . S
Cd540 N543 2.334 . S
Cd540 N569 2.304 . S
Cd540 O576 2.268 . S
Cd540 O579 2.273 . S
Cd540 O580 2.417 . S
Cd540 O581 2.330 . S
Cd541 N556 2.304 . S
Cd541 N560 2.334 . S
Cd541 O577 2.273 . S
Cd541 O578 2.268 . S
Cd541 O582 2.417 . S
Cd541 O583 2.330 . S
C542 N543 1.332 . S
C542 C546 1.381 . S
C542 H548 0.931 . S
N543 Cd540 2.334 . S
N543 C542 1.332 . S
N543 C547 1.328 . S
C544 C545 1.396 . S
C544 C547 1.378 . S
C544 H586 0.931 . S
C545 C544 1.396 . S
C545 C546 1.382 . S
C546 C542 1.381 . S
C546 C545 1.382 . S
C546 H587 0.930 . S
C547 N543 1.328 . S
C547 C544 1.378 . S
C547 H549 0.930 . S
H548 C542 0.931 . S
H549 C547 0.930 . S
C550 O576 1.238 . S
C550 O577 1.253 . S
C551 C552 1.379 . S
C551 N556 1.337 . S
C551 H557 0.929 . S
C552 C551 1.379 . S
C552 C553 1.380 . S
C552 H588 0.929 . S
C553 C552 1.380 . S
C553 C554 1.399 . S
C554 C553 1.399 . S
C554 C555 1.376 . S
C554 H589 0.931 . S
C555 C554 1.376 . S
C555 N556 1.338 . S
C555 H558 0.930 . S
N556 Cd541 2.304 . S
N556 C551 1.337 . S
N556 C555 1.338 . S
H557 C551 0.929 . S
H558 C555 0.930 . S
C559 N560 1.332 . S
C559 C563 1.381 . S
C559 H565 0.931 . S
N560 Cd541 2.334 . S
N560 C559 1.332 . S
N560 C564 1.328 . S
C561 C562 1.396 . S
C561 C564 1.378 . S
C561 H590 0.931 . S
C562 C561 1.396 . S
C562 C563 1.382 . S
C563 C559 1.381 . S
C563 C562 1.382 . S
C563 H591 0.930 . S
C564 N560 1.328 . S
C564 C561 1.378 . S
C564 H566 0.930 . S
H565 C559 0.931 . S
H566 C564 0.930 . S
C567 O578 1.238 . S
C567 O579 1.253 . S
C568 O580 1.239 . S
C568 O581 1.230 . S
N569 Cd540 2.304 . S
N569 C570 1.337 . S
N569 C574 1.338 . S
C570 N569 1.337 . S
C570 C571 1.379 . S
C570 H584 0.929 . S
C571 C570 1.379 . S
C571 C572 1.380 . S
C571 H592 0.929 . S
C572 C571 1.380 . S
C572 C573 1.399 . S
C573 C572 1.399 . S
C573 C574 1.376 . S
C573 H593 0.931 . S
C574 N569 1.338 . S
C574 C573 1.376 . S
C574 H585 0.930 . S
C575 O582 1.239 . S
C575 O583 1.230 . S
O576 Cd540 2.268 . S
O576 C550 1.238 . S
O577 Cd541 2.273 . S
O577 C550 1.253 . S
O578 Cd541 2.268 . S
O578 C567 1.238 . S
O579 Cd540 2.273 . S
O579 C567 1.253 . S
O580 Cd540 2.417 . S
O580 C568 1.239 . S
O581 Cd540 2.330 . S
O581 C568 1.230 . S
O582 Cd541 2.417 . S
O582 C575 1.239 . S
O583 Cd541 2.330 . S
O583 C575 1.230 . S
H584 C570 0.929 . S
H585 C574 0.930 . S
H586 C544 0.931 . S
H587 C546 0.930 . S
H588 C552 0.929 . S
H589 C554 0.931 . S
H590 C561 0.931 . S
H591 C563 0.930 . S
H592 C571 0.929 . S
H593 C573 0.931 . S
Cd594 N597 2.334 . S
Cd594 N623 2.304 . S
Cd594 O630 2.268 . S
Cd594 O633 2.273 . S
Cd594 O634 2.417 . S
Cd594 O635 2.330 . S
Cd595 N610 2.304 . S
Cd595 N614 2.334 . S
Cd595 O631 2.273 . S
Cd595 O632 2.268 . S
Cd595 O636 2.417 . S
Cd595 O637 2.330 . S
C596 N597 1.332 . S
C596 C600 1.381 . S
C596 H602 0.931 . S
N597 Cd594 2.334 . S
N597 C596 1.332 . S
N597 C601 1.328 . S
C598 C599 1.396 . S
C598 C601 1.378 . S
C598 H640 0.931 . S
C599 C598 1.396 . S
C599 C600 1.382 . S
C600 C596 1.381 . S
C600 C599 1.382 . S
C600 H641 0.930 . S
C601 N597 1.328 . S
C601 C598 1.378 . S
C601 H603 0.930 . S
H602 C596 0.931 . S
H603 C601 0.930 . S
C604 O630 1.238 . S
C604 O631 1.253 . S
C605 C606 1.379 . S
C605 N610 1.337 . S
C605 H611 0.929 . S
C606 C605 1.379 . S
C606 C607 1.380 . S
C606 H642 0.929 . S
C607 C606 1.380 . S
C607 C608 1.399 . S
C608 C607 1.399 . S
C608 C609 1.376 . S
C608 H643 0.931 . S
C609 C608 1.376 . S
C609 N610 1.338 . S
C609 H612 0.930 . S
N610 Cd595 2.304 . S
N610 C605 1.337 . S
N610 C609 1.338 . S
H611 C605 0.929 . S
H612 C609 0.930 . S
C613 N614 1.332 . S
C613 C617 1.381 . S
C613 H619 0.931 . S
N614 Cd595 2.334 . S
N614 C613 1.332 . S
N614 C618 1.328 . S
C615 C616 1.396 . S
C615 C618 1.378 . S
C615 H644 0.931 . S
C616 C615 1.396 . S
C616 C617 1.382 . S
C617 C613 1.381 . S
C617 C616 1.382 . S
C617 H645 0.930 . S
C618 N614 1.328 . S
C618 C615 1.378 . S
C618 H620 0.930 . S
H619 C613 0.931 . S
H620 C618 0.930 . S
C621 O632 1.238 . S
C621 O633 1.253 . S
C622 O634 1.239 . S
C622 O635 1.230 . S
N623 Cd594 2.304 . S
N623 C624 1.337 . S
N623 C628 1.338 . S
C624 N623 1.337 . S
C624 C625 1.379 . S
C624 H638 0.929 . S
C625 C624 1.379 . S
C625 C626 1.380 . S
C625 H646 0.929 . S
C626 C625 1.380 . S
C626 C627 1.399 . S
C627 C626 1.399 . S
C627 C628 1.376 . S
C627 H647 0.931 . S
C628 N623 1.338 . S
C628 C627 1.376 . S
C628 H639 0.930 . S
C629 O636 1.239 . S
C629 O637 1.230 . S
O630 Cd594 2.268 . S
O630 C604 1.238 . S
O631 Cd595 2.273 . S
O631 C604 1.253 . S
O632 Cd595 2.268 . S
O632 C621 1.238 . S
O633 Cd594 2.273 . S
O633 C621 1.253 . S
O634 Cd594 2.417 . S
O634 C622 1.239 . S
O635 Cd594 2.330 . S
O635 C622 1.230 . S
O636 Cd595 2.417 . S
O636 C629 1.239 . S
O637 Cd595 2.330 . S
O637 C629 1.230 . S
H638 C624 0.929 . S
H639 C628 0.930 . S
H640 C598 0.931 . S
H641 C600 0.930 . S
H642 C606 0.929 . S
H643 C608 0.931 . S
H644 C615 0.931 . S
H645 C617 0.930 . S
H646 C625 0.929 . S
H647 C627 0.931 . S
Cd648 N651 2.334 . S
Cd648 N677 2.304 . S
Cd648 O684 2.268 . S
Cd648 O687 2.273 . S
Cd648 O688 2.417 . S
Cd648 O689 2.330 . S
Cd649 N664 2.304 . S
Cd649 N668 2.334 . S
Cd649 O685 2.273 . S
Cd649 O686 2.268 . S
Cd649 O690 2.417 . S
Cd649 O691 2.330 . S
C650 N651 1.332 . S
C650 C654 1.381 . S
C650 H656 0.931 . S
N651 Cd648 2.334 . S
N651 C650 1.332 . S
N651 C655 1.328 . S
C652 C653 1.396 . S
C652 C655 1.378 . S
C652 H694 0.931 . S
C653 C652 1.396 . S
C653 C654 1.382 . S
C654 C650 1.381 . S
C654 C653 1.382 . S
C654 H695 0.930 . S
C655 N651 1.328 . S
C655 C652 1.378 . S
C655 H657 0.930 . S
H656 C650 0.931 . S
H657 C655 0.930 . S
C658 O684 1.238 . S
C658 O685 1.253 . S
C659 C660 1.379 . S
C659 N664 1.337 . S
C659 H665 0.929 . S
C660 C659 1.379 . S
C660 C661 1.380 . S
C660 H696 0.929 . S
C661 C660 1.380 . S
C661 C662 1.399 . S
C662 C661 1.399 . S
C662 C663 1.376 . S
C662 H697 0.931 . S
C663 C662 1.376 . S
C663 N664 1.338 . S
C663 H666 0.930 . S
N664 Cd649 2.304 . S
N664 C659 1.337 . S
N664 C663 1.338 . S
H665 C659 0.929 . S
H666 C663 0.930 . S
C667 N668 1.332 . S
C667 C671 1.381 . S
C667 H673 0.931 . S
N668 Cd649 2.334 . S
N668 C667 1.332 . S
N668 C672 1.328 . S
C669 C670 1.396 . S
C669 C672 1.378 . S
C669 H698 0.931 . S
C670 C669 1.396 . S
C670 C671 1.382 . S
C671 C667 1.381 . S
C671 C670 1.382 . S
C671 H699 0.930 . S
C672 N668 1.328 . S
C672 C669 1.378 . S
C672 H674 0.930 . S
H673 C667 0.931 . S
H674 C672 0.930 . S
C675 O686 1.238 . S
C675 O687 1.253 . S
C676 O688 1.239 . S
C676 O689 1.230 . S
N677 Cd648 2.304 . S
N677 C678 1.337 . S
N677 C682 1.338 . S
C678 N677 1.337 . S
C678 C679 1.379 . S
C678 H692 0.929 . S
C679 C678 1.379 . S
C679 C680 1.380 . S
C679 H700 0.929 . S
C680 C679 1.380 . S
C680 C681 1.399 . S
C681 C680 1.399 . S
C681 C682 1.376 . S
C681 H701 0.931 . S
C682 N677 1.338 . S
C682 C681 1.376 . S
C682 H693 0.930 . S
C683 O690 1.239 . S
C683 O691 1.230 . S
O684 Cd648 2.268 . S
O684 C658 1.238 . S
O685 Cd649 2.273 . S
O685 C658 1.253 . S
O686 Cd649 2.268 . S
O686 C675 1.238 . S
O687 Cd648 2.273 . S
O687 C675 1.253 . S
O688 Cd648 2.417 . S
O688 C676 1.239 . S
O689 Cd648 2.330 . S
O689 C676 1.230 . S
O690 Cd649 2.417 . S
O690 C683 1.239 . S
O691 Cd649 2.330 . S
O691 C683 1.230 . S
H692 C678 0.929 . S
H693 C682 0.930 . S
H694 C652 0.931 . S
H695 C654 0.930 . S
H696 C660 0.929 . S
H697 C662 0.931 . S
H698 C669 0.931 . S
H699 C671 0.930 . S
H700 C679 0.929 . S
H701 C681 0.931 . S
Cd702 N705 2.334 . S
Cd702 N731 2.304 . S
Cd702 O738 2.268 . S
Cd702 O741 2.273 . S
Cd702 O742 2.417 . S
Cd702 O743 2.330 . S
Cd703 N718 2.304 . S
Cd703 N722 2.334 . S
Cd703 O739 2.273 . S
Cd703 O740 2.268 . S
Cd703 O744 2.417 . S
Cd703 O745 2.330 . S
C704 N705 1.332 . S
C704 C708 1.381 . S
C704 H710 0.931 . S
N705 Cd702 2.334 . S
N705 C704 1.332 . S
N705 C709 1.328 . S
C706 C707 1.396 . S
C706 C709 1.378 . S
C706 H748 0.931 . S
C707 C706 1.396 . S
C707 C708 1.382 . S
C708 C704 1.381 . S
C708 C707 1.382 . S
C708 H749 0.930 . S
C709 N705 1.328 . S
C709 C706 1.378 . S
C709 H711 0.930 . S
H710 C704 0.931 . S
H711 C709 0.930 . S
C712 O738 1.238 . S
C712 O739 1.253 . S
C713 C714 1.379 . S
C713 N718 1.337 . S
C713 H719 0.929 . S
C714 C713 1.379 . S
C714 C715 1.380 . S
C714 H750 0.929 . S
C715 C714 1.380 . S
C715 C716 1.399 . S
C716 C715 1.399 . S
C716 C717 1.376 . S
C716 H751 0.931 . S
C717 C716 1.376 . S
C717 N718 1.338 . S
C717 H720 0.930 . S
N718 Cd703 2.304 . S
N718 C713 1.337 . S
N718 C717 1.338 . S
H719 C713 0.929 . S
H720 C717 0.930 . S
C721 N722 1.332 . S
C721 C725 1.381 . S
C721 H727 0.931 . S
N722 Cd703 2.334 . S
N722 C721 1.332 . S
N722 C726 1.328 . S
C723 C724 1.396 . S
C723 C726 1.378 . S
C723 H752 0.931 . S
C724 C723 1.396 . S
C724 C725 1.382 . S
C725 C721 1.381 . S
C725 C724 1.382 . S
C725 H753 0.930 . S
C726 N722 1.328 . S
C726 C723 1.378 . S
C726 H728 0.930 . S
H727 C721 0.931 . S
H728 C726 0.930 . S
C729 O740 1.238 . S
C729 O741 1.253 . S
C730 O742 1.239 . S
C730 O743 1.230 . S
N731 Cd702 2.304 . S
N731 C732 1.337 . S
N731 C736 1.338 . S
C732 N731 1.337 . S
C732 C733 1.379 . S
C732 H746 0.929 . S
C733 C732 1.379 . S
C733 C734 1.380 . S
C733 H754 0.929 . S
C734 C733 1.380 . S
C734 C735 1.399 . S
C735 C734 1.399 . S
C735 C736 1.376 . S
C735 H755 0.931 . S
C736 N731 1.338 . S
C736 C735 1.376 . S
C736 H747 0.930 . S
C737 O744 1.239 . S
C737 O745 1.230 . S
O738 Cd702 2.268 . S
O738 C712 1.238 . S
O739 Cd703 2.273 . S
O739 C712 1.253 . S
O740 Cd703 2.268 . S
O740 C729 1.238 . S
O741 Cd702 2.273 . S
O741 C729 1.253 . S
O742 Cd702 2.417 . S
O742 C730 1.239 . S
O743 Cd702 2.330 . S
O743 C730 1.230 . S
O744 Cd703 2.417 . S
O744 C737 1.239 . S
O745 Cd703 2.330 . S
O745 C737 1.230 . S
H746 C732 0.929 . S
H747 C736 0.930 . S
H748 C706 0.931 . S
H749 C708 0.930 . S
H750 C714 0.929 . S
H751 C716 0.931 . S
H752 C723 0.931 . S
H753 C725 0.930 . S
H754 C733 0.929 . S
H755 C735 0.931 . S
Cd756 N759 2.334 . S
Cd756 N785 2.304 . S
Cd756 O792 2.268 . S
Cd756 O795 2.273 . S
Cd756 O796 2.417 . S
Cd756 O797 2.330 . S
Cd757 N772 2.304 . S
Cd757 N776 2.334 . S
Cd757 O793 2.273 . S
Cd757 O794 2.268 . S
Cd757 O798 2.417 . S
Cd757 O799 2.330 . S
C758 N759 1.332 . S
C758 C762 1.381 . S
C758 H764 0.931 . S
N759 Cd756 2.334 . S
N759 C758 1.332 . S
N759 C763 1.328 . S
C760 C761 1.396 . S
C760 C763 1.378 . S
C760 H802 0.931 . S
C761 C760 1.396 . S
C761 C762 1.382 . S
C762 C758 1.381 . S
C762 C761 1.382 . S
C762 H803 0.930 . S
C763 N759 1.328 . S
C763 C760 1.378 . S
C763 H765 0.930 . S
H764 C758 0.931 . S
H765 C763 0.930 . S
C766 O792 1.238 . S
C766 O793 1.253 . S
C767 C768 1.379 . S
C767 N772 1.337 . S
C767 H773 0.929 . S
C768 C767 1.379 . S
C768 C769 1.380 . S
C768 H804 0.929 . S
C769 C768 1.380 . S
C769 C770 1.399 . S
C770 C769 1.399 . S
C770 C771 1.376 . S
C770 H805 0.931 . S
C771 C770 1.376 . S
C771 N772 1.338 . S
C771 H774 0.930 . S
N772 Cd757 2.304 . S
N772 C767 1.337 . S
N772 C771 1.338 . S
H773 C767 0.929 . S
H774 C771 0.930 . S
C775 N776 1.332 . S
C775 C779 1.381 . S
C775 H781 0.931 . S
N776 Cd757 2.334 . S
N776 C775 1.332 . S
N776 C780 1.328 . S
C777 C778 1.396 . S
C777 C780 1.378 . S
C777 H806 0.931 . S
C778 C777 1.396 . S
C778 C779 1.382 . S
C779 C775 1.381 . S
C779 C778 1.382 . S
C779 H807 0.930 . S
C780 N776 1.328 . S
C780 C777 1.378 . S
C780 H782 0.930 . S
H781 C775 0.931 . S
H782 C780 0.930 . S
C783 O794 1.238 . S
C783 O795 1.253 . S
C784 O796 1.239 . S
C784 O797 1.230 . S
N785 Cd756 2.304 . S
N785 C786 1.337 . S
N785 C790 1.338 . S
C786 N785 1.337 . S
C786 C787 1.379 . S
C786 H800 0.929 . S
C787 C786 1.379 . S
C787 C788 1.380 . S
C787 H808 0.929 . S
C788 C787 1.380 . S
C788 C789 1.399 . S
C789 C788 1.399 . S
C789 C790 1.376 . S
C789 H809 0.931 . S
C790 N785 1.338 . S
C790 C789 1.376 . S
C790 H801 0.930 . S
C791 O798 1.239 . S
C791 O799 1.230 . S
O792 Cd756 2.268 . S
O792 C766 1.238 . S
O793 Cd757 2.273 . S
O793 C766 1.253 . S
O794 Cd757 2.268 . S
O794 C783 1.238 . S
O795 Cd756 2.273 . S
O795 C783 1.253 . S
O796 Cd756 2.417 . S
O796 C784 1.239 . S
O797 Cd756 2.330 . S
O797 C784 1.230 . S
O798 Cd757 2.417 . S
O798 C791 1.239 . S
O799 Cd757 2.330 . S
O799 C791 1.230 . S
H800 C786 0.929 . S
H801 C790 0.930 . S
H802 C760 0.931 . S
H803 C762 0.930 . S
H804 C768 0.929 . S
H805 C770 0.931 . S
H806 C777 0.931 . S
H807 C779 0.930 . S
H808 C787 0.929 . S
H809 C789 0.931 . S
Cd810 N813 2.334 . S
Cd810 N839 2.304 . S
Cd810 O846 2.268 . S
Cd810 O849 2.273 . S
Cd810 O850 2.417 . S
Cd810 O851 2.330 . S
Cd811 N826 2.304 . S
Cd811 N830 2.334 . S
Cd811 O847 2.273 1_556 S
Cd811 O848 2.268 . S
Cd811 O852 2.417 . S
Cd811 O853 2.330 . S
C812 N813 1.332 . S
C812 C816 1.381 . S
C812 H818 0.931 . S
N813 Cd810 2.334 . S
N813 C812 1.332 . S
N813 C817 1.328 . S
C814 C815 1.396 . S
C814 C817 1.378 1_554 S
C814 H856 0.931 . S
C815 C814 1.396 . S
C815 C816 1.382 1_554 S
C816 C812 1.381 . S
C816 C815 1.382 1_556 S
C816 H857 0.930 . S
C817 N813 1.328 . S
C817 C814 1.378 1_556 S
C817 H819 0.930 1_556 S
H818 C812 0.931 . S
H819 C817 0.930 1_554 S
C820 O846 1.251 . S
C820 O847 1.250 1_556 S
C821 C822 1.379 . S
C821 N826 1.337 . S
C821 H827 0.929 . S
C822 C821 1.379 . S
C822 C823 1.380 . S
C822 H858 0.929 . S
C823 C822 1.380 . S
C823 C824 1.399 . S
C824 C823 1.399 . S
C824 C825 1.376 . S
C824 H859 0.931 . S
C825 C824 1.376 . S
C825 N826 1.338 . S
C825 H828 0.930 . S
N826 Cd811 2.304 . S
N826 C821 1.337 . S
N826 C825 1.338 . S
H827 C821 0.929 . S
H828 C825 0.930 . S
C829 N830 1.332 1_554 S
C829 C833 1.381 . S
C829 H835 0.931 . S
N830 Cd811 2.334 . S
N830 C829 1.332 1_556 S
N830 C834 1.328 . S
C831 C832 1.396 . S
C831 C834 1.378 1_554 S
C831 H860 0.931 1_554 S
C832 C831 1.396 . S
C832 C833 1.382 . S
C833 C829 1.381 . S
C833 C832 1.382 . S
C833 H861 0.930 . S
C834 N830 1.328 . S
C834 C831 1.378 1_556 S
C834 H836 0.930 . S
H835 C829 0.931 . S
H836 C834 0.930 . S
C837 O848 1.238 . S
C837 O849 1.253 . S
C838 O850 1.239 . S
C838 O851 1.230 . S
N839 Cd810 2.304 . S
N839 C840 1.337 . S
N839 C844 1.338 . S
C840 N839 1.337 . S
C840 C841 1.379 . S
C840 H854 0.929 . S
C841 C840 1.379 . S
C841 C842 1.380 . S
C841 H862 0.929 . S
C842 C841 1.380 . S
C842 C843 1.399 . S
C843 C842 1.399 . S
C843 C844 1.376 . S
C843 H863 0.931 . S
C844 N839 1.338 . S
C844 C843 1.376 . S
C844 H855 0.930 . S
C845 O852 1.239 . S
C845 O853 1.230 . S
O846 Cd810 2.268 . S
O846 C820 1.251 . S
O847 Cd811 2.273 1_554 S
O847 C820 1.250 1_554 S
O848 Cd811 2.268 . S
O848 C837 1.238 . S
O849 Cd810 2.273 . S
O849 C837 1.253 . S
O850 Cd810 2.417 . S
O850 C838 1.239 . S
O851 Cd810 2.330 . S
O851 C838 1.230 . S
O852 Cd811 2.417 . S
O852 C845 1.239 . S
O853 Cd811 2.330 . S
O853 C845 1.230 . S
H854 C840 0.929 . S
H855 C844 0.930 . S
H856 C814 0.931 . S
H857 C816 0.930 . S
H858 C822 0.929 . S
H859 C824 0.931 . S
H860 C831 0.931 1_556 S
H861 C833 0.930 . S
H862 C841 0.929 . S
H863 C843 0.931 . S
Cd864 N867 2.334 . S
Cd864 N893 2.304 . S
Cd864 O900 2.268 . S
Cd864 O903 2.273 . S
Cd864 O904 2.417 . S
Cd864 O905 2.330 . S
Cd865 N880 2.304 . S
Cd865 N884 2.334 . S
Cd865 O901 2.273 1_556 S
Cd865 O902 2.268 . S
Cd865 O906 2.417 . S
Cd865 O907 2.330 . S
C866 N867 1.332 . S
C866 C870 1.381 . S
C866 H872 0.931 . S
N867 Cd864 2.334 . S
N867 C866 1.332 . S
N867 C871 1.328 . S
C868 C869 1.396 . S
C868 C871 1.378 1_554 S
C868 H910 0.931 . S
C869 C868 1.396 . S
C869 C870 1.382 1_554 S
C870 C866 1.381 . S
C870 C869 1.382 1_556 S
C870 H911 0.930 . S
C871 N867 1.328 . S
C871 C868 1.378 1_556 S
C871 H873 0.930 1_556 S
H872 C866 0.931 . S
H873 C871 0.930 1_554 S
C874 O900 1.252 . S
C874 O901 1.250 1_556 S
C875 C876 1.379 . S
C875 N880 1.337 . S
C875 H881 0.929 . S
C876 C875 1.379 . S
C876 C877 1.380 . S
C876 H912 0.929 . S
C877 C876 1.380 . S
C877 C878 1.399 . S
C878 C877 1.399 . S
C878 C879 1.376 . S
C878 H913 0.931 . S
C879 C878 1.376 . S
C879 N880 1.338 . S
C879 H882 0.930 . S
N880 Cd865 2.304 . S
N880 C875 1.337 . S
N880 C879 1.338 . S
H881 C875 0.929 . S
H882 C879 0.930 . S
C883 N884 1.332 1_554 S
C883 C887 1.381 . S
C883 H889 0.931 . S
N884 Cd865 2.334 . S
N884 C883 1.332 1_556 S
N884 C888 1.328 . S
C885 C886 1.396 . S
C885 C888 1.378 1_554 S
C885 H914 0.931 1_554 S
C886 C885 1.396 . S
C886 C887 1.382 . S
C887 C883 1.381 . S
C887 C886 1.382 . S
C887 H915 0.930 . S
C888 N884 1.328 . S
C888 C885 1.378 1_556 S
C888 H890 0.930 . S
H889 C883 0.931 . S
H890 C888 0.930 . S
C891 O902 1.238 . S
C891 O903 1.253 . S
C892 O904 1.239 . S
C892 O905 1.230 . S
N893 Cd864 2.304 . S
N893 C894 1.337 . S
N893 C898 1.338 . S
C894 N893 1.337 . S
C894 C895 1.379 . S
C894 H908 0.929 . S
C895 C894 1.379 . S
C895 C896 1.380 . S
C895 H916 0.929 . S
C896 C895 1.380 . S
C896 C897 1.399 . S
C897 C896 1.399 . S
C897 C898 1.376 . S
C897 H917 0.931 . S
C898 N893 1.338 . S
C898 C897 1.376 . S
C898 H909 0.930 . S
C899 O906 1.239 . S
C899 O907 1.230 . S
O900 Cd864 2.268 . S
O900 C874 1.252 . S
O901 Cd865 2.273 1_554 S
O901 C874 1.250 1_554 S
O902 Cd865 2.268 . S
O902 C891 1.238 . S
O903 Cd864 2.273 . S
O903 C891 1.253 . S
O904 Cd864 2.417 . S
O904 C892 1.239 . S
O905 Cd864 2.330 . S
O905 C892 1.230 . S
O906 Cd865 2.417 . S
O906 C899 1.239 . S
O907 Cd865 2.330 . S
O907 C899 1.230 . S
H908 C894 0.929 . S
H909 C898 0.930 . S
H910 C868 0.931 . S
H911 C870 0.930 . S
H912 C876 0.929 . S
H913 C878 0.931 . S
H914 C885 0.931 1_556 S
H915 C887 0.930 . S
H916 C895 0.929 . S
H917 C897 0.931 . S
Cd918 N921 2.334 . S
Cd918 N947 2.304 . S
Cd918 O954 2.268 . S
Cd918 O957 2.273 . S
Cd918 O958 2.417 . S
Cd918 O959 2.330 . S
Cd919 N934 2.304 . S
Cd919 N938 2.334 . S
Cd919 O955 2.273 1_556 S
Cd919 O956 2.268 . S
Cd919 O960 2.417 . S
Cd919 O961 2.330 . S
C920 N921 1.332 . S
C920 C924 1.381 . S
C920 H926 0.931 . S
N921 Cd918 2.334 . S
N921 C920 1.332 . S
N921 C925 1.328 . S
C922 C923 1.396 . S
C922 C925 1.378 1_554 S
C922 H964 0.931 . S
C923 C922 1.396 . S
C923 C924 1.382 1_554 S
C924 C920 1.381 . S
C924 C923 1.382 1_556 S
C924 H965 0.930 . S
C925 N921 1.328 . S
C925 C922 1.378 1_556 S
C925 H927 0.930 1_556 S
H926 C920 0.931 . S
H927 C925 0.930 1_554 S
C928 O954 1.252 . S
C928 O955 1.250 1_556 S
C929 C930 1.379 . S
C929 N934 1.337 . S
C929 H935 0.929 . S
C930 C929 1.379 . S
C930 C931 1.380 . S
C930 H966 0.929 . S
C931 C930 1.380 . S
C931 C932 1.399 . S
C932 C931 1.399 . S
C932 C933 1.376 . S
C932 H967 0.931 . S
C933 C932 1.376 . S
C933 N934 1.338 . S
C933 H936 0.930 . S
N934 Cd919 2.304 . S
N934 C929 1.337 . S
N934 C933 1.338 . S
H935 C929 0.929 . S
H936 C933 0.930 . S
C937 N938 1.332 1_554 S
C937 C941 1.381 . S
C937 H943 0.931 . S
N938 Cd919 2.334 . S
N938 C937 1.332 1_556 S
N938 C942 1.328 . S
C939 C940 1.396 . S
C939 C942 1.378 1_554 S
C939 H968 0.931 1_554 S
C940 C939 1.396 . S
C940 C941 1.382 . S
C941 C937 1.381 . S
C941 C940 1.382 . S
C941 H969 0.930 . S
C942 N938 1.328 . S
C942 C939 1.378 1_556 S
C942 H944 0.930 . S
H943 C937 0.931 . S
H944 C942 0.930 . S
C945 O956 1.238 . S
C945 O957 1.253 . S
C946 O958 1.239 . S
C946 O959 1.230 . S
N947 Cd918 2.304 . S
N947 C948 1.337 . S
N947 C952 1.338 . S
C948 N947 1.337 . S
C948 C949 1.379 . S
C948 H962 0.929 . S
C949 C948 1.379 . S
C949 C950 1.380 . S
C949 H970 0.929 . S
C950 C949 1.380 . S
C950 C951 1.399 . S
C951 C950 1.399 . S
C951 C952 1.376 . S
C951 H971 0.931 . S
C952 N947 1.338 . S
C952 C951 1.376 . S
C952 H963 0.930 . S
C953 O960 1.239 . S
C953 O961 1.230 . S
O954 Cd918 2.268 . S
O954 C928 1.252 . S
O955 Cd919 2.273 1_554 S
O955 C928 1.250 1_554 S
O956 Cd919 2.268 . S
O956 C945 1.238 . S
O957 Cd918 2.273 . S
O957 C945 1.253 . S
O958 Cd918 2.417 . S
O958 C946 1.239 . S
O959 Cd918 2.330 . S
O959 C946 1.230 . S
O960 Cd919 2.417 . S
O960 C953 1.239 . S
O961 Cd919 2.330 . S
O961 C953 1.230 . S
H962 C948 0.929 . S
H963 C952 0.930 . S
H964 C922 0.931 . S
H965 C924 0.930 . S
H966 C930 0.929 . S
H967 C932 0.931 . S
H968 C939 0.931 1_556 S
H969 C941 0.930 . S
H970 C949 0.929 . S
H971 C951 0.931 . S
H972 C984 0.930 . S
H973 C986 0.930 . S
H974 C987 0.930 . S
H975 C991 0.959 . S
H976 C991 0.959 . S
H977 C991 0.961 . S
H978 C992 0.960 . S
H979 C992 0.961 . S
H980 C992 0.959 . S
H981 C995 0.929 . S
H982 C996 0.931 . S
H983 C998 0.930 . S
C984 H972 0.930 . S
C984 C985 1.399 . S
C984 C989 1.399 . S
C985 C984 1.399 . S
C985 C986 1.376 . S
C986 H973 0.930 . S
C986 C985 1.376 . S
C986 C987 1.388 . S
C987 H974 0.930 . S
C987 C986 1.388 . S
C987 C988 1.390 . S
C988 C987 1.390 . S
C988 C989 1.394 . S
C988 C994 1.465 . S
C989 C984 1.399 . S
C989 C988 1.394 . S
C989 C990 1.516 . S
C990 C989 1.516 . S
C990 C991 1.502 . S
C990 C992 1.561 . S
C990 C993 1.526 . S
C991 H975 0.959 . S
C991 H976 0.959 . S
C991 H977 0.961 . S
C991 C990 1.502 . S
C992 H978 0.960 . S
C992 H979 0.961 . S
C992 H980 0.959 . S
C992 C990 1.561 . S
C993 C990 1.526 . S
C993 C994 1.396 . S
C993 C998 1.390 . S
C994 C988 1.465 . S
C994 C993 1.396 . S
C994 C995 1.399 . S
C995 H981 0.929 . S
C995 C994 1.399 . S
C995 C996 1.385 . S
C996 H982 0.931 . S
C996 C995 1.385 . S
C996 C997 1.389 . S
C997 C996 1.389 . S
C997 C998 1.387 . S
C998 H983 0.930 . S
C998 C993 1.390 . S
C998 C997 1.387 . S
H999 C1011 0.930 . S
H1000 C1013 0.930 . S
H1001 C1014 0.930 . S
H1002 C1018 0.959 . S
H1003 C1018 0.959 . S
H1004 C1018 0.961 1_545 S
H1005 C1019 0.960 . S
H1006 C1019 0.958 1_565 S
H1007 C1019 0.959 . S
H1008 C1022 0.929 . S
H1009 C1023 0.931 . S
H1010 C1025 0.930 . S
C1011 H999 0.930 . S
C1011 C1012 1.399 . S
C1011 C1016 1.399 . S
C1012 C1011 1.399 . S
C1012 C1013 1.376 . S
C1013 H1000 0.930 . S
C1013 C1012 1.376 . S
C1013 C1014 1.388 . S
C1014 H1001 0.930 . S
C1014 C1013 1.388 . S
C1014 C1015 1.390 . S
C1015 C1014 1.390 . S
C1015 C1016 1.394 . S
C1015 C1021 1.465 1_545 S
C1016 C1011 1.399 . S
C1016 C1015 1.394 . S
C1016 C1017 1.516 . S
C1017 C1016 1.516 . S
C1017 C1018 1.502 1_545 S
C1017 C1019 1.561 . S
C1017 C1020 1.526 1_545 S
C1018 H1002 0.959 . S
C1018 H1003 0.959 . S
C1018 H1004 0.961 1_565 S
C1018 C1017 1.502 1_565 S
C1019 H1005 0.960 . S
C1019 H1006 0.958 1_545 S
C1019 H1007 0.959 . S
C1019 C1017 1.561 . S
C1020 C1017 1.526 1_565 S
C1020 C1021 1.396 . S
C1020 C1025 1.390 . S
C1021 C1015 1.465 1_565 S
C1021 C1020 1.396 . S
C1021 C1022 1.399 . S
C1022 H1008 0.929 . S
C1022 C1021 1.399 . S
C1022 C1023 1.385 . S
C1023 H1009 0.931 . S
C1023 C1022 1.385 . S
C1023 C1024 1.389 . S
C1024 C1023 1.389 . S
C1024 C1025 1.387 . S
C1025 H1010 0.930 . S
C1025 C1020 1.390 . S
C1025 C1024 1.387 . S
H1026 C1038 0.930 . S
H1027 C1040 0.930 . S
H1028 C1041 0.930 . S
H1029 C1045 0.959 . S
H1030 C1045 0.959 . S
H1031 C1045 0.961 . S
H1032 C1046 0.960 . S
H1033 C1046 0.961 . S
H1034 C1046 0.959 . S
H1035 C1049 0.929 . S
H1036 C1050 0.931 . S
H1037 C1052 0.930 . S
C1038 H1026 0.930 . S
C1038 C1039 1.399 1_455 S
C1038 C1043 1.399 . S
C1039 C1038 1.399 1_655 S
C1039 C1040 1.376 . S
C1040 H1027 0.930 . S
C1040 C1039 1.376 . S
C1040 C1041 1.388 1_655 S
C1041 H1028 0.930 . S
C1041 C1040 1.388 1_455 S
C1041 C1042 1.390 . S
C1042 C1041 1.390 . S
C1042 C1043 1.394 . S
C1042 C1048 1.465 . S
C1043 C1038 1.399 . S
C1043 C1042 1.394 . S
C1043 C1044 1.516 . S
C1044 C1043 1.516 . S
C1044 C1045 1.502 . S
C1044 C1046 1.561 . S
C1044 C1047 1.526 . S
C1045 H1029 0.959 . S
C1045 H1030 0.959 . S
C1045 H1031 0.961 . S
C1045 C1044 1.502 . S
C1046 H1032 0.960 . S
C1046 H1033 0.961 . S
C1046 H1034 0.959 . S
C1046 C1044 1.561 . S
C1047 C1044 1.526 . S
C1047 C1048 1.396 . S
C1047 C1052 1.390 . S
C1048 C1042 1.465 . S
C1048 C1047 1.396 . S
C1048 C1049 1.399 . S
C1049 H1035 0.929 . S
C1049 C1048 1.399 . S
C1049 C1050 1.385 . S
C1050 H1036 0.931 . S
C1050 C1049 1.385 . S
C1050 C1051 1.389 . S
C1051 C1050 1.389 . S
C1051 C1052 1.387 . S
C1052 H1037 0.930 . S
C1052 C1047 1.390 . S
C1052 C1051 1.387 . S
H1053 C1065 0.930 . S
H1054 C1067 0.930 . S
H1055 C1068 0.929 1_455 S
H1056 C1072 0.959 . S
H1057 C1072 0.959 . S
H1058 C1072 0.961 . S
H1059 C1073 0.960 . S
H1060 C1073 0.961 . S
H1061 C1073 0.959 . S
H1062 C1076 0.929 . S
H1063 C1077 0.931 . S
H1064 C1079 0.930 . S
C1065 H1053 0.930 . S
C1065 C1066 1.399 . S
C1065 C1070 1.399 . S
C1066 C1065 1.399 . S
C1066 C1067 1.376 1_655 S
C1067 H1054 0.930 . S
C1067 C1066 1.376 1_455 S
C1067 C1068 1.384 1_455 S
C1068 H1055 0.929 1_655 S
C1068 C1067 1.384 1_655 S
C1068 C1069 1.395 . S
C1069 C1068 1.395 . S
C1069 C1070 1.394 . S
C1069 C1075 1.465 . S
C1070 C1065 1.399 . S
C1070 C1069 1.394 . S
C1070 C1071 1.516 . S
C1071 C1070 1.516 . S
C1071 C1072 1.502 . S
C1071 C1073 1.561 . S
C1071 C1074 1.526 . S
C1072 H1056 0.959 . S
C1072 H1057 0.959 . S
C1072 H1058 0.961 . S
C1072 C1071 1.502 . S
C1073 H1059 0.960 . S
C1073 H1060 0.961 . S
C1073 H1061 0.959 . S
C1073 C1071 1.561 . S
C1074 C1071 1.526 . S
C1074 C1075 1.396 . S
C1074 C1079 1.390 . S
C1075 C1069 1.465 . S
C1075 C1074 1.396 . S
C1075 C1076 1.399 . S
C1076 H1062 0.929 . S
C1076 C1075 1.399 . S
C1076 C1077 1.385 . S
C1077 H1063 0.931 . S
C1077 C1076 1.385 . S
C1077 C1078 1.389 . S
C1078 C1077 1.389 . S
C1078 C1079 1.387 . S
C1079 H1064 0.930 . S
C1079 C1074 1.390 . S
C1079 C1078 1.387 . S
H1080 C1092 0.930 . S
H1081 C1094 0.930 . S
H1082 C1095 0.930 . S
H1083 C1099 0.959 . S
H1084 C1099 0.959 . S
H1085 C1099 0.961 . S
H1086 C1100 0.960 . S
H1087 C1100 0.961 1_565 S
H1088 C1100 0.958 1_565 S
H1089 C1103 0.929 . S
H1090 C1104 0.931 . S
H1091 C1106 0.930 . S
C1092 H1080 0.930 . S
C1092 C1093 1.399 . S
C1092 C1097 1.399 . S
C1093 C1092 1.399 . S
C1093 C1094 1.376 . S
C1094 H1081 0.930 . S
C1094 C1093 1.376 . S
C1094 C1095 1.388 . S
C1095 H1082 0.930 . S
C1095 C1094 1.388 . S
C1095 C1096 1.390 . S
C1096 C1095 1.390 . S
C1096 C1097 1.394 . S
C1096 C1102 1.465 . S
C1097 C1092 1.399 . S
C1097 C1096 1.394 . S
C1097 C1098 1.516 . S
C1098 C1097 1.516 . S
C1098 C1099 1.502 . S
C1098 C1100 1.561 . S
C1098 C1101 1.526 . S
C1099 H1083 0.959 . S
C1099 H1084 0.959 . S
C1099 H1085 0.961 . S
C1099 C1098 1.502 . S
C1100 H1086 0.960 . S
C1100 H1087 0.961 1_545 S
C1100 H1088 0.958 1_545 S
C1100 C1098 1.561 . S
C1101 C1098 1.526 . S
C1101 C1102 1.396 . S
C1101 C1106 1.390 1_545 S
C1102 C1096 1.465 . S
C1102 C1101 1.396 . S
C1102 C1103 1.399 . S
C1103 H1089 0.929 . S
C1103 C1102 1.399 . S
C1103 C1104 1.385 1_545 S
C1104 H1090 0.931 . S
C1104 C1103 1.385 1_565 S
C1104 C1105 1.389 . S
C1105 C1104 1.389 . S
C1105 C1106 1.387 . S
C1106 H1091 0.930 . S
C1106 C1101 1.390 1_565 S
C1106 C1105 1.387 . S
H1107 C1119 0.930 . S
H1108 C1121 0.930 . S
H1109 C1122 0.930 . S
H1110 C1126 0.959 . S
H1111 C1126 0.959 . S
H1112 C1126 0.961 . S
H1113 C1127 0.960 . S
H1114 C1127 0.961 . S
H1115 C1127 0.959 . S
H1116 C1130 0.929 . S
H1117 C1131 0.931 . S
H1118 C1133 0.929 . S
C1119 H1107 0.930 . S
C1119 C1120 1.399 . S
C1119 C1124 1.399 . S
C1120 C1119 1.399 . S
C1120 C1121 1.376 . S
C1121 H1108 0.930 . S
C1121 C1120 1.376 . S
C1121 C1122 1.388 . S
C1122 H1109 0.930 . S
C1122 C1121 1.388 . S
C1122 C1123 1.390 . S
C1123 C1122 1.390 . S
C1123 C1124 1.394 . S
C1123 C1129 1.465 . S
C1124 C1119 1.399 . S
C1124 C1123 1.394 . S
C1124 C1125 1.516 . S
C1125 C1124 1.516 . S
C1125 C1126 1.502 . S
C1125 C1127 1.561 . S
C1125 C1128 1.526 . S
C1126 H1110 0.959 . S
C1126 H1111 0.959 . S
C1126 H1112 0.961 . S
C1126 C1125 1.502 . S
C1127 H1113 0.960 . S
C1127 H1114 0.961 . S
C1127 H1115 0.959 . S
C1127 C1125 1.561 . S
C1128 C1125 1.526 . S
C1128 C1129 1.396 . S
C1128 C1133 1.390 1_455 S
C1129 C1123 1.465 . S
C1129 C1128 1.396 . S
C1129 C1130 1.399 1_455 S
C1130 H1116 0.929 . S
C1130 C1129 1.399 1_655 S
C1130 C1131 1.385 . S
C1131 H1117 0.931 . S
C1131 C1130 1.385 . S
C1131 C1132 1.389 . S
C1132 C1131 1.389 . S
C1132 C1133 1.387 . S
C1133 H1118 0.929 . S
C1133 C1128 1.390 1_655 S
C1133 C1132 1.387 . S
H1134 C1146 0.930 . S
H1135 C1148 0.930 . S
H1136 C1149 0.930 . S
H1137 C1153 0.959 . S
H1138 C1153 0.959 . S
H1139 C1153 0.961 . S
H1140 C1154 0.960 . S
H1141 C1154 0.961 . S
H1142 C1154 0.959 . S
H1143 C1157 0.929 1_556 S
H1144 C1158 0.931 1_556 S
H1145 C1160 0.930 . S
C1146 H1134 0.930 . S
C1146 C1147 1.399 . S
C1146 C1151 1.399 . S
C1147 C1146 1.399 . S
C1147 C1148 1.376 . S
C1148 H1135 0.930 . S
C1148 C1147 1.376 . S
C1148 C1149 1.388 . S
C1149 H1136 0.930 . S
C1149 C1148 1.388 . S
C1149 C1150 1.390 . S
C1150 C1149 1.390 . S
C1150 C1151 1.394 . S
C1150 C1156 1.465 . S
C1151 C1146 1.399 . S
C1151 C1150 1.394 . S
C1151 C1152 1.516 . S
C1152 C1151 1.516 . S
C1152 C1153 1.502 . S
C1152 C1154 1.561 . S
C1152 C1155 1.526 . S
C1153 H1137 0.959 . S
C1153 H1138 0.959 . S
C1153 H1139 0.961 . S
C1153 C1152 1.502 . S
C1154 H1140 0.960 . S
C1154 H1141 0.961 . S
C1154 H1142 0.959 . S
C1154 C1152 1.561 . S
C1155 C1152 1.526 . S
C1155 C1156 1.396 . S
C1155 C1160 1.390 . S
C1156 C1150 1.465 . S
C1156 C1155 1.396 . S
C1156 C1157 1.399 . S
C1157 H1143 0.929 1_554 S
C1157 C1156 1.399 . S
C1157 C1158 1.385 . S
C1158 H1144 0.931 1_554 S
C1158 C1157 1.385 . S
C1158 C1159 1.389 . S
C1159 C1158 1.389 . S
C1159 C1160 1.387 . S
C1160 H1145 0.930 . S
C1160 C1155 1.390 . S
C1160 C1159 1.387 . S
H1161 C1173 0.930 . S
H1162 C1175 0.930 . S
H1163 C1176 0.930 . S
H1164 C1180 0.959 . S
H1165 C1180 0.959 . S
H1166 C1180 0.961 . S
H1167 C1181 0.960 . S
H1168 C1181 0.961 . S
H1169 C1181 0.959 . S
H1170 C1184 0.929 1_556 S
H1171 C1185 0.931 1_556 S
H1172 C1187 0.930 . S
C1173 H1161 0.930 . S
C1173 C1174 1.399 . S
C1173 C1178 1.399 . S
C1174 C1173 1.399 . S
C1174 C1175 1.376 . S
C1175 H1162 0.930 . S
C1175 C1174 1.376 . S
C1175 C1176 1.388 . S
C1176 H1163 0.930 . S
C1176 C1175 1.388 . S
C1176 C1177 1.390 . S
C1177 C1176 1.390 . S
C1177 C1178 1.394 . S
C1177 C1183 1.465 . S
C1178 C1173 1.399 . S
C1178 C1177 1.394 . S
C1178 C1179 1.516 . S
C1179 C1178 1.516 . S
C1179 C1180 1.502 . S
C1179 C1181 1.561 . S
C1179 C1182 1.526 . S
C1180 H1164 0.959 . S
C1180 H1165 0.959 . S
C1180 H1166 0.961 . S
C1180 C1179 1.502 . S
C1181 H1167 0.960 . S
C1181 H1168 0.961 . S
C1181 H1169 0.959 . S
C1181 C1179 1.561 . S
C1182 C1179 1.526 . S
C1182 C1183 1.396 . S
C1182 C1187 1.390 . S
C1183 C1177 1.465 . S
C1183 C1182 1.396 . S
C1183 C1184 1.399 . S
C1184 H1170 0.929 1_554 S
C1184 C1183 1.399 . S
C1184 C1185 1.385 . S
C1185 H1171 0.931 1_554 S
C1185 C1184 1.385 . S
C1185 C1186 1.389 . S
C1186 C1185 1.389 . S
C1186 C1187 1.387 . S
C1187 H1172 0.930 . S
C1187 C1182 1.390 . S
C1187 C1186 1.387 . S
H1188 C1200 0.930 1_556 S
H1189 C1202 0.930 . S
H1190 C1203 0.930 . S
H1191 C1207 0.959 . S
H1192 C1207 0.958 1_556 S
H1193 C1207 0.961 1_556 S
H1194 C1208 0.960 . S
H1195 C1208 0.961 . S
H1196 C1208 0.959 . S
H1197 C1211 0.929 . S
H1198 C1212 0.931 . S
H1199 C1214 0.930 . S
C1200 H1188 0.930 1_554 S
C1200 C1201 1.399 . S
C1200 C1205 1.399 . S
C1201 C1200 1.399 . S
C1201 C1202 1.376 . S
C1202 H1189 0.930 . S
C1202 C1201 1.376 . S
C1202 C1203 1.388 . S
C1203 H1190 0.930 . S
C1203 C1202 1.388 . S
C1203 C1204 1.390 . S
C1204 C1203 1.390 . S
C1204 C1205 1.394 . S
C1204 C1210 1.465 . S
C1205 C1200 1.399 . S
C1205 C1204 1.394 . S
C1205 C1206 1.516 . S
C1206 C1205 1.516 . S
C1206 C1207 1.502 . S
C1206 C1208 1.561 . S
C1206 C1209 1.526 . S
C1207 H1191 0.959 . S
C1207 H1192 0.958 1_554 S
C1207 H1193 0.961 1_554 S
C1207 C1206 1.502 . S
C1208 H1194 0.960 . S
C1208 H1195 0.961 . S
C1208 H1196 0.959 . S
C1208 C1206 1.561 . S
C1209 C1206 1.526 . S
C1209 C1210 1.396 . S
C1209 C1214 1.390 . S
C1210 C1204 1.465 . S
C1210 C1209 1.396 . S
C1210 C1211 1.399 . S
C1211 H1197 0.929 . S
C1211 C1210 1.399 . S
C1211 C1212 1.385 . S
C1212 H1198 0.931 . S
C1212 C1211 1.385 . S
C1212 C1213 1.389 . S
C1213 C1212 1.389 . S
C1213 C1214 1.387 . S
C1214 H1199 0.930 . S
C1214 C1209 1.390 . S
C1214 C1213 1.387 . S
H1215 C1227 0.930 . S
H1216 C1229 0.930 . S
H1217 C1230 0.930 . S
H1218 C1234 0.959 . S
H1219 C1234 0.959 . S
H1220 C1234 0.961 . S
H1221 C1235 0.960 . S
H1222 C1235 0.961 . S
H1223 C1235 0.959 . S
H1224 C1238 0.929 . S
H1225 C1239 0.931 . S
H1226 C1241 0.930 . S
C1227 H1215 0.930 . S
C1227 C1228 1.399 . S
C1227 C1232 1.399 . S
C1228 C1227 1.399 . S
C1228 C1229 1.376 . S
C1229 H1216 0.930 . S
C1229 C1228 1.376 . S
C1229 C1230 1.388 . S
C1230 H1217 0.930 . S
C1230 C1229 1.388 . S
C1230 C1231 1.390 . S
C1231 C1230 1.390 . S
C1231 C1232 1.394 . S
C1231 C1237 1.465 . S
C1232 C1227 1.399 . S
C1232 C1231 1.394 . S
C1232 C1233 1.516 . S
C1233 C1232 1.516 . S
C1233 C1234 1.502 . S
C1233 C1235 1.561 . S
C1233 C1236 1.526 . S
C1234 H1218 0.959 . S
C1234 H1219 0.959 . S
C1234 H1220 0.961 . S
C1234 C1233 1.502 . S
C1235 H1221 0.960 . S
C1235 H1222 0.961 . S
C1235 H1223 0.959 . S
C1235 C1233 1.561 . S
C1236 C1233 1.526 . S
C1236 C1237 1.396 . S
C1236 C1241 1.390 . S
C1237 C1231 1.465 . S
C1237 C1236 1.396 . S
C1237 C1238 1.399 . S
C1238 H1224 0.929 . S
C1238 C1237 1.399 . S
C1238 C1239 1.385 . S
C1239 H1225 0.931 . S
C1239 C1238 1.385 . S
C1239 C1240 1.389 . S
C1240 C1239 1.389 . S
C1240 C1241 1.387 . S
C1241 H1226 0.930 . S
C1241 C1236 1.390 . S
C1241 C1240 1.387 . S
H1242 C1254 0.930 . S
H1243 C1256 0.930 . S
H1244 C1257 0.930 . S
H1245 C1261 0.959 . S
H1246 C1261 0.959 . S
H1247 C1261 0.961 . S
H1248 C1262 0.960 . S
H1249 C1262 0.961 . S
H1250 C1262 0.959 . S
H1251 C1265 0.929 . S
H1252 C1266 0.931 . S
H1253 C1268 0.930 . S
C1254 H1242 0.930 . S
C1254 C1255 1.399 . S
C1254 C1259 1.399 . S
C1255 C1254 1.399 . S
C1255 C1256 1.376 . S
C1256 H1243 0.930 . S
C1256 C1255 1.376 . S
C1256 C1257 1.388 . S
C1257 H1244 0.930 . S
C1257 C1256 1.388 . S
C1257 C1258 1.390 . S
C1258 C1257 1.390 . S
C1258 C1259 1.394 . S
C1258 C1264 1.465 . S
C1259 C1254 1.399 . S
C1259 C1258 1.394 . S
C1259 C1260 1.516 . S
C1260 C1259 1.516 . S
C1260 C1261 1.502 . S
C1260 C1262 1.561 . S
C1260 C1263 1.526 . S
C1261 H1245 0.959 . S
C1261 H1246 0.959 . S
C1261 H1247 0.961 . S
C1261 C1260 1.502 . S
C1262 H1248 0.960 . S
C1262 H1249 0.961 . S
C1262 H1250 0.959 . S
C1262 C1260 1.561 . S
C1263 C1260 1.526 . S
C1263 C1264 1.396 . S
C1263 C1268 1.390 . S
C1264 C1258 1.465 . S
C1264 C1263 1.396 . S
C1264 C1265 1.399 . S
C1265 H1251 0.929 . S
C1265 C1264 1.399 . S
C1265 C1266 1.385 . S
C1266 H1252 0.931 . S
C1266 C1265 1.385 . S
C1266 C1267 1.389 . S
C1267 C1266 1.389 . S
C1267 C1268 1.387 . S
C1268 H1253 0.930 . S
C1268 C1263 1.390 . S
C1268 C1267 1.387 . S
H1269 C1281 0.930 . S
H1270 C1283 0.930 . S
H1271 C1284 0.930 . S
H1272 C1288 0.959 . S
H1273 C1288 0.959 . S
H1274 C1288 0.961 . S
H1275 C1289 0.960 . S
H1276 C1289 0.961 . S
H1277 C1289 0.959 . S
H1278 C1292 0.929 . S
H1279 C1293 0.931 . S
H1280 C1295 0.930 . S
C1281 H1269 0.930 . S
C1281 C1282 1.399 . S
C1281 C1286 1.399 . S
C1282 C1281 1.399 . S
C1282 C1283 1.376 . S
C1283 H1270 0.930 . S
C1283 C1282 1.376 . S
C1283 C1284 1.388 . S
C1284 H1271 0.930 . S
C1284 C1283 1.388 . S
C1284 C1285 1.390 . S
C1285 C1284 1.390 . S
C1285 C1286 1.394 . S
C1285 C1291 1.465 . S
C1286 C1281 1.399 . S
C1286 C1285 1.394 . S
C1286 C1287 1.516 . S
C1287 C1286 1.516 . S
C1287 C1288 1.502 . S
C1287 C1289 1.561 . S
C1287 C1290 1.526 . S
C1288 H1272 0.959 . S
C1288 H1273 0.959 . S
C1288 H1274 0.961 . S
C1288 C1287 1.502 . S
C1289 H1275 0.960 . S
C1289 H1276 0.961 . S
C1289 H1277 0.959 . S
C1289 C1287 1.561 . S
C1290 C1287 1.526 . S
C1290 C1291 1.396 . S
C1290 C1295 1.390 . S
C1291 C1285 1.465 . S
C1291 C1290 1.396 . S
C1291 C1292 1.399 . S
C1292 H1278 0.929 . S
C1292 C1291 1.399 . S
C1292 C1293 1.385 . S
C1293 H1279 0.931 . S
C1293 C1292 1.385 . S
C1293 C1294 1.389 . S
C1294 C1293 1.389 . S
C1294 C1295 1.387 . S
C1295 H1280 0.930 . S
C1295 C1290 1.390 . S
C1295 C1294 1.387 . S
H1296 C1308 0.930 . S
H1297 C1310 0.930 . S
H1298 C1311 0.930 . S
H1299 C1315 0.959 . S
H1300 C1315 0.959 . S
H1301 C1315 0.961 . S
H1302 C1316 0.960 . S
H1303 C1316 0.961 . S
H1304 C1316 0.959 . S
H1305 C1319 0.929 . S
H1306 C1320 0.931 . S
H1307 C1322 0.930 . S
C1308 H1296 0.930 . S
C1308 C1309 1.399 . S
C1308 C1313 1.399 . S
C1309 C1308 1.399 . S
C1309 C1310 1.376 . S
C1310 H1297 0.930 . S
C1310 C1309 1.376 . S
C1310 C1311 1.388 . S
C1311 H1298 0.930 . S
C1311 C1310 1.388 . S
C1311 C1312 1.390 . S
C1312 C1311 1.390 . S
C1312 C1313 1.394 . S
C1312 C1318 1.465 . S
C1313 C1308 1.399 . S
C1313 C1312 1.394 . S
C1313 C1314 1.516 . S
C1314 C1313 1.516 . S
C1314 C1315 1.502 . S
C1314 C1316 1.561 . S
C1314 C1317 1.526 . S
C1315 H1299 0.959 . S
C1315 H1300 0.959 . S
C1315 H1301 0.961 . S
C1315 C1314 1.502 . S
C1316 H1302 0.960 . S
C1316 H1303 0.961 . S
C1316 H1304 0.959 . S
C1316 C1314 1.561 . S
C1317 C1314 1.526 . S
C1317 C1318 1.396 . S
C1317 C1322 1.390 . S
C1318 C1312 1.465 . S
C1318 C1317 1.396 . S
C1318 C1319 1.399 . S
C1319 H1305 0.929 . S
C1319 C1318 1.399 . S
C1319 C1320 1.385 . S
C1320 H1306 0.931 . S
C1320 C1319 1.385 . S
C1320 C1321 1.389 . S
C1321 C1320 1.389 . S
C1321 C1322 1.387 . S
C1322 H1307 0.930 . S
C1322 C1317 1.390 . S
C1322 C1321 1.387 . S
H1323 C1335 0.930 . S
H1324 C1337 0.930 . S
H1325 C1338 0.930 . S
H1326 C1342 0.959 . S
H1327 C1342 0.959 . S
H1328 C1342 0.961 . S
H1329 C1343 0.960 . S
H1330 C1343 0.961 . S
H1331 C1343 0.959 . S
H1332 C1346 0.929 . S
H1333 C1347 0.931 . S
H1334 C1349 0.930 . S
C1335 H1323 0.930 . S
C1335 C1336 1.399 . S
C1335 C1340 1.399 . S
C1336 C1335 1.399 . S
C1336 C1337 1.376 . S
C1337 H1324 0.930 . S
C1337 C1336 1.376 . S
C1337 C1338 1.388 . S
C1338 H1325 0.930 . S
C1338 C1337 1.388 . S
C1338 C1339 1.390 . S
C1339 C1338 1.390 . S
C1339 C1340 1.394 . S
C1339 C1345 1.465 . S
C1340 C1335 1.399 . S
C1340 C1339 1.394 . S
C1340 C1341 1.516 . S
C1341 C1340 1.516 . S
C1341 C1342 1.502 . S
C1341 C1343 1.561 . S
C1341 C1344 1.526 . S
C1342 H1326 0.959 . S
C1342 H1327 0.959 . S
C1342 H1328 0.961 . S
C1342 C1341 1.502 . S
C1343 H1329 0.960 . S
C1343 H1330 0.961 . S
C1343 H1331 0.959 . S
C1343 C1341 1.561 . S
C1344 C1341 1.526 . S
C1344 C1345 1.396 . S
C1344 C1349 1.390 . S
C1345 C1339 1.465 . S
C1345 C1344 1.396 . S
C1345 C1346 1.399 . S
C1346 H1332 0.929 . S
C1346 C1345 1.399 . S
C1346 C1347 1.385 . S
C1347 H1333 0.931 . S
C1347 C1346 1.385 . S
C1347 C1348 1.389 . S
C1348 C1347 1.389 . S
C1348 C1349 1.387 . S
C1349 H1334 0.930 . S
C1349 C1344 1.390 . S
C1349 C1348 1.387 . S
H1350 C1362 0.930 . S
H1351 C1364 0.930 . S
H1352 C1365 0.930 . S
H1353 C1369 0.959 . S
H1354 C1369 0.959 . S
H1355 C1369 0.961 . S
H1356 C1370 0.960 . S
H1357 C1370 0.961 . S
H1358 C1370 0.959 . S
H1359 C1373 0.929 . S
H1360 C1374 0.931 . S
H1361 C1376 0.930 . S
C1362 H1350 0.930 . S
C1362 C1363 1.399 . S
C1362 C1367 1.399 . S
C1363 C1362 1.399 . S
C1363 C1364 1.376 . S
C1364 H1351 0.930 . S
C1364 C1363 1.376 . S
C1364 C1365 1.388 . S
C1365 H1352 0.930 . S
C1365 C1364 1.388 . S
C1365 C1366 1.390 . S
C1366 C1365 1.390 . S
C1366 C1367 1.394 . S
C1366 C1372 1.465 . S
C1367 C1362 1.399 . S
C1367 C1366 1.394 . S
C1367 C1368 1.516 . S
C1368 C1367 1.516 . S
C1368 C1369 1.502 . S
C1368 C1370 1.561 . S
C1368 C1371 1.526 . S
C1369 H1353 0.959 . S
C1369 H1354 0.959 . S
C1369 H1355 0.961 . S
C1369 C1368 1.502 . S
C1370 H1356 0.960 . S
C1370 H1357 0.961 . S
C1370 H1358 0.959 . S
C1370 C1368 1.561 . S
C1371 C1368 1.526 . S
C1371 C1372 1.396 . S
C1371 C1376 1.390 . S
C1372 C1366 1.465 . S
C1372 C1371 1.396 . S
C1372 C1373 1.399 . S
C1373 H1359 0.929 . S
C1373 C1372 1.399 . S
C1373 C1374 1.385 . S
C1374 H1360 0.931 . S
C1374 C1373 1.385 . S
C1374 C1375 1.389 . S
C1375 C1374 1.389 . S
C1375 C1376 1.387 . S
C1376 H1361 0.930 . S
C1376 C1371 1.390 . S
C1376 C1375 1.387 . S
H1377 C1389 0.930 . S
H1378 C1391 0.930 1_554 S
H1379 C1392 0.930 1_554 S
H1380 C1396 0.959 . S
H1381 C1396 0.959 . S
H1382 C1396 0.961 . S
H1383 C1397 0.960 . S
H1384 C1397 0.961 . S
H1385 C1397 0.959 . S
H1386 C1400 0.929 . S
H1387 C1401 0.931 . S
H1388 C1403 0.930 . S
C1389 H1377 0.930 . S
C1389 C1390 1.399 . S
C1389 C1394 1.399 . S
C1390 C1389 1.399 . S
C1390 C1391 1.376 . S
C1391 H1378 0.930 1_556 S
C1391 C1390 1.376 . S
C1391 C1392 1.388 . S
C1392 H1379 0.930 1_556 S
C1392 C1391 1.388 . S
C1392 C1393 1.390 . S
C1393 C1392 1.390 . S
C1393 C1394 1.394 . S
C1393 C1399 1.465 . S
C1394 C1389 1.399 . S
C1394 C1393 1.394 . S
C1394 C1395 1.516 . S
C1395 C1394 1.516 . S
C1395 C1396 1.502 . S
C1395 C1397 1.561 . S
C1395 C1398 1.526 . S
C1396 H1380 0.959 . S
C1396 H1381 0.959 . S
C1396 H1382 0.961 . S
C1396 C1395 1.502 . S
C1397 H1383 0.960 . S
C1397 H1384 0.961 . S
C1397 H1385 0.959 . S
C1397 C1395 1.561 . S
C1398 C1395 1.526 . S
C1398 C1399 1.396 . S
C1398 C1403 1.390 . S
C1399 C1393 1.465 . S
C1399 C1398 1.396 . S
C1399 C1400 1.399 . S
C1400 H1386 0.929 . S
C1400 C1399 1.399 . S
C1400 C1401 1.385 . S
C1401 H1387 0.931 . S
C1401 C1400 1.385 . S
C1401 C1402 1.389 . S
C1402 C1401 1.389 . S
C1402 C1403 1.387 . S
C1403 H1388 0.930 . S
C1403 C1398 1.390 . S
C1403 C1402 1.387 . S
H1404 C1416 0.930 . S
H1405 C1418 0.930 . S
H1406 C1419 0.930 . S
H1407 C1423 0.959 . S
H1408 C1423 0.959 . S
H1409 C1423 0.961 . S
H1410 C1424 0.960 . S
H1411 C1424 0.961 . S
H1412 C1424 0.959 . S
H1413 C1427 0.929 . S
H1414 C1428 0.931 1_554 S
H1415 C1430 0.930 . S
C1416 H1404 0.930 . S
C1416 C1417 1.399 . S
C1416 C1421 1.399 . S
C1417 C1416 1.399 . S
C1417 C1418 1.376 . S
C1418 H1405 0.930 . S
C1418 C1417 1.376 . S
C1418 C1419 1.388 . S
C1419 H1406 0.930 . S
C1419 C1418 1.388 . S
C1419 C1420 1.390 . S
C1420 C1419 1.390 . S
C1420 C1421 1.394 . S
C1420 C1426 1.465 . S
C1421 C1416 1.399 . S
C1421 C1420 1.394 . S
C1421 C1422 1.516 . S
C1422 C1421 1.516 . S
C1422 C1423 1.502 . S
C1422 C1424 1.561 . S
C1422 C1425 1.526 . S
C1423 H1407 0.959 . S
C1423 H1408 0.959 . S
C1423 H1409 0.961 . S
C1423 C1422 1.502 . S
C1424 H1410 0.960 . S
C1424 H1411 0.961 . S
C1424 H1412 0.959 . S
C1424 C1422 1.561 . S
C1425 C1422 1.526 . S
C1425 C1426 1.396 . S
C1425 C1430 1.390 . S
C1426 C1420 1.465 . S
C1426 C1425 1.396 . S
C1426 C1427 1.399 . S
C1427 H1413 0.929 . S
C1427 C1426 1.399 . S
C1427 C1428 1.385 . S
C1428 H1414 0.931 1_556 S
C1428 C1427 1.385 . S
C1428 C1429 1.389 . S
C1429 C1428 1.389 . S
C1429 C1430 1.387 . S
C1430 H1415 0.930 . S
C1430 C1425 1.390 . S
C1430 C1429 1.387 . S
H1431 C1443 0.930 . S
H1432 C1445 0.930 . S
H1433 C1446 0.930 . S
H1434 C1450 0.959 . S
H1435 C1450 0.959 . S
H1436 C1450 0.961 . S
H1437 C1451 0.960 . S
H1438 C1451 0.961 . S
H1439 C1451 0.959 . S
H1440 C1454 0.929 . S
H1441 C1455 0.931 . S
H1442 C1457 0.930 . S
C1443 H1431 0.930 . S
C1443 C1444 1.399 . S
C1443 C1448 1.399 . S
C1444 C1443 1.399 . S
C1444 C1445 1.376 . S
C1445 H1432 0.930 . S
C1445 C1444 1.376 . S
C1445 C1446 1.388 . S
C1446 H1433 0.930 . S
C1446 C1445 1.388 . S
C1446 C1447 1.390 . S
C1447 C1446 1.390 . S
C1447 C1448 1.394 . S
C1447 C1453 1.465 . S
C1448 C1443 1.399 . S
C1448 C1447 1.394 . S
C1448 C1449 1.516 . S
C1449 C1448 1.516 . S
C1449 C1450 1.502 . S
C1449 C1451 1.561 . S
C1449 C1452 1.526 . S
C1450 H1434 0.959 . S
C1450 H1435 0.959 . S
C1450 H1436 0.961 . S
C1450 C1449 1.502 . S
C1451 H1437 0.960 . S
C1451 H1438 0.961 . S
C1451 H1439 0.959 . S
C1451 C1449 1.561 . S
C1452 C1449 1.526 . S
C1452 C1453 1.396 . S
C1452 C1457 1.390 . S
C1453 C1447 1.465 . S
C1453 C1452 1.396 . S
C1453 C1454 1.399 . S
C1454 H1440 0.929 . S
C1454 C1453 1.399 . S
C1454 C1455 1.385 . S
C1455 H1441 0.931 . S
C1455 C1454 1.385 . S
C1455 C1456 1.389 . S
C1456 C1455 1.389 . S
C1456 C1457 1.387 . S
C1457 H1442 0.930 . S
C1457 C1452 1.390 . S
C1457 C1456 1.387 . S
H1458 C1470 0.930 . S
H1459 C1472 0.930 . S
H1460 C1473 0.930 . S
H1461 C1477 0.959 . S
H1462 C1477 0.959 . S
H1463 C1477 0.961 . S
H1464 C1478 0.960 . S
H1465 C1478 0.961 . S
H1466 C1478 0.959 . S
H1467 C1481 0.929 . S
H1468 C1482 0.931 . S
H1469 C1484 0.930 . S
C1470 H1458 0.930 . S
C1470 C1471 1.399 . S
C1470 C1475 1.399 . S
C1471 C1470 1.399 . S
C1471 C1472 1.376 . S
C1472 H1459 0.930 . S
C1472 C1471 1.376 . S
C1472 C1473 1.388 . S
C1473 H1460 0.930 . S
C1473 C1472 1.388 . S
C1473 C1474 1.390 . S
C1474 C1473 1.390 . S
C1474 C1475 1.394 . S
C1474 C1480 1.465 . S
C1475 C1470 1.399 . S
C1475 C1474 1.394 . S
C1475 C1476 1.516 . S
C1476 C1475 1.516 . S
C1476 C1477 1.502 . S
C1476 C1478 1.561 . S
C1476 C1479 1.526 . S
C1477 H1461 0.959 . S
C1477 H1462 0.959 . S
C1477 H1463 0.961 . S
C1477 C1476 1.502 . S
C1478 H1464 0.960 . S
C1478 H1465 0.961 . S
C1478 H1466 0.959 . S
C1478 C1476 1.561 . S
C1479 C1476 1.526 . S
C1479 C1480 1.396 . S
C1479 C1484 1.390 . S
C1480 C1474 1.465 . S
C1480 C1479 1.396 . S
C1480 C1481 1.399 . S
C1481 H1467 0.929 . S
C1481 C1480 1.399 . S
C1481 C1482 1.385 . S
C1482 H1468 0.931 . S
C1482 C1481 1.385 . S
C1482 C1483 1.389 . S
C1483 C1482 1.389 . S
C1483 C1484 1.387 . S
C1484 H1469 0.930 . S
C1484 C1479 1.390 . S
C1484 C1483 1.387 . S
H1485 C1497 0.930 . S
H1486 C1499 0.930 . S
H1487 C1500 0.930 . S
H1488 C1504 0.959 . S
H1489 C1504 0.959 . S
H1490 C1504 0.961 . S
H1491 C1505 0.960 . S
H1492 C1505 0.961 . S
H1493 C1505 0.959 . S
H1494 C1508 0.929 . S
H1495 C1509 0.931 . S
H1496 C1511 0.930 . S
C1497 H1485 0.930 . S
C1497 C1498 1.399 . S
C1497 C1502 1.399 . S
C1498 C1497 1.399 . S
C1498 C1499 1.376 . S
C1499 H1486 0.930 . S
C1499 C1498 1.376 . S
C1499 C1500 1.388 . S
C1500 H1487 0.930 . S
C1500 C1499 1.388 . S
C1500 C1501 1.390 . S
C1501 C1500 1.390 . S
C1501 C1502 1.394 . S
C1501 C1507 1.465 . S
C1502 C1497 1.399 . S
C1502 C1501 1.394 . S
C1502 C1503 1.516 . S
C1503 C1502 1.516 . S
C1503 C1504 1.502 . S
C1503 C1505 1.561 . S
C1503 C1506 1.526 . S
C1504 H1488 0.959 . S
C1504 H1489 0.959 . S
C1504 H1490 0.961 . S
C1504 C1503 1.502 . S
C1505 H1491 0.960 . S
C1505 H1492 0.961 . S
C1505 H1493 0.959 . S
C1505 C1503 1.561 . S
C1506 C1503 1.526 . S
C1506 C1507 1.396 . S
C1506 C1511 1.390 . S
C1507 C1501 1.465 . S
C1507 C1506 1.396 . S
C1507 C1508 1.399 . S
C1508 H1494 0.929 . S
C1508 C1507 1.399 . S
C1508 C1509 1.385 . S
C1509 H1495 0.931 . S
C1509 C1508 1.385 . S
C1509 C1510 1.389 . S
C1510 C1509 1.389 . S
C1510 C1511 1.387 . S
C1511 H1496 0.930 . S
C1511 C1506 1.390 . S
C1511 C1510 1.387 . S
H1512 C1524 0.930 . S
H1513 C1526 0.930 . S
H1514 C1527 0.930 . S
H1515 C1531 0.959 . S
H1516 C1531 0.959 . S
H1517 C1531 0.961 . S
H1518 C1532 0.960 . S
H1519 C1532 0.961 . S
H1520 C1532 0.959 . S
H1521 C1535 0.929 . S
H1522 C1536 0.931 . S
H1523 C1538 0.930 . S
C1524 H1512 0.930 . S
C1524 C1525 1.399 . S
C1524 C1529 1.399 . S
C1525 C1524 1.399 . S
C1525 C1526 1.376 . S
C1526 H1513 0.930 . S
C1526 C1525 1.376 . S
C1526 C1527 1.388 . S
C1527 H1514 0.930 . S
C1527 C1526 1.388 . S
C1527 C1528 1.390 . S
C1528 C1527 1.390 . S
C1528 C1529 1.394 . S
C1528 C1534 1.465 . S
C1529 C1524 1.399 . S
C1529 C1528 1.394 . S
C1529 C1530 1.516 . S
C1530 C1529 1.516 . S
C1530 C1531 1.502 . S
C1530 C1532 1.561 . S
C1530 C1533 1.526 . S
C1531 H1515 0.959 . S
C1531 H1516 0.959 . S
C1531 H1517 0.961 . S
C1531 C1530 1.502 . S
C1532 H1518 0.960 . S
C1532 H1519 0.961 . S
C1532 H1520 0.959 . S
C1532 C1530 1.561 . S
C1533 C1530 1.526 . S
C1533 C1534 1.396 . S
C1533 C1538 1.390 . S
C1534 C1528 1.465 . S
C1534 C1533 1.396 . S
C1534 C1535 1.399 . S
C1535 H1521 0.929 . S
C1535 C1534 1.399 . S
C1535 C1536 1.385 . S
C1536 H1522 0.931 . S
C1536 C1535 1.385 . S
C1536 C1537 1.389 . S
C1537 C1536 1.389 . S
C1537 C1538 1.387 . S
C1538 H1523 0.930 . S
C1538 C1533 1.390 . S
C1538 C1537 1.387 . S
H1539 C1551 0.930 . S
H1540 C1553 0.930 . S
H1541 C1554 0.930 . S
H1542 C1558 0.959 . S
H1543 C1558 0.959 . S
H1544 C1558 0.967 . S
H1545 C1559 0.960 . S
H1546 C1559 0.961 . S
H1547 C1559 0.959 . S
H1548 C1562 0.929 1_556 S
H1549 C1563 0.931 . S
H1550 C1565 0.930 . S
C1551 H1539 0.930 . S
C1551 C1552 1.399 . S
C1551 C1556 1.399 . S
C1552 C1551 1.399 . S
C1552 C1553 1.376 . S
C1553 H1540 0.930 . S
C1553 C1552 1.376 . S
C1553 C1554 1.388 . S
C1554 H1541 0.930 . S
C1554 C1553 1.388 . S
C1554 C1555 1.390 . S
C1555 C1554 1.390 . S
C1555 C1556 1.394 . S
C1555 C1561 1.465 . S
C1556 C1551 1.399 . S
C1556 C1555 1.394 . S
C1556 C1557 1.516 . S
C1557 C1556 1.516 . S
C1557 C1558 1.502 1_556 S
C1557 C1559 1.561 . S
C1557 C1560 1.526 1_556 S
C1558 H1542 0.959 . S
C1558 H1543 0.959 . S
C1558 H1544 0.967 . S
C1558 C1557 1.502 1_554 S
C1559 H1545 0.960 . S
C1559 H1546 0.961 . S
C1559 H1547 0.959 . S
C1559 C1557 1.561 . S
C1560 C1557 1.526 1_554 S
C1560 C1561 1.396 1_554 S
C1560 C1565 1.390 . S
C1561 C1555 1.465 . S
C1561 C1560 1.396 1_556 S
C1561 C1562 1.399 1_556 S
C1562 H1548 0.929 1_554 S
C1562 C1561 1.399 1_554 S
C1562 C1563 1.385 . S
C1563 H1549 0.931 . S
C1563 C1562 1.385 . S
C1563 C1564 1.389 . S
C1564 C1563 1.389 . S
C1564 C1565 1.387 . S
C1565 H1550 0.930 . S
C1565 C1560 1.390 . S
C1565 C1564 1.387 . S
H1566 C1578 0.930 . S
H1567 C1580 0.930 . S
H1568 C1581 0.930 . S
H1569 C1585 0.959 . S
H1570 C1585 0.959 . S
H1571 C1585 0.961 . S
H1572 C1586 0.960 . S
H1573 C1586 0.961 . S
H1574 C1586 0.959 . S
H1575 C1589 0.929 . S
H1576 C1590 0.931 . S
H1577 C1592 0.930 . S
C1578 H1566 0.930 . S
C1578 C1579 1.399 . S
C1578 C1583 1.399 . S
C1579 C1578 1.399 . S
C1579 C1580 1.376 . S
C1580 H1567 0.930 . S
C1580 C1579 1.376 . S
C1580 C1581 1.388 . S
C1581 H1568 0.930 . S
C1581 C1580 1.388 . S
C1581 C1582 1.390 1_554 S
C1582 C1581 1.390 1_556 S
C1582 C1583 1.394 1_556 S
C1582 C1588 1.465 . S
C1583 C1578 1.399 . S
C1583 C1582 1.394 1_554 S
C1583 C1584 1.516 1_554 S
C1584 C1583 1.516 1_556 S
C1584 C1585 1.502 . S
C1584 C1586 1.561 . S
C1584 C1587 1.526 . S
C1585 H1569 0.959 . S
C1585 H1570 0.959 . S
C1585 H1571 0.961 . S
C1585 C1584 1.502 . S
C1586 H1572 0.960 . S
C1586 H1573 0.961 . S
C1586 H1574 0.959 . S
C1586 C1584 1.561 . S
C1587 C1584 1.526 . S
C1587 C1588 1.396 . S
C1587 C1592 1.390 . S
C1588 C1582 1.465 . S
C1588 C1587 1.396 . S
C1588 C1589 1.399 . S
C1589 H1575 0.929 . S
C1589 C1588 1.399 . S
C1589 C1590 1.385 . S
C1590 H1576 0.931 . S
C1590 C1589 1.385 . S
C1590 C1591 1.389 . S
C1591 C1590 1.389 . S
C1591 C1592 1.387 . S
C1592 H1577 0.930 . S
C1592 C1587 1.390 . S
C1592 C1591 1.387 . S
H1593 C1605 0.930 . S
H1594 C1607 0.930 1_545 S
H1595 C1608 0.930 . S
H1596 C1612 0.959 . S
H1597 C1612 0.959 . S
H1598 C1612 0.961 . S
H1599 C1613 0.960 . S
H1600 C1613 0.961 . S
H1601 C1613 0.959 . S
H1602 C1616 0.929 . S
H1603 C1617 0.931 . S
H1604 C1619 0.930 . S
C1605 H1593 0.930 . S
C1605 C1606 1.399 . S
C1605 C1610 1.399 . S
C1606 C1605 1.399 . S
C1606 C1607 1.376 . S
C1607 H1594 0.930 1_565 S
C1607 C1606 1.376 . S
C1607 C1608 1.388 . S
C1608 H1595 0.930 . S
C1608 C1607 1.388 . S
C1608 C1609 1.390 . S
C1609 C1608 1.390 . S
C1609 C1610 1.394 . S
C1609 C1615 1.465 1_556 S
C1610 C1605 1.399 . S
C1610 C1609 1.394 . S
C1610 C1611 1.516 . S
C1611 C1610 1.516 . S
C1611 C1612 1.502 . S
C1611 C1613 1.561 . S
C1611 C1614 1.526 . S
C1612 H1596 0.959 . S
C1612 H1597 0.959 . S
C1612 H1598 0.961 . S
C1612 C1611 1.502 . S
C1613 H1599 0.960 . S
C1613 H1600 0.961 . S
C1613 H1601 0.959 . S
C1613 C1611 1.561 . S
C1614 C1611 1.526 . S
C1614 C1615 1.396 1_556 S
C1614 C1619 1.390 1_556 S
C1615 C1609 1.465 1_554 S
C1615 C1614 1.396 1_554 S
C1615 C1616 1.399 . S
C1616 H1602 0.929 . S
C1616 C1615 1.399 . S
C1616 C1617 1.385 . S
C1617 H1603 0.931 . S
C1617 C1616 1.385 . S
C1617 C1618 1.389 . S
C1618 C1617 1.389 . S
C1618 C1619 1.387 . S
C1619 H1604 0.930 . S
C1619 C1614 1.390 1_554 S
C1619 C1618 1.387 . S
H1620 C1632 0.930 . S
H1621 C1634 0.930 . S
H1622 C1635 0.930 . S
H1623 C1639 0.959 . S
H1624 C1639 0.959 . S
H1625 C1639 0.961 . S
H1626 C1640 0.960 . S
H1627 C1640 0.961 . S
H1628 C1640 0.959 . S
H1629 C1643 0.929 . S
H1630 C1644 0.931 . S
H1631 C1646 0.930 . S
C1632 H1620 0.930 . S
C1632 C1633 1.399 . S
C1632 C1637 1.399 . S
C1633 C1632 1.399 . S
C1633 C1634 1.376 . S
C1634 H1621 0.930 . S
C1634 C1633 1.376 . S
C1634 C1635 1.388 . S
C1635 H1622 0.930 . S
C1635 C1634 1.388 . S
C1635 C1636 1.390 . S
C1636 C1635 1.390 . S
C1636 C1637 1.394 . S
C1636 C1642 1.465 . S
C1637 C1632 1.399 . S
C1637 C1636 1.394 . S
C1637 C1638 1.516 . S
C1638 C1637 1.516 . S
C1638 C1639 1.502 . S
C1638 C1640 1.561 . S
C1638 C1641 1.526 . S
C1639 H1623 0.959 . S
C1639 H1624 0.959 . S
C1639 H1625 0.961 . S
C1639 C1638 1.502 . S
C1640 H1626 0.960 . S
C1640 H1627 0.961 . S
C1640 H1628 0.959 . S
C1640 C1638 1.561 . S
C1641 C1638 1.526 . S
C1641 C1642 1.396 . S
C1641 C1646 1.390 . S
C1642 C1636 1.465 . S
C1642 C1641 1.396 . S
C1642 C1643 1.399 . S
C1643 H1629 0.929 . S
C1643 C1642 1.399 . S
C1643 C1644 1.385 . S
C1644 H1630 0.931 . S
C1644 C1643 1.385 . S
C1644 C1645 1.389 . S
C1645 C1644 1.389 . S
C1645 C1646 1.387 . S
C1646 H1631 0.930 . S
C1646 C1641 1.390 . S
C1646 C1645 1.387 . S
H1647 C1659 0.930 . S
H1648 C1661 0.930 . S
H1649 C1662 0.930 . S
H1650 C1666 0.959 . S
H1651 C1666 0.959 . S
H1652 C1666 0.961 . S
H1653 C1667 0.960 . S
H1654 C1667 0.961 . S
H1655 C1667 0.959 . S
H1656 C1670 0.929 . S
H1657 C1671 0.931 . S
H1658 C1673 0.930 . S
C1659 H1647 0.930 . S
C1659 C1660 1.399 . S
C1659 C1664 1.399 . S
C1660 C1659 1.399 . S
C1660 C1661 1.376 . S
C1661 H1648 0.930 . S
C1661 C1660 1.376 . S
C1661 C1662 1.388 . S
C1662 H1649 0.930 . S
C1662 C1661 1.388 . S
C1662 C1663 1.390 . S
C1663 C1662 1.390 . S
C1663 C1664 1.394 . S
C1663 C1669 1.465 . S
C1664 C1659 1.399 . S
C1664 C1663 1.394 . S
C1664 C1665 1.516 . S
C1665 C1664 1.516 . S
C1665 C1666 1.502 . S
C1665 C1667 1.561 . S
C1665 C1668 1.526 . S
C1666 H1650 0.959 . S
C1666 H1651 0.959 . S
C1666 H1652 0.961 . S
C1666 C1665 1.502 . S
C1667 H1653 0.960 . S
C1667 H1654 0.961 . S
C1667 H1655 0.959 . S
C1667 C1665 1.561 . S
C1668 C1665 1.526 . S
C1668 C1669 1.396 . S
C1668 C1673 1.390 . S
C1669 C1663 1.465 . S
C1669 C1668 1.396 . S
C1669 C1670 1.399 . S
C1670 H1656 0.929 . S
C1670 C1669 1.399 . S
C1670 C1671 1.385 . S
C1671 H1657 0.931 . S
C1671 C1670 1.385 . S
C1671 C1672 1.389 . S
C1672 C1671 1.389 . S
C1672 C1673 1.387 . S
C1673 H1658 0.930 . S
C1673 C1668 1.390 . S
C1673 C1672 1.387 . S
H1674 C1686 0.930 . S
H1675 C1688 0.930 . S
H1676 C1689 0.930 . S
H1677 C1693 0.959 . S
H1678 C1693 0.959 . S
H1679 C1693 0.961 . S
H1680 C1694 0.960 . S
H1681 C1694 0.961 . S
H1682 C1694 0.959 . S
H1683 C1697 0.929 . S
H1684 C1698 0.931 . S
H1685 C1700 0.930 . S
C1686 H1674 0.930 . S
C1686 C1687 1.399 . S
C1686 C1691 1.399 . S
C1687 C1686 1.399 . S
C1687 C1688 1.376 . S
C1688 H1675 0.930 . S
C1688 C1687 1.376 . S
C1688 C1689 1.388 . S
C1689 H1676 0.930 . S
C1689 C1688 1.388 . S
C1689 C1690 1.390 . S
C1690 C1689 1.390 . S
C1690 C1691 1.394 . S
C1690 C1696 1.465 . S
C1691 C1686 1.399 . S
C1691 C1690 1.394 . S
C1691 C1692 1.516 . S
C1692 C1691 1.516 . S
C1692 C1693 1.502 . S
C1692 C1694 1.561 . S
C1692 C1695 1.526 . S
C1693 H1677 0.959 . S
C1693 H1678 0.959 . S
C1693 H1679 0.961 . S
C1693 C1692 1.502 . S
C1694 H1680 0.960 . S
C1694 H1681 0.961 . S
C1694 H1682 0.959 . S
C1694 C1692 1.561 . S
C1695 C1692 1.526 . S
C1695 C1696 1.396 . S
C1695 C1700 1.390 . S
C1696 C1690 1.465 . S
C1696 C1695 1.396 . S
C1696 C1697 1.399 . S
C1697 H1683 0.929 . S
C1697 C1696 1.399 . S
C1697 C1698 1.385 . S
C1698 H1684 0.931 . S
C1698 C1697 1.385 . S
C1698 C1699 1.389 . S
C1699 C1698 1.389 . S
C1699 C1700 1.387 . S
C1700 H1685 0.930 . S
C1700 C1695 1.390 . S
C1700 C1699 1.387 . S
H1701 C1713 0.930 . S
H1702 C1715 0.930 . S
H1703 C1716 0.930 . S
H1704 C1720 0.959 . S
H1705 C1720 0.959 . S
H1706 C1720 0.961 . S
H1707 C1721 0.960 . S
H1708 C1721 0.961 . S
H1709 C1721 0.959 . S
H1710 C1724 0.925 . S
H1711 C1725 0.931 . S
H1712 C1727 0.930 . S
C1713 H1701 0.930 . S
C1713 C1714 1.399 1_655 S
C1713 C1718 1.399 . S
C1714 C1713 1.399 1_455 S
C1714 C1715 1.376 . S
C1715 H1702 0.930 . S
C1715 C1714 1.376 . S
C1715 C1716 1.388 . S
C1716 H1703 0.930 . S
C1716 C1715 1.388 . S
C1716 C1717 1.390 1_455 S
C1717 C1716 1.390 1_655 S
C1717 C1718 1.394 . S
C1717 C1723 1.465 1_554 S
C1718 C1713 1.399 . S
C1718 C1717 1.394 . S
C1718 C1719 1.516 . S
C1719 C1718 1.516 . S
C1719 C1720 1.502 . S
C1719 C1721 1.561 . S
C1719 C1722 1.526 . S
C1720 H1704 0.959 . S
C1720 H1705 0.959 . S
C1720 H1706 0.961 . S
C1720 C1719 1.502 . S
C1721 H1707 0.960 . S
C1721 H1708 0.961 . S
C1721 H1709 0.959 . S
C1721 C1719 1.561 . S
C1722 C1719 1.526 . S
C1722 C1723 1.396 1_554 S
C1722 C1727 1.390 1_554 S
C1723 C1717 1.465 1_556 S
C1723 C1722 1.396 1_556 S
C1723 C1724 1.399 . S
C1724 H1710 0.925 . S
C1724 C1723 1.399 . S
C1724 C1725 1.385 . S
C1725 H1711 0.931 . S
C1725 C1724 1.385 . S
C1725 C1726 1.389 . S
C1726 C1725 1.389 . S
C1726 C1727 1.387 . S
C1727 H1712 0.930 . S
C1727 C1722 1.390 1_556 S
C1727 C1726 1.387 . S
H1728 C1740 0.930 . S
H1729 C1742 0.930 . S
H1730 C1743 0.930 . S
H1731 C1747 0.959 . S
H1732 C1747 0.959 . S
H1733 C1747 0.961 . S
H1734 C1748 0.960 . S
H1735 C1748 0.961 . S
H1736 C1748 0.959 . S
H1737 C1751 0.929 . S
H1738 C1752 0.931 . S
H1739 C1754 0.930 . S
C1740 H1728 0.930 . S
C1740 C1741 1.399 . S
C1740 C1745 1.399 . S
C1741 C1740 1.399 . S
C1741 C1742 1.376 . S
C1742 H1729 0.930 . S
C1742 C1741 1.376 . S
C1742 C1743 1.388 . S
C1743 H1730 0.930 . S
C1743 C1742 1.388 . S
C1743 C1744 1.390 . S
C1744 C1743 1.390 . S
C1744 C1745 1.394 . S
C1744 C1750 1.465 1_554 S
C1745 C1740 1.399 . S
C1745 C1744 1.394 . S
C1745 C1746 1.516 . S
C1746 C1745 1.516 . S
C1746 C1747 1.502 . S
C1746 C1748 1.561 . S
C1746 C1749 1.526 . S
C1747 H1731 0.959 . S
C1747 H1732 0.959 . S
C1747 H1733 0.961 . S
C1747 C1746 1.502 . S
C1748 H1734 0.960 . S
C1748 H1735 0.961 . S
C1748 H1736 0.959 . S
C1748 C1746 1.561 . S
C1749 C1746 1.526 . S
C1749 C1750 1.396 1_554 S
C1749 C1754 1.390 1_554 S
C1750 C1744 1.465 1_556 S
C1750 C1749 1.396 1_556 S
C1750 C1751 1.399 . S
C1751 H1737 0.929 . S
C1751 C1750 1.399 . S
C1751 C1752 1.385 . S
C1752 H1738 0.931 . S
C1752 C1751 1.385 . S
C1752 C1753 1.389 . S
C1753 C1752 1.389 . S
C1753 C1754 1.387 . S
C1754 H1739 0.930 . S
C1754 C1749 1.390 1_556 S
C1754 C1753 1.387 . S
H1755 C1767 0.930 . S
H1756 C1769 0.930 . S
H1757 C1770 0.930 . S
H1758 C1774 0.959 . S
H1759 C1774 0.959 . S
H1760 C1774 0.961 . S
H1761 C1775 0.960 . S
H1762 C1775 0.961 . S
H1763 C1775 0.959 . S
H1764 C1778 0.929 . S
H1765 C1779 0.931 . S
H1766 C1781 0.930 . S
C1767 H1755 0.930 . S
C1767 C1768 1.399 . S
C1767 C1772 1.399 1_556 S
C1768 C1767 1.399 . S
C1768 C1769 1.376 . S
C1769 H1756 0.930 . S
C1769 C1768 1.376 . S
C1769 C1770 1.388 . S
C1770 H1757 0.930 . S
C1770 C1769 1.388 . S
C1770 C1771 1.390 . S
C1771 C1770 1.390 . S
C1771 C1772 1.394 1_556 S
C1771 C1777 1.465 1_556 S
C1772 C1767 1.399 1_554 S
C1772 C1771 1.394 1_554 S
C1772 C1773 1.516 . S
C1773 C1772 1.516 . S
C1773 C1774 1.502 . S
C1773 C1775 1.561 . S
C1773 C1776 1.526 . S
C1774 H1758 0.959 . S
C1774 H1759 0.959 . S
C1774 H1760 0.961 . S
C1774 C1773 1.502 . S
C1775 H1761 0.960 . S
C1775 H1762 0.961 . S
C1775 H1763 0.959 . S
C1775 C1773 1.561 . S
C1776 C1773 1.526 . S
C1776 C1777 1.396 . S
C1776 C1781 1.390 . S
C1777 C1771 1.465 1_554 S
C1777 C1776 1.396 . S
C1777 C1778 1.399 . S
C1778 H1764 0.929 . S
C1778 C1777 1.399 . S
C1778 C1779 1.385 . S
C1779 H1765 0.931 . S
C1779 C1778 1.385 . S
C1779 C1780 1.389 . S
C1780 C1779 1.389 . S
C1780 C1781 1.387 . S
C1781 H1766 0.930 . S
C1781 C1776 1.390 . S
C1781 C1780 1.387 . S
H1782 C1794 0.930 . S
H1783 C1796 0.930 1_554 S
H1784 C1797 0.930 . S
H1785 C1801 0.959 . S
H1786 C1801 0.959 . S
H1787 C1801 0.961 . S
H1788 C1802 0.960 . S
H1789 C1802 0.961 . S
H1790 C1802 0.959 . S
H1791 C1805 0.929 . S
H1792 C1806 0.931 . S
H1793 C1808 0.930 . S
C1794 H1782 0.930 . S
C1794 C1795 1.399 . S
C1794 C1799 1.399 . S
C1795 C1794 1.399 . S
C1795 C1796 1.376 . S
C1796 H1783 0.930 1_556 S
C1796 C1795 1.376 . S
C1796 C1797 1.388 . S
C1797 H1784 0.930 . S
C1797 C1796 1.388 . S
C1797 C1798 1.390 . S
C1798 C1797 1.390 . S
C1798 C1799 1.394 . S
C1798 C1804 1.465 . S
C1799 C1794 1.399 . S
C1799 C1798 1.394 . S
C1799 C1800 1.516 . S
C1800 C1799 1.516 . S
C1800 C1801 1.502 . S
C1800 C1802 1.561 . S
C1800 C1803 1.526 . S
C1801 H1785 0.959 . S
C1801 H1786 0.959 . S
C1801 H1787 0.961 . S
C1801 C1800 1.502 . S
C1802 H1788 0.960 . S
C1802 H1789 0.961 . S
C1802 H1790 0.959 . S
C1802 C1800 1.561 . S
C1803 C1800 1.526 . S
C1803 C1804 1.396 . S
C1803 C1808 1.390 . S
C1804 C1798 1.465 . S
C1804 C1803 1.396 . S
C1804 C1805 1.399 . S
C1805 H1791 0.929 . S
C1805 C1804 1.399 . S
C1805 C1806 1.385 . S
C1806 H1792 0.931 . S
C1806 C1805 1.385 . S
C1806 C1807 1.389 . S
C1807 C1806 1.389 . S
C1807 C1808 1.387 . S
C1808 H1793 0.930 . S
C1808 C1803 1.390 . S
C1808 C1807 1.387 . S
H1809 C1821 0.930 . S
H1810 C1823 0.930 . S
H1811 C1824 0.930 . S
H1812 C1828 0.959 . S
H1813 C1828 0.959 . S
H1814 C1828 0.961 . S
H1815 C1829 0.960 . S
H1816 C1829 0.961 . S
H1817 C1829 0.959 . S
H1818 C1832 0.929 . S
H1819 C1833 0.931 . S
H1820 C1835 0.930 . S
C1821 H1809 0.930 . S
C1821 C1822 1.399 . S
C1821 C1826 1.399 . S
C1822 C1821 1.399 . S
C1822 C1823 1.376 . S
C1823 H1810 0.930 . S
C1823 C1822 1.376 . S
C1823 C1824 1.388 . S
C1824 H1811 0.930 . S
C1824 C1823 1.388 . S
C1824 C1825 1.390 . S
C1825 C1824 1.390 . S
C1825 C1826 1.394 . S
C1825 C1831 1.465 . S
C1826 C1821 1.399 . S
C1826 C1825 1.394 . S
C1826 C1827 1.516 . S
C1827 C1826 1.516 . S
C1827 C1828 1.502 . S
C1827 C1829 1.561 . S
C1827 C1830 1.526 . S
C1828 H1812 0.959 . S
C1828 H1813 0.959 . S
C1828 H1814 0.961 . S
C1828 C1827 1.502 . S
C1829 H1815 0.960 . S
C1829 H1816 0.961 . S
C1829 H1817 0.959 . S
C1829 C1827 1.561 . S
C1830 C1827 1.526 . S
C1830 C1831 1.396 . S
C1830 C1835 1.390 . S
C1831 C1825 1.465 . S
C1831 C1830 1.396 . S
C1831 C1832 1.399 . S
C1832 H1818 0.929 . S
C1832 C1831 1.399 . S
C1832 C1833 1.385 . S
C1833 H1819 0.931 . S
C1833 C1832 1.385 . S
C1833 C1834 1.389 . S
C1834 C1833 1.389 . S
C1834 C1835 1.387 . S
C1835 H1820 0.930 . S
C1835 C1830 1.390 . S
C1835 C1834 1.387 . S
H1836 C1848 0.930 . S
H1837 C1850 0.930 . S
H1838 C1851 0.930 . S
H1839 C1855 0.959 . S
H1840 C1855 0.959 . S
H1841 C1855 0.961 . S
H1842 C1856 0.960 . S
H1843 C1856 0.961 . S
H1844 C1856 0.959 . S
H1845 C1859 0.929 . S
H1846 C1860 0.931 . S
H1847 C1862 0.930 . S
C1848 H1836 0.930 . S
C1848 C1849 1.399 . S
C1848 C1853 1.399 . S
C1849 C1848 1.399 . S
C1849 C1850 1.376 . S
C1850 H1837 0.930 . S
C1850 C1849 1.376 . S
C1850 C1851 1.388 . S
C1851 H1838 0.930 . S
C1851 C1850 1.388 . S
C1851 C1852 1.390 . S
C1852 C1851 1.390 . S
C1852 C1853 1.394 . S
C1852 C1858 1.465 . S
C1853 C1848 1.399 . S
C1853 C1852 1.394 . S
C1853 C1854 1.516 . S
C1854 C1853 1.516 . S
C1854 C1855 1.502 . S
C1854 C1856 1.561 . S
C1854 C1857 1.526 . S
C1855 H1839 0.959 . S
C1855 H1840 0.959 . S
C1855 H1841 0.961 . S
C1855 C1854 1.502 . S
C1856 H1842 0.960 . S
C1856 H1843 0.961 . S
C1856 H1844 0.959 . S
C1856 C1854 1.561 . S
C1857 C1854 1.526 . S
C1857 C1858 1.396 . S
C1857 C1862 1.390 . S
C1858 C1852 1.465 . S
C1858 C1857 1.396 . S
C1858 C1859 1.399 . S
C1859 H1845 0.929 . S
C1859 C1858 1.399 . S
C1859 C1860 1.385 . S
C1860 H1846 0.931 . S
C1860 C1859 1.385 . S
C1860 C1861 1.389 . S
C1861 C1860 1.389 . S
C1861 C1862 1.387 . S
C1862 H1847 0.930 . S
C1862 C1857 1.390 . S
C1862 C1861 1.387 . S
H1863 C1875 0.930 . S
H1864 C1877 0.930 . S
H1865 C1878 0.930 . S
H1866 C1882 0.959 . S
H1867 C1882 0.959 . S
H1868 C1882 0.961 . S
H1869 C1883 0.960 . S
H1870 C1883 0.961 . S
H1871 C1883 0.959 . S
H1872 C1886 0.929 . S
H1873 C1887 0.931 . S
H1874 C1889 0.930 . S
C1875 H1863 0.930 . S
C1875 C1876 1.399 . S
C1875 C1880 1.399 . S
C1876 C1875 1.399 . S
C1876 C1877 1.376 . S
C1877 H1864 0.930 . S
C1877 C1876 1.376 . S
C1877 C1878 1.388 . S
C1878 H1865 0.930 . S
C1878 C1877 1.388 . S
C1878 C1879 1.390 . S
C1879 C1878 1.390 . S
C1879 C1880 1.394 . S
C1879 C1885 1.465 . S
C1880 C1875 1.399 . S
C1880 C1879 1.394 . S
C1880 C1881 1.516 . S
C1881 C1880 1.516 . S
C1881 C1882 1.502 . S
C1881 C1883 1.561 . S
C1881 C1884 1.526 . S
C1882 H1866 0.959 . S
C1882 H1867 0.959 . S
C1882 H1868 0.961 . S
C1882 C1881 1.502 . S
C1883 H1869 0.960 . S
C1883 H1870 0.961 . S
C1883 H1871 0.959 . S
C1883 C1881 1.561 . S
C1884 C1881 1.526 . S
C1884 C1885 1.396 . S
C1884 C1889 1.390 . S
C1885 C1879 1.465 . S
C1885 C1884 1.396 . S
C1885 C1886 1.399 . S
C1886 H1872 0.929 . S
C1886 C1885 1.399 . S
C1886 C1887 1.385 . S
C1887 H1873 0.931 . S
C1887 C1886 1.385 . S
C1887 C1888 1.389 . S
C1888 C1887 1.389 . S
C1888 C1889 1.387 . S
C1889 H1874 0.930 . S
C1889 C1884 1.390 . S
C1889 C1888 1.387 . S
H1890 C1902 0.930 . S
H1891 C1904 0.930 . S
H1892 C1905 0.930 . S
H1893 C1909 0.959 . S
H1894 C1909 0.959 . S
H1895 C1909 0.961 . S
H1896 C1910 0.960 . S
H1897 C1910 0.961 . S
H1898 C1910 0.959 . S
H1899 C1913 0.929 . S
H1900 C1914 0.931 . S
H1901 C1916 0.930 . S
C1902 H1890 0.930 . S
C1902 C1903 1.399 . S
C1902 C1907 1.399 . S
C1903 C1902 1.399 . S
C1903 C1904 1.376 . S
C1904 H1891 0.930 . S
C1904 C1903 1.376 . S
C1904 C1905 1.388 . S
C1905 H1892 0.930 . S
C1905 C1904 1.388 . S
C1905 C1906 1.390 . S
C1906 C1905 1.390 . S
C1906 C1907 1.394 . S
C1906 C1912 1.465 . S
C1907 C1902 1.399 . S
C1907 C1906 1.394 . S
C1907 C1908 1.516 . S
C1908 C1907 1.516 . S
C1908 C1909 1.502 . S
C1908 C1910 1.561 . S
C1908 C1911 1.526 . S
C1909 H1893 0.959 . S
C1909 H1894 0.959 . S
C1909 H1895 0.961 . S
C1909 C1908 1.502 . S
C1910 H1896 0.960 . S
C1910 H1897 0.961 . S
C1910 H1898 0.959 . S
C1910 C1908 1.561 . S
C1911 C1908 1.526 . S
C1911 C1912 1.396 . S
C1911 C1916 1.390 . S
C1912 C1906 1.465 . S
C1912 C1911 1.396 . S
C1912 C1913 1.399 . S
C1913 H1899 0.929 . S
C1913 C1912 1.399 . S
C1913 C1914 1.385 . S
C1914 H1900 0.931 . S
C1914 C1913 1.385 . S
C1914 C1915 1.389 . S
C1915 C1914 1.389 . S
C1915 C1916 1.387 . S
C1916 H1901 0.930 . S
C1916 C1911 1.390 . S
C1916 C1915 1.387 . S
H1917 C1929 0.930 . S
H1918 C1931 0.930 . S
H1919 C1932 0.930 . S
H1920 C1936 0.959 . S
H1921 C1936 0.959 . S
H1922 C1936 0.961 . S
H1923 C1937 0.960 . S
H1924 C1937 0.961 . S
H1925 C1937 0.959 . S
H1926 C1940 0.929 . S
H1927 C1941 0.931 . S
H1928 C1943 0.930 . S
C1929 H1917 0.930 . S
C1929 C1930 1.399 . S
C1929 C1934 1.399 . S
C1930 C1929 1.399 . S
C1930 C1931 1.376 . S
C1931 H1918 0.930 . S
C1931 C1930 1.376 . S
C1931 C1932 1.388 . S
C1932 H1919 0.930 . S
C1932 C1931 1.388 . S
C1932 C1933 1.390 . S
C1933 C1932 1.390 . S
C1933 C1934 1.394 . S
C1933 C1939 1.465 . S
C1934 C1929 1.399 . S
C1934 C1933 1.394 . S
C1934 C1935 1.516 . S
C1935 C1934 1.516 . S
C1935 C1936 1.502 . S
C1935 C1937 1.561 . S
C1935 C1938 1.526 . S
C1936 H1920 0.959 . S
C1936 H1921 0.959 . S
C1936 H1922 0.961 . S
C1936 C1935 1.502 . S
C1937 H1923 0.960 . S
C1937 H1924 0.961 . S
C1937 H1925 0.959 . S
C1937 C1935 1.561 . S
C1938 C1935 1.526 . S
C1938 C1939 1.396 . S
C1938 C1943 1.390 . S
C1939 C1933 1.465 . S
C1939 C1938 1.396 . S
C1939 C1940 1.399 . S
C1940 H1926 0.929 . S
C1940 C1939 1.399 . S
C1940 C1941 1.385 . S
C1941 H1927 0.931 . S
C1941 C1940 1.385 . S
C1941 C1942 1.389 . S
C1942 C1941 1.389 . S
C1942 C1943 1.387 . S
C1943 H1928 0.930 . S
C1943 C1938 1.390 . S
C1943 C1942 1.387 . S
H1944 C1956 0.930 . S
H1945 C1958 0.930 . S
H1946 C1959 0.930 . S
H1947 C1963 0.959 . S
H1948 C1963 0.959 . S
H1949 C1963 0.961 . S
H1950 C1964 0.960 . S
H1951 C1964 0.961 . S
H1952 C1964 0.959 . S
H1953 C1967 0.929 . S
H1954 C1968 0.931 . S
H1955 C1970 0.930 . S
C1956 H1944 0.930 . S
C1956 C1957 1.399 . S
C1956 C1961 1.399 . S
C1957 C1956 1.399 . S
C1957 C1958 1.376 . S
C1958 H1945 0.930 . S
C1958 C1957 1.376 . S
C1958 C1959 1.388 . S
C1959 H1946 0.930 . S
C1959 C1958 1.388 . S
C1959 C1960 1.390 . S
C1960 C1959 1.390 . S
C1960 C1961 1.394 . S
C1960 C1966 1.465 . S
C1961 C1956 1.399 . S
C1961 C1960 1.394 . S
C1961 C1962 1.516 . S
C1962 C1961 1.516 . S
C1962 C1963 1.502 . S
C1962 C1964 1.561 . S
C1962 C1965 1.526 . S
C1963 H1947 0.959 . S
C1963 H1948 0.959 . S
C1963 H1949 0.961 . S
C1963 C1962 1.502 . S
C1964 H1950 0.960 . S
C1964 H1951 0.961 . S
C1964 H1952 0.959 . S
C1964 C1962 1.561 . S
C1965 C1962 1.526 . S
C1965 C1966 1.396 . S
C1965 C1970 1.390 . S
C1966 C1960 1.465 . S
C1966 C1965 1.396 . S
C1966 C1967 1.399 . S
C1967 H1953 0.929 . S
C1967 C1966 1.399 . S
C1967 C1968 1.385 . S
C1968 H1954 0.931 . S
C1968 C1967 1.385 . S
C1968 C1969 1.389 . S
C1969 C1968 1.389 . S
C1969 C1970 1.387 . S
C1970 H1955 0.930 . S
C1970 C1965 1.390 . S
C1970 C1969 1.387 . S
H1971 C1983 0.930 . S
H1972 C1985 0.930 . S
H1973 C1986 0.930 . S
H1974 C1990 0.959 . S
H1975 C1990 0.959 . S
H1976 C1990 0.961 . S
H1977 C1991 0.960 . S
H1978 C1991 0.961 . S
H1979 C1991 0.959 . S
H1980 C1994 0.929 . S
H1981 C1995 0.931 . S
H1982 C1997 0.930 . S
C1983 H1971 0.930 . S
C1983 C1984 1.399 . S
C1983 C1988 1.399 . S
C1984 C1983 1.399 . S
C1984 C1985 1.376 . S
C1985 H1972 0.930 . S
C1985 C1984 1.376 . S
C1985 C1986 1.388 . S
C1986 H1973 0.930 . S
C1986 C1985 1.388 . S
C1986 C1987 1.390 . S
C1987 C1986 1.390 . S
C1987 C1988 1.394 . S
C1987 C1993 1.465 . S
C1988 C1983 1.399 . S
C1988 C1987 1.394 . S
C1988 C1989 1.516 . S
C1989 C1988 1.516 . S
C1989 C1990 1.502 . S
C1989 C1991 1.561 . S
C1989 C1992 1.526 . S
C1990 H1974 0.959 . S
C1990 H1975 0.959 . S
C1990 H1976 0.961 . S
C1990 C1989 1.502 . S
C1991 H1977 0.960 . S
C1991 H1978 0.961 . S
C1991 H1979 0.959 . S
C1991 C1989 1.561 . S
C1992 C1989 1.526 . S
C1992 C1993 1.396 . S
C1992 C1997 1.390 . S
C1993 C1987 1.465 . S
C1993 C1992 1.396 . S
C1993 C1994 1.399 . S
C1994 H1980 0.929 . S
C1994 C1993 1.399 . S
C1994 C1995 1.385 . S
C1995 H1981 0.931 . S
C1995 C1994 1.385 . S
C1995 C1996 1.389 . S
C1996 C1995 1.389 . S
C1996 C1997 1.387 . S
C1997 H1982 0.930 . S
C1997 C1992 1.390 . S
C1997 C1996 1.387 . S
H1998 C2010 0.930 . S
H1999 C2012 0.930 . S
H2000 C2013 0.930 . S
H2001 C2017 0.959 . S
H2002 C2017 0.959 . S
H2003 C2017 0.961 . S
H2004 C2018 0.960 . S
H2005 C2018 0.961 . S
H2006 C2018 0.959 . S
H2007 C2021 0.929 . S
H2008 C2022 0.931 . S
H2009 C2024 0.930 . S
C2010 H1998 0.930 . S
C2010 C2011 1.399 . S
C2010 C2015 1.399 . S
C2011 C2010 1.399 . S
C2011 C2012 1.376 . S
C2012 H1999 0.930 . S
C2012 C2011 1.376 . S
C2012 C2013 1.388 . S
C2013 H2000 0.930 . S
C2013 C2012 1.388 . S
C2013 C2014 1.390 . S
C2014 C2013 1.390 . S
C2014 C2015 1.394 . S
C2014 C2020 1.465 . S
C2015 C2010 1.399 . S
C2015 C2014 1.394 . S
C2015 C2016 1.516 . S
C2016 C2015 1.516 . S
C2016 C2017 1.502 . S
C2016 C2018 1.561 . S
C2016 C2019 1.526 . S
C2017 H2001 0.959 . S
C2017 H2002 0.959 . S
C2017 H2003 0.961 . S
C2017 C2016 1.502 . S
C2018 H2004 0.960 . S
C2018 H2005 0.961 . S
C2018 H2006 0.959 . S
C2018 C2016 1.561 . S
C2019 C2016 1.526 . S
C2019 C2020 1.396 . S
C2019 C2024 1.390 . S
C2020 C2014 1.465 . S
C2020 C2019 1.396 . S
C2020 C2021 1.399 . S
C2021 H2007 0.929 . S
C2021 C2020 1.399 . S
C2021 C2022 1.385 . S
C2022 H2008 0.931 . S
C2022 C2021 1.385 . S
C2022 C2023 1.389 . S
C2023 C2022 1.389 . S
C2023 C2024 1.387 . S
C2024 H2009 0.930 . S
C2024 C2019 1.390 . S
C2024 C2023 1.387 . S
H2025 C2037 0.930 . S
H2026 C2039 0.930 . S
H2027 C2040 0.930 . S
H2028 C2044 0.959 . S
H2029 C2044 0.959 . S
H2030 C2044 0.961 . S
H2031 C2045 0.960 . S
H2032 C2045 0.961 . S
H2033 C2045 0.959 . S
H2034 C2048 0.929 . S
H2035 C2049 0.931 . S
H2036 C2051 0.930 . S
C2037 H2025 0.930 . S
C2037 C2038 1.399 . S
C2037 C2042 1.399 . S
C2038 C2037 1.399 . S
C2038 C2039 1.376 . S
C2039 H2026 0.930 . S
C2039 C2038 1.376 . S
C2039 C2040 1.388 . S
C2040 H2027 0.930 . S
C2040 C2039 1.388 . S
C2040 C2041 1.390 . S
C2041 C2040 1.390 . S
C2041 C2042 1.394 . S
C2041 C2047 1.465 . S
C2042 C2037 1.399 . S
C2042 C2041 1.394 . S
C2042 C2043 1.516 . S
C2043 C2042 1.516 . S
C2043 C2044 1.502 . S
C2043 C2045 1.561 . S
C2043 C2046 1.526 . S
C2044 H2028 0.959 . S
C2044 H2029 0.959 . S
C2044 H2030 0.961 . S
C2044 C2043 1.502 . S
C2045 H2031 0.960 . S
C2045 H2032 0.961 . S
C2045 H2033 0.959 . S
C2045 C2043 1.561 . S
C2046 C2043 1.526 . S
C2046 C2047 1.396 . S
C2046 C2051 1.390 . S
C2047 C2041 1.465 . S
C2047 C2046 1.396 . S
C2047 C2048 1.399 . S
C2048 H2034 0.929 . S
C2048 C2047 1.399 . S
C2048 C2049 1.385 . S
C2049 H2035 0.931 . S
C2049 C2048 1.385 . S
C2049 C2050 1.389 . S
C2050 C2049 1.389 . S
C2050 C2051 1.387 . S
C2051 H2036 0.930 . S
C2051 C2046 1.390 . S
C2051 C2050 1.387 . S
H2052 C2064 0.930 . S
H2053 C2066 0.930 . S
H2054 C2067 0.930 . S
H2055 C2071 0.959 . S
H2056 C2071 0.959 . S
H2057 C2071 0.961 . S
H2058 C2072 0.960 . S
H2059 C2072 0.961 . S
H2060 C2072 0.959 . S
H2061 C2075 0.929 . S
H2062 C2076 0.931 . S
H2063 C2078 0.930 . S
C2064 H2052 0.930 . S
C2064 C2065 1.399 . S
C2064 C2069 1.399 . S
C2065 C2064 1.399 . S
C2065 C2066 1.376 . S
C2066 H2053 0.930 . S
C2066 C2065 1.376 . S
C2066 C2067 1.388 . S
C2067 H2054 0.930 . S
C2067 C2066 1.388 . S
C2067 C2068 1.390 . S
C2068 C2067 1.390 . S
C2068 C2069 1.394 . S
C2068 C2074 1.465 . S
C2069 C2064 1.399 . S
C2069 C2068 1.394 . S
C2069 C2070 1.516 . S
C2070 C2069 1.516 . S
C2070 C2071 1.502 . S
C2070 C2072 1.561 . S
C2070 C2073 1.526 . S
C2071 H2055 0.959 . S
C2071 H2056 0.959 . S
C2071 H2057 0.961 . S
C2071 C2070 1.502 . S
C2072 H2058 0.960 . S
C2072 H2059 0.961 . S
C2072 H2060 0.959 . S
C2072 C2070 1.561 . S
C2073 C2070 1.526 . S
C2073 C2074 1.396 . S
C2073 C2078 1.390 . S
C2074 C2068 1.465 . S
C2074 C2073 1.396 . S
C2074 C2075 1.399 . S
C2075 H2061 0.929 . S
C2075 C2074 1.399 . S
C2075 C2076 1.385 . S
C2076 H2062 0.931 . S
C2076 C2075 1.385 . S
C2076 C2077 1.389 . S
C2077 C2076 1.389 . S
C2077 C2078 1.387 . S
C2078 H2063 0.930 . S
C2078 C2073 1.390 . S
C2078 C2077 1.387 . S
H2079 C2091 0.930 . S
H2080 C2093 0.930 . S
H2081 C2094 0.930 . S
H2082 C2098 0.959 . S
H2083 C2098 0.959 . S
H2084 C2098 0.961 . S
H2085 C2099 0.960 . S
H2086 C2099 0.961 . S
H2087 C2099 0.959 . S
H2088 C2102 0.929 . S
H2089 C2103 0.931 . S
H2090 C2105 0.930 . S
C2091 H2079 0.930 . S
C2091 C2092 1.399 . S
C2091 C2096 1.399 . S
C2092 C2091 1.399 . S
C2092 C2093 1.376 . S
C2093 H2080 0.930 . S
C2093 C2092 1.376 . S
C2093 C2094 1.388 . S
C2094 H2081 0.930 . S
C2094 C2093 1.388 . S
C2094 C2095 1.390 . S
C2095 C2094 1.390 . S
C2095 C2096 1.394 . S
C2095 C2101 1.465 . S
C2096 C2091 1.399 . S
C2096 C2095 1.394 . S
C2096 C2097 1.516 . S
C2097 C2096 1.516 . S
C2097 C2098 1.502 . S
C2097 C2099 1.561 . S
C2097 C2100 1.526 . S
C2098 H2082 0.959 . S
C2098 H2083 0.959 . S
C2098 H2084 0.961 . S
C2098 C2097 1.502 . S
C2099 H2085 0.960 . S
C2099 H2086 0.961 . S
C2099 H2087 0.959 . S
C2099 C2097 1.561 . S
C2100 C2097 1.526 . S
C2100 C2101 1.396 . S
C2100 C2105 1.390 . S
C2101 C2095 1.465 . S
C2101 C2100 1.396 . S
C2101 C2102 1.399 . S
C2102 H2088 0.929 . S
C2102 C2101 1.399 . S
C2102 C2103 1.385 . S
C2103 H2089 0.931 . S
C2103 C2102 1.385 . S
C2103 C2104 1.389 . S
C2104 C2103 1.389 . S
C2104 C2105 1.387 . S
C2105 H2090 0.930 . S
C2105 C2100 1.390 . S
C2105 C2104 1.387 . S
H2106 C2118 0.930 . S
H2107 C2120 0.930 . S
H2108 C2121 0.930 . S
H2109 C2125 0.959 . S
H2110 C2125 0.959 . S
H2111 C2125 0.961 . S
H2112 C2126 0.960 . S
H2113 C2126 0.961 . S
H2114 C2126 0.959 . S
H2115 C2129 0.929 . S
H2116 C2130 0.931 . S
H2117 C2132 0.930 . S
C2118 H2106 0.930 . S
C2118 C2119 1.399 . S
C2118 C2123 1.399 . S
C2119 C2118 1.399 . S
C2119 C2120 1.376 . S
C2120 H2107 0.930 . S
C2120 C2119 1.376 . S
C2120 C2121 1.388 . S
C2121 H2108 0.930 . S
C2121 C2120 1.388 . S
C2121 C2122 1.390 . S
C2122 C2121 1.390 . S
C2122 C2123 1.394 . S
C2122 C2128 1.465 . S
C2123 C2118 1.399 . S
C2123 C2122 1.394 . S
C2123 C2124 1.516 . S
C2124 C2123 1.516 . S
C2124 C2125 1.502 . S
C2124 C2126 1.561 . S
C2124 C2127 1.526 . S
C2125 H2109 0.959 . S
C2125 H2110 0.959 . S
C2125 H2111 0.961 . S
C2125 C2124 1.502 . S
C2126 H2112 0.960 . S
C2126 H2113 0.961 . S
C2126 H2114 0.959 . S
C2126 C2124 1.561 . S
C2127 C2124 1.526 . S
C2127 C2128 1.396 . S
C2127 C2132 1.390 . S
C2128 C2122 1.465 . S
C2128 C2127 1.396 . S
C2128 C2129 1.399 . S
C2129 H2115 0.929 . S
C2129 C2128 1.399 . S
C2129 C2130 1.385 . S
C2130 H2116 0.931 . S
C2130 C2129 1.385 . S
C2130 C2131 1.389 . S
C2131 C2130 1.389 . S
C2131 C2132 1.387 . S
C2132 H2117 0.930 . S
C2132 C2127 1.390 . S
C2132 C2131 1.387 . S
H2133 C2145 0.930 . S
H2134 C2147 0.930 . S
H2135 C2148 0.930 . S
H2136 C2152 0.959 . S
H2137 C2152 0.959 . S
H2138 C2152 0.961 . S
H2139 C2153 0.960 . S
H2140 C2153 0.961 . S
H2141 C2153 0.959 . S
H2142 C2156 0.929 . S
H2143 C2157 0.931 . S
H2144 C2159 0.930 . S
C2145 H2133 0.930 . S
C2145 C2146 1.399 . S
C2145 C2150 1.399 . S
C2146 C2145 1.399 . S
C2146 C2147 1.376 . S
C2147 H2134 0.930 . S
C2147 C2146 1.376 . S
C2147 C2148 1.388 . S
C2148 H2135 0.930 . S
C2148 C2147 1.388 . S
C2148 C2149 1.390 . S
C2149 C2148 1.390 . S
C2149 C2150 1.394 . S
C2149 C2155 1.465 . S
C2150 C2145 1.399 . S
C2150 C2149 1.394 . S
C2150 C2151 1.516 . S
C2151 C2150 1.516 . S
C2151 C2152 1.502 . S
C2151 C2153 1.561 . S
C2151 C2154 1.526 . S
C2152 H2136 0.959 . S
C2152 H2137 0.959 . S
C2152 H2138 0.961 . S
C2152 C2151 1.502 . S
C2153 H2139 0.960 . S
C2153 H2140 0.961 . S
C2153 H2141 0.959 . S
C2153 C2151 1.561 . S
C2154 C2151 1.526 . S
C2154 C2155 1.396 . S
C2154 C2159 1.390 . S
C2155 C2149 1.465 . S
C2155 C2154 1.396 . S
C2155 C2156 1.399 . S
C2156 H2142 0.929 . S
C2156 C2155 1.399 . S
C2156 C2157 1.385 . S
C2157 H2143 0.931 . S
C2157 C2156 1.385 . S
C2157 C2158 1.389 . S
C2158 C2157 1.389 . S
C2158 C2159 1.387 . S
C2159 H2144 0.930 . S
C2159 C2154 1.390 . S
C2159 C2158 1.387 . S
H2160 C2172 0.930 . S
H2161 C2174 0.930 . S
H2162 C2175 0.930 . S
H2163 C2179 0.959 . S
H2164 C2179 0.959 . S
H2165 C2179 0.961 . S
H2166 C2180 0.960 . S
H2167 C2180 0.961 . S
H2168 C2180 0.959 . S
H2169 C2183 0.929 . S
H2170 C2184 0.931 . S
H2171 C2186 0.930 . S
C2172 H2160 0.930 . S
C2172 C2173 1.399 . S
C2172 C2177 1.399 . S
C2173 C2172 1.399 . S
C2173 C2174 1.376 . S
C2174 H2161 0.930 . S
C2174 C2173 1.376 . S
C2174 C2175 1.388 . S
C2175 H2162 0.930 . S
C2175 C2174 1.388 . S
C2175 C2176 1.390 . S
C2176 C2175 1.390 . S
C2176 C2177 1.394 . S
C2176 C2182 1.465 . S
C2177 C2172 1.399 . S
C2177 C2176 1.394 . S
C2177 C2178 1.516 . S
C2178 C2177 1.516 . S
C2178 C2179 1.502 . S
C2178 C2180 1.561 . S
C2178 C2181 1.526 . S
C2179 H2163 0.959 . S
C2179 H2164 0.959 . S
C2179 H2165 0.961 . S
C2179 C2178 1.502 . S
C2180 H2166 0.960 . S
C2180 H2167 0.961 . S
C2180 H2168 0.959 . S
C2180 C2178 1.561 . S
C2181 C2178 1.526 . S
C2181 C2182 1.396 . S
C2181 C2186 1.390 . S
C2182 C2176 1.465 . S
C2182 C2181 1.396 . S
C2182 C2183 1.399 . S
C2183 H2169 0.929 . S
C2183 C2182 1.399 . S
C2183 C2184 1.385 . S
C2184 H2170 0.931 . S
C2184 C2183 1.385 . S
C2184 C2185 1.389 . S
C2185 C2184 1.389 . S
C2185 C2186 1.387 . S
C2186 H2171 0.930 . S
C2186 C2181 1.390 . S
C2186 C2185 1.387 . S
H2187 C2199 0.930 . S
H2188 C2201 0.930 . S
H2189 C2202 0.930 . S
H2190 C2206 0.959 . S
H2191 C2206 0.959 . S
H2192 C2206 0.961 . S
H2193 C2207 0.960 . S
H2194 C2207 0.961 . S
H2195 C2207 0.959 . S
H2196 C2210 0.929 . S
H2197 C2211 0.931 . S
H2198 C2213 0.930 . S
C2199 H2187 0.930 . S
C2199 C2200 1.399 . S
C2199 C2204 1.399 . S
C2200 C2199 1.399 . S
C2200 C2201 1.376 . S
C2201 H2188 0.930 . S
C2201 C2200 1.376 . S
C2201 C2202 1.388 . S
C2202 H2189 0.930 . S
C2202 C2201 1.388 . S
C2202 C2203 1.390 . S
C2203 C2202 1.390 . S
C2203 C2204 1.394 . S
C2203 C2209 1.465 . S
C2204 C2199 1.399 . S
C2204 C2203 1.394 . S
C2204 C2205 1.516 . S
C2205 C2204 1.516 . S
C2205 C2206 1.502 . S
C2205 C2207 1.561 . S
C2205 C2208 1.526 . S
C2206 H2190 0.959 . S
C2206 H2191 0.959 . S
C2206 H2192 0.961 . S
C2206 C2205 1.502 . S
C2207 H2193 0.960 . S
C2207 H2194 0.961 . S
C2207 H2195 0.959 . S
C2207 C2205 1.561 . S
C2208 C2205 1.526 . S
C2208 C2209 1.396 . S
C2208 C2213 1.390 . S
C2209 C2203 1.465 . S
C2209 C2208 1.396 . S
C2209 C2210 1.399 . S
C2210 H2196 0.929 . S
C2210 C2209 1.399 . S
C2210 C2211 1.385 . S
C2211 H2197 0.931 . S
C2211 C2210 1.385 . S
C2211 C2212 1.389 . S
C2212 C2211 1.389 . S
C2212 C2213 1.387 . S
C2213 H2198 0.930 . S
C2213 C2208 1.390 . S
C2213 C2212 1.387 . S
H2214 C2226 0.930 . S
H2215 C2228 0.930 . S
H2216 C2229 0.930 . S
H2217 C2233 0.959 . S
H2218 C2233 0.959 . S
H2219 C2233 0.961 . S
H2220 C2234 0.960 . S
H2221 C2234 0.961 . S
H2222 C2234 0.959 . S
H2223 C2237 0.929 . S
H2224 C2238 0.931 . S
H2225 C2240 0.930 . S
C2226 H2214 0.930 . S
C2226 C2227 1.399 . S
C2226 C2231 1.399 . S
C2227 C2226 1.399 . S
C2227 C2228 1.376 . S
C2228 H2215 0.930 . S
C2228 C2227 1.376 . S
C2228 C2229 1.388 . S
C2229 H2216 0.930 . S
C2229 C2228 1.388 . S
C2229 C2230 1.390 . S
C2230 C2229 1.390 . S
C2230 C2231 1.394 . S
C2230 C2236 1.465 . S
C2231 C2226 1.399 . S
C2231 C2230 1.394 . S
C2231 C2232 1.516 . S
C2232 C2231 1.516 . S
C2232 C2233 1.502 . S
C2232 C2234 1.561 . S
C2232 C2235 1.526 . S
C2233 H2217 0.959 . S
C2233 H2218 0.959 . S
C2233 H2219 0.961 . S
C2233 C2232 1.502 . S
C2234 H2220 0.960 . S
C2234 H2221 0.961 . S
C2234 H2222 0.959 . S
C2234 C2232 1.561 . S
C2235 C2232 1.526 . S
C2235 C2236 1.396 . S
C2235 C2240 1.390 . S
C2236 C2230 1.465 . S
C2236 C2235 1.396 . S
C2236 C2237 1.399 . S
C2237 H2223 0.929 . S
C2237 C2236 1.399 . S
C2237 C2238 1.385 . S
C2238 H2224 0.931 . S
C2238 C2237 1.385 . S
C2238 C2239 1.389 . S
C2239 C2238 1.389 . S
C2239 C2240 1.387 . S
C2240 H2225 0.930 . S
C2240 C2235 1.390 . S
C2240 C2239 1.387 . S
H2241 C2253 0.930 . S
H2242 C2255 0.930 . S
H2243 C2256 0.930 . S
H2244 C2260 0.959 . S
H2245 C2260 0.959 . S
H2246 C2260 0.961 . S
H2247 C2261 0.960 . S
H2248 C2261 0.961 . S
H2249 C2261 0.959 . S
H2250 C2264 0.929 . S
H2251 C2265 0.931 . S
H2252 C2267 0.930 . S
C2253 H2241 0.930 . S
C2253 C2254 1.399 . S
C2253 C2258 1.399 . S
C2254 C2253 1.399 . S
C2254 C2255 1.376 . S
C2255 H2242 0.930 . S
C2255 C2254 1.376 . S
C2255 C2256 1.388 . S
C2256 H2243 0.930 . S
C2256 C2255 1.388 . S
C2256 C2257 1.390 . S
C2257 C2256 1.390 . S
C2257 C2258 1.394 . S
C2257 C2263 1.465 . S
C2258 C2253 1.399 . S
C2258 C2257 1.394 . S
C2258 C2259 1.516 . S
C2259 C2258 1.516 . S
C2259 C2260 1.502 . S
C2259 C2261 1.561 . S
C2259 C2262 1.526 . S
C2260 H2244 0.959 . S
C2260 H2245 0.959 . S
C2260 H2246 0.961 . S
C2260 C2259 1.502 . S
C2261 H2247 0.960 . S
C2261 H2248 0.961 . S
C2261 H2249 0.959 . S
C2261 C2259 1.561 . S
C2262 C2259 1.526 . S
C2262 C2263 1.396 . S
C2262 C2267 1.390 . S
C2263 C2257 1.465 . S
C2263 C2262 1.396 . S
C2263 C2264 1.399 . S
C2264 H2250 0.929 . S
C2264 C2263 1.399 . S
C2264 C2265 1.385 . S
C2265 H2251 0.931 . S
C2265 C2264 1.385 . S
C2265 C2266 1.389 . S
C2266 C2265 1.389 . S
C2266 C2267 1.387 . S
C2267 H2252 0.930 . S
C2267 C2262 1.390 . S
C2267 C2266 1.387 . S
H2268 C2280 0.930 . S
H2269 C2282 0.930 1_556 S
H2270 C2283 0.930 . S
H2271 C2287 0.959 . S
H2272 C2287 0.959 . S
H2273 C2287 0.961 . S
H2274 C2288 0.960 . S
H2275 C2288 0.961 . S
H2276 C2288 0.959 . S
H2277 C2291 0.929 . S
H2278 C2292 0.931 . S
H2279 C2294 0.930 . S
C2280 H2268 0.930 . S
C2280 C2281 1.399 . S
C2280 C2285 1.399 . S
C2281 C2280 1.399 . S
C2281 C2282 1.376 . S
C2282 H2269 0.930 1_554 S
C2282 C2281 1.376 . S
C2282 C2283 1.388 . S
C2283 H2270 0.930 . S
C2283 C2282 1.388 . S
C2283 C2284 1.390 . S
C2284 C2283 1.390 . S
C2284 C2285 1.394 . S
C2284 C2290 1.465 . S
C2285 C2280 1.399 . S
C2285 C2284 1.394 . S
C2285 C2286 1.516 . S
C2286 C2285 1.516 . S
C2286 C2287 1.502 . S
C2286 C2288 1.561 . S
C2286 C2289 1.526 . S
C2287 H2271 0.959 . S
C2287 H2272 0.959 . S
C2287 H2273 0.961 . S
C2287 C2286 1.502 . S
C2288 H2274 0.960 . S
C2288 H2275 0.961 . S
C2288 H2276 0.959 . S
C2288 C2286 1.561 . S
C2289 C2286 1.526 . S
C2289 C2290 1.396 . S
C2289 C2294 1.390 . S
C2290 C2284 1.465 . S
C2290 C2289 1.396 . S
C2290 C2291 1.399 . S
C2291 H2277 0.929 . S
C2291 C2290 1.399 . S
C2291 C2292 1.385 . S
C2292 H2278 0.931 . S
C2292 C2291 1.385 . S
C2292 C2293 1.389 . S
C2293 C2292 1.389 . S
C2293 C2294 1.387 . S
C2294 H2279 0.930 . S
C2294 C2289 1.390 . S
C2294 C2293 1.387 . S
H2295 C2307 0.930 . S
H2296 C2309 0.930 . S
H2297 C2310 0.930 . S
H2298 C2314 0.959 . S
H2299 C2314 0.959 . S
H2300 C2314 0.961 . S
H2301 C2315 0.960 . S
H2302 C2315 0.961 . S
H2303 C2315 0.959 . S
H2304 C2318 0.929 . S
H2305 C2319 0.931 . S
H2306 C2321 0.930 . S
C2307 H2295 0.930 . S
C2307 C2308 1.399 . S
C2307 C2312 1.399 . S
C2308 C2307 1.399 . S
C2308 C2309 1.376 . S
C2309 H2296 0.930 . S
C2309 C2308 1.376 . S
C2309 C2310 1.388 . S
C2310 H2297 0.930 . S
C2310 C2309 1.388 . S
C2310 C2311 1.390 . S
C2311 C2310 1.390 . S
C2311 C2312 1.394 . S
C2311 C2317 1.465 . S
C2312 C2307 1.399 . S
C2312 C2311 1.394 . S
C2312 C2313 1.516 . S
C2313 C2312 1.516 . S
C2313 C2314 1.502 . S
C2313 C2315 1.561 . S
C2313 C2316 1.526 . S
C2314 H2298 0.959 . S
C2314 H2299 0.959 . S
C2314 H2300 0.961 . S
C2314 C2313 1.502 . S
C2315 H2301 0.960 . S
C2315 H2302 0.961 . S
C2315 H2303 0.959 . S
C2315 C2313 1.561 . S
C2316 C2313 1.526 . S
C2316 C2317 1.396 . S
C2316 C2321 1.390 . S
C2317 C2311 1.465 . S
C2317 C2316 1.396 . S
C2317 C2318 1.399 . S
C2318 H2304 0.929 . S
C2318 C2317 1.399 . S
C2318 C2319 1.385 . S
C2319 H2305 0.931 . S
C2319 C2318 1.385 . S
C2319 C2320 1.389 . S
C2320 C2319 1.389 . S
C2320 C2321 1.387 . S
C2321 H2306 0.930 . S
C2321 C2316 1.390 . S
C2321 C2320 1.387 . S
H2322 C2334 0.930 . S
H2323 C2336 0.930 . S
H2324 C2337 0.930 . S
H2325 C2341 0.959 . S
H2326 C2341 0.959 . S
H2327 C2341 0.961 . S
H2328 C2342 0.960 . S
H2329 C2342 0.961 . S
H2330 C2342 0.959 . S
H2331 C2345 0.929 . S
H2332 C2346 0.931 . S
H2333 C2348 0.930 . S
C2334 H2322 0.930 . S
C2334 C2335 1.399 . S
C2334 C2339 1.399 . S
C2335 C2334 1.399 . S
C2335 C2336 1.376 . S
C2336 H2323 0.930 . S
C2336 C2335 1.376 . S
C2336 C2337 1.388 . S
C2337 H2324 0.930 . S
C2337 C2336 1.388 . S
C2337 C2338 1.390 . S
C2338 C2337 1.390 . S
C2338 C2339 1.394 . S
C2338 C2344 1.465 . S
C2339 C2334 1.399 . S
C2339 C2338 1.394 . S
C2339 C2340 1.516 . S
C2340 C2339 1.516 . S
C2340 C2341 1.502 . S
C2340 C2342 1.561 . S
C2340 C2343 1.526 . S
C2341 H2325 0.959 . S
C2341 H2326 0.959 . S
C2341 H2327 0.961 . S
C2341 C2340 1.502 . S
C2342 H2328 0.960 . S
C2342 H2329 0.961 . S
C2342 H2330 0.959 . S
C2342 C2340 1.561 . S
C2343 C2340 1.526 . S
C2343 C2344 1.396 . S
C2343 C2348 1.390 . S
C2344 C2338 1.465 . S
C2344 C2343 1.396 . S
C2344 C2345 1.399 . S
C2345 H2331 0.929 . S
C2345 C2344 1.399 . S
C2345 C2346 1.385 . S
C2346 H2332 0.931 . S
C2346 C2345 1.385 . S
C2346 C2347 1.389 . S
C2347 C2346 1.389 . S
C2347 C2348 1.387 . S
C2348 H2333 0.930 . S
C2348 C2343 1.390 . S
C2348 C2347 1.387 . S
H2349 C2361 0.930 . S
H2350 C2363 0.930 . S
H2351 C2364 0.930 . S
H2352 C2368 0.959 . S
H2353 C2368 0.959 . S
H2354 C2368 0.961 . S
H2355 C2369 0.960 . S
H2356 C2369 0.961 . S
H2357 C2369 0.959 . S
H2358 C2372 0.929 . S
H2359 C2373 0.931 . S
H2360 C2375 0.930 . S
C2361 H2349 0.930 . S
C2361 C2362 1.399 . S
C2361 C2366 1.399 . S
C2362 C2361 1.399 . S
C2362 C2363 1.376 . S
C2363 H2350 0.930 . S
C2363 C2362 1.376 . S
C2363 C2364 1.388 . S
C2364 H2351 0.930 . S
C2364 C2363 1.388 . S
C2364 C2365 1.390 . S
C2365 C2364 1.390 . S
C2365 C2366 1.394 . S
C2365 C2371 1.465 . S
C2366 C2361 1.399 . S
C2366 C2365 1.394 . S
C2366 C2367 1.516 . S
C2367 C2366 1.516 . S
C2367 C2368 1.502 . S
C2367 C2369 1.561 . S
C2367 C2370 1.526 . S
C2368 H2352 0.959 . S
C2368 H2353 0.959 . S
C2368 H2354 0.961 . S
C2368 C2367 1.502 . S
C2369 H2355 0.960 . S
C2369 H2356 0.961 . S
C2369 H2357 0.959 . S
C2369 C2367 1.561 . S
C2370 C2367 1.526 . S
C2370 C2371 1.396 . S
C2370 C2375 1.390 . S
C2371 C2365 1.465 . S
C2371 C2370 1.396 . S
C2371 C2372 1.399 . S
C2372 H2358 0.929 . S
C2372 C2371 1.399 . S
C2372 C2373 1.385 . S
C2373 H2359 0.931 . S
C2373 C2372 1.385 . S
C2373 C2374 1.389 . S
C2374 C2373 1.389 . S
C2374 C2375 1.387 . S
C2375 H2360 0.930 . S
C2375 C2370 1.390 . S
C2375 C2374 1.387 . S
H2376 C2388 0.930 . S
H2377 C2390 0.930 . S
H2378 C2391 0.930 . S
H2379 C2395 0.959 . S
H2380 C2395 0.959 . S
H2381 C2395 0.961 . S
H2382 C2396 0.960 . S
H2383 C2396 0.961 . S
H2384 C2396 0.959 . S
H2385 C2399 0.929 . S
H2386 C2400 0.931 . S
H2387 C2402 0.930 . S
C2388 H2376 0.930 . S
C2388 C2389 1.399 . S
C2388 C2393 1.399 . S
C2389 C2388 1.399 . S
C2389 C2390 1.376 . S
C2390 H2377 0.930 . S
C2390 C2389 1.376 . S
C2390 C2391 1.388 . S
C2391 H2378 0.930 . S
C2391 C2390 1.388 . S
C2391 C2392 1.390 . S
C2392 C2391 1.390 . S
C2392 C2393 1.394 . S
C2392 C2398 1.465 . S
C2393 C2388 1.399 . S
C2393 C2392 1.394 . S
C2393 C2394 1.516 . S
C2394 C2393 1.516 . S
C2394 C2395 1.502 . S
C2394 C2396 1.561 . S
C2394 C2397 1.526 . S
C2395 H2379 0.959 . S
C2395 H2380 0.959 . S
C2395 H2381 0.961 . S
C2395 C2394 1.502 . S
C2396 H2382 0.960 . S
C2396 H2383 0.961 . S
C2396 H2384 0.959 . S
C2396 C2394 1.561 . S
C2397 C2394 1.526 . S
C2397 C2398 1.396 . S
C2397 C2402 1.390 . S
C2398 C2392 1.465 . S
C2398 C2397 1.396 . S
C2398 C2399 1.399 . S
C2399 H2385 0.929 . S
C2399 C2398 1.399 . S
C2399 C2400 1.385 . S
C2400 H2386 0.931 . S
C2400 C2399 1.385 . S
C2400 C2401 1.389 . S
C2401 C2400 1.389 . S
C2401 C2402 1.387 . S
C2402 H2387 0.930 . S
C2402 C2397 1.390 . S
C2402 C2401 1.387 . S
H2403 C2415 0.930 . S
H2404 C2417 0.930 . S
H2405 C2418 0.930 . S
H2406 C2422 0.959 . S
H2407 C2422 0.959 . S
H2408 C2422 0.961 . S
H2409 C2423 0.960 . S
H2410 C2423 0.961 . S
H2411 C2423 0.959 . S
H2412 C2426 0.929 . S
H2413 C2427 0.931 . S
H2414 C2429 0.930 . S
C2415 H2403 0.930 . S
C2415 C2416 1.399 . S
C2415 C2420 1.399 . S
C2416 C2415 1.399 . S
C2416 C2417 1.376 . S
C2417 H2404 0.930 . S
C2417 C2416 1.376 . S
C2417 C2418 1.388 . S
C2418 H2405 0.930 . S
C2418 C2417 1.388 . S
C2418 C2419 1.390 . S
C2419 C2418 1.390 . S
C2419 C2420 1.394 . S
C2419 C2425 1.465 . S
C2420 C2415 1.399 . S
C2420 C2419 1.394 . S
C2420 C2421 1.516 . S
C2421 C2420 1.516 . S
C2421 C2422 1.502 . S
C2421 C2423 1.561 . S
C2421 C2424 1.526 . S
C2422 H2406 0.959 . S
C2422 H2407 0.959 . S
C2422 H2408 0.961 . S
C2422 C2421 1.502 . S
C2423 H2409 0.960 . S
C2423 H2410 0.961 . S
C2423 H2411 0.959 . S
C2423 C2421 1.561 . S
C2424 C2421 1.526 . S
C2424 C2425 1.396 . S
C2424 C2429 1.390 . S
C2425 C2419 1.465 . S
C2425 C2424 1.396 . S
C2425 C2426 1.399 . S
C2426 H2412 0.929 . S
C2426 C2425 1.399 . S
C2426 C2427 1.385 . S
C2427 H2413 0.931 . S
C2427 C2426 1.385 . S
C2427 C2428 1.389 . S
C2428 C2427 1.389 . S
C2428 C2429 1.387 . S
C2429 H2414 0.930 . S
C2429 C2424 1.390 . S
C2429 C2428 1.387 . S
H2430 C2442 0.930 . S
H2431 C2444 0.930 . S
H2432 C2445 0.930 . S
H2433 C2449 0.959 . S
H2434 C2449 0.959 . S
H2435 C2449 0.961 . S
H2436 C2450 0.960 . S
H2437 C2450 0.961 . S
H2438 C2450 0.959 . S
H2439 C2453 0.929 . S
H2440 C2454 0.931 . S
H2441 C2456 0.930 . S
C2442 H2430 0.930 . S
C2442 C2443 1.399 . S
C2442 C2447 1.399 . S
C2443 C2442 1.399 . S
C2443 C2444 1.376 . S
C2444 H2431 0.930 . S
C2444 C2443 1.376 . S
C2444 C2445 1.388 . S
C2445 H2432 0.930 . S
C2445 C2444 1.388 . S
C2445 C2446 1.390 . S
C2446 C2445 1.390 . S
C2446 C2447 1.394 . S
C2446 C2452 1.465 . S
C2447 C2442 1.399 . S
C2447 C2446 1.394 . S
C2447 C2448 1.516 . S
C2448 C2447 1.516 . S
C2448 C2449 1.502 . S
C2448 C2450 1.561 . S
C2448 C2451 1.526 . S
C2449 H2433 0.959 . S
C2449 H2434 0.959 . S
C2449 H2435 0.961 . S
C2449 C2448 1.502 . S
C2450 H2436 0.960 . S
C2450 H2437 0.961 . S
C2450 H2438 0.959 . S
C2450 C2448 1.561 . S
C2451 C2448 1.526 . S
C2451 C2452 1.396 . S
C2451 C2456 1.390 . S
C2452 C2446 1.465 . S
C2452 C2451 1.396 . S
C2452 C2453 1.399 . S
C2453 H2439 0.929 . S
C2453 C2452 1.399 . S
C2453 C2454 1.385 . S
C2454 H2440 0.931 . S
C2454 C2453 1.385 . S
C2454 C2455 1.389 . S
C2455 C2454 1.389 . S
C2455 C2456 1.387 . S
C2456 H2441 0.930 . S
C2456 C2451 1.390 . S
C2456 C2455 1.387 . S
H2457 C2469 0.930 . S
H2458 C2471 0.930 . S
H2459 C2472 0.930 . S
H2460 C2476 0.959 . S
H2461 C2476 0.959 . S
H2462 C2476 0.961 . S
H2463 C2477 0.960 . S
H2464 C2477 0.961 . S
H2465 C2477 0.959 . S
H2466 C2480 0.929 . S
H2467 C2481 0.931 . S
H2468 C2483 0.930 . S
C2469 H2457 0.930 . S
C2469 C2470 1.399 . S
C2469 C2474 1.399 . S
C2470 C2469 1.399 . S
C2470 C2471 1.376 . S
C2471 H2458 0.930 . S
C2471 C2470 1.376 . S
C2471 C2472 1.388 . S
C2472 H2459 0.930 . S
C2472 C2471 1.388 . S
C2472 C2473 1.390 . S
C2473 C2472 1.390 . S
C2473 C2474 1.394 . S
C2473 C2479 1.465 . S
C2474 C2469 1.399 . S
C2474 C2473 1.394 . S
C2474 C2475 1.516 . S
C2475 C2474 1.516 . S
C2475 C2476 1.502 . S
C2475 C2477 1.561 . S
C2475 C2478 1.526 . S
C2476 H2460 0.959 . S
C2476 H2461 0.959 . S
C2476 H2462 0.961 . S
C2476 C2475 1.502 . S
C2477 H2463 0.960 . S
C2477 H2464 0.961 . S
C2477 H2465 0.959 . S
C2477 C2475 1.561 . S
C2478 C2475 1.526 . S
C2478 C2479 1.396 . S
C2478 C2483 1.390 . S
C2479 C2473 1.465 . S
C2479 C2478 1.396 . S
C2479 C2480 1.399 . S
C2480 H2466 0.929 . S
C2480 C2479 1.399 . S
C2480 C2481 1.385 . S
C2481 H2467 0.931 . S
C2481 C2480 1.385 . S
C2481 C2482 1.389 . S
C2482 C2481 1.389 . S
C2482 C2483 1.387 . S
C2483 H2468 0.930 . S
C2483 C2478 1.390 . S
C2483 C2482 1.387 . S
H2484 C2496 0.930 . S
H2485 C2498 0.930 . S
H2486 C2499 0.930 . S
H2487 C2503 0.959 . S
H2488 C2503 0.959 . S
H2489 C2503 0.961 . S
H2490 C2504 0.960 . S
H2491 C2504 0.961 . S
H2492 C2504 0.959 . S
H2493 C2507 0.929 . S
H2494 C2508 0.931 . S
H2495 C2510 0.930 . S
C2496 H2484 0.930 . S
C2496 C2497 1.399 . S
C2496 C2501 1.399 . S
C2497 C2496 1.399 . S
C2497 C2498 1.376 . S
C2498 H2485 0.930 . S
C2498 C2497 1.376 . S
C2498 C2499 1.388 . S
C2499 H2486 0.930 . S
C2499 C2498 1.388 . S
C2499 C2500 1.390 . S
C2500 C2499 1.390 . S
C2500 C2501 1.394 . S
C2500 C2506 1.465 . S
C2501 C2496 1.399 . S
C2501 C2500 1.394 . S
C2501 C2502 1.516 . S
C2502 C2501 1.516 . S
C2502 C2503 1.502 . S
C2502 C2504 1.561 . S
C2502 C2505 1.526 . S
C2503 H2487 0.959 . S
C2503 H2488 0.959 . S
C2503 H2489 0.961 . S
C2503 C2502 1.502 . S
C2504 H2490 0.960 . S
C2504 H2491 0.961 . S
C2504 H2492 0.959 . S
C2504 C2502 1.561 . S
C2505 C2502 1.526 . S
C2505 C2506 1.396 . S
C2505 C2510 1.390 . S
C2506 C2500 1.465 . S
C2506 C2505 1.396 . S
C2506 C2507 1.399 . S
C2507 H2493 0.929 . S
C2507 C2506 1.399 . S
C2507 C2508 1.385 . S
C2508 H2494 0.931 . S
C2508 C2507 1.385 . S
C2508 C2509 1.389 . S
C2509 C2508 1.389 . S
C2509 C2510 1.387 . S
C2510 H2495 0.930 . S
C2510 C2505 1.390 . S
C2510 C2509 1.387 . S
H2511 C2523 0.930 . S
H2512 C2525 0.930 . S
H2513 C2526 0.930 1_554 S
H2514 C2530 0.959 . S
H2515 C2530 0.959 . S
H2516 C2530 0.961 . S
H2517 C2531 0.960 . S
H2518 C2531 0.961 . S
H2519 C2531 0.959 . S
H2520 C2534 0.929 . S
H2521 C2535 0.931 . S
H2522 C2537 0.930 . S
C2523 H2511 0.930 . S
C2523 C2524 1.399 . S
C2523 C2528 1.399 . S
C2524 C2523 1.399 . S
C2524 C2525 1.376 1_556 S
C2525 H2512 0.930 . S
C2525 C2524 1.376 1_554 S
C2525 C2526 1.388 1_554 S
C2526 H2513 0.930 1_556 S
C2526 C2525 1.388 1_556 S
C2526 C2527 1.390 . S
C2527 C2526 1.390 . S
C2527 C2528 1.394 . S
C2527 C2533 1.465 . S
C2528 C2523 1.399 . S
C2528 C2527 1.394 . S
C2528 C2529 1.516 . S
C2529 C2528 1.516 . S
C2529 C2530 1.502 . S
C2529 C2531 1.561 . S
C2529 C2532 1.526 . S
C2530 H2514 0.959 . S
C2530 H2515 0.959 . S
C2530 H2516 0.961 . S
C2530 C2529 1.502 . S
C2531 H2517 0.960 . S
C2531 H2518 0.961 . S
C2531 H2519 0.959 . S
C2531 C2529 1.561 . S
C2532 C2529 1.526 . S
C2532 C2533 1.396 . S
C2532 C2537 1.390 . S
C2533 C2527 1.465 . S
C2533 C2532 1.396 . S
C2533 C2534 1.399 . S
C2534 H2520 0.929 . S
C2534 C2533 1.399 . S
C2534 C2535 1.385 . S
C2535 H2521 0.931 . S
C2535 C2534 1.385 . S
C2535 C2536 1.389 . S
C2536 C2535 1.389 . S
C2536 C2537 1.387 . S
C2537 H2522 0.930 . S
C2537 C2532 1.390 . S
C2537 C2536 1.387 . S
H2538 C2550 0.930 1_554 S
H2539 C2552 0.930 . S
H2540 C2553 0.930 . S
H2541 C2557 0.959 . S
H2542 C2557 0.959 . S
H2543 C2557 0.961 . S
H2544 C2558 0.960 1_554 S
H2545 C2558 0.961 . S
H2546 C2558 0.959 . S
H2547 C2561 0.929 . S
H2548 C2562 0.931 . S
H2549 C2564 0.930 . S
C2550 H2538 0.930 1_556 S
C2550 C2551 1.399 . S
C2550 C2555 1.399 . S
C2551 C2550 1.399 . S
C2551 C2552 1.376 . S
C2552 H2539 0.930 . S
C2552 C2551 1.376 . S
C2552 C2553 1.388 . S
C2553 H2540 0.930 . S
C2553 C2552 1.388 . S
C2553 C2554 1.390 . S
C2554 C2553 1.390 . S
C2554 C2555 1.394 . S
C2554 C2560 1.465 . S
C2555 C2550 1.399 . S
C2555 C2554 1.394 . S
C2555 C2556 1.516 . S
C2556 C2555 1.516 . S
C2556 C2557 1.502 . S
C2556 C2558 1.561 . S
C2556 C2559 1.526 . S
C2557 H2541 0.959 . S
C2557 H2542 0.959 . S
C2557 H2543 0.961 . S
C2557 C2556 1.502 . S
C2558 H2544 0.960 1_556 S
C2558 H2545 0.961 . S
C2558 H2546 0.959 . S
C2558 C2556 1.561 . S
C2559 C2556 1.526 . S
C2559 C2560 1.396 . S
C2559 C2564 1.390 . S
C2560 C2554 1.465 . S
C2560 C2559 1.396 . S
C2560 C2561 1.399 . S
C2561 H2547 0.929 . S
C2561 C2560 1.399 . S
C2561 C2562 1.385 . S
C2562 H2548 0.931 . S
C2562 C2561 1.385 . S
C2562 C2563 1.389 . S
C2563 C2562 1.389 . S
C2563 C2564 1.387 . S
C2564 H2549 0.930 . S
C2564 C2559 1.390 . S
C2564 C2563 1.387 . S
H2565 C2577 0.930 . S
H2566 C2579 0.930 . S
H2567 C2580 0.930 . S
H2568 C2584 0.959 . S
H2569 C2584 0.959 . S
H2570 C2584 0.961 . S
H2571 C2585 0.960 . S
H2572 C2585 0.961 1_554 S
H2573 C2585 0.959 . S
H2574 C2588 0.929 . S
H2575 C2589 0.931 . S
H2576 C2591 0.930 . S
C2577 H2565 0.930 . S
C2577 C2578 1.399 . S
C2577 C2582 1.399 . S
C2578 C2577 1.399 . S
C2578 C2579 1.376 . S
C2579 H2566 0.930 . S
C2579 C2578 1.376 . S
C2579 C2580 1.388 . S
C2580 H2567 0.930 . S
C2580 C2579 1.388 . S
C2580 C2581 1.390 . S
C2581 C2580 1.390 . S
C2581 C2582 1.394 . S
C2581 C2587 1.465 . S
C2582 C2577 1.399 . S
C2582 C2581 1.394 . S
C2582 C2583 1.516 . S
C2583 C2582 1.516 . S
C2583 C2584 1.502 . S
C2583 C2585 1.561 . S
C2583 C2586 1.526 . S
C2584 H2568 0.959 . S
C2584 H2569 0.959 . S
C2584 H2570 0.961 . S
C2584 C2583 1.502 . S
C2585 H2571 0.960 . S
C2585 H2572 0.961 1_556 S
C2585 H2573 0.959 . S
C2585 C2583 1.561 . S
C2586 C2583 1.526 . S
C2586 C2587 1.396 . S
C2586 C2591 1.390 . S
C2587 C2581 1.465 . S
C2587 C2586 1.396 . S
C2587 C2588 1.399 . S
C2588 H2574 0.929 . S
C2588 C2587 1.399 . S
C2588 C2589 1.385 . S
C2589 H2575 0.931 . S
C2589 C2588 1.385 . S
C2589 C2590 1.389 . S
C2590 C2589 1.389 . S
C2590 C2591 1.387 . S
C2591 H2576 0.930 . S
C2591 C2586 1.390 . S
C2591 C2590 1.387 . S
H2592 C2604 0.930 . S
H2593 C2606 0.930 . S
H2594 C2607 0.930 . S
H2595 C2611 0.959 . S
H2596 C2611 0.959 . S
H2597 C2611 0.961 . S
H2598 C2612 0.960 . S
H2599 C2612 0.961 . S
H2600 C2612 0.959 . S
H2601 C2615 0.929 . S
H2602 C2616 0.931 . S
H2603 C2618 0.930 . S
C2604 H2592 0.930 . S
C2604 C2605 1.399 . S
C2604 C2609 1.399 . S
C2605 C2604 1.399 . S
C2605 C2606 1.376 . S
C2606 H2593 0.930 . S
C2606 C2605 1.376 . S
C2606 C2607 1.388 . S
C2607 H2594 0.930 . S
C2607 C2606 1.388 . S
C2607 C2608 1.390 . S
C2608 C2607 1.390 . S
C2608 C2609 1.394 . S
C2608 C2614 1.465 . S
C2609 C2604 1.399 . S
C2609 C2608 1.394 . S
C2609 C2610 1.516 . S
C2610 C2609 1.516 . S
C2610 C2611 1.502 . S
C2610 C2612 1.561 . S
C2610 C2613 1.526 . S
C2611 H2595 0.959 . S
C2611 H2596 0.959 . S
C2611 H2597 0.961 . S
C2611 C2610 1.502 . S
C2612 H2598 0.960 . S
C2612 H2599 0.961 . S
C2612 H2600 0.959 . S
C2612 C2610 1.561 . S
C2613 C2610 1.526 . S
C2613 C2614 1.396 . S
C2613 C2618 1.390 . S
C2614 C2608 1.465 . S
C2614 C2613 1.396 . S
C2614 C2615 1.399 . S
C2615 H2601 0.929 . S
C2615 C2614 1.399 . S
C2615 C2616 1.385 . S
C2616 H2602 0.931 . S
C2616 C2615 1.385 . S
C2616 C2617 1.389 . S
C2617 C2616 1.389 . S
C2617 C2618 1.387 . S
C2618 H2603 0.930 . S
C2618 C2613 1.390 . S
C2618 C2617 1.387 . S
H2619 C2631 0.930 . S
H2620 C2633 0.930 . S
H2621 C2634 0.933 . S
H2622 C2638 0.959 . S
H2623 C2638 0.959 . S
H2624 C2638 0.961 . S
H2625 C2639 0.960 . S
H2626 C2639 0.961 . S
H2627 C2639 0.959 . S
H2628 C2642 0.929 . S
H2629 C2643 0.931 . S
H2630 C2645 0.930 . S
C2631 H2619 0.930 . S
C2631 C2632 1.399 . S
C2631 C2636 1.399 . S
C2632 C2631 1.399 . S
C2632 C2633 1.376 1_655 S
C2633 H2620 0.930 . S
C2633 C2632 1.376 1_455 S
C2633 C2634 1.388 . S
C2634 H2621 0.933 . S
C2634 C2633 1.388 . S
C2634 C2635 1.387 1_455 S
C2635 C2634 1.387 1_655 S
C2635 C2636 1.394 . S
C2635 C2641 1.465 . S
C2636 C2631 1.399 . S
C2636 C2635 1.394 . S
C2636 C2637 1.516 . S
C2637 C2636 1.516 . S
C2637 C2638 1.502 . S
C2637 C2639 1.561 . S
C2637 C2640 1.526 . S
C2638 H2622 0.959 . S
C2638 H2623 0.959 . S
C2638 H2624 0.961 . S
C2638 C2637 1.502 . S
C2639 H2625 0.960 . S
C2639 H2626 0.961 . S
C2639 H2627 0.959 . S
C2639 C2637 1.561 . S
C2640 C2637 1.526 . S
C2640 C2641 1.396 . S
C2640 C2645 1.390 . S
C2641 C2635 1.465 . S
C2641 C2640 1.396 . S
C2641 C2642 1.399 . S
C2642 H2628 0.929 . S
C2642 C2641 1.399 . S
C2642 C2643 1.385 . S
C2643 H2629 0.931 . S
C2643 C2642 1.385 . S
C2643 C2644 1.389 . S
C2644 C2643 1.389 . S
C2644 C2645 1.387 . S
C2645 H2630 0.930 . S
C2645 C2640 1.390 . S
C2645 C2644 1.387 . S
H2646 C2658 0.930 . S
H2647 C2660 0.930 . S
H2648 C2661 0.930 . S
H2649 C2665 0.959 . S
H2650 C2665 0.959 . S
H2651 C2665 0.961 . S
H2652 C2666 0.960 . S
H2653 C2666 0.961 . S
H2654 C2666 0.959 . S
H2655 C2669 0.929 . S
H2656 C2670 0.931 . S
H2657 C2672 0.930 . S
C2658 H2646 0.930 . S
C2658 C2659 1.399 . S
C2658 C2663 1.399 . S
C2659 C2658 1.399 . S
C2659 C2660 1.376 . S
C2660 H2647 0.930 . S
C2660 C2659 1.376 . S
C2660 C2661 1.388 . S
C2661 H2648 0.930 . S
C2661 C2660 1.388 . S
C2661 C2662 1.390 . S
C2662 C2661 1.390 . S
C2662 C2663 1.394 . S
C2662 C2668 1.465 . S
C2663 C2658 1.399 . S
C2663 C2662 1.394 . S
C2663 C2664 1.516 . S
C2664 C2663 1.516 . S
C2664 C2665 1.502 . S
C2664 C2666 1.561 . S
C2664 C2667 1.526 . S
C2665 H2649 0.959 . S
C2665 H2650 0.959 . S
C2665 H2651 0.961 . S
C2665 C2664 1.502 . S
C2666 H2652 0.960 . S
C2666 H2653 0.961 . S
C2666 H2654 0.959 . S
C2666 C2664 1.561 . S
C2667 C2664 1.526 . S
C2667 C2668 1.396 . S
C2667 C2672 1.390 . S
C2668 C2662 1.465 . S
C2668 C2667 1.396 . S
C2668 C2669 1.399 . S
C2669 H2655 0.929 . S
C2669 C2668 1.399 . S
C2669 C2670 1.385 . S
C2670 H2656 0.931 . S
C2670 C2669 1.385 . S
C2670 C2671 1.389 . S
C2671 C2670 1.389 . S
C2671 C2672 1.387 . S
C2672 H2657 0.930 . S
C2672 C2667 1.390 . S
C2672 C2671 1.387 . S
H2673 C2685 0.930 . S
H2674 C2687 0.930 . S
H2675 C2688 0.930 . S
H2676 C2692 0.959 . S
H2677 C2692 0.959 . S
H2678 C2692 0.961 . S
H2679 C2693 0.960 . S
H2680 C2693 0.961 . S
H2681 C2693 0.959 . S
H2682 C2696 0.929 . S
H2683 C2697 0.931 . S
H2684 C2699 0.930 . S
C2685 H2673 0.930 . S
C2685 C2686 1.399 . S
C2685 C2690 1.399 . S
C2686 C2685 1.399 . S
C2686 C2687 1.376 . S
C2687 H2674 0.930 . S
C2687 C2686 1.376 . S
C2687 C2688 1.388 . S
C2688 H2675 0.930 . S
C2688 C2687 1.388 . S
C2688 C2689 1.390 . S
C2689 C2688 1.390 . S
C2689 C2690 1.394 . S
C2689 C2695 1.465 . S
C2690 C2685 1.399 . S
C2690 C2689 1.394 . S
C2690 C2691 1.516 . S
C2691 C2690 1.516 . S
C2691 C2692 1.502 . S
C2691 C2693 1.561 . S
C2691 C2694 1.526 . S
C2692 H2676 0.959 . S
C2692 H2677 0.959 . S
C2692 H2678 0.961 . S
C2692 C2691 1.502 . S
C2693 H2679 0.960 . S
C2693 H2680 0.961 . S
C2693 H2681 0.959 . S
C2693 C2691 1.561 . S
C2694 C2691 1.526 . S
C2694 C2695 1.396 . S
C2694 C2699 1.390 . S
C2695 C2689 1.465 . S
C2695 C2694 1.396 . S
C2695 C2696 1.399 . S
C2696 H2682 0.929 . S
C2696 C2695 1.399 . S
C2696 C2697 1.385 . S
C2697 H2683 0.931 . S
C2697 C2696 1.385 . S
C2697 C2698 1.389 . S
C2698 C2697 1.389 . S
C2698 C2699 1.387 . S
C2699 H2684 0.930 . S
C2699 C2694 1.390 . S
C2699 C2698 1.387 . S
H2700 C2712 0.930 . S
H2701 C2714 0.930 1_556 S
H2702 C2715 0.930 . S
H2703 C2719 0.959 . S
H2704 C2719 0.959 . S
H2705 C2719 0.961 . S
H2706 C2720 0.960 . S
H2707 C2720 0.961 . S
H2708 C2720 0.959 . S
H2709 C2723 0.929 . S
H2710 C2724 0.931 . S
H2711 C2726 0.930 . S
C2712 H2700 0.930 . S
C2712 C2713 1.399 . S
C2712 C2717 1.399 . S
C2713 C2712 1.399 . S
C2713 C2714 1.376 . S
C2714 H2701 0.930 1_554 S
C2714 C2713 1.376 . S
C2714 C2715 1.388 . S
C2715 H2702 0.930 . S
C2715 C2714 1.388 . S
C2715 C2716 1.390 . S
C2716 C2715 1.390 . S
C2716 C2717 1.394 . S
C2716 C2722 1.465 . S
C2717 C2712 1.399 . S
C2717 C2716 1.394 . S
C2717 C2718 1.516 . S
C2718 C2717 1.516 . S
C2718 C2719 1.502 . S
C2718 C2720 1.561 . S
C2718 C2721 1.526 . S
C2719 H2703 0.959 . S
C2719 H2704 0.959 . S
C2719 H2705 0.961 . S
C2719 C2718 1.502 . S
C2720 H2706 0.960 . S
C2720 H2707 0.961 . S
C2720 H2708 0.959 . S
C2720 C2718 1.561 . S
C2721 C2718 1.526 . S
C2721 C2722 1.396 . S
C2721 C2726 1.390 . S
C2722 C2716 1.465 . S
C2722 C2721 1.396 . S
C2722 C2723 1.399 . S
C2723 H2709 0.929 . S
C2723 C2722 1.399 . S
C2723 C2724 1.385 . S
C2724 H2710 0.931 . S
C2724 C2723 1.385 . S
C2724 C2725 1.389 . S
C2725 C2724 1.389 . S
C2725 C2726 1.387 . S
C2726 H2711 0.930 . S
C2726 C2721 1.390 . S
C2726 C2725 1.387 . S
H2727 C2739 0.930 . S
H2728 C2741 0.930 1_556 S
H2729 C2742 0.930 . S
H2730 C2746 0.959 . S
H2731 C2746 0.959 . S
H2732 C2746 0.961 . S
H2733 C2747 0.960 . S
H2734 C2747 0.961 . S
H2735 C2747 0.959 . S
H2736 C2750 0.929 . S
H2737 C2751 0.931 . S
H2738 C2753 0.930 . S
C2739 H2727 0.930 . S
C2739 C2740 1.399 . S
C2739 C2744 1.399 . S
C2740 C2739 1.399 . S
C2740 C2741 1.376 . S
C2741 H2728 0.930 1_554 S
C2741 C2740 1.376 . S
C2741 C2742 1.388 . S
C2742 H2729 0.930 . S
C2742 C2741 1.388 . S
C2742 C2743 1.390 . S
C2743 C2742 1.390 . S
C2743 C2744 1.394 . S
C2743 C2749 1.465 . S
C2744 C2739 1.399 . S
C2744 C2743 1.394 . S
C2744 C2745 1.516 . S
C2745 C2744 1.516 . S
C2745 C2746 1.502 . S
C2745 C2747 1.561 . S
C2745 C2748 1.526 . S
C2746 H2730 0.959 . S
C2746 H2731 0.959 . S
C2746 H2732 0.961 . S
C2746 C2745 1.502 . S
C2747 H2733 0.960 . S
C2747 H2734 0.961 . S
C2747 H2735 0.959 . S
C2747 C2745 1.561 . S
C2748 C2745 1.526 . S
C2748 C2749 1.396 . S
C2748 C2753 1.390 . S
C2749 C2743 1.465 . S
C2749 C2748 1.396 . S
C2749 C2750 1.399 . S
C2750 H2736 0.929 . S
C2750 C2749 1.399 . S
C2750 C2751 1.385 . S
C2751 H2737 0.931 . S
C2751 C2750 1.385 . S
C2751 C2752 1.389 . S
C2752 C2751 1.389 . S
C2752 C2753 1.387 . S
C2753 H2738 0.930 . S
C2753 C2748 1.390 . S
C2753 C2752 1.387 . S
H2754 C2766 0.930 . S
H2755 C2768 0.930 . S
H2756 C2769 0.930 . S
H2757 C2773 0.959 . S
H2758 C2773 0.959 . S
H2759 C2773 0.961 . S
H2760 C2774 0.960 . S
H2761 C2774 0.961 . S
H2762 C2774 0.959 . S
H2763 C2777 0.929 . S
H2764 C2778 0.931 . S
H2765 C2780 0.930 . S
C2766 H2754 0.930 . S
C2766 C2767 1.399 . S
C2766 C2771 1.399 . S
C2767 C2766 1.399 . S
C2767 C2768 1.376 . S
C2768 H2755 0.930 . S
C2768 C2767 1.376 . S
C2768 C2769 1.388 . S
C2769 H2756 0.930 . S
C2769 C2768 1.388 . S
C2769 C2770 1.390 . S
C2770 C2769 1.390 . S
C2770 C2771 1.394 . S
C2770 C2776 1.465 . S
C2771 C2766 1.399 . S
C2771 C2770 1.394 . S
C2771 C2772 1.516 . S
C2772 C2771 1.516 . S
C2772 C2773 1.502 . S
C2772 C2774 1.561 . S
C2772 C2775 1.526 . S
C2773 H2757 0.959 . S
C2773 H2758 0.959 . S
C2773 H2759 0.961 . S
C2773 C2772 1.502 . S
C2774 H2760 0.960 . S
C2774 H2761 0.961 . S
C2774 H2762 0.959 . S
C2774 C2772 1.561 . S
C2775 C2772 1.526 . S
C2775 C2776 1.396 . S
C2775 C2780 1.390 . S
C2776 C2770 1.465 . S
C2776 C2775 1.396 . S
C2776 C2777 1.399 . S
C2777 H2763 0.929 . S
C2777 C2776 1.399 . S
C2777 C2778 1.385 . S
C2778 H2764 0.931 . S
C2778 C2777 1.385 . S
C2778 C2779 1.389 . S
C2779 C2778 1.389 . S
C2779 C2780 1.387 . S
C2780 H2765 0.930 . S
C2780 C2775 1.390 . S
C2780 C2779 1.387 . S
H2781 C2793 0.930 . S
H2782 C2795 0.930 . S
H2783 C2796 0.930 . S
H2784 C2800 0.960 1_545 S
H2785 C2800 0.959 . S
H2786 C2800 0.961 1_545 S
H2787 C2801 0.960 . S
H2788 C2801 0.961 . S
H2789 C2801 0.959 . S
H2790 C2804 0.929 1_545 S
H2791 C2805 0.931 . S
H2792 C2807 0.930 . S
C2793 H2781 0.930 . S
C2793 C2794 1.399 . S
C2793 C2798 1.399 . S
C2794 C2793 1.399 . S
C2794 C2795 1.376 . S
C2795 H2782 0.930 . S
C2795 C2794 1.376 . S
C2795 C2796 1.388 . S
C2796 H2783 0.930 . S
C2796 C2795 1.388 . S
C2796 C2797 1.390 . S
C2797 C2796 1.390 . S
C2797 C2798 1.394 . S
C2797 C2803 1.465 . S
C2798 C2793 1.399 . S
C2798 C2797 1.394 . S
C2798 C2799 1.516 1_545 S
C2799 C2798 1.516 1_565 S
C2799 C2800 1.501 . S
C2799 C2801 1.561 . S
C2799 C2802 1.526 . S
C2800 H2784 0.960 1_565 S
C2800 H2785 0.959 . S
C2800 H2786 0.961 1_565 S
C2800 C2799 1.501 . S
C2801 H2787 0.960 . S
C2801 H2788 0.961 . S
C2801 H2789 0.959 . S
C2801 C2799 1.561 . S
C2802 C2799 1.526 . S
C2802 C2803 1.396 1_565 S
C2802 C2807 1.390 . S
C2803 C2797 1.465 . S
C2803 C2802 1.396 1_545 S
C2803 C2804 1.399 1_545 S
C2804 H2790 0.929 1_565 S
C2804 C2803 1.399 1_565 S
C2804 C2805 1.385 . S
C2805 H2791 0.931 . S
C2805 C2804 1.385 . S
C2805 C2806 1.389 . S
C2806 C2805 1.389 . S
C2806 C2807 1.387 . S
C2807 H2792 0.930 . S
C2807 C2802 1.390 . S
C2807 C2806 1.387 . S
H2808 C2820 0.930 . S
H2809 C2822 0.930 . S
H2810 C2823 0.930 . S
H2811 C2827 0.959 . S
H2812 C2827 0.959 . S
H2813 C2827 0.961 . S
H2814 C2828 0.960 . S
H2815 C2828 0.961 . S
H2816 C2828 0.959 . S
H2817 C2831 0.929 . S
H2818 C2832 0.931 . S
H2819 C2834 0.930 . S
C2820 H2808 0.930 . S
C2820 C2821 1.399 . S
C2820 C2825 1.399 . S
C2821 C2820 1.399 . S
C2821 C2822 1.376 . S
C2822 H2809 0.930 . S
C2822 C2821 1.376 . S
C2822 C2823 1.388 . S
C2823 H2810 0.930 . S
C2823 C2822 1.388 . S
C2823 C2824 1.390 . S
C2824 C2823 1.390 . S
C2824 C2825 1.394 . S
C2824 C2830 1.465 . S
C2825 C2820 1.399 . S
C2825 C2824 1.394 . S
C2825 C2826 1.516 . S
C2826 C2825 1.516 . S
C2826 C2827 1.502 . S
C2826 C2828 1.561 . S
C2826 C2829 1.526 . S
C2827 H2811 0.959 . S
C2827 H2812 0.959 . S
C2827 H2813 0.961 . S
C2827 C2826 1.502 . S
C2828 H2814 0.960 . S
C2828 H2815 0.961 . S
C2828 H2816 0.959 . S
C2828 C2826 1.561 . S
C2829 C2826 1.526 . S
C2829 C2830 1.396 . S
C2829 C2834 1.390 . S
C2830 C2824 1.465 . S
C2830 C2829 1.396 . S
C2830 C2831 1.399 . S
C2831 H2817 0.929 . S
C2831 C2830 1.399 . S
C2831 C2832 1.385 1_455 S
C2832 H2818 0.931 . S
C2832 C2831 1.385 1_655 S
C2832 C2833 1.389 . S
C2833 C2832 1.389 . S
C2833 C2834 1.387 1_655 S
C2834 H2819 0.930 . S
C2834 C2829 1.390 . S
C2834 C2833 1.387 1_455 S
H2835 C2847 0.930 . S
H2836 C2849 0.930 . S
H2837 C2850 0.930 . S
H2838 C2854 0.959 . S
H2839 C2854 0.959 . S
H2840 C2854 0.961 . S
H2841 C2855 0.960 . S
H2842 C2855 0.961 . S
H2843 C2855 0.959 . S
H2844 C2858 0.929 . S
H2845 C2859 0.931 . S
H2846 C2861 0.930 . S
C2847 H2835 0.930 . S
C2847 C2848 1.399 . S
C2847 C2852 1.399 . S
C2848 C2847 1.399 . S
C2848 C2849 1.376 . S
C2849 H2836 0.930 . S
C2849 C2848 1.376 . S
C2849 C2850 1.388 . S
C2850 H2837 0.930 . S
C2850 C2849 1.388 . S
C2850 C2851 1.390 . S
C2851 C2850 1.390 . S
C2851 C2852 1.394 . S
C2851 C2857 1.465 . S
C2852 C2847 1.399 . S
C2852 C2851 1.394 . S
C2852 C2853 1.516 . S
C2853 C2852 1.516 . S
C2853 C2854 1.502 . S
C2853 C2855 1.561 . S
C2853 C2856 1.526 . S
C2854 H2838 0.959 . S
C2854 H2839 0.959 . S
C2854 H2840 0.961 . S
C2854 C2853 1.502 . S
C2855 H2841 0.960 . S
C2855 H2842 0.961 . S
C2855 H2843 0.959 . S
C2855 C2853 1.561 . S
C2856 C2853 1.526 . S
C2856 C2857 1.396 . S
C2856 C2861 1.390 . S
C2857 C2851 1.465 . S
C2857 C2856 1.396 . S
C2857 C2858 1.399 . S
C2858 H2844 0.929 . S
C2858 C2857 1.399 . S
C2858 C2859 1.385 . S
C2859 H2845 0.931 . S
C2859 C2858 1.385 . S
C2859 C2860 1.389 . S
C2860 C2859 1.389 . S
C2860 C2861 1.387 . S
C2861 H2846 0.930 . S
C2861 C2856 1.390 . S
C2861 C2860 1.387 . S
H2862 C2874 0.930 . S
H2863 C2876 0.930 . S
H2864 C2877 0.930 . S
H2865 C2881 0.959 . S
H2866 C2881 0.959 . S
H2867 C2881 0.961 . S
H2868 C2882 0.960 . S
H2869 C2882 0.961 . S
H2870 C2882 0.959 . S
H2871 C2885 0.929 . S
H2872 C2886 0.931 . S
H2873 C2888 0.930 . S
C2874 H2862 0.930 . S
C2874 C2875 1.399 . S
C2874 C2879 1.399 . S
C2875 C2874 1.399 . S
C2875 C2876 1.376 . S
C2876 H2863 0.930 . S
C2876 C2875 1.376 . S
C2876 C2877 1.388 . S
C2877 H2864 0.930 . S
C2877 C2876 1.388 . S
C2877 C2878 1.390 . S
C2878 C2877 1.390 . S
C2878 C2879 1.394 . S
C2878 C2884 1.465 . S
C2879 C2874 1.399 . S
C2879 C2878 1.394 . S
C2879 C2880 1.516 . S
C2880 C2879 1.516 . S
C2880 C2881 1.502 . S
C2880 C2882 1.561 . S
C2880 C2883 1.526 . S
C2881 H2865 0.959 . S
C2881 H2866 0.959 . S
C2881 H2867 0.961 . S
C2881 C2880 1.502 . S
C2882 H2868 0.960 . S
C2882 H2869 0.961 . S
C2882 H2870 0.959 . S
C2882 C2880 1.561 . S
C2883 C2880 1.526 . S
C2883 C2884 1.396 . S
C2883 C2888 1.390 1_545 S
C2884 C2878 1.465 . S
C2884 C2883 1.396 . S
C2884 C2885 1.399 1_545 S
C2885 H2871 0.929 . S
C2885 C2884 1.399 1_565 S
C2885 C2886 1.385 . S
C2886 H2872 0.931 . S
C2886 C2885 1.385 . S
C2886 C2887 1.389 . S
C2887 C2886 1.389 . S
C2887 C2888 1.387 . S
C2888 H2873 0.930 . S
C2888 C2883 1.390 1_565 S
C2888 C2887 1.387 . S
H2889 C2901 0.930 . S
H2890 C2903 0.930 . S
H2891 C2904 0.930 . S
H2892 C2908 0.959 . S
H2893 C2908 0.959 . S
H2894 C2908 0.961 . S
H2895 C2909 0.960 . S
H2896 C2909 0.961 . S
H2897 C2909 0.959 . S
H2898 C2912 0.929 . S
H2899 C2913 0.931 . S
H2900 C2915 0.930 . S
C2901 H2889 0.930 . S
C2901 C2902 1.399 1_455 S
C2901 C2906 1.399 . S
C2902 C2901 1.399 1_655 S
C2902 C2903 1.376 . S
C2903 H2890 0.930 . S
C2903 C2902 1.376 . S
C2903 C2904 1.388 . S
C2904 H2891 0.930 . S
C2904 C2903 1.388 . S
C2904 C2905 1.390 1_655 S
C2905 C2904 1.390 1_455 S
C2905 C2906 1.394 . S
C2905 C2911 1.465 . S
C2906 C2901 1.399 . S
C2906 C2905 1.394 . S
C2906 C2907 1.516 . S
C2907 C2906 1.516 . S
C2907 C2908 1.502 . S
C2907 C2909 1.561 . S
C2907 C2910 1.526 . S
C2908 H2892 0.959 . S
C2908 H2893 0.959 . S
C2908 H2894 0.961 . S
C2908 C2907 1.502 . S
C2909 H2895 0.960 . S
C2909 H2896 0.961 . S
C2909 H2897 0.959 . S
C2909 C2907 1.561 . S
C2910 C2907 1.526 . S
C2910 C2911 1.396 . S
C2910 C2915 1.390 . S
C2911 C2905 1.465 . S
C2911 C2910 1.396 . S
C2911 C2912 1.399 . S
C2912 H2898 0.929 . S
C2912 C2911 1.399 . S
C2912 C2913 1.385 . S
C2913 H2899 0.931 . S
C2913 C2912 1.385 . S
C2913 C2914 1.389 . S
C2914 C2913 1.389 . S
C2914 C2915 1.387 . S
C2915 H2900 0.930 . S
C2915 C2910 1.390 . S
C2915 C2914 1.387 . S
C985 C82 1.834 . S
C997 C5 1.573 . S
C1012 C59 1.572 . S
C1024 C136 1.833 . S
C1039 C113 1.619 . S
C1051 C28 1.840 . S
C1066 C251 1.859 1_655 S
C1078 C175 1.607 . S
C1093 C305 1.835 . S
C1105 C229 1.647 . S
C1120 C283 1.695 . S
C1132 C197 1.801 . S
C1147 C329 1.570 . S
C1159 C406 1.860 . S
C1174 C383 1.583 . S
C1186 C460 1.857 . S
C1201 C352 1.785 . S
C1213 C437 1.667 . S
C1228 C499 1.618 . S
C1240 C575 1.852 . S
C1255 C629 1.828 . S
C1267 C553 1.656 . S
C1282 C607 1.578 . S
C1294 C521 1.868 . S
C1309 C653 1.551 . S
C1321 C730 1.857 . S
C1336 C707 1.608 . S
C1348 C784 1.810 . S
C1363 C761 1.621 . S
C1375 C676 1.840 . S
C1390 C899 1.871 . S
C1402 C823 1.576 . S
C1417 C877 1.575 . S
C1429 C953 1.874 . S
C1444 C931 1.660 . S
C1456 C845 1.827 . S
C1471 C27 1.643 . S
C1483 C292 1.458 . S
C1498 C81 1.589 . S
C1510 C184 1.350 . S
C1525 C135 1.614 . S
C1537 C238 1.442 . S
C1552 C64 1.227 . S
C1564 C302 1.181 . S
C1579 C194 1.199 . S
C1591 C118 1.196 . S
C1606 C10 1.198 1_565 S
C1618 C248 1.221 . S
C1633 C140 1.462 . S
C1645 C172 1.637 . S
C1660 C226 1.633 . S
C1672 C32 1.457 . S
C1687 C280 1.637 . S
C1699 C86 1.465 . S
C1714 C243 1.181 . S
C1726 C130 1.224 . S
C1741 C297 1.181 . S
C1753 C22 1.224 . S
C1768 C76 1.220 . S
C1780 C189 1.184 . S
C1795 C351 1.593 1_556 S
C1807 C616 1.401 . S
C1822 C508 1.350 . S
C1834 C405 1.610 1_556 S
C1849 C562 1.420 . S
C1861 C459 1.634 1_556 S
C1876 C388 1.226 . S
C1888 C626 1.185 . S
C1903 C518 1.185 . S
C1915 C442 1.207 . S
C1930 C572 1.201 . S
C1942 C334 1.215 . S
C1957 C496 1.596 . S
C1969 C464 1.351 . S
C1984 C356 1.463 . S
C1996 C550 1.637 . S
C2011 C410 1.327 . S
C2023 C604 1.587 . S
C2038 C454 1.166 . S
C2050 C567 1.222 . S
C2065 C621 1.186 . S
C2077 C346 1.216 . S
C2092 C513 1.182 . S
C2104 C400 1.221 . S
C2119 C675 1.594 . S
C2131 C940 1.384 . S
C2146 C729 1.641 . S
C2158 C832 1.432 . S
C2173 C886 1.331 . S
C2185 C783 1.593 . S
C2200 C712 1.185 . S
C2212 C950 1.219 . S
C2227 C766 1.211 . S
C2239 C842 1.207 . S
C2254 C896 1.177 . S
C2266 C658 1.228 . S
C2281 C820 1.615 1_554 S
C2293 C788 1.442 . S
C2308 C874 1.575 1_554 S
C2320 C680 1.334 . S
C2335 C928 1.595 1_554 S
C2347 C734 1.382 . S
C2362 C891 1.195 . S
C2374 C778 1.203 . S
C2389 C945 1.181 . S
C2401 C670 1.224 . S
C2416 C837 1.184 . S
C2428 C724 1.219 . S
C2443 C13 1.496 . S
C2455 C737 1.469 . S
C2470 C67 1.466 . S
C2482 C791 1.460 . S
C2497 C683 1.440 . S
C2509 C121 1.475 . S
C2524 C337 1.473 . S
C2536 C89 1.441 . S
C2551 C391 1.495 . S
C2563 C143 1.493 . S
C2578 C35 1.472 . S
C2590 C445 1.471 . S
C2605 C167 1.507 . S
C2617 C568 1.476 . S
C2632 C221 1.475 1_655 S
C2644 C622 1.485 . S
C2659 C514 1.484 . S
C2671 C275 1.507 . S
C2686 C244 1.491 . S
C2698 C815 1.479 . S
C2713 C869 1.479 . S
C2725 C298 1.452 . S
C2740 C923 1.482 . S
C2752 C190 1.449 . S
C2767 C413 1.470 . S
C2779 C661 1.496 . S
C2794 C467 1.461 . S
C2806 C715 1.492 . S
C2821 C769 1.465 . S
C2833 C359 1.460 . S
C2848 C491 1.507 . S
C2860 C892 1.478 . S
C2875 C545 1.473 . S
C2887 C946 1.461 . S
C2902 C599 1.502 . S
C2914 C838 1.497 . S
