# Generated by pormake.
# Topology yfu, (5)-cn, num edge types: 1
# Building blocks:
#     Node 0, Type 0, BuildingBlock: XOMCOT_clean_sbu_0, # of connection points: 5
#     Node 1, Type 0, BuildingBlock: XOMCOT_clean_sbu_0, # of connection points: 5
#     Node 2, Type 0, BuildingBlock: XOMCOT_clean_sbu_0, # of connection points: 5
#     Node 3, Type 0, BuildingBlock: XOMCOT_clean_sbu_0, # of connection points: 5
#     Node 4, Type 0, BuildingBlock: XOMCOT_clean_sbu_0, # of connection points: 5
#     Node 5, Type 0, BuildingBlock: XOMCOT_clean_sbu_0, # of connection points: 5
#     Node 6, Type 0, BuildingBlock: XOMCOT_clean_sbu_0, # of connection points: 5
#     Node 7, Type 0, BuildingBlock: XOMCOT_clean_sbu_0, # of connection points: 5
#     Node 8, Type 0, BuildingBlock: XOMCOT_clean_sbu_0, # of connection points: 5
#     Node 9, Type 0, BuildingBlock: XOMCOT_clean_sbu_0, # of connection points: 5
#     Node 10, Type 0, BuildingBlock: XOMCOT_clean_sbu_0, # of connection points: 5
#     Node 11, Type 0, BuildingBlock: XOMCOT_clean_sbu_0, # of connection points: 5
#     Node 12, Type 0, BuildingBlock: XOMCOT_clean_sbu_0, # of connection points: 5
#     Node 13, Type 0, BuildingBlock: XOMCOT_clean_sbu_0, # of connection points: 5
#     Node 14, Type 0, BuildingBlock: XOMCOT_clean_sbu_0, # of connection points: 5
#     Node 15, Type 0, BuildingBlock: XOMCOT_clean_sbu_0, # of connection points: 5
#     Node 16, Type 0, BuildingBlock: XOMCOT_clean_sbu_0, # of connection points: 5
#     Node 17, Type 0, BuildingBlock: XOMCOT_clean_sbu_0, # of connection points: 5
#     Node 18, Type 0, BuildingBlock: XOMCOT_clean_sbu_0, # of connection points: 5
#     Node 19, Type 0, BuildingBlock: XOMCOT_clean_sbu_0, # of connection points: 5
#     Node 20, Type 0, BuildingBlock: XOMCOT_clean_sbu_0, # of connection points: 5
#     Node 21, Type 0, BuildingBlock: XOMCOT_clean_sbu_0, # of connection points: 5
#     Node 22, Type 0, BuildingBlock: XOMCOT_clean_sbu_0, # of connection points: 5
#     Node 23, Type 0, BuildingBlock: XOMCOT_clean_sbu_0, # of connection points: 5
#     Node 24, Type 0, BuildingBlock: XOMCOT_clean_sbu_0, # of connection points: 5
#     Node 25, Type 0, BuildingBlock: XOMCOT_clean_sbu_0, # of connection points: 5
#     Node 26, Type 0, BuildingBlock: XOMCOT_clean_sbu_0, # of connection points: 5
#     Node 27, Type 0, BuildingBlock: XOMCOT_clean_sbu_0, # of connection points: 5
#     Node 28, Type 0, BuildingBlock: XOMCOT_clean_sbu_0, # of connection points: 5
#     Node 29, Type 0, BuildingBlock: XOMCOT_clean_sbu_0, # of connection points: 5
#     Node 30, Type 0, BuildingBlock: XOMCOT_clean_sbu_0, # of connection points: 5
#     Node 31, Type 0, BuildingBlock: XOMCOT_clean_sbu_0, # of connection points: 5
#     Edge 32, Type (0, 0), BuildingBlock: AJUNOK_clean_linker_0, # of connection points: 2
#     Edge 33, Type (0, 0), BuildingBlock: AJUNOK_clean_linker_0, # of connection points: 2
#     Edge 34, Type (0, 0), BuildingBlock: AJUNOK_clean_linker_0, # of connection points: 2
#     Edge 35, Type (0, 0), BuildingBlock: AJUNOK_clean_linker_0, # of connection points: 2
#     Edge 36, Type (0, 0), BuildingBlock: AJUNOK_clean_linker_0, # of connection points: 2
#     Edge 37, Type (0, 0), BuildingBlock: AJUNOK_clean_linker_0, # of connection points: 2
#     Edge 38, Type (0, 0), BuildingBlock: AJUNOK_clean_linker_0, # of connection points: 2
#     Edge 39, Type (0, 0), BuildingBlock: AJUNOK_clean_linker_0, # of connection points: 2
#     Edge 40, Type (0, 0), BuildingBlock: AJUNOK_clean_linker_0, # of connection points: 2
#     Edge 41, Type (0, 0), BuildingBlock: AJUNOK_clean_linker_0, # of connection points: 2
#     Edge 42, Type (0, 0), BuildingBlock: AJUNOK_clean_linker_0, # of connection points: 2
#     Edge 43, Type (0, 0), BuildingBlock: AJUNOK_clean_linker_0, # of connection points: 2
#     Edge 44, Type (0, 0), BuildingBlock: AJUNOK_clean_linker_0, # of connection points: 2
#     Edge 45, Type (0, 0), BuildingBlock: AJUNOK_clean_linker_0, # of connection points: 2
#     Edge 46, Type (0, 0), BuildingBlock: AJUNOK_clean_linker_0, # of connection points: 2
#     Edge 47, Type (0, 0), BuildingBlock: AJUNOK_clean_linker_0, # of connection points: 2
#     Edge 48, Type (0, 0), BuildingBlock: AJUNOK_clean_linker_0, # of connection points: 2
#     Edge 49, Type (0, 0), BuildingBlock: AJUNOK_clean_linker_0, # of connection points: 2
#     Edge 50, Type (0, 0), BuildingBlock: AJUNOK_clean_linker_0, # of connection points: 2
#     Edge 51, Type (0, 0), BuildingBlock: AJUNOK_clean_linker_0, # of connection points: 2
#     Edge 52, Type (0, 0), BuildingBlock: AJUNOK_clean_linker_0, # of connection points: 2
#     Edge 53, Type (0, 0), BuildingBlock: AJUNOK_clean_linker_0, # of connection points: 2
#     Edge 54, Type (0, 0), BuildingBlock: AJUNOK_clean_linker_0, # of connection points: 2
#     Edge 55, Type (0, 0), BuildingBlock: AJUNOK_clean_linker_0, # of connection points: 2
#     Edge 56, Type (0, 0), BuildingBlock: AJUNOK_clean_linker_0, # of connection points: 2
#     Edge 57, Type (0, 0), BuildingBlock: AJUNOK_clean_linker_0, # of connection points: 2
#     Edge 58, Type (0, 0), BuildingBlock: AJUNOK_clean_linker_0, # of connection points: 2
#     Edge 59, Type (0, 0), BuildingBlock: AJUNOK_clean_linker_0, # of connection points: 2
#     Edge 60, Type (0, 0), BuildingBlock: AJUNOK_clean_linker_0, # of connection points: 2
#     Edge 61, Type (0, 0), BuildingBlock: AJUNOK_clean_linker_0, # of connection points: 2
#     Edge 62, Type (0, 0), BuildingBlock: AJUNOK_clean_linker_0, # of connection points: 2
#     Edge 63, Type (0, 0), BuildingBlock: AJUNOK_clean_linker_0, # of connection points: 2
#     Edge 64, Type (0, 0), BuildingBlock: AJUNOK_clean_linker_0, # of connection points: 2
#     Edge 65, Type (0, 0), BuildingBlock: AJUNOK_clean_linker_0, # of connection points: 2
#     Edge 66, Type (0, 0), BuildingBlock: AJUNOK_clean_linker_0, # of connection points: 2
#     Edge 67, Type (0, 0), BuildingBlock: AJUNOK_clean_linker_0, # of connection points: 2
#     Edge 68, Type (0, 0), BuildingBlock: AJUNOK_clean_linker_0, # of connection points: 2
#     Edge 69, Type (0, 0), BuildingBlock: AJUNOK_clean_linker_0, # of connection points: 2
#     Edge 70, Type (0, 0), BuildingBlock: AJUNOK_clean_linker_0, # of connection points: 2
#     Edge 71, Type (0, 0), BuildingBlock: AJUNOK_clean_linker_0, # of connection points: 2
#     Edge 72, Type (0, 0), BuildingBlock: AJUNOK_clean_linker_0, # of connection points: 2
#     Edge 73, Type (0, 0), BuildingBlock: AJUNOK_clean_linker_0, # of connection points: 2
#     Edge 74, Type (0, 0), BuildingBlock: AJUNOK_clean_linker_0, # of connection points: 2
#     Edge 75, Type (0, 0), BuildingBlock: AJUNOK_clean_linker_0, # of connection points: 2
#     Edge 76, Type (0, 0), BuildingBlock: AJUNOK_clean_linker_0, # of connection points: 2
#     Edge 77, Type (0, 0), BuildingBlock: AJUNOK_clean_linker_0, # of connection points: 2
#     Edge 78, Type (0, 0), BuildingBlock: AJUNOK_clean_linker_0, # of connection points: 2
#     Edge 79, Type (0, 0), BuildingBlock: AJUNOK_clean_linker_0, # of connection points: 2
#     Edge 80, Type (0, 0), BuildingBlock: AJUNOK_clean_linker_0, # of connection points: 2
#     Edge 81, Type (0, 0), BuildingBlock: AJUNOK_clean_linker_0, # of connection points: 2
#     Edge 82, Type (0, 0), BuildingBlock: AJUNOK_clean_linker_0, # of connection points: 2
#     Edge 83, Type (0, 0), BuildingBlock: AJUNOK_clean_linker_0, # of connection points: 2
#     Edge 84, Type (0, 0), BuildingBlock: AJUNOK_clean_linker_0, # of connection points: 2
#     Edge 85, Type (0, 0), BuildingBlock: AJUNOK_clean_linker_0, # of connection points: 2
#     Edge 86, Type (0, 0), BuildingBlock: AJUNOK_clean_linker_0, # of connection points: 2
#     Edge 87, Type (0, 0), BuildingBlock: AJUNOK_clean_linker_0, # of connection points: 2
#     Edge 88, Type (0, 0), BuildingBlock: AJUNOK_clean_linker_0, # of connection points: 2
#     Edge 89, Type (0, 0), BuildingBlock: AJUNOK_clean_linker_0, # of connection points: 2
#     Edge 90, Type (0, 0), BuildingBlock: AJUNOK_clean_linker_0, # of connection points: 2
#     Edge 91, Type (0, 0), BuildingBlock: AJUNOK_clean_linker_0, # of connection points: 2
#     Edge 92, Type (0, 0), BuildingBlock: AJUNOK_clean_linker_0, # of connection points: 2
#     Edge 93, Type (0, 0), BuildingBlock: AJUNOK_clean_linker_0, # of connection points: 2
#     Edge 94, Type (0, 0), BuildingBlock: AJUNOK_clean_linker_0, # of connection points: 2
#     Edge 95, Type (0, 0), BuildingBlock: AJUNOK_clean_linker_0, # of connection points: 2
#     Edge 96, Type (0, 0), BuildingBlock: AJUNOK_clean_linker_0, # of connection points: 2
#     Edge 97, Type (0, 0), BuildingBlock: AJUNOK_clean_linker_0, # of connection points: 2
#     Edge 98, Type (0, 0), BuildingBlock: AJUNOK_clean_linker_0, # of connection points: 2
#     Edge 99, Type (0, 0), BuildingBlock: AJUNOK_clean_linker_0, # of connection points: 2
#     Edge 100, Type (0, 0), BuildingBlock: AJUNOK_clean_linker_0, # of connection points: 2
#     Edge 101, Type (0, 0), BuildingBlock: AJUNOK_clean_linker_0, # of connection points: 2
#     Edge 102, Type (0, 0), BuildingBlock: AJUNOK_clean_linker_0, # of connection points: 2
#     Edge 103, Type (0, 0), BuildingBlock: AJUNOK_clean_linker_0, # of connection points: 2
#     Edge 104, Type (0, 0), BuildingBlock: AJUNOK_clean_linker_0, # of connection points: 2
#     Edge 105, Type (0, 0), BuildingBlock: AJUNOK_clean_linker_0, # of connection points: 2
#     Edge 106, Type (0, 0), BuildingBlock: AJUNOK_clean_linker_0, # of connection points: 2
#     Edge 107, Type (0, 0), BuildingBlock: AJUNOK_clean_linker_0, # of connection points: 2
#     Edge 108, Type (0, 0), BuildingBlock: AJUNOK_clean_linker_0, # of connection points: 2
#     Edge 109, Type (0, 0), BuildingBlock: AJUNOK_clean_linker_0, # of connection points: 2
#     Edge 110, Type (0, 0), BuildingBlock: AJUNOK_clean_linker_0, # of connection points: 2
#     Edge 111, Type (0, 0), BuildingBlock: AJUNOK_clean_linker_0, # of connection points: 2
# Relax obj value: 0.354
# Max RMSD: 0.252
# Mean RMSD: 0.252
data_MOF--net-yfu--node1-XOMCOT_clean_sbu_0--edge1-AJUNOK_clean_linker_0
_symmetry_space_group_name_H-M    P1
_symmetry_Int_Tables_number       1
_symmetry_cell_setting            triclinic
loop_
_symmetry_equiv_pos_as_xyz
'x, y, z'
_cell_length_a     34.258944
_cell_length_b     34.271528
_cell_length_c     74.57228
_cell_angle_alpha  89.948092
_cell_angle_beta   89.9474
_cell_angle_gamma 89.984179
loop_
_atom_site_label
_atom_site_type_symbol
_atom_site_fract_x
_atom_site_fract_y
_atom_site_fract_z
_atom_type_partial_charge
Co0 Co 0.06901 0.07357 0.35592 0.0
C1 C 0.10399 4e-05 0.36872 0.0
C2 C 0.06 0.02064 0.38677 0.0
C3 C 0.07614 0.98719 0.3938 0.0
N4 N 0.07667 0.02798 0.37077 0.0
N5 N 0.10434 0.97445 0.38253 0.0
H6 H 0.12473 -0.00037 0.35785 0.0
H7 H 0.03788 0.03861 0.39301 0.0
C8 C 0.98491 0.04589 0.36354 0.0
O9 O 0.99403 0.00879 0.36484 0.0
N10 N 0.06224 0.11904 0.34124 0.0
C11 C 0.08619 0.13188 0.32815 0.0
C12 C 0.07252 0.16731 0.32211 0.0
C13 C 0.03444 0.14636 0.34299 0.0
N14 N 0.04012 0.17612 0.33152 0.0
C15 C 0.10508 0.03404 0.32623 0.0
C16 C 0.03781 0.02369 0.30639 0.0
C17 C 0.07386 0.01627 0.29819 0.0
C18 C 0.10774 0.02056 0.30854 0.0
C19 C 0.03639 0.03718 0.32409 0.0
N20 N 0.06978 0.04264 0.33384 0.0
H21 H 0.13177 0.03982 0.33343 0.0
H22 H 0.00835 0.04564 0.32926 0.0
H23 H 0.11234 0.11715 0.32368 0.0
H24 H 0.01177 0.14562 0.35311 0.0
O25 O 0.1244 0.08727 0.35853 0.0
O26 O 0.07665 0.10636 0.37643 0.0
O27 O 0.01033 0.07116 0.3588 0.0
C28 C 0.11322 0.10849 0.37212 0.0
H29 H 0.06737 0.97368 0.40625 0.0
H30 H 0.08561 0.18543 0.31184 0.0
H31 H 0.01091 0.02127 0.29885 0.0
H32 H 0.13624 0.01477 0.30284 0.0
Co33 Co 0.16885 0.82669 0.60631 0.0
C34 C 0.24117 0.86133 0.62087 0.0
C35 C 0.21762 0.81794 0.63849 0.0
C36 C 0.25045 0.83352 0.64631 0.0
N37 N 0.21248 0.83461 0.62231 0.0
N38 N 0.26503 0.86131 0.63532 0.0
H39 H 0.24351 0.88169 0.6099 0.0
H40 H 0.19859 0.79618 0.64432 0.0
C41 C 0.19503 0.74313 0.61564 0.0
O42 O 0.23259 0.75038 0.61664 0.0
N43 N 0.12524 0.81913 0.59055 0.0
C44 C 0.11591 0.83969 0.57576 0.0
C45 C 0.08173 0.82495 0.56884 0.0
C46 C 0.09686 0.79246 0.5925 0.0
N47 N 0.06967 0.79552 0.57954 0.0
C48 C 0.21144 0.86289 0.57757 0.0
C49 C 0.22386 0.79547 0.5581 0.0
C50 C 0.23107 0.83147 0.54982 0.0
C51 C 0.22574 0.86548 0.55999 0.0
C52 C 0.20947 0.79414 0.57564 0.0
N53 N 0.20255 0.82761 0.58511 0.0
H54 H 0.20461 0.88958 0.58458 0.0
H55 H 0.20145 0.76603 0.58088 0.0
H56 H 0.13242 0.86397 0.57046 0.0
H57 H 0.09524 0.77233 0.60365 0.0
O58 O 0.15413 0.88195 0.60862 0.0
O59 O 0.13359 0.83389 0.62599 0.0
O60 O 0.17125 0.76833 0.60935 0.0
C61 C 0.1318 0.87046 0.62181 0.0
H62 H 0.26239 0.82459 0.65906 0.0
H63 H 0.06714 0.8351 0.55686 0.0
H64 H 0.22769 0.76844 0.55079 0.0
H65 H 0.23013 0.894 0.55406 0.0
Co66 Co 0.42772 0.91959 0.86077 0.0
C67 C 0.39822 0.99578 0.87313 0.0
C68 C 0.4304 0.96617 0.8937 0.0
C69 C 0.4128 0.99841 0.90115 0.0
N70 N 0.42151 0.96467 0.87608 0.0
N71 N 0.39256 0.01678 0.88818 0.0
H72 H 0.38267 0.0011 0.86079 0.0
H73 H 0.44667 0.94406 0.90087 0.0
C74 C 0.51104 0.94438 0.87028 0.0
O75 O 0.50047 0.97981 0.87483 0.0
N76 N 0.43244 0.87457 0.84562 0.0
C77 C 0.40628 0.86223 0.83334 0.0
C78 C 0.41889 0.82721 0.8264 0.0
C79 C 0.46048 0.8472 0.84604 0.0
N80 N 0.45299 0.8184 0.83433 0.0
C81 C 0.39236 0.95915 0.83093 0.0
C82 C 0.46051 0.97455 0.81241 0.0
C83 C 0.4248 0.98096 0.80373 0.0
C84 C 0.39038 0.97377 0.8134 0.0
C85 C 0.46124 0.9598 0.82992 0.0
N86 N 0.42743 0.95166 0.83897 0.0
H87 H 0.36545 0.95194 0.83771 0.0
H88 H 0.48933 0.95323 0.83556 0.0
H89 H 0.37926 0.87692 0.8301 0.0
H90 H 0.48491 0.84732 0.85523 0.0
O91 O 0.37205 0.90789 0.8637 0.0
O92 O 0.41938 0.88603 0.88106 0.0
O93 O 0.48663 0.92061 0.86327 0.0
C94 C 0.38247 0.88631 0.87731 0.0
H95 H 0.41283 0.0064 0.91519 0.0
H96 H 0.40391 0.80915 0.8167 0.0
H97 H 0.48785 0.97979 0.80551 0.0
H98 H 0.36207 0.97747 0.80718 0.0
Co99 Co 0.32436 0.1798 0.10891 0.0
C100 C 0.24746 0.15116 0.12135 0.0
C101 C 0.27847 0.18111 0.14215 0.0
C102 C 0.24529 0.1649 0.14946 0.0
N103 N 0.27977 0.17252 0.12449 0.0
N104 N 0.22587 0.14636 0.1363 0.0
H105 H 0.24112 0.13672 0.10885 0.0
H106 H 0.30102 0.19654 0.14939 0.0
C107 C 0.29637 0.26183 0.11817 0.0
O108 O 0.26052 0.25003 0.12121 0.0
N109 N 0.36886 0.18611 0.09357 0.0
C110 C 0.37854 0.16406 0.07927 0.0
C111 C 0.41354 0.17721 0.07254 0.0
C112 C 0.39798 0.21192 0.09553 0.0
N113 N 0.42548 0.20726 0.08279 0.0
C114 C 0.28271 0.14473 0.07958 0.0
C115 C 0.27055 0.21272 0.06044 0.0
C116 C 0.26231 0.17701 0.05215 0.0
C117 C 0.26796 0.14271 0.06207 0.0
C118 C 0.28546 0.21349 0.07789 0.0
N119 N 0.2918 0.17976 0.08729 0.0
H120 H 0.28877 0.11783 0.08659 0.0
H121 H 0.29418 0.24137 0.08312 0.0
H122 H 0.36209 0.13935 0.07442 0.0
H123 H 0.39945 0.23312 0.10626 0.0
O124 O 0.3373 0.12428 0.11128 0.0
O125 O 0.35852 0.1713 0.12896 0.0
O126 O 0.32204 0.2384 0.11192 0.0
C127 C 0.35884 0.13455 0.12491 0.0
H128 H 0.23699 0.1651 0.16347 0.0
H129 H 0.42981 0.16456 0.06153 0.0
H130 H 0.26768 0.2399 0.05313 0.0
H131 H 0.26212 0.11445 0.05617 0.0
Co132 Co 0.07092 0.92512 0.16298 0.0
C133 C 0.10089 0.00384 0.15403 0.0
C134 C 0.07747 0.97475 0.13102 0.0
C135 C 0.09499 0.00876 0.12546 0.0
N136 N 0.08115 0.97163 0.14897 0.0
N137 N 0.10974 0.02707 0.13995 0.0
H138 H 0.11033 0.0095 0.16756 0.0
H139 H 0.06466 0.95286 0.12241 0.0
C140 C 0.99001 0.95569 0.15248 0.0
O141 O 0.00332 0.98989 0.14746 0.0
N142 N 0.06179 0.87877 0.17673 0.0
C143 C 0.085 0.86354 0.18951 0.0
C144 C 0.06934 0.82854 0.19496 0.0
C145 C 0.03257 0.85315 0.1745 0.0
N146 N 0.03659 0.82204 0.1854 0.0
C147 C 0.10689 0.95907 0.19405 0.0
C148 C 0.03884 0.97556 0.21244 0.0
C149 C 0.07451 0.97948 0.22145 0.0
C150 C 0.1089 0.97175 0.21188 0.0
C151 C 0.03806 0.96285 0.19461 0.0
N152 N 0.0718 0.9542 0.18561 0.0
H153 H 0.1337 0.95164 0.18724 0.0
H154 H 0.00992 0.95829 0.18859 0.0
H155 H 0.11199 0.87633 0.19416 0.0
H156 H 0.00911 0.85716 0.165 0.0
O157 O 0.12583 0.91003 0.16066 0.0
O158 O 0.07886 0.89328 0.14198 0.0
O159 O 0.01248 0.93061 0.15988 0.0
C160 C 0.11533 0.89052 0.14645 0.0
H161 H 0.09908 0.01757 0.11165 0.0
H162 H 0.08179 0.80873 0.20472 0.0
H163 H 0.01153 0.9813 0.21929 0.0
H164 H 0.13712 0.97367 0.21835 0.0
Co165 Co 0.32532 0.82451 0.41543 0.0
C166 C 0.25002 0.85697 0.40384 0.0
C167 C 0.2726 0.81736 0.38423 0.0
C168 C 0.23821 0.83305 0.37785 0.0
N169 N 0.27933 0.83166 0.40077 0.0
N170 N 0.22395 0.85789 0.39028 0.0
H171 H 0.24933 0.8765 0.41512 0.0
H172 H 0.29169 0.79743 0.37718 0.0
C173 C 0.29645 0.74121 0.40829 0.0
O174 O 0.2599 0.75187 0.4063 0.0
N175 N 0.37097 0.81868 0.43004 0.0
C176 C 0.38123 0.84039 0.44439 0.0
C177 C 0.41691 0.82772 0.4505 0.0
C178 C 0.40046 0.79361 0.42743 0.0
N179 N 0.42877 0.79864 0.43971 0.0
C180 C 0.28725 0.86259 0.44512 0.0
C181 C 0.27359 0.79594 0.46502 0.0
C182 C 0.26775 0.83228 0.47315 0.0
C183 C 0.27375 0.86593 0.4628 0.0
C184 C 0.28732 0.79386 0.44739 0.0
N185 N 0.29459 0.82691 0.43762 0.0
H186 H 0.29415 0.88894 0.43783 0.0
H187 H 0.2943 0.7654 0.44228 0.0
H188 H 0.36478 0.86464 0.4497 0.0
H189 H 0.40168 0.77282 0.41651 0.0
O190 O 0.33948 0.87949 0.4117 0.0
O191 O 0.35753 0.83031 0.39455 0.0
O192 O 0.32232 0.76564 0.41345 0.0
C193 C 0.35947 0.8673 0.39785 0.0
H194 H 0.22527 0.82727 0.36489 0.0
H195 H 0.4337 0.84002 0.46141 0.0
H196 H 0.26969 0.7692 0.47257 0.0
H197 H 0.2692 0.89464 0.46849 0.0
Co198 Co 0.422 0.07655 0.66881 0.0
C199 C 0.38877 0.00085 0.65854 0.0
C200 C 0.43106 0.02001 0.63932 0.0
C201 C 0.41429 0.98604 0.63317 0.0
N202 N 0.41577 0.02864 0.65548 0.0
N203 N 0.38758 0.97399 0.6453 0.0
H204 H 0.36802 0.00231 0.66937 0.0
H205 H 0.45164 0.03808 0.63209 0.0
C206 C 0.50658 0.05324 0.65952 0.0
O207 O 0.50144 0.01529 0.65998 0.0
N208 N 0.42734 0.12433 0.682 0.0
C209 C 0.40555 0.13677 0.69594 0.0
C210 C 0.41957 0.1725 0.70143 0.0
C211 C 0.45376 0.1525 0.67903 0.0
N212 N 0.44985 0.18204 0.69075 0.0
C213 C 0.38902 0.03981 0.69997 0.0
C214 C 0.45802 0.03024 0.71862 0.0
C215 C 0.42271 0.02268 0.72748 0.0
C216 C 0.38795 0.02671 0.71775 0.0
C217 C 0.45784 0.0434 0.70082 0.0
N218 N 0.42359 0.04843 0.69168 0.0
H219 H 0.3617 0.04492 0.69317 0.0
H220 H 0.48539 0.05137 0.69494 0.0
H221 H 0.38096 0.12126 0.70158 0.0
H222 H 0.47555 0.1515 0.66856 0.0
O223 O 0.36604 0.08738 0.66633 0.0
O224 O 0.41199 0.1057 0.64735 0.0
O225 O 0.48041 0.07661 0.6653 0.0
C226 C 0.37545 0.10626 0.65173 0.0
H227 H 0.42023 0.97225 0.62041 0.0
H228 H 0.40785 0.19046 0.71209 0.0
H229 H 0.48556 0.02781 0.72566 0.0
H230 H 0.36 0.02071 0.72396 0.0
Co231 Co 0.17192 0.17383 0.917 0.0
C232 C 0.24905 0.14131 0.90769 0.0
C233 C 0.22135 0.16741 0.88491 0.0
C234 C 0.25419 0.14792 0.87915 0.0
N235 N 0.21817 0.1633 0.90286 0.0
N236 N 0.27121 0.13103 0.89348 0.0
H237 H 0.25451 0.13163 0.9212 0.0
H238 H 0.20011 0.18178 0.87645 0.0
C239 C 0.20146 0.25438 0.90542 0.0
O240 O 0.2365 0.24142 0.90154 0.0
N241 N 0.12587 0.18298 0.93104 0.0
C242 C 0.11173 0.15994 0.9442 0.0
C243 C 0.07792 0.17634 0.9507 0.0
C244 C 0.10071 0.21287 0.92963 0.0
N245 N 0.07147 0.20969 0.94161 0.0
C246 C 0.20724 0.1408 0.94843 0.0
C247 C 0.22162 0.2104 0.96584 0.0
C248 C 0.22539 0.17548 0.9755 0.0
C249 C 0.2193 0.1403 0.96636 0.0
C250 C 0.20952 0.20967 0.94792 0.0
N251 N 0.20169 0.17517 0.93943 0.0
H252 H 0.20058 0.11337 0.94203 0.0
H253 H 0.20455 0.23726 0.94142 0.0
H254 H 0.1247 0.1328 0.94857 0.0
H255 H 0.10287 0.23569 0.91964 0.0
O256 O 0.15799 0.11858 0.91576 0.0
O257 O 0.13979 0.16371 0.89633 0.0
O258 O 0.17614 0.23207 0.91278 0.0
C259 C 0.13827 0.12755 0.90139 0.0
H260 H 0.26332 0.14421 0.86536 0.0
H261 H 0.0593 0.16459 0.96112 0.0
H262 H 0.22682 0.23827 0.97225 0.0
H263 H 0.22189 0.1126 0.97327 0.0
Co264 Co 0.91757 0.91911 0.66729 0.0
C265 C 0.88581 0.99586 0.6572 0.0
C266 C 0.92782 0.976 0.63801 0.0
C267 C 0.91258 0.01091 0.63212 0.0
N268 N 0.91175 0.96717 0.654 0.0
N269 N 0.88614 0.02343 0.64425 0.0
H270 H 0.86488 0.99492 0.66797 0.0
H271 H 0.94819 0.95767 0.6308 0.0
C272 C 0.0019 0.94353 0.65881 0.0
O273 O 0.9962 0.98122 0.66058 0.0
N274 N 0.92256 0.87118 0.68035 0.0
C275 C 0.90204 0.85976 0.69488 0.0
C276 C 0.91381 0.82272 0.69955 0.0
C277 C 0.94593 0.8411 0.67618 0.0
N278 N 0.94102 0.81116 0.68764 0.0
C279 C 0.88537 0.95731 0.6983 0.0
C280 C 0.95447 0.96407 0.71711 0.0
C281 C 0.91954 0.97447 0.72566 0.0
C282 C 0.88468 0.97122 0.71596 0.0
C283 C 0.95389 0.95017 0.69948 0.0
N284 N 0.91964 0.947 0.69018 0.0
H285 H 0.85793 0.95295 0.6915 0.0
H286 H 0.98099 0.94002 0.69389 0.0
H287 H 0.87974 0.87683 0.70147 0.0
H288 H 0.9662 0.84119 0.66505 0.0
O289 O 0.86151 0.90843 0.66495 0.0
O290 O 0.90735 0.89033 0.64584 0.0
O291 O 0.97588 0.91895 0.66361 0.0
C292 C 0.87087 0.88971 0.6503 0.0
H293 H 0.91952 0.02523 0.61958 0.0
H294 H 0.90282 0.80533 0.71058 0.0
H295 H 0.98195 0.96487 0.72427 0.0
H296 H 0.85697 0.97853 0.7221 0.0
Co297 Co 0.82713 0.17435 0.41539 0.0
C298 C 0.75242 0.1405 0.40333 0.0
C299 C 0.77202 0.18556 0.3856 0.0
C300 C 0.73805 0.17007 0.37884 0.0
N301 N 0.78035 0.1678 0.40125 0.0
N302 N 0.72596 0.14121 0.38989 0.0
H303 H 0.75262 0.11899 0.41388 0.0
H304 H 0.78969 0.20799 0.3794 0.0
C305 C 0.79825 0.25836 0.40951 0.0
O306 O 0.76118 0.24866 0.40949 0.0
N307 N 0.87377 0.18012 0.42931 0.0
C308 C 0.88568 0.15739 0.44301 0.0
C309 C 0.92048 0.17182 0.44939 0.0
C310 C 0.90128 0.20768 0.42737 0.0
N311 N 0.92996 0.20345 0.43956 0.0
C312 C 0.78804 0.13848 0.44541 0.0
C313 C 0.78105 0.20528 0.46586 0.0
C314 C 0.77178 0.16937 0.4738 0.0
C315 C 0.77491 0.13569 0.46319 0.0
C316 C 0.79437 0.20678 0.44813 0.0
N317 N 0.79777 0.17368 0.438 0.0
H318 H 0.79285 0.11185 0.43802 0.0
H319 H 0.80423 0.23457 0.44322 0.0
H320 H 0.87048 0.13183 0.44784 0.0
H321 H 0.90048 0.23023 0.41721 0.0
O322 O 0.8395 0.11889 0.41236 0.0
O323 O 0.85806 0.16622 0.39417 0.0
O324 O 0.82478 0.23312 0.41282 0.0
C325 C 0.85905 0.12939 0.39811 0.0
H326 H 0.72375 0.17966 0.36671 0.0
H327 H 0.93805 0.15929 0.45999 0.0
H328 H 0.77934 0.23209 0.4735 0.0
H329 H 0.76933 0.10711 0.46884 0.0
Co330 Co 0.57131 0.07821 0.16537 0.0
C331 C 0.60454 0.00273 0.15464 0.0
C332 C 0.56563 0.02492 0.13459 0.0
C333 C 0.58306 0.99158 0.12804 0.0
N334 N 0.57856 0.03137 0.15143 0.0
N335 N 0.60755 0.97806 0.1407 0.0
H336 H 0.62299 0.00121 0.16633 0.0
H337 H 0.54635 0.0442 0.12727 0.0
C338 C 0.48765 0.05118 0.15704 0.0
O339 O 0.49714 0.01431 0.15516 0.0
N340 N 0.56484 0.12496 0.17909 0.0
C341 C 0.58658 0.13737 0.19302 0.0
C342 C 0.57159 0.17236 0.19893 0.0
C343 C 0.53748 0.15237 0.17652 0.0
N344 N 0.54071 0.18142 0.18854 0.0
C345 C 0.60588 0.04085 0.19598 0.0
C346 C 0.5377 0.02901 0.21501 0.0
C347 C 0.57339 0.02132 0.2235 0.0
C348 C 0.60777 0.02699 0.21363 0.0
C349 C 0.53706 0.04298 0.19735 0.0
N350 N 0.5709 0.0489 0.18797 0.0
H351 H 0.63289 0.04702 0.18909 0.0
H352 H 0.50917 0.05079 0.19181 0.0
H353 H 0.61183 0.12242 0.19833 0.0
H354 H 0.51569 0.1512 0.16604 0.0
O355 O 0.6269 0.09027 0.16294 0.0
O356 O 0.58067 0.10904 0.14423 0.0
O357 O 0.51271 0.07631 0.16228 0.0
C358 C 0.61727 0.10987 0.14861 0.0
H359 H 0.58021 0.97984 0.11464 0.0
H360 H 0.58316 0.19025 0.20963 0.0
H361 H 0.51038 0.02524 0.22212 0.0
H362 H 0.6361 0.02261 0.21973 0.0
Co363 Co 0.67523 0.81371 0.91635 0.0
C364 C 0.74973 0.84741 0.90374 0.0
C365 C 0.72201 0.81276 0.88348 0.0
C366 C 0.75385 0.83097 0.87596 0.0
N367 N 0.71967 0.82279 0.90095 0.0
N368 N 0.77097 0.85284 0.88872 0.0
H369 H 0.75436 0.86354 0.91597 0.0
H370 H 0.70098 0.7948 0.87651 0.0
C371 C 0.70487 0.73242 0.90633 0.0
O372 O 0.74067 0.74454 0.90345 0.0
N373 N 0.63063 0.8054 0.93139 0.0
C374 C 0.61878 0.82745 0.94532 0.0
C375 C 0.58362 0.81318 0.95138 0.0
C376 C 0.60277 0.77838 0.92904 0.0
N377 N 0.57379 0.78232 0.94113 0.0
C378 C 0.71469 0.84886 0.94614 0.0
C379 C 0.73057 0.7807 0.96456 0.0
C380 C 0.73581 0.8164 0.97334 0.0
C381 C 0.72866 0.85081 0.96375 0.0
C382 C 0.71597 0.77997 0.94702 0.0
N383 N 0.70757 0.8138 0.93803 0.0
H384 H 0.70742 0.87578 0.9394 0.0
H385 H 0.70934 0.75192 0.94134 0.0
H386 H 0.63373 0.85304 0.95025 0.0
H387 H 0.60316 0.75695 0.91839 0.0
O388 O 0.66111 0.86899 0.91458 0.0
O389 O 0.64115 0.82257 0.89625 0.0
O390 O 0.67899 0.75532 0.91282 0.0
C391 C 0.6402 0.8591 0.90071 0.0
H392 H 0.7627 0.82963 0.86203 0.0
H393 H 0.56575 0.82582 0.96185 0.0
H394 H 0.7355 0.75345 0.97158 0.0
H395 H 0.73259 0.87903 0.97002 0.0
Co396 Co 0.92813 0.07294 0.85905 0.0
C397 C 0.89646 0.99603 0.86974 0.0
C398 C 0.91187 0.03046 0.89262 0.0
C399 C 0.89267 0.99761 0.89848 0.0
N400 N 0.91426 0.02955 0.87453 0.0
N401 N 0.8825 0.97634 0.88405 0.0
H402 H 0.89244 0.98664 0.85608 0.0
H403 H 0.92184 0.05414 0.90101 0.0
C404 C 0.0064 0.04365 0.87314 0.0
O405 O 0.99014 0.01553 0.88244 0.0
N406 N 0.94058 0.11609 0.84369 0.0
C407 C 0.91961 0.12935 0.82968 0.0
C408 C 0.93683 0.16288 0.82338 0.0
C409 C 0.96991 0.14161 0.84585 0.0
N410 N 0.96853 0.17035 0.83352 0.0
C411 C 0.88998 0.03694 0.82902 0.0
C412 C 0.95726 0.01436 0.81139 0.0
C413 C 0.92183 0.01355 0.80203 0.0
C414 C 0.88764 0.02348 0.81131 0.0
C415 C 0.95838 0.02795 0.82905 0.0
N416 N 0.92519 0.04042 0.83751 0.0
H417 H 0.8636 0.04664 0.83557 0.0
H418 H 0.98655 0.03022 0.83533 0.0
H419 H 0.89264 0.11674 0.82493 0.0
H420 H 0.99075 0.14012 0.85671 0.0
O421 O 0.87438 0.09229 0.86075 0.0
O422 O 0.92303 0.10875 0.8787 0.0
O423 O 0.98614 0.0642 0.86227 0.0
C424 C 0.8869 0.11353 0.87406 0.0
H425 H 0.88449 0.99119 0.9122 0.0
H426 H 0.92544 0.18154 0.8129 0.0
H427 H 0.98424 0.00588 0.80488 0.0
H428 H 0.85958 0.02296 0.80464 0.0
Co429 Co 0.6711 0.17553 0.60721 0.0
C430 C 0.74395 0.14139 0.62113 0.0
C431 C 0.72106 0.18454 0.63901 0.0
C432 C 0.75407 0.16867 0.64659 0.0
N433 N 0.71543 0.16817 0.62281 0.0
N434 N 0.76821 0.14104 0.63541 0.0
H435 H 0.74576 0.12105 0.61013 0.0
H436 H 0.70229 0.20637 0.64497 0.0
C437 C 0.70056 0.25853 0.6144 0.0
O438 O 0.7372 0.2478 0.61593 0.0
N439 N 0.62678 0.18191 0.59179 0.0
C440 C 0.61466 0.1569 0.57902 0.0
C441 C 0.57959 0.16995 0.57236 0.0
C442 C 0.5993 0.20979 0.59275 0.0
N443 N 0.57029 0.20322 0.58097 0.0
C444 C 0.71163 0.13776 0.57819 0.0
C445 C 0.72558 0.20438 0.5583 0.0
C446 C 0.7322 0.16806 0.55028 0.0
C447 C 0.72593 0.13444 0.56062 0.0
C448 C 0.71085 0.20645 0.57577 0.0
N449 N 0.70364 0.17342 0.58557 0.0
H450 H 0.7047 0.11139 0.58544 0.0
H451 H 0.70293 0.23483 0.58067 0.0
H452 H 0.62943 0.13021 0.57532 0.0
H453 H 0.59927 0.23295 0.60261 0.0
O454 O 0.6568 0.12041 0.61031 0.0
O455 O 0.6367 0.16923 0.62732 0.0
O456 O 0.67434 0.23422 0.60954 0.0
C457 C 0.63492 0.13242 0.62354 0.0
H458 H 0.76637 0.17718 0.65933 0.0
H459 H 0.56174 0.15564 0.56236 0.0
H460 H 0.72952 0.23109 0.55072 0.0
H461 H 0.73088 0.10574 0.55499 0.0
Co462 Co 0.57539 0.92106 0.35743 0.0
C463 C 0.60717 0.99696 0.36858 0.0
C464 C 0.56847 0.97387 0.38848 0.0
C465 C 0.58414 0.00822 0.39483 0.0
N466 N 0.58217 0.96747 0.37179 0.0
N467 N 0.60845 0.02279 0.38223 0.0
H468 H 0.6264 0.99784 0.35718 0.0
H469 H 0.54919 0.9544 0.3957 0.0
C470 C 0.49108 0.9468 0.36574 0.0
O471 O 0.50012 0.98366 0.36804 0.0
N472 N 0.56951 0.87486 0.3432 0.0
C473 C 0.58825 0.86535 0.32788 0.0
C474 C 0.57355 0.83046 0.32171 0.0
C475 C 0.54448 0.84562 0.34638 0.0
N476 N 0.54613 0.81845 0.33341 0.0
C477 C 0.60929 0.96057 0.32709 0.0
C478 C 0.54069 0.97152 0.30829 0.0
C479 C 0.57615 0.97943 0.29968 0.0
C480 C 0.61074 0.97471 0.30947 0.0
C481 C 0.5405 0.95721 0.32587 0.0
N482 N 0.57454 0.95149 0.33511 0.0
H483 H 0.63647 0.95477 0.3339 0.0
H484 H 0.5128 0.94862 0.33137 0.0
H485 H 0.61108 0.88232 0.32163 0.0
H486 H 0.52524 0.84431 0.35789 0.0
O487 O 0.63116 0.90922 0.35984 0.0
O488 O 0.58471 0.88957 0.3783 0.0
O489 O 0.5167 0.92208 0.36057 0.0
C490 C 0.6214 0.88935 0.37411 0.0
H491 H 0.5789 0.02082 0.40791 0.0
H492 H 0.58276 0.81474 0.30985 0.0
H493 H 0.5133 0.97433 0.30115 0.0
H494 H 0.63881 0.98076 0.30338 0.0
Co495 Co 0.82775 0.82572 0.10879 0.0
C496 C 0.7549 0.86378 0.11988 0.0
C497 C 0.76211 0.80992 0.13403 0.0
C498 C 0.72823 0.82743 0.13993 0.0
N499 N 0.7784 0.83235 0.12113 0.0
N500 N 0.72416 0.86132 0.13105 0.0
H501 H 0.7607 0.88883 0.11152 0.0
H502 H 0.7744 0.78354 0.13945 0.0
C503 C 0.80504 0.73888 0.11405 0.0
O504 O 0.76996 0.74174 0.10708 0.0
N505 N 0.87634 0.82049 0.09628 0.0
C506 C 0.88953 0.84503 0.08349 0.0
C507 C 0.92443 0.83112 0.07712 0.0
C508 C 0.90304 0.79194 0.09753 0.0
N509 N 0.93245 0.79768 0.08584 0.0
C510 C 0.7865 0.85327 0.07768 0.0
C511 C 0.7926 0.78543 0.05789 0.0
C512 C 0.77644 0.81854 0.04965 0.0
C513 C 0.77361 0.85282 0.05987 0.0
C514 C 0.80567 0.78731 0.07566 0.0
N515 N 0.80172 0.82066 0.08556 0.0
H516 H 0.78655 0.8807 0.0847 0.0
H517 H 0.82102 0.76244 0.08099 0.0
H518 H 0.87454 0.87103 0.07899 0.0
H519 H 0.90131 0.76778 0.10685 0.0
O520 O 0.83739 0.88207 0.10981 0.0
O521 O 0.85509 0.83918 0.13034 0.0
O522 O 0.82828 0.76796 0.1142 0.0
C523 C 0.85587 0.87497 0.12477 0.0
H524 H 0.70913 0.81712 0.15049 0.0
H525 H 0.94231 0.84411 0.06673 0.0
H526 H 0.79616 0.75846 0.05051 0.0
H527 H 0.7633 0.87974 0.05393 0.0
Co528 Co 0.57487 0.57596 0.85701 0.0
C529 C 0.61378 0.5048 0.87005 0.0
C530 C 0.55722 0.51023 0.88199 0.0
C531 C 0.57445 0.47667 0.88842 0.0
N532 N 0.5815 0.52736 0.87006 0.0
N533 N 0.6099 0.47356 0.88084 0.0
H534 H 0.64019 0.5114 0.86275 0.0
H535 H 0.52959 0.52166 0.88644 0.0
C536 C 0.48709 0.5543 0.86148 0.0
O537 O 0.48881 0.51927 0.8544 0.0
N538 N 0.5693 0.62391 0.84395 0.0
C539 C 0.58756 0.63317 0.82854 0.0
C540 C 0.57269 0.66784 0.82235 0.0
C541 C 0.54436 0.65326 0.84723 0.0
N542 N 0.5457 0.68063 0.83419 0.0
C543 C 0.60368 0.53135 0.82713 0.0
C544 C 0.53821 0.53948 0.8058 0.0
C545 C 0.5719 0.52291 0.79834 0.0
C546 C 0.60468 0.51824 0.80936 0.0
C547 C 0.53852 0.5525 0.8236 0.0
N548 N 0.57093 0.54825 0.83414 0.0
H549 H 0.63025 0.5303 0.8348 0.0
H550 H 0.51358 0.56862 0.82838 0.0
H551 H 0.60904 0.61517 0.82188 0.0
H552 H 0.52538 0.65424 0.85883 0.0
O553 O 0.63112 0.58645 0.85838 0.0
O554 O 0.58701 0.60439 0.87835 0.0
O555 O 0.51699 0.57645 0.86188 0.0
C556 C 0.62312 0.60496 0.87326 0.0
H557 H 0.56263 0.45699 0.89841 0.0
H558 H 0.58006 0.68131 0.80969 0.0
H559 H 0.51253 0.54439 0.79764 0.0
H560 H 0.63137 0.50568 0.80412 0.0
Co561 Co 0.6705 0.32011 0.10668 0.0
C562 C 0.74483 0.35232 0.1204 0.0
C563 C 0.7144 0.31892 0.14033 0.0
C564 C 0.74612 0.33633 0.1483 0.0
N565 N 0.7137 0.32883 0.12281 0.0
N566 N 0.76502 0.35723 0.13571 0.0
H567 H 0.75112 0.36805 0.1082 0.0
H568 H 0.69234 0.30163 0.14702 0.0
C569 C 0.70003 0.23849 0.11633 0.0
O570 O 0.73533 0.2507 0.12023 0.0
N571 N 0.62719 0.31179 0.0909 0.0
C572 C 0.61489 0.33477 0.07738 0.0
C573 C 0.57997 0.32026 0.07112 0.0
C574 C 0.60007 0.28384 0.09271 0.0
N575 N 0.57087 0.28825 0.08081 0.0
C576 C 0.71199 0.35782 0.07806 0.0
C577 C 0.72738 0.29121 0.05846 0.0
C578 C 0.73418 0.3276 0.05046 0.0
C579 C 0.72714 0.3612 0.06067 0.0
C580 C 0.7123 0.28907 0.07589 0.0
N581 N 0.70418 0.32214 0.08546 0.0
H582 H 0.70448 0.38417 0.0852 0.0
H583 H 0.70501 0.26063 0.08099 0.0
H584 H 0.62914 0.36127 0.07303 0.0
H585 H 0.60077 0.26183 0.10311 0.0
O586 O 0.65524 0.37509 0.109 0.0
O587 O 0.63449 0.32686 0.12624 0.0
O588 O 0.67488 0.26164 0.10949 0.0
C589 C 0.63278 0.36353 0.12209 0.0
H590 H 0.75362 0.33538 0.1624 0.0
H591 H 0.56158 0.33371 0.06107 0.0
H592 H 0.73236 0.26449 0.05106 0.0
H593 H 0.73118 0.38996 0.05494 0.0
Co594 Co 0.92266 0.41845 0.35955 0.0
C595 C 0.88931 0.49359 0.37094 0.0
C596 C 0.93747 0.47742 0.3876 0.0
C597 C 0.92197 0.51175 0.394 0.0
N598 N 0.91761 0.46661 0.37283 0.0
N599 N 0.89126 0.52167 0.38361 0.0
H600 H 0.86626 0.49158 0.36115 0.0
H601 H 0.96091 0.46108 0.39369 0.0
C602 C 0.00845 0.44277 0.36535 0.0
O603 O 0.00336 0.48008 0.36209 0.0
N604 N 0.92671 0.37065 0.34634 0.0
C605 C 0.90143 0.35764 0.33387 0.0
C606 C 0.91483 0.32255 0.32738 0.0
C607 C 0.95501 0.34362 0.34736 0.0
N608 N 0.94861 0.31422 0.33578 0.0
C609 C 0.88956 0.4575 0.32894 0.0
C610 C 0.95735 0.46075 0.30886 0.0
C611 C 0.92221 0.47195 0.30079 0.0
C612 C 0.88806 0.47074 0.31116 0.0
C613 C 0.95754 0.44732 0.32658 0.0
N614 N 0.924 0.44609 0.33656 0.0
H615 H 0.86252 0.4544 0.33622 0.0
H616 H 0.98449 0.4357 0.33168 0.0
H617 H 0.87509 0.3726 0.32979 0.0
H618 H 0.97931 0.34496 0.3566 0.0
O619 O 0.86661 0.40815 0.36254 0.0
O620 O 0.91312 0.38961 0.38113 0.0
O621 O 0.98105 0.41817 0.3628 0.0
C622 C 0.87644 0.38907 0.37703 0.0
H623 H 0.93265 0.52774 0.40546 0.0
H624 H 0.90108 0.30465 0.31724 0.0
H625 H 0.98426 0.46041 0.30121 0.0
H626 H 0.86021 0.47904 0.30544 0.0
Co627 Co 0.82949 0.67599 0.60777 0.0
C628 C 0.75356 0.64445 0.62039 0.0
C629 C 0.78509 0.67343 0.64134 0.0
C630 C 0.7526 0.65611 0.64873 0.0
N631 N 0.78564 0.66622 0.62354 0.0
N632 N 0.73285 0.63813 0.6355 0.0
H633 H 0.74673 0.631 0.60772 0.0
H634 H 0.80766 0.68884 0.64857 0.0
C635 C 0.79862 0.75612 0.61844 0.0
O636 O 0.76351 0.7424 0.62156 0.0
N637 N 0.87342 0.68455 0.59223 0.0
C638 C 0.88556 0.66038 0.57909 0.0
C639 C 0.91996 0.67452 0.57214 0.0
C640 C 0.90024 0.71314 0.5931 0.0
N641 N 0.92864 0.7077 0.58087 0.0
C642 C 0.78739 0.64272 0.57822 0.0
C643 C 0.77574 0.71163 0.55974 0.0
C644 C 0.76736 0.67632 0.55108 0.0
C645 C 0.77275 0.64158 0.56069 0.0
C646 C 0.79046 0.71152 0.57725 0.0
N647 N 0.79644 0.67733 0.58634 0.0
H648 H 0.79331 0.61544 0.58494 0.0
H649 H 0.79946 0.73907 0.58276 0.0
H650 H 0.87119 0.63356 0.57528 0.0
H651 H 0.90009 0.7363 0.60296 0.0
O652 O 0.84299 0.62064 0.60869 0.0
O653 O 0.86466 0.6656 0.6274 0.0
O654 O 0.82554 0.73427 0.61202 0.0
C655 C 0.86502 0.62938 0.62235 0.0
H656 H 0.74494 0.65531 0.66281 0.0
H657 H 0.93782 0.66104 0.56189 0.0
H658 H 0.77316 0.73914 0.55268 0.0
H659 H 0.76681 0.61361 0.55452 0.0
Co660 Co 0.57638 0.42062 0.6649 0.0
C661 C 0.60588 0.49836 0.65504 0.0
C662 C 0.57949 0.46967 0.63261 0.0
C663 C 0.59761 0.50301 0.62658 0.0
N664 N 0.5845 0.46687 0.6505 0.0
N665 N 0.61428 0.52106 0.64072 0.0
H666 H 0.61722 0.50334 0.66834 0.0
H667 H 0.56575 0.44774 0.62432 0.0
C668 C 0.49489 0.44404 0.65245 0.0
O669 O 0.50394 0.48002 0.64811 0.0
N670 N 0.56944 0.37438 0.67923 0.0
C671 C 0.59424 0.35935 0.69147 0.0
C672 C 0.57889 0.32486 0.69786 0.0
C673 C 0.53971 0.34893 0.67823 0.0
N674 N 0.54468 0.31862 0.68946 0.0
C675 C 0.6104 0.45295 0.69672 0.0
C676 C 0.54222 0.48087 0.71179 0.0
C677 C 0.57633 0.48102 0.72219 0.0
C678 C 0.61091 0.46745 0.71426 0.0
C679 C 0.54291 0.46593 0.69431 0.0
N680 N 0.57652 0.45115 0.68709 0.0
H681 H 0.63714 0.4415 0.69115 0.0
H682 H 0.51587 0.46535 0.68699 0.0
H683 H 0.62215 0.37172 0.69507 0.0
H684 H 0.51512 0.35193 0.66931 0.0
O685 O 0.63189 0.40753 0.66217 0.0
O686 O 0.5846 0.3885 0.64415 0.0
O687 O 0.51781 0.42306 0.66194 0.0
C688 C 0.62133 0.3874 0.64813 0.0
H689 H 0.60099 0.51132 0.61267 0.0
H690 H 0.59263 0.30505 0.70724 0.0
H691 H 0.51493 0.49153 0.71726 0.0
H692 H 0.6379 0.46636 0.72178 0.0
Co693 Co 0.83243 0.33009 0.91612 0.0
C694 C 0.75549 0.3596 0.90562 0.0
C695 C 0.77833 0.32067 0.88572 0.0
C696 C 0.74387 0.33625 0.87941 0.0
N697 N 0.78503 0.33466 0.90235 0.0
N698 N 0.72983 0.36071 0.89198 0.0
H699 H 0.7539 0.37847 0.91719 0.0
H700 H 0.79808 0.30195 0.87836 0.0
C701 C 0.80942 0.24579 0.90761 0.0
O702 O 0.77164 0.25191 0.90678 0.0
N703 N 0.87967 0.32693 0.92989 0.0
C704 C 0.89344 0.3539 0.94142 0.0
C705 C 0.92883 0.34132 0.94796 0.0
C706 C 0.90658 0.29845 0.92953 0.0
N707 N 0.93682 0.30654 0.9404 0.0
C708 C 0.79744 0.3661 0.94706 0.0
C709 C 0.78119 0.29796 0.96543 0.0
C710 C 0.77649 0.33358 0.97438 0.0
C711 C 0.7839 0.36805 0.96479 0.0
C712 C 0.79484 0.29727 0.94776 0.0
N713 N 0.80346 0.33102 0.93879 0.0
H714 H 0.80457 0.39293 0.9402 0.0
H715 H 0.79998 0.26915 0.94187 0.0
H716 H 0.87911 0.3811 0.94466 0.0
H717 H 0.90476 0.27276 0.9212 0.0
O718 O 0.84337 0.38571 0.91197 0.0
O719 O 0.86249 0.33712 0.8947 0.0
O720 O 0.83245 0.27136 0.91419 0.0
C721 C 0.86305 0.37417 0.89791 0.0
H722 H 0.73159 0.33217 0.86618 0.0
H723 H 0.94717 0.35646 0.95749 0.0
H724 H 0.77603 0.27058 0.97231 0.0
H725 H 0.77996 0.3963 0.97103 0.0
Co726 Co 0.92058 0.5757 0.16742 0.0
C727 C 0.88934 0.49883 0.15731 0.0
C728 C 0.91688 0.52715 0.13504 0.0
C729 C 0.89774 0.4945 0.12885 0.0
N730 N 0.91151 0.52985 0.15292 0.0
N731 N 0.87994 0.47713 0.14287 0.0
H732 H 0.87881 0.49299 0.17064 0.0
H733 H 0.93165 0.54871 0.12689 0.0
C734 C 0.00196 0.55033 0.15512 0.0
O735 O 0.99252 0.5138 0.15216 0.0
N736 N 0.92882 0.62154 0.18169 0.0
C737 C 0.91021 0.63245 0.19684 0.0
C738 C 0.92296 0.66915 0.20156 0.0
C739 C 0.95221 0.65146 0.17736 0.0
N740 N 0.94885 0.681 0.1891 0.0
C741 C 0.88759 0.53799 0.19827 0.0
C742 C 0.95697 0.5209 0.21539 0.0
C743 C 0.92185 0.51497 0.22471 0.0
C744 C 0.88683 0.52322 0.21576 0.0
C745 C 0.95649 0.53591 0.19789 0.0
N746 N 0.92206 0.54478 0.18955 0.0
H747 H 0.86024 0.54564 0.19202 0.0
H748 H 0.98411 0.54184 0.19157 0.0
H749 H 0.88788 0.61582 0.20362 0.0
H750 H 0.97087 0.65187 0.1657 0.0
O751 O 0.86503 0.58909 0.16602 0.0
O752 O 0.9103 0.60834 0.14686 0.0
O753 O 0.97876 0.57343 0.16334 0.0
C754 C 0.87412 0.60932 0.15179 0.0
H755 H 0.89482 0.48582 0.11496 0.0
H756 H 0.9129 0.68642 0.2128 0.0
H757 H 0.98476 0.51489 0.22174 0.0
H758 H 0.85897 0.5201 0.22248 0.0
Co759 Co 0.67462 0.68 0.41634 0.0
C760 C 0.74864 0.64377 0.40515 0.0
C761 C 0.72548 0.68081 0.38459 0.0
C762 C 0.75885 0.6633 0.37819 0.0
N763 N 0.71976 0.66932 0.40167 0.0
N764 N 0.77344 0.63995 0.39115 0.0
H765 H 0.74979 0.62622 0.41713 0.0
H766 H 0.7063 0.70006 0.37721 0.0
C767 C 0.70522 0.76208 0.40646 0.0
O768 O 0.74083 0.75061 0.40267 0.0
N769 N 0.62946 0.68989 0.43084 0.0
C770 C 0.61388 0.66664 0.44352 0.0
C771 C 0.57892 0.68258 0.4489 0.0
C772 C 0.60431 0.71953 0.42876 0.0
N773 N 0.57284 0.71568 0.43947 0.0
C774 C 0.71019 0.64428 0.44714 0.0
C775 C 0.72735 0.71266 0.46505 0.0
C776 C 0.73009 0.67731 0.47442 0.0
C777 C 0.7227 0.64269 0.46503 0.0
C778 C 0.71476 0.71302 0.44721 0.0
N779 N 0.70545 0.67917 0.43848 0.0
H780 H 0.7021 0.61738 0.44061 0.0
H781 H 0.7105 0.74103 0.44104 0.0
H782 H 0.62611 0.63918 0.44793 0.0
H783 H 0.60864 0.74266 0.41918 0.0
O784 O 0.65864 0.62514 0.41443 0.0
O785 O 0.6412 0.67237 0.39593 0.0
O786 O 0.67998 0.73834 0.41282 0.0
C787 C 0.63792 0.63614 0.40066 0.0
H788 H 0.77081 0.66677 0.36485 0.0
H789 H 0.55861 0.66971 0.45833 0.0
H790 H 0.73357 0.74009 0.47166 0.0
H791 H 0.72446 0.61468 0.47172 0.0
Co792 Co 0.42104 0.42425 0.16657 0.0
C793 C 0.38955 0.50048 0.1563 0.0
C794 C 0.43005 0.47981 0.1366 0.0
C795 C 0.41417 0.5144 0.13063 0.0
N796 N 0.41532 0.47176 0.15294 0.0
N797 N 0.38865 0.5274 0.14307 0.0
H798 H 0.36946 0.49977 0.16741 0.0
H799 H 0.4498 0.46111 0.12923 0.0
C800 C 0.50574 0.4466 0.1571 0.0
O801 O 0.50068 0.48456 0.15676 0.0
N802 N 0.42579 0.37691 0.18011 0.0
C803 C 0.40236 0.36402 0.19339 0.0
C804 C 0.41572 0.3281 0.19899 0.0
C805 C 0.45261 0.34891 0.17766 0.0
N806 N 0.4473 0.31896 0.18906 0.0
C807 C 0.38743 0.46074 0.19764 0.0
C808 C 0.45649 0.47498 0.21557 0.0
C809 C 0.42116 0.48225 0.22446 0.0
C810 C 0.38632 0.4753 0.21517 0.0
C811 C 0.45636 0.46027 0.19805 0.0
N812 N 0.4221 0.45309 0.18924 0.0
H813 H 0.36017 0.45413 0.19107 0.0
H814 H 0.48407 0.45315 0.19212 0.0
H815 H 0.37689 0.37916 0.19836 0.0
H816 H 0.47546 0.35016 0.16769 0.0
O817 O 0.36511 0.41347 0.16382 0.0
O818 O 0.41152 0.39439 0.14528 0.0
O819 O 0.47957 0.42387 0.16342 0.0
C820 C 0.37489 0.39382 0.1495 0.0
H821 H 0.41993 0.52805 0.11781 0.0
H822 H 0.40252 0.30965 0.2091 0.0
H823 H 0.48413 0.47898 0.22236 0.0
H824 H 0.35833 0.48039 0.22153 0.0
Co825 Co 0.32656 0.67241 0.91576 0.0
C826 C 0.25243 0.63914 0.90281 0.0
C827 C 0.27389 0.68319 0.88498 0.0
C828 C 0.24012 0.66791 0.87788 0.0
N829 N 0.28091 0.66589 0.90088 0.0
N830 N 0.22687 0.63973 0.88902 0.0
H831 H 0.25157 0.61809 0.91354 0.0
H832 H 0.29228 0.70513 0.87887 0.0
C833 C 0.2999 0.75677 0.90876 0.0
O834 O 0.26263 0.748 0.90804 0.0
N835 N 0.37204 0.67829 0.93046 0.0
C836 C 0.38198 0.65693 0.94494 0.0
C837 C 0.41742 0.67 0.95118 0.0
C838 C 0.40127 0.70381 0.92799 0.0
N839 N 0.4293 0.69946 0.94049 0.0
C840 C 0.2848 0.63814 0.94537 0.0
C841 C 0.27622 0.70592 0.96501 0.0
C842 C 0.26617 0.67038 0.97305 0.0
C843 C 0.27027 0.63619 0.96294 0.0
C844 C 0.29113 0.70657 0.94755 0.0
N845 N 0.29528 0.67298 0.9378 0.0
H846 H 0.28996 0.61116 0.93831 0.0
H847 H 0.3017 0.73406 0.9426 0.0
H848 H 0.36532 0.63277 0.95026 0.0
H849 H 0.40229 0.7247 0.91711 0.0
O850 O 0.3385 0.61676 0.91351 0.0
O851 O 0.35925 0.66302 0.89516 0.0
O852 O 0.32543 0.73096 0.9127 0.0
C853 C 0.35924 0.62644 0.89952 0.0
H854 H 0.22675 0.67715 0.86547 0.0
H855 H 0.43392 0.65764 0.96217 0.0
H856 H 0.27464 0.73291 0.97253 0.0
H857 H 0.2633 0.60804 0.96873 0.0
Co858 Co 0.07432 0.57241 0.66451 0.0
C859 C 0.10629 0.49475 0.65458 0.0
C860 C 0.0876 0.52729 0.63159 0.0
C861 C 0.10543 0.49371 0.62578 0.0
N862 N 0.08791 0.52794 0.64969 0.0
N863 N 0.11717 0.47325 0.64024 0.0
H864 H 0.11315 0.48697 0.66824 0.0
H865 H 0.07643 0.5503 0.6231 0.0
C866 C 0.99562 0.54245 0.65085 0.0
O867 O 0.01083 0.51168 0.64309 0.0
N868 N 0.06152 0.61684 0.67897 0.0
C869 C 0.08257 0.63279 0.69231 0.0
C870 C 0.06474 0.66705 0.69743 0.0
C871 C 0.03147 0.64121 0.67613 0.0
N872 N 0.03282 0.67234 0.6871 0.0
C873 C 0.11157 0.53787 0.6951 0.0
C874 C 0.04419 0.51586 0.7128 0.0
C875 C 0.0798 0.51365 0.72199 0.0
C876 C 0.1139 0.52407 0.71275 0.0
C877 C 0.04308 0.52974 0.69514 0.0
N878 N 0.07644 0.54134 0.68655 0.0
H879 H 0.13803 0.54735 0.68856 0.0
H880 H 0.01491 0.53272 0.68892 0.0
H881 H 0.10975 0.62128 0.69743 0.0
H882 H 0.00979 0.63663 0.66587 0.0
O883 O 0.12833 0.59093 0.66291 0.0
O884 O 0.08069 0.60692 0.64433 0.0
O885 O 0.01631 0.56406 0.66106 0.0
C886 C 0.11674 0.61141 0.64918 0.0
H887 H 0.11166 0.48639 0.61195 0.0
H888 H 0.0754 0.68736 0.70739 0.0
H889 H 0.01714 0.5079 0.71938 0.0
H890 H 0.14202 0.52343 0.71936 0.0
Co891 Co 0.17242 0.3218 0.41634 0.0
C892 C 0.24578 0.3561 0.40309 0.0
C893 C 0.22288 0.31428 0.38458 0.0
C894 C 0.25612 0.33035 0.37731 0.0
N895 N 0.21709 0.32967 0.40097 0.0
N896 N 0.27029 0.35717 0.38887 0.0
H897 H 0.24748 0.37574 0.41435 0.0
H898 H 0.20385 0.29334 0.37818 0.0
C899 C 0.19585 0.23784 0.40563 0.0
O900 O 0.23369 0.24357 0.40471 0.0
N901 N 0.12785 0.31439 0.43159 0.0
C902 C 0.1165 0.3362 0.4457 0.0
C903 C 0.08146 0.3218 0.45198 0.0
C904 C 0.1001 0.28718 0.42952 0.0
N905 N 0.07139 0.29108 0.44169 0.0
C906 C 0.21372 0.35438 0.44617 0.0
C907 C 0.22526 0.28505 0.46433 0.0
C908 C 0.23275 0.32021 0.47327 0.0
C909 C 0.22758 0.35517 0.46382 0.0
C910 C 0.21118 0.28551 0.44672 0.0
N911 N 0.20492 0.31993 0.43787 0.0
H912 H 0.20761 0.38179 0.43962 0.0
H913 H 0.20295 0.25804 0.44088 0.0
H914 H 0.13171 0.36166 0.45061 0.0
H915 H 0.10016 0.26564 0.41898 0.0
O916 O 0.15987 0.37761 0.41493 0.0
O917 O 0.13837 0.33222 0.39641 0.0
O918 O 0.17312 0.26363 0.41225 0.0
C919 C 0.13813 0.36847 0.40121 0.0
H920 H 0.26847 0.32259 0.36447 0.0
H921 H 0.06381 0.33428 0.46256 0.0
H922 H 0.22802 0.25737 0.47124 0.0
H923 H 0.23294 0.38301 0.47022 0.0
Co924 Co 0.42123 0.579 0.35914 0.0
C925 C 0.38945 0.50246 0.36875 0.0
C926 C 0.43016 0.5221 0.38856 0.0
C927 C 0.41453 0.4871 0.39414 0.0
N928 N 0.41512 0.53107 0.3724 0.0
N929 N 0.38888 0.47473 0.38163 0.0
H930 H 0.3694 0.50366 0.35764 0.0
H931 H 0.45012 0.54034 0.39603 0.0
C932 C 0.50621 0.55546 0.36813 0.0
O933 O 0.50105 0.51751 0.36835 0.0
N934 N 0.42637 0.62672 0.34584 0.0
C935 C 0.40029 0.64245 0.3344 0.0
C936 C 0.41496 0.67734 0.32816 0.0
C937 C 0.4564 0.65181 0.34635 0.0
N938 N 0.45032 0.6829 0.33568 0.0
C939 C 0.38749 0.54474 0.32761 0.0
C940 C 0.45668 0.53096 0.30964 0.0
C941 C 0.42146 0.52577 0.3004 0.0
C942 C 0.3865 0.53179 0.30979 0.0
C943 C 0.45642 0.54386 0.32744 0.0
N944 N 0.42211 0.5511 0.33623 0.0
H945 H 0.36022 0.55128 0.33422 0.0
H946 H 0.48415 0.54954 0.33361 0.0
H947 H 0.37222 0.62992 0.33114 0.0
H948 H 0.48215 0.64775 0.35447 0.0
O949 O 0.36536 0.59021 0.36211 0.0
O950 O 0.412 0.60832 0.38066 0.0
O951 O 0.47972 0.57846 0.36233 0.0
C952 C 0.37536 0.60943 0.37651 0.0
H953 H 0.4207 0.47262 0.40672 0.0
H954 H 0.40005 0.69762 0.31941 0.0
H955 H 0.48439 0.52597 0.30302 0.0
H956 H 0.35859 0.52824 0.30318 0.0
Co957 Co 0.16962 0.67565 0.10696 0.0
C958 C 0.24294 0.64204 0.12063 0.0
C959 C 0.21945 0.6844 0.13877 0.0
C960 C 0.2529 0.66911 0.14616 0.0
N961 N 0.21392 0.66821 0.12253 0.0
N962 N 0.26746 0.64194 0.13484 0.0
H963 H 0.245 0.62211 0.10948 0.0
H964 H 0.20039 0.70582 0.14484 0.0
C965 C 0.19701 0.75951 0.11497 0.0
O966 O 0.2339 0.74998 0.11686 0.0
N967 N 0.12538 0.68231 0.09158 0.0
C968 C 0.11304 0.65823 0.07846 0.0
C969 C 0.07806 0.67212 0.07198 0.0
C970 C 0.09824 0.71032 0.09292 0.0
N971 N 0.06911 0.70476 0.08116 0.0
C972 C 0.20983 0.63966 0.07743 0.0
C973 C 0.22286 0.70748 0.05832 0.0
C974 C 0.2279 0.67169 0.04956 0.0
C975 C 0.22273 0.63743 0.05959 0.0
C976 C 0.20956 0.70847 0.07603 0.0
N977 N 0.20226 0.67484 0.08536 0.0
H978 H 0.2032 0.61286 0.0844 0.0
H979 H 0.20275 0.73661 0.0815 0.0
H980 H 0.12768 0.63179 0.07432 0.0
H981 H 0.09852 0.733 0.10301 0.0
O982 O 0.15572 0.62027 0.10947 0.0
O983 O 0.13516 0.66808 0.12694 0.0
O984 O 0.17187 0.73436 0.10982 0.0
C985 C 0.13337 0.63151 0.12268 0.0
H986 H 0.26526 0.67786 0.15885 0.0
H987 H 0.0603 0.65899 0.06162 0.0
H988 H 0.22752 0.73476 0.05128 0.0
H989 H 0.22633 0.60908 0.0534 0.0
Co990 Co 0.07779 0.41858 0.85686 0.0
C991 C 0.10961 0.49477 0.86776 0.0
C992 C 0.06875 0.47324 0.88711 0.0
C993 C 0.08382 0.50803 0.89326 0.0
N994 N 0.08422 0.46556 0.87087 0.0
N995 N 0.10945 0.52161 0.881 0.0
H996 H 0.12997 0.4949 0.85678 0.0
H997 H 0.04848 0.45447 0.89415 0.0
C998 C 0.99452 0.4474 0.86351 0.0
O999 O 0.00495 0.48426 0.86343 0.0
N1000 N 0.07258 0.3718 0.843 0.0
C1001 C 0.09551 0.36078 0.8292 0.0
C1002 C 0.08374 0.32454 0.8235 0.0
C1003 C 0.0476 0.34222 0.84573 0.0
N1004 N 0.05367 0.31315 0.8339 0.0
C1005 C 0.11239 0.45788 0.82656 0.0
C1006 C 0.04484 0.46439 0.80658 0.0
C1007 C 0.08044 0.474 0.79845 0.0
C1008 C 0.11445 0.47142 0.80884 0.0
C1009 C 0.04402 0.45095 0.8243 0.0
N1010 N 0.07751 0.44779 0.8342 0.0
H1011 H 0.13933 0.45336 0.83376 0.0
H1012 H 0.01649 0.44072 0.82938 0.0
H1013 H 0.11983 0.37735 0.82398 0.0
H1014 H 0.02585 0.34172 0.85627 0.0
O1015 O 0.1334 0.4067 0.85957 0.0
O1016 O 0.08663 0.38787 0.87804 0.0
O1017 O 0.01906 0.42046 0.85976 0.0
C1018 C 0.1233 0.38684 0.87378 0.0
H1019 H 0.07716 0.52169 0.90598 0.0
H1020 H 0.09715 0.3073 0.81301 0.0
H1021 H 0.01791 0.46522 0.79898 0.0
H1022 H 0.14264 0.47874 0.80318 0.0
Co1023 Co 0.32632 0.31468 0.60685 0.0
C1024 C 0.25183 0.34664 0.62047 0.0
C1025 C 0.28382 0.31683 0.64104 0.0
C1026 C 0.25163 0.33413 0.64874 0.0
N1027 N 0.2838 0.32456 0.62328 0.0
N1028 N 0.23157 0.35262 0.63573 0.0
H1029 H 0.24481 0.36049 0.60789 0.0
H1030 H 0.30648 0.30096 0.64802 0.0
C1031 C 0.29621 0.23449 0.6178 0.0
O1032 O 0.26116 0.24785 0.6214 0.0
N1033 N 0.36895 0.3059 0.59062 0.0
C1034 C 0.37976 0.32926 0.57693 0.0
C1035 C 0.41495 0.31637 0.57035 0.0
C1036 C 0.39741 0.27914 0.59222 0.0
N1037 N 0.42584 0.28508 0.58005 0.0
C1038 C 0.28466 0.35038 0.57775 0.0
C1039 C 0.27011 0.28209 0.55929 0.0
C1040 C 0.26588 0.31766 0.55024 0.0
C1041 C 0.2716 0.35219 0.55996 0.0
C1042 C 0.28337 0.2815 0.57701 0.0
N1043 N 0.2918 0.31535 0.58592 0.0
H1044 H 0.29186 0.37729 0.5845 0.0
H1045 H 0.28943 0.25344 0.58281 0.0
H1046 H 0.36429 0.35509 0.57263 0.0
H1047 H 0.39864 0.25749 0.60279 0.0
O1048 O 0.34186 0.36971 0.60836 0.0
O1049 O 0.36305 0.32219 0.62591 0.0
O1050 O 0.32194 0.25642 0.61052 0.0
C1051 C 0.36511 0.35853 0.62123 0.0
H1052 H 0.24434 0.33444 0.66286 0.0
H1053 H 0.43186 0.32966 0.5597 0.0
H1054 H 0.26503 0.25469 0.55245 0.0
H1055 H 0.26851 0.38037 0.55353 0.0
C1056 C 0.19429 0.16729 0.39496 0.0
C1057 C 0.17704 0.20462 0.39609 0.0
C1058 C 0.17446 0.13584 0.38668 0.0
C1059 C 0.13681 0.14095 0.37947 0.0
H1060 H 0.22269 0.16215 0.40087 0.0
H1061 H 0.18801 0.10729 0.38645 0.0
S1062 S 0.08182 0.23399 0.37628 0.0
N1063 N 0.12247 0.24549 0.38682 0.0
N1064 N 0.085 0.18676 0.37243 0.0
C1065 C 0.12032 0.17843 0.37983 0.0
C1066 C 0.14048 0.21017 0.38782 0.0
C1067 C 0.073 0.94446 0.649 0.0
C1068 C 0.03518 0.92826 0.64807 0.0
C1069 C 0.10465 0.92727 0.63967 0.0
C1070 C 0.09906 0.89377 0.62906 0.0
H1071 H 0.07842 0.96949 0.65749 0.0
H1072 H 0.1337 0.93915 0.64137 0.0
S1073 S 0.00501 0.84392 0.61996 0.0
N1074 N 0.9937 0.87955 0.63387 0.0
N1075 N 0.05253 0.84757 0.61686 0.0
C1076 C 0.0611 0.87891 0.6273 0.0
C1077 C 0.0293 0.8961 0.63665 0.0
C1078 C 0.34929 0.80975 0.91046 0.0
C1079 C 0.31447 0.79556 0.90296 0.0
C1080 C 0.36931 0.84117 0.90277 0.0
C1081 C 0.35565 0.8596 0.88708 0.0
H1082 H 0.36227 0.79521 0.92192 0.0
H1083 H 0.39688 0.84969 0.90868 0.0
S1084 S 0.26379 0.83604 0.86314 0.0
N1085 N 0.26527 0.80437 0.87984 0.0
N1086 N 0.30322 0.86342 0.8652 0.0
C1087 C 0.31942 0.84756 0.88014 0.0
C1088 C 0.29875 0.81552 0.88812 0.0
C1089 C 0.40346 0.12096 0.15053 0.0
C1090 C 0.38571 0.10772 0.13462 0.0
C1091 C 0.43454 0.10074 0.15841 0.0
C1092 C 0.4492 0.06615 0.15085 0.0
H1093 H 0.39456 0.14831 0.15656 0.0
H1094 H 0.44838 0.11334 0.17012 0.0
S1095 S 0.41057 0.01663 0.11033 0.0
N1096 N 0.38303 0.05596 0.1124 0.0
N1097 N 0.4415 0.01768 0.12732 0.0
C1098 C 0.42996 0.05091 0.1357 0.0
C1099 C 0.39822 0.07176 0.12756 0.0
C1100 C 0.1473 0.81264 0.11351 0.0
C1101 C 0.18213 0.79815 0.12097 0.0
C1102 C 0.12748 0.84421 0.12122 0.0
C1103 C 0.14139 0.86268 0.13683 0.0
H1104 H 0.13429 0.7984 0.10201 0.0
H1105 H 0.09997 0.85298 0.1153 0.0
S1106 S 0.23327 0.83842 0.16071 0.0
N1107 N 0.23142 0.80668 0.14407 0.0
N1108 N 0.19401 0.86605 0.15864 0.0
C1109 C 0.17752 0.8502 0.14378 0.0
C1110 C 0.19792 0.81798 0.13582 0.0
C1111 C 0.43316 0.94709 0.38658 0.0
C1112 C 0.45234 0.93159 0.37144 0.0
C1113 C 0.40117 0.92765 0.3945 0.0
C1114 C 0.38718 0.89217 0.38748 0.0
H1115 H 0.44448 0.97298 0.39307 0.0
H1116 H 0.3889 0.93929 0.40677 0.0
S1117 S 0.42328 0.84304 0.34619 0.0
N1118 N 0.45194 0.88139 0.3485 0.0
N1119 N 0.39217 0.84516 0.36308 0.0
C1120 C 0.40428 0.8782 0.3715 0.0
C1121 C 0.43675 0.8978 0.36356 0.0
C1122 C 0.36044 0.14623 0.62476 0.0
C1123 C 0.34831 0.13186 0.64157 0.0
C1124 C 0.34136 0.17755 0.61649 0.0
C1125 C 0.30907 0.19576 0.62458 0.0
H1126 H 0.38639 0.13471 0.61834 0.0
H1127 H 0.35334 0.18891 0.60408 0.0
S1128 S 0.26257 0.16624 0.6675 0.0
N1129 N 0.29962 0.13578 0.66521 0.0
N1130 N 0.26336 0.19461 0.64957 0.0
C1131 C 0.29452 0.17962 0.64065 0.0
C1132 C 0.31423 0.14766 0.64917 0.0
C1133 C 0.09363 0.06959 0.90219 0.0
C1134 C 0.11125 0.09995 0.89241 0.0
C1135 C 0.06153 0.049 0.89523 0.0
C1136 C 0.04599 0.05794 0.87819 0.0
H1137 H 0.10286 0.06352 0.9158 0.0
H1138 H 0.04722 0.02785 0.9038 0.0
S1139 S 0.08723 0.12916 0.84575 0.0
N1140 N 0.11463 0.13395 0.86382 0.0
N1141 N 0.05522 0.09471 0.85059 0.0
C1142 C 0.06596 0.08555 0.86762 0.0
C1143 C 0.0983 0.10673 0.87477 0.0
C1144 C 0.79796 0.80875 0.64184 0.0
C1145 C 0.80939 0.79572 0.62469 0.0
C1146 C 0.81521 0.84197 0.64967 0.0
C1147 C 0.84411 0.86327 0.64049 0.0
H1148 H 0.77783 0.79155 0.64979 0.0
H1149 H 0.80812 0.84908 0.66344 0.0
S1150 S 0.87767 0.84591 0.5939 0.0
N1151 N 0.84693 0.80986 0.59789 0.0
N1152 N 0.87853 0.87255 0.61231 0.0
C1153 C 0.85272 0.85262 0.6227 0.0
C1154 C 0.83564 0.81872 0.61488 0.0
C1155 C 0.93228 0.09614 0.36322 0.0
C1156 C 0.94685 0.06094 0.37025 0.0
C1157 C 0.90199 0.11646 0.37172 0.0
C1158 C 0.88497 0.10271 0.38774 0.0
H1159 H 0.94565 0.10912 0.35147 0.0
H1160 H 0.8932 0.14426 0.36609 0.0
S1161 S 0.90987 0.01 0.41078 0.0
N1162 N 0.93979 0.01145 0.39341 0.0
N1163 N 0.88283 0.04982 0.40947 0.0
C1164 C 0.89735 0.06618 0.39427 0.0
C1165 C 0.92827 0.04526 0.3855 0.0
C1166 C 0.63231 0.15245 0.12239 0.0
C1167 C 0.64453 0.13606 0.13877 0.0
C1168 C 0.65248 0.18355 0.11447 0.0
C1169 C 0.68589 0.19968 0.12253 0.0
H1170 H 0.60566 0.14257 0.11603 0.0
H1171 H 0.64055 0.19637 0.10237 0.0
S1172 S 0.73304 0.16419 0.16429 0.0
N1173 N 0.69455 0.13566 0.16186 0.0
N1174 N 0.73262 0.19424 0.14696 0.0
C1175 C 0.70036 0.18153 0.13814 0.0
C1176 C 0.67964 0.14971 0.14627 0.0
C1177 C 0.59673 0.91837 0.90034 0.0
C1178 C 0.61337 0.88635 0.89132 0.0
C1179 C 0.56531 0.93928 0.89281 0.0
C1180 C 0.5495 0.92878 0.87604 0.0
H1181 H 0.60631 0.92576 0.91375 0.0
H1182 H 0.55169 0.96203 0.90071 0.0
S1183 S 0.58784 0.85249 0.84561 0.0
N1184 N 0.61548 0.8491 0.86364 0.0
N1185 N 0.55658 0.88807 0.84964 0.0
C1186 C 0.56803 0.89897 0.86633 0.0
C1187 C 0.59993 0.87787 0.87393 0.0
C1188 C 0.82737 0.14304 0.88899 0.0
C1189 C 0.86484 0.14693 0.88142 0.0
C1190 C 0.80889 0.17512 0.89738 0.0
C1191 C 0.82741 0.21182 0.89836 0.0
H1192 H 0.81289 0.11495 0.88889 0.0
H1193 H 0.78047 0.17097 0.90346 0.0
S1194 S 0.92251 0.23807 0.87758 0.0
N1195 N 0.91774 0.19093 0.87377 0.0
N1196 N 0.88291 0.25087 0.88867 0.0
C1197 C 0.86388 0.21615 0.88985 0.0
C1198 C 0.88262 0.18377 0.88162 0.0
C1199 C 0.60869 0.07353 0.64036 0.0
C1200 C 0.60268 0.10899 0.63121 0.0
C1201 C 0.57747 0.05464 0.64931 0.0
C1202 C 0.53956 0.07079 0.64928 0.0
H1203 H 0.63773 0.06117 0.64116 0.0
H1204 H 0.58325 0.02804 0.65669 0.0
S1205 S 0.50813 0.15967 0.62453 0.0
N1206 N 0.55562 0.15713 0.62115 0.0
N1207 N 0.49742 0.12152 0.63709 0.0
C1208 C 0.53322 0.10496 0.63918 0.0
C1209 C 0.56468 0.12411 0.63038 0.0
C1210 C 0.70239 0.81631 0.38376 0.0
C1211 C 0.69094 0.80093 0.4005 0.0
C1212 C 0.68167 0.84731 0.37574 0.0
C1213 C 0.64882 0.86382 0.38419 0.0
H1214 H 0.7256 0.80248 0.37621 0.0
H1215 H 0.68973 0.85643 0.36232 0.0
S1216 S 0.6119 0.83898 0.42965 0.0
N1217 N 0.64856 0.80854 0.42636 0.0
N1218 N 0.60945 0.86603 0.41135 0.0
C1219 C 0.63939 0.85089 0.4016 0.0
C1220 C 0.66049 0.81964 0.40974 0.0
C1221 C 0.93243 0.91211 0.15686 0.0
C1222 C 0.95008 0.9428 0.14731 0.0
C1223 C 0.89947 0.89283 0.15018 0.0
C1224 C 0.88282 0.90311 0.13356 0.0
H1225 H 0.94539 0.90146 0.16918 0.0
H1226 H 0.88849 0.86799 0.15763 0.0
S1227 S 0.91479 0.98475 0.10435 0.0
N1228 N 0.94587 0.98543 0.12127 0.0
N1229 N 0.88405 0.9488 0.10862 0.0
C1230 C 0.89811 0.93584 0.12458 0.0
C1231 C 0.93172 0.95576 0.13147 0.0
C1232 C 0.65997 0.67546 0.9082 0.0
C1233 C 0.69165 0.69378 0.89968 0.0
C1234 C 0.64036 0.64425 0.90014 0.0
C1235 C 0.65117 0.63024 0.88307 0.0
H1236 H 0.6489 0.68666 0.9208 0.0
H1237 H 0.61493 0.63259 0.90693 0.0
S1238 S 0.73479 0.6654 0.85591 0.0
N1239 N 0.73539 0.6933 0.87397 0.0
N1240 N 0.69799 0.63481 0.85867 0.0
C1241 C 0.68465 0.64625 0.87499 0.0
C1242 C 0.70498 0.67802 0.88333 0.0
C1243 C 0.60761 0.42332 0.13848 0.0
C1244 C 0.60091 0.38771 0.12957 0.0
C1245 C 0.57673 0.44325 0.14717 0.0
C1246 C 0.53847 0.42802 0.14713 0.0
H1247 H 0.63692 0.43503 0.13926 0.0
H1248 H 0.583 0.46995 0.15436 0.0
S1249 S 0.50525 0.33937 0.12289 0.0
N1250 N 0.55286 0.3405 0.11965 0.0
N1251 N 0.49529 0.37805 0.13519 0.0
C1252 C 0.53148 0.39368 0.13729 0.0
C1253 C 0.56259 0.37349 0.12873 0.0
C1254 C 0.84488 0.31383 0.41111 0.0
C1255 C 0.81113 0.29759 0.4035 0.0
C1256 C 0.86359 0.34586 0.40323 0.0
C1257 C 0.84983 0.36271 0.38717 0.0
H1258 H 0.85811 0.30043 0.42279 0.0
H1259 H 0.89054 0.35593 0.40926 0.0
S1260 S 0.76032 0.33325 0.36274 0.0
N1261 N 0.76256 0.30272 0.37987 0.0
N1262 N 0.79828 0.36265 0.36479 0.0
C1263 C 0.81451 0.34853 0.38009 0.0
C1264 C 0.79507 0.316 0.3883 0.0
C1265 C 0.90832 0.61002 0.64774 0.0
C1266 C 0.89239 0.60125 0.63083 0.0
C1267 C 0.93948 0.58846 0.65482 0.0
C1268 C 0.95666 0.55756 0.64517 0.0
H1269 H 0.89766 0.63481 0.65531 0.0
H1270 H 0.95138 0.59741 0.66761 0.0
S1271 S 0.92263 0.51983 0.60117 0.0
N1272 N 0.89333 0.55697 0.60541 0.0
N1273 N 0.95244 0.5168 0.6185 0.0
C1274 C 0.93908 0.5466 0.62883 0.0
C1275 C 0.90691 0.56842 0.62169 0.0
C1276 C 0.65312 0.3135 0.61348 0.0
C1277 C 0.68716 0.29726 0.62088 0.0
C1278 C 0.6339 0.3447 0.62176 0.0
C1279 C 0.64761 0.36091 0.63794 0.0
H1280 H 0.64008 0.30073 0.60162 0.0
H1281 H 0.60681 0.3548 0.61587 0.0
S1282 S 0.73769 0.33151 0.66196 0.0
N1283 N 0.73576 0.30182 0.64454 0.0
N1284 N 0.6993 0.36046 0.66024 0.0
C1285 C 0.68315 0.34686 0.64484 0.0
C1286 C 0.70299 0.31503 0.63628 0.0
C1287 C 0.93839 0.40135 0.86311 0.0
C1288 C 0.95539 0.43539 0.87006 0.0
C1289 C 0.90613 0.38396 0.87142 0.0
C1290 C 0.88977 0.3994 0.88726 0.0
H1291 H 0.9513 0.38693 0.85161 0.0
H1292 H 0.89543 0.35674 0.8659 0.0
S1293 S 0.92131 0.49021 0.91002 0.0
N1294 N 0.95153 0.48597 0.89284 0.0
N1295 N 0.89116 0.45269 0.90872 0.0
C1296 C 0.90473 0.43495 0.89368 0.0
C1297 C 0.93752 0.45305 0.88503 0.0
C1298 C 0.81513 0.66623 0.11752 0.0
C1299 C 0.81656 0.70417 0.12472 0.0
C1300 C 0.83154 0.63433 0.12688 0.0
C1301 C 0.84824 0.63927 0.14398 0.0
H1302 H 0.80345 0.6616 0.1042 0.0
H1303 H 0.83261 0.60605 0.12042 0.0
S1304 S 0.85706 0.732 0.16909 0.0
N1305 N 0.83551 0.74436 0.15014 0.0
N1306 N 0.86363 0.68438 0.16792 0.0
C1307 C 0.84783 0.67658 0.15161 0.0
C1308 C 0.8326 0.70905 0.14195 0.0
C1309 C 0.60985 0.57638 0.38523 0.0
C1310 C 0.60494 0.61292 0.39357 0.0
C1311 C 0.57783 0.55703 0.37717 0.0
C1312 C 0.54017 0.57373 0.37732 0.0
H1313 H 0.63861 0.56337 0.38445 0.0
H1314 H 0.58275 0.5295 0.37042 0.0
S1315 S 0.51153 0.66564 0.40029 0.0
N1316 N 0.5592 0.66286 0.40302 0.0
N1317 N 0.49952 0.6264 0.38879 0.0
C1318 C 0.53498 0.60915 0.38659 0.0
C1319 C 0.56725 0.62878 0.39446 0.0
C1320 C 0.36143 0.35006 0.12362 0.0
C1321 C 0.34827 0.36692 0.13976 0.0
C1322 C 0.34267 0.31775 0.11605 0.0
C1323 C 0.30961 0.30103 0.12416 0.0
H1324 H 0.3879 0.36046 0.11724 0.0
H1325 H 0.35537 0.3046 0.10419 0.0
S1326 S 0.26048 0.33678 0.1654 0.0
N1327 N 0.29795 0.36658 0.16275 0.0
N1328 N 0.26224 0.30599 0.14838 0.0
C1329 C 0.29416 0.31946 0.1395 0.0
C1330 C 0.31357 0.35238 0.14733 0.0
C1331 C 0.41441 0.564 0.86581 0.0
C1332 C 0.4529 0.56679 0.87233 0.0
C1333 C 0.38299 0.58127 0.87521 0.0
C1334 C 0.3891 0.60052 0.89165 0.0
H1335 H 0.40891 0.55044 0.85294 0.0
H1336 H 0.35417 0.58096 0.86926 0.0
S1337 S 0.48351 0.61325 0.91508 0.0
N1338 N 0.49465 0.58899 0.89667 0.0
N1339 N 0.43582 0.61966 0.91434 0.0
C1340 C 0.42698 0.60156 0.89866 0.0
C1341 C 0.45883 0.58505 0.88902 0.0
C1342 C 0.19491 0.67196 0.62531 0.0
C1343 C 0.17753 0.70927 0.62518 0.0
C1344 C 0.17604 0.63992 0.6336 0.0
C1345 C 0.13938 0.64453 0.64191 0.0
H1346 H 0.22253 0.6673 0.61857 0.0
H1347 H 0.1895 0.61135 0.63302 0.0
S1348 S 0.08518 0.73718 0.64802 0.0
N1349 N 0.12417 0.74941 0.63635 0.0
N1350 N 0.08874 0.68967 0.65114 0.0
C1351 C 0.12291 0.68192 0.64257 0.0
C1352 C 0.142 0.71419 0.63443 0.0
C1353 C 0.11304 0.42114 0.38046 0.0
C1354 C 0.10675 0.39394 0.39434 0.0
C1355 C 0.08122 0.4388 0.37148 0.0
C1356 C 0.04246 0.42884 0.37589 0.0
H1357 H 0.14249 0.42746 0.37603 0.0
H1358 H 0.08695 0.45867 0.36049 0.0
S1359 S 0.01115 0.36143 0.41219 0.0
N1360 N 0.05925 0.36014 0.41273 0.0
N1361 N 8e-05 0.39217 0.39596 0.0
C1362 C 0.03625 0.40286 0.39024 0.0
C1363 C 0.06826 0.38563 0.3994 0.0
C1364 C 0.36281 0.65399 0.40228 0.0
C1365 C 0.34899 0.63651 0.3864 0.0
C1366 C 0.34394 0.68616 0.40998 0.0
C1367 C 0.31002 0.70208 0.4023 0.0
H1368 H 0.38982 0.64419 0.40835 0.0
H1369 H 0.35713 0.69982 0.42159 0.0
S1370 S 0.25922 0.66481 0.36184 0.0
N1371 N 0.29734 0.63568 0.36409 0.0
N1372 N 0.26142 0.69591 0.37872 0.0
C1373 C 0.29406 0.68313 0.38722 0.0
C1374 C 0.31362 0.6504 0.37924 0.0
C1375 C 0.10503 0.57059 0.13717 0.0
C1376 C 0.10035 0.60794 0.12956 0.0
C1377 C 0.07302 0.55102 0.14518 0.0
C1378 C 0.03566 0.56833 0.14566 0.0
H1379 H 0.13363 0.55714 0.13749 0.0
H1380 H 0.07774 0.52291 0.15146 0.0
S1381 S 0.00734 0.66232 0.12461 0.0
N1382 N 0.05484 0.65922 0.12136 0.0
N1383 N 0.99523 0.62217 0.13544 0.0
C1384 C 0.03056 0.60441 0.13701 0.0
C1385 C 0.06278 0.6243 0.12922 0.0
C1386 C 0.1561 0.31125 0.90752 0.0
C1387 C 0.18833 0.29352 0.89915 0.0
C1388 C 0.13731 0.3435 0.89985 0.0
C1389 C 0.14978 0.35951 0.88341 0.0
H1390 H 0.14413 0.29899 0.91973 0.0
H1391 H 0.11145 0.35471 0.90643 0.0
S1392 S 0.2355 0.32684 0.85697 0.0
N1393 N 0.23425 0.29672 0.87427 0.0
N1394 N 0.19871 0.35737 0.85982 0.0
C1395 C 0.18377 0.34403 0.87555 0.0
C1396 C 0.20309 0.31105 0.88343 0.0
C1397 C 0.39303 0.42101 0.63411 0.0
C1398 C 0.39789 0.38249 0.62794 0.0
C1399 C 0.42458 0.44159 0.64186 0.0
C1400 C 0.46168 0.42413 0.64355 0.0
H1401 H 0.3646 0.43476 0.63346 0.0
H1402 H 0.4197 0.47077 0.64695 0.0
S1403 S 0.49071 0.32679 0.62619 0.0
N1404 N 0.44347 0.32968 0.62217 0.0
N1405 N 0.50235 0.36845 0.63585 0.0
C1406 C 0.46708 0.38662 0.63633 0.0
C1407 C 0.43526 0.36576 0.62877 0.0
C1408 C 0.15014 0.92592 0.3698 0.0
C1409 C 0.13154 0.94243 0.38488 0.0
C1410 C 0.17935 0.89758 0.37162 0.0
C1411 C 0.19095 0.88395 0.38858 0.0
H1412 H 0.14259 0.93534 0.3564 0.0
H1413 H 0.19377 0.88727 0.35961 0.0
S1414 S 0.14844 0.91354 0.43235 0.0
N1415 N 0.12584 0.94105 0.41747 0.0
N1416 N 0.17832 0.88565 0.42067 0.0
C1417 C 0.171 0.8983 0.40373 0.0
C1418 C 0.14186 0.92792 0.40194 0.0
C1419 C 0.34706 0.93161 0.62596 0.0
C1420 C 0.35927 0.94304 0.64318 0.0
C1421 C 0.31722 0.90419 0.62359 0.0
C1422 C 0.29776 0.88726 0.63832 0.0
H1423 H 0.35979 0.94473 0.61412 0.0
H1424 H 0.30912 0.89658 0.61002 0.0
S1425 S 0.3208 0.90501 0.68637 0.0
N1426 N 0.35215 0.93243 0.67527 0.0
N1427 N 0.2941 0.88332 0.67092 0.0
C1428 C 0.31041 0.89763 0.65567 0.0
C1429 C 0.34151 0.92495 0.65806 0.0
C1430 C 0.33327 0.10731 0.88057 0.0
C1431 C 0.30278 0.10317 0.89311 0.0
C1432 C 0.36303 0.07931 0.87922 0.0
C1433 C 0.36357 0.04656 0.89054 0.0
H1434 H 0.33394 0.13225 0.87165 0.0
H1435 H 0.38571 0.08308 0.86925 0.0
S1436 S 0.28912 0.0198 0.9244 0.0
N1437 N 0.27381 0.0618 0.91614 0.0
N1438 N 0.33046 0.01017 0.91392 0.0
C1439 C 0.33344 0.04195 0.90309 0.0
C1440 C 0.30287 0.07004 0.90433 0.0
C1441 C 0.19482 0.09128 0.15189 0.0
C1442 C 0.19393 0.11964 0.13831 0.0
C1443 C 0.16655 0.06184 0.15267 0.0
C1444 C 0.13607 0.05996 0.14 0.0
H1445 H 0.21861 0.09078 0.16144 0.0
H1446 H 0.16973 0.03951 0.16282 0.0
S1447 S 0.11815 0.13117 0.10337 0.0
N1448 N 0.1589 0.14637 0.1129 0.0
N1449 N 0.10465 0.09193 0.11467 0.0
C1450 C 0.13381 0.08958 0.12694 0.0
C1451 C 0.16301 0.11919 0.12602 0.0
C1452 C 0.84789 0.0687 0.62535 0.0
C1453 C 0.85953 0.05592 0.64245 0.0
C1454 C 0.81924 0.09746 0.62327 0.0
C1455 C 0.80046 0.1144 0.63817 0.0
H1456 H 0.86 0.05556 0.6134 0.0
H1457 H 0.81134 0.10598 0.60978 0.0
S1458 S 0.82322 0.09385 0.68602 0.0
N1459 N 0.85322 0.0655 0.67464 0.0
N1460 N 0.79733 0.11733 0.6708 0.0
C1461 C 0.81287 0.10291 0.65541 0.0
C1462 C 0.84276 0.07417 0.65752 0.0
C1463 C 0.67766 0.09533 0.40269 0.0
C1464 C 0.6937 0.11435 0.38762 0.0
C1465 C 0.64906 0.06642 0.40089 0.0
C1466 C 0.63475 0.05554 0.38395 0.0
H1467 H 0.68768 0.10233 0.41605 0.0
H1468 H 0.63913 0.05163 0.41288 0.0
S1469 S 0.66317 0.09926 0.34027 0.0
N1470 N 0.69129 0.12121 0.35509 0.0
N1471 N 0.63547 0.06917 0.35194 0.0
C1472 C 0.64871 0.07588 0.36883 0.0
C1473 C 0.67855 0.10475 0.3706 0.0
C1474 C 0.62647 0.90998 0.1349 0.0
C1475 C 0.63694 0.94884 0.13838 0.0
C1476 C 0.6552 0.88109 0.13292 0.0
C1477 C 0.69503 0.89064 0.13392 0.0
H1478 H 0.59597 0.902 0.13391 0.0
H1479 H 0.64641 0.85131 0.13025 0.0
S1480 S 0.73708 0.98834 0.14263 0.0
N1481 N 0.68938 0.99543 0.14278 0.0
N1482 N 0.74341 0.94132 0.13872 0.0
C1483 C 0.70571 0.92944 0.1373 0.0
C1484 C 0.67659 0.95856 0.13962 0.0
C1485 C 0.83063 0.88559 0.89917 0.0
C1486 C 0.80092 0.88167 0.88633 0.0
C1487 C 0.85803 0.91584 0.89799 0.0
C1488 C 0.85643 0.94339 0.88401 0.0
H1489 H 0.83228 0.86535 0.9103 0.0
H1490 H 0.88031 0.9181 0.90822 0.0
S1491 S 0.78211 0.9474 0.84782 0.0
N1492 N 0.77046 0.90835 0.85963 0.0
N1493 N 0.82131 0.96568 0.85753 0.0
C1494 C 0.82679 0.93964 0.87105 0.0
C1495 C 0.79917 0.90865 0.87219 0.0
C1496 C 0.70628 0.42841 0.89216 0.0
C1497 C 0.69889 0.38844 0.88973 0.0
C1498 C 0.67693 0.45615 0.88929 0.0
C1499 C 0.6391 0.44463 0.88436 0.0
H1500 H 0.73519 0.43825 0.89588 0.0
H1501 H 0.68369 0.48679 0.89097 0.0
S1502 S 0.60487 0.34358 0.87672 0.0
N1503 N 0.65137 0.33865 0.88219 0.0
N1504 N 0.59563 0.39091 0.87732 0.0
C1505 C 0.63117 0.40477 0.88223 0.0
C1506 C 0.66128 0.37659 0.88475 0.0
C1507 C 0.82828 0.38625 0.1276 0.0
C1508 C 0.79499 0.3857 0.13858 0.0
C1509 C 0.85642 0.41572 0.12938 0.0
C1510 C 0.85184 0.44588 0.14201 0.0
H1511 H 0.83234 0.36383 0.11755 0.0
H1512 H 0.8818 0.4151 0.12072 0.0
S1513 S 0.76701 0.45932 0.17252 0.0
N1514 N 0.75767 0.41832 0.16176 0.0
N1515 N 0.80948 0.47456 0.16475 0.0
C1516 C 0.81816 0.44576 0.15289 0.0
C1517 C 0.78996 0.41544 0.15124 0.0
C1518 C 0.84382 0.56823 0.37085 0.0
C1519 C 0.86408 0.55361 0.38584 0.0
C1520 C 0.81502 0.59692 0.37264 0.0
C1521 C 0.80543 0.61269 0.38949 0.0
H1522 H 0.8499 0.55711 0.35757 0.0
H1523 H 0.79942 0.60589 0.36073 0.0
S1524 S 0.85205 0.58726 0.43291 0.0
N1525 N 0.87315 0.5582 0.41817 0.0
N1526 N 0.82105 0.61407 0.42131 0.0
C1527 C 0.82669 0.59973 0.40452 0.0
C1528 C 0.85556 0.56986 0.40276 0.0
C1529 C 0.67341 0.55392 0.65225 0.0
C1530 C 0.64187 0.5529 0.64013 0.0
C1531 C 0.7023 0.58268 0.65104 0.0
C1532 C 0.70106 0.61121 0.63755 0.0
H1533 H 0.67674 0.53156 0.66238 0.0
H1534 H 0.72664 0.58168 0.66029 0.0
S1535 S 0.62311 0.62457 0.60376 0.0
N1536 N 0.60952 0.58561 0.61524 0.0
N1537 N 0.66488 0.63878 0.61266 0.0
C1538 C 0.66934 0.61142 0.62569 0.0
C1539 C 0.63951 0.58249 0.62705 0.0
C1540 C 0.31887 0.59916 0.12238 0.0
C1541 C 0.30048 0.61612 0.13738 0.0
C1542 C 0.34838 0.57122 0.12431 0.0
C1543 C 0.36136 0.55936 0.14135 0.0
H1544 H 0.31005 0.60699 0.10893 0.0
H1545 H 0.36009 0.55795 0.1123 0.0
S1546 S 0.32673 0.59796 0.18508 0.0
N1547 N 0.29925 0.62009 0.17003 0.0
N1548 N 0.35682 0.57008 0.17352 0.0
C1549 C 0.34506 0.57777 0.15648 0.0
C1550 C 0.31423 0.60557 0.15455 0.0
C1551 C 0.14836 0.56653 0.89974 0.0
C1552 C 0.13549 0.55454 0.88272 0.0
C1553 C 0.17696 0.59541 0.90162 0.0
C1554 C 0.19439 0.61326 0.88657 0.0
H1555 H 0.13735 0.55258 0.91174 0.0
H1556 H 0.18596 0.60324 0.91504 0.0
S1557 S 0.1676 0.59528 0.83897 0.0
N1558 N 0.13884 0.56606 0.85057 0.0
N1559 N 0.19462 0.61809 0.85396 0.0
C1560 C 0.18054 0.60269 0.86945 0.0
C1561 C 0.15072 0.57384 0.86758 0.0
C1562 C 0.20052 0.40683 0.65204 0.0
C1563 C 0.19982 0.37955 0.638 0.0
C1564 C 0.17251 0.43651 0.65311 0.0
C1565 C 0.14266 0.43979 0.64022 0.0
H1566 H 0.22399 0.40636 0.66176 0.0
H1567 H 0.1754 0.45807 0.66362 0.0
S1568 S 0.12478 0.37166 0.60248 0.0
N1569 N 0.16494 0.35504 0.61205 0.0
N1570 N 0.11162 0.41034 0.61422 0.0
C1571 C 0.14041 0.41123 0.62673 0.0
C1572 C 0.16915 0.38124 0.62557 0.0
C1573 C 0.34986 0.42888 0.39995 0.0
C1574 C 0.3621 0.44226 0.38302 0.0
C1575 C 0.32106 0.40015 0.40164 0.0
C1576 C 0.30267 0.38385 0.3865 0.0
H1577 H 0.3616 0.44151 0.41208 0.0
H1578 H 0.31276 0.39115 0.41502 0.0
S1579 S 0.32704 0.40606 0.33895 0.0
N1580 N 0.35682 0.4338 0.35073 0.0
N1581 N 0.30055 0.3822 0.35383 0.0
C1582 C 0.31566 0.39595 0.36943 0.0
C1583 C 0.34576 0.4246 0.36772 0.0
C1584 C 0.05068 0.97794 0.27146 0.0
C1585 C 0.0758 0.00636 0.27869 0.0
C1586 C 0.05055 0.9695 0.25303 0.0
C1587 C 0.07546 0.98917 0.24099 0.0
H1588 H 0.03098 0.96197 0.28015 0.0
H1589 H 0.03093 0.94709 0.24818 0.0
S1590 S 0.14493 0.06808 0.25282 0.0
N1591 N 0.12507 0.05544 0.27216 0.0
N1592 N 0.12485 0.0395 0.23758 0.0
C1593 C 0.10063 0.01776 0.24801 0.0
C1594 C 0.10078 0.02637 0.2668 0.0
C1595 C 0.21903 0.81071 0.51801 0.0
C1596 C 0.24064 0.83328 0.53028 0.0
C1597 C 0.22741 0.81124 0.49958 0.0
C1598 C 0.25762 0.83453 0.49259 0.0
H1599 H 0.19523 0.79252 0.52267 0.0
H1600 H 0.21009 0.79318 0.49071 0.0
S1601 S 0.32411 0.89776 0.519 0.0
N1602 N 0.2943 0.87886 0.5341 0.0
N1603 N 0.31 0.87995 0.49948 0.0
C1604 C 0.27934 0.85745 0.50466 0.0
C1605 C 0.27086 0.85683 0.52347 0.0
C1606 C 0.44726 0.98301 0.75356 0.0
C1607 C 0.42226 0.01224 0.74694 0.0
C1608 C 0.4479 0.97326 0.77187 0.0
C1609 C 0.42371 0.99245 0.78438 0.0
H1610 H 0.46624 0.96724 0.74448 0.0
H1611 H 0.46721 0.95008 0.77622 0.0
S1612 S 0.35531 0.07345 0.77418 0.0
N1613 N 0.37417 0.06174 0.75452 0.0
N1614 N 0.37549 0.04355 0.78886 0.0
C1615 C 0.39892 0.02208 0.77796 0.0
C1616 C 0.39819 0.03194 0.7593 0.0
C1617 C 0.26253 0.1509 1.0024 0.0
C1618 C 0.23382 0.17574 0.99515 0.0
C1619 C 0.27095 0.15089 0.02086 0.0
C1620 C 0.25094 0.17563 0.03283 0.0
H1621 H 0.27913 0.13182 0.99369 0.0
H1622 H 0.29398 0.13199 0.02573 0.0
S1623 S 0.17011 0.24294 0.02103 0.0
N1624 N 0.18325 0.22347 1.00169 0.0
N1625 N 0.1992 0.22353 0.03626 0.0
C1626 C 0.22147 0.19982 0.02583 0.0
C1627 C 0.21289 0.19984 1.00706 0.0
C1628 C 0.89337 0.96835 0.75711 0.0
C1629 C 0.91936 0.98616 0.74494 0.0
C1630 C 0.8941 0.97742 0.77551 0.0
C1631 C 0.92095 0.00454 0.78246 0.0
H1632 H 0.87284 0.94658 0.75246 0.0
H1633 H 0.87398 0.96255 0.7844 0.0
S1634 S 0.99211 0.0626 0.75598 0.0
N1635 N 0.97061 0.0344 0.74101 0.0
N1636 N 0.97199 0.05145 0.77545 0.0
C1637 C 0.94633 0.02334 0.77035 0.0
C1638 C 0.94556 0.01414 0.75165 0.0
C1639 C 0.77421 0.18847 0.52426 0.0
C1640 C 0.74321 0.16578 0.53093 0.0
C1641 C 0.78339 0.18901 0.50589 0.0
C1642 C 0.76173 0.16719 0.49333 0.0
H1643 H 0.79151 0.20605 0.53333 0.0
H1644 H 0.8078 0.20671 0.50151 0.0
S1645 S 0.67626 0.10459 0.5038 0.0
N1646 N 0.69015 0.12167 0.52348 0.0
N1647 N 0.707 0.12306 0.48898 0.0
C1648 C 0.73067 0.14428 0.49985 0.0
C1649 C 0.7215 0.14353 0.5186 0.0
C1650 C 0.55155 0.02995 0.25551 0.0
C1651 C 0.57471 0.00996 0.24286 0.0
C1652 C 0.55248 0.02025 0.27382 0.0
C1653 C 0.57682 0.99031 0.28029 0.0
H1654 H 0.53278 0.05366 0.25126 0.0
H1655 H 0.53416 0.03649 0.28301 0.0
S1656 S 0.64105 0.92701 0.25272 0.0
N1657 N 0.62125 0.95739 0.23812 0.0
N1658 N 0.62324 0.93944 0.27249 0.0
C1659 C 0.59995 0.9699 0.26782 0.0
C1660 C 0.59886 0.97965 0.24916 0.0
C1661 C 0.78916 0.79915 0.01751 0.0
C1662 C 0.76515 0.81799 0.03024 0.0
C1663 C 0.7796 0.79874 0.99917 0.0
C1664 C 0.74595 0.8176 0.99275 0.0
H1665 H 0.81592 0.78501 0.02168 0.0
H1666 H 0.79893 0.78393 0.9899 0.0
S1667 S 0.67155 0.86834 0.02036 0.0
N1668 N 0.70465 0.85376 0.03499 0.0
N1669 N 0.68749 0.85387 1.00055 0.0
C1670 C 0.7215 0.83621 1.00526 0.0
C1671 C 0.73091 0.83623 0.02395 0.0
C1672 C 0.54436 0.48928 0.77115 0.0
C1673 C 0.57349 0.51278 0.77889 0.0
C1674 C 0.54533 0.47952 0.75284 0.0
C1675 C 0.57531 0.49312 0.74146 0.0
H1676 H 0.52092 0.47785 0.77938 0.0
H1677 H 0.52273 0.46058 0.74763 0.0
S1678 S 0.65617 0.5591 0.75476 0.0
N1679 N 0.63171 0.55155 0.77353 0.0
N1680 N 0.6333 0.53371 0.73917 0.0
C1681 C 0.60409 0.51744 0.74898 0.0
C1682 C 0.60321 0.52716 0.76764 0.0
C1683 C 0.72498 0.30834 0.01824 0.0
C1684 C 0.74542 0.33031 0.03114 0.0
C1685 C 0.73469 0.3102 0.99996 0.0
C1686 C 0.76526 0.33413 0.99375 0.0
H1687 H 0.70099 0.28972 0.02229 0.0
H1688 H 0.71803 0.29273 0.9906 0.0
S1689 S 0.82928 0.39593 0.02211 0.0
N1690 N 0.79842 0.37593 0.03644 0.0
N1691 N 0.81685 0.37928 1.00214 0.0
C1692 C 0.78595 0.3563 1.0065 0.0
C1693 C 0.776 0.35443 0.02514 0.0
C1694 C 0.94738 0.51067 0.27454 0.0
C1695 C 0.9212 0.48275 0.2814 0.0
C1696 C 0.94759 0.52059 0.25624 0.0
C1697 C 0.92184 0.50278 0.24399 0.0
H1698 H 0.96761 0.52529 0.28344 0.0
H1699 H 0.96773 0.54289 0.25172 0.0
S1700 S 0.85014 0.42503 0.25489 0.0
N1701 N 0.8704 0.43578 0.27435 0.0
N1702 N 0.8711 0.45394 0.24 0.0
C1703 C 0.89602 0.47424 0.25065 0.0
C1704 C 0.89564 0.46435 0.26931 0.0
C1705 C 0.77548 0.65084 0.51961 0.0
C1706 C 0.75603 0.67573 0.53173 0.0
C1707 C 0.76687 0.65131 0.50117 0.0
C1708 C 0.73856 0.67677 0.49407 0.0
H1709 H 0.7982 0.63144 0.52436 0.0
H1710 H 0.78304 0.63209 0.49234 0.0
S1711 S 0.67626 0.74462 0.52032 0.0
N1712 N 0.70512 0.72442 0.53543 0.0
N1713 N 0.68891 0.72528 0.5009 0.0
C1714 C 0.71817 0.70103 0.50612 0.0
C1715 C 0.72692 0.70053 0.52488 0.0
C1716 C 0.39722 0.4854 0.27446 0.0
C1717 C 0.42123 0.51561 0.28092 0.0
C1718 C 0.39698 0.47518 0.2562 0.0
C1719 C 0.42069 0.4948 0.24364 0.0
H1720 H 0.37895 0.46907 0.28365 0.0
H1721 H 0.37865 0.45117 0.25194 0.0
S1722 S 0.48556 0.57884 0.25328 0.0
N1723 N 0.46711 0.56695 0.27301 0.0
N1724 N 0.46671 0.54768 0.2388 0.0
C1725 C 0.44409 0.52566 0.24985 0.0
C1726 C 0.44434 0.53607 0.26842 0.0
C1727 C 0.27406 0.64479 1.00451 0.0
C1728 C 0.25423 0.66907 0.99228 0.0
C1729 C 0.26524 0.64542 0.02295 0.0
C1730 C 0.2362 0.67034 0.02987 0.0
H1731 H 0.29734 0.62593 0.99985 0.0
H1732 H 0.28189 0.62691 0.0319 0.0
S1733 S 0.17243 0.7359 1.00308 0.0
N1734 N 0.20225 0.71635 0.98818 0.0
N1735 N 0.18511 0.71712 0.02262 0.0
C1736 C 0.21519 0.69365 0.01763 0.0
C1737 C 0.22435 0.69314 0.99892 0.0
C1738 C 0.05469 0.52072 0.75352 0.0
C1739 C 0.08089 0.50303 0.74143 0.0
C1740 C 0.05514 0.51164 0.7719 0.0
C1741 C 0.08188 0.48452 0.77901 0.0
H1742 H 0.03384 0.54213 0.74877 0.0
H1743 H 0.03446 0.52613 0.78065 0.0
S1744 S 0.15483 0.42795 0.75291 0.0
N1745 N 0.13324 0.45584 0.73781 0.0
N1746 N 0.13404 0.43866 0.77228 0.0
C1747 C 0.1081 0.46643 0.76705 0.0
C1748 C 0.10763 0.4757 0.74832 0.0
C1749 C 0.22187 0.34412 0.50479 0.0
C1750 C 0.24291 0.32043 0.49273 0.0
C1751 C 0.22945 0.34325 0.52332 0.0
C1752 C 0.2583 0.31858 0.53053 0.0
H1753 H 0.19874 0.36289 0.49991 0.0
H1754 H 0.21211 0.36153 0.5321 0.0
S1755 S 0.32456 0.25415 0.50448 0.0
N1756 N 0.29571 0.27378 0.48921 0.0
N1757 N 0.31019 0.27229 0.5239 0.0
C1758 C 0.28027 0.29558 0.51854 0.0
C1759 C 0.27251 0.29644 0.49971 0.0
C1760 C 0.97678 0.20929 0.33164 0.0
C1761 C 0.0177 0.2113 0.33096 0.0
C1762 C 0.95425 0.24321 0.33268 0.0
C1763 C 0.97206 0.28004 0.33347 0.0
H1764 H 0.96225 0.18123 0.33155 0.0
H1765 H 0.92279 0.24063 0.33347 0.0
S1766 S 0.07812 0.3009 0.33192 0.0
N1767 N 0.07515 0.25286 0.3308 0.0
N1768 N 0.03267 0.31683 0.33302 0.0
C1769 C 0.0129 0.28248 0.33257 0.0
C1770 C 0.03581 0.248 0.3312 0.0
C1771 C -0.00079 0.71272 0.58508 0.0
C1772 C 0.964 0.72939 0.57941 0.0
C1773 C 0.03382 0.7343 0.58467 0.0
C1774 C 0.03426 0.77313 0.57846 0.0
H1775 H -0.00033 0.68313 0.59019 0.0
H1776 H 0.06039 0.72054 0.58933 0.0
S1777 S 0.94917 0.82842 0.56105 0.0
N1778 N 0.93117 0.78536 0.56662 0.0
N1779 N 0.9961 0.82667 0.56601 0.0
C1780 C -0.00092 0.78963 0.57233 0.0
C1781 C 0.9639 0.76756 0.57282 0.0
C1782 C 0.46163 0.74928 0.84115 0.0
C1783 C 0.47464 0.78318 0.83259 0.0
C1784 C 0.4847 0.71565 0.84129 0.0
C1785 C 0.52167 0.71503 0.83295 0.0
H1786 H 0.43388 0.74923 0.84813 0.0
H1787 H 0.47348 0.69008 0.84806 0.0
S1788 S 0.56649 0.79682 0.80741 0.0
N1789 N 0.52436 0.81435 0.81457 0.0
N1790 N 0.56897 0.75173 0.81516 0.0
C1791 C 0.53425 0.74889 0.82385 0.0
C1792 C 0.51044 0.78291 0.82365 0.0
C1793 C 0.48308 0.23446 0.09762 0.0
C1794 C 0.46213 0.22718 0.08183 0.0
C1795 C 0.51889 0.25372 0.09709 0.0
C1796 C 0.53472 0.26706 0.08079 0.0
H1797 H 0.47184 0.22481 0.11045 0.0
H1798 H 0.53387 0.25884 0.10964 0.0
S1799 S 0.49145 0.2542 0.03564 0.0
N1800 N 0.45961 0.23388 0.04943 0.0
N1801 N 0.52735 0.27038 0.0484 0.0
C1802 C 0.51418 0.25964 0.06486 0.0
C1803 C 0.47779 0.23956 0.06539 0.0
C1804 C 0.98469 0.7343 0.20359 0.0
C1805 C 0.96825 0.71792 0.18812 0.0
C1806 C 0.00658 0.76866 0.20261 0.0
C1807 C 0.01238 0.78789 0.18615 0.0
H1808 H 0.98154 0.71978 0.21641 0.0
H1809 H 0.01922 0.78022 0.2148 0.0
S1810 S 0.97251 0.75795 0.14194 0.0
N1811 N 0.95663 0.72449 0.15611 0.0
N1812 N -0.00122 0.78844 0.15408 0.0
C1813 C 0.99503 0.77228 0.17064 0.0
C1814 C 0.97272 0.73738 0.17167 0.0
C1815 C 0.51539 0.74186 0.4553 0.0
C1816 C 0.53803 0.7392 0.43957 0.0
C1817 C 0.47998 0.76221 0.45545 0.0
C1818 C 0.46604 0.78012 0.43983 0.0
H1819 H 0.52501 0.72793 0.46755 0.0
H1820 H 0.46287 0.76316 0.46766 0.0
S1821 S 0.51475 0.78559 0.39574 0.0
N1822 N 0.54412 0.75864 0.40814 0.0
N1823 N 0.47787 0.7973 0.40886 0.0
C1824 C 0.48869 0.7791 0.42427 0.0
C1825 C 0.52471 0.75859 0.42403 0.0
C1826 C 0.48273 0.23499 0.67463 0.0
C1827 C 0.47264 0.21706 0.69093 0.0
C1828 C 0.50614 0.26827 0.67431 0.0
C1829 C 0.52064 0.28449 0.69026 0.0
H1830 H 0.47229 0.2232 0.66205 0.0
H1831 H 0.51355 0.28106 0.66148 0.0
S1832 S 0.50287 0.24843 0.73637 0.0
N1833 N 0.4789 0.21763 0.72339 0.0
N1834 N 0.52316 0.28065 0.72276 0.0
C1835 C 0.51085 0.26691 0.70665 0.0
C1836 C 0.48662 0.23313 0.707 0.0
C1837 C 0.00061 0.21842 0.94392 0.0
C1838 C 0.03815 0.23466 0.94304 0.0
C1839 C 0.96754 0.24228 0.94353 0.0
C1840 C 0.97107 0.28307 0.94252 0.0
H1841 H 0.99683 0.18706 0.94422 0.0
H1842 H 0.93897 0.22879 0.94375 0.0
S1843 S 0.06312 0.33972 0.94112 0.0
N1844 N 0.07727 0.29369 0.94209 0.0
N1845 N 0.01492 0.33874 0.94124 0.0
C1846 C 0.00848 0.2997 0.94229 0.0
C1847 C 0.04213 0.27539 0.94253 0.0
C1848 C 0.97721 0.75966 0.70333 0.0
C1849 C 0.96153 0.77481 0.68741 0.0
C1850 C 2e-05 0.72583 0.70312 0.0
C1851 C 0.00744 0.70578 0.68702 0.0
H1852 H 0.97276 0.77478 0.71591 0.0
H1853 H 0.01209 0.71534 0.71564 0.0
S1854 S 0.96992 0.73268 0.64185 0.0
N1855 N 0.95264 0.76667 0.65536 0.0
N1856 N 0.99552 0.70308 0.65476 0.0
C1857 C 0.9906 0.72008 0.67106 0.0
C1858 C 0.9677 0.7547 0.67131 0.0
C1859 C 0.01826 0.25922 0.42524 0.0
C1860 C 0.03527 0.26995 0.44166 0.0
C1861 C 0.98369 0.23784 0.4247 0.0
C1862 C 0.96503 0.22608 0.44057 0.0
H1863 H 0.03164 0.26768 0.41266 0.0
H1864 H 0.97179 0.22984 0.41177 0.0
S1865 S 0.99714 0.24729 0.48699 0.0
N1866 N 0.03083 0.2676 0.47416 0.0
N1867 N 0.96519 0.22743 0.47315 0.0
C1868 C 0.98144 0.2368 0.4571 0.0
C1869 C 0.01667 0.25887 0.45765 0.0
C1870 C 0.4825 0.26725 0.17316 0.0
C1871 C 0.46975 0.28374 0.18938 0.0
C1872 C 0.50567 0.23381 0.17304 0.0
C1873 C 0.51716 0.2159 0.18913 0.0
H1874 H 0.47432 0.28024 0.16047 0.0
H1875 H 0.51512 0.22215 0.16026 0.0
S1876 S 0.49126 0.24748 0.23514 0.0
N1877 N 0.47015 0.27992 0.22192 0.0
N1878 N 0.51361 0.21638 0.22168 0.0
C1879 C 0.50454 0.23194 0.20545 0.0
C1880 C 0.48069 0.26597 0.20558 0.0
C1881 C 0.52043 0.74946 0.92517 0.0
C1882 C 0.5378 0.76095 0.9414 0.0
C1883 C 0.48504 0.72932 0.92502 0.0
C1884 C 0.46582 0.71981 0.94108 0.0
H1885 H 0.53397 0.75665 0.91247 0.0
H1886 H 0.47276 0.72083 0.91223 0.0
S1887 S 0.4994 0.74266 0.98713 0.0
N1888 N 0.53375 0.76061 0.97394 0.0
N1889 N 0.46647 0.72334 0.97363 0.0
C1890 C 0.48293 0.73084 0.95741 0.0
C1891 C 0.51905 0.7514 0.95757 0.0
C1892 C 0.00537 0.22138 0.84933 0.0
C1893 C 0.99219 0.20489 0.83317 0.0
C1894 C 0.02549 0.25678 0.84945 0.0
C1895 C 0.03385 0.27644 0.8334 0.0
H1896 H -0.00081 0.20746 0.86204 0.0
H1897 H 0.03467 0.26889 0.86218 0.0
S1898 S 0.00894 0.24403 0.78744 0.0
N1899 N 0.99122 0.20958 0.80063 0.0
N1900 N 0.02915 0.27647 0.8009 0.0
C1901 C 0.02219 0.25969 0.8171 0.0
C1902 C 0.00131 0.2238 0.81698 0.0
C1903 C 0.49872 0.204 0.57935 0.0
C1904 C 0.53434 0.22429 0.57973 0.0
C1905 C 0.46322 0.22414 0.57936 0.0
C1906 C 0.46241 0.26506 0.57929 0.0
H1907 H 0.49837 0.17241 0.57961 0.0
H1908 H 0.43619 0.20775 0.57946 0.0
S1909 S 0.54767 0.33151 0.58006 0.0
N1910 N 0.5668 0.28726 0.58 0.0
N1911 N 0.49987 0.32525 0.57964 0.0
C1912 C 0.49779 0.28567 0.57935 0.0
C1913 C 0.53387 0.2652 0.57969 0.0
C1914 C 0.52157 0.7605 0.34858 0.0
C1915 C 0.52412 0.78312 0.33302 0.0
C1916 C 0.49738 0.72792 0.34933 0.0
C1917 C 0.47526 0.71643 0.33435 0.0
H1918 H 0.53854 0.76833 0.36024 0.0
H1919 H 0.49553 0.7121 0.36186 0.0
S1920 S 0.47449 0.76473 0.28981 0.0
N1921 N 0.50422 0.79171 0.30206 0.0
N1922 N 0.45951 0.72904 0.30304 0.0
C1923 C 0.4786 0.7382 0.31841 0.0
C1924 C 0.5031 0.77177 0.31779 0.0
C1925 C 0.00322 0.7912 0.08263 0.0
C1926 C 0.96621 0.77381 0.08347 0.0
C1927 C 0.03677 0.76833 0.08127 0.0
C1928 C 0.03421 0.72749 0.08032 0.0
H1929 H 0.00619 0.82258 0.08363 0.0
H1930 H 0.06503 0.78251 0.08125 0.0
S1931 S 0.94378 0.66826 0.08102 0.0
N1932 N 0.9285 0.71385 0.08263 0.0
N1933 N 0.99188 0.67061 0.07974 0.0
C1934 C 0.99728 0.70983 0.0805 0.0
C1935 C 0.96314 0.73311 0.08222 0.0
loop_
_geom_bond_atom_site_label_1
_geom_bond_atom_site_label_2
_geom_bond_distance
_geom_bond_site_symmetry_2
_ccdc_geom_bond_type
Co0 N4 2.148 . S
Co0 N10 2.128 . S
Co0 N20 2.194 . S
Co0 O25 2.351 . S
Co0 O26 2.155 . S
Co0 O27 2.096 . S
C1 N4 1.301 . S
C1 N5 1.328 1_545 S
C1 H6 0.930 . S
C2 C3 1.309 1_545 S
C2 N4 1.335 . S
C2 H7 0.936 . S
C3 C2 1.309 1_565 S
C3 N5 1.350 . S
C3 H29 0.931 . S
N4 Co0 2.148 . S
N4 C1 1.301 . S
N4 C2 1.335 . S
N5 C1 1.328 1_565 S
N5 C3 1.350 . S
H6 C1 0.930 . S
H7 C2 0.936 . S
C8 O9 1.224 . S
C8 O27 1.247 1_655 S
O9 C8 1.224 . S
N10 Co0 2.128 . S
N10 C11 1.355 . S
N10 C13 1.318 . S
C11 N10 1.355 . S
C11 C12 1.363 . S
C11 H23 0.929 . S
C12 C11 1.363 . S
C12 N14 1.375 1_455 S
C12 H30 0.931 . S
C13 N10 1.318 . S
C13 N14 1.346 1_455 S
C13 H24 0.924 1_455 S
N14 C12 1.375 1_655 S
N14 C13 1.346 1_655 S
C15 C18 1.365 . S
C15 N20 1.328 . S
C15 H21 0.929 . S
C16 C17 1.362 . S
C16 C19 1.378 . S
C16 H31 0.947 . S
C17 C16 1.362 . S
C17 C18 1.366 . S
C18 C15 1.365 . S
C18 C17 1.366 . S
C18 H32 0.930 . S
C19 C16 1.378 . S
C19 N20 1.315 . S
C19 H22 0.950 . S
N20 Co0 2.194 . S
N20 C15 1.328 . S
N20 C19 1.315 . S
H21 C15 0.929 . S
H22 C19 0.950 . S
H23 C11 0.929 . S
H24 C13 0.924 1_655 S
O25 Co0 2.351 . S
O25 C28 1.244 . S
O26 Co0 2.155 . S
O26 C28 1.240 . S
O27 Co0 2.096 . S
O27 C8 1.247 1_455 S
C28 O25 1.244 . S
C28 O26 1.240 . S
H29 C3 0.931 . S
H30 C12 0.931 . S
H31 C16 0.947 . S
H32 C18 0.930 . S
Co33 N37 2.148 . S
Co33 N43 2.128 . S
Co33 N53 2.194 . S
Co33 O58 2.351 . S
Co33 O59 2.155 . S
Co33 O60 2.096 . S
C34 N37 1.301 . S
C34 N38 1.328 . S
C34 H39 0.930 . S
C35 C36 1.333 . S
C35 N37 1.317 . S
C35 H40 0.930 . S
C36 C35 1.333 . S
C36 N38 1.350 . S
C36 H62 0.931 . S
N37 Co33 2.148 . S
N37 C34 1.301 . S
N37 C35 1.317 . S
N38 C34 1.328 . S
N38 C36 1.350 . S
H39 C34 0.930 . S
H40 C35 0.930 . S
C41 O42 1.224 . S
C41 O60 1.247 . S
O42 C41 1.224 . S
N43 Co33 2.128 . S
N43 C44 1.355 . S
N43 C46 1.311 . S
C44 N43 1.355 . S
C44 C45 1.363 . S
C44 H56 0.929 . S
C45 C44 1.363 . S
C45 N47 1.375 . S
C45 H63 0.931 . S
C46 N43 1.311 . S
C46 N47 1.347 . S
C46 H57 0.929 . S
N47 C45 1.375 . S
N47 C46 1.347 . S
C48 C51 1.365 . S
C48 N53 1.328 . S
C48 H54 0.929 . S
C49 C50 1.362 . S
C49 C52 1.378 . S
C49 H64 0.929 . S
C50 C49 1.362 . S
C50 C51 1.366 . S
C51 C48 1.365 . S
C51 C50 1.366 . S
C51 H65 0.930 . S
C52 C49 1.378 . S
C52 N53 1.315 . S
C52 H55 0.930 . S
N53 Co33 2.194 . S
N53 C48 1.328 . S
N53 C52 1.315 . S
H54 C48 0.929 . S
H55 C52 0.930 . S
H56 C44 0.929 . S
H57 C46 0.929 . S
O58 Co33 2.351 . S
O58 C61 1.244 . S
O59 Co33 2.155 . S
O59 C61 1.240 . S
O60 Co33 2.096 . S
O60 C41 1.247 . S
C61 O58 1.244 . S
C61 O59 1.240 . S
H62 C36 0.931 . S
H63 C45 0.931 . S
H64 C49 0.929 . S
H65 C51 0.930 . S
Co66 N70 2.148 . S
Co66 N76 2.128 . S
Co66 N86 2.194 . S
Co66 O91 2.351 . S
Co66 O92 2.155 . S
Co66 O93 2.096 . S
C67 N70 1.301 . S
C67 N71 1.328 1_565 S
C67 H72 0.930 . S
C68 C69 1.309 1_565 S
C68 N70 1.335 . S
C68 H73 0.936 . S
C69 C68 1.309 1_545 S
C69 N71 1.350 . S
C69 H95 0.931 . S
N70 Co66 2.148 . S
N70 C67 1.301 . S
N70 C68 1.335 . S
N71 C67 1.328 1_545 S
N71 C69 1.350 . S
H72 C67 0.930 . S
H73 C68 0.936 . S
C74 O75 1.224 . S
C74 O93 1.247 . S
O75 C74 1.224 . S
N76 Co66 2.128 . S
N76 C77 1.355 . S
N76 C79 1.311 . S
C77 N76 1.355 . S
C77 C78 1.363 . S
C77 H89 0.929 . S
C78 C77 1.363 . S
C78 N80 1.375 . S
C78 H96 0.931 . S
C79 N76 1.311 . S
C79 N80 1.347 . S
C79 H90 0.929 . S
N80 C78 1.375 . S
N80 C79 1.347 . S
C81 C84 1.365 . S
C81 N86 1.328 . S
C81 H87 0.929 . S
C82 C83 1.362 . S
C82 C85 1.378 . S
C82 H97 0.929 . S
C83 C82 1.362 . S
C83 C84 1.366 . S
C84 C81 1.365 . S
C84 C83 1.366 . S
C84 H98 0.930 . S
C85 C82 1.378 . S
C85 N86 1.315 . S
C85 H88 0.930 . S
N86 Co66 2.194 . S
N86 C81 1.328 . S
N86 C85 1.315 . S
H87 C81 0.929 . S
H88 C85 0.930 . S
H89 C77 0.929 . S
H90 C79 0.929 . S
O91 Co66 2.351 . S
O91 C94 1.244 . S
O92 Co66 2.155 . S
O92 C94 1.240 . S
O93 Co66 2.096 . S
O93 C74 1.247 . S
C94 O91 1.244 . S
C94 O92 1.240 . S
H95 C69 0.931 . S
H96 C78 0.931 . S
H97 C82 0.929 . S
H98 C84 0.930 . S
Co99 N103 2.148 . S
Co99 N109 2.128 . S
Co99 N119 2.194 . S
Co99 O124 2.351 . S
Co99 O125 2.155 . S
Co99 O126 2.096 . S
C100 N103 1.301 . S
C100 N104 1.328 . S
C100 H105 0.930 . S
C101 C102 1.333 . S
C101 N103 1.317 . S
C101 H106 0.930 . S
C102 C101 1.333 . S
C102 N104 1.350 . S
C102 H128 0.931 . S
N103 Co99 2.148 . S
N103 C100 1.301 . S
N103 C101 1.317 . S
N104 C100 1.328 . S
N104 C102 1.350 . S
H105 C100 0.930 . S
H106 C101 0.930 . S
C107 O108 1.224 . S
C107 O126 1.247 . S
O108 C107 1.224 . S
N109 Co99 2.128 . S
N109 C110 1.355 . S
N109 C112 1.311 . S
C110 N109 1.355 . S
C110 C111 1.363 . S
C110 H122 0.929 . S
C111 C110 1.363 . S
C111 N113 1.375 . S
C111 H129 0.931 . S
C112 N109 1.311 . S
C112 N113 1.347 . S
C112 H123 0.929 . S
N113 C111 1.375 . S
N113 C112 1.347 . S
C114 C117 1.365 . S
C114 N119 1.328 . S
C114 H120 0.929 . S
C115 C116 1.362 . S
C115 C118 1.378 . S
C115 H130 0.929 . S
C116 C115 1.362 . S
C116 C117 1.366 . S
C117 C114 1.365 . S
C117 C116 1.366 . S
C117 H131 0.930 . S
C118 C115 1.378 . S
C118 N119 1.315 . S
C118 H121 0.930 . S
N119 Co99 2.194 . S
N119 C114 1.328 . S
N119 C118 1.315 . S
H120 C114 0.929 . S
H121 C118 0.930 . S
H122 C110 0.929 . S
H123 C112 0.929 . S
O124 Co99 2.351 . S
O124 C127 1.244 . S
O125 Co99 2.155 . S
O125 C127 1.240 . S
O126 Co99 2.096 . S
O126 C107 1.247 . S
C127 O124 1.244 . S
C127 O125 1.240 . S
H128 C102 0.931 . S
H129 C111 0.931 . S
H130 C115 0.929 . S
H131 C117 0.930 . S
Co132 N136 2.148 . S
Co132 N142 2.128 . S
Co132 N152 2.194 . S
Co132 O157 2.351 . S
Co132 O158 2.155 . S
Co132 O159 2.096 . S
C133 N136 1.301 . S
C133 N137 1.328 1_565 S
C133 H138 0.930 . S
C134 C135 1.309 1_565 S
C134 N136 1.335 . S
C134 H139 0.936 . S
C135 C134 1.309 1_545 S
C135 N137 1.350 . S
C135 H161 0.931 . S
N136 Co132 2.148 . S
N136 C133 1.301 . S
N136 C134 1.335 . S
N137 C133 1.328 1_545 S
N137 C135 1.350 . S
H138 C133 0.930 . S
H139 C134 0.936 . S
C140 O141 1.224 . S
C140 O159 1.247 1_655 S
O141 C140 1.224 . S
N142 Co132 2.128 . S
N142 C143 1.355 . S
N142 C145 1.318 . S
C143 N142 1.355 . S
C143 C144 1.363 . S
C143 H155 0.929 . S
C144 C143 1.363 . S
C144 N146 1.375 1_455 S
C144 H162 0.931 . S
C145 N142 1.318 . S
C145 N146 1.346 1_455 S
C145 H156 0.924 1_455 S
N146 C144 1.375 1_655 S
N146 C145 1.346 1_655 S
C147 C150 1.365 . S
C147 N152 1.328 . S
C147 H153 0.929 . S
C148 C149 1.362 . S
C148 C151 1.378 . S
C148 H163 0.947 . S
C149 C148 1.362 . S
C149 C150 1.366 . S
C150 C147 1.365 . S
C150 C149 1.366 . S
C150 H164 0.930 . S
C151 C148 1.378 . S
C151 N152 1.315 . S
C151 H154 0.950 . S
N152 Co132 2.194 . S
N152 C147 1.328 . S
N152 C151 1.315 . S
H153 C147 0.929 . S
H154 C151 0.950 . S
H155 C143 0.929 . S
H156 C145 0.924 1_655 S
O157 Co132 2.351 . S
O157 C160 1.244 . S
O158 Co132 2.155 . S
O158 C160 1.240 . S
O159 Co132 2.096 . S
O159 C140 1.247 1_455 S
C160 O157 1.244 . S
C160 O158 1.240 . S
H161 C135 0.931 . S
H162 C144 0.931 . S
H163 C148 0.947 . S
H164 C150 0.930 . S
Co165 N169 2.148 . S
Co165 N175 2.128 . S
Co165 N185 2.194 . S
Co165 O190 2.351 . S
Co165 O191 2.155 . S
Co165 O192 2.096 . S
C166 N169 1.301 . S
C166 N170 1.328 . S
C166 H171 0.930 . S
C167 C168 1.333 . S
C167 N169 1.317 . S
C167 H172 0.930 . S
C168 C167 1.333 . S
C168 N170 1.350 . S
C168 H194 0.931 . S
N169 Co165 2.148 . S
N169 C166 1.301 . S
N169 C167 1.317 . S
N170 C166 1.328 . S
N170 C168 1.350 . S
H171 C166 0.930 . S
H172 C167 0.930 . S
C173 O174 1.224 . S
C173 O192 1.247 . S
O174 C173 1.224 . S
N175 Co165 2.128 . S
N175 C176 1.355 . S
N175 C178 1.311 . S
C176 N175 1.355 . S
C176 C177 1.363 . S
C176 H188 0.929 . S
C177 C176 1.363 . S
C177 N179 1.375 . S
C177 H195 0.931 . S
C178 N175 1.311 . S
C178 N179 1.347 . S
C178 H189 0.929 . S
N179 C177 1.375 . S
N179 C178 1.347 . S
C180 C183 1.365 . S
C180 N185 1.328 . S
C180 H186 0.929 . S
C181 C182 1.362 . S
C181 C184 1.378 . S
C181 H196 0.929 . S
C182 C181 1.362 . S
C182 C183 1.366 . S
C183 C180 1.365 . S
C183 C182 1.366 . S
C183 H197 0.930 . S
C184 C181 1.378 . S
C184 N185 1.315 . S
C184 H187 0.930 . S
N185 Co165 2.194 . S
N185 C180 1.328 . S
N185 C184 1.315 . S
H186 C180 0.929 . S
H187 C184 0.930 . S
H188 C176 0.929 . S
H189 C178 0.929 . S
O190 Co165 2.351 . S
O190 C193 1.244 . S
O191 Co165 2.155 . S
O191 C193 1.240 . S
O192 Co165 2.096 . S
O192 C173 1.247 . S
C193 O190 1.244 . S
C193 O191 1.240 . S
H194 C168 0.931 . S
H195 C177 0.931 . S
H196 C181 0.929 . S
H197 C183 0.930 . S
Co198 N202 2.148 . S
Co198 N208 2.128 . S
Co198 N218 2.194 . S
Co198 O223 2.351 . S
Co198 O224 2.155 . S
Co198 O225 2.096 . S
C199 N202 1.301 . S
C199 N203 1.328 1_545 S
C199 H204 0.930 . S
C200 C201 1.309 1_545 S
C200 N202 1.335 . S
C200 H205 0.936 . S
C201 C200 1.309 1_565 S
C201 N203 1.350 . S
C201 H227 0.931 . S
N202 Co198 2.148 . S
N202 C199 1.301 . S
N202 C200 1.335 . S
N203 C199 1.328 1_565 S
N203 C201 1.350 . S
H204 C199 0.930 . S
H205 C200 0.936 . S
C206 O207 1.224 . S
C206 O225 1.247 . S
O207 C206 1.224 . S
N208 Co198 2.128 . S
N208 C209 1.355 . S
N208 C211 1.311 . S
C209 N208 1.355 . S
C209 C210 1.363 . S
C209 H221 0.929 . S
C210 C209 1.363 . S
C210 N212 1.375 . S
C210 H228 0.931 . S
C211 N208 1.311 . S
C211 N212 1.347 . S
C211 H222 0.929 . S
N212 C210 1.375 . S
N212 C211 1.347 . S
C213 C216 1.365 . S
C213 N218 1.328 . S
C213 H219 0.929 . S
C214 C215 1.362 . S
C214 C217 1.378 . S
C214 H229 0.929 . S
C215 C214 1.362 . S
C215 C216 1.366 . S
C216 C213 1.365 . S
C216 C215 1.366 . S
C216 H230 0.930 . S
C217 C214 1.378 . S
C217 N218 1.315 . S
C217 H220 0.930 . S
N218 Co198 2.194 . S
N218 C213 1.328 . S
N218 C217 1.315 . S
H219 C213 0.929 . S
H220 C217 0.930 . S
H221 C209 0.929 . S
H222 C211 0.929 . S
O223 Co198 2.351 . S
O223 C226 1.244 . S
O224 Co198 2.155 . S
O224 C226 1.240 . S
O225 Co198 2.096 . S
O225 C206 1.247 . S
C226 O223 1.244 . S
C226 O224 1.240 . S
H227 C201 0.931 . S
H228 C210 0.931 . S
H229 C214 0.929 . S
H230 C216 0.930 . S
Co231 N235 2.148 . S
Co231 N241 2.128 . S
Co231 N251 2.194 . S
Co231 O256 2.351 . S
Co231 O257 2.155 . S
Co231 O258 2.096 . S
C232 N235 1.301 . S
C232 N236 1.328 . S
C232 H237 0.930 . S
C233 C234 1.333 . S
C233 N235 1.317 . S
C233 H238 0.930 . S
C234 C233 1.333 . S
C234 N236 1.350 . S
C234 H260 0.931 . S
N235 Co231 2.148 . S
N235 C232 1.301 . S
N235 C233 1.317 . S
N236 C232 1.328 . S
N236 C234 1.350 . S
H237 C232 0.930 . S
H238 C233 0.930 . S
C239 O240 1.224 . S
C239 O258 1.247 . S
O240 C239 1.224 . S
N241 Co231 2.128 . S
N241 C242 1.355 . S
N241 C244 1.311 . S
C242 N241 1.355 . S
C242 C243 1.363 . S
C242 H254 0.929 . S
C243 C242 1.363 . S
C243 N245 1.375 . S
C243 H261 0.931 . S
C244 N241 1.311 . S
C244 N245 1.347 . S
C244 H255 0.929 . S
N245 C243 1.375 . S
N245 C244 1.347 . S
C246 C249 1.365 . S
C246 N251 1.328 . S
C246 H252 0.929 . S
C247 C248 1.362 . S
C247 C250 1.378 . S
C247 H262 0.929 . S
C248 C247 1.362 . S
C248 C249 1.366 . S
C249 C246 1.365 . S
C249 C248 1.366 . S
C249 H263 0.930 . S
C250 C247 1.378 . S
C250 N251 1.315 . S
C250 H253 0.930 . S
N251 Co231 2.194 . S
N251 C246 1.328 . S
N251 C250 1.315 . S
H252 C246 0.929 . S
H253 C250 0.930 . S
H254 C242 0.929 . S
H255 C244 0.929 . S
O256 Co231 2.351 . S
O256 C259 1.244 . S
O257 Co231 2.155 . S
O257 C259 1.240 . S
O258 Co231 2.096 . S
O258 C239 1.247 . S
C259 O256 1.244 . S
C259 O257 1.240 . S
H260 C234 0.931 . S
H261 C243 0.931 . S
H262 C247 0.929 . S
H263 C249 0.930 . S
Co264 N268 2.148 . S
Co264 N274 2.128 . S
Co264 N284 2.194 . S
Co264 O289 2.351 . S
Co264 O290 2.155 . S
Co264 O291 2.096 . S
C265 N268 1.301 . S
C265 N269 1.328 1_565 S
C265 H270 0.930 . S
C266 C267 1.309 1_565 S
C266 N268 1.335 . S
C266 H271 0.936 . S
C267 C266 1.309 1_545 S
C267 N269 1.350 . S
C267 H293 0.931 . S
N268 Co264 2.148 . S
N268 C265 1.301 . S
N268 C266 1.335 . S
N269 C265 1.328 1_545 S
N269 C267 1.350 . S
H270 C265 0.930 . S
H271 C266 0.936 . S
C272 O273 1.224 . S
C272 O291 1.247 1_455 S
O273 C272 1.224 . S
N274 Co264 2.128 . S
N274 C275 1.355 . S
N274 C277 1.318 . S
C275 N274 1.355 . S
C275 C276 1.363 . S
C275 H287 0.929 . S
C276 C275 1.363 . S
C276 N278 1.375 1_655 S
C276 H294 0.931 . S
C277 N274 1.318 . S
C277 N278 1.346 1_655 S
C277 H288 0.924 1_655 S
N278 C276 1.375 1_455 S
N278 C277 1.346 1_455 S
C279 C282 1.365 . S
C279 N284 1.328 . S
C279 H285 0.929 . S
C280 C281 1.362 . S
C280 C283 1.378 . S
C280 H295 0.947 . S
C281 C280 1.362 . S
C281 C282 1.366 . S
C282 C279 1.365 . S
C282 C281 1.366 . S
C282 H296 0.930 . S
C283 C280 1.378 . S
C283 N284 1.315 . S
C283 H286 0.950 . S
N284 Co264 2.194 . S
N284 C279 1.328 . S
N284 C283 1.315 . S
H285 C279 0.929 . S
H286 C283 0.950 . S
H287 C275 0.929 . S
H288 C277 0.924 1_455 S
O289 Co264 2.351 . S
O289 C292 1.244 . S
O290 Co264 2.155 . S
O290 C292 1.240 . S
O291 Co264 2.096 . S
O291 C272 1.247 1_655 S
C292 O289 1.244 . S
C292 O290 1.240 . S
H293 C267 0.931 . S
H294 C276 0.931 . S
H295 C280 0.947 . S
H296 C282 0.930 . S
Co297 N301 2.148 . S
Co297 N307 2.128 . S
Co297 N317 2.194 . S
Co297 O322 2.351 . S
Co297 O323 2.155 . S
Co297 O324 2.096 . S
C298 N301 1.301 . S
C298 N302 1.328 . S
C298 H303 0.930 . S
C299 C300 1.333 . S
C299 N301 1.317 . S
C299 H304 0.930 . S
C300 C299 1.333 . S
C300 N302 1.350 . S
C300 H326 0.931 . S
N301 Co297 2.148 . S
N301 C298 1.301 . S
N301 C299 1.317 . S
N302 C298 1.328 . S
N302 C300 1.350 . S
H303 C298 0.930 . S
H304 C299 0.930 . S
C305 O306 1.224 . S
C305 O324 1.247 . S
O306 C305 1.224 . S
N307 Co297 2.128 . S
N307 C308 1.355 . S
N307 C310 1.311 . S
C308 N307 1.355 . S
C308 C309 1.363 . S
C308 H320 0.929 . S
C309 C308 1.363 . S
C309 N311 1.375 . S
C309 H327 0.931 . S
C310 N307 1.311 . S
C310 N311 1.347 . S
C310 H321 0.929 . S
N311 C309 1.375 . S
N311 C310 1.347 . S
C312 C315 1.365 . S
C312 N317 1.328 . S
C312 H318 0.929 . S
C313 C314 1.362 . S
C313 C316 1.378 . S
C313 H328 0.929 . S
C314 C313 1.362 . S
C314 C315 1.366 . S
C315 C312 1.365 . S
C315 C314 1.366 . S
C315 H329 0.930 . S
C316 C313 1.378 . S
C316 N317 1.315 . S
C316 H319 0.930 . S
N317 Co297 2.194 . S
N317 C312 1.328 . S
N317 C316 1.315 . S
H318 C312 0.929 . S
H319 C316 0.930 . S
H320 C308 0.929 . S
H321 C310 0.929 . S
O322 Co297 2.351 . S
O322 C325 1.244 . S
O323 Co297 2.155 . S
O323 C325 1.240 . S
O324 Co297 2.096 . S
O324 C305 1.247 . S
C325 O322 1.244 . S
C325 O323 1.240 . S
H326 C300 0.931 . S
H327 C309 0.931 . S
H328 C313 0.929 . S
H329 C315 0.930 . S
Co330 N334 2.148 . S
Co330 N340 2.128 . S
Co330 N350 2.194 . S
Co330 O355 2.351 . S
Co330 O356 2.155 . S
Co330 O357 2.096 . S
C331 N334 1.301 . S
C331 N335 1.328 1_545 S
C331 H336 0.930 . S
C332 C333 1.309 1_545 S
C332 N334 1.335 . S
C332 H337 0.936 . S
C333 C332 1.309 1_565 S
C333 N335 1.350 . S
C333 H359 0.931 . S
N334 Co330 2.148 . S
N334 C331 1.301 . S
N334 C332 1.335 . S
N335 C331 1.328 1_565 S
N335 C333 1.350 . S
H336 C331 0.930 . S
H337 C332 0.936 . S
C338 O339 1.224 . S
C338 O357 1.247 . S
O339 C338 1.224 . S
N340 Co330 2.128 . S
N340 C341 1.355 . S
N340 C343 1.311 . S
C341 N340 1.355 . S
C341 C342 1.363 . S
C341 H353 0.929 . S
C342 C341 1.363 . S
C342 N344 1.375 . S
C342 H360 0.931 . S
C343 N340 1.311 . S
C343 N344 1.347 . S
C343 H354 0.929 . S
N344 C342 1.375 . S
N344 C343 1.347 . S
C345 C348 1.365 . S
C345 N350 1.328 . S
C345 H351 0.929 . S
C346 C347 1.362 . S
C346 C349 1.378 . S
C346 H361 0.929 . S
C347 C346 1.362 . S
C347 C348 1.366 . S
C348 C345 1.365 . S
C348 C347 1.366 . S
C348 H362 0.930 . S
C349 C346 1.378 . S
C349 N350 1.315 . S
C349 H352 0.930 . S
N350 Co330 2.194 . S
N350 C345 1.328 . S
N350 C349 1.315 . S
H351 C345 0.929 . S
H352 C349 0.930 . S
H353 C341 0.929 . S
H354 C343 0.929 . S
O355 Co330 2.351 . S
O355 C358 1.244 . S
O356 Co330 2.155 . S
O356 C358 1.240 . S
O357 Co330 2.096 . S
O357 C338 1.247 . S
C358 O355 1.244 . S
C358 O356 1.240 . S
H359 C333 0.931 . S
H360 C342 0.931 . S
H361 C346 0.929 . S
H362 C348 0.930 . S
Co363 N367 2.148 . S
Co363 N373 2.128 . S
Co363 N383 2.194 . S
Co363 O388 2.351 . S
Co363 O389 2.155 . S
Co363 O390 2.096 . S
C364 N367 1.301 . S
C364 N368 1.328 . S
C364 H369 0.930 . S
C365 C366 1.333 . S
C365 N367 1.317 . S
C365 H370 0.930 . S
C366 C365 1.333 . S
C366 N368 1.350 . S
C366 H392 0.931 . S
N367 Co363 2.148 . S
N367 C364 1.301 . S
N367 C365 1.317 . S
N368 C364 1.328 . S
N368 C366 1.350 . S
H369 C364 0.930 . S
H370 C365 0.930 . S
C371 O372 1.224 . S
C371 O390 1.247 . S
O372 C371 1.224 . S
N373 Co363 2.128 . S
N373 C374 1.355 . S
N373 C376 1.311 . S
C374 N373 1.355 . S
C374 C375 1.363 . S
C374 H386 0.929 . S
C375 C374 1.363 . S
C375 N377 1.375 . S
C375 H393 0.931 . S
C376 N373 1.311 . S
C376 N377 1.347 . S
C376 H387 0.929 . S
N377 C375 1.375 . S
N377 C376 1.347 . S
C378 C381 1.365 . S
C378 N383 1.328 . S
C378 H384 0.929 . S
C379 C380 1.362 . S
C379 C382 1.378 . S
C379 H394 0.929 . S
C380 C379 1.362 . S
C380 C381 1.366 . S
C381 C378 1.365 . S
C381 C380 1.366 . S
C381 H395 0.930 . S
C382 C379 1.378 . S
C382 N383 1.315 . S
C382 H385 0.930 . S
N383 Co363 2.194 . S
N383 C378 1.328 . S
N383 C382 1.315 . S
H384 C378 0.929 . S
H385 C382 0.930 . S
H386 C374 0.929 . S
H387 C376 0.929 . S
O388 Co363 2.351 . S
O388 C391 1.244 . S
O389 Co363 2.155 . S
O389 C391 1.240 . S
O390 Co363 2.096 . S
O390 C371 1.247 . S
C391 O388 1.244 . S
C391 O389 1.240 . S
H392 C366 0.931 . S
H393 C375 0.931 . S
H394 C379 0.929 . S
H395 C381 0.930 . S
Co396 N400 2.148 . S
Co396 N406 2.128 . S
Co396 N416 2.194 . S
Co396 O421 2.351 . S
Co396 O422 2.155 . S
Co396 O423 2.096 . S
C397 N400 1.301 . S
C397 N401 1.328 1_545 S
C397 H402 0.930 . S
C398 C399 1.309 1_545 S
C398 N400 1.335 . S
C398 H403 0.936 . S
C399 C398 1.309 1_565 S
C399 N401 1.350 . S
C399 H425 0.931 . S
N400 Co396 2.148 . S
N400 C397 1.301 . S
N400 C398 1.335 . S
N401 C397 1.328 1_565 S
N401 C399 1.350 . S
H402 C397 0.930 . S
H403 C398 0.936 . S
C404 O405 1.224 . S
C404 O423 1.247 1_455 S
O405 C404 1.224 . S
N406 Co396 2.128 . S
N406 C407 1.355 . S
N406 C409 1.318 . S
C407 N406 1.355 . S
C407 C408 1.363 . S
C407 H419 0.929 . S
C408 C407 1.363 . S
C408 N410 1.375 1_655 S
C408 H426 0.931 . S
C409 N406 1.318 . S
C409 N410 1.346 1_655 S
C409 H420 0.924 1_655 S
N410 C408 1.375 1_455 S
N410 C409 1.346 1_455 S
C411 C414 1.365 . S
C411 N416 1.328 . S
C411 H417 0.929 . S
C412 C413 1.362 . S
C412 C415 1.378 . S
C412 H427 0.947 . S
C413 C412 1.362 . S
C413 C414 1.366 . S
C414 C411 1.365 . S
C414 C413 1.366 . S
C414 H428 0.930 . S
C415 C412 1.378 . S
C415 N416 1.315 . S
C415 H418 0.950 . S
N416 Co396 2.194 . S
N416 C411 1.328 . S
N416 C415 1.315 . S
H417 C411 0.929 . S
H418 C415 0.950 . S
H419 C407 0.929 . S
H420 C409 0.924 1_455 S
O421 Co396 2.351 . S
O421 C424 1.244 . S
O422 Co396 2.155 . S
O422 C424 1.240 . S
O423 Co396 2.096 . S
O423 C404 1.247 1_655 S
C424 O421 1.244 . S
C424 O422 1.240 . S
H425 C399 0.931 . S
H426 C408 0.931 . S
H427 C412 0.947 . S
H428 C414 0.930 . S
Co429 N433 2.148 . S
Co429 N439 2.128 . S
Co429 N449 2.194 . S
Co429 O454 2.351 . S
Co429 O455 2.155 . S
Co429 O456 2.096 . S
C430 N433 1.301 . S
C430 N434 1.328 . S
C430 H435 0.930 . S
C431 C432 1.333 . S
C431 N433 1.317 . S
C431 H436 0.930 . S
C432 C431 1.333 . S
C432 N434 1.350 . S
C432 H458 0.931 . S
N433 Co429 2.148 . S
N433 C430 1.301 . S
N433 C431 1.317 . S
N434 C430 1.328 . S
N434 C432 1.350 . S
H435 C430 0.930 . S
H436 C431 0.930 . S
C437 O438 1.224 . S
C437 O456 1.247 . S
O438 C437 1.224 . S
N439 Co429 2.128 . S
N439 C440 1.355 . S
N439 C442 1.311 . S
C440 N439 1.355 . S
C440 C441 1.363 . S
C440 H452 0.929 . S
C441 C440 1.363 . S
C441 N443 1.375 . S
C441 H459 0.931 . S
C442 N439 1.311 . S
C442 N443 1.347 . S
C442 H453 0.929 . S
N443 C441 1.375 . S
N443 C442 1.347 . S
C444 C447 1.365 . S
C444 N449 1.328 . S
C444 H450 0.929 . S
C445 C446 1.362 . S
C445 C448 1.378 . S
C445 H460 0.929 . S
C446 C445 1.362 . S
C446 C447 1.366 . S
C447 C444 1.365 . S
C447 C446 1.366 . S
C447 H461 0.930 . S
C448 C445 1.378 . S
C448 N449 1.315 . S
C448 H451 0.930 . S
N449 Co429 2.194 . S
N449 C444 1.328 . S
N449 C448 1.315 . S
H450 C444 0.929 . S
H451 C448 0.930 . S
H452 C440 0.929 . S
H453 C442 0.929 . S
O454 Co429 2.351 . S
O454 C457 1.244 . S
O455 Co429 2.155 . S
O455 C457 1.240 . S
O456 Co429 2.096 . S
O456 C437 1.247 . S
C457 O454 1.244 . S
C457 O455 1.240 . S
H458 C432 0.931 . S
H459 C441 0.931 . S
H460 C445 0.929 . S
H461 C447 0.930 . S
Co462 N466 2.148 . S
Co462 N472 2.128 . S
Co462 N482 2.194 . S
Co462 O487 2.351 . S
Co462 O488 2.155 . S
Co462 O489 2.096 . S
C463 N466 1.301 . S
C463 N467 1.328 1_565 S
C463 H468 0.930 . S
C464 C465 1.309 1_565 S
C464 N466 1.335 . S
C464 H469 0.936 . S
C465 C464 1.309 1_545 S
C465 N467 1.350 . S
C465 H491 0.931 . S
N466 Co462 2.148 . S
N466 C463 1.301 . S
N466 C464 1.335 . S
N467 C463 1.328 1_545 S
N467 C465 1.350 . S
H468 C463 0.930 . S
H469 C464 0.936 . S
C470 O471 1.224 . S
C470 O489 1.247 . S
O471 C470 1.224 . S
N472 Co462 2.128 . S
N472 C473 1.355 . S
N472 C475 1.311 . S
C473 N472 1.355 . S
C473 C474 1.363 . S
C473 H485 0.929 . S
C474 C473 1.363 . S
C474 N476 1.375 . S
C474 H492 0.931 . S
C475 N472 1.311 . S
C475 N476 1.347 . S
C475 H486 0.929 . S
N476 C474 1.375 . S
N476 C475 1.347 . S
C477 C480 1.365 . S
C477 N482 1.328 . S
C477 H483 0.929 . S
C478 C479 1.362 . S
C478 C481 1.378 . S
C478 H493 0.929 . S
C479 C478 1.362 . S
C479 C480 1.366 . S
C480 C477 1.365 . S
C480 C479 1.366 . S
C480 H494 0.930 . S
C481 C478 1.378 . S
C481 N482 1.315 . S
C481 H484 0.930 . S
N482 Co462 2.194 . S
N482 C477 1.328 . S
N482 C481 1.315 . S
H483 C477 0.929 . S
H484 C481 0.930 . S
H485 C473 0.929 . S
H486 C475 0.929 . S
O487 Co462 2.351 . S
O487 C490 1.244 . S
O488 Co462 2.155 . S
O488 C490 1.240 . S
O489 Co462 2.096 . S
O489 C470 1.247 . S
C490 O487 1.244 . S
C490 O488 1.240 . S
H491 C465 0.931 . S
H492 C474 0.931 . S
H493 C478 0.929 . S
H494 C480 0.930 . S
Co495 N499 2.148 . S
Co495 N505 2.128 . S
Co495 N515 2.194 . S
Co495 O520 2.351 . S
Co495 O521 2.155 . S
Co495 O522 2.096 . S
C496 N499 1.301 . S
C496 N500 1.328 . S
C496 H501 0.930 . S
C497 C498 1.333 . S
C497 N499 1.317 . S
C497 H502 0.930 . S
C498 C497 1.333 . S
C498 N500 1.350 . S
C498 H524 0.931 . S
N499 Co495 2.148 . S
N499 C496 1.301 . S
N499 C497 1.317 . S
N500 C496 1.328 . S
N500 C498 1.350 . S
H501 C496 0.930 . S
H502 C497 0.930 . S
C503 O504 1.224 . S
C503 O522 1.247 . S
O504 C503 1.224 . S
N505 Co495 2.128 . S
N505 C506 1.355 . S
N505 C508 1.311 . S
C506 N505 1.355 . S
C506 C507 1.363 . S
C506 H518 0.929 . S
C507 C506 1.363 . S
C507 N509 1.375 . S
C507 H525 0.931 . S
C508 N505 1.311 . S
C508 N509 1.347 . S
C508 H519 0.929 . S
N509 C507 1.375 . S
N509 C508 1.347 . S
C510 C513 1.365 . S
C510 N515 1.328 . S
C510 H516 0.929 . S
C511 C512 1.362 . S
C511 C514 1.378 . S
C511 H526 0.929 . S
C512 C511 1.362 . S
C512 C513 1.366 . S
C513 C510 1.365 . S
C513 C512 1.366 . S
C513 H527 0.930 . S
C514 C511 1.378 . S
C514 N515 1.315 . S
C514 H517 0.930 . S
N515 Co495 2.194 . S
N515 C510 1.328 . S
N515 C514 1.315 . S
H516 C510 0.929 . S
H517 C514 0.930 . S
H518 C506 0.929 . S
H519 C508 0.929 . S
O520 Co495 2.351 . S
O520 C523 1.244 . S
O521 Co495 2.155 . S
O521 C523 1.240 . S
O522 Co495 2.096 . S
O522 C503 1.247 . S
C523 O520 1.244 . S
C523 O521 1.240 . S
H524 C498 0.931 . S
H525 C507 0.931 . S
H526 C511 0.929 . S
H527 C513 0.930 . S
Co528 N532 2.148 . S
Co528 N538 2.128 . S
Co528 N548 2.194 . S
Co528 O553 2.351 . S
Co528 O554 2.155 . S
Co528 O555 2.096 . S
C529 N532 1.301 . S
C529 N533 1.328 . S
C529 H534 0.930 . S
C530 C531 1.333 . S
C530 N532 1.317 . S
C530 H535 0.930 . S
C531 C530 1.333 . S
C531 N533 1.350 . S
C531 H557 0.931 . S
N532 Co528 2.148 . S
N532 C529 1.301 . S
N532 C530 1.317 . S
N533 C529 1.328 . S
N533 C531 1.350 . S
H534 C529 0.930 . S
H535 C530 0.930 . S
C536 O537 1.224 . S
C536 O555 1.247 . S
O537 C536 1.224 . S
N538 Co528 2.128 . S
N538 C539 1.355 . S
N538 C541 1.311 . S
C539 N538 1.355 . S
C539 C540 1.363 . S
C539 H551 0.929 . S
C540 C539 1.363 . S
C540 N542 1.375 . S
C540 H558 0.931 . S
C541 N538 1.311 . S
C541 N542 1.347 . S
C541 H552 0.929 . S
N542 C540 1.375 . S
N542 C541 1.347 . S
C543 C546 1.365 . S
C543 N548 1.328 . S
C543 H549 0.929 . S
C544 C545 1.362 . S
C544 C547 1.378 . S
C544 H559 0.929 . S
C545 C544 1.362 . S
C545 C546 1.366 . S
C546 C543 1.365 . S
C546 C545 1.366 . S
C546 H560 0.930 . S
C547 C544 1.378 . S
C547 N548 1.315 . S
C547 H550 0.930 . S
N548 Co528 2.194 . S
N548 C543 1.328 . S
N548 C547 1.315 . S
H549 C543 0.929 . S
H550 C547 0.930 . S
H551 C539 0.929 . S
H552 C541 0.929 . S
O553 Co528 2.351 . S
O553 C556 1.244 . S
O554 Co528 2.155 . S
O554 C556 1.240 . S
O555 Co528 2.096 . S
O555 C536 1.247 . S
C556 O553 1.244 . S
C556 O554 1.240 . S
H557 C531 0.931 . S
H558 C540 0.931 . S
H559 C544 0.929 . S
H560 C546 0.930 . S
Co561 N565 2.148 . S
Co561 N571 2.128 . S
Co561 N581 2.194 . S
Co561 O586 2.351 . S
Co561 O587 2.155 . S
Co561 O588 2.096 . S
C562 N565 1.301 . S
C562 N566 1.328 . S
C562 H567 0.930 . S
C563 C564 1.333 . S
C563 N565 1.317 . S
C563 H568 0.930 . S
C564 C563 1.333 . S
C564 N566 1.350 . S
C564 H590 0.931 . S
N565 Co561 2.148 . S
N565 C562 1.301 . S
N565 C563 1.317 . S
N566 C562 1.328 . S
N566 C564 1.350 . S
H567 C562 0.930 . S
H568 C563 0.930 . S
C569 O570 1.224 . S
C569 O588 1.247 . S
O570 C569 1.224 . S
N571 Co561 2.128 . S
N571 C572 1.355 . S
N571 C574 1.311 . S
C572 N571 1.355 . S
C572 C573 1.363 . S
C572 H584 0.929 . S
C573 C572 1.363 . S
C573 N575 1.375 . S
C573 H591 0.931 . S
C574 N571 1.311 . S
C574 N575 1.347 . S
C574 H585 0.929 . S
N575 C573 1.375 . S
N575 C574 1.347 . S
C576 C579 1.365 . S
C576 N581 1.328 . S
C576 H582 0.929 . S
C577 C578 1.362 . S
C577 C580 1.378 . S
C577 H592 0.929 . S
C578 C577 1.362 . S
C578 C579 1.366 . S
C579 C576 1.365 . S
C579 C578 1.366 . S
C579 H593 0.930 . S
C580 C577 1.378 . S
C580 N581 1.315 . S
C580 H583 0.930 . S
N581 Co561 2.194 . S
N581 C576 1.328 . S
N581 C580 1.315 . S
H582 C576 0.929 . S
H583 C580 0.930 . S
H584 C572 0.929 . S
H585 C574 0.929 . S
O586 Co561 2.351 . S
O586 C589 1.244 . S
O587 Co561 2.155 . S
O587 C589 1.240 . S
O588 Co561 2.096 . S
O588 C569 1.247 . S
C589 O586 1.244 . S
C589 O587 1.240 . S
H590 C564 0.931 . S
H591 C573 0.931 . S
H592 C577 0.929 . S
H593 C579 0.930 . S
Co594 N598 2.148 . S
Co594 N604 2.128 . S
Co594 N614 2.194 . S
Co594 O619 2.351 . S
Co594 O620 2.155 . S
Co594 O621 2.096 . S
C595 N598 1.301 . S
C595 N599 1.328 . S
C595 H600 0.930 . S
C596 C597 1.333 . S
C596 N598 1.317 . S
C596 H601 0.930 . S
C597 C596 1.333 . S
C597 N599 1.350 . S
C597 H623 0.931 . S
N598 Co594 2.148 . S
N598 C595 1.301 . S
N598 C596 1.317 . S
N599 C595 1.328 . S
N599 C597 1.350 . S
H600 C595 0.930 . S
H601 C596 0.930 . S
C602 O603 1.224 . S
C602 O621 1.247 1_455 S
O603 C602 1.224 . S
N604 Co594 2.128 . S
N604 C605 1.355 . S
N604 C607 1.318 . S
C605 N604 1.355 . S
C605 C606 1.363 . S
C605 H617 0.929 . S
C606 C605 1.363 . S
C606 N608 1.375 1_655 S
C606 H624 0.931 . S
C607 N604 1.318 . S
C607 N608 1.346 1_655 S
C607 H618 0.924 1_655 S
N608 C606 1.375 1_455 S
N608 C607 1.346 1_455 S
C609 C612 1.365 . S
C609 N614 1.328 . S
C609 H615 0.929 . S
C610 C611 1.362 . S
C610 C613 1.378 . S
C610 H625 0.947 . S
C611 C610 1.362 . S
C611 C612 1.366 . S
C612 C609 1.365 . S
C612 C611 1.366 . S
C612 H626 0.930 . S
C613 C610 1.378 . S
C613 N614 1.315 . S
C613 H616 0.950 . S
N614 Co594 2.194 . S
N614 C609 1.328 . S
N614 C613 1.315 . S
H615 C609 0.929 . S
H616 C613 0.950 . S
H617 C605 0.929 . S
H618 C607 0.924 1_455 S
O619 Co594 2.351 . S
O619 C622 1.244 . S
O620 Co594 2.155 . S
O620 C622 1.240 . S
O621 Co594 2.096 . S
O621 C602 1.247 1_655 S
C622 O619 1.244 . S
C622 O620 1.240 . S
H623 C597 0.931 . S
H624 C606 0.931 . S
H625 C610 0.947 . S
H626 C612 0.930 . S
Co627 N631 2.148 . S
Co627 N637 2.128 . S
Co627 N647 2.194 . S
Co627 O652 2.351 . S
Co627 O653 2.155 . S
Co627 O654 2.096 . S
C628 N631 1.301 . S
C628 N632 1.328 . S
C628 H633 0.930 . S
C629 C630 1.333 . S
C629 N631 1.317 . S
C629 H634 0.930 . S
C630 C629 1.333 . S
C630 N632 1.350 . S
C630 H656 0.931 . S
N631 Co627 2.148 . S
N631 C628 1.301 . S
N631 C629 1.317 . S
N632 C628 1.328 . S
N632 C630 1.350 . S
H633 C628 0.930 . S
H634 C629 0.930 . S
C635 O636 1.224 . S
C635 O654 1.247 . S
O636 C635 1.224 . S
N637 Co627 2.128 . S
N637 C638 1.355 . S
N637 C640 1.311 . S
C638 N637 1.355 . S
C638 C639 1.363 . S
C638 H650 0.929 . S
C639 C638 1.363 . S
C639 N641 1.375 . S
C639 H657 0.931 . S
C640 N637 1.311 . S
C640 N641 1.347 . S
C640 H651 0.929 . S
N641 C639 1.375 . S
N641 C640 1.347 . S
C642 C645 1.365 . S
C642 N647 1.328 . S
C642 H648 0.929 . S
C643 C644 1.362 . S
C643 C646 1.378 . S
C643 H658 0.929 . S
C644 C643 1.362 . S
C644 C645 1.366 . S
C645 C642 1.365 . S
C645 C644 1.366 . S
C645 H659 0.930 . S
C646 C643 1.378 . S
C646 N647 1.315 . S
C646 H649 0.930 . S
N647 Co627 2.194 . S
N647 C642 1.328 . S
N647 C646 1.315 . S
H648 C642 0.929 . S
H649 C646 0.930 . S
H650 C638 0.929 . S
H651 C640 0.929 . S
O652 Co627 2.351 . S
O652 C655 1.244 . S
O653 Co627 2.155 . S
O653 C655 1.240 . S
O654 Co627 2.096 . S
O654 C635 1.247 . S
C655 O652 1.244 . S
C655 O653 1.240 . S
H656 C630 0.931 . S
H657 C639 0.931 . S
H658 C643 0.929 . S
H659 C645 0.930 . S
Co660 N664 2.148 . S
Co660 N670 2.128 . S
Co660 N680 2.194 . S
Co660 O685 2.351 . S
Co660 O686 2.155 . S
Co660 O687 2.096 . S
C661 N664 1.301 . S
C661 N665 1.328 . S
C661 H666 0.930 . S
C662 C663 1.333 . S
C662 N664 1.317 . S
C662 H667 0.930 . S
C663 C662 1.333 . S
C663 N665 1.350 . S
C663 H689 0.931 . S
N664 Co660 2.148 . S
N664 C661 1.301 . S
N664 C662 1.317 . S
N665 C661 1.328 . S
N665 C663 1.350 . S
H666 C661 0.930 . S
H667 C662 0.930 . S
C668 O669 1.224 . S
C668 O687 1.247 . S
O669 C668 1.224 . S
N670 Co660 2.128 . S
N670 C671 1.355 . S
N670 C673 1.311 . S
C671 N670 1.355 . S
C671 C672 1.363 . S
C671 H683 0.929 . S
C672 C671 1.363 . S
C672 N674 1.375 . S
C672 H690 0.931 . S
C673 N670 1.311 . S
C673 N674 1.347 . S
C673 H684 0.929 . S
N674 C672 1.375 . S
N674 C673 1.347 . S
C675 C678 1.365 . S
C675 N680 1.328 . S
C675 H681 0.929 . S
C676 C677 1.362 . S
C676 C679 1.378 . S
C676 H691 0.929 . S
C677 C676 1.362 . S
C677 C678 1.366 . S
C678 C675 1.365 . S
C678 C677 1.366 . S
C678 H692 0.930 . S
C679 C676 1.378 . S
C679 N680 1.315 . S
C679 H682 0.930 . S
N680 Co660 2.194 . S
N680 C675 1.328 . S
N680 C679 1.315 . S
H681 C675 0.929 . S
H682 C679 0.930 . S
H683 C671 0.929 . S
H684 C673 0.929 . S
O685 Co660 2.351 . S
O685 C688 1.244 . S
O686 Co660 2.155 . S
O686 C688 1.240 . S
O687 Co660 2.096 . S
O687 C668 1.247 . S
C688 O685 1.244 . S
C688 O686 1.240 . S
H689 C663 0.931 . S
H690 C672 0.931 . S
H691 C676 0.929 . S
H692 C678 0.930 . S
Co693 N697 2.148 . S
Co693 N703 2.128 . S
Co693 N713 2.194 . S
Co693 O718 2.351 . S
Co693 O719 2.155 . S
Co693 O720 2.096 . S
C694 N697 1.301 . S
C694 N698 1.328 . S
C694 H699 0.930 . S
C695 C696 1.333 . S
C695 N697 1.317 . S
C695 H700 0.930 . S
C696 C695 1.333 . S
C696 N698 1.350 . S
C696 H722 0.931 . S
N697 Co693 2.148 . S
N697 C694 1.301 . S
N697 C695 1.317 . S
N698 C694 1.328 . S
N698 C696 1.350 . S
H699 C694 0.930 . S
H700 C695 0.930 . S
C701 O702 1.224 . S
C701 O720 1.247 . S
O702 C701 1.224 . S
N703 Co693 2.128 . S
N703 C704 1.355 . S
N703 C706 1.311 . S
C704 N703 1.355 . S
C704 C705 1.363 . S
C704 H716 0.929 . S
C705 C704 1.363 . S
C705 N707 1.375 . S
C705 H723 0.931 . S
C706 N703 1.311 . S
C706 N707 1.347 . S
C706 H717 0.929 . S
N707 C705 1.375 . S
N707 C706 1.347 . S
C708 C711 1.365 . S
C708 N713 1.328 . S
C708 H714 0.929 . S
C709 C710 1.362 . S
C709 C712 1.378 . S
C709 H724 0.929 . S
C710 C709 1.362 . S
C710 C711 1.366 . S
C711 C708 1.365 . S
C711 C710 1.366 . S
C711 H725 0.930 . S
C712 C709 1.378 . S
C712 N713 1.315 . S
C712 H715 0.930 . S
N713 Co693 2.194 . S
N713 C708 1.328 . S
N713 C712 1.315 . S
H714 C708 0.929 . S
H715 C712 0.930 . S
H716 C704 0.929 . S
H717 C706 0.929 . S
O718 Co693 2.351 . S
O718 C721 1.244 . S
O719 Co693 2.155 . S
O719 C721 1.240 . S
O720 Co693 2.096 . S
O720 C701 1.247 . S
C721 O718 1.244 . S
C721 O719 1.240 . S
H722 C696 0.931 . S
H723 C705 0.931 . S
H724 C709 0.929 . S
H725 C711 0.930 . S
Co726 N730 2.148 . S
Co726 N736 2.128 . S
Co726 N746 2.194 . S
Co726 O751 2.351 . S
Co726 O752 2.155 . S
Co726 O753 2.096 . S
C727 N730 1.301 . S
C727 N731 1.328 . S
C727 H732 0.930 . S
C728 C729 1.333 . S
C728 N730 1.317 . S
C728 H733 0.930 . S
C729 C728 1.333 . S
C729 N731 1.350 . S
C729 H755 0.931 . S
N730 Co726 2.148 . S
N730 C727 1.301 . S
N730 C728 1.317 . S
N731 C727 1.328 . S
N731 C729 1.350 . S
H732 C727 0.930 . S
H733 C728 0.930 . S
C734 O735 1.224 . S
C734 O753 1.247 1_455 S
O735 C734 1.224 . S
N736 Co726 2.128 . S
N736 C737 1.355 . S
N736 C739 1.318 . S
C737 N736 1.355 . S
C737 C738 1.363 . S
C737 H749 0.929 . S
C738 C737 1.363 . S
C738 N740 1.375 1_655 S
C738 H756 0.931 . S
C739 N736 1.318 . S
C739 N740 1.346 1_655 S
C739 H750 0.924 1_655 S
N740 C738 1.375 1_455 S
N740 C739 1.346 1_455 S
C741 C744 1.365 . S
C741 N746 1.328 . S
C741 H747 0.929 . S
C742 C743 1.362 . S
C742 C745 1.378 . S
C742 H757 0.947 . S
C743 C742 1.362 . S
C743 C744 1.366 . S
C744 C741 1.365 . S
C744 C743 1.366 . S
C744 H758 0.930 . S
C745 C742 1.378 . S
C745 N746 1.315 . S
C745 H748 0.950 . S
N746 Co726 2.194 . S
N746 C741 1.328 . S
N746 C745 1.315 . S
H747 C741 0.929 . S
H748 C745 0.950 . S
H749 C737 0.929 . S
H750 C739 0.924 1_455 S
O751 Co726 2.351 . S
O751 C754 1.244 . S
O752 Co726 2.155 . S
O752 C754 1.240 . S
O753 Co726 2.096 . S
O753 C734 1.247 1_655 S
C754 O751 1.244 . S
C754 O752 1.240 . S
H755 C729 0.931 . S
H756 C738 0.931 . S
H757 C742 0.947 . S
H758 C744 0.930 . S
Co759 N763 2.148 . S
Co759 N769 2.128 . S
Co759 N779 2.194 . S
Co759 O784 2.351 . S
Co759 O785 2.155 . S
Co759 O786 2.096 . S
C760 N763 1.301 . S
C760 N764 1.328 . S
C760 H765 0.930 . S
C761 C762 1.333 . S
C761 N763 1.317 . S
C761 H766 0.930 . S
C762 C761 1.333 . S
C762 N764 1.350 . S
C762 H788 0.931 . S
N763 Co759 2.148 . S
N763 C760 1.301 . S
N763 C761 1.317 . S
N764 C760 1.328 . S
N764 C762 1.350 . S
H765 C760 0.930 . S
H766 C761 0.930 . S
C767 O768 1.224 . S
C767 O786 1.247 . S
O768 C767 1.224 . S
N769 Co759 2.128 . S
N769 C770 1.355 . S
N769 C772 1.311 . S
C770 N769 1.355 . S
C770 C771 1.363 . S
C770 H782 0.929 . S
C771 C770 1.363 . S
C771 N773 1.375 . S
C771 H789 0.931 . S
C772 N769 1.311 . S
C772 N773 1.347 . S
C772 H783 0.929 . S
N773 C771 1.375 . S
N773 C772 1.347 . S
C774 C777 1.365 . S
C774 N779 1.328 . S
C774 H780 0.929 . S
C775 C776 1.362 . S
C775 C778 1.378 . S
C775 H790 0.929 . S
C776 C775 1.362 . S
C776 C777 1.366 . S
C777 C774 1.365 . S
C777 C776 1.366 . S
C777 H791 0.930 . S
C778 C775 1.378 . S
C778 N779 1.315 . S
C778 H781 0.930 . S
N779 Co759 2.194 . S
N779 C774 1.328 . S
N779 C778 1.315 . S
H780 C774 0.929 . S
H781 C778 0.930 . S
H782 C770 0.929 . S
H783 C772 0.929 . S
O784 Co759 2.351 . S
O784 C787 1.244 . S
O785 Co759 2.155 . S
O785 C787 1.240 . S
O786 Co759 2.096 . S
O786 C767 1.247 . S
C787 O784 1.244 . S
C787 O785 1.240 . S
H788 C762 0.931 . S
H789 C771 0.931 . S
H790 C775 0.929 . S
H791 C777 0.930 . S
Co792 N796 2.148 . S
Co792 N802 2.128 . S
Co792 N812 2.194 . S
Co792 O817 2.351 . S
Co792 O818 2.155 . S
Co792 O819 2.096 . S
C793 N796 1.301 . S
C793 N797 1.328 . S
C793 H798 0.930 . S
C794 C795 1.333 . S
C794 N796 1.317 . S
C794 H799 0.930 . S
C795 C794 1.333 . S
C795 N797 1.350 . S
C795 H821 0.931 . S
N796 Co792 2.148 . S
N796 C793 1.301 . S
N796 C794 1.317 . S
N797 C793 1.328 . S
N797 C795 1.350 . S
H798 C793 0.930 . S
H799 C794 0.930 . S
C800 O801 1.224 . S
C800 O819 1.247 . S
O801 C800 1.224 . S
N802 Co792 2.128 . S
N802 C803 1.355 . S
N802 C805 1.311 . S
C803 N802 1.355 . S
C803 C804 1.363 . S
C803 H815 0.929 . S
C804 C803 1.363 . S
C804 N806 1.375 . S
C804 H822 0.931 . S
C805 N802 1.311 . S
C805 N806 1.347 . S
C805 H816 0.929 . S
N806 C804 1.375 . S
N806 C805 1.347 . S
C807 C810 1.365 . S
C807 N812 1.328 . S
C807 H813 0.929 . S
C808 C809 1.362 . S
C808 C811 1.378 . S
C808 H823 0.929 . S
C809 C808 1.362 . S
C809 C810 1.366 . S
C810 C807 1.365 . S
C810 C809 1.366 . S
C810 H824 0.930 . S
C811 C808 1.378 . S
C811 N812 1.315 . S
C811 H814 0.930 . S
N812 Co792 2.194 . S
N812 C807 1.328 . S
N812 C811 1.315 . S
H813 C807 0.929 . S
H814 C811 0.930 . S
H815 C803 0.929 . S
H816 C805 0.929 . S
O817 Co792 2.351 . S
O817 C820 1.244 . S
O818 Co792 2.155 . S
O818 C820 1.240 . S
O819 Co792 2.096 . S
O819 C800 1.247 . S
C820 O817 1.244 . S
C820 O818 1.240 . S
H821 C795 0.931 . S
H822 C804 0.931 . S
H823 C808 0.929 . S
H824 C810 0.930 . S
Co825 N829 2.148 . S
Co825 N835 2.128 . S
Co825 N845 2.194 . S
Co825 O850 2.351 . S
Co825 O851 2.155 . S
Co825 O852 2.096 . S
C826 N829 1.301 . S
C826 N830 1.328 . S
C826 H831 0.930 . S
C827 C828 1.333 . S
C827 N829 1.317 . S
C827 H832 0.930 . S
C828 C827 1.333 . S
C828 N830 1.350 . S
C828 H854 0.931 . S
N829 Co825 2.148 . S
N829 C826 1.301 . S
N829 C827 1.317 . S
N830 C826 1.328 . S
N830 C828 1.350 . S
H831 C826 0.930 . S
H832 C827 0.930 . S
C833 O834 1.224 . S
C833 O852 1.247 . S
O834 C833 1.224 . S
N835 Co825 2.128 . S
N835 C836 1.355 . S
N835 C838 1.311 . S
C836 N835 1.355 . S
C836 C837 1.363 . S
C836 H848 0.929 . S
C837 C836 1.363 . S
C837 N839 1.375 . S
C837 H855 0.931 . S
C838 N835 1.311 . S
C838 N839 1.347 . S
C838 H849 0.929 . S
N839 C837 1.375 . S
N839 C838 1.347 . S
C840 C843 1.365 . S
C840 N845 1.328 . S
C840 H846 0.929 . S
C841 C842 1.362 . S
C841 C844 1.378 . S
C841 H856 0.929 . S
C842 C841 1.362 . S
C842 C843 1.366 . S
C843 C840 1.365 . S
C843 C842 1.366 . S
C843 H857 0.930 . S
C844 C841 1.378 . S
C844 N845 1.315 . S
C844 H847 0.930 . S
N845 Co825 2.194 . S
N845 C840 1.328 . S
N845 C844 1.315 . S
H846 C840 0.929 . S
H847 C844 0.930 . S
H848 C836 0.929 . S
H849 C838 0.929 . S
O850 Co825 2.351 . S
O850 C853 1.244 . S
O851 Co825 2.155 . S
O851 C853 1.240 . S
O852 Co825 2.096 . S
O852 C833 1.247 . S
C853 O850 1.244 . S
C853 O851 1.240 . S
H854 C828 0.931 . S
H855 C837 0.931 . S
H856 C841 0.929 . S
H857 C843 0.930 . S
Co858 N862 2.148 . S
Co858 N868 2.128 . S
Co858 N878 2.194 . S
Co858 O883 2.351 . S
Co858 O884 2.155 . S
Co858 O885 2.096 . S
C859 N862 1.301 . S
C859 N863 1.328 . S
C859 H864 0.930 . S
C860 C861 1.333 . S
C860 N862 1.317 . S
C860 H865 0.930 . S
C861 C860 1.333 . S
C861 N863 1.350 . S
C861 H887 0.931 . S
N862 Co858 2.148 . S
N862 C859 1.301 . S
N862 C860 1.317 . S
N863 C859 1.328 . S
N863 C861 1.350 . S
H864 C859 0.930 . S
H865 C860 0.930 . S
C866 O867 1.224 . S
C866 O885 1.247 1_655 S
O867 C866 1.224 . S
N868 Co858 2.128 . S
N868 C869 1.355 . S
N868 C871 1.318 . S
C869 N868 1.355 . S
C869 C870 1.363 . S
C869 H881 0.929 . S
C870 C869 1.363 . S
C870 N872 1.375 1_455 S
C870 H888 0.931 . S
C871 N868 1.318 . S
C871 N872 1.346 1_455 S
C871 H882 0.924 1_455 S
N872 C870 1.375 1_655 S
N872 C871 1.346 1_655 S
C873 C876 1.365 . S
C873 N878 1.328 . S
C873 H879 0.929 . S
C874 C875 1.362 . S
C874 C877 1.378 . S
C874 H889 0.947 . S
C875 C874 1.362 . S
C875 C876 1.366 . S
C876 C873 1.365 . S
C876 C875 1.366 . S
C876 H890 0.930 . S
C877 C874 1.378 . S
C877 N878 1.315 . S
C877 H880 0.950 . S
N878 Co858 2.194 . S
N878 C873 1.328 . S
N878 C877 1.315 . S
H879 C873 0.929 . S
H880 C877 0.950 . S
H881 C869 0.929 . S
H882 C871 0.924 1_655 S
O883 Co858 2.351 . S
O883 C886 1.244 . S
O884 Co858 2.155 . S
O884 C886 1.240 . S
O885 Co858 2.096 . S
O885 C866 1.247 1_455 S
C886 O883 1.244 . S
C886 O884 1.240 . S
H887 C861 0.931 . S
H888 C870 0.931 . S
H889 C874 0.947 . S
H890 C876 0.930 . S
Co891 N895 2.148 . S
Co891 N901 2.128 . S
Co891 N911 2.194 . S
Co891 O916 2.351 . S
Co891 O917 2.155 . S
Co891 O918 2.096 . S
C892 N895 1.301 . S
C892 N896 1.328 . S
C892 H897 0.930 . S
C893 C894 1.333 . S
C893 N895 1.317 . S
C893 H898 0.930 . S
C894 C893 1.333 . S
C894 N896 1.350 . S
C894 H920 0.931 . S
N895 Co891 2.148 . S
N895 C892 1.301 . S
N895 C893 1.317 . S
N896 C892 1.328 . S
N896 C894 1.350 . S
H897 C892 0.930 . S
H898 C893 0.930 . S
C899 O900 1.224 . S
C899 O918 1.247 . S
O900 C899 1.224 . S
N901 Co891 2.128 . S
N901 C902 1.355 . S
N901 C904 1.311 . S
C902 N901 1.355 . S
C902 C903 1.363 . S
C902 H914 0.929 . S
C903 C902 1.363 . S
C903 N905 1.375 . S
C903 H921 0.931 . S
C904 N901 1.311 . S
C904 N905 1.347 . S
C904 H915 0.929 . S
N905 C903 1.375 . S
N905 C904 1.347 . S
C906 C909 1.365 . S
C906 N911 1.328 . S
C906 H912 0.929 . S
C907 C908 1.362 . S
C907 C910 1.378 . S
C907 H922 0.929 . S
C908 C907 1.362 . S
C908 C909 1.366 . S
C909 C906 1.365 . S
C909 C908 1.366 . S
C909 H923 0.930 . S
C910 C907 1.378 . S
C910 N911 1.315 . S
C910 H913 0.930 . S
N911 Co891 2.194 . S
N911 C906 1.328 . S
N911 C910 1.315 . S
H912 C906 0.929 . S
H913 C910 0.930 . S
H914 C902 0.929 . S
H915 C904 0.929 . S
O916 Co891 2.351 . S
O916 C919 1.244 . S
O917 Co891 2.155 . S
O917 C919 1.240 . S
O918 Co891 2.096 . S
O918 C899 1.247 . S
C919 O916 1.244 . S
C919 O917 1.240 . S
H920 C894 0.931 . S
H921 C903 0.931 . S
H922 C907 0.929 . S
H923 C909 0.930 . S
Co924 N928 2.148 . S
Co924 N934 2.128 . S
Co924 N944 2.194 . S
Co924 O949 2.351 . S
Co924 O950 2.155 . S
Co924 O951 2.096 . S
C925 N928 1.301 . S
C925 N929 1.328 . S
C925 H930 0.930 . S
C926 C927 1.333 . S
C926 N928 1.317 . S
C926 H931 0.930 . S
C927 C926 1.333 . S
C927 N929 1.350 . S
C927 H953 0.931 . S
N928 Co924 2.148 . S
N928 C925 1.301 . S
N928 C926 1.317 . S
N929 C925 1.328 . S
N929 C927 1.350 . S
H930 C925 0.930 . S
H931 C926 0.930 . S
C932 O933 1.224 . S
C932 O951 1.247 . S
O933 C932 1.224 . S
N934 Co924 2.128 . S
N934 C935 1.355 . S
N934 C937 1.311 . S
C935 N934 1.355 . S
C935 C936 1.363 . S
C935 H947 0.929 . S
C936 C935 1.363 . S
C936 N938 1.375 . S
C936 H954 0.931 . S
C937 N934 1.311 . S
C937 N938 1.347 . S
C937 H948 0.929 . S
N938 C936 1.375 . S
N938 C937 1.347 . S
C939 C942 1.365 . S
C939 N944 1.328 . S
C939 H945 0.929 . S
C940 C941 1.362 . S
C940 C943 1.378 . S
C940 H955 0.929 . S
C941 C940 1.362 . S
C941 C942 1.366 . S
C942 C939 1.365 . S
C942 C941 1.366 . S
C942 H956 0.930 . S
C943 C940 1.378 . S
C943 N944 1.315 . S
C943 H946 0.930 . S
N944 Co924 2.194 . S
N944 C939 1.328 . S
N944 C943 1.315 . S
H945 C939 0.929 . S
H946 C943 0.930 . S
H947 C935 0.929 . S
H948 C937 0.929 . S
O949 Co924 2.351 . S
O949 C952 1.244 . S
O950 Co924 2.155 . S
O950 C952 1.240 . S
O951 Co924 2.096 . S
O951 C932 1.247 . S
C952 O949 1.244 . S
C952 O950 1.240 . S
H953 C927 0.931 . S
H954 C936 0.931 . S
H955 C940 0.929 . S
H956 C942 0.930 . S
Co957 N961 2.148 . S
Co957 N967 2.128 . S
Co957 N977 2.194 . S
Co957 O982 2.351 . S
Co957 O983 2.155 . S
Co957 O984 2.096 . S
C958 N961 1.301 . S
C958 N962 1.328 . S
C958 H963 0.930 . S
C959 C960 1.333 . S
C959 N961 1.317 . S
C959 H964 0.930 . S
C960 C959 1.333 . S
C960 N962 1.350 . S
C960 H986 0.931 . S
N961 Co957 2.148 . S
N961 C958 1.301 . S
N961 C959 1.317 . S
N962 C958 1.328 . S
N962 C960 1.350 . S
H963 C958 0.930 . S
H964 C959 0.930 . S
C965 O966 1.224 . S
C965 O984 1.247 . S
O966 C965 1.224 . S
N967 Co957 2.128 . S
N967 C968 1.355 . S
N967 C970 1.311 . S
C968 N967 1.355 . S
C968 C969 1.363 . S
C968 H980 0.929 . S
C969 C968 1.363 . S
C969 N971 1.375 . S
C969 H987 0.931 . S
C970 N967 1.311 . S
C970 N971 1.347 . S
C970 H981 0.929 . S
N971 C969 1.375 . S
N971 C970 1.347 . S
C972 C975 1.365 . S
C972 N977 1.328 . S
C972 H978 0.929 . S
C973 C974 1.362 . S
C973 C976 1.378 . S
C973 H988 0.929 . S
C974 C973 1.362 . S
C974 C975 1.366 . S
C975 C972 1.365 . S
C975 C974 1.366 . S
C975 H989 0.930 . S
C976 C973 1.378 . S
C976 N977 1.315 . S
C976 H979 0.930 . S
N977 Co957 2.194 . S
N977 C972 1.328 . S
N977 C976 1.315 . S
H978 C972 0.929 . S
H979 C976 0.930 . S
H980 C968 0.929 . S
H981 C970 0.929 . S
O982 Co957 2.351 . S
O982 C985 1.244 . S
O983 Co957 2.155 . S
O983 C985 1.240 . S
O984 Co957 2.096 . S
O984 C965 1.247 . S
C985 O982 1.244 . S
C985 O983 1.240 . S
H986 C960 0.931 . S
H987 C969 0.931 . S
H988 C973 0.929 . S
H989 C975 0.930 . S
Co990 N994 2.148 . S
Co990 N1000 2.128 . S
Co990 N1010 2.194 . S
Co990 O1015 2.351 . S
Co990 O1016 2.155 . S
Co990 O1017 2.096 . S
C991 N994 1.301 . S
C991 N995 1.328 . S
C991 H996 0.930 . S
C992 C993 1.333 . S
C992 N994 1.317 . S
C992 H997 0.930 . S
C993 C992 1.333 . S
C993 N995 1.350 . S
C993 H1019 0.931 . S
N994 Co990 2.148 . S
N994 C991 1.301 . S
N994 C992 1.317 . S
N995 C991 1.328 . S
N995 C993 1.350 . S
H996 C991 0.930 . S
H997 C992 0.930 . S
C998 O999 1.224 . S
C998 O1017 1.247 1_655 S
O999 C998 1.224 . S
N1000 Co990 2.128 . S
N1000 C1001 1.355 . S
N1000 C1003 1.318 . S
C1001 N1000 1.355 . S
C1001 C1002 1.363 . S
C1001 H1013 0.929 . S
C1002 C1001 1.363 . S
C1002 N1004 1.375 1_455 S
C1002 H1020 0.931 . S
C1003 N1000 1.318 . S
C1003 N1004 1.346 1_455 S
C1003 H1014 0.924 1_455 S
N1004 C1002 1.375 1_655 S
N1004 C1003 1.346 1_655 S
C1005 C1008 1.365 . S
C1005 N1010 1.328 . S
C1005 H1011 0.929 . S
C1006 C1007 1.362 . S
C1006 C1009 1.378 . S
C1006 H1021 0.947 . S
C1007 C1006 1.362 . S
C1007 C1008 1.366 . S
C1008 C1005 1.365 . S
C1008 C1007 1.366 . S
C1008 H1022 0.930 . S
C1009 C1006 1.378 . S
C1009 N1010 1.315 . S
C1009 H1012 0.950 . S
N1010 Co990 2.194 . S
N1010 C1005 1.328 . S
N1010 C1009 1.315 . S
H1011 C1005 0.929 . S
H1012 C1009 0.950 . S
H1013 C1001 0.929 . S
H1014 C1003 0.924 1_655 S
O1015 Co990 2.351 . S
O1015 C1018 1.244 . S
O1016 Co990 2.155 . S
O1016 C1018 1.240 . S
O1017 Co990 2.096 . S
O1017 C998 1.247 1_455 S
C1018 O1015 1.244 . S
C1018 O1016 1.240 . S
H1019 C993 0.931 . S
H1020 C1002 0.931 . S
H1021 C1006 0.947 . S
H1022 C1008 0.930 . S
Co1023 N1027 2.148 . S
Co1023 N1033 2.128 . S
Co1023 N1043 2.194 . S
Co1023 O1048 2.351 . S
Co1023 O1049 2.155 . S
Co1023 O1050 2.096 . S
C1024 N1027 1.301 . S
C1024 N1028 1.328 . S
C1024 H1029 0.930 . S
C1025 C1026 1.333 . S
C1025 N1027 1.317 . S
C1025 H1030 0.930 . S
C1026 C1025 1.333 . S
C1026 N1028 1.350 . S
C1026 H1052 0.931 . S
N1027 Co1023 2.148 . S
N1027 C1024 1.301 . S
N1027 C1025 1.317 . S
N1028 C1024 1.328 . S
N1028 C1026 1.350 . S
H1029 C1024 0.930 . S
H1030 C1025 0.930 . S
C1031 O1032 1.224 . S
C1031 O1050 1.247 . S
O1032 C1031 1.224 . S
N1033 Co1023 2.128 . S
N1033 C1034 1.355 . S
N1033 C1036 1.311 . S
C1034 N1033 1.355 . S
C1034 C1035 1.363 . S
C1034 H1046 0.929 . S
C1035 C1034 1.363 . S
C1035 N1037 1.375 . S
C1035 H1053 0.931 . S
C1036 N1033 1.311 . S
C1036 N1037 1.347 . S
C1036 H1047 0.929 . S
N1037 C1035 1.375 . S
N1037 C1036 1.347 . S
C1038 C1041 1.365 . S
C1038 N1043 1.328 . S
C1038 H1044 0.929 . S
C1039 C1040 1.362 . S
C1039 C1042 1.378 . S
C1039 H1054 0.929 . S
C1040 C1039 1.362 . S
C1040 C1041 1.366 . S
C1041 C1038 1.365 . S
C1041 C1040 1.366 . S
C1041 H1055 0.930 . S
C1042 C1039 1.378 . S
C1042 N1043 1.315 . S
C1042 H1045 0.930 . S
N1043 Co1023 2.194 . S
N1043 C1038 1.328 . S
N1043 C1042 1.315 . S
H1044 C1038 0.929 . S
H1045 C1042 0.930 . S
H1046 C1034 0.929 . S
H1047 C1036 0.929 . S
O1048 Co1023 2.351 . S
O1048 C1051 1.244 . S
O1049 Co1023 2.155 . S
O1049 C1051 1.240 . S
O1050 Co1023 2.096 . S
O1050 C1031 1.247 . S
C1051 O1048 1.244 . S
C1051 O1049 1.240 . S
H1052 C1026 0.931 . S
H1053 C1035 0.931 . S
H1054 C1039 0.929 . S
H1055 C1041 0.930 . S
C1056 C1057 1.369 . S
C1056 C1058 1.419 . S
C1056 H1060 0.930 . S
C1057 C1056 1.369 . S
C1057 C1066 1.429 . S
C1058 C1056 1.419 . S
C1058 C1059 1.363 . S
C1058 H1061 0.929 . S
C1059 C1058 1.363 . S
C1059 C1065 1.428 . S
H1060 C1056 0.930 . S
H1061 C1058 0.929 . S
S1062 N1063 1.613 . S
S1062 N1064 1.610 . S
N1063 S1062 1.613 . S
N1063 C1066 1.350 . S
N1064 S1062 1.610 . S
N1064 C1065 1.351 . S
C1065 C1059 1.428 . S
C1065 N1064 1.351 . S
C1065 C1066 1.434 . S
C1066 C1057 1.429 . S
C1066 N1063 1.350 . S
C1066 C1065 1.434 . S
C1067 C1068 1.369 . S
C1067 C1069 1.419 . S
C1067 H1071 0.930 . S
C1068 C1067 1.369 . S
C1068 C1077 1.429 . S
C1069 C1067 1.419 . S
C1069 C1070 1.363 . S
C1069 H1072 0.929 . S
C1070 C1069 1.363 . S
C1070 C1076 1.428 . S
H1071 C1067 0.930 . S
H1072 C1069 0.929 . S
S1073 N1074 1.613 . S
S1073 N1075 1.610 . S
N1074 S1073 1.613 . S
N1074 C1077 1.350 . S
N1075 S1073 1.610 . S
N1075 C1076 1.351 . S
C1076 C1070 1.428 . S
C1076 N1075 1.351 . S
C1076 C1077 1.434 . S
C1077 C1068 1.429 . S
C1077 N1074 1.350 . S
C1077 C1076 1.434 . S
C1078 C1079 1.369 . S
C1078 C1080 1.419 . S
C1078 H1082 0.930 . S
C1079 C1078 1.369 . S
C1079 C1088 1.429 . S
C1080 C1078 1.419 . S
C1080 C1081 1.363 . S
C1080 H1083 0.929 . S
C1081 C1080 1.363 . S
C1081 C1087 1.428 . S
H1082 C1078 0.930 . S
H1083 C1080 0.929 . S
S1084 N1085 1.613 . S
S1084 N1086 1.610 . S
N1085 S1084 1.613 . S
N1085 C1088 1.350 . S
N1086 S1084 1.610 . S
N1086 C1087 1.351 . S
C1087 C1081 1.428 . S
C1087 N1086 1.351 . S
C1087 C1088 1.434 . S
C1088 C1079 1.429 . S
C1088 N1085 1.350 . S
C1088 C1087 1.434 . S
C1089 C1090 1.369 . S
C1089 C1091 1.419 . S
C1089 H1093 0.930 . S
C1090 C1089 1.369 . S
C1090 C1099 1.429 . S
C1091 C1089 1.419 . S
C1091 C1092 1.363 . S
C1091 H1094 0.929 . S
C1092 C1091 1.363 . S
C1092 C1098 1.428 . S
H1093 C1089 0.930 . S
H1094 C1091 0.929 . S
S1095 N1096 1.613 . S
S1095 N1097 1.610 . S
N1096 S1095 1.613 . S
N1096 C1099 1.350 . S
N1097 S1095 1.610 . S
N1097 C1098 1.351 . S
C1098 C1092 1.428 . S
C1098 N1097 1.351 . S
C1098 C1099 1.434 . S
C1099 C1090 1.429 . S
C1099 N1096 1.350 . S
C1099 C1098 1.434 . S
C1100 C1101 1.369 . S
C1100 C1102 1.419 . S
C1100 H1104 0.930 . S
C1101 C1100 1.369 . S
C1101 C1110 1.429 . S
C1102 C1100 1.419 . S
C1102 C1103 1.363 . S
C1102 H1105 0.929 . S
C1103 C1102 1.363 . S
C1103 C1109 1.428 . S
H1104 C1100 0.930 . S
H1105 C1102 0.929 . S
S1106 N1107 1.613 . S
S1106 N1108 1.610 . S
N1107 S1106 1.613 . S
N1107 C1110 1.350 . S
N1108 S1106 1.610 . S
N1108 C1109 1.351 . S
C1109 C1103 1.428 . S
C1109 N1108 1.351 . S
C1109 C1110 1.434 . S
C1110 C1101 1.429 . S
C1110 N1107 1.350 . S
C1110 C1109 1.434 . S
C1111 C1112 1.369 . S
C1111 C1113 1.419 . S
C1111 H1115 0.930 . S
C1112 C1111 1.369 . S
C1112 C1121 1.429 . S
C1113 C1111 1.419 . S
C1113 C1114 1.363 . S
C1113 H1116 0.929 . S
C1114 C1113 1.363 . S
C1114 C1120 1.428 . S
H1115 C1111 0.930 . S
H1116 C1113 0.929 . S
S1117 N1118 1.613 . S
S1117 N1119 1.610 . S
N1118 S1117 1.613 . S
N1118 C1121 1.350 . S
N1119 S1117 1.610 . S
N1119 C1120 1.351 . S
C1120 C1114 1.428 . S
C1120 N1119 1.351 . S
C1120 C1121 1.434 . S
C1121 C1112 1.429 . S
C1121 N1118 1.350 . S
C1121 C1120 1.434 . S
C1122 C1123 1.369 . S
C1122 C1124 1.419 . S
C1122 H1126 0.930 . S
C1123 C1122 1.369 . S
C1123 C1132 1.429 . S
C1124 C1122 1.419 . S
C1124 C1125 1.363 . S
C1124 H1127 0.929 . S
C1125 C1124 1.363 . S
C1125 C1131 1.428 . S
H1126 C1122 0.930 . S
H1127 C1124 0.929 . S
S1128 N1129 1.613 . S
S1128 N1130 1.610 . S
N1129 S1128 1.613 . S
N1129 C1132 1.350 . S
N1130 S1128 1.610 . S
N1130 C1131 1.351 . S
C1131 C1125 1.428 . S
C1131 N1130 1.351 . S
C1131 C1132 1.434 . S
C1132 C1123 1.429 . S
C1132 N1129 1.350 . S
C1132 C1131 1.434 . S
C1133 C1134 1.369 . S
C1133 C1135 1.419 . S
C1133 H1137 0.930 . S
C1134 C1133 1.369 . S
C1134 C1143 1.429 . S
C1135 C1133 1.419 . S
C1135 C1136 1.363 . S
C1135 H1138 0.929 . S
C1136 C1135 1.363 . S
C1136 C1142 1.428 . S
H1137 C1133 0.930 . S
H1138 C1135 0.929 . S
S1139 N1140 1.613 . S
S1139 N1141 1.610 . S
N1140 S1139 1.613 . S
N1140 C1143 1.350 . S
N1141 S1139 1.610 . S
N1141 C1142 1.351 . S
C1142 C1136 1.428 . S
C1142 N1141 1.351 . S
C1142 C1143 1.434 . S
C1143 C1134 1.429 . S
C1143 N1140 1.350 . S
C1143 C1142 1.434 . S
C1144 C1145 1.369 . S
C1144 C1146 1.419 . S
C1144 H1148 0.930 . S
C1145 C1144 1.369 . S
C1145 C1154 1.429 . S
C1146 C1144 1.419 . S
C1146 C1147 1.363 . S
C1146 H1149 0.929 . S
C1147 C1146 1.363 . S
C1147 C1153 1.428 . S
H1148 C1144 0.930 . S
H1149 C1146 0.929 . S
S1150 N1151 1.613 . S
S1150 N1152 1.610 . S
N1151 S1150 1.613 . S
N1151 C1154 1.350 . S
N1152 S1150 1.610 . S
N1152 C1153 1.351 . S
C1153 C1147 1.428 . S
C1153 N1152 1.351 . S
C1153 C1154 1.434 . S
C1154 C1145 1.429 . S
C1154 N1151 1.350 . S
C1154 C1153 1.434 . S
C1155 C1156 1.369 . S
C1155 C1157 1.419 . S
C1155 H1159 0.930 . S
C1156 C1155 1.369 . S
C1156 C1165 1.429 . S
C1157 C1155 1.419 . S
C1157 C1158 1.363 . S
C1157 H1160 0.929 . S
C1158 C1157 1.363 . S
C1158 C1164 1.428 . S
H1159 C1155 0.930 . S
H1160 C1157 0.929 . S
S1161 N1162 1.613 . S
S1161 N1163 1.610 . S
N1162 S1161 1.613 . S
N1162 C1165 1.350 . S
N1163 S1161 1.610 . S
N1163 C1164 1.351 . S
C1164 C1158 1.428 . S
C1164 N1163 1.351 . S
C1164 C1165 1.434 . S
C1165 C1156 1.429 . S
C1165 N1162 1.350 . S
C1165 C1164 1.434 . S
C1166 C1167 1.369 . S
C1166 C1168 1.419 . S
C1166 H1170 0.930 . S
C1167 C1166 1.369 . S
C1167 C1176 1.429 . S
C1168 C1166 1.419 . S
C1168 C1169 1.363 . S
C1168 H1171 0.929 . S
C1169 C1168 1.363 . S
C1169 C1175 1.428 . S
H1170 C1166 0.930 . S
H1171 C1168 0.929 . S
S1172 N1173 1.613 . S
S1172 N1174 1.610 . S
N1173 S1172 1.613 . S
N1173 C1176 1.350 . S
N1174 S1172 1.610 . S
N1174 C1175 1.351 . S
C1175 C1169 1.428 . S
C1175 N1174 1.351 . S
C1175 C1176 1.434 . S
C1176 C1167 1.429 . S
C1176 N1173 1.350 . S
C1176 C1175 1.434 . S
C1177 C1178 1.369 . S
C1177 C1179 1.419 . S
C1177 H1181 0.930 . S
C1178 C1177 1.369 . S
C1178 C1187 1.429 . S
C1179 C1177 1.419 . S
C1179 C1180 1.363 . S
C1179 H1182 0.929 . S
C1180 C1179 1.363 . S
C1180 C1186 1.428 . S
H1181 C1177 0.930 . S
H1182 C1179 0.929 . S
S1183 N1184 1.613 . S
S1183 N1185 1.610 . S
N1184 S1183 1.613 . S
N1184 C1187 1.350 . S
N1185 S1183 1.610 . S
N1185 C1186 1.351 . S
C1186 C1180 1.428 . S
C1186 N1185 1.351 . S
C1186 C1187 1.434 . S
C1187 C1178 1.429 . S
C1187 N1184 1.350 . S
C1187 C1186 1.434 . S
C1188 C1189 1.369 . S
C1188 C1190 1.419 . S
C1188 H1192 0.930 . S
C1189 C1188 1.369 . S
C1189 C1198 1.429 . S
C1190 C1188 1.419 . S
C1190 C1191 1.363 . S
C1190 H1193 0.929 . S
C1191 C1190 1.363 . S
C1191 C1197 1.428 . S
H1192 C1188 0.930 . S
H1193 C1190 0.929 . S
S1194 N1195 1.613 . S
S1194 N1196 1.610 . S
N1195 S1194 1.613 . S
N1195 C1198 1.350 . S
N1196 S1194 1.610 . S
N1196 C1197 1.351 . S
C1197 C1191 1.428 . S
C1197 N1196 1.351 . S
C1197 C1198 1.434 . S
C1198 C1189 1.429 . S
C1198 N1195 1.350 . S
C1198 C1197 1.434 . S
C1199 C1200 1.369 . S
C1199 C1201 1.419 . S
C1199 H1203 0.930 . S
C1200 C1199 1.369 . S
C1200 C1209 1.429 . S
C1201 C1199 1.419 . S
C1201 C1202 1.363 . S
C1201 H1204 0.929 . S
C1202 C1201 1.363 . S
C1202 C1208 1.428 . S
H1203 C1199 0.930 . S
H1204 C1201 0.929 . S
S1205 N1206 1.613 . S
S1205 N1207 1.610 . S
N1206 S1205 1.613 . S
N1206 C1209 1.350 . S
N1207 S1205 1.610 . S
N1207 C1208 1.351 . S
C1208 C1202 1.428 . S
C1208 N1207 1.351 . S
C1208 C1209 1.434 . S
C1209 C1200 1.429 . S
C1209 N1206 1.350 . S
C1209 C1208 1.434 . S
C1210 C1211 1.369 . S
C1210 C1212 1.419 . S
C1210 H1214 0.930 . S
C1211 C1210 1.369 . S
C1211 C1220 1.429 . S
C1212 C1210 1.419 . S
C1212 C1213 1.363 . S
C1212 H1215 0.929 . S
C1213 C1212 1.363 . S
C1213 C1219 1.428 . S
H1214 C1210 0.930 . S
H1215 C1212 0.929 . S
S1216 N1217 1.613 . S
S1216 N1218 1.610 . S
N1217 S1216 1.613 . S
N1217 C1220 1.350 . S
N1218 S1216 1.610 . S
N1218 C1219 1.351 . S
C1219 C1213 1.428 . S
C1219 N1218 1.351 . S
C1219 C1220 1.434 . S
C1220 C1211 1.429 . S
C1220 N1217 1.350 . S
C1220 C1219 1.434 . S
C1221 C1222 1.369 . S
C1221 C1223 1.419 . S
C1221 H1225 0.930 . S
C1222 C1221 1.369 . S
C1222 C1231 1.429 . S
C1223 C1221 1.419 . S
C1223 C1224 1.363 . S
C1223 H1226 0.929 . S
C1224 C1223 1.363 . S
C1224 C1230 1.428 . S
H1225 C1221 0.930 . S
H1226 C1223 0.929 . S
S1227 N1228 1.613 . S
S1227 N1229 1.610 . S
N1228 S1227 1.613 . S
N1228 C1231 1.350 . S
N1229 S1227 1.610 . S
N1229 C1230 1.351 . S
C1230 C1224 1.428 . S
C1230 N1229 1.351 . S
C1230 C1231 1.434 . S
C1231 C1222 1.429 . S
C1231 N1228 1.350 . S
C1231 C1230 1.434 . S
C1232 C1233 1.369 . S
C1232 C1234 1.419 . S
C1232 H1236 0.930 . S
C1233 C1232 1.369 . S
C1233 C1242 1.429 . S
C1234 C1232 1.419 . S
C1234 C1235 1.363 . S
C1234 H1237 0.929 . S
C1235 C1234 1.363 . S
C1235 C1241 1.428 . S
H1236 C1232 0.930 . S
H1237 C1234 0.929 . S
S1238 N1239 1.613 . S
S1238 N1240 1.610 . S
N1239 S1238 1.613 . S
N1239 C1242 1.350 . S
N1240 S1238 1.610 . S
N1240 C1241 1.351 . S
C1241 C1235 1.428 . S
C1241 N1240 1.351 . S
C1241 C1242 1.434 . S
C1242 C1233 1.429 . S
C1242 N1239 1.350 . S
C1242 C1241 1.434 . S
C1243 C1244 1.369 . S
C1243 C1245 1.419 . S
C1243 H1247 0.930 . S
C1244 C1243 1.369 . S
C1244 C1253 1.429 . S
C1245 C1243 1.419 . S
C1245 C1246 1.363 . S
C1245 H1248 0.929 . S
C1246 C1245 1.363 . S
C1246 C1252 1.428 . S
H1247 C1243 0.930 . S
H1248 C1245 0.929 . S
S1249 N1250 1.613 . S
S1249 N1251 1.610 . S
N1250 S1249 1.613 . S
N1250 C1253 1.350 . S
N1251 S1249 1.610 . S
N1251 C1252 1.351 . S
C1252 C1246 1.428 . S
C1252 N1251 1.351 . S
C1252 C1253 1.434 . S
C1253 C1244 1.429 . S
C1253 N1250 1.350 . S
C1253 C1252 1.434 . S
C1254 C1255 1.369 . S
C1254 C1256 1.419 . S
C1254 H1258 0.930 . S
C1255 C1254 1.369 . S
C1255 C1264 1.429 . S
C1256 C1254 1.419 . S
C1256 C1257 1.363 . S
C1256 H1259 0.929 . S
C1257 C1256 1.363 . S
C1257 C1263 1.428 . S
H1258 C1254 0.930 . S
H1259 C1256 0.929 . S
S1260 N1261 1.613 . S
S1260 N1262 1.610 . S
N1261 S1260 1.613 . S
N1261 C1264 1.350 . S
N1262 S1260 1.610 . S
N1262 C1263 1.351 . S
C1263 C1257 1.428 . S
C1263 N1262 1.351 . S
C1263 C1264 1.434 . S
C1264 C1255 1.429 . S
C1264 N1261 1.350 . S
C1264 C1263 1.434 . S
C1265 C1266 1.369 . S
C1265 C1267 1.419 . S
C1265 H1269 0.930 . S
C1266 C1265 1.369 . S
C1266 C1275 1.429 . S
C1267 C1265 1.419 . S
C1267 C1268 1.363 . S
C1267 H1270 0.929 . S
C1268 C1267 1.363 . S
C1268 C1274 1.428 . S
H1269 C1265 0.930 . S
H1270 C1267 0.929 . S
S1271 N1272 1.613 . S
S1271 N1273 1.610 . S
N1272 S1271 1.613 . S
N1272 C1275 1.350 . S
N1273 S1271 1.610 . S
N1273 C1274 1.351 . S
C1274 C1268 1.428 . S
C1274 N1273 1.351 . S
C1274 C1275 1.434 . S
C1275 C1266 1.429 . S
C1275 N1272 1.350 . S
C1275 C1274 1.434 . S
C1276 C1277 1.369 . S
C1276 C1278 1.419 . S
C1276 H1280 0.930 . S
C1277 C1276 1.369 . S
C1277 C1286 1.429 . S
C1278 C1276 1.419 . S
C1278 C1279 1.363 . S
C1278 H1281 0.929 . S
C1279 C1278 1.363 . S
C1279 C1285 1.428 . S
H1280 C1276 0.930 . S
H1281 C1278 0.929 . S
S1282 N1283 1.613 . S
S1282 N1284 1.610 . S
N1283 S1282 1.613 . S
N1283 C1286 1.350 . S
N1284 S1282 1.610 . S
N1284 C1285 1.351 . S
C1285 C1279 1.428 . S
C1285 N1284 1.351 . S
C1285 C1286 1.434 . S
C1286 C1277 1.429 . S
C1286 N1283 1.350 . S
C1286 C1285 1.434 . S
C1287 C1288 1.369 . S
C1287 C1289 1.419 . S
C1287 H1291 0.930 . S
C1288 C1287 1.369 . S
C1288 C1297 1.429 . S
C1289 C1287 1.419 . S
C1289 C1290 1.363 . S
C1289 H1292 0.929 . S
C1290 C1289 1.363 . S
C1290 C1296 1.428 . S
H1291 C1287 0.930 . S
H1292 C1289 0.929 . S
S1293 N1294 1.613 . S
S1293 N1295 1.610 . S
N1294 S1293 1.613 . S
N1294 C1297 1.350 . S
N1295 S1293 1.610 . S
N1295 C1296 1.351 . S
C1296 C1290 1.428 . S
C1296 N1295 1.351 . S
C1296 C1297 1.434 . S
C1297 C1288 1.429 . S
C1297 N1294 1.350 . S
C1297 C1296 1.434 . S
C1298 C1299 1.369 . S
C1298 C1300 1.419 . S
C1298 H1302 0.930 . S
C1299 C1298 1.369 . S
C1299 C1308 1.429 . S
C1300 C1298 1.419 . S
C1300 C1301 1.363 . S
C1300 H1303 0.929 . S
C1301 C1300 1.363 . S
C1301 C1307 1.428 . S
H1302 C1298 0.930 . S
H1303 C1300 0.929 . S
S1304 N1305 1.613 . S
S1304 N1306 1.610 . S
N1305 S1304 1.613 . S
N1305 C1308 1.350 . S
N1306 S1304 1.610 . S
N1306 C1307 1.351 . S
C1307 C1301 1.428 . S
C1307 N1306 1.351 . S
C1307 C1308 1.434 . S
C1308 C1299 1.429 . S
C1308 N1305 1.350 . S
C1308 C1307 1.434 . S
C1309 C1310 1.369 . S
C1309 C1311 1.419 . S
C1309 H1313 0.930 . S
C1310 C1309 1.369 . S
C1310 C1319 1.429 . S
C1311 C1309 1.419 . S
C1311 C1312 1.363 . S
C1311 H1314 0.929 . S
C1312 C1311 1.363 . S
C1312 C1318 1.428 . S
H1313 C1309 0.930 . S
H1314 C1311 0.929 . S
S1315 N1316 1.613 . S
S1315 N1317 1.610 . S
N1316 S1315 1.613 . S
N1316 C1319 1.350 . S
N1317 S1315 1.610 . S
N1317 C1318 1.351 . S
C1318 C1312 1.428 . S
C1318 N1317 1.351 . S
C1318 C1319 1.434 . S
C1319 C1310 1.429 . S
C1319 N1316 1.350 . S
C1319 C1318 1.434 . S
C1320 C1321 1.369 . S
C1320 C1322 1.419 . S
C1320 H1324 0.930 . S
C1321 C1320 1.369 . S
C1321 C1330 1.429 . S
C1322 C1320 1.419 . S
C1322 C1323 1.363 . S
C1322 H1325 0.929 . S
C1323 C1322 1.363 . S
C1323 C1329 1.428 . S
H1324 C1320 0.930 . S
H1325 C1322 0.929 . S
S1326 N1327 1.613 . S
S1326 N1328 1.610 . S
N1327 S1326 1.613 . S
N1327 C1330 1.350 . S
N1328 S1326 1.610 . S
N1328 C1329 1.351 . S
C1329 C1323 1.428 . S
C1329 N1328 1.351 . S
C1329 C1330 1.434 . S
C1330 C1321 1.429 . S
C1330 N1327 1.350 . S
C1330 C1329 1.434 . S
C1331 C1332 1.369 . S
C1331 C1333 1.419 . S
C1331 H1335 0.930 . S
C1332 C1331 1.369 . S
C1332 C1341 1.429 . S
C1333 C1331 1.419 . S
C1333 C1334 1.363 . S
C1333 H1336 0.929 . S
C1334 C1333 1.363 . S
C1334 C1340 1.428 . S
H1335 C1331 0.930 . S
H1336 C1333 0.929 . S
S1337 N1338 1.613 . S
S1337 N1339 1.610 . S
N1338 S1337 1.613 . S
N1338 C1341 1.350 . S
N1339 S1337 1.610 . S
N1339 C1340 1.351 . S
C1340 C1334 1.428 . S
C1340 N1339 1.351 . S
C1340 C1341 1.434 . S
C1341 C1332 1.429 . S
C1341 N1338 1.350 . S
C1341 C1340 1.434 . S
C1342 C1343 1.369 . S
C1342 C1344 1.419 . S
C1342 H1346 0.930 . S
C1343 C1342 1.369 . S
C1343 C1352 1.429 . S
C1344 C1342 1.419 . S
C1344 C1345 1.363 . S
C1344 H1347 0.929 . S
C1345 C1344 1.363 . S
C1345 C1351 1.428 . S
H1346 C1342 0.930 . S
H1347 C1344 0.929 . S
S1348 N1349 1.613 . S
S1348 N1350 1.610 . S
N1349 S1348 1.613 . S
N1349 C1352 1.350 . S
N1350 S1348 1.610 . S
N1350 C1351 1.351 . S
C1351 C1345 1.428 . S
C1351 N1350 1.351 . S
C1351 C1352 1.434 . S
C1352 C1343 1.429 . S
C1352 N1349 1.350 . S
C1352 C1351 1.434 . S
C1353 C1354 1.369 . S
C1353 C1355 1.419 . S
C1353 H1357 0.930 . S
C1354 C1353 1.369 . S
C1354 C1363 1.429 . S
C1355 C1353 1.419 . S
C1355 C1356 1.363 . S
C1355 H1358 0.929 . S
C1356 C1355 1.363 . S
C1356 C1362 1.428 . S
H1357 C1353 0.930 . S
H1358 C1355 0.929 . S
S1359 N1360 1.613 . S
S1359 N1361 1.610 . S
N1360 S1359 1.613 . S
N1360 C1363 1.350 . S
N1361 S1359 1.610 . S
N1361 C1362 1.351 . S
C1362 C1356 1.428 . S
C1362 N1361 1.351 . S
C1362 C1363 1.434 . S
C1363 C1354 1.429 . S
C1363 N1360 1.350 . S
C1363 C1362 1.434 . S
C1364 C1365 1.369 . S
C1364 C1366 1.419 . S
C1364 H1368 0.930 . S
C1365 C1364 1.369 . S
C1365 C1374 1.429 . S
C1366 C1364 1.419 . S
C1366 C1367 1.363 . S
C1366 H1369 0.929 . S
C1367 C1366 1.363 . S
C1367 C1373 1.428 . S
H1368 C1364 0.930 . S
H1369 C1366 0.929 . S
S1370 N1371 1.613 . S
S1370 N1372 1.610 . S
N1371 S1370 1.613 . S
N1371 C1374 1.350 . S
N1372 S1370 1.610 . S
N1372 C1373 1.351 . S
C1373 C1367 1.428 . S
C1373 N1372 1.351 . S
C1373 C1374 1.434 . S
C1374 C1365 1.429 . S
C1374 N1371 1.350 . S
C1374 C1373 1.434 . S
C1375 C1376 1.369 . S
C1375 C1377 1.419 . S
C1375 H1379 0.930 . S
C1376 C1375 1.369 . S
C1376 C1385 1.429 . S
C1377 C1375 1.419 . S
C1377 C1378 1.363 . S
C1377 H1380 0.929 . S
C1378 C1377 1.363 . S
C1378 C1384 1.428 . S
H1379 C1375 0.930 . S
H1380 C1377 0.929 . S
S1381 N1382 1.613 . S
S1381 N1383 1.610 . S
N1382 S1381 1.613 . S
N1382 C1385 1.350 . S
N1383 S1381 1.610 . S
N1383 C1384 1.351 . S
C1384 C1378 1.428 . S
C1384 N1383 1.351 . S
C1384 C1385 1.434 . S
C1385 C1376 1.429 . S
C1385 N1382 1.350 . S
C1385 C1384 1.434 . S
C1386 C1387 1.369 . S
C1386 C1388 1.419 . S
C1386 H1390 0.930 . S
C1387 C1386 1.369 . S
C1387 C1396 1.429 . S
C1388 C1386 1.419 . S
C1388 C1389 1.363 . S
C1388 H1391 0.929 . S
C1389 C1388 1.363 . S
C1389 C1395 1.428 . S
H1390 C1386 0.930 . S
H1391 C1388 0.929 . S
S1392 N1393 1.613 . S
S1392 N1394 1.610 . S
N1393 S1392 1.613 . S
N1393 C1396 1.350 . S
N1394 S1392 1.610 . S
N1394 C1395 1.351 . S
C1395 C1389 1.428 . S
C1395 N1394 1.351 . S
C1395 C1396 1.434 . S
C1396 C1387 1.429 . S
C1396 N1393 1.350 . S
C1396 C1395 1.434 . S
C1397 C1398 1.369 . S
C1397 C1399 1.419 . S
C1397 H1401 0.930 . S
C1398 C1397 1.369 . S
C1398 C1407 1.429 . S
C1399 C1397 1.419 . S
C1399 C1400 1.363 . S
C1399 H1402 0.929 . S
C1400 C1399 1.363 . S
C1400 C1406 1.428 . S
H1401 C1397 0.930 . S
H1402 C1399 0.929 . S
S1403 N1404 1.613 . S
S1403 N1405 1.610 . S
N1404 S1403 1.613 . S
N1404 C1407 1.350 . S
N1405 S1403 1.610 . S
N1405 C1406 1.351 . S
C1406 C1400 1.428 . S
C1406 N1405 1.351 . S
C1406 C1407 1.434 . S
C1407 C1398 1.429 . S
C1407 N1404 1.350 . S
C1407 C1406 1.434 . S
C1408 C1409 1.369 . S
C1408 C1410 1.419 . S
C1408 H1412 0.930 . S
C1409 C1408 1.369 . S
C1409 C1418 1.429 . S
C1410 C1408 1.419 . S
C1410 C1411 1.363 . S
C1410 H1413 0.929 . S
C1411 C1410 1.363 . S
C1411 C1417 1.428 . S
H1412 C1408 0.930 . S
H1413 C1410 0.929 . S
S1414 N1415 1.613 . S
S1414 N1416 1.610 . S
N1415 S1414 1.613 . S
N1415 C1418 1.350 . S
N1416 S1414 1.610 . S
N1416 C1417 1.351 . S
C1417 C1411 1.428 . S
C1417 N1416 1.351 . S
C1417 C1418 1.434 . S
C1418 C1409 1.429 . S
C1418 N1415 1.350 . S
C1418 C1417 1.434 . S
C1419 C1420 1.369 . S
C1419 C1421 1.419 . S
C1419 H1423 0.930 . S
C1420 C1419 1.369 . S
C1420 C1429 1.429 . S
C1421 C1419 1.419 . S
C1421 C1422 1.363 . S
C1421 H1424 0.929 . S
C1422 C1421 1.363 . S
C1422 C1428 1.428 . S
H1423 C1419 0.930 . S
H1424 C1421 0.929 . S
S1425 N1426 1.613 . S
S1425 N1427 1.610 . S
N1426 S1425 1.613 . S
N1426 C1429 1.350 . S
N1427 S1425 1.610 . S
N1427 C1428 1.351 . S
C1428 C1422 1.428 . S
C1428 N1427 1.351 . S
C1428 C1429 1.434 . S
C1429 C1420 1.429 . S
C1429 N1426 1.350 . S
C1429 C1428 1.434 . S
C1430 C1431 1.369 . S
C1430 C1432 1.419 . S
C1430 H1434 0.930 . S
C1431 C1430 1.369 . S
C1431 C1440 1.429 . S
C1432 C1430 1.419 . S
C1432 C1433 1.363 . S
C1432 H1435 0.929 . S
C1433 C1432 1.363 . S
C1433 C1439 1.428 . S
H1434 C1430 0.930 . S
H1435 C1432 0.929 . S
S1436 N1437 1.613 . S
S1436 N1438 1.610 . S
N1437 S1436 1.613 . S
N1437 C1440 1.350 . S
N1438 S1436 1.610 . S
N1438 C1439 1.351 . S
C1439 C1433 1.428 . S
C1439 N1438 1.351 . S
C1439 C1440 1.434 . S
C1440 C1431 1.429 . S
C1440 N1437 1.350 . S
C1440 C1439 1.434 . S
C1441 C1442 1.369 . S
C1441 C1443 1.419 . S
C1441 H1445 0.930 . S
C1442 C1441 1.369 . S
C1442 C1451 1.429 . S
C1443 C1441 1.419 . S
C1443 C1444 1.363 . S
C1443 H1446 0.929 . S
C1444 C1443 1.363 . S
C1444 C1450 1.428 . S
H1445 C1441 0.930 . S
H1446 C1443 0.929 . S
S1447 N1448 1.613 . S
S1447 N1449 1.610 . S
N1448 S1447 1.613 . S
N1448 C1451 1.350 . S
N1449 S1447 1.610 . S
N1449 C1450 1.351 . S
C1450 C1444 1.428 . S
C1450 N1449 1.351 . S
C1450 C1451 1.434 . S
C1451 C1442 1.429 . S
C1451 N1448 1.350 . S
C1451 C1450 1.434 . S
C1452 C1453 1.369 . S
C1452 C1454 1.419 . S
C1452 H1456 0.930 . S
C1453 C1452 1.369 . S
C1453 C1462 1.429 . S
C1454 C1452 1.419 . S
C1454 C1455 1.363 . S
C1454 H1457 0.929 . S
C1455 C1454 1.363 . S
C1455 C1461 1.428 . S
H1456 C1452 0.930 . S
H1457 C1454 0.929 . S
S1458 N1459 1.613 . S
S1458 N1460 1.610 . S
N1459 S1458 1.613 . S
N1459 C1462 1.350 . S
N1460 S1458 1.610 . S
N1460 C1461 1.351 . S
C1461 C1455 1.428 . S
C1461 N1460 1.351 . S
C1461 C1462 1.434 . S
C1462 C1453 1.429 . S
C1462 N1459 1.350 . S
C1462 C1461 1.434 . S
C1463 C1464 1.369 . S
C1463 C1465 1.419 . S
C1463 H1467 0.930 . S
C1464 C1463 1.369 . S
C1464 C1473 1.429 . S
C1465 C1463 1.419 . S
C1465 C1466 1.363 . S
C1465 H1468 0.929 . S
C1466 C1465 1.363 . S
C1466 C1472 1.428 . S
H1467 C1463 0.930 . S
H1468 C1465 0.929 . S
S1469 N1470 1.613 . S
S1469 N1471 1.610 . S
N1470 S1469 1.613 . S
N1470 C1473 1.350 . S
N1471 S1469 1.610 . S
N1471 C1472 1.351 . S
C1472 C1466 1.428 . S
C1472 N1471 1.351 . S
C1472 C1473 1.434 . S
C1473 C1464 1.429 . S
C1473 N1470 1.350 . S
C1473 C1472 1.434 . S
C1474 C1475 1.369 . S
C1474 C1476 1.419 . S
C1474 H1478 0.930 . S
C1475 C1474 1.369 . S
C1475 C1484 1.429 . S
C1476 C1474 1.419 . S
C1476 C1477 1.363 . S
C1476 H1479 0.929 . S
C1477 C1476 1.363 . S
C1477 C1483 1.428 . S
H1478 C1474 0.930 . S
H1479 C1476 0.929 . S
S1480 N1481 1.613 . S
S1480 N1482 1.610 . S
N1481 S1480 1.613 . S
N1481 C1484 1.350 . S
N1482 S1480 1.610 . S
N1482 C1483 1.351 . S
C1483 C1477 1.428 . S
C1483 N1482 1.351 . S
C1483 C1484 1.434 . S
C1484 C1475 1.429 . S
C1484 N1481 1.350 . S
C1484 C1483 1.434 . S
C1485 C1486 1.369 . S
C1485 C1487 1.419 . S
C1485 H1489 0.930 . S
C1486 C1485 1.369 . S
C1486 C1495 1.429 . S
C1487 C1485 1.419 . S
C1487 C1488 1.363 . S
C1487 H1490 0.929 . S
C1488 C1487 1.363 . S
C1488 C1494 1.428 . S
H1489 C1485 0.930 . S
H1490 C1487 0.929 . S
S1491 N1492 1.613 . S
S1491 N1493 1.610 . S
N1492 S1491 1.613 . S
N1492 C1495 1.350 . S
N1493 S1491 1.610 . S
N1493 C1494 1.351 . S
C1494 C1488 1.428 . S
C1494 N1493 1.351 . S
C1494 C1495 1.434 . S
C1495 C1486 1.429 . S
C1495 N1492 1.350 . S
C1495 C1494 1.434 . S
C1496 C1497 1.369 . S
C1496 C1498 1.419 . S
C1496 H1500 0.930 . S
C1497 C1496 1.369 . S
C1497 C1506 1.429 . S
C1498 C1496 1.419 . S
C1498 C1499 1.363 . S
C1498 H1501 0.929 . S
C1499 C1498 1.363 . S
C1499 C1505 1.428 . S
H1500 C1496 0.930 . S
H1501 C1498 0.929 . S
S1502 N1503 1.613 . S
S1502 N1504 1.610 . S
N1503 S1502 1.613 . S
N1503 C1506 1.350 . S
N1504 S1502 1.610 . S
N1504 C1505 1.351 . S
C1505 C1499 1.428 . S
C1505 N1504 1.351 . S
C1505 C1506 1.434 . S
C1506 C1497 1.429 . S
C1506 N1503 1.350 . S
C1506 C1505 1.434 . S
C1507 C1508 1.369 . S
C1507 C1509 1.419 . S
C1507 H1511 0.930 . S
C1508 C1507 1.369 . S
C1508 C1517 1.429 . S
C1509 C1507 1.419 . S
C1509 C1510 1.363 . S
C1509 H1512 0.929 . S
C1510 C1509 1.363 . S
C1510 C1516 1.428 . S
H1511 C1507 0.930 . S
H1512 C1509 0.929 . S
S1513 N1514 1.613 . S
S1513 N1515 1.610 . S
N1514 S1513 1.613 . S
N1514 C1517 1.350 . S
N1515 S1513 1.610 . S
N1515 C1516 1.351 . S
C1516 C1510 1.428 . S
C1516 N1515 1.351 . S
C1516 C1517 1.434 . S
C1517 C1508 1.429 . S
C1517 N1514 1.350 . S
C1517 C1516 1.434 . S
C1518 C1519 1.369 . S
C1518 C1520 1.419 . S
C1518 H1522 0.930 . S
C1519 C1518 1.369 . S
C1519 C1528 1.429 . S
C1520 C1518 1.419 . S
C1520 C1521 1.363 . S
C1520 H1523 0.929 . S
C1521 C1520 1.363 . S
C1521 C1527 1.428 . S
H1522 C1518 0.930 . S
H1523 C1520 0.929 . S
S1524 N1525 1.613 . S
S1524 N1526 1.610 . S
N1525 S1524 1.613 . S
N1525 C1528 1.350 . S
N1526 S1524 1.610 . S
N1526 C1527 1.351 . S
C1527 C1521 1.428 . S
C1527 N1526 1.351 . S
C1527 C1528 1.434 . S
C1528 C1519 1.429 . S
C1528 N1525 1.350 . S
C1528 C1527 1.434 . S
C1529 C1530 1.369 . S
C1529 C1531 1.419 . S
C1529 H1533 0.930 . S
C1530 C1529 1.369 . S
C1530 C1539 1.429 . S
C1531 C1529 1.419 . S
C1531 C1532 1.363 . S
C1531 H1534 0.929 . S
C1532 C1531 1.363 . S
C1532 C1538 1.428 . S
H1533 C1529 0.930 . S
H1534 C1531 0.929 . S
S1535 N1536 1.613 . S
S1535 N1537 1.610 . S
N1536 S1535 1.613 . S
N1536 C1539 1.350 . S
N1537 S1535 1.610 . S
N1537 C1538 1.351 . S
C1538 C1532 1.428 . S
C1538 N1537 1.351 . S
C1538 C1539 1.434 . S
C1539 C1530 1.429 . S
C1539 N1536 1.350 . S
C1539 C1538 1.434 . S
C1540 C1541 1.369 . S
C1540 C1542 1.419 . S
C1540 H1544 0.930 . S
C1541 C1540 1.369 . S
C1541 C1550 1.429 . S
C1542 C1540 1.419 . S
C1542 C1543 1.363 . S
C1542 H1545 0.929 . S
C1543 C1542 1.363 . S
C1543 C1549 1.428 . S
H1544 C1540 0.930 . S
H1545 C1542 0.929 . S
S1546 N1547 1.613 . S
S1546 N1548 1.610 . S
N1547 S1546 1.613 . S
N1547 C1550 1.350 . S
N1548 S1546 1.610 . S
N1548 C1549 1.351 . S
C1549 C1543 1.428 . S
C1549 N1548 1.351 . S
C1549 C1550 1.434 . S
C1550 C1541 1.429 . S
C1550 N1547 1.350 . S
C1550 C1549 1.434 . S
C1551 C1552 1.369 . S
C1551 C1553 1.419 . S
C1551 H1555 0.930 . S
C1552 C1551 1.369 . S
C1552 C1561 1.429 . S
C1553 C1551 1.419 . S
C1553 C1554 1.363 . S
C1553 H1556 0.929 . S
C1554 C1553 1.363 . S
C1554 C1560 1.428 . S
H1555 C1551 0.930 . S
H1556 C1553 0.929 . S
S1557 N1558 1.613 . S
S1557 N1559 1.610 . S
N1558 S1557 1.613 . S
N1558 C1561 1.350 . S
N1559 S1557 1.610 . S
N1559 C1560 1.351 . S
C1560 C1554 1.428 . S
C1560 N1559 1.351 . S
C1560 C1561 1.434 . S
C1561 C1552 1.429 . S
C1561 N1558 1.350 . S
C1561 C1560 1.434 . S
C1562 C1563 1.369 . S
C1562 C1564 1.419 . S
C1562 H1566 0.930 . S
C1563 C1562 1.369 . S
C1563 C1572 1.429 . S
C1564 C1562 1.419 . S
C1564 C1565 1.363 . S
C1564 H1567 0.929 . S
C1565 C1564 1.363 . S
C1565 C1571 1.428 . S
H1566 C1562 0.930 . S
H1567 C1564 0.929 . S
S1568 N1569 1.613 . S
S1568 N1570 1.610 . S
N1569 S1568 1.613 . S
N1569 C1572 1.350 . S
N1570 S1568 1.610 . S
N1570 C1571 1.351 . S
C1571 C1565 1.428 . S
C1571 N1570 1.351 . S
C1571 C1572 1.434 . S
C1572 C1563 1.429 . S
C1572 N1569 1.350 . S
C1572 C1571 1.434 . S
C1573 C1574 1.369 . S
C1573 C1575 1.419 . S
C1573 H1577 0.930 . S
C1574 C1573 1.369 . S
C1574 C1583 1.429 . S
C1575 C1573 1.419 . S
C1575 C1576 1.363 . S
C1575 H1578 0.929 . S
C1576 C1575 1.363 . S
C1576 C1582 1.428 . S
H1577 C1573 0.930 . S
H1578 C1575 0.929 . S
S1579 N1580 1.613 . S
S1579 N1581 1.610 . S
N1580 S1579 1.613 . S
N1580 C1583 1.350 . S
N1581 S1579 1.610 . S
N1581 C1582 1.351 . S
C1582 C1576 1.428 . S
C1582 N1581 1.351 . S
C1582 C1583 1.434 . S
C1583 C1574 1.429 . S
C1583 N1580 1.350 . S
C1583 C1582 1.434 . S
C1584 C1585 1.369 1_565 S
C1584 C1586 1.419 . S
C1584 H1588 0.930 . S
C1585 C1584 1.369 1_545 S
C1585 C1594 1.429 . S
C1586 C1584 1.419 . S
C1586 C1587 1.363 . S
C1586 H1589 0.929 . S
C1587 C1586 1.363 . S
C1587 C1593 1.428 1_565 S
H1588 C1584 0.930 . S
H1589 C1586 0.929 . S
S1590 N1591 1.613 . S
S1590 N1592 1.610 . S
N1591 S1590 1.613 . S
N1591 C1594 1.350 . S
N1592 S1590 1.610 . S
N1592 C1593 1.351 . S
C1593 C1587 1.428 1_545 S
C1593 N1592 1.351 . S
C1593 C1594 1.434 . S
C1594 C1585 1.429 . S
C1594 N1591 1.350 . S
C1594 C1593 1.434 . S
C1595 C1596 1.369 . S
C1595 C1597 1.419 . S
C1595 H1599 0.930 . S
C1596 C1595 1.369 . S
C1596 C1605 1.429 . S
C1597 C1595 1.419 . S
C1597 C1598 1.363 . S
C1597 H1600 0.929 . S
C1598 C1597 1.363 . S
C1598 C1604 1.428 . S
H1599 C1595 0.930 . S
H1600 C1597 0.929 . S
S1601 N1602 1.613 . S
S1601 N1603 1.610 . S
N1602 S1601 1.613 . S
N1602 C1605 1.350 . S
N1603 S1601 1.610 . S
N1603 C1604 1.351 . S
C1604 C1598 1.428 . S
C1604 N1603 1.351 . S
C1604 C1605 1.434 . S
C1605 C1596 1.429 . S
C1605 N1602 1.350 . S
C1605 C1604 1.434 . S
C1606 C1607 1.369 . S
C1606 C1608 1.419 1_545 S
C1606 H1610 0.930 . S
C1607 C1606 1.369 . S
C1607 C1616 1.429 . S
C1608 C1606 1.419 1_565 S
C1608 C1609 1.363 . S
C1608 H1611 0.929 . S
C1609 C1608 1.363 . S
C1609 C1615 1.428 . S
H1610 C1606 0.930 . S
H1611 C1608 0.929 . S
S1612 N1613 1.613 . S
S1612 N1614 1.610 1_545 S
N1613 S1612 1.613 . S
N1613 C1616 1.350 . S
N1614 S1612 1.610 1_565 S
N1614 C1615 1.351 . S
C1615 C1609 1.428 . S
C1615 N1614 1.351 . S
C1615 C1616 1.434 1_565 S
C1616 C1607 1.429 . S
C1616 N1613 1.350 . S
C1616 C1615 1.434 1_545 S
C1617 C1618 1.369 . S
C1617 C1619 1.419 1_556 S
C1617 H1621 0.930 . S
C1618 C1617 1.369 . S
C1618 C1627 1.429 . S
C1619 C1617 1.419 1_554 S
C1619 C1620 1.363 . S
C1619 H1622 0.929 . S
C1620 C1619 1.363 . S
C1620 C1626 1.428 . S
H1621 C1617 0.930 . S
H1622 C1619 0.929 . S
S1623 N1624 1.613 1_554 S
S1623 N1625 1.610 . S
N1624 S1623 1.613 1_556 S
N1624 C1627 1.350 . S
N1625 S1623 1.610 . S
N1625 C1626 1.351 . S
C1626 C1620 1.428 . S
C1626 N1625 1.351 . S
C1626 C1627 1.434 1_554 S
C1627 C1618 1.429 . S
C1627 N1624 1.350 . S
C1627 C1626 1.434 1_556 S
C1628 C1629 1.369 . S
C1628 C1630 1.419 . S
C1628 H1632 0.930 . S
C1629 C1628 1.369 . S
C1629 C1638 1.429 1_565 S
C1630 C1628 1.419 . S
C1630 C1631 1.363 1_565 S
C1630 H1633 0.929 . S
C1631 C1630 1.363 1_545 S
C1631 C1637 1.428 . S
H1632 C1628 0.930 . S
H1633 C1630 0.929 . S
S1634 N1635 1.613 . S
S1634 N1636 1.610 . S
N1635 S1634 1.613 . S
N1635 C1638 1.350 . S
N1636 S1634 1.610 . S
N1636 C1637 1.351 . S
C1637 C1631 1.428 . S
C1637 N1636 1.351 . S
C1637 C1638 1.434 . S
C1638 C1629 1.429 1_545 S
C1638 N1635 1.350 . S
C1638 C1637 1.434 . S
C1639 C1640 1.369 . S
C1639 C1641 1.419 . S
C1639 H1643 0.930 . S
C1640 C1639 1.369 . S
C1640 C1649 1.429 . S
C1641 C1639 1.419 . S
C1641 C1642 1.363 . S
C1641 H1644 0.929 . S
C1642 C1641 1.363 . S
C1642 C1648 1.428 . S
H1643 C1639 0.930 . S
H1644 C1641 0.929 . S
S1645 N1646 1.613 . S
S1645 N1647 1.610 . S
N1646 S1645 1.613 . S
N1646 C1649 1.350 . S
N1647 S1645 1.610 . S
N1647 C1648 1.351 . S
C1648 C1642 1.428 . S
C1648 N1647 1.351 . S
C1648 C1649 1.434 . S
C1649 C1640 1.429 . S
C1649 N1646 1.350 . S
C1649 C1648 1.434 . S
C1650 C1651 1.369 . S
C1650 C1652 1.419 . S
C1650 H1654 0.930 . S
C1651 C1650 1.369 . S
C1651 C1660 1.429 1_545 S
C1652 C1650 1.419 . S
C1652 C1653 1.363 1_545 S
C1652 H1655 0.929 . S
C1653 C1652 1.363 1_565 S
C1653 C1659 1.428 . S
H1654 C1650 0.930 . S
H1655 C1652 0.929 . S
S1656 N1657 1.613 . S
S1656 N1658 1.610 . S
N1657 S1656 1.613 . S
N1657 C1660 1.350 . S
N1658 S1656 1.610 . S
N1658 C1659 1.351 . S
C1659 C1653 1.428 . S
C1659 N1658 1.351 . S
C1659 C1660 1.434 . S
C1660 C1651 1.429 1_565 S
C1660 N1657 1.350 . S
C1660 C1659 1.434 . S
C1661 C1662 1.369 . S
C1661 C1663 1.419 1_554 S
C1661 H1665 0.930 . S
C1662 C1661 1.369 . S
C1662 C1671 1.429 . S
C1663 C1661 1.419 1_556 S
C1663 C1664 1.363 . S
C1663 H1666 0.929 . S
C1664 C1663 1.363 . S
C1664 C1670 1.428 . S
H1665 C1661 0.930 . S
H1666 C1663 0.929 . S
S1667 N1668 1.613 . S
S1667 N1669 1.610 1_554 S
N1668 S1667 1.613 . S
N1668 C1671 1.350 . S
N1669 S1667 1.610 1_556 S
N1669 C1670 1.351 . S
C1670 C1664 1.428 . S
C1670 N1669 1.351 . S
C1670 C1671 1.434 1_556 S
C1671 C1662 1.429 . S
C1671 N1668 1.350 . S
C1671 C1670 1.434 1_554 S
C1672 C1673 1.369 . S
C1672 C1674 1.419 . S
C1672 H1676 0.930 . S
C1673 C1672 1.369 . S
C1673 C1682 1.429 . S
C1674 C1672 1.419 . S
C1674 C1675 1.363 . S
C1674 H1677 0.929 . S
C1675 C1674 1.363 . S
C1675 C1681 1.428 . S
H1676 C1672 0.930 . S
H1677 C1674 0.929 . S
S1678 N1679 1.613 . S
S1678 N1680 1.610 . S
N1679 S1678 1.613 . S
N1679 C1682 1.350 . S
N1680 S1678 1.610 . S
N1680 C1681 1.351 . S
C1681 C1675 1.428 . S
C1681 N1680 1.351 . S
C1681 C1682 1.434 . S
C1682 C1673 1.429 . S
C1682 N1679 1.350 . S
C1682 C1681 1.434 . S
C1683 C1684 1.369 . S
C1683 C1685 1.419 1_554 S
C1683 H1687 0.930 . S
C1684 C1683 1.369 . S
C1684 C1693 1.429 . S
C1685 C1683 1.419 1_556 S
C1685 C1686 1.363 . S
C1685 H1688 0.929 . S
C1686 C1685 1.363 . S
C1686 C1692 1.428 . S
H1687 C1683 0.930 . S
H1688 C1685 0.929 . S
S1689 N1690 1.613 . S
S1689 N1691 1.610 1_554 S
N1690 S1689 1.613 . S
N1690 C1693 1.350 . S
N1691 S1689 1.610 1_556 S
N1691 C1692 1.351 . S
C1692 C1686 1.428 . S
C1692 N1691 1.351 . S
C1692 C1693 1.434 1_556 S
C1693 C1684 1.429 . S
C1693 N1690 1.350 . S
C1693 C1692 1.434 1_554 S
C1694 C1695 1.369 . S
C1694 C1696 1.419 . S
C1694 H1698 0.930 . S
C1695 C1694 1.369 . S
C1695 C1704 1.429 . S
C1696 C1694 1.419 . S
C1696 C1697 1.363 . S
C1696 H1699 0.929 . S
C1697 C1696 1.363 . S
C1697 C1703 1.428 . S
H1698 C1694 0.930 . S
H1699 C1696 0.929 . S
S1700 N1701 1.613 . S
S1700 N1702 1.610 . S
N1701 S1700 1.613 . S
N1701 C1704 1.350 . S
N1702 S1700 1.610 . S
N1702 C1703 1.351 . S
C1703 C1697 1.428 . S
C1703 N1702 1.351 . S
C1703 C1704 1.434 . S
C1704 C1695 1.429 . S
C1704 N1701 1.350 . S
C1704 C1703 1.434 . S
C1705 C1706 1.369 . S
C1705 C1707 1.419 . S
C1705 H1709 0.930 . S
C1706 C1705 1.369 . S
C1706 C1715 1.429 . S
C1707 C1705 1.419 . S
C1707 C1708 1.363 . S
C1707 H1710 0.929 . S
C1708 C1707 1.363 . S
C1708 C1714 1.428 . S
H1709 C1705 0.930 . S
H1710 C1707 0.929 . S
S1711 N1712 1.613 . S
S1711 N1713 1.610 . S
N1712 S1711 1.613 . S
N1712 C1715 1.350 . S
N1713 S1711 1.610 . S
N1713 C1714 1.351 . S
C1714 C1708 1.428 . S
C1714 N1713 1.351 . S
C1714 C1715 1.434 . S
C1715 C1706 1.429 . S
C1715 N1712 1.350 . S
C1715 C1714 1.434 . S
C1716 C1717 1.369 . S
C1716 C1718 1.419 . S
C1716 H1720 0.930 . S
C1717 C1716 1.369 . S
C1717 C1726 1.429 . S
C1718 C1716 1.419 . S
C1718 C1719 1.363 . S
C1718 H1721 0.929 . S
C1719 C1718 1.363 . S
C1719 C1725 1.428 . S
H1720 C1716 0.930 . S
H1721 C1718 0.929 . S
S1722 N1723 1.613 . S
S1722 N1724 1.610 . S
N1723 S1722 1.613 . S
N1723 C1726 1.350 . S
N1724 S1722 1.610 . S
N1724 C1725 1.351 . S
C1725 C1719 1.428 . S
C1725 N1724 1.351 . S
C1725 C1726 1.434 . S
C1726 C1717 1.429 . S
C1726 N1723 1.350 . S
C1726 C1725 1.434 . S
C1727 C1728 1.369 . S
C1727 C1729 1.419 1_556 S
C1727 H1731 0.930 . S
C1728 C1727 1.369 . S
C1728 C1737 1.429 . S
C1729 C1727 1.419 1_554 S
C1729 C1730 1.363 . S
C1729 H1732 0.929 . S
C1730 C1729 1.363 . S
C1730 C1736 1.428 . S
H1731 C1727 0.930 . S
H1732 C1729 0.929 . S
S1733 N1734 1.613 . S
S1733 N1735 1.610 1_556 S
N1734 S1733 1.613 . S
N1734 C1737 1.350 . S
N1735 S1733 1.610 1_554 S
N1735 C1736 1.351 . S
C1736 C1730 1.428 . S
C1736 N1735 1.351 . S
C1736 C1737 1.434 1_554 S
C1737 C1728 1.429 . S
C1737 N1734 1.350 . S
C1737 C1736 1.434 1_556 S
C1738 C1739 1.369 . S
C1738 C1740 1.419 . S
C1738 H1742 0.930 . S
C1739 C1738 1.369 . S
C1739 C1748 1.429 . S
C1740 C1738 1.419 . S
C1740 C1741 1.363 . S
C1740 H1743 0.929 . S
C1741 C1740 1.363 . S
C1741 C1747 1.428 . S
H1742 C1738 0.930 . S
H1743 C1740 0.929 . S
S1744 N1745 1.613 . S
S1744 N1746 1.610 . S
N1745 S1744 1.613 . S
N1745 C1748 1.350 . S
N1746 S1744 1.610 . S
N1746 C1747 1.351 . S
C1747 C1741 1.428 . S
C1747 N1746 1.351 . S
C1747 C1748 1.434 . S
C1748 C1739 1.429 . S
C1748 N1745 1.350 . S
C1748 C1747 1.434 . S
C1749 C1750 1.369 . S
C1749 C1751 1.419 . S
C1749 H1753 0.930 . S
C1750 C1749 1.369 . S
C1750 C1759 1.429 . S
C1751 C1749 1.419 . S
C1751 C1752 1.363 . S
C1751 H1754 0.929 . S
C1752 C1751 1.363 . S
C1752 C1758 1.428 . S
H1753 C1749 0.930 . S
H1754 C1751 0.929 . S
S1755 N1756 1.613 . S
S1755 N1757 1.610 . S
N1756 S1755 1.613 . S
N1756 C1759 1.350 . S
N1757 S1755 1.610 . S
N1757 C1758 1.351 . S
C1758 C1752 1.428 . S
C1758 N1757 1.351 . S
C1758 C1759 1.434 . S
C1759 C1750 1.429 . S
C1759 N1756 1.350 . S
C1759 C1758 1.434 . S
C1760 C1761 1.369 . S
C1760 C1762 1.419 . S
C1760 H1764 0.930 . S
C1761 C1760 1.369 . S
C1761 C1770 1.429 1_655 S
C1762 C1760 1.419 . S
C1762 C1763 1.363 1_655 S
C1762 H1765 0.929 . S
C1763 C1762 1.363 1_455 S
C1763 C1769 1.428 . S
H1764 C1760 0.930 . S
H1765 C1762 0.929 . S
S1766 N1767 1.613 . S
S1766 N1768 1.610 . S
N1767 S1766 1.613 . S
N1767 C1770 1.350 . S
N1768 S1766 1.610 . S
N1768 C1769 1.351 . S
C1769 C1763 1.428 . S
C1769 N1768 1.351 . S
C1769 C1770 1.434 . S
C1770 C1761 1.429 1_455 S
C1770 N1767 1.350 . S
C1770 C1769 1.434 . S
C1771 C1772 1.369 . S
C1771 C1773 1.419 1_655 S
C1771 H1775 0.930 . S
C1772 C1771 1.369 . S
C1772 C1781 1.429 . S
C1773 C1771 1.419 1_455 S
C1773 C1774 1.363 . S
C1773 H1776 0.929 . S
C1774 C1773 1.363 . S
C1774 C1780 1.428 . S
H1775 C1771 0.930 . S
H1776 C1773 0.929 . S
S1777 N1778 1.613 1_455 S
S1777 N1779 1.610 . S
N1778 S1777 1.613 1_655 S
N1778 C1781 1.350 . S
N1779 S1777 1.610 . S
N1779 C1780 1.351 . S
C1780 C1774 1.428 . S
C1780 N1779 1.351 . S
C1780 C1781 1.434 1_455 S
C1781 C1772 1.429 . S
C1781 N1778 1.350 . S
C1781 C1780 1.434 1_655 S
C1782 C1783 1.369 . S
C1782 C1784 1.419 . S
C1782 H1786 0.930 . S
C1783 C1782 1.369 . S
C1783 C1792 1.429 . S
C1784 C1782 1.419 . S
C1784 C1785 1.363 . S
C1784 H1787 0.929 . S
C1785 C1784 1.363 . S
C1785 C1791 1.428 . S
H1786 C1782 0.930 . S
H1787 C1784 0.929 . S
S1788 N1789 1.613 . S
S1788 N1790 1.610 . S
N1789 S1788 1.613 . S
N1789 C1792 1.350 . S
N1790 S1788 1.610 . S
N1790 C1791 1.351 . S
C1791 C1785 1.428 . S
C1791 N1790 1.351 . S
C1791 C1792 1.434 . S
C1792 C1783 1.429 . S
C1792 N1789 1.350 . S
C1792 C1791 1.434 . S
C1793 C1794 1.369 . S
C1793 C1795 1.419 . S
C1793 H1797 0.930 . S
C1794 C1793 1.369 . S
C1794 C1803 1.429 . S
C1795 C1793 1.419 . S
C1795 C1796 1.363 . S
C1795 H1798 0.929 . S
C1796 C1795 1.363 . S
C1796 C1802 1.428 . S
H1797 C1793 0.930 . S
H1798 C1795 0.929 . S
S1799 N1800 1.613 . S
S1799 N1801 1.610 . S
N1800 S1799 1.613 . S
N1800 C1803 1.350 . S
N1801 S1799 1.610 . S
N1801 C1802 1.351 . S
C1802 C1796 1.428 . S
C1802 N1801 1.351 . S
C1802 C1803 1.434 . S
C1803 C1794 1.429 . S
C1803 N1800 1.350 . S
C1803 C1802 1.434 . S
C1804 C1805 1.369 . S
C1804 C1806 1.419 . S
C1804 H1808 0.930 . S
C1805 C1804 1.369 . S
C1805 C1814 1.429 1_455 S
C1806 C1804 1.419 . S
C1806 C1807 1.363 1_455 S
C1806 H1809 0.929 . S
C1807 C1806 1.363 1_655 S
C1807 C1813 1.428 . S
H1808 C1804 0.930 . S
H1809 C1806 0.929 . S
S1810 N1811 1.613 . S
S1810 N1812 1.610 . S
N1811 S1810 1.613 . S
N1811 C1814 1.350 . S
N1812 S1810 1.610 . S
N1812 C1813 1.351 . S
C1813 C1807 1.428 . S
C1813 N1812 1.351 . S
C1813 C1814 1.434 . S
C1814 C1805 1.429 1_655 S
C1814 N1811 1.350 . S
C1814 C1813 1.434 . S
C1815 C1816 1.369 . S
C1815 C1817 1.419 . S
C1815 H1819 0.930 . S
C1816 C1815 1.369 . S
C1816 C1825 1.429 . S
C1817 C1815 1.419 . S
C1817 C1818 1.363 . S
C1817 H1820 0.929 . S
C1818 C1817 1.363 . S
C1818 C1824 1.428 . S
H1819 C1815 0.930 . S
H1820 C1817 0.929 . S
S1821 N1822 1.613 . S
S1821 N1823 1.610 . S
N1822 S1821 1.613 . S
N1822 C1825 1.350 . S
N1823 S1821 1.610 . S
N1823 C1824 1.351 . S
C1824 C1818 1.428 . S
C1824 N1823 1.351 . S
C1824 C1825 1.434 . S
C1825 C1816 1.429 . S
C1825 N1822 1.350 . S
C1825 C1824 1.434 . S
C1826 C1827 1.369 . S
C1826 C1828 1.419 . S
C1826 H1830 0.930 . S
C1827 C1826 1.369 . S
C1827 C1836 1.429 . S
C1828 C1826 1.419 . S
C1828 C1829 1.363 . S
C1828 H1831 0.929 . S
C1829 C1828 1.363 . S
C1829 C1835 1.428 . S
H1830 C1826 0.930 . S
H1831 C1828 0.929 . S
S1832 N1833 1.613 . S
S1832 N1834 1.610 . S
N1833 S1832 1.613 . S
N1833 C1836 1.350 . S
N1834 S1832 1.610 . S
N1834 C1835 1.351 . S
C1835 C1829 1.428 . S
C1835 N1834 1.351 . S
C1835 C1836 1.434 . S
C1836 C1827 1.429 . S
C1836 N1833 1.350 . S
C1836 C1835 1.434 . S
C1837 C1838 1.369 . S
C1837 C1839 1.419 1_455 S
C1837 H1841 0.930 . S
C1838 C1837 1.369 . S
C1838 C1847 1.429 . S
C1839 C1837 1.419 1_655 S
C1839 C1840 1.363 . S
C1839 H1842 0.929 . S
C1840 C1839 1.363 . S
C1840 C1846 1.428 . S
H1841 C1837 0.930 . S
H1842 C1839 0.929 . S
S1843 N1844 1.613 1_655 S
S1843 N1845 1.610 . S
N1844 S1843 1.613 1_455 S
N1844 C1847 1.350 . S
N1845 S1843 1.610 . S
N1845 C1846 1.351 . S
C1846 C1840 1.428 . S
C1846 N1845 1.351 . S
C1846 C1847 1.434 1_655 S
C1847 C1838 1.429 . S
C1847 N1844 1.350 . S
C1847 C1846 1.434 1_455 S
C1848 C1849 1.369 . S
C1848 C1850 1.419 . S
C1848 H1852 0.930 . S
C1849 C1848 1.369 . S
C1849 C1858 1.429 1_455 S
C1850 C1848 1.419 . S
C1850 C1851 1.363 1_455 S
C1850 H1853 0.929 . S
C1851 C1850 1.363 1_655 S
C1851 C1857 1.428 . S
H1852 C1848 0.930 . S
H1853 C1850 0.929 . S
S1854 N1855 1.613 . S
S1854 N1856 1.610 . S
N1855 S1854 1.613 . S
N1855 C1858 1.350 . S
N1856 S1854 1.610 . S
N1856 C1857 1.351 . S
C1857 C1851 1.428 . S
C1857 N1856 1.351 . S
C1857 C1858 1.434 . S
C1858 C1849 1.429 1_655 S
C1858 N1855 1.350 . S
C1858 C1857 1.434 . S
C1859 C1860 1.369 . S
C1859 C1861 1.419 1_455 S
C1859 H1863 0.930 . S
C1860 C1859 1.369 . S
C1860 C1869 1.429 . S
C1861 C1859 1.419 1_655 S
C1861 C1862 1.363 . S
C1861 H1864 0.929 . S
C1862 C1861 1.363 . S
C1862 C1868 1.428 . S
H1863 C1859 0.930 . S
H1864 C1861 0.929 . S
S1865 N1866 1.613 . S
S1865 N1867 1.610 1_455 S
N1866 S1865 1.613 . S
N1866 C1869 1.350 . S
N1867 S1865 1.610 1_655 S
N1867 C1868 1.351 . S
C1868 C1862 1.428 . S
C1868 N1867 1.351 . S
C1868 C1869 1.434 1_655 S
C1869 C1860 1.429 . S
C1869 N1866 1.350 . S
C1869 C1868 1.434 1_455 S
C1870 C1871 1.369 . S
C1870 C1872 1.419 . S
C1870 H1874 0.930 . S
C1871 C1870 1.369 . S
C1871 C1880 1.429 . S
C1872 C1870 1.419 . S
C1872 C1873 1.363 . S
C1872 H1875 0.929 . S
C1873 C1872 1.363 . S
C1873 C1879 1.428 . S
H1874 C1870 0.930 . S
H1875 C1872 0.929 . S
S1876 N1877 1.613 . S
S1876 N1878 1.610 . S
N1877 S1876 1.613 . S
N1877 C1880 1.350 . S
N1878 S1876 1.610 . S
N1878 C1879 1.351 . S
C1879 C1873 1.428 . S
C1879 N1878 1.351 . S
C1879 C1880 1.434 . S
C1880 C1871 1.429 . S
C1880 N1877 1.350 . S
C1880 C1879 1.434 . S
C1881 C1882 1.369 . S
C1881 C1883 1.419 . S
C1881 H1885 0.930 . S
C1882 C1881 1.369 . S
C1882 C1891 1.429 . S
C1883 C1881 1.419 . S
C1883 C1884 1.363 . S
C1883 H1886 0.929 . S
C1884 C1883 1.363 . S
C1884 C1890 1.428 . S
H1885 C1881 0.930 . S
H1886 C1883 0.929 . S
S1887 N1888 1.613 . S
S1887 N1889 1.610 . S
N1888 S1887 1.613 . S
N1888 C1891 1.350 . S
N1889 S1887 1.610 . S
N1889 C1890 1.351 . S
C1890 C1884 1.428 . S
C1890 N1889 1.351 . S
C1890 C1891 1.434 . S
C1891 C1882 1.429 . S
C1891 N1888 1.350 . S
C1891 C1890 1.434 . S
C1892 C1893 1.369 . S
C1892 C1894 1.419 1_455 S
C1892 H1896 0.930 . S
C1893 C1892 1.369 . S
C1893 C1902 1.429 . S
C1894 C1892 1.419 1_655 S
C1894 C1895 1.363 . S
C1894 H1897 0.929 . S
C1895 C1894 1.363 . S
C1895 C1901 1.428 . S
H1896 C1892 0.930 . S
H1897 C1894 0.929 . S
S1898 N1899 1.613 1_655 S
S1898 N1900 1.610 . S
N1899 S1898 1.613 1_455 S
N1899 C1902 1.350 . S
N1900 S1898 1.610 . S
N1900 C1901 1.351 . S
C1901 C1895 1.428 . S
C1901 N1900 1.351 . S
C1901 C1902 1.434 1_655 S
C1902 C1893 1.429 . S
C1902 N1899 1.350 . S
C1902 C1901 1.434 1_455 S
C1903 C1904 1.369 . S
C1903 C1905 1.419 . S
C1903 H1907 0.930 . S
C1904 C1903 1.369 . S
C1904 C1913 1.429 . S
C1905 C1903 1.419 . S
C1905 C1906 1.363 . S
C1905 H1908 0.929 . S
C1906 C1905 1.363 . S
C1906 C1912 1.428 . S
H1907 C1903 0.930 . S
H1908 C1905 0.929 . S
S1909 N1910 1.613 . S
S1909 N1911 1.610 . S
N1910 S1909 1.613 . S
N1910 C1913 1.350 . S
N1911 S1909 1.610 . S
N1911 C1912 1.351 . S
C1912 C1906 1.428 . S
C1912 N1911 1.351 . S
C1912 C1913 1.434 . S
C1913 C1904 1.429 . S
C1913 N1910 1.350 . S
C1913 C1912 1.434 . S
C1914 C1915 1.369 . S
C1914 C1916 1.419 . S
C1914 H1918 0.930 . S
C1915 C1914 1.369 . S
C1915 C1924 1.429 . S
C1916 C1914 1.419 . S
C1916 C1917 1.363 . S
C1916 H1919 0.929 . S
C1917 C1916 1.363 . S
C1917 C1923 1.428 . S
H1918 C1914 0.930 . S
H1919 C1916 0.929 . S
S1920 N1921 1.613 . S
S1920 N1922 1.610 . S
N1921 S1920 1.613 . S
N1921 C1924 1.350 . S
N1922 S1920 1.610 . S
N1922 C1923 1.351 . S
C1923 C1917 1.428 . S
C1923 N1922 1.351 . S
C1923 C1924 1.434 . S
C1924 C1915 1.429 . S
C1924 N1921 1.350 . S
C1924 C1923 1.434 . S
C1925 C1926 1.369 . S
C1925 C1927 1.419 1_655 S
C1925 H1929 0.930 . S
C1926 C1925 1.369 . S
C1926 C1935 1.429 . S
C1927 C1925 1.419 1_455 S
C1927 C1928 1.363 . S
C1927 H1930 0.929 . S
C1928 C1927 1.363 . S
C1928 C1934 1.428 . S
H1929 C1925 0.930 . S
H1930 C1927 0.929 . S
S1931 N1932 1.613 1_455 S
S1931 N1933 1.610 . S
N1932 S1931 1.613 1_655 S
N1932 C1935 1.350 . S
N1933 S1931 1.610 . S
N1933 C1934 1.351 . S
C1934 C1928 1.428 . S
C1934 N1933 1.351 . S
C1934 C1935 1.434 1_455 S
C1935 C1926 1.429 . S
C1935 N1932 1.350 . S
C1935 C1934 1.434 1_655 S
C1057 C899 1.281 . S
C1059 C28 1.261 . S
C1068 C272 1.281 . S
C1070 C61 1.261 . S
C1079 C833 1.288 . S
C1081 C94 1.268 . S
C1090 C127 1.270 . S
C1092 C338 1.288 . S
C1101 C965 1.287 . S
C1103 C160 1.266 . S
C1112 C470 1.286 . S
C1114 C193 1.266 . S
C1123 C226 1.270 . S
C1125 C1031 1.288 . S
C1134 C259 1.260 . S
C1136 C404 1.282 . S
C1145 C635 1.281 . S
C1147 C292 1.262 . S
C1156 C8 1.288 . S
C1158 C325 1.267 . S
C1167 C358 1.270 . S
C1169 C569 1.289 . S
C1178 C391 1.266 . S
C1180 C74 1.286 . S
C1189 C424 1.260 . S
C1191 C701 1.282 . S
C1200 C457 1.259 . S
C1202 C206 1.282 . S
C1211 C767 1.283 . S
C1213 C490 1.263 . S
C1222 C140 1.290 . S
C1224 C523 1.269 . S
C1233 C371 1.285 . S
C1235 C556 1.264 . S
C1244 C589 1.260 . S
C1246 C800 1.282 . S
C1255 C305 1.288 . S
C1257 C622 1.268 . S
C1266 C655 1.270 . S
C1268 C866 1.288 . S
C1277 C437 1.290 . S
C1279 C688 1.269 . S
C1288 C998 1.290 . S
C1290 C721 1.269 . S
C1299 C503 1.281 . S
C1301 C754 1.261 . S
C1310 C787 1.265 . S
C1312 C932 1.286 . S
C1321 C820 1.267 . S
C1323 C107 1.287 . S
C1332 C536 1.286 . S
C1334 C853 1.265 . S
C1343 C41 1.282 . S
C1345 C886 1.261 . S
C1354 C919 1.260 . S
C1356 C602 1.283 . S
C1365 C952 1.264 . S
C1367 C173 1.285 . S
C1376 C985 1.259 . S
C1378 C734 1.282 . S
C1387 C239 1.285 . S
C1389 C1018 1.266 . S
C1398 C1051 1.260 . S
C1400 C668 1.282 . S
C1409 N5 1.558 . S
C1411 N170 1.560 . S
C1420 N203 1.560 . S
C1422 N38 1.558 . S
C1431 N236 1.560 . S
C1433 N71 1.559 . S
C1442 N104 1.559 . S
C1444 N137 1.559 . S
C1453 N269 1.560 . S
C1455 N434 1.558 . S
C1464 N302 1.558 . S
C1466 N467 1.560 . S
C1475 N335 1.559 . S
C1477 N500 1.560 . S
C1486 N368 1.559 . S
C1488 N401 1.560 . S
C1497 N698 1.558 . S
C1499 N533 1.559 . S
C1508 N566 1.559 . S
C1510 N731 1.560 . S
C1519 N599 1.558 . S
C1521 N764 1.560 . S
C1530 N665 1.558 . S
C1532 N632 1.560 . S
C1541 N962 1.558 . S
C1543 N797 1.560 . S
C1552 N995 1.560 . S
C1554 N830 1.558 . S
C1563 N1028 1.560 . S
C1565 N863 1.558 . S
C1574 N929 1.561 . S
C1576 N896 1.558 . S
C1585 C17 1.364 . S
C1587 C149 1.366 . S
C1596 C50 1.365 . S
C1598 C182 1.365 . S
C1607 C215 1.365 . S
C1609 C83 1.365 . S
C1618 C248 1.365 . S
C1620 C116 1.365 . S
C1629 C281 1.366 . S
C1631 C413 1.364 . S
C1640 C446 1.365 . S
C1642 C314 1.365 . S
C1651 C347 1.366 . S
C1653 C479 1.365 . S
C1662 C512 1.366 . S
C1664 C380 1.365 . S
C1673 C545 1.364 . S
C1675 C677 1.366 . S
C1684 C578 1.366 . S
C1686 C710 1.365 . S
C1695 C611 1.364 . S
C1697 C743 1.366 . S
C1706 C644 1.365 . S
C1708 C776 1.365 . S
C1717 C941 1.364 . S
C1719 C809 1.366 . S
C1728 C842 1.365 . S
C1730 C974 1.365 . S
C1739 C875 1.366 . S
C1741 C1007 1.365 . S
C1750 C908 1.366 . S
C1752 C1040 1.365 . S
C1761 N14 1.145 . S
C1763 N608 1.156 . S
C1772 N641 1.157 . S
C1774 N47 1.148 . S
C1783 N80 1.156 . S
C1785 N542 1.148 . S
C1794 N113 1.154 . S
C1796 N575 1.150 . S
C1805 N740 1.152 . S
C1807 N146 1.151 . S
C1816 N773 1.152 . S
C1818 N179 1.151 . S
C1827 N212 1.151 . S
C1829 N674 1.152 . S
C1838 N245 1.162 . S
C1840 N707 1.143 . S
C1849 N278 1.143 . S
C1851 N872 1.156 . S
C1860 N905 1.150 . S
C1862 N311 1.154 . S
C1871 N806 1.150 . S
C1873 N344 1.154 . S
C1882 N377 1.160 . S
C1884 N839 1.146 . S
C1893 N410 1.155 . S
C1895 N1004 1.150 . S
C1904 N443 1.162 . S
C1906 N1037 1.143 . S
C1915 N476 1.159 . S
C1917 N938 1.147 . S
C1926 N509 1.162 . S
C1928 N971 1.143 . S
