# Generated by pormake.
# Topology wna, (6)-cn, num edge types: 1
# Building blocks:
#     Node 0, Type 0, BuildingBlock: MIFKUJ_clean_sbu_0, # of connection points: 6
#     Node 1, Type 0, BuildingBlock: MIFKUJ_clean_sbu_0, # of connection points: 6
#     Node 2, Type 0, BuildingBlock: MIFKUJ_clean_sbu_0, # of connection points: 6
#     Node 3, Type 0, BuildingBlock: MIFKUJ_clean_sbu_0, # of connection points: 6
#     Node 4, Type 0, BuildingBlock: MIFKUJ_clean_sbu_0, # of connection points: 6
#     Node 5, Type 0, BuildingBlock: MIFKUJ_clean_sbu_0, # of connection points: 6
#     Node 6, Type 0, BuildingBlock: MIFKUJ_clean_sbu_0, # of connection points: 6
#     Node 7, Type 0, BuildingBlock: MIFKUJ_clean_sbu_0, # of connection points: 6
#     Node 8, Type 0, BuildingBlock: MIFKUJ_clean_sbu_0, # of connection points: 6
#     Node 9, Type 0, BuildingBlock: MIFKUJ_clean_sbu_0, # of connection points: 6
#     Node 10, Type 0, BuildingBlock: MIFKUJ_clean_sbu_0, # of connection points: 6
#     Node 11, Type 0, BuildingBlock: MIFKUJ_clean_sbu_0, # of connection points: 6
#     Node 12, Type 0, BuildingBlock: MIFKUJ_clean_sbu_0, # of connection points: 6
#     Node 13, Type 0, BuildingBlock: MIFKUJ_clean_sbu_0, # of connection points: 6
#     Node 14, Type 0, BuildingBlock: MIFKUJ_clean_sbu_0, # of connection points: 6
#     Node 15, Type 0, BuildingBlock: MIFKUJ_clean_sbu_0, # of connection points: 6
#     Node 16, Type 0, BuildingBlock: MIFKUJ_clean_sbu_0, # of connection points: 6
#     Node 17, Type 0, BuildingBlock: MIFKUJ_clean_sbu_0, # of connection points: 6
#     Node 18, Type 0, BuildingBlock: MIFKUJ_clean_sbu_0, # of connection points: 6
#     Node 19, Type 0, BuildingBlock: MIFKUJ_clean_sbu_0, # of connection points: 6
#     Node 20, Type 0, BuildingBlock: MIFKUJ_clean_sbu_0, # of connection points: 6
#     Node 21, Type 0, BuildingBlock: MIFKUJ_clean_sbu_0, # of connection points: 6
#     Node 22, Type 0, BuildingBlock: MIFKUJ_clean_sbu_0, # of connection points: 6
#     Node 23, Type 0, BuildingBlock: MIFKUJ_clean_sbu_0, # of connection points: 6
#     Node 24, Type 0, BuildingBlock: MIFKUJ_clean_sbu_0, # of connection points: 6
#     Node 25, Type 0, BuildingBlock: MIFKUJ_clean_sbu_0, # of connection points: 6
#     Node 26, Type 0, BuildingBlock: MIFKUJ_clean_sbu_0, # of connection points: 6
#     Node 27, Type 0, BuildingBlock: MIFKUJ_clean_sbu_0, # of connection points: 6
#     Node 28, Type 0, BuildingBlock: MIFKUJ_clean_sbu_0, # of connection points: 6
#     Node 29, Type 0, BuildingBlock: MIFKUJ_clean_sbu_0, # of connection points: 6
#     Node 30, Type 0, BuildingBlock: MIFKUJ_clean_sbu_0, # of connection points: 6
#     Node 31, Type 0, BuildingBlock: MIFKUJ_clean_sbu_0, # of connection points: 6
#     Node 32, Type 0, BuildingBlock: MIFKUJ_clean_sbu_0, # of connection points: 6
#     Node 33, Type 0, BuildingBlock: MIFKUJ_clean_sbu_0, # of connection points: 6
#     Node 34, Type 0, BuildingBlock: MIFKUJ_clean_sbu_0, # of connection points: 6
#     Node 35, Type 0, BuildingBlock: MIFKUJ_clean_sbu_0, # of connection points: 6
#     Edge 36, Type (0, 0), BuildingBlock: KIFKEQ_clean_linker_1, # of connection points: 2
#     Edge 37, Type (0, 0), BuildingBlock: KIFKEQ_clean_linker_1, # of connection points: 2
#     Edge 38, Type (0, 0), BuildingBlock: KIFKEQ_clean_linker_1, # of connection points: 2
#     Edge 39, Type (0, 0), BuildingBlock: KIFKEQ_clean_linker_1, # of connection points: 2
#     Edge 40, Type (0, 0), BuildingBlock: KIFKEQ_clean_linker_1, # of connection points: 2
#     Edge 41, Type (0, 0), BuildingBlock: KIFKEQ_clean_linker_1, # of connection points: 2
#     Edge 42, Type (0, 0), BuildingBlock: KIFKEQ_clean_linker_1, # of connection points: 2
#     Edge 43, Type (0, 0), BuildingBlock: KIFKEQ_clean_linker_1, # of connection points: 2
#     Edge 44, Type (0, 0), BuildingBlock: KIFKEQ_clean_linker_1, # of connection points: 2
#     Edge 45, Type (0, 0), BuildingBlock: KIFKEQ_clean_linker_1, # of connection points: 2
#     Edge 46, Type (0, 0), BuildingBlock: KIFKEQ_clean_linker_1, # of connection points: 2
#     Edge 47, Type (0, 0), BuildingBlock: KIFKEQ_clean_linker_1, # of connection points: 2
#     Edge 48, Type (0, 0), BuildingBlock: KIFKEQ_clean_linker_1, # of connection points: 2
#     Edge 49, Type (0, 0), BuildingBlock: KIFKEQ_clean_linker_1, # of connection points: 2
#     Edge 50, Type (0, 0), BuildingBlock: KIFKEQ_clean_linker_1, # of connection points: 2
#     Edge 51, Type (0, 0), BuildingBlock: KIFKEQ_clean_linker_1, # of connection points: 2
#     Edge 52, Type (0, 0), BuildingBlock: KIFKEQ_clean_linker_1, # of connection points: 2
#     Edge 53, Type (0, 0), BuildingBlock: KIFKEQ_clean_linker_1, # of connection points: 2
#     Edge 54, Type (0, 0), BuildingBlock: KIFKEQ_clean_linker_1, # of connection points: 2
#     Edge 55, Type (0, 0), BuildingBlock: KIFKEQ_clean_linker_1, # of connection points: 2
#     Edge 56, Type (0, 0), BuildingBlock: KIFKEQ_clean_linker_1, # of connection points: 2
#     Edge 57, Type (0, 0), BuildingBlock: KIFKEQ_clean_linker_1, # of connection points: 2
#     Edge 58, Type (0, 0), BuildingBlock: KIFKEQ_clean_linker_1, # of connection points: 2
#     Edge 59, Type (0, 0), BuildingBlock: KIFKEQ_clean_linker_1, # of connection points: 2
#     Edge 60, Type (0, 0), BuildingBlock: KIFKEQ_clean_linker_1, # of connection points: 2
#     Edge 61, Type (0, 0), BuildingBlock: KIFKEQ_clean_linker_1, # of connection points: 2
#     Edge 62, Type (0, 0), BuildingBlock: KIFKEQ_clean_linker_1, # of connection points: 2
#     Edge 63, Type (0, 0), BuildingBlock: KIFKEQ_clean_linker_1, # of connection points: 2
#     Edge 64, Type (0, 0), BuildingBlock: KIFKEQ_clean_linker_1, # of connection points: 2
#     Edge 65, Type (0, 0), BuildingBlock: KIFKEQ_clean_linker_1, # of connection points: 2
#     Edge 66, Type (0, 0), BuildingBlock: KIFKEQ_clean_linker_1, # of connection points: 2
#     Edge 67, Type (0, 0), BuildingBlock: KIFKEQ_clean_linker_1, # of connection points: 2
#     Edge 68, Type (0, 0), BuildingBlock: KIFKEQ_clean_linker_1, # of connection points: 2
#     Edge 69, Type (0, 0), BuildingBlock: KIFKEQ_clean_linker_1, # of connection points: 2
#     Edge 70, Type (0, 0), BuildingBlock: KIFKEQ_clean_linker_1, # of connection points: 2
#     Edge 71, Type (0, 0), BuildingBlock: KIFKEQ_clean_linker_1, # of connection points: 2
#     Edge 72, Type (0, 0), BuildingBlock: KIFKEQ_clean_linker_1, # of connection points: 2
#     Edge 73, Type (0, 0), BuildingBlock: KIFKEQ_clean_linker_1, # of connection points: 2
#     Edge 74, Type (0, 0), BuildingBlock: KIFKEQ_clean_linker_1, # of connection points: 2
#     Edge 75, Type (0, 0), BuildingBlock: KIFKEQ_clean_linker_1, # of connection points: 2
#     Edge 76, Type (0, 0), BuildingBlock: KIFKEQ_clean_linker_1, # of connection points: 2
#     Edge 77, Type (0, 0), BuildingBlock: KIFKEQ_clean_linker_1, # of connection points: 2
#     Edge 78, Type (0, 0), BuildingBlock: KIFKEQ_clean_linker_1, # of connection points: 2
#     Edge 79, Type (0, 0), BuildingBlock: KIFKEQ_clean_linker_1, # of connection points: 2
#     Edge 80, Type (0, 0), BuildingBlock: KIFKEQ_clean_linker_1, # of connection points: 2
#     Edge 81, Type (0, 0), BuildingBlock: KIFKEQ_clean_linker_1, # of connection points: 2
#     Edge 82, Type (0, 0), BuildingBlock: KIFKEQ_clean_linker_1, # of connection points: 2
#     Edge 83, Type (0, 0), BuildingBlock: KIFKEQ_clean_linker_1, # of connection points: 2
#     Edge 84, Type (0, 0), BuildingBlock: KIFKEQ_clean_linker_1, # of connection points: 2
#     Edge 85, Type (0, 0), BuildingBlock: KIFKEQ_clean_linker_1, # of connection points: 2
#     Edge 86, Type (0, 0), BuildingBlock: KIFKEQ_clean_linker_1, # of connection points: 2
#     Edge 87, Type (0, 0), BuildingBlock: KIFKEQ_clean_linker_1, # of connection points: 2
#     Edge 88, Type (0, 0), BuildingBlock: KIFKEQ_clean_linker_1, # of connection points: 2
#     Edge 89, Type (0, 0), BuildingBlock: KIFKEQ_clean_linker_1, # of connection points: 2
#     Edge 90, Type (0, 0), BuildingBlock: KIFKEQ_clean_linker_1, # of connection points: 2
#     Edge 91, Type (0, 0), BuildingBlock: KIFKEQ_clean_linker_1, # of connection points: 2
#     Edge 92, Type (0, 0), BuildingBlock: KIFKEQ_clean_linker_1, # of connection points: 2
#     Edge 93, Type (0, 0), BuildingBlock: KIFKEQ_clean_linker_1, # of connection points: 2
#     Edge 94, Type (0, 0), BuildingBlock: KIFKEQ_clean_linker_1, # of connection points: 2
#     Edge 95, Type (0, 0), BuildingBlock: KIFKEQ_clean_linker_1, # of connection points: 2
#     Edge 96, Type (0, 0), BuildingBlock: KIFKEQ_clean_linker_1, # of connection points: 2
#     Edge 97, Type (0, 0), BuildingBlock: KIFKEQ_clean_linker_1, # of connection points: 2
#     Edge 98, Type (0, 0), BuildingBlock: KIFKEQ_clean_linker_1, # of connection points: 2
#     Edge 99, Type (0, 0), BuildingBlock: KIFKEQ_clean_linker_1, # of connection points: 2
#     Edge 100, Type (0, 0), BuildingBlock: KIFKEQ_clean_linker_1, # of connection points: 2
#     Edge 101, Type (0, 0), BuildingBlock: KIFKEQ_clean_linker_1, # of connection points: 2
#     Edge 102, Type (0, 0), BuildingBlock: KIFKEQ_clean_linker_1, # of connection points: 2
#     Edge 103, Type (0, 0), BuildingBlock: KIFKEQ_clean_linker_1, # of connection points: 2
#     Edge 104, Type (0, 0), BuildingBlock: KIFKEQ_clean_linker_1, # of connection points: 2
#     Edge 105, Type (0, 0), BuildingBlock: KIFKEQ_clean_linker_1, # of connection points: 2
#     Edge 106, Type (0, 0), BuildingBlock: KIFKEQ_clean_linker_1, # of connection points: 2
#     Edge 107, Type (0, 0), BuildingBlock: KIFKEQ_clean_linker_1, # of connection points: 2
#     Edge 108, Type (0, 0), BuildingBlock: KIFKEQ_clean_linker_1, # of connection points: 2
#     Edge 109, Type (0, 0), BuildingBlock: KIFKEQ_clean_linker_1, # of connection points: 2
#     Edge 110, Type (0, 0), BuildingBlock: KIFKEQ_clean_linker_1, # of connection points: 2
#     Edge 111, Type (0, 0), BuildingBlock: KIFKEQ_clean_linker_1, # of connection points: 2
#     Edge 112, Type (0, 0), BuildingBlock: KIFKEQ_clean_linker_1, # of connection points: 2
#     Edge 113, Type (0, 0), BuildingBlock: KIFKEQ_clean_linker_1, # of connection points: 2
#     Edge 114, Type (0, 0), BuildingBlock: KIFKEQ_clean_linker_1, # of connection points: 2
#     Edge 115, Type (0, 0), BuildingBlock: KIFKEQ_clean_linker_1, # of connection points: 2
#     Edge 116, Type (0, 0), BuildingBlock: KIFKEQ_clean_linker_1, # of connection points: 2
#     Edge 117, Type (0, 0), BuildingBlock: KIFKEQ_clean_linker_1, # of connection points: 2
#     Edge 118, Type (0, 0), BuildingBlock: KIFKEQ_clean_linker_1, # of connection points: 2
#     Edge 119, Type (0, 0), BuildingBlock: KIFKEQ_clean_linker_1, # of connection points: 2
#     Edge 120, Type (0, 0), BuildingBlock: KIFKEQ_clean_linker_1, # of connection points: 2
#     Edge 121, Type (0, 0), BuildingBlock: KIFKEQ_clean_linker_1, # of connection points: 2
#     Edge 122, Type (0, 0), BuildingBlock: KIFKEQ_clean_linker_1, # of connection points: 2
#     Edge 123, Type (0, 0), BuildingBlock: KIFKEQ_clean_linker_1, # of connection points: 2
#     Edge 124, Type (0, 0), BuildingBlock: KIFKEQ_clean_linker_1, # of connection points: 2
#     Edge 125, Type (0, 0), BuildingBlock: KIFKEQ_clean_linker_1, # of connection points: 2
#     Edge 126, Type (0, 0), BuildingBlock: KIFKEQ_clean_linker_1, # of connection points: 2
#     Edge 127, Type (0, 0), BuildingBlock: KIFKEQ_clean_linker_1, # of connection points: 2
#     Edge 128, Type (0, 0), BuildingBlock: KIFKEQ_clean_linker_1, # of connection points: 2
#     Edge 129, Type (0, 0), BuildingBlock: KIFKEQ_clean_linker_1, # of connection points: 2
#     Edge 130, Type (0, 0), BuildingBlock: KIFKEQ_clean_linker_1, # of connection points: 2
#     Edge 131, Type (0, 0), BuildingBlock: KIFKEQ_clean_linker_1, # of connection points: 2
#     Edge 132, Type (0, 0), BuildingBlock: KIFKEQ_clean_linker_1, # of connection points: 2
#     Edge 133, Type (0, 0), BuildingBlock: KIFKEQ_clean_linker_1, # of connection points: 2
#     Edge 134, Type (0, 0), BuildingBlock: KIFKEQ_clean_linker_1, # of connection points: 2
#     Edge 135, Type (0, 0), BuildingBlock: KIFKEQ_clean_linker_1, # of connection points: 2
#     Edge 136, Type (0, 0), BuildingBlock: KIFKEQ_clean_linker_1, # of connection points: 2
#     Edge 137, Type (0, 0), BuildingBlock: KIFKEQ_clean_linker_1, # of connection points: 2
#     Edge 138, Type (0, 0), BuildingBlock: KIFKEQ_clean_linker_1, # of connection points: 2
#     Edge 139, Type (0, 0), BuildingBlock: KIFKEQ_clean_linker_1, # of connection points: 2
#     Edge 140, Type (0, 0), BuildingBlock: KIFKEQ_clean_linker_1, # of connection points: 2
#     Edge 141, Type (0, 0), BuildingBlock: KIFKEQ_clean_linker_1, # of connection points: 2
#     Edge 142, Type (0, 0), BuildingBlock: KIFKEQ_clean_linker_1, # of connection points: 2
#     Edge 143, Type (0, 0), BuildingBlock: KIFKEQ_clean_linker_1, # of connection points: 2
# Relax obj value: 0.168
# Max RMSD: 0.214
# Mean RMSD: 0.207
data_MOF--net-wna--node1-MIFKUJ_clean_sbu_0--edge1-KIFKEQ_clean_linker_1
_symmetry_space_group_name_H-M    P1
_symmetry_Int_Tables_number       1
_symmetry_cell_setting            triclinic
loop_
_symmetry_equiv_pos_as_xyz
'x, y, z'
_cell_length_a     42.259195
_cell_length_b     42.263191
_cell_length_c     104.84874
_cell_angle_alpha  89.987261
_cell_angle_beta   90.01715
_cell_angle_gamma 120.02101
loop_
_atom_site_label
_atom_site_type_symbol
_atom_site_fract_x
_atom_site_fract_y
_atom_site_fract_z
_atom_type_partial_charge
Zn0 Zn 0.08037 0.23275 0.18326 0.0
Zn1 Zn 0.11036 0.26011 0.15469 0.0
C2 C 0.0037 0.18414 0.17866 0.0
O3 O 0.00041 0.20337 0.18788 0.0
C4 C 0.18416 0.28556 0.15509 0.0
O5 O 0.17076 0.25904 0.14664 0.0
O6 O 0.06926 0.22159 0.20197 0.0
O7 O 0.12161 0.22491 0.17823 0.0
O8 O 0.09944 0.20857 0.1588 0.0
C9 C 0.06198 0.19143 0.20711 0.0
O10 O 0.06469 0.16681 0.20028 0.0
O11 O 0.03538 0.19362 0.17441 0.0
C12 C 0.12484 0.3015 0.13249 0.0
O13 O 0.13162 0.32544 0.1416 0.0
O14 O 0.11399 0.26848 0.13558 0.0
O15 O 0.07591 0.27773 0.16031 0.0
O16 O 0.0861 0.28233 0.18097 0.0
O17 O 0.16222 0.29307 0.16086 0.0
C18 C 0.1158 0.20494 0.16844 0.0
C19 C 0.07531 0.29127 0.17104 0.0
Zn20 Zn 0.77695 0.85476 0.18365 0.0
Zn21 Zn 0.75302 0.86148 0.15499 0.0
C22 C 0.82408 0.82464 0.17871 0.0
O23 O 0.80323 0.80071 0.18735 0.0
C24 C 0.72621 0.90922 0.15774 0.0
O25 O 0.75542 0.9275 0.15061 0.0
O26 O 0.78559 0.85223 0.20256 0.0
O27 O 0.78795 0.90569 0.17941 0.0
O28 O 0.80377 0.90247 0.1596 0.0
C29 C 0.81768 0.86956 0.20722 0.0
O30 O 0.84499 0.89128 0.19976 0.0
O31 O 0.81623 0.84849 0.17495 0.0
C32 C 0.71319 0.83549 0.13253 0.0
O33 O 0.68902 0.81712 0.14145 0.0
O34 O 0.74572 0.85855 0.13587 0.0
O35 O 0.73823 0.80957 0.15986 0.0
O36 O 0.72655 0.81229 0.18011 0.0
O37 O 0.71762 0.8772 0.16144 0.0
C38 C 0.80751 0.92112 0.16962 0.0
C39 C 0.72108 0.79388 0.16998 0.0
Zn40 Zn 0.14675 0.9279 0.18625 0.0
Zn41 Zn 0.14325 0.88428 0.15685 0.0
C42 C 0.17205 0.00222 0.17909 0.0
O43 O 0.19976 0.00771 0.18631 0.0
C44 C 0.09128 0.81046 0.15479 0.0
O45 O 0.07988 0.82572 0.14643 0.0
O46 O 0.146 0.93816 0.20505 0.0
O47 O 0.10055 0.88191 0.18148 0.0
O48 O 0.10499 0.8983 0.16135 0.0
C49 C 0.12926 0.95381 0.20944 0.0
O50 O 0.10921 0.96098 0.20169 0.0
O51 O 0.14653 0.96968 0.17711 0.0
C52 C 0.17146 0.87519 0.13381 0.0
O53 O 0.18813 0.86564 0.14225 0.0
O54 O 0.14973 0.88573 0.13773 0.0
O55 O 0.1948 0.91129 0.16393 0.0
O56 O 0.19479 0.93062 0.18354 0.0
O57 O 0.11988 0.83079 0.16124 0.0
C58 C 0.08552 0.88399 0.17125 0.0
C59 C 0.21129 0.92588 0.17428 0.0
Zn60 Zn 0.22891 0.08147 0.32185 0.0
Zn61 Zn 0.24643 0.09894 0.34984 0.0
C62 C 0.18128 0.00381 0.32621 0.0
O63 O 0.20162 0.00057 0.31742 0.0
C64 C 0.28195 0.17381 0.35095 0.0
O65 O 0.25861 0.16278 0.36047 0.0
O66 O 0.21943 0.07212 0.30295 0.0
O67 O 0.21861 0.12109 0.32711 0.0
O68 O 0.1978 0.09509 0.34582 0.0
C69 C 0.18704 0.05857 0.29865 0.0
O70 O 0.16072 0.05364 0.30651 0.0
O71 O 0.18951 0.03549 0.33009 0.0
C72 C 0.28613 0.10723 0.37217 0.0
O73 O 0.30985 0.11206 0.36319 0.0
O74 O 0.25408 0.0997 0.36891 0.0
O75 O 0.25798 0.06075 0.34352 0.0
O76 O 0.27876 0.08795 0.32517 0.0
O77 O 0.28348 0.14996 0.34398 0.0
C78 C 0.1975 0.11469 0.33662 0.0
C79 C 0.27948 0.06819 0.33413 0.0
Zn80 Zn 0.92643 0.14776 0.31922 0.0
Zn81 Zn 0.90317 0.14485 0.34748 0.0
C82 C 0.00285 0.18079 0.32605 0.0
O83 O 0.00712 0.20416 0.31701 0.0
C84 C 0.82926 0.09781 0.34856 0.0
O85 O 0.84341 0.0837 0.3563 0.0
O86 O 0.94201 0.15194 0.30082 0.0
O87 O 0.88733 0.09689 0.32321 0.0
O88 O 0.91011 0.10206 0.34254 0.0
C89 C 0.94453 0.12766 0.29448 0.0
O90 O 0.93404 0.09565 0.29971 0.0
O91 O 0.97074 0.15636 0.32916 0.0
C92 C 0.89709 0.17442 0.37047 0.0
O93 O 0.89069 0.1933 0.36194 0.0
O94 O 0.90429 0.15012 0.36665 0.0
O95 O 0.93676 0.19655 0.34117 0.0
O96 O 0.91443 0.1873 0.32181 0.0
O97 O 0.85064 0.12761 0.34288 0.0
C98 C 0.89228 0.08224 0.33304 0.0
C99 C 0.92997 0.20871 0.33109 0.0
Zn100 Zn 0.85219 0.77365 0.32002 0.0
Zn101 Zn 0.85728 0.7566 0.34837 0.0
C102 C 0.81963 0.81869 0.32548 0.0
O103 O 0.79592 0.7987 0.31666 0.0
C104 C 0.90493 0.73091 0.34799 0.0
O105 O 0.91875 0.75835 0.35608 0.0
O106 O 0.8497 0.7828 0.30116 0.0
O107 O 0.90363 0.7872 0.32455 0.0
O108 O 0.89872 0.80675 0.34357 0.0
C109 C 0.86668 0.81527 0.29681 0.0
O110 O 0.88761 0.84215 0.30456 0.0
O111 O 0.84384 0.81101 0.3289 0.0
C112 C 0.82989 0.71727 0.37082 0.0
O113 O 0.81193 0.69307 0.36186 0.0
O114 O 0.85292 0.74985 0.36753 0.0
O115 O 0.80588 0.74076 0.34271 0.0
O116 O 0.81126 0.72263 0.32368 0.0
O117 O 0.87459 0.72216 0.34264 0.0
C118 C 0.91828 0.8085 0.33403 0.0
C119 C 0.79154 0.71983 0.3332 0.0
Zn120 Zn 0.89562 0.74979 0.85139 0.0
Zn121 Zn 0.93111 0.77913 0.82182 0.0
C122 C 0.82909 0.69952 0.83559 0.0
O123 O 0.84848 0.70868 0.82506 0.0
C124 C 0.007 0.82817 0.8272 0.0
O125 O 0.01129 0.80748 0.81883 0.0
O126 O 0.89237 0.74299 0.87061 0.0
O127 O 0.93065 0.73292 0.84624 0.0
O128 O 0.92837 0.73106 0.82519 0.0
C129 C 0.88188 0.70998 0.87365 0.0
O130 O 0.87556 0.68631 0.8645 0.0
O131 O 0.84432 0.71327 0.84618 0.0
C132 C 0.95605 0.82022 0.79807 0.0
O133 O 0.96213 0.84778 0.80548 0.0
O134 O 0.94164 0.78829 0.80285 0.0
O135 O 0.88841 0.7858 0.82621 0.0
O136 O 0.9035 0.79974 0.84645 0.0
O137 O 0.97487 0.81975 0.83058 0.0
C138 C 0.93484 0.72061 0.83572 0.0
C139 C 0.88944 0.80343 0.83619 0.0
Zn140 Zn 0.25374 0.14485 0.84955 0.0
Zn141 Zn 0.2153 0.15681 0.8206 0.0
C142 C 0.26948 0.08851 0.84925 0.0
O143 O 0.24309 0.0771 0.85772 0.0
C144 C 0.16328 0.17904 0.82594 0.0
O145 O 0.18435 0.2054 0.81804 0.0
O146 O 0.26013 0.14877 0.86866 0.0
O147 O 0.28075 0.19656 0.84338 0.0
O148 O 0.26065 0.20373 0.82474 0.0
C149 C 0.2933 0.16771 0.8722 0.0
O150 O 0.31893 0.18216 0.86344 0.0
O151 O 0.28006 0.11899 0.84376 0.0
C152 C 0.17986 0.13461 0.79577 0.0
O153 O 0.15739 0.104 0.80165 0.0
O154 O 0.20686 0.15961 0.80183 0.0
O155 O 0.21271 0.10893 0.82446 0.0
O156 O 0.2009 0.11163 0.84473 0.0
O157 O 0.1723 0.1556 0.82909 0.0
C158 C 0.28285 0.21646 0.83401 0.0
C159 C 0.19641 0.09293 0.83469 0.0
Zn160 Zn 0.8431 0.10295 0.8497 0.0
Zn161 Zn 0.83436 0.06656 0.82033 0.0
C162 C 0.89556 0.17594 0.84929 0.0
O163 O 0.90922 0.16073 0.85674 0.0
C164 C 0.81121 0.99081 0.8251 0.0
O165 O 0.7878 0.98566 0.81597 0.0
O166 O 0.84187 0.10521 0.86893 0.0
O167 O 0.79012 0.07229 0.84473 0.0
O168 O 0.7893 0.06979 0.82366 0.0
C169 C 0.8207 0.11617 0.87309 0.0
O170 O 0.80204 0.12378 0.86484 0.0
O171 O 0.86426 0.15572 0.84432 0.0
C172 C 0.85797 0.05365 0.79556 0.0
O173 O 0.88876 0.06278 0.8015 0.0
O174 O 0.83248 0.05495 0.80155 0.0
O175 O 0.88336 0.10954 0.82459 0.0
O176 O 0.88004 0.08873 0.84409 0.0
O177 O 0.83214 0.02306 0.82917 0.0
C178 C 0.77314 0.06606 0.83422 0.0
C179 C 0.89894 0.10538 0.83431 0.0
Zn180 Zn 0.74786 0.89369 0.65416 0.0
Zn181 Zn 0.7728 0.92268 0.68246 0.0
C182 C 0.69624 0.82658 0.66996 0.0
O183 O 0.70851 0.84434 0.68074 0.0
C184 C 0.81947 0.99864 0.67604 0.0
O185 O 0.79925 0.00328 0.68451 0.0
O186 O 0.74084 0.89054 0.63503 0.0
O187 O 0.73699 0.93347 0.65933 0.0
O188 O 0.72264 0.91512 0.67909 0.0
C189 C 0.70883 0.88326 0.6318 0.0
O190 O 0.6858 0.88028 0.64078 0.0
O191 O 0.70851 0.84301 0.6594 0.0
C192 C 0.81109 0.94337 0.70703 0.0
O193 O 0.83581 0.93838 0.70123 0.0
O194 O 0.78229 0.93692 0.70105 0.0
O195 O 0.78339 0.88219 0.6789 0.0
O196 O 0.79633 0.8972 0.65861 0.0
O197 O 0.81146 0.96637 0.67302 0.0
C198 C 0.71864 0.93026 0.66929 0.0
C199 C 0.80049 0.88314 0.66878 0.0
Zn200 Zn 0.09894 0.85312 0.65476 0.0
Zn201 Zn 0.07487 0.84934 0.68356 0.0
C202 C 0.1726 0.89977 0.65556 0.0
O203 O 0.15973 0.91405 0.64736 0.0
C204 C 0.99723 0.81812 0.67881 0.0
O205 O 0.99412 0.79499 0.68777 0.0
O206 O 0.10199 0.84938 0.63552 0.0
O207 O 0.06247 0.8019 0.66046 0.0
O208 O 0.08346 0.8075 0.67997 0.0
C209 C 0.11067 0.82607 0.63176 0.0
O210 O 0.11565 0.8063 0.64033 0.0
O211 O 0.15034 0.86953 0.66083 0.0
C212 C 0.05 0.86529 0.70716 0.0
O213 O 0.04352 0.88613 0.69956 0.0
O214 O 0.06476 0.84791 0.70256 0.0
O215 O 0.11383 0.89996 0.6787 0.0
O216 O 0.09074 0.89506 0.65943 0.0
O217 O 0.0289 0.84178 0.67497 0.0
C218 C 0.06723 0.78764 0.67039 0.0
C219 C 0.10817 0.91465 0.66901 0.0
Zn220 Zn 0.14509 0.24588 0.6542 0.0
Zn221 Zn 0.14646 0.22407 0.68222 0.0
C222 C 0.09954 0.27394 0.65468 0.0
O223 O 0.08562 0.24726 0.64629 0.0
C224 C 0.17692 0.17743 0.67731 0.0
O225 O 0.19978 0.19695 0.68641 0.0
O226 O 0.15012 0.25449 0.63517 0.0
O227 O 0.19624 0.26049 0.65997 0.0
O228 O 0.18879 0.27435 0.67944 0.0
C229 C 0.17362 0.28712 0.6321 0.0
O230 O 0.19232 0.31048 0.64119 0.0
O231 O 0.12897 0.28093 0.66036 0.0
C232 C 0.12472 0.18555 0.70667 0.0
O233 O 0.09557 0.16125 0.70049 0.0
O234 O 0.14818 0.21428 0.70092 0.0
O235 O 0.09624 0.21344 0.67744 0.0
O236 O 0.10219 0.19553 0.65828 0.0
O237 O 0.1537 0.18594 0.6734 0.0
C238 C 0.20965 0.27861 0.67013 0.0
C239 C 0.08202 0.19321 0.6677 0.0
Zn240 Zn 0.73905 0.56801 0.51321 0.0
Zn241 Zn 0.76712 0.59216 0.48492 0.0
C242 C 0.66133 0.51834 0.50971 0.0
O243 O 0.65849 0.53653 0.51938 0.0
C244 C 0.8405 0.6165 0.48693 0.0
O245 O 0.82781 0.58974 0.47857 0.0
O246 O 0.72952 0.55947 0.53213 0.0
O247 O 0.77762 0.55579 0.50815 0.0
O248 O 0.75505 0.54039 0.48872 0.0
C249 C 0.72239 0.52976 0.53759 0.0
O250 O 0.72368 0.50409 0.53093 0.0
O251 O 0.69267 0.52891 0.50491 0.0
C252 C 0.7844 0.63459 0.46282 0.0
O253 O 0.79022 0.65843 0.47186 0.0
O254 O 0.77314 0.60152 0.46593 0.0
O255 O 0.73085 0.60772 0.48998 0.0
O256 O 0.7471 0.61869 0.51009 0.0
O257 O 0.81826 0.62495 0.49194 0.0
C258 C 0.77054 0.53551 0.49835 0.0
C259 C 0.73327 0.62455 0.50026 0.0
Zn260 Zn 0.45831 0.19785 0.51589 0.0
Zn261 Zn 0.40984 0.19258 0.48584 0.0
C262 C 0.5152 0.19578 0.49987 0.0
O263 O 0.48881 0.17123 0.49271 0.0
C264 C 0.36166 0.2081 0.50184 0.0
O265 O 0.37339 0.19785 0.51174 0.0
O266 O 0.46472 0.19886 0.53501 0.0
O267 O 0.44972 0.23826 0.51008 0.0
O268 O 0.45986 0.23669 0.48954 0.0
C269 C 0.47367 0.17576 0.53878 0.0
O270 O 0.4767 0.1546 0.53027 0.0
O271 O 0.50743 0.2094 0.50932 0.0
C272 C 0.36984 0.15944 0.46389 0.0
O273 O 0.34609 0.1424 0.47306 0.0
O274 O 0.40215 0.18397 0.46688 0.0
O275 O 0.39432 0.14316 0.49333 0.0
O276 O 0.42049 0.14611 0.51191 0.0
O277 O 0.37317 0.20719 0.49075 0.0
C278 C 0.46625 0.25456 0.49992 0.0
C279 C 0.39831 0.12774 0.50309 0.0
Zn280 Zn 0.81749 0.26378 0.51577 0.0
Zn281 Zn 0.82277 0.2178 0.48492 0.0
C282 C 0.82098 0.32599 0.501 0.0
O283 O 0.83619 0.31794 0.49157 0.0
C284 C 0.79436 0.14878 0.50014 0.0
O285 O 0.81157 0.1682 0.51023 0.0
O286 O 0.81234 0.26061 0.53503 0.0
O287 O 0.77786 0.21967 0.50694 0.0
O288 O 0.7854 0.23365 0.48659 0.0
C289 C 0.7913 0.26995 0.54044 0.0
O290 O 0.76994 0.27698 0.53334 0.0
O291 O 0.81222 0.30712 0.51116 0.0
C292 C 0.85694 0.20766 0.46329 0.0
O293 O 0.87162 0.19777 0.47237 0.0
O294 O 0.8348 0.21854 0.46631 0.0
O295 O 0.871 0.24746 0.49399 0.0
O296 O 0.86833 0.27448 0.51184 0.0
O297 O 0.79707 0.16467 0.48958 0.0
C298 C 0.7668 0.22726 0.49675 0.0
C299 C 0.88627 0.26754 0.50367 0.0
Zn300 Zn 0.88343 0.39242 0.65405 0.0
Zn301 Zn 0.92771 0.44242 0.68294 0.0
C302 C 0.83367 0.31946 0.66242 0.0
O303 O 0.85486 0.31236 0.65525 0.0
C304 C 0.94469 0.51573 0.68203 0.0
O305 O 0.91447 0.50104 0.68879 0.0
O306 O 0.87139 0.37936 0.63538 0.0
O307 O 0.88444 0.43936 0.65776 0.0
O308 O 0.87503 0.42672 0.67826 0.0
C309 C 0.83868 0.36249 0.63126 0.0
O310 O 0.81181 0.35555 0.63914 0.0
O311 O 0.84181 0.3525 0.66395 0.0
C312 C 0.96598 0.45275 0.70579 0.0
O313 O 0.99184 0.46242 0.69719 0.0
O314 O 0.93347 0.44194 0.70206 0.0
O315 O 0.95272 0.41616 0.67574 0.0
O316 O 0.92906 0.39096 0.65705 0.0
O317 O 0.95712 0.49559 0.67812 0.0
C318 C 0.87004 0.44072 0.66823 0.0
C319 C 0.95272 0.39914 0.66577 0.0
Zn320 Zn 0.61104 0.49948 0.65314 0.0
Zn321 Zn 0.55506 0.48409 0.68159 0.0
C322 C 0.68502 0.52131 0.65957 0.0
O323 O 0.69151 0.54803 0.65166 0.0
C324 C 0.48248 0.42715 0.68202 0.0
O325 O 0.49758 0.41637 0.69067 0.0
O326 O 0.62459 0.50411 0.63447 0.0
O327 O 0.5656 0.45072 0.6562 0.0
O328 O 0.5761 0.45206 0.67681 0.0
C329 C 0.62237 0.47824 0.62763 0.0
O330 O 0.6087 0.4454 0.63258 0.0
O331 O 0.65211 0.49804 0.66228 0.0
C332 C 0.53981 0.50811 0.70433 0.0
O333 O 0.5277 0.52191 0.69566 0.0
O334 O 0.55385 0.48908 0.7007 0.0
O335 O 0.57854 0.53546 0.67512 0.0
O336 O 0.61056 0.54553 0.65739 0.0
O337 O 0.50242 0.45696 0.67615 0.0
C338 C 0.56396 0.43408 0.66651 0.0
C339 C 0.59793 0.55659 0.66622 0.0
Zn340 Zn 0.50997 0.11407 0.65549 0.0
Zn341 Zn 0.51355 0.06907 0.68454 0.0
C342 C 0.48965 0.16842 0.65961 0.0
O343 O 0.46296 0.14672 0.65192 0.0
C344 C 0.56993 0.05262 0.68177 0.0
O345 O 0.5858 0.08175 0.68907 0.0
O346 O 0.51028 0.12051 0.6364 0.0
O347 O 0.55491 0.11276 0.66067 0.0
O348 O 0.55017 0.12265 0.68099 0.0
C349 C 0.52736 0.15166 0.63105 0.0
O350 O 0.54799 0.18066 0.63802 0.0
O351 O 0.51263 0.15911 0.66312 0.0
C352 C 0.48822 0.02677 0.70671 0.0
O353 O 0.47284 0.00204 0.69771 0.0
O354 O 0.5084 0.06006 0.70351 0.0
O355 O 0.4617 0.04578 0.67789 0.0
O356 O 0.46159 0.07067 0.65931 0.0
O357 O 0.53709 0.04064 0.67822 0.0
C358 C 0.56963 0.1293 0.671 0.0
C359 C 0.44508 0.04718 0.66799 0.0
Zn360 Zn 0.55968 0.08249 0.18287 0.0
Zn361 Zn 0.58267 0.09942 0.1544 0.0
C362 C 0.48551 0.05528 0.183 0.0
O363 O 0.49921 0.08354 0.19074 0.0
C364 C 0.65998 0.14751 0.15714 0.0
O365 O 0.66059 0.12886 0.14721 0.0
O366 O 0.55846 0.07779 0.20207 0.0
O367 O 0.59557 0.06653 0.17752 0.0
O368 O 0.57404 0.04884 0.15823 0.0
C369 C 0.55056 0.0461 0.20592 0.0
O370 O 0.54479 0.02097 0.1974 0.0
O371 O 0.50738 0.0471 0.17753 0.0
C372 C 0.59891 0.13652 0.12994 0.0
O373 O 0.59465 0.16084 0.13635 0.0
O374 O 0.59303 0.10731 0.13549 0.0
O375 O 0.54442 0.11273 0.15888 0.0
O376 O 0.56871 0.13264 0.17786 0.0
O377 O 0.62962 0.13802 0.16257 0.0
C378 C 0.59061 0.0463 0.16792 0.0
C379 C 0.55138 0.13454 0.16821 0.0
Zn380 Zn 0.9079 0.47217 0.18053 0.0
Zn381 Zn 0.88587 0.47277 0.15175 0.0
C382 C 0.9373 0.42671 0.18155 0.0
O383 O 0.91064 0.41277 0.18994 0.0
C384 C 0.84333 0.50742 0.15848 0.0
O385 O 0.86551 0.53303 0.15055 0.0
O386 O 0.91375 0.47792 0.19973 0.0
O387 O 0.92495 0.52338 0.17416 0.0
O388 O 0.93589 0.5161 0.1542 0.0
C389 C 0.94566 0.50182 0.20337 0.0
O390 O 0.97057 0.52036 0.19468 0.0
O391 O 0.943 0.45503 0.17538 0.0
C392 C 0.84255 0.46235 0.12884 0.0
O393 O 0.81571 0.45104 0.13711 0.0
O394 O 0.87449 0.47134 0.13277 0.0
O395 O 0.87717 0.42346 0.15729 0.0
O396 O 0.85746 0.43017 0.17601 0.0
O397 O 0.84848 0.48086 0.16088 0.0
C398 C 0.94197 0.53667 0.16378 0.0
C399 C 0.85633 0.40964 0.16692 0.0
Zn400 Zn 0.52516 0.44713 0.18171 0.0
Zn401 Zn 0.5193 0.41188 0.15279 0.0
C402 C 0.57684 0.52123 0.17934 0.0
O403 O 0.5943 0.50873 0.18617 0.0
C404 C 0.49137 0.33549 0.15793 0.0
O405 O 0.46781 0.33177 0.14905 0.0
O406 O 0.52282 0.4502 0.20088 0.0
O407 O 0.47218 0.41444 0.17653 0.0
O408 O 0.47596 0.41812 0.15557 0.0
C409 C 0.50069 0.46033 0.20472 0.0
O410 O 0.48233 0.4675 0.1962 0.0
O411 O 0.54421 0.49921 0.17581 0.0
C412 C 0.5397 0.39481 0.12789 0.0
O413 O 0.57019 0.40127 0.13349 0.0
O414 O 0.51643 0.39932 0.1341 0.0
O415 O 0.569 0.45352 0.15699 0.0
O416 O 0.5642 0.43448 0.17685 0.0
O417 O 0.51436 0.36741 0.16179 0.0
C418 C 0.45738 0.41135 0.16572 0.0
C419 C 0.5837 0.44956 0.167 0.0
Zn420 Zn 0.4036 0.22611 0.98803 0.0
Zn421 Zn 0.43041 0.26057 0.01642 0.0
C422 C 0.38403 0.15341 0.98956 0.0
O423 O 0.41205 0.16758 0.98172 0.0
C424 C 0.47895 0.33635 0.00983 0.0
O425 O 0.46088 0.34228 0.01882 0.0
O426 O 0.39775 0.22176 0.9689 0.0
O427 O 0.38029 0.25595 0.99296 0.0
O428 O 0.381 0.25497 0.01398 0.0
C429 C 0.36497 0.20961 0.96521 0.0
O430 O 0.3395 0.20175 0.97383 0.0
O431 O 0.37316 0.17412 0.99422 0.0
C432 C 0.47235 0.27977 0.04015 0.0
O433 O 0.495 0.27315 0.03366 0.0
O434 O 0.44305 0.27466 0.03489 0.0
O435 O 0.43762 0.21829 0.01219 0.0
O436 O 0.45584 0.24154 0.993 0.0
O437 O 0.46885 0.30367 0.00665 0.0
C438 C 0.36837 0.25966 0.00363 0.0
C439 C 0.45857 0.22476 0.00265 0.0
Zn440 Zn 0.78621 0.18862 0.98911 0.0
Zn441 Zn 0.73187 0.18243 0.01761 0.0
C442 C 0.85892 0.24429 0.98896 0.0
O443 O 0.84397 0.25513 0.98027 0.0
C444 C 0.65796 0.1636 0.01476 0.0
O445 O 0.65492 0.14092 0.02389 0.0
O446 O 0.78813 0.18224 0.9701 0.0
O447 O 0.75961 0.13714 0.99606 0.0
O448 O 0.72844 0.1349 0.01332 0.0
C449 C 0.80069 0.16185 0.96657 0.0
O450 O 0.81105 0.14664 0.97532 0.0
O451 O 0.83878 0.21447 0.99482 0.0
C452 C 0.71802 0.20271 0.04285 0.0
O453 O 0.72263 0.23235 0.0371 0.0
O454 O 0.72284 0.17967 0.03661 0.0
O455 O 0.77791 0.22923 0.01328 0.0
O456 O 0.76767 0.22392 0.99258 0.0
O457 O 0.68913 0.18402 0.00977 0.0
C458 C 0.73868 0.11948 0.00526 0.0
C459 C 0.7798 0.24385 0.00249 0.0
Zn460 Zn 0.80697 0.57296 0.98621 0.0
Zn461 Zn 0.80934 0.54846 0.01439 0.0
C462 C 0.76381 0.60428 0.98683 0.0
O463 O 0.74953 0.57886 0.97799 0.0
C464 C 0.84341 0.50567 0.00748 0.0
O465 O 0.8689 0.52787 0.01545 0.0
O466 O 0.81295 0.58337 0.9672 0.0
O467 O 0.8576 0.5855 0.99203 0.0
O468 O 0.8515 0.59928 0.01169 0.0
C469 C 0.83631 0.61638 0.96448 0.0
O470 O 0.85424 0.63901 0.97385 0.0
O471 O 0.79187 0.60851 0.99283 0.0
C472 C 0.80023 0.50532 0.03723 0.0
O473 O 0.78781 0.47829 0.02901 0.0
O474 O 0.80957 0.53736 0.03331 0.0
O475 O 0.75937 0.53886 0.00963 0.0
O476 O 0.76331 0.5229 0.98991 0.0
O477 O 0.81704 0.51105 0.00496 0.0
C478 C 0.87162 0.60386 1.0021 0.0
C479 C 0.74406 0.52028 0.99966 0.0
Zn480 Zn 0.39925 0.88389 0.84991 0.0
Zn481 Zn 0.4283 0.9093 0.82177 0.0
C482 C 0.32327 0.8377 0.84372 0.0
O483 O 0.31931 0.85755 0.85253 0.0
C484 C 0.50262 0.93742 0.8246 0.0
O485 O 0.49268 0.90904 0.81712 0.0
O486 O 0.38517 0.87283 0.86846 0.0
O487 O 0.4405 0.87538 0.84593 0.0
O488 O 0.42034 0.85904 0.82627 0.0
C489 C 0.38809 0.84951 0.87525 0.0
O490 O 0.40332 0.8317 0.87039 0.0
O491 O 0.35532 0.84578 0.84034 0.0
C492 C 0.44208 0.94895 0.79917 0.0
O493 O 0.44606 0.97304 0.80787 0.0
O494 O 0.43332 0.91678 0.80271 0.0
O495 O 0.39134 0.92403 0.82693 0.0
O496 O 0.40724 0.93398 0.8471 0.0
O497 O 0.47866 0.94512 0.82837 0.0
C498 C 0.43704 0.85657 0.83602 0.0
C499 C 0.39336 0.94012 0.83737 0.0
Zn500 Zn 0.11903 0.51386 0.85142 0.0
Zn501 Zn 0.07176 0.51601 0.82195 0.0
C502 C 0.16943 0.48984 0.84489 0.0
O503 O 0.14743 0.46243 0.85227 0.0
C504 C 0.03256 0.54641 0.83614 0.0
O505 O 0.04367 0.53787 0.8466 0.0
O506 O 0.12995 0.51639 0.8704 0.0
O507 O 0.11807 0.55938 0.84666 0.0
O508 O 0.12408 0.55545 0.82592 0.0
C509 C 0.16246 0.53016 0.87462 0.0
O510 O 0.18997 0.54509 0.86659 0.0
O511 O 0.16156 0.51456 0.84244 0.0
C512 C 0.03371 0.48449 0.79924 0.0
O513 O 0.00775 0.46846 0.80782 0.0
O514 O 0.06604 0.50684 0.80297 0.0
O515 O 0.04869 0.46615 0.83019 0.0
O516 O 0.07392 0.46555 0.84866 0.0
O517 O 0.04056 0.53866 0.82535 0.0
C518 C 0.13085 0.57467 0.83598 0.0
C519 C 0.04976 0.44946 0.84012 0.0
Zn520 Zn 0.49744 0.60073 0.85133 0.0
Zn521 Zn 0.48758 0.55685 0.82102 0.0
C522 C 0.52165 0.67537 0.84462 0.0
O523 O 0.54863 0.682 0.85242 0.0
C524 C 0.46116 0.48666 0.83451 0.0
O525 O 0.47616 0.50558 0.84492 0.0
O526 O 0.49868 0.61181 0.87022 0.0
O527 O 0.44912 0.55622 0.84704 0.0
O528 O 0.45175 0.57236 0.82689 0.0
C529 C 0.48014 0.62521 0.8749 0.0
O530 O 0.45791 0.63 0.86743 0.0
O531 O 0.49769 0.64248 0.84226 0.0
C532 C 0.51365 0.54827 0.79777 0.0
O533 O 0.52882 0.53656 0.80604 0.0
O534 O 0.49329 0.56028 0.80188 0.0
O535 O 0.53847 0.58032 0.82798 0.0
O536 O 0.54424 0.60125 0.84768 0.0
O537 O 0.46342 0.5031 0.82413 0.0
C538 C 0.4332 0.55777 0.83694 0.0
C539 C 0.5576 0.59468 0.83787 0.0
Zn540 Zn 0.57101 0.74769 0.98874 0.0
Zn541 Zn 0.59691 0.77387 0.01725 0.0
C542 C 0.52309 0.67074 0.99511 0.0
O543 O 0.54206 0.66496 0.98643 0.0
C544 C 0.62918 0.84893 0.01836 0.0
O545 O 0.60552 0.83718 0.02778 0.0
O546 O 0.5596 0.73678 0.96992 0.0
O547 O 0.56321 0.78894 0.99388 0.0
O548 O 0.54638 0.76568 0.01316 0.0
C549 C 0.52712 0.72048 0.96558 0.0
O550 O 0.49983 0.71244 0.9734 0.0
O551 O 0.53235 0.70339 0.99806 0.0
C552 C 0.63646 0.78524 0.03999 0.0
O553 O 0.66122 0.79132 0.03127 0.0
O554 O 0.6041 0.77565 0.0364 0.0
O555 O 0.61294 0.73851 0.01125 0.0
O556 O 0.62088 0.75399 0.99102 0.0
O557 O 0.63167 0.82566 0.01137 0.0
C558 C 0.54331 0.78296 0.0037 0.0
C559 C 0.62833 0.74072 1.00063 0.0
Zn560 Zn 0.26508 0.81594 0.98874 0.0
Zn561 Zn 0.21532 0.81248 0.01762 0.0
C562 C 0.33924 0.83833 0.99458 0.0
O563 O 0.34447 0.86638 0.98761 0.0
C564 C 0.14249 0.75605 0.01549 0.0
O565 O 0.15643 0.74067 0.02271 0.0
O566 O 0.27407 0.81675 0.96982 0.0
O567 O 0.21855 0.77046 0.99347 0.0
O568 O 0.23225 0.77602 0.0139 0.0
C569 C 0.2822 0.79484 0.96441 0.0
O570 O 0.28196 0.76848 0.97113 0.0
O571 O 0.30673 0.8133 0.99694 0.0
C572 C 0.20182 0.83947 0.04025 0.0
O573 O 0.1932 0.85631 0.03157 0.0
O574 O 0.21295 0.81796 0.03664 0.0
O575 O 0.24365 0.86404 0.01082 0.0
O576 O 0.26976 0.86427 0.99249 0.0
O577 O 0.16294 0.78875 0.01173 0.0
C578 C 0.21928 0.75607 0.00402 0.0
C579 C 0.26226 0.88072 1.00104 0.0
Zn580 Zn 0.19563 0.45527 0.99014 0.0
Zn581 Zn 0.19615 0.42848 0.01856 0.0
C582 C 0.16051 0.49638 0.99786 0.0
O583 O 0.1342 0.47343 0.9903 0.0
C584 C 0.20077 0.36427 0.00738 0.0
O585 O 0.16616 0.34685 0.00407 0.0
O586 O 0.19786 0.46763 0.97129 0.0
O587 O 0.24425 0.46234 0.99541 0.0
O588 O 0.23898 0.47922 0.01481 0.0
C589 C 0.20436 0.49878 0.96731 0.0
O590 O 0.21243 0.52514 0.97555 0.0
O591 O 0.18797 0.49228 0.99972 0.0
C592 C 0.16683 0.38709 0.04075 0.0
O593 O 0.14802 0.36363 0.0317 0.0
O594 O 0.19067 0.41955 0.03761 0.0
O595 O 0.14468 0.41193 0.01233 0.0
O596 O 0.15205 0.40549 0.99193 0.0
O597 O 0.21454 0.39537 0.01271 0.0
C598 C 0.25894 0.48151 0.00532 0.0
C599 C 0.13141 0.39751 1.00159 0.0
Zn600 Zn 0.23162 0.41609 0.51868 0.0
Zn601 Zn 0.26411 0.43896 0.48997 0.0
C602 C 0.15896 0.39541 0.51665 0.0
O603 O 0.17247 0.42315 0.52462 0.0
C604 C 0.34081 0.48739 0.49357 0.0
O605 O 0.34257 0.47015 0.48341 0.0
O606 O 0.22594 0.40849 0.53776 0.0
O607 O 0.26335 0.39486 0.51407 0.0
O608 O 0.25464 0.38835 0.49331 0.0
C609 C 0.2123 0.37494 0.54075 0.0
O610 O 0.20372 0.35083 0.53156 0.0
O611 O 0.18022 0.38518 0.51203 0.0
C612 C 0.28191 0.47651 0.46534 0.0
O613 O 0.27801 0.50143 0.47148 0.0
O614 O 0.27558 0.44748 0.47113 0.0
O615 O 0.22518 0.4511 0.49431 0.0
O616 O 0.24632 0.46805 0.51383 0.0
O617 O 0.30998 0.47667 0.49881 0.0
C618 C 0.26262 0.37889 0.50375 0.0
C619 C 0.23053 0.47138 0.50398 0.0
Zn620 Zn 0.57632 0.81199 0.51876 0.0
Zn621 Zn 0.55033 0.81776 0.49023 0.0
C622 C 0.60207 0.7635 0.51535 0.0
O623 O 0.57442 0.74591 0.5232 0.0
C624 C 0.50127 0.84576 0.49501 0.0
O625 O 0.52161 0.86977 0.48632 0.0
O626 O 0.58562 0.81416 0.53775 0.0
O627 O 0.59319 0.86447 0.51412 0.0
O628 O 0.6001 0.86107 0.49346 0.0
C629 C 0.61899 0.83574 0.5406 0.0
O630 O 0.64227 0.85326 0.53136 0.0
O631 O 0.61001 0.79522 0.51152 0.0
C632 C 0.50932 0.80145 0.46658 0.0
O633 O 0.48174 0.78073 0.4741 0.0
O634 O 0.54138 0.81869 0.47126 0.0
O635 O 0.54237 0.76823 0.49488 0.0
O636 O 0.52473 0.77199 0.51434 0.0
O637 O 0.5101 0.82267 0.49886 0.0
C638 C 0.60902 0.87939 0.50373 0.0
C639 C 0.52259 0.75294 0.50461 0.0
Zn640 Zn 0.18192 0.78372 0.51593 0.0
Zn641 Zn 0.17614 0.73271 0.48712 0.0
C642 C 0.23959 0.85544 0.51573 0.0
O643 O 0.25112 0.83913 0.52359 0.0
C644 C 0.15339 0.65925 0.49478 0.0
O645 O 0.12558 0.65211 0.48734 0.0
O646 O 0.17529 0.78472 0.53508 0.0
O647 O 0.13042 0.75769 0.50862 0.0
O648 O 0.12878 0.73085 0.49029 0.0
C649 C 0.15511 0.79759 0.5386 0.0
O650 O 0.14034 0.80832 0.52981 0.0
O651 O 0.20813 0.83676 0.5107 0.0
C652 C 0.19156 0.70369 0.46422 0.0
O653 O 0.21178 0.69718 0.47213 0.0
O654 O 0.17538 0.72023 0.46834 0.0
O655 O 0.22243 0.77918 0.4913 0.0
O656 O 0.21823 0.76651 0.51183 0.0
O657 O 0.17758 0.69234 0.49675 0.0
C658 C 0.11325 0.73968 0.49879 0.0
C659 C 0.23757 0.7791 0.50178 0.0
Zn660 Zn 0.0649 0.55298 0.31828 0.0
Zn661 Zn 0.1134 0.59752 0.3491 0.0
C662 C 0.04292 0.47966 0.31764 0.0
O663 O 0.06699 0.49375 0.30838 0.0
C664 C 0.17298 0.65994 0.33465 0.0
O665 O 0.14897 0.65565 0.32586 0.0
O666 O 0.05401 0.55144 0.29942 0.0
O667 O 0.04664 0.58409 0.32636 0.0
O668 O 0.07452 0.60959 0.34461 0.0
C669 C 0.021 0.54014 0.29623 0.0
O670 O 0.99636 0.53135 0.30523 0.0
O671 O 0.03601 0.50078 0.3242 0.0
C672 C 0.14505 0.60491 0.37405 0.0
O673 O 0.17307 0.60972 0.36715 0.0
O674 O 0.11503 0.59626 0.36846 0.0
O675 O 0.10832 0.55225 0.34095 0.0
O676 O 0.11783 0.56771 0.32071 0.0
O677 O 0.16287 0.63912 0.34433 0.0
C678 C 0.05093 0.60392 0.33605 0.0
C679 C 0.12773 0.55904 0.33096 0.0
Zn680 Zn 0.44696 0.51318 0.3211 0.0
Zn681 Zn 0.39624 0.50908 0.35073 0.0
C682 C 0.51962 0.5675 0.32346 0.0
O683 O 0.50558 0.58351 0.31662 0.0
C684 C 0.33831 0.51113 0.33517 0.0
O685 O 0.34275 0.491 0.3266 0.0
O686 O 0.45008 0.50909 0.30202 0.0
O687 O 0.41581 0.46143 0.32745 0.0
O688 O 0.38489 0.45956 0.34481 0.0
C689 C 0.4616 0.48801 0.29827 0.0
O690 O 0.4695 0.47034 0.30685 0.0
O691 O 0.49904 0.53467 0.32707 0.0
C692 C 0.39009 0.5302 0.37649 0.0
O693 O 0.39636 0.56059 0.37086 0.0
O694 O 0.39106 0.50544 0.3699 0.0
O695 O 0.44469 0.55128 0.34555 0.0
O696 O 0.43215 0.55095 0.3252 0.0
O697 O 0.35755 0.52053 0.34524 0.0
C698 C 0.39316 0.44366 0.33626 0.0
C699 C 0.4423 0.56777 0.3358 0.0
Zn700 Zn 0.48872 0.93308 0.32142 0.0
Zn701 Zn 0.48946 0.886 0.35094 0.0
C702 C 0.43163 0.94831 0.32322 0.0
O703 O 0.417 0.91897 0.316 0.0
C704 C 0.50875 0.83058 0.34714 0.0
O705 O 0.53475 0.85115 0.35523 0.0
O706 O 0.49572 0.94264 0.30251 0.0
O707 O 0.5394 0.95524 0.32886 0.0
O708 O 0.53864 0.92915 0.34731 0.0
C709 C 0.51626 0.97571 0.29913 0.0
O710 O 0.53194 0.00087 0.30798 0.0
O711 O 0.46413 0.96089 0.32725 0.0
C712 C 0.4669 0.84737 0.37508 0.0
O713 O 0.44504 0.81991 0.36769 0.0
O714 O 0.48696 0.87868 0.3701 0.0
O715 O 0.44548 0.88758 0.3446 0.0
O716 O 0.45257 0.87944 0.32431 0.0
O717 O 0.48679 0.84095 0.3434 0.0
C718 C 0.55557 0.95303 0.33875 0.0
C719 C 0.4328 0.86986 0.33429 0.0
H720 H 0.15216 0.19177 0.18728 0.0
H721 H 0.10523 0.15487 0.14983 0.0
H722 H 0.16868 0.14444 0.18805 0.0
H723 H 0.1224 0.10756 0.15054 0.0
H724 H 0.21977 0.075 0.18273 0.0
H725 H 0.20926 0.12572 0.17855 0.0
H726 H 0.10374 0.05073 0.16237 0.0
H727 H 0.11449 6e-05 0.16632 0.0
C728 C 0.14564 0.17376 0.17914 0.0
C729 C 0.12721 0.17704 0.16851 0.0
C730 C 0.15541 0.14676 0.17955 0.0
C731 C 0.147 0.12229 0.16934 0.0
C732 C 0.12901 0.12583 0.15861 0.0
C733 C 0.11929 0.153 0.15818 0.0
C734 C 0.19456 0.06937 0.1781 0.0
C735 C 0.16782 0.03343 0.17498 0.0
C736 C 0.18845 0.09843 0.17577 0.0
C737 C 0.15546 0.09221 0.17027 0.0
C738 C 0.12953 0.05651 0.16654 0.0
C739 C 0.13565 0.02742 0.16887 0.0
H740 H 0.00356 0.13235 0.16297 0.0
H741 H 0.93262 0.15442 0.18636 0.0
H742 H 0.9542 0.06984 0.15984 0.0
H743 H 0.88292 0.0921 0.18295 0.0
H744 H 0.82483 0.96803 0.18973 0.0
H745 H 0.86978 0.03283 0.19041 0.0
H746 H 0.89491 0.02954 0.15065 0.0
H747 H 0.85038 0.96429 0.15004 0.0
C748 C 0.9772 0.12412 0.16722 0.0
C749 C 0.97216 0.14832 0.17502 0.0
C750 C 0.9488 0.08824 0.16539 0.0
C751 C 0.91468 0.07576 0.17127 0.0
C752 C 0.90909 0.10059 0.1785 0.0
C753 C 0.93751 0.13643 0.18037 0.0
C754 C 0.8398 0.98109 0.1811 0.0
C755 C 0.83411 0.96087 0.16985 0.0
C756 C 0.86541 0.01839 0.18146 0.0
C757 C 0.88593 0.0365 0.17057 0.0
C758 C 0.87987 0.01638 0.15925 0.0
C759 C 0.85426 0.97899 0.1589 0.0
H760 H 0.03716 0.85476 0.191 0.0
H761 H 0.04415 0.88579 0.15138 0.0
H762 H 0.97286 0.837 0.19126 0.0
H763 H 0.97935 0.86736 0.1516 0.0
H764 H 0.87792 0.87678 0.16366 0.0
H765 H 0.94 0.88816 0.16085 0.0
H766 H 0.91337 0.79208 0.18317 0.0
H767 H 0.85148 0.78107 0.18621 0.0
C768 C 0.02493 0.85753 0.1823 0.0
C769 C 0.04595 0.8719 0.17118 0.0
C770 C 0.98789 0.84704 0.18243 0.0
C771 C 0.97083 0.85062 0.17144 0.0
C772 C 0.99171 0.86456 0.16026 0.0
C773 C 0.02883 0.87502 0.16013 0.0
C774 C 0.8851 0.85772 0.16781 0.0
C775 C 0.85977 0.82819 0.17527 0.0
C776 C 0.92072 0.86421 0.16615 0.0
C777 C 0.93185 0.8413 0.17191 0.0
C778 C 0.90593 0.81069 0.17882 0.0
C779 C 0.87033 0.80421 0.18048 0.0
H780 H 0.15249 0.11162 0.356 0.0
H781 H 0.18531 0.15104 0.3175 0.0
H782 H 0.10902 0.13371 0.35569 0.0
H783 H 0.14139 0.17206 0.31706 0.0
H784 H 0.00191 0.1284 0.34158 0.0
H785 H 0.05181 0.11684 0.34563 0.0
H786 H 0.12565 0.21532 0.32514 0.0
H787 H 0.07529 0.22627 0.3207 0.0
C788 C 0.15048 0.12504 0.34749 0.0
C789 C 0.1722 0.12935 0.33675 0.0
C790 C 0.12551 0.13762 0.3473 0.0
C791 C 0.12165 0.15468 0.33635 0.0
C792 C 0.14403 0.15968 0.32574 0.0
C793 C 0.16905 0.14729 0.32595 0.0
C794 C 0.02891 0.14799 0.33812 0.0
C795 C 0.03449 0.17798 0.33064 0.0
C796 C 0.05765 0.14143 0.34051 0.0
C797 C 0.09269 0.16484 0.33555 0.0
C798 C 0.0988 0.19627 0.32884 0.0
C799 C 0.06999 0.20271 0.32638 0.0
H800 H 0.87117 0.87005 0.34125 0.0
H801 H 0.77704 0.8477 0.31842 0.0
H802 H 0.8846 0.9325 0.34438 0.0
H803 H 0.78992 0.91011 0.32188 0.0
H804 H 0.85901 0.03359 0.31367 0.0
H805 H 0.83633 0.96826 0.31378 0.0
H806 H 0.86776 0.97442 0.35333 0.0
H807 H 0.89141 0.04027 0.35312 0.0
C808 C 0.85279 0.87819 0.33715 0.0
C809 C 0.82331 0.85401 0.32942 0.0
C810 C 0.86042 0.91405 0.339 0.0
C811 C 0.83865 0.92652 0.33323 0.0
C812 C 0.8077 0.90159 0.32623 0.0
C813 C 0.80014 0.86572 0.32432 0.0
C814 C 0.86096 0.02105 0.32242 0.0
C815 C 0.87734 0.04223 0.33336 0.0
C816 C 0.84759 0.98345 0.32252 0.0
C817 C 0.85009 0.966 0.33358 0.0
C818 C 0.86577 0.98706 0.34462 0.0
C819 C 0.87929 0.02479 0.3445 0.0
H820 H 0.96034 0.8515 0.35374 0.0
H821 H 0.96636 0.82437 0.31441 0.0
H822 H 0.02577 0.89527 0.35357 0.0
H823 H 0.03137 0.86871 0.31414 0.0
H824 H 0.15261 0.93256 0.31878 0.0
H825 H 0.0903 0.88254 0.32203 0.0
H826 H 0.06637 0.95389 0.34441 0.0
H827 H 0.12874 0.0034 0.34149 0.0
C828 C 0.9756 0.85492 0.34505 0.0
C829 C 0.95809 0.8346 0.33407 0.0
C830 C 0.0131 0.88006 0.34495 0.0
C831 C 0.03389 0.88556 0.33384 0.0
C832 C 0.0164 0.86477 0.32293 0.0
C833 C 0.97899 0.83953 0.32305 0.0
C834 C 0.13424 0.93736 0.32459 0.0
C835 C 0.14557 0.97206 0.32977 0.0
C836 C 0.09842 0.90877 0.32636 0.0
C837 C 0.07314 0.91431 0.33333 0.0
C838 C 0.08512 0.9485 0.33908 0.0
C839 C 0.12093 0.97701 0.33735 0.0
H840 H 0.85919 0.81861 0.81576 0.0
H841 H 0.88667 0.84598 0.85547 0.0
H842 H 0.83698 0.86158 0.81458 0.0
H843 H 0.86365 0.88866 0.85434 0.0
H844 H 0.77288 0.91915 0.81781 0.0
H845 H 0.78852 0.87179 0.82173 0.0
H846 H 0.88049 0.94731 0.84467 0.0
H847 H 0.86439 0.99444 0.841 0.0
C848 C 0.86022 0.83356 0.82428 0.0
C849 C 0.87486 0.82888 0.8357 0.0
C850 C 0.84718 0.85804 0.82363 0.0
C851 C 0.84834 0.87849 0.83438 0.0
C852 C 0.86264 0.87358 0.84585 0.0
C853 C 0.87572 0.84901 0.84651 0.0
C854 C 0.7961 0.92551 0.82385 0.0
C855 C 0.81754 0.9607 0.82899 0.0
C856 C 0.80523 0.89841 0.82603 0.0
C857 C 0.83608 0.90587 0.83336 0.0
C858 C 0.85643 0.94052 0.83904 0.0
C859 C 0.84725 0.96762 0.83689 0.0
H860 H 0.18008 0.04532 0.81487 0.0
H861 H 0.15731 0.04967 0.85482 0.0
H862 H 0.13749 0.97984 0.81473 0.0
H863 H 0.11505 0.98384 0.85472 0.0
H864 H 0.00631 0.87986 0.84268 0.0
H865 H 0.05503 0.94273 0.84561 0.0
H866 H 0.12723 0.92128 0.82272 0.0
H867 H 0.07821 0.85844 0.81956 0.0
C868 C 0.16626 0.03226 0.82366 0.0
C869 C 0.17189 0.0528 0.83483 0.0
C870 C 0.14205 0.99462 0.82361 0.0
C871 C 0.12288 0.97659 0.83472 0.0
C872 C 0.12911 0.99699 0.84597 0.0
C873 C 0.15339 0.03469 0.84603 0.0
C874 C 0.03274 0.88833 0.83844 0.0
C875 C 0.03824 0.86422 0.83076 0.0
C876 C 0.06075 0.92439 0.84017 0.0
C877 C 0.09489 0.93713 0.83428 0.0
C878 C 0.10101 0.91245 0.8272 0.0
C879 C 0.07299 0.87637 0.82546 0.0
H880 H 0.94156 0.1043 0.85377 0.0
H881 H 0.94665 0.13934 0.81471 0.0
H882 H 0.00712 0.12667 0.85338 0.0
H883 H 0.01189 0.16097 0.81426 0.0
H884 H 0.1334 0.22118 0.8195 0.0
H885 H 0.07056 0.20704 0.82284 0.0
H886 H 0.04767 0.10898 0.84323 0.0
H887 H 0.11058 0.12345 0.84015 0.0
C888 C 0.95664 0.11677 0.8451 0.0
C889 C 0.93884 0.11983 0.83424 0.0
C890 C 0.99418 0.12951 0.84488 0.0
C891 C 0.01471 0.14558 0.8338 0.0
C892 C 0.99699 0.14924 0.82302 0.0
C893 C 0.9595 0.13655 0.82324 0.0
C894 C 0.11512 0.19692 0.82488 0.0
C895 C 0.1269 0.17328 0.82946 0.0
C896 C 0.07905 0.1887 0.82671 0.0
C897 C 0.05401 0.15667 0.83317 0.0
C898 C 0.06632 0.13401 0.8383 0.0
C899 C 0.10238 0.14224 0.83648 0.0
H900 H 0.84163 0.88006 0.64911 0.0
H901 H 0.81806 0.85447 0.68912 0.0
H902 H 0.88589 0.85903 0.64991 0.0
H903 H 0.86269 0.83427 0.68996 0.0
H904 H 0.9958 0.8679 0.66251 0.0
H905 H 0.94573 0.87972 0.65905 0.0
H906 H 0.87586 0.78755 0.68296 0.0
H907 H 0.92629 0.7762 0.68668 0.0
C908 C 0.8458 0.86989 0.65806 0.0
C909 C 0.82638 0.86912 0.66906 0.0
C910 C 0.87126 0.85794 0.65853 0.0
C911 C 0.87786 0.84494 0.67 0.0
C912 C 0.8579 0.84353 0.68092 0.0
C913 C 0.83247 0.85543 0.68046 0.0
C914 C 0.9696 0.84976 0.66687 0.0
C915 C 0.96519 0.82133 0.67499 0.0
C916 C 0.9408 0.85646 0.66484 0.0
C917 C 0.90687 0.83485 0.67084 0.0
C918 C 0.90187 0.80516 0.67839 0.0
C919 C 0.93071 0.79847 0.68044 0.0
H920 H 0.1254 0.1257 0.6616 0.0
H921 H 0.21964 0.14872 0.68448 0.0
H922 H 0.11262 0.06345 0.65839 0.0
H923 H 0.20744 0.08658 0.68094 0.0
H924 H 0.10809 0.95686 0.64917 0.0
H925 H 0.13034 0.02245 0.64928 0.0
H926 H 0.16186 0.02788 0.68879 0.0
H927 H 0.14059 0.96282 0.68858 0.0
C928 C 0.14393 0.11775 0.6657 0.0
C929 C 0.17328 0.14207 0.67345 0.0
C930 C 0.13666 0.08202 0.66381 0.0
C931 C 0.15871 0.06981 0.66955 0.0
C932 C 0.18944 0.09487 0.67661 0.0
C933 C 0.19661 0.13058 0.67856 0.0
C934 C 0.11994 0.97213 0.65785 0.0
C935 C 0.12236 0.95455 0.66889 0.0
C936 C 0.13264 0.00971 0.65792 0.0
C937 C 0.14793 0.0305 0.66904 0.0
C938 C 0.15087 0.01293 0.67999 0.0
C939 C 0.13833 0.97547 0.6799 0.0
H940 H 0.87226 0.997 0.66145 0.0
H941 H 0.84721 0.07102 0.68159 0.0
H942 H 0.9345 0.04646 0.65805 0.0
H943 H 0.90933 0.12081 0.67787 0.0
H944 H 0.0326 0.17942 0.68665 0.0
H945 H 0.96767 0.13518 0.68669 0.0
H946 H 0.97565 0.10432 0.64805 0.0
H947 H 0.04116 0.14827 0.6481 0.0
C948 C 0.87977 0.02403 0.6649 0.0
C949 C 0.85489 0.02994 0.67195 0.0
C950 C 0.91549 0.05247 0.6629 0.0
C951 C 0.9271 0.08752 0.66784 0.0
C952 C 0.90149 0.09394 0.67417 0.0
C953 C 0.86579 0.06546 0.67622 0.0
C954 C 0.02056 0.16339 0.67812 0.0
C955 C 0.04217 0.16723 0.6674 0.0
C956 C 0.98317 0.1382 0.6781 0.0
C957 C 0.96635 0.11625 0.66735 0.0
C958 C 0.98782 0.12055 0.65653 0.0
C959 C 0.02534 0.14579 0.65655 0.0
H960 H 0.8362 0.37357 0.481 0.0
H961 H 0.79 0.34858 0.51894 0.0
H962 H 0.82556 0.42538 0.47998 0.0
H963 H 0.77902 0.39964 0.51782 0.0
H964 H 0.80076 0.51585 0.5176 0.0
H965 H 0.81434 0.46627 0.51773 0.0
H966 H 0.77462 0.43849 0.47906 0.0
H967 H 0.76151 0.48859 0.47883 0.0
C968 C 0.82372 0.37903 0.48909 0.0
C969 C 0.81415 0.35704 0.50007 0.0
C970 C 0.81749 0.40859 0.48848 0.0
C971 C 0.8017 0.41677 0.49886 0.0
C972 C 0.79184 0.39451 0.50976 0.0
C973 C 0.79797 0.36505 0.51036 0.0
C974 C 0.79506 0.49932 0.5091 0.0
C975 C 0.77987 0.50609 0.49823 0.0
C976 C 0.80268 0.47076 0.50919 0.0
C977 C 0.79533 0.44829 0.49843 0.0
C978 C 0.78085 0.4555 0.48747 0.0
C979 C 0.77314 0.48406 0.48737 0.0
H980 H 0.50715 0.2992 0.48022 0.0
H981 H 0.48657 0.29992 0.52056 0.0
H982 H 0.55168 0.36453 0.48113 0.0
H983 H 0.53137 0.36466 0.52151 0.0
H984 H 0.59101 0.48643 0.51843 0.0
H985 H 0.54199 0.42386 0.51493 0.0
H986 H 0.61207 0.40547 0.48972 0.0
H987 H 0.6608 0.46829 0.49298 0.0
C988 C 0.51211 0.31324 0.48928 0.0
C989 C 0.49325 0.29426 0.50032 0.0
C990 C 0.53772 0.35066 0.4898 0.0
C991 C 0.54501 0.36995 0.50138 0.0
C992 C 0.52599 0.35091 0.51238 0.0
C993 C 0.50046 0.31361 0.51186 0.0
C994 C 0.59578 0.46925 0.51198 0.0
C995 C 0.62995 0.48233 0.50608 0.0
C996 C 0.56776 0.43325 0.51004 0.0
C997 C 0.57323 0.40941 0.50219 0.0
C998 C 0.60679 0.42309 0.49577 0.0
C999 C 0.6348 0.45914 0.49768 0.0
H1000 H 0.57475 0.24451 0.51346 0.0
H1001 H 0.5427 0.16842 0.482 0.0
H1002 H 0.63696 0.25582 0.51194 0.0
H1003 H 0.60535 0.17981 0.48056 0.0
H1004 H 0.73039 0.23306 0.47607 0.0
H1005 H 0.67061 0.229 0.47584 0.0
H1006 H 0.66425 0.21675 0.51681 0.0
H1007 H 0.72368 0.22063 0.51707 0.0
C1008 C 0.581 0.23038 0.50614 0.0
C1009 C 0.55362 0.20522 0.49793 0.0
C1010 C 0.61666 0.23682 0.50532 0.0
C1011 C 0.62588 0.21842 0.49623 0.0
C1012 C 0.599 0.1945 0.48762 0.0
C1013 C 0.56313 0.18788 0.48848 0.0
C1014 C 0.71634 0.22978 0.48504 0.0
C1015 C 0.73177 0.22716 0.4966 0.0
C1016 C 0.68207 0.22727 0.48488 0.0
C1017 C 0.66283 0.22257 0.4963 0.0
C1018 C 0.67864 0.22078 0.50787 0.0
C1019 C 0.71265 0.2229 0.50802 0.0
H1020 H 0.82749 0.44087 0.68797 0.0
H1021 H 0.85814 0.47713 0.64906 0.0
H1022 H 0.78572 0.46514 0.68785 0.0
H1023 H 0.81624 0.50074 0.6489 0.0
H1024 H 0.7578 0.56308 0.65412 0.0
H1025 H 0.80548 0.54774 0.65789 0.0
H1026 H 0.72753 0.44912 0.67738 0.0
H1027 H 0.68 0.46473 0.67383 0.0
C1028 C 0.82545 0.45413 0.67942 0.0
C1029 C 0.84593 0.45679 0.66849 0.0
C1030 C 0.80146 0.46792 0.67934 0.0
C1031 C 0.79766 0.48487 0.66837 0.0
C1032 C 0.81887 0.48832 0.65757 0.0
C1033 C 0.84267 0.47444 0.65763 0.0
C1034 C 0.75095 0.53844 0.6594 0.0
C1035 C 0.71499 0.51492 0.66354 0.0
C1036 C 0.77824 0.52955 0.66149 0.0
C1037 C 0.77018 0.49697 0.66778 0.0
C1038 C 0.73471 0.47453 0.67257 0.0
C1039 C 0.70741 0.48341 0.67048 0.0
H1040 H 0.54409 0.22135 0.67421 0.0
H1041 H 0.4503 0.1997 0.6513 0.0
H1042 H 0.55915 0.28475 0.67667 0.0
H1043 H 0.46518 0.263 0.65391 0.0
H1044 H 0.5601 0.39041 0.68644 0.0
H1045 H 0.53854 0.32498 0.686 0.0
H1046 H 0.51419 0.32203 0.64586 0.0
H1047 H 0.53533 0.38724 0.64629 0.0
C1048 C 0.52635 0.22994 0.66987 0.0
C1049 C 0.49613 0.20551 0.66248 0.0
C1050 C 0.53492 0.26627 0.67132 0.0
C1051 C 0.51353 0.27897 0.66539 0.0
C1052 C 0.48251 0.25417 0.65843 0.0
C1053 C 0.47386 0.21783 0.65701 0.0
C1054 C 0.55 0.37578 0.67752 0.0
C1055 C 0.54964 0.39413 0.66638 0.0
C1056 C 0.53776 0.33832 0.67728 0.0
C1057 C 0.52469 0.31833 0.6659 0.0
C1058 C 0.52367 0.33655 0.65482 0.0
C1059 C 0.53604 0.374 0.65505 0.0
H1060 H 0.80482 0.2461 0.65873 0.0
H1061 H 0.78056 0.32503 0.67547 0.0
H1062 H 0.74209 0.19787 0.6626 0.0
H1063 H 0.7177 0.27682 0.67916 0.0
H1064 H 0.61016 0.17548 0.69042 0.0
H1065 H 0.67588 0.21924 0.6905 0.0
H1066 H 0.68454 0.18501 0.65247 0.0
H1067 H 0.61944 0.14135 0.65242 0.0
C1068 C 0.78629 0.2531 0.6634 0.0
C1069 C 0.79759 0.2895 0.66664 0.0
C1070 C 0.75028 0.22548 0.66556 0.0
C1071 C 0.72481 0.23362 0.67102 0.0
C1072 C 0.7367 0.26962 0.67499 0.0
C1073 C 0.77272 0.29728 0.67282 0.0
C1074 C 0.62619 0.17719 0.68212 0.0
C1075 C 0.60952 0.15509 0.67139 0.0
C1076 C 0.66377 0.20229 0.68216 0.0
C1077 C 0.68542 0.20549 0.67151 0.0
C1078 C 0.66878 0.18284 0.66091 0.0
C1079 C 0.63133 0.15802 0.66083 0.0
H1080 H 0.51966 0.15011 0.14831 0.0
H1081 H 0.55597 0.18131 0.18717 0.0
H1082 H 0.50201 0.19669 0.14727 0.0
H1083 H 0.53743 0.22744 0.18624 0.0
H1084 H 0.54467 0.33565 0.17283 0.0
H1085 H 0.55648 0.2855 0.17622 0.0
H1086 H 0.45885 0.21334 0.15501 0.0
H1087 H 0.44756 0.26379 0.15133 0.0
C1088 C 0.52355 0.16666 0.15669 0.0
C1089 C 0.53942 0.16207 0.1678 0.0
C1090 C 0.51315 0.19324 0.15613 0.0
C1091 C 0.51818 0.21583 0.16669 0.0
C1092 C 0.53355 0.21085 0.17788 0.0
C1093 C 0.54408 0.1843 0.17843 0.0
C1094 C 0.5254 0.30896 0.16905 0.0
C1095 C 0.49534 0.30384 0.1617 0.0
C1096 C 0.53212 0.28011 0.17103 0.0
C1097 C 0.50886 0.24542 0.16576 0.0
C1098 C 0.47776 0.23988 0.15898 0.0
C1099 C 0.47112 0.26876 0.15695 0.0
H1100 H 0.7891 0.37432 0.1781 0.0
H1101 H 0.86529 0.35566 0.15661 0.0
H1102 H 0.74411 0.3094 0.17698 0.0
H1103 H 0.82151 0.29041 0.15616 0.0
H1104 H 0.7197 0.1878 0.1423 0.0
H1105 H 0.7686 0.24978 0.14587 0.0
H1106 H 0.72378 0.24946 0.18301 0.0
H1107 H 0.67334 0.1878 0.17899 0.0
C1108 C 0.79642 0.3561 0.17336 0.0
C1109 C 0.8304 0.36996 0.1673 0.0
C1110 C 0.77075 0.31876 0.17278 0.0
C1111 C 0.77884 0.29434 0.16637 0.0
C1112 C 0.81372 0.30829 0.16086 0.0
C1113 C 0.83898 0.34569 0.16118 0.0
C1114 C 0.72054 0.20073 0.15131 0.0
C1115 C 0.69256 0.18294 0.16034 0.0
C1116 C 0.74883 0.23641 0.15341 0.0
C1117 C 0.75035 0.25508 0.16473 0.0
C1118 C 0.72322 0.23646 0.17405 0.0
C1119 C 0.69446 0.20092 0.17182 0.0
H1120 H 0.7895 0.45524 0.1734 0.0
H1121 H 0.81801 0.55373 0.15223 0.0
H1122 H 0.72817 0.44515 0.17668 0.0
H1123 H 0.75671 0.54398 0.15577 0.0
H1124 H 0.63252 0.48168 0.14754 0.0
H1125 H 0.69703 0.50025 0.14731 0.0
H1126 H 0.6897 0.46582 0.18653 0.0
H1127 H 0.62473 0.4465 0.1867 0.0
C1128 C 0.78295 0.4752 0.16968 0.0
C1129 C 0.80856 0.50508 0.16241 0.0
C1130 C 0.74776 0.46947 0.17161 0.0
C1131 C 0.73737 0.49352 0.16635 0.0
C1132 C 0.76366 0.52458 0.15974 0.0
C1133 C 0.79889 0.53032 0.1578 0.0
C1134 C 0.64463 0.47822 0.15615 0.0
C1135 C 0.62335 0.46231 0.16711 0.0
C1136 C 0.68177 0.4892 0.15606 0.0
C1137 C 0.69859 0.4846 0.16691 0.0
C1138 C 0.67749 0.46939 0.17797 0.0
C1139 C 0.64028 0.4584 0.17807 0.0
H1140 H 0.59809 0.14493 0.02933 0.0
H1141 H 0.64756 0.19418 0.99328 0.0
H1142 H 0.54934 0.15802 0.02544 0.0
H1143 H 0.59727 0.20539 0.98889 0.0
H1144 H 0.52716 0.26003 0.99262 0.0
H1145 H 0.57414 0.24291 0.9946 0.0
H1146 H 0.49709 0.14406 0.01438 0.0
H1147 H 0.45129 0.16279 0.01311 0.0
C1148 C 0.59806 0.15784 0.02041 0.0
C1149 C 0.62666 0.16857 0.01161 0.0
C1150 C 0.56985 0.16518 0.01811 0.0
C1151 C 0.56904 0.18276 0.00681 0.0
C1152 C 0.5972 0.19246 0.99781 0.0
C1153 C 0.62591 0.18578 1.00026 0.0
C1154 C 0.52043 0.2346 0.99733 0.0
C1155 C 0.48592 0.21293 0.00287 0.0
C1156 C 0.54724 0.22456 0.9984 0.0
C1157 C 0.53974 0.19216 0.00477 0.0
C1158 C 0.50441 0.16973 0.00976 0.0
C1159 C 0.478 0.18027 0.00897 0.0
H1160 H 0.78136 0.2841 0.98169 0.0
H1161 H 0.81051 0.29412 0.0216 0.0
H1162 H 0.80211 0.34946 0.98092 0.0
H1163 H 0.83079 0.35899 0.02083 0.0
H1164 H 0.88832 0.47951 0.01467 0.0
H1165 H 0.87748 0.41757 0.0119 0.0
H1166 H 0.78081 0.3897 0.98975 0.0
H1167 H 0.79184 0.4517 0.99235 0.0
C1168 C 0.79234 0.30022 0.99027 0.0
C1169 C 0.79401 0.28378 1.00173 0.0
C1170 C 0.80415 0.33764 0.98983 0.0
C1171 C 0.81815 0.35946 1.00081 0.0
C1172 C 0.82066 0.34313 0.01216 0.0
C1173 C 0.80871 0.30579 0.01262 0.0
C1174 C 0.86517 0.46042 0.00898 0.0
C1175 C 0.84073 0.47049 0.00385 0.0
C1176 C 0.85882 0.42483 0.00748 0.0
C1177 C 0.82799 0.39855 1.00077 0.0
C1178 C 0.80489 0.40929 0.99493 0.0
C1179 C 0.81117 0.44486 0.99647 0.0
H1180 H 0.52861 0.33129 0.99451 0.0
H1181 H 0.5104 0.40928 0.01516 0.0
H1182 H 0.59153 0.37843 0.9905 0.0
H1183 H 0.57317 0.45673 0.01083 0.0
H1184 H 0.6962 0.50873 0.01891 0.0
H1185 H 0.63072 0.46735 0.01925 0.0
H1186 H 0.63466 0.43572 0.98035 0.0
H1187 H 0.70085 0.4769 0.98009 0.0
C1188 C 0.53774 0.35872 0.99793 0.0
C1189 C 0.51461 0.3664 0.00533 0.0
C1190 C 0.57386 0.38583 0.99558 0.0
C1191 C 0.58759 0.42124 1.00051 0.0
C1192 C 0.56367 0.42951 0.00714 0.0
C1193 C 0.5276 0.40236 0.00955 0.0
C1194 C 0.68321 0.49315 0.01038 0.0
C1195 C 0.70387 0.49597 0.9995 0.0
C1196 C 0.64548 0.46962 0.01054 0.0
C1197 C 0.62733 0.44831 0.9998 0.0
C1198 C 0.64786 0.45155 0.98881 0.0
C1199 C 0.68576 0.47518 0.98866 0.0
H1200 H 0.43689 0.81375 0.81636 0.0
H1201 H 0.47489 0.84615 0.85503 0.0
H1202 H 0.46296 0.7736 0.8163 0.0
H1203 H 0.50013 0.80566 0.85504 0.0
H1204 H 0.46528 0.66971 0.83018 0.0
H1205 H 0.44889 0.71652 0.82661 0.0
H1206 H 0.5472 0.79552 0.84603 0.0
H1207 H 0.56325 0.74835 0.8499 0.0
C1208 C 0.45081 0.81235 0.82483 0.0
C1209 C 0.45353 0.8329 0.83574 0.0
C1210 C 0.46571 0.78934 0.8248 0.0
C1211 C 0.48365 0.78647 0.83565 0.0
C1212 C 0.48703 0.80766 0.84644 0.0
C1213 C 0.47219 0.83062 0.84648 0.0
C1214 C 0.48376 0.6972 0.83351 0.0
C1215 C 0.51532 0.70519 0.84049 0.0
C1216 C 0.47443 0.72411 0.83139 0.0
C1217 C 0.49651 0.75963 0.83618 0.0
C1218 C 0.52928 0.7682 0.84244 0.0
C1219 C 0.53859 0.74124 0.84458 0.0
H1220 H 0.17019 0.61689 0.81559 0.0
H1221 H 0.14759 0.62339 0.85541 0.0
H1222 H 0.21323 0.68269 0.81541 0.0
H1223 H 0.19075 0.68859 0.85526 0.0
H1224 H 0.25166 0.80912 0.85058 0.0
H1225 H 0.20176 0.74698 0.847 0.0
H1226 H 0.27353 0.72386 0.82457 0.0
H1227 H 0.32323 0.78613 0.82791 0.0
C1228 C 0.17423 0.63232 0.82427 0.0
C1229 C 0.15562 0.61479 0.83553 0.0
C1230 C 0.19897 0.66999 0.82418 0.0
C1231 C 0.2054 0.69092 0.83531 0.0
C1232 C 0.18606 0.67345 0.84646 0.0
C1233 C 0.16152 0.63591 0.84657 0.0
C1234 C 0.25663 0.79102 0.84467 0.0
C1235 C 0.29157 0.80247 0.83967 0.0
C1236 C 0.22807 0.75533 0.84269 0.0
C1237 C 0.23382 0.73028 0.83568 0.0
C1238 C 0.26811 0.74247 0.82997 0.0
C1239 C 0.29667 0.77818 0.83194 0.0
H1240 H 0.39121 0.56094 0.81765 0.0
H1241 H 0.38517 0.52506 0.85664 0.0
H1242 H 0.32619 0.54103 0.81815 0.0
H1243 H 0.32034 0.50568 0.85717 0.0
H1244 H 0.19834 0.44671 0.85118 0.0
H1245 H 0.26116 0.46035 0.84824 0.0
H1246 H 0.2865 0.56009 0.82855 0.0
H1247 H 0.2236 0.54626 0.83131 0.0
C1248 C 0.37604 0.54876 0.82632 0.0
C1249 C 0.39347 0.54473 0.83712 0.0
C1250 C 0.33879 0.53747 0.82661 0.0
C1251 C 0.31808 0.52176 0.83769 0.0
C1252 C 0.33539 0.51721 0.84842 0.0
C1253 C 0.37265 0.52859 0.84815 0.0
C1254 C 0.21714 0.47128 0.84605 0.0
C1255 C 0.20597 0.4955 0.84155 0.0
C1256 C 0.25322 0.47922 0.84446 0.0
C1257 C 0.27893 0.5115 0.83829 0.0
C1258 C 0.26734 0.53487 0.83327 0.0
C1259 C 0.23127 0.52698 0.83489 0.0
H1260 H 0.53036 0.82043 0.98518 0.0
H1261 H 0.49273 0.77093 0.02225 0.0
H1262 H 0.48249 0.83628 0.98458 0.0
H1263 H 0.445 0.78748 0.02173 0.0
H1264 H 0.33748 0.77986 0.00653 0.0
H1265 H 0.38839 0.76912 0.00997 0.0
H1266 H 0.46279 0.8756 0.99434 0.0
H1267 H 0.41184 0.88608 0.99066 0.0
C1268 C 0.51209 0.81322 0.99327 0.0
C1269 C 0.5153 0.79425 0.00374 0.0
C1270 C 0.48477 0.82258 0.99296 0.0
C1271 C 0.45995 0.81323 0.00312 0.0
C1272 C 0.46349 0.79477 0.0137 0.0
C1273 C 0.49093 0.78544 0.01402 0.0
C1274 C 0.36476 0.80118 0.00398 0.0
C1275 C 0.37054 0.83368 0.99819 0.0
C1276 C 0.39398 0.79508 0.006 0.0
C1277 C 0.42961 0.82135 0.00231 0.0
C1278 C 0.43558 0.85453 0.99708 0.0
C1279 C 0.40638 0.86062 0.99503 0.0
H1280 H 0.22119 0.71647 0.02443 0.0
H1281 H 0.18671 0.70561 0.98508 0.0
H1282 H 0.20124 0.65133 0.02506 0.0
H1283 H 0.16734 0.64093 0.98568 0.0
H1284 H 0.2127 0.55085 0.01259 0.0
H1285 H 0.22245 0.61221 0.01554 0.0
H1286 H 0.1228 0.582 0.99492 0.0
H1287 H 0.11328 0.52065 0.99176 0.0
C1288 C 0.20924 0.7002 0.01594 0.0
C1289 C 0.20584 0.71632 0.00468 0.0
C1290 C 0.19788 0.66291 0.0163 0.0
C1291 C 0.18268 0.64094 0.00543 0.0
C1292 C 0.17842 0.65692 0.99429 0.0
C1293 C 0.18988 0.69415 0.99391 0.0
C1294 C 0.19247 0.55704 0.00889 0.0
C1295 C 0.16246 0.53097 1.00178 0.0
C1296 C 0.198 0.59222 0.01063 0.0
C1297 C 0.17366 0.60213 0.00532 0.0
C1298 C 0.14239 0.57537 0.99893 0.0
C1299 C 0.13681 0.54013 0.9972 0.0
H1300 H 0.30768 0.49255 0.98645 0.0
H1301 H 0.30102 0.52786 0.02454 0.0
H1302 H 0.37276 0.5356 0.98603 0.0
H1303 H 0.36691 0.57072 0.02422 0.0
H1304 H 0.47187 0.6752 0.00973 0.0
H1305 H 0.40929 0.62723 0.01372 0.0
H1306 H 0.43079 0.54933 0.99462 0.0
H1307 H 0.4932 0.59764 0.99029 0.0
C1308 C 0.32016 0.50925 0.99481 0.0
C1309 C 0.299 0.50685 0.00551 0.0
C1310 C 0.35769 0.53378 0.99461 0.0
C1311 C 0.37523 0.55656 0.00512 0.0
C1312 C 0.35422 0.55378 0.01593 0.0
C1313 C 0.31649 0.52916 0.01612 0.0
C1314 C 0.46348 0.64772 0.00656 0.0
C1315 C 0.48744 0.64037 0.99952 0.0
C1316 C 0.42755 0.62012 0.00891 0.0
C1317 C 0.41478 0.58448 0.00434 0.0
C1318 C 0.43949 0.57667 0.99803 0.0
C1319 C 0.47537 0.60431 0.99562 0.0
H1320 H 0.1938 0.48314 0.48489 0.0
H1321 H 0.23568 0.51824 0.52302 0.0
H1322 H 0.17182 0.52638 0.48452 0.0
H1323 H 0.21306 0.56133 0.5227 0.0
H1324 H 0.11063 0.58598 0.49034 0.0
H1325 H 0.12638 0.53858 0.49407 0.0
H1326 H 0.22784 0.61823 0.51164 0.0
H1327 H 0.21185 0.66549 0.50814 0.0
C1328 C 0.19812 0.49992 0.49324 0.0
C1329 C 0.21668 0.49735 0.50396 0.0
C1330 C 0.1852 0.5245 0.49307 0.0
C1331 C 0.19052 0.54717 0.50361 0.0
C1332 C 0.20878 0.54441 0.5144 0.0
C1333 C 0.22167 0.5197 0.51458 0.0
C1334 C 0.136 0.59327 0.4952 0.0
C1335 C 0.16014 0.62959 0.49882 0.0
C1336 C 0.14513 0.56615 0.49726 0.0
C1337 C 0.17859 0.57476 0.50299 0.0
C1338 C 0.20177 0.61065 0.50726 0.0
C1339 C 0.19264 0.63778 0.50521 0.0
H1340 H 0.45637 0.71281 0.51617 0.0
H1341 H 0.53657 0.70304 0.49373 0.0
H1342 H 0.41551 0.64691 0.51489 0.0
H1343 H 0.4973 0.637 0.49319 0.0
H1344 H 0.39991 0.53113 0.47896 0.0
H1345 H 0.44581 0.59404 0.48294 0.0
H1346 H 0.39978 0.58778 0.52036 0.0
H1347 H 0.35215 0.52508 0.51592 0.0
C1348 C 0.46547 0.69634 0.51119 0.0
C1349 C 0.49925 0.71289 0.50489 0.0
C1350 C 0.44224 0.65847 0.51053 0.0
C1351 C 0.45276 0.63629 0.50381 0.0
C1352 C 0.48759 0.65303 0.49811 0.0
C1353 C 0.51029 0.69091 0.49847 0.0
C1354 C 0.39992 0.54295 0.48813 0.0
C1355 C 0.37229 0.52321 0.4971 0.0
C1356 C 0.42649 0.57919 0.49047 0.0
C1357 C 0.42663 0.59646 0.50198 0.0
C1358 C 0.40013 0.57586 0.51126 0.0
C1359 C 0.37303 0.53975 0.50879 0.0
H1360 H 0.44817 0.79291 0.51012 0.0
H1361 H 0.47211 0.88769 0.48743 0.0
H1362 H 0.38546 0.77982 0.51288 0.0
H1363 H 0.40961 0.87494 0.49039 0.0
H1364 H 0.28622 0.80879 0.48216 0.0
H1365 H 0.35093 0.82833 0.48215 0.0
H1366 H 0.3445 0.79936 0.52196 0.0
H1367 H 0.27921 0.77916 0.52194 0.0
C1368 C 0.44031 0.8114 0.50594 0.0
C1369 C 0.46513 0.84117 0.49844 0.0
C1370 C 0.40433 0.80393 0.50756 0.0
C1371 C 0.39234 0.82606 0.50172 0.0
C1372 C 0.41774 0.85693 0.49481 0.0
C1373 C 0.45368 0.86439 0.49318 0.0
C1374 C 0.29852 0.80667 0.49095 0.0
C1375 C 0.27738 0.79219 0.50204 0.0
C1376 C 0.33579 0.8182 0.49097 0.0
C1377 C 0.35302 0.81557 0.50207 0.0
C1378 C 0.33202 0.80148 0.51322 0.0
C1379 C 0.29463 0.79002 0.51321 0.0
H1380 H 0.17147 0.56405 0.31086 0.0
H1381 H 0.15871 0.54565 0.35156 0.0
H1382 H 0.22439 0.55526 0.31123 0.0
H1383 H 0.21109 0.53645 0.35188 0.0
H1384 H 0.32582 0.55564 0.35058 0.0
H1385 H 0.27719 0.57026 0.349 0.0
H1386 H 0.23745 0.50495 0.3148 0.0
H1387 H 0.28672 0.49064 0.31625 0.0
C1388 C 0.18003 0.5583 0.31989 0.0
C1389 C 0.16084 0.55551 0.33119 0.0
C1390 C 0.21018 0.55303 0.32008 0.0
C1391 C 0.22191 0.54513 0.33158 0.0
C1392 C 0.20304 0.54295 0.34289 0.0
C1393 C 0.17287 0.54803 0.34269 0.0
C1394 C 0.30688 0.54449 0.34266 0.0
C1395 C 0.30997 0.52166 0.33359 0.0
C1396 C 0.27889 0.55278 0.3418 0.0
C1397 C 0.25325 0.53847 0.33185 0.0
C1398 C 0.25695 0.51659 0.32254 0.0
C1399 C 0.28505 0.50825 0.3234 0.0
H1400 H 0.46725 0.61172 0.35677 0.0
H1401 H 0.44105 0.61212 0.31694 0.0
H1402 H 0.48512 0.67591 0.3584 0.0
H1403 H 0.45952 0.67679 0.31856 0.0
H1404 H 0.45399 0.77899 0.33225 0.0
H1405 H 0.43903 0.71592 0.32882 0.0
H1406 H 0.53335 0.73564 0.35099 0.0
H1407 H 0.54804 0.7985 0.35461 0.0
C1408 C 0.46538 0.62551 0.34834 0.0
C1409 C 0.45269 0.60675 0.33672 0.0
C1410 C 0.47592 0.66243 0.34926 0.0
C1411 C 0.47401 0.68153 0.33858 0.0
C1412 C 0.4611 0.66276 0.32697 0.0
C1413 C 0.45062 0.62575 0.32604 0.0
C1414 C 0.47179 0.77001 0.33628 0.0
C1415 C 0.50207 0.79371 0.34379 0.0
C1416 C 0.46327 0.73388 0.33426 0.0
C1417 C 0.4848 0.72069 0.33974 0.0
C1418 C 0.51585 0.74481 0.34684 0.0
C1419 C 0.5244 0.78092 0.34884 0.0
H1420 H 0.22889 0.67231 0.35058 0.0
H1421 H 0.20458 0.71437 0.31666 0.0
H1422 H 0.29172 0.72209 0.34994 0.0
H1423 H 0.26783 0.76485 0.31615 0.0
H1424 H 0.39424 0.8301 0.31346 0.0
H1425 H 0.3317 0.77857 0.31294 0.0
H1426 H 0.32331 0.78786 0.35367 0.0
H1427 H 0.38575 0.83878 0.35425 0.0
C1428 C 0.23692 0.6922 0.34297 0.0
C1429 C 0.21158 0.68951 0.33372 0.0
C1430 C 0.27296 0.72087 0.34265 0.0
C1431 C 0.28466 0.74764 0.33308 0.0
C1432 C 0.25965 0.74451 0.32361 0.0
C1433 C 0.22341 0.71571 0.32393 0.0
C1434 C 0.37906 0.82104 0.32231 0.0
C1435 C 0.39502 0.83849 0.3339 0.0
C1436 C 0.34317 0.7917 0.32199 0.0
C1437 C 0.3226 0.77909 0.33327 0.0
C1438 C 0.3386 0.79659 0.34484 0.0
C1439 C 0.37435 0.82594 0.34516 0.0
H1440 H 0.23588 0.27739 0.14268 0.0
H1441 H 0.22282 0.33997 0.17272 0.0
H1442 H 0.30144 0.31069 0.14585 0.0
H1443 H 0.28938 0.37385 0.17585 0.0
H1444 H 0.40706 0.39052 0.18513 0.0
H1445 H 0.34066 0.36263 0.18311 0.0
H1446 H 0.35163 0.37376 0.14218 0.0
H1447 H 0.41744 0.40102 0.1441 0.0
C1448 C 0.24698 0.29835 0.14997 0.0
C1449 C 0.22406 0.30613 0.15741 0.0
C1450 C 0.28469 0.31762 0.15172 0.0
C1451 C 0.30061 0.34518 0.16099 0.0
C1452 C 0.2778 0.3527 0.16864 0.0
C1453 C 0.23979 0.33344 0.16682 0.0
C1454 C 0.39529 0.38728 0.17571 0.0
C1455 C 0.41757 0.39757 0.16477 0.0
C1456 C 0.35731 0.37151 0.17458 0.0
C1457 C 0.34095 0.36563 0.16248 0.0
C1458 C 0.3634 0.37735 0.15161 0.0
C1459 C 0.40118 0.3931 0.15274 0.0
H1460 H 0.64174 0.04777 0.18415 0.0
H1461 H 0.5765 0.99072 0.15122 0.0
H1462 H 0.67205 0.01159 0.18303 0.0
H1463 H 0.60665 0.95403 0.15029 0.0
H1464 H 0.65209 0.87593 0.16153 0.0
H1465 H 0.61597 0.90631 0.16492 0.0
H1466 H 0.71518 0.01117 0.16492 0.0
H1467 H 0.75092 0.98118 0.16126 0.0
C1468 C 0.63352 0.02721 0.17676 0.0
C1469 C 0.60689 0.02234 0.1677 0.0
C1470 C 0.65092 0.00655 0.17613 0.0
C1471 C 0.64165 0.98008 0.16658 0.0
C1472 C 0.61406 0.9741 0.15781 0.0
C1473 C 0.59704 0.99526 0.15829 0.0
C1474 C 0.66605 0.90541 0.16241 0.0
C1475 C 0.70422 0.92627 0.16112 0.0
C1476 C 0.64545 0.92274 0.16426 0.0
C1477 C 0.66287 0.96103 0.16518 0.0
C1478 C 0.70111 0.98162 0.16432 0.0
C1479 C 0.72151 0.96446 0.16219 0.0
H1480 H 0.10245 0.76949 0.17265 0.0
H1481 H 0.03474 0.76052 0.14038 0.0
H1482 H 0.06876 0.70288 0.17492 0.0
H1483 H 0.00124 0.69442 0.1427 0.0
H1484 H 0.9736 0.57605 0.14214 0.0
H1485 H 0.01202 0.64216 0.14015 0.0
H1486 H 0.00529 0.65377 0.18083 0.0
H1487 H 0.96706 0.58759 0.18288 0.0
C1488 C 0.08045 0.75336 0.16605 0.0
C1489 C 0.07127 0.77028 0.15634 0.0
C1490 C 0.06111 0.71528 0.16738 0.0
C1491 C 0.03251 0.69346 0.15894 0.0
C1492 C 0.02349 0.71046 0.14923 0.0
C1493 C 0.04256 0.74839 0.14797 0.0
C1494 C 0.98053 0.59263 0.15068 0.0
C1495 C 0.96706 0.57655 0.16266 0.0
C1496 C 0.00238 0.63051 0.14953 0.0
C1497 C 0.01147 0.65313 0.16033 0.0
C1498 C 0.99894 0.63701 0.17235 0.0
C1499 C 0.97685 0.59912 0.1735 0.0
H1500 H 0.30195 0.22883 0.36778 0.0
H1501 H 0.31049 0.20766 0.32801 0.0
H1502 H 0.33047 0.29373 0.36338 0.0
H1503 H 0.33833 0.27323 0.32344 0.0
H1504 H 0.41511 0.40052 0.3239 0.0
H1505 H 0.39121 0.33496 0.32689 0.0
H1506 H 0.31006 0.3308 0.35297 0.0
H1507 H 0.33436 0.39591 0.3503 0.0
C1508 C 0.31011 0.23816 0.35807 0.0
C1509 C 0.30369 0.21324 0.34821 0.0
C1510 C 0.32621 0.27536 0.35553 0.0
C1511 C 0.33585 0.28859 0.34301 0.0
C1512 C 0.33116 0.26387 0.33319 0.0
C1513 C 0.31527 0.22641 0.33579 0.0
C1514 C 0.39202 0.38547 0.33021 0.0
C1515 C 0.37696 0.40352 0.33701 0.0
C1516 C 0.3783 0.34793 0.33189 0.0
C1517 C 0.34919 0.3278 0.34035 0.0
C1518 C 0.3332 0.34567 0.34667 0.0
C1519 C 0.34701 0.38303 0.34507 0.0
H1520 H 0.60435 0.99931 0.32091 0.0
H1521 H 0.59696 0.96335 0.35996 0.0
H1522 H 0.67072 0.03641 0.32302 0.0
H1523 H 0.66277 0.00103 0.36214 0.0
H1524 H 0.78825 0.12194 0.33588 0.0
H1525 H 0.72159 0.08962 0.33352 0.0
H1526 H 0.71416 0.99759 0.35414 0.0
H1527 H 0.7799 0.02984 0.35674 0.0
C1528 C 0.6168 0.99966 0.32998 0.0
C1529 C 0.59539 0.97798 0.34022 0.0
C1530 C 0.6548 0.02107 0.3312 0.0
C1531 C 0.67207 0.02129 0.34269 0.0
C1532 C 0.65043 0.00079 0.35306 0.0
C1533 C 0.61262 0.97929 0.35182 0.0
C1534 C 0.77225 0.09481 0.33989 0.0
C1535 C 0.78929 0.0786 0.3466 0.0
C1536 C 0.73415 0.07627 0.33851 0.0
C1537 C 0.71254 0.04122 0.34379 0.0
C1538 C 0.72985 0.0249 0.35024 0.0
C1539 C 0.76766 0.04336 0.35166 0.0
H1540 H 0.97542 0.75368 0.35395 0.0
H1541 H 0.88072 0.66515 0.33574 0.0
H1542 H 0.00934 0.7222 0.3505 0.0
H1543 H 0.91477 0.63283 0.33254 0.0
H1544 H 0.00292 0.60526 0.3187 0.0
H1545 H 0.96651 0.63517 0.32097 0.0
H1546 H 0.00931 0.66952 0.35903 0.0
H1547 H 0.04625 0.64069 0.35668 0.0
C1548 C 0.96173 0.72731 0.34926 0.0
C1549 C 0.92524 0.71168 0.34524 0.0
C1550 C 0.98118 0.70916 0.34734 0.0
C1551 C 0.9646 0.67473 0.34144 0.0
C1552 C 0.92833 0.65939 0.33709 0.0
C1553 C 0.90881 0.67779 0.33895 0.0
C1554 C 0.00452 0.61919 0.32755 0.0
C1555 C 0.0278 0.62089 0.33746 0.0
C1556 C 0.98348 0.63612 0.32887 0.0
C1557 C 0.98527 0.65501 0.34013 0.0
C1558 C 0.00789 0.65589 0.35012 0.0
C1559 C 0.02898 0.63919 0.34879 0.0
H1560 H 0.60954 0.63283 0.85599 0.0
H1561 H 0.59422 0.58026 0.81933 0.0
H1562 H 0.67447 0.65334 0.85503 0.0
H1563 H 0.65908 0.6 0.81854 0.0
H1564 H 0.78332 0.68546 0.81522 0.0
H1565 H 0.71672 0.65604 0.81579 0.0
H1566 H 0.71776 0.63245 0.85585 0.0
H1567 H 0.7841 0.66269 0.85535 0.0
C1568 C 0.6199 0.62521 0.8478 0.0
C1569 C 0.59664 0.60499 0.83773 0.0
C1570 C 0.65714 0.63679 0.84728 0.0
C1571 C 0.67199 0.62827 0.8367 0.0
C1572 C 0.6486 0.60741 0.82674 0.0
C1573 C 0.61136 0.59593 0.82724 0.0
C1574 C 0.76921 0.67343 0.82407 0.0
C1575 C 0.78889 0.67676 0.83526 0.0
C1576 C 0.73105 0.65651 0.82441 0.0
C1577 C 0.71195 0.64239 0.83593 0.0
C1578 C 0.73166 0.64385 0.84691 0.0
C1579 C 0.76967 0.66098 0.8466 0.0
H1580 H 0.32186 0.10135 0.83134 0.0
H1581 H 0.25738 0.02651 0.86134 0.0
H1582 H 0.35295 0.06631 0.82792 0.0
H1583 H 0.2883 0.99177 0.85788 0.0
H1584 H 0.38198 0.96805 0.85917 0.0
H1585 H 0.3525 0.00459 0.86138 0.0
H1586 H 0.3383 0.00258 0.82054 0.0
H1587 H 0.36808 0.96591 0.81826 0.0
C1588 C 0.31423 0.0774 0.83715 0.0
C1589 C 0.28735 0.06681 0.84666 0.0
C1590 C 0.3319 0.05731 0.83515 0.0
C1591 C 0.3232 0.02657 0.84271 0.0
C1592 C 0.2959 0.01569 0.85205 0.0
C1593 C 0.27809 0.03551 0.85398 0.0
C1594 C 0.37282 0.97553 0.85063 0.0
C1595 C 0.37718 0.96391 0.83854 0.0
C1596 C 0.35574 0.99628 0.85192 0.0
C1597 C 0.34288 0.0061 0.84114 0.0
C1598 C 0.3481 0.99543 0.829 0.0
C1599 C 0.36495 0.97433 0.82771 0.0
H1600 H 0.87303 0.21956 0.83749 0.0
H1601 H 0.96565 0.22269 0.85624 0.0
H1602 H 0.90776 0.28627 0.83528 0.0
H1603 H 0.00017 0.28851 0.85383 0.0
H1604 H 0.0004 0.40254 0.82252 0.0
H1605 H 0.96125 0.33634 0.82435 0.0
H1606 H -0.00015 0.34089 0.86284 0.0
H1607 H 0.03941 0.40658 0.86094 0.0
C1608 C 0.9008 0.2344 0.84105 0.0
C1609 C 0.91645 0.21589 0.84715 0.0
C1610 C 0.9207 0.27255 0.83976 0.0
C1611 C 0.95655 0.29275 0.84455 0.0
C1612 C 0.97233 0.27394 0.85033 0.0
C1613 C 0.95254 0.23608 0.85164 0.0
C1614 C 0.0003 0.38943 0.83141 0.0
C1615 C 0.0234 0.40986 0.84153 0.0
C1616 C 0.97774 0.3515 0.83247 0.0
C1617 C 0.9778 0.33328 0.84368 0.0
C1618 C -0.00023 0.35397 0.85396 0.0
C1619 C 0.02235 0.39172 0.85289 0.0
H1620 H 0.6387 0.61042 0.64898 0.0
H1621 H 0.57772 0.59048 0.68406 0.0
H1622 H 0.65651 0.67472 0.65009 0.0
H1623 H 0.59507 0.65476 0.685 0.0
H1624 H 0.67945 0.77934 0.69004 0.0
H1625 H 0.65093 0.71298 0.68896 0.0
H1626 H 0.63261 0.7164 0.64857 0.0
H1627 H 0.66166 0.78267 0.64958 0.0
C1628 C 0.62875 0.61962 0.65685 0.0
C1629 C 0.6069 0.59525 0.66645 0.0
C1630 C 0.63875 0.65648 0.65744 0.0
C1631 C 0.62715 0.66984 0.66764 0.0
C1632 C 0.60473 0.64537 0.6771 0.0
C1633 C 0.59467 0.60848 0.67651 0.0
C1634 C 0.66871 0.76588 0.68098 0.0
C1635 C 0.67327 0.7863 0.66987 0.0
C1636 C 0.6523 0.72782 0.68036 0.0
C1637 C 0.64002 0.7095 0.66863 0.0
C1638 C 0.64253 0.72979 0.65769 0.0
C1639 C 0.65899 0.76776 0.65829 0.0
H1640 H 0.40412 0.03509 0.64662 0.0
H1641 H 0.39611 0.00118 0.68596 0.0
H1642 H 0.33853 0.99683 0.64427 0.0
H1643 H 0.32968 0.96317 0.68363 0.0
H1644 H 0.21246 0.87553 0.66906 0.0
H1645 H 0.2789 0.90858 0.67251 0.0
H1646 H 0.28739 0.00167 0.65235 0.0
H1647 H 0.2221 0.96894 0.64873 0.0
C1648 C 0.38836 0.01948 0.65479 0.0
C1649 C 0.40535 0.02164 0.66654 0.0
C1650 C 0.35068 0.9976 0.65345 0.0
C1651 C 0.32884 0.97748 0.66383 0.0
C1652 C 0.34583 0.97834 0.67546 0.0
C1653 C 0.38381 0.00023 0.6768 0.0
C1654 C 0.22866 0.90308 0.66542 0.0
C1655 C 0.21213 0.91942 0.65847 0.0
C1656 C 0.26659 0.92201 0.66742 0.0
C1657 C 0.28843 0.95749 0.66251 0.0
C1658 C 0.27152 0.97404 0.65596 0.0
C1659 C 0.23396 0.95525 0.65394 0.0
H1660 H 0.97076 0.37685 0.64403 0.0
H1661 H 0.99601 0.39396 0.68427 0.0
H1662 H 0.00998 0.3505 0.64184 0.0
H1663 H 0.03486 0.3665 0.68209 0.0
H1664 H 0.123 0.33636 0.66911 0.0
H1665 H 0.09131 0.37126 0.67206 0.0
H1666 H 0.00155 0.29214 0.64911 0.0
H1667 H 0.03292 0.25809 0.64602 0.0
C1668 C 0.9848 0.3751 0.65242 0.0
C1669 C 0.97978 0.38693 0.66437 0.0
C1670 C 0.00721 0.35989 0.65116 0.0
C1671 C 0.0249 0.35575 0.66184 0.0
C1672 C 0.02157 0.36936 0.67369 0.0
C1673 C 0.99922 0.38493 0.67494 0.0
C1674 C 0.09648 0.32655 0.66473 0.0
C1675 C 0.08067 0.29474 0.65721 0.0
C1676 C 0.07835 0.34642 0.66644 0.0
C1677 C 0.04426 0.33476 0.66063 0.0
C1678 C 0.02822 0.30241 0.65343 0.0
C1679 C 0.04619 0.28275 0.65172 0.0
H1680 H 0.88964 0.59595 0.48057 0.0
H1681 H 0.88078 0.68101 0.50025 0.0
H1682 H 0.95504 0.62857 0.484 0.0
H1683 H 0.94733 0.71441 0.50355 0.0
H1684 H 0.06527 0.73909 0.51673 0.0
H1685 H 0.99881 0.71127 0.51463 0.0
H1686 H 0.00593 0.68423 0.47542 0.0
H1687 H 0.07156 0.71105 0.47752 0.0
C1688 C 0.90168 0.62175 0.48562 0.0
C1689 C 0.88001 0.6361 0.48999 0.0
C1690 C 0.93931 0.64057 0.48753 0.0
C1691 C 0.95652 0.67446 0.49382 0.0
C1692 C 0.93483 0.68837 0.49864 0.0
C1693 C 0.89681 0.66933 0.49674 0.0
C1694 C 0.05262 0.7275 0.50763 0.0
C1695 C 0.0737 0.7268 0.49735 0.0
C1696 C 0.01459 0.71169 0.50643 0.0
C1697 C 0.99705 0.69496 0.49493 0.0
C1698 C 0.01847 0.69605 0.48451 0.0
C1699 C 0.0562 0.71161 0.48571 0.0
H1700 H 0.31331 0.20874 0.485 0.0
H1701 H 0.36035 0.24738 0.52226 0.0
H1702 H 0.28351 0.24524 0.4861 0.0
H1703 H 0.33228 0.2856 0.52314 0.0
H1704 H 0.26307 0.33909 0.5242 0.0
H1705 H 0.28018 0.29194 0.52453 0.0
H1706 H 0.30268 0.30732 0.48406 0.0
H1707 H 0.28384 0.35297 0.48366 0.0
C1708 C 0.31698 0.2249 0.49348 0.0
C1709 C 0.33927 0.22552 0.50351 0.0
C1710 C 0.30022 0.2461 0.49407 0.0
C1711 C 0.30607 0.26904 0.50459 0.0
C1712 C 0.32687 0.2681 0.51493 0.0
C1713 C 0.34307 0.24626 0.51444 0.0
C1714 C 0.27142 0.33213 0.51536 0.0
C1715 C 0.27216 0.34974 0.5039 0.0
C1716 C 0.28139 0.30522 0.51556 0.0
C1717 C 0.29284 0.29571 0.50433 0.0
C1718 C 0.29325 0.31323 0.49285 0.0
C1719 C 0.28274 0.33969 0.49263 0.0
H1720 H 0.6282 0.92975 0.52291 0.0
H1721 H 0.65595 0.91697 0.48432 0.0
H1722 H 0.67482 0.99429 0.52236 0.0
H1723 H 0.70336 0.98096 0.48394 0.0
H1724 H 0.75024 0.10344 0.48148 0.0
H1725 H 0.70716 0.0386 0.4828 0.0
H1726 H 0.73937 0.03765 0.52187 0.0
H1727 H 0.78204 0.10349 0.52067 0.0
C1728 C 0.64444 0.94064 0.51435 0.0
C1729 C 0.63805 0.91831 0.5036 0.0
C1730 C 0.6714 0.97759 0.51407 0.0
C1731 C 0.69275 0.99296 0.50308 0.0
C1732 C 0.68694 0.97029 0.49247 0.0
C1733 C 0.6598 0.93351 0.4927 0.0
C1734 C 0.74839 0.08951 0.49037 0.0
C1735 C 0.76965 0.10874 0.50099 0.0
C1736 C 0.72375 0.05212 0.49109 0.0
C1737 C 0.71985 0.03273 0.50241 0.0
C1738 C 0.7414 0.05182 0.51303 0.0
C1739 C 0.76602 0.08949 0.51233 0.0
H1740 H 0.0857 0.74927 0.68683 0.0
H1741 H 0.01306 0.73567 0.65563 0.0
H1742 H 0.05745 0.68277 0.68857 0.0
H1743 H 0.98451 0.66933 0.65759 0.0
H1744 H 0.91481 0.55942 0.68054 0.0
H1745 H 0.94628 0.62529 0.67674 0.0
H1746 H 0.04901 0.62712 0.67362 0.0
H1747 H 0.01739 0.56083 0.67716 0.0
C1748 C 0.06383 0.73211 0.68033 0.0
C1749 C 0.0515 0.74764 0.67112 0.0
C1750 C 0.04787 0.69416 0.68128 0.0
C1751 C 0.01886 0.67114 0.67322 0.0
C1752 C 0.00679 0.68661 0.66393 0.0
C1753 C 0.0232 0.72451 0.66281 0.0
C1754 C 0.94408 0.57385 0.67898 0.0
C1755 C 0.96374 0.55514 0.67917 0.0
C1756 C 0.96199 0.61142 0.67674 0.0
C1757 C -2e-05 0.63109 0.67491 0.0
C1758 C 0.01969 0.61244 0.67505 0.0
C1759 C 0.00162 0.57463 0.67701 0.0
H1760 H 0.24816 0.30943 0.69193 0.0
H1761 H 0.26153 0.30164 0.65138 0.0
H1762 H 0.31426 0.34618 0.69436 0.0
H1763 H 0.32784 0.33843 0.65388 0.0
H1764 H 0.44294 0.43749 0.66342 0.0
H1765 H 0.3767 0.4027 0.66021 0.0
H1766 H 0.36616 0.33365 0.69217 0.0
H1767 H 0.43202 0.36818 0.69541 0.0
C1768 C 0.26517 0.31574 0.68352 0.0
C1769 C 0.24962 0.30249 0.67147 0.0
C1770 C 0.30303 0.33659 0.68494 0.0
C1771 C 0.32614 0.34494 0.67432 0.0
C1772 C 0.31063 0.33254 0.66221 0.0
C1773 C 0.27271 0.31134 0.6608 0.0
C1774 C 0.42646 0.41482 0.66973 0.0
C1775 C 0.44269 0.40565 0.67969 0.0
C1776 C 0.38862 0.39486 0.66786 0.0
C1777 C 0.36634 0.36567 0.676 0.0
C1778 C 0.38264 0.35635 0.68587 0.0
C1779 C 0.4204 0.37601 0.68766 0.0
H1780 H 0.72109 0.98398 0.65416 0.0
H1781 H 0.66171 0.91236 0.68552 0.0
H1782 H 0.68325 0.01265 0.6558 0.0
H1783 H 0.62347 0.94061 0.68695 0.0
H1784 H 0.54191 0.9803 0.67614 0.0
H1785 H 0.57634 0.94876 0.67195 0.0
H1786 H 0.67751 0.05137 0.67489 0.0
H1787 H 0.64334 0.08273 0.67934 0.0
C1788 C 0.6997 0.97409 0.66129 0.0
C1789 C 0.69445 0.9461 0.66976 0.0
C1790 C 0.67817 0.99053 0.66224 0.0
C1791 C 0.65051 0.97871 0.67148 0.0
C1792 C 0.64447 0.94996 0.67968 0.0
C1793 C 0.66648 0.93402 0.67891 0.0
C1794 C 0.57148 0.99608 0.67576 0.0
C1795 C 0.59004 0.03385 0.67813 0.0
C1796 C 0.59109 0.97807 0.67342 0.0
C1797 C 0.62947 0.99774 0.67311 0.0
C1798 C 0.64791 0.03569 0.67501 0.0
C1799 C 0.62839 0.05353 0.67762 0.0
H1800 H 0.25321 0.95055 0.19574 0.0
H1801 H 0.25959 0.93214 0.1555 0.0
H1802 H 0.31909 0.97824 0.1975 0.0
H1803 H 0.32607 0.96082 0.15725 0.0
H1804 H 0.44521 0.99222 0.16895 0.0
H1805 H 0.3784 0.95699 0.1667 0.0
H1806 H 0.36927 0.03596 0.19021 0.0
H1807 H 0.43499 0.07038 0.19261 0.0
C1808 C 0.26863 0.95228 0.18726 0.0
C1809 C 0.25107 0.93951 0.17544 0.0
C1810 C 0.30649 0.96833 0.18826 0.0
C1811 C 0.32792 0.97231 0.17747 0.0
C1812 C 0.31033 0.95807 0.16575 0.0
C1813 C 0.27224 0.94179 0.16474 0.0
C1814 C 0.42881 0.00193 0.17362 0.0
C1815 C 0.44543 0.03393 0.18104 0.0
C1816 C 0.39062 0.98185 0.1723 0.0
C1817 C 0.36849 0.9934 0.17843 0.0
C1818 C 0.38536 0.02576 0.18562 0.0
C1819 C 0.42321 0.04568 0.18692 0.0
H1820 H 0.93416 0.37022 0.19493 0.0
H1821 H 0.99138 0.44378 0.16374 0.0
H1822 H 0.97044 0.3409 0.19202 0.0
H1823 H 0.02822 0.41422 0.16089 0.0
H1824 H 0.05032 0.31742 0.1519 0.0
H1825 H 0.01954 0.35305 0.15414 0.0
H1826 H 0.03434 0.35601 0.19496 0.0
H1827 H 0.06458 0.32017 0.1928 0.0
C1828 C 0.9546 0.38027 0.18746 0.0
C1829 C 0.95993 0.40943 0.17958 0.0
C1830 C 0.97559 0.36356 0.18586 0.0
C1831 C 0.00241 0.37546 0.17631 0.0
C1832 C 0.00765 0.40443 0.16831 0.0
C1833 C 0.98669 0.42141 0.16997 0.0
C1834 C 0.04725 0.32591 0.16134 0.0
C1835 C 0.05956 0.31557 0.17219 0.0
C1836 C 0.02982 0.34652 0.16261 0.0
C1837 C 0.02422 0.35701 0.17473 0.0
C1838 C 0.03774 0.34781 0.1855 0.0
C1839 C 0.05523 0.32739 0.18425 0.0
H1840 H 0.64924 0.56628 0.17552 0.0
H1841 H 0.54622 0.56456 0.17619 0.0
H1842 H 0.68139 0.63225 0.17197 0.0
H1843 H 0.57875 0.63115 0.17296 0.0
H1844 H 0.6674 0.75289 0.18725 0.0
H1845 H 0.62925 0.68618 0.18798 0.0
H1846 H 0.68189 0.67759 0.15397 0.0
H1847 H 0.71948 0.74415 0.15303 0.0
C1848 C 0.63348 0.58005 0.17483 0.0
C1849 C 0.59529 0.56044 0.17613 0.0
C1850 C 0.65186 0.61771 0.17276 0.0
C1851 C 0.63249 0.63664 0.17222 0.0
C1852 C 0.59422 0.61705 0.17337 0.0
C1853 C 0.57567 0.57909 0.17514 0.0
C1854 C 0.67057 0.73678 0.17987 0.0
C1855 C 0.69658 0.75376 0.17012 0.0
C1856 C 0.64859 0.6987 0.18024 0.0
C1857 C 0.65273 0.67693 0.17103 0.0
C1858 C 0.67827 0.69386 0.16119 0.0
C1859 C 0.69971 0.73191 0.16066 0.0
H1860 H 0.29724 0.92326 0.98046 0.0
H1861 H 0.26054 0.92846 0.0185 0.0
H1862 H 0.32489 0.98898 0.97845 0.0
H1863 H 0.28915 0.9949 0.01652 0.0
H1864 H 0.31797 0.11104 1.0015 0.0
H1865 H 0.28633 0.04468 0.00472 0.0
H1866 H 0.37773 0.0412 0.98779 0.0
H1867 H 0.40875 0.10672 0.98439 0.0
C1868 C 0.29504 0.9384 0.98841 0.0
C1869 C 0.27695 0.92056 0.99969 0.0
C1870 C 0.31111 0.97618 0.98728 0.0
C1871 C 0.30971 0.99721 0.9974 0.0
C1872 C 0.2906 0.97939 0.00855 0.0
C1873 C 0.27435 0.94138 0.00969 0.0
C1874 C 0.33128 0.09601 0.99855 0.0
C1875 C 0.36559 0.11398 0.99253 0.0
C1876 C 0.31324 0.0581 1.00043 0.0
C1877 C 0.32929 0.03765 0.99632 0.0
C1878 C 0.36421 0.05601 0.99076 0.0
C1879 C 0.38207 0.09364 0.98886 0.0
H1880 H 0.09314 0.37012 0.9795 0.0
H1881 H 0.07942 0.36897 0.02039 0.0
H1882 H 0.02732 0.3319 0.97692 0.0
H1883 H 0.01328 0.3308 0.01774 0.0
H1884 H 0.89906 0.23229 0.00694 0.0
H1885 H 0.96523 0.26798 0.01035 0.0
H1886 H 0.97433 0.3412 0.98001 0.0
H1887 H 0.90872 0.30575 0.97655 0.0
C1888 C 0.07612 0.3616 0.98795 0.0
C1889 C 0.09155 0.3728 1.00015 0.0
C1890 C 0.03837 0.33986 0.98646 0.0
C1891 C 0.01514 0.32861 0.99713 0.0
C1892 C 0.03055 0.33893 0.00936 0.0
C1893 C 0.06839 0.36094 0.01085 0.0
C1894 C 0.91523 0.25605 1.00102 0.0
C1895 C 0.89866 0.26608 0.99144 0.0
C1896 C 0.95304 0.27653 0.00301 0.0
C1897 C 0.97494 0.3072 0.99538 0.0
C1898 C 0.95825 0.31737 0.9859 0.0
C1899 C 0.92057 0.29713 0.98398 0.0
H1900 H 0.77923 0.65404 0.0062 0.0
H1901 H 0.71045 0.60622 0.97312 0.0
H1902 H 0.75006 0.69095 0.01002 0.0
H1903 H 0.68163 0.64251 0.97695 0.0
H1904 H 0.66171 0.73671 0.9789 0.0
H1905 H 0.69826 0.70744 0.97608 0.0
H1906 H 0.68734 0.68057 0.01616 0.0
H1907 H 0.65095 0.71035 0.01909 0.0
C1908 C 0.75806 0.65149 0.99975 0.0
C1909 C 0.7472 0.62726 0.98935 0.0
C1910 C 0.7413 0.67246 1.00196 0.0
C1911 C 0.71379 0.66982 0.99371 0.0
C1912 C 0.70316 0.64564 0.98334 0.0
C1913 C 0.71957 0.62462 0.98121 0.0
C1914 C 0.66732 0.7249 0.98716 0.0
C1915 C 0.653 0.7255 0.9992 0.0
C1916 C 0.68819 0.70802 0.98552 0.0
C1917 C 0.69534 0.69139 0.99587 0.0
C1918 C 0.68242 0.69332 0.00803 0.0
C1919 C 0.66136 0.71015 0.00967 0.0
H1920 H 0.73155 0.07103 0.81522 0.0
H1921 H 0.72503 0.02978 0.85344 0.0
H1922 H 0.66494 0.04382 0.81489 0.0
H1923 H 0.65843 0.00177 0.85287 0.0
H1924 H 0.54795 0.91206 0.83061 0.0
H1925 H 0.61369 0.94772 0.83468 0.0
H1926 H 0.61032 0.04756 0.83052 0.0
H1927 H 0.54386 0.01169 0.82688 0.0
C1928 C 0.71594 0.05646 0.82357 0.0
C1929 C 0.73341 0.05233 0.83432 0.0
C1930 C 0.67799 0.04119 0.8234 0.0
C1931 C 0.65691 0.02096 0.83387 0.0
C1932 C 0.67433 0.0175 0.84473 0.0
C1933 C 0.71233 0.03347 0.84502 0.0
C1934 C 0.56117 0.94162 0.83079 0.0
C1935 C 0.54111 0.95928 0.82844 0.0
C1936 C 0.59861 0.96192 0.83315 0.0
C1937 C 0.61675 0.0002 0.83288 0.0
C1938 C 0.59666 0.018 0.83079 0.0
C1939 C 0.55886 0.99759 0.82877 0.0
H1940 H 0.93516 0.67998 0.85591 0.0
H1941 H 0.96267 0.70002 0.81591 0.0
H1942 H 0.95513 0.63515 0.85625 0.0
H1943 H 0.98436 0.65642 0.81637 0.0
H1944 H 0.99174 0.55403 0.81759 0.0
H1945 H 0.96567 0.59396 0.81769 0.0
H1946 H 0.00795 0.63 0.85574 0.0
H1947 H 0.0325 0.58872 0.85581 0.0
C1948 C 0.94572 0.67499 0.8472 0.0
C1949 C 0.94728 0.69354 0.83587 0.0
C1950 C 0.95741 0.64939 0.84741 0.0
C1951 C 0.97146 0.64208 0.83635 0.0
C1952 C 0.97306 0.66075 0.82502 0.0
C1953 C 0.96087 0.68599 0.82477 0.0
C1954 C 0.9951 0.57022 0.82602 0.0
C1955 C 0.01419 0.5683 0.83669 0.0
C1956 C 0.98043 0.59338 0.82604 0.0
C1957 C 0.985 0.61561 0.83666 0.0
C1958 C 0.00343 0.61299 0.84745 0.0
C1959 C 0.01763 0.58939 0.84749 0.0
H1960 H 0.29113 0.26932 0.81714 0.0
H1961 H 0.33891 0.25215 0.85104 0.0
H1962 H 0.33654 0.33394 0.81761 0.0
H1963 H 0.38508 0.31681 0.85129 0.0
H1964 H 0.43229 0.44201 0.85532 0.0
H1965 H 0.39079 0.37594 0.85526 0.0
H1966 H 0.40045 0.37465 0.81424 0.0
H1967 H 0.44081 0.44048 0.81428 0.0
C1968 C 0.31155 0.27923 0.82462 0.0
C1969 C 0.31136 0.25553 0.83404 0.0
C1970 C 0.33776 0.3163 0.82485 0.0
C1971 C 0.36457 0.33052 0.83446 0.0
C1972 C 0.36456 0.30678 0.84384 0.0
C1973 C 0.33821 0.26969 0.84365 0.0
C1974 C 0.42579 0.42748 0.84633 0.0
C1975 C 0.43943 0.44641 0.8348 0.0
C1976 C 0.40212 0.38964 0.84628 0.0
C1977 C 0.39195 0.37011 0.83472 0.0
C1978 C 0.40701 0.38898 0.82328 0.0
C1979 C 0.43032 0.42669 0.82331 0.0
H1980 H 0.65731 0.88495 0.99571 0.0
H1981 H 0.65092 0.90228 0.03597 0.0
H1982 H 0.68644 0.95107 0.99206 0.0
H1983 H 0.68106 0.96775 0.0325 0.0
H1984 H 0.68472 0.07165 0.021 0.0
H1985 H 0.66192 0.00689 0.02355 0.0
H1986 H 0.73913 0.01202 0.99544 0.0
H1987 H 0.76142 0.07734 0.99254 0.0
C1988 C 0.66286 0.90297 0.00378 0.0
C1989 C 0.65141 0.88859 0.01608 0.0
C1990 C 0.67957 0.94078 1.00172 0.0
C1991 C 0.68538 0.96467 0.01196 0.0
C1992 C 0.67596 0.95014 0.02434 0.0
C1993 C 0.65888 0.91259 0.02635 0.0
C1994 C 0.69703 0.05915 0.01536 0.0
C1995 C 0.72514 0.07983 0.00664 0.0
C1996 C 0.68406 0.02192 0.01689 0.0
C1997 C 0.69908 0.00427 0.00986 0.0
C1998 C 0.72689 0.02475 1.00098 0.0
C1999 C 0.73976 0.06218 0.99936 0.0
H2000 H 0.92436 0.60275 0.98746 0.0
H2001 H 0.909 0.66043 0.0187 0.0
H2002 H 0.99063 0.6414 0.9896 0.0
H2003 H 0.97536 0.69954 0.02061 0.0
H2004 H 0.09721 0.783 0.0099 0.0
H2005 H 0.0312 0.74768 0.00576 0.0
H2006 H 0.03428 0.64746 0.00905 0.0
H2007 H 0.09981 0.6825 0.01346 0.0
C2008 C 0.93512 0.62393 0.99468 0.0
C2009 C 0.91154 0.62847 0.00296 0.0
C2010 C 0.97297 0.64593 0.9959 0.0
C2011 C 0.98789 0.67336 0.00524 0.0
C2012 C 0.96439 0.67869 0.01328 0.0
C2013 C 0.92653 0.6562 0.01223 0.0
C2014 C 0.08376 0.75345 0.00963 0.0
C2015 C 0.10345 0.73541 0.01205 0.0
C2016 C 0.04611 0.73333 0.00733 0.0
C2017 C 0.02788 0.69496 0.0071 0.0
C2018 C 0.04783 0.67703 0.00911 0.0
C2019 C 0.0852 0.69706 0.0117 0.0
H2020 H 0.26941 0.38984 0.01661 0.0
H2021 H 0.18435 0.30008 0.99519 0.0
H2022 H 0.30694 0.36144 0.01549 0.0
H2023 H 0.22264 0.27158 0.99404 0.0
H2024 H 0.32843 0.26368 0.98373 0.0
H2025 H 0.28534 0.28637 0.98427 0.0
H2026 H 0.30215 0.30387 0.02486 0.0
H2027 H 0.3451 0.28134 0.02439 0.0
C2028 C 0.25868 0.36405 0.01161 0.0
C2029 C 0.22372 0.34712 0.00603 0.0
C2030 C 0.28019 0.3477 0.01106 0.0
C2031 C 0.2675 0.31416 0.00481 0.0
C2032 C 0.23298 0.29748 0.99893 0.0
C2033 C 0.2111 0.31373 0.99961 0.0
C2034 C 0.32274 0.27213 0.99278 0.0
C2035 C 0.34047 0.27103 0.004 0.0
C2036 C 0.2979 0.28486 0.99309 0.0
C2037 C 0.29068 0.29707 0.00458 0.0
C2038 C 0.30758 0.29498 0.01584 0.0
C2039 C 0.33208 0.28197 0.01557 0.0
H2040 H 0.11135 0.41924 0.52146 0.0
H2041 H 0.11766 0.32891 0.50492 0.0
H2042 H 0.04589 0.38734 0.51783 0.0
H2043 H 0.05142 0.29632 0.50153 0.0
H2044 H 0.93592 0.26689 0.48695 0.0
H2045 H 0.00222 0.29731 0.4894 0.0
H2046 H 0.99307 0.3352 0.52675 0.0
H2047 H 0.92724 0.30574 0.52422 0.0
C2048 C 0.09871 0.39245 0.51707 0.0
C2049 C 0.1196 0.37641 0.51359 0.0
C2050 C 0.0611 0.37407 0.51505 0.0
C2051 C 0.04333 0.33903 0.50958 0.0
C2052 C 0.06434 0.32334 0.50573 0.0
C2053 C 0.10221 0.34193 0.5077 0.0
C2054 C 0.94807 0.28162 0.4957 0.0
C2055 C 0.92627 0.28415 0.50534 0.0
C2056 C 0.98604 0.2989 0.49712 0.0
C2057 C 0.00294 0.31899 0.5082 0.0
C2058 C 0.981 0.32062 0.51796 0.0
C2059 C 0.94318 0.30354 0.51654 0.0
H2060 H 0.67497 0.79619 0.50953 0.0
H2061 H 0.57624 0.69117 0.51212 0.0
H2062 H 0.70995 0.76535 0.50475 0.0
H2063 H 0.61081 0.66075 0.50695 0.0
H2064 H 0.68237 0.62548 0.48452 0.0
H2065 H 0.6526 0.6621 0.48674 0.0
H2066 H 0.71899 0.71557 0.51974 0.0
H2067 H 0.74832 0.67831 0.51777 0.0
C2068 C 0.66073 0.76665 0.50885 0.0
C2069 C 0.623 0.746 0.51121 0.0
C2070 C 0.68069 0.7491 0.50618 0.0
C2071 C 0.66293 0.71078 0.50548 0.0
C2072 C 0.62503 0.69033 0.50737 0.0
C2073 C 0.60533 0.70773 0.51036 0.0
C2074 C 0.69092 0.64529 0.49218 0.0
C2075 C 0.71751 0.64885 0.50104 0.0
C2076 C 0.67387 0.66618 0.49343 0.0
C2077 C 0.68367 0.69161 0.50338 0.0
C2078 C 0.71125 0.69631 0.51193 0.0
C2079 C 0.72779 0.67484 0.51085 0.0
H2080 H 0.22133 0.90116 0.50326 0.0
H2081 H 0.31118 0.89873 0.52199 0.0
H2082 H 0.26003 0.96689 0.49982 0.0
H2083 H 0.34995 0.96387 0.51827 0.0
H2084 H 0.39483 0.08576 0.52347 0.0
H2085 H 0.35636 0.02007 0.52598 0.0
H2086 H 0.31258 0.01251 0.48814 0.0
H2087 H 0.35042 0.07855 0.48573 0.0
C2088 C 0.2494 0.91458 0.50653 0.0
C2089 C 0.26309 0.89483 0.513 0.0
C2090 C 0.27164 0.9522 0.50451 0.0
C2091 C 0.30804 0.97073 0.50886 0.0
C2092 C 0.32185 0.95066 0.51504 0.0
C2093 C 0.29963 0.91323 0.51712 0.0
C2094 C 0.3771 0.07015 0.51566 0.0
C2095 C 0.37576 0.08751 0.5044 0.0
C2096 C 0.35514 0.03238 0.51707 0.0
C2097 C 0.33142 0.01094 0.50724 0.0
C2098 C 0.3302 0.02825 0.49595 0.0
C2099 C 0.35209 0.0661 0.49455 0.0
H2100 H 0.9982 0.44151 0.33771 0.0
H2101 H 0.04562 0.42796 0.30307 0.0
H2102 H 0.96791 0.37543 0.34146 0.0
H2103 H 0.01569 0.36257 0.30684 0.0
H2104 H 0.9275 0.24445 0.30978 0.0
H2105 H 0.95213 0.30982 0.30703 0.0
H2106 H 0.9863 0.32789 0.34645 0.0
H2107 H 0.96134 0.26219 0.3493 0.0
C2108 C 0.0021 0.42448 0.33091 0.0
C2109 C 0.02424 0.43993 0.32009 0.0
C2110 C 0.98492 0.38676 0.33308 0.0
C2111 C 0.98929 0.36389 0.32439 0.0
C2112 C 0.01138 0.37943 0.3136 0.0
C2113 C 0.02872 0.41698 0.3115 0.0
C2114 C 0.93999 0.26224 0.31791 0.0
C2115 C 0.94277 0.24814 0.32973 0.0
C2116 C 0.95422 0.29971 0.31631 0.0
C2117 C 0.97139 0.32393 0.3265 0.0
C2118 C 0.97303 0.3098 0.33846 0.0
C2119 C 0.95896 0.27224 0.34005 0.0
H2120 H 0.74017 0.7203 0.34875 0.0
H2121 H 0.75275 0.66214 0.31704 0.0
H2122 H 0.67396 0.68098 0.34759 0.0
H2123 H 0.68624 0.62238 0.31606 0.0
H2124 H 0.56481 0.53961 0.32786 0.0
H2125 H 0.63133 0.57438 0.3311 0.0
H2126 H 0.62891 0.67517 0.32915 0.0
H2127 H 0.56299 0.64076 0.32568 0.0
C2128 C 0.72885 0.69889 0.34162 0.0
C2129 C 0.75165 0.69448 0.33291 0.0
C2130 C 0.69099 0.67646 0.34097 0.0
C2131 C 0.67518 0.64877 0.33175 0.0
C2132 C 0.6979 0.64343 0.32331 0.0
C2133 C 0.73585 0.66631 0.32382 0.0
C2134 C 0.57856 0.56917 0.32825 0.0
C2135 C 0.55892 0.58758 0.32649 0.0
C2136 C 0.61648 0.58897 0.33003 0.0
C2137 C 0.63503 0.62735 0.33037 0.0
C2138 C 0.61515 0.64559 0.329 0.0
C2139 C 0.57752 0.62591 0.32696 0.0
H2140 H 0.33955 0.08984 0.31897 0.0
H2141 H 0.27381 0.01056 0.34767 0.0
H2142 H 0.37826 0.06204 0.31748 0.0
H2143 H 0.31215 0.98263 0.34599 0.0
H2144 H 0.35788 0.91788 0.3234 0.0
H2145 H 0.32253 0.9484 0.32694 0.0
H2146 H 0.42233 0.05081 0.33277 0.0
H2147 H 0.45795 0.02009 0.32945 0.0
C2148 C 0.33343 0.06657 0.32496 0.0
C2149 C 0.30358 0.05227 0.3334 0.0
C2150 C 0.35569 0.05088 0.32417 0.0
C2151 C 0.34807 0.02027 0.33162 0.0
C2152 C 0.31845 0.00616 0.34012 0.0
C2153 C 0.29661 0.0222 0.34108 0.0
C2154 C 0.37229 0.94686 0.32553 0.0
C2155 C 0.41062 0.96667 0.32614 0.0
C2156 C 0.35206 0.96423 0.3276 0.0
C2157 C 0.36979 0.00188 0.33009 0.0
C2158 C 0.40812 0.02175 0.3308 0.0
C2159 C 0.4284 0.00418 0.32898 0.0
H2160 H 0.115 0.32112 0.05012 0.0
H2161 H 0.20483 0.42563 0.06191 0.0
H2162 H 0.10489 0.30039 0.07215 0.0
H2163 H 0.19528 0.40449 0.084 0.0
H2164 H 0.1425 0.36864 0.12328 0.0
H2165 H 0.15262 0.38928 0.10125 0.0
H2166 H 0.1315 0.28279 0.08905 0.0
H2167 H 0.12043 0.26177 0.11117 0.0
C2168 C 0.13272 0.33968 0.05742 0.0
C2169 C 0.16071 0.3751 0.05425 0.0
C2170 C 0.12707 0.32764 0.07006 0.0
C2171 C 0.14933 0.35066 0.07987 0.0
C2172 C 0.17732 0.38617 0.07671 0.0
C2173 C 0.18291 0.39827 0.06404 0.0
C2174 C 0.13996 0.34954 0.11592 0.0
C2175 C 0.1306 0.31349 0.11899 0.0
C2176 C 0.14604 0.36151 0.10327 0.0
C2177 C 0.14304 0.3378 0.09336 0.0
C2178 C 0.13362 0.30168 0.09643 0.0
C2179 C 0.12741 0.28964 0.10911 0.0
H2180 H 0.70188 0.80123 0.05046 0.0
H2181 H 0.59525 0.78436 0.06033 0.0
H2182 H 0.72041 0.8137 0.07271 0.0
H2183 H 0.61413 0.79777 0.08259 0.0
H2184 H 0.64718 0.78473 0.12288 0.0
H2185 H 0.62864 0.77243 0.10067 0.0
H2186 H 0.73526 0.85904 0.08909 0.0
H2187 H 0.75421 0.87079 0.11142 0.0
C2188 C 0.68238 0.80026 0.05738 0.0
C2189 C 0.64702 0.7917 0.05362 0.0
C2190 C 0.69314 0.80772 0.07014 0.0
C2191 C 0.66887 0.80693 0.07946 0.0
C2192 C 0.63341 0.79819 0.0757 0.0
C2193 C 0.62259 0.7906 0.06292 0.0
C2194 C 0.66674 0.80123 0.11561 0.0
C2195 C 0.70224 0.82874 0.11893 0.0
C2196 C 0.65597 0.7943 0.10285 0.0
C2197 C 0.68038 0.81476 0.09306 0.0
C2198 C 0.7159 0.84242 0.09638 0.0
C2199 C 0.72673 0.84931 0.10918 0.0
H2200 H 0.22216 0.86215 0.12278 0.0
H2201 H 0.13294 0.88059 0.11371 0.0
H2202 H 0.23018 0.85452 0.10024 0.0
H2203 H 0.14022 0.87183 0.09111 0.0
H2204 H 0.18651 0.88931 0.05079 0.0
H2205 H 0.18011 0.89923 0.07327 0.0
H2206 H 0.20105 0.81211 0.08323 0.0
H2207 H 0.20857 0.80297 0.06071 0.0
C2208 C 0.20415 0.86448 0.11597 0.0
C2209 C 0.17688 0.87195 0.12004 0.0
C2210 C 0.2086 0.85983 0.10303 0.0
C2211 C 0.18571 0.86229 0.09384 0.0
C2212 C 0.15863 0.87017 0.09791 0.0
C2213 C 0.15435 0.87506 0.11087 0.0
C2214 C 0.18981 0.87229 0.05777 0.0
C2215 C 0.19811 0.84537 0.05396 0.0
C2216 C 0.1859 0.87784 0.07068 0.0
C2217 C 0.18999 0.85646 0.08009 0.0
C2218 C 0.19826 0.82948 0.07626 0.0
C2219 C 0.2024 0.82408 0.06334 0.0
H2220 H 0.40951 0.19258 0.44233 0.0
H2221 H 0.30373 0.10666 0.45495 0.0
H2222 H 0.38886 0.17927 0.42021 0.0
H2223 H 0.28345 0.09293 0.43291 0.0
H2224 H 0.24693 0.10663 0.39309 0.0
H2225 H 0.26765 0.11915 0.4152 0.0
H2226 H 0.3721 0.13279 0.40393 0.0
H2227 H 0.35173 0.12106 0.38184 0.0
C2228 C 0.38198 0.1707 0.44039 0.0
C2229 C 0.35826 0.15077 0.45041 0.0
C2230 C 0.37018 0.16296 0.42771 0.0
C2231 C 0.33443 0.13508 0.42479 0.0
C2232 C 0.31093 0.11495 0.43482 0.0
C2233 C 0.32268 0.12271 0.44747 0.0
C2234 C 0.27424 0.11213 0.39535 0.0
C2235 C 0.29767 0.11288 0.3857 0.0
C2236 C 0.28609 0.11919 0.40803 0.0
C2237 C 0.32161 0.12709 0.41134 0.0
C2238 C 0.34482 0.1274 0.40169 0.0
C2239 C 0.333 0.12039 0.38903 0.0
H2240 H 0.89741 0.1337 0.39083 0.0
H2241 H 0.89019 0.22929 0.38118 0.0
H2242 H 0.88881 0.14253 0.41332 0.0
H2243 H 0.88261 0.23865 0.40358 0.0
H2244 H 0.82596 0.21894 0.44214 0.0
H2245 H 0.83709 0.21119 0.41989 0.0
H2246 H 0.91734 0.18202 0.43148 0.0
H2247 H 0.90549 0.18885 0.45377 0.0
C2248 C 0.89439 0.1568 0.39352 0.0
C2249 C 0.89425 0.18065 0.38421 0.0
C2250 C 0.88961 0.16197 0.40641 0.0
C2251 C 0.88476 0.19118 0.41026 0.0
C2252 C 0.88552 0.21546 0.40094 0.0
C2253 C 0.8901 0.2102 0.38809 0.0
C2254 C 0.84608 0.21101 0.43995 0.0
C2255 C 0.86481 0.2045 0.44973 0.0
C2256 C 0.85261 0.20672 0.42717 0.0
C2257 C 0.87817 0.19601 0.42388 0.0
C2258 C 0.89712 0.18981 0.43368 0.0
C2259 C 0.89049 0.19396 0.44646 0.0
H2260 H 0.77816 0.65171 0.38042 0.0
H2261 H 0.86734 0.75702 0.39188 0.0
H2262 H 0.76764 0.63203 0.40255 0.0
H2263 H 0.85739 0.7369 0.41411 0.0
H2264 H 0.80308 0.7018 0.45335 0.0
H2265 H 0.81441 0.72205 0.43126 0.0
H2266 H 0.79406 0.61534 0.41966 0.0
H2267 H 0.78172 0.59475 0.44179 0.0
C2268 C 0.79568 0.67066 0.38767 0.0
C2269 C 0.8236 0.70598 0.38438 0.0
C2270 C 0.78979 0.65923 0.40037 0.0
C2271 C 0.81176 0.68276 0.41013 0.0
C2272 C 0.83967 0.71819 0.40685 0.0
C2273 C 0.84549 0.72971 0.39411 0.0
C2274 C 0.80099 0.6826 0.44609 0.0
C2275 C 0.79136 0.64658 0.44933 0.0
C2276 C 0.80776 0.69434 0.43342 0.0
C2277 C 0.80521 0.67039 0.42366 0.0
C2278 C 0.79576 0.63438 0.42691 0.0
C2279 C 0.78884 0.62258 0.4396 0.0
H2280 H 0.86558 0.64297 0.88244 0.0
H2281 H 0.88437 0.74814 0.89528 0.0
H2282 H 0.85443 0.62078 0.90424 0.0
H2283 H 0.87225 0.72548 0.91724 0.0
H2284 H 0.88719 0.68402 0.95601 0.0
H2285 H 0.89807 0.70711 0.93426 0.0
H2286 H 0.81024 0.60322 0.92103 0.0
H2287 H 0.79992 0.57976 0.94282 0.0
C2288 C 0.86718 0.66139 0.88992 0.0
C2289 C 0.87587 0.69739 0.8871 0.0
C2290 C 0.86048 0.64849 0.90245 0.0
C2291 C 0.86215 0.67118 0.91252 0.0
C2292 C 0.87107 0.70734 0.90972 0.0
C2293 C 0.8779 0.72033 0.89714 0.0
C2294 C 0.87018 0.66602 0.94847 0.0
C2295 C 0.84276 0.62994 0.95116 0.0
C2296 C 0.87627 0.67942 0.93599 0.0
C2297 C 0.85504 0.65712 0.92586 0.0
C2298 C 0.82747 0.62103 0.92856 0.0
C2299 C 0.82144 0.60757 0.94107 0.0
H2300 H 0.35956 0.21578 0.88234 0.0
H2301 H 0.2501 0.13303 0.89289 0.0
H2302 H 0.37693 0.22607 0.9047 0.0
H2303 H 0.26782 0.14239 0.91533 0.0
H2304 H 0.30051 0.19542 0.9545 0.0
H2305 H 0.28327 0.18542 0.93213 0.0
H2306 H 0.38904 0.1993 0.92263 0.0
H2307 H 0.40675 0.21063 0.94505 0.0
C2308 C 0.33923 0.19956 0.88945 0.0
C2309 C 0.30341 0.17361 0.88585 0.0
C2310 C 0.34929 0.2053 0.90229 0.0
C2311 C 0.32386 0.18501 0.91186 0.0
C2312 C 0.288 0.15892 0.90823 0.0
C2313 C 0.27784 0.1534 0.89537 0.0
C2314 C 0.32014 0.19639 0.94764 0.0
C2315 C 0.35504 0.20386 0.95154 0.0
C2316 C 0.31013 0.19037 0.9348 0.0
C2317 C 0.33465 0.19137 0.92554 0.0
C2318 C 0.36961 0.19883 0.92947 0.0
C2319 C 0.37975 0.20518 0.94232 0.0
H2320 H 0.86347 0.11537 0.89265 0.0
H2321 H 0.77091 0.1294 0.88471 0.0
H2322 H 0.85942 0.12716 0.91522 0.0
H2323 H 0.76611 0.13998 0.90721 0.0
H2324 H 0.79058 0.19548 0.94592 0.0
H2325 H 0.79638 0.18461 0.92343 0.0
H2326 H 0.82261 0.10141 0.93384 0.0
H2327 H 0.81796 0.11312 0.95629 0.0
C2328 C 0.84207 0.12062 0.89574 0.0
C2329 C 0.8176 0.12156 0.88688 0.0
C2330 C 0.83963 0.12725 0.90868 0.0
C2331 C 0.81252 0.13471 0.91305 0.0
C2332 C 0.78778 0.13509 0.90418 0.0
C2333 C 0.79038 0.12874 0.89126 0.0
C2334 C 0.79759 0.17489 0.9434 0.0
C2335 C 0.80377 0.15516 0.95289 0.0
C2336 C 0.80075 0.1685 0.9305 0.0
C2337 C 0.80988 0.14203 0.92679 0.0
C2338 C 0.81608 0.12236 0.93633 0.0
C2339 C 0.81316 0.12892 0.94921 0.0
H2340 H 0.57999 0.80202 0.56224 0.0
H2341 H 0.68764 0.88286 0.54924 0.0
H2342 H 0.60225 0.81251 0.58421 0.0
H2343 H 0.70954 0.89391 0.57111 0.0
H2344 H 0.74586 0.87991 0.61078 0.0
H2345 H 0.72386 0.86669 0.58878 0.0
H2346 H 0.62217 0.85895 0.60046 0.0
H2347 H 0.6437 0.87125 0.62237 0.0
C2348 C 0.60833 0.82208 0.56407 0.0
C2349 C 0.63198 0.84161 0.55399 0.0
C2350 C 0.62108 0.82823 0.57666 0.0
C2351 C 0.65773 0.85411 0.57944 0.0
C2352 C 0.68134 0.87342 0.56932 0.0
C2353 C 0.66864 0.86722 0.55676 0.0
C2354 C 0.71886 0.87545 0.60862 0.0
C2355 C 0.69657 0.87664 0.61833 0.0
C2356 C 0.70626 0.86797 0.59602 0.0
C2357 C 0.67114 0.86159 0.59285 0.0
C2358 C 0.64905 0.86304 0.60258 0.0
C2359 C 0.66158 0.87042 0.61514 0.0
H2360 H 0.18742 0.78642 0.55954 0.0
H2361 H 0.1078 0.81707 0.54864 0.0
H2362 H 0.17712 0.79406 0.58196 0.0
H2363 H 0.09673 0.82363 0.57097 0.0
H2364 H 0.11216 0.86816 0.61155 0.0
H2365 H 0.12375 0.8617 0.58916 0.0
H2366 H 0.1329 0.76704 0.59859 0.0
H2367 H 0.12242 0.77417 0.62094 0.0
C2368 C 0.16754 0.79452 0.56192 0.0
C2369 C 0.14849 0.80116 0.55228 0.0
C2370 C 0.16148 0.79875 0.57479 0.0
C2371 C 0.13609 0.80954 0.57832 0.0
C2372 C 0.11694 0.81594 0.56864 0.0
C2373 C 0.12312 0.8119 0.55581 0.0
C2374 C 0.11657 0.84595 0.60883 0.0
C2375 C 0.11636 0.82172 0.61805 0.0
C2376 C 0.12308 0.84212 0.59597 0.0
C2377 C 0.12935 0.81385 0.59202 0.0
C2378 C 0.12885 0.78951 0.60127 0.0
C2379 C 0.12254 0.79345 0.6141 0.0
H2380 H 0.19135 0.30674 0.54958 0.0
H2381 H 0.21977 0.41504 0.56231 0.0
H2382 H 0.18196 0.28567 0.57153 0.0
H2383 H 0.20928 0.39358 0.58438 0.0
H2384 H 0.22648 0.35247 0.62267 0.0
H2385 H 0.2354 0.37385 0.60072 0.0
H2386 H 0.14141 0.27186 0.58921 0.0
H2387 H 0.13312 0.25003 0.61118 0.0
C2388 C 0.19533 0.32605 0.55707 0.0
C2389 C 0.20634 0.36262 0.55419 0.0
C2390 C 0.18969 0.31384 0.56968 0.0
C2391 C 0.19471 0.33783 0.57975 0.0
C2392 C 0.20561 0.37445 0.57687 0.0
C2393 C 0.21146 0.38675 0.56422 0.0
C2394 C 0.20773 0.33453 0.61546 0.0
C2395 C 0.17913 0.29947 0.61866 0.0
C2396 C 0.21269 0.34695 0.60287 0.0
C2397 C 0.18907 0.32469 0.59318 0.0
C2398 C 0.16043 0.28957 0.5964 0.0
C2399 C 0.15558 0.27706 0.609 0.0
H2400 H 0.03054 0.46633 0.71631 0.0
H2401 H 0.92259 0.44546 0.72632 0.0
H2402 H 0.04694 0.47234 0.73876 0.0
H2403 H 0.93937 0.45261 0.74884 0.0
H2404 H 0.96935 0.43335 0.78858 0.0
H2405 H 0.95287 0.42422 0.7661 0.0
H2406 H 0.06028 0.51297 0.75633 0.0
H2407 H 0.07711 0.52133 0.77883 0.0
C2408 C 0.01031 0.46315 0.72331 0.0
C2409 C 0.97524 0.45544 0.71952 0.0
C2410 C 0.01982 0.46684 0.7362 0.0
C2411 C 0.99459 0.46316 0.74565 0.0
C2412 C 0.95937 0.45515 0.74185 0.0
C2413 C 0.94976 0.45122 0.72893 0.0
C2414 C 0.98954 0.45081 0.78163 0.0
C2415 C 0.02457 0.47809 0.7855 0.0
C2416 C 0.97998 0.44574 0.76873 0.0
C2417 C 0.00512 0.46796 0.75937 0.0
C2418 C 0.04034 0.49501 0.76325 0.0
C2419 C 0.04999 0.49992 0.77616 0.0
H2420 H 0.54977 0.47437 0.72499 0.0
H2421 H 0.52321 0.55726 0.71455 0.0
H2422 H 0.54342 0.48496 0.74747 0.0
H2423 H 0.51819 0.56884 0.73697 0.0
H2424 H 0.47423 0.55291 0.7778 0.0
H2425 H 0.48057 0.54315 0.75522 0.0
H2426 H 0.57216 0.52817 0.76406 0.0
H2427 H 0.56491 0.53656 0.78658 0.0
C2428 C 0.5429 0.49506 0.7275 0.0
C2429 C 0.53693 0.5149 0.718 0.0
C2430 C 0.53945 0.50132 0.74039 0.0
C2431 C 0.53031 0.52783 0.74407 0.0
C2432 C 0.52463 0.5478 0.73452 0.0
C2433 C 0.52774 0.5413 0.72165 0.0
C2434 C 0.49581 0.54774 0.77488 0.0
C2435 C 0.51893 0.54532 0.78397 0.0
C2436 C 0.49957 0.54225 0.76193 0.0
C2437 C 0.52675 0.5346 0.75779 0.0
C2438 C 0.55041 0.53316 0.7669 0.0
C2439 C 0.54642 0.53827 0.77982 0.0
H2440 H 0.44117 0.95924 0.71629 0.0
H2441 H 0.52104 0.06886 0.72782 0.0
H2442 H 0.43009 0.94039 0.73852 0.0
H2443 H 0.51072 0.0497 0.75011 0.0
H2444 H 0.4541 0.01307 0.78873 0.0
H2445 H 0.46542 0.03175 0.76649 0.0
H2446 H 0.45745 0.92873 0.7566 0.0
H2447 H 0.44504 0.90959 0.77887 0.0
C2448 C 0.45656 0.9793 0.72358 0.0
C2449 C 0.48194 0.0156 0.72028 0.0
C2450 C 0.45037 0.96839 0.73634 0.0
C2451 C 0.46954 0.99346 0.74613 0.0
C2452 C 0.49508 0.02978 0.74283 0.0
C2453 C 0.50115 0.04075 0.73005 0.0
C2454 C 0.4547 0.99434 0.78181 0.0
C2455 C 0.44859 0.95979 0.78557 0.0
C2456 C 0.46147 0.00519 0.76906 0.0
C2457 C 0.46251 0.98184 0.75973 0.0
C2458 C 0.45639 0.94723 0.7635 0.0
C2459 C 0.44941 0.93629 0.77627 0.0
H2460 H 0.55097 0.08748 0.22616 0.0
H2461 H 0.54173 0.98365 0.21674 0.0
H2462 H 0.54247 0.0705 0.2487 0.0
H2463 H 0.5343 0.96716 0.23919 0.0
H2464 H 0.4822 0.93239 0.27843 0.0
H2465 H 0.49058 0.95016 0.25603 0.0
H2466 H 0.57204 0.06022 0.26655 0.0
H2467 H 0.5629 0.0427 0.28895 0.0
C2468 C 0.54744 0.06119 0.22891 0.0
C2469 C 0.5469 0.03688 0.21966 0.0
C2470 C 0.54272 0.05149 0.24183 0.0
C2471 C 0.53753 0.01736 0.24577 0.0
C2472 C 0.53751 0.99335 0.23649 0.0
C2473 C 0.54203 0.00294 0.22361 0.0
C2474 C 0.50193 0.96036 0.27596 0.0
C2475 C 0.52188 0.9861 0.28548 0.0
C2476 C 0.50688 0.97054 0.26311 0.0
C2477 C 0.53204 0.00665 0.25947 0.0
C2478 C 0.55205 0.03234 0.26901 0.0
C2479 C 0.54698 0.0222 0.28186 0.0
H2480 H 0.06292 0.54821 0.27522 0.0
H2481 H 0.95391 0.52136 0.28646 0.0
H2482 H 0.04393 0.53864 0.25293 0.0
H2483 H 0.93518 0.51275 0.26416 0.0
H2484 H 0.90477 0.46265 0.22401 0.0
H2485 H 0.92293 0.47202 0.24643 0.0
H2486 H 0.02683 0.56526 0.23607 0.0
H2487 H 0.00912 0.55533 0.21374 0.0
C2488 C 0.03499 0.54057 0.27293 0.0
C2489 C 0.00996 0.53557 0.28263 0.0
C2490 C 0.02411 0.53523 0.26014 0.0
C2491 C 0.98798 0.52493 0.25672 0.0
C2492 C 0.96305 0.52013 0.26644 0.0
C2493 C 0.97389 0.52534 0.27923 0.0
C2494 C 0.93142 0.48519 0.22654 0.0
C2495 C 0.95552 0.50813 0.21708 0.0
C2496 C 0.94181 0.49069 0.2394 0.0
C2497 C 0.97647 0.51932 0.24308 0.0
C2498 C 0.00024 0.54253 0.23359 0.0
C2499 C 0.98995 0.53696 0.22077 0.0
H2500 H 0.53922 0.45576 0.22503 0.0
H2501 H 0.44983 0.47354 0.21552 0.0
H2502 H 0.5304 0.46325 0.24762 0.0
H2503 H 0.44032 0.47991 0.238 0.0
H2504 H 0.45658 0.52658 0.27813 0.0
H2505 H 0.46718 0.52054 0.25563 0.0
H2506 H 0.48872 0.43342 0.26489 0.0
H2507 H 0.4792 0.44022 0.28738 0.0
C2508 C 0.51757 0.46104 0.22776 0.0
C2509 C 0.49531 0.46413 0.21848 0.0
C2510 C 0.51237 0.46516 0.24071 0.0
C2511 C 0.48467 0.47227 0.24465 0.0
C2512 C 0.46233 0.47513 0.23533 0.0
C2513 C 0.46765 0.47122 0.22241 0.0
C2514 C 0.46354 0.50613 0.27535 0.0
C2515 C 0.46703 0.48389 0.28455 0.0
C2516 C 0.46947 0.50253 0.26244 0.0
C2517 C 0.47883 0.47647 0.25842 0.0
C2518 C 0.48216 0.45417 0.26764 0.0
C2519 C 0.47642 0.4579 0.28055 0.0
H2520 H 0.98622 0.19523 0.28406 0.0
H2521 H 0.94232 0.08051 0.27609 0.0
H2522 H 0.01645 0.21073 0.26346 0.0
H2523 H 0.97117 0.09586 0.2551 0.0
H2524 H 0.05441 0.13614 0.22278 0.0
H2525 H 0.02704 0.1208 0.244 0.0
H2526 H 0.00551 0.2105 0.24173 0.0
H2527 H 0.03435 0.2267 0.22092 0.0
C2528 C 0.9826 0.17324 0.27781 0.0
C2529 C 0.96169 0.13661 0.28169 0.0
C2530 C -0.00015 0.18213 0.26593 0.0
C2531 C 0.9962 0.15461 0.25749 0.0
C2532 C 0.97514 0.11788 0.26138 0.0
C2533 C 0.9583 0.10901 0.27338 0.0
C2534 C 0.0441 0.15272 0.22689 0.0
C2535 C 0.0468 0.18278 0.2202 0.0
C2536 C 0.02808 0.14375 0.23902 0.0
C2537 C 0.01393 0.16433 0.24466 0.0
C2538 C 0.01672 0.19439 0.23789 0.0
C2539 C 0.03317 0.20365 0.22588 0.0
H2540 H 0.82185 0.76689 0.27865 0.0
H2541 H 0.89759 0.88167 0.2849 0.0
H2542 H 0.81017 0.78053 0.25711 0.0
H2543 H 0.88542 0.89532 0.26349 0.0
H2544 H 0.88314 0.90077 0.21979 0.0
H2545 H 0.89547 0.88738 0.24122 0.0
H2546 H 0.78061 0.81002 0.24634 0.0
H2547 H 0.76832 0.82294 0.22479 0.0
C2548 C 0.83608 0.79501 0.27543 0.0
C2549 C 0.86072 0.82316 0.28351 0.0
C2550 C 0.82915 0.80287 0.26311 0.0
C2551 C 0.84673 0.83905 0.25857 0.0
C2552 C 0.87168 0.86712 0.26661 0.0
C2553 C 0.87857 0.85928 0.27892 0.0
C2554 C 0.86045 0.88103 0.2255 0.0
C2555 C 0.82472 0.86295 0.22055 0.0
C2556 C 0.86752 0.87344 0.23782 0.0
C2557 C 0.83906 0.84753 0.24551 0.0
C2558 C 0.80326 0.82974 0.24061 0.0
C2559 C 0.79616 0.83738 0.22829 0.0
H2560 H 0.12047 0.02649 0.28679 0.0
H2561 H 0.23388 0.05943 0.28043 0.0
H2562 H 0.10536 0.00015 0.26545 0.0
H2563 H 0.21881 0.0336 0.25901 0.0
H2564 H 0.17276 0.94777 0.22749 0.0
H2565 H 0.18619 0.97355 0.24892 0.0
H2566 H 0.11416 0.01713 0.24294 0.0
H2567 H 0.10024 0.99086 0.22156 0.0
C2568 C 0.14226 0.02845 0.2808 0.0
C2569 C 0.17839 0.04505 0.28534 0.0
C2570 C 0.13359 0.01343 0.26854 0.0
C2571 C 0.16083 0.01456 0.26054 0.0
C2572 C 0.19707 0.03173 0.265 0.0
C2573 C 0.20576 0.04682 0.27725 0.0
C2574 C 0.15954 0.96261 0.23077 0.0
C2575 C 0.13542 0.96725 0.22279 0.0
C2576 C 0.1675 0.97766 0.24303 0.0
C2577 C 0.15149 0.99768 0.24762 0.0
C2578 C 0.12676 0.00165 0.23974 0.0
C2579 C 0.11885 0.98665 0.22746 0.0
H2580 H 0.95145 0.77016 0.78044 0.0
H2581 H 0.98941 0.88524 0.78518 0.0
H2582 H 0.97445 0.78153 0.75861 0.0
H2583 H 0.01295 0.89666 0.76344 0.0
H2584 H 0.01633 0.89716 0.71968 0.0
H2585 H 0.99288 0.88602 0.74142 0.0
H2586 H 0.0321 0.81024 0.74702 0.0
H2587 H 0.05502 0.82089 0.72517 0.0
C2588 C 0.96463 0.79788 0.77683 0.0
C2589 C 0.96851 0.82676 0.78459 0.0
C2590 C 0.9781 0.80445 0.76433 0.0
C2591 C 0.99573 0.84005 0.75926 0.0
C2592 C 0.9992 0.86885 0.76698 0.0
C2593 C 0.98579 0.8623 0.77948 0.0
C2594 C 0.02013 0.87824 0.72555 0.0
C2595 C 0.03759 0.85993 0.72065 0.0
C2596 C 0.00678 0.87195 0.73806 0.0
C2597 C 0.01048 0.84715 0.74599 0.0
C2598 C 0.02829 0.82912 0.74113 0.0
C2599 C 0.04171 0.83545 0.72862 0.0
H2600 H 0.18963 0.21932 0.71937 0.0
H2601 H 0.07675 0.13492 0.72363 0.0
H2602 H 0.20308 0.20586 0.74052 0.0
H2603 H 0.08976 0.12244 0.74515 0.0
H2604 H 0.13256 0.08487 0.77845 0.0
H2605 H 0.11913 0.09677 0.75692 0.0
H2606 H 0.19493 0.21212 0.76217 0.0
H2607 H 0.20944 0.19992 0.78334 0.0
C2608 C 0.16751 0.19821 0.72491 0.0
C2609 C 0.13207 0.17829 0.71983 0.0
C2610 C 0.1752 0.19056 0.73711 0.0
C2611 C 0.14752 0.16313 0.74465 0.0
C2612 C 0.11194 0.14336 0.73958 0.0
C2613 C 0.10436 0.1507 0.72727 0.0
C2614 C 0.14649 0.11271 0.77494 0.0
C2615 C 0.17224 0.1414 0.78257 0.0
C2616 C 0.13857 0.11962 0.76263 0.0
C2617 C 0.1559 0.15546 0.75773 0.0
C2618 C 0.18155 0.18408 0.76545 0.0
C2619 C 0.18979 0.17711 0.77766 0.0
H2620 H 0.79288 0.01585 0.78305 0.0
H2621 H 0.90863 0.05755 0.77838 0.0
H2622 H 0.78165 0.98849 0.76197 0.0
H2623 H 0.89768 0.03157 0.75697 0.0
H2624 H 0.86258 0.94952 0.72428 0.0
H2625 H 0.87399 0.97622 0.74558 0.0
H2626 H 0.78737 0.0012 0.74017 0.0
H2627 H 0.77502 0.97307 0.7192 0.0
C2628 C 0.81604 0.01966 0.77743 0.0
C2629 C 0.85167 0.03896 0.7824 0.0
C2630 C 0.80962 0.00406 0.76528 0.0
C2631 C 0.83872 0.00776 0.75766 0.0
C2632 C 0.87447 0.02753 0.7626 0.0
C2633 C 0.88084 0.04274 0.77485 0.0
C2634 C 0.84588 0.96054 0.72769 0.0
C2635 C 0.81775 0.95893 0.72008 0.0
C2636 C 0.85261 0.97618 0.73988 0.0
C2637 C 0.83166 0.991 0.74468 0.0
C2638 C 0.80365 0.98948 0.73697 0.0
C2639 C 0.79663 0.97345 0.72488 0.0
H2640 H 0.61254 0.42875 0.60898 0.0
H2641 H 0.66553 0.54466 0.61648 0.0
H2642 H 0.63703 0.44132 0.58735 0.0
H2643 H 0.69126 0.55728 0.59512 0.0
H2644 H 0.70077 0.56928 0.55206 0.0
H2645 H 0.6761 0.55632 0.57357 0.0
H2646 H 0.69101 0.46236 0.57519 0.0
H2647 H 0.7143 0.47458 0.55339 0.0
C2648 C 0.62958 0.45691 0.60603 0.0
C2649 C 0.63689 0.48568 0.61443 0.0
C2650 C 0.6439 0.46416 0.59365 0.0
C2651 C 0.66624 0.50037 0.58941 0.0
C2652 C 0.67366 0.52907 0.5979 0.0
C2653 C 0.65901 0.52183 0.61021 0.0
C2654 C 0.69899 0.54596 0.55702 0.0
C2655 C 0.70957 0.52299 0.55101 0.0
C2656 C 0.68494 0.53858 0.56942 0.0
C2657 C 0.6815 0.50826 0.5762 0.0
C2658 C 0.69261 0.48558 0.57022 0.0
C2659 C 0.70628 0.49275 0.55775 0.0
H2660 H 0.55322 0.2148 0.61722 0.0
H2661 H 0.48675 0.09738 0.614 0.0
H2662 H 0.54023 0.22117 0.59497 0.0
H2663 H 0.47341 0.10383 0.59187 0.0
H2664 H 0.49045 0.12709 0.54926 0.0
H2665 H 0.50454 0.12213 0.57137 0.0
H2666 H 0.48848 0.21227 0.58135 0.0
H2667 H 0.47481 0.21769 0.55903 0.0
C2668 C 0.53597 0.19034 0.61176 0.0
C2669 C 0.52114 0.15556 0.61738 0.0
C2670 C 0.52827 0.19404 0.59905 0.0
C2671 C 0.50572 0.16303 0.59166 0.0
C2672 C 0.49121 0.12826 0.59725 0.0
C2673 C 0.49879 0.12457 0.60996 0.0
C2674 C 0.48985 0.1459 0.55614 0.0
C2675 C 0.48144 0.17278 0.55237 0.0
C2676 C 0.49777 0.1429 0.56884 0.0
C2677 C 0.49754 0.16672 0.57813 0.0
C2678 C 0.48923 0.19373 0.57439 0.0
C2679 C 0.48116 0.19668 0.56163 0.0
H2680 H 0.77182 0.32194 0.61993 0.0
H2681 H 0.88752 0.37038 0.61261 0.0
H2682 H 0.75857 0.29616 0.5985 0.0
H2683 H 0.87426 0.34522 0.59109 0.0
H2684 H 0.83855 0.26663 0.55763 0.0
H2685 H 0.84887 0.28744 0.57974 0.0
H2686 H 0.76354 0.31495 0.5765 0.0
H2687 H 0.75271 0.29349 0.55454 0.0
C2688 C 0.79446 0.32734 0.61373 0.0
C2689 C 0.83075 0.34831 0.618 0.0
C2690 C 0.78685 0.31261 0.60141 0.0
C2691 C 0.81533 0.31847 0.59306 0.0
C2692 C 0.85163 0.33963 0.59733 0.0
C2693 C 0.85925 0.35436 0.60964 0.0
C2694 C 0.82165 0.27664 0.56169 0.0
C2695 C 0.79486 0.27847 0.55428 0.0
C2696 C 0.82781 0.28891 0.57434 0.0
C2697 C 0.80729 0.30323 0.57988 0.0
C2698 C 0.77967 0.30384 0.57259 0.0
C2699 C 0.77353 0.29161 0.55996 0.0
H2700 H 0.68463 0.13589 0.05434 0.0
H2701 H 0.7155 0.24866 0.06072 0.0
H2702 H 0.6546 0.11948 0.07496 0.0
H2703 H 0.68705 0.23267 0.08175 0.0
H2704 H 0.60186 0.18774 0.11328 0.0
H2705 H 0.63075 0.20367 0.09233 0.0
H2706 H 0.66331 0.1222 0.09683 0.0
H2707 H 0.6328 0.10517 0.11739 0.0
C2708 C 0.6856 0.15735 0.06027 0.0
C2709 C 0.70255 0.19363 0.0559 0.0
C2710 C 0.66844 0.14795 0.07216 0.0
C2711 C 0.66826 0.17467 0.08013 0.0
C2712 C 0.6859 0.21115 0.07582 0.0
C2713 C 0.70259 0.22045 0.06381 0.0
C2714 C 0.61491 0.17305 0.10971 0.0
C2715 C 0.61479 0.14503 0.11695 0.0
C2716 C 0.63185 0.18242 0.09774 0.0
C2717 C 0.64963 0.16439 0.09281 0.0
C2718 C 0.64938 0.1363 0.10012 0.0
C2719 C 0.63193 0.12655 0.11197 0.0
H2720 H 0.88336 0.46637 0.10794 0.0
H2721 H 0.78741 0.4709 0.11923 0.0
H2722 H 0.87288 0.47663 0.08568 0.0
H2723 H 0.77758 0.48196 0.09709 0.0
H2724 H 0.80553 0.5465 0.05817 0.0
H2725 H 0.81569 0.53565 0.08039 0.0
H2726 H 0.81914 0.43945 0.06884 0.0
H2727 H 0.80816 0.44967 0.04672 0.0
C2728 C 0.86009 0.46956 0.10567 0.0
C2729 C 0.83612 0.46764 0.11532 0.0
C2730 C 0.85408 0.47534 0.09296 0.0
C2731 C 0.82449 0.48019 0.08971 0.0
C2732 C 0.8007 0.47853 0.09936 0.0
C2733 C 0.80623 0.47195 0.11201 0.0
C2734 C 0.80833 0.52299 0.06039 0.0
C2735 C 0.80586 0.49884 0.05071 0.0
C2736 C 0.81405 0.51675 0.07308 0.0
C2737 C 0.81827 0.48676 0.07628 0.0
C2738 C 0.81618 0.46286 0.0666 0.0
C2739 C 0.80965 0.46862 0.05397 0.0
H2740 H 0.58595 0.39314 0.1099 0.0
H2741 H 0.47275 0.36026 0.11654 0.0
H2742 H 0.5702 0.36587 0.08866 0.0
H2743 H 0.45667 0.33156 0.09571 0.0
H2744 H 0.44249 0.31424 0.0532 0.0
H2745 H 0.46002 0.3434 0.07396 0.0
H2746 H 0.54123 0.31016 0.07741 0.0
H2747 H 0.5247 0.28245 0.05627 0.0
C2748 C 0.5577 0.37997 0.10684 0.0
C2749 C 0.53068 0.37913 0.11487 0.0
C2750 C 0.54856 0.36403 0.0947 0.0
C2751 C 0.51209 0.34642 0.09038 0.0
C2752 C 0.48515 0.34549 0.09851 0.0
C2753 C 0.49436 0.36186 0.11053 0.0
C2754 C 0.46399 0.313 0.05841 0.0
C2755 C 0.4821 0.29588 0.0531 0.0
C2756 C 0.47399 0.32963 0.07038 0.0
C2757 C 0.502 0.32911 0.07749 0.0
C2758 C 0.51995 0.3117 0.07218 0.0
C2759 C 0.51027 0.2955 0.06009 0.0
H2760 H 0.39929 0.81127 0.89411 0.0
H2761 H 0.34091 0.86846 0.88579 0.0
H2762 H 0.373 0.79751 0.9155 0.0
H2763 H 0.31345 0.85348 0.90687 0.0
H2764 H 0.30095 0.85515 0.9498 0.0
H2765 H 0.32683 0.86811 0.92848 0.0
H2766 H 0.31854 0.76195 0.92723 0.0
H2767 H 0.29401 0.74968 0.94887 0.0
C2768 C 0.38068 0.82072 0.89683 0.0
C2769 C 0.37241 0.84117 0.88828 0.0
C2770 C 0.36534 0.81259 0.90906 0.0
C2771 C 0.34102 0.82436 0.91298 0.0
C2772 C 0.33258 0.84454 0.90434 0.0
C2773 C 0.34824 0.85302 0.89219 0.0
C2774 C 0.30442 0.83444 0.94496 0.0
C2775 C 0.29537 0.80135 0.95104 0.0
C2776 C 0.31916 0.84182 0.93267 0.0
C2777 C 0.32485 0.81611 0.92605 0.0
C2778 C 0.31518 0.7827 0.93208 0.0
C2779 C 0.30079 0.77549 0.94446 0.0
H2780 H 0.19018 0.5496 0.95702 0.0
H2781 H 0.20775 0.46054 0.9468 0.0
H2782 H 0.17989 0.55751 0.93457 0.0
H2783 H 0.19828 0.46918 0.92428 0.0
H2784 H 0.22236 0.53209 0.88512 0.0
H2785 H 0.23298 0.52455 0.90756 0.0
H2786 H 0.12901 0.51393 0.91745 0.0
H2787 H 0.11782 0.52059 0.89492 0.0
C2788 C 0.1922 0.53196 0.94997 0.0
C2789 C 0.19986 0.50449 0.95366 0.0
C2790 C 0.18608 0.53637 0.93716 0.0
C2791 C 0.18827 0.51393 0.92775 0.0
C2792 C 0.19658 0.4869 0.93138 0.0
C2793 C 0.20191 0.48193 0.94424 0.0
C2794 C 0.2018 0.52828 0.89208 0.0
C2795 C 0.16926 0.52699 0.88827 0.0
C2796 C 0.20783 0.52376 0.90489 0.0
C2797 C 0.1818 0.51866 0.91418 0.0
C2798 C 0.14953 0.51798 0.91044 0.0
C2799 C 0.14312 0.52169 0.89758 0.0
H2800 H 0.52717 0.62356 0.89253 0.0
H2801 H 0.44568 0.65583 0.88773 0.0
H2802 H 0.53799 0.64686 0.91431 0.0
H2803 H 0.45695 0.67964 0.90945 0.0
H2804 H 0.46107 0.68371 0.95339 0.0
H2805 H 0.44899 0.65993 0.93165 0.0
H2806 H 0.56478 0.7052 0.9255 0.0
H2807 H 0.57686 0.72848 0.94728 0.0
C2808 C 0.51149 0.63554 0.89612 0.0
C2809 C 0.48554 0.6378 0.88836 0.0
C2810 C 0.51791 0.64918 0.90859 0.0
C2811 C 0.4985 0.66534 0.91363 0.0
C2812 C 0.47215 0.66708 0.90593 0.0
C2813 C 0.46579 0.65353 0.89344 0.0
C2814 C 0.48399 0.68877 0.94738 0.0
C2815 C 0.51995 0.708 0.9521 0.0
C2816 C 0.47705 0.67523 0.9349 0.0
C2817 C 0.50589 0.68047 0.92683 0.0
C2818 C 0.54188 0.70014 0.93151 0.0
C2819 C 0.54883 0.71377 0.94398 0.0
H2820 H 0.28663 0.52794 0.44838 0.0
H2821 H 0.31245 0.44176 0.4528 0.0
H2822 H 0.31363 0.5409 0.42713 0.0
H2823 H 0.341 0.45574 0.43188 0.0
H2824 H 0.35623 0.46448 0.38883 0.0
H2825 H 0.32958 0.45134 0.41005 0.0
H2826 H 0.36901 0.56644 0.41591 0.0
H2827 H 0.39414 0.57922 0.39438 0.0
C2828 C 0.2982 0.51185 0.44482 0.0
C2829 C 0.29716 0.48368 0.45224 0.0
C2830 C 0.31405 0.5195 0.43267 0.0
C2831 C 0.32975 0.49951 0.42771 0.0
C2832 C 0.32867 0.47134 0.43521 0.0
C2833 C 0.31236 0.46336 0.44726 0.0
C2834 C 0.35949 0.48704 0.39469 0.0
C2835 C 0.37729 0.52291 0.3899 0.0
C2836 C 0.34427 0.47953 0.40692 0.0
C2837 C 0.3469 0.50776 0.41477 0.0
C2838 C 0.36567 0.54382 0.41008 0.0
C2839 C 0.38045 0.55126 0.39776 0.0
H2840 H 0.4313 0.78303 0.38829 0.0
H2841 H 0.51226 0.89712 0.39279 0.0
H2842 H 0.44146 0.77146 0.41026 0.0
H2843 H 0.52188 0.88566 0.41485 0.0
H2844 H 0.55972 0.84423 0.44859 0.0
H2845 H 0.54845 0.85525 0.42667 0.0
H2846 H 0.43258 0.78321 0.43217 0.0
H2847 H 0.44389 0.77161 0.454 0.0
C2848 C 0.45098 0.80576 0.394 0.0
C2849 C 0.471 0.84101 0.38875 0.0
C2850 C 0.45672 0.79912 0.40663 0.0
C2851 C 0.48264 0.82758 0.41433 0.0
C2852 C 0.50215 0.86298 0.40914 0.0
C2853 C 0.4964 0.86962 0.39651 0.0
C2854 C 0.53185 0.83057 0.44511 0.0
C2855 C 0.50273 0.80697 0.45306 0.0
C2856 C 0.52535 0.83714 0.43256 0.0
C2857 C 0.48957 0.82028 0.42765 0.0
C2858 C 0.4605 0.79637 0.43558 0.0
C2859 C 0.467 0.78981 0.44812 0.0
H2860 H 0.21739 0.6624 0.45322 0.0
H2861 H 0.15081 0.71124 0.44536 0.0
H2862 H 0.20454 0.63561 0.43196 0.0
H2863 H 0.13866 0.68514 0.42395 0.0
H2864 H 0.09514 0.6048 0.39085 0.0
H2865 H 0.10601 0.62754 0.41274 0.0
H2866 H 0.21812 0.65229 0.40997 0.0
H2867 H 0.20706 0.62883 0.38827 0.0
C2868 C 0.20027 0.66773 0.44692 0.0
C2869 C 0.18522 0.68908 0.45101 0.0
C2870 C 0.19297 0.65241 0.43469 0.0
C2871 C 0.17047 0.65808 0.42621 0.0
C2872 C 0.15561 0.67966 0.43029 0.0
C2873 C 0.16287 0.69495 0.44253 0.0
C2874 C 0.12197 0.61465 0.39497 0.0
C2875 C 0.15022 0.61499 0.38777 0.0
C2876 C 0.12832 0.62804 0.40749 0.0
C2877 C 0.16305 0.64208 0.41312 0.0
C2878 C 0.19094 0.6414 0.40602 0.0
C2879 C 0.1846 0.628 0.39353 0.0
loop_
_geom_bond_atom_site_label_1
_geom_bond_atom_site_label_2
_geom_bond_distance
_geom_bond_site_symmetry_2
_ccdc_geom_bond_type
Zn0 O6 1.969 . S
Zn0 O7 1.965 . S
Zn0 O11 2.024 . S
Zn0 O16 1.969 . S
Zn1 O8 1.969 . S
Zn1 O14 1.969 . S
Zn1 O15 1.965 . S
Zn1 O17 2.024 . S
C2 O3 1.229 . S
C2 O11 1.058 . S
O3 C2 1.229 . S
C4 O5 1.229 . S
C4 O17 1.058 . S
O5 C4 1.229 . S
O6 Zn0 1.969 . S
O6 C9 1.267 . S
O7 Zn0 1.965 . S
O7 C18 1.260 . S
O8 Zn1 1.969 . S
O8 C18 1.258 . S
C9 O6 1.267 . S
C9 O10 1.228 . S
O10 C9 1.228 . S
O11 Zn0 2.024 . S
O11 C2 1.058 . S
C12 O13 1.228 . S
C12 O14 1.267 . S
O13 C12 1.228 . S
O14 Zn1 1.969 . S
O14 C12 1.267 . S
O15 Zn1 1.965 . S
O15 C19 1.260 . S
O16 Zn0 1.969 . S
O16 C19 1.258 . S
O17 Zn1 2.024 . S
O17 C4 1.058 . S
C18 O7 1.260 . S
C18 O8 1.258 . S
C19 O15 1.260 . S
C19 O16 1.258 . S
Zn20 O26 1.969 . S
Zn20 O27 1.965 . S
Zn20 O31 2.024 . S
Zn20 O36 1.969 . S
Zn21 O28 1.969 . S
Zn21 O34 1.969 . S
Zn21 O35 1.965 . S
Zn21 O37 2.024 . S
C22 O23 1.229 . S
C22 O31 1.058 . S
O23 C22 1.229 . S
C24 O25 1.229 . S
C24 O37 1.058 . S
O25 C24 1.229 . S
O26 Zn20 1.969 . S
O26 C29 1.267 . S
O27 Zn20 1.965 . S
O27 C38 1.260 . S
O28 Zn21 1.969 . S
O28 C38 1.258 . S
C29 O26 1.267 . S
C29 O30 1.228 . S
O30 C29 1.228 . S
O31 Zn20 2.024 . S
O31 C22 1.058 . S
C32 O33 1.228 . S
C32 O34 1.267 . S
O33 C32 1.228 . S
O34 Zn21 1.969 . S
O34 C32 1.267 . S
O35 Zn21 1.965 . S
O35 C39 1.260 . S
O36 Zn20 1.969 . S
O36 C39 1.258 . S
O37 Zn21 2.024 . S
O37 C24 1.058 . S
C38 O27 1.260 . S
C38 O28 1.258 . S
C39 O35 1.260 . S
C39 O36 1.258 . S
Zn40 O46 1.969 . S
Zn40 O47 1.965 . S
Zn40 O51 2.024 . S
Zn40 O56 1.969 . S
Zn41 O48 1.969 . S
Zn41 O54 1.969 . S
Zn41 O55 1.965 . S
Zn41 O57 2.024 . S
C42 O43 1.229 . S
C42 O51 1.058 . S
O43 C42 1.229 . S
C44 O45 1.229 . S
C44 O57 1.058 . S
O45 C44 1.229 . S
O46 Zn40 1.969 . S
O46 C49 1.267 . S
O47 Zn40 1.965 . S
O47 C58 1.260 . S
O48 Zn41 1.969 . S
O48 C58 1.258 . S
C49 O46 1.267 . S
C49 O50 1.228 . S
O50 C49 1.228 . S
O51 Zn40 2.024 . S
O51 C42 1.058 . S
C52 O53 1.228 . S
C52 O54 1.267 . S
O53 C52 1.228 . S
O54 Zn41 1.969 . S
O54 C52 1.267 . S
O55 Zn41 1.965 . S
O55 C59 1.260 . S
O56 Zn40 1.969 . S
O56 C59 1.258 . S
O57 Zn41 2.024 . S
O57 C44 1.058 . S
C58 O47 1.260 . S
C58 O48 1.258 . S
C59 O55 1.260 . S
C59 O56 1.258 . S
Zn60 O66 1.969 . S
Zn60 O67 1.965 . S
Zn60 O71 2.024 . S
Zn60 O76 1.969 . S
Zn61 O68 1.969 . S
Zn61 O74 1.969 . S
Zn61 O75 1.965 . S
Zn61 O77 2.024 . S
C62 O63 1.229 . S
C62 O71 1.058 . S
O63 C62 1.229 . S
C64 O65 1.229 . S
C64 O77 1.058 . S
O65 C64 1.229 . S
O66 Zn60 1.969 . S
O66 C69 1.267 . S
O67 Zn60 1.965 . S
O67 C78 1.260 . S
O68 Zn61 1.969 . S
O68 C78 1.258 . S
C69 O66 1.267 . S
C69 O70 1.228 . S
O70 C69 1.228 . S
O71 Zn60 2.024 . S
O71 C62 1.058 . S
C72 O73 1.228 . S
C72 O74 1.267 . S
O73 C72 1.228 . S
O74 Zn61 1.969 . S
O74 C72 1.267 . S
O75 Zn61 1.965 . S
O75 C79 1.260 . S
O76 Zn60 1.969 . S
O76 C79 1.258 . S
O77 Zn61 2.024 . S
O77 C64 1.058 . S
C78 O67 1.260 . S
C78 O68 1.258 . S
C79 O75 1.260 . S
C79 O76 1.258 . S
Zn80 O86 1.969 . S
Zn80 O87 1.965 . S
Zn80 O91 2.024 . S
Zn80 O96 1.969 . S
Zn81 O88 1.969 . S
Zn81 O94 1.969 . S
Zn81 O95 1.965 . S
Zn81 O97 2.024 . S
C82 O83 1.229 . S
C82 O91 1.058 . S
O83 C82 1.229 . S
C84 O85 1.229 . S
C84 O97 1.058 . S
O85 C84 1.229 . S
O86 Zn80 1.969 . S
O86 C89 1.267 . S
O87 Zn80 1.965 . S
O87 C98 1.260 . S
O88 Zn81 1.969 . S
O88 C98 1.258 . S
C89 O86 1.267 . S
C89 O90 1.228 . S
O90 C89 1.228 . S
O91 Zn80 2.024 . S
O91 C82 1.058 . S
C92 O93 1.228 . S
C92 O94 1.267 . S
O93 C92 1.228 . S
O94 Zn81 1.969 . S
O94 C92 1.267 . S
O95 Zn81 1.965 . S
O95 C99 1.260 . S
O96 Zn80 1.969 . S
O96 C99 1.258 . S
O97 Zn81 2.024 . S
O97 C84 1.058 . S
C98 O87 1.260 . S
C98 O88 1.258 . S
C99 O95 1.260 . S
C99 O96 1.258 . S
Zn100 O106 1.969 . S
Zn100 O107 1.965 . S
Zn100 O111 2.024 . S
Zn100 O116 1.969 . S
Zn101 O108 1.969 . S
Zn101 O114 1.969 . S
Zn101 O115 1.965 . S
Zn101 O117 2.024 . S
C102 O103 1.229 . S
C102 O111 1.058 . S
O103 C102 1.229 . S
C104 O105 1.229 . S
C104 O117 1.058 . S
O105 C104 1.229 . S
O106 Zn100 1.969 . S
O106 C109 1.267 . S
O107 Zn100 1.965 . S
O107 C118 1.260 . S
O108 Zn101 1.969 . S
O108 C118 1.258 . S
C109 O106 1.267 . S
C109 O110 1.228 . S
O110 C109 1.228 . S
O111 Zn100 2.024 . S
O111 C102 1.058 . S
C112 O113 1.228 . S
C112 O114 1.267 . S
O113 C112 1.228 . S
O114 Zn101 1.969 . S
O114 C112 1.267 . S
O115 Zn101 1.965 . S
O115 C119 1.260 . S
O116 Zn100 1.969 . S
O116 C119 1.258 . S
O117 Zn101 2.024 . S
O117 C104 1.058 . S
C118 O107 1.260 . S
C118 O108 1.258 . S
C119 O115 1.260 . S
C119 O116 1.258 . S
Zn120 O126 1.969 . S
Zn120 O127 1.965 . S
Zn120 O131 2.024 . S
Zn120 O136 1.969 . S
Zn121 O128 1.969 . S
Zn121 O134 1.969 . S
Zn121 O135 1.965 . S
Zn121 O137 2.024 . S
C122 O123 1.229 . S
C122 O131 1.058 . S
O123 C122 1.229 . S
C124 O125 1.229 . S
C124 O137 1.058 . S
O125 C124 1.229 . S
O126 Zn120 1.969 . S
O126 C129 1.267 . S
O127 Zn120 1.965 . S
O127 C138 1.260 . S
O128 Zn121 1.969 . S
O128 C138 1.258 . S
C129 O126 1.267 . S
C129 O130 1.228 . S
O130 C129 1.228 . S
O131 Zn120 2.024 . S
O131 C122 1.058 . S
C132 O133 1.228 . S
C132 O134 1.267 . S
O133 C132 1.228 . S
O134 Zn121 1.969 . S
O134 C132 1.267 . S
O135 Zn121 1.965 . S
O135 C139 1.260 . S
O136 Zn120 1.969 . S
O136 C139 1.258 . S
O137 Zn121 2.024 . S
O137 C124 1.058 . S
C138 O127 1.260 . S
C138 O128 1.258 . S
C139 O135 1.260 . S
C139 O136 1.258 . S
Zn140 O146 1.969 . S
Zn140 O147 1.965 . S
Zn140 O151 2.024 . S
Zn140 O156 1.969 . S
Zn141 O148 1.969 . S
Zn141 O154 1.969 . S
Zn141 O155 1.965 . S
Zn141 O157 2.024 . S
C142 O143 1.229 . S
C142 O151 1.058 . S
O143 C142 1.229 . S
C144 O145 1.229 . S
C144 O157 1.058 . S
O145 C144 1.229 . S
O146 Zn140 1.969 . S
O146 C149 1.267 . S
O147 Zn140 1.965 . S
O147 C158 1.260 . S
O148 Zn141 1.969 . S
O148 C158 1.258 . S
C149 O146 1.267 . S
C149 O150 1.228 . S
O150 C149 1.228 . S
O151 Zn140 2.024 . S
O151 C142 1.058 . S
C152 O153 1.228 . S
C152 O154 1.267 . S
O153 C152 1.228 . S
O154 Zn141 1.969 . S
O154 C152 1.267 . S
O155 Zn141 1.965 . S
O155 C159 1.260 . S
O156 Zn140 1.969 . S
O156 C159 1.258 . S
O157 Zn141 2.024 . S
O157 C144 1.058 . S
C158 O147 1.260 . S
C158 O148 1.258 . S
C159 O155 1.260 . S
C159 O156 1.258 . S
Zn160 O166 1.969 . S
Zn160 O167 1.965 . S
Zn160 O171 2.024 . S
Zn160 O176 1.969 . S
Zn161 O168 1.969 . S
Zn161 O174 1.969 . S
Zn161 O175 1.965 . S
Zn161 O177 2.024 . S
C162 O163 1.229 . S
C162 O171 1.058 . S
O163 C162 1.229 . S
C164 O165 1.229 . S
C164 O177 1.058 . S
O165 C164 1.229 . S
O166 Zn160 1.969 . S
O166 C169 1.267 . S
O167 Zn160 1.965 . S
O167 C178 1.260 . S
O168 Zn161 1.969 . S
O168 C178 1.258 . S
C169 O166 1.267 . S
C169 O170 1.228 . S
O170 C169 1.228 . S
O171 Zn160 2.024 . S
O171 C162 1.058 . S
C172 O173 1.228 . S
C172 O174 1.267 . S
O173 C172 1.228 . S
O174 Zn161 1.969 . S
O174 C172 1.267 . S
O175 Zn161 1.965 . S
O175 C179 1.260 . S
O176 Zn160 1.969 . S
O176 C179 1.258 . S
O177 Zn161 2.024 . S
O177 C164 1.058 . S
C178 O167 1.260 . S
C178 O168 1.258 . S
C179 O175 1.260 . S
C179 O176 1.258 . S
Zn180 O186 1.969 . S
Zn180 O187 1.965 . S
Zn180 O191 2.024 . S
Zn180 O196 1.969 . S
Zn181 O188 1.969 . S
Zn181 O194 1.969 . S
Zn181 O195 1.965 . S
Zn181 O197 2.024 . S
C182 O183 1.229 . S
C182 O191 1.058 . S
O183 C182 1.229 . S
C184 O185 1.229 . S
C184 O197 1.058 . S
O185 C184 1.229 . S
O186 Zn180 1.969 . S
O186 C189 1.267 . S
O187 Zn180 1.965 . S
O187 C198 1.260 . S
O188 Zn181 1.969 . S
O188 C198 1.258 . S
C189 O186 1.267 . S
C189 O190 1.228 . S
O190 C189 1.228 . S
O191 Zn180 2.024 . S
O191 C182 1.058 . S
C192 O193 1.228 . S
C192 O194 1.267 . S
O193 C192 1.228 . S
O194 Zn181 1.969 . S
O194 C192 1.267 . S
O195 Zn181 1.965 . S
O195 C199 1.260 . S
O196 Zn180 1.969 . S
O196 C199 1.258 . S
O197 Zn181 2.024 . S
O197 C184 1.058 . S
C198 O187 1.260 . S
C198 O188 1.258 . S
C199 O195 1.260 . S
C199 O196 1.258 . S
Zn200 O206 1.969 . S
Zn200 O207 1.965 . S
Zn200 O211 2.024 . S
Zn200 O216 1.969 . S
Zn201 O208 1.969 . S
Zn201 O214 1.969 . S
Zn201 O215 1.965 . S
Zn201 O217 2.024 . S
C202 O203 1.229 . S
C202 O211 1.058 . S
O203 C202 1.229 . S
C204 O205 1.229 . S
C204 O217 1.058 . S
O205 C204 1.229 . S
O206 Zn200 1.969 . S
O206 C209 1.267 . S
O207 Zn200 1.965 . S
O207 C218 1.260 . S
O208 Zn201 1.969 . S
O208 C218 1.258 . S
C209 O206 1.267 . S
C209 O210 1.228 . S
O210 C209 1.228 . S
O211 Zn200 2.024 . S
O211 C202 1.058 . S
C212 O213 1.228 . S
C212 O214 1.267 . S
O213 C212 1.228 . S
O214 Zn201 1.969 . S
O214 C212 1.267 . S
O215 Zn201 1.965 . S
O215 C219 1.260 . S
O216 Zn200 1.969 . S
O216 C219 1.258 . S
O217 Zn201 2.024 . S
O217 C204 1.058 . S
C218 O207 1.260 . S
C218 O208 1.258 . S
C219 O215 1.260 . S
C219 O216 1.258 . S
Zn220 O226 1.969 . S
Zn220 O227 1.965 . S
Zn220 O231 2.024 . S
Zn220 O236 1.969 . S
Zn221 O228 1.969 . S
Zn221 O234 1.969 . S
Zn221 O235 1.965 . S
Zn221 O237 2.024 . S
C222 O223 1.229 . S
C222 O231 1.058 . S
O223 C222 1.229 . S
C224 O225 1.229 . S
C224 O237 1.058 . S
O225 C224 1.229 . S
O226 Zn220 1.969 . S
O226 C229 1.267 . S
O227 Zn220 1.965 . S
O227 C238 1.260 . S
O228 Zn221 1.969 . S
O228 C238 1.258 . S
C229 O226 1.267 . S
C229 O230 1.228 . S
O230 C229 1.228 . S
O231 Zn220 2.024 . S
O231 C222 1.058 . S
C232 O233 1.228 . S
C232 O234 1.267 . S
O233 C232 1.228 . S
O234 Zn221 1.969 . S
O234 C232 1.267 . S
O235 Zn221 1.965 . S
O235 C239 1.260 . S
O236 Zn220 1.969 . S
O236 C239 1.258 . S
O237 Zn221 2.024 . S
O237 C224 1.058 . S
C238 O227 1.260 . S
C238 O228 1.258 . S
C239 O235 1.260 . S
C239 O236 1.258 . S
Zn240 O246 1.969 . S
Zn240 O247 1.965 . S
Zn240 O251 2.024 . S
Zn240 O256 1.969 . S
Zn241 O248 1.969 . S
Zn241 O254 1.969 . S
Zn241 O255 1.965 . S
Zn241 O257 2.024 . S
C242 O243 1.229 . S
C242 O251 1.058 . S
O243 C242 1.229 . S
C244 O245 1.229 . S
C244 O257 1.058 . S
O245 C244 1.229 . S
O246 Zn240 1.969 . S
O246 C249 1.267 . S
O247 Zn240 1.965 . S
O247 C258 1.260 . S
O248 Zn241 1.969 . S
O248 C258 1.258 . S
C249 O246 1.267 . S
C249 O250 1.228 . S
O250 C249 1.228 . S
O251 Zn240 2.024 . S
O251 C242 1.058 . S
C252 O253 1.228 . S
C252 O254 1.267 . S
O253 C252 1.228 . S
O254 Zn241 1.969 . S
O254 C252 1.267 . S
O255 Zn241 1.965 . S
O255 C259 1.260 . S
O256 Zn240 1.969 . S
O256 C259 1.258 . S
O257 Zn241 2.024 . S
O257 C244 1.058 . S
C258 O247 1.260 . S
C258 O248 1.258 . S
C259 O255 1.260 . S
C259 O256 1.258 . S
Zn260 O266 1.969 . S
Zn260 O267 1.965 . S
Zn260 O271 2.024 . S
Zn260 O276 1.969 . S
Zn261 O268 1.969 . S
Zn261 O274 1.969 . S
Zn261 O275 1.965 . S
Zn261 O277 2.024 . S
C262 O263 1.229 . S
C262 O271 1.058 . S
O263 C262 1.229 . S
C264 O265 1.229 . S
C264 O277 1.058 . S
O265 C264 1.229 . S
O266 Zn260 1.969 . S
O266 C269 1.267 . S
O267 Zn260 1.965 . S
O267 C278 1.260 . S
O268 Zn261 1.969 . S
O268 C278 1.258 . S
C269 O266 1.267 . S
C269 O270 1.228 . S
O270 C269 1.228 . S
O271 Zn260 2.024 . S
O271 C262 1.058 . S
C272 O273 1.228 . S
C272 O274 1.267 . S
O273 C272 1.228 . S
O274 Zn261 1.969 . S
O274 C272 1.267 . S
O275 Zn261 1.965 . S
O275 C279 1.260 . S
O276 Zn260 1.969 . S
O276 C279 1.258 . S
O277 Zn261 2.024 . S
O277 C264 1.058 . S
C278 O267 1.260 . S
C278 O268 1.258 . S
C279 O275 1.260 . S
C279 O276 1.258 . S
Zn280 O286 1.969 . S
Zn280 O287 1.965 . S
Zn280 O291 2.024 . S
Zn280 O296 1.969 . S
Zn281 O288 1.969 . S
Zn281 O294 1.969 . S
Zn281 O295 1.965 . S
Zn281 O297 2.024 . S
C282 O283 1.229 . S
C282 O291 1.058 . S
O283 C282 1.229 . S
C284 O285 1.229 . S
C284 O297 1.058 . S
O285 C284 1.229 . S
O286 Zn280 1.969 . S
O286 C289 1.267 . S
O287 Zn280 1.965 . S
O287 C298 1.260 . S
O288 Zn281 1.969 . S
O288 C298 1.258 . S
C289 O286 1.267 . S
C289 O290 1.228 . S
O290 C289 1.228 . S
O291 Zn280 2.024 . S
O291 C282 1.058 . S
C292 O293 1.228 . S
C292 O294 1.267 . S
O293 C292 1.228 . S
O294 Zn281 1.969 . S
O294 C292 1.267 . S
O295 Zn281 1.965 . S
O295 C299 1.260 . S
O296 Zn280 1.969 . S
O296 C299 1.258 . S
O297 Zn281 2.024 . S
O297 C284 1.058 . S
C298 O287 1.260 . S
C298 O288 1.258 . S
C299 O295 1.260 . S
C299 O296 1.258 . S
Zn300 O306 1.969 . S
Zn300 O307 1.965 . S
Zn300 O311 2.024 . S
Zn300 O316 1.969 . S
Zn301 O308 1.969 . S
Zn301 O314 1.969 . S
Zn301 O315 1.965 . S
Zn301 O317 2.024 . S
C302 O303 1.229 . S
C302 O311 1.058 . S
O303 C302 1.229 . S
C304 O305 1.229 . S
C304 O317 1.058 . S
O305 C304 1.229 . S
O306 Zn300 1.969 . S
O306 C309 1.267 . S
O307 Zn300 1.965 . S
O307 C318 1.260 . S
O308 Zn301 1.969 . S
O308 C318 1.258 . S
C309 O306 1.267 . S
C309 O310 1.228 . S
O310 C309 1.228 . S
O311 Zn300 2.024 . S
O311 C302 1.058 . S
C312 O313 1.228 . S
C312 O314 1.267 . S
O313 C312 1.228 . S
O314 Zn301 1.969 . S
O314 C312 1.267 . S
O315 Zn301 1.965 . S
O315 C319 1.260 . S
O316 Zn300 1.969 . S
O316 C319 1.258 . S
O317 Zn301 2.024 . S
O317 C304 1.058 . S
C318 O307 1.260 . S
C318 O308 1.258 . S
C319 O315 1.260 . S
C319 O316 1.258 . S
Zn320 O326 1.969 . S
Zn320 O327 1.965 . S
Zn320 O331 2.024 . S
Zn320 O336 1.969 . S
Zn321 O328 1.969 . S
Zn321 O334 1.969 . S
Zn321 O335 1.965 . S
Zn321 O337 2.024 . S
C322 O323 1.229 . S
C322 O331 1.058 . S
O323 C322 1.229 . S
C324 O325 1.229 . S
C324 O337 1.058 . S
O325 C324 1.229 . S
O326 Zn320 1.969 . S
O326 C329 1.267 . S
O327 Zn320 1.965 . S
O327 C338 1.260 . S
O328 Zn321 1.969 . S
O328 C338 1.258 . S
C329 O326 1.267 . S
C329 O330 1.228 . S
O330 C329 1.228 . S
O331 Zn320 2.024 . S
O331 C322 1.058 . S
C332 O333 1.228 . S
C332 O334 1.267 . S
O333 C332 1.228 . S
O334 Zn321 1.969 . S
O334 C332 1.267 . S
O335 Zn321 1.965 . S
O335 C339 1.260 . S
O336 Zn320 1.969 . S
O336 C339 1.258 . S
O337 Zn321 2.024 . S
O337 C324 1.058 . S
C338 O327 1.260 . S
C338 O328 1.258 . S
C339 O335 1.260 . S
C339 O336 1.258 . S
Zn340 O346 1.969 . S
Zn340 O347 1.965 . S
Zn340 O351 2.024 . S
Zn340 O356 1.969 . S
Zn341 O348 1.969 . S
Zn341 O354 1.969 . S
Zn341 O355 1.965 . S
Zn341 O357 2.024 . S
C342 O343 1.229 . S
C342 O351 1.058 . S
O343 C342 1.229 . S
C344 O345 1.229 . S
C344 O357 1.058 . S
O345 C344 1.229 . S
O346 Zn340 1.969 . S
O346 C349 1.267 . S
O347 Zn340 1.965 . S
O347 C358 1.260 . S
O348 Zn341 1.969 . S
O348 C358 1.258 . S
C349 O346 1.267 . S
C349 O350 1.228 . S
O350 C349 1.228 . S
O351 Zn340 2.024 . S
O351 C342 1.058 . S
C352 O353 1.228 . S
C352 O354 1.267 . S
O353 C352 1.228 . S
O354 Zn341 1.969 . S
O354 C352 1.267 . S
O355 Zn341 1.965 . S
O355 C359 1.260 . S
O356 Zn340 1.969 . S
O356 C359 1.258 . S
O357 Zn341 2.024 . S
O357 C344 1.058 . S
C358 O347 1.260 . S
C358 O348 1.258 . S
C359 O355 1.260 . S
C359 O356 1.258 . S
Zn360 O366 1.969 . S
Zn360 O367 1.965 . S
Zn360 O371 2.024 . S
Zn360 O376 1.969 . S
Zn361 O368 1.969 . S
Zn361 O374 1.969 . S
Zn361 O375 1.965 . S
Zn361 O377 2.024 . S
C362 O363 1.229 . S
C362 O371 1.058 . S
O363 C362 1.229 . S
C364 O365 1.229 . S
C364 O377 1.058 . S
O365 C364 1.229 . S
O366 Zn360 1.969 . S
O366 C369 1.267 . S
O367 Zn360 1.965 . S
O367 C378 1.260 . S
O368 Zn361 1.969 . S
O368 C378 1.258 . S
C369 O366 1.267 . S
C369 O370 1.228 . S
O370 C369 1.228 . S
O371 Zn360 2.024 . S
O371 C362 1.058 . S
C372 O373 1.228 . S
C372 O374 1.267 . S
O373 C372 1.228 . S
O374 Zn361 1.969 . S
O374 C372 1.267 . S
O375 Zn361 1.965 . S
O375 C379 1.260 . S
O376 Zn360 1.969 . S
O376 C379 1.258 . S
O377 Zn361 2.024 . S
O377 C364 1.058 . S
C378 O367 1.260 . S
C378 O368 1.258 . S
C379 O375 1.260 . S
C379 O376 1.258 . S
Zn380 O386 1.969 . S
Zn380 O387 1.965 . S
Zn380 O391 2.024 . S
Zn380 O396 1.969 . S
Zn381 O388 1.969 . S
Zn381 O394 1.969 . S
Zn381 O395 1.965 . S
Zn381 O397 2.024 . S
C382 O383 1.229 . S
C382 O391 1.058 . S
O383 C382 1.229 . S
C384 O385 1.229 . S
C384 O397 1.058 . S
O385 C384 1.229 . S
O386 Zn380 1.969 . S
O386 C389 1.267 . S
O387 Zn380 1.965 . S
O387 C398 1.260 . S
O388 Zn381 1.969 . S
O388 C398 1.258 . S
C389 O386 1.267 . S
C389 O390 1.228 . S
O390 C389 1.228 . S
O391 Zn380 2.024 . S
O391 C382 1.058 . S
C392 O393 1.228 . S
C392 O394 1.267 . S
O393 C392 1.228 . S
O394 Zn381 1.969 . S
O394 C392 1.267 . S
O395 Zn381 1.965 . S
O395 C399 1.260 . S
O396 Zn380 1.969 . S
O396 C399 1.258 . S
O397 Zn381 2.024 . S
O397 C384 1.058 . S
C398 O387 1.260 . S
C398 O388 1.258 . S
C399 O395 1.260 . S
C399 O396 1.258 . S
Zn400 O406 1.969 . S
Zn400 O407 1.965 . S
Zn400 O411 2.024 . S
Zn400 O416 1.969 . S
Zn401 O408 1.969 . S
Zn401 O414 1.969 . S
Zn401 O415 1.965 . S
Zn401 O417 2.024 . S
C402 O403 1.229 . S
C402 O411 1.058 . S
O403 C402 1.229 . S
C404 O405 1.229 . S
C404 O417 1.058 . S
O405 C404 1.229 . S
O406 Zn400 1.969 . S
O406 C409 1.267 . S
O407 Zn400 1.965 . S
O407 C418 1.260 . S
O408 Zn401 1.969 . S
O408 C418 1.258 . S
C409 O406 1.267 . S
C409 O410 1.228 . S
O410 C409 1.228 . S
O411 Zn400 2.024 . S
O411 C402 1.058 . S
C412 O413 1.228 . S
C412 O414 1.267 . S
O413 C412 1.228 . S
O414 Zn401 1.969 . S
O414 C412 1.267 . S
O415 Zn401 1.965 . S
O415 C419 1.260 . S
O416 Zn400 1.969 . S
O416 C419 1.258 . S
O417 Zn401 2.024 . S
O417 C404 1.058 . S
C418 O407 1.260 . S
C418 O408 1.258 . S
C419 O415 1.260 . S
C419 O416 1.258 . S
Zn420 O426 1.969 . S
Zn420 O427 1.965 . S
Zn420 O431 2.024 . S
Zn420 O436 1.969 . S
Zn421 O428 1.969 . S
Zn421 O434 1.969 . S
Zn421 O435 1.965 . S
Zn421 O437 2.024 . S
C422 O423 1.229 . S
C422 O431 1.058 . S
O423 C422 1.229 . S
C424 O425 1.229 . S
C424 O437 1.058 . S
O425 C424 1.229 . S
O426 Zn420 1.969 . S
O426 C429 1.267 . S
O427 Zn420 1.965 . S
O427 C438 1.260 . S
O428 Zn421 1.969 . S
O428 C438 1.258 1_554 S
C429 O426 1.267 . S
C429 O430 1.228 . S
O430 C429 1.228 . S
O431 Zn420 2.024 . S
O431 C422 1.058 . S
C432 O433 1.228 . S
C432 O434 1.267 . S
O433 C432 1.228 . S
O434 Zn421 1.969 . S
O434 C432 1.267 . S
O435 Zn421 1.965 . S
O435 C439 1.260 . S
O436 Zn420 1.969 . S
O436 C439 1.258 1_556 S
O437 Zn421 2.024 . S
O437 C424 1.058 . S
C438 O427 1.260 . S
C438 O428 1.258 1_556 S
C439 O435 1.260 . S
C439 O436 1.258 1_554 S
Zn440 O446 1.969 . S
Zn440 O447 1.965 . S
Zn440 O451 2.024 . S
Zn440 O456 1.969 . S
Zn441 O448 1.969 . S
Zn441 O454 1.969 . S
Zn441 O455 1.965 . S
Zn441 O457 2.024 . S
C442 O443 1.229 . S
C442 O451 1.058 . S
O443 C442 1.229 . S
C444 O445 1.229 . S
C444 O457 1.058 . S
O445 C444 1.229 . S
O446 Zn440 1.969 . S
O446 C449 1.267 . S
O447 Zn440 1.965 . S
O447 C458 1.260 . S
O448 Zn441 1.969 . S
O448 C458 1.258 1_554 S
C449 O446 1.267 . S
C449 O450 1.228 . S
O450 C449 1.228 . S
O451 Zn440 2.024 . S
O451 C442 1.058 . S
C452 O453 1.228 . S
C452 O454 1.267 . S
O453 C452 1.228 . S
O454 Zn441 1.969 . S
O454 C452 1.267 . S
O455 Zn441 1.965 . S
O455 C459 1.260 . S
O456 Zn440 1.969 . S
O456 C459 1.258 1_556 S
O457 Zn441 2.024 . S
O457 C444 1.058 . S
C458 O447 1.260 . S
C458 O448 1.258 1_556 S
C459 O455 1.260 . S
C459 O456 1.258 1_554 S
Zn460 O466 1.969 . S
Zn460 O467 1.965 . S
Zn460 O471 2.024 . S
Zn460 O476 1.969 . S
Zn461 O468 1.969 . S
Zn461 O474 1.969 . S
Zn461 O475 1.965 . S
Zn461 O477 2.024 . S
C462 O463 1.229 . S
C462 O471 1.058 . S
O463 C462 1.229 . S
C464 O465 1.229 . S
C464 O477 1.058 . S
O465 C464 1.229 . S
O466 Zn460 1.969 . S
O466 C469 1.267 . S
O467 Zn460 1.965 . S
O467 C478 1.260 . S
O468 Zn461 1.969 . S
O468 C478 1.258 1_554 S
C469 O466 1.267 . S
C469 O470 1.228 . S
O470 C469 1.228 . S
O471 Zn460 2.024 . S
O471 C462 1.058 . S
C472 O473 1.228 . S
C472 O474 1.267 . S
O473 C472 1.228 . S
O474 Zn461 1.969 . S
O474 C472 1.267 . S
O475 Zn461 1.965 . S
O475 C479 1.260 . S
O476 Zn460 1.969 . S
O476 C479 1.258 1_556 S
O477 Zn461 2.024 . S
O477 C464 1.058 . S
C478 O467 1.260 . S
C478 O468 1.258 1_556 S
C479 O475 1.260 . S
C479 O476 1.258 1_554 S
Zn480 O486 1.969 . S
Zn480 O487 1.965 . S
Zn480 O491 2.024 . S
Zn480 O496 1.969 . S
Zn481 O488 1.969 . S
Zn481 O494 1.969 . S
Zn481 O495 1.965 . S
Zn481 O497 2.024 . S
C482 O483 1.229 . S
C482 O491 1.058 . S
O483 C482 1.229 . S
C484 O485 1.229 . S
C484 O497 1.058 . S
O485 C484 1.229 . S
O486 Zn480 1.969 . S
O486 C489 1.267 . S
O487 Zn480 1.965 . S
O487 C498 1.260 . S
O488 Zn481 1.969 . S
O488 C498 1.258 . S
C489 O486 1.267 . S
C489 O490 1.228 . S
O490 C489 1.228 . S
O491 Zn480 2.024 . S
O491 C482 1.058 . S
C492 O493 1.228 . S
C492 O494 1.267 . S
O493 C492 1.228 . S
O494 Zn481 1.969 . S
O494 C492 1.267 . S
O495 Zn481 1.965 . S
O495 C499 1.260 . S
O496 Zn480 1.969 . S
O496 C499 1.258 . S
O497 Zn481 2.024 . S
O497 C484 1.058 . S
C498 O487 1.260 . S
C498 O488 1.258 . S
C499 O495 1.260 . S
C499 O496 1.258 . S
Zn500 O506 1.969 . S
Zn500 O507 1.965 . S
Zn500 O511 2.024 . S
Zn500 O516 1.969 . S
Zn501 O508 1.969 . S
Zn501 O514 1.969 . S
Zn501 O515 1.965 . S
Zn501 O517 2.024 . S
C502 O503 1.229 . S
C502 O511 1.058 . S
O503 C502 1.229 . S
C504 O505 1.229 . S
C504 O517 1.058 . S
O505 C504 1.229 . S
O506 Zn500 1.969 . S
O506 C509 1.267 . S
O507 Zn500 1.965 . S
O507 C518 1.260 . S
O508 Zn501 1.969 . S
O508 C518 1.258 . S
C509 O506 1.267 . S
C509 O510 1.228 . S
O510 C509 1.228 . S
O511 Zn500 2.024 . S
O511 C502 1.058 . S
C512 O513 1.228 . S
C512 O514 1.267 . S
O513 C512 1.228 . S
O514 Zn501 1.969 . S
O514 C512 1.267 . S
O515 Zn501 1.965 . S
O515 C519 1.260 . S
O516 Zn500 1.969 . S
O516 C519 1.258 . S
O517 Zn501 2.024 . S
O517 C504 1.058 . S
C518 O507 1.260 . S
C518 O508 1.258 . S
C519 O515 1.260 . S
C519 O516 1.258 . S
Zn520 O526 1.969 . S
Zn520 O527 1.965 . S
Zn520 O531 2.024 . S
Zn520 O536 1.969 . S
Zn521 O528 1.969 . S
Zn521 O534 1.969 . S
Zn521 O535 1.965 . S
Zn521 O537 2.024 . S
C522 O523 1.229 . S
C522 O531 1.058 . S
O523 C522 1.229 . S
C524 O525 1.229 . S
C524 O537 1.058 . S
O525 C524 1.229 . S
O526 Zn520 1.969 . S
O526 C529 1.267 . S
O527 Zn520 1.965 . S
O527 C538 1.260 . S
O528 Zn521 1.969 . S
O528 C538 1.258 . S
C529 O526 1.267 . S
C529 O530 1.228 . S
O530 C529 1.228 . S
O531 Zn520 2.024 . S
O531 C522 1.058 . S
C532 O533 1.228 . S
C532 O534 1.267 . S
O533 C532 1.228 . S
O534 Zn521 1.969 . S
O534 C532 1.267 . S
O535 Zn521 1.965 . S
O535 C539 1.260 . S
O536 Zn520 1.969 . S
O536 C539 1.258 . S
O537 Zn521 2.024 . S
O537 C524 1.058 . S
C538 O527 1.260 . S
C538 O528 1.258 . S
C539 O535 1.260 . S
C539 O536 1.258 . S
Zn540 O546 1.969 . S
Zn540 O547 1.965 . S
Zn540 O551 2.024 . S
Zn540 O556 1.969 . S
Zn541 O548 1.969 . S
Zn541 O554 1.969 . S
Zn541 O555 1.965 . S
Zn541 O557 2.024 . S
C542 O543 1.229 . S
C542 O551 1.058 . S
O543 C542 1.229 . S
C544 O545 1.229 . S
C544 O557 1.058 . S
O545 C544 1.229 . S
O546 Zn540 1.969 . S
O546 C549 1.267 . S
O547 Zn540 1.965 . S
O547 C558 1.260 . S
O548 Zn541 1.969 . S
O548 C558 1.258 1_554 S
C549 O546 1.267 . S
C549 O550 1.228 . S
O550 C549 1.228 . S
O551 Zn540 2.024 . S
O551 C542 1.058 . S
C552 O553 1.228 . S
C552 O554 1.267 . S
O553 C552 1.228 . S
O554 Zn541 1.969 . S
O554 C552 1.267 . S
O555 Zn541 1.965 . S
O555 C559 1.260 . S
O556 Zn540 1.969 . S
O556 C559 1.258 1_556 S
O557 Zn541 2.024 . S
O557 C544 1.058 . S
C558 O547 1.260 . S
C558 O548 1.258 1_556 S
C559 O555 1.260 . S
C559 O556 1.258 1_554 S
Zn560 O566 1.969 . S
Zn560 O567 1.965 . S
Zn560 O571 2.024 . S
Zn560 O576 1.969 . S
Zn561 O568 1.969 . S
Zn561 O574 1.969 . S
Zn561 O575 1.965 . S
Zn561 O577 2.024 . S
C562 O563 1.229 . S
C562 O571 1.058 . S
O563 C562 1.229 . S
C564 O565 1.229 . S
C564 O577 1.058 . S
O565 C564 1.229 . S
O566 Zn560 1.969 . S
O566 C569 1.267 . S
O567 Zn560 1.965 . S
O567 C578 1.260 . S
O568 Zn561 1.969 . S
O568 C578 1.258 1_554 S
C569 O566 1.267 . S
C569 O570 1.228 . S
O570 C569 1.228 . S
O571 Zn560 2.024 . S
O571 C562 1.058 . S
C572 O573 1.228 . S
C572 O574 1.267 . S
O573 C572 1.228 . S
O574 Zn561 1.969 . S
O574 C572 1.267 . S
O575 Zn561 1.965 . S
O575 C579 1.260 . S
O576 Zn560 1.969 . S
O576 C579 1.258 1_556 S
O577 Zn561 2.024 . S
O577 C564 1.058 . S
C578 O567 1.260 . S
C578 O568 1.258 1_556 S
C579 O575 1.260 . S
C579 O576 1.258 1_554 S
Zn580 O586 1.969 . S
Zn580 O587 1.965 . S
Zn580 O591 2.024 . S
Zn580 O596 1.969 . S
Zn581 O588 1.969 . S
Zn581 O594 1.969 . S
Zn581 O595 1.965 . S
Zn581 O597 2.024 . S
C582 O583 1.229 . S
C582 O591 1.058 . S
O583 C582 1.229 . S
C584 O585 1.229 . S
C584 O597 1.058 . S
O585 C584 1.229 . S
O586 Zn580 1.969 . S
O586 C589 1.267 . S
O587 Zn580 1.965 . S
O587 C598 1.260 . S
O588 Zn581 1.969 . S
O588 C598 1.258 1_554 S
C589 O586 1.267 . S
C589 O590 1.228 . S
O590 C589 1.228 . S
O591 Zn580 2.024 . S
O591 C582 1.058 . S
C592 O593 1.228 . S
C592 O594 1.267 . S
O593 C592 1.228 . S
O594 Zn581 1.969 . S
O594 C592 1.267 . S
O595 Zn581 1.965 . S
O595 C599 1.260 . S
O596 Zn580 1.969 . S
O596 C599 1.258 1_556 S
O597 Zn581 2.024 . S
O597 C584 1.058 . S
C598 O587 1.260 . S
C598 O588 1.258 1_556 S
C599 O595 1.260 . S
C599 O596 1.258 1_554 S
Zn600 O606 1.969 . S
Zn600 O607 1.965 . S
Zn600 O611 2.024 . S
Zn600 O616 1.969 . S
Zn601 O608 1.969 . S
Zn601 O614 1.969 . S
Zn601 O615 1.965 . S
Zn601 O617 2.024 . S
C602 O603 1.229 . S
C602 O611 1.058 . S
O603 C602 1.229 . S
C604 O605 1.229 . S
C604 O617 1.058 . S
O605 C604 1.229 . S
O606 Zn600 1.969 . S
O606 C609 1.267 . S
O607 Zn600 1.965 . S
O607 C618 1.260 . S
O608 Zn601 1.969 . S
O608 C618 1.258 . S
C609 O606 1.267 . S
C609 O610 1.228 . S
O610 C609 1.228 . S
O611 Zn600 2.024 . S
O611 C602 1.058 . S
C612 O613 1.228 . S
C612 O614 1.267 . S
O613 C612 1.228 . S
O614 Zn601 1.969 . S
O614 C612 1.267 . S
O615 Zn601 1.965 . S
O615 C619 1.260 . S
O616 Zn600 1.969 . S
O616 C619 1.258 . S
O617 Zn601 2.024 . S
O617 C604 1.058 . S
C618 O607 1.260 . S
C618 O608 1.258 . S
C619 O615 1.260 . S
C619 O616 1.258 . S
Zn620 O626 1.969 . S
Zn620 O627 1.965 . S
Zn620 O631 2.024 . S
Zn620 O636 1.969 . S
Zn621 O628 1.969 . S
Zn621 O634 1.969 . S
Zn621 O635 1.965 . S
Zn621 O637 2.024 . S
C622 O623 1.229 . S
C622 O631 1.058 . S
O623 C622 1.229 . S
C624 O625 1.229 . S
C624 O637 1.058 . S
O625 C624 1.229 . S
O626 Zn620 1.969 . S
O626 C629 1.267 . S
O627 Zn620 1.965 . S
O627 C638 1.260 . S
O628 Zn621 1.969 . S
O628 C638 1.258 . S
C629 O626 1.267 . S
C629 O630 1.228 . S
O630 C629 1.228 . S
O631 Zn620 2.024 . S
O631 C622 1.058 . S
C632 O633 1.228 . S
C632 O634 1.267 . S
O633 C632 1.228 . S
O634 Zn621 1.969 . S
O634 C632 1.267 . S
O635 Zn621 1.965 . S
O635 C639 1.260 . S
O636 Zn620 1.969 . S
O636 C639 1.258 . S
O637 Zn621 2.024 . S
O637 C624 1.058 . S
C638 O627 1.260 . S
C638 O628 1.258 . S
C639 O635 1.260 . S
C639 O636 1.258 . S
Zn640 O646 1.969 . S
Zn640 O647 1.965 . S
Zn640 O651 2.024 . S
Zn640 O656 1.969 . S
Zn641 O648 1.969 . S
Zn641 O654 1.969 . S
Zn641 O655 1.965 . S
Zn641 O657 2.024 . S
C642 O643 1.229 . S
C642 O651 1.058 . S
O643 C642 1.229 . S
C644 O645 1.229 . S
C644 O657 1.058 . S
O645 C644 1.229 . S
O646 Zn640 1.969 . S
O646 C649 1.267 . S
O647 Zn640 1.965 . S
O647 C658 1.260 . S
O648 Zn641 1.969 . S
O648 C658 1.258 . S
C649 O646 1.267 . S
C649 O650 1.228 . S
O650 C649 1.228 . S
O651 Zn640 2.024 . S
O651 C642 1.058 . S
C652 O653 1.228 . S
C652 O654 1.267 . S
O653 C652 1.228 . S
O654 Zn641 1.969 . S
O654 C652 1.267 . S
O655 Zn641 1.965 . S
O655 C659 1.260 . S
O656 Zn640 1.969 . S
O656 C659 1.258 . S
O657 Zn641 2.024 . S
O657 C644 1.058 . S
C658 O647 1.260 . S
C658 O648 1.258 . S
C659 O655 1.260 . S
C659 O656 1.258 . S
Zn660 O666 1.969 . S
Zn660 O667 1.965 . S
Zn660 O671 2.024 . S
Zn660 O676 1.969 . S
Zn661 O668 1.969 . S
Zn661 O674 1.969 . S
Zn661 O675 1.965 . S
Zn661 O677 2.024 . S
C662 O663 1.229 . S
C662 O671 1.058 . S
O663 C662 1.229 . S
C664 O665 1.229 . S
C664 O677 1.058 . S
O665 C664 1.229 . S
O666 Zn660 1.969 . S
O666 C669 1.267 . S
O667 Zn660 1.965 . S
O667 C678 1.260 . S
O668 Zn661 1.969 . S
O668 C678 1.258 . S
C669 O666 1.267 . S
C669 O670 1.228 . S
O670 C669 1.228 . S
O671 Zn660 2.024 . S
O671 C662 1.058 . S
C672 O673 1.228 . S
C672 O674 1.267 . S
O673 C672 1.228 . S
O674 Zn661 1.969 . S
O674 C672 1.267 . S
O675 Zn661 1.965 . S
O675 C679 1.260 . S
O676 Zn660 1.969 . S
O676 C679 1.258 . S
O677 Zn661 2.024 . S
O677 C664 1.058 . S
C678 O667 1.260 . S
C678 O668 1.258 . S
C679 O675 1.260 . S
C679 O676 1.258 . S
Zn680 O686 1.969 . S
Zn680 O687 1.965 . S
Zn680 O691 2.024 . S
Zn680 O696 1.969 . S
Zn681 O688 1.969 . S
Zn681 O694 1.969 . S
Zn681 O695 1.965 . S
Zn681 O697 2.024 . S
C682 O683 1.229 . S
C682 O691 1.058 . S
O683 C682 1.229 . S
C684 O685 1.229 . S
C684 O697 1.058 . S
O685 C684 1.229 . S
O686 Zn680 1.969 . S
O686 C689 1.267 . S
O687 Zn680 1.965 . S
O687 C698 1.260 . S
O688 Zn681 1.969 . S
O688 C698 1.258 . S
C689 O686 1.267 . S
C689 O690 1.228 . S
O690 C689 1.228 . S
O691 Zn680 2.024 . S
O691 C682 1.058 . S
C692 O693 1.228 . S
C692 O694 1.267 . S
O693 C692 1.228 . S
O694 Zn681 1.969 . S
O694 C692 1.267 . S
O695 Zn681 1.965 . S
O695 C699 1.260 . S
O696 Zn680 1.969 . S
O696 C699 1.258 . S
O697 Zn681 2.024 . S
O697 C684 1.058 . S
C698 O687 1.260 . S
C698 O688 1.258 . S
C699 O695 1.260 . S
C699 O696 1.258 . S
Zn700 O706 1.969 . S
Zn700 O707 1.965 . S
Zn700 O711 2.024 . S
Zn700 O716 1.969 . S
Zn701 O708 1.969 . S
Zn701 O714 1.969 . S
Zn701 O715 1.965 . S
Zn701 O717 2.024 . S
C702 O703 1.229 . S
C702 O711 1.058 . S
O703 C702 1.229 . S
C704 O705 1.229 . S
C704 O717 1.058 . S
O705 C704 1.229 . S
O706 Zn700 1.969 . S
O706 C709 1.267 . S
O707 Zn700 1.965 . S
O707 C718 1.260 . S
O708 Zn701 1.969 . S
O708 C718 1.258 . S
C709 O706 1.267 . S
C709 O710 1.228 . S
O710 C709 1.228 . S
O711 Zn700 2.024 . S
O711 C702 1.058 . S
C712 O713 1.228 . S
C712 O714 1.267 . S
O713 C712 1.228 . S
O714 Zn701 1.969 . S
O714 C712 1.267 . S
O715 Zn701 1.965 . S
O715 C719 1.260 . S
O716 Zn700 1.969 . S
O716 C719 1.258 . S
O717 Zn701 2.024 . S
O717 C704 1.058 . S
C718 O707 1.260 . S
C718 O708 1.258 . S
C719 O715 1.260 . S
C719 O716 1.258 . S
H720 C728 0.950 . S
H721 C733 0.950 . S
H722 C730 0.950 . S
H723 C732 0.950 . S
H724 C734 0.950 . S
H725 C736 0.950 . S
H726 C738 0.950 . S
H727 C739 0.950 1_565 S
C728 H720 0.950 . S
C728 C729 1.386 . S
C728 C730 1.391 . S
C729 C728 1.386 . S
C729 C733 1.393 . S
C730 H722 0.950 . S
C730 C728 1.391 . S
C730 C731 1.400 . S
C731 C730 1.400 . S
C731 C732 1.398 . S
C731 C737 1.491 . S
C732 H723 0.950 . S
C732 C731 1.398 . S
C732 C733 1.391 . S
C733 H721 0.950 . S
C733 C729 1.393 . S
C733 C732 1.391 . S
C734 H724 0.950 . S
C734 C735 1.386 . S
C734 C736 1.391 . S
C735 C734 1.386 . S
C735 C739 1.393 . S
C736 H725 0.950 . S
C736 C734 1.391 . S
C736 C737 1.400 . S
C737 C731 1.491 . S
C737 C736 1.400 . S
C737 C738 1.398 . S
C738 H726 0.950 . S
C738 C737 1.398 . S
C738 C739 1.391 . S
C739 H727 0.950 1_545 S
C739 C735 1.393 . S
C739 C738 1.391 . S
H740 C748 0.950 . S
H741 C753 0.950 . S
H742 C750 0.950 . S
H743 C752 0.950 . S
H744 C754 0.950 . S
H745 C756 0.950 . S
H746 C758 0.950 . S
H747 C759 0.950 . S
C748 H740 0.950 . S
C748 C749 1.386 . S
C748 C750 1.391 . S
C749 C748 1.386 . S
C749 C753 1.393 . S
C750 H742 0.950 . S
C750 C748 1.391 . S
C750 C751 1.400 . S
C751 C750 1.400 . S
C751 C752 1.398 . S
C751 C757 1.491 . S
C752 H743 0.950 . S
C752 C751 1.398 . S
C752 C753 1.391 . S
C753 H741 0.950 . S
C753 C749 1.393 . S
C753 C752 1.391 . S
C754 H744 0.950 . S
C754 C755 1.386 . S
C754 C756 1.391 1_565 S
C755 C754 1.386 . S
C755 C759 1.393 . S
C756 H745 0.950 . S
C756 C754 1.391 1_545 S
C756 C757 1.400 . S
C757 C751 1.491 . S
C757 C756 1.400 . S
C757 C758 1.398 . S
C758 H746 0.950 . S
C758 C757 1.398 . S
C758 C759 1.391 1_545 S
C759 H747 0.950 . S
C759 C755 1.393 . S
C759 C758 1.391 1_565 S
H760 C768 0.950 . S
H761 C773 0.950 . S
H762 C770 0.950 . S
H763 C772 0.950 . S
H764 C774 0.950 . S
H765 C776 0.950 . S
H766 C778 0.950 . S
H767 C779 0.950 . S
C768 H760 0.950 . S
C768 C769 1.386 . S
C768 C770 1.391 1_455 S
C769 C768 1.386 . S
C769 C773 1.393 . S
C770 H762 0.950 . S
C770 C768 1.391 1_655 S
C770 C771 1.400 . S
C771 C770 1.400 . S
C771 C772 1.398 . S
C771 C777 1.491 . S
C772 H763 0.950 . S
C772 C771 1.398 . S
C772 C773 1.391 1_655 S
C773 H761 0.950 . S
C773 C769 1.393 . S
C773 C772 1.391 1_455 S
C774 H764 0.950 . S
C774 C775 1.386 . S
C774 C776 1.391 . S
C775 C774 1.386 . S
C775 C779 1.393 . S
C776 H765 0.950 . S
C776 C774 1.391 . S
C776 C777 1.400 . S
C777 C771 1.491 . S
C777 C776 1.400 . S
C777 C778 1.398 . S
C778 H766 0.950 . S
C778 C777 1.398 . S
C778 C779 1.391 . S
C779 H767 0.950 . S
C779 C775 1.393 . S
C779 C778 1.391 . S
H780 C788 0.950 . S
H781 C793 0.950 . S
H782 C790 0.950 . S
H783 C792 0.950 . S
H784 C794 0.950 1_655 S
H785 C796 0.950 . S
H786 C798 0.950 . S
H787 C799 0.950 . S
C788 H780 0.950 . S
C788 C789 1.386 . S
C788 C790 1.391 . S
C789 C788 1.386 . S
C789 C793 1.393 . S
C790 H782 0.950 . S
C790 C788 1.391 . S
C790 C791 1.400 . S
C791 C790 1.400 . S
C791 C792 1.398 . S
C791 C797 1.491 . S
C792 H783 0.950 . S
C792 C791 1.398 . S
C792 C793 1.391 . S
C793 H781 0.950 . S
C793 C789 1.393 . S
C793 C792 1.391 . S
C794 H784 0.950 1_455 S
C794 C795 1.386 . S
C794 C796 1.391 . S
C795 C794 1.386 . S
C795 C799 1.393 . S
C796 H785 0.950 . S
C796 C794 1.391 . S
C796 C797 1.400 . S
C797 C791 1.491 . S
C797 C796 1.400 . S
C797 C798 1.398 . S
C798 H786 0.950 . S
C798 C797 1.398 . S
C798 C799 1.391 . S
C799 H787 0.950 . S
C799 C795 1.393 . S
C799 C798 1.391 . S
H800 C808 0.950 . S
H801 C813 0.950 . S
H802 C810 0.950 . S
H803 C812 0.950 . S
H804 C814 0.950 . S
H805 C816 0.950 . S
H806 C818 0.950 . S
H807 C819 0.950 . S
C808 H800 0.950 . S
C808 C809 1.386 . S
C808 C810 1.391 . S
C809 C808 1.386 . S
C809 C813 1.393 . S
C810 H802 0.950 . S
C810 C808 1.391 . S
C810 C811 1.400 . S
C811 C810 1.400 . S
C811 C812 1.398 . S
C811 C817 1.491 . S
C812 H803 0.950 . S
C812 C811 1.398 . S
C812 C813 1.391 . S
C813 H801 0.950 . S
C813 C809 1.393 . S
C813 C812 1.391 . S
C814 H804 0.950 . S
C814 C815 1.386 . S
C814 C816 1.391 1_545 S
C815 C814 1.386 . S
C815 C819 1.393 . S
C816 H805 0.950 . S
C816 C814 1.391 1_565 S
C816 C817 1.400 . S
C817 C811 1.491 . S
C817 C816 1.400 . S
C817 C818 1.398 . S
C818 H806 0.950 . S
C818 C817 1.398 . S
C818 C819 1.391 1_565 S
C819 H807 0.950 . S
C819 C815 1.393 . S
C819 C818 1.391 1_545 S
H820 C828 0.950 . S
H821 C833 0.950 . S
H822 C830 0.950 . S
H823 C832 0.950 . S
H824 C834 0.950 . S
H825 C836 0.950 . S
H826 C838 0.950 . S
H827 C839 0.950 1_545 S
C828 H820 0.950 . S
C828 C829 1.386 . S
C828 C830 1.391 1_655 S
C829 C828 1.386 . S
C829 C833 1.393 . S
C830 H822 0.950 . S
C830 C828 1.391 1_455 S
C830 C831 1.400 . S
C831 C830 1.400 . S
C831 C832 1.398 . S
C831 C837 1.491 . S
C832 H823 0.950 . S
C832 C831 1.398 . S
C832 C833 1.391 1_455 S
C833 H821 0.950 . S
C833 C829 1.393 . S
C833 C832 1.391 1_655 S
C834 H824 0.950 . S
C834 C835 1.386 . S
C834 C836 1.391 . S
C835 C834 1.386 . S
C835 C839 1.393 . S
C836 H825 0.950 . S
C836 C834 1.391 . S
C836 C837 1.400 . S
C837 C831 1.491 . S
C837 C836 1.400 . S
C837 C838 1.398 . S
C838 H826 0.950 . S
C838 C837 1.398 . S
C838 C839 1.391 . S
C839 H827 0.950 1_565 S
C839 C835 1.393 . S
C839 C838 1.391 . S
H840 C848 0.950 . S
H841 C853 0.950 . S
H842 C850 0.950 . S
H843 C852 0.950 . S
H844 C854 0.950 . S
H845 C856 0.950 . S
H846 C858 0.950 . S
H847 C859 0.950 1_545 S
C848 H840 0.950 . S
C848 C849 1.386 . S
C848 C850 1.391 . S
C849 C848 1.386 . S
C849 C853 1.393 . S
C850 H842 0.950 . S
C850 C848 1.391 . S
C850 C851 1.400 . S
C851 C850 1.400 . S
C851 C852 1.398 . S
C851 C857 1.491 . S
C852 H843 0.950 . S
C852 C851 1.398 . S
C852 C853 1.391 . S
C853 H841 0.950 . S
C853 C849 1.393 . S
C853 C852 1.391 . S
C854 H844 0.950 . S
C854 C855 1.386 . S
C854 C856 1.391 . S
C855 C854 1.386 . S
C855 C859 1.393 . S
C856 H845 0.950 . S
C856 C854 1.391 . S
C856 C857 1.400 . S
C857 C851 1.491 . S
C857 C856 1.400 . S
C857 C858 1.398 . S
C858 H846 0.950 . S
C858 C857 1.398 . S
C858 C859 1.391 . S
C859 H847 0.950 1_565 S
C859 C855 1.393 . S
C859 C858 1.391 . S
H860 C868 0.950 . S
H861 C873 0.950 . S
H862 C870 0.950 . S
H863 C872 0.950 . S
H864 C874 0.950 . S
H865 C876 0.950 . S
H866 C878 0.950 . S
H867 C879 0.950 . S
C868 H860 0.950 . S
C868 C869 1.386 . S
C868 C870 1.391 1_545 S
C869 C868 1.386 . S
C869 C873 1.393 . S
C870 H862 0.950 . S
C870 C868 1.391 1_565 S
C870 C871 1.400 . S
C871 C870 1.400 . S
C871 C872 1.398 . S
C871 C877 1.491 . S
C872 H863 0.950 . S
C872 C871 1.398 . S
C872 C873 1.391 1_565 S
C873 H861 0.950 . S
C873 C869 1.393 . S
C873 C872 1.391 1_545 S
C874 H864 0.950 . S
C874 C875 1.386 . S
C874 C876 1.391 . S
C875 C874 1.386 . S
C875 C879 1.393 . S
C876 H865 0.950 . S
C876 C874 1.391 . S
C876 C877 1.400 . S
C877 C871 1.491 . S
C877 C876 1.400 . S
C877 C878 1.398 . S
C878 H866 0.950 . S
C878 C877 1.398 . S
C878 C879 1.391 . S
C879 H867 0.950 . S
C879 C875 1.393 . S
C879 C878 1.391 . S
H880 C888 0.950 . S
H881 C893 0.950 . S
H882 C890 0.950 . S
H883 C892 0.950 . S
H884 C894 0.950 . S
H885 C896 0.950 . S
H886 C898 0.950 . S
H887 C899 0.950 . S
C888 H880 0.950 . S
C888 C889 1.386 . S
C888 C890 1.391 1_655 S
C889 C888 1.386 . S
C889 C893 1.393 . S
C890 H882 0.950 . S
C890 C888 1.391 1_455 S
C890 C891 1.400 . S
C891 C890 1.400 . S
C891 C892 1.398 . S
C891 C897 1.491 . S
C892 H883 0.950 . S
C892 C891 1.398 . S
C892 C893 1.391 1_455 S
C893 H881 0.950 . S
C893 C889 1.393 . S
C893 C892 1.391 1_655 S
C894 H884 0.950 . S
C894 C895 1.386 . S
C894 C896 1.391 . S
C895 C894 1.386 . S
C895 C899 1.393 . S
C896 H885 0.950 . S
C896 C894 1.391 . S
C896 C897 1.400 . S
C897 C891 1.491 . S
C897 C896 1.400 . S
C897 C898 1.398 . S
C898 H886 0.950 . S
C898 C897 1.398 . S
C898 C899 1.391 . S
C899 H887 0.950 . S
C899 C895 1.393 . S
C899 C898 1.391 . S
H900 C908 0.950 . S
H901 C913 0.950 . S
H902 C910 0.950 . S
H903 C912 0.950 . S
H904 C914 0.950 1_455 S
H905 C916 0.950 . S
H906 C918 0.950 . S
H907 C919 0.950 . S
C908 H900 0.950 . S
C908 C909 1.386 . S
C908 C910 1.391 . S
C909 C908 1.386 . S
C909 C913 1.393 . S
C910 H902 0.950 . S
C910 C908 1.391 . S
C910 C911 1.400 . S
C911 C910 1.400 . S
C911 C912 1.398 . S
C911 C917 1.491 . S
C912 H903 0.950 . S
C912 C911 1.398 . S
C912 C913 1.391 . S
C913 H901 0.950 . S
C913 C909 1.393 . S
C913 C912 1.391 . S
C914 H904 0.950 1_655 S
C914 C915 1.386 . S
C914 C916 1.391 . S
C915 C914 1.386 . S
C915 C919 1.393 . S
C916 H905 0.950 . S
C916 C914 1.391 . S
C916 C917 1.400 . S
C917 C911 1.491 . S
C917 C916 1.400 . S
C917 C918 1.398 . S
C918 H906 0.950 . S
C918 C917 1.398 . S
C918 C919 1.391 . S
C919 H907 0.950 . S
C919 C915 1.393 . S
C919 C918 1.391 . S
H920 C928 0.950 . S
H921 C933 0.950 . S
H922 C930 0.950 . S
H923 C932 0.950 . S
H924 C934 0.950 . S
H925 C936 0.950 . S
H926 C938 0.950 . S
H927 C939 0.950 . S
C928 H920 0.950 . S
C928 C929 1.386 . S
C928 C930 1.391 . S
C929 C928 1.386 . S
C929 C933 1.393 . S
C930 H922 0.950 . S
C930 C928 1.391 . S
C930 C931 1.400 . S
C931 C930 1.400 . S
C931 C932 1.398 . S
C931 C937 1.491 . S
C932 H923 0.950 . S
C932 C931 1.398 . S
C932 C933 1.391 . S
C933 H921 0.950 . S
C933 C929 1.393 . S
C933 C932 1.391 . S
C934 H924 0.950 . S
C934 C935 1.386 . S
C934 C936 1.391 1_565 S
C935 C934 1.386 . S
C935 C939 1.393 . S
C936 H925 0.950 . S
C936 C934 1.391 1_545 S
C936 C937 1.400 . S
C937 C931 1.491 . S
C937 C936 1.400 . S
C937 C938 1.398 . S
C938 H926 0.950 . S
C938 C937 1.398 . S
C938 C939 1.391 1_545 S
C939 H927 0.950 . S
C939 C935 1.393 . S
C939 C938 1.391 1_565 S
H940 C948 0.950 . S
H941 C953 0.950 . S
H942 C950 0.950 . S
H943 C952 0.950 . S
H944 C954 0.950 . S
H945 C956 0.950 . S
H946 C958 0.950 . S
H947 C959 0.950 . S
C948 H940 0.950 . S
C948 C949 1.386 . S
C948 C950 1.391 . S
C949 C948 1.386 . S
C949 C953 1.393 . S
C950 H942 0.950 . S
C950 C948 1.391 . S
C950 C951 1.400 . S
C951 C950 1.400 . S
C951 C952 1.398 . S
C951 C957 1.491 . S
C952 H943 0.950 . S
C952 C951 1.398 . S
C952 C953 1.391 . S
C953 H941 0.950 . S
C953 C949 1.393 . S
C953 C952 1.391 . S
C954 H944 0.950 . S
C954 C955 1.386 . S
C954 C956 1.391 1_455 S
C955 C954 1.386 . S
C955 C959 1.393 . S
C956 H945 0.950 . S
C956 C954 1.391 1_655 S
C956 C957 1.400 . S
C957 C951 1.491 . S
C957 C956 1.400 . S
C957 C958 1.398 . S
C958 H946 0.950 . S
C958 C957 1.398 . S
C958 C959 1.391 1_655 S
C959 H947 0.950 . S
C959 C955 1.393 . S
C959 C958 1.391 1_455 S
H960 C968 0.950 . S
H961 C973 0.950 . S
H962 C970 0.950 . S
H963 C972 0.950 . S
H964 C974 0.950 . S
H965 C976 0.950 . S
H966 C978 0.950 . S
H967 C979 0.950 . S
C968 H960 0.950 . S
C968 C969 1.386 . S
C968 C970 1.391 . S
C969 C968 1.386 . S
C969 C973 1.393 . S
C970 H962 0.950 . S
C970 C968 1.391 . S
C970 C971 1.400 . S
C971 C970 1.400 . S
C971 C972 1.398 . S
C971 C977 1.491 . S
C972 H963 0.950 . S
C972 C971 1.398 . S
C972 C973 1.391 . S
C973 H961 0.950 . S
C973 C969 1.393 . S
C973 C972 1.391 . S
C974 H964 0.950 . S
C974 C975 1.386 . S
C974 C976 1.391 . S
C975 C974 1.386 . S
C975 C979 1.393 . S
C976 H965 0.950 . S
C976 C974 1.391 . S
C976 C977 1.400 . S
C977 C971 1.491 . S
C977 C976 1.400 . S
C977 C978 1.398 . S
C978 H966 0.950 . S
C978 C977 1.398 . S
C978 C979 1.391 . S
C979 H967 0.950 . S
C979 C975 1.393 . S
C979 C978 1.391 . S
H980 C988 0.950 . S
H981 C993 0.950 . S
H982 C990 0.950 . S
H983 C992 0.950 . S
H984 C994 0.950 . S
H985 C996 0.950 . S
H986 C998 0.950 . S
H987 C999 0.950 . S
C988 H980 0.950 . S
C988 C989 1.386 . S
C988 C990 1.391 . S
C989 C988 1.386 . S
C989 C993 1.393 . S
C990 H982 0.950 . S
C990 C988 1.391 . S
C990 C991 1.400 . S
C991 C990 1.400 . S
C991 C992 1.398 . S
C991 C997 1.491 . S
C992 H983 0.950 . S
C992 C991 1.398 . S
C992 C993 1.391 . S
C993 H981 0.950 . S
C993 C989 1.393 . S
C993 C992 1.391 . S
C994 H984 0.950 . S
C994 C995 1.386 . S
C994 C996 1.391 . S
C995 C994 1.386 . S
C995 C999 1.393 . S
C996 H985 0.950 . S
C996 C994 1.391 . S
C996 C997 1.400 . S
C997 C991 1.491 . S
C997 C996 1.400 . S
C997 C998 1.398 . S
C998 H986 0.950 . S
C998 C997 1.398 . S
C998 C999 1.391 . S
C999 H987 0.950 . S
C999 C995 1.393 . S
C999 C998 1.391 . S
H1000 C1008 0.950 . S
H1001 C1013 0.950 . S
H1002 C1010 0.950 . S
H1003 C1012 0.950 . S
H1004 C1014 0.950 . S
H1005 C1016 0.950 . S
H1006 C1018 0.950 . S
H1007 C1019 0.950 . S
C1008 H1000 0.950 . S
C1008 C1009 1.386 . S
C1008 C1010 1.391 . S
C1009 C1008 1.386 . S
C1009 C1013 1.393 . S
C1010 H1002 0.950 . S
C1010 C1008 1.391 . S
C1010 C1011 1.400 . S
C1011 C1010 1.400 . S
C1011 C1012 1.398 . S
C1011 C1017 1.491 . S
C1012 H1003 0.950 . S
C1012 C1011 1.398 . S
C1012 C1013 1.391 . S
C1013 H1001 0.950 . S
C1013 C1009 1.393 . S
C1013 C1012 1.391 . S
C1014 H1004 0.950 . S
C1014 C1015 1.386 . S
C1014 C1016 1.391 . S
C1015 C1014 1.386 . S
C1015 C1019 1.393 . S
C1016 H1005 0.950 . S
C1016 C1014 1.391 . S
C1016 C1017 1.400 . S
C1017 C1011 1.491 . S
C1017 C1016 1.400 . S
C1017 C1018 1.398 . S
C1018 H1006 0.950 . S
C1018 C1017 1.398 . S
C1018 C1019 1.391 . S
C1019 H1007 0.950 . S
C1019 C1015 1.393 . S
C1019 C1018 1.391 . S
H1020 C1028 0.950 . S
H1021 C1033 0.950 . S
H1022 C1030 0.950 . S
H1023 C1032 0.950 . S
H1024 C1034 0.950 . S
H1025 C1036 0.950 . S
H1026 C1038 0.950 . S
H1027 C1039 0.950 . S
C1028 H1020 0.950 . S
C1028 C1029 1.386 . S
C1028 C1030 1.391 . S
C1029 C1028 1.386 . S
C1029 C1033 1.393 . S
C1030 H1022 0.950 . S
C1030 C1028 1.391 . S
C1030 C1031 1.400 . S
C1031 C1030 1.400 . S
C1031 C1032 1.398 . S
C1031 C1037 1.491 . S
C1032 H1023 0.950 . S
C1032 C1031 1.398 . S
C1032 C1033 1.391 . S
C1033 H1021 0.950 . S
C1033 C1029 1.393 . S
C1033 C1032 1.391 . S
C1034 H1024 0.950 . S
C1034 C1035 1.386 . S
C1034 C1036 1.391 . S
C1035 C1034 1.386 . S
C1035 C1039 1.393 . S
C1036 H1025 0.950 . S
C1036 C1034 1.391 . S
C1036 C1037 1.400 . S
C1037 C1031 1.491 . S
C1037 C1036 1.400 . S
C1037 C1038 1.398 . S
C1038 H1026 0.950 . S
C1038 C1037 1.398 . S
C1038 C1039 1.391 . S
C1039 H1027 0.950 . S
C1039 C1035 1.393 . S
C1039 C1038 1.391 . S
H1040 C1048 0.950 . S
H1041 C1053 0.950 . S
H1042 C1050 0.950 . S
H1043 C1052 0.950 . S
H1044 C1054 0.950 . S
H1045 C1056 0.950 . S
H1046 C1058 0.950 . S
H1047 C1059 0.950 . S
C1048 H1040 0.950 . S
C1048 C1049 1.386 . S
C1048 C1050 1.391 . S
C1049 C1048 1.386 . S
C1049 C1053 1.393 . S
C1050 H1042 0.950 . S
C1050 C1048 1.391 . S
C1050 C1051 1.400 . S
C1051 C1050 1.400 . S
C1051 C1052 1.398 . S
C1051 C1057 1.491 . S
C1052 H1043 0.950 . S
C1052 C1051 1.398 . S
C1052 C1053 1.391 . S
C1053 H1041 0.950 . S
C1053 C1049 1.393 . S
C1053 C1052 1.391 . S
C1054 H1044 0.950 . S
C1054 C1055 1.386 . S
C1054 C1056 1.391 . S
C1055 C1054 1.386 . S
C1055 C1059 1.393 . S
C1056 H1045 0.950 . S
C1056 C1054 1.391 . S
C1056 C1057 1.400 . S
C1057 C1051 1.491 . S
C1057 C1056 1.400 . S
C1057 C1058 1.398 . S
C1058 H1046 0.950 . S
C1058 C1057 1.398 . S
C1058 C1059 1.391 . S
C1059 H1047 0.950 . S
C1059 C1055 1.393 . S
C1059 C1058 1.391 . S
H1060 C1068 0.950 . S
H1061 C1073 0.950 . S
H1062 C1070 0.950 . S
H1063 C1072 0.950 . S
H1064 C1074 0.950 . S
H1065 C1076 0.950 . S
H1066 C1078 0.950 . S
H1067 C1079 0.950 . S
C1068 H1060 0.950 . S
C1068 C1069 1.386 . S
C1068 C1070 1.391 . S
C1069 C1068 1.386 . S
C1069 C1073 1.393 . S
C1070 H1062 0.950 . S
C1070 C1068 1.391 . S
C1070 C1071 1.400 . S
C1071 C1070 1.400 . S
C1071 C1072 1.398 . S
C1071 C1077 1.491 . S
C1072 H1063 0.950 . S
C1072 C1071 1.398 . S
C1072 C1073 1.391 . S
C1073 H1061 0.950 . S
C1073 C1069 1.393 . S
C1073 C1072 1.391 . S
C1074 H1064 0.950 . S
C1074 C1075 1.386 . S
C1074 C1076 1.391 . S
C1075 C1074 1.386 . S
C1075 C1079 1.393 . S
C1076 H1065 0.950 . S
C1076 C1074 1.391 . S
C1076 C1077 1.400 . S
C1077 C1071 1.491 . S
C1077 C1076 1.400 . S
C1077 C1078 1.398 . S
C1078 H1066 0.950 . S
C1078 C1077 1.398 . S
C1078 C1079 1.391 . S
C1079 H1067 0.950 . S
C1079 C1075 1.393 . S
C1079 C1078 1.391 . S
H1080 C1088 0.950 . S
H1081 C1093 0.950 . S
H1082 C1090 0.950 . S
H1083 C1092 0.950 . S
H1084 C1094 0.950 . S
H1085 C1096 0.950 . S
H1086 C1098 0.950 . S
H1087 C1099 0.950 . S
C1088 H1080 0.950 . S
C1088 C1089 1.386 . S
C1088 C1090 1.391 . S
C1089 C1088 1.386 . S
C1089 C1093 1.393 . S
C1090 H1082 0.950 . S
C1090 C1088 1.391 . S
C1090 C1091 1.400 . S
C1091 C1090 1.400 . S
C1091 C1092 1.398 . S
C1091 C1097 1.491 . S
C1092 H1083 0.950 . S
C1092 C1091 1.398 . S
C1092 C1093 1.391 . S
C1093 H1081 0.950 . S
C1093 C1089 1.393 . S
C1093 C1092 1.391 . S
C1094 H1084 0.950 . S
C1094 C1095 1.386 . S
C1094 C1096 1.391 . S
C1095 C1094 1.386 . S
C1095 C1099 1.393 . S
C1096 H1085 0.950 . S
C1096 C1094 1.391 . S
C1096 C1097 1.400 . S
C1097 C1091 1.491 . S
C1097 C1096 1.400 . S
C1097 C1098 1.398 . S
C1098 H1086 0.950 . S
C1098 C1097 1.398 . S
C1098 C1099 1.391 . S
C1099 H1087 0.950 . S
C1099 C1095 1.393 . S
C1099 C1098 1.391 . S
H1100 C1108 0.950 . S
H1101 C1113 0.950 . S
H1102 C1110 0.950 . S
H1103 C1112 0.950 . S
H1104 C1114 0.950 . S
H1105 C1116 0.950 . S
H1106 C1118 0.950 . S
H1107 C1119 0.950 . S
C1108 H1100 0.950 . S
C1108 C1109 1.386 . S
C1108 C1110 1.391 . S
C1109 C1108 1.386 . S
C1109 C1113 1.393 . S
C1110 H1102 0.950 . S
C1110 C1108 1.391 . S
C1110 C1111 1.400 . S
C1111 C1110 1.400 . S
C1111 C1112 1.398 . S
C1111 C1117 1.491 . S
C1112 H1103 0.950 . S
C1112 C1111 1.398 . S
C1112 C1113 1.391 . S
C1113 H1101 0.950 . S
C1113 C1109 1.393 . S
C1113 C1112 1.391 . S
C1114 H1104 0.950 . S
C1114 C1115 1.386 . S
C1114 C1116 1.391 . S
C1115 C1114 1.386 . S
C1115 C1119 1.393 . S
C1116 H1105 0.950 . S
C1116 C1114 1.391 . S
C1116 C1117 1.400 . S
C1117 C1111 1.491 . S
C1117 C1116 1.400 . S
C1117 C1118 1.398 . S
C1118 H1106 0.950 . S
C1118 C1117 1.398 . S
C1118 C1119 1.391 . S
C1119 H1107 0.950 . S
C1119 C1115 1.393 . S
C1119 C1118 1.391 . S
H1120 C1128 0.950 . S
H1121 C1133 0.950 . S
H1122 C1130 0.950 . S
H1123 C1132 0.950 . S
H1124 C1134 0.950 . S
H1125 C1136 0.950 . S
H1126 C1138 0.950 . S
H1127 C1139 0.950 . S
C1128 H1120 0.950 . S
C1128 C1129 1.386 . S
C1128 C1130 1.391 . S
C1129 C1128 1.386 . S
C1129 C1133 1.393 . S
C1130 H1122 0.950 . S
C1130 C1128 1.391 . S
C1130 C1131 1.400 . S
C1131 C1130 1.400 . S
C1131 C1132 1.398 . S
C1131 C1137 1.491 . S
C1132 H1123 0.950 . S
C1132 C1131 1.398 . S
C1132 C1133 1.391 . S
C1133 H1121 0.950 . S
C1133 C1129 1.393 . S
C1133 C1132 1.391 . S
C1134 H1124 0.950 . S
C1134 C1135 1.386 . S
C1134 C1136 1.391 . S
C1135 C1134 1.386 . S
C1135 C1139 1.393 . S
C1136 H1125 0.950 . S
C1136 C1134 1.391 . S
C1136 C1137 1.400 . S
C1137 C1131 1.491 . S
C1137 C1136 1.400 . S
C1137 C1138 1.398 . S
C1138 H1126 0.950 . S
C1138 C1137 1.398 . S
C1138 C1139 1.391 . S
C1139 H1127 0.950 . S
C1139 C1135 1.393 . S
C1139 C1138 1.391 . S
H1140 C1148 0.950 . S
H1141 C1153 0.941 1_556 S
H1142 C1150 0.950 . S
H1143 C1152 0.946 1_556 S
H1144 C1154 0.961 . S
H1145 C1156 0.956 . S
H1146 C1158 0.950 . S
H1147 C1159 0.950 . S
C1148 H1140 0.950 . S
C1148 C1149 1.386 . S
C1148 C1150 1.391 . S
C1149 C1148 1.386 . S
C1149 C1153 1.400 . S
C1150 H1142 0.950 . S
C1150 C1148 1.391 . S
C1150 C1151 1.400 . S
C1151 C1150 1.400 . S
C1151 C1152 1.405 . S
C1151 C1157 1.491 . S
C1152 H1143 0.946 1_554 S
C1152 C1151 1.405 . S
C1152 C1153 1.391 . S
C1153 H1141 0.941 1_554 S
C1153 C1149 1.400 . S
C1153 C1152 1.391 . S
C1154 H1144 0.961 . S
C1154 C1155 1.378 1_556 S
C1154 C1156 1.391 . S
C1155 C1154 1.378 1_554 S
C1155 C1159 1.393 . S
C1156 H1145 0.956 . S
C1156 C1154 1.391 . S
C1156 C1157 1.395 1_556 S
C1157 C1151 1.491 . S
C1157 C1156 1.395 1_554 S
C1157 C1158 1.398 . S
C1158 H1146 0.950 . S
C1158 C1157 1.398 . S
C1158 C1159 1.391 . S
C1159 H1147 0.950 . S
C1159 C1155 1.393 . S
C1159 C1158 1.391 . S
H1160 C1168 0.950 . S
H1161 C1173 0.950 . S
H1162 C1170 0.950 . S
H1163 C1172 0.950 . S
H1164 C1174 0.950 . S
H1165 C1176 0.950 . S
H1166 C1178 0.950 . S
H1167 C1179 0.950 . S
C1168 H1160 0.950 . S
C1168 C1169 1.386 1_556 S
C1168 C1170 1.391 . S
C1169 C1168 1.386 1_554 S
C1169 C1173 1.393 . S
C1170 H1162 0.950 . S
C1170 C1168 1.391 . S
C1170 C1171 1.400 1_556 S
C1171 C1170 1.400 1_554 S
C1171 C1172 1.398 . S
C1171 C1177 1.491 . S
C1172 H1163 0.950 . S
C1172 C1171 1.398 . S
C1172 C1173 1.391 . S
C1173 H1161 0.950 . S
C1173 C1169 1.393 . S
C1173 C1172 1.391 . S
C1174 H1164 0.950 . S
C1174 C1175 1.386 . S
C1174 C1176 1.391 . S
C1175 C1174 1.386 . S
C1175 C1179 1.393 1_554 S
C1176 H1165 0.950 . S
C1176 C1174 1.391 . S
C1176 C1177 1.400 . S
C1177 C1171 1.491 . S
C1177 C1176 1.400 . S
C1177 C1178 1.398 1_554 S
C1178 H1166 0.950 . S
C1178 C1177 1.398 1_556 S
C1178 C1179 1.391 . S
C1179 H1167 0.950 . S
C1179 C1175 1.393 1_556 S
C1179 C1178 1.391 . S
H1180 C1188 0.950 . S
H1181 C1193 0.950 . S
H1182 C1190 0.950 . S
H1183 C1192 0.950 . S
H1184 C1194 0.950 . S
H1185 C1196 0.950 . S
H1186 C1198 0.950 . S
H1187 C1199 0.950 . S
C1188 H1180 0.950 . S
C1188 C1189 1.386 1_556 S
C1188 C1190 1.391 . S
C1189 C1188 1.386 1_554 S
C1189 C1193 1.393 . S
C1190 H1182 0.950 . S
C1190 C1188 1.391 . S
C1190 C1191 1.400 1_556 S
C1191 C1190 1.400 1_554 S
C1191 C1192 1.398 . S
C1191 C1197 1.491 . S
C1192 H1183 0.950 . S
C1192 C1191 1.398 . S
C1192 C1193 1.391 . S
C1193 H1181 0.950 . S
C1193 C1189 1.393 . S
C1193 C1192 1.391 . S
C1194 H1184 0.950 . S
C1194 C1195 1.386 . S
C1194 C1196 1.391 . S
C1195 C1194 1.386 . S
C1195 C1199 1.393 1_554 S
C1196 H1185 0.950 . S
C1196 C1194 1.391 . S
C1196 C1197 1.400 . S
C1197 C1191 1.491 . S
C1197 C1196 1.400 . S
C1197 C1198 1.398 1_554 S
C1198 H1186 0.950 . S
C1198 C1197 1.398 1_556 S
C1198 C1199 1.391 . S
C1199 H1187 0.950 . S
C1199 C1195 1.393 1_556 S
C1199 C1198 1.391 . S
H1200 C1208 0.950 . S
H1201 C1213 0.950 . S
H1202 C1210 0.950 . S
H1203 C1212 0.950 . S
H1204 C1214 0.950 . S
H1205 C1216 0.950 . S
H1206 C1218 0.950 . S
H1207 C1219 0.950 . S
C1208 H1200 0.950 . S
C1208 C1209 1.386 . S
C1208 C1210 1.391 . S
C1209 C1208 1.386 . S
C1209 C1213 1.393 . S
C1210 H1202 0.950 . S
C1210 C1208 1.391 . S
C1210 C1211 1.400 . S
C1211 C1210 1.400 . S
C1211 C1212 1.398 . S
C1211 C1217 1.491 . S
C1212 H1203 0.950 . S
C1212 C1211 1.398 . S
C1212 C1213 1.391 . S
C1213 H1201 0.950 . S
C1213 C1209 1.393 . S
C1213 C1212 1.391 . S
C1214 H1204 0.950 . S
C1214 C1215 1.386 . S
C1214 C1216 1.391 . S
C1215 C1214 1.386 . S
C1215 C1219 1.393 . S
C1216 H1205 0.950 . S
C1216 C1214 1.391 . S
C1216 C1217 1.400 . S
C1217 C1211 1.491 . S
C1217 C1216 1.400 . S
C1217 C1218 1.398 . S
C1218 H1206 0.950 . S
C1218 C1217 1.398 . S
C1218 C1219 1.391 . S
C1219 H1207 0.950 . S
C1219 C1215 1.393 . S
C1219 C1218 1.391 . S
H1220 C1228 0.950 . S
H1221 C1233 0.950 . S
H1222 C1230 0.950 . S
H1223 C1232 0.950 . S
H1224 C1234 0.950 . S
H1225 C1236 0.950 . S
H1226 C1238 0.950 . S
H1227 C1239 0.950 . S
C1228 H1220 0.950 . S
C1228 C1229 1.386 . S
C1228 C1230 1.391 . S
C1229 C1228 1.386 . S
C1229 C1233 1.393 . S
C1230 H1222 0.950 . S
C1230 C1228 1.391 . S
C1230 C1231 1.400 . S
C1231 C1230 1.400 . S
C1231 C1232 1.398 . S
C1231 C1237 1.491 . S
C1232 H1223 0.950 . S
C1232 C1231 1.398 . S
C1232 C1233 1.391 . S
C1233 H1221 0.950 . S
C1233 C1229 1.393 . S
C1233 C1232 1.391 . S
C1234 H1224 0.950 . S
C1234 C1235 1.386 . S
C1234 C1236 1.391 . S
C1235 C1234 1.386 . S
C1235 C1239 1.393 . S
C1236 H1225 0.950 . S
C1236 C1234 1.391 . S
C1236 C1237 1.400 . S
C1237 C1231 1.491 . S
C1237 C1236 1.400 . S
C1237 C1238 1.398 . S
C1238 H1226 0.950 . S
C1238 C1237 1.398 . S
C1238 C1239 1.391 . S
C1239 H1227 0.950 . S
C1239 C1235 1.393 . S
C1239 C1238 1.391 . S
H1240 C1248 0.950 . S
H1241 C1253 0.950 . S
H1242 C1250 0.950 . S
H1243 C1252 0.950 . S
H1244 C1254 0.950 . S
H1245 C1256 0.950 . S
H1246 C1258 0.950 . S
H1247 C1259 0.950 . S
C1248 H1240 0.950 . S
C1248 C1249 1.386 . S
C1248 C1250 1.391 . S
C1249 C1248 1.386 . S
C1249 C1253 1.393 . S
C1250 H1242 0.950 . S
C1250 C1248 1.391 . S
C1250 C1251 1.400 . S
C1251 C1250 1.400 . S
C1251 C1252 1.398 . S
C1251 C1257 1.491 . S
C1252 H1243 0.950 . S
C1252 C1251 1.398 . S
C1252 C1253 1.391 . S
C1253 H1241 0.950 . S
C1253 C1249 1.393 . S
C1253 C1252 1.391 . S
C1254 H1244 0.950 . S
C1254 C1255 1.386 . S
C1254 C1256 1.391 . S
C1255 C1254 1.386 . S
C1255 C1259 1.393 . S
C1256 H1245 0.950 . S
C1256 C1254 1.391 . S
C1256 C1257 1.400 . S
C1257 C1251 1.491 . S
C1257 C1256 1.400 . S
C1257 C1258 1.398 . S
C1258 H1246 0.950 . S
C1258 C1257 1.398 . S
C1258 C1259 1.391 . S
C1259 H1247 0.950 . S
C1259 C1255 1.393 . S
C1259 C1258 1.391 . S
H1260 C1268 0.950 . S
H1261 C1273 0.950 . S
H1262 C1270 0.950 . S
H1263 C1272 0.950 . S
H1264 C1274 0.950 . S
H1265 C1276 0.950 . S
H1266 C1278 0.950 . S
H1267 C1279 0.950 . S
C1268 H1260 0.950 . S
C1268 C1269 1.386 . S
C1268 C1270 1.391 . S
C1269 C1268 1.386 . S
C1269 C1273 1.393 1_556 S
C1270 H1262 0.950 . S
C1270 C1268 1.391 . S
C1270 C1271 1.400 . S
C1271 C1270 1.400 . S
C1271 C1272 1.398 1_556 S
C1271 C1277 1.491 . S
C1272 H1263 0.950 . S
C1272 C1271 1.398 1_554 S
C1272 C1273 1.391 . S
C1273 H1261 0.950 . S
C1273 C1269 1.393 1_554 S
C1273 C1272 1.391 . S
C1274 H1264 0.950 . S
C1274 C1275 1.386 1_554 S
C1274 C1276 1.391 . S
C1275 C1274 1.386 1_556 S
C1275 C1279 1.393 . S
C1276 H1265 0.950 . S
C1276 C1274 1.391 . S
C1276 C1277 1.400 1_554 S
C1277 C1271 1.491 . S
C1277 C1276 1.400 1_556 S
C1277 C1278 1.398 . S
C1278 H1266 0.950 . S
C1278 C1277 1.398 . S
C1278 C1279 1.391 . S
C1279 H1267 0.950 . S
C1279 C1275 1.393 . S
C1279 C1278 1.391 . S
H1280 C1288 0.950 . S
H1281 C1293 0.950 . S
H1282 C1290 0.950 . S
H1283 C1292 0.950 . S
H1284 C1294 0.950 . S
H1285 C1296 0.950 . S
H1286 C1298 0.950 . S
H1287 C1299 0.950 . S
C1288 H1280 0.950 . S
C1288 C1289 1.386 1_554 S
C1288 C1290 1.391 . S
C1289 C1288 1.386 1_556 S
C1289 C1293 1.393 . S
C1290 H1282 0.950 . S
C1290 C1288 1.391 . S
C1290 C1291 1.400 1_554 S
C1291 C1290 1.400 1_556 S
C1291 C1292 1.398 . S
C1291 C1297 1.491 . S
C1292 H1283 0.950 . S
C1292 C1291 1.398 . S
C1292 C1293 1.391 . S
C1293 H1281 0.950 . S
C1293 C1289 1.393 . S
C1293 C1292 1.391 . S
C1294 H1284 0.950 . S
C1294 C1295 1.386 . S
C1294 C1296 1.391 . S
C1295 C1294 1.386 . S
C1295 C1299 1.393 1_556 S
C1296 H1285 0.950 . S
C1296 C1294 1.391 . S
C1296 C1297 1.400 . S
C1297 C1291 1.491 . S
C1297 C1296 1.400 . S
C1297 C1298 1.398 1_556 S
C1298 H1286 0.950 . S
C1298 C1297 1.398 1_554 S
C1298 C1299 1.391 . S
C1299 H1287 0.950 . S
C1299 C1295 1.393 1_554 S
C1299 C1298 1.391 . S
H1300 C1308 0.950 . S
H1301 C1313 0.950 . S
H1302 C1310 0.950 . S
H1303 C1312 0.950 . S
H1304 C1314 0.950 . S
H1305 C1316 0.950 . S
H1306 C1318 0.950 . S
H1307 C1319 0.950 . S
C1308 H1300 0.950 . S
C1308 C1309 1.386 . S
C1308 C1310 1.391 . S
C1309 C1308 1.386 . S
C1309 C1313 1.393 1_556 S
C1310 H1302 0.950 . S
C1310 C1308 1.391 . S
C1310 C1311 1.400 . S
C1311 C1310 1.400 . S
C1311 C1312 1.398 1_556 S
C1311 C1317 1.491 . S
C1312 H1303 0.950 . S
C1312 C1311 1.398 1_554 S
C1312 C1313 1.391 . S
C1313 H1301 0.950 . S
C1313 C1309 1.393 1_554 S
C1313 C1312 1.391 . S
C1314 H1304 0.950 . S
C1314 C1315 1.386 1_554 S
C1314 C1316 1.391 . S
C1315 C1314 1.386 1_556 S
C1315 C1319 1.393 . S
C1316 H1305 0.950 . S
C1316 C1314 1.391 . S
C1316 C1317 1.400 1_554 S
C1317 C1311 1.491 . S
C1317 C1316 1.400 1_556 S
C1317 C1318 1.398 . S
C1318 H1306 0.950 . S
C1318 C1317 1.398 . S
C1318 C1319 1.391 . S
C1319 H1307 0.950 . S
C1319 C1315 1.393 . S
C1319 C1318 1.391 . S
H1320 C1328 0.950 . S
H1321 C1333 0.950 . S
H1322 C1330 0.950 . S
H1323 C1332 0.950 . S
H1324 C1334 0.950 . S
H1325 C1336 0.950 . S
H1326 C1338 0.950 . S
H1327 C1339 0.950 . S
C1328 H1320 0.950 . S
C1328 C1329 1.386 . S
C1328 C1330 1.391 . S
C1329 C1328 1.386 . S
C1329 C1333 1.393 . S
C1330 H1322 0.950 . S
C1330 C1328 1.391 . S
C1330 C1331 1.400 . S
C1331 C1330 1.400 . S
C1331 C1332 1.398 . S
C1331 C1337 1.491 . S
C1332 H1323 0.950 . S
C1332 C1331 1.398 . S
C1332 C1333 1.391 . S
C1333 H1321 0.950 . S
C1333 C1329 1.393 . S
C1333 C1332 1.391 . S
C1334 H1324 0.950 . S
C1334 C1335 1.386 . S
C1334 C1336 1.391 . S
C1335 C1334 1.386 . S
C1335 C1339 1.393 . S
C1336 H1325 0.950 . S
C1336 C1334 1.391 . S
C1336 C1337 1.400 . S
C1337 C1331 1.491 . S
C1337 C1336 1.400 . S
C1337 C1338 1.398 . S
C1338 H1326 0.950 . S
C1338 C1337 1.398 . S
C1338 C1339 1.391 . S
C1339 H1327 0.950 . S
C1339 C1335 1.393 . S
C1339 C1338 1.391 . S
H1340 C1348 0.950 . S
H1341 C1353 0.950 . S
H1342 C1350 0.950 . S
H1343 C1352 0.950 . S
H1344 C1354 0.950 . S
H1345 C1356 0.950 . S
H1346 C1358 0.950 . S
H1347 C1359 0.950 . S
C1348 H1340 0.950 . S
C1348 C1349 1.386 . S
C1348 C1350 1.391 . S
C1349 C1348 1.386 . S
C1349 C1353 1.393 . S
C1350 H1342 0.950 . S
C1350 C1348 1.391 . S
C1350 C1351 1.400 . S
C1351 C1350 1.400 . S
C1351 C1352 1.398 . S
C1351 C1357 1.491 . S
C1352 H1343 0.950 . S
C1352 C1351 1.398 . S
C1352 C1353 1.391 . S
C1353 H1341 0.950 . S
C1353 C1349 1.393 . S
C1353 C1352 1.391 . S
C1354 H1344 0.950 . S
C1354 C1355 1.386 . S
C1354 C1356 1.391 . S
C1355 C1354 1.386 . S
C1355 C1359 1.393 . S
C1356 H1345 0.950 . S
C1356 C1354 1.391 . S
C1356 C1357 1.400 . S
C1357 C1351 1.491 . S
C1357 C1356 1.400 . S
C1357 C1358 1.398 . S
C1358 H1346 0.950 . S
C1358 C1357 1.398 . S
C1358 C1359 1.391 . S
C1359 H1347 0.950 . S
C1359 C1355 1.393 . S
C1359 C1358 1.391 . S
H1360 C1368 0.950 . S
H1361 C1373 0.950 . S
H1362 C1370 0.950 . S
H1363 C1372 0.950 . S
H1364 C1374 0.950 . S
H1365 C1376 0.950 . S
H1366 C1378 0.950 . S
H1367 C1379 0.950 . S
C1368 H1360 0.950 . S
C1368 C1369 1.386 . S
C1368 C1370 1.391 . S
C1369 C1368 1.386 . S
C1369 C1373 1.393 . S
C1370 H1362 0.950 . S
C1370 C1368 1.391 . S
C1370 C1371 1.400 . S
C1371 C1370 1.400 . S
C1371 C1372 1.398 . S
C1371 C1377 1.491 . S
C1372 H1363 0.950 . S
C1372 C1371 1.398 . S
C1372 C1373 1.391 . S
C1373 H1361 0.950 . S
C1373 C1369 1.393 . S
C1373 C1372 1.391 . S
C1374 H1364 0.950 . S
C1374 C1375 1.386 . S
C1374 C1376 1.391 . S
C1375 C1374 1.386 . S
C1375 C1379 1.393 . S
C1376 H1365 0.950 . S
C1376 C1374 1.391 . S
C1376 C1377 1.400 . S
C1377 C1371 1.491 . S
C1377 C1376 1.400 . S
C1377 C1378 1.398 . S
C1378 H1366 0.950 . S
C1378 C1377 1.398 . S
C1378 C1379 1.391 . S
C1379 H1367 0.950 . S
C1379 C1375 1.393 . S
C1379 C1378 1.391 . S
H1380 C1388 0.950 . S
H1381 C1393 0.950 . S
H1382 C1390 0.950 . S
H1383 C1392 0.950 . S
H1384 C1394 0.950 . S
H1385 C1396 0.950 . S
H1386 C1398 0.950 . S
H1387 C1399 0.950 . S
C1388 H1380 0.950 . S
C1388 C1389 1.386 . S
C1388 C1390 1.391 . S
C1389 C1388 1.386 . S
C1389 C1393 1.393 . S
C1390 H1382 0.950 . S
C1390 C1388 1.391 . S
C1390 C1391 1.400 . S
C1391 C1390 1.400 . S
C1391 C1392 1.398 . S
C1391 C1397 1.491 . S
C1392 H1383 0.950 . S
C1392 C1391 1.398 . S
C1392 C1393 1.391 . S
C1393 H1381 0.950 . S
C1393 C1389 1.393 . S
C1393 C1392 1.391 . S
C1394 H1384 0.950 . S
C1394 C1395 1.386 . S
C1394 C1396 1.391 . S
C1395 C1394 1.386 . S
C1395 C1399 1.393 . S
C1396 H1385 0.950 . S
C1396 C1394 1.391 . S
C1396 C1397 1.400 . S
C1397 C1391 1.491 . S
C1397 C1396 1.400 . S
C1397 C1398 1.398 . S
C1398 H1386 0.950 . S
C1398 C1397 1.398 . S
C1398 C1399 1.391 . S
C1399 H1387 0.950 . S
C1399 C1395 1.393 . S
C1399 C1398 1.391 . S
H1400 C1408 0.950 . S
H1401 C1413 0.950 . S
H1402 C1410 0.950 . S
H1403 C1412 0.950 . S
H1404 C1414 0.950 . S
H1405 C1416 0.950 . S
H1406 C1418 0.950 . S
H1407 C1419 0.950 . S
C1408 H1400 0.950 . S
C1408 C1409 1.386 . S
C1408 C1410 1.391 . S
C1409 C1408 1.386 . S
C1409 C1413 1.393 . S
C1410 H1402 0.950 . S
C1410 C1408 1.391 . S
C1410 C1411 1.400 . S
C1411 C1410 1.400 . S
C1411 C1412 1.398 . S
C1411 C1417 1.491 . S
C1412 H1403 0.950 . S
C1412 C1411 1.398 . S
C1412 C1413 1.391 . S
C1413 H1401 0.950 . S
C1413 C1409 1.393 . S
C1413 C1412 1.391 . S
C1414 H1404 0.950 . S
C1414 C1415 1.386 . S
C1414 C1416 1.391 . S
C1415 C1414 1.386 . S
C1415 C1419 1.393 . S
C1416 H1405 0.950 . S
C1416 C1414 1.391 . S
C1416 C1417 1.400 . S
C1417 C1411 1.491 . S
C1417 C1416 1.400 . S
C1417 C1418 1.398 . S
C1418 H1406 0.950 . S
C1418 C1417 1.398 . S
C1418 C1419 1.391 . S
C1419 H1407 0.950 . S
C1419 C1415 1.393 . S
C1419 C1418 1.391 . S
H1420 C1428 0.950 . S
H1421 C1433 0.950 . S
H1422 C1430 0.950 . S
H1423 C1432 0.950 . S
H1424 C1434 0.950 . S
H1425 C1436 0.950 . S
H1426 C1438 0.950 . S
H1427 C1439 0.950 . S
C1428 H1420 0.950 . S
C1428 C1429 1.386 . S
C1428 C1430 1.391 . S
C1429 C1428 1.386 . S
C1429 C1433 1.393 . S
C1430 H1422 0.950 . S
C1430 C1428 1.391 . S
C1430 C1431 1.400 . S
C1431 C1430 1.400 . S
C1431 C1432 1.398 . S
C1431 C1437 1.491 . S
C1432 H1423 0.950 . S
C1432 C1431 1.398 . S
C1432 C1433 1.391 . S
C1433 H1421 0.950 . S
C1433 C1429 1.393 . S
C1433 C1432 1.391 . S
C1434 H1424 0.950 . S
C1434 C1435 1.386 . S
C1434 C1436 1.391 . S
C1435 C1434 1.386 . S
C1435 C1439 1.393 . S
C1436 H1425 0.950 . S
C1436 C1434 1.391 . S
C1436 C1437 1.400 . S
C1437 C1431 1.491 . S
C1437 C1436 1.400 . S
C1437 C1438 1.398 . S
C1438 H1426 0.950 . S
C1438 C1437 1.398 . S
C1438 C1439 1.391 . S
C1439 H1427 0.950 . S
C1439 C1435 1.393 . S
C1439 C1438 1.391 . S
H1440 C1448 0.950 . S
H1441 C1453 0.950 . S
H1442 C1450 0.950 . S
H1443 C1452 0.950 . S
H1444 C1454 0.950 . S
H1445 C1456 0.950 . S
H1446 C1458 0.950 . S
H1447 C1459 0.950 . S
C1448 H1440 0.950 . S
C1448 C1449 1.386 . S
C1448 C1450 1.391 . S
C1449 C1448 1.386 . S
C1449 C1453 1.393 . S
C1450 H1442 0.950 . S
C1450 C1448 1.391 . S
C1450 C1451 1.400 . S
C1451 C1450 1.400 . S
C1451 C1452 1.398 . S
C1451 C1457 1.491 . S
C1452 H1443 0.950 . S
C1452 C1451 1.398 . S
C1452 C1453 1.391 . S
C1453 H1441 0.950 . S
C1453 C1449 1.393 . S
C1453 C1452 1.391 . S
C1454 H1444 0.950 . S
C1454 C1455 1.386 . S
C1454 C1456 1.391 . S
C1455 C1454 1.386 . S
C1455 C1459 1.393 . S
C1456 H1445 0.950 . S
C1456 C1454 1.391 . S
C1456 C1457 1.400 . S
C1457 C1451 1.491 . S
C1457 C1456 1.400 . S
C1457 C1458 1.398 . S
C1458 H1446 0.950 . S
C1458 C1457 1.398 . S
C1458 C1459 1.391 . S
C1459 H1447 0.950 . S
C1459 C1455 1.393 . S
C1459 C1458 1.391 . S
H1460 C1468 0.950 . S
H1461 C1473 0.950 . S
H1462 C1470 0.950 . S
H1463 C1472 0.950 . S
H1464 C1474 0.950 . S
H1465 C1476 0.950 . S
H1466 C1478 0.950 . S
H1467 C1479 0.950 . S
C1468 H1460 0.950 . S
C1468 C1469 1.386 . S
C1468 C1470 1.391 . S
C1469 C1468 1.386 . S
C1469 C1473 1.393 1_545 S
C1470 H1462 0.950 . S
C1470 C1468 1.391 . S
C1470 C1471 1.400 1_545 S
C1471 C1470 1.400 1_565 S
C1471 C1472 1.398 . S
C1471 C1477 1.491 . S
C1472 H1463 0.950 . S
C1472 C1471 1.398 . S
C1472 C1473 1.391 . S
C1473 H1461 0.950 . S
C1473 C1469 1.393 1_565 S
C1473 C1472 1.391 . S
C1474 H1464 0.950 . S
C1474 C1475 1.386 . S
C1474 C1476 1.391 . S
C1475 C1474 1.386 . S
C1475 C1479 1.393 . S
C1476 H1465 0.950 . S
C1476 C1474 1.391 . S
C1476 C1477 1.400 . S
C1477 C1471 1.491 . S
C1477 C1476 1.400 . S
C1477 C1478 1.398 . S
C1478 H1466 0.950 . S
C1478 C1477 1.398 . S
C1478 C1479 1.391 . S
C1479 H1467 0.950 . S
C1479 C1475 1.393 . S
C1479 C1478 1.391 . S
H1480 C1488 0.950 . S
H1481 C1493 0.950 . S
H1482 C1490 0.950 . S
H1483 C1492 0.950 . S
H1484 C1494 0.950 . S
H1485 C1496 0.950 . S
H1486 C1498 0.950 . S
H1487 C1499 0.950 . S
C1488 H1480 0.950 . S
C1488 C1489 1.386 . S
C1488 C1490 1.391 . S
C1489 C1488 1.386 . S
C1489 C1493 1.393 . S
C1490 H1482 0.950 . S
C1490 C1488 1.391 . S
C1490 C1491 1.400 . S
C1491 C1490 1.400 . S
C1491 C1492 1.398 . S
C1491 C1497 1.491 . S
C1492 H1483 0.950 . S
C1492 C1491 1.398 . S
C1492 C1493 1.391 . S
C1493 H1481 0.950 . S
C1493 C1489 1.393 . S
C1493 C1492 1.391 . S
C1494 H1484 0.950 . S
C1494 C1495 1.386 . S
C1494 C1496 1.391 . S
C1495 C1494 1.386 . S
C1495 C1499 1.393 1_655 S
C1496 H1485 0.950 . S
C1496 C1494 1.391 . S
C1496 C1497 1.400 1_655 S
C1497 C1491 1.491 . S
C1497 C1496 1.400 1_455 S
C1497 C1498 1.398 . S
C1498 H1486 0.950 . S
C1498 C1497 1.398 . S
C1498 C1499 1.391 . S
C1499 H1487 0.950 . S
C1499 C1495 1.393 1_455 S
C1499 C1498 1.391 . S
H1500 C1508 0.950 . S
H1501 C1513 0.950 . S
H1502 C1510 0.950 . S
H1503 C1512 0.950 . S
H1504 C1514 0.950 . S
H1505 C1516 0.950 . S
H1506 C1518 0.950 . S
H1507 C1519 0.950 . S
C1508 H1500 0.950 . S
C1508 C1509 1.386 . S
C1508 C1510 1.391 . S
C1509 C1508 1.386 . S
C1509 C1513 1.393 . S
C1510 H1502 0.950 . S
C1510 C1508 1.391 . S
C1510 C1511 1.400 . S
C1511 C1510 1.400 . S
C1511 C1512 1.398 . S
C1511 C1517 1.491 . S
C1512 H1503 0.950 . S
C1512 C1511 1.398 . S
C1512 C1513 1.391 . S
C1513 H1501 0.950 . S
C1513 C1509 1.393 . S
C1513 C1512 1.391 . S
C1514 H1504 0.950 . S
C1514 C1515 1.386 . S
C1514 C1516 1.391 . S
C1515 C1514 1.386 . S
C1515 C1519 1.393 . S
C1516 H1505 0.950 . S
C1516 C1514 1.391 . S
C1516 C1517 1.400 . S
C1517 C1511 1.491 . S
C1517 C1516 1.400 . S
C1517 C1518 1.398 . S
C1518 H1506 0.950 . S
C1518 C1517 1.398 . S
C1518 C1519 1.391 . S
C1519 H1507 0.950 . S
C1519 C1515 1.393 . S
C1519 C1518 1.391 . S
H1520 C1528 0.950 . S
H1521 C1533 0.950 . S
H1522 C1530 0.946 . S
H1523 C1532 0.950 . S
H1524 C1534 0.950 . S
H1525 C1536 0.950 . S
H1526 C1538 0.950 . S
H1527 C1539 0.950 . S
C1528 H1520 0.950 . S
C1528 C1529 1.386 . S
C1528 C1530 1.389 1_565 S
C1529 C1528 1.386 . S
C1529 C1533 1.393 . S
C1530 H1522 0.946 . S
C1530 C1528 1.389 1_545 S
C1530 C1531 1.407 . S
C1531 C1530 1.407 . S
C1531 C1532 1.398 . S
C1531 C1537 1.491 . S
C1532 H1523 0.950 . S
C1532 C1531 1.398 . S
C1532 C1533 1.391 1_545 S
C1533 H1521 0.950 . S
C1533 C1529 1.393 . S
C1533 C1532 1.391 1_565 S
C1534 H1524 0.950 . S
C1534 C1535 1.386 . S
C1534 C1536 1.391 . S
C1535 C1534 1.386 . S
C1535 C1539 1.393 . S
C1536 H1525 0.950 . S
C1536 C1534 1.391 . S
C1536 C1537 1.400 . S
C1537 C1531 1.491 . S
C1537 C1536 1.400 . S
C1537 C1538 1.398 . S
C1538 H1526 0.950 . S
C1538 C1537 1.398 . S
C1538 C1539 1.391 . S
C1539 H1527 0.950 . S
C1539 C1535 1.393 . S
C1539 C1538 1.391 . S
H1540 C1548 0.950 . S
H1541 C1553 0.950 . S
H1542 C1550 0.950 . S
H1543 C1552 0.950 . S
H1544 C1554 0.950 . S
H1545 C1556 0.950 . S
H1546 C1558 0.950 . S
H1547 C1559 0.950 . S
C1548 H1540 0.950 . S
C1548 C1549 1.386 . S
C1548 C1550 1.391 . S
C1549 C1548 1.386 . S
C1549 C1553 1.393 . S
C1550 H1542 0.950 . S
C1550 C1548 1.391 . S
C1550 C1551 1.400 . S
C1551 C1550 1.400 . S
C1551 C1552 1.398 . S
C1551 C1557 1.491 . S
C1552 H1543 0.950 . S
C1552 C1551 1.398 . S
C1552 C1553 1.391 . S
C1553 H1541 0.950 . S
C1553 C1549 1.393 . S
C1553 C1552 1.391 . S
C1554 H1544 0.950 . S
C1554 C1555 1.386 1_655 S
C1554 C1556 1.391 . S
C1555 C1554 1.386 1_455 S
C1555 C1559 1.393 . S
C1556 H1545 0.950 . S
C1556 C1554 1.391 . S
C1556 C1557 1.400 . S
C1557 C1551 1.491 . S
C1557 C1556 1.400 . S
C1557 C1558 1.398 1_655 S
C1558 H1546 0.950 . S
C1558 C1557 1.398 1_455 S
C1558 C1559 1.391 . S
C1559 H1547 0.950 . S
C1559 C1555 1.393 . S
C1559 C1558 1.391 . S
H1560 C1568 0.950 . S
H1561 C1573 0.950 . S
H1562 C1570 0.950 . S
H1563 C1572 0.950 . S
H1564 C1574 0.950 . S
H1565 C1576 0.950 . S
H1566 C1578 0.950 . S
H1567 C1579 0.950 . S
C1568 H1560 0.950 . S
C1568 C1569 1.386 . S
C1568 C1570 1.391 . S
C1569 C1568 1.386 . S
C1569 C1573 1.393 . S
C1570 H1562 0.950 . S
C1570 C1568 1.391 . S
C1570 C1571 1.400 . S
C1571 C1570 1.400 . S
C1571 C1572 1.398 . S
C1571 C1577 1.491 . S
C1572 H1563 0.950 . S
C1572 C1571 1.398 . S
C1572 C1573 1.391 . S
C1573 H1561 0.950 . S
C1573 C1569 1.393 . S
C1573 C1572 1.391 . S
C1574 H1564 0.950 . S
C1574 C1575 1.386 . S
C1574 C1576 1.391 . S
C1575 C1574 1.386 . S
C1575 C1579 1.393 . S
C1576 H1565 0.950 . S
C1576 C1574 1.391 . S
C1576 C1577 1.400 . S
C1577 C1571 1.491 . S
C1577 C1576 1.400 . S
C1577 C1578 1.398 . S
C1578 H1566 0.950 . S
C1578 C1577 1.398 . S
C1578 C1579 1.391 . S
C1579 H1567 0.950 . S
C1579 C1575 1.393 . S
C1579 C1578 1.391 . S
H1580 C1588 0.950 . S
H1581 C1593 0.950 . S
H1582 C1590 0.950 . S
H1583 C1592 0.950 . S
H1584 C1594 0.950 . S
H1585 C1596 0.950 . S
H1586 C1598 0.950 . S
H1587 C1599 0.950 . S
C1588 H1580 0.950 . S
C1588 C1589 1.386 . S
C1588 C1590 1.391 . S
C1589 C1588 1.386 . S
C1589 C1593 1.393 . S
C1590 H1582 0.950 . S
C1590 C1588 1.391 . S
C1590 C1591 1.400 . S
C1591 C1590 1.400 . S
C1591 C1592 1.398 . S
C1591 C1597 1.491 . S
C1592 H1583 0.950 . S
C1592 C1591 1.398 . S
C1592 C1593 1.391 . S
C1593 H1581 0.950 . S
C1593 C1589 1.393 . S
C1593 C1592 1.391 . S
C1594 H1584 0.950 . S
C1594 C1595 1.386 1_545 S
C1594 C1596 1.391 . S
C1595 C1594 1.386 1_565 S
C1595 C1599 1.393 . S
C1596 H1585 0.950 . S
C1596 C1594 1.391 . S
C1596 C1597 1.400 . S
C1597 C1591 1.491 . S
C1597 C1596 1.400 . S
C1597 C1598 1.398 1_545 S
C1598 H1586 0.950 . S
C1598 C1597 1.398 1_565 S
C1598 C1599 1.391 . S
C1599 H1587 0.950 . S
C1599 C1595 1.393 . S
C1599 C1598 1.391 . S
H1600 C1608 0.950 . S
H1601 C1613 0.950 . S
H1602 C1610 0.950 . S
H1603 C1612 0.950 . S
H1604 C1614 0.950 . S
H1605 C1616 0.950 . S
H1606 C1618 0.950 . S
H1607 C1619 0.950 . S
C1608 H1600 0.950 . S
C1608 C1609 1.386 . S
C1608 C1610 1.391 . S
C1609 C1608 1.386 . S
C1609 C1613 1.393 . S
C1610 H1602 0.950 . S
C1610 C1608 1.391 . S
C1610 C1611 1.400 . S
C1611 C1610 1.400 . S
C1611 C1612 1.398 . S
C1611 C1617 1.491 . S
C1612 H1603 0.950 . S
C1612 C1611 1.398 . S
C1612 C1613 1.391 . S
C1613 H1601 0.950 . S
C1613 C1609 1.393 . S
C1613 C1612 1.391 . S
C1614 H1604 0.950 . S
C1614 C1615 1.386 . S
C1614 C1616 1.391 1_455 S
C1615 C1614 1.386 . S
C1615 C1619 1.393 . S
C1616 H1605 0.950 . S
C1616 C1614 1.391 1_655 S
C1616 C1617 1.400 . S
C1617 C1611 1.491 . S
C1617 C1616 1.400 . S
C1617 C1618 1.398 . S
C1618 H1606 0.950 . S
C1618 C1617 1.398 . S
C1618 C1619 1.391 1_655 S
C1619 H1607 0.950 . S
C1619 C1615 1.393 . S
C1619 C1618 1.391 1_455 S
H1620 C1628 0.950 . S
H1621 C1633 0.950 . S
H1622 C1630 0.950 . S
H1623 C1632 0.950 . S
H1624 C1634 0.950 . S
H1625 C1636 0.950 . S
H1626 C1638 0.950 . S
H1627 C1639 0.950 . S
C1628 H1620 0.950 . S
C1628 C1629 1.386 . S
C1628 C1630 1.391 . S
C1629 C1628 1.386 . S
C1629 C1633 1.393 . S
C1630 H1622 0.950 . S
C1630 C1628 1.391 . S
C1630 C1631 1.400 . S
C1631 C1630 1.400 . S
C1631 C1632 1.398 . S
C1631 C1637 1.491 . S
C1632 H1623 0.950 . S
C1632 C1631 1.398 . S
C1632 C1633 1.391 . S
C1633 H1621 0.950 . S
C1633 C1629 1.393 . S
C1633 C1632 1.391 . S
C1634 H1624 0.950 . S
C1634 C1635 1.386 . S
C1634 C1636 1.391 . S
C1635 C1634 1.386 . S
C1635 C1639 1.393 . S
C1636 H1625 0.950 . S
C1636 C1634 1.391 . S
C1636 C1637 1.400 . S
C1637 C1631 1.491 . S
C1637 C1636 1.400 . S
C1637 C1638 1.398 . S
C1638 H1626 0.950 . S
C1638 C1637 1.398 . S
C1638 C1639 1.391 . S
C1639 H1627 0.950 . S
C1639 C1635 1.393 . S
C1639 C1638 1.391 . S
H1640 C1648 0.950 . S
H1641 C1653 0.950 . S
H1642 C1650 0.950 . S
H1643 C1652 0.950 . S
H1644 C1654 0.950 . S
H1645 C1656 0.950 . S
H1646 C1658 0.950 . S
H1647 C1659 0.950 . S
C1648 H1640 0.950 . S
C1648 C1649 1.386 . S
C1648 C1650 1.391 . S
C1649 C1648 1.386 . S
C1649 C1653 1.393 1_545 S
C1650 H1642 0.950 . S
C1650 C1648 1.391 . S
C1650 C1651 1.400 1_545 S
C1651 C1650 1.400 1_565 S
C1651 C1652 1.398 . S
C1651 C1657 1.491 . S
C1652 H1643 0.950 . S
C1652 C1651 1.398 . S
C1652 C1653 1.391 . S
C1653 H1641 0.950 . S
C1653 C1649 1.393 1_565 S
C1653 C1652 1.391 . S
C1654 H1644 0.950 . S
C1654 C1655 1.386 . S
C1654 C1656 1.391 . S
C1655 C1654 1.386 . S
C1655 C1659 1.393 . S
C1656 H1645 0.950 . S
C1656 C1654 1.391 . S
C1656 C1657 1.400 . S
C1657 C1651 1.491 . S
C1657 C1656 1.400 . S
C1657 C1658 1.398 . S
C1658 H1646 0.950 . S
C1658 C1657 1.398 . S
C1658 C1659 1.391 . S
C1659 H1647 0.950 . S
C1659 C1655 1.393 . S
C1659 C1658 1.391 . S
H1660 C1668 0.950 . S
H1661 C1673 0.950 . S
H1662 C1670 0.950 . S
H1663 C1672 0.950 . S
H1664 C1674 0.950 . S
H1665 C1676 0.950 . S
H1666 C1678 0.950 . S
H1667 C1679 0.950 . S
C1668 H1660 0.950 . S
C1668 C1669 1.386 . S
C1668 C1670 1.391 . S
C1669 C1668 1.386 . S
C1669 C1673 1.393 1_655 S
C1670 H1662 0.950 . S
C1670 C1668 1.391 . S
C1670 C1671 1.400 1_655 S
C1671 C1670 1.400 1_455 S
C1671 C1672 1.398 . S
C1671 C1677 1.491 . S
C1672 H1663 0.950 . S
C1672 C1671 1.398 . S
C1672 C1673 1.391 . S
C1673 H1661 0.950 . S
C1673 C1669 1.393 1_455 S
C1673 C1672 1.391 . S
C1674 H1664 0.950 . S
C1674 C1675 1.386 . S
C1674 C1676 1.391 . S
C1675 C1674 1.386 . S
C1675 C1679 1.393 . S
C1676 H1665 0.950 . S
C1676 C1674 1.391 . S
C1676 C1677 1.400 . S
C1677 C1671 1.491 . S
C1677 C1676 1.400 . S
C1677 C1678 1.398 . S
C1678 H1666 0.950 . S
C1678 C1677 1.398 . S
C1678 C1679 1.391 . S
C1679 H1667 0.950 . S
C1679 C1675 1.393 . S
C1679 C1678 1.391 . S
H1680 C1688 0.950 . S
H1681 C1693 0.950 . S
H1682 C1690 0.950 . S
H1683 C1692 0.953 . S
H1684 C1694 0.950 . S
H1685 C1696 0.950 . S
H1686 C1698 0.950 . S
H1687 C1699 0.950 . S
C1688 H1680 0.950 . S
C1688 C1689 1.386 . S
C1688 C1690 1.391 . S
C1689 C1688 1.386 . S
C1689 C1693 1.393 . S
C1690 H1682 0.950 . S
C1690 C1688 1.391 . S
C1690 C1691 1.402 . S
C1691 C1690 1.402 . S
C1691 C1692 1.406 . S
C1691 C1697 1.481 1_655 S
C1692 H1683 0.953 . S
C1692 C1691 1.406 . S
C1692 C1693 1.391 . S
C1693 H1681 0.950 . S
C1693 C1689 1.393 . S
C1693 C1692 1.391 . S
C1694 H1684 0.950 . S
C1694 C1695 1.386 . S
C1694 C1696 1.391 . S
C1695 C1694 1.386 . S
C1695 C1699 1.393 . S
C1696 H1685 0.950 . S
C1696 C1694 1.391 . S
C1696 C1697 1.400 . S
C1697 C1691 1.481 1_455 S
C1697 C1696 1.400 . S
C1697 C1698 1.398 . S
C1698 H1686 0.950 . S
C1698 C1697 1.398 . S
C1698 C1699 1.391 . S
C1699 H1687 0.950 . S
C1699 C1695 1.393 . S
C1699 C1698 1.391 . S
H1700 C1708 0.950 . S
H1701 C1713 0.950 . S
H1702 C1710 0.950 . S
H1703 C1712 0.950 . S
H1704 C1714 0.950 . S
H1705 C1716 0.950 . S
H1706 C1718 0.950 . S
H1707 C1719 0.950 . S
C1708 H1700 0.950 . S
C1708 C1709 1.386 . S
C1708 C1710 1.391 . S
C1709 C1708 1.386 . S
C1709 C1713 1.393 . S
C1710 H1702 0.950 . S
C1710 C1708 1.391 . S
C1710 C1711 1.400 . S
C1711 C1710 1.400 . S
C1711 C1712 1.398 . S
C1711 C1717 1.491 . S
C1712 H1703 0.950 . S
C1712 C1711 1.398 . S
C1712 C1713 1.391 . S
C1713 H1701 0.950 . S
C1713 C1709 1.393 . S
C1713 C1712 1.391 . S
C1714 H1704 0.950 . S
C1714 C1715 1.386 . S
C1714 C1716 1.391 . S
C1715 C1714 1.386 . S
C1715 C1719 1.393 . S
C1716 H1705 0.950 . S
C1716 C1714 1.391 . S
C1716 C1717 1.400 . S
C1717 C1711 1.491 . S
C1717 C1716 1.400 . S
C1717 C1718 1.398 . S
C1718 H1706 0.950 . S
C1718 C1717 1.398 . S
C1718 C1719 1.391 . S
C1719 H1707 0.950 . S
C1719 C1715 1.393 . S
C1719 C1718 1.391 . S
H1720 C1728 0.950 . S
H1721 C1733 0.950 . S
H1722 C1730 0.950 . S
H1723 C1732 0.950 . S
H1724 C1734 0.950 . S
H1725 C1736 0.950 . S
H1726 C1738 0.950 . S
H1727 C1739 0.950 . S
C1728 H1720 0.950 . S
C1728 C1729 1.386 . S
C1728 C1730 1.391 . S
C1729 C1728 1.386 . S
C1729 C1733 1.393 . S
C1730 H1722 0.950 . S
C1730 C1728 1.391 . S
C1730 C1731 1.400 . S
C1731 C1730 1.400 . S
C1731 C1732 1.398 . S
C1731 C1737 1.480 1_565 S
C1732 H1723 0.950 . S
C1732 C1731 1.398 . S
C1732 C1733 1.391 . S
C1733 H1721 0.950 . S
C1733 C1729 1.393 . S
C1733 C1732 1.391 . S
C1734 H1724 0.950 . S
C1734 C1735 1.386 . S
C1734 C1736 1.391 . S
C1735 C1734 1.386 . S
C1735 C1739 1.393 . S
C1736 H1725 0.950 . S
C1736 C1734 1.391 . S
C1736 C1737 1.400 . S
C1737 C1731 1.480 1_545 S
C1737 C1736 1.400 . S
C1737 C1738 1.409 . S
C1738 H1726 0.950 . S
C1738 C1737 1.409 . S
C1738 C1739 1.391 . S
C1739 H1727 0.950 . S
C1739 C1735 1.393 . S
C1739 C1738 1.391 . S
H1740 C1748 0.950 . S
H1741 C1753 0.950 . S
H1742 C1750 0.950 . S
H1743 C1752 0.950 . S
H1744 C1754 0.950 . S
H1745 C1756 0.950 . S
H1746 C1758 0.950 . S
H1747 C1759 0.950 . S
C1748 H1740 0.950 . S
C1748 C1749 1.386 . S
C1748 C1750 1.391 . S
C1749 C1748 1.386 . S
C1749 C1753 1.393 . S
C1750 H1742 0.950 . S
C1750 C1748 1.391 . S
C1750 C1751 1.400 . S
C1751 C1750 1.400 . S
C1751 C1752 1.398 . S
C1751 C1757 1.491 . S
C1752 H1743 0.950 . S
C1752 C1751 1.398 . S
C1752 C1753 1.391 . S
C1753 H1741 0.950 . S
C1753 C1749 1.393 . S
C1753 C1752 1.391 . S
C1754 H1744 0.950 . S
C1754 C1755 1.386 1_655 S
C1754 C1756 1.391 1_655 S
C1755 C1754 1.386 1_455 S
C1755 C1759 1.393 . S
C1756 H1745 0.950 . S
C1756 C1754 1.391 1_455 S
C1756 C1757 1.400 . S
C1757 C1751 1.491 . S
C1757 C1756 1.400 . S
C1757 C1758 1.398 . S
C1758 H1746 0.950 . S
C1758 C1757 1.398 . S
C1758 C1759 1.391 . S
C1759 H1747 0.950 . S
C1759 C1755 1.393 . S
C1759 C1758 1.391 . S
H1760 C1768 0.950 . S
H1761 C1773 0.950 . S
H1762 C1770 0.950 . S
H1763 C1772 0.950 . S
H1764 C1774 0.950 . S
H1765 C1776 0.950 . S
H1766 C1778 0.950 . S
H1767 C1779 0.950 . S
C1768 H1760 0.950 . S
C1768 C1769 1.386 . S
C1768 C1770 1.391 . S
C1769 C1768 1.386 . S
C1769 C1773 1.393 . S
C1770 H1762 0.950 . S
C1770 C1768 1.391 . S
C1770 C1771 1.400 . S
C1771 C1770 1.400 . S
C1771 C1772 1.398 . S
C1771 C1777 1.491 . S
C1772 H1763 0.950 . S
C1772 C1771 1.398 . S
C1772 C1773 1.391 . S
C1773 H1761 0.950 . S
C1773 C1769 1.393 . S
C1773 C1772 1.391 . S
C1774 H1764 0.950 . S
C1774 C1775 1.386 . S
C1774 C1776 1.391 . S
C1775 C1774 1.386 . S
C1775 C1779 1.393 . S
C1776 H1765 0.950 . S
C1776 C1774 1.391 . S
C1776 C1777 1.400 . S
C1777 C1771 1.491 . S
C1777 C1776 1.400 . S
C1777 C1778 1.398 . S
C1778 H1766 0.950 . S
C1778 C1777 1.398 . S
C1778 C1779 1.391 . S
C1779 H1767 0.950 . S
C1779 C1775 1.393 . S
C1779 C1778 1.391 . S
H1780 C1788 0.950 . S
H1781 C1793 0.950 . S
H1782 C1790 0.950 . S
H1783 C1792 0.950 . S
H1784 C1794 0.950 . S
H1785 C1796 0.950 . S
H1786 C1798 0.950 1_545 S
H1787 C1799 0.950 . S
C1788 H1780 0.950 . S
C1788 C1789 1.386 . S
C1788 C1790 1.391 . S
C1789 C1788 1.386 . S
C1789 C1793 1.393 . S
C1790 H1782 0.950 . S
C1790 C1788 1.391 . S
C1790 C1791 1.400 . S
C1791 C1790 1.400 . S
C1791 C1792 1.398 . S
C1791 C1797 1.491 . S
C1792 H1783 0.950 . S
C1792 C1791 1.398 . S
C1792 C1793 1.391 . S
C1793 H1781 0.950 . S
C1793 C1789 1.393 . S
C1793 C1792 1.391 . S
C1794 H1784 0.950 . S
C1794 C1795 1.386 . S
C1794 C1796 1.391 . S
C1795 C1794 1.386 . S
C1795 C1799 1.393 1_565 S
C1796 H1785 0.950 . S
C1796 C1794 1.391 . S
C1796 C1797 1.400 . S
C1797 C1791 1.491 . S
C1797 C1796 1.400 . S
C1797 C1798 1.398 . S
C1798 H1786 0.950 1_565 S
C1798 C1797 1.398 . S
C1798 C1799 1.391 1_565 S
C1799 H1787 0.950 . S
C1799 C1795 1.393 1_545 S
C1799 C1798 1.391 1_545 S
H1800 C1808 0.950 . S
H1801 C1813 0.950 . S
H1802 C1810 0.950 . S
H1803 C1812 0.950 . S
H1804 C1814 0.950 . S
H1805 C1816 0.950 1_545 S
H1806 C1818 0.950 . S
H1807 C1819 0.950 . S
C1808 H1800 0.950 . S
C1808 C1809 1.386 . S
C1808 C1810 1.391 . S
C1809 C1808 1.386 . S
C1809 C1813 1.393 . S
C1810 H1802 0.950 . S
C1810 C1808 1.391 . S
C1810 C1811 1.400 . S
C1811 C1810 1.400 . S
C1811 C1812 1.398 . S
C1811 C1817 1.491 . S
C1812 H1803 0.950 . S
C1812 C1811 1.398 . S
C1812 C1813 1.391 . S
C1813 H1801 0.950 . S
C1813 C1809 1.393 . S
C1813 C1812 1.391 . S
C1814 H1804 0.950 . S
C1814 C1815 1.386 1_545 S
C1814 C1816 1.391 1_545 S
C1815 C1814 1.386 1_565 S
C1815 C1819 1.393 . S
C1816 H1805 0.950 1_565 S
C1816 C1814 1.391 1_565 S
C1816 C1817 1.400 . S
C1817 C1811 1.491 . S
C1817 C1816 1.400 . S
C1817 C1818 1.398 . S
C1818 H1806 0.950 . S
C1818 C1817 1.398 . S
C1818 C1819 1.391 . S
C1819 H1807 0.950 . S
C1819 C1815 1.393 . S
C1819 C1818 1.391 . S
H1820 C1828 0.950 . S
H1821 C1833 0.950 . S
H1822 C1830 0.950 1_655 S
H1823 C1832 0.950 . S
H1824 C1834 0.950 . S
H1825 C1836 0.950 . S
H1826 C1838 0.950 . S
H1827 C1839 0.950 . S
C1828 H1820 0.950 . S
C1828 C1829 1.386 1_655 S
C1828 C1830 1.391 1_655 S
C1829 C1828 1.386 1_455 S
C1829 C1833 1.393 . S
C1830 H1822 0.950 1_455 S
C1830 C1828 1.391 1_455 S
C1830 C1831 1.400 . S
C1831 C1830 1.400 . S
C1831 C1832 1.398 . S
C1831 C1837 1.491 . S
C1832 H1823 0.950 . S
C1832 C1831 1.398 . S
C1832 C1833 1.391 . S
C1833 H1821 0.950 . S
C1833 C1829 1.393 . S
C1833 C1832 1.391 . S
C1834 H1824 0.950 . S
C1834 C1835 1.386 . S
C1834 C1836 1.391 . S
C1835 C1834 1.386 . S
C1835 C1839 1.393 . S
C1836 H1825 0.950 . S
C1836 C1834 1.391 . S
C1836 C1837 1.400 . S
C1837 C1831 1.491 . S
C1837 C1836 1.400 . S
C1837 C1838 1.398 . S
C1838 H1826 0.950 . S
C1838 C1837 1.398 . S
C1838 C1839 1.391 . S
C1839 H1827 0.950 . S
C1839 C1835 1.393 . S
C1839 C1838 1.391 . S
H1840 C1848 0.950 . S
H1841 C1853 0.950 . S
H1842 C1850 0.950 . S
H1843 C1852 0.950 . S
H1844 C1854 0.950 . S
H1845 C1856 0.950 . S
H1846 C1858 0.950 . S
H1847 C1859 0.950 . S
C1848 H1840 0.950 . S
C1848 C1849 1.386 . S
C1848 C1850 1.391 . S
C1849 C1848 1.386 . S
C1849 C1853 1.393 . S
C1850 H1842 0.950 . S
C1850 C1848 1.391 . S
C1850 C1851 1.400 . S
C1851 C1850 1.400 . S
C1851 C1852 1.398 . S
C1851 C1857 1.491 . S
C1852 H1843 0.950 . S
C1852 C1851 1.398 . S
C1852 C1853 1.391 . S
C1853 H1841 0.950 . S
C1853 C1849 1.393 . S
C1853 C1852 1.391 . S
C1854 H1844 0.950 . S
C1854 C1855 1.386 . S
C1854 C1856 1.391 . S
C1855 C1854 1.386 . S
C1855 C1859 1.393 . S
C1856 H1845 0.950 . S
C1856 C1854 1.391 . S
C1856 C1857 1.400 . S
C1857 C1851 1.491 . S
C1857 C1856 1.400 . S
C1857 C1858 1.398 . S
C1858 H1846 0.950 . S
C1858 C1857 1.398 . S
C1858 C1859 1.391 . S
C1859 H1847 0.950 . S
C1859 C1855 1.393 . S
C1859 C1858 1.391 . S
H1860 C1868 0.950 . S
H1861 C1873 0.950 . S
H1862 C1870 0.950 . S
H1863 C1872 0.950 . S
H1864 C1874 0.950 . S
H1865 C1876 0.950 . S
H1866 C1878 0.950 . S
H1867 C1879 0.950 . S
C1868 H1860 0.950 . S
C1868 C1869 1.386 1_556 S
C1868 C1870 1.391 . S
C1869 C1868 1.386 1_554 S
C1869 C1873 1.393 . S
C1870 H1862 0.950 . S
C1870 C1868 1.391 . S
C1870 C1871 1.389 1_556 S
C1871 C1870 1.389 1_554 S
C1871 C1872 1.410 . S
C1871 C1877 1.490 1_564 S
C1872 H1863 0.950 . S
C1872 C1871 1.410 . S
C1872 C1873 1.391 . S
C1873 H1861 0.950 . S
C1873 C1869 1.393 . S
C1873 C1872 1.391 . S
C1874 H1864 0.950 . S
C1874 C1875 1.386 1_554 S
C1874 C1876 1.391 . S
C1875 C1874 1.386 1_556 S
C1875 C1879 1.393 . S
C1876 H1865 0.950 . S
C1876 C1874 1.391 . S
C1876 C1877 1.385 1_554 S
C1877 C1871 1.490 1_546 S
C1877 C1876 1.385 1_556 S
C1877 C1878 1.415 . S
C1878 H1866 0.950 . S
C1878 C1877 1.415 . S
C1878 C1879 1.391 . S
C1879 H1867 0.950 . S
C1879 C1875 1.393 . S
C1879 C1878 1.391 . S
H1880 C1888 0.950 . S
H1881 C1893 0.950 . S
H1882 C1890 0.950 . S
H1883 C1892 0.950 . S
H1884 C1894 0.950 . S
H1885 C1896 0.950 . S
H1886 C1898 0.950 . S
H1887 C1899 0.950 . S
C1888 H1880 0.950 . S
C1888 C1889 1.386 1_556 S
C1888 C1890 1.391 . S
C1889 C1888 1.386 1_554 S
C1889 C1893 1.393 . S
C1890 H1882 0.950 . S
C1890 C1888 1.391 . S
C1890 C1891 1.397 1_556 S
C1891 C1890 1.397 1_554 S
C1891 C1892 1.401 . S
C1891 C1897 1.490 1_454 S
C1892 H1883 0.950 . S
C1892 C1891 1.401 . S
C1892 C1893 1.391 . S
C1893 H1881 0.950 . S
C1893 C1889 1.393 . S
C1893 C1892 1.391 . S
C1894 H1884 0.950 . S
C1894 C1895 1.386 1_554 S
C1894 C1896 1.391 . S
C1895 C1894 1.386 1_556 S
C1895 C1899 1.393 . S
C1896 H1885 0.950 . S
C1896 C1894 1.391 . S
C1896 C1897 1.394 1_554 S
C1897 C1891 1.490 1_656 S
C1897 C1896 1.394 1_556 S
C1897 C1898 1.405 . S
C1898 H1886 0.950 . S
C1898 C1897 1.405 . S
C1898 C1899 1.391 . S
C1899 H1887 0.950 . S
C1899 C1895 1.393 . S
C1899 C1898 1.391 . S
H1900 C1908 0.947 . S
H1901 C1913 0.950 . S
H1902 C1910 0.956 . S
H1903 C1912 0.950 . S
H1904 C1914 0.955 . S
H1905 C1916 0.950 . S
H1906 C1918 0.950 . S
H1907 C1919 0.950 . S
C1908 H1900 0.947 . S
C1908 C1909 1.385 1_554 S
C1908 C1910 1.391 . S
C1909 C1908 1.385 1_556 S
C1909 C1913 1.393 . S
C1910 H1902 0.956 . S
C1910 C1908 1.391 . S
C1910 C1911 1.397 1_554 S
C1911 C1910 1.397 1_556 S
C1911 C1912 1.400 . S
C1911 C1917 1.490 . S
C1912 H1903 0.950 . S
C1912 C1911 1.400 . S
C1912 C1913 1.391 . S
C1913 H1901 0.950 . S
C1913 C1909 1.393 . S
C1913 C1912 1.391 . S
C1914 H1904 0.955 . S
C1914 C1915 1.378 1_556 S
C1914 C1916 1.394 . S
C1915 C1914 1.378 1_554 S
C1915 C1919 1.399 . S
C1916 H1905 0.950 . S
C1916 C1914 1.394 . S
C1916 C1917 1.401 . S
C1917 C1911 1.490 . S
C1917 C1916 1.401 . S
C1917 C1918 1.395 1_556 S
C1918 H1906 0.950 . S
C1918 C1917 1.395 1_554 S
C1918 C1919 1.396 . S
C1919 H1907 0.950 . S
C1919 C1915 1.399 . S
C1919 C1918 1.396 . S
H1920 C1928 0.950 . S
H1921 C1933 0.950 . S
H1922 C1930 0.950 . S
H1923 C1932 0.950 . S
H1924 C1934 0.950 . S
H1925 C1936 0.950 . S
H1926 C1938 0.950 . S
H1927 C1939 0.950 . S
C1928 H1920 0.950 . S
C1928 C1929 1.386 . S
C1928 C1930 1.391 . S
C1929 C1928 1.386 . S
C1929 C1933 1.393 . S
C1930 H1922 0.950 . S
C1930 C1928 1.391 . S
C1930 C1931 1.400 . S
C1931 C1930 1.400 . S
C1931 C1932 1.398 . S
C1931 C1937 1.491 . S
C1932 H1923 0.950 . S
C1932 C1931 1.398 . S
C1932 C1933 1.391 . S
C1933 H1921 0.950 . S
C1933 C1929 1.393 . S
C1933 C1932 1.391 . S
C1934 H1924 0.950 . S
C1934 C1935 1.386 1_565 S
C1934 C1936 1.391 1_565 S
C1935 C1934 1.386 1_545 S
C1935 C1939 1.393 . S
C1936 H1925 0.950 . S
C1936 C1934 1.391 1_545 S
C1936 C1937 1.400 . S
C1937 C1931 1.491 . S
C1937 C1936 1.400 . S
C1937 C1938 1.398 . S
C1938 H1926 0.950 . S
C1938 C1937 1.398 . S
C1938 C1939 1.391 . S
C1939 H1927 0.950 . S
C1939 C1935 1.393 . S
C1939 C1938 1.391 . S
H1940 C1948 0.950 . S
H1941 C1953 0.950 . S
H1942 C1950 0.950 . S
H1943 C1952 0.950 . S
H1944 C1954 0.950 1_455 S
H1945 C1956 0.950 . S
H1946 C1958 0.950 . S
H1947 C1959 0.950 . S
C1948 H1940 0.950 . S
C1948 C1949 1.386 . S
C1948 C1950 1.391 . S
C1949 C1948 1.386 . S
C1949 C1953 1.393 . S
C1950 H1942 0.950 . S
C1950 C1948 1.391 . S
C1950 C1951 1.400 . S
C1951 C1950 1.400 . S
C1951 C1952 1.398 . S
C1951 C1957 1.491 . S
C1952 H1943 0.950 . S
C1952 C1951 1.398 . S
C1952 C1953 1.391 . S
C1953 H1941 0.950 . S
C1953 C1949 1.393 . S
C1953 C1952 1.391 . S
C1954 H1944 0.950 1_655 S
C1954 C1955 1.386 . S
C1954 C1956 1.391 . S
C1955 C1954 1.386 . S
C1955 C1959 1.393 . S
C1956 H1945 0.950 . S
C1956 C1954 1.391 . S
C1956 C1957 1.400 . S
C1957 C1951 1.491 . S
C1957 C1956 1.400 . S
C1957 C1958 1.398 . S
C1958 H1946 0.950 . S
C1958 C1957 1.398 . S
C1958 C1959 1.391 . S
C1959 H1947 0.950 . S
C1959 C1955 1.393 . S
C1959 C1958 1.391 . S
H1960 C1968 0.950 . S
H1961 C1973 0.950 . S
H1962 C1970 0.950 . S
H1963 C1972 0.950 . S
H1964 C1974 0.950 . S
H1965 C1976 0.950 . S
H1966 C1978 0.950 . S
H1967 C1979 0.950 . S
C1968 H1960 0.950 . S
C1968 C1969 1.386 . S
C1968 C1970 1.391 . S
C1969 C1968 1.386 . S
C1969 C1973 1.393 . S
C1970 H1962 0.950 . S
C1970 C1968 1.391 . S
C1970 C1971 1.400 . S
C1971 C1970 1.400 . S
C1971 C1972 1.398 . S
C1971 C1977 1.491 . S
C1972 H1963 0.950 . S
C1972 C1971 1.398 . S
C1972 C1973 1.391 . S
C1973 H1961 0.950 . S
C1973 C1969 1.393 . S
C1973 C1972 1.391 . S
C1974 H1964 0.950 . S
C1974 C1975 1.386 . S
C1974 C1976 1.391 . S
C1975 C1974 1.386 . S
C1975 C1979 1.393 . S
C1976 H1965 0.950 . S
C1976 C1974 1.391 . S
C1976 C1977 1.400 . S
C1977 C1971 1.491 . S
C1977 C1976 1.400 . S
C1977 C1978 1.398 . S
C1978 H1966 0.950 . S
C1978 C1977 1.398 . S
C1978 C1979 1.391 . S
C1979 H1967 0.950 . S
C1979 C1975 1.393 . S
C1979 C1978 1.391 . S
H1980 C1988 0.950 . S
H1981 C1993 0.950 . S
H1982 C1990 0.950 . S
H1983 C1992 0.950 . S
H1984 C1994 0.950 . S
H1985 C1996 0.950 . S
H1986 C1998 0.950 . S
H1987 C1999 0.950 . S
C1988 H1980 0.950 . S
C1988 C1989 1.386 1_556 S
C1988 C1990 1.391 . S
C1989 C1988 1.386 1_554 S
C1989 C1993 1.393 . S
C1990 H1982 0.950 . S
C1990 C1988 1.391 . S
C1990 C1991 1.362 1_556 S
C1991 C1990 1.362 1_554 S
C1991 C1992 1.439 . S
C1991 C1997 1.489 1_564 S
C1992 H1983 0.950 . S
C1992 C1991 1.439 . S
C1992 C1993 1.391 . S
C1993 H1981 0.950 . S
C1993 C1989 1.393 . S
C1993 C1992 1.391 . S
C1994 H1984 0.950 . S
C1994 C1995 1.386 1_554 S
C1994 C1996 1.391 . S
C1995 C1994 1.386 1_556 S
C1995 C1999 1.393 . S
C1996 H1985 0.950 . S
C1996 C1994 1.391 . S
C1996 C1997 1.401 1_554 S
C1997 C1991 1.489 1_546 S
C1997 C1996 1.401 1_556 S
C1997 C1998 1.397 . S
C1998 H1986 0.950 . S
C1998 C1997 1.397 . S
C1998 C1999 1.391 . S
C1999 H1987 0.950 . S
C1999 C1995 1.393 . S
C1999 C1998 1.391 . S
H2000 C2008 0.950 . S
H2001 C2013 0.950 . S
H2002 C2010 0.950 . S
H2003 C2012 0.950 . S
H2004 C2014 0.950 . S
H2005 C2016 0.950 . S
H2006 C2018 0.950 . S
H2007 C2019 0.950 . S
C2008 H2000 0.950 . S
C2008 C2009 1.386 . S
C2008 C2010 1.391 . S
C2009 C2008 1.386 . S
C2009 C2013 1.393 1_556 S
C2010 H2002 0.950 . S
C2010 C2008 1.391 . S
C2010 C2011 1.416 . S
C2011 C2010 1.416 . S
C2011 C2012 1.387 1_556 S
C2011 C2017 1.487 1_656 S
C2012 H2003 0.950 . S
C2012 C2011 1.387 1_554 S
C2012 C2013 1.391 . S
C2013 H2001 0.950 . S
C2013 C2009 1.393 1_554 S
C2013 C2012 1.391 . S
C2014 H2004 0.950 . S
C2014 C2015 1.386 . S
C2014 C2016 1.391 . S
C2015 C2014 1.386 . S
C2015 C2019 1.393 1_554 S
C2016 H2005 0.950 . S
C2016 C2014 1.391 . S
C2016 C2017 1.418 . S
C2017 C2011 1.487 1_454 S
C2017 C2016 1.418 . S
C2017 C2018 1.386 1_554 S
C2018 H2006 0.950 . S
C2018 C2017 1.386 1_556 S
C2018 C2019 1.391 . S
C2019 H2007 0.950 . S
C2019 C2015 1.393 1_556 S
C2019 C2018 1.391 . S
H2020 C2028 0.950 . S
H2021 C2033 0.950 . S
H2022 C2030 0.950 . S
H2023 C2032 0.950 . S
H2024 C2034 0.950 . S
H2025 C2036 0.950 . S
H2026 C2038 0.950 . S
H2027 C2039 0.950 . S
C2028 H2020 0.950 . S
C2028 C2029 1.386 . S
C2028 C2030 1.391 . S
C2029 C2028 1.386 . S
C2029 C2033 1.393 1_554 S
C2030 H2022 0.950 . S
C2030 C2028 1.391 . S
C2030 C2031 1.436 . S
C2031 C2030 1.436 . S
C2031 C2032 1.370 1_554 S
C2031 C2037 1.487 1_554 S
C2032 H2023 0.950 . S
C2032 C2031 1.370 1_556 S
C2032 C2033 1.391 . S
C2033 H2021 0.950 . S
C2033 C2029 1.393 1_556 S
C2033 C2032 1.391 . S
C2034 H2024 0.950 . S
C2034 C2035 1.386 . S
C2034 C2036 1.391 . S
C2035 C2034 1.386 . S
C2035 C2039 1.393 1_556 S
C2036 H2025 0.950 . S
C2036 C2034 1.391 . S
C2036 C2037 1.410 . S
C2037 C2031 1.487 1_556 S
C2037 C2036 1.410 . S
C2037 C2038 1.390 1_556 S
C2038 H2026 0.950 . S
C2038 C2037 1.390 1_554 S
C2038 C2039 1.391 . S
C2039 H2027 0.950 . S
C2039 C2035 1.393 1_554 S
C2039 C2038 1.391 . S
H2040 C2048 0.950 . S
H2041 C2053 0.950 . S
H2042 C2050 0.950 . S
H2043 C2052 0.950 . S
H2044 C2054 0.950 . S
H2045 C2056 0.950 . S
H2046 C2058 0.950 . S
H2047 C2059 0.950 . S
C2048 H2040 0.950 . S
C2048 C2049 1.386 . S
C2048 C2050 1.391 . S
C2049 C2048 1.386 . S
C2049 C2053 1.393 . S
C2050 H2042 0.950 . S
C2050 C2048 1.391 . S
C2050 C2051 1.401 . S
C2051 C2050 1.401 . S
C2051 C2052 1.403 . S
C2051 C2057 1.485 1_455 S
C2052 H2043 0.950 . S
C2052 C2051 1.403 . S
C2052 C2053 1.391 . S
C2053 H2041 0.950 . S
C2053 C2049 1.393 . S
C2053 C2052 1.391 . S
C2054 H2044 0.950 . S
C2054 C2055 1.386 . S
C2054 C2056 1.391 . S
C2055 C2054 1.386 . S
C2055 C2059 1.393 . S
C2056 H2045 0.950 . S
C2056 C2054 1.391 . S
C2056 C2057 1.400 . S
C2057 C2051 1.485 1_655 S
C2057 C2056 1.400 . S
C2057 C2058 1.398 . S
C2058 H2046 0.950 . S
C2058 C2057 1.398 . S
C2058 C2059 1.391 . S
C2059 H2047 0.950 . S
C2059 C2055 1.393 . S
C2059 C2058 1.391 . S
H2060 C2068 0.950 . S
H2061 C2073 0.950 . S
H2062 C2070 0.950 . S
H2063 C2072 0.950 . S
H2064 C2074 0.950 . S
H2065 C2076 0.950 . S
H2066 C2078 0.950 . S
H2067 C2079 0.950 . S
C2068 H2060 0.950 . S
C2068 C2069 1.386 . S
C2068 C2070 1.391 . S
C2069 C2068 1.386 . S
C2069 C2073 1.393 . S
C2070 H2062 0.950 . S
C2070 C2068 1.391 . S
C2070 C2071 1.400 . S
C2071 C2070 1.400 . S
C2071 C2072 1.398 . S
C2071 C2077 1.491 . S
C2072 H2063 0.950 . S
C2072 C2071 1.398 . S
C2072 C2073 1.391 . S
C2073 H2061 0.950 . S
C2073 C2069 1.393 . S
C2073 C2072 1.391 . S
C2074 H2064 0.950 . S
C2074 C2075 1.386 . S
C2074 C2076 1.391 . S
C2075 C2074 1.386 . S
C2075 C2079 1.393 . S
C2076 H2065 0.950 . S
C2076 C2074 1.391 . S
C2076 C2077 1.400 . S
C2077 C2071 1.491 . S
C2077 C2076 1.400 . S
C2077 C2078 1.398 . S
C2078 H2066 0.950 . S
C2078 C2077 1.398 . S
C2078 C2079 1.391 . S
C2079 H2067 0.950 . S
C2079 C2075 1.393 . S
C2079 C2078 1.391 . S
H2080 C2088 0.950 . S
H2081 C2093 0.950 . S
H2082 C2090 0.950 . S
H2083 C2092 0.950 . S
H2084 C2094 0.950 . S
H2085 C2096 0.950 . S
H2086 C2098 0.950 . S
H2087 C2099 0.950 . S
C2088 H2080 0.950 . S
C2088 C2089 1.386 . S
C2088 C2090 1.391 . S
C2089 C2088 1.386 . S
C2089 C2093 1.393 . S
C2090 H2082 0.950 . S
C2090 C2088 1.391 . S
C2090 C2091 1.399 . S
C2091 C2090 1.399 . S
C2091 C2092 1.409 . S
C2091 C2097 1.481 1_565 S
C2092 H2083 0.950 . S
C2092 C2091 1.409 . S
C2092 C2093 1.391 . S
C2093 H2081 0.950 . S
C2093 C2089 1.393 . S
C2093 C2092 1.391 . S
C2094 H2084 0.950 . S
C2094 C2095 1.386 . S
C2094 C2096 1.391 . S
C2095 C2094 1.386 . S
C2095 C2099 1.393 . S
C2096 H2085 0.950 . S
C2096 C2094 1.391 . S
C2096 C2097 1.400 . S
C2097 C2091 1.481 1_545 S
C2097 C2096 1.400 . S
C2097 C2098 1.398 . S
C2098 H2086 0.950 . S
C2098 C2097 1.398 . S
C2098 C2099 1.391 . S
C2099 H2087 0.950 . S
C2099 C2095 1.393 . S
C2099 C2098 1.391 . S
H2100 C2108 0.950 . S
H2101 C2113 0.950 . S
H2102 C2110 0.950 1_455 S
H2103 C2112 0.950 . S
H2104 C2114 0.950 . S
H2105 C2116 0.950 . S
H2106 C2118 0.950 . S
H2107 C2119 0.950 . S
C2108 H2100 0.950 . S
C2108 C2109 1.386 1_455 S
C2108 C2110 1.391 1_455 S
C2109 C2108 1.386 1_655 S
C2109 C2113 1.393 . S
C2110 H2102 0.950 1_655 S
C2110 C2108 1.391 1_655 S
C2110 C2111 1.400 . S
C2111 C2110 1.400 . S
C2111 C2112 1.398 . S
C2111 C2117 1.491 . S
C2112 H2103 0.950 . S
C2112 C2111 1.398 . S
C2112 C2113 1.391 . S
C2113 H2101 0.950 . S
C2113 C2109 1.393 . S
C2113 C2112 1.391 . S
C2114 H2104 0.950 . S
C2114 C2115 1.386 . S
C2114 C2116 1.391 . S
C2115 C2114 1.386 . S
C2115 C2119 1.393 . S
C2116 H2105 0.950 . S
C2116 C2114 1.391 . S
C2116 C2117 1.400 . S
C2117 C2111 1.491 . S
C2117 C2116 1.400 . S
C2117 C2118 1.398 . S
C2118 H2106 0.950 . S
C2118 C2117 1.398 . S
C2118 C2119 1.391 . S
C2119 H2107 0.950 . S
C2119 C2115 1.393 . S
C2119 C2118 1.391 . S
H2120 C2128 0.950 . S
H2121 C2133 0.950 . S
H2122 C2130 0.950 . S
H2123 C2132 0.950 . S
H2124 C2134 0.950 . S
H2125 C2136 0.950 . S
H2126 C2138 0.950 . S
H2127 C2139 0.950 . S
C2128 H2120 0.950 . S
C2128 C2129 1.386 . S
C2128 C2130 1.391 . S
C2129 C2128 1.386 . S
C2129 C2133 1.393 . S
C2130 H2122 0.950 . S
C2130 C2128 1.391 . S
C2130 C2131 1.400 . S
C2131 C2130 1.400 . S
C2131 C2132 1.398 . S
C2131 C2137 1.491 . S
C2132 H2123 0.950 . S
C2132 C2131 1.398 . S
C2132 C2133 1.391 . S
C2133 H2121 0.950 . S
C2133 C2129 1.393 . S
C2133 C2132 1.391 . S
C2134 H2124 0.950 . S
C2134 C2135 1.386 . S
C2134 C2136 1.391 . S
C2135 C2134 1.386 . S
C2135 C2139 1.393 . S
C2136 H2125 0.950 . S
C2136 C2134 1.391 . S
C2136 C2137 1.400 . S
C2137 C2131 1.491 . S
C2137 C2136 1.400 . S
C2137 C2138 1.398 . S
C2138 H2126 0.950 . S
C2138 C2137 1.398 . S
C2138 C2139 1.391 . S
C2139 H2127 0.950 . S
C2139 C2135 1.393 . S
C2139 C2138 1.391 . S
H2140 C2148 0.950 . S
H2141 C2153 0.950 . S
H2142 C2150 0.950 . S
H2143 C2152 0.950 . S
H2144 C2154 0.950 . S
H2145 C2156 0.949 . S
H2146 C2158 0.950 . S
H2147 C2159 0.950 . S
C2148 H2140 0.950 . S
C2148 C2149 1.386 . S
C2148 C2150 1.391 . S
C2149 C2148 1.386 . S
C2149 C2153 1.393 . S
C2150 H2142 0.950 . S
C2150 C2148 1.391 . S
C2150 C2151 1.400 . S
C2151 C2150 1.400 . S
C2151 C2152 1.398 . S
C2151 C2157 1.491 . S
C2152 H2143 0.950 . S
C2152 C2151 1.398 . S
C2152 C2153 1.391 . S
C2153 H2141 0.950 . S
C2153 C2149 1.393 . S
C2153 C2152 1.391 . S
C2154 H2144 0.950 . S
C2154 C2155 1.386 1_565 S
C2154 C2156 1.391 1_565 S
C2155 C2154 1.386 1_545 S
C2155 C2159 1.393 . S
C2156 H2145 0.949 . S
C2156 C2154 1.391 1_545 S
C2156 C2157 1.400 . S
C2157 C2151 1.491 . S
C2157 C2156 1.400 . S
C2157 C2158 1.398 . S
C2158 H2146 0.950 . S
C2158 C2157 1.398 . S
C2158 C2159 1.391 . S
C2159 H2147 0.950 . S
C2159 C2155 1.393 . S
C2159 C2158 1.391 . S
H2160 C2168 0.950 . S
H2161 C2173 0.950 . S
H2162 C2170 0.950 . S
H2163 C2172 0.950 . S
H2164 C2174 0.950 . S
H2165 C2176 0.950 . S
H2166 C2178 0.950 . S
H2167 C2179 0.950 . S
C2168 H2160 0.950 . S
C2168 C2169 1.386 . S
C2168 C2170 1.391 . S
C2169 C2168 1.386 . S
C2169 C2173 1.393 . S
C2170 H2162 0.950 . S
C2170 C2168 1.391 . S
C2170 C2171 1.400 . S
C2171 C2170 1.400 . S
C2171 C2172 1.398 . S
C2171 C2177 1.491 . S
C2172 H2163 0.950 . S
C2172 C2171 1.398 . S
C2172 C2173 1.391 . S
C2173 H2161 0.950 . S
C2173 C2169 1.393 . S
C2173 C2172 1.391 . S
C2174 H2164 0.950 . S
C2174 C2175 1.386 . S
C2174 C2176 1.391 . S
C2175 C2174 1.386 . S
C2175 C2179 1.393 . S
C2176 H2165 0.950 . S
C2176 C2174 1.391 . S
C2176 C2177 1.400 . S
C2177 C2171 1.491 . S
C2177 C2176 1.400 . S
C2177 C2178 1.398 . S
C2178 H2166 0.950 . S
C2178 C2177 1.398 . S
C2178 C2179 1.391 . S
C2179 H2167 0.950 . S
C2179 C2175 1.393 . S
C2179 C2178 1.391 . S
H2180 C2188 0.950 . S
H2181 C2193 0.950 . S
H2182 C2190 0.950 . S
H2183 C2192 0.950 . S
H2184 C2194 0.950 . S
H2185 C2196 0.950 . S
H2186 C2198 0.950 . S
H2187 C2199 0.950 . S
C2188 H2180 0.950 . S
C2188 C2189 1.386 . S
C2188 C2190 1.391 . S
C2189 C2188 1.386 . S
C2189 C2193 1.393 . S
C2190 H2182 0.950 . S
C2190 C2188 1.391 . S
C2190 C2191 1.400 . S
C2191 C2190 1.400 . S
C2191 C2192 1.398 . S
C2191 C2197 1.491 . S
C2192 H2183 0.950 . S
C2192 C2191 1.398 . S
C2192 C2193 1.391 . S
C2193 H2181 0.950 . S
C2193 C2189 1.393 . S
C2193 C2192 1.391 . S
C2194 H2184 0.950 . S
C2194 C2195 1.386 . S
C2194 C2196 1.391 . S
C2195 C2194 1.386 . S
C2195 C2199 1.393 . S
C2196 H2185 0.950 . S
C2196 C2194 1.391 . S
C2196 C2197 1.400 . S
C2197 C2191 1.491 . S
C2197 C2196 1.400 . S
C2197 C2198 1.398 . S
C2198 H2186 0.950 . S
C2198 C2197 1.398 . S
C2198 C2199 1.391 . S
C2199 H2187 0.950 . S
C2199 C2195 1.393 . S
C2199 C2198 1.391 . S
H2200 C2208 0.950 . S
H2201 C2213 0.950 . S
H2202 C2210 0.950 . S
H2203 C2212 0.950 . S
H2204 C2214 0.950 . S
H2205 C2216 0.950 . S
H2206 C2218 0.950 . S
H2207 C2219 0.950 . S
C2208 H2200 0.950 . S
C2208 C2209 1.386 . S
C2208 C2210 1.391 . S
C2209 C2208 1.386 . S
C2209 C2213 1.393 . S
C2210 H2202 0.950 . S
C2210 C2208 1.391 . S
C2210 C2211 1.400 . S
C2211 C2210 1.400 . S
C2211 C2212 1.398 . S
C2211 C2217 1.491 . S
C2212 H2203 0.950 . S
C2212 C2211 1.398 . S
C2212 C2213 1.391 . S
C2213 H2201 0.950 . S
C2213 C2209 1.393 . S
C2213 C2212 1.391 . S
C2214 H2204 0.950 . S
C2214 C2215 1.386 . S
C2214 C2216 1.391 . S
C2215 C2214 1.386 . S
C2215 C2219 1.393 . S
C2216 H2205 0.950 . S
C2216 C2214 1.391 . S
C2216 C2217 1.400 . S
C2217 C2211 1.491 . S
C2217 C2216 1.400 . S
C2217 C2218 1.398 . S
C2218 H2206 0.950 . S
C2218 C2217 1.398 . S
C2218 C2219 1.391 . S
C2219 H2207 0.950 . S
C2219 C2215 1.393 . S
C2219 C2218 1.391 . S
H2220 C2228 0.950 . S
H2221 C2233 0.950 . S
H2222 C2230 0.950 . S
H2223 C2232 0.950 . S
H2224 C2234 0.950 . S
H2225 C2236 0.950 . S
H2226 C2238 0.950 . S
H2227 C2239 0.950 . S
C2228 H2220 0.950 . S
C2228 C2229 1.386 . S
C2228 C2230 1.391 . S
C2229 C2228 1.386 . S
C2229 C2233 1.393 . S
C2230 H2222 0.950 . S
C2230 C2228 1.391 . S
C2230 C2231 1.400 . S
C2231 C2230 1.400 . S
C2231 C2232 1.398 . S
C2231 C2237 1.491 . S
C2232 H2223 0.950 . S
C2232 C2231 1.398 . S
C2232 C2233 1.391 . S
C2233 H2221 0.950 . S
C2233 C2229 1.393 . S
C2233 C2232 1.391 . S
C2234 H2224 0.950 . S
C2234 C2235 1.386 . S
C2234 C2236 1.391 . S
C2235 C2234 1.386 . S
C2235 C2239 1.393 . S
C2236 H2225 0.950 . S
C2236 C2234 1.391 . S
C2236 C2237 1.400 . S
C2237 C2231 1.491 . S
C2237 C2236 1.400 . S
C2237 C2238 1.398 . S
C2238 H2226 0.950 . S
C2238 C2237 1.398 . S
C2238 C2239 1.391 . S
C2239 H2227 0.950 . S
C2239 C2235 1.393 . S
C2239 C2238 1.391 . S
H2240 C2248 0.950 . S
H2241 C2253 0.950 . S
H2242 C2250 0.950 . S
H2243 C2252 0.950 . S
H2244 C2254 0.950 . S
H2245 C2256 0.950 . S
H2246 C2258 0.950 . S
H2247 C2259 0.950 . S
C2248 H2240 0.950 . S
C2248 C2249 1.386 . S
C2248 C2250 1.391 . S
C2249 C2248 1.386 . S
C2249 C2253 1.393 . S
C2250 H2242 0.950 . S
C2250 C2248 1.391 . S
C2250 C2251 1.400 . S
C2251 C2250 1.400 . S
C2251 C2252 1.398 . S
C2251 C2257 1.491 . S
C2252 H2243 0.950 . S
C2252 C2251 1.398 . S
C2252 C2253 1.391 . S
C2253 H2241 0.950 . S
C2253 C2249 1.393 . S
C2253 C2252 1.391 . S
C2254 H2244 0.950 . S
C2254 C2255 1.386 . S
C2254 C2256 1.391 . S
C2255 C2254 1.386 . S
C2255 C2259 1.393 . S
C2256 H2245 0.950 . S
C2256 C2254 1.391 . S
C2256 C2257 1.400 . S
C2257 C2251 1.491 . S
C2257 C2256 1.400 . S
C2257 C2258 1.398 . S
C2258 H2246 0.950 . S
C2258 C2257 1.398 . S
C2258 C2259 1.391 . S
C2259 H2247 0.950 . S
C2259 C2255 1.393 . S
C2259 C2258 1.391 . S
H2260 C2268 0.950 . S
H2261 C2273 0.950 . S
H2262 C2270 0.950 . S
H2263 C2272 0.950 . S
H2264 C2274 0.950 . S
H2265 C2276 0.950 . S
H2266 C2278 0.950 . S
H2267 C2279 0.950 . S
C2268 H2260 0.950 . S
C2268 C2269 1.386 . S
C2268 C2270 1.391 . S
C2269 C2268 1.386 . S
C2269 C2273 1.393 . S
C2270 H2262 0.950 . S
C2270 C2268 1.391 . S
C2270 C2271 1.400 . S
C2271 C2270 1.400 . S
C2271 C2272 1.398 . S
C2271 C2277 1.491 . S
C2272 H2263 0.950 . S
C2272 C2271 1.398 . S
C2272 C2273 1.391 . S
C2273 H2261 0.950 . S
C2273 C2269 1.393 . S
C2273 C2272 1.391 . S
C2274 H2264 0.950 . S
C2274 C2275 1.386 . S
C2274 C2276 1.391 . S
C2275 C2274 1.386 . S
C2275 C2279 1.393 . S
C2276 H2265 0.950 . S
C2276 C2274 1.391 . S
C2276 C2277 1.400 . S
C2277 C2271 1.491 . S
C2277 C2276 1.400 . S
C2277 C2278 1.398 . S
C2278 H2266 0.950 . S
C2278 C2277 1.398 . S
C2278 C2279 1.391 . S
C2279 H2267 0.950 . S
C2279 C2275 1.393 . S
C2279 C2278 1.391 . S
H2280 C2288 0.950 . S
H2281 C2293 0.950 . S
H2282 C2290 0.950 . S
H2283 C2292 0.950 . S
H2284 C2294 0.950 . S
H2285 C2296 0.950 . S
H2286 C2298 0.950 . S
H2287 C2299 0.950 . S
C2288 H2280 0.950 . S
C2288 C2289 1.386 . S
C2288 C2290 1.391 . S
C2289 C2288 1.386 . S
C2289 C2293 1.393 . S
C2290 H2282 0.950 . S
C2290 C2288 1.391 . S
C2290 C2291 1.400 . S
C2291 C2290 1.400 . S
C2291 C2292 1.398 . S
C2291 C2297 1.491 . S
C2292 H2283 0.950 . S
C2292 C2291 1.398 . S
C2292 C2293 1.391 . S
C2293 H2281 0.950 . S
C2293 C2289 1.393 . S
C2293 C2292 1.391 . S
C2294 H2284 0.950 . S
C2294 C2295 1.386 . S
C2294 C2296 1.391 . S
C2295 C2294 1.386 . S
C2295 C2299 1.393 . S
C2296 H2285 0.950 . S
C2296 C2294 1.391 . S
C2296 C2297 1.400 . S
C2297 C2291 1.491 . S
C2297 C2296 1.400 . S
C2297 C2298 1.398 . S
C2298 H2286 0.950 . S
C2298 C2297 1.398 . S
C2298 C2299 1.391 . S
C2299 H2287 0.950 . S
C2299 C2295 1.393 . S
C2299 C2298 1.391 . S
H2300 C2308 0.950 . S
H2301 C2313 0.950 . S
H2302 C2310 0.950 . S
H2303 C2312 0.950 . S
H2304 C2314 0.950 . S
H2305 C2316 0.950 . S
H2306 C2318 0.950 . S
H2307 C2319 0.950 . S
C2308 H2300 0.950 . S
C2308 C2309 1.386 . S
C2308 C2310 1.391 . S
C2309 C2308 1.386 . S
C2309 C2313 1.393 . S
C2310 H2302 0.950 . S
C2310 C2308 1.391 . S
C2310 C2311 1.400 . S
C2311 C2310 1.400 . S
C2311 C2312 1.398 . S
C2311 C2317 1.491 . S
C2312 H2303 0.950 . S
C2312 C2311 1.398 . S
C2312 C2313 1.391 . S
C2313 H2301 0.950 . S
C2313 C2309 1.393 . S
C2313 C2312 1.391 . S
C2314 H2304 0.950 . S
C2314 C2315 1.386 . S
C2314 C2316 1.391 . S
C2315 C2314 1.386 . S
C2315 C2319 1.393 . S
C2316 H2305 0.950 . S
C2316 C2314 1.391 . S
C2316 C2317 1.400 . S
C2317 C2311 1.491 . S
C2317 C2316 1.400 . S
C2317 C2318 1.398 . S
C2318 H2306 0.950 . S
C2318 C2317 1.398 . S
C2318 C2319 1.391 . S
C2319 H2307 0.950 . S
C2319 C2315 1.393 . S
C2319 C2318 1.391 . S
H2320 C2328 0.950 . S
H2321 C2333 0.950 . S
H2322 C2330 0.950 . S
H2323 C2332 0.950 . S
H2324 C2334 0.950 . S
H2325 C2336 0.950 . S
H2326 C2338 0.950 . S
H2327 C2339 0.950 . S
C2328 H2320 0.950 . S
C2328 C2329 1.386 . S
C2328 C2330 1.391 . S
C2329 C2328 1.386 . S
C2329 C2333 1.393 . S
C2330 H2322 0.950 . S
C2330 C2328 1.391 . S
C2330 C2331 1.400 . S
C2331 C2330 1.400 . S
C2331 C2332 1.398 . S
C2331 C2337 1.491 . S
C2332 H2323 0.950 . S
C2332 C2331 1.398 . S
C2332 C2333 1.391 . S
C2333 H2321 0.950 . S
C2333 C2329 1.393 . S
C2333 C2332 1.391 . S
C2334 H2324 0.950 . S
C2334 C2335 1.386 . S
C2334 C2336 1.391 . S
C2335 C2334 1.386 . S
C2335 C2339 1.393 . S
C2336 H2325 0.950 . S
C2336 C2334 1.391 . S
C2336 C2337 1.400 . S
C2337 C2331 1.491 . S
C2337 C2336 1.400 . S
C2337 C2338 1.398 . S
C2338 H2326 0.950 . S
C2338 C2337 1.398 . S
C2338 C2339 1.391 . S
C2339 H2327 0.950 . S
C2339 C2335 1.393 . S
C2339 C2338 1.391 . S
H2340 C2348 0.950 . S
H2341 C2353 0.950 . S
H2342 C2350 0.950 . S
H2343 C2352 0.950 . S
H2344 C2354 0.950 . S
H2345 C2356 0.950 . S
H2346 C2358 0.950 . S
H2347 C2359 0.950 . S
C2348 H2340 0.950 . S
C2348 C2349 1.386 . S
C2348 C2350 1.391 . S
C2349 C2348 1.386 . S
C2349 C2353 1.393 . S
C2350 H2342 0.950 . S
C2350 C2348 1.391 . S
C2350 C2351 1.400 . S
C2351 C2350 1.400 . S
C2351 C2352 1.398 . S
C2351 C2357 1.491 . S
C2352 H2343 0.950 . S
C2352 C2351 1.398 . S
C2352 C2353 1.391 . S
C2353 H2341 0.950 . S
C2353 C2349 1.393 . S
C2353 C2352 1.391 . S
C2354 H2344 0.950 . S
C2354 C2355 1.386 . S
C2354 C2356 1.391 . S
C2355 C2354 1.386 . S
C2355 C2359 1.393 . S
C2356 H2345 0.950 . S
C2356 C2354 1.391 . S
C2356 C2357 1.400 . S
C2357 C2351 1.491 . S
C2357 C2356 1.400 . S
C2357 C2358 1.398 . S
C2358 H2346 0.950 . S
C2358 C2357 1.398 . S
C2358 C2359 1.391 . S
C2359 H2347 0.950 . S
C2359 C2355 1.393 . S
C2359 C2358 1.391 . S
H2360 C2368 0.950 . S
H2361 C2373 0.950 . S
H2362 C2370 0.950 . S
H2363 C2372 0.950 . S
H2364 C2374 0.950 . S
H2365 C2376 0.950 . S
H2366 C2378 0.950 . S
H2367 C2379 0.950 . S
C2368 H2360 0.950 . S
C2368 C2369 1.386 . S
C2368 C2370 1.391 . S
C2369 C2368 1.386 . S
C2369 C2373 1.393 . S
C2370 H2362 0.950 . S
C2370 C2368 1.391 . S
C2370 C2371 1.400 . S
C2371 C2370 1.400 . S
C2371 C2372 1.398 . S
C2371 C2377 1.491 . S
C2372 H2363 0.950 . S
C2372 C2371 1.398 . S
C2372 C2373 1.391 . S
C2373 H2361 0.950 . S
C2373 C2369 1.393 . S
C2373 C2372 1.391 . S
C2374 H2364 0.950 . S
C2374 C2375 1.386 . S
C2374 C2376 1.391 . S
C2375 C2374 1.386 . S
C2375 C2379 1.393 . S
C2376 H2365 0.950 . S
C2376 C2374 1.391 . S
C2376 C2377 1.400 . S
C2377 C2371 1.491 . S
C2377 C2376 1.400 . S
C2377 C2378 1.398 . S
C2378 H2366 0.950 . S
C2378 C2377 1.398 . S
C2378 C2379 1.391 . S
C2379 H2367 0.950 . S
C2379 C2375 1.393 . S
C2379 C2378 1.391 . S
H2380 C2388 0.950 . S
H2381 C2393 0.950 . S
H2382 C2390 0.950 . S
H2383 C2392 0.950 . S
H2384 C2394 0.950 . S
H2385 C2396 0.950 . S
H2386 C2398 0.950 . S
H2387 C2399 0.950 . S
C2388 H2380 0.950 . S
C2388 C2389 1.386 . S
C2388 C2390 1.391 . S
C2389 C2388 1.386 . S
C2389 C2393 1.393 . S
C2390 H2382 0.950 . S
C2390 C2388 1.391 . S
C2390 C2391 1.400 . S
C2391 C2390 1.400 . S
C2391 C2392 1.398 . S
C2391 C2397 1.491 . S
C2392 H2383 0.950 . S
C2392 C2391 1.398 . S
C2392 C2393 1.391 . S
C2393 H2381 0.950 . S
C2393 C2389 1.393 . S
C2393 C2392 1.391 . S
C2394 H2384 0.950 . S
C2394 C2395 1.386 . S
C2394 C2396 1.391 . S
C2395 C2394 1.386 . S
C2395 C2399 1.393 . S
C2396 H2385 0.950 . S
C2396 C2394 1.391 . S
C2396 C2397 1.400 . S
C2397 C2391 1.491 . S
C2397 C2396 1.400 . S
C2397 C2398 1.398 . S
C2398 H2386 0.950 . S
C2398 C2397 1.398 . S
C2398 C2399 1.391 . S
C2399 H2387 0.950 . S
C2399 C2395 1.393 . S
C2399 C2398 1.391 . S
H2400 C2408 0.950 . S
H2401 C2413 0.950 . S
H2402 C2410 0.950 . S
H2403 C2412 0.950 . S
H2404 C2414 0.950 . S
H2405 C2416 0.949 1_655 S
H2406 C2418 0.950 . S
H2407 C2419 0.950 . S
C2408 H2400 0.950 . S
C2408 C2409 1.386 . S
C2408 C2410 1.391 1_655 S
C2409 C2408 1.386 . S
C2409 C2413 1.393 . S
C2410 H2402 0.950 . S
C2410 C2408 1.391 1_455 S
C2410 C2411 1.400 1_455 S
C2411 C2410 1.400 1_655 S
C2411 C2412 1.398 . S
C2411 C2417 1.491 1_655 S
C2412 H2403 0.950 . S
C2412 C2411 1.398 . S
C2412 C2413 1.391 . S
C2413 H2401 0.950 . S
C2413 C2409 1.393 . S
C2413 C2412 1.391 . S
C2414 H2404 0.950 . S
C2414 C2415 1.386 . S
C2414 C2416 1.393 . S
C2415 C2414 1.386 . S
C2415 C2419 1.393 . S
C2416 H2405 0.949 1_455 S
C2416 C2414 1.393 . S
C2416 C2417 1.399 . S
C2417 C2411 1.491 1_455 S
C2417 C2416 1.399 . S
C2417 C2418 1.398 . S
C2418 H2406 0.950 . S
C2418 C2417 1.398 . S
C2418 C2419 1.391 . S
C2419 H2407 0.950 . S
C2419 C2415 1.393 . S
C2419 C2418 1.391 . S
H2420 C2428 0.950 . S
H2421 C2433 0.950 . S
H2422 C2430 0.950 . S
H2423 C2432 0.950 . S
H2424 C2434 0.950 . S
H2425 C2436 0.950 . S
H2426 C2438 0.950 . S
H2427 C2439 0.950 . S
C2428 H2420 0.950 . S
C2428 C2429 1.386 . S
C2428 C2430 1.391 . S
C2429 C2428 1.386 . S
C2429 C2433 1.393 . S
C2430 H2422 0.950 . S
C2430 C2428 1.391 . S
C2430 C2431 1.400 . S
C2431 C2430 1.400 . S
C2431 C2432 1.398 . S
C2431 C2437 1.491 . S
C2432 H2423 0.950 . S
C2432 C2431 1.398 . S
C2432 C2433 1.391 . S
C2433 H2421 0.950 . S
C2433 C2429 1.393 . S
C2433 C2432 1.391 . S
C2434 H2424 0.950 . S
C2434 C2435 1.386 . S
C2434 C2436 1.391 . S
C2435 C2434 1.386 . S
C2435 C2439 1.393 . S
C2436 H2425 0.950 . S
C2436 C2434 1.391 . S
C2436 C2437 1.400 . S
C2437 C2431 1.491 . S
C2437 C2436 1.400 . S
C2437 C2438 1.398 . S
C2438 H2426 0.950 . S
C2438 C2437 1.398 . S
C2438 C2439 1.391 . S
C2439 H2427 0.950 . S
C2439 C2435 1.393 . S
C2439 C2438 1.391 . S
H2440 C2448 0.950 . S
H2441 C2453 0.950 . S
H2442 C2450 0.950 . S
H2443 C2452 0.950 . S
H2444 C2454 0.949 . S
H2445 C2456 0.950 . S
H2446 C2458 0.950 . S
H2447 C2459 0.950 . S
C2448 H2440 0.950 . S
C2448 C2449 1.386 1_565 S
C2448 C2450 1.391 . S
C2449 C2448 1.386 1_545 S
C2449 C2453 1.393 . S
C2450 H2442 0.950 . S
C2450 C2448 1.391 . S
C2450 C2451 1.400 1_565 S
C2451 C2450 1.400 1_545 S
C2451 C2452 1.398 . S
C2451 C2457 1.491 1_545 S
C2452 H2443 0.950 . S
C2452 C2451 1.398 . S
C2452 C2453 1.391 . S
C2453 H2441 0.950 . S
C2453 C2449 1.393 . S
C2453 C2452 1.391 . S
C2454 H2444 0.949 . S
C2454 C2455 1.386 1_545 S
C2454 C2456 1.391 . S
C2455 C2454 1.386 1_565 S
C2455 C2459 1.393 . S
C2456 H2445 0.950 . S
C2456 C2454 1.391 . S
C2456 C2457 1.400 1_545 S
C2457 C2451 1.491 1_565 S
C2457 C2456 1.400 1_565 S
C2457 C2458 1.398 . S
C2458 H2446 0.950 . S
C2458 C2457 1.398 . S
C2458 C2459 1.391 . S
C2459 H2447 0.950 . S
C2459 C2455 1.393 . S
C2459 C2458 1.391 . S
H2460 C2468 0.950 . S
H2461 C2473 0.950 . S
H2462 C2470 0.950 . S
H2463 C2472 0.950 . S
H2464 C2474 0.950 . S
H2465 C2476 0.950 . S
H2466 C2478 0.950 . S
H2467 C2479 0.950 . S
C2468 H2460 0.950 . S
C2468 C2469 1.386 . S
C2468 C2470 1.391 . S
C2469 C2468 1.386 . S
C2469 C2473 1.393 1_545 S
C2470 H2462 0.950 . S
C2470 C2468 1.391 . S
C2470 C2471 1.400 . S
C2471 C2470 1.400 . S
C2471 C2472 1.398 1_545 S
C2471 C2477 1.491 1_545 S
C2472 H2463 0.950 . S
C2472 C2471 1.398 1_565 S
C2472 C2473 1.391 . S
C2473 H2461 0.950 . S
C2473 C2469 1.393 1_565 S
C2473 C2472 1.391 . S
C2474 H2464 0.950 . S
C2474 C2475 1.386 . S
C2474 C2476 1.391 . S
C2475 C2474 1.386 . S
C2475 C2479 1.393 1_565 S
C2476 H2465 0.950 . S
C2476 C2474 1.391 . S
C2476 C2477 1.400 . S
C2477 C2471 1.491 1_565 S
C2477 C2476 1.400 . S
C2477 C2478 1.398 1_565 S
C2478 H2466 0.950 . S
C2478 C2477 1.398 1_545 S
C2478 C2479 1.391 . S
C2479 H2467 0.950 . S
C2479 C2475 1.393 1_545 S
C2479 C2478 1.391 . S
H2480 C2488 0.950 . S
H2481 C2493 0.950 1_655 S
H2482 C2490 0.950 . S
H2483 C2492 0.950 . S
H2484 C2494 0.950 . S
H2485 C2496 0.950 . S
H2486 C2498 0.950 . S
H2487 C2499 0.950 1_455 S
C2488 H2480 0.950 . S
C2488 C2489 1.386 . S
C2488 C2490 1.391 . S
C2489 C2488 1.386 . S
C2489 C2493 1.393 . S
C2490 H2482 0.950 . S
C2490 C2488 1.391 . S
C2490 C2491 1.400 . S
C2491 C2490 1.400 . S
C2491 C2492 1.398 1_455 S
C2491 C2497 1.491 1_455 S
C2492 H2483 0.950 . S
C2492 C2491 1.398 1_655 S
C2492 C2493 1.391 1_655 S
C2493 H2481 0.950 1_455 S
C2493 C2489 1.393 . S
C2493 C2492 1.391 1_455 S
C2494 H2484 0.950 . S
C2494 C2495 1.386 . S
C2494 C2496 1.391 . S
C2495 C2494 1.386 . S
C2495 C2499 1.393 . S
C2496 H2485 0.950 . S
C2496 C2494 1.391 . S
C2496 C2497 1.400 . S
C2497 C2491 1.491 1_655 S
C2497 C2496 1.400 . S
C2497 C2498 1.398 1_655 S
C2498 H2486 0.950 . S
C2498 C2497 1.398 1_455 S
C2498 C2499 1.391 1_455 S
C2499 H2487 0.950 1_655 S
C2499 C2495 1.393 . S
C2499 C2498 1.391 1_655 S
H2500 C2508 0.950 . S
H2501 C2513 0.950 . S
H2502 C2510 0.950 . S
H2503 C2512 0.950 . S
H2504 C2514 0.950 . S
H2505 C2516 0.950 . S
H2506 C2518 0.950 . S
H2507 C2519 0.950 . S
C2508 H2500 0.950 . S
C2508 C2509 1.386 . S
C2508 C2510 1.391 . S
C2509 C2508 1.386 . S
C2509 C2513 1.393 . S
C2510 H2502 0.950 . S
C2510 C2508 1.391 . S
C2510 C2511 1.400 . S
C2511 C2510 1.400 . S
C2511 C2512 1.398 . S
C2511 C2517 1.491 . S
C2512 H2503 0.950 . S
C2512 C2511 1.398 . S
C2512 C2513 1.391 . S
C2513 H2501 0.950 . S
C2513 C2509 1.393 . S
C2513 C2512 1.391 . S
C2514 H2504 0.950 . S
C2514 C2515 1.386 . S
C2514 C2516 1.391 . S
C2515 C2514 1.386 . S
C2515 C2519 1.393 . S
C2516 H2505 0.950 . S
C2516 C2514 1.391 . S
C2516 C2517 1.400 . S
C2517 C2511 1.491 . S
C2517 C2516 1.400 . S
C2517 C2518 1.398 . S
C2518 H2506 0.950 . S
C2518 C2517 1.398 . S
C2518 C2519 1.391 . S
C2519 H2507 0.950 . S
C2519 C2515 1.393 . S
C2519 C2518 1.391 . S
H2520 C2528 0.950 . S
H2521 C2533 0.950 . S
H2522 C2530 0.950 . S
H2523 C2532 0.973 . S
H2524 C2534 0.950 . S
H2525 C2536 0.950 . S
H2526 C2538 0.975 . S
H2527 C2539 0.950 . S
C2528 H2520 0.950 . S
C2528 C2529 1.386 . S
C2528 C2530 1.391 . S
C2529 C2528 1.386 . S
C2529 C2533 1.393 . S
C2530 H2522 0.950 . S
C2530 C2528 1.391 . S
C2530 C2531 1.400 . S
C2531 C2530 1.400 . S
C2531 C2532 1.398 . S
C2531 C2537 1.491 1_655 S
C2532 H2523 0.973 . S
C2532 C2531 1.398 . S
C2532 C2533 1.391 . S
C2533 H2521 0.950 . S
C2533 C2529 1.393 . S
C2533 C2532 1.391 . S
C2534 H2524 0.950 . S
C2534 C2535 1.386 . S
C2534 C2536 1.391 . S
C2535 C2534 1.386 . S
C2535 C2539 1.393 . S
C2536 H2525 0.950 . S
C2536 C2534 1.391 . S
C2536 C2537 1.400 . S
C2537 C2531 1.491 1_455 S
C2537 C2536 1.400 . S
C2537 C2538 1.398 . S
C2538 H2526 0.975 . S
C2538 C2537 1.398 . S
C2538 C2539 1.391 . S
C2539 H2527 0.950 . S
C2539 C2535 1.393 . S
C2539 C2538 1.391 . S
H2540 C2548 0.950 . S
H2541 C2553 0.950 . S
H2542 C2550 0.950 . S
H2543 C2552 0.950 . S
H2544 C2554 0.950 . S
H2545 C2556 0.950 . S
H2546 C2558 0.950 . S
H2547 C2559 0.950 . S
C2548 H2540 0.950 . S
C2548 C2549 1.386 . S
C2548 C2550 1.391 . S
C2549 C2548 1.386 . S
C2549 C2553 1.393 . S
C2550 H2542 0.950 . S
C2550 C2548 1.391 . S
C2550 C2551 1.400 . S
C2551 C2550 1.400 . S
C2551 C2552 1.398 . S
C2551 C2557 1.491 . S
C2552 H2543 0.950 . S
C2552 C2551 1.398 . S
C2552 C2553 1.391 . S
C2553 H2541 0.950 . S
C2553 C2549 1.393 . S
C2553 C2552 1.391 . S
C2554 H2544 0.950 . S
C2554 C2555 1.386 . S
C2554 C2556 1.391 . S
C2555 C2554 1.386 . S
C2555 C2559 1.393 . S
C2556 H2545 0.950 . S
C2556 C2554 1.391 . S
C2556 C2557 1.400 . S
C2557 C2551 1.491 . S
C2557 C2556 1.400 . S
C2557 C2558 1.398 . S
C2558 H2546 0.950 . S
C2558 C2557 1.398 . S
C2558 C2559 1.391 . S
C2559 H2547 0.950 . S
C2559 C2555 1.393 . S
C2559 C2558 1.391 . S
H2560 C2568 0.950 . S
H2561 C2573 0.950 . S
H2562 C2570 0.950 1_565 S
H2563 C2572 0.950 . S
H2564 C2574 0.950 . S
H2565 C2576 0.950 1_545 S
H2566 C2578 0.950 . S
H2567 C2579 0.950 . S
C2568 H2560 0.950 . S
C2568 C2569 1.386 . S
C2568 C2570 1.391 . S
C2569 C2568 1.386 . S
C2569 C2573 1.393 . S
C2570 H2562 0.950 1_545 S
C2570 C2568 1.391 . S
C2570 C2571 1.400 . S
C2571 C2570 1.400 . S
C2571 C2572 1.398 . S
C2571 C2577 1.491 1_545 S
C2572 H2563 0.950 . S
C2572 C2571 1.398 . S
C2572 C2573 1.391 . S
C2573 H2561 0.950 . S
C2573 C2569 1.393 . S
C2573 C2572 1.391 . S
C2574 H2564 0.950 . S
C2574 C2575 1.386 . S
C2574 C2576 1.391 . S
C2575 C2574 1.386 . S
C2575 C2579 1.393 . S
C2576 H2565 0.950 1_565 S
C2576 C2574 1.391 . S
C2576 C2577 1.400 . S
C2577 C2571 1.491 1_565 S
C2577 C2576 1.400 . S
C2577 C2578 1.398 . S
C2578 H2566 0.950 . S
C2578 C2577 1.398 . S
C2578 C2579 1.391 . S
C2579 H2567 0.950 . S
C2579 C2575 1.393 . S
C2579 C2578 1.391 . S
H2580 C2588 0.950 . S
H2581 C2593 0.950 . S
H2582 C2590 0.939 1_455 S
H2583 C2592 0.950 . S
H2584 C2594 0.950 . S
H2585 C2596 0.940 1_655 S
H2586 C2598 0.950 . S
H2587 C2599 0.950 . S
C2588 H2580 0.950 . S
C2588 C2589 1.386 . S
C2588 C2590 1.398 . S
C2589 C2588 1.386 . S
C2589 C2593 1.393 . S
C2590 H2582 0.939 1_655 S
C2590 C2588 1.398 . S
C2590 C2591 1.405 . S
C2591 C2590 1.405 . S
C2591 C2592 1.398 . S
C2591 C2597 1.491 1_655 S
C2592 H2583 0.950 . S
C2592 C2591 1.398 . S
C2592 C2593 1.391 . S
C2593 H2581 0.950 . S
C2593 C2589 1.393 . S
C2593 C2592 1.391 . S
C2594 H2584 0.950 . S
C2594 C2595 1.386 . S
C2594 C2596 1.397 . S
C2595 C2594 1.386 . S
C2595 C2599 1.393 . S
C2596 H2585 0.940 1_455 S
C2596 C2594 1.397 . S
C2596 C2597 1.404 . S
C2597 C2591 1.491 1_455 S
C2597 C2596 1.404 . S
C2597 C2598 1.398 . S
C2598 H2586 0.950 . S
C2598 C2597 1.398 . S
C2598 C2599 1.391 . S
C2599 H2587 0.950 . S
C2599 C2595 1.393 . S
C2599 C2598 1.391 . S
H2600 C2608 0.950 . S
H2601 C2613 0.950 . S
H2602 C2610 0.950 . S
H2603 C2612 0.950 . S
H2604 C2614 0.950 . S
H2605 C2616 0.950 . S
H2606 C2618 0.950 . S
H2607 C2619 0.950 . S
C2608 H2600 0.950 . S
C2608 C2609 1.386 . S
C2608 C2610 1.391 . S
C2609 C2608 1.386 . S
C2609 C2613 1.393 . S
C2610 H2602 0.950 . S
C2610 C2608 1.391 . S
C2610 C2611 1.400 . S
C2611 C2610 1.400 . S
C2611 C2612 1.398 . S
C2611 C2617 1.491 . S
C2612 H2603 0.950 . S
C2612 C2611 1.398 . S
C2612 C2613 1.391 . S
C2613 H2601 0.950 . S
C2613 C2609 1.393 . S
C2613 C2612 1.391 . S
C2614 H2604 0.950 . S
C2614 C2615 1.386 . S
C2614 C2616 1.391 . S
C2615 C2614 1.386 . S
C2615 C2619 1.393 . S
C2616 H2605 0.950 . S
C2616 C2614 1.391 . S
C2616 C2617 1.400 . S
C2617 C2611 1.491 . S
C2617 C2616 1.400 . S
C2617 C2618 1.398 . S
C2618 H2606 0.950 . S
C2618 C2617 1.398 . S
C2618 C2619 1.391 . S
C2619 H2607 0.950 . S
C2619 C2615 1.393 . S
C2619 C2618 1.391 . S
H2620 C2628 0.950 . S
H2621 C2633 0.950 . S
H2622 C2630 0.950 1_565 S
H2623 C2632 0.950 . S
H2624 C2634 0.950 . S
H2625 C2636 0.950 1_545 S
H2626 C2638 0.950 . S
H2627 C2639 0.950 . S
C2628 H2620 0.950 . S
C2628 C2629 1.386 . S
C2628 C2630 1.391 . S
C2629 C2628 1.386 . S
C2629 C2633 1.393 . S
C2630 H2622 0.950 1_545 S
C2630 C2628 1.391 . S
C2630 C2631 1.400 . S
C2631 C2630 1.400 . S
C2631 C2632 1.398 . S
C2631 C2637 1.491 1_545 S
C2632 H2623 0.950 . S
C2632 C2631 1.398 . S
C2632 C2633 1.391 . S
C2633 H2621 0.950 . S
C2633 C2629 1.393 . S
C2633 C2632 1.391 . S
C2634 H2624 0.950 . S
C2634 C2635 1.386 . S
C2634 C2636 1.391 . S
C2635 C2634 1.386 . S
C2635 C2639 1.393 . S
C2636 H2625 0.950 1_565 S
C2636 C2634 1.391 . S
C2636 C2637 1.400 . S
C2637 C2631 1.491 1_565 S
C2637 C2636 1.400 . S
C2637 C2638 1.398 . S
C2638 H2626 0.950 . S
C2638 C2637 1.398 . S
C2638 C2639 1.391 . S
C2639 H2627 0.950 . S
C2639 C2635 1.393 . S
C2639 C2638 1.391 . S
H2640 C2648 0.950 . S
H2641 C2653 0.950 . S
H2642 C2650 0.950 . S
H2643 C2652 0.950 . S
H2644 C2654 0.950 . S
H2645 C2656 0.950 . S
H2646 C2658 0.950 . S
H2647 C2659 0.950 . S
C2648 H2640 0.950 . S
C2648 C2649 1.386 . S
C2648 C2650 1.391 . S
C2649 C2648 1.386 . S
C2649 C2653 1.393 . S
C2650 H2642 0.950 . S
C2650 C2648 1.391 . S
C2650 C2651 1.400 . S
C2651 C2650 1.400 . S
C2651 C2652 1.398 . S
C2651 C2657 1.491 . S
C2652 H2643 0.950 . S
C2652 C2651 1.398 . S
C2652 C2653 1.391 . S
C2653 H2641 0.950 . S
C2653 C2649 1.393 . S
C2653 C2652 1.391 . S
C2654 H2644 0.950 . S
C2654 C2655 1.386 . S
C2654 C2656 1.391 . S
C2655 C2654 1.386 . S
C2655 C2659 1.393 . S
C2656 H2645 0.950 . S
C2656 C2654 1.391 . S
C2656 C2657 1.400 . S
C2657 C2651 1.491 . S
C2657 C2656 1.400 . S
C2657 C2658 1.398 . S
C2658 H2646 0.950 . S
C2658 C2657 1.398 . S
C2658 C2659 1.391 . S
C2659 H2647 0.950 . S
C2659 C2655 1.393 . S
C2659 C2658 1.391 . S
H2660 C2668 0.950 . S
H2661 C2673 0.950 . S
H2662 C2670 0.950 . S
H2663 C2672 0.950 . S
H2664 C2674 0.950 . S
H2665 C2676 0.950 . S
H2666 C2678 0.950 . S
H2667 C2679 0.950 . S
C2668 H2660 0.950 . S
C2668 C2669 1.386 . S
C2668 C2670 1.391 . S
C2669 C2668 1.386 . S
C2669 C2673 1.393 . S
C2670 H2662 0.950 . S
C2670 C2668 1.391 . S
C2670 C2671 1.400 . S
C2671 C2670 1.400 . S
C2671 C2672 1.398 . S
C2671 C2677 1.491 . S
C2672 H2663 0.950 . S
C2672 C2671 1.398 . S
C2672 C2673 1.391 . S
C2673 H2661 0.950 . S
C2673 C2669 1.393 . S
C2673 C2672 1.391 . S
C2674 H2664 0.950 . S
C2674 C2675 1.386 . S
C2674 C2676 1.391 . S
C2675 C2674 1.386 . S
C2675 C2679 1.393 . S
C2676 H2665 0.950 . S
C2676 C2674 1.391 . S
C2676 C2677 1.400 . S
C2677 C2671 1.491 . S
C2677 C2676 1.400 . S
C2677 C2678 1.398 . S
C2678 H2666 0.950 . S
C2678 C2677 1.398 . S
C2678 C2679 1.391 . S
C2679 H2667 0.950 . S
C2679 C2675 1.393 . S
C2679 C2678 1.391 . S
H2680 C2688 0.950 . S
H2681 C2693 0.950 . S
H2682 C2690 0.950 . S
H2683 C2692 0.950 . S
H2684 C2694 0.950 . S
H2685 C2696 0.950 . S
H2686 C2698 0.950 . S
H2687 C2699 0.950 . S
C2688 H2680 0.950 . S
C2688 C2689 1.386 . S
C2688 C2690 1.391 . S
C2689 C2688 1.386 . S
C2689 C2693 1.393 . S
C2690 H2682 0.950 . S
C2690 C2688 1.391 . S
C2690 C2691 1.400 . S
C2691 C2690 1.400 . S
C2691 C2692 1.398 . S
C2691 C2697 1.491 . S
C2692 H2683 0.950 . S
C2692 C2691 1.398 . S
C2692 C2693 1.391 . S
C2693 H2681 0.950 . S
C2693 C2689 1.393 . S
C2693 C2692 1.391 . S
C2694 H2684 0.950 . S
C2694 C2695 1.386 . S
C2694 C2696 1.391 . S
C2695 C2694 1.386 . S
C2695 C2699 1.393 . S
C2696 H2685 0.950 . S
C2696 C2694 1.391 . S
C2696 C2697 1.400 . S
C2697 C2691 1.491 . S
C2697 C2696 1.400 . S
C2697 C2698 1.398 . S
C2698 H2686 0.950 . S
C2698 C2697 1.398 . S
C2698 C2699 1.391 . S
C2699 H2687 0.950 . S
C2699 C2695 1.393 . S
C2699 C2698 1.391 . S
H2700 C2708 0.950 . S
H2701 C2713 0.950 . S
H2702 C2710 0.950 . S
H2703 C2712 0.950 . S
H2704 C2714 0.950 . S
H2705 C2716 0.950 . S
H2706 C2718 0.950 . S
H2707 C2719 0.950 . S
C2708 H2700 0.950 . S
C2708 C2709 1.386 . S
C2708 C2710 1.391 . S
C2709 C2708 1.386 . S
C2709 C2713 1.393 . S
C2710 H2702 0.950 . S
C2710 C2708 1.391 . S
C2710 C2711 1.400 . S
C2711 C2710 1.400 . S
C2711 C2712 1.398 . S
C2711 C2717 1.491 . S
C2712 H2703 0.950 . S
C2712 C2711 1.398 . S
C2712 C2713 1.391 . S
C2713 H2701 0.950 . S
C2713 C2709 1.393 . S
C2713 C2712 1.391 . S
C2714 H2704 0.950 . S
C2714 C2715 1.386 . S
C2714 C2716 1.391 . S
C2715 C2714 1.386 . S
C2715 C2719 1.393 . S
C2716 H2705 0.950 . S
C2716 C2714 1.391 . S
C2716 C2717 1.400 . S
C2717 C2711 1.491 . S
C2717 C2716 1.400 . S
C2717 C2718 1.398 . S
C2718 H2706 0.950 . S
C2718 C2717 1.398 . S
C2718 C2719 1.391 . S
C2719 H2707 0.950 . S
C2719 C2715 1.393 . S
C2719 C2718 1.391 . S
H2720 C2728 0.950 . S
H2721 C2733 0.950 . S
H2722 C2730 0.950 . S
H2723 C2732 0.950 . S
H2724 C2734 0.950 . S
H2725 C2736 0.950 . S
H2726 C2738 0.950 . S
H2727 C2739 0.950 . S
C2728 H2720 0.950 . S
C2728 C2729 1.386 . S
C2728 C2730 1.391 . S
C2729 C2728 1.386 . S
C2729 C2733 1.393 . S
C2730 H2722 0.950 . S
C2730 C2728 1.391 . S
C2730 C2731 1.400 . S
C2731 C2730 1.400 . S
C2731 C2732 1.398 . S
C2731 C2737 1.491 . S
C2732 H2723 0.950 . S
C2732 C2731 1.398 . S
C2732 C2733 1.391 . S
C2733 H2721 0.950 . S
C2733 C2729 1.393 . S
C2733 C2732 1.391 . S
C2734 H2724 0.950 . S
C2734 C2735 1.386 . S
C2734 C2736 1.391 . S
C2735 C2734 1.386 . S
C2735 C2739 1.393 . S
C2736 H2725 0.950 . S
C2736 C2734 1.391 . S
C2736 C2737 1.400 . S
C2737 C2731 1.491 . S
C2737 C2736 1.400 . S
C2737 C2738 1.398 . S
C2738 H2726 0.950 . S
C2738 C2737 1.398 . S
C2738 C2739 1.391 . S
C2739 H2727 0.950 . S
C2739 C2735 1.393 . S
C2739 C2738 1.391 . S
H2740 C2748 0.950 . S
H2741 C2753 0.950 . S
H2742 C2750 0.950 . S
H2743 C2752 0.950 . S
H2744 C2754 0.950 . S
H2745 C2756 0.950 . S
H2746 C2758 0.950 . S
H2747 C2759 0.950 . S
C2748 H2740 0.950 . S
C2748 C2749 1.386 . S
C2748 C2750 1.391 . S
C2749 C2748 1.386 . S
C2749 C2753 1.393 . S
C2750 H2742 0.950 . S
C2750 C2748 1.391 . S
C2750 C2751 1.400 . S
C2751 C2750 1.400 . S
C2751 C2752 1.398 . S
C2751 C2757 1.491 . S
C2752 H2743 0.950 . S
C2752 C2751 1.398 . S
C2752 C2753 1.391 . S
C2753 H2741 0.950 . S
C2753 C2749 1.393 . S
C2753 C2752 1.391 . S
C2754 H2744 0.950 . S
C2754 C2755 1.386 . S
C2754 C2756 1.391 . S
C2755 C2754 1.386 . S
C2755 C2759 1.393 . S
C2756 H2745 0.950 . S
C2756 C2754 1.391 . S
C2756 C2757 1.400 . S
C2757 C2751 1.491 . S
C2757 C2756 1.400 . S
C2757 C2758 1.398 . S
C2758 H2746 0.950 . S
C2758 C2757 1.398 . S
C2758 C2759 1.391 . S
C2759 H2747 0.950 . S
C2759 C2755 1.393 . S
C2759 C2758 1.391 . S
H2760 C2768 0.950 . S
H2761 C2773 0.950 . S
H2762 C2770 0.950 . S
H2763 C2772 0.950 . S
H2764 C2774 0.950 . S
H2765 C2776 0.950 . S
H2766 C2778 0.950 . S
H2767 C2779 0.950 . S
C2768 H2760 0.950 . S
C2768 C2769 1.386 . S
C2768 C2770 1.391 . S
C2769 C2768 1.386 . S
C2769 C2773 1.393 . S
C2770 H2762 0.950 . S
C2770 C2768 1.391 . S
C2770 C2771 1.400 . S
C2771 C2770 1.400 . S
C2771 C2772 1.398 . S
C2771 C2777 1.491 . S
C2772 H2763 0.950 . S
C2772 C2771 1.398 . S
C2772 C2773 1.391 . S
C2773 H2761 0.950 . S
C2773 C2769 1.393 . S
C2773 C2772 1.391 . S
C2774 H2764 0.950 . S
C2774 C2775 1.386 . S
C2774 C2776 1.391 . S
C2775 C2774 1.386 . S
C2775 C2779 1.393 . S
C2776 H2765 0.950 . S
C2776 C2774 1.391 . S
C2776 C2777 1.400 . S
C2777 C2771 1.491 . S
C2777 C2776 1.400 . S
C2777 C2778 1.398 . S
C2778 H2766 0.950 . S
C2778 C2777 1.398 . S
C2778 C2779 1.391 . S
C2779 H2767 0.950 . S
C2779 C2775 1.393 . S
C2779 C2778 1.391 . S
H2780 C2788 0.950 . S
H2781 C2793 0.950 . S
H2782 C2790 0.950 . S
H2783 C2792 0.950 . S
H2784 C2794 0.950 . S
H2785 C2796 0.950 . S
H2786 C2798 0.950 . S
H2787 C2799 0.950 . S
C2788 H2780 0.950 . S
C2788 C2789 1.386 . S
C2788 C2790 1.391 . S
C2789 C2788 1.386 . S
C2789 C2793 1.393 . S
C2790 H2782 0.950 . S
C2790 C2788 1.391 . S
C2790 C2791 1.400 . S
C2791 C2790 1.400 . S
C2791 C2792 1.398 . S
C2791 C2797 1.491 . S
C2792 H2783 0.950 . S
C2792 C2791 1.398 . S
C2792 C2793 1.391 . S
C2793 H2781 0.950 . S
C2793 C2789 1.393 . S
C2793 C2792 1.391 . S
C2794 H2784 0.950 . S
C2794 C2795 1.386 . S
C2794 C2796 1.391 . S
C2795 C2794 1.386 . S
C2795 C2799 1.393 . S
C2796 H2785 0.950 . S
C2796 C2794 1.391 . S
C2796 C2797 1.400 . S
C2797 C2791 1.491 . S
C2797 C2796 1.400 . S
C2797 C2798 1.398 . S
C2798 H2786 0.950 . S
C2798 C2797 1.398 . S
C2798 C2799 1.391 . S
C2799 H2787 0.950 . S
C2799 C2795 1.393 . S
C2799 C2798 1.391 . S
H2800 C2808 0.950 . S
H2801 C2813 0.950 . S
H2802 C2810 0.950 . S
H2803 C2812 0.950 . S
H2804 C2814 0.950 . S
H2805 C2816 0.950 . S
H2806 C2818 0.950 . S
H2807 C2819 0.950 . S
C2808 H2800 0.950 . S
C2808 C2809 1.386 . S
C2808 C2810 1.391 . S
C2809 C2808 1.386 . S
C2809 C2813 1.393 . S
C2810 H2802 0.950 . S
C2810 C2808 1.391 . S
C2810 C2811 1.400 . S
C2811 C2810 1.400 . S
C2811 C2812 1.398 . S
C2811 C2817 1.491 . S
C2812 H2803 0.950 . S
C2812 C2811 1.398 . S
C2812 C2813 1.391 . S
C2813 H2801 0.950 . S
C2813 C2809 1.393 . S
C2813 C2812 1.391 . S
C2814 H2804 0.950 . S
C2814 C2815 1.386 . S
C2814 C2816 1.391 . S
C2815 C2814 1.386 . S
C2815 C2819 1.393 . S
C2816 H2805 0.950 . S
C2816 C2814 1.391 . S
C2816 C2817 1.400 . S
C2817 C2811 1.491 . S
C2817 C2816 1.400 . S
C2817 C2818 1.398 . S
C2818 H2806 0.950 . S
C2818 C2817 1.398 . S
C2818 C2819 1.391 . S
C2819 H2807 0.950 . S
C2819 C2815 1.393 . S
C2819 C2818 1.391 . S
H2820 C2828 0.950 . S
H2821 C2833 0.950 . S
H2822 C2830 0.950 . S
H2823 C2832 0.950 . S
H2824 C2834 0.950 . S
H2825 C2836 0.950 . S
H2826 C2838 0.950 . S
H2827 C2839 0.950 . S
C2828 H2820 0.950 . S
C2828 C2829 1.386 . S
C2828 C2830 1.391 . S
C2829 C2828 1.386 . S
C2829 C2833 1.393 . S
C2830 H2822 0.950 . S
C2830 C2828 1.391 . S
C2830 C2831 1.400 . S
C2831 C2830 1.400 . S
C2831 C2832 1.398 . S
C2831 C2837 1.491 . S
C2832 H2823 0.950 . S
C2832 C2831 1.398 . S
C2832 C2833 1.391 . S
C2833 H2821 0.950 . S
C2833 C2829 1.393 . S
C2833 C2832 1.391 . S
C2834 H2824 0.950 . S
C2834 C2835 1.386 . S
C2834 C2836 1.391 . S
C2835 C2834 1.386 . S
C2835 C2839 1.393 . S
C2836 H2825 0.950 . S
C2836 C2834 1.391 . S
C2836 C2837 1.400 . S
C2837 C2831 1.491 . S
C2837 C2836 1.400 . S
C2837 C2838 1.398 . S
C2838 H2826 0.950 . S
C2838 C2837 1.398 . S
C2838 C2839 1.391 . S
C2839 H2827 0.950 . S
C2839 C2835 1.393 . S
C2839 C2838 1.391 . S
H2840 C2848 0.950 . S
H2841 C2853 0.950 . S
H2842 C2850 0.950 . S
H2843 C2852 0.950 . S
H2844 C2854 0.950 . S
H2845 C2856 0.950 . S
H2846 C2858 0.950 . S
H2847 C2859 0.950 . S
C2848 H2840 0.950 . S
C2848 C2849 1.386 . S
C2848 C2850 1.391 . S
C2849 C2848 1.386 . S
C2849 C2853 1.393 . S
C2850 H2842 0.950 . S
C2850 C2848 1.391 . S
C2850 C2851 1.400 . S
C2851 C2850 1.400 . S
C2851 C2852 1.398 . S
C2851 C2857 1.491 . S
C2852 H2843 0.950 . S
C2852 C2851 1.398 . S
C2852 C2853 1.391 . S
C2853 H2841 0.950 . S
C2853 C2849 1.393 . S
C2853 C2852 1.391 . S
C2854 H2844 0.950 . S
C2854 C2855 1.386 . S
C2854 C2856 1.391 . S
C2855 C2854 1.386 . S
C2855 C2859 1.393 . S
C2856 H2845 0.950 . S
C2856 C2854 1.391 . S
C2856 C2857 1.400 . S
C2857 C2851 1.491 . S
C2857 C2856 1.400 . S
C2857 C2858 1.398 . S
C2858 H2846 0.950 . S
C2858 C2857 1.398 . S
C2858 C2859 1.391 . S
C2859 H2847 0.950 . S
C2859 C2855 1.393 . S
C2859 C2858 1.391 . S
H2860 C2868 0.950 . S
H2861 C2873 0.950 . S
H2862 C2870 0.950 . S
H2863 C2872 0.950 . S
H2864 C2874 0.950 . S
H2865 C2876 0.950 . S
H2866 C2878 0.950 . S
H2867 C2879 0.950 . S
C2868 H2860 0.950 . S
C2868 C2869 1.386 . S
C2868 C2870 1.391 . S
C2869 C2868 1.386 . S
C2869 C2873 1.393 . S
C2870 H2862 0.950 . S
C2870 C2868 1.391 . S
C2870 C2871 1.400 . S
C2871 C2870 1.400 . S
C2871 C2872 1.398 . S
C2871 C2877 1.491 . S
C2872 H2863 0.950 . S
C2872 C2871 1.398 . S
C2872 C2873 1.391 . S
C2873 H2861 0.950 . S
C2873 C2869 1.393 . S
C2873 C2872 1.391 . S
C2874 H2864 0.950 . S
C2874 C2875 1.386 . S
C2874 C2876 1.391 . S
C2875 C2874 1.386 . S
C2875 C2879 1.393 . S
C2876 H2865 0.950 . S
C2876 C2874 1.391 . S
C2876 C2877 1.400 . S
C2877 C2871 1.491 . S
C2877 C2876 1.400 . S
C2877 C2878 1.398 . S
C2878 H2866 0.950 . S
C2878 C2877 1.398 . S
C2878 C2879 1.391 . S
C2879 H2867 0.950 . S
C2879 C2875 1.393 . S
C2879 C2878 1.391 . S
C729 C18 1.399 . S
C735 C42 1.325 1_545 S
C749 C2 1.335 1_655 S
C755 C38 1.397 . S
C769 C58 1.405 . S
C775 C22 1.351 . S
C789 C78 1.443 . S
C795 C82 1.390 1_455 S
C809 C102 1.363 . S
C815 C98 1.437 . S
C829 C118 1.437 . S
C835 C62 1.361 1_565 S
C849 C139 1.402 . S
C855 C164 1.353 1_565 S
C869 C159 1.397 . S
C875 C124 1.333 1_455 S
C889 C179 1.405 . S
C895 C144 1.354 . S
C909 C199 1.440 . S
C915 C204 1.362 1_655 S
C929 C224 1.389 . S
C935 C219 1.442 . S
C949 C184 1.387 1_545 S
C955 C239 1.445 . S
C969 C282 1.375 . S
C975 C258 1.434 . S
C989 C278 1.432 . S
C995 C242 1.361 . S
C1009 C262 1.361 . S
C1015 C298 1.436 . S
C1029 C318 1.450 . S
C1035 C322 1.372 . S
C1049 C342 1.378 . S
C1055 C338 1.453 . S
C1069 C302 1.402 . S
C1075 C358 1.456 . S
C1089 C379 1.422 . S
C1095 C404 1.353 . S
C1109 C399 1.429 . S
C1115 C364 1.367 . S
C1129 C384 1.373 . S
C1135 C419 1.430 . S
C1149 C444 1.293 . S
C1155 C439 1.376 . S
C1169 C459 1.382 . S
C1175 C464 1.327 . S
C1189 C424 1.327 . S
C1195 C479 1.382 . S
C1209 C498 1.426 . S
C1215 C522 1.377 . S
C1229 C518 1.422 . S
C1235 C482 1.354 . S
C1249 C538 1.422 . S
C1255 C502 1.355 . S
C1269 C558 1.383 . S
C1275 C562 1.316 . S
C1289 C578 1.377 . S
C1295 C582 1.320 . S
C1309 C598 1.383 . S
C1315 C542 1.326 . S
C1329 C619 1.436 . S
C1335 C644 1.383 . S
C1349 C639 1.438 . S
C1355 C604 1.388 . S
C1369 C624 1.385 . S
C1375 C659 1.441 . S
C1389 C679 1.456 . S
C1395 C684 1.387 . S
C1409 C699 1.449 . S
C1415 C704 1.378 . S
C1429 C664 1.396 . S
C1435 C719 1.453 . S
C1449 C4 1.270 . S
C1455 C418 1.357 . S
C1469 C378 1.377 . S
C1475 C24 1.259 . S
C1489 C44 1.286 . S
C1495 C398 1.374 . S
C1509 C64 1.238 . S
C1515 C698 1.297 . S
C1529 C718 1.322 . S
C1535 C84 1.225 . S
C1549 C104 1.224 . S
C1555 C678 1.305 . S
C1569 C539 1.378 . S
C1575 C122 1.270 . S
C1589 C142 1.300 . S
C1595 C499 1.360 . S
C1609 C162 1.272 . S
C1615 C519 1.378 . S
C1629 C339 1.321 . S
C1635 C182 1.226 . S
C1649 C359 1.319 . S
C1655 C202 1.238 . S
C1669 C319 1.313 . S
C1675 C222 1.250 . S
C1689 C244 1.248 . S
C1695 C658 1.330 . S
C1709 C264 1.265 . S
C1715 C618 1.324 . S
C1729 C638 1.343 . S
C1735 C284 1.236 . S
C1749 C218 1.317 . S
C1755 C304 1.276 1_455 S
C1769 C238 1.327 . S
C1775 C324 1.239 . S
C1789 C198 1.337 . S
C1795 C344 1.235 1_565 S
C1809 C59 1.363 . S
C1815 C362 1.258 1_565 S
C1829 C382 1.293 1_455 S
C1835 C19 1.367 . S
C1849 C402 1.288 . S
C1855 C39 1.351 . S
C1869 C579 1.362 . S
C1875 C422 1.301 . S
C1889 C599 1.359 . S
C1895 C442 1.309 . S
C1909 C462 1.317 . S
C1915 C559 1.351 . S
C1929 C178 1.355 . S
C1935 C484 1.298 1_545 S
C1949 C138 1.375 . S
C1955 C504 1.277 1_655 S
C1969 C158 1.354 . S
C1975 C524 1.273 . S
C1989 C544 1.289 . S
C1995 C458 1.363 . S
C2009 C478 1.359 . S
C2015 C564 1.288 . S
C2029 C584 1.296 . S
C2035 C438 1.343 . S
C2049 C602 1.277 . S
C2055 C299 1.336 . S
C2069 C622 1.242 . S
C2075 C259 1.349 . S
C2089 C642 1.239 . S
C2095 C279 1.338 . S
C2109 C662 1.277 1_655 S
C2115 C99 1.321 . S
C2129 C119 1.315 . S
C2135 C682 1.269 . S
C2149 C79 1.335 . S
C2155 C702 1.234 1_545 S
C2169 C592 1.874 . S
C2175 C12 1.856 . S
C2189 C552 1.875 . S
C2195 C32 1.858 . S
C2209 C52 1.867 . S
C2215 C572 1.863 . S
C2229 C272 2.047 . S
C2235 C72 2.049 . S
C2249 C92 2.038 . S
C2255 C292 2.036 . S
C2269 C112 2.047 . S
C2275 C252 2.045 . S
C2289 C129 1.862 . S
C2295 C469 1.860 . S
C2309 C149 1.876 . S
C2315 C429 1.872 . S
C2329 C169 1.877 . S
C2335 C449 1.872 . S
C2349 C629 2.042 . S
C2355 C189 2.044 . S
C2369 C649 2.036 . S
C2375 C209 2.038 . S
C2389 C609 2.049 . S
C2395 C229 2.051 . S
C2409 C312 2.101 . S
C2415 C512 2.098 . S
C2429 C332 2.096 . S
C2435 C532 2.093 . S
C2449 C352 2.091 . S
C2455 C492 2.088 . S
C2469 C369 2.087 . S
C2475 C709 2.091 . S
C2489 C669 2.088 . S
C2495 C389 2.085 . S
C2509 C409 2.086 . S
C2515 C689 2.089 . S
C2529 C89 1.335 . S
C2535 C9 1.333 . S
C2549 C109 1.346 . S
C2555 C29 1.349 . S
C2569 C69 1.359 . S
C2575 C49 1.362 . S
C2589 C132 1.359 . S
C2595 C212 1.355 . S
C2609 C232 1.369 . S
C2615 C152 1.366 . S
C2629 C172 1.367 . S
C2635 C192 1.365 . S
C2649 C329 1.424 . S
C2655 C249 1.426 . S
C2669 C349 1.415 . S
C2675 C269 1.418 . S
C2689 C309 1.415 . S
C2695 C289 1.418 . S
C2709 C452 1.582 . S
C2715 C372 1.585 . S
C2729 C392 1.560 . S
C2735 C472 1.582 . S
C2749 C412 1.547 . S
C2755 C432 1.565 . S
C2769 C489 1.574 . S
C2775 C569 1.589 . S
C2789 C589 1.572 . S
C2795 C509 1.577 . S
C2809 C529 1.550 . S
C2815 C549 1.566 . S
C2829 C612 1.394 . S
C2835 C692 1.395 . S
C2849 C712 1.404 . S
C2855 C632 1.407 . S
C2869 C652 1.407 . S
C2875 C672 1.404 . S
