# Generated by pormake.
# Topology wio, (6)-cn, num edge types: 1
# Building blocks:
#     Node 0, Type 0, BuildingBlock: CUKXOW_clean_sbu_0, # of connection points: 6
#     Node 1, Type 0, BuildingBlock: CUKXOW_clean_sbu_0, # of connection points: 6
#     Node 2, Type 0, BuildingBlock: CUKXOW_clean_sbu_0, # of connection points: 6
#     Node 3, Type 0, BuildingBlock: CUKXOW_clean_sbu_0, # of connection points: 6
#     Node 4, Type 0, BuildingBlock: CUKXOW_clean_sbu_0, # of connection points: 6
#     Node 5, Type 0, BuildingBlock: CUKXOW_clean_sbu_0, # of connection points: 6
#     Node 6, Type 0, BuildingBlock: CUKXOW_clean_sbu_0, # of connection points: 6
#     Node 7, Type 0, BuildingBlock: CUKXOW_clean_sbu_0, # of connection points: 6
#     Node 8, Type 0, BuildingBlock: CUKXOW_clean_sbu_0, # of connection points: 6
#     Node 9, Type 0, BuildingBlock: CUKXOW_clean_sbu_0, # of connection points: 6
#     Node 10, Type 0, BuildingBlock: CUKXOW_clean_sbu_0, # of connection points: 6
#     Node 11, Type 0, BuildingBlock: CUKXOW_clean_sbu_0, # of connection points: 6
#     Node 12, Type 0, BuildingBlock: CUKXOW_clean_sbu_0, # of connection points: 6
#     Node 13, Type 0, BuildingBlock: CUKXOW_clean_sbu_0, # of connection points: 6
#     Node 14, Type 0, BuildingBlock: CUKXOW_clean_sbu_0, # of connection points: 6
#     Node 15, Type 0, BuildingBlock: CUKXOW_clean_sbu_0, # of connection points: 6
#     Node 16, Type 0, BuildingBlock: CUKXOW_clean_sbu_0, # of connection points: 6
#     Node 17, Type 0, BuildingBlock: CUKXOW_clean_sbu_0, # of connection points: 6
#     Node 18, Type 0, BuildingBlock: CUKXOW_clean_sbu_0, # of connection points: 6
#     Node 19, Type 0, BuildingBlock: CUKXOW_clean_sbu_0, # of connection points: 6
#     Node 20, Type 0, BuildingBlock: CUKXOW_clean_sbu_0, # of connection points: 6
#     Node 21, Type 0, BuildingBlock: CUKXOW_clean_sbu_0, # of connection points: 6
#     Node 22, Type 0, BuildingBlock: CUKXOW_clean_sbu_0, # of connection points: 6
#     Node 23, Type 0, BuildingBlock: CUKXOW_clean_sbu_0, # of connection points: 6
#     Node 24, Type 0, BuildingBlock: CUKXOW_clean_sbu_0, # of connection points: 6
#     Node 25, Type 0, BuildingBlock: CUKXOW_clean_sbu_0, # of connection points: 6
#     Node 26, Type 0, BuildingBlock: CUKXOW_clean_sbu_0, # of connection points: 6
#     Node 27, Type 0, BuildingBlock: CUKXOW_clean_sbu_0, # of connection points: 6
#     Node 28, Type 0, BuildingBlock: CUKXOW_clean_sbu_0, # of connection points: 6
#     Node 29, Type 0, BuildingBlock: CUKXOW_clean_sbu_0, # of connection points: 6
#     Node 30, Type 0, BuildingBlock: CUKXOW_clean_sbu_0, # of connection points: 6
#     Node 31, Type 0, BuildingBlock: CUKXOW_clean_sbu_0, # of connection points: 6
#     Edge 32, Type (0, 0), BuildingBlock: OJICUG_clean_linker_0, # of connection points: 2
#     Edge 33, Type (0, 0), BuildingBlock: OJICUG_clean_linker_0, # of connection points: 2
#     Edge 34, Type (0, 0), BuildingBlock: OJICUG_clean_linker_0, # of connection points: 2
#     Edge 35, Type (0, 0), BuildingBlock: OJICUG_clean_linker_0, # of connection points: 2
#     Edge 36, Type (0, 0), BuildingBlock: OJICUG_clean_linker_0, # of connection points: 2
#     Edge 37, Type (0, 0), BuildingBlock: OJICUG_clean_linker_0, # of connection points: 2
#     Edge 38, Type (0, 0), BuildingBlock: OJICUG_clean_linker_0, # of connection points: 2
#     Edge 39, Type (0, 0), BuildingBlock: OJICUG_clean_linker_0, # of connection points: 2
#     Edge 40, Type (0, 0), BuildingBlock: OJICUG_clean_linker_0, # of connection points: 2
#     Edge 41, Type (0, 0), BuildingBlock: OJICUG_clean_linker_0, # of connection points: 2
#     Edge 42, Type (0, 0), BuildingBlock: OJICUG_clean_linker_0, # of connection points: 2
#     Edge 43, Type (0, 0), BuildingBlock: OJICUG_clean_linker_0, # of connection points: 2
#     Edge 44, Type (0, 0), BuildingBlock: OJICUG_clean_linker_0, # of connection points: 2
#     Edge 45, Type (0, 0), BuildingBlock: OJICUG_clean_linker_0, # of connection points: 2
#     Edge 46, Type (0, 0), BuildingBlock: OJICUG_clean_linker_0, # of connection points: 2
#     Edge 47, Type (0, 0), BuildingBlock: OJICUG_clean_linker_0, # of connection points: 2
#     Edge 48, Type (0, 0), BuildingBlock: OJICUG_clean_linker_0, # of connection points: 2
#     Edge 49, Type (0, 0), BuildingBlock: OJICUG_clean_linker_0, # of connection points: 2
#     Edge 50, Type (0, 0), BuildingBlock: OJICUG_clean_linker_0, # of connection points: 2
#     Edge 51, Type (0, 0), BuildingBlock: OJICUG_clean_linker_0, # of connection points: 2
#     Edge 52, Type (0, 0), BuildingBlock: OJICUG_clean_linker_0, # of connection points: 2
#     Edge 53, Type (0, 0), BuildingBlock: OJICUG_clean_linker_0, # of connection points: 2
#     Edge 54, Type (0, 0), BuildingBlock: OJICUG_clean_linker_0, # of connection points: 2
#     Edge 55, Type (0, 0), BuildingBlock: OJICUG_clean_linker_0, # of connection points: 2
#     Edge 56, Type (0, 0), BuildingBlock: OJICUG_clean_linker_0, # of connection points: 2
#     Edge 57, Type (0, 0), BuildingBlock: OJICUG_clean_linker_0, # of connection points: 2
#     Edge 58, Type (0, 0), BuildingBlock: OJICUG_clean_linker_0, # of connection points: 2
#     Edge 59, Type (0, 0), BuildingBlock: OJICUG_clean_linker_0, # of connection points: 2
#     Edge 60, Type (0, 0), BuildingBlock: OJICUG_clean_linker_0, # of connection points: 2
#     Edge 61, Type (0, 0), BuildingBlock: OJICUG_clean_linker_0, # of connection points: 2
#     Edge 62, Type (0, 0), BuildingBlock: OJICUG_clean_linker_0, # of connection points: 2
#     Edge 63, Type (0, 0), BuildingBlock: OJICUG_clean_linker_0, # of connection points: 2
#     Edge 64, Type (0, 0), BuildingBlock: OJICUG_clean_linker_0, # of connection points: 2
#     Edge 65, Type (0, 0), BuildingBlock: OJICUG_clean_linker_0, # of connection points: 2
#     Edge 66, Type (0, 0), BuildingBlock: OJICUG_clean_linker_0, # of connection points: 2
#     Edge 67, Type (0, 0), BuildingBlock: OJICUG_clean_linker_0, # of connection points: 2
#     Edge 68, Type (0, 0), BuildingBlock: OJICUG_clean_linker_0, # of connection points: 2
#     Edge 69, Type (0, 0), BuildingBlock: OJICUG_clean_linker_0, # of connection points: 2
#     Edge 70, Type (0, 0), BuildingBlock: OJICUG_clean_linker_0, # of connection points: 2
#     Edge 71, Type (0, 0), BuildingBlock: OJICUG_clean_linker_0, # of connection points: 2
#     Edge 72, Type (0, 0), BuildingBlock: OJICUG_clean_linker_0, # of connection points: 2
#     Edge 73, Type (0, 0), BuildingBlock: OJICUG_clean_linker_0, # of connection points: 2
#     Edge 74, Type (0, 0), BuildingBlock: OJICUG_clean_linker_0, # of connection points: 2
#     Edge 75, Type (0, 0), BuildingBlock: OJICUG_clean_linker_0, # of connection points: 2
#     Edge 76, Type (0, 0), BuildingBlock: OJICUG_clean_linker_0, # of connection points: 2
#     Edge 77, Type (0, 0), BuildingBlock: OJICUG_clean_linker_0, # of connection points: 2
#     Edge 78, Type (0, 0), BuildingBlock: OJICUG_clean_linker_0, # of connection points: 2
#     Edge 79, Type (0, 0), BuildingBlock: OJICUG_clean_linker_0, # of connection points: 2
#     Edge 80, Type (0, 0), BuildingBlock: OJICUG_clean_linker_0, # of connection points: 2
#     Edge 81, Type (0, 0), BuildingBlock: OJICUG_clean_linker_0, # of connection points: 2
#     Edge 82, Type (0, 0), BuildingBlock: OJICUG_clean_linker_0, # of connection points: 2
#     Edge 83, Type (0, 0), BuildingBlock: OJICUG_clean_linker_0, # of connection points: 2
#     Edge 84, Type (0, 0), BuildingBlock: OJICUG_clean_linker_0, # of connection points: 2
#     Edge 85, Type (0, 0), BuildingBlock: OJICUG_clean_linker_0, # of connection points: 2
#     Edge 86, Type (0, 0), BuildingBlock: OJICUG_clean_linker_0, # of connection points: 2
#     Edge 87, Type (0, 0), BuildingBlock: OJICUG_clean_linker_0, # of connection points: 2
#     Edge 88, Type (0, 0), BuildingBlock: OJICUG_clean_linker_0, # of connection points: 2
#     Edge 89, Type (0, 0), BuildingBlock: OJICUG_clean_linker_0, # of connection points: 2
#     Edge 90, Type (0, 0), BuildingBlock: OJICUG_clean_linker_0, # of connection points: 2
#     Edge 91, Type (0, 0), BuildingBlock: OJICUG_clean_linker_0, # of connection points: 2
#     Edge 92, Type (0, 0), BuildingBlock: OJICUG_clean_linker_0, # of connection points: 2
#     Edge 93, Type (0, 0), BuildingBlock: OJICUG_clean_linker_0, # of connection points: 2
#     Edge 94, Type (0, 0), BuildingBlock: OJICUG_clean_linker_0, # of connection points: 2
#     Edge 95, Type (0, 0), BuildingBlock: OJICUG_clean_linker_0, # of connection points: 2
#     Edge 96, Type (0, 0), BuildingBlock: OJICUG_clean_linker_0, # of connection points: 2
#     Edge 97, Type (0, 0), BuildingBlock: OJICUG_clean_linker_0, # of connection points: 2
#     Edge 98, Type (0, 0), BuildingBlock: OJICUG_clean_linker_0, # of connection points: 2
#     Edge 99, Type (0, 0), BuildingBlock: OJICUG_clean_linker_0, # of connection points: 2
#     Edge 100, Type (0, 0), BuildingBlock: OJICUG_clean_linker_0, # of connection points: 2
#     Edge 101, Type (0, 0), BuildingBlock: OJICUG_clean_linker_0, # of connection points: 2
#     Edge 102, Type (0, 0), BuildingBlock: OJICUG_clean_linker_0, # of connection points: 2
#     Edge 103, Type (0, 0), BuildingBlock: OJICUG_clean_linker_0, # of connection points: 2
#     Edge 104, Type (0, 0), BuildingBlock: OJICUG_clean_linker_0, # of connection points: 2
#     Edge 105, Type (0, 0), BuildingBlock: OJICUG_clean_linker_0, # of connection points: 2
#     Edge 106, Type (0, 0), BuildingBlock: OJICUG_clean_linker_0, # of connection points: 2
#     Edge 107, Type (0, 0), BuildingBlock: OJICUG_clean_linker_0, # of connection points: 2
#     Edge 108, Type (0, 0), BuildingBlock: OJICUG_clean_linker_0, # of connection points: 2
#     Edge 109, Type (0, 0), BuildingBlock: OJICUG_clean_linker_0, # of connection points: 2
#     Edge 110, Type (0, 0), BuildingBlock: OJICUG_clean_linker_0, # of connection points: 2
#     Edge 111, Type (0, 0), BuildingBlock: OJICUG_clean_linker_0, # of connection points: 2
#     Edge 112, Type (0, 0), BuildingBlock: OJICUG_clean_linker_0, # of connection points: 2
#     Edge 113, Type (0, 0), BuildingBlock: OJICUG_clean_linker_0, # of connection points: 2
#     Edge 114, Type (0, 0), BuildingBlock: OJICUG_clean_linker_0, # of connection points: 2
#     Edge 115, Type (0, 0), BuildingBlock: OJICUG_clean_linker_0, # of connection points: 2
#     Edge 116, Type (0, 0), BuildingBlock: OJICUG_clean_linker_0, # of connection points: 2
#     Edge 117, Type (0, 0), BuildingBlock: OJICUG_clean_linker_0, # of connection points: 2
#     Edge 118, Type (0, 0), BuildingBlock: OJICUG_clean_linker_0, # of connection points: 2
#     Edge 119, Type (0, 0), BuildingBlock: OJICUG_clean_linker_0, # of connection points: 2
#     Edge 120, Type (0, 0), BuildingBlock: OJICUG_clean_linker_0, # of connection points: 2
#     Edge 121, Type (0, 0), BuildingBlock: OJICUG_clean_linker_0, # of connection points: 2
#     Edge 122, Type (0, 0), BuildingBlock: OJICUG_clean_linker_0, # of connection points: 2
#     Edge 123, Type (0, 0), BuildingBlock: OJICUG_clean_linker_0, # of connection points: 2
#     Edge 124, Type (0, 0), BuildingBlock: OJICUG_clean_linker_0, # of connection points: 2
#     Edge 125, Type (0, 0), BuildingBlock: OJICUG_clean_linker_0, # of connection points: 2
#     Edge 126, Type (0, 0), BuildingBlock: OJICUG_clean_linker_0, # of connection points: 2
#     Edge 127, Type (0, 0), BuildingBlock: OJICUG_clean_linker_0, # of connection points: 2
# Relax obj value: 0.131
# Max RMSD: 0.172
# Mean RMSD: 0.172
data_MOF--net-wio--node1-CUKXOW_clean_sbu_0--edge1-OJICUG_clean_linker_0
_symmetry_space_group_name_H-M    P1
_symmetry_Int_Tables_number       1
_symmetry_cell_setting            triclinic
loop_
_symmetry_equiv_pos_as_xyz
'x, y, z'
_cell_length_a     34.776853
_cell_length_b     34.686704
_cell_length_c     35.605559
_cell_angle_alpha  90.020945
_cell_angle_beta   90.120881
_cell_angle_gamma 90.057521
loop_
_atom_site_label
_atom_site_type_symbol
_atom_site_fract_x
_atom_site_fract_y
_atom_site_fract_z
_atom_type_partial_charge
Tb0 Tb 0.119 0.14903 0.31299 0.0
C1 C 0.14064 0.20086 0.38243 0.0
Tb2 Tb 0.14652 0.10755 0.38978 0.0
O3 O 0.05802 0.15475 0.32954 0.0
O4 O 0.09841 0.13292 0.36517 0.0
O5 O 0.13396 0.20031 0.34527 0.0
C6 C 0.14553 0.06954 0.45606 0.0
O7 O 0.14511 0.16926 0.40397 0.0
C8 C 0.19508 0.10369 0.33139 0.0
C9 C 0.1081 0.0617 0.32725 0.0
O10 O 0.17321 0.09229 0.44465 0.0
O11 O 0.11868 0.06973 0.43077 0.0
O12 O 0.19476 0.07972 0.35948 0.0
O13 O 0.17142 0.13018 0.33903 0.0
O14 O 0.10938 0.06591 0.36386 0.0
O15 O 0.12209 0.08783 0.30416 0.0
C16 C 0.10334 0.15142 0.2393 0.0
O17 O 0.08651 0.13054 0.26434 0.0
O18 O 0.12925 0.17318 0.25592 0.0
C19 C 0.06302 0.13837 0.36199 0.0
Tb20 Tb 0.098 0.88805 0.56464 0.0
C21 C 0.04756 0.90742 0.63459 0.0
Tb22 Tb 0.14123 0.91461 0.64174 0.0
O23 O 0.09427 0.82656 0.58124 0.0
O24 O 0.11571 0.86716 0.6165 0.0
O25 O 0.04738 0.90227 0.59722 0.0
C26 C 0.17959 0.91103 0.70779 0.0
O27 O 0.07945 0.91199 0.65586 0.0
C28 C 0.14302 0.96441 0.58448 0.0
C29 C 0.18432 0.87692 0.57614 0.0
O30 O 0.15895 0.94034 0.69634 0.0
O31 O 0.17709 0.88406 0.68268 0.0
O32 O 0.16756 0.96418 0.61214 0.0
O33 O 0.11731 0.93983 0.592 0.0
O34 O 0.1825 0.8792 0.613 0.0
O35 O 0.15836 0.89258 0.55411 0.0
C36 C 0.09354 0.87115 0.49114 0.0
O37 O 0.10567 0.84882 0.51764 0.0
O38 O 0.08088 0.9032 0.50635 0.0
C39 C 0.11069 0.83163 0.61362 0.0
Tb40 Tb 0.35912 0.8512 0.81581 0.0
C41 C 0.33414 0.8026 0.88573 0.0
Tb42 Tb 0.33771 0.896 0.8905 0.0
O43 O 0.42105 0.85865 0.82543 0.0
O44 O 0.38292 0.86126 0.86973 0.0
O45 O 0.3394 0.80217 0.84847 0.0
C46 C 0.33768 0.9332 0.95735 0.0
O47 O 0.33282 0.83491 0.90662 0.0
C48 C 0.28874 0.90246 0.83284 0.0
C49 C 0.383 0.93615 0.82762 0.0
O50 O 0.30849 0.91449 0.94296 0.0
O51 O 0.36664 0.92928 0.93476 0.0
O52 O 0.29347 0.92833 0.85877 0.0
O53 O 0.30871 0.87355 0.84184 0.0
O54 O 0.37746 0.93497 0.86412 0.0
O55 O 0.36717 0.91135 0.80434 0.0
C56 C 0.36348 0.83908 0.74145 0.0
O57 O 0.33835 0.8604 0.75867 0.0
O58 O 0.38333 0.82058 0.76688 0.0
C59 C 0.41762 0.86617 0.86092 0.0
Tb60 Tb 0.39046 0.11335 0.06558 0.0
C61 C 0.43491 0.09036 0.13856 0.0
Tb62 Tb 0.34131 0.09419 0.13844 0.0
O63 O 0.38231 0.17576 0.07331 0.0
O64 O 0.37749 0.13849 0.11823 0.0
O65 O 0.43735 0.09425 0.10121 0.0
C66 C 0.30074 0.09714 0.20334 0.0
O67 O 0.4016 0.09038 0.15782 0.0
C68 C 0.33853 0.04294 0.08231 0.0
C69 C 0.30574 0.13734 0.07118 0.0
O70 O 0.32248 0.06843 0.1926 0.0
O71 O 0.30324 0.12403 0.17813 0.0
O72 O 0.31138 0.04795 0.10679 0.0
O73 O 0.36649 0.06381 0.09217 0.0
O74 O 0.3045 0.13337 0.10794 0.0
O75 O 0.33129 0.11963 0.05036 0.0
C76 C 0.406 0.11512 0.9918 0.0
O77 O 0.42207 0.13717 1.01712 0.0
O78 O 0.38538 0.08946 1.00916 0.0
C79 C 0.37303 0.17301 0.10845 0.0
Tb80 Tb 0.15892 0.84855 0.26287 0.0
C81 C 0.17005 0.79717 0.19138 0.0
Tb82 Tb 0.185 0.88993 0.18469 0.0
O83 O 0.09722 0.84566 0.24791 0.0
O84 O 0.13613 0.86998 0.21266 0.0
O85 O 0.16833 0.79719 0.22905 0.0
C86 C 0.17828 0.93343 0.12172 0.0
O87 O 0.17476 0.82891 0.16997 0.0
C88 C 0.23985 0.88455 0.23765 0.0
C89 C 0.15686 0.93412 0.25344 0.0
O90 O 0.18836 0.89705 0.12248 0.0
O91 O 0.17299 0.94453 0.15605 0.0
O92 O 0.24191 0.90672 0.20819 0.0
O93 O 0.21039 0.86369 0.23301 0.0
O94 O 0.1523 0.93088 0.21688 0.0
O95 O 0.17452 0.90736 0.27283 0.0
C96 C 0.13829 0.84766 0.33538 0.0
O97 O 0.12491 0.86972 0.30927 0.0
O98 O 0.16409 0.82436 0.32064 0.0
C99 C 0.10092 0.86364 0.21625 0.0
Tb100 Tb 0.40934 0.8872 0.5191 0.0
C101 C 0.46126 0.90887 0.45012 0.0
Tb102 Tb 0.36817 0.90824 0.44187 0.0
O103 O 0.39624 0.82565 0.51132 0.0
O104 O 0.39953 0.8622 0.46564 0.0
O105 O 0.46036 0.90355 0.48741 0.0
C106 C 0.33298 0.90123 0.37421 0.0
O107 O 0.42978 0.91051 0.42813 0.0
C108 C 0.36262 0.96029 0.49703 0.0
C109 C 0.32275 0.87157 0.50686 0.0
O110 O 0.35506 0.93004 0.38441 0.0
O111 O 0.33192 0.87678 0.40172 0.0
O112 O 0.33836 0.95714 0.46937 0.0
O113 O 0.39013 0.93758 0.49037 0.0
O114 O 0.32561 0.87394 0.47012 0.0
O115 O 0.34887 0.88539 0.5299 0.0
C116 C 0.41955 0.88457 0.59382 0.0
O117 O 0.43598 0.8616 0.56961 0.0
O118 O 0.40177 0.91137 0.57514 0.0
C119 C 0.39084 0.82851 0.47542 0.0
Tb120 Tb 0.36271 0.15183 0.76628 0.0
C121 C 0.33633 0.19732 0.69459 0.0
Tb122 Tb 0.34511 0.10402 0.69135 0.0
O123 O 0.42519 0.1479 0.75791 0.0
O124 O 0.38768 0.14113 0.71341 0.0
O125 O 0.34125 0.19897 0.73193 0.0
C126 C 0.34992 0.06592 0.62502 0.0
O127 O 0.33756 0.16461 0.67423 0.0
C128 C 0.29513 0.09719 0.74785 0.0
C129 C 0.39063 0.06732 0.75664 0.0
O130 O 0.31966 0.08452 0.63714 0.0
O131 O 0.37707 0.07016 0.64971 0.0
O132 O 0.30071 0.07101 0.72236 0.0
O133 O 0.31463 0.12631 0.73876 0.0
O134 O 0.38543 0.06729 0.72001 0.0
O135 O 0.37425 0.09253 0.77906 0.0
C136 C 0.36199 0.16275 0.84087 0.0
O137 O 0.33863 0.14113 0.82166 0.0
O138 O 0.3831 0.18224 0.81716 0.0
C139 C 0.42248 0.13853 0.72271 0.0
Tb140 Tb 0.09798 0.10887 1.00915 0.0
C141 C 0.05234 0.07422 0.9409 0.0
Tb142 Tb 0.14426 0.08554 0.93684 0.0
O143 O 0.09422 0.1692 0.99238 0.0
O144 O 0.10307 0.12694 0.95249 0.0
O145 O 0.05291 0.07838 0.97821 0.0
C146 C 0.1881 0.08818 0.8739 0.0
O147 O 0.08384 0.07857 0.9196 0.0
C148 C 0.14629 0.03498 0.99373 0.0
C149 C 0.17987 0.14083 0.99699 0.0
O150 O 0.16823 0.05859 0.88532 0.0
O151 O 0.18269 0.11594 0.89765 0.0
O152 O 0.15155 0.02617 0.95867 0.0
O153 O 0.14444 0.07123 0.99537 0.0
O154 O 0.18121 0.12904 0.96171 0.0
O155 O 0.15562 0.1262 1.02157 0.0
C156 C 0.07813 0.12135 0.08084 0.0
O157 O 0.08108 0.14718 0.05481 0.0
O158 O 0.08302 0.08742 0.06565 0.0
C159 C 0.10348 0.16292 0.95766 0.0
Tb160 Tb 0.83389 0.89631 0.68885 0.0
C161 C 0.88183 0.93442 0.75086 0.0
Tb162 Tb 0.85788 0.85115 0.76475 0.0
O163 O 0.78997 0.92921 0.72017 0.0
O164 O 0.80721 0.876 0.73988 0.0
O165 O 0.87712 0.93246 0.71424 0.0
C166 C 0.87644 0.84378 0.83752 0.0
O167 O 0.86271 0.91195 0.77397 0.0
C168 C 0.91371 0.85565 0.71426 0.0
C169 C 0.83335 0.8023 0.69501 0.0
O170 O 0.89708 0.85923 0.81149 0.0
O171 O 0.84469 0.83028 0.82236 0.0
O172 O 0.91733 0.83846 0.74646 0.0
O173 O 0.87922 0.86555 0.71228 0.0
O174 O 0.83808 0.80215 0.73238 0.0
O175 O 0.83122 0.83443 0.6737 0.0
C176 C 0.83551 0.93571 0.62335 0.0
O177 O 0.80662 0.91484 0.6353 0.0
O178 O 0.86324 0.93273 0.64756 0.0
C179 C 0.78713 0.90521 0.748 0.0
Tb180 Tb 0.83973 0.09901 0.44519 0.0
C181 C 0.80642 0.15308 0.50893 0.0
Tb182 Tb 0.89135 0.11938 0.51592 0.0
O183 O 0.80924 0.05514 0.47848 0.0
O184 O 0.86574 0.06925 0.49147 0.0
O185 O 0.80134 0.13812 0.47493 0.0
C186 C 0.89832 0.12272 0.5911 0.0
O187 O 0.83753 0.14709 0.52934 0.0
C188 C 0.89139 0.17087 0.46124 0.0
C189 C 0.93228 0.08873 0.44553 0.0
O190 O 0.91984 0.1415 0.56727 0.0
O191 O 0.87597 0.09981 0.57219 0.0
O192 O 0.91725 0.16988 0.48797 0.0
O193 O 0.86612 0.14682 0.47018 0.0
O194 O 0.93423 0.0898 0.48296 0.0
O195 O 0.89954 0.09335 0.42599 0.0
C196 C 0.79974 0.10056 0.37959 0.0
O197 O 0.81544 0.07002 0.39459 0.0
O198 O 0.80787 0.12971 0.40096 0.0
C199 C 0.83702 0.04993 0.50243 0.0
Tb200 Tb 0.64195 0.11566 0.19636 0.0
C201 C 0.60125 0.07146 0.25971 0.0
Tb202 Tb 0.62038 0.15866 0.27223 0.0
O203 O 0.68811 0.08422 0.22644 0.0
O204 O 0.67081 0.13779 0.2451 0.0
O205 O 0.60502 0.07427 0.22307 0.0
C206 C 0.62124 0.16812 0.34701 0.0
O207 O 0.61379 0.09808 0.28312 0.0
C208 C 0.5621 0.14168 0.22782 0.0
C209 C 0.64482 0.20899 0.20272 0.0
O210 O 0.64645 0.14957 0.32715 0.0
O211 O 0.59763 0.18547 0.32394 0.0
O212 O 0.5586 0.1486 0.26348 0.0
O213 O 0.59635 0.14854 0.21867 0.0
O214 O 0.63806 0.20897 0.2398 0.0
O215 O 0.64634 0.17703 0.18139 0.0
C216 C 0.64031 0.0801 0.1287 0.0
O217 O 0.66856 0.10144 0.14135 0.0
O218 O 0.61321 0.0802 0.15365 0.0
C219 C 0.69191 0.1094 0.25318 0.0
Tb220 Tb 0.64169 0.93006 0.93978 0.0
C221 C 0.68686 0.90338 1.00932 0.0
Tb222 Tb 0.6001 0.90203 1.0173 0.0
O223 O 0.66159 0.98403 0.96684 0.0
O224 O 0.61471 0.95446 0.98828 0.0
O225 O 0.68582 0.90234 0.97236 0.0
C226 C 0.59882 0.88244 0.09014 0.0
O227 O 0.65844 0.91704 1.02945 0.0
C228 C 0.61759 0.84564 0.96981 0.0
C229 C 0.54881 0.91661 0.94625 0.0
O230 O 0.6186 0.86633 0.06382 0.0
O231 O 0.57749 0.90984 0.07526 0.0
O232 O 0.60015 0.84013 1.00149 0.0
O233 O 0.62149 0.88124 0.96687 0.0
O234 O 0.54885 0.91192 0.98371 0.0
O235 O 0.58044 0.92247 0.92509 0.0
C236 C 0.68181 0.92269 0.8751 0.0
O237 O 0.65899 0.95152 0.88333 0.0
O238 O 0.68075 0.89841 0.90273 0.0
C239 C 0.63716 0.98252 0.99456 0.0
Tb240 Tb 0.84444 0.10271 0.89333 0.0
C241 C 0.88355 0.06432 0.82516 0.0
Tb242 Tb 0.86239 0.15029 0.81881 0.0
O243 O 0.79654 0.07305 0.86418 0.0
O244 O 0.8134 0.12743 0.84714 0.0
O245 O 0.88064 0.06398 0.86202 0.0
C246 C 0.86111 0.16581 0.74493 0.0
O247 O 0.86722 0.09071 0.80407 0.0
C248 C 0.92258 0.13148 0.86052 0.0
C249 C 0.84182 0.19644 0.89184 0.0
O250 O 0.83598 0.1456 0.76339 0.0
O251 O 0.88479 0.18122 0.76921 0.0
O252 O 0.92464 0.14002 0.82511 0.0
O253 O 0.88857 0.13736 0.87084 0.0
O254 O 0.84555 0.19827 0.85443 0.0
O255 O 0.84163 0.1634 0.91167 0.0
C256 C 0.85106 0.06312 0.95858 0.0
O257 O 0.822 0.08513 0.94924 0.0
O258 O 0.87609 0.06465 0.93169 0.0
C259 C 0.79172 0.0995 0.83879 0.0
Tb260 Tb 0.6454 0.09225 0.6469 0.0
C261 C 0.682 0.13965 0.5833 0.0
Tb262 Tb 0.59916 0.11065 0.572 0.0
O263 O 0.67975 0.04926 0.61587 0.0
O264 O 0.62438 0.06161 0.5985 0.0
O265 O 0.68172 0.13425 0.61988 0.0
C266 C 0.58576 0.114 0.4978 0.0
O267 O 0.65859 0.12135 0.56042 0.0
C268 C 0.61077 0.17024 0.61712 0.0
C269 C 0.55257 0.08326 0.64195 0.0
O270 O 0.60919 0.09062 0.51481 0.0
O271 O 0.56634 0.13268 0.52335 0.0
O272 O 0.6028 0.17321 0.58165 0.0
O273 O 0.60822 0.13516 0.62563 0.0
O274 O 0.552 0.08741 0.60459 0.0
O275 O 0.58472 0.08458 0.66304 0.0
C276 C 0.68245 0.09437 0.71375 0.0
O277 O 0.66462 0.06436 0.69985 0.0
O278 O 0.67781 0.12292 0.69065 0.0
C279 C 0.65426 0.04299 0.58993 0.0
Tb280 Tb 0.67878 0.89893 0.39784 0.0
C281 C 0.64366 0.94207 0.33084 0.0
Tb282 Tb 0.65364 0.85613 0.32014 0.0
O283 O 0.72924 0.92515 0.37003 0.0
O284 O 0.70503 0.87506 0.34859 0.0
O285 O 0.64448 0.94033 0.36776 0.0
C286 C 0.63384 0.85234 0.24734 0.0
O287 O 0.66109 0.91647 0.30978 0.0
C288 C 0.59666 0.86704 0.36864 0.0
C289 C 0.67291 0.80518 0.39025 0.0
O290 O 0.61541 0.86968 0.27384 0.0
O291 O 0.66396 0.83496 0.26201 0.0
O292 O 0.59239 0.85013 0.33644 0.0
O293 O 0.63176 0.87397 0.37145 0.0
O294 O 0.66798 0.80531 0.35284 0.0
O295 O 0.67673 0.83699 0.41176 0.0
C296 C 0.6712 0.93635 0.46396 0.0
O297 O 0.70144 0.9165 0.45373 0.0
O298 O 0.64572 0.93389 0.43746 0.0
C299 C 0.73004 0.90077 0.34218 0.0
Tb300 Tb 0.87022 0.91166 0.14641 0.0
C301 C 0.82331 0.87614 0.08237 0.0
Tb302 Tb 0.91025 0.88398 0.06875 0.0
O303 O 0.84311 0.96131 0.11785 0.0
O304 O 0.89207 0.93656 0.09544 0.0
O305 O 0.82703 0.87725 0.11911 0.0
C306 C 0.91209 0.86701 0.99536 0.0
O307 O 0.84974 0.88961 0.05951 0.0
C308 C 0.8991 0.82798 0.11831 0.0
C309 C 0.96341 0.90524 0.13687 0.0
O310 O 0.89428 0.84819 1.02131 0.0
O311 O 0.93128 0.89551 1.01093 0.0
O312 O 0.91486 0.82264 0.08571 0.0
O313 O 0.89403 0.86349 0.12102 0.0
O314 O 0.96214 0.89881 0.09972 0.0
O315 O 0.9323 0.90967 0.159 0.0
C316 C 0.83341 0.9081 0.21306 0.0
O317 O 0.85559 0.93651 0.20217 0.0
O318 O 0.83354 0.88196 0.18704 0.0
C319 C 0.86598 0.96114 0.08896 0.0
Tb320 Tb 0.64144 0.66212 0.81868 0.0
C321 C 0.66577 0.71278 0.88809 0.0
Tb322 Tb 0.66142 0.61956 0.89598 0.0
O323 O 0.5793 0.65487 0.82747 0.0
O324 O 0.61704 0.6532 0.8722 0.0
O325 O 0.66063 0.71215 0.85072 0.0
C326 C 0.6552 0.58227 0.96268 0.0
O327 O 0.66638 0.68116 0.91005 0.0
C328 C 0.71169 0.61137 0.8396 0.0
C329 C 0.61885 0.57662 0.83285 0.0
O330 O 0.68542 0.60167 0.95142 0.0
O331 O 0.62885 0.58563 0.93708 0.0
O332 O 0.70746 0.58697 0.86694 0.0
O333 O 0.69086 0.64014 0.84698 0.0
O334 O 0.62322 0.57947 0.86937 0.0
O335 O 0.63323 0.60172 0.80903 0.0
C336 C 0.64029 0.66974 0.74358 0.0
O337 O 0.61912 0.68954 0.76697 0.0
O338 O 0.66473 0.64974 0.76315 0.0
C339 C 0.58245 0.64798 0.86315 0.0
Tb340 Tb 0.59535 0.40014 0.06808 0.0
C341 C 0.54234 0.42105 0.13712 0.0
Tb342 Tb 0.63505 0.42348 0.14511 0.0
O343 O 0.61228 0.33987 0.07695 0.0
O344 O 0.60438 0.37611 0.12242 0.0
O345 O 0.54374 0.41416 0.10009 0.0
C346 C 0.67122 0.41638 0.2124 0.0
O347 O 0.57355 0.42533 0.15909 0.0
C348 C 0.64071 0.47503 0.08946 0.0
C349 C 0.68144 0.38839 0.07975 0.0
O350 O 0.65079 0.44618 0.20168 0.0
O351 O 0.6699 0.39097 0.1857 0.0
O352 O 0.66435 0.47265 0.11769 0.0
O353 O 0.61338 0.4518 0.09575 0.0
O354 O 0.67822 0.39039 0.11648 0.0
O355 O 0.6556 0.4025 0.0566 0.0
C356 C 0.5776 0.39001 0.99488 0.0
O357 O 0.57104 0.3657 1.02188 0.0
O358 O 0.59086 0.42162 1.00988 0.0
C359 C 0.61521 0.3429 0.11305 0.0
Tb360 Tb 0.84865 0.36411 0.31989 0.0
C361 C 0.83817 0.31013 0.38996 0.0
Tb362 Tb 0.82602 0.40219 0.3975 0.0
O363 O 0.90737 0.38718 0.3247 0.0
O364 O 0.87519 0.37685 0.37229 0.0
O365 O 0.8397 0.3117 0.35243 0.0
C366 C 0.83382 0.43851 0.46438 0.0
O367 O 0.83332 0.34105 0.41218 0.0
C368 C 0.77064 0.40069 0.34511 0.0
C369 C 0.85216 0.45033 0.32984 0.0
O370 O 0.80476 0.41652 0.45478 0.0
O371 O 0.85794 0.439 0.4367 0.0
O372 O 0.77267 0.42551 0.37243 0.0
O373 O 0.79711 0.37614 0.35033 0.0
O374 O 0.85293 0.44828 0.3667 0.0
O375 O 0.83571 0.4235 0.30952 0.0
C376 C 0.85806 0.3481 0.24655 0.0
O377 O 0.87932 0.33487 0.27379 0.0
O378 O 0.82927 0.36645 0.26143 0.0
C379 C 0.90637 0.39089 0.36079 0.0
Tb380 Tb 0.90551 0.60943 0.57358 0.0
C381 C 0.95284 0.58773 0.64527 0.0
Tb382 Tb 0.85959 0.59272 0.64921 0.0
O383 O 0.8987 0.67217 0.58005 0.0
O384 O 0.89488 0.6362 0.6259 0.0
O385 O 0.95347 0.58956 0.60773 0.0
C386 C 0.82091 0.59835 0.71499 0.0
O387 O 0.92068 0.58959 0.6662 0.0
C388 C 0.85243 0.54066 0.59409 0.0
C389 C 0.82107 0.63448 0.58272 0.0
O390 O 0.84081 0.56836 0.70404 0.0
O391 O 0.82436 0.62488 0.68955 0.0
O392 O 0.82705 0.54664 0.62008 0.0
O393 O 0.88149 0.56097 0.60202 0.0
O394 O 0.82165 0.63118 0.61954 0.0
O395 O 0.84578 0.61682 0.5608 0.0
C396 C 0.91923 0.61011 0.49943 0.0
O397 O 0.93717 0.63129 0.52424 0.0
O398 O 0.89733 0.58599 0.51732 0.0
C399 C 0.89054 0.67059 0.61551 0.0
Tb400 Tb 0.64028 0.35535 0.76758 0.0
C401 C 0.66141 0.30288 0.69993 0.0
Tb402 Tb 0.66898 0.39551 0.69378 0.0
O403 O 0.58764 0.33629 0.73912 0.0
O404 O 0.61606 0.38493 0.72109 0.0
O405 O 0.65751 0.30388 0.73728 0.0
C406 C 0.66804 0.43457 0.62754 0.0
O407 O 0.66454 0.33441 0.67835 0.0
C408 C 0.72044 0.39294 0.74919 0.0
C409 C 0.6418 0.44277 0.76164 0.0
O410 O 0.69833 0.41904 0.64308 0.0
O411 O 0.63881 0.4264 0.64854 0.0
O412 O 0.72008 0.41859 0.72254 0.0
O413 O 0.69462 0.36803 0.74185 0.0
O414 O 0.64161 0.44123 0.72468 0.0
O415 O 0.6534 0.41373 0.78223 0.0
C416 C 0.61482 0.35321 0.83923 0.0
O417 O 0.59964 0.37167 0.81138 0.0
O418 O 0.64432 0.33364 0.82645 0.0
C419 C 0.58906 0.36229 0.71291 0.0
Tb420 Tb 0.90448 0.3866 1.02297 0.0
C421 C 0.95269 0.40907 0.95181 0.0
Tb422 Tb 0.85936 0.40699 0.9476 0.0
O423 O 0.89486 0.32444 1.01519 0.0
O424 O 0.89299 0.36176 0.96992 0.0
O425 O 0.95371 0.40368 0.98911 0.0
C426 C 0.82131 0.40219 0.8812 0.0
O427 O 0.92022 0.41036 0.9312 0.0
C428 C 0.85554 0.45834 1.00371 0.0
C429 C 0.81795 0.36642 1.01278 0.0
O430 O 0.84283 0.43119 0.89197 0.0
O431 O 0.82256 0.37617 0.9073 0.0
O432 O 0.82953 0.45445 0.97772 0.0
O433 O 0.88309 0.43648 0.99513 0.0
O434 O 0.8195 0.36998 0.97608 0.0
O435 O 0.84449 0.3804 1.03534 0.0
C436 C 0.91464 0.38793 0.09768 0.0
O437 O 0.93201 0.36436 0.07461 0.0
O438 O 0.89594 0.41305 0.07775 0.0
C439 C 0.88689 0.32747 0.97969 0.0
Tb440 Tb 0.87783 0.64831 0.27257 0.0
C441 C 0.85066 0.69675 0.20308 0.0
Tb442 Tb 0.855 0.60312 0.19788 0.0
O443 O 0.93978 0.64478 0.26094 0.0
O444 O 0.89976 0.6385 0.21841 0.0
O445 O 0.85699 0.6973 0.24024 0.0
C446 C 0.85394 0.56612 0.13072 0.0
O447 O 0.84931 0.66435 0.18221 0.0
C448 C 0.80758 0.59643 0.257 0.0
C449 C 0.9053 0.56339 0.25803 0.0
O450 O 0.825 0.58486 0.14543 0.0
O451 O 0.88307 0.56983 0.15323 0.0
O452 O 0.81172 0.5705 0.231 0.0
O453 O 0.8273 0.62521 0.2472 0.0
O454 O 0.89694 0.56487 0.22199 0.0
O455 O 0.89206 0.58876 0.28242 0.0
C456 C 0.87801 0.65632 0.34744 0.0
O457 O 0.85499 0.6347 0.32784 0.0
O458 O 0.8985 0.67711 0.32423 0.0
C459 C 0.93509 0.63583 0.22577 0.0
Tb460 Tb 0.608 0.615 0.5192 0.0
C461 C 0.5615 0.58879 0.44813 0.0
Tb462 Tb 0.655 0.59409 0.44527 0.0
O463 O 0.61338 0.67724 0.50909 0.0
O464 O 0.61894 0.63847 0.46546 0.0
O465 O 0.5602 0.59417 0.48539 0.0
C466 C 0.69458 0.59427 0.37955 0.0
O467 O 0.59423 0.58817 0.4279 0.0
C468 C 0.66116 0.54565 0.50361 0.0
C469 C 0.69244 0.64153 0.50875 0.0
O470 O 0.67553 0.56494 0.39327 0.0
O471 O 0.68953 0.62327 0.40206 0.0
O472 O 0.68739 0.55066 0.47821 0.0
O473 O 0.6322 0.56501 0.49369 0.0
O474 O 0.69221 0.63528 0.4723 0.0
O475 O 0.6674 0.62569 0.53167 0.0
C476 C 0.59568 0.61815 0.59363 0.0
O477 O 0.57746 0.63863 0.56846 0.0
O478 O 0.61687 0.59313 0.57605 0.0
C479 C 0.62226 0.67355 0.47391 0.0
Tb480 Tb 0.33128 0.39929 0.18867 0.0
C481 C 0.37173 0.4391 0.25509 0.0
Tb482 Tb 0.35154 0.35371 0.26394 0.0
O483 O 0.28439 0.42951 0.21861 0.0
O484 O 0.30161 0.37542 0.23621 0.0
O485 O 0.36844 0.43859 0.2183 0.0
C486 C 0.35644 0.34021 0.33824 0.0
O487 O 0.35449 0.41391 0.27676 0.0
C488 C 0.41049 0.37137 0.22025 0.0
C489 C 0.32755 0.30578 0.19277 0.0
O490 O 0.3305 0.36091 0.32132 0.0
O491 O 0.37685 0.32299 0.31246 0.0
O492 O 0.41343 0.36413 0.25582 0.0
O493 O 0.37622 0.3651 0.21078 0.0
O494 O 0.33249 0.30501 0.23013 0.0
O495 O 0.32689 0.33824 0.17203 0.0
C496 C 0.33739 0.43785 0.12259 0.0
O497 O 0.30699 0.41884 0.13391 0.0
O498 O 0.36394 0.43369 0.1479 0.0
C499 C 0.28007 0.40343 0.24446 0.0
Tb500 Tb 0.36079 0.59608 0.93986 0.0
C501 C 0.31945 0.64123 1.0026 0.0
Tb502 Tb 0.40405 0.61626 1.01621 0.0
O503 O 0.32811 0.55008 0.96896 0.0
O504 O 0.38145 0.56634 0.98888 0.0
O505 O 0.32139 0.6354 0.96616 0.0
C506 C 0.41578 0.61752 0.09057 0.0
O507 O 0.34411 0.62622 1.02658 0.0
C508 C 0.39043 0.67527 0.97126 0.0
C509 C 0.45387 0.59254 0.94672 0.0
O510 O 0.39433 0.59324 0.07225 0.0
O511 O 0.4343 0.63866 0.06622 0.0
O512 O 0.39739 0.67865 1.00693 0.0
O513 O 0.3951 0.64043 0.9627 0.0
O514 O 0.45356 0.59715 0.98407 0.0
O515 O 0.4221 0.59189 0.92512 0.0
C516 C 0.32627 0.60185 0.87189 0.0
O517 O 0.34759 0.57288 0.88298 0.0
O518 O 0.32538 0.62703 0.89877 0.0
C519 C 0.35245 0.54581 0.99638 0.0
Tb520 Tb 0.17795 0.60729 0.68479 0.0
C521 C 0.16155 0.55827 0.7543 0.0
Tb522 Tb 0.15336 0.64434 0.76035 0.0
O523 O 0.23437 0.59046 0.70769 0.0
O524 O 0.20566 0.63774 0.72972 0.0
O525 O 0.15527 0.56045 0.71782 0.0
C526 C 0.13161 0.64476 0.83298 0.0
O527 O 0.17521 0.58795 0.77268 0.0
C528 C 0.09754 0.63304 0.71117 0.0
C529 C 0.16758 0.69943 0.69271 0.0
O530 O 0.11707 0.62418 0.80624 0.0
O531 O 0.15839 0.66696 0.81865 0.0
O532 O 0.09851 0.6608 0.73558 0.0
O533 O 0.12641 0.61181 0.71669 0.0
O534 O 0.1647 0.69757 0.7301 0.0
O535 O 0.17209 0.66849 0.67064 0.0
C536 C 0.17359 0.57118 0.61714 0.0
O537 O 0.20315 0.57127 0.63959 0.0
O538 O 0.14768 0.59337 0.63189 0.0
C539 C 0.23472 0.6161 0.73438 0.0
Tb540 Tb 0.13558 0.41329 0.43726 0.0
C541 C 0.1759 0.36787 0.50027 0.0
Tb542 Tb 0.09209 0.39542 0.51315 0.0
O543 O 0.17236 0.45487 0.46771 0.0
O544 O 0.11712 0.44439 0.48636 0.0
O545 O 0.17336 0.37223 0.46364 0.0
C546 C 0.08151 0.39389 0.5878 0.0
O547 O 0.15161 0.38385 0.52383 0.0
C548 C 0.10262 0.33571 0.46834 0.0
C549 C 0.04311 0.42405 0.44449 0.0
O550 O 0.06229 0.37331 0.56341 0.0
O551 O 0.10278 0.41821 0.56936 0.0
O552 O 0.09658 0.33295 0.50415 0.0
O553 O 0.09873 0.37052 0.45924 0.0
O554 O 0.04347 0.41787 0.48162 0.0
O555 O 0.07465 0.4232 0.42263 0.0
C556 C 0.17159 0.41028 0.36996 0.0
O557 O 0.15511 0.44081 0.38426 0.0
O558 O 0.16586 0.38169 0.3928 0.0
C559 C 0.14794 0.46188 0.49429 0.0
Tb560 Tb 0.35181 0.60505 0.39022 0.0
C561 C 0.3991 0.56621 0.3276 0.0
Tb562 Tb 0.3727 0.65125 0.31626 0.0
O563 O 0.30838 0.57191 0.35799 0.0
O564 O 0.32258 0.62706 0.34145 0.0
O565 O 0.3926 0.56704 0.36399 0.0
C566 C 0.37288 0.66292 0.2419 0.0
O567 O 0.38459 0.5918 0.30426 0.0
C568 C 0.43118 0.63719 0.36156 0.0
C569 C 0.34619 0.69847 0.38666 0.0
O570 O 0.34914 0.64131 0.26051 0.0
O571 O 0.3942 0.68173 0.26602 0.0
O572 O 0.43486 0.64579 0.32626 0.0
O573 O 0.39622 0.64092 0.36994 0.0
O574 O 0.35219 0.69955 0.34952 0.0
O575 O 0.34546 0.66586 0.40711 0.0
C576 C 0.35252 0.56753 0.45687 0.0
O577 O 0.3233 0.58666 0.44312 0.0
O578 O 0.38101 0.57104 0.43367 0.0
C579 C 0.30331 0.5977 0.33206 0.0
Tb580 Tb 0.15575 0.58178 0.13967 0.0
C581 C 0.19077 0.62705 0.07419 0.0
Tb582 Tb 0.10677 0.60402 0.06487 0.0
O583 O 0.18515 0.53537 0.10789 0.0
O584 O 0.13146 0.55396 0.09103 0.0
O585 O 0.19114 0.62327 0.11097 0.0
C586 C 0.09738 0.61842 0.9911 0.0
O587 O 0.16701 0.60731 0.05284 0.0
C588 C 0.11522 0.66173 0.11344 0.0
C589 C 0.06157 0.582 0.1373 0.0
O590 O 0.10817 0.64255 1.01668 0.0
O591 O 0.08894 0.58562 1.00752 0.0
O592 O 0.09639 0.66455 0.082 0.0
O593 O 0.125 0.62708 0.11583 0.0
O594 O 0.05922 0.58597 0.09989 0.0
O595 O 0.09474 0.58036 0.15701 0.0
C596 C 0.19588 0.58607 0.20505 0.0
O597 O 0.17473 0.5568 0.19432 0.0
O598 O 0.19334 0.61246 0.17938 0.0
C599 C 0.15905 0.53229 0.0818 0.0
Tb600 Tb 0.16032 0.38644 0.88872 0.0
C601 C 0.11676 0.43434 0.83007 0.0
Tb602 Tb 0.13408 0.3482 0.81144 0.0
O603 O 0.20605 0.41811 0.85822 0.0
O604 O 0.18631 0.36628 0.83753 0.0
O605 O 0.12266 0.42946 0.86614 0.0
C606 C 0.12916 0.34188 0.73643 0.0
O607 O 0.12806 0.40932 0.80455 0.0
C608 C 0.07837 0.36325 0.8593 0.0
C609 C 0.15932 0.29357 0.87752 0.0
O610 O 0.15509 0.36093 0.75512 0.0
O611 O 0.10832 0.3225 0.76043 0.0
O612 O 0.073 0.35831 0.82355 0.0
O613 O 0.113 0.35579 0.86643 0.0
O614 O 0.15208 0.29603 0.84059 0.0
O615 O 0.16307 0.32421 0.90054 0.0
C616 C 0.16023 0.42236 0.95639 0.0
O617 O 0.18916 0.40295 0.94236 0.0
O618 O 0.13162 0.41935 0.93316 0.0
C619 C 0.208 0.39443 0.83005 0.0
Tb620 Tb 0.35612 0.40808 0.63882 0.0
C621 C 0.31191 0.37383 0.57141 0.0
Tb622 Tb 0.39903 0.38594 0.56266 0.0
O623 O 0.32954 0.45817 0.61036 0.0
O624 O 0.38152 0.43685 0.59158 0.0
O625 O 0.31336 0.37566 0.6083 0.0
C626 C 0.41076 0.38297 0.48801 0.0
O627 O 0.33897 0.38794 0.5498 0.0
C628 C 0.37656 0.32785 0.6053 0.0
C629 C 0.44947 0.40335 0.6343 0.0
O630 O 0.42564 0.3593 0.51261 0.0
O631 O 0.39386 0.41054 0.5064 0.0
O632 O 0.38309 0.32481 0.56962 0.0
O633 O 0.38619 0.36115 0.61536 0.0
O634 O 0.44949 0.39937 0.59678 0.0
O635 O 0.41738 0.40642 0.65527 0.0
C636 C 0.31695 0.40377 0.70454 0.0
O637 O 0.33874 0.43266 0.69409 0.0
O638 O 0.31883 0.37752 0.67865 0.0
C639 C 0.35529 0.46079 0.58412 0.0
C640 C 0.22435 0.13236 0.27256 0.0
C641 C 0.22178 0.10179 0.29836 0.0
H642 H 0.25134 0.15497 0.223 0.0
C643 C 0.24582 0.06953 0.29281 0.0
H644 H 0.20653 0.15769 0.27597 0.0
C645 C 0.27166 0.06789 0.26233 0.0
C646 C 0.27435 0.0986 0.23665 0.0
H647 H 0.24463 0.0454 0.31208 0.0
H648 H 0.28946 0.04254 0.25885 0.0
C649 C 0.25028 0.13082 0.24225 0.0
C650 C 0.11308 0.01986 0.49655 0.0
C651 C 0.1451 0.04387 0.48988 0.0
H652 H 0.08718 0.9764 0.53132 0.0
C653 C 0.17653 0.04141 0.51469 0.0
H654 H 0.08834 0.02084 0.47803 0.0
C655 C 0.17587 0.01555 0.54526 0.0
C656 C 0.14387 0.9914 0.55168 0.0
H657 H 0.20172 0.05922 0.51033 0.0
H658 H 0.20057 0.01434 0.5638 0.0
C659 C 0.11246 0.99406 0.52697 0.0
C660 C 0.2518 0.87221 0.77918 0.0
C661 C 0.26018 0.9047 0.80133 0.0
H662 H 0.21991 0.84882 0.73281 0.0
C663 C 0.24043 0.93929 0.79345 0.0
H664 H 0.26593 0.84498 0.7847 0.0
C665 C 0.21352 0.94147 0.7638 0.0
C666 C 0.2057 0.90905 0.74127 0.0
H667 H 0.24604 0.96484 0.81007 0.0
H668 H 0.19937 0.96866 0.75816 0.0
C669 C 0.22513 0.8744 0.74953 0.0
C670 C 0.37184 0.97803 1.00195 0.0
C671 C 0.33764 0.95929 0.99093 0.0
H672 H 0.39908 0.01845 1.03926 0.0
C673 C 0.30375 0.96784 1.0108 0.0
H674 H 0.39851 0.97226 0.98734 0.0
C675 C 0.30405 0.99481 1.0405 0.0
C676 C 0.33821 0.01399 0.05102 0.0
H677 H 0.27686 0.95419 1.00301 0.0
H678 H 0.27738 1.00098 0.05496 0.0
C679 C 0.37215 0.00481 1.0316 0.0
C680 C 0.28403 0.86601 0.33456 0.0
C681 C 0.31005 0.89701 0.33866 0.0
H682 H 0.24156 0.83782 0.30003 0.0
C683 C 0.31286 0.92365 0.30903 0.0
H684 H 0.28093 0.84493 0.35679 0.0
C685 C 0.29036 0.91931 0.27627 0.0
C686 C 0.26414 0.88844 0.27236 0.0
H687 H 0.33239 0.9479 0.31117 0.0
H688 H 0.29324 0.94043 0.25406 0.0
C689 C 0.2613 0.8619 0.30202 0.0
C690 C 0.32449 0.00718 0.53694 0.0
C691 C 0.35939 0.98801 0.52927 0.0
H692 H 0.29387 0.04669 0.57286 0.0
C693 C 0.39114 0.99601 0.55251 0.0
H694 H 0.29944 1.00187 0.51956 0.0
C695 C 0.38795 0.02172 0.58294 0.0
C696 C 0.35296 0.04046 0.59103 0.0
H697 H 0.4186 0.98238 0.54718 0.0
H698 H 0.41303 0.02671 0.60039 0.0
C699 C 0.32128 0.03298 0.56746 0.0
C700 C 0.22372 0.05714 0.81968 0.0
C701 C 0.21432 0.09016 0.84071 0.0
H702 H 0.2568 0.03337 0.77416 0.0
C703 C 0.23117 0.12552 0.83041 0.0
H704 H 0.21125 0.02948 0.82681 0.0
C705 C 0.25689 0.12783 0.80011 0.0
C706 C 0.2671 0.09473 0.77962 0.0
H707 H 0.22445 0.15158 0.84582 0.0
H708 H 0.2689 0.15564 0.79279 0.0
C709 C 0.24986 0.05939 0.78954 0.0
C710 C 0.16398 0.99842 0.09361 0.0
C711 C 0.17145 0.95884 0.08823 0.0
H712 H 0.15097 0.0532 0.06859 0.0
C713 C 0.17072 0.9445 0.05126 0.0
H714 H 0.16436 0.01065 0.12161 0.0
C715 C 0.16225 0.96906 1.02068 0.0
C716 C 0.15452 0.00862 1.02623 0.0
H717 H 0.17621 0.91425 0.04601 0.0
H718 H 0.16177 0.95703 0.99261 0.0
C719 C 0.15592 0.02292 0.06315 0.0
C720 C 0.73835 0.94367 0.78499 0.0
C721 C 0.76026 0.90971 0.7806 0.0
H722 H 0.69631 0.97454 0.81774 0.0
C723 C 0.75541 0.88015 0.80714 0.0
H724 H 0.74128 0.96707 0.76507 0.0
C725 C 0.72962 0.88446 0.83726 0.0
C726 C 0.70773 0.91839 0.84173 0.0
H727 H 0.77144 0.85355 0.80455 0.0
H728 H 0.7269 0.86106 0.85722 0.0
C729 C 0.7124 0.94795 0.81511 0.0
C730 C 0.80327 0.99905 0.54103 0.0
C731 C 0.83694 0.02006 0.53285 0.0
H732 H 0.77627 0.95566 0.57544 0.0
C733 C 0.87035 0.01164 0.55356 0.0
H734 H 0.77714 0.00467 0.52544 0.0
C735 C 0.86984 0.98369 0.58219 0.0
C736 C 0.83603 0.96301 0.59075 0.0
H737 H 0.89693 0.02681 0.54779 0.0
H738 H 0.89602 0.97852 0.59794 0.0
C739 C 0.8028 0.97084 0.56955 0.0
C740 C 0.73702 0.07151 0.2953 0.0
C741 C 0.71994 0.10691 0.28518 0.0
H742 H 0.77543 0.04146 0.33286 0.0
C743 C 0.73042 0.13998 0.30564 0.0
H744 H 0.72973 0.04544 0.28011 0.0
C745 C 0.75669 0.13772 0.33565 0.0
C746 C 0.77342 0.10232 0.34618 0.0
H747 H 0.71832 0.16777 0.2984 0.0
H748 H 0.76369 0.16385 0.35087 0.0
C749 C 0.7633 0.0692 0.32551 0.0
C750 C 0.66873 0.03343 1.03519 0.0
C751 C 0.63792 0.00776 1.02871 0.0
H752 H 0.69395 0.07623 0.07164 0.0
C753 C 0.60793 0.00671 0.05507 0.0
H754 H 0.69238 0.03495 1.0155 0.0
C755 C 0.60867 0.03066 0.08697 0.0
C756 C 0.63956 0.05615 0.09366 0.0
H757 H 0.58373 0.98749 0.05095 0.0
H758 H 0.58503 0.02891 0.10666 0.0
C759 C 0.66965 0.05717 0.06735 0.0
C760 C 0.75314 0.13169 0.78743 0.0
C761 C 0.76279 0.09821 0.80757 0.0
H762 H 0.72034 0.15667 0.74249 0.0
C763 C 0.74417 0.06347 0.79778 0.0
H764 H 0.7663 0.15905 0.79457 0.0
C765 C 0.71734 0.06212 0.76803 0.0
C766 C 0.70838 0.09553 0.74738 0.0
H767 H 0.75073 0.03714 0.81283 0.0
H768 H 0.70412 0.03482 0.76081 0.0
C769 C 0.72649 0.13034 0.75771 0.0
C770 C 0.69354 0.99571 0.552 0.0
C771 C 0.65831 0.01466 0.55846 0.0
H772 H 0.72526 0.95562 0.51764 0.0
C773 C 0.6271 0.00578 0.53486 0.0
H774 H 0.71802 1.00153 0.56996 0.0
C775 C 0.63136 0.97984 0.50482 0.0
C776 C 0.66679 0.96149 0.49783 0.0
H777 H 0.59933 0.01903 0.53948 0.0
H778 H 0.60681 0.97436 0.48681 0.0
C779 C 0.69771 0.96934 0.52214 0.0
C780 C 0.78381 0.87435 0.25246 0.0
C781 C 0.80821 0.90637 0.24707 0.0
H782 H 0.74017 0.8475 0.28624 0.0
C783 C 0.80659 0.93661 0.27332 0.0
H784 H 0.7841 0.85054 0.23276 0.0
C785 C 0.78121 0.93478 0.30412 0.0
C786 C 0.75668 0.90279 0.30929 0.0
H787 H 0.8247 0.96178 0.26994 0.0
H788 H 0.78063 0.95859 0.32381 0.0
C789 C 0.75839 0.87261 0.28305 0.0
C790 C 0.82592 0.0358 1.02 0.0
C791 C 0.85477 0.03769 0.99247 0.0
H792 H 0.80684 0.01022 0.07175 0.0
C793 C 0.88735 0.01386 0.99686 0.0
H794 H 0.8004 0.05349 1.0175 0.0
C795 C 0.89098 0.98885 1.02782 0.0
C796 C 0.86219 0.98699 0.0554 0.0
H797 H 0.91016 0.01441 0.9762 0.0
H798 H 0.91651 0.9712 1.03032 0.0
C799 C 0.82964 0.01086 0.05107 0.0
C800 C 0.75947 0.5729 0.80102 0.0
C801 C 0.74027 0.60797 0.80821 0.0
H802 H 0.8 0.54213 0.76637 0.0
C803 C 0.74924 0.63984 0.78545 0.0
H804 H 0.75346 0.54776 0.81807 0.0
C805 C 0.77585 0.63659 0.7559 0.0
C806 C 0.79469 0.60146 0.7483 0.0
H807 H 0.73564 0.66743 0.79045 0.0
H808 H 0.78149 0.66174 0.73873 0.0
C809 C 0.7863 0.56966 0.77145 0.0
C810 C 0.6824 0.54988 1.02126 0.0
C811 C 0.65161 0.55633 0.99634 0.0
H812 H 0.70313 0.51928 0.06987 0.0
C813 C 0.61709 0.53588 1.0026 0.0
H814 H 0.70945 0.56481 1.01728 0.0
C815 C 0.6135 0.50961 1.03257 0.0
C816 C 0.64432 0.50288 0.0573 0.0
H817 H 0.59271 0.53994 0.98404 0.0
H818 H 0.58642 0.49474 1.03648 0.0
C819 C 0.67875 0.52362 0.05137 0.0
C820 C 0.69822 0.44187 0.27419 0.0
C821 C 0.69528 0.41225 0.24733 0.0
H822 H 0.72405 0.46135 0.32581 0.0
C823 C 0.71706 0.37845 0.25331 0.0
H824 H 0.68214 0.46834 0.27057 0.0
C825 C 0.74125 0.37448 0.2849 0.0
C826 C 0.74449 0.4042 0.31157 0.0
H827 H 0.71566 0.35496 0.23329 0.0
H828 H 0.75742 0.34806 0.28844 0.0
C829 C 0.72237 0.43783 0.30588 0.0
C830 C 0.8792 0.50404 0.53842 0.0
C831 C 0.84803 0.5131 0.56186 0.0
H832 H 0.89899 0.47389 0.48948 0.0
C833 C 0.81233 0.49529 0.55431 0.0
H834 H 0.90733 0.51624 0.54391 0.0
C835 C 0.80769 0.47003 0.52354 0.0
C836 C 0.83858 0.46223 0.49929 0.0
H837 H 0.78778 0.50129 0.57201 0.0
H838 H 0.77972 0.4574 0.5182 0.0
C839 C 0.87444 0.4794 0.50737 0.0
C840 C 0.7708 0.4268 0.78846 0.0
C841 C 0.74634 0.39474 0.78298 0.0
H842 H 0.8134 0.45449 0.82328 0.0
C843 C 0.74727 0.36512 0.80988 0.0
H844 H 0.77084 0.45029 0.76842 0.0
C845 C 0.772 0.36747 0.84125 0.0
C846 C 0.79636 0.39961 0.84679 0.0
H847 H 0.72893 0.34007 0.80668 0.0
H848 H 0.77181 0.34411 0.86142 0.0
C849 C 0.79535 0.42926 0.81993 0.0
C850 C 0.88815 0.52235 0.08533 0.0
C851 C 0.85384 0.54057 0.09662 0.0
H852 H 0.9157 0.48291 0.04744 0.0
C853 C 0.82002 0.53211 0.07637 0.0
H854 H 0.9148 0.52806 0.10014 0.0
C855 C 0.82054 0.50572 0.0461 0.0
C856 C 0.85483 0.48698 1.03539 0.0
H857 H 0.79305 0.54538 0.08429 0.0
H858 H 0.79394 0.49956 1.03139 0.0
C859 C 0.88866 0.49617 0.05517 0.0
C860 C 0.75839 0.56131 0.29739 0.0
C861 C 0.77822 0.59552 0.28802 0.0
H862 H 0.71643 0.53389 0.33316 0.0
C863 C 0.769 0.62919 0.30814 0.0
H864 H 0.76451 0.53482 0.28245 0.0
C865 C 0.74145 0.62862 0.33707 0.0
C866 C 0.72192 0.59443 0.34682 0.0
H867 H 0.78314 0.65617 0.30153 0.0
H868 H 0.73567 0.65514 0.3521 0.0
C869 C 0.73067 0.56076 0.32641 0.0
C870 C 0.63163 0.4792 0.58439 0.0
C871 C 0.66666 0.46162 0.59465 0.0
H872 H 0.60233 0.51914 0.54809 0.0
C873 C 0.69989 0.4719 0.57448 0.0
H874 H 0.60542 0.47217 0.59929 0.0
C875 C 0.69806 0.49912 0.54505 0.0
C876 C 0.66305 0.51698 0.53514 0.0
H877 H 0.72734 0.45912 0.58163 0.0
H878 H 0.72417 0.50646 0.53016 0.0
C879 C 0.62984 0.50642 0.55513 0.0
C880 C 0.21645 0.37389 0.32717 0.0
C881 C 0.19769 0.40862 0.33649 0.0
H882 H 0.25688 0.34493 0.29128 0.0
C883 C 0.20619 0.44159 0.31499 0.0
H884 H 0.21086 0.34792 0.34316 0.0
C885 C 0.23281 0.43978 0.28518 0.0
C886 C 0.25183 0.40513 0.2762 0.0
H887 H 0.19264 0.46889 0.32147 0.0
H888 H 0.23889 0.46568 0.26935 0.0
C889 C 0.24311 0.37217 0.29753 0.0
C890 C 0.37633 0.48238 0.08143 0.0
C891 C 0.34109 0.46375 0.08891 0.0
H892 H 0.40778 0.52195 0.04655 0.0
C893 C 0.30977 0.47185 0.0651 0.0
H894 H 0.40119 0.47688 0.09901 0.0
C895 C 0.31347 0.49834 1.03515 0.0
C896 C 0.34862 0.51742 1.02812 0.0
H897 H 0.28228 0.45808 0.06993 0.0
H898 H 0.28862 0.50413 1.01766 0.0
C899 C 0.38009 0.50857 0.05144 0.0
C900 C 0.28415 0.58161 0.77429 0.0
C901 C 0.25933 0.61333 0.76892 0.0
H902 H 0.32451 0.55279 0.81073 0.0
C903 C 0.25748 0.64132 0.79739 0.0
H904 H 0.28619 0.55933 0.75307 0.0
C905 C 0.27966 0.63764 0.8303 0.0
C906 C 0.30414 0.6057 0.83591 0.0
H907 H 0.23871 0.66602 0.79431 0.0
H908 H 0.27728 0.65975 0.85166 0.0
C909 C 0.30614 0.57776 0.80739 0.0
C910 C 0.19829 0.5263 0.56653 0.0
C911 C 0.16727 0.54444 0.58464 0.0
H912 H 0.2165 0.4866 0.52365 0.0
C913 C 0.12969 0.53482 0.57297 0.0
H914 H 0.22753 0.53275 0.57496 0.0
C915 C 0.1233 0.50753 0.54429 0.0
C916 C 0.15433 0.48975 0.52587 0.0
H917 H 0.10509 0.54783 0.5866 0.0
H918 H 0.09403 0.50068 0.53624 0.0
C919 C 0.19191 0.49973 0.5372 0.0
C920 C 0.23977 0.62414 0.24777 0.0
C921 C 0.2216 0.58891 0.23894 0.0
H922 H 0.27854 0.65489 0.28418 0.0
C923 C 0.22985 0.55681 0.26169 0.0
H924 H 0.23403 0.64961 0.23109 0.0
C925 C 0.25629 0.55965 0.29177 0.0
C926 C 0.27495 0.59481 0.30018 0.0
H927 H 0.21631 0.52936 0.25582 0.0
H928 H 0.26232 0.53417 0.30833 0.0
C929 C 0.26567 0.62714 0.27811 0.0
C930 C 0.12679 0.46991 0.99875 0.0
C931 C 0.16026 0.44885 0.98985 0.0
H932 H 0.10007 0.51231 1.03421 0.0
C933 C 0.19344 0.45561 1.01161 0.0
H934 H 0.10067 0.46575 0.98261 0.0
C935 C 0.19304 0.48269 1.04129 0.0
C936 C 0.15959 0.50393 0.04988 0.0
H937 H 0.21983 0.44032 1.00547 0.0
H938 H 0.21906 0.48726 0.0574 0.0
C939 C 0.12646 0.49697 1.02823 0.0
C940 C 0.28462 0.43315 0.76209 0.0
C941 C 0.29054 0.4016 0.73788 0.0
H942 H 0.2539 0.45576 0.80977 0.0
C943 C 0.26914 0.36773 0.74453 0.0
H944 H 0.3003 0.45977 0.75777 0.0
C945 C 0.24255 0.36542 0.77422 0.0
C946 C 0.23622 0.397 0.79819 0.0
H947 H 0.27277 0.34281 0.72653 0.0
H948 H 0.22697 0.33873 0.77843 0.0
C949 C 0.25786 0.43085 0.79184 0.0
C950 C 0.38765 0.49567 0.53048 0.0
C951 C 0.35459 0.48881 0.5521 0.0
H952 H 0.41289 0.52584 0.48404 0.0
C953 C 0.32084 0.50936 0.54302 0.0
H954 H 0.41425 0.48082 0.53692 0.0
C955 C 0.32003 0.53549 0.51266 0.0
C956 C 0.35305 0.5419 0.49075 0.0
H957 H 0.29485 0.50486 0.55914 0.0
H958 H 0.29344 0.55028 0.50609 0.0
C959 C 0.38688 0.52174 0.50026 0.0
C960 C 0.13348 0.27173 0.46245 0.0
C961 C 0.11726 0.30399 0.44483 0.0
H962 H 0.15498 0.21462 0.45656 0.0
C963 C 0.11361 0.30433 0.40557 0.0
H964 H 0.13727 0.27104 0.49267 0.0
C965 C 0.12363 0.2716 0.38455 0.0
C966 C 0.13767 0.23825 0.40257 0.0
H967 H 0.10133 0.32907 0.3914 0.0
H968 H 0.11855 0.27182 0.35454 0.0
C969 C 0.14382 0.2394 0.44161 0.0
C970 C 0.97615 0.89415 0.63558 0.0
C971 C 0.01098 0.90077 0.65495 0.0
H972 H 0.91752 0.87438 0.63931 0.0
C973 C 0.01198 0.89505 0.69402 0.0
H974 H 0.97432 0.89823 0.60548 0.0
C975 C 0.98006 0.88061 0.71281 0.0
C976 C 0.94603 0.87232 0.69329 0.0
H977 H 0.03803 0.89981 0.71008 0.0
H978 H 0.98223 0.87549 0.74276 0.0
C979 C 0.94372 0.88031 0.65476 0.0
C980 C 0.35532 0.7335 0.88822 0.0
C981 C 0.33941 0.76589 0.90637 0.0
H982 H 0.38491 0.67954 0.89476 0.0
C983 C 0.33653 0.76562 0.94575 0.0
H984 H 0.35811 0.73266 0.85795 0.0
C985 C 0.35233 0.73552 0.96659 0.0
C986 C 0.37083 0.70478 0.94854 0.0
H987 H 0.32421 0.7898 0.96073 0.0
H988 H 0.35104 0.73691 0.99696 0.0
C989 C 0.371 0.7032 0.90921 0.0
C990 C 0.50448 0.10902 0.14341 0.0
C991 C 0.47079 0.095 0.16065 0.0
H992 H 0.55956 0.1359 0.15129 0.0
C993 C 0.46959 0.09272 0.20005 0.0
H994 H 0.50645 0.1114 0.11315 0.0
C995 C 0.49997 0.10687 0.22168 0.0
C996 C 0.53228 0.12335 0.20444 0.0
H997 H 0.4443 0.08195 0.21434 0.0
H998 H 0.49759 0.10603 0.25201 0.0
C999 C 0.5349 0.12326 0.16517 0.0
C1000 C 0.1563 0.72543 0.19069 0.0
C1001 C 0.16068 0.76068 0.17138 0.0
H1002 H 0.13815 0.66608 0.18752 0.0
C1003 C 0.15156 0.76193 0.1329 0.0
H1004 H 0.16288 0.72341 0.22037 0.0
C1005 C 0.1369 0.72957 0.11464 0.0
C1006 C 0.13159 0.69481 0.13402 0.0
H1007 H 0.15429 0.78835 0.11693 0.0
H1008 H 0.12952 0.7319 0.08514 0.0
C1009 C 0.14213 0.69262 0.17202 0.0
C1010 C 0.53232 0.89643 0.37152 0.0
C1011 C 0.56508 0.88361 0.39071 0.0
H1012 H 0.47461 0.9163 0.37512 0.0
C1013 C 0.5658 0.8848 0.43007 0.0
H1014 H 0.53145 0.89648 0.34109 0.0
C1015 C 0.53275 0.89583 0.44997 0.0
C1016 C 0.49886 0.9062 0.4306 0.0
H1017 H 0.59096 0.87509 0.44535 0.0
H1018 H 0.53315 0.89417 0.48034 0.0
C1019 C 0.49978 0.90803 0.39116 0.0
C1020 C 0.36289 0.2993 0.66835 0.0
C1021 C 0.35992 0.2975 0.62911 0.0
H1022 H 0.35655 0.26915 0.72035 0.0
C1023 C 0.343 0.26507 0.61233 0.0
H1024 H 0.37592 0.32407 0.68189 0.0
C1025 C 0.33179 0.23366 0.63419 0.0
C1026 C 0.33752 0.23399 0.6733 0.0
H1027 H 0.33984 0.26332 0.58209 0.0
H1028 H 0.32072 0.20826 0.62012 0.0
C1029 C 0.3516 0.26785 0.69034 0.0
C1030 C 0.98279 0.09307 0.94078 0.0
C1031 C 0.01486 0.07829 0.9214 0.0
H1032 H 0.92874 0.12269 0.93652 0.0
C1033 C 0.01354 0.07668 0.88194 0.0
H1034 H 0.98276 0.09496 0.97114 0.0
C1035 C 0.9828 0.09292 0.86231 0.0
C1036 C 0.95252 0.11067 0.88168 0.0
H1037 H 0.03753 0.06531 0.86607 0.0
H1038 H 0.98343 0.09283 0.83189 0.0
C1039 C 0.95196 0.10932 0.92102 0.0
C1040 C 0.83922 0.76405 0.63568 0.0
C1041 C 0.83954 0.76517 0.67515 0.0
H1042 H 0.85546 0.73332 0.58609 0.0
C1043 C 0.85328 0.73269 0.69489 0.0
H1044 H 0.82878 0.7883 0.61945 0.0
C1045 C 0.86907 0.70131 0.6756 0.0
C1046 C 0.87105 0.70167 0.63632 0.0
H1047 H 0.85414 0.7324 0.72529 0.0
H1048 H 0.88131 0.67763 0.69143 0.0
C1049 C 0.85494 0.73272 0.61651 0.0
C1050 C 0.99842 0.10912 0.36494 0.0
C1051 C 0.03223 0.11994 0.38368 0.0
H1052 H 0.94094 0.08852 0.36955 0.0
C1053 C 0.03535 0.11384 0.42246 0.0
H1054 H 0.99572 0.11272 0.33482 0.0
C1055 C 0.00368 0.09996 0.44269 0.0
C1056 C 0.96867 0.09184 0.4242 0.0
H1057 H 0.06133 0.12188 0.43736 0.0
H1058 H 0.00592 0.09807 0.47297 0.0
C1059 C 0.96714 0.09483 0.38487 0.0
C1060 C 0.62106 0.31232 0.17678 0.0
C1061 C 0.62866 0.31183 0.13808 0.0
H1062 H 0.62081 0.28005 0.22815 0.0
C1063 C 0.64695 0.27966 0.12235 0.0
H1064 H 0.60707 0.33693 0.18954 0.0
C1065 C 0.65506 0.24736 0.14426 0.0
C1066 C 0.64481 0.24637 0.18243 0.0
H1067 H 0.65371 0.27884 0.09267 0.0
H1068 H 0.66763 0.22243 0.13072 0.0
C1069 C 0.6291 0.27979 0.19885 0.0
C1070 C 0.44755 0.88241 0.9233 0.0
C1071 C 0.44826 0.88368 0.88394 0.0
H1072 H 0.47889 0.89226 0.97434 0.0
C1073 C 0.4799 0.90038 0.8658 0.0
H1074 H 0.42329 0.86977 0.93785 0.0
C1075 C 0.51134 0.91362 0.88638 0.0
C1076 C 0.51217 0.91004 0.92571 0.0
H1077 H 0.48083 0.90236 0.83544 0.0
H1078 H 0.53571 0.9251 0.87114 0.0
C1079 C 0.47936 0.89541 0.94409 0.0
C1080 C 0.85534 0.26351 0.97415 0.0
C1081 C 0.87009 0.29652 0.95657 0.0
H1082 H 0.8334 0.20645 0.96749 0.0
C1083 C 0.87013 0.2986 0.91724 0.0
H1084 H 0.85443 0.26148 1.0045 0.0
C1085 C 0.85783 0.26703 0.89581 0.0
C1086 C 0.84547 0.23283 0.91346 0.0
H1087 H 0.8814 0.32383 0.9031 0.0
H1088 H 0.86022 0.2687 0.86553 0.0
C1089 C 0.843 0.23207 0.95286 0.0
C1090 C 0.45176 0.11659 0.66236 0.0
C1091 C 0.45297 0.11885 0.7016 0.0
H1092 H 0.48203 0.10181 0.61225 0.0
C1093 C 0.48418 0.10276 0.72103 0.0
H1094 H 0.42783 0.12875 0.64687 0.0
C1095 C 0.51508 0.08703 0.70146 0.0
C1096 C 0.51557 0.08756 0.66199 0.0
H1097 H 0.4853 0.10339 0.75144 0.0
H1098 H 0.53962 0.07678 0.71734 0.0
C1099 C 0.48275 0.10086 0.64264 0.0
C1100 C 0.65382 0.73505 0.39166 0.0
C1101 C 0.66761 0.76813 0.41042 0.0
H1102 H 0.62835 0.67876 0.39722 0.0
C1103 C 0.67035 0.76737 0.44982 0.0
H1104 H 0.65133 0.73452 0.36134 0.0
C1105 C 0.65667 0.7359 0.47006 0.0
C1106 C 0.6405 0.70413 0.45146 0.0
H1107 H 0.68117 0.79196 0.46536 0.0
H1108 H 0.65777 0.73694 0.50046 0.0
C1109 C 0.64047 0.70318 0.41209 0.0
C1110 C 0.03547 0.89437 0.13634 0.0
C1111 C 1.00115 0.90176 0.15623 0.0
H1112 H 0.09492 0.87688 0.1399 0.0
C1113 C 0.00209 0.90072 0.19567 0.0
H1114 H 0.03587 0.89509 0.10594 0.0
C1115 C 0.03522 0.88952 0.2146 0.0
C1116 C 0.06864 0.87992 0.19481 0.0
H1117 H 0.97662 0.90651 0.21219 0.0
H1118 H 0.03434 0.88739 0.24496 0.0
C1119 C 0.06922 0.88388 0.15562 0.0
C1120 C 0.65083 0.78392 0.88846 0.0
C1121 C 0.66277 0.75043 0.9077 0.0
H1122 H 0.6267 0.84088 0.89325 0.0
C1123 C 0.66459 0.75135 0.94714 0.0
H1124 H 0.64906 0.78431 0.8581 0.0
C1125 C 0.65114 0.78321 0.9669 0.0
C1126 C 0.63646 0.81528 0.94779 0.0
H1127 H 0.67403 0.72647 0.96305 0.0
H1128 H 0.651 0.7822 0.99732 0.0
C1129 C 0.63788 0.81628 0.90846 0.0
C1130 C 0.47291 0.40028 0.13787 0.0
C1131 C 0.50487 0.41647 0.15655 0.0
H1132 H 0.41771 0.37286 0.14357 0.0
C1133 C 0.50284 0.42188 0.19565 0.0
H1134 H 0.47339 0.39564 0.10779 0.0
C1135 C 0.47131 0.40842 0.21591 0.0
C1136 C 0.44082 0.38974 0.19758 0.0
H1137 H 0.52658 0.43458 0.21105 0.0
H1138 H 0.47142 0.41154 0.2462 0.0
C1139 C 0.44108 0.38704 0.15828 0.0
C1140 C 0.85013 0.23851 0.3885 0.0
C1141 C 0.8497 0.27359 0.40837 0.0
H1142 H 0.86473 0.17829 0.38962 0.0
C1143 C 0.86507 0.27455 0.44498 0.0
H1144 H 0.839 0.23687 0.36011 0.0
C1145 C 0.88061 0.24145 0.46123 0.0
C1146 C 0.88066 0.20649 0.44153 0.0
H1147 H 0.86594 0.30113 0.46094 0.0
H1148 H 0.89164 0.24298 0.48968 0.0
C1149 C 0.86512 0.20512 0.40516 0.0
C1150 C 0.02397 0.57676 0.65362 0.0
C1151 C 0.98964 0.59472 0.66477 0.0
H1152 H 0.08515 0.57337 0.66115 0.0
C1153 C 0.99119 0.62441 0.69152 0.0
H1154 H 0.0235 0.55403 0.63276 0.0
C1155 C 0.02634 0.63697 0.70585 0.0
C1156 C 0.06083 0.61938 0.69472 0.0
H1157 H 0.96527 0.63936 0.70003 0.0
H1158 H 0.02638 0.66062 0.72572 0.0
C1159 C 0.05926 0.58834 0.6693 0.0
C1160 C 0.64154 0.23292 0.69914 0.0
C1161 C 0.65576 0.26562 0.68017 0.0
H1162 H 0.61579 0.17669 0.69388 0.0
C1163 C 0.6587 0.26439 0.64081 0.0
H1164 H 0.63882 0.23285 0.72943 0.0
C1165 C 0.64497 0.23276 0.62076 0.0
C1166 C 0.62855 0.20127 0.63949 0.0
H1167 H 0.66983 0.28871 0.62514 0.0
H1168 H 0.64636 0.23343 0.59036 0.0
C1169 C 0.62814 0.20087 0.67889 0.0
C1170 C 0.02171 0.38836 0.94654 0.0
C1171 C 0.98908 0.40599 0.93051 0.0
H1172 H 0.07587 0.3604 0.93623 0.0
C1173 C 0.98899 0.41382 0.89179 0.0
H1174 H 0.02272 0.3818 0.97626 0.0
C1175 C 0.01899 0.40113 0.86911 0.0
C1176 C 0.04999 0.38082 0.88465 0.0
H1177 H 0.96463 0.42773 0.87851 0.0
H1178 H 0.0172 0.40604 0.8391 0.0
C1179 C 0.05203 0.37585 0.92369 0.0
C1180 C 0.86752 0.76439 0.12237 0.0
C1181 C 0.881 0.79745 0.14081 0.0
H1182 H 0.8452 0.7075 0.12741 0.0
C1183 C 0.8782 0.79982 0.18001 0.0
H1184 H 0.86862 0.76228 0.09202 0.0
C1185 C 0.86496 0.76802 0.20068 0.0
C1186 C 0.85401 0.73368 0.18225 0.0
H1187 H 0.88831 0.82524 0.19471 0.0
H1188 H 0.86556 0.76961 0.23105 0.0
C1189 C 0.85372 0.73308 0.14276 0.0
C1190 C 0.52535 0.59055 0.38741 0.0
C1191 C 0.52488 0.59232 0.42685 0.0
H1192 H 0.49615 0.60375 0.33612 0.0
C1193 C 0.49098 0.60483 0.44482 0.0
H1194 H 0.55067 0.58086 0.37248 0.0
C1195 C 0.45961 0.61817 0.42373 0.0
C1196 C 0.46165 0.61915 0.38443 0.0
H1197 H 0.48948 0.60667 0.47515 0.0
H1198 H 0.43468 0.62955 0.43815 0.0
C1199 C 0.4942 0.60403 0.36648 0.0
C1200 C 0.35426 0.20263 0.16996 0.0
C1201 C 0.35547 0.20418 0.13063 0.0
H1202 H 0.34356 0.23357 0.22091 0.0
C1203 C 0.34138 0.23694 0.11213 0.0
H1204 H 0.36476 0.17747 0.18478 0.0
C1205 C 0.3288 0.2688 0.13256 0.0
C1206 C 0.33052 0.26879 0.17203 0.0
H1207 H 0.34128 0.23849 0.08173 0.0
H1208 H 0.31986 0.29423 0.11723 0.0
C1209 C 0.3419 0.23473 0.19056 0.0
C1210 C 0.55331 0.62983 0.92496 0.0
C1211 C 0.55276 0.62849 0.88562 0.0
H1212 H 0.52264 0.61812 0.97573 0.0
C1213 C 0.52268 0.6092 0.86724 0.0
H1214 H 0.57638 0.64448 0.93966 0.0
C1215 C 0.49221 0.59372 0.88766 0.0
C1216 C 0.49093 0.59769 0.92693 0.0
H1217 H 0.52207 0.60707 0.83688 0.0
H1218 H 0.46854 0.58075 0.87238 0.0
C1219 C 0.52265 0.61442 0.94553 0.0
C1220 C 0.14472 0.76942 0.61511 0.0
C1221 C 0.13004 0.80098 0.63496 0.0
H1222 H 0.16975 0.7136 0.6176 0.0
C1223 C 0.13268 0.80155 0.67427 0.0
H1224 H 0.14366 0.7687 0.58469 0.0
C1225 C 0.14739 0.76943 0.69355 0.0
C1226 C 0.16006 0.73669 0.67358 0.0
H1227 H 0.12157 0.8258 0.69004 0.0
H1228 H 0.14705 0.76952 0.72396 0.0
C1229 C 0.15994 0.73789 0.63411 0.0
C1230 C 0.96977 0.42362 0.36626 0.0
C1231 C 0.93832 0.40586 0.38388 0.0
H1232 H 0.02742 0.44439 0.37181 0.0
C1233 C 0.93936 0.4 0.42283 0.0
H1234 H 0.96945 0.42896 0.33627 0.0
C1235 C 0.97243 0.40936 0.4434 0.0
C1236 C 0.00522 0.42426 0.42523 0.0
H1237 H 0.91551 0.38623 0.43704 0.0
H1238 H 0.97314 0.40233 0.47303 0.0
C1239 C 0.00291 0.43269 0.38669 0.0
C1240 C 0.35579 0.76648 0.46858 0.0
C1241 C 0.37368 0.79827 0.45164 0.0
H1242 H 0.33148 0.71045 0.46111 0.0
C1243 C 0.37657 0.79969 0.4124 0.0
H1244 H 0.35263 0.76503 0.49881 0.0
C1245 C 0.36409 0.76849 0.39058 0.0
C1246 C 0.34884 0.73524 0.40777 0.0
H1247 H 0.39025 0.82399 0.39875 0.0
H1248 H 0.36888 0.76946 0.36055 0.0
C1249 C 0.34336 0.73535 0.44689 0.0
C1250 C 0.99193 0.60096 0.14182 0.0
C1251 C 0.02583 0.5876 0.1593 0.0
H1252 H 0.93663 0.62752 0.1493 0.0
C1253 C 0.0274 0.58664 0.19875 0.0
H1254 H 0.98964 0.60224 0.11151 0.0
C1255 C 0.99732 0.60152 0.22009 0.0
C1256 C 0.96475 0.6172 0.20257 0.0
H1257 H 0.05276 0.57634 0.21331 0.0
H1258 H 1.00005 0.60165 0.25041 0.0
C1259 C 0.96162 0.61567 0.16335 0.0
C1260 C 0.13859 0.22383 0.87628 0.0
C1261 C 0.1547 0.25542 0.89583 0.0
H1262 H 0.10958 0.16904 0.88071 0.0
C1263 C 0.15893 0.25277 0.93497 0.0
H1264 H 0.13502 0.22476 0.84608 0.0
C1265 C 0.14348 0.22172 0.95446 0.0
C1266 C 0.12441 0.19188 0.93535 0.0
H1267 H 0.17169 0.27604 0.95104 0.0
H1268 H 0.14524 0.22185 0.98485 0.0
C1269 C 0.12373 0.19206 0.89599 0.0
C1270 C 0.55518 0.38294 0.654 0.0
C1271 C 0.55433 0.37502 0.69262 0.0
H1272 H 0.52274 0.39865 0.60504 0.0
C1273 C 0.51979 0.37962 0.71231 0.0
H1274 H 0.58147 0.37921 0.63821 0.0
C1275 C 0.48635 0.39114 0.69366 0.0
C1276 C 0.48649 0.39777 0.65464 0.0
H1277 H 0.51858 0.37408 0.74224 0.0
H1278 H 0.46007 0.39339 0.70977 0.0
C1279 C 0.52151 0.39406 0.6351 0.0
C1280 C 0.11942 0.99299 0.3326 0.0
C1281 C 0.10329 0.02345 0.31233 0.0
H1282 H 0.15184 0.94144 0.32904 0.0
C1283 C 0.09622 0.01982 0.27377 0.0
H1284 H 0.12436 0.99501 0.36261 0.0
C1285 C 0.11238 0.9894 0.25433 0.0
C1286 C 0.13485 0.96253 0.27382 0.0
H1287 H 0.08274 0.04292 0.25811 0.0
H1288 H 0.10966 0.98862 0.22402 0.0
C1289 C 0.13593 0.96282 0.31322 0.0
C1290 C 0.2191 0.8572 0.51945 0.0
C1291 C 0.21799 0.86061 0.55872 0.0
H1292 H 0.25507 0.85764 0.47122 0.0
C1293 C 0.25098 0.85396 0.58021 0.0
H1294 H 0.19338 0.86009 0.50244 0.0
C1295 C 0.2861 0.85197 0.56233 0.0
C1296 C 0.28774 0.85703 0.52326 0.0
H1297 H 0.25033 0.85462 0.61063 0.0
H1298 H 0.31195 0.85103 0.57937 0.0
C1299 C 0.25425 0.85548 0.50157 0.0
C1300 C 0.41266 0.96674 0.77279 0.0
C1301 C 0.4051 0.96729 0.81151 0.0
H1302 H 0.4149 1.00098 0.72334 0.0
C1303 C 0.41135 1.00087 0.83234 0.0
H1304 H 0.41067 0.94036 0.75658 0.0
C1305 C 0.4147 0.03544 0.81331 0.0
C1306 C 0.41073 0.03549 0.77405 0.0
H1307 H 0.40797 1.00137 0.86259 0.0
H1308 H 0.4138 0.06196 0.82939 0.0
C1309 C 0.41547 1.00134 0.75377 0.0
C1310 C 0.20974 0.17407 0.05008 0.0
C1311 C 0.21062 0.16474 1.01169 0.0
H1312 H 0.24171 0.17077 0.10111 0.0
C1313 C 0.24539 0.16604 0.99218 0.0
H1314 H 0.18276 0.17628 0.06513 0.0
C1315 C 0.27912 0.16367 1.01268 0.0
C1316 C 0.27688 0.16002 0.05194 0.0
H1317 H 0.24657 0.16167 0.96207 0.0
H1318 H 0.30571 0.15849 0.99768 0.0
C1319 C 0.24334 0.17077 0.07072 0.0
C1320 C 0.9066 0.03441 0.76696 0.0
C1321 C 0.90303 0.03311 0.80624 0.0
H1322 H 0.90307 1.00122 0.71681 0.0
C1323 C 0.91058 0.99895 0.82566 0.0
H1324 H 0.90349 0.06118 0.75155 0.0
C1325 C 0.91126 0.96481 0.80567 0.0
C1326 C 0.90368 0.96573 0.76697 0.0
H1327 H 0.91027 0.99778 0.85607 0.0
H1328 H 0.91132 0.93793 0.82112 0.0
C1329 C 0.9068 1.00023 0.74702 0.0
C1330 C 0.70717 0.17299 0.52793 0.0
C1331 C 0.71003 0.16513 0.56653 0.0
H1332 H 0.73895 0.17664 0.47709 0.0
C1333 C 0.74374 0.17411 0.58603 0.0
H1334 H 0.68035 0.16915 0.5128 0.0
C1335 C 0.77704 0.17987 0.56555 0.0
C1336 C 0.77565 0.17479 0.52637 0.0
H1337 H 0.74581 0.17066 0.61621 0.0
H1338 H 0.8041 0.18058 0.58069 0.0
C1339 C 0.74056 0.17775 0.50747 0.0
C1340 C 0.60107 1.00148 0.25474 0.0
C1341 C 0.59191 0.0343 0.27566 0.0
H1342 H 0.62717 0.94631 0.25649 0.0
C1343 C 0.58798 0.03185 0.31479 0.0
H1344 H 0.60265 1.00226 0.22435 0.0
C1345 C 0.60278 1.00011 0.33335 0.0
C1346 C 0.62018 0.97081 0.31241 0.0
H1347 H 0.57911 0.05658 0.33125 0.0
H1348 H 0.60377 1.0003 0.36377 0.0
C1349 C 0.61591 0.9698 0.27321 0.0
C1350 C 0.75015 0.87183 1.00878 0.0
C1351 C 0.71929 0.88709 1.02901 0.0
H1352 H 0.80854 0.85399 1.01136 0.0
C1353 C 0.71986 0.88725 0.06844 0.0
H1354 H 0.74956 0.86974 0.97842 0.0
C1355 C 0.75331 0.87781 0.08722 0.0
C1356 C 0.78603 0.86867 0.06638 0.0
H1357 H 0.69556 0.89725 0.08475 0.0
H1358 H 0.75461 0.88199 0.11736 0.0
C1359 C 0.78355 0.86231 1.02759 0.0
C1360 C 0.59899 0.53886 0.77864 0.0
C1361 C 0.60488 0.54088 0.81754 0.0
H1362 H 0.60865 0.50541 0.72947 0.0
C1363 C 0.61079 0.50741 0.83852 0.0
H1364 H 0.59243 0.56442 0.76233 0.0
C1365 C 0.62091 0.47414 0.81987 0.0
C1366 C 0.6235 0.47447 0.78055 0.0
H1367 H 0.61372 0.50817 0.86883 0.0
H1368 H 0.63002 0.44957 0.83639 0.0
C1369 C 0.60902 0.50553 0.7599 0.0
C1370 C 0.74912 0.35298 1.00789 0.0
C1371 C 0.78262 0.35321 1.02966 0.0
H1372 H 0.68928 0.36501 1.00761 0.0
C1373 C 0.78042 0.35175 0.06896 0.0
H1374 H 0.75012 0.35213 0.97749 0.0
C1375 C 0.74584 0.35994 0.08617 0.0
C1376 C 0.71392 0.36855 0.06378 0.0
H1377 H 0.80604 0.34977 0.08626 0.0
H1378 H 0.74525 0.36351 0.1164 0.0
C1379 C 0.71451 0.36098 1.02508 0.0
C1380 C 0.92535 0.52678 0.31226 0.0
C1381 C 0.92168 0.52806 0.27304 0.0
H1382 H 0.9001 0.50338 0.36188 0.0
C1383 C 0.911 0.49457 0.2539 0.0
H1384 H 0.93736 0.55101 0.32755 0.0
C1385 C 0.88851 0.46811 0.27289 0.0
C1386 C 0.88086 0.47384 0.31129 0.0
H1387 H 0.91177 0.49316 0.22349 0.0
H1388 H 0.8749 0.44526 0.25691 0.0
C1389 C 0.90277 0.50059 0.33169 0.0
C1390 C 0.72353 0.66859 0.56451 0.0
C1391 C 0.72415 0.66235 0.52554 0.0
H1392 H 0.75623 0.6634 0.61487 0.0
C1393 C 0.75871 0.66505 0.50581 0.0
H1394 H 0.6967 0.66934 0.57995 0.0
C1395 C 0.7927 0.66223 0.52577 0.0
C1396 C 0.7911 0.65668 0.5648 0.0
H1397 H 0.75962 0.6627 0.47547 0.0
H1398 H 0.81925 0.65856 0.51027 0.0
C1399 C 0.75747 0.66516 0.58451 0.0
C1400 C 0.41364 0.49768 0.33118 0.0
C1401 C 0.41649 0.53224 0.31126 0.0
H1402 H 0.39538 0.43936 0.32776 0.0
C1403 C 0.42114 0.53157 0.2721 0.0
H1404 H 0.41256 0.49724 0.3616 0.0
C1405 C 0.40999 0.4989 0.25262 0.0
C1406 C 0.39632 0.46728 0.27294 0.0
H1407 H 0.42612 0.55788 0.2564 0.0
H1408 H 0.40759 0.50024 0.2223 0.0
C1409 C 0.40296 0.46486 0.3118 0.0
C1410 C 0.252 0.6601 0.99746 0.0
C1411 C 0.28631 0.66074 1.01793 0.0
H1412 H 0.19215 0.64854 1.00095 0.0
C1413 C 0.28577 0.66823 0.05666 0.0
H1414 H 0.25184 0.65672 0.9672 0.0
C1415 C 0.25184 0.66266 0.07608 0.0
C1416 C 0.21934 0.65079 0.05601 0.0
H1417 H 0.31221 0.67147 0.07255 0.0
H1418 H 0.25266 0.66202 0.1065 0.0
C1419 C 0.21799 0.65496 1.01682 0.0
C1420 C 0.09793 0.47585 0.77878 0.0
C1421 C 0.1073 0.47235 0.81689 0.0
H1422 H 0.11137 0.50473 0.72777 0.0
C1423 C 0.12453 0.503 0.83603 0.0
H1424 H 0.08293 0.45291 0.7641 0.0
C1425 C 0.14212 0.53159 0.81535 0.0
C1426 C 0.14018 0.53046 0.77597 0.0
H1427 H 0.13043 0.50155 0.86591 0.0
H1428 H 0.15924 0.55289 0.83013 0.0
C1429 C 0.11536 0.50452 0.75796 0.0
C1430 C 0.21118 0.34457 0.55522 0.0
C1431 C 0.20993 0.35046 0.51623 0.0
H1432 H 0.24602 0.34862 0.60431 0.0
C1433 C 0.24377 0.35016 0.49519 0.0
H1434 H 0.18506 0.34266 0.57169 0.0
C1435 C 0.27852 0.3534 0.5138 0.0
C1436 C 0.27886 0.35679 0.55313 0.0
H1437 H 0.24335 0.35297 0.46488 0.0
H1438 H 0.30432 0.35757 0.49726 0.0
C1439 C 0.24588 0.34822 0.57388 0.0
C1440 C 0.09851 0.16557 0.13312 0.0
C1441 C 0.08186 0.13036 0.12144 0.0
H1442 H 0.11954 0.19979 0.17945 0.0
C1443 C 0.07237 0.10294 0.14867 0.0
H1444 H 0.10677 0.18707 0.1126 0.0
C1445 C 0.07895 0.11064 0.18674 0.0
C1446 C 0.09635 0.14541 0.19852 0.0
H1447 H 0.05999 0.07549 0.14055 0.0
H1448 H 0.07104 0.08879 0.207 0.0
C1449 C 0.10618 0.17283 0.17129 0.0
C1450 C 0.09059 0.88919 0.42256 0.0
C1451 C 0.10225 0.8637 0.45082 0.0
H1452 H 0.09258 0.90363 0.36422 0.0
C1453 C 0.12559 0.83196 0.44078 0.0
H1454 H 0.07304 0.91401 0.42931 0.0
C1455 C 0.13757 0.82626 0.40348 0.0
C1456 C 0.12605 0.85192 0.37527 0.0
H1457 H 0.13549 0.81191 0.46201 0.0
H1458 H 0.15591 0.802 0.39681 0.0
C1459 C 0.10208 0.88319 0.38526 0.0
C1460 C 0.36207 0.8805 0.68408 0.0
C1461 C 0.37715 0.84808 0.70267 0.0
H1462 H 0.36468 0.91815 0.63664 0.0
C1463 C 0.40813 0.82844 0.68587 0.0
H1464 H 0.33868 0.89682 0.69631 0.0
C1465 C 0.42311 0.84071 0.651 0.0
C1466 C 0.40807 0.87347 0.63276 0.0
H1467 H 0.42086 0.80375 0.69973 0.0
H1468 H 0.44623 0.82447 0.63823 0.0
C1469 C 0.37749 0.89319 0.64998 0.0
C1470 C 0.40299 0.17204 0.89955 0.0
C1471 C 0.3727 0.15337 0.88047 0.0
H1472 H 0.43773 0.17464 0.94983 0.0
C1473 C 0.35537 0.1213 0.89773 0.0
H1474 H 0.4174 0.19642 0.8868 0.0
C1475 C 0.36794 0.108 0.93272 0.0
C1476 C 0.39782 0.12672 0.9522 0.0
H1477 H 0.33237 0.10575 0.88381 0.0
H1478 H 0.35345 0.08336 0.94493 0.0
C1479 C 0.4151 0.15914 0.93532 0.0
C1480 C 0.91727 0.87179 0.88872 0.0
C1481 C 0.88649 0.84749 0.87797 0.0
H1482 H 0.94936 0.8976 0.93401 0.0
C1483 C 0.86537 0.82892 0.90607 0.0
H1484 H 0.93415 0.88669 0.86771 0.0
C1485 C 0.87476 0.83465 0.94403 0.0
C1486 C 0.90495 0.85967 0.95479 0.0
H1487 H 0.84153 0.81023 0.89877 0.0
H1488 H 0.85765 0.82005 0.96506 0.0
C1489 C 0.92615 0.87815 0.92669 0.0
C1490 C 0.90267 0.17351 0.68673 0.0
C1491 C 0.86968 0.15852 0.70446 0.0
H1492 H 0.93801 0.17395 0.63694 0.0
C1493 C 0.84723 0.1315 0.68473 0.0
H1494 H 0.92093 0.19392 0.70134 0.0
C1495 C 0.85766 0.1192 0.64873 0.0
C1496 C 0.8906 0.1339 0.63088 0.0
H1497 H 0.82191 0.11892 0.69751 0.0
H1498 H 0.83945 0.09832 0.63467 0.0
C1499 C 0.91281 0.16161 0.65011 0.0
C1500 C 0.57066 0.15717 0.44195 0.0
C1501 C 0.59222 0.12721 0.45842 0.0
H1502 H 0.56286 0.19409 0.39372 0.0
C1503 C 0.62403 0.11275 0.43862 0.0
H1504 H 0.54638 0.1694 0.45672 0.0
C1505 C 0.63425 0.12776 0.40359 0.0
C1506 C 0.61262 0.15731 0.38669 0.0
H1507 H 0.64173 0.09014 0.45054 0.0
H1508 H 0.65884 0.11543 0.38933 0.0
C1509 C 0.58051 0.17178 0.40619 0.0
C1510 C 0.58473 0.89107 0.15936 0.0
C1511 C 0.60538 0.87316 0.13053 0.0
H1512 H 0.57731 0.89794 0.21869 0.0
C1513 C 0.63481 0.8469 0.14043 0.0
H1514 H 0.56217 0.91151 0.1528 0.0
C1515 C 0.64393 0.83934 0.17817 0.0
C1516 C 0.62354 0.85754 0.207 0.0
H1517 H 0.65156 0.83268 0.11888 0.0
H1518 H 0.6672 0.81972 0.18472 0.0
C1519 C 0.59355 0.88317 0.19712 0.0
C1520 C 0.64623 0.62623 0.68787 0.0
C1521 C 0.62922 0.65891 0.70433 0.0
H1522 H 0.64793 0.58711 0.64144 0.0
C1523 C 0.59908 0.6772 0.68475 0.0
H1524 H 0.66904 0.61087 0.70224 0.0
C1525 C 0.58688 0.66344 0.64928 0.0
C1526 C 0.60399 0.63057 0.63307 0.0
H1527 H 0.5849 0.70205 0.69684 0.0
H1528 H 0.56441 0.67873 0.63439 0.0
C1529 C 0.63366 0.61215 0.65307 0.0
C1530 C 0.58324 0.39446 0.88817 0.0
C1531 C 0.60363 0.36049 0.8792 0.0
H1532 H 0.55991 0.43091 0.93145 0.0
C1533 C 0.61346 0.33537 0.90862 0.0
H1534 H 0.57507 0.41453 0.86629 0.0
C1535 C 0.60308 0.34411 0.94597 0.0
C1536 C 0.58381 0.37874 0.95488 0.0
H1537 H 0.62916 0.3091 0.90281 0.0
H1538 H 0.6115 0.32444 0.96814 0.0
C1539 C 0.57427 0.40388 0.92552 0.0
C1540 C 0.91956 0.34783 0.15736 0.0
C1541 C 0.90312 0.3785 0.137 0.0
H1542 H 0.91832 0.3139 0.20816 0.0
C1543 C 0.87119 0.39756 0.15258 0.0
H1544 H 0.94377 0.33215 0.14593 0.0
C1545 C 0.85573 0.38612 0.18706 0.0
C1546 C 0.87216 0.35578 0.2077 0.0
H1547 H 0.85733 0.42096 0.13764 0.0
H1548 H 0.83125 0.40181 0.19796 0.0
C1549 C 0.90458 0.33697 0.19266 0.0
C1550 C 0.87058 0.61509 0.40435 0.0
C1551 C 0.88822 0.64702 0.38715 0.0
H1552 H 0.86765 0.5777 0.45195 0.0
C1553 C 0.91816 0.66586 0.40657 0.0
H1554 H 0.84784 0.59942 0.39014 0.0
C1555 C 0.92961 0.65328 0.44263 0.0
C1556 C 0.91188 0.62113 0.45955 0.0
H1557 H 0.93279 0.69014 0.39387 0.0
H1558 H 0.95198 0.66891 0.4574 0.0
C1559 C 0.88239 0.6022 0.43973 0.0
C1560 C 0.35479 0.38093 0.39629 0.0
C1561 C 0.3698 0.34865 0.37743 0.0
H1562 H 0.35694 0.41773 0.44447 0.0
C1563 C 0.40026 0.3284 0.39461 0.0
H1564 H 0.33183 0.39774 0.38383 0.0
C1565 C 0.41467 0.33984 0.4301 0.0
C1566 C 0.3997 0.37247 0.44863 0.0
H1567 H 0.41294 0.30378 0.38064 0.0
H1568 H 0.43735 0.32311 0.44309 0.0
C1569 C 0.36971 0.39284 0.43099 0.0
C1570 C 0.41453 0.67212 0.18401 0.0
C1571 C 0.38322 0.65438 0.20218 0.0
H1572 H 0.44989 0.67431 0.13431 0.0
C1573 C 0.3644 0.62379 0.18384 0.0
H1574 H 0.43004 0.69533 0.19765 0.0
C1575 C 0.3766 0.61089 0.14867 0.0
C1576 C 0.40759 0.62861 0.13018 0.0
H1577 H 0.34052 0.60903 0.19706 0.0
H1578 H 0.36104 0.58735 0.13561 0.0
C1579 C 0.42634 0.65963 0.1481 0.0
C1580 C 0.09979 0.60674 0.88444 0.0
C1581 C 0.12135 0.63935 0.87331 0.0
H1582 H 0.07554 0.57406 0.93013 0.0
C1583 C 0.13334 0.66539 0.90105 0.0
H1584 H 0.09018 0.58594 0.86375 0.0
C1585 C 0.12406 0.65897 0.93893 0.0
C1586 C 0.10327 0.62592 0.95022 0.0
H1587 H 0.14996 0.69065 0.89352 0.0
H1588 H 0.13415 0.67958 0.95959 0.0
C1589 C 0.09123 0.59986 0.92247 0.0
C1590 C 0.08529 0.33603 0.67942 0.0
C1591 C 0.11722 0.35285 0.69754 0.0
H1592 H 0.04849 0.33585 0.63054 0.0
C1593 C 0.13546 0.38426 0.68 0.0
H1594 H 0.07019 0.31221 0.69241 0.0
C1595 C 0.12228 0.39857 0.64554 0.0
C1596 C 0.09075 0.38162 0.62702 0.0
H1597 H 0.15974 0.39841 0.69324 0.0
H1598 H 0.13754 0.42254 0.63297 0.0
C1599 C 0.07244 0.35001 0.6443 0.0
loop_
_geom_bond_atom_site_label_1
_geom_bond_atom_site_label_2
_geom_bond_distance
_geom_bond_site_symmetry_2
_ccdc_geom_bond_type
Tb0 O3 2.453 . S
Tb0 O4 2.596 . S
Tb0 O5 2.374 . S
Tb0 O13 2.343 . S
Tb0 O15 2.353 . S
Tb0 O17 2.427 . S
Tb0 O18 2.513 . S
C1 O5 1.251 . S
C1 O7 1.263 . S
Tb2 O4 2.343 . S
Tb2 O7 2.353 . S
Tb2 O10 2.427 . S
Tb2 O11 2.513 . S
Tb2 O12 2.453 . S
Tb2 O13 2.596 . S
Tb2 O14 2.374 . S
O3 Tb0 2.453 . S
O3 C19 1.245 . S
O4 Tb0 2.596 . S
O4 Tb2 2.343 . S
O4 C19 1.259 . S
O5 Tb0 2.374 . S
O5 C1 1.251 . S
C6 O10 1.275 . S
C6 O11 1.246 . S
O7 C1 1.263 . S
O7 Tb2 2.353 . S
C8 O12 1.245 . S
C8 O13 1.259 . S
C9 O14 1.250 . S
C9 O15 1.263 . S
O10 Tb2 2.427 . S
O10 C6 1.275 . S
O11 Tb2 2.513 . S
O11 C6 1.246 . S
O12 Tb2 2.453 . S
O12 C8 1.245 . S
O13 Tb0 2.343 . S
O13 Tb2 2.596 . S
O13 C8 1.259 . S
O14 Tb2 2.374 . S
O14 C9 1.250 . S
O15 Tb0 2.353 . S
O15 C9 1.263 . S
C16 O17 1.275 . S
C16 O18 1.246 . S
O17 Tb0 2.427 . S
O17 C16 1.275 . S
O18 Tb0 2.513 . S
O18 C16 1.246 . S
C19 O3 1.245 . S
C19 O4 1.259 . S
Tb20 O23 2.453 . S
Tb20 O24 2.596 . S
Tb20 O25 2.374 . S
Tb20 O33 2.343 . S
Tb20 O35 2.353 . S
Tb20 O37 2.427 . S
Tb20 O38 2.513 . S
C21 O25 1.251 . S
C21 O27 1.263 . S
Tb22 O24 2.343 . S
Tb22 O27 2.353 . S
Tb22 O30 2.427 . S
Tb22 O31 2.513 . S
Tb22 O32 2.453 . S
Tb22 O33 2.596 . S
Tb22 O34 2.374 . S
O23 Tb20 2.453 . S
O23 C39 1.245 . S
O24 Tb20 2.596 . S
O24 Tb22 2.343 . S
O24 C39 1.259 . S
O25 Tb20 2.374 . S
O25 C21 1.251 . S
C26 O30 1.275 . S
C26 O31 1.246 . S
O27 C21 1.263 . S
O27 Tb22 2.353 . S
C28 O32 1.245 . S
C28 O33 1.259 . S
C29 O34 1.250 . S
C29 O35 1.263 . S
O30 Tb22 2.427 . S
O30 C26 1.275 . S
O31 Tb22 2.513 . S
O31 C26 1.246 . S
O32 Tb22 2.453 . S
O32 C28 1.245 . S
O33 Tb20 2.343 . S
O33 Tb22 2.596 . S
O33 C28 1.259 . S
O34 Tb22 2.374 . S
O34 C29 1.250 . S
O35 Tb20 2.353 . S
O35 C29 1.263 . S
C36 O37 1.275 . S
C36 O38 1.246 . S
O37 Tb20 2.427 . S
O37 C36 1.275 . S
O38 Tb20 2.513 . S
O38 C36 1.246 . S
C39 O23 1.245 . S
C39 O24 1.259 . S
Tb40 O43 2.453 . S
Tb40 O44 2.596 . S
Tb40 O45 2.374 . S
Tb40 O53 2.343 . S
Tb40 O55 2.353 . S
Tb40 O57 2.427 . S
Tb40 O58 2.513 . S
C41 O45 1.251 . S
C41 O47 1.263 . S
Tb42 O44 2.343 . S
Tb42 O47 2.353 . S
Tb42 O50 2.427 . S
Tb42 O51 2.513 . S
Tb42 O52 2.453 . S
Tb42 O53 2.596 . S
Tb42 O54 2.374 . S
O43 Tb40 2.453 . S
O43 C59 1.245 . S
O44 Tb40 2.596 . S
O44 Tb42 2.343 . S
O44 C59 1.259 . S
O45 Tb40 2.374 . S
O45 C41 1.251 . S
C46 O50 1.275 . S
C46 O51 1.246 . S
O47 C41 1.263 . S
O47 Tb42 2.353 . S
C48 O52 1.245 . S
C48 O53 1.259 . S
C49 O54 1.250 . S
C49 O55 1.263 . S
O50 Tb42 2.427 . S
O50 C46 1.275 . S
O51 Tb42 2.513 . S
O51 C46 1.246 . S
O52 Tb42 2.453 . S
O52 C48 1.245 . S
O53 Tb40 2.343 . S
O53 Tb42 2.596 . S
O53 C48 1.259 . S
O54 Tb42 2.374 . S
O54 C49 1.250 . S
O55 Tb40 2.353 . S
O55 C49 1.263 . S
C56 O57 1.275 . S
C56 O58 1.246 . S
O57 Tb40 2.427 . S
O57 C56 1.275 . S
O58 Tb40 2.513 . S
O58 C56 1.246 . S
C59 O43 1.245 . S
C59 O44 1.259 . S
Tb60 O63 2.453 . S
Tb60 O64 2.596 . S
Tb60 O65 2.374 . S
Tb60 O73 2.343 . S
Tb60 O75 2.353 . S
Tb60 O77 2.427 1_554 S
Tb60 O78 2.513 1_554 S
C61 O65 1.251 . S
C61 O67 1.263 . S
Tb62 O64 2.343 . S
Tb62 O67 2.353 . S
Tb62 O70 2.427 . S
Tb62 O71 2.513 . S
Tb62 O72 2.453 . S
Tb62 O73 2.596 . S
Tb62 O74 2.374 . S
O63 Tb60 2.453 . S
O63 C79 1.245 . S
O64 Tb60 2.596 . S
O64 Tb62 2.343 . S
O64 C79 1.259 . S
O65 Tb60 2.374 . S
O65 C61 1.251 . S
C66 O70 1.275 . S
C66 O71 1.246 . S
O67 C61 1.263 . S
O67 Tb62 2.353 . S
C68 O72 1.245 . S
C68 O73 1.259 . S
C69 O74 1.250 . S
C69 O75 1.263 . S
O70 Tb62 2.427 . S
O70 C66 1.275 . S
O71 Tb62 2.513 . S
O71 C66 1.246 . S
O72 Tb62 2.453 . S
O72 C68 1.245 . S
O73 Tb60 2.343 . S
O73 Tb62 2.596 . S
O73 C68 1.259 . S
O74 Tb62 2.374 . S
O74 C69 1.250 . S
O75 Tb60 2.353 . S
O75 C69 1.263 . S
C76 O77 1.275 . S
C76 O78 1.246 . S
O77 Tb60 2.427 1_556 S
O77 C76 1.275 . S
O78 Tb60 2.513 1_556 S
O78 C76 1.246 . S
C79 O63 1.245 . S
C79 O64 1.259 . S
Tb80 O83 2.453 . S
Tb80 O84 2.596 . S
Tb80 O85 2.374 . S
Tb80 O93 2.343 . S
Tb80 O95 2.353 . S
Tb80 O97 2.427 . S
Tb80 O98 2.513 . S
C81 O85 1.251 . S
C81 O87 1.263 . S
Tb82 O84 2.343 . S
Tb82 O87 2.353 . S
Tb82 O90 2.427 . S
Tb82 O91 2.513 . S
Tb82 O92 2.453 . S
Tb82 O93 2.596 . S
Tb82 O94 2.374 . S
O83 Tb80 2.453 . S
O83 C99 1.245 . S
O84 Tb80 2.596 . S
O84 Tb82 2.343 . S
O84 C99 1.259 . S
O85 Tb80 2.374 . S
O85 C81 1.251 . S
C86 O90 1.275 . S
C86 O91 1.246 . S
O87 C81 1.263 . S
O87 Tb82 2.353 . S
C88 O92 1.245 . S
C88 O93 1.259 . S
C89 O94 1.250 . S
C89 O95 1.263 . S
O90 Tb82 2.427 . S
O90 C86 1.275 . S
O91 Tb82 2.513 . S
O91 C86 1.246 . S
O92 Tb82 2.453 . S
O92 C88 1.245 . S
O93 Tb80 2.343 . S
O93 Tb82 2.596 . S
O93 C88 1.259 . S
O94 Tb82 2.374 . S
O94 C89 1.250 . S
O95 Tb80 2.353 . S
O95 C89 1.263 . S
C96 O97 1.275 . S
C96 O98 1.246 . S
O97 Tb80 2.427 . S
O97 C96 1.275 . S
O98 Tb80 2.513 . S
O98 C96 1.246 . S
C99 O83 1.245 . S
C99 O84 1.259 . S
Tb100 O103 2.453 . S
Tb100 O104 2.596 . S
Tb100 O105 2.374 . S
Tb100 O113 2.343 . S
Tb100 O115 2.353 . S
Tb100 O117 2.427 . S
Tb100 O118 2.513 . S
C101 O105 1.251 . S
C101 O107 1.263 . S
Tb102 O104 2.343 . S
Tb102 O107 2.353 . S
Tb102 O110 2.427 . S
Tb102 O111 2.513 . S
Tb102 O112 2.453 . S
Tb102 O113 2.596 . S
Tb102 O114 2.374 . S
O103 Tb100 2.453 . S
O103 C119 1.245 . S
O104 Tb100 2.596 . S
O104 Tb102 2.343 . S
O104 C119 1.259 . S
O105 Tb100 2.374 . S
O105 C101 1.251 . S
C106 O110 1.275 . S
C106 O111 1.246 . S
O107 C101 1.263 . S
O107 Tb102 2.353 . S
C108 O112 1.245 . S
C108 O113 1.259 . S
C109 O114 1.250 . S
C109 O115 1.263 . S
O110 Tb102 2.427 . S
O110 C106 1.275 . S
O111 Tb102 2.513 . S
O111 C106 1.246 . S
O112 Tb102 2.453 . S
O112 C108 1.245 . S
O113 Tb100 2.343 . S
O113 Tb102 2.596 . S
O113 C108 1.259 . S
O114 Tb102 2.374 . S
O114 C109 1.250 . S
O115 Tb100 2.353 . S
O115 C109 1.263 . S
C116 O117 1.275 . S
C116 O118 1.246 . S
O117 Tb100 2.427 . S
O117 C116 1.275 . S
O118 Tb100 2.513 . S
O118 C116 1.246 . S
C119 O103 1.245 . S
C119 O104 1.259 . S
Tb120 O123 2.453 . S
Tb120 O124 2.596 . S
Tb120 O125 2.374 . S
Tb120 O133 2.343 . S
Tb120 O135 2.353 . S
Tb120 O137 2.427 . S
Tb120 O138 2.513 . S
C121 O125 1.251 . S
C121 O127 1.263 . S
Tb122 O124 2.343 . S
Tb122 O127 2.353 . S
Tb122 O130 2.427 . S
Tb122 O131 2.513 . S
Tb122 O132 2.453 . S
Tb122 O133 2.596 . S
Tb122 O134 2.374 . S
O123 Tb120 2.453 . S
O123 C139 1.245 . S
O124 Tb120 2.596 . S
O124 Tb122 2.343 . S
O124 C139 1.259 . S
O125 Tb120 2.374 . S
O125 C121 1.251 . S
C126 O130 1.275 . S
C126 O131 1.246 . S
O127 C121 1.263 . S
O127 Tb122 2.353 . S
C128 O132 1.245 . S
C128 O133 1.259 . S
C129 O134 1.250 . S
C129 O135 1.263 . S
O130 Tb122 2.427 . S
O130 C126 1.275 . S
O131 Tb122 2.513 . S
O131 C126 1.246 . S
O132 Tb122 2.453 . S
O132 C128 1.245 . S
O133 Tb120 2.343 . S
O133 Tb122 2.596 . S
O133 C128 1.259 . S
O134 Tb122 2.374 . S
O134 C129 1.250 . S
O135 Tb120 2.353 . S
O135 C129 1.263 . S
C136 O137 1.275 . S
C136 O138 1.246 . S
O137 Tb120 2.427 . S
O137 C136 1.275 . S
O138 Tb120 2.513 . S
O138 C136 1.246 . S
C139 O123 1.245 . S
C139 O124 1.259 . S
Tb140 O143 2.453 . S
Tb140 O144 2.596 . S
Tb140 O145 2.374 . S
Tb140 O153 2.343 . S
Tb140 O155 2.353 . S
Tb140 O157 2.427 1_556 S
Tb140 O158 2.513 1_556 S
C141 O145 1.251 . S
C141 O147 1.263 . S
Tb142 O144 2.343 . S
Tb142 O147 2.353 . S
Tb142 O150 2.427 . S
Tb142 O151 2.513 . S
Tb142 O152 2.453 . S
Tb142 O153 2.596 . S
Tb142 O154 2.374 . S
O143 Tb140 2.453 . S
O143 C159 1.245 . S
O144 Tb140 2.596 . S
O144 Tb142 2.343 . S
O144 C159 1.259 . S
O145 Tb140 2.374 . S
O145 C141 1.251 . S
C146 O150 1.275 . S
C146 O151 1.246 . S
O147 C141 1.263 . S
O147 Tb142 2.353 . S
C148 O152 1.245 . S
C148 O153 1.259 . S
C149 O154 1.250 . S
C149 O155 1.263 . S
O150 Tb142 2.427 . S
O150 C146 1.275 . S
O151 Tb142 2.513 . S
O151 C146 1.246 . S
O152 Tb142 2.453 . S
O152 C148 1.245 . S
O153 Tb140 2.343 . S
O153 Tb142 2.596 . S
O153 C148 1.259 . S
O154 Tb142 2.374 . S
O154 C149 1.250 . S
O155 Tb140 2.353 . S
O155 C149 1.263 . S
C156 O157 1.275 . S
C156 O158 1.246 . S
O157 Tb140 2.427 1_554 S
O157 C156 1.275 . S
O158 Tb140 2.513 1_554 S
O158 C156 1.246 . S
C159 O143 1.245 . S
C159 O144 1.259 . S
Tb160 O163 2.453 . S
Tb160 O164 2.596 . S
Tb160 O165 2.374 . S
Tb160 O173 2.343 . S
Tb160 O175 2.353 . S
Tb160 O177 2.427 . S
Tb160 O178 2.513 . S
C161 O165 1.251 . S
C161 O167 1.263 . S
Tb162 O164 2.343 . S
Tb162 O167 2.353 . S
Tb162 O170 2.427 . S
Tb162 O171 2.513 . S
Tb162 O172 2.453 . S
Tb162 O173 2.596 . S
Tb162 O174 2.374 . S
O163 Tb160 2.453 . S
O163 C179 1.245 . S
O164 Tb160 2.596 . S
O164 Tb162 2.343 . S
O164 C179 1.259 . S
O165 Tb160 2.374 . S
O165 C161 1.251 . S
C166 O170 1.275 . S
C166 O171 1.246 . S
O167 C161 1.263 . S
O167 Tb162 2.353 . S
C168 O172 1.245 . S
C168 O173 1.259 . S
C169 O174 1.250 . S
C169 O175 1.263 . S
O170 Tb162 2.427 . S
O170 C166 1.275 . S
O171 Tb162 2.513 . S
O171 C166 1.246 . S
O172 Tb162 2.453 . S
O172 C168 1.245 . S
O173 Tb160 2.343 . S
O173 Tb162 2.596 . S
O173 C168 1.259 . S
O174 Tb162 2.374 . S
O174 C169 1.250 . S
O175 Tb160 2.353 . S
O175 C169 1.263 . S
C176 O177 1.275 . S
C176 O178 1.246 . S
O177 Tb160 2.427 . S
O177 C176 1.275 . S
O178 Tb160 2.513 . S
O178 C176 1.246 . S
C179 O163 1.245 . S
C179 O164 1.259 . S
Tb180 O183 2.453 . S
Tb180 O184 2.596 . S
Tb180 O185 2.374 . S
Tb180 O193 2.343 . S
Tb180 O195 2.353 . S
Tb180 O197 2.427 . S
Tb180 O198 2.513 . S
C181 O185 1.251 . S
C181 O187 1.263 . S
Tb182 O184 2.343 . S
Tb182 O187 2.353 . S
Tb182 O190 2.427 . S
Tb182 O191 2.513 . S
Tb182 O192 2.453 . S
Tb182 O193 2.596 . S
Tb182 O194 2.374 . S
O183 Tb180 2.453 . S
O183 C199 1.245 . S
O184 Tb180 2.596 . S
O184 Tb182 2.343 . S
O184 C199 1.259 . S
O185 Tb180 2.374 . S
O185 C181 1.251 . S
C186 O190 1.275 . S
C186 O191 1.246 . S
O187 C181 1.263 . S
O187 Tb182 2.353 . S
C188 O192 1.245 . S
C188 O193 1.259 . S
C189 O194 1.250 . S
C189 O195 1.263 . S
O190 Tb182 2.427 . S
O190 C186 1.275 . S
O191 Tb182 2.513 . S
O191 C186 1.246 . S
O192 Tb182 2.453 . S
O192 C188 1.245 . S
O193 Tb180 2.343 . S
O193 Tb182 2.596 . S
O193 C188 1.259 . S
O194 Tb182 2.374 . S
O194 C189 1.250 . S
O195 Tb180 2.353 . S
O195 C189 1.263 . S
C196 O197 1.275 . S
C196 O198 1.246 . S
O197 Tb180 2.427 . S
O197 C196 1.275 . S
O198 Tb180 2.513 . S
O198 C196 1.246 . S
C199 O183 1.245 . S
C199 O184 1.259 . S
Tb200 O203 2.453 . S
Tb200 O204 2.596 . S
Tb200 O205 2.374 . S
Tb200 O213 2.343 . S
Tb200 O215 2.353 . S
Tb200 O217 2.427 . S
Tb200 O218 2.513 . S
C201 O205 1.251 . S
C201 O207 1.263 . S
Tb202 O204 2.343 . S
Tb202 O207 2.353 . S
Tb202 O210 2.427 . S
Tb202 O211 2.513 . S
Tb202 O212 2.453 . S
Tb202 O213 2.596 . S
Tb202 O214 2.374 . S
O203 Tb200 2.453 . S
O203 C219 1.245 . S
O204 Tb200 2.596 . S
O204 Tb202 2.343 . S
O204 C219 1.259 . S
O205 Tb200 2.374 . S
O205 C201 1.251 . S
C206 O210 1.275 . S
C206 O211 1.246 . S
O207 C201 1.263 . S
O207 Tb202 2.353 . S
C208 O212 1.245 . S
C208 O213 1.259 . S
C209 O214 1.250 . S
C209 O215 1.263 . S
O210 Tb202 2.427 . S
O210 C206 1.275 . S
O211 Tb202 2.513 . S
O211 C206 1.246 . S
O212 Tb202 2.453 . S
O212 C208 1.245 . S
O213 Tb200 2.343 . S
O213 Tb202 2.596 . S
O213 C208 1.259 . S
O214 Tb202 2.374 . S
O214 C209 1.250 . S
O215 Tb200 2.353 . S
O215 C209 1.263 . S
C216 O217 1.275 . S
C216 O218 1.246 . S
O217 Tb200 2.427 . S
O217 C216 1.275 . S
O218 Tb200 2.513 . S
O218 C216 1.246 . S
C219 O203 1.245 . S
C219 O204 1.259 . S
Tb220 O223 2.453 . S
Tb220 O224 2.596 . S
Tb220 O225 2.374 . S
Tb220 O233 2.343 . S
Tb220 O235 2.353 . S
Tb220 O237 2.427 . S
Tb220 O238 2.513 . S
C221 O225 1.251 . S
C221 O227 1.263 . S
Tb222 O224 2.343 . S
Tb222 O227 2.353 . S
Tb222 O230 2.427 1_556 S
Tb222 O231 2.513 1_556 S
Tb222 O232 2.453 . S
Tb222 O233 2.596 . S
Tb222 O234 2.374 . S
O223 Tb220 2.453 . S
O223 C239 1.245 . S
O224 Tb220 2.596 . S
O224 Tb222 2.343 . S
O224 C239 1.259 . S
O225 Tb220 2.374 . S
O225 C221 1.251 . S
C226 O230 1.275 . S
C226 O231 1.246 . S
O227 C221 1.263 . S
O227 Tb222 2.353 . S
C228 O232 1.245 . S
C228 O233 1.259 . S
C229 O234 1.250 . S
C229 O235 1.263 . S
O230 Tb222 2.427 1_554 S
O230 C226 1.275 . S
O231 Tb222 2.513 1_554 S
O231 C226 1.246 . S
O232 Tb222 2.453 . S
O232 C228 1.245 . S
O233 Tb220 2.343 . S
O233 Tb222 2.596 . S
O233 C228 1.259 . S
O234 Tb222 2.374 . S
O234 C229 1.250 . S
O235 Tb220 2.353 . S
O235 C229 1.263 . S
C236 O237 1.275 . S
C236 O238 1.246 . S
O237 Tb220 2.427 . S
O237 C236 1.275 . S
O238 Tb220 2.513 . S
O238 C236 1.246 . S
C239 O223 1.245 . S
C239 O224 1.259 . S
Tb240 O243 2.453 . S
Tb240 O244 2.596 . S
Tb240 O245 2.374 . S
Tb240 O253 2.343 . S
Tb240 O255 2.353 . S
Tb240 O257 2.427 . S
Tb240 O258 2.513 . S
C241 O245 1.251 . S
C241 O247 1.263 . S
Tb242 O244 2.343 . S
Tb242 O247 2.353 . S
Tb242 O250 2.427 . S
Tb242 O251 2.513 . S
Tb242 O252 2.453 . S
Tb242 O253 2.596 . S
Tb242 O254 2.374 . S
O243 Tb240 2.453 . S
O243 C259 1.245 . S
O244 Tb240 2.596 . S
O244 Tb242 2.343 . S
O244 C259 1.259 . S
O245 Tb240 2.374 . S
O245 C241 1.251 . S
C246 O250 1.275 . S
C246 O251 1.246 . S
O247 C241 1.263 . S
O247 Tb242 2.353 . S
C248 O252 1.245 . S
C248 O253 1.259 . S
C249 O254 1.250 . S
C249 O255 1.263 . S
O250 Tb242 2.427 . S
O250 C246 1.275 . S
O251 Tb242 2.513 . S
O251 C246 1.246 . S
O252 Tb242 2.453 . S
O252 C248 1.245 . S
O253 Tb240 2.343 . S
O253 Tb242 2.596 . S
O253 C248 1.259 . S
O254 Tb242 2.374 . S
O254 C249 1.250 . S
O255 Tb240 2.353 . S
O255 C249 1.263 . S
C256 O257 1.275 . S
C256 O258 1.246 . S
O257 Tb240 2.427 . S
O257 C256 1.275 . S
O258 Tb240 2.513 . S
O258 C256 1.246 . S
C259 O243 1.245 . S
C259 O244 1.259 . S
Tb260 O263 2.453 . S
Tb260 O264 2.596 . S
Tb260 O265 2.374 . S
Tb260 O273 2.343 . S
Tb260 O275 2.353 . S
Tb260 O277 2.427 . S
Tb260 O278 2.513 . S
C261 O265 1.251 . S
C261 O267 1.263 . S
Tb262 O264 2.343 . S
Tb262 O267 2.353 . S
Tb262 O270 2.427 . S
Tb262 O271 2.513 . S
Tb262 O272 2.453 . S
Tb262 O273 2.596 . S
Tb262 O274 2.374 . S
O263 Tb260 2.453 . S
O263 C279 1.245 . S
O264 Tb260 2.596 . S
O264 Tb262 2.343 . S
O264 C279 1.259 . S
O265 Tb260 2.374 . S
O265 C261 1.251 . S
C266 O270 1.275 . S
C266 O271 1.246 . S
O267 C261 1.263 . S
O267 Tb262 2.353 . S
C268 O272 1.245 . S
C268 O273 1.259 . S
C269 O274 1.250 . S
C269 O275 1.263 . S
O270 Tb262 2.427 . S
O270 C266 1.275 . S
O271 Tb262 2.513 . S
O271 C266 1.246 . S
O272 Tb262 2.453 . S
O272 C268 1.245 . S
O273 Tb260 2.343 . S
O273 Tb262 2.596 . S
O273 C268 1.259 . S
O274 Tb262 2.374 . S
O274 C269 1.250 . S
O275 Tb260 2.353 . S
O275 C269 1.263 . S
C276 O277 1.275 . S
C276 O278 1.246 . S
O277 Tb260 2.427 . S
O277 C276 1.275 . S
O278 Tb260 2.513 . S
O278 C276 1.246 . S
C279 O263 1.245 . S
C279 O264 1.259 . S
Tb280 O283 2.453 . S
Tb280 O284 2.596 . S
Tb280 O285 2.374 . S
Tb280 O293 2.343 . S
Tb280 O295 2.353 . S
Tb280 O297 2.427 . S
Tb280 O298 2.513 . S
C281 O285 1.251 . S
C281 O287 1.263 . S
Tb282 O284 2.343 . S
Tb282 O287 2.353 . S
Tb282 O290 2.427 . S
Tb282 O291 2.513 . S
Tb282 O292 2.453 . S
Tb282 O293 2.596 . S
Tb282 O294 2.374 . S
O283 Tb280 2.453 . S
O283 C299 1.245 . S
O284 Tb280 2.596 . S
O284 Tb282 2.343 . S
O284 C299 1.259 . S
O285 Tb280 2.374 . S
O285 C281 1.251 . S
C286 O290 1.275 . S
C286 O291 1.246 . S
O287 C281 1.263 . S
O287 Tb282 2.353 . S
C288 O292 1.245 . S
C288 O293 1.259 . S
C289 O294 1.250 . S
C289 O295 1.263 . S
O290 Tb282 2.427 . S
O290 C286 1.275 . S
O291 Tb282 2.513 . S
O291 C286 1.246 . S
O292 Tb282 2.453 . S
O292 C288 1.245 . S
O293 Tb280 2.343 . S
O293 Tb282 2.596 . S
O293 C288 1.259 . S
O294 Tb282 2.374 . S
O294 C289 1.250 . S
O295 Tb280 2.353 . S
O295 C289 1.263 . S
C296 O297 1.275 . S
C296 O298 1.246 . S
O297 Tb280 2.427 . S
O297 C296 1.275 . S
O298 Tb280 2.513 . S
O298 C296 1.246 . S
C299 O283 1.245 . S
C299 O284 1.259 . S
Tb300 O303 2.453 . S
Tb300 O304 2.596 . S
Tb300 O305 2.374 . S
Tb300 O313 2.343 . S
Tb300 O315 2.353 . S
Tb300 O317 2.427 . S
Tb300 O318 2.513 . S
C301 O305 1.251 . S
C301 O307 1.263 . S
Tb302 O304 2.343 . S
Tb302 O307 2.353 . S
Tb302 O310 2.427 1_554 S
Tb302 O311 2.513 1_554 S
Tb302 O312 2.453 . S
Tb302 O313 2.596 . S
Tb302 O314 2.374 . S
O303 Tb300 2.453 . S
O303 C319 1.245 . S
O304 Tb300 2.596 . S
O304 Tb302 2.343 . S
O304 C319 1.259 . S
O305 Tb300 2.374 . S
O305 C301 1.251 . S
C306 O310 1.275 . S
C306 O311 1.246 . S
O307 C301 1.263 . S
O307 Tb302 2.353 . S
C308 O312 1.245 . S
C308 O313 1.259 . S
C309 O314 1.250 . S
C309 O315 1.263 . S
O310 Tb302 2.427 1_556 S
O310 C306 1.275 . S
O311 Tb302 2.513 1_556 S
O311 C306 1.246 . S
O312 Tb302 2.453 . S
O312 C308 1.245 . S
O313 Tb300 2.343 . S
O313 Tb302 2.596 . S
O313 C308 1.259 . S
O314 Tb302 2.374 . S
O314 C309 1.250 . S
O315 Tb300 2.353 . S
O315 C309 1.263 . S
C316 O317 1.275 . S
C316 O318 1.246 . S
O317 Tb300 2.427 . S
O317 C316 1.275 . S
O318 Tb300 2.513 . S
O318 C316 1.246 . S
C319 O303 1.245 . S
C319 O304 1.259 . S
Tb320 O323 2.453 . S
Tb320 O324 2.596 . S
Tb320 O325 2.374 . S
Tb320 O333 2.343 . S
Tb320 O335 2.353 . S
Tb320 O337 2.427 . S
Tb320 O338 2.513 . S
C321 O325 1.251 . S
C321 O327 1.263 . S
Tb322 O324 2.343 . S
Tb322 O327 2.353 . S
Tb322 O330 2.427 . S
Tb322 O331 2.513 . S
Tb322 O332 2.453 . S
Tb322 O333 2.596 . S
Tb322 O334 2.374 . S
O323 Tb320 2.453 . S
O323 C339 1.245 . S
O324 Tb320 2.596 . S
O324 Tb322 2.343 . S
O324 C339 1.259 . S
O325 Tb320 2.374 . S
O325 C321 1.251 . S
C326 O330 1.275 . S
C326 O331 1.246 . S
O327 C321 1.263 . S
O327 Tb322 2.353 . S
C328 O332 1.245 . S
C328 O333 1.259 . S
C329 O334 1.250 . S
C329 O335 1.263 . S
O330 Tb322 2.427 . S
O330 C326 1.275 . S
O331 Tb322 2.513 . S
O331 C326 1.246 . S
O332 Tb322 2.453 . S
O332 C328 1.245 . S
O333 Tb320 2.343 . S
O333 Tb322 2.596 . S
O333 C328 1.259 . S
O334 Tb322 2.374 . S
O334 C329 1.250 . S
O335 Tb320 2.353 . S
O335 C329 1.263 . S
C336 O337 1.275 . S
C336 O338 1.246 . S
O337 Tb320 2.427 . S
O337 C336 1.275 . S
O338 Tb320 2.513 . S
O338 C336 1.246 . S
C339 O323 1.245 . S
C339 O324 1.259 . S
Tb340 O343 2.453 . S
Tb340 O344 2.596 . S
Tb340 O345 2.374 . S
Tb340 O353 2.343 . S
Tb340 O355 2.353 . S
Tb340 O357 2.427 1_554 S
Tb340 O358 2.513 1_554 S
C341 O345 1.251 . S
C341 O347 1.263 . S
Tb342 O344 2.343 . S
Tb342 O347 2.353 . S
Tb342 O350 2.427 . S
Tb342 O351 2.513 . S
Tb342 O352 2.453 . S
Tb342 O353 2.596 . S
Tb342 O354 2.374 . S
O343 Tb340 2.453 . S
O343 C359 1.245 . S
O344 Tb340 2.596 . S
O344 Tb342 2.343 . S
O344 C359 1.259 . S
O345 Tb340 2.374 . S
O345 C341 1.251 . S
C346 O350 1.275 . S
C346 O351 1.246 . S
O347 C341 1.263 . S
O347 Tb342 2.353 . S
C348 O352 1.245 . S
C348 O353 1.259 . S
C349 O354 1.250 . S
C349 O355 1.263 . S
O350 Tb342 2.427 . S
O350 C346 1.275 . S
O351 Tb342 2.513 . S
O351 C346 1.246 . S
O352 Tb342 2.453 . S
O352 C348 1.245 . S
O353 Tb340 2.343 . S
O353 Tb342 2.596 . S
O353 C348 1.259 . S
O354 Tb342 2.374 . S
O354 C349 1.250 . S
O355 Tb340 2.353 . S
O355 C349 1.263 . S
C356 O357 1.275 . S
C356 O358 1.246 . S
O357 Tb340 2.427 1_556 S
O357 C356 1.275 . S
O358 Tb340 2.513 1_556 S
O358 C356 1.246 . S
C359 O343 1.245 . S
C359 O344 1.259 . S
Tb360 O363 2.453 . S
Tb360 O364 2.596 . S
Tb360 O365 2.374 . S
Tb360 O373 2.343 . S
Tb360 O375 2.353 . S
Tb360 O377 2.427 . S
Tb360 O378 2.513 . S
C361 O365 1.251 . S
C361 O367 1.263 . S
Tb362 O364 2.343 . S
Tb362 O367 2.353 . S
Tb362 O370 2.427 . S
Tb362 O371 2.513 . S
Tb362 O372 2.453 . S
Tb362 O373 2.596 . S
Tb362 O374 2.374 . S
O363 Tb360 2.453 . S
O363 C379 1.245 . S
O364 Tb360 2.596 . S
O364 Tb362 2.343 . S
O364 C379 1.259 . S
O365 Tb360 2.374 . S
O365 C361 1.251 . S
C366 O370 1.275 . S
C366 O371 1.246 . S
O367 C361 1.263 . S
O367 Tb362 2.353 . S
C368 O372 1.245 . S
C368 O373 1.259 . S
C369 O374 1.250 . S
C369 O375 1.263 . S
O370 Tb362 2.427 . S
O370 C366 1.275 . S
O371 Tb362 2.513 . S
O371 C366 1.246 . S
O372 Tb362 2.453 . S
O372 C368 1.245 . S
O373 Tb360 2.343 . S
O373 Tb362 2.596 . S
O373 C368 1.259 . S
O374 Tb362 2.374 . S
O374 C369 1.250 . S
O375 Tb360 2.353 . S
O375 C369 1.263 . S
C376 O377 1.275 . S
C376 O378 1.246 . S
O377 Tb360 2.427 . S
O377 C376 1.275 . S
O378 Tb360 2.513 . S
O378 C376 1.246 . S
C379 O363 1.245 . S
C379 O364 1.259 . S
Tb380 O383 2.453 . S
Tb380 O384 2.596 . S
Tb380 O385 2.374 . S
Tb380 O393 2.343 . S
Tb380 O395 2.353 . S
Tb380 O397 2.427 . S
Tb380 O398 2.513 . S
C381 O385 1.251 . S
C381 O387 1.263 . S
Tb382 O384 2.343 . S
Tb382 O387 2.353 . S
Tb382 O390 2.427 . S
Tb382 O391 2.513 . S
Tb382 O392 2.453 . S
Tb382 O393 2.596 . S
Tb382 O394 2.374 . S
O383 Tb380 2.453 . S
O383 C399 1.245 . S
O384 Tb380 2.596 . S
O384 Tb382 2.343 . S
O384 C399 1.259 . S
O385 Tb380 2.374 . S
O385 C381 1.251 . S
C386 O390 1.275 . S
C386 O391 1.246 . S
O387 C381 1.263 . S
O387 Tb382 2.353 . S
C388 O392 1.245 . S
C388 O393 1.259 . S
C389 O394 1.250 . S
C389 O395 1.263 . S
O390 Tb382 2.427 . S
O390 C386 1.275 . S
O391 Tb382 2.513 . S
O391 C386 1.246 . S
O392 Tb382 2.453 . S
O392 C388 1.245 . S
O393 Tb380 2.343 . S
O393 Tb382 2.596 . S
O393 C388 1.259 . S
O394 Tb382 2.374 . S
O394 C389 1.250 . S
O395 Tb380 2.353 . S
O395 C389 1.263 . S
C396 O397 1.275 . S
C396 O398 1.246 . S
O397 Tb380 2.427 . S
O397 C396 1.275 . S
O398 Tb380 2.513 . S
O398 C396 1.246 . S
C399 O383 1.245 . S
C399 O384 1.259 . S
Tb400 O403 2.453 . S
Tb400 O404 2.596 . S
Tb400 O405 2.374 . S
Tb400 O413 2.343 . S
Tb400 O415 2.353 . S
Tb400 O417 2.427 . S
Tb400 O418 2.513 . S
C401 O405 1.251 . S
C401 O407 1.263 . S
Tb402 O404 2.343 . S
Tb402 O407 2.353 . S
Tb402 O410 2.427 . S
Tb402 O411 2.513 . S
Tb402 O412 2.453 . S
Tb402 O413 2.596 . S
Tb402 O414 2.374 . S
O403 Tb400 2.453 . S
O403 C419 1.245 . S
O404 Tb400 2.596 . S
O404 Tb402 2.343 . S
O404 C419 1.259 . S
O405 Tb400 2.374 . S
O405 C401 1.251 . S
C406 O410 1.275 . S
C406 O411 1.246 . S
O407 C401 1.263 . S
O407 Tb402 2.353 . S
C408 O412 1.245 . S
C408 O413 1.259 . S
C409 O414 1.250 . S
C409 O415 1.263 . S
O410 Tb402 2.427 . S
O410 C406 1.275 . S
O411 Tb402 2.513 . S
O411 C406 1.246 . S
O412 Tb402 2.453 . S
O412 C408 1.245 . S
O413 Tb400 2.343 . S
O413 Tb402 2.596 . S
O413 C408 1.259 . S
O414 Tb402 2.374 . S
O414 C409 1.250 . S
O415 Tb400 2.353 . S
O415 C409 1.263 . S
C416 O417 1.275 . S
C416 O418 1.246 . S
O417 Tb400 2.427 . S
O417 C416 1.275 . S
O418 Tb400 2.513 . S
O418 C416 1.246 . S
C419 O403 1.245 . S
C419 O404 1.259 . S
Tb420 O423 2.453 . S
Tb420 O424 2.596 . S
Tb420 O425 2.374 . S
Tb420 O433 2.343 . S
Tb420 O435 2.353 . S
Tb420 O437 2.427 1_556 S
Tb420 O438 2.513 1_556 S
C421 O425 1.251 . S
C421 O427 1.263 . S
Tb422 O424 2.343 . S
Tb422 O427 2.353 . S
Tb422 O430 2.427 . S
Tb422 O431 2.513 . S
Tb422 O432 2.453 . S
Tb422 O433 2.596 . S
Tb422 O434 2.374 . S
O423 Tb420 2.453 . S
O423 C439 1.245 . S
O424 Tb420 2.596 . S
O424 Tb422 2.343 . S
O424 C439 1.259 . S
O425 Tb420 2.374 . S
O425 C421 1.251 . S
C426 O430 1.275 . S
C426 O431 1.246 . S
O427 C421 1.263 . S
O427 Tb422 2.353 . S
C428 O432 1.245 . S
C428 O433 1.259 . S
C429 O434 1.250 . S
C429 O435 1.263 . S
O430 Tb422 2.427 . S
O430 C426 1.275 . S
O431 Tb422 2.513 . S
O431 C426 1.246 . S
O432 Tb422 2.453 . S
O432 C428 1.245 . S
O433 Tb420 2.343 . S
O433 Tb422 2.596 . S
O433 C428 1.259 . S
O434 Tb422 2.374 . S
O434 C429 1.250 . S
O435 Tb420 2.353 . S
O435 C429 1.263 . S
C436 O437 1.275 . S
C436 O438 1.246 . S
O437 Tb420 2.427 1_554 S
O437 C436 1.275 . S
O438 Tb420 2.513 1_554 S
O438 C436 1.246 . S
C439 O423 1.245 . S
C439 O424 1.259 . S
Tb440 O443 2.453 . S
Tb440 O444 2.596 . S
Tb440 O445 2.374 . S
Tb440 O453 2.343 . S
Tb440 O455 2.353 . S
Tb440 O457 2.427 . S
Tb440 O458 2.513 . S
C441 O445 1.251 . S
C441 O447 1.263 . S
Tb442 O444 2.343 . S
Tb442 O447 2.353 . S
Tb442 O450 2.427 . S
Tb442 O451 2.513 . S
Tb442 O452 2.453 . S
Tb442 O453 2.596 . S
Tb442 O454 2.374 . S
O443 Tb440 2.453 . S
O443 C459 1.245 . S
O444 Tb440 2.596 . S
O444 Tb442 2.343 . S
O444 C459 1.259 . S
O445 Tb440 2.374 . S
O445 C441 1.251 . S
C446 O450 1.275 . S
C446 O451 1.246 . S
O447 C441 1.263 . S
O447 Tb442 2.353 . S
C448 O452 1.245 . S
C448 O453 1.259 . S
C449 O454 1.250 . S
C449 O455 1.263 . S
O450 Tb442 2.427 . S
O450 C446 1.275 . S
O451 Tb442 2.513 . S
O451 C446 1.246 . S
O452 Tb442 2.453 . S
O452 C448 1.245 . S
O453 Tb440 2.343 . S
O453 Tb442 2.596 . S
O453 C448 1.259 . S
O454 Tb442 2.374 . S
O454 C449 1.250 . S
O455 Tb440 2.353 . S
O455 C449 1.263 . S
C456 O457 1.275 . S
C456 O458 1.246 . S
O457 Tb440 2.427 . S
O457 C456 1.275 . S
O458 Tb440 2.513 . S
O458 C456 1.246 . S
C459 O443 1.245 . S
C459 O444 1.259 . S
Tb460 O463 2.453 . S
Tb460 O464 2.596 . S
Tb460 O465 2.374 . S
Tb460 O473 2.343 . S
Tb460 O475 2.353 . S
Tb460 O477 2.427 . S
Tb460 O478 2.513 . S
C461 O465 1.251 . S
C461 O467 1.263 . S
Tb462 O464 2.343 . S
Tb462 O467 2.353 . S
Tb462 O470 2.427 . S
Tb462 O471 2.513 . S
Tb462 O472 2.453 . S
Tb462 O473 2.596 . S
Tb462 O474 2.374 . S
O463 Tb460 2.453 . S
O463 C479 1.245 . S
O464 Tb460 2.596 . S
O464 Tb462 2.343 . S
O464 C479 1.259 . S
O465 Tb460 2.374 . S
O465 C461 1.251 . S
C466 O470 1.275 . S
C466 O471 1.246 . S
O467 C461 1.263 . S
O467 Tb462 2.353 . S
C468 O472 1.245 . S
C468 O473 1.259 . S
C469 O474 1.250 . S
C469 O475 1.263 . S
O470 Tb462 2.427 . S
O470 C466 1.275 . S
O471 Tb462 2.513 . S
O471 C466 1.246 . S
O472 Tb462 2.453 . S
O472 C468 1.245 . S
O473 Tb460 2.343 . S
O473 Tb462 2.596 . S
O473 C468 1.259 . S
O474 Tb462 2.374 . S
O474 C469 1.250 . S
O475 Tb460 2.353 . S
O475 C469 1.263 . S
C476 O477 1.275 . S
C476 O478 1.246 . S
O477 Tb460 2.427 . S
O477 C476 1.275 . S
O478 Tb460 2.513 . S
O478 C476 1.246 . S
C479 O463 1.245 . S
C479 O464 1.259 . S
Tb480 O483 2.453 . S
Tb480 O484 2.596 . S
Tb480 O485 2.374 . S
Tb480 O493 2.343 . S
Tb480 O495 2.353 . S
Tb480 O497 2.427 . S
Tb480 O498 2.513 . S
C481 O485 1.251 . S
C481 O487 1.263 . S
Tb482 O484 2.343 . S
Tb482 O487 2.353 . S
Tb482 O490 2.427 . S
Tb482 O491 2.513 . S
Tb482 O492 2.453 . S
Tb482 O493 2.596 . S
Tb482 O494 2.374 . S
O483 Tb480 2.453 . S
O483 C499 1.245 . S
O484 Tb480 2.596 . S
O484 Tb482 2.343 . S
O484 C499 1.259 . S
O485 Tb480 2.374 . S
O485 C481 1.251 . S
C486 O490 1.275 . S
C486 O491 1.246 . S
O487 C481 1.263 . S
O487 Tb482 2.353 . S
C488 O492 1.245 . S
C488 O493 1.259 . S
C489 O494 1.250 . S
C489 O495 1.263 . S
O490 Tb482 2.427 . S
O490 C486 1.275 . S
O491 Tb482 2.513 . S
O491 C486 1.246 . S
O492 Tb482 2.453 . S
O492 C488 1.245 . S
O493 Tb480 2.343 . S
O493 Tb482 2.596 . S
O493 C488 1.259 . S
O494 Tb482 2.374 . S
O494 C489 1.250 . S
O495 Tb480 2.353 . S
O495 C489 1.263 . S
C496 O497 1.275 . S
C496 O498 1.246 . S
O497 Tb480 2.427 . S
O497 C496 1.275 . S
O498 Tb480 2.513 . S
O498 C496 1.246 . S
C499 O483 1.245 . S
C499 O484 1.259 . S
Tb500 O503 2.453 . S
Tb500 O504 2.596 . S
Tb500 O505 2.374 . S
Tb500 O513 2.343 . S
Tb500 O515 2.353 . S
Tb500 O517 2.427 . S
Tb500 O518 2.513 . S
C501 O505 1.251 . S
C501 O507 1.263 . S
Tb502 O504 2.343 . S
Tb502 O507 2.353 . S
Tb502 O510 2.427 1_556 S
Tb502 O511 2.513 1_556 S
Tb502 O512 2.453 . S
Tb502 O513 2.596 . S
Tb502 O514 2.374 . S
O503 Tb500 2.453 . S
O503 C519 1.245 . S
O504 Tb500 2.596 . S
O504 Tb502 2.343 . S
O504 C519 1.259 . S
O505 Tb500 2.374 . S
O505 C501 1.251 . S
C506 O510 1.275 . S
C506 O511 1.246 . S
O507 C501 1.263 . S
O507 Tb502 2.353 . S
C508 O512 1.245 . S
C508 O513 1.259 . S
C509 O514 1.250 . S
C509 O515 1.263 . S
O510 Tb502 2.427 1_554 S
O510 C506 1.275 . S
O511 Tb502 2.513 1_554 S
O511 C506 1.246 . S
O512 Tb502 2.453 . S
O512 C508 1.245 . S
O513 Tb500 2.343 . S
O513 Tb502 2.596 . S
O513 C508 1.259 . S
O514 Tb502 2.374 . S
O514 C509 1.250 . S
O515 Tb500 2.353 . S
O515 C509 1.263 . S
C516 O517 1.275 . S
C516 O518 1.246 . S
O517 Tb500 2.427 . S
O517 C516 1.275 . S
O518 Tb500 2.513 . S
O518 C516 1.246 . S
C519 O503 1.245 . S
C519 O504 1.259 . S
Tb520 O523 2.453 . S
Tb520 O524 2.596 . S
Tb520 O525 2.374 . S
Tb520 O533 2.343 . S
Tb520 O535 2.353 . S
Tb520 O537 2.427 . S
Tb520 O538 2.513 . S
C521 O525 1.251 . S
C521 O527 1.263 . S
Tb522 O524 2.343 . S
Tb522 O527 2.353 . S
Tb522 O530 2.427 . S
Tb522 O531 2.513 . S
Tb522 O532 2.453 . S
Tb522 O533 2.596 . S
Tb522 O534 2.374 . S
O523 Tb520 2.453 . S
O523 C539 1.245 . S
O524 Tb520 2.596 . S
O524 Tb522 2.343 . S
O524 C539 1.259 . S
O525 Tb520 2.374 . S
O525 C521 1.251 . S
C526 O530 1.275 . S
C526 O531 1.246 . S
O527 C521 1.263 . S
O527 Tb522 2.353 . S
C528 O532 1.245 . S
C528 O533 1.259 . S
C529 O534 1.250 . S
C529 O535 1.263 . S
O530 Tb522 2.427 . S
O530 C526 1.275 . S
O531 Tb522 2.513 . S
O531 C526 1.246 . S
O532 Tb522 2.453 . S
O532 C528 1.245 . S
O533 Tb520 2.343 . S
O533 Tb522 2.596 . S
O533 C528 1.259 . S
O534 Tb522 2.374 . S
O534 C529 1.250 . S
O535 Tb520 2.353 . S
O535 C529 1.263 . S
C536 O537 1.275 . S
C536 O538 1.246 . S
O537 Tb520 2.427 . S
O537 C536 1.275 . S
O538 Tb520 2.513 . S
O538 C536 1.246 . S
C539 O523 1.245 . S
C539 O524 1.259 . S
Tb540 O543 2.453 . S
Tb540 O544 2.596 . S
Tb540 O545 2.374 . S
Tb540 O553 2.343 . S
Tb540 O555 2.353 . S
Tb540 O557 2.427 . S
Tb540 O558 2.513 . S
C541 O545 1.251 . S
C541 O547 1.263 . S
Tb542 O544 2.343 . S
Tb542 O547 2.353 . S
Tb542 O550 2.427 . S
Tb542 O551 2.513 . S
Tb542 O552 2.453 . S
Tb542 O553 2.596 . S
Tb542 O554 2.374 . S
O543 Tb540 2.453 . S
O543 C559 1.245 . S
O544 Tb540 2.596 . S
O544 Tb542 2.343 . S
O544 C559 1.259 . S
O545 Tb540 2.374 . S
O545 C541 1.251 . S
C546 O550 1.275 . S
C546 O551 1.246 . S
O547 C541 1.263 . S
O547 Tb542 2.353 . S
C548 O552 1.245 . S
C548 O553 1.259 . S
C549 O554 1.250 . S
C549 O555 1.263 . S
O550 Tb542 2.427 . S
O550 C546 1.275 . S
O551 Tb542 2.513 . S
O551 C546 1.246 . S
O552 Tb542 2.453 . S
O552 C548 1.245 . S
O553 Tb540 2.343 . S
O553 Tb542 2.596 . S
O553 C548 1.259 . S
O554 Tb542 2.374 . S
O554 C549 1.250 . S
O555 Tb540 2.353 . S
O555 C549 1.263 . S
C556 O557 1.275 . S
C556 O558 1.246 . S
O557 Tb540 2.427 . S
O557 C556 1.275 . S
O558 Tb540 2.513 . S
O558 C556 1.246 . S
C559 O543 1.245 . S
C559 O544 1.259 . S
Tb560 O563 2.453 . S
Tb560 O564 2.596 . S
Tb560 O565 2.374 . S
Tb560 O573 2.343 . S
Tb560 O575 2.353 . S
Tb560 O577 2.427 . S
Tb560 O578 2.513 . S
C561 O565 1.251 . S
C561 O567 1.263 . S
Tb562 O564 2.343 . S
Tb562 O567 2.353 . S
Tb562 O570 2.427 . S
Tb562 O571 2.513 . S
Tb562 O572 2.453 . S
Tb562 O573 2.596 . S
Tb562 O574 2.374 . S
O563 Tb560 2.453 . S
O563 C579 1.245 . S
O564 Tb560 2.596 . S
O564 Tb562 2.343 . S
O564 C579 1.259 . S
O565 Tb560 2.374 . S
O565 C561 1.251 . S
C566 O570 1.275 . S
C566 O571 1.246 . S
O567 C561 1.263 . S
O567 Tb562 2.353 . S
C568 O572 1.245 . S
C568 O573 1.259 . S
C569 O574 1.250 . S
C569 O575 1.263 . S
O570 Tb562 2.427 . S
O570 C566 1.275 . S
O571 Tb562 2.513 . S
O571 C566 1.246 . S
O572 Tb562 2.453 . S
O572 C568 1.245 . S
O573 Tb560 2.343 . S
O573 Tb562 2.596 . S
O573 C568 1.259 . S
O574 Tb562 2.374 . S
O574 C569 1.250 . S
O575 Tb560 2.353 . S
O575 C569 1.263 . S
C576 O577 1.275 . S
C576 O578 1.246 . S
O577 Tb560 2.427 . S
O577 C576 1.275 . S
O578 Tb560 2.513 . S
O578 C576 1.246 . S
C579 O563 1.245 . S
C579 O564 1.259 . S
Tb580 O583 2.453 . S
Tb580 O584 2.596 . S
Tb580 O585 2.374 . S
Tb580 O593 2.343 . S
Tb580 O595 2.353 . S
Tb580 O597 2.427 . S
Tb580 O598 2.513 . S
C581 O585 1.251 . S
C581 O587 1.263 . S
Tb582 O584 2.343 . S
Tb582 O587 2.353 . S
Tb582 O590 2.427 1_554 S
Tb582 O591 2.513 1_554 S
Tb582 O592 2.453 . S
Tb582 O593 2.596 . S
Tb582 O594 2.374 . S
O583 Tb580 2.453 . S
O583 C599 1.245 . S
O584 Tb580 2.596 . S
O584 Tb582 2.343 . S
O584 C599 1.259 . S
O585 Tb580 2.374 . S
O585 C581 1.251 . S
C586 O590 1.275 . S
C586 O591 1.246 . S
O587 C581 1.263 . S
O587 Tb582 2.353 . S
C588 O592 1.245 . S
C588 O593 1.259 . S
C589 O594 1.250 . S
C589 O595 1.263 . S
O590 Tb582 2.427 1_556 S
O590 C586 1.275 . S
O591 Tb582 2.513 1_556 S
O591 C586 1.246 . S
O592 Tb582 2.453 . S
O592 C588 1.245 . S
O593 Tb580 2.343 . S
O593 Tb582 2.596 . S
O593 C588 1.259 . S
O594 Tb582 2.374 . S
O594 C589 1.250 . S
O595 Tb580 2.353 . S
O595 C589 1.263 . S
C596 O597 1.275 . S
C596 O598 1.246 . S
O597 Tb580 2.427 . S
O597 C596 1.275 . S
O598 Tb580 2.513 . S
O598 C596 1.246 . S
C599 O583 1.245 . S
C599 O584 1.259 . S
Tb600 O603 2.453 . S
Tb600 O604 2.596 . S
Tb600 O605 2.374 . S
Tb600 O613 2.343 . S
Tb600 O615 2.353 . S
Tb600 O617 2.427 . S
Tb600 O618 2.513 . S
C601 O605 1.251 . S
C601 O607 1.263 . S
Tb602 O604 2.343 . S
Tb602 O607 2.353 . S
Tb602 O610 2.427 . S
Tb602 O611 2.513 . S
Tb602 O612 2.453 . S
Tb602 O613 2.596 . S
Tb602 O614 2.374 . S
O603 Tb600 2.453 . S
O603 C619 1.245 . S
O604 Tb600 2.596 . S
O604 Tb602 2.343 . S
O604 C619 1.259 . S
O605 Tb600 2.374 . S
O605 C601 1.251 . S
C606 O610 1.275 . S
C606 O611 1.246 . S
O607 C601 1.263 . S
O607 Tb602 2.353 . S
C608 O612 1.245 . S
C608 O613 1.259 . S
C609 O614 1.250 . S
C609 O615 1.263 . S
O610 Tb602 2.427 . S
O610 C606 1.275 . S
O611 Tb602 2.513 . S
O611 C606 1.246 . S
O612 Tb602 2.453 . S
O612 C608 1.245 . S
O613 Tb600 2.343 . S
O613 Tb602 2.596 . S
O613 C608 1.259 . S
O614 Tb602 2.374 . S
O614 C609 1.250 . S
O615 Tb600 2.353 . S
O615 C609 1.263 . S
C616 O617 1.275 . S
C616 O618 1.246 . S
O617 Tb600 2.427 . S
O617 C616 1.275 . S
O618 Tb600 2.513 . S
O618 C616 1.246 . S
C619 O603 1.245 . S
C619 O604 1.259 . S
Tb620 O623 2.453 . S
Tb620 O624 2.596 . S
Tb620 O625 2.374 . S
Tb620 O633 2.343 . S
Tb620 O635 2.353 . S
Tb620 O637 2.427 . S
Tb620 O638 2.513 . S
C621 O625 1.251 . S
C621 O627 1.263 . S
Tb622 O624 2.343 . S
Tb622 O627 2.353 . S
Tb622 O630 2.427 . S
Tb622 O631 2.513 . S
Tb622 O632 2.453 . S
Tb622 O633 2.596 . S
Tb622 O634 2.374 . S
O623 Tb620 2.453 . S
O623 C639 1.245 . S
O624 Tb620 2.596 . S
O624 Tb622 2.343 . S
O624 C639 1.259 . S
O625 Tb620 2.374 . S
O625 C621 1.251 . S
C626 O630 1.275 . S
C626 O631 1.246 . S
O627 C621 1.263 . S
O627 Tb622 2.353 . S
C628 O632 1.245 . S
C628 O633 1.259 . S
C629 O634 1.250 . S
C629 O635 1.263 . S
O630 Tb622 2.427 . S
O630 C626 1.275 . S
O631 Tb622 2.513 . S
O631 C626 1.246 . S
O632 Tb622 2.453 . S
O632 C628 1.245 . S
O633 Tb620 2.343 . S
O633 Tb622 2.596 . S
O633 C628 1.259 . S
O634 Tb622 2.374 . S
O634 C629 1.250 . S
O635 Tb620 2.353 . S
O635 C629 1.263 . S
C636 O637 1.275 . S
C636 O638 1.246 . S
O637 Tb620 2.427 . S
O637 C636 1.275 . S
O638 Tb620 2.513 . S
O638 C636 1.246 . S
C639 O623 1.245 . S
C639 O624 1.259 . S
C640 C641 1.387 . S
C640 H644 0.950 . S
C640 C649 1.390 . S
C641 C640 1.387 . S
C641 C643 1.387 . S
H642 C649 0.950 . S
C643 C641 1.387 . S
C643 C645 1.390 . S
C643 H647 0.950 . S
H644 C640 0.950 . S
C645 C643 1.390 . S
C645 C646 1.387 . S
C645 H648 0.950 . S
C646 C645 1.387 . S
C646 C649 1.387 . S
H647 C643 0.950 . S
H648 C645 0.950 . S
C649 C640 1.390 . S
C649 H642 0.950 . S
C649 C646 1.387 . S
C650 C651 1.391 . S
C650 H654 0.949 1_545 S
C650 C659 1.387 1_545 S
C651 C650 1.391 . S
C651 C653 1.387 . S
H652 C659 0.950 . S
C653 C651 1.387 . S
C653 C655 1.390 . S
C653 H657 0.950 . S
H654 C650 0.949 1_565 S
C655 C653 1.390 . S
C655 C656 1.387 1_545 S
C655 H658 0.950 . S
C656 C655 1.387 1_565 S
C656 C659 1.387 . S
H657 C653 0.950 . S
H658 C655 0.950 . S
C659 C650 1.387 1_565 S
C659 H652 0.950 . S
C659 C656 1.387 . S
C660 C661 1.387 . S
C660 H664 0.950 . S
C660 C669 1.390 . S
C661 C660 1.387 . S
C661 C663 1.387 . S
H662 C669 0.950 . S
C663 C661 1.387 . S
C663 C665 1.390 . S
C663 H667 0.950 . S
H664 C660 0.950 . S
C665 C663 1.390 . S
C665 C666 1.387 . S
C665 H668 0.950 . S
C666 C665 1.387 . S
C666 C669 1.387 . S
H667 C663 0.950 . S
H668 C665 0.950 . S
C669 C660 1.390 . S
C669 H662 0.950 . S
C669 C666 1.387 . S
C670 C671 1.387 . S
C670 H674 0.950 . S
C670 C679 1.390 1_565 S
C671 C670 1.387 . S
C671 C673 1.387 . S
H672 C679 0.950 . S
C673 C671 1.387 . S
C673 C675 1.390 1_565 S
C673 H677 0.950 . S
H674 C670 0.950 . S
C675 C673 1.390 1_545 S
C675 C676 1.387 . S
C675 H678 0.950 . S
C676 C675 1.387 . S
C676 C679 1.387 . S
H677 C673 0.950 . S
H678 C675 0.950 . S
C679 C670 1.390 1_545 S
C679 H672 0.950 . S
C679 C676 1.387 . S
C680 C681 1.387 . S
C680 H684 0.950 . S
C680 C689 1.390 . S
C681 C680 1.387 . S
C681 C683 1.387 . S
H682 C689 0.950 . S
C683 C681 1.387 . S
C683 C685 1.390 . S
C683 H687 0.950 . S
H684 C680 0.950 . S
C685 C683 1.390 . S
C685 C686 1.387 . S
C685 H688 0.950 . S
C686 C685 1.387 . S
C686 C689 1.387 . S
H687 C683 0.950 . S
H688 C685 0.950 . S
C689 C680 1.390 . S
C689 H682 0.950 . S
C689 C686 1.387 . S
C690 C691 1.387 . S
C690 H694 0.950 . S
C690 C699 1.390 1_565 S
C691 C690 1.387 . S
C691 C693 1.387 . S
H692 C699 0.950 . S
C693 C691 1.387 . S
C693 C695 1.390 1_565 S
C693 H697 0.950 . S
H694 C690 0.950 . S
C695 C693 1.390 1_545 S
C695 C696 1.387 . S
C695 H698 0.950 . S
C696 C695 1.387 . S
C696 C699 1.387 . S
H697 C693 0.950 . S
H698 C695 0.950 . S
C699 C690 1.390 1_545 S
C699 H692 0.950 . S
C699 C696 1.387 . S
C700 C701 1.387 . S
C700 H704 0.950 . S
C700 C709 1.390 . S
C701 C700 1.387 . S
C701 C703 1.387 . S
H702 C709 0.950 . S
C703 C701 1.387 . S
C703 C705 1.390 . S
C703 H707 0.950 . S
H704 C700 0.950 . S
C705 C703 1.390 . S
C705 C706 1.387 . S
C705 H708 0.950 . S
C706 C705 1.387 . S
C706 C709 1.387 . S
H707 C703 0.950 . S
H708 C705 0.950 . S
C709 C700 1.390 . S
C709 H702 0.950 . S
C709 C706 1.387 . S
C710 C711 1.387 . S
C710 H714 0.950 . S
C710 C719 1.390 1_565 S
C711 C710 1.387 . S
C711 C713 1.387 . S
H712 C719 0.950 . S
C713 C711 1.387 . S
C713 C715 1.390 . S
C713 H717 0.950 . S
H714 C710 0.950 . S
C715 C713 1.390 . S
C715 C716 1.387 1_565 S
C715 H718 0.950 1_554 S
C716 C715 1.387 1_545 S
C716 C719 1.387 . S
H717 C713 0.950 . S
H718 C715 0.950 1_556 S
C719 C710 1.390 1_545 S
C719 H712 0.950 . S
C719 C716 1.387 . S
C720 C721 1.387 . S
C720 H724 0.950 . S
C720 C729 1.390 . S
C721 C720 1.387 . S
C721 C723 1.387 . S
H722 C729 0.950 . S
C723 C721 1.387 . S
C723 C725 1.390 . S
C723 H727 0.950 . S
H724 C720 0.950 . S
C725 C723 1.390 . S
C725 C726 1.387 . S
C725 H728 0.950 . S
C726 C725 1.387 . S
C726 C729 1.387 . S
H727 C723 0.950 . S
H728 C725 0.950 . S
C729 C720 1.390 . S
C729 H722 0.950 . S
C729 C726 1.387 . S
C730 C731 1.387 . S
C730 H734 0.950 . S
C730 C739 1.390 1_545 S
C731 C730 1.387 . S
C731 C733 1.387 . S
H732 C739 0.950 . S
C733 C731 1.387 . S
C733 C735 1.390 1_545 S
C733 H737 0.950 . S
H734 C730 0.950 . S
C735 C733 1.390 1_565 S
C735 C736 1.387 . S
C735 H738 0.950 . S
C736 C735 1.387 . S
C736 C739 1.387 . S
H737 C733 0.950 . S
H738 C735 0.950 . S
C739 C730 1.390 1_565 S
C739 H732 0.950 . S
C739 C736 1.387 . S
C740 C741 1.387 . S
C740 H744 0.950 . S
C740 C749 1.390 . S
C741 C740 1.387 . S
C741 C743 1.387 . S
H742 C749 0.950 . S
C743 C741 1.387 . S
C743 C745 1.390 . S
C743 H747 0.950 . S
H744 C740 0.950 . S
C745 C743 1.390 . S
C745 C746 1.387 . S
C745 H748 0.950 . S
C746 C745 1.387 . S
C746 C749 1.387 . S
H747 C743 0.950 . S
H748 C745 0.950 . S
C749 C740 1.390 . S
C749 H742 0.950 . S
C749 C746 1.387 . S
C750 C751 1.387 . S
C750 H754 0.950 . S
C750 C759 1.390 1_565 S
C751 C750 1.387 . S
C751 C753 1.387 . S
H752 C759 0.950 . S
C753 C751 1.387 . S
C753 C755 1.390 1_565 S
C753 H757 0.950 . S
H754 C750 0.950 . S
C755 C753 1.390 1_545 S
C755 C756 1.387 . S
C755 H758 0.950 . S
C756 C755 1.387 . S
C756 C759 1.387 . S
H757 C753 0.950 . S
H758 C755 0.950 . S
C759 C750 1.390 1_545 S
C759 H752 0.950 . S
C759 C756 1.387 . S
C760 C761 1.387 . S
C760 H764 0.950 . S
C760 C769 1.390 . S
C761 C760 1.387 . S
C761 C763 1.387 . S
H762 C769 0.950 . S
C763 C761 1.387 . S
C763 C765 1.390 . S
C763 H767 0.950 . S
H764 C760 0.950 . S
C765 C763 1.390 . S
C765 C766 1.387 . S
C765 H768 0.950 . S
C766 C765 1.387 . S
C766 C769 1.387 . S
H767 C763 0.950 . S
H768 C765 0.950 . S
C769 C760 1.390 . S
C769 H762 0.950 . S
C769 C766 1.387 . S
C770 C771 1.387 . S
C770 H774 0.950 . S
C770 C779 1.390 1_545 S
C771 C770 1.387 . S
C771 C773 1.387 . S
H772 C779 0.950 . S
C773 C771 1.387 . S
C773 C775 1.390 1_545 S
C773 H777 0.950 . S
H774 C770 0.950 . S
C775 C773 1.390 1_565 S
C775 C776 1.387 . S
C775 H778 0.950 . S
C776 C775 1.387 . S
C776 C779 1.387 . S
H777 C773 0.950 . S
H778 C775 0.950 . S
C779 C770 1.390 1_565 S
C779 H772 0.950 . S
C779 C776 1.387 . S
C780 C781 1.387 . S
C780 H784 0.950 . S
C780 C789 1.390 . S
C781 C780 1.387 . S
C781 C783 1.387 . S
H782 C789 0.950 . S
C783 C781 1.387 . S
C783 C785 1.390 . S
C783 H787 0.950 . S
H784 C780 0.950 . S
C785 C783 1.390 . S
C785 C786 1.387 . S
C785 H788 0.950 . S
C786 C785 1.387 . S
C786 C789 1.387 . S
H787 C783 0.950 . S
H788 C785 0.950 . S
C789 C780 1.390 . S
C789 H782 0.950 . S
C789 C786 1.387 . S
C790 C791 1.387 . S
C790 H794 0.950 . S
C790 C799 1.390 1_545 S
C791 C790 1.387 . S
C791 C793 1.387 . S
H792 C799 0.950 . S
C793 C791 1.387 . S
C793 C795 1.390 1_545 S
C793 H797 0.950 . S
H794 C790 0.950 . S
C795 C793 1.390 1_565 S
C795 C796 1.387 . S
C795 H798 0.950 . S
C796 C795 1.387 . S
C796 C799 1.387 . S
H797 C793 0.950 . S
H798 C795 0.950 . S
C799 C790 1.390 1_565 S
C799 H792 0.950 . S
C799 C796 1.387 . S
C800 C801 1.387 . S
C800 H804 0.950 . S
C800 C809 1.390 . S
C801 C800 1.387 . S
C801 C803 1.387 . S
H802 C809 0.950 . S
C803 C801 1.387 . S
C803 C805 1.390 . S
C803 H807 0.950 . S
H804 C800 0.950 . S
C805 C803 1.390 . S
C805 C806 1.387 . S
C805 H808 0.950 . S
C806 C805 1.387 . S
C806 C809 1.387 . S
H807 C803 0.950 . S
H808 C805 0.950 . S
C809 C800 1.390 . S
C809 H802 0.950 . S
C809 C806 1.387 . S
C810 C811 1.387 . S
C810 H814 0.950 . S
C810 C819 1.390 . S
C811 C810 1.387 . S
C811 C813 1.387 . S
H812 C819 0.950 . S
C813 C811 1.387 . S
C813 C815 1.390 . S
C813 H817 0.950 . S
H814 C810 0.950 . S
C815 C813 1.390 . S
C815 C816 1.387 . S
C815 H818 0.950 . S
C816 C815 1.387 . S
C816 C819 1.387 . S
H817 C813 0.950 . S
H818 C815 0.950 . S
C819 C810 1.390 . S
C819 H812 0.950 . S
C819 C816 1.387 . S
C820 C821 1.387 . S
C820 H824 0.950 . S
C820 C829 1.390 . S
C821 C820 1.387 . S
C821 C823 1.387 . S
H822 C829 0.950 . S
C823 C821 1.387 . S
C823 C825 1.390 . S
C823 H827 0.950 . S
H824 C820 0.950 . S
C825 C823 1.390 . S
C825 C826 1.387 . S
C825 H828 0.950 . S
C826 C825 1.387 . S
C826 C829 1.387 . S
H827 C823 0.950 . S
H828 C825 0.950 . S
C829 C820 1.390 . S
C829 H822 0.950 . S
C829 C826 1.387 . S
C830 C831 1.387 . S
C830 H834 0.950 . S
C830 C839 1.390 . S
C831 C830 1.387 . S
C831 C833 1.387 . S
H832 C839 0.950 . S
C833 C831 1.387 . S
C833 C835 1.390 . S
C833 H837 0.950 . S
H834 C830 0.950 . S
C835 C833 1.390 . S
C835 C836 1.387 . S
C835 H838 0.950 . S
C836 C835 1.387 . S
C836 C839 1.387 . S
H837 C833 0.950 . S
H838 C835 0.950 . S
C839 C830 1.390 . S
C839 H832 0.950 . S
C839 C836 1.387 . S
C840 C841 1.387 . S
C840 H844 0.950 . S
C840 C849 1.390 . S
C841 C840 1.387 . S
C841 C843 1.387 . S
H842 C849 0.950 . S
C843 C841 1.387 . S
C843 C845 1.390 . S
C843 H847 0.950 . S
H844 C840 0.950 . S
C845 C843 1.390 . S
C845 C846 1.387 . S
C845 H848 0.950 . S
C846 C845 1.387 . S
C846 C849 1.387 . S
H847 C843 0.950 . S
H848 C845 0.950 . S
C849 C840 1.390 . S
C849 H842 0.950 . S
C849 C846 1.387 . S
C850 C851 1.387 . S
C850 H854 0.950 . S
C850 C859 1.390 . S
C851 C850 1.387 . S
C851 C853 1.387 . S
H852 C859 0.950 . S
C853 C851 1.387 . S
C853 C855 1.390 . S
C853 H857 0.950 . S
H854 C850 0.950 . S
C855 C853 1.390 . S
C855 C856 1.387 . S
C855 H858 0.950 . S
C856 C855 1.387 . S
C856 C859 1.387 . S
H857 C853 0.950 . S
H858 C855 0.950 . S
C859 C850 1.390 . S
C859 H852 0.950 . S
C859 C856 1.387 . S
C860 C861 1.387 . S
C860 H864 0.950 . S
C860 C869 1.390 . S
C861 C860 1.387 . S
C861 C863 1.387 . S
H862 C869 0.950 . S
C863 C861 1.387 . S
C863 C865 1.390 . S
C863 H867 0.950 . S
H864 C860 0.950 . S
C865 C863 1.390 . S
C865 C866 1.387 . S
C865 H868 0.950 . S
C866 C865 1.387 . S
C866 C869 1.387 . S
H867 C863 0.950 . S
H868 C865 0.950 . S
C869 C860 1.390 . S
C869 H862 0.950 . S
C869 C866 1.387 . S
C870 C871 1.387 . S
C870 H874 0.950 . S
C870 C879 1.390 . S
C871 C870 1.387 . S
C871 C873 1.387 . S
H872 C879 0.950 . S
C873 C871 1.387 . S
C873 C875 1.390 . S
C873 H877 0.950 . S
H874 C870 0.950 . S
C875 C873 1.390 . S
C875 C876 1.387 . S
C875 H878 0.950 . S
C876 C875 1.387 . S
C876 C879 1.387 . S
H877 C873 0.950 . S
H878 C875 0.950 . S
C879 C870 1.390 . S
C879 H872 0.950 . S
C879 C876 1.387 . S
C880 C881 1.387 . S
C880 H884 0.950 . S
C880 C889 1.390 . S
C881 C880 1.387 . S
C881 C883 1.387 . S
H882 C889 0.950 . S
C883 C881 1.387 . S
C883 C885 1.390 . S
C883 H887 0.950 . S
H884 C880 0.950 . S
C885 C883 1.390 . S
C885 C886 1.387 . S
C885 H888 0.950 . S
C886 C885 1.387 . S
C886 C889 1.387 . S
H887 C883 0.950 . S
H888 C885 0.950 . S
C889 C880 1.390 . S
C889 H882 0.950 . S
C889 C886 1.387 . S
C890 C891 1.387 . S
C890 H894 0.950 . S
C890 C899 1.390 . S
C891 C890 1.387 . S
C891 C893 1.387 . S
H892 C899 0.950 . S
C893 C891 1.387 . S
C893 C895 1.390 . S
C893 H897 0.950 . S
H894 C890 0.950 . S
C895 C893 1.390 . S
C895 C896 1.387 . S
C895 H898 0.950 . S
C896 C895 1.387 . S
C896 C899 1.387 . S
H897 C893 0.950 . S
H898 C895 0.950 . S
C899 C890 1.390 . S
C899 H892 0.950 . S
C899 C896 1.387 . S
C900 C901 1.387 . S
C900 H904 0.950 . S
C900 C909 1.390 . S
C901 C900 1.387 . S
C901 C903 1.387 . S
H902 C909 0.950 . S
C903 C901 1.387 . S
C903 C905 1.390 . S
C903 H907 0.950 . S
H904 C900 0.950 . S
C905 C903 1.390 . S
C905 C906 1.387 . S
C905 H908 0.950 . S
C906 C905 1.387 . S
C906 C909 1.387 . S
H907 C903 0.950 . S
H908 C905 0.950 . S
C909 C900 1.390 . S
C909 H902 0.950 . S
C909 C906 1.387 . S
C910 C911 1.387 . S
C910 H914 0.950 . S
C910 C919 1.390 . S
C911 C910 1.387 . S
C911 C913 1.387 . S
H912 C919 0.950 . S
C913 C911 1.387 . S
C913 C915 1.390 . S
C913 H917 0.950 . S
H914 C910 0.950 . S
C915 C913 1.390 . S
C915 C916 1.387 . S
C915 H918 0.950 . S
C916 C915 1.387 . S
C916 C919 1.387 . S
H917 C913 0.950 . S
H918 C915 0.950 . S
C919 C910 1.390 . S
C919 H912 0.950 . S
C919 C916 1.387 . S
C920 C921 1.387 . S
C920 H924 0.950 . S
C920 C929 1.390 . S
C921 C920 1.387 . S
C921 C923 1.387 . S
H922 C929 0.950 . S
C923 C921 1.387 . S
C923 C925 1.390 . S
C923 H927 0.950 . S
H924 C920 0.950 . S
C925 C923 1.390 . S
C925 C926 1.387 . S
C925 H928 0.950 . S
C926 C925 1.387 . S
C926 C929 1.387 . S
H927 C923 0.950 . S
H928 C925 0.950 . S
C929 C920 1.390 . S
C929 H922 0.950 . S
C929 C926 1.387 . S
C930 C931 1.387 . S
C930 H934 0.950 . S
C930 C939 1.390 . S
C931 C930 1.387 . S
C931 C933 1.387 . S
H932 C939 0.950 . S
C933 C931 1.387 . S
C933 C935 1.390 . S
C933 H937 0.950 . S
H934 C930 0.950 . S
C935 C933 1.390 . S
C935 C936 1.387 . S
C935 H938 0.950 . S
C936 C935 1.387 . S
C936 C939 1.387 . S
H937 C933 0.950 . S
H938 C935 0.950 . S
C939 C930 1.390 . S
C939 H932 0.950 . S
C939 C936 1.387 . S
C940 C941 1.387 . S
C940 H944 0.950 . S
C940 C949 1.390 . S
C941 C940 1.387 . S
C941 C943 1.387 . S
H942 C949 0.950 . S
C943 C941 1.387 . S
C943 C945 1.390 . S
C943 H947 0.950 . S
H944 C940 0.950 . S
C945 C943 1.390 . S
C945 C946 1.387 . S
C945 H948 0.950 . S
C946 C945 1.387 . S
C946 C949 1.387 . S
H947 C943 0.950 . S
H948 C945 0.950 . S
C949 C940 1.390 . S
C949 H942 0.950 . S
C949 C946 1.387 . S
C950 C951 1.387 . S
C950 H954 0.950 . S
C950 C959 1.390 . S
C951 C950 1.387 . S
C951 C953 1.387 . S
H952 C959 0.950 . S
C953 C951 1.387 . S
C953 C955 1.390 . S
C953 H957 0.950 . S
H954 C950 0.950 . S
C955 C953 1.390 . S
C955 C956 1.387 . S
C955 H958 0.950 . S
C956 C955 1.387 . S
C956 C959 1.387 . S
H957 C953 0.950 . S
H958 C955 0.950 . S
C959 C950 1.390 . S
C959 H952 0.950 . S
C959 C956 1.387 . S
C960 C961 1.387 . S
C960 H964 0.950 . S
C960 C969 1.390 . S
C961 C960 1.387 . S
C961 C963 1.387 . S
H962 C969 0.950 . S
C963 C961 1.387 . S
C963 C965 1.390 . S
C963 H967 0.950 . S
H964 C960 0.950 . S
C965 C963 1.390 . S
C965 C966 1.387 . S
C965 H968 0.950 . S
C966 C965 1.387 . S
C966 C969 1.387 . S
H967 C963 0.950 . S
H968 C965 0.950 . S
C969 C960 1.390 . S
C969 H962 0.950 . S
C969 C966 1.387 . S
C970 C971 1.387 . S
C970 H974 0.950 . S
C970 C979 1.390 1_455 S
C971 C970 1.387 . S
C971 C973 1.387 . S
H972 C979 0.950 . S
C973 C971 1.387 . S
C973 C975 1.390 1_455 S
C973 H977 0.950 . S
H974 C970 0.950 . S
C975 C973 1.390 1_655 S
C975 C976 1.387 . S
C975 H978 0.950 . S
C976 C975 1.387 . S
C976 C979 1.387 . S
H977 C973 0.950 . S
H978 C975 0.950 . S
C979 C970 1.390 1_655 S
C979 H972 0.950 . S
C979 C976 1.387 . S
C980 C981 1.387 . S
C980 H984 0.950 . S
C980 C989 1.390 . S
C981 C980 1.387 . S
C981 C983 1.387 . S
H982 C989 0.950 . S
C983 C981 1.387 . S
C983 C985 1.390 . S
C983 H987 0.950 . S
H984 C980 0.950 . S
C985 C983 1.390 . S
C985 C986 1.387 . S
C985 H988 0.950 . S
C986 C985 1.387 . S
C986 C989 1.387 . S
H987 C983 0.950 . S
H988 C985 0.950 . S
C989 C980 1.390 . S
C989 H982 0.950 . S
C989 C986 1.387 . S
C990 C991 1.387 . S
C990 H994 0.950 . S
C990 C999 1.390 . S
C991 C990 1.387 . S
C991 C993 1.387 . S
H992 C999 0.950 . S
C993 C991 1.387 . S
C993 C995 1.390 . S
C993 H997 0.950 . S
H994 C990 0.950 . S
C995 C993 1.390 . S
C995 C996 1.387 . S
C995 H998 0.950 . S
C996 C995 1.387 . S
C996 C999 1.387 . S
H997 C993 0.950 . S
H998 C995 0.950 . S
C999 C990 1.390 . S
C999 H992 0.950 . S
C999 C996 1.387 . S
C1000 C1001 1.387 . S
C1000 H1004 0.950 . S
C1000 C1009 1.390 . S
C1001 C1000 1.387 . S
C1001 C1003 1.387 . S
H1002 C1009 0.950 . S
C1003 C1001 1.387 . S
C1003 C1005 1.390 . S
C1003 H1007 0.950 . S
H1004 C1000 0.950 . S
C1005 C1003 1.390 . S
C1005 C1006 1.387 . S
C1005 H1008 0.950 . S
C1006 C1005 1.387 . S
C1006 C1009 1.387 . S
H1007 C1003 0.950 . S
H1008 C1005 0.950 . S
C1009 C1000 1.390 . S
C1009 H1002 0.950 . S
C1009 C1006 1.387 . S
C1010 C1011 1.387 . S
C1010 H1014 0.950 . S
C1010 C1019 1.390 . S
C1011 C1010 1.387 . S
C1011 C1013 1.387 . S
H1012 C1019 0.950 . S
C1013 C1011 1.387 . S
C1013 C1015 1.390 . S
C1013 H1017 0.950 . S
H1014 C1010 0.950 . S
C1015 C1013 1.390 . S
C1015 C1016 1.387 . S
C1015 H1018 0.950 . S
C1016 C1015 1.387 . S
C1016 C1019 1.387 . S
H1017 C1013 0.950 . S
H1018 C1015 0.950 . S
C1019 C1010 1.390 . S
C1019 H1012 0.950 . S
C1019 C1016 1.387 . S
C1020 C1021 1.387 . S
C1020 H1024 0.950 . S
C1020 C1029 1.390 . S
C1021 C1020 1.387 . S
C1021 C1023 1.387 . S
H1022 C1029 0.950 . S
C1023 C1021 1.387 . S
C1023 C1025 1.390 . S
C1023 H1027 0.950 . S
H1024 C1020 0.950 . S
C1025 C1023 1.390 . S
C1025 C1026 1.387 . S
C1025 H1028 0.950 . S
C1026 C1025 1.387 . S
C1026 C1029 1.387 . S
H1027 C1023 0.950 . S
H1028 C1025 0.950 . S
C1029 C1020 1.390 . S
C1029 H1022 0.950 . S
C1029 C1026 1.387 . S
C1030 C1031 1.387 . S
C1030 H1034 0.950 . S
C1030 C1039 1.390 1_455 S
C1031 C1030 1.387 . S
C1031 C1033 1.387 . S
H1032 C1039 0.950 . S
C1033 C1031 1.387 . S
C1033 C1035 1.390 1_455 S
C1033 H1037 0.950 . S
H1034 C1030 0.950 . S
C1035 C1033 1.390 1_655 S
C1035 C1036 1.387 . S
C1035 H1038 0.950 . S
C1036 C1035 1.387 . S
C1036 C1039 1.387 . S
H1037 C1033 0.950 . S
H1038 C1035 0.950 . S
C1039 C1030 1.390 1_655 S
C1039 H1032 0.950 . S
C1039 C1036 1.387 . S
C1040 C1041 1.387 . S
C1040 H1044 0.950 . S
C1040 C1049 1.390 . S
C1041 C1040 1.387 . S
C1041 C1043 1.387 . S
H1042 C1049 0.950 . S
C1043 C1041 1.387 . S
C1043 C1045 1.390 . S
C1043 H1047 0.950 . S
H1044 C1040 0.950 . S
C1045 C1043 1.390 . S
C1045 C1046 1.387 . S
C1045 H1048 0.950 . S
C1046 C1045 1.387 . S
C1046 C1049 1.387 . S
H1047 C1043 0.950 . S
H1048 C1045 0.950 . S
C1049 C1040 1.390 . S
C1049 H1042 0.950 . S
C1049 C1046 1.387 . S
C1050 C1051 1.387 . S
C1050 H1054 0.950 . S
C1050 C1059 1.390 1_455 S
C1051 C1050 1.387 . S
C1051 C1053 1.387 . S
H1052 C1059 0.950 . S
C1053 C1051 1.387 . S
C1053 C1055 1.390 1_455 S
C1053 H1057 0.950 . S
H1054 C1050 0.950 . S
C1055 C1053 1.390 1_655 S
C1055 C1056 1.387 . S
C1055 H1058 0.950 . S
C1056 C1055 1.387 . S
C1056 C1059 1.387 . S
H1057 C1053 0.950 . S
H1058 C1055 0.950 . S
C1059 C1050 1.390 1_655 S
C1059 H1052 0.950 . S
C1059 C1056 1.387 . S
C1060 C1061 1.387 . S
C1060 H1064 0.950 . S
C1060 C1069 1.390 . S
C1061 C1060 1.387 . S
C1061 C1063 1.387 . S
H1062 C1069 0.950 . S
C1063 C1061 1.387 . S
C1063 C1065 1.390 . S
C1063 H1067 0.950 . S
H1064 C1060 0.950 . S
C1065 C1063 1.390 . S
C1065 C1066 1.387 . S
C1065 H1068 0.950 . S
C1066 C1065 1.387 . S
C1066 C1069 1.387 . S
H1067 C1063 0.950 . S
H1068 C1065 0.950 . S
C1069 C1060 1.390 . S
C1069 H1062 0.950 . S
C1069 C1066 1.387 . S
C1070 C1071 1.387 . S
C1070 H1074 0.950 . S
C1070 C1079 1.390 . S
C1071 C1070 1.387 . S
C1071 C1073 1.387 . S
H1072 C1079 0.950 . S
C1073 C1071 1.387 . S
C1073 C1075 1.390 . S
C1073 H1077 0.950 . S
H1074 C1070 0.950 . S
C1075 C1073 1.390 . S
C1075 C1076 1.387 . S
C1075 H1078 0.950 . S
C1076 C1075 1.387 . S
C1076 C1079 1.387 . S
H1077 C1073 0.950 . S
H1078 C1075 0.950 . S
C1079 C1070 1.390 . S
C1079 H1072 0.950 . S
C1079 C1076 1.387 . S
C1080 C1081 1.387 . S
C1080 H1084 0.950 . S
C1080 C1089 1.390 . S
C1081 C1080 1.387 . S
C1081 C1083 1.387 . S
H1082 C1089 0.950 . S
C1083 C1081 1.387 . S
C1083 C1085 1.390 . S
C1083 H1087 0.950 . S
H1084 C1080 0.950 . S
C1085 C1083 1.390 . S
C1085 C1086 1.387 . S
C1085 H1088 0.950 . S
C1086 C1085 1.387 . S
C1086 C1089 1.387 . S
H1087 C1083 0.950 . S
H1088 C1085 0.950 . S
C1089 C1080 1.390 . S
C1089 H1082 0.950 . S
C1089 C1086 1.387 . S
C1090 C1091 1.387 . S
C1090 H1094 0.950 . S
C1090 C1099 1.390 . S
C1091 C1090 1.387 . S
C1091 C1093 1.387 . S
H1092 C1099 0.950 . S
C1093 C1091 1.387 . S
C1093 C1095 1.390 . S
C1093 H1097 0.950 . S
H1094 C1090 0.950 . S
C1095 C1093 1.390 . S
C1095 C1096 1.387 . S
C1095 H1098 0.950 . S
C1096 C1095 1.387 . S
C1096 C1099 1.387 . S
H1097 C1093 0.950 . S
H1098 C1095 0.950 . S
C1099 C1090 1.390 . S
C1099 H1092 0.950 . S
C1099 C1096 1.387 . S
C1100 C1101 1.387 . S
C1100 H1104 0.950 . S
C1100 C1109 1.390 . S
C1101 C1100 1.387 . S
C1101 C1103 1.387 . S
H1102 C1109 0.950 . S
C1103 C1101 1.387 . S
C1103 C1105 1.390 . S
C1103 H1107 0.950 . S
H1104 C1100 0.950 . S
C1105 C1103 1.390 . S
C1105 C1106 1.387 . S
C1105 H1108 0.950 . S
C1106 C1105 1.387 . S
C1106 C1109 1.387 . S
H1107 C1103 0.950 . S
H1108 C1105 0.950 . S
C1109 C1100 1.390 . S
C1109 H1102 0.950 . S
C1109 C1106 1.387 . S
C1110 C1111 1.387 . S
C1110 H1114 0.950 . S
C1110 C1119 1.390 1_655 S
C1111 C1110 1.387 . S
C1111 C1113 1.387 . S
H1112 C1119 0.950 . S
C1113 C1111 1.387 . S
C1113 C1115 1.390 1_655 S
C1113 H1117 0.950 . S
H1114 C1110 0.950 . S
C1115 C1113 1.390 1_455 S
C1115 C1116 1.387 . S
C1115 H1118 0.950 . S
C1116 C1115 1.387 . S
C1116 C1119 1.387 . S
H1117 C1113 0.950 . S
H1118 C1115 0.950 . S
C1119 C1110 1.390 1_455 S
C1119 H1112 0.950 . S
C1119 C1116 1.387 . S
C1120 C1121 1.387 . S
C1120 H1124 0.950 . S
C1120 C1129 1.390 . S
C1121 C1120 1.387 . S
C1121 C1123 1.387 . S
H1122 C1129 0.950 . S
C1123 C1121 1.387 . S
C1123 C1125 1.390 . S
C1123 H1127 0.950 . S
H1124 C1120 0.950 . S
C1125 C1123 1.390 . S
C1125 C1126 1.387 . S
C1125 H1128 0.950 . S
C1126 C1125 1.387 . S
C1126 C1129 1.387 . S
H1127 C1123 0.950 . S
H1128 C1125 0.950 . S
C1129 C1120 1.390 . S
C1129 H1122 0.950 . S
C1129 C1126 1.387 . S
C1130 C1131 1.387 . S
C1130 H1134 0.950 . S
C1130 C1139 1.390 . S
C1131 C1130 1.387 . S
C1131 C1133 1.387 . S
H1132 C1139 0.950 . S
C1133 C1131 1.387 . S
C1133 C1135 1.390 . S
C1133 H1137 0.950 . S
H1134 C1130 0.950 . S
C1135 C1133 1.390 . S
C1135 C1136 1.387 . S
C1135 H1138 0.950 . S
C1136 C1135 1.387 . S
C1136 C1139 1.387 . S
H1137 C1133 0.950 . S
H1138 C1135 0.950 . S
C1139 C1130 1.390 . S
C1139 H1132 0.950 . S
C1139 C1136 1.387 . S
C1140 C1141 1.387 . S
C1140 H1144 0.950 . S
C1140 C1149 1.390 . S
C1141 C1140 1.387 . S
C1141 C1143 1.387 . S
H1142 C1149 0.950 . S
C1143 C1141 1.387 . S
C1143 C1145 1.390 . S
C1143 H1147 0.950 . S
H1144 C1140 0.950 . S
C1145 C1143 1.390 . S
C1145 C1146 1.387 . S
C1145 H1148 0.950 . S
C1146 C1145 1.387 . S
C1146 C1149 1.387 . S
H1147 C1143 0.950 . S
H1148 C1145 0.950 . S
C1149 C1140 1.390 . S
C1149 H1142 0.950 . S
C1149 C1146 1.387 . S
C1150 C1151 1.387 . S
C1150 H1154 0.950 . S
C1150 C1159 1.390 1_655 S
C1151 C1150 1.387 . S
C1151 C1153 1.387 . S
H1152 C1159 0.950 . S
C1153 C1151 1.387 . S
C1153 C1155 1.390 1_655 S
C1153 H1157 0.950 . S
H1154 C1150 0.950 . S
C1155 C1153 1.390 1_455 S
C1155 C1156 1.387 . S
C1155 H1158 0.950 . S
C1156 C1155 1.387 . S
C1156 C1159 1.387 . S
H1157 C1153 0.950 . S
H1158 C1155 0.950 . S
C1159 C1150 1.390 1_455 S
C1159 H1152 0.950 . S
C1159 C1156 1.387 . S
C1160 C1161 1.387 . S
C1160 H1164 0.950 . S
C1160 C1169 1.390 . S
C1161 C1160 1.387 . S
C1161 C1163 1.387 . S
H1162 C1169 0.950 . S
C1163 C1161 1.387 . S
C1163 C1165 1.390 . S
C1163 H1167 0.950 . S
H1164 C1160 0.950 . S
C1165 C1163 1.390 . S
C1165 C1166 1.387 . S
C1165 H1168 0.950 . S
C1166 C1165 1.387 . S
C1166 C1169 1.387 . S
H1167 C1163 0.950 . S
H1168 C1165 0.950 . S
C1169 C1160 1.390 . S
C1169 H1162 0.950 . S
C1169 C1166 1.387 . S
C1170 C1171 1.387 . S
C1170 H1174 0.950 . S
C1170 C1179 1.390 1_655 S
C1171 C1170 1.387 . S
C1171 C1173 1.387 . S
H1172 C1179 0.950 . S
C1173 C1171 1.387 . S
C1173 C1175 1.390 1_655 S
C1173 H1177 0.950 . S
H1174 C1170 0.950 . S
C1175 C1173 1.390 1_455 S
C1175 C1176 1.387 . S
C1175 H1178 0.950 . S
C1176 C1175 1.387 . S
C1176 C1179 1.387 . S
H1177 C1173 0.950 . S
H1178 C1175 0.950 . S
C1179 C1170 1.390 1_455 S
C1179 H1172 0.950 . S
C1179 C1176 1.387 . S
C1180 C1181 1.387 . S
C1180 H1184 0.950 . S
C1180 C1189 1.390 . S
C1181 C1180 1.387 . S
C1181 C1183 1.387 . S
H1182 C1189 0.950 . S
C1183 C1181 1.387 . S
C1183 C1185 1.390 . S
C1183 H1187 0.950 . S
H1184 C1180 0.950 . S
C1185 C1183 1.390 . S
C1185 C1186 1.387 . S
C1185 H1188 0.950 . S
C1186 C1185 1.387 . S
C1186 C1189 1.387 . S
H1187 C1183 0.950 . S
H1188 C1185 0.950 . S
C1189 C1180 1.390 . S
C1189 H1182 0.950 . S
C1189 C1186 1.387 . S
C1190 C1191 1.387 . S
C1190 H1194 0.950 . S
C1190 C1199 1.390 . S
C1191 C1190 1.387 . S
C1191 C1193 1.387 . S
H1192 C1199 0.950 . S
C1193 C1191 1.387 . S
C1193 C1195 1.390 . S
C1193 H1197 0.950 . S
H1194 C1190 0.950 . S
C1195 C1193 1.390 . S
C1195 C1196 1.387 . S
C1195 H1198 0.950 . S
C1196 C1195 1.387 . S
C1196 C1199 1.387 . S
H1197 C1193 0.950 . S
H1198 C1195 0.950 . S
C1199 C1190 1.390 . S
C1199 H1192 0.950 . S
C1199 C1196 1.387 . S
C1200 C1201 1.387 . S
C1200 H1204 0.950 . S
C1200 C1209 1.390 . S
C1201 C1200 1.387 . S
C1201 C1203 1.387 . S
H1202 C1209 0.950 . S
C1203 C1201 1.387 . S
C1203 C1205 1.390 . S
C1203 H1207 0.950 . S
H1204 C1200 0.950 . S
C1205 C1203 1.390 . S
C1205 C1206 1.387 . S
C1205 H1208 0.950 . S
C1206 C1205 1.387 . S
C1206 C1209 1.387 . S
H1207 C1203 0.950 . S
H1208 C1205 0.950 . S
C1209 C1200 1.390 . S
C1209 H1202 0.950 . S
C1209 C1206 1.387 . S
C1210 C1211 1.387 . S
C1210 H1214 0.950 . S
C1210 C1219 1.390 . S
C1211 C1210 1.387 . S
C1211 C1213 1.387 . S
H1212 C1219 0.950 . S
C1213 C1211 1.387 . S
C1213 C1215 1.390 . S
C1213 H1217 0.950 . S
H1214 C1210 0.950 . S
C1215 C1213 1.390 . S
C1215 C1216 1.387 . S
C1215 H1218 0.950 . S
C1216 C1215 1.387 . S
C1216 C1219 1.387 . S
H1217 C1213 0.950 . S
H1218 C1215 0.950 . S
C1219 C1210 1.390 . S
C1219 H1212 0.950 . S
C1219 C1216 1.387 . S
C1220 C1221 1.387 . S
C1220 H1224 0.950 . S
C1220 C1229 1.390 . S
C1221 C1220 1.387 . S
C1221 C1223 1.387 . S
H1222 C1229 0.950 . S
C1223 C1221 1.387 . S
C1223 C1225 1.390 . S
C1223 H1227 0.950 . S
H1224 C1220 0.950 . S
C1225 C1223 1.390 . S
C1225 C1226 1.387 . S
C1225 H1228 0.950 . S
C1226 C1225 1.387 . S
C1226 C1229 1.387 . S
H1227 C1223 0.950 . S
H1228 C1225 0.950 . S
C1229 C1220 1.390 . S
C1229 H1222 0.950 . S
C1229 C1226 1.387 . S
C1230 C1231 1.387 . S
C1230 H1234 0.950 . S
C1230 C1239 1.390 1_655 S
C1231 C1230 1.387 . S
C1231 C1233 1.387 . S
H1232 C1239 0.950 . S
C1233 C1231 1.387 . S
C1233 C1235 1.390 1_655 S
C1233 H1237 0.950 . S
H1234 C1230 0.950 . S
C1235 C1233 1.390 1_455 S
C1235 C1236 1.387 . S
C1235 H1238 0.950 . S
C1236 C1235 1.387 . S
C1236 C1239 1.387 . S
H1237 C1233 0.950 . S
H1238 C1235 0.950 . S
C1239 C1230 1.390 1_455 S
C1239 H1232 0.950 . S
C1239 C1236 1.387 . S
C1240 C1241 1.387 . S
C1240 H1244 0.950 . S
C1240 C1249 1.390 . S
C1241 C1240 1.387 . S
C1241 C1243 1.387 . S
H1242 C1249 0.950 . S
C1243 C1241 1.387 . S
C1243 C1245 1.390 . S
C1243 H1247 0.950 . S
H1244 C1240 0.950 . S
C1245 C1243 1.390 . S
C1245 C1246 1.387 . S
C1245 H1248 0.950 . S
C1246 C1245 1.387 . S
C1246 C1249 1.387 . S
H1247 C1243 0.950 . S
H1248 C1245 0.950 . S
C1249 C1240 1.390 . S
C1249 H1242 0.950 . S
C1249 C1246 1.387 . S
C1250 C1251 1.387 . S
C1250 H1254 0.950 . S
C1250 C1259 1.390 1_455 S
C1251 C1250 1.387 . S
C1251 C1253 1.387 . S
H1252 C1259 0.950 . S
C1253 C1251 1.387 . S
C1253 C1255 1.390 1_455 S
C1253 H1257 0.950 . S
H1254 C1250 0.950 . S
C1255 C1253 1.390 1_655 S
C1255 C1256 1.387 . S
C1255 H1258 0.950 . S
C1256 C1255 1.387 . S
C1256 C1259 1.387 . S
H1257 C1253 0.950 . S
H1258 C1255 0.950 . S
C1259 C1250 1.390 1_655 S
C1259 H1252 0.950 . S
C1259 C1256 1.387 . S
C1260 C1261 1.387 . S
C1260 H1264 0.950 . S
C1260 C1269 1.390 . S
C1261 C1260 1.387 . S
C1261 C1263 1.387 . S
H1262 C1269 0.950 . S
C1263 C1261 1.387 . S
C1263 C1265 1.390 . S
C1263 H1267 0.950 . S
H1264 C1260 0.950 . S
C1265 C1263 1.390 . S
C1265 C1266 1.387 . S
C1265 H1268 0.950 . S
C1266 C1265 1.387 . S
C1266 C1269 1.387 . S
H1267 C1263 0.950 . S
H1268 C1265 0.950 . S
C1269 C1260 1.390 . S
C1269 H1262 0.950 . S
C1269 C1266 1.387 . S
C1270 C1271 1.387 . S
C1270 H1274 0.950 . S
C1270 C1279 1.390 . S
C1271 C1270 1.387 . S
C1271 C1273 1.387 . S
H1272 C1279 0.950 . S
C1273 C1271 1.387 . S
C1273 C1275 1.390 . S
C1273 H1277 0.950 . S
H1274 C1270 0.950 . S
C1275 C1273 1.390 . S
C1275 C1276 1.387 . S
C1275 H1278 0.950 . S
C1276 C1275 1.387 . S
C1276 C1279 1.387 . S
H1277 C1273 0.950 . S
H1278 C1275 0.950 . S
C1279 C1270 1.390 . S
C1279 H1272 0.950 . S
C1279 C1276 1.387 . S
C1280 C1281 1.387 . S
C1280 H1284 0.950 . S
C1280 C1289 1.390 1_545 S
C1281 C1280 1.387 . S
C1281 C1283 1.387 . S
H1282 C1289 0.950 . S
C1283 C1281 1.387 . S
C1283 C1285 1.390 1_545 S
C1283 H1287 0.950 . S
H1284 C1280 0.950 . S
C1285 C1283 1.390 1_565 S
C1285 C1286 1.387 . S
C1285 H1288 0.950 . S
C1286 C1285 1.387 . S
C1286 C1289 1.387 . S
H1287 C1283 0.950 . S
H1288 C1285 0.950 . S
C1289 C1280 1.390 1_565 S
C1289 H1282 0.950 . S
C1289 C1286 1.387 . S
C1290 C1291 1.387 . S
C1290 H1294 0.950 . S
C1290 C1299 1.390 . S
C1291 C1290 1.387 . S
C1291 C1293 1.387 . S
H1292 C1299 0.950 . S
C1293 C1291 1.387 . S
C1293 C1295 1.390 . S
C1293 H1297 0.950 . S
H1294 C1290 0.950 . S
C1295 C1293 1.390 . S
C1295 C1296 1.387 . S
C1295 H1298 0.950 . S
C1296 C1295 1.387 . S
C1296 C1299 1.387 . S
H1297 C1293 0.950 . S
H1298 C1295 0.950 . S
C1299 C1290 1.390 . S
C1299 H1292 0.950 . S
C1299 C1296 1.387 . S
C1300 C1301 1.387 . S
C1300 H1304 0.950 . S
C1300 C1309 1.390 1_565 S
C1301 C1300 1.387 . S
C1301 C1303 1.387 . S
H1302 C1309 0.950 . S
C1303 C1301 1.387 . S
C1303 C1305 1.390 1_565 S
C1303 H1307 0.950 . S
H1304 C1300 0.950 . S
C1305 C1303 1.390 1_545 S
C1305 C1306 1.387 . S
C1305 H1308 0.950 . S
C1306 C1305 1.387 . S
C1306 C1309 1.387 . S
H1307 C1303 0.950 . S
H1308 C1305 0.950 . S
C1309 C1300 1.390 1_545 S
C1309 H1302 0.950 . S
C1309 C1306 1.387 . S
C1310 C1311 1.387 . S
C1310 H1314 0.950 . S
C1310 C1319 1.390 1_556 S
C1311 C1310 1.387 . S
C1311 C1313 1.387 . S
H1312 C1319 0.950 . S
C1313 C1311 1.387 . S
C1313 C1315 1.390 1_556 S
C1313 H1317 0.950 . S
H1314 C1310 0.950 . S
C1315 C1313 1.390 1_554 S
C1315 C1316 1.387 . S
C1315 H1318 0.950 . S
C1316 C1315 1.387 . S
C1316 C1319 1.387 . S
H1317 C1313 0.950 . S
H1318 C1315 0.950 . S
C1319 C1310 1.390 1_554 S
C1319 H1312 0.950 . S
C1319 C1316 1.387 . S
C1320 C1321 1.387 . S
C1320 H1324 0.950 . S
C1320 C1329 1.390 1_545 S
C1321 C1320 1.387 . S
C1321 C1323 1.387 . S
H1322 C1329 0.950 . S
C1323 C1321 1.387 . S
C1323 C1325 1.390 1_545 S
C1323 H1327 0.950 . S
H1324 C1320 0.950 . S
C1325 C1323 1.390 1_565 S
C1325 C1326 1.387 . S
C1325 H1328 0.950 . S
C1326 C1325 1.387 . S
C1326 C1329 1.387 . S
H1327 C1323 0.950 . S
H1328 C1325 0.950 . S
C1329 C1320 1.390 1_565 S
C1329 H1322 0.950 . S
C1329 C1326 1.387 . S
C1330 C1331 1.387 . S
C1330 H1334 0.950 . S
C1330 C1339 1.390 . S
C1331 C1330 1.387 . S
C1331 C1333 1.387 . S
H1332 C1339 0.950 . S
C1333 C1331 1.387 . S
C1333 C1335 1.390 . S
C1333 H1337 0.950 . S
H1334 C1330 0.950 . S
C1335 C1333 1.390 . S
C1335 C1336 1.387 . S
C1335 H1338 0.950 . S
C1336 C1335 1.387 . S
C1336 C1339 1.387 . S
H1337 C1333 0.950 . S
H1338 C1335 0.950 . S
C1339 C1330 1.390 . S
C1339 H1332 0.950 . S
C1339 C1336 1.387 . S
C1340 C1341 1.387 . S
C1340 H1344 0.950 . S
C1340 C1349 1.390 1_545 S
C1341 C1340 1.387 . S
C1341 C1343 1.387 . S
H1342 C1349 0.950 . S
C1343 C1341 1.387 . S
C1343 C1345 1.390 1_545 S
C1343 H1347 0.950 . S
H1344 C1340 0.950 . S
C1345 C1343 1.390 1_565 S
C1345 C1346 1.387 . S
C1345 H1348 0.950 . S
C1346 C1345 1.387 . S
C1346 C1349 1.387 . S
H1347 C1343 0.950 . S
H1348 C1345 0.950 . S
C1349 C1340 1.390 1_565 S
C1349 H1342 0.950 . S
C1349 C1346 1.387 . S
C1350 C1351 1.387 . S
C1350 H1354 0.950 . S
C1350 C1359 1.390 1_556 S
C1351 C1350 1.387 . S
C1351 C1353 1.387 . S
H1352 C1359 0.950 . S
C1353 C1351 1.387 . S
C1353 C1355 1.390 1_556 S
C1353 H1357 0.950 . S
H1354 C1350 0.950 . S
C1355 C1353 1.390 1_554 S
C1355 C1356 1.387 . S
C1355 H1358 0.950 . S
C1356 C1355 1.387 . S
C1356 C1359 1.387 . S
H1357 C1353 0.950 . S
H1358 C1355 0.950 . S
C1359 C1350 1.390 1_554 S
C1359 H1352 0.950 . S
C1359 C1356 1.387 . S
C1360 C1361 1.387 . S
C1360 H1364 0.950 . S
C1360 C1369 1.390 . S
C1361 C1360 1.387 . S
C1361 C1363 1.387 . S
H1362 C1369 0.950 . S
C1363 C1361 1.387 . S
C1363 C1365 1.390 . S
C1363 H1367 0.950 . S
H1364 C1360 0.950 . S
C1365 C1363 1.390 . S
C1365 C1366 1.387 . S
C1365 H1368 0.950 . S
C1366 C1365 1.387 . S
C1366 C1369 1.387 . S
H1367 C1363 0.950 . S
H1368 C1365 0.950 . S
C1369 C1360 1.390 . S
C1369 H1362 0.950 . S
C1369 C1366 1.387 . S
C1370 C1371 1.387 . S
C1370 H1374 0.950 . S
C1370 C1379 1.390 1_556 S
C1371 C1370 1.387 . S
C1371 C1373 1.387 . S
H1372 C1379 0.950 . S
C1373 C1371 1.387 . S
C1373 C1375 1.390 1_556 S
C1373 H1377 0.950 . S
H1374 C1370 0.950 . S
C1375 C1373 1.390 1_554 S
C1375 C1376 1.387 . S
C1375 H1378 0.950 . S
C1376 C1375 1.387 . S
C1376 C1379 1.387 . S
H1377 C1373 0.950 . S
H1378 C1375 0.950 . S
C1379 C1370 1.390 1_554 S
C1379 H1372 0.950 . S
C1379 C1376 1.387 . S
C1380 C1381 1.387 . S
C1380 H1384 0.950 . S
C1380 C1389 1.390 . S
C1381 C1380 1.387 . S
C1381 C1383 1.387 . S
H1382 C1389 0.950 . S
C1383 C1381 1.387 . S
C1383 C1385 1.390 . S
C1383 H1387 0.950 . S
H1384 C1380 0.950 . S
C1385 C1383 1.390 . S
C1385 C1386 1.387 . S
C1385 H1388 0.950 . S
C1386 C1385 1.387 . S
C1386 C1389 1.387 . S
H1387 C1383 0.950 . S
H1388 C1385 0.950 . S
C1389 C1380 1.390 . S
C1389 H1382 0.950 . S
C1389 C1386 1.387 . S
C1390 C1391 1.387 . S
C1390 H1394 0.950 . S
C1390 C1399 1.390 . S
C1391 C1390 1.387 . S
C1391 C1393 1.387 . S
H1392 C1399 0.950 . S
C1393 C1391 1.387 . S
C1393 C1395 1.390 . S
C1393 H1397 0.950 . S
H1394 C1390 0.950 . S
C1395 C1393 1.390 . S
C1395 C1396 1.387 . S
C1395 H1398 0.950 . S
C1396 C1395 1.387 . S
C1396 C1399 1.387 . S
H1397 C1393 0.950 . S
H1398 C1395 0.950 . S
C1399 C1390 1.390 . S
C1399 H1392 0.950 . S
C1399 C1396 1.387 . S
C1400 C1401 1.387 . S
C1400 H1404 0.950 . S
C1400 C1409 1.390 . S
C1401 C1400 1.387 . S
C1401 C1403 1.387 . S
H1402 C1409 0.950 . S
C1403 C1401 1.387 . S
C1403 C1405 1.390 . S
C1403 H1407 0.950 . S
H1404 C1400 0.950 . S
C1405 C1403 1.390 . S
C1405 C1406 1.387 . S
C1405 H1408 0.950 . S
C1406 C1405 1.387 . S
C1406 C1409 1.387 . S
H1407 C1403 0.950 . S
H1408 C1405 0.950 . S
C1409 C1400 1.390 . S
C1409 H1402 0.950 . S
C1409 C1406 1.387 . S
C1410 C1411 1.387 . S
C1410 H1414 0.950 . S
C1410 C1419 1.390 1_556 S
C1411 C1410 1.387 . S
C1411 C1413 1.387 . S
H1412 C1419 0.950 . S
C1413 C1411 1.387 . S
C1413 C1415 1.390 1_556 S
C1413 H1417 0.950 . S
H1414 C1410 0.950 . S
C1415 C1413 1.390 1_554 S
C1415 C1416 1.387 . S
C1415 H1418 0.950 . S
C1416 C1415 1.387 . S
C1416 C1419 1.387 . S
H1417 C1413 0.950 . S
H1418 C1415 0.950 . S
C1419 C1410 1.390 1_554 S
C1419 H1412 0.950 . S
C1419 C1416 1.387 . S
C1420 C1421 1.387 . S
C1420 H1424 0.950 . S
C1420 C1429 1.390 . S
C1421 C1420 1.387 . S
C1421 C1423 1.387 . S
H1422 C1429 0.950 . S
C1423 C1421 1.387 . S
C1423 C1425 1.390 . S
C1423 H1427 0.950 . S
H1424 C1420 0.950 . S
C1425 C1423 1.390 . S
C1425 C1426 1.387 . S
C1425 H1428 0.950 . S
C1426 C1425 1.387 . S
C1426 C1429 1.387 . S
H1427 C1423 0.950 . S
H1428 C1425 0.950 . S
C1429 C1420 1.390 . S
C1429 H1422 0.950 . S
C1429 C1426 1.387 . S
C1430 C1431 1.387 . S
C1430 H1434 0.950 . S
C1430 C1439 1.390 . S
C1431 C1430 1.387 . S
C1431 C1433 1.387 . S
H1432 C1439 0.950 . S
C1433 C1431 1.387 . S
C1433 C1435 1.390 . S
C1433 H1437 0.950 . S
H1434 C1430 0.950 . S
C1435 C1433 1.390 . S
C1435 C1436 1.387 . S
C1435 H1438 0.950 . S
C1436 C1435 1.387 . S
C1436 C1439 1.387 . S
H1437 C1433 0.950 . S
H1438 C1435 0.950 . S
C1439 C1430 1.390 . S
C1439 H1432 0.950 . S
C1439 C1436 1.387 . S
C1440 C1441 1.387 . S
C1440 H1444 0.950 . S
C1440 C1449 1.390 . S
C1441 C1440 1.387 . S
C1441 C1443 1.387 . S
H1442 C1449 0.950 . S
C1443 C1441 1.387 . S
C1443 C1445 1.390 . S
C1443 H1447 0.950 . S
H1444 C1440 0.950 . S
C1445 C1443 1.390 . S
C1445 C1446 1.387 . S
C1445 H1448 0.950 . S
C1446 C1445 1.387 . S
C1446 C1449 1.387 . S
H1447 C1443 0.950 . S
H1448 C1445 0.950 . S
C1449 C1440 1.390 . S
C1449 H1442 0.950 . S
C1449 C1446 1.387 . S
C1450 C1451 1.387 . S
C1450 H1454 0.950 . S
C1450 C1459 1.390 . S
C1451 C1450 1.387 . S
C1451 C1453 1.387 . S
H1452 C1459 0.950 . S
C1453 C1451 1.387 . S
C1453 C1455 1.390 . S
C1453 H1457 0.950 . S
H1454 C1450 0.950 . S
C1455 C1453 1.390 . S
C1455 C1456 1.387 . S
C1455 H1458 0.950 . S
C1456 C1455 1.387 . S
C1456 C1459 1.387 . S
H1457 C1453 0.950 . S
H1458 C1455 0.950 . S
C1459 C1450 1.390 . S
C1459 H1452 0.950 . S
C1459 C1456 1.387 . S
C1460 C1461 1.387 . S
C1460 H1464 0.950 . S
C1460 C1469 1.390 . S
C1461 C1460 1.387 . S
C1461 C1463 1.387 . S
H1462 C1469 0.950 . S
C1463 C1461 1.387 . S
C1463 C1465 1.390 . S
C1463 H1467 0.950 . S
H1464 C1460 0.950 . S
C1465 C1463 1.390 . S
C1465 C1466 1.387 . S
C1465 H1468 0.950 . S
C1466 C1465 1.387 . S
C1466 C1469 1.387 . S
H1467 C1463 0.950 . S
H1468 C1465 0.950 . S
C1469 C1460 1.390 . S
C1469 H1462 0.950 . S
C1469 C1466 1.387 . S
C1470 C1471 1.387 . S
C1470 H1474 0.950 . S
C1470 C1479 1.390 . S
C1471 C1470 1.387 . S
C1471 C1473 1.387 . S
H1472 C1479 0.950 . S
C1473 C1471 1.387 . S
C1473 C1475 1.390 . S
C1473 H1477 0.950 . S
H1474 C1470 0.950 . S
C1475 C1473 1.390 . S
C1475 C1476 1.387 . S
C1475 H1478 0.950 . S
C1476 C1475 1.387 . S
C1476 C1479 1.387 . S
H1477 C1473 0.950 . S
H1478 C1475 0.950 . S
C1479 C1470 1.390 . S
C1479 H1472 0.950 . S
C1479 C1476 1.387 . S
C1480 C1481 1.387 . S
C1480 H1484 0.950 . S
C1480 C1489 1.390 . S
C1481 C1480 1.387 . S
C1481 C1483 1.387 . S
H1482 C1489 0.950 . S
C1483 C1481 1.387 . S
C1483 C1485 1.390 . S
C1483 H1487 0.950 . S
H1484 C1480 0.950 . S
C1485 C1483 1.390 . S
C1485 C1486 1.387 . S
C1485 H1488 0.950 . S
C1486 C1485 1.387 . S
C1486 C1489 1.387 . S
H1487 C1483 0.950 . S
H1488 C1485 0.950 . S
C1489 C1480 1.390 . S
C1489 H1482 0.950 . S
C1489 C1486 1.387 . S
C1490 C1491 1.387 . S
C1490 H1494 0.950 . S
C1490 C1499 1.390 . S
C1491 C1490 1.387 . S
C1491 C1493 1.387 . S
H1492 C1499 0.950 . S
C1493 C1491 1.387 . S
C1493 C1495 1.390 . S
C1493 H1497 0.950 . S
H1494 C1490 0.950 . S
C1495 C1493 1.390 . S
C1495 C1496 1.387 . S
C1495 H1498 0.950 . S
C1496 C1495 1.387 . S
C1496 C1499 1.387 . S
H1497 C1493 0.950 . S
H1498 C1495 0.950 . S
C1499 C1490 1.390 . S
C1499 H1492 0.950 . S
C1499 C1496 1.387 . S
C1500 C1501 1.387 . S
C1500 H1504 0.950 . S
C1500 C1509 1.390 . S
C1501 C1500 1.387 . S
C1501 C1503 1.387 . S
H1502 C1509 0.950 . S
C1503 C1501 1.387 . S
C1503 C1505 1.390 . S
C1503 H1507 0.950 . S
H1504 C1500 0.950 . S
C1505 C1503 1.390 . S
C1505 C1506 1.387 . S
C1505 H1508 0.950 . S
C1506 C1505 1.387 . S
C1506 C1509 1.387 . S
H1507 C1503 0.950 . S
H1508 C1505 0.950 . S
C1509 C1500 1.390 . S
C1509 H1502 0.950 . S
C1509 C1506 1.387 . S
C1510 C1511 1.387 . S
C1510 H1514 0.950 . S
C1510 C1519 1.390 . S
C1511 C1510 1.387 . S
C1511 C1513 1.387 . S
H1512 C1519 0.950 . S
C1513 C1511 1.387 . S
C1513 C1515 1.390 . S
C1513 H1517 0.950 . S
H1514 C1510 0.950 . S
C1515 C1513 1.390 . S
C1515 C1516 1.387 . S
C1515 H1518 0.950 . S
C1516 C1515 1.387 . S
C1516 C1519 1.387 . S
H1517 C1513 0.950 . S
H1518 C1515 0.950 . S
C1519 C1510 1.390 . S
C1519 H1512 0.950 . S
C1519 C1516 1.387 . S
C1520 C1521 1.387 . S
C1520 H1524 0.950 . S
C1520 C1529 1.390 . S
C1521 C1520 1.387 . S
C1521 C1523 1.387 . S
H1522 C1529 0.950 . S
C1523 C1521 1.387 . S
C1523 C1525 1.390 . S
C1523 H1527 0.950 . S
H1524 C1520 0.950 . S
C1525 C1523 1.390 . S
C1525 C1526 1.387 . S
C1525 H1528 0.950 . S
C1526 C1525 1.387 . S
C1526 C1529 1.387 . S
H1527 C1523 0.950 . S
H1528 C1525 0.950 . S
C1529 C1520 1.390 . S
C1529 H1522 0.950 . S
C1529 C1526 1.387 . S
C1530 C1531 1.387 . S
C1530 H1534 0.950 . S
C1530 C1539 1.390 . S
C1531 C1530 1.387 . S
C1531 C1533 1.387 . S
H1532 C1539 0.950 . S
C1533 C1531 1.387 . S
C1533 C1535 1.390 . S
C1533 H1537 0.950 . S
H1534 C1530 0.950 . S
C1535 C1533 1.390 . S
C1535 C1536 1.387 . S
C1535 H1538 0.950 . S
C1536 C1535 1.387 . S
C1536 C1539 1.387 . S
H1537 C1533 0.950 . S
H1538 C1535 0.950 . S
C1539 C1530 1.390 . S
C1539 H1532 0.950 . S
C1539 C1536 1.387 . S
C1540 C1541 1.387 . S
C1540 H1544 0.950 . S
C1540 C1549 1.390 . S
C1541 C1540 1.387 . S
C1541 C1543 1.387 . S
H1542 C1549 0.950 . S
C1543 C1541 1.387 . S
C1543 C1545 1.390 . S
C1543 H1547 0.950 . S
H1544 C1540 0.950 . S
C1545 C1543 1.390 . S
C1545 C1546 1.387 . S
C1545 H1548 0.950 . S
C1546 C1545 1.387 . S
C1546 C1549 1.387 . S
H1547 C1543 0.950 . S
H1548 C1545 0.950 . S
C1549 C1540 1.390 . S
C1549 H1542 0.950 . S
C1549 C1546 1.387 . S
C1550 C1551 1.387 . S
C1550 H1554 0.950 . S
C1550 C1559 1.390 . S
C1551 C1550 1.387 . S
C1551 C1553 1.387 . S
H1552 C1559 0.950 . S
C1553 C1551 1.387 . S
C1553 C1555 1.390 . S
C1553 H1557 0.950 . S
H1554 C1550 0.950 . S
C1555 C1553 1.390 . S
C1555 C1556 1.387 . S
C1555 H1558 0.950 . S
C1556 C1555 1.387 . S
C1556 C1559 1.387 . S
H1557 C1553 0.950 . S
H1558 C1555 0.950 . S
C1559 C1550 1.390 . S
C1559 H1552 0.950 . S
C1559 C1556 1.387 . S
C1560 C1561 1.387 . S
C1560 H1564 0.950 . S
C1560 C1569 1.390 . S
C1561 C1560 1.387 . S
C1561 C1563 1.387 . S
H1562 C1569 0.950 . S
C1563 C1561 1.387 . S
C1563 C1565 1.390 . S
C1563 H1567 0.950 . S
H1564 C1560 0.950 . S
C1565 C1563 1.390 . S
C1565 C1566 1.387 . S
C1565 H1568 0.950 . S
C1566 C1565 1.387 . S
C1566 C1569 1.387 . S
H1567 C1563 0.950 . S
H1568 C1565 0.950 . S
C1569 C1560 1.390 . S
C1569 H1562 0.950 . S
C1569 C1566 1.387 . S
C1570 C1571 1.387 . S
C1570 H1574 0.950 . S
C1570 C1579 1.390 . S
C1571 C1570 1.387 . S
C1571 C1573 1.387 . S
H1572 C1579 0.950 . S
C1573 C1571 1.387 . S
C1573 C1575 1.390 . S
C1573 H1577 0.950 . S
H1574 C1570 0.950 . S
C1575 C1573 1.390 . S
C1575 C1576 1.387 . S
C1575 H1578 0.950 . S
C1576 C1575 1.387 . S
C1576 C1579 1.387 . S
H1577 C1573 0.950 . S
H1578 C1575 0.950 . S
C1579 C1570 1.390 . S
C1579 H1572 0.950 . S
C1579 C1576 1.387 . S
C1580 C1581 1.387 . S
C1580 H1584 0.950 . S
C1580 C1589 1.390 . S
C1581 C1580 1.387 . S
C1581 C1583 1.387 . S
H1582 C1589 0.950 . S
C1583 C1581 1.387 . S
C1583 C1585 1.390 . S
C1583 H1587 0.950 . S
H1584 C1580 0.950 . S
C1585 C1583 1.390 . S
C1585 C1586 1.387 . S
C1585 H1588 0.950 . S
C1586 C1585 1.387 . S
C1586 C1589 1.387 . S
H1587 C1583 0.950 . S
H1588 C1585 0.950 . S
C1589 C1580 1.390 . S
C1589 H1582 0.950 . S
C1589 C1586 1.387 . S
C1590 C1591 1.387 . S
C1590 H1594 0.950 . S
C1590 C1599 1.390 . S
C1591 C1590 1.387 . S
C1591 C1593 1.387 . S
H1592 C1599 0.950 . S
C1593 C1591 1.387 . S
C1593 C1595 1.390 . S
C1593 H1597 0.950 . S
H1594 C1590 0.950 . S
C1595 C1593 1.390 . S
C1595 C1596 1.387 . S
C1595 H1598 0.950 . S
C1596 C1595 1.387 . S
C1596 C1599 1.387 . S
H1597 C1593 0.950 . S
H1598 C1595 0.950 . S
C1599 C1590 1.390 . S
C1599 H1592 0.950 . S
C1599 C1596 1.387 . S
C641 C8 1.744 . S
C646 C66 1.702 . S
C651 C6 1.701 . S
C656 C28 1.743 . S
C661 C48 1.744 . S
C666 C26 1.702 . S
C671 C46 1.701 . S
C676 C68 1.744 1_556 S
C681 C106 1.701 . S
C686 C88 1.744 . S
C691 C108 1.742 . S
C696 C126 1.699 . S
C701 C146 1.699 . S
C706 C128 1.742 . S
C711 C86 1.700 . S
C716 C148 1.742 1_554 S
C721 C179 1.744 . S
C726 C236 1.702 . S
C731 C199 1.744 . S
C736 C176 1.702 . S
C741 C219 1.744 . S
C746 C196 1.702 . S
C751 C239 1.744 1_554 S
C756 C216 1.701 . S
C761 C259 1.742 . S
C766 C276 1.699 . S
C771 C279 1.744 . S
C776 C296 1.702 . S
C781 C316 1.699 . S
C786 C299 1.742 . S
C791 C256 1.702 . S
C796 C319 1.744 1_556 S
C801 C328 1.742 . S
C806 C386 1.699 . S
C811 C326 1.699 . S
C816 C348 1.742 1_556 S
C821 C346 1.698 . S
C826 C368 1.742 . S
C831 C388 1.744 . S
C836 C366 1.702 . S
C841 C408 1.742 . S
C846 C426 1.699 . S
C851 C446 1.702 . S
C856 C428 1.744 1_554 S
C861 C448 1.742 . S
C866 C466 1.699 . S
C871 C406 1.701 . S
C876 C468 1.744 . S
C881 C556 1.698 . S
C886 C499 1.742 . S
C891 C496 1.699 . S
C896 C519 1.742 1_554 S
C901 C539 1.744 . S
C906 C516 1.702 . S
C911 C536 1.701 . S
C916 C559 1.744 . S
C921 C596 1.699 . S
C926 C579 1.742 . S
C931 C616 1.699 . S
C936 C599 1.742 1_556 S
C941 C636 1.702 . S
C946 C619 1.744 . S
C951 C639 1.742 . S
C956 C576 1.699 . S
C961 C548 1.406 . S
C966 C1 1.504 . S
C971 C21 1.504 . S
C976 C168 1.405 . S
C981 C41 1.503 . S
C986 C508 1.405 . S
C991 C61 1.505 . S
C996 C208 1.409 . S
C1001 C81 1.503 . S
C1006 C588 1.405 . S
C1011 C288 1.405 . S
C1016 C101 1.504 . S
C1021 C628 1.407 . S
C1026 C121 1.503 . S
C1031 C141 1.505 . S
C1036 C248 1.409 . S
C1041 C169 1.504 . S
C1046 C399 1.405 . S
C1051 C19 1.405 . S
C1056 C189 1.504 . S
C1061 C359 1.405 . S
C1066 C209 1.504 . S
C1071 C59 1.409 . S
C1076 C229 1.505 . S
C1081 C439 1.409 . S
C1086 C249 1.504 . S
C1091 C139 1.405 . S
C1096 C269 1.504 . S
C1101 C289 1.504 . S
C1106 C479 1.405 . S
C1111 C309 1.505 . S
C1116 C99 1.409 . S
C1121 C321 1.503 . S
C1126 C228 1.405 . S
C1131 C341 1.505 . S
C1136 C488 1.409 . S
C1141 C361 1.504 . S
C1146 C188 1.409 . S
C1151 C381 1.505 . S
C1156 C528 1.409 . S
C1161 C401 1.504 . S
C1166 C268 1.407 . S
C1171 C421 1.504 . S
C1176 C608 1.409 . S
C1181 C308 1.406 . S
C1186 C441 1.504 . S
C1191 C461 1.504 . S
C1196 C568 1.405 . S
C1201 C79 1.409 . S
C1206 C489 1.505 . S
C1211 C339 1.405 . S
C1216 C509 1.504 . S
C1221 C39 1.405 . S
C1226 C529 1.504 . S
C1231 C379 1.409 . S
C1236 C549 1.505 . S
C1241 C119 1.409 . S
C1246 C569 1.504 . S
C1251 C589 1.504 . S
C1256 C459 1.405 . S
C1261 C609 1.505 . S
C1266 C159 1.409 . S
C1271 C419 1.405 . S
C1276 C629 1.504 . S
C1281 C9 0.327 . S
C1286 C89 0.327 . S
C1291 C29 0.328 . S
C1296 C109 0.328 . S
C1301 C49 0.327 . S
C1306 C129 0.327 . S
C1311 C149 0.327 . S
C1316 C69 0.327 . S
C1321 C241 0.327 . S
C1326 C161 0.327 . S
C1331 C261 0.328 . S
C1336 C181 0.328 . S
C1341 C201 0.327 . S
C1346 C281 0.327 . S
C1351 C221 0.328 . S
C1356 C301 0.328 . S
C1361 C329 0.327 . S
C1366 C409 0.327 . S
C1371 C429 0.328 . S
C1376 C349 0.328 . S
C1381 C449 0.327 . S
C1386 C369 0.327 . S
C1391 C469 0.327 . S
C1396 C389 0.327 . S
C1401 C561 0.327 . S
C1406 C481 0.327 . S
C1411 C501 0.327 . S
C1416 C581 0.327 . S
C1421 C601 0.328 . S
C1426 C521 0.328 . S
C1431 C541 0.327 . S
C1436 C621 0.327 . S
C1441 C156 1.769 . S
C1446 C16 1.768 . S
C1451 C36 1.771 . S
C1456 C96 1.771 . S
C1461 C56 1.772 . S
C1466 C116 1.771 . S
C1471 C136 1.768 . S
C1476 C76 1.768 . S
C1481 C166 1.769 . S
C1486 C306 1.769 . S
C1491 C246 1.772 . S
C1496 C186 1.771 . S
C1501 C266 1.772 . S
C1506 C206 1.772 . S
C1511 C226 1.769 . S
C1516 C286 1.769 . S
C1521 C336 1.771 . S
C1526 C476 1.771 . S
C1531 C416 1.771 . S
C1536 C356 1.770 . S
C1541 C436 1.769 . S
C1546 C376 1.769 . S
C1551 C456 1.772 . S
C1556 C396 1.772 . S
C1561 C486 1.768 . S
C1566 C626 1.768 . S
C1571 C566 1.772 . S
C1576 C506 1.772 . S
C1581 C526 1.769 . S
C1586 C586 1.769 . S
C1591 C606 1.772 . S
C1596 C546 1.771 . S
