# Generated by pormake.
# Topology zfb, (5)-cn, num edge types: 1
# Building blocks:
#     Node 0, Type 0, BuildingBlock: XOMCOT_clean_sbu_1, # of connection points: 5
#     Node 1, Type 0, BuildingBlock: XOMCOT_clean_sbu_1, # of connection points: 5
#     Node 2, Type 0, BuildingBlock: XOMCOT_clean_sbu_1, # of connection points: 5
#     Node 3, Type 0, BuildingBlock: XOMCOT_clean_sbu_1, # of connection points: 5
#     Node 4, Type 0, BuildingBlock: XOMCOT_clean_sbu_1, # of connection points: 5
#     Node 5, Type 0, BuildingBlock: XOMCOT_clean_sbu_1, # of connection points: 5
#     Node 6, Type 0, BuildingBlock: XOMCOT_clean_sbu_1, # of connection points: 5
#     Node 7, Type 0, BuildingBlock: XOMCOT_clean_sbu_1, # of connection points: 5
#     Edge 8, Type (0, 0), BuildingBlock: KIFKEQ_clean_linker_1, # of connection points: 2
#     Edge 9, Type (0, 0), BuildingBlock: KIFKEQ_clean_linker_1, # of connection points: 2
#     Edge 10, Type (0, 0), BuildingBlock: KIFKEQ_clean_linker_1, # of connection points: 2
#     Edge 11, Type (0, 0), BuildingBlock: KIFKEQ_clean_linker_1, # of connection points: 2
#     Edge 12, Type (0, 0), BuildingBlock: KIFKEQ_clean_linker_1, # of connection points: 2
#     Edge 13, Type (0, 0), BuildingBlock: KIFKEQ_clean_linker_1, # of connection points: 2
#     Edge 14, Type (0, 0), BuildingBlock: KIFKEQ_clean_linker_1, # of connection points: 2
#     Edge 15, Type (0, 0), BuildingBlock: KIFKEQ_clean_linker_1, # of connection points: 2
#     Edge 16, Type (0, 0), BuildingBlock: KIFKEQ_clean_linker_1, # of connection points: 2
#     Edge 17, Type (0, 0), BuildingBlock: KIFKEQ_clean_linker_1, # of connection points: 2
#     Edge 18, Type (0, 0), BuildingBlock: KIFKEQ_clean_linker_1, # of connection points: 2
#     Edge 19, Type (0, 0), BuildingBlock: KIFKEQ_clean_linker_1, # of connection points: 2
#     Edge 20, Type (0, 0), BuildingBlock: KIFKEQ_clean_linker_1, # of connection points: 2
#     Edge 21, Type (0, 0), BuildingBlock: KIFKEQ_clean_linker_1, # of connection points: 2
#     Edge 22, Type (0, 0), BuildingBlock: KIFKEQ_clean_linker_1, # of connection points: 2
#     Edge 23, Type (0, 0), BuildingBlock: KIFKEQ_clean_linker_1, # of connection points: 2
#     Edge 24, Type (0, 0), BuildingBlock: KIFKEQ_clean_linker_1, # of connection points: 2
#     Edge 25, Type (0, 0), BuildingBlock: KIFKEQ_clean_linker_1, # of connection points: 2
#     Edge 26, Type (0, 0), BuildingBlock: KIFKEQ_clean_linker_1, # of connection points: 2
#     Edge 27, Type (0, 0), BuildingBlock: KIFKEQ_clean_linker_1, # of connection points: 2
# Relax obj value: 0.188
# Max RMSD: 0.187
# Mean RMSD: 0.187
data_MOF--net-zfb--node1-XOMCOT_clean_sbu_1--edge1-KIFKEQ_clean_linker_1
_symmetry_space_group_name_H-M    P1
_symmetry_Int_Tables_number       1
_symmetry_cell_setting            triclinic
loop_
_symmetry_equiv_pos_as_xyz
'x, y, z'
_cell_length_a     32.760358
_cell_length_b     32.625179
_cell_length_c     34.853231
_cell_angle_alpha  89.966689
_cell_angle_beta   89.777024
_cell_angle_gamma 89.830068
loop_
_atom_site_label
_atom_site_type_symbol
_atom_site_fract_x
_atom_site_fract_y
_atom_site_fract_z
_atom_type_partial_charge
C0 C 0.25502 0.37227 1.00175 0.0
C1 C 0.25654 0.36421 0.96299 0.0
N2 N 0.21894 0.35328 0.95151 0.0
N3 N 0.21643 0.36723 1.01452 0.0
C4 C 0.19522 0.355 0.98329 0.0
H5 H 0.2801 0.38266 1.01931 0.0
Co6 Co 0.19786 0.37991 0.06409 0.0
C7 C 0.10964 0.38824 0.05023 0.0
O8 O 0.10206 0.3575 0.07353 0.0
N9 N 0.17902 0.39273 0.11395 0.0
C10 C 0.15077 0.42798 0.16177 0.0
C11 C 0.15829 0.42723 0.12305 0.0
C12 C 0.18354 0.37279 0.14786 0.0
N13 N 0.16671 0.39383 0.17753 0.0
O14 O 0.17824 0.32551 0.06922 0.0
H15 H 0.14957 0.45077 0.10278 0.0
H16 H 0.19961 0.34396 0.15091 0.0
O17 O 0.14641 0.39868 0.04349 0.0
C18 C 0.20666 0.30042 0.07729 0.0
O19 O 0.2436 0.31485 0.08284 0.0
N20 N 0.21953 0.43276 0.05908 0.0
C21 C 0.25387 0.51063 0.05315 0.0
C22 C 0.22647 0.49631 1.02535 0.0
C23 C 0.2096 0.45739 0.02887 0.0
C24 C 0.24759 0.44514 0.08541 0.0
C25 C 0.26482 0.48424 0.08326 0.0
H26 H 0.18914 0.44675 1.00683 0.0
H27 H 0.25618 0.42477 0.10853 0.0
H28 H 0.16272 0.3491 0.98346 0.0
H29 H 0.28307 0.36663 0.94452 0.0
H30 H 0.1345 0.45182 0.17713 0.0
H31 H 0.21822 0.5149 1.00081 0.0
H32 H 0.28583 0.49388 0.10536 0.0
C33 C 0.63848 0.24355 0.49651 0.0
C34 C 0.64758 0.24496 0.45797 0.0
N35 N 0.64698 0.20644 0.444 0.0
N36 N 0.63196 0.20437 0.50696 0.0
C37 C 0.63768 0.18234 0.47444 0.0
H38 H 0.63621 0.26948 0.51573 0.0
Co39 Co 0.61642 0.18877 0.55641 0.0
C40 C 0.60294 0.10085 0.54957 0.0
O41 O 0.63102 0.09485 0.57582 0.0
N42 N 0.6003 0.17322 0.60681 0.0
C43 C 0.56136 0.14954 0.65434 0.0
C44 C 0.56359 0.1569 0.61563 0.0
C45 C 0.61985 0.17547 0.64103 0.0
N46 N 0.59674 0.16125 0.67045 0.0
O47 O 0.66929 0.16658 0.56399 0.0
H48 H 0.53982 0.15046 0.59506 0.0
H49 H 0.6502 0.18766 0.64462 0.0
O50 O 0.59579 0.13706 0.5376 0.0
C51 C 0.69201 0.19426 0.57789 0.0
O52 O 0.67605 0.2304 0.58545 0.0
N53 N 0.56599 0.21373 0.54896 0.0
C54 C 0.49258 0.25594 0.54159 0.0
C55 C 0.50198 0.22292 0.51725 0.0
C56 C 0.53908 0.20234 0.52122 0.0
C57 C 0.55819 0.24665 0.57188 0.0
C58 C 0.52143 0.26805 0.56892 0.0
H59 H 0.54612 0.1774 0.50192 0.0
H60 H 0.58056 0.25602 0.59285 0.0
H61 H 0.63413 0.14943 0.47288 0.0
H62 H 0.65434 0.27232 0.44159 0.0
H63 H 0.53582 0.13583 0.66931 0.0
H64 H 0.48051 0.21241 0.49588 0.0
H65 H 0.51565 0.29376 0.58783 0.0
C66 C 0.74459 0.63462 0.99973 0.0
C67 C 0.74186 0.64577 0.96173 0.0
N68 N 0.77942 0.64351 0.94592 0.0
N69 N 0.78368 0.62541 1.00794 0.0
C70 C 0.80425 0.63116 0.97463 0.0
H71 H 0.7197 0.63317 1.02015 0.0
Co72 Co 0.80199 0.60924 0.05617 0.0
C73 C 0.88955 0.59813 0.04101 0.0
O74 O 0.89779 0.6293 0.0635 0.0
N75 N 0.82065 0.59278 0.10504 0.0
C76 C 0.85196 0.55608 0.15007 0.0
C77 C 0.84048 0.55725 0.11226 0.0
C78 C 0.81974 0.61234 0.13935 0.0
N79 N 0.83896 0.59076 0.16709 0.0
O80 O 0.82406 0.66228 0.06319 0.0
H81 H 0.84684 0.53381 0.0911 0.0
H82 H 0.80643 0.64228 0.1439 0.0
O83 O 0.85253 0.58862 0.03441 0.0
C84 C 0.79773 0.68633 0.07784 0.0
O85 O 0.76168 0.67164 0.08707 0.0
N86 N 0.77723 0.55859 0.04943 0.0
C87 C 0.73543 0.48495 0.04217 0.0
C88 C 0.7661 0.49574 1.01582 0.0
C89 C 0.78644 0.53292 1.01976 0.0
C90 C 0.74665 0.54943 0.07456 0.0
C91 C 0.7255 0.51252 0.07165 0.0
H92 H 0.80932 0.54117 0.99877 0.0
H93 H 0.73882 0.57087 0.0971 0.0
H94 H 0.83686 0.62696 0.97156 0.0
H95 H 0.7142 0.65431 0.9468 0.0
H96 H 0.86869 0.53161 0.16401 0.0
H97 H 0.77494 0.47531 0.99274 0.0
H98 H 0.70159 0.50569 0.09221 0.0
C99 C 0.34661 0.75209 0.50515 0.0
C100 C 0.33511 0.74928 0.46732 0.0
N101 N 0.33662 0.78702 0.4516 0.0
N102 N 0.35524 0.79139 0.51349 0.0
C103 C 0.34891 0.81204 0.48027 0.0
H104 H 0.34872 0.72703 0.52539 0.0
Co105 Co 0.37172 0.80891 0.56206 0.0
C106 C 0.37747 0.89775 0.55399 0.0
O107 O 0.35045 0.90203 0.58168 0.0
N108 N 0.38853 0.82657 0.6116 0.0
C109 C 0.4259 0.85614 0.65703 0.0
C110 C 0.42418 0.8457 0.61892 0.0
C111 C 0.36927 0.82551 0.64617 0.0
N112 N 0.39126 0.84361 0.67427 0.0
O113 O 0.31741 0.82628 0.57196 0.0
H114 H 0.44733 0.85241 0.59763 0.0
H115 H 0.33918 0.81295 0.65068 0.0
O116 O 0.38662 0.86201 0.54199 0.0
C117 C 0.29716 0.79715 0.58688 0.0
O118 O 0.31619 0.76267 0.59489 0.0
N119 N 0.42399 0.78883 0.55207 0.0
C120 C 0.50129 0.75545 0.54024 0.0
C121 C 0.48598 0.78586 0.51563 0.0
C122 C 0.44717 0.80207 0.52195 0.0
C123 C 0.43742 0.758 0.57524 0.0
C124 C 0.47624 0.74105 0.57005 0.0
H125 H 0.4357 0.82501 0.50239 0.0
H126 H 0.4181 0.74703 0.59828 0.0
H127 H 0.35277 0.84481 0.47721 0.0
H128 H 0.32689 0.72144 0.45239 0.0
H129 H 0.45082 0.87194 0.67089 0.0
H130 H 0.50379 0.797 0.49158 0.0
H131 H 0.48683 0.71766 0.58972 0.0
C132 C 0.75042 0.12611 0.11701 0.0
C133 C 0.75259 0.13472 0.15562 0.0
N134 N 0.71429 0.13702 0.16981 0.0
N135 N 0.71098 0.12273 0.1068 0.0
C136 C 0.68963 0.12991 0.13947 0.0
H137 H 0.77596 0.12198 0.09762 0.0
Co138 Co 0.69309 0.10881 0.0577 0.0
C139 C 0.60525 0.10087 0.07138 0.0
O140 O 0.59862 0.13213 0.04843 0.0
N141 N 0.6748 0.09454 1.008 0.0
C142 C 0.64511 0.05889 0.96147 0.0
C143 C 0.65607 0.05891 0.99943 0.0
C144 C 0.67515 0.11558 0.97439 0.0
N145 N 0.65691 0.09463 0.94565 0.0
O146 O 0.67261 0.16278 0.05182 0.0
H147 H 0.65021 0.03451 1.01973 0.0
H148 H 0.68743 0.14607 0.97113 0.0
O149 O 0.64166 0.08933 0.07831 0.0
C150 C 0.69969 0.18656 0.03825 0.0
O151 O 0.73562 0.17123 0.02923 0.0
N152 N 0.71641 0.0572 0.06345 0.0
C153 C 0.75833 0.98345 0.071 0.0
C154 C 0.7265 0.99364 0.09636 0.0
C155 C 0.70603 0.03086 0.09226 0.0
C156 C 0.74779 0.04835 0.03905 0.0
C157 C 0.76899 0.01136 0.04207 0.0
H158 H 0.68236 0.03873 0.11264 0.0
H159 H 0.75644 0.07028 1.01722 0.0
H160 H 0.65667 0.12896 0.14119 0.0
H161 H 0.78029 0.13915 0.17189 0.0
H162 H 0.62957 0.03433 0.94671 0.0
H163 H 0.7171 0.97283 0.11893 0.0
H164 H 0.79371 0.00486 1.02225 0.0
C165 C 0.834 0.73453 0.61195 0.0
C166 C 0.82429 0.73796 0.65017 0.0
N167 N 0.83815 0.70437 0.66856 0.0
N168 N 0.85365 0.69882 0.60575 0.0
C169 C 0.85598 0.68118 0.64092 0.0
H170 H 0.82722 0.75689 0.58997 0.0
Co171 Co 0.87192 0.68398 0.55657 0.0
C172 C 0.87947 0.59695 0.58906 0.0
O173 O 0.84312 0.59233 0.60447 0.0
N174 N 0.89048 0.66932 0.50663 0.0
C175 C 0.93083 0.64319 0.46108 0.0
C176 C 0.92795 0.6537 0.4991 0.0
C177 C 0.87136 0.66843 0.47212 0.0
N178 N 0.8952 0.65242 0.44413 0.0
O179 O 0.8186 0.66449 0.54541 0.0
H180 H 0.95165 0.64925 0.5202 0.0
H181 H 0.84015 0.67774 0.46745 0.0
O182 O 0.88927 0.63032 0.57258 0.0
C183 C 0.79747 0.69263 0.52977 0.0
O184 O 0.81534 0.72742 0.5209 0.0
N185 N 0.92302 0.70562 0.568 0.0
C186 C -5e-05 0.73889 0.5799 0.0
C187 C 0.98585 0.70638 0.60266 0.0
C188 C 0.94728 0.69017 0.59629 0.0
C189 C 0.93503 0.73881 0.54711 0.0
C190 C 0.97369 0.75582 0.55238 0.0
H191 H 0.93726 0.66493 0.61394 0.0
H192 H 0.91494 0.75126 0.52545 0.0
H193 H 0.87138 0.65254 0.64652 0.0
H194 H 0.80773 0.76313 0.66319 0.0
H195 H 0.95704 0.62948 0.44702 0.0
H196 H 0.00469 0.69319 0.62499 0.0
H197 H 0.98338 0.78095 0.53423 0.0
C198 C 0.23983 0.84555 0.11869 0.0
C199 C 0.23704 0.83463 0.15673 0.0
N200 N 0.2723 0.8445 0.17436 0.0
N201 N 0.27662 0.86239 0.11202 0.0
C202 C 0.29595 0.86095 0.14632 0.0
H203 H 0.21649 0.84157 0.09717 0.0
Co204 Co 0.29404 0.88154 0.06391 0.0
C205 C 0.34865 0.94723 0.09861 0.0
O206 O 0.32142 0.97639 0.09479 0.0
N207 N 0.31265 0.89971 1.01455 0.0
C208 C 0.33658 0.93909 0.9673 0.0
C209 C 0.32767 0.9371 1.00573 0.0
C210 C 0.31287 0.87954 0.98039 0.0
N211 N 0.32719 0.9029 0.95116 0.0
O212 O 0.32667 0.83345 0.05917 0.0
H213 H 0.33093 0.96222 1.02541 0.0
H214 H 0.30177 0.84871 0.97656 0.0
O215 O 0.3409 0.91063 0.08747 0.0
C216 C 0.30415 0.80621 0.04407 0.0
O217 O 0.26679 0.81623 0.03403 0.0
N218 N 0.25726 0.92684 0.06785 0.0
C219 C 0.20836 0.99687 0.06729 0.0
C220 C 0.22406 0.98168 0.10189 0.0
C221 C 0.24755 0.94588 0.10169 0.0
C222 C 0.23625 0.93723 0.03547 0.0
C223 C 0.21238 0.97266 0.0343 0.0
H224 H 0.26136 0.93623 0.12829 0.0
H225 H 0.23913 0.91905 1.00971 0.0
H226 H 0.32649 0.87239 0.15072 0.0
H227 H 0.21099 0.82005 0.17008 0.0
H228 H 0.34914 0.96536 0.95246 0.0
H229 H 0.22117 -0.00116 0.12835 0.0
H230 H 0.19881 0.982 1.00738 0.0
C231 C 0.12964 0.24462 0.62874 0.0
C232 C 0.13821 0.2432 0.66737 0.0
N233 N 0.14753 0.28134 0.67907 0.0
N234 N 0.13276 0.28364 0.61629 0.0
C235 C 0.14436 0.30528 0.64754 0.0
H236 H 0.1202 0.21912 0.61109 0.0
Co237 Co 0.11863 0.30174 0.56708 0.0
C238 C 0.10677 0.39023 0.58012 0.0
O239 O 0.13683 0.3988 0.55641 0.0
N240 N 0.10434 0.32023 0.51722 0.0
C241 C 0.0689 0.34981 0.47037 0.0
C242 C 0.06901 0.33947 0.50853 0.0
C243 C 0.1251 0.31898 0.48342 0.0
N244 N 0.10429 0.33713 0.45445 0.0
O245 O 0.17217 0.32254 0.56078 0.0
H246 H 0.04478 0.34589 0.52885 0.0
H247 H 0.15526 0.30595 0.48014 0.0
O248 O 0.09863 0.353 0.58786 0.0
C249 C 0.19536 0.29462 0.54753 0.0
O250 O 0.17954 0.25856 0.53988 0.0
N251 N 0.06685 0.27878 0.57326 0.0
C252 C 0.98939 0.24487 0.57969 0.0
C253 C 0.00383 0.27218 0.60752 0.0
C254 C 0.04269 0.28869 0.60386 0.0
C255 C 0.05449 0.25031 0.54718 0.0
C256 C 0.01553 0.23315 0.54965 0.0
H257 H 0.05346 0.30927 0.62583 0.0
H258 H 0.0746 0.24167 0.52384 0.0
H259 H 0.14872 0.33815 0.6476 0.0
H260 H 0.13721 0.21635 0.68561 0.0
H261 H 0.04444 0.36544 0.4555 0.0
H262 H 0.98512 0.28095 0.63187 0.0
H263 H 0.00559 0.21199 0.52768 0.0
H264 H 0.22537 0.05099 1.01023 0.0
H265 H 0.16129 0.04113 0.11856 0.0
H266 H 0.21681 0.1249 1.01172 0.0
H267 H 0.15331 0.11597 0.11997 0.0
H268 H 0.13372 0.25875 0.07732 0.0
H269 H 0.12435 0.184 0.0728 0.0
H270 H 0.25503 0.16755 0.07025 0.0
H271 H 0.2646 0.24114 0.07543 0.0
C272 C 0.20813 0.06432 0.0337 0.0
C273 C 0.1943 0.04008 0.06447 0.0
C274 C 0.20353 0.10673 0.0346 0.0
C275 C 0.18476 0.12582 0.06608 0.0
C276 C 0.1678 0.10169 0.09537 0.0
C277 C 0.17266 0.05903 0.09465 0.0
C278 C 0.16035 0.23902 0.07606 0.0
C279 C 0.1999 0.25574 0.07664 0.0
C280 C 0.15494 0.19648 0.07354 0.0
C281 C 0.18901 0.17047 0.07079 0.0
C282 C 0.22834 0.18719 0.07194 0.0
C283 C 0.23375 0.22931 0.0751 0.0
H284 H 0.9226 0.29092 0.59563 0.0
H285 H 0.95927 0.16744 0.56644 0.0
H286 H 0.85212 0.26927 0.59964 0.0
H287 H 0.88769 0.14551 0.57036 0.0
H288 H 0.7463 0.15257 0.53266 0.0
H289 H 0.82094 0.15798 0.53586 0.0
H290 H 0.80978 0.22657 0.64144 0.0
H291 H 0.73575 0.22244 0.63734 0.0
C292 C 0.91562 0.25893 0.59062 0.0
C293 C 0.94653 0.23075 0.58131 0.0
C294 C 0.87519 0.24647 0.59299 0.0
C295 C 0.8645 0.20548 0.58612 0.0
C296 C 0.89518 0.17725 0.57597 0.0
C297 C 0.93598 0.18981 0.57364 0.0
C298 C 0.76009 0.16771 0.55703 0.0
C299 C 0.7357 0.18775 0.58442 0.0
C300 C 0.80267 0.17079 0.5589 0.0
C301 C 0.821 0.19359 0.5884 0.0
C302 C 0.7964 0.2098 0.61782 0.0
C303 C 0.75412 0.20729 0.61561 0.0
H304 H 0.78389 0.94431 0.13599 0.0
H305 H 0.77902 0.93143 1.01272 0.0
H306 H 0.80678 0.87329 0.1416 0.0
H307 H 0.802 0.86061 1.01835 0.0
H308 H 0.8516 0.73421 0.03783 0.0
H309 H 0.85514 0.80933 0.03895 0.0
H310 H 0.76459 0.81183 0.12942 0.0
H311 H 0.76115 0.73753 0.12826 0.0
C312 C 0.78827 0.92647 0.11009 0.0
C313 C 0.77891 0.94311 0.07398 0.0
C314 C 0.80156 0.88596 0.11329 0.0
C315 C 0.80574 0.86136 0.08045 0.0
C316 C 0.79945 0.87896 0.04414 0.0
C317 C 0.78613 0.91949 0.04093 0.0
C318 C 0.8333 0.75095 0.05853 0.0
C319 C 0.80574 0.73032 0.08264 0.0
C320 C 0.83519 0.7938 0.05906 0.0
C321 C 0.81005 0.81637 0.08417 0.0
C322 C 0.78468 0.79534 0.11005 0.0
C323 C 0.78241 0.75277 0.10915 0.0
H324 H 0.06748 0.69162 0.58868 0.0
H325 H 0.02907 0.81801 0.57853 0.0
H326 H 0.13768 0.71337 0.59547 0.0
H327 H 0.10032 0.83998 0.58508 0.0
H328 H 0.24152 0.84263 0.54663 0.0
H329 H 0.16715 0.83418 0.54834 0.0
H330 H 0.17937 0.74957 0.64305 0.0
H331 H 0.25318 0.75713 0.64058 0.0
C332 C 0.07398 0.72416 0.58849 0.0
C333 C 0.04264 0.75312 0.58367 0.0
C334 C 0.11426 0.73664 0.5924 0.0
C335 C 0.12437 0.77843 0.59152 0.0
C336 C 0.09328 0.80758 0.58597 0.0
C337 C 0.05265 0.795 0.58214 0.0
C338 C 0.22805 0.82309 0.56837 0.0
C339 C 0.25286 0.79989 0.593 0.0
C340 C 0.18559 0.8183 0.56939 0.0
C341 C 0.16767 0.7905 0.59526 0.0
C342 C 0.19248 0.77038 0.62216 0.0
C343 C 0.23467 0.7748 0.62084 0.0
H344 H 0.70989 0.44445 0.97787 0.0
H345 H 0.71664 0.43319 0.10126 0.0
H346 H 0.68901 0.37286 0.97339 0.0
H347 H 0.69524 0.36195 0.0967 0.0
H348 H 0.64556 0.23487 0.07775 0.0
H349 H 0.6417 0.31002 0.07623 0.0
H350 H 0.7337 0.31209 0.9871 0.0
H351 H 0.73764 0.23772 0.98877 0.0
C352 C 0.70634 0.42689 1.00405 0.0
C353 C 0.71568 0.44421 0.03986 0.0
C354 C 0.69415 0.38605 1.00147 0.0
C355 C 0.69089 0.36184 0.03466 0.0
C356 C 0.69711 0.38002 0.07068 0.0
C357 C 0.70947 0.42083 0.07325 0.0
C358 C 0.66421 0.25152 0.05732 0.0
C359 C 0.69223 0.23074 0.03367 0.0
C360 C 0.66211 0.29436 0.05654 0.0
C361 C 0.68742 0.31679 0.03158 0.0
C362 C 0.71348 0.29564 1.00632 0.0
C363 C 0.71603 0.25307 1.00752 0.0
H364 H 0.52993 0.67637 0.5472 0.0
H365 H 0.56877 0.80031 0.52334 0.0
H366 H 0.60058 0.65253 0.53982 0.0
H367 H 0.63849 0.77665 0.51572 0.0
H368 H 0.75314 0.72686 0.47314 0.0
H369 H 0.67933 0.7352 0.47145 0.0
H370 H 0.66804 0.66042 0.57329 0.0
H371 H 0.74235 0.65111 0.57422 0.0
C372 C 0.55347 0.69847 0.54041 0.0
C373 C 0.5437 0.74018 0.53547 0.0
C374 C 0.5938 0.6848 0.53609 0.0
C375 C 0.62491 0.71259 0.52658 0.0
C376 C 0.61504 0.75424 0.52196 0.0
C377 C 0.57501 0.76785 0.52637 0.0
C378 C 0.73477 0.71133 0.49457 0.0
C379 C 0.75324 0.68883 0.52409 0.0
C380 C 0.69258 0.71628 0.49375 0.0
C381 C 0.66806 0.69936 0.52282 0.0
C382 C 0.68621 0.67384 0.55053 0.0
C383 C 0.72866 0.66847 0.55107 0.0
H384 H 0.21245 0.57904 0.03092 0.0
H385 H 0.33081 0.53917 0.07119 0.0
H386 H 0.23767 0.64843 1.02489 0.0
H387 H 0.35568 0.60994 0.06634 0.0
H388 H 0.33915 0.75724 0.09843 0.0
H389 H 0.33585 0.68197 0.09889 0.0
H390 H 0.29156 0.68371 0.9824 0.0
H391 H 0.29419 0.75836 0.98228 0.0
C392 C 0.24404 0.58489 0.03805 0.0
C393 C 0.26974 0.55324 0.05091 0.0
C394 C 0.25846 0.62477 0.03467 0.0
C395 C 0.29885 0.63432 0.04446 0.0
C396 C 0.32449 0.60319 0.05838 0.0
C397 C 0.31013 0.56285 0.06134 0.0
C398 C 0.33059 0.74126 0.07245 0.0
C399 C 0.31661 0.7632 0.04041 0.0
C400 C 0.32854 0.69832 0.07274 0.0
C401 C 0.31262 0.6773 0.04094 0.0
C402 C 0.30328 0.69931 1.00747 0.0
C403 C 0.30501 0.74191 1.00731 0.0
H404 H 0.24534 0.35005 0.58292 0.0
H405 H 0.24413 0.25385 0.49786 0.0
H406 H 0.32008 0.35308 0.57815 0.0
H407 H 0.31799 0.2568 0.4931 0.0
H408 H 0.44929 0.27734 0.47762 0.0
H409 H 0.37795 0.29898 0.47493 0.0
H410 H 0.37281 0.3011 0.59875 0.0
H411 H 0.44386 0.27924 0.60151 0.0
C412 C 0.26098 0.33026 0.56267 0.0
C413 C 0.23921 0.30138 0.54109 0.0
C414 C 0.30361 0.33188 0.56004 0.0
C415 C 0.32479 0.30515 0.53529 0.0
C416 C 0.30256 0.27814 0.51208 0.0
C417 C 0.26026 0.27614 0.51509 0.0
C418 C 0.43304 0.28294 0.50424 0.0
C419 C 0.45193 0.27588 0.53977 0.0
C420 C 0.39234 0.29552 0.50269 0.0
C421 C 0.36979 0.30132 0.53663 0.0
C422 C 0.38955 0.29729 0.57212 0.0
C423 C 0.43025 0.28463 0.57368 0.0
H424 H 0.11579 0.45953 1.00922 0.0
H425 H 0.02767 0.37991 0.06371 0.0
H426 H 0.06254 0.51024 0.99798 0.0
H427 H 0.97444 0.43089 0.05255 0.0
H428 H 0.97187 0.6079 0.04933 0.0
H429 H 0.02449 0.55538 0.04302 0.0
H430 H 0.93422 0.46908 1.0036 0.0
H431 H 0.88146 0.52144 1.0101 0.0
C432 C 0.08498 0.45248 1.01829 0.0
C433 C 0.07614 0.41578 0.03783 0.0
C434 C 0.05451 0.4817 1.01196 0.0
C435 C 0.01442 0.47476 1.02471 0.0
C436 C 0.00501 0.43704 0.04214 0.0
C437 C 0.03557 0.40787 0.0487 0.0
C438 C 0.96333 0.57799 0.03859 0.0
C439 C 0.92237 0.56884 0.03056 0.0
C440 C 0.99354 0.54791 0.03482 0.0
C441 C 0.9834 0.50798 1.02312 0.0
C442 C 0.94283 0.49943 1.01312 0.0
C443 C 0.91267 0.52959 1.01661 0.0
H444 H 0.38864 0.96847 0.59422 0.0
H445 H 0.43065 0.90337 0.49343 0.0
H446 H 0.44465 0.01711 0.58681 0.0
H447 H 0.48644 0.9528 0.486 0.0
H448 H 0.54524 0.09912 0.49283 0.0
H449 H 0.48778 0.05134 0.48751 0.0
H450 H 0.53373 0.98286 0.584 0.0
H451 H 0.59135 0.02977 0.58924 0.0
C452 C 0.40901 0.96519 0.56986 0.0
C453 C 0.40535 0.9319 0.54454 0.0
C454 C 0.44113 0.9929 0.56581 0.0
C455 C 0.46964 0.98826 0.53602 0.0
C456 C 0.46461 0.95679 0.50914 0.0
C457 C 0.43276 0.92865 0.51346 0.0
C458 C 0.54355 0.07338 0.5124 0.0
C459 C 0.57276 0.06834 0.54158 0.0
C460 C 0.51073 0.0462 0.50931 0.0
C461 C 0.50652 0.01395 0.53558 0.0
C462 C 0.53653 0.00774 0.56355 0.0
C463 C 0.56957 0.03447 0.56634 0.0
H464 H 0.37007 0.00929 0.14552 0.0
H465 H 0.4212 0.91546 0.07227 0.0
H466 H 0.43589 0.0437 0.14749 0.0
H467 H 0.48738 0.9503 0.07395 0.0
H468 H 0.60634 0.02131 0.0966 0.0
H469 H 0.5475 0.97836 0.11273 0.0
H470 H 0.46714 0.08115 0.09217 0.0
H471 H 0.52554 0.12383 0.07605 0.0
C472 C 0.39577 0.99541 0.1307 0.0
C473 C 0.39048 0.96004 0.10834 0.0
C474 C 0.43335 0.01524 0.13167 0.0
C475 C 0.46645 0.00019 0.11019 0.0
C476 C 0.46234 0.96258 0.09081 0.0
C477 C 0.42453 0.94256 0.08992 0.0
C478 C 0.57613 0.03486 0.09618 0.0
C479 C 0.5705 0.07598 0.08506 0.0
C480 C 0.54251 0.01019 0.10518 0.0
C481 C 0.50279 0.02642 0.10388 0.0
C482 C 0.49743 0.06789 0.09399 0.0
C483 C 0.53086 0.09231 0.0845 0.0
H484 H 0.89422 0.54203 0.64746 0.0
H485 H 0.93509 0.57801 0.53465 0.0
H486 H 0.9517 0.49359 0.65178 0.0
H487 H 0.99165 0.53026 0.53856 0.0
H488 H 0.11029 0.47247 0.56492 0.0
H489 H 0.0554 0.5225 0.57179 0.0
H490 H 0.97889 0.43027 0.62408 0.0
H491 H 0.03408 0.38065 0.61833 0.0
C492 C 0.91521 0.53927 0.6235 0.0
C493 C 0.91067 0.56425 0.59097 0.0
C494 C 0.94817 0.51175 0.62598 0.0
C495 C 0.97691 0.50876 0.59587 0.0
C496 C 0.9711 0.53275 0.56287 0.0
C497 C 0.93851 0.56009 0.56052 0.0
C498 C 0.08208 0.46303 0.57857 0.0
C499 C 0.07651 0.42233 0.59054 0.0
C500 C 0.05044 0.49163 0.58224 0.0
C501 C 0.01237 0.48015 0.59772 0.0
C502 C 0.00774 0.4402 0.61205 0.0
C503 C 0.03948 0.41165 0.60858 0.0
H504 H 0.1605 0.31785 0.20955 0.0
H505 H 0.17002 0.44629 0.23715 0.0
H506 H 0.1492 0.30218 0.27779 0.0
H507 H 0.15927 0.43094 0.30466 0.0
H508 H 0.08104 0.39901 0.40762 0.0
H509 H 0.10025 0.40998 0.34124 0.0
H510 H 0.17749 0.30257 0.3447 0.0
H511 H 0.15706 0.2908 0.4117 0.0
C512 C 0.16091 0.34259 0.23023 0.0
C513 C 0.16539 0.38339 0.21785 0.0
C514 C 0.15445 0.33367 0.26931 0.0
C515 C 0.1525 0.3654 0.2967 0.0
C516 C 0.15941 0.40583 0.28434 0.0
C517 C 0.16564 0.41467 0.24557 0.0
C518 C 0.10185 0.37741 0.39435 0.0
C519 C 0.11725 0.34385 0.41516 0.0
C520 C 0.11333 0.38402 0.35624 0.0
C521 C 0.14072 0.35736 0.33753 0.0
C522 C 0.15622 0.32363 0.35816 0.0
C523 C 0.1448 0.31709 0.39665 0.0
H524 H 0.70212 0.1474 0.90229 0.0
H525 H 0.59406 0.07204 0.90035 0.0
H526 H 0.68903 0.1682 0.83573 0.0
H527 H 0.58167 0.09175 0.8343 0.0
H528 H 0.54482 0.16391 0.73092 0.0
H529 H 0.56063 0.15162 0.79802 0.0
H530 H 0.68835 0.13886 0.76924 0.0
H531 H 0.67236 0.15128 0.70156 0.0
C532 C 0.67556 0.1354 0.88778 0.0
C533 C 0.64927 0.10788 0.90669 0.0
C534 C 0.66826 0.14702 0.84956 0.0
C535 C 0.6342 0.13178 0.82964 0.0
C536 C 0.60789 0.10455 0.84879 0.0
C537 C 0.6153 0.0928 0.88666 0.0
C538 C 0.57629 0.15842 0.73876 0.0
C539 C 0.60719 0.15791 0.71064 0.0
C540 C 0.58539 0.1514 0.77733 0.0
C541 C 0.62569 0.14359 0.78903 0.0
C542 C 0.65699 0.14492 0.76125 0.0
C543 C 0.64783 0.15202 0.72244 0.0
H544 H 0.84846 0.69915 0.3971 0.0
H545 H 0.91726 0.58651 0.40243 0.0
H546 H 0.83414 0.68659 0.32916 0.0
H547 H 0.90178 0.57275 0.3356 0.0
H548 H 0.90737 0.57707 0.20763 0.0
H549 H 0.91983 0.59391 0.27442 0.0
H550 H 0.79904 0.64712 0.28292 0.0
H551 H 0.78762 0.63159 0.21501 0.0
C552 C 0.86005 0.67147 0.38378 0.0
C553 C 0.88443 0.64409 0.40483 0.0
C554 C 0.85178 0.66412 0.3449 0.0
C555 C 0.86726 0.62888 0.32642 0.0
C556 C 0.89039 0.60089 0.3482 0.0
C557 C 0.89915 0.60859 0.38668 0.0
C558 C 0.88351 0.59235 0.22382 0.0
C559 C 0.8464 0.60264 0.20627 0.0
C560 C 0.89048 0.60184 0.26228 0.0
C561 C 0.86019 0.62126 0.28463 0.0
C562 C 0.82326 0.63243 0.26673 0.0
C563 C 0.81657 0.62347 0.22787 0.0
H564 H 0.32511 0.95491 0.89059 0.0
H565 H 0.33866 0.82702 0.91993 0.0
H566 H 0.33802 0.93899 0.8236 0.0
H567 H 0.3515 0.81092 0.85222 0.0
H568 H 0.34038 0.79755 0.71881 0.0
H569 H 0.32137 0.81018 0.78597 0.0
H570 H 0.39757 0.91792 0.78656 0.0
H571 H 0.41556 0.90599 0.71989 0.0
C572 C 0.33103 0.92334 0.88283 0.0
C573 C 0.33153 0.89239 0.91096 0.0
C574 C 0.33839 0.91419 0.84427 0.0
C575 C 0.34644 0.87376 0.83249 0.0
C576 C 0.34528 0.84239 0.86026 0.0
C577 C 0.33793 0.85161 0.89909 0.0
C578 C 0.35278 0.82406 0.73327 0.0
C579 C 0.37961 0.85067 0.71385 0.0
C580 C 0.34219 0.83109 0.77185 0.0
C581 C 0.35779 0.86517 0.79169 0.0
C582 C 0.38452 0.89166 0.77214 0.0
C583 C 0.39527 0.88452 0.73389 0.0
H584 H 0.84093 0.60957 0.90399 0.0
H585 H 0.7426 0.69769 0.89841 0.0
H586 H 0.85828 0.62411 0.83692 0.0
H587 H 0.75935 0.71165 0.83154 0.0
H588 H 0.82642 0.75884 0.72651 0.0
H589 H 0.81433 0.74386 0.79387 0.0
H590 H 0.82877 0.61457 0.7712 0.0
H591 H 0.84035 0.62945 0.7033 0.0
C592 C 0.82317 0.63217 0.88854 0.0
C593 C 0.79035 0.65245 0.90659 0.0
C594 C 0.83285 0.64021 0.85003 0.0
C595 C 0.81024 0.66908 0.82886 0.0
C596 C 0.77767 0.68954 0.84707 0.0
C597 C 0.76779 0.68124 0.88534 0.0
C598 C 0.82677 0.72714 0.73561 0.0
C599 C 0.83388 0.69537 0.70908 0.0
C600 C 0.8199 0.71858 0.77439 0.0
C601 C 0.82018 0.678 0.78791 0.0
C602 C 0.82861 0.64621 0.76176 0.0
C603 C 0.83529 0.65477 0.72279 0.0
H604 H 0.28179 0.75 0.4054 0.0
H605 H 0.36984 0.84802 0.40848 0.0
H606 H 0.26716 0.76565 0.3385 0.0
H607 H 0.35477 0.86419 0.34124 0.0
H608 H 0.34768 0.84412 0.20788 0.0
H609 H 0.36334 0.8328 0.27552 0.0
H610 H 0.23485 0.82061 0.30046 0.0
H611 H 0.21899 0.8326 0.23347 0.0
C612 C 0.29808 0.77491 0.39177 0.0
C613 C 0.32707 0.79767 0.41234 0.0
C614 C 0.28942 0.78414 0.35346 0.0
C615 C 0.30974 0.81623 0.33444 0.0
C616 C 0.33878 0.8391 0.35495 0.0
C617 C 0.34713 0.83011 0.39356 0.0
C618 C 0.32265 0.8395 0.22772 0.0
C619 C 0.28198 0.83891 0.21466 0.0
C620 C 0.3317 0.83301 0.26661 0.0
C621 C 0.30038 0.82546 0.29341 0.0
C622 C 0.2598 0.82557 0.28052 0.0
C623 C 0.25072 0.83235 0.24184 0.0
H624 H 0.10473 0.2619 0.7425 0.0
H625 H 0.20982 0.32868 0.70294 0.0
H626 H 0.11933 0.28158 0.80839 0.0
H627 H 0.22711 0.34597 0.76899 0.0
H628 H 0.23575 0.3978 0.88843 0.0
H629 H 0.2161 0.38303 0.82257 0.0
H630 H 0.15739 0.27152 0.86125 0.0
H631 H 0.17452 0.28887 0.92731 0.0
C632 C 0.13132 0.28053 0.74821 0.0
C633 C 0.15615 0.29386 0.71782 0.0
C634 C 0.14011 0.29158 0.78611 0.0
C635 C 0.1748 0.3153 0.79485 0.0
C636 C 0.19963 0.32852 0.76399 0.0
C637 C 0.19004 0.31843 0.72596 0.0
C638 C 0.21837 0.37034 0.88257 0.0
C639 C 0.20656 0.34447 0.91277 0.0
C640 C 0.20736 0.36148 0.84469 0.0
C641 C 0.18521 0.32571 0.83575 0.0
C642 C 0.17356 0.29983 0.86642 0.0
C643 C 0.18359 0.30945 0.90445 0.0
H644 H 0.75782 0.11907 0.23376 0.0
H645 H 0.64407 0.17209 0.19574 0.0
H646 H 0.73953 0.13414 0.30013 0.0
H647 H 0.62528 0.18636 0.26235 0.0
H648 H 0.6323 0.25135 0.38004 0.0
H649 H 0.64708 0.23263 0.3138 0.0
H650 H 0.69161 0.11469 0.35159 0.0
H651 H 0.67758 0.1339 0.41823 0.0
C652 C 0.72888 0.13395 0.23952 0.0
C653 C 0.70257 0.14462 0.20926 0.0
C654 C 0.71817 0.14215 0.27769 0.0
C655 C 0.68093 0.1615 0.28668 0.0
C656 C 0.65437 0.17176 0.25647 0.0
C657 C 0.66497 0.16326 0.21827 0.0
C658 C 0.64541 0.22148 0.37433 0.0
C659 C 0.65403 0.19427 0.4046 0.0
C660 C 0.65345 0.21054 0.33622 0.0
C661 C 0.67058 0.17215 0.32726 0.0
C662 C 0.67876 0.14466 0.35747 0.0
C663 C 0.67039 0.15551 0.39566 0.0
loop_
_geom_bond_atom_site_label_1
_geom_bond_atom_site_label_2
_geom_bond_distance
_geom_bond_site_symmetry_2
_ccdc_geom_bond_type
C0 C1 1.351 . S
C0 N3 1.368 . S
C0 H5 0.931 . S
C1 C0 1.351 . S
C1 N2 1.373 . S
C1 H29 0.930 . S
N2 C1 1.373 . S
N2 C4 1.340 . S
N3 C0 1.368 . S
N3 C4 1.321 . S
N3 Co6 2.135 1_556 S
C4 N2 1.340 . S
C4 N3 1.321 . S
C4 H28 0.930 . S
H5 C0 0.931 . S
Co6 N3 2.135 1_554 S
Co6 N9 2.121 . S
Co6 O14 2.055 . S
Co6 O17 2.039 . S
Co6 N20 2.140 . S
C7 O8 1.227 . S
C7 O17 1.265 . S
O8 C7 1.227 . S
N9 Co6 2.121 . S
N9 C11 1.375 . S
N9 C12 1.313 . S
C10 C11 1.338 . S
C10 N13 1.377 . S
C10 H30 0.930 . S
C11 N9 1.375 . S
C11 C10 1.338 . S
C11 H15 0.931 . S
C12 N9 1.313 . S
C12 N13 1.344 . S
C12 H16 0.930 . S
N13 C10 1.377 . S
N13 C12 1.344 . S
O14 Co6 2.055 . S
O14 C18 1.253 . S
H15 C11 0.931 . S
H16 C12 0.930 . S
O17 Co6 2.039 . S
O17 C7 1.265 . S
C18 O14 1.253 . S
C18 O19 1.227 . S
O19 C18 1.227 . S
N20 Co6 2.140 . S
N20 C23 1.346 . S
N20 C24 1.345 . S
C21 C22 1.387 . S
C21 C25 1.391 . S
C22 C21 1.387 . S
C22 C23 1.369 . S
C22 H31 0.929 1_554 S
C23 N20 1.346 . S
C23 C22 1.369 . S
C23 H26 0.928 1_554 S
C24 N20 1.345 . S
C24 C25 1.371 . S
C24 H27 0.931 . S
C25 C21 1.391 . S
C25 C24 1.371 . S
C25 H32 0.930 . S
H26 C23 0.928 1_556 S
H27 C24 0.931 . S
H28 C4 0.930 . S
H29 C1 0.930 . S
H30 C10 0.930 . S
H31 C22 0.929 1_556 S
H32 C25 0.930 . S
C33 C34 1.351 . S
C33 N36 1.368 . S
C33 H38 0.931 . S
C34 C33 1.351 . S
C34 N35 1.373 . S
C34 H62 0.930 . S
N35 C34 1.373 . S
N35 C37 1.340 . S
N36 C33 1.368 . S
N36 C37 1.321 . S
N36 Co39 2.135 . S
C37 N35 1.340 . S
C37 N36 1.321 . S
C37 H61 0.930 . S
H38 C33 0.931 . S
Co39 N36 2.135 . S
Co39 N42 2.121 . S
Co39 O47 2.055 . S
Co39 O50 2.039 . S
Co39 N53 2.140 . S
C40 O41 1.227 . S
C40 O50 1.265 . S
O41 C40 1.227 . S
N42 Co39 2.121 . S
N42 C44 1.375 . S
N42 C45 1.313 . S
C43 C44 1.338 . S
C43 N46 1.377 . S
C43 H63 0.930 . S
C44 N42 1.375 . S
C44 C43 1.338 . S
C44 H48 0.931 . S
C45 N42 1.313 . S
C45 N46 1.344 . S
C45 H49 0.930 . S
N46 C43 1.377 . S
N46 C45 1.344 . S
O47 Co39 2.055 . S
O47 C51 1.253 . S
H48 C44 0.931 . S
H49 C45 0.930 . S
O50 Co39 2.039 . S
O50 C40 1.265 . S
C51 O47 1.253 . S
C51 O52 1.227 . S
O52 C51 1.227 . S
N53 Co39 2.140 . S
N53 C56 1.346 . S
N53 C57 1.345 . S
C54 C55 1.387 . S
C54 C58 1.391 . S
C55 C54 1.387 . S
C55 C56 1.369 . S
C55 H64 0.929 . S
C56 N53 1.346 . S
C56 C55 1.369 . S
C56 H59 0.928 . S
C57 N53 1.345 . S
C57 C58 1.371 . S
C57 H60 0.931 . S
C58 C54 1.391 . S
C58 C57 1.371 . S
C58 H65 0.930 . S
H59 C56 0.928 . S
H60 C57 0.931 . S
H61 C37 0.930 . S
H62 C34 0.930 . S
H63 C43 0.930 . S
H64 C55 0.929 . S
H65 C58 0.930 . S
C66 C67 1.351 . S
C66 N69 1.368 . S
C66 H71 0.931 . S
C67 C66 1.351 . S
C67 N68 1.373 . S
C67 H95 0.930 . S
N68 C67 1.373 . S
N68 C70 1.340 . S
N69 C66 1.368 . S
N69 C70 1.321 . S
N69 Co72 2.135 1_556 S
C70 N68 1.340 . S
C70 N69 1.321 . S
C70 H94 0.930 . S
H71 C66 0.931 . S
Co72 N69 2.135 1_554 S
Co72 N75 2.121 . S
Co72 O80 2.055 . S
Co72 O83 2.039 . S
Co72 N86 2.140 . S
C73 O74 1.227 . S
C73 O83 1.265 . S
O74 C73 1.227 . S
N75 Co72 2.121 . S
N75 C77 1.375 . S
N75 C78 1.313 . S
C76 C77 1.338 . S
C76 N79 1.377 . S
C76 H96 0.930 . S
C77 N75 1.375 . S
C77 C76 1.338 . S
C77 H81 0.931 . S
C78 N75 1.313 . S
C78 N79 1.344 . S
C78 H82 0.930 . S
N79 C76 1.377 . S
N79 C78 1.344 . S
O80 Co72 2.055 . S
O80 C84 1.253 . S
H81 C77 0.931 . S
H82 C78 0.930 . S
O83 Co72 2.039 . S
O83 C73 1.265 . S
C84 O80 1.253 . S
C84 O85 1.227 . S
O85 C84 1.227 . S
N86 Co72 2.140 . S
N86 C89 1.346 . S
N86 C90 1.345 . S
C87 C88 1.387 . S
C87 C91 1.391 . S
C88 C87 1.387 . S
C88 C89 1.369 . S
C88 H97 0.929 1_554 S
C89 N86 1.346 . S
C89 C88 1.369 . S
C89 H92 0.928 1_554 S
C90 N86 1.345 . S
C90 C91 1.371 . S
C90 H93 0.931 . S
C91 C87 1.391 . S
C91 C90 1.371 . S
C91 H98 0.930 . S
H92 C89 0.928 1_556 S
H93 C90 0.931 . S
H94 C70 0.930 . S
H95 C67 0.930 . S
H96 C76 0.930 . S
H97 C88 0.929 1_556 S
H98 C91 0.930 . S
C99 C100 1.351 . S
C99 N102 1.368 . S
C99 H104 0.931 . S
C100 C99 1.351 . S
C100 N101 1.373 . S
C100 H128 0.930 . S
N101 C100 1.373 . S
N101 C103 1.340 . S
N102 C99 1.368 . S
N102 C103 1.321 . S
N102 Co105 2.135 . S
C103 N101 1.340 . S
C103 N102 1.321 . S
C103 H127 0.930 . S
H104 C99 0.931 . S
Co105 N102 2.135 . S
Co105 N108 2.121 . S
Co105 O113 2.055 . S
Co105 O116 2.039 . S
Co105 N119 2.140 . S
C106 O107 1.227 . S
C106 O116 1.265 . S
O107 C106 1.227 . S
N108 Co105 2.121 . S
N108 C110 1.375 . S
N108 C111 1.313 . S
C109 C110 1.338 . S
C109 N112 1.377 . S
C109 H129 0.930 . S
C110 N108 1.375 . S
C110 C109 1.338 . S
C110 H114 0.931 . S
C111 N108 1.313 . S
C111 N112 1.344 . S
C111 H115 0.930 . S
N112 C109 1.377 . S
N112 C111 1.344 . S
O113 Co105 2.055 . S
O113 C117 1.253 . S
H114 C110 0.931 . S
H115 C111 0.930 . S
O116 Co105 2.039 . S
O116 C106 1.265 . S
C117 O113 1.253 . S
C117 O118 1.227 . S
O118 C117 1.227 . S
N119 Co105 2.140 . S
N119 C122 1.346 . S
N119 C123 1.345 . S
C120 C121 1.387 . S
C120 C124 1.391 . S
C121 C120 1.387 . S
C121 C122 1.369 . S
C121 H130 0.929 . S
C122 N119 1.346 . S
C122 C121 1.369 . S
C122 H125 0.928 . S
C123 N119 1.345 . S
C123 C124 1.371 . S
C123 H126 0.931 . S
C124 C120 1.391 . S
C124 C123 1.371 . S
C124 H131 0.930 . S
H125 C122 0.928 . S
H126 C123 0.931 . S
H127 C103 0.930 . S
H128 C100 0.930 . S
H129 C109 0.930 . S
H130 C121 0.929 . S
H131 C124 0.930 . S
C132 C133 1.351 . S
C132 N135 1.368 . S
C132 H137 0.931 . S
C133 C132 1.351 . S
C133 N134 1.373 . S
C133 H161 0.930 . S
N134 C133 1.373 . S
N134 C136 1.340 . S
N135 C132 1.368 . S
N135 C136 1.321 . S
N135 Co138 2.135 . S
C136 N134 1.340 . S
C136 N135 1.321 . S
C136 H160 0.930 . S
H137 C132 0.931 . S
Co138 N135 2.135 . S
Co138 N141 2.121 1_554 S
Co138 O146 2.055 . S
Co138 O149 2.039 . S
Co138 N152 2.140 . S
C139 O140 1.227 . S
C139 O149 1.265 . S
O140 C139 1.227 . S
N141 Co138 2.121 1_556 S
N141 C143 1.375 . S
N141 C144 1.313 . S
C142 C143 1.338 . S
C142 N145 1.377 . S
C142 H162 0.930 . S
C143 N141 1.375 . S
C143 C142 1.338 . S
C143 H147 0.931 . S
C144 N141 1.313 . S
C144 N145 1.344 . S
C144 H148 0.930 . S
N145 C142 1.377 . S
N145 C144 1.344 . S
O146 Co138 2.055 . S
O146 C150 1.253 . S
H147 C143 0.931 . S
H148 C144 0.930 . S
O149 Co138 2.039 . S
O149 C139 1.265 . S
C150 O146 1.253 . S
C150 O151 1.227 . S
O151 C150 1.227 . S
N152 Co138 2.140 . S
N152 C155 1.346 . S
N152 C156 1.345 . S
C153 C154 1.387 . S
C153 C157 1.408 . S
C154 C153 1.387 . S
C154 C155 1.369 1_565 S
C154 H163 0.929 . S
C155 N152 1.346 . S
C155 C154 1.369 1_545 S
C155 H158 0.928 . S
C156 N152 1.345 . S
C156 C157 1.353 1_545 S
C156 H159 0.931 1_554 S
C157 C153 1.408 . S
C157 C156 1.353 1_565 S
C157 H164 0.932 1_554 S
H158 C155 0.928 . S
H159 C156 0.931 1_556 S
H160 C136 0.930 . S
H161 C133 0.930 . S
H162 C142 0.930 . S
H163 C154 0.929 . S
H164 C157 0.932 1_556 S
C165 C166 1.351 . S
C165 N168 1.368 . S
C165 H170 0.931 . S
C166 C165 1.351 . S
C166 N167 1.373 . S
C166 H194 0.930 . S
N167 C166 1.373 . S
N167 C169 1.340 . S
N168 C165 1.368 . S
N168 C169 1.321 . S
N168 Co171 2.135 . S
C169 N167 1.340 . S
C169 N168 1.321 . S
C169 H193 0.930 . S
H170 C165 0.931 . S
Co171 N168 2.135 . S
Co171 N174 2.121 . S
Co171 O179 2.055 . S
Co171 O182 2.039 . S
Co171 N185 2.140 . S
C172 O173 1.227 . S
C172 O182 1.265 . S
O173 C172 1.227 . S
N174 Co171 2.121 . S
N174 C176 1.375 . S
N174 C177 1.313 . S
C175 C176 1.338 . S
C175 N178 1.377 . S
C175 H195 0.930 . S
C176 N174 1.375 . S
C176 C175 1.338 . S
C176 H180 0.931 . S
C177 N174 1.313 . S
C177 N178 1.344 . S
C177 H181 0.930 . S
N178 C175 1.377 . S
N178 C177 1.344 . S
O179 Co171 2.055 . S
O179 C183 1.253 . S
H180 C176 0.931 . S
H181 C177 0.930 . S
O182 Co171 2.039 . S
O182 C172 1.265 . S
C183 O179 1.253 . S
C183 O184 1.227 . S
O184 C183 1.227 . S
N185 Co171 2.140 . S
N185 C188 1.346 . S
N185 C189 1.345 . S
C186 C187 1.387 . S
C186 C190 1.407 . S
C187 C186 1.387 . S
C187 C188 1.369 1_455 S
C187 H196 0.929 . S
C188 N185 1.346 . S
C188 C187 1.369 1_655 S
C188 H191 0.928 . S
C189 N185 1.345 . S
C189 C190 1.353 1_655 S
C189 H192 0.931 . S
C190 C186 1.407 . S
C190 C189 1.353 1_455 S
C190 H197 0.932 . S
H191 C188 0.928 . S
H192 C189 0.931 . S
H193 C169 0.930 . S
H194 C166 0.930 . S
H195 C175 0.930 . S
H196 C187 0.929 . S
H197 C190 0.932 . S
C198 C199 1.351 . S
C198 N201 1.368 . S
C198 H203 0.931 . S
C199 C198 1.351 . S
C199 N200 1.373 . S
C199 H227 0.930 . S
N200 C199 1.373 . S
N200 C202 1.340 . S
N201 C198 1.368 . S
N201 C202 1.321 . S
N201 Co204 2.135 . S
C202 N200 1.340 . S
C202 N201 1.321 . S
C202 H226 0.930 . S
H203 C198 0.931 . S
Co204 N201 2.135 . S
Co204 N207 2.121 1_554 S
Co204 O212 2.055 . S
Co204 O215 2.039 . S
Co204 N218 2.140 . S
C205 O206 1.227 . S
C205 O215 1.265 . S
O206 C205 1.227 . S
N207 Co204 2.121 1_556 S
N207 C209 1.375 . S
N207 C210 1.313 . S
C208 C209 1.338 . S
C208 N211 1.377 . S
C208 H228 0.930 . S
C209 N207 1.375 . S
C209 C208 1.338 . S
C209 H213 0.931 . S
C210 N207 1.313 . S
C210 N211 1.344 . S
C210 H214 0.930 . S
N211 C208 1.377 . S
N211 C210 1.344 . S
O212 Co204 2.055 . S
O212 C216 1.253 . S
H213 C209 0.931 . S
H214 C210 0.930 . S
O215 Co204 2.039 . S
O215 C205 1.265 . S
C216 O212 1.253 . S
C216 O217 1.227 . S
O217 C216 1.227 . S
N218 Co204 2.140 . S
N218 C221 1.346 . S
N218 C222 1.345 . S
C219 C220 1.387 . S
C219 C223 1.408 . S
C220 C219 1.387 . S
C220 C221 1.369 1_545 S
C220 H229 0.929 . S
C221 N218 1.346 . S
C221 C220 1.369 1_565 S
C221 H224 0.928 . S
C222 N218 1.345 . S
C222 C223 1.353 1_565 S
C222 H225 0.931 1_554 S
C223 C219 1.408 . S
C223 C222 1.353 1_545 S
C223 H230 0.932 1_554 S
H224 C221 0.928 . S
H225 C222 0.931 1_556 S
H226 C202 0.930 . S
H227 C199 0.930 . S
H228 C208 0.930 . S
H229 C220 0.929 . S
H230 C223 0.932 1_556 S
C231 C232 1.351 . S
C231 N234 1.368 . S
C231 H236 0.931 . S
C232 C231 1.351 . S
C232 N233 1.373 . S
C232 H260 0.930 . S
N233 C232 1.373 . S
N233 C235 1.340 . S
N234 C231 1.368 . S
N234 C235 1.321 . S
N234 Co237 2.135 . S
C235 N233 1.340 . S
C235 N234 1.321 . S
C235 H259 0.930 . S
H236 C231 0.931 . S
Co237 N234 2.135 . S
Co237 N240 2.121 . S
Co237 O245 2.055 . S
Co237 O248 2.039 . S
Co237 N251 2.140 . S
C238 O239 1.227 . S
C238 O248 1.265 . S
O239 C238 1.227 . S
N240 Co237 2.121 . S
N240 C242 1.375 . S
N240 C243 1.313 . S
C241 C242 1.338 . S
C241 N244 1.377 . S
C241 H261 0.930 . S
C242 N240 1.375 . S
C242 C241 1.338 . S
C242 H246 0.931 . S
C243 N240 1.313 . S
C243 N244 1.344 . S
C243 H247 0.930 . S
N244 C241 1.377 . S
N244 C243 1.344 . S
O245 Co237 2.055 . S
O245 C249 1.253 . S
H246 C242 0.931 . S
H247 C243 0.930 . S
O248 Co237 2.039 . S
O248 C238 1.265 . S
C249 O245 1.253 . S
C249 O250 1.227 . S
O250 C249 1.227 . S
N251 Co237 2.140 . S
N251 C254 1.346 . S
N251 C255 1.345 . S
C252 C253 1.387 . S
C252 C256 1.407 . S
C253 C252 1.387 . S
C253 C254 1.369 1_655 S
C253 H262 0.929 . S
C254 N251 1.346 . S
C254 C253 1.369 1_455 S
C254 H257 0.928 . S
C255 N251 1.345 . S
C255 C256 1.353 1_455 S
C255 H258 0.931 . S
C256 C252 1.407 . S
C256 C255 1.353 1_655 S
C256 H263 0.932 . S
H257 C254 0.928 . S
H258 C255 0.931 . S
H259 C235 0.930 . S
H260 C232 0.930 . S
H261 C241 0.930 . S
H262 C253 0.929 . S
H263 C256 0.932 . S
H264 C272 0.950 . S
H265 C277 0.950 . S
H266 C274 0.950 . S
H267 C276 0.950 . S
H268 C278 0.950 . S
H269 C280 0.950 . S
H270 C282 0.950 . S
H271 C283 0.950 . S
C272 H264 0.950 . S
C272 C273 1.386 . S
C272 C274 1.391 . S
C273 C272 1.386 . S
C273 C277 1.393 . S
C274 H266 0.950 . S
C274 C272 1.391 . S
C274 C275 1.400 . S
C275 C274 1.400 . S
C275 C276 1.398 . S
C275 C281 1.491 . S
C276 H267 0.950 . S
C276 C275 1.398 . S
C276 C277 1.391 . S
C277 H265 0.950 . S
C277 C273 1.393 . S
C277 C276 1.391 . S
C278 H268 0.950 . S
C278 C279 1.386 . S
C278 C280 1.391 . S
C279 C278 1.386 . S
C279 C283 1.393 . S
C280 H269 0.950 . S
C280 C278 1.391 . S
C280 C281 1.400 . S
C281 C275 1.491 . S
C281 C280 1.400 . S
C281 C282 1.398 . S
C282 H270 0.950 . S
C282 C281 1.398 . S
C282 C283 1.391 . S
C283 H271 0.950 . S
C283 C279 1.393 . S
C283 C282 1.391 . S
H284 C292 0.950 . S
H285 C297 0.950 . S
H286 C294 0.950 . S
H287 C296 0.950 . S
H288 C298 0.950 . S
H289 C300 0.950 . S
H290 C302 0.950 . S
H291 C303 0.950 . S
C292 H284 0.950 . S
C292 C293 1.386 . S
C292 C294 1.391 . S
C293 C292 1.386 . S
C293 C297 1.393 . S
C294 H286 0.950 . S
C294 C292 1.391 . S
C294 C295 1.400 . S
C295 C294 1.400 . S
C295 C296 1.398 . S
C295 C301 1.491 . S
C296 H287 0.950 . S
C296 C295 1.398 . S
C296 C297 1.391 . S
C297 H285 0.950 . S
C297 C293 1.393 . S
C297 C296 1.391 . S
C298 H288 0.950 . S
C298 C299 1.386 . S
C298 C300 1.391 . S
C299 C298 1.386 . S
C299 C303 1.393 . S
C300 H289 0.950 . S
C300 C298 1.391 . S
C300 C301 1.400 . S
C301 C295 1.491 . S
C301 C300 1.400 . S
C301 C302 1.398 . S
C302 H290 0.950 . S
C302 C301 1.398 . S
C302 C303 1.391 . S
C303 H291 0.950 . S
C303 C299 1.393 . S
C303 C302 1.391 . S
H304 C312 0.950 . S
H305 C317 0.950 1_556 S
H306 C314 0.950 . S
H307 C316 0.950 1_556 S
H308 C318 0.950 1_556 S
H309 C320 0.950 1_556 S
H310 C322 0.950 . S
H311 C323 0.950 . S
C312 H304 0.950 . S
C312 C313 1.386 . S
C312 C314 1.391 . S
C313 C312 1.386 . S
C313 C317 1.393 . S
C314 H306 0.950 . S
C314 C312 1.391 . S
C314 C315 1.400 . S
C315 C314 1.400 . S
C315 C316 1.398 . S
C315 C321 1.491 . S
C316 H307 0.950 1_554 S
C316 C315 1.398 . S
C316 C317 1.391 . S
C317 H305 0.950 1_554 S
C317 C313 1.393 . S
C317 C316 1.391 . S
C318 H308 0.950 1_554 S
C318 C319 1.386 . S
C318 C320 1.391 . S
C319 C318 1.386 . S
C319 C323 1.393 . S
C320 H309 0.950 1_554 S
C320 C318 1.391 . S
C320 C321 1.400 . S
C321 C315 1.491 . S
C321 C320 1.400 . S
C321 C322 1.398 . S
C322 H310 0.950 . S
C322 C321 1.398 . S
C322 C323 1.391 . S
C323 H311 0.950 . S
C323 C319 1.393 . S
C323 C322 1.391 . S
H324 C332 0.950 . S
H325 C337 0.950 . S
H326 C334 0.950 . S
H327 C336 0.950 . S
H328 C338 0.950 . S
H329 C340 0.950 . S
H330 C342 0.950 . S
H331 C343 0.950 . S
C332 H324 0.950 . S
C332 C333 1.386 . S
C332 C334 1.391 . S
C333 C332 1.386 . S
C333 C337 1.393 . S
C334 H326 0.950 . S
C334 C332 1.391 . S
C334 C335 1.400 . S
C335 C334 1.400 . S
C335 C336 1.398 . S
C335 C341 1.491 . S
C336 H327 0.950 . S
C336 C335 1.398 . S
C336 C337 1.391 . S
C337 H325 0.950 . S
C337 C333 1.393 . S
C337 C336 1.391 . S
C338 H328 0.950 . S
C338 C339 1.386 . S
C338 C340 1.391 . S
C339 C338 1.386 . S
C339 C343 1.393 . S
C340 H329 0.950 . S
C340 C338 1.391 . S
C340 C341 1.400 . S
C341 C335 1.491 . S
C341 C340 1.400 . S
C341 C342 1.398 . S
C342 H330 0.950 . S
C342 C341 1.398 . S
C342 C343 1.391 . S
C343 H331 0.950 . S
C343 C339 1.393 . S
C343 C342 1.391 . S
H344 C352 0.950 1_556 S
H345 C357 0.950 . S
H346 C354 0.950 1_556 S
H347 C356 0.950 . S
H348 C358 0.950 . S
H349 C360 0.950 . S
H350 C362 0.944 1_556 S
H351 C363 0.934 1_556 S
C352 H344 0.950 1_554 S
C352 C353 1.386 . S
C352 C354 1.391 . S
C353 C352 1.386 . S
C353 C357 1.393 . S
C354 H346 0.950 1_554 S
C354 C352 1.391 . S
C354 C355 1.400 . S
C355 C354 1.400 . S
C355 C356 1.398 . S
C355 C361 1.491 . S
C356 H347 0.950 . S
C356 C355 1.398 . S
C356 C357 1.391 . S
C357 H345 0.950 . S
C357 C353 1.393 . S
C357 C356 1.391 . S
C358 H348 0.950 . S
C358 C359 1.386 . S
C358 C360 1.391 . S
C359 C358 1.386 . S
C359 C363 1.409 . S
C360 H349 0.950 . S
C360 C358 1.391 . S
C360 C361 1.400 . S
C361 C355 1.491 . S
C361 C360 1.400 . S
C361 C362 1.405 . S
C362 H350 0.944 1_554 S
C362 C361 1.405 . S
C362 C363 1.391 . S
C363 H351 0.934 1_554 S
C363 C359 1.409 . S
C363 C362 1.391 . S
H364 C372 0.950 . S
H365 C377 0.950 . S
H366 C374 0.950 . S
H367 C376 0.950 . S
H368 C378 0.950 . S
H369 C380 0.950 . S
H370 C382 0.950 . S
H371 C383 0.950 . S
C372 H364 0.950 . S
C372 C373 1.386 . S
C372 C374 1.391 . S
C373 C372 1.386 . S
C373 C377 1.393 . S
C374 H366 0.950 . S
C374 C372 1.391 . S
C374 C375 1.400 . S
C375 C374 1.400 . S
C375 C376 1.398 . S
C375 C381 1.491 . S
C376 H367 0.950 . S
C376 C375 1.398 . S
C376 C377 1.391 . S
C377 H365 0.950 . S
C377 C373 1.393 . S
C377 C376 1.391 . S
C378 H368 0.950 . S
C378 C379 1.386 . S
C378 C380 1.391 . S
C379 C378 1.386 . S
C379 C383 1.393 . S
C380 H369 0.950 . S
C380 C378 1.391 . S
C380 C381 1.400 . S
C381 C375 1.491 . S
C381 C380 1.400 . S
C381 C382 1.398 . S
C382 H370 0.950 . S
C382 C381 1.398 . S
C382 C383 1.391 . S
C383 H371 0.950 . S
C383 C379 1.393 . S
C383 C382 1.391 . S
H384 C392 0.950 . S
H385 C397 0.950 . S
H386 C394 0.950 . S
H387 C396 0.950 . S
H388 C398 0.950 . S
H389 C400 0.950 . S
H390 C402 0.950 . S
H391 C403 0.950 . S
C392 H384 0.950 . S
C392 C393 1.386 . S
C392 C394 1.391 . S
C393 C392 1.386 . S
C393 C397 1.393 . S
C394 H386 0.950 . S
C394 C392 1.391 . S
C394 C395 1.400 . S
C395 C394 1.400 . S
C395 C396 1.398 . S
C395 C401 1.491 . S
C396 H387 0.950 . S
C396 C395 1.398 . S
C396 C397 1.391 . S
C397 H385 0.950 . S
C397 C393 1.393 . S
C397 C396 1.391 . S
C398 H388 0.950 . S
C398 C399 1.386 . S
C398 C400 1.391 . S
C399 C398 1.386 . S
C399 C403 1.393 . S
C400 H389 0.950 . S
C400 C398 1.391 . S
C400 C401 1.400 . S
C401 C395 1.491 . S
C401 C400 1.400 . S
C401 C402 1.398 . S
C402 H390 0.950 . S
C402 C401 1.398 . S
C402 C403 1.391 . S
C403 H391 0.950 . S
C403 C399 1.393 . S
C403 C402 1.391 . S
H404 C412 0.950 . S
H405 C417 0.950 . S
H406 C414 0.950 . S
H407 C416 0.950 . S
H408 C418 0.950 . S
H409 C420 0.950 . S
H410 C422 0.950 . S
H411 C423 0.950 . S
C412 H404 0.950 . S
C412 C413 1.386 . S
C412 C414 1.391 . S
C413 C412 1.386 . S
C413 C417 1.393 . S
C414 H406 0.950 . S
C414 C412 1.391 . S
C414 C415 1.400 . S
C415 C414 1.400 . S
C415 C416 1.398 . S
C415 C421 1.491 . S
C416 H407 0.950 . S
C416 C415 1.398 . S
C416 C417 1.391 . S
C417 H405 0.950 . S
C417 C413 1.393 . S
C417 C416 1.391 . S
C418 H408 0.950 . S
C418 C419 1.386 . S
C418 C420 1.391 . S
C419 C418 1.386 . S
C419 C423 1.393 . S
C420 H409 0.950 . S
C420 C418 1.391 . S
C420 C421 1.400 . S
C421 C415 1.491 . S
C421 C420 1.400 . S
C421 C422 1.398 . S
C422 H410 0.950 . S
C422 C421 1.398 . S
C422 C423 1.391 . S
C423 H411 0.950 . S
C423 C419 1.393 . S
C423 C422 1.391 . S
H424 C432 0.950 . S
H425 C437 0.950 . S
H426 C434 0.950 . S
H427 C436 0.950 1_655 S
H428 C438 0.950 . S
H429 C440 0.950 . S
H430 C442 0.950 1_455 S
H431 C443 0.950 . S
C432 H424 0.950 . S
C432 C433 1.386 1_556 S
C432 C434 1.391 . S
C433 C432 1.386 1_554 S
C433 C437 1.393 . S
C434 H426 0.950 . S
C434 C432 1.391 . S
C434 C435 1.400 1_556 S
C435 C434 1.400 1_554 S
C435 C436 1.398 . S
C435 C441 1.491 1_455 S
C436 H427 0.950 1_455 S
C436 C435 1.398 . S
C436 C437 1.391 . S
C437 H425 0.950 . S
C437 C433 1.393 . S
C437 C436 1.391 . S
C438 H428 0.950 . S
C438 C439 1.386 . S
C438 C440 1.391 . S
C439 C438 1.386 . S
C439 C443 1.393 1_554 S
C440 H429 0.950 . S
C440 C438 1.391 . S
C440 C441 1.400 . S
C441 C435 1.491 1_655 S
C441 C440 1.400 . S
C441 C442 1.398 1_554 S
C442 H430 0.950 1_655 S
C442 C441 1.398 1_556 S
C442 C443 1.391 . S
C443 H431 0.950 . S
C443 C439 1.393 1_556 S
C443 C442 1.391 . S
H444 C452 0.950 . S
H445 C457 0.950 . S
H446 C454 0.950 . S
H447 C456 0.950 . S
H448 C458 0.950 . S
H449 C460 0.950 . S
H450 C462 0.950 . S
H451 C463 0.950 . S
C452 H444 0.950 . S
C452 C453 1.386 . S
C452 C454 1.391 . S
C453 C452 1.386 . S
C453 C457 1.393 . S
C454 H446 0.950 . S
C454 C452 1.391 . S
C454 C455 1.400 . S
C455 C454 1.400 . S
C455 C456 1.398 . S
C455 C461 1.491 1_565 S
C456 H447 0.950 . S
C456 C455 1.398 . S
C456 C457 1.391 . S
C457 H445 0.950 . S
C457 C453 1.393 . S
C457 C456 1.391 . S
C458 H448 0.950 . S
C458 C459 1.386 . S
C458 C460 1.391 . S
C459 C458 1.386 . S
C459 C463 1.393 . S
C460 H449 0.950 . S
C460 C458 1.391 . S
C460 C461 1.400 . S
C461 C455 1.491 1_545 S
C461 C460 1.400 . S
C461 C462 1.398 . S
C462 H450 0.950 . S
C462 C461 1.398 . S
C462 C463 1.391 . S
C463 H451 0.950 . S
C463 C459 1.393 . S
C463 C462 1.391 . S
H464 C472 0.950 . S
H465 C477 0.950 . S
H466 C474 0.950 1_545 S
H467 C476 0.950 . S
H468 C478 0.950 . S
H469 C480 0.950 1_565 S
H470 C482 0.950 . S
H471 C483 0.950 . S
C472 H464 0.950 . S
C472 C473 1.386 . S
C472 C474 1.391 . S
C473 C472 1.386 . S
C473 C477 1.393 . S
C474 H466 0.950 1_565 S
C474 C472 1.391 . S
C474 C475 1.400 . S
C475 C474 1.400 . S
C475 C476 1.398 . S
C475 C481 1.491 1_565 S
C476 H467 0.950 . S
C476 C475 1.398 . S
C476 C477 1.391 . S
C477 H465 0.950 . S
C477 C473 1.393 . S
C477 C476 1.391 . S
C478 H468 0.950 . S
C478 C479 1.386 . S
C478 C480 1.391 . S
C479 C478 1.386 . S
C479 C483 1.393 . S
C480 H469 0.950 1_545 S
C480 C478 1.391 . S
C480 C481 1.400 . S
C481 C475 1.491 1_545 S
C481 C480 1.400 . S
C481 C482 1.398 . S
C482 H470 0.950 . S
C482 C481 1.398 . S
C482 C483 1.391 . S
C483 H471 0.950 . S
C483 C479 1.393 . S
C483 C482 1.391 . S
H484 C492 0.950 . S
H485 C497 0.950 . S
H486 C494 0.950 . S
H487 C496 0.950 1_455 S
H488 C498 0.950 . S
H489 C500 0.950 . S
H490 C502 0.950 1_655 S
H491 C503 0.950 . S
C492 H484 0.950 . S
C492 C493 1.386 . S
C492 C494 1.391 . S
C493 C492 1.386 . S
C493 C497 1.393 . S
C494 H486 0.950 . S
C494 C492 1.391 . S
C494 C495 1.400 . S
C495 C494 1.400 . S
C495 C496 1.398 . S
C495 C501 1.491 1_655 S
C496 H487 0.950 1_655 S
C496 C495 1.398 . S
C496 C497 1.391 . S
C497 H485 0.950 . S
C497 C493 1.393 . S
C497 C496 1.391 . S
C498 H488 0.950 . S
C498 C499 1.386 . S
C498 C500 1.391 . S
C499 C498 1.386 . S
C499 C503 1.393 . S
C500 H489 0.950 . S
C500 C498 1.391 . S
C500 C501 1.400 . S
C501 C495 1.491 1_455 S
C501 C500 1.400 . S
C501 C502 1.398 . S
C502 H490 0.950 1_455 S
C502 C501 1.398 . S
C502 C503 1.391 . S
C503 H491 0.950 . S
C503 C499 1.393 . S
C503 C502 1.391 . S
H504 C512 0.950 . S
H505 C517 0.950 . S
H506 C514 0.950 . S
H507 C516 0.950 . S
H508 C518 0.950 . S
H509 C520 0.950 . S
H510 C522 0.950 . S
H511 C523 0.950 . S
C512 H504 0.950 . S
C512 C513 1.386 . S
C512 C514 1.391 . S
C513 C512 1.386 . S
C513 C517 1.393 . S
C514 H506 0.950 . S
C514 C512 1.391 . S
C514 C515 1.400 . S
C515 C514 1.400 . S
C515 C516 1.398 . S
C515 C521 1.491 . S
C516 H507 0.950 . S
C516 C515 1.398 . S
C516 C517 1.391 . S
C517 H505 0.950 . S
C517 C513 1.393 . S
C517 C516 1.391 . S
C518 H508 0.950 . S
C518 C519 1.386 . S
C518 C520 1.391 . S
C519 C518 1.386 . S
C519 C523 1.393 . S
C520 H509 0.950 . S
C520 C518 1.391 . S
C520 C521 1.400 . S
C521 C515 1.491 . S
C521 C520 1.400 . S
C521 C522 1.398 . S
C522 H510 0.950 . S
C522 C521 1.398 . S
C522 C523 1.391 . S
C523 H511 0.950 . S
C523 C519 1.393 . S
C523 C522 1.391 . S
H524 C532 0.950 . S
H525 C537 0.950 . S
H526 C534 0.950 . S
H527 C536 0.950 . S
H528 C538 0.950 . S
H529 C540 0.950 . S
H530 C542 0.950 . S
H531 C543 0.950 . S
C532 H524 0.950 . S
C532 C533 1.386 . S
C532 C534 1.391 . S
C533 C532 1.386 . S
C533 C537 1.393 . S
C534 H526 0.950 . S
C534 C532 1.391 . S
C534 C535 1.400 . S
C535 C534 1.400 . S
C535 C536 1.398 . S
C535 C541 1.491 . S
C536 H527 0.950 . S
C536 C535 1.398 . S
C536 C537 1.391 . S
C537 H525 0.950 . S
C537 C533 1.393 . S
C537 C536 1.391 . S
C538 H528 0.950 . S
C538 C539 1.386 . S
C538 C540 1.391 . S
C539 C538 1.386 . S
C539 C543 1.393 . S
C540 H529 0.950 . S
C540 C538 1.391 . S
C540 C541 1.400 . S
C541 C535 1.491 . S
C541 C540 1.400 . S
C541 C542 1.398 . S
C542 H530 0.950 . S
C542 C541 1.398 . S
C542 C543 1.391 . S
C543 H531 0.950 . S
C543 C539 1.393 . S
C543 C542 1.391 . S
H544 C552 0.950 . S
H545 C557 0.950 . S
H546 C554 0.950 . S
H547 C556 0.950 . S
H548 C558 0.950 . S
H549 C560 0.950 . S
H550 C562 0.950 . S
H551 C563 0.950 . S
C552 H544 0.950 . S
C552 C553 1.386 . S
C552 C554 1.391 . S
C553 C552 1.386 . S
C553 C557 1.393 . S
C554 H546 0.950 . S
C554 C552 1.391 . S
C554 C555 1.400 . S
C555 C554 1.400 . S
C555 C556 1.398 . S
C555 C561 1.491 . S
C556 H547 0.950 . S
C556 C555 1.398 . S
C556 C557 1.391 . S
C557 H545 0.950 . S
C557 C553 1.393 . S
C557 C556 1.391 . S
C558 H548 0.950 . S
C558 C559 1.386 . S
C558 C560 1.391 . S
C559 C558 1.386 . S
C559 C563 1.393 . S
C560 H549 0.950 . S
C560 C558 1.391 . S
C560 C561 1.400 . S
C561 C555 1.491 . S
C561 C560 1.400 . S
C561 C562 1.398 . S
C562 H550 0.950 . S
C562 C561 1.398 . S
C562 C563 1.391 . S
C563 H551 0.950 . S
C563 C559 1.393 . S
C563 C562 1.391 . S
H564 C572 0.950 . S
H565 C577 0.950 . S
H566 C574 0.950 . S
H567 C576 0.950 . S
H568 C578 0.950 . S
H569 C580 0.950 . S
H570 C582 0.950 . S
H571 C583 0.950 . S
C572 H564 0.950 . S
C572 C573 1.386 . S
C572 C574 1.391 . S
C573 C572 1.386 . S
C573 C577 1.393 . S
C574 H566 0.950 . S
C574 C572 1.391 . S
C574 C575 1.400 . S
C575 C574 1.400 . S
C575 C576 1.398 . S
C575 C581 1.491 . S
C576 H567 0.950 . S
C576 C575 1.398 . S
C576 C577 1.391 . S
C577 H565 0.950 . S
C577 C573 1.393 . S
C577 C576 1.391 . S
C578 H568 0.950 . S
C578 C579 1.386 . S
C578 C580 1.391 . S
C579 C578 1.386 . S
C579 C583 1.393 . S
C580 H569 0.950 . S
C580 C578 1.391 . S
C580 C581 1.400 . S
C581 C575 1.491 . S
C581 C580 1.400 . S
C581 C582 1.398 . S
C582 H570 0.950 . S
C582 C581 1.398 . S
C582 C583 1.391 . S
C583 H571 0.950 . S
C583 C579 1.393 . S
C583 C582 1.391 . S
H584 C592 0.950 . S
H585 C597 0.950 . S
H586 C594 0.950 . S
H587 C596 0.950 . S
H588 C598 0.950 . S
H589 C600 0.950 . S
H590 C602 0.950 . S
H591 C603 0.950 . S
C592 H584 0.950 . S
C592 C593 1.386 . S
C592 C594 1.391 . S
C593 C592 1.386 . S
C593 C597 1.393 . S
C594 H586 0.950 . S
C594 C592 1.391 . S
C594 C595 1.400 . S
C595 C594 1.400 . S
C595 C596 1.398 . S
C595 C601 1.491 . S
C596 H587 0.950 . S
C596 C595 1.398 . S
C596 C597 1.391 . S
C597 H585 0.950 . S
C597 C593 1.393 . S
C597 C596 1.391 . S
C598 H588 0.950 . S
C598 C599 1.386 . S
C598 C600 1.391 . S
C599 C598 1.386 . S
C599 C603 1.393 . S
C600 H589 0.950 . S
C600 C598 1.391 . S
C600 C601 1.400 . S
C601 C595 1.491 . S
C601 C600 1.400 . S
C601 C602 1.398 . S
C602 H590 0.950 . S
C602 C601 1.398 . S
C602 C603 1.391 . S
C603 H591 0.950 . S
C603 C599 1.393 . S
C603 C602 1.391 . S
H604 C612 0.950 . S
H605 C617 0.950 . S
H606 C614 0.950 . S
H607 C616 0.950 . S
H608 C618 0.950 . S
H609 C620 0.950 . S
H610 C622 0.950 . S
H611 C623 0.950 . S
C612 H604 0.950 . S
C612 C613 1.386 . S
C612 C614 1.391 . S
C613 C612 1.386 . S
C613 C617 1.393 . S
C614 H606 0.950 . S
C614 C612 1.391 . S
C614 C615 1.400 . S
C615 C614 1.400 . S
C615 C616 1.398 . S
C615 C621 1.491 . S
C616 H607 0.950 . S
C616 C615 1.398 . S
C616 C617 1.391 . S
C617 H605 0.950 . S
C617 C613 1.393 . S
C617 C616 1.391 . S
C618 H608 0.950 . S
C618 C619 1.386 . S
C618 C620 1.391 . S
C619 C618 1.386 . S
C619 C623 1.393 . S
C620 H609 0.950 . S
C620 C618 1.391 . S
C620 C621 1.400 . S
C621 C615 1.491 . S
C621 C620 1.400 . S
C621 C622 1.398 . S
C622 H610 0.950 . S
C622 C621 1.398 . S
C622 C623 1.391 . S
C623 H611 0.950 . S
C623 C619 1.393 . S
C623 C622 1.391 . S
H624 C632 0.950 . S
H625 C637 0.950 . S
H626 C634 0.950 . S
H627 C636 0.950 . S
H628 C638 0.950 . S
H629 C640 0.950 . S
H630 C642 0.950 . S
H631 C643 0.950 . S
C632 H624 0.950 . S
C632 C633 1.386 . S
C632 C634 1.391 . S
C633 C632 1.386 . S
C633 C637 1.393 . S
C634 H626 0.950 . S
C634 C632 1.391 . S
C634 C635 1.400 . S
C635 C634 1.400 . S
C635 C636 1.398 . S
C635 C641 1.491 . S
C636 H627 0.950 . S
C636 C635 1.398 . S
C636 C637 1.391 . S
C637 H625 0.950 . S
C637 C633 1.393 . S
C637 C636 1.391 . S
C638 H628 0.950 . S
C638 C639 1.386 . S
C638 C640 1.391 . S
C639 C638 1.386 . S
C639 C643 1.393 . S
C640 H629 0.950 . S
C640 C638 1.391 . S
C640 C641 1.400 . S
C641 C635 1.491 . S
C641 C640 1.400 . S
C641 C642 1.398 . S
C642 H630 0.950 . S
C642 C641 1.398 . S
C642 C643 1.391 . S
C643 H631 0.950 . S
C643 C639 1.393 . S
C643 C642 1.391 . S
H644 C652 0.950 . S
H645 C657 0.950 . S
H646 C654 0.950 . S
H647 C656 0.950 . S
H648 C658 0.950 . S
H649 C660 0.950 . S
H650 C662 0.950 . S
H651 C663 0.950 . S
C652 H644 0.950 . S
C652 C653 1.386 . S
C652 C654 1.391 . S
C653 C652 1.386 . S
C653 C657 1.393 . S
C654 H646 0.950 . S
C654 C652 1.391 . S
C654 C655 1.400 . S
C655 C654 1.400 . S
C655 C656 1.398 . S
C655 C661 1.491 . S
C656 H647 0.950 . S
C656 C655 1.398 . S
C656 C657 1.391 . S
C657 H645 0.950 . S
C657 C653 1.393 . S
C657 C656 1.391 . S
C658 H648 0.950 . S
C658 C659 1.386 . S
C658 C660 1.391 . S
C659 C658 1.386 . S
C659 C663 1.393 . S
C660 H649 0.950 . S
C660 C658 1.391 . S
C660 C661 1.400 . S
C661 C655 1.491 . S
C661 C660 1.400 . S
C661 C662 1.398 . S
C662 H650 0.950 . S
C662 C661 1.398 . S
C662 C663 1.391 . S
C663 H651 0.950 . S
C663 C659 1.393 . S
C663 C662 1.391 . S
C273 C219 1.538 . S
C279 C18 1.577 . S
C293 C252 1.538 . S
C299 C51 1.577 . S
C313 C153 1.522 . S
C319 C84 1.569 . S
C333 C186 1.538 . S
C339 C117 1.577 . S
C353 C87 1.522 . S
C359 C150 1.570 . S
C373 C120 1.531 . S
C379 C183 1.572 . S
C393 C21 1.531 . S
C399 C216 1.574 . S
C413 C249 1.579 . S
C419 C54 1.543 . S
C433 C7 0.750 . S
C439 C73 0.753 . S
C453 C106 0.698 . S
C459 C40 0.695 . S
C473 C205 0.747 . S
C479 C139 0.751 . S
C493 C172 0.724 . S
C499 C238 0.717 . S
C513 N13 1.808 . S
C519 N244 1.798 . S
C533 N145 1.796 . S
C539 N46 1.809 . S
C553 N178 1.802 . S
C559 N79 1.806 . S
C573 N211 1.789 . S
C579 N112 1.803 . S
C593 N68 1.431 . S
C599 N167 1.434 . S
C613 N101 1.426 . S
C619 N200 1.407 . S
C633 N233 1.408 . S
C639 N2 1.422 . S
C653 N134 1.414 . S
C659 N35 1.438 . S
