# Generated by pormake.
# Topology rho, (4)-cn, num edge types: 1
# Building blocks:
#     Node 0, Type 0, BuildingBlock: CEKHIL_clean_sbu_0, # of connection points: 4
#     Node 1, Type 0, BuildingBlock: CEKHIL_clean_sbu_0, # of connection points: 4
#     Node 2, Type 0, BuildingBlock: CEKHIL_clean_sbu_0, # of connection points: 4
#     Node 3, Type 0, BuildingBlock: CEKHIL_clean_sbu_0, # of connection points: 4
#     Node 4, Type 0, BuildingBlock: CEKHIL_clean_sbu_0, # of connection points: 4
#     Node 5, Type 0, BuildingBlock: CEKHIL_clean_sbu_0, # of connection points: 4
#     Node 6, Type 0, BuildingBlock: CEKHIL_clean_sbu_0, # of connection points: 4
#     Node 7, Type 0, BuildingBlock: CEKHIL_clean_sbu_0, # of connection points: 4
#     Node 8, Type 0, BuildingBlock: CEKHIL_clean_sbu_0, # of connection points: 4
#     Node 9, Type 0, BuildingBlock: CEKHIL_clean_sbu_0, # of connection points: 4
#     Node 10, Type 0, BuildingBlock: CEKHIL_clean_sbu_0, # of connection points: 4
#     Node 11, Type 0, BuildingBlock: CEKHIL_clean_sbu_0, # of connection points: 4
#     Node 12, Type 0, BuildingBlock: CEKHIL_clean_sbu_0, # of connection points: 4
#     Node 13, Type 0, BuildingBlock: CEKHIL_clean_sbu_0, # of connection points: 4
#     Node 14, Type 0, BuildingBlock: CEKHIL_clean_sbu_0, # of connection points: 4
#     Node 15, Type 0, BuildingBlock: CEKHIL_clean_sbu_0, # of connection points: 4
#     Node 16, Type 0, BuildingBlock: CEKHIL_clean_sbu_0, # of connection points: 4
#     Node 17, Type 0, BuildingBlock: CEKHIL_clean_sbu_0, # of connection points: 4
#     Node 18, Type 0, BuildingBlock: CEKHIL_clean_sbu_0, # of connection points: 4
#     Node 19, Type 0, BuildingBlock: CEKHIL_clean_sbu_0, # of connection points: 4
#     Node 20, Type 0, BuildingBlock: CEKHIL_clean_sbu_0, # of connection points: 4
#     Node 21, Type 0, BuildingBlock: CEKHIL_clean_sbu_0, # of connection points: 4
#     Node 22, Type 0, BuildingBlock: CEKHIL_clean_sbu_0, # of connection points: 4
#     Node 23, Type 0, BuildingBlock: CEKHIL_clean_sbu_0, # of connection points: 4
#     Node 24, Type 0, BuildingBlock: CEKHIL_clean_sbu_0, # of connection points: 4
#     Node 25, Type 0, BuildingBlock: CEKHIL_clean_sbu_0, # of connection points: 4
#     Node 26, Type 0, BuildingBlock: CEKHIL_clean_sbu_0, # of connection points: 4
#     Node 27, Type 0, BuildingBlock: CEKHIL_clean_sbu_0, # of connection points: 4
#     Node 28, Type 0, BuildingBlock: CEKHIL_clean_sbu_0, # of connection points: 4
#     Node 29, Type 0, BuildingBlock: CEKHIL_clean_sbu_0, # of connection points: 4
#     Node 30, Type 0, BuildingBlock: CEKHIL_clean_sbu_0, # of connection points: 4
#     Node 31, Type 0, BuildingBlock: CEKHIL_clean_sbu_0, # of connection points: 4
#     Node 32, Type 0, BuildingBlock: CEKHIL_clean_sbu_0, # of connection points: 4
#     Node 33, Type 0, BuildingBlock: CEKHIL_clean_sbu_0, # of connection points: 4
#     Node 34, Type 0, BuildingBlock: CEKHIL_clean_sbu_0, # of connection points: 4
#     Node 35, Type 0, BuildingBlock: CEKHIL_clean_sbu_0, # of connection points: 4
#     Node 36, Type 0, BuildingBlock: CEKHIL_clean_sbu_0, # of connection points: 4
#     Node 37, Type 0, BuildingBlock: CEKHIL_clean_sbu_0, # of connection points: 4
#     Node 38, Type 0, BuildingBlock: CEKHIL_clean_sbu_0, # of connection points: 4
#     Node 39, Type 0, BuildingBlock: CEKHIL_clean_sbu_0, # of connection points: 4
#     Node 40, Type 0, BuildingBlock: CEKHIL_clean_sbu_0, # of connection points: 4
#     Node 41, Type 0, BuildingBlock: CEKHIL_clean_sbu_0, # of connection points: 4
#     Node 42, Type 0, BuildingBlock: CEKHIL_clean_sbu_0, # of connection points: 4
#     Node 43, Type 0, BuildingBlock: CEKHIL_clean_sbu_0, # of connection points: 4
#     Node 44, Type 0, BuildingBlock: CEKHIL_clean_sbu_0, # of connection points: 4
#     Node 45, Type 0, BuildingBlock: CEKHIL_clean_sbu_0, # of connection points: 4
#     Node 46, Type 0, BuildingBlock: CEKHIL_clean_sbu_0, # of connection points: 4
#     Node 47, Type 0, BuildingBlock: CEKHIL_clean_sbu_0, # of connection points: 4
#     Edge 48, Type (0, 0), BuildingBlock: AJUNOK_clean_linker_0, # of connection points: 2
#     Edge 49, Type (0, 0), BuildingBlock: AJUNOK_clean_linker_0, # of connection points: 2
#     Edge 50, Type (0, 0), BuildingBlock: AJUNOK_clean_linker_0, # of connection points: 2
#     Edge 51, Type (0, 0), BuildingBlock: AJUNOK_clean_linker_0, # of connection points: 2
#     Edge 52, Type (0, 0), BuildingBlock: AJUNOK_clean_linker_0, # of connection points: 2
#     Edge 53, Type (0, 0), BuildingBlock: AJUNOK_clean_linker_0, # of connection points: 2
#     Edge 54, Type (0, 0), BuildingBlock: AJUNOK_clean_linker_0, # of connection points: 2
#     Edge 55, Type (0, 0), BuildingBlock: AJUNOK_clean_linker_0, # of connection points: 2
#     Edge 56, Type (0, 0), BuildingBlock: AJUNOK_clean_linker_0, # of connection points: 2
#     Edge 57, Type (0, 0), BuildingBlock: AJUNOK_clean_linker_0, # of connection points: 2
#     Edge 58, Type (0, 0), BuildingBlock: AJUNOK_clean_linker_0, # of connection points: 2
#     Edge 59, Type (0, 0), BuildingBlock: AJUNOK_clean_linker_0, # of connection points: 2
#     Edge 60, Type (0, 0), BuildingBlock: AJUNOK_clean_linker_0, # of connection points: 2
#     Edge 61, Type (0, 0), BuildingBlock: AJUNOK_clean_linker_0, # of connection points: 2
#     Edge 62, Type (0, 0), BuildingBlock: AJUNOK_clean_linker_0, # of connection points: 2
#     Edge 63, Type (0, 0), BuildingBlock: AJUNOK_clean_linker_0, # of connection points: 2
#     Edge 64, Type (0, 0), BuildingBlock: AJUNOK_clean_linker_0, # of connection points: 2
#     Edge 65, Type (0, 0), BuildingBlock: AJUNOK_clean_linker_0, # of connection points: 2
#     Edge 66, Type (0, 0), BuildingBlock: AJUNOK_clean_linker_0, # of connection points: 2
#     Edge 67, Type (0, 0), BuildingBlock: AJUNOK_clean_linker_0, # of connection points: 2
#     Edge 68, Type (0, 0), BuildingBlock: AJUNOK_clean_linker_0, # of connection points: 2
#     Edge 69, Type (0, 0), BuildingBlock: AJUNOK_clean_linker_0, # of connection points: 2
#     Edge 70, Type (0, 0), BuildingBlock: AJUNOK_clean_linker_0, # of connection points: 2
#     Edge 71, Type (0, 0), BuildingBlock: AJUNOK_clean_linker_0, # of connection points: 2
#     Edge 72, Type (0, 0), BuildingBlock: AJUNOK_clean_linker_0, # of connection points: 2
#     Edge 73, Type (0, 0), BuildingBlock: AJUNOK_clean_linker_0, # of connection points: 2
#     Edge 74, Type (0, 0), BuildingBlock: AJUNOK_clean_linker_0, # of connection points: 2
#     Edge 75, Type (0, 0), BuildingBlock: AJUNOK_clean_linker_0, # of connection points: 2
#     Edge 76, Type (0, 0), BuildingBlock: AJUNOK_clean_linker_0, # of connection points: 2
#     Edge 77, Type (0, 0), BuildingBlock: AJUNOK_clean_linker_0, # of connection points: 2
#     Edge 78, Type (0, 0), BuildingBlock: AJUNOK_clean_linker_0, # of connection points: 2
#     Edge 79, Type (0, 0), BuildingBlock: AJUNOK_clean_linker_0, # of connection points: 2
#     Edge 80, Type (0, 0), BuildingBlock: AJUNOK_clean_linker_0, # of connection points: 2
#     Edge 81, Type (0, 0), BuildingBlock: AJUNOK_clean_linker_0, # of connection points: 2
#     Edge 82, Type (0, 0), BuildingBlock: AJUNOK_clean_linker_0, # of connection points: 2
#     Edge 83, Type (0, 0), BuildingBlock: AJUNOK_clean_linker_0, # of connection points: 2
#     Edge 84, Type (0, 0), BuildingBlock: AJUNOK_clean_linker_0, # of connection points: 2
#     Edge 85, Type (0, 0), BuildingBlock: AJUNOK_clean_linker_0, # of connection points: 2
#     Edge 86, Type (0, 0), BuildingBlock: AJUNOK_clean_linker_0, # of connection points: 2
#     Edge 87, Type (0, 0), BuildingBlock: AJUNOK_clean_linker_0, # of connection points: 2
#     Edge 88, Type (0, 0), BuildingBlock: AJUNOK_clean_linker_0, # of connection points: 2
#     Edge 89, Type (0, 0), BuildingBlock: AJUNOK_clean_linker_0, # of connection points: 2
#     Edge 90, Type (0, 0), BuildingBlock: AJUNOK_clean_linker_0, # of connection points: 2
#     Edge 91, Type (0, 0), BuildingBlock: AJUNOK_clean_linker_0, # of connection points: 2
#     Edge 92, Type (0, 0), BuildingBlock: AJUNOK_clean_linker_0, # of connection points: 2
#     Edge 93, Type (0, 0), BuildingBlock: AJUNOK_clean_linker_0, # of connection points: 2
#     Edge 94, Type (0, 0), BuildingBlock: AJUNOK_clean_linker_0, # of connection points: 2
#     Edge 95, Type (0, 0), BuildingBlock: AJUNOK_clean_linker_0, # of connection points: 2
#     Edge 96, Type (0, 0), BuildingBlock: AJUNOK_clean_linker_0, # of connection points: 2
#     Edge 97, Type (0, 0), BuildingBlock: AJUNOK_clean_linker_0, # of connection points: 2
#     Edge 98, Type (0, 0), BuildingBlock: AJUNOK_clean_linker_0, # of connection points: 2
#     Edge 99, Type (0, 0), BuildingBlock: AJUNOK_clean_linker_0, # of connection points: 2
#     Edge 100, Type (0, 0), BuildingBlock: AJUNOK_clean_linker_0, # of connection points: 2
#     Edge 101, Type (0, 0), BuildingBlock: AJUNOK_clean_linker_0, # of connection points: 2
#     Edge 102, Type (0, 0), BuildingBlock: AJUNOK_clean_linker_0, # of connection points: 2
#     Edge 103, Type (0, 0), BuildingBlock: AJUNOK_clean_linker_0, # of connection points: 2
#     Edge 104, Type (0, 0), BuildingBlock: AJUNOK_clean_linker_0, # of connection points: 2
#     Edge 105, Type (0, 0), BuildingBlock: AJUNOK_clean_linker_0, # of connection points: 2
#     Edge 106, Type (0, 0), BuildingBlock: AJUNOK_clean_linker_0, # of connection points: 2
#     Edge 107, Type (0, 0), BuildingBlock: AJUNOK_clean_linker_0, # of connection points: 2
#     Edge 108, Type (0, 0), BuildingBlock: AJUNOK_clean_linker_0, # of connection points: 2
#     Edge 109, Type (0, 0), BuildingBlock: AJUNOK_clean_linker_0, # of connection points: 2
#     Edge 110, Type (0, 0), BuildingBlock: AJUNOK_clean_linker_0, # of connection points: 2
#     Edge 111, Type (0, 0), BuildingBlock: AJUNOK_clean_linker_0, # of connection points: 2
#     Edge 112, Type (0, 0), BuildingBlock: AJUNOK_clean_linker_0, # of connection points: 2
#     Edge 113, Type (0, 0), BuildingBlock: AJUNOK_clean_linker_0, # of connection points: 2
#     Edge 114, Type (0, 0), BuildingBlock: AJUNOK_clean_linker_0, # of connection points: 2
#     Edge 115, Type (0, 0), BuildingBlock: AJUNOK_clean_linker_0, # of connection points: 2
#     Edge 116, Type (0, 0), BuildingBlock: AJUNOK_clean_linker_0, # of connection points: 2
#     Edge 117, Type (0, 0), BuildingBlock: AJUNOK_clean_linker_0, # of connection points: 2
#     Edge 118, Type (0, 0), BuildingBlock: AJUNOK_clean_linker_0, # of connection points: 2
#     Edge 119, Type (0, 0), BuildingBlock: AJUNOK_clean_linker_0, # of connection points: 2
#     Edge 120, Type (0, 0), BuildingBlock: AJUNOK_clean_linker_0, # of connection points: 2
#     Edge 121, Type (0, 0), BuildingBlock: AJUNOK_clean_linker_0, # of connection points: 2
#     Edge 122, Type (0, 0), BuildingBlock: AJUNOK_clean_linker_0, # of connection points: 2
#     Edge 123, Type (0, 0), BuildingBlock: AJUNOK_clean_linker_0, # of connection points: 2
#     Edge 124, Type (0, 0), BuildingBlock: AJUNOK_clean_linker_0, # of connection points: 2
#     Edge 125, Type (0, 0), BuildingBlock: AJUNOK_clean_linker_0, # of connection points: 2
#     Edge 126, Type (0, 0), BuildingBlock: AJUNOK_clean_linker_0, # of connection points: 2
#     Edge 127, Type (0, 0), BuildingBlock: AJUNOK_clean_linker_0, # of connection points: 2
#     Edge 128, Type (0, 0), BuildingBlock: AJUNOK_clean_linker_0, # of connection points: 2
#     Edge 129, Type (0, 0), BuildingBlock: AJUNOK_clean_linker_0, # of connection points: 2
#     Edge 130, Type (0, 0), BuildingBlock: AJUNOK_clean_linker_0, # of connection points: 2
#     Edge 131, Type (0, 0), BuildingBlock: AJUNOK_clean_linker_0, # of connection points: 2
#     Edge 132, Type (0, 0), BuildingBlock: AJUNOK_clean_linker_0, # of connection points: 2
#     Edge 133, Type (0, 0), BuildingBlock: AJUNOK_clean_linker_0, # of connection points: 2
#     Edge 134, Type (0, 0), BuildingBlock: AJUNOK_clean_linker_0, # of connection points: 2
#     Edge 135, Type (0, 0), BuildingBlock: AJUNOK_clean_linker_0, # of connection points: 2
#     Edge 136, Type (0, 0), BuildingBlock: AJUNOK_clean_linker_0, # of connection points: 2
#     Edge 137, Type (0, 0), BuildingBlock: AJUNOK_clean_linker_0, # of connection points: 2
#     Edge 138, Type (0, 0), BuildingBlock: AJUNOK_clean_linker_0, # of connection points: 2
#     Edge 139, Type (0, 0), BuildingBlock: AJUNOK_clean_linker_0, # of connection points: 2
#     Edge 140, Type (0, 0), BuildingBlock: AJUNOK_clean_linker_0, # of connection points: 2
#     Edge 141, Type (0, 0), BuildingBlock: AJUNOK_clean_linker_0, # of connection points: 2
#     Edge 142, Type (0, 0), BuildingBlock: AJUNOK_clean_linker_0, # of connection points: 2
#     Edge 143, Type (0, 0), BuildingBlock: AJUNOK_clean_linker_0, # of connection points: 2
# Relax obj value: 0.078
# Max RMSD: 0.093
# Mean RMSD: 0.084
data_MOF--net-rho--node1-CEKHIL_clean_sbu_0--edge1-AJUNOK_clean_linker_0
_symmetry_space_group_name_H-M    P1
_symmetry_Int_Tables_number       1
_symmetry_cell_setting            triclinic
loop_
_symmetry_equiv_pos_as_xyz
'x, y, z'
_cell_length_a     52.561655
_cell_length_b     52.099064
_cell_length_c     52.074885
_cell_angle_alpha  90.176996
_cell_angle_beta   90.061114
_cell_angle_gamma 90.809179
loop_
_atom_site_label
_atom_site_type_symbol
_atom_site_fract_x
_atom_site_fract_y
_atom_site_fract_z
_atom_type_partial_charge
Co0 Co 0.11704 0.25344 0.3962 0.0
O1 O 0.15269 0.2454 0.39938 0.0
O2 O 0.12144 0.21665 0.39849 0.0
C3 C 0.12192 0.28239 0.36403 0.0
O4 O 0.07828 0.25378 0.39222 0.0
Co5 Co 0.09627 0.30869 0.40445 0.0
O6 O 0.06427 0.29425 0.39001 0.0
C7 C 0.1099 0.27629 0.44919 0.0
C8 C 0.14576 0.22137 0.39985 0.0
C9 C 0.0604 0.27009 0.38859 0.0
O10 O 0.11384 0.25654 0.43484 0.0
O11 O 0.105 0.29859 0.44033 0.0
O12 O 0.12096 0.25794 0.35888 0.0
O13 O 0.12167 0.2881 0.38805 0.0
Co14 Co 0.75776 0.11228 0.39253 0.0
O15 O 0.749 0.11287 0.35667 0.0
O16 O 0.72094 0.11172 0.38814 0.0
C17 C 0.7877 0.14401 0.39124 0.0
O18 O 0.76001 0.11249 0.43188 0.0
Co19 Co 0.81198 0.0964 0.40855 0.0
O20 O 0.80174 0.11224 0.4416 0.0
C21 C 0.77532 0.05627 0.39269 0.0
C22 C 0.72531 0.11211 0.36352 0.0
C23 C 0.77854 0.11509 0.44798 0.0
O24 O 0.75809 0.07353 0.39156 0.0
O25 O 0.79866 0.06157 0.39779 0.0
O26 O 0.76367 0.14934 0.39267 0.0
O27 O 0.79259 0.11997 0.38777 0.0
Co28 Co 0.89457 0.75239 0.39843 0.0
O29 O 0.85866 0.75864 0.40196 0.0
O30 O 0.88843 0.78894 0.40098 0.0
C31 C 0.89059 0.72326 0.36607 0.0
O32 O 0.93328 0.75382 0.39424 0.0
Co33 Co 0.91782 0.69825 0.40635 0.0
O34 O 0.94916 0.71409 0.39207 0.0
C35 C 0.90286 0.72996 0.45131 0.0
C36 C 0.86437 0.78296 0.40262 0.0
C37 C 0.95195 0.73839 0.39079 0.0
O38 O 0.89821 0.74949 0.43701 0.0
O39 O 0.90864 0.70788 0.44232 0.0
O40 O 0.89046 0.74772 0.36112 0.0
O41 O 0.89139 0.71754 0.39005 0.0
Co42 Co 0.25475 0.89366 0.39365 0.0
O43 O 0.2656 0.88999 0.35861 0.0
O44 O 0.29187 0.8948 0.39136 0.0
C45 C 0.22535 0.86133 0.39301 0.0
O46 O 0.24961 0.89735 0.43268 0.0
Co47 Co 0.19889 0.91017 0.4025 0.0
O48 O 0.20749 0.90233 0.43865 0.0
C49 C 0.23665 0.94921 0.38727 0.0
C50 C 0.28885 0.89217 0.36663 0.0
C51 C 0.22997 0.89958 0.44742 0.0
O52 O 0.25398 0.93215 0.38933 0.0
O53 O 0.21293 0.94402 0.39012 0.0
O54 O 0.24928 0.85655 0.39668 0.0
O55 O 0.22061 0.88482 0.38702 0.0
Co56 Co 0.11373 0.75499 0.61322 0.0
O57 O 0.14935 0.76404 0.61266 0.0
O58 O 0.11815 0.79201 0.61238 0.0
C59 C 0.11589 0.72574 0.64518 0.0
O60 O 0.07479 0.75265 0.61487 0.0
Co61 Co 0.09669 0.70029 0.59788 0.0
O62 O 0.06485 0.71055 0.6154 0.0
C63 C 0.1116 0.73629 0.55714 0.0
C64 C 0.14252 0.78786 0.61229 0.0
C65 C 0.05881 0.73398 0.61836 0.0
O66 O 0.11333 0.75389 0.57445 0.0
O67 O 0.10644 0.71283 0.56257 0.0
O68 O 0.11488 0.75014 0.65018 0.0
O69 O 0.11842 0.72002 0.62107 0.0
Co70 Co 0.258 0.11794 0.61236 0.0
O71 O 0.25107 0.15407 0.60909 0.0
O72 O 0.22166 0.12339 0.60973 0.0
C73 C 0.28638 0.12136 0.64512 0.0
O74 O 0.25722 0.07902 0.61636 0.0
Co75 Co 0.31208 0.09547 0.60404 0.0
O76 O 0.29681 0.06359 0.61839 0.0
C77 C 0.27967 0.10804 0.55917 0.0
C78 C 0.22707 0.14778 0.60835 0.0
C79 C 0.27276 0.06046 0.61985 0.0
O80 O 0.26093 0.11426 0.57373 0.0
O81 O 0.30164 0.102 0.5677 0.0
O82 O 0.26206 0.12169 0.64961 0.0
O83 O 0.29259 0.12146 0.62119 0.0
Co84 Co 0.89991 0.25103 0.61299 0.0
O85 O 0.86424 0.24243 0.61192 0.0
O86 O 0.89498 0.214 0.6132 0.0
C87 C 0.8971 0.28167 0.64378 0.0
O88 O 0.93884 0.25314 0.61535 0.0
Co89 Co 0.91762 0.30525 0.59652 0.0
O90 O 0.94911 0.29521 0.6148 0.0
C91 C 0.9028 0.26804 0.55653 0.0
C92 C 0.87068 0.21852 0.61239 0.0
C93 C 0.95487 0.27184 0.61861 0.0
O94 O 0.90104 0.25084 0.57416 0.0
O95 O 0.90767 0.29168 0.56161 0.0
O96 O 0.89803 0.25755 0.64993 0.0
O97 O 0.89534 0.28613 0.61941 0.0
Co98 Co 0.75525 0.89076 0.61448 0.0
O99 O 0.76331 0.85485 0.61271 0.0
O100 O 0.79172 0.88647 0.61102 0.0
C101 C 0.72773 0.88766 0.64783 0.0
O102 O 0.75463 0.92988 0.61643 0.0
Co103 Co 0.69999 0.91062 0.60673 0.0
O104 O 0.71446 0.94393 0.61858 0.0
C105 C 0.73037 0.89282 0.56217 0.0
C106 C 0.78702 0.8619 0.6107 0.0
C107 C 0.73841 0.94798 0.61933 0.0
O108 O 0.75072 0.8917 0.57593 0.0
O109 O 0.70844 0.89753 0.57166 0.0
O110 O 0.75212 0.88887 0.65209 0.0
O111 O 0.72125 0.88637 0.62406 0.0
Co112 Co 0.3938 0.11097 0.25443 0.0
O113 O 0.35757 0.10791 0.25974 0.0
O114 O 0.38623 0.10978 0.29076 0.0
C115 C 0.39124 0.14266 0.22477 0.0
O116 O 0.43255 0.11504 0.25674 0.0
Co117 Co 0.41863 0.10111 0.2013 0.0
O118 O 0.44972 0.11597 0.2173 0.0
C119 C 0.40449 0.05712 0.23488 0.0
C120 C 0.36235 0.10849 0.28418 0.0
C121 C 0.45179 0.11791 0.24161 0.0
O122 O 0.39705 0.07225 0.25291 0.0
O123 O 0.41203 0.06497 0.21284 0.0
O124 O 0.39058 0.14805 0.24913 0.0
O125 O 0.39184 0.11853 0.21928 0.0
Co126 Co 0.89642 0.39447 0.24985 0.0
O127 O 0.86045 0.39345 0.2423 0.0
O128 O 0.89088 0.39453 0.21309 0.0
C129 C 0.89611 0.36328 0.28018 0.0
O130 O 0.93529 0.39451 0.24962 0.0
Co131 Co 0.91686 0.4111 0.30275 0.0
O132 O 0.95011 0.39889 0.28978 0.0
C133 C 0.89822 0.45065 0.26748 0.0
C134 C 0.86667 0.39398 0.21816 0.0
C135 C 0.95373 0.39482 0.26593 0.0
O136 O 0.89594 0.43317 0.25013 0.0
O137 O 0.90479 0.44558 0.2906 0.0
O138 O 0.89635 0.35762 0.25585 0.0
O139 O 0.89356 0.38744 0.28539 0.0
Co140 Co 0.61816 0.89598 0.25638 0.0
O141 O 0.65425 0.89711 0.26227 0.0
O142 O 0.62518 0.89535 0.29288 0.0
C143 C 0.61927 0.86555 0.22547 0.0
O144 O 0.57923 0.89355 0.25719 0.0
Co145 Co 0.59698 0.91219 0.20367 0.0
O146 O 0.56585 0.89418 0.21612 0.0
C147 C 0.61373 0.95229 0.24021 0.0
C148 C 0.64917 0.89616 0.28658 0.0
C149 C 0.56182 0.89052 0.23995 0.0
O150 O 0.61722 0.93468 0.25707 0.0
O151 O 0.60708 0.94721 0.21705 0.0
O152 O 0.6194 0.85919 0.24956 0.0
O153 O 0.62071 0.88994 0.22099 0.0
Co154 Co 0.11429 0.61246 0.25003 0.0
O155 O 0.1502 0.6131 0.2424 0.0
O156 O 0.11978 0.61182 0.21316 0.0
C157 C 0.11523 0.64421 0.27995 0.0
O158 O 0.07534 0.61272 0.25024 0.0
Co159 Co 0.09454 0.59747 0.30384 0.0
O160 O 0.06165 0.61071 0.29104 0.0
C161 C 0.11218 0.55682 0.26891 0.0
C162 C 0.14401 0.61248 0.21825 0.0
C163 C 0.05748 0.61389 0.26716 0.0
O164 O 0.11443 0.5737 0.25101 0.0
O165 O 0.10615 0.56273 0.29198 0.0
O166 O 0.11475 0.64952 0.25559 0.0
O167 O 0.11758 0.62013 0.28532 0.0
Co168 Co 0.39711 0.89475 0.75045 0.0
O169 O 0.36121 0.89702 0.74284 0.0
O170 O 0.39158 0.89666 0.71364 0.0
C171 C 0.39317 0.86248 0.77979 0.0
O172 O 0.4359 0.89154 0.75005 0.0
Co173 Co 0.4198 0.90369 0.80505 0.0
O174 O 0.45107 0.88891 0.79026 0.0
C175 C 0.40476 0.9482 0.77297 0.0
C176 C 0.36739 0.89739 0.71868 0.0
C177 C 0.45418 0.88769 0.76604 0.0
O178 O 0.40012 0.93365 0.75334 0.0
O179 O 0.41067 0.93943 0.79511 0.0
O180 O 0.3935 0.85732 0.75533 0.0
O181 O 0.39358 0.88655 0.78534 0.0
Co182 Co 0.11713 0.39648 0.75536 0.0
O183 O 0.15291 0.39794 0.7625 0.0
O184 O 0.12307 0.39636 0.79226 0.0
C185 C 0.11972 0.36551 0.72498 0.0
O186 O 0.07808 0.3939 0.75426 0.0
Co187 Co 0.09913 0.41196 0.70104 0.0
O188 O 0.0674 0.39436 0.71236 0.0
C189 C 0.11356 0.45254 0.73796 0.0
C190 C 0.14725 0.39724 0.78665 0.0
C191 C 0.06172 0.391 0.73593 0.0
O192 O 0.11594 0.43524 0.75538 0.0
O193 O 0.10861 0.44705 0.71448 0.0
O194 O 0.11886 0.35952 0.74915 0.0
O195 O 0.12132 0.38983 0.72029 0.0
Co196 Co 0.61474 0.11153 0.75148 0.0
O197 O 0.65063 0.1109 0.74463 0.0
O198 O 0.62109 0.11098 0.71456 0.0
C199 C 0.61651 0.14314 0.78148 0.0
O200 O 0.57574 0.11337 0.75164 0.0
Co201 Co 0.59499 0.09673 0.80552 0.0
O202 O 0.56416 0.11456 0.79324 0.0
C203 C 0.61096 0.05577 0.77015 0.0
C204 C 0.64521 0.11089 0.72036 0.0
C205 C 0.5592 0.11734 0.76945 0.0
O206 O 0.61355 0.07271 0.75233 0.0
O207 O 0.60527 0.06169 0.79331 0.0
O208 O 0.61647 0.14855 0.75715 0.0
O209 O 0.61811 0.11898 0.78674 0.0
Co210 Co 0.89267 0.61182 0.75489 0.0
O211 O 0.85679 0.61023 0.76252 0.0
O212 O 0.88753 0.60951 0.79151 0.0
C213 C 0.88986 0.64452 0.72652 0.0
O214 O 0.93151 0.61412 0.75472 0.0
Co215 Co 0.91341 0.60221 0.69999 0.0
O216 O 0.94612 0.61533 0.71423 0.0
C217 C 0.89502 0.55853 0.73162 0.0
C218 C 0.86326 0.60943 0.78656 0.0
C219 C 0.94973 0.61694 0.73838 0.0
O220 O 0.89355 0.5731 0.75158 0.0
O221 O 0.90026 0.56709 0.70916 0.0
O222 O 0.89098 0.64927 0.75102 0.0
O223 O 0.88895 0.62055 0.72038 0.0
Co224 Co 0.25593 0.39039 0.11496 0.0
O225 O 0.26444 0.35446 0.11461 0.0
O226 O 0.29239 0.38642 0.1122 0.0
C227 C 0.22792 0.38833 0.14796 0.0
O228 O 0.25522 0.42947 0.11568 0.0
Co229 Co 0.20114 0.40996 0.10504 0.0
O230 O 0.21526 0.44402 0.11526 0.0
C231 C 0.23222 0.39038 0.062 0.0
C232 C 0.28811 0.3618 0.11282 0.0
C233 C 0.2392 0.4479 0.11694 0.0
O234 O 0.2522 0.39004 0.07633 0.0
O235 O 0.20999 0.39531 0.07062 0.0
O236 O 0.25226 0.38973 0.15246 0.0
O237 O 0.22168 0.3862 0.12413 0.0
Co238 Co 0.2548 0.61259 0.89373 0.0
O239 O 0.24444 0.61297 0.85834 0.0
O240 O 0.21779 0.61198 0.89105 0.0
C241 C 0.2844 0.64443 0.89067 0.0
O242 O 0.25922 0.613 0.93292 0.0
Co243 Co 0.31015 0.59716 0.90643 0.0
O244 O 0.30143 0.61222 0.94025 0.0
C245 C 0.2726 0.55668 0.8936 0.0
C246 C 0.22108 0.61252 0.86625 0.0
C247 C 0.27864 0.615 0.94806 0.0
O248 O 0.2552 0.57382 0.89315 0.0
O249 O 0.29618 0.56229 0.89688 0.0
O250 O 0.26047 0.64968 0.89333 0.0
O251 O 0.28919 0.6204 0.88708 0.0
Co252 Co 0.3951 0.25419 0.89593 0.0
O253 O 0.35943 0.26178 0.8989 0.0
O254 O 0.3903 0.29097 0.89816 0.0
C255 C 0.39049 0.22514 0.86355 0.0
O256 O 0.43389 0.2539 0.89222 0.0
Co257 Co 0.41534 0.199 0.90505 0.0
O258 O 0.44747 0.21323 0.89088 0.0
C259 C 0.40344 0.23256 0.94946 0.0
C260 C 0.36602 0.28587 0.89938 0.0
C261 C 0.45164 0.23731 0.88913 0.0
O262 O 0.3983 0.2516 0.93467 0.0
O263 O 0.40869 0.21008 0.94119 0.0
O264 O 0.39138 0.24958 0.85856 0.0
O265 O 0.39054 0.21947 0.88759 0.0
Co266 Co 0.75482 0.39347 0.89185 0.0
O267 O 0.76344 0.3933 0.85602 0.0
O268 O 0.79174 0.39461 0.88725 0.0
C269 C 0.72526 0.36139 0.89005 0.0
O270 O 0.75235 0.39297 0.93119 0.0
Co271 Co 0.69989 0.40828 0.90742 0.0
O272 O 0.71046 0.39269 0.9404 0.0
C273 C 0.73628 0.44915 0.89294 0.0
C274 C 0.78719 0.39428 0.86264 0.0
C275 C 0.73365 0.39017 0.94705 0.0
O276 O 0.75387 0.43223 0.8916 0.0
O277 O 0.71296 0.44325 0.89731 0.0
O278 O 0.74935 0.35627 0.8914 0.0
O279 O 0.7202 0.38537 0.88689 0.0
Co280 Co 0.61547 0.75274 0.89566 0.0
O281 O 0.65144 0.74685 0.89835 0.0
O282 O 0.62185 0.71636 0.89937 0.0
C283 C 0.61834 0.78017 0.86211 0.0
O284 O 0.57667 0.75112 0.8925 0.0
Co285 Co 0.59256 0.80729 0.90213 0.0
O286 O 0.56096 0.79082 0.88894 0.0
C287 C 0.60943 0.77772 0.94775 0.0
C288 C 0.64591 0.72256 0.89989 0.0
C289 C 0.55804 0.7665 0.88864 0.0
O290 O 0.61304 0.75739 0.93416 0.0
O291 O 0.60364 0.79941 0.93796 0.0
O292 O 0.61843 0.75552 0.85818 0.0
O293 O 0.61835 0.78714 0.88583 0.0
Co294 Co 0.75372 0.61758 0.11499 0.0
O295 O 0.74505 0.65347 0.11467 0.0
O296 O 0.71704 0.62153 0.11347 0.0
C297 C 0.78324 0.62045 0.14686 0.0
O298 O 0.7549 0.57839 0.11581 0.0
Co299 Co 0.80853 0.59876 0.10311 0.0
O300 O 0.79531 0.56488 0.11459 0.0
C301 C 0.77566 0.61797 0.0614 0.0
C302 C 0.72134 0.64617 0.11355 0.0
C303 C 0.77153 0.56045 0.11696 0.0
O304 O 0.75604 0.61753 0.07621 0.0
O305 O 0.79827 0.61373 0.06937 0.0
O306 O 0.75914 0.6188 0.15246 0.0
O307 O 0.78819 0.62221 0.12276 0.0
Co308 Co 0.39776 0.75407 0.11186 0.0
O309 O 0.36246 0.74414 0.11165 0.0
O310 O 0.39413 0.71677 0.11171 0.0
C311 C 0.39466 0.78394 0.14355 0.0
O312 O 0.43671 0.75817 0.11321 0.0
Co313 Co 0.41127 0.80949 0.09543 0.0
O314 O 0.44438 0.80074 0.11111 0.0
C315 C 0.39834 0.77182 0.05534 0.0
C316 C 0.36965 0.72048 0.11175 0.0
C317 C 0.45176 0.77789 0.11519 0.0
O318 O 0.3979 0.75436 0.07284 0.0
O319 O 0.40161 0.79564 0.06064 0.0
O320 O 0.39673 0.75976 0.14899 0.0
O321 O 0.3917 0.7888 0.11937 0.0
Co322 Co 0.61331 0.25468 0.11409 0.0
O323 O 0.64889 0.26379 0.11352 0.0
O324 O 0.61772 0.29178 0.11349 0.0
C325 C 0.61544 0.22515 0.14574 0.0
O326 O 0.57438 0.25209 0.11576 0.0
Co327 Co 0.59674 0.2 0.098 0.0
O328 O 0.56486 0.20986 0.1157 0.0
C329 C 0.61101 0.2367 0.05774 0.0
C330 C 0.6421 0.28761 0.11324 0.0
C331 C 0.55865 0.23318 0.11912 0.0
O332 O 0.61274 0.25396 0.07537 0.0
O333 O 0.60622 0.21308 0.06281 0.0
O334 O 0.61451 0.2495 0.151 0.0
O335 O 0.6181 0.21967 0.1216 0.0
Co336 Co 0.89515 0.75288 0.61593 0.0
O337 O 0.85982 0.76078 0.61219 0.0
O338 O 0.89071 0.7899 0.61307 0.0
C339 C 0.88915 0.72455 0.64847 0.0
O340 O 0.93401 0.7511 0.6201 0.0
Co341 Co 0.91255 0.69624 0.60755 0.0
O342 O 0.94393 0.70938 0.62435 0.0
C343 C 0.90137 0.72948 0.56284 0.0
C344 C 0.86643 0.78478 0.61115 0.0
C345 C 0.95003 0.73315 0.62501 0.0
O346 O 0.89848 0.74933 0.57733 0.0
O347 O 0.90498 0.70685 0.57154 0.0
O348 O 0.89086 0.74899 0.6534 0.0
O349 O 0.88931 0.71869 0.6245 0.0
Co350 Co 0.2525 0.89842 0.61402 0.0
O351 O 0.26311 0.89582 0.64928 0.0
O352 O 0.28954 0.89834 0.61649 0.0
C353 C 0.22194 0.86728 0.61553 0.0
O354 O 0.2479 0.90058 0.57482 0.0
Co355 Co 0.1973 0.91617 0.6034 0.0
O356 O 0.20613 0.90664 0.5677 0.0
C357 C 0.23581 0.95445 0.61903 0.0
C358 C 0.28643 0.89681 0.64127 0.0
C359 C 0.22865 0.90275 0.55956 0.0
O360 O 0.2529 0.93709 0.61704 0.0
O361 O 0.21204 0.9495 0.6164 0.0
O362 O 0.24569 0.86139 0.6123 0.0
O363 O 0.21806 0.89118 0.62051 0.0
Co364 Co 0.11831 0.25682 0.61395 0.0
O365 O 0.1539 0.24973 0.61016 0.0
O366 O 0.12373 0.21993 0.61174 0.0
C367 C 0.12346 0.2861 0.64597 0.0
O368 O 0.07943 0.25738 0.61847 0.0
Co369 Co 0.09864 0.31243 0.60472 0.0
O370 O 0.06825 0.29877 0.62274 0.0
C371 C 0.11061 0.27855 0.56053 0.0
C372 C 0.14788 0.22554 0.60968 0.0
C373 C 0.06304 0.27483 0.62391 0.0
O374 O 0.11453 0.25925 0.57536 0.0
O375 O 0.10608 0.3012 0.56882 0.0
O376 O 0.12276 0.26171 0.65122 0.0
O377 O 0.12306 0.2915 0.62192 0.0
Co378 Co 0.75801 0.11082 0.61336 0.0
O379 O 0.74963 0.1114 0.64924 0.0
O380 O 0.72122 0.11195 0.61807 0.0
C381 C 0.78962 0.14078 0.61531 0.0
O382 O 0.75997 0.11143 0.57399 0.0
Co383 Co 0.8114 0.09259 0.59652 0.0
O384 O 0.80154 0.10931 0.56387 0.0
C385 C 0.77333 0.05439 0.61345 0.0
C386 C 0.72586 0.11188 0.64265 0.0
C387 C 0.77845 0.11338 0.55778 0.0
O388 O 0.75656 0.07213 0.61375 0.0
O389 O 0.79687 0.05886 0.60867 0.0
O390 O 0.76594 0.14758 0.61401 0.0
O391 O 0.79309 0.11644 0.61799 0.0
Co392 Co 0.89877 0.25365 0.3911 0.0
O393 O 0.89715 0.26056 0.35484 0.0
O394 O 0.89923 0.29052 0.38481 0.0
C395 C 0.86731 0.22341 0.39191 0.0
O396 O 0.89983 0.25367 0.43049 0.0
Co397 Co 0.9151 0.20024 0.40973 0.0
O398 O 0.90386 0.21294 0.44376 0.0
C399 C 0.95429 0.23614 0.39071 0.0
C400 C 0.89818 0.28481 0.36046 0.0
C401 C 0.90023 0.23663 0.44844 0.0
O402 O 0.93709 0.25338 0.38926 0.0
O403 O 0.94918 0.21287 0.39694 0.0
O404 O 0.8621 0.24771 0.39242 0.0
O405 O 0.89106 0.21825 0.38824 0.0
Co406 Co 0.75564 0.89189 0.39821 0.0
O407 O 0.76213 0.85562 0.40015 0.0
O408 O 0.79184 0.88597 0.40187 0.0
C409 C 0.72819 0.88942 0.36474 0.0
O410 O 0.75656 0.93115 0.39586 0.0
Co411 Co 0.70124 0.91384 0.40582 0.0
O412 O 0.71674 0.94601 0.39249 0.0
C413 C 0.73079 0.89491 0.4504 0.0
C414 C 0.78611 0.86159 0.40215 0.0
C415 C 0.74078 0.94949 0.39189 0.0
O416 O 0.75111 0.8933 0.43671 0.0
O417 O 0.70906 0.90044 0.44088 0.0
O418 O 0.75261 0.88965 0.36066 0.0
O419 O 0.72154 0.88869 0.38848 0.0
Co420 Co 0.11297 0.75314 0.39194 0.0
O421 O 0.1139 0.74684 0.35548 0.0
O422 O 0.11163 0.71649 0.38488 0.0
C423 C 0.14511 0.78262 0.39289 0.0
O424 O 0.11259 0.75215 0.43129 0.0
Co425 Co 0.09882 0.80651 0.41291 0.0
O426 O 0.11091 0.79263 0.44614 0.0
C427 C 0.05812 0.7724 0.39319 0.0
C428 C 0.11262 0.72253 0.36065 0.0
C429 C 0.11358 0.76864 0.44982 0.0
O430 O 0.07463 0.75453 0.39072 0.0
O431 O 0.06424 0.79526 0.40013 0.0
O432 O 0.14981 0.7582 0.39279 0.0
O433 O 0.12142 0.78838 0.38995 0.0
Co434 Co 0.25512 0.11296 0.3951 0.0
O435 O 0.24749 0.14904 0.398 0.0
O436 O 0.21876 0.11772 0.3981 0.0
C437 C 0.28307 0.11657 0.36209 0.0
O438 O 0.25511 0.07385 0.39143 0.0
Co439 Co 0.30977 0.09187 0.40317 0.0
O440 O 0.29519 0.05978 0.38839 0.0
C441 C 0.27792 0.10523 0.44817 0.0
C442 C 0.22364 0.14224 0.39908 0.0
C443 C 0.27123 0.05586 0.38728 0.0
O444 O 0.25868 0.11021 0.43375 0.0
O445 O 0.29991 0.09953 0.43946 0.0
O446 O 0.2587 0.11618 0.35772 0.0
O447 O 0.28945 0.1171 0.38598 0.0
Co448 Co 0.61495 0.89016 0.75301 0.0
O449 O 0.61637 0.85379 0.75884 0.0
O450 O 0.61337 0.88314 0.78941 0.0
C451 C 0.64737 0.89185 0.72466 0.0
O452 O 0.61394 0.92938 0.75423 0.0
Co453 Co 0.60042 0.91052 0.69987 0.0
O454 O 0.61111 0.94438 0.71402 0.0
C455 C 0.55994 0.89016 0.73318 0.0
C456 C 0.61484 0.85898 0.78314 0.0
C457 C 0.61386 0.94807 0.73807 0.0
O458 O 0.57672 0.88785 0.75095 0.0
O459 O 0.56564 0.8976 0.71046 0.0
O460 O 0.6517 0.89205 0.7492 0.0
O461 O 0.62378 0.88831 0.71803 0.0
Co462 Co 0.11119 0.61741 0.75699 0.0
O463 O 0.11223 0.65374 0.75005 0.0
O464 O 0.11219 0.62347 0.72028 0.0
C465 C 0.1412 0.61747 0.78827 0.0
O466 O 0.11125 0.57824 0.75625 0.0
Co467 Co 0.0935 0.59618 0.80928 0.0
O468 O 0.10581 0.56281 0.79604 0.0
C469 C 0.05518 0.61516 0.77301 0.0
C470 C 0.11249 0.64783 0.7258 0.0
C471 C 0.11047 0.55945 0.77226 0.0
O472 O 0.07285 0.61772 0.75612 0.0
O473 O 0.0597 0.60836 0.79617 0.0
O474 O 0.14755 0.61755 0.76415 0.0
O475 O 0.11712 0.61989 0.79272 0.0
Co476 Co 0.39541 0.11371 0.75467 0.0
O477 O 0.35947 0.11091 0.74797 0.0
O478 O 0.38904 0.11216 0.71794 0.0
C479 C 0.39169 0.14588 0.78399 0.0
O480 O 0.4344 0.11744 0.75453 0.0
Co481 Co 0.41679 0.10436 0.80958 0.0
O482 O 0.44724 0.12218 0.79554 0.0
C483 C 0.40306 0.05998 0.77588 0.0
C484 C 0.36494 0.1112 0.72373 0.0
C485 C 0.45158 0.1229 0.77149 0.0
O486 O 0.39805 0.07489 0.75684 0.0
O487 O 0.40894 0.06834 0.79832 0.0
O488 O 0.3923 0.15103 0.75961 0.0
O489 O 0.39175 0.1218 0.78948 0.0
Co490 Co 0.89722 0.3936 0.75249 0.0
O491 O 0.86145 0.39393 0.76003 0.0
O492 O 0.89149 0.39519 0.78955 0.0
C493 C 0.89474 0.36127 0.72304 0.0
O494 O 0.93631 0.39252 0.75159 0.0
Co495 Co 0.91592 0.40564 0.69693 0.0
O496 O 0.94772 0.3904 0.70995 0.0
C497 C 0.8975 0.44747 0.73031 0.0
C498 C 0.86727 0.39494 0.78419 0.0
C499 C 0.95301 0.38891 0.7338 0.0
O500 O 0.89759 0.4325 0.75 0.0
O501 O 0.90198 0.43963 0.70744 0.0
O502 O 0.89576 0.35608 0.74744 0.0
O503 O 0.89322 0.3853 0.71777 0.0
Co504 Co 0.61232 0.11671 0.25733 0.0
O505 O 0.61352 0.15295 0.25013 0.0
O506 O 0.61126 0.12252 0.22056 0.0
C507 C 0.64427 0.11643 0.28661 0.0
O508 O 0.6118 0.07749 0.25702 0.0
Co509 Co 0.59744 0.09657 0.31087 0.0
O510 O 0.61014 0.06332 0.29766 0.0
C511 C 0.55718 0.11527 0.27664 0.0
C512 C 0.6123 0.14691 0.22595 0.0
C513 C 0.61296 0.05931 0.27369 0.0
O514 O 0.57398 0.11766 0.25881 0.0
O515 O 0.56293 0.10866 0.29956 0.0
O516 O 0.64902 0.11626 0.26213 0.0
O517 O 0.62059 0.11947 0.29261 0.0
Co518 Co 0.89519 0.61536 0.25386 0.0
O519 O 0.89456 0.65153 0.26189 0.0
O520 O 0.89545 0.62039 0.29059 0.0
C521 C 0.86394 0.61611 0.22394 0.0
O522 O 0.895 0.57611 0.2532 0.0
Co523 Co 0.91059 0.59631 0.20025 0.0
O524 O 0.89795 0.5624 0.21243 0.0
C525 C 0.95074 0.61399 0.23587 0.0
C526 C 0.8948 0.64489 0.28588 0.0
C527 C 0.89452 0.55804 0.23624 0.0
O528 O 0.93361 0.61643 0.25331 0.0
O529 O 0.9453 0.60764 0.2127 0.0
O530 O 0.85848 0.6149 0.24822 0.0
O531 O 0.8879 0.61899 0.21869 0.0
Co532 Co 0.39827 0.8922 0.25623 0.0
O533 O 0.36253 0.89388 0.26457 0.0
O534 O 0.3934 0.8928 0.29325 0.0
C535 C 0.39388 0.86101 0.22561 0.0
O536 O 0.43714 0.88955 0.25558 0.0
Co537 Co 0.41958 0.90336 0.20152 0.0
O538 O 0.45004 0.88556 0.21464 0.0
C539 C 0.40658 0.94652 0.2365 0.0
C540 C 0.36911 0.8936 0.28861 0.0
C541 C 0.45429 0.88461 0.23868 0.0
O542 O 0.40095 0.93108 0.25503 0.0
O543 O 0.41284 0.93904 0.21395 0.0
O544 O 0.39487 0.85499 0.24982 0.0
O545 O 0.39397 0.88527 0.22104 0.0
Co546 Co 0.11543 0.39135 0.25382 0.0
O547 O 0.11617 0.35508 0.26114 0.0
O548 O 0.11416 0.38582 0.29041 0.0
C549 C 0.14775 0.39145 0.2252 0.0
O550 O 0.11534 0.43057 0.25391 0.0
Co551 Co 0.1017 0.41098 0.20009 0.0
O552 O 0.11282 0.44501 0.21349 0.0
C553 C 0.06042 0.39321 0.23417 0.0
C554 C 0.11542 0.36142 0.28524 0.0
C555 C 0.11558 0.44902 0.23749 0.0
O556 O 0.07705 0.39011 0.25202 0.0
O557 O 0.06657 0.39988 0.21134 0.0
O558 O 0.15219 0.39223 0.24971 0.0
O559 O 0.12406 0.38829 0.2188 0.0
Co560 Co 0.75532 0.61431 0.89711 0.0
O561 O 0.7488 0.65058 0.89755 0.0
O562 O 0.71902 0.62024 0.8984 0.0
C563 C 0.78479 0.61534 0.86539 0.0
O564 O 0.75448 0.5751 0.89599 0.0
Co565 Co 0.80882 0.593 0.90993 0.0
O566 O 0.79417 0.55982 0.89788 0.0
C567 C 0.77664 0.61447 0.95095 0.0
C568 C 0.72476 0.64461 0.89853 0.0
C569 C 0.77027 0.55642 0.89499 0.0
O570 O 0.75725 0.61434 0.93584 0.0
O571 O 0.79916 0.60917 0.94343 0.0
O572 O 0.76065 0.61509 0.8598 0.0
O573 O 0.78999 0.61709 0.8895 0.0
Co574 Co 0.75333 0.39689 0.11225 0.0
O575 O 0.76278 0.39633 0.14802 0.0
O576 O 0.79006 0.39595 0.1158 0.0
C577 C 0.72202 0.36667 0.11469 0.0
O578 O 0.75073 0.39611 0.07297 0.0
Co579 Co 0.69981 0.41454 0.0959 0.0
O580 O 0.70911 0.39753 0.06313 0.0
C581 C 0.73782 0.45335 0.11208 0.0
C582 C 0.7863 0.39586 0.1405 0.0
C583 C 0.73219 0.39372 0.05688 0.0
O584 O 0.75461 0.43562 0.11271 0.0
O585 O 0.71428 0.44867 0.10734 0.0
O586 O 0.74573 0.36012 0.11289 0.0
O587 O 0.71831 0.391 0.11752 0.0
Co588 Co 0.61554 0.75838 0.11304 0.0
O589 O 0.65065 0.7487 0.111 0.0
O590 O 0.61847 0.7211 0.11087 0.0
C591 C 0.6212 0.78693 0.14567 0.0
O592 O 0.57664 0.76197 0.11588 0.0
Co593 Co 0.60148 0.81575 0.10317 0.0
O594 O 0.56861 0.80431 0.11791 0.0
C595 C 0.61311 0.78134 0.0595 0.0
C596 C 0.64302 0.72497 0.11041 0.0
C597 C 0.5614 0.7809 0.11961 0.0
O598 O 0.61375 0.76149 0.07423 0.0
O599 O 0.61105 0.80431 0.06798 0.0
O600 O 0.6185 0.76259 0.15056 0.0
O601 O 0.62256 0.7925 0.1217 0.0
Co602 Co 0.25882 0.61094 0.11389 0.0
O603 O 0.24868 0.61165 0.14944 0.0
O604 O 0.22195 0.61169 0.11672 0.0
C605 C 0.28994 0.64137 0.11685 0.0
O606 O 0.26228 0.6114 0.07466 0.0
Co607 Co 0.31308 0.59362 0.09914 0.0
O608 O 0.30406 0.60925 0.06572 0.0
C609 C 0.27481 0.55463 0.11401 0.0
C610 C 0.22528 0.61193 0.14149 0.0
C611 C 0.28111 0.61294 0.05884 0.0
O612 O 0.25779 0.57217 0.11425 0.0
O613 O 0.29842 0.55958 0.11017 0.0
O614 O 0.26622 0.64778 0.11463 0.0
O615 O 0.29367 0.61712 0.11992 0.0
Co616 Co 0.39552 0.25155 0.11436 0.0
O617 O 0.36018 0.26015 0.11141 0.0
O618 O 0.39165 0.28861 0.11304 0.0
C619 C 0.38991 0.22219 0.14608 0.0
O620 O 0.43435 0.24947 0.11832 0.0
Co621 Co 0.41298 0.1956 0.10347 0.0
O622 O 0.44397 0.20765 0.12175 0.0
C623 C 0.4031 0.23086 0.06014 0.0
C624 C 0.36725 0.28408 0.11159 0.0
C625 C 0.4501 0.23135 0.12336 0.0
O626 O 0.39867 0.24964 0.07559 0.0
O627 O 0.4075 0.20795 0.06759 0.0
O628 O 0.39157 0.24651 0.15157 0.0
O629 O 0.38959 0.2169 0.1219 0.0
Co630 Co 0.25448 0.39196 0.89789 0.0
O631 O 0.26279 0.35595 0.89803 0.0
O632 O 0.2909 0.3878 0.90041 0.0
C633 C 0.22629 0.39017 0.86502 0.0
O634 O 0.25404 0.43109 0.89718 0.0
Co635 Co 0.20001 0.41186 0.90847 0.0
O636 O 0.21408 0.4456 0.8974 0.0
C637 C 0.23136 0.39191 0.95104 0.0
C638 C 0.2865 0.3632 0.8997 0.0
C639 C 0.23801 0.44948 0.89557 0.0
O640 O 0.25115 0.39166 0.93651 0.0
O641 O 0.20906 0.39701 0.94272 0.0
O642 O 0.25062 0.39129 0.86051 0.0
O643 O 0.22008 0.38799 0.88885 0.0
Co644 Co 0.61357 0.25265 0.89266 0.0
O645 O 0.61487 0.2459 0.85636 0.0
O646 O 0.61287 0.21588 0.88614 0.0
C647 C 0.64518 0.28265 0.89352 0.0
O648 O 0.61282 0.25234 0.93199 0.0
Co649 Co 0.59751 0.30586 0.91199 0.0
O650 O 0.60873 0.29291 0.9459 0.0
C651 C 0.55811 0.27038 0.89259 0.0
C652 C 0.61378 0.22165 0.86184 0.0
C653 C 0.61244 0.26919 0.9502 0.0
O654 O 0.57528 0.25314 0.89103 0.0
O655 O 0.56329 0.29363 0.89899 0.0
O656 O 0.65023 0.25831 0.89383 0.0
O657 O 0.62143 0.28802 0.89009 0.0
Co658 Co 0.39705 0.75207 0.88976 0.0
O659 O 0.39583 0.75918 0.85326 0.0
O660 O 0.39834 0.78865 0.88373 0.0
C661 C 0.36493 0.72272 0.89028 0.0
O662 O 0.3976 0.75281 0.92912 0.0
Co663 Co 0.41093 0.69892 0.91074 0.0
O664 O 0.40051 0.71286 0.9446 0.0
C665 C 0.45179 0.73274 0.89109 0.0
C666 C 0.39692 0.78337 0.85934 0.0
C667 C 0.39765 0.73688 0.94803 0.0
O668 O 0.43536 0.75064 0.88843 0.0
O669 O 0.44557 0.70998 0.8981 0.0
O670 O 0.36031 0.74715 0.89061 0.0
O671 O 0.38858 0.71681 0.8873 0.0
C672 C 0.11483 0.31538 0.29931 0.0
C673 C 0.11675 0.34167 0.30568 0.0
C674 C 0.11666 0.29627 0.31818 0.0
C675 C 0.12057 0.3027 0.34413 0.0
H676 H 0.11183 0.30945 0.27957 0.0
H677 H 0.11488 0.27635 0.31236 0.0
S678 S 0.12792 0.36873 0.3708 0.0
N679 N 0.12328 0.37304 0.33978 0.0
N680 N 0.12707 0.33737 0.37509 0.0
C681 C 0.12276 0.32894 0.35071 0.0
C682 C 0.12074 0.34834 0.33155 0.0
C683 C 0.67916 0.11642 0.35104 0.0
C684 C 0.70456 0.11182 0.34398 0.0
C685 C 0.65967 0.11747 0.33249 0.0
C686 C 0.6648 0.11389 0.30617 0.0
H687 H 0.67434 0.11973 0.37098 0.0
H688 H 0.64052 0.12152 0.33883 0.0
S689 S 0.72772 0.09888 0.27783 0.0
N690 N 0.73338 0.10199 0.30885 0.0
N691 N 0.69701 0.10393 0.27429 0.0
C692 C 0.68998 0.10847 0.29899 0.0
C693 C 0.70976 0.10744 0.31779 0.0
C694 C 0.89357 0.70973 0.31983 0.0
C695 C 0.89168 0.70306 0.3459 0.0
C696 C 0.89471 0.69081 0.30061 0.0
C697 C 0.89403 0.66445 0.30669 0.0
H698 H 0.89421 0.72972 0.31418 0.0
H699 H 0.89612 0.69696 0.28081 0.0
S700 S 0.8888 0.63672 0.37207 0.0
N701 N 0.8888 0.66805 0.37674 0.0
N702 N 0.89121 0.63272 0.34074 0.0
C703 C 0.89217 0.65752 0.33269 0.0
C704 C 0.89091 0.67674 0.35224 0.0
C705 C 0.32368 0.89131 0.30267 0.0
C706 C 0.34955 0.89352 0.30937 0.0
C707 C 0.30455 0.89074 0.32137 0.0
C708 C 0.31024 0.89246 0.34778 0.0
H709 H 0.31801 0.88984 0.28271 0.0
H710 H 0.28501 0.88898 0.31488 0.0
S711 S 0.37497 0.89903 0.37579 0.0
N712 N 0.37992 0.8977 0.34449 0.0
N713 N 0.34383 0.8968 0.37969 0.0
C714 C 0.33602 0.89483 0.35488 0.0
C715 C 0.35566 0.89531 0.33571 0.0
C716 C 0.11529 0.66106 0.67941 0.0
C717 C 0.11289 0.66791 0.70549 0.0
C718 C 0.11607 0.67978 0.65999 0.0
C719 C 0.11441 0.7061 0.66586 0.0
H720 H 0.11678 0.64108 0.6739 0.0
H721 H 0.11813 0.67354 0.64025 0.0
S722 S 0.10684 0.7342 0.73106 0.0
N723 N 0.10813 0.70299 0.73599 0.0
N724 N 0.10953 0.73795 0.69974 0.0
C725 C 0.11163 0.71317 0.69184 0.0
C726 C 0.11089 0.69416 0.71157 0.0
C727 C 0.33189 0.11889 0.65919 0.0
C728 C 0.30583 0.11814 0.66558 0.0
C729 C 0.35083 0.11601 0.67794 0.0
C730 C 0.34454 0.11223 0.70391 0.0
H731 H 0.3378 0.12198 0.63951 0.0
H732 H 0.37057 0.11718 0.67204 0.0
S733 S 0.27906 0.10739 0.73063 0.0
N734 N 0.27474 0.1124 0.69966 0.0
N735 N 0.31017 0.10691 0.73489 0.0
C736 C 0.31852 0.11092 0.71051 0.0
C737 C 0.29923 0.11392 0.69139 0.0
C738 C 0.89977 0.29628 0.68973 0.0
C739 C 0.8974 0.3024 0.66349 0.0
C740 C 0.89912 0.31536 0.70885 0.0
C741 C 0.89605 0.34137 0.70252 0.0
H742 H 0.90197 0.27651 0.69563 0.0
H743 H 0.90087 0.30963 0.72874 0.0
S744 S 0.88933 0.36769 0.63658 0.0
N745 N 0.89223 0.33649 0.63223 0.0
N746 N 0.89082 0.37222 0.66792 0.0
C747 C 0.89392 0.34778 0.67631 0.0
C748 C 0.89465 0.32836 0.65688 0.0
C749 C 0.68217 0.88796 0.66109 0.0
C750 C 0.70805 0.88969 0.66812 0.0
C751 C 0.66277 0.88932 0.67941 0.0
C752 C 0.66836 0.89242 0.70561 0.0
H753 H 0.67669 0.88524 0.6412 0.0
H754 H 0.64324 0.88751 0.67293 0.0
S755 S 0.73299 0.89916 0.73416 0.0
N756 N 0.73821 0.89555 0.7031 0.0
N757 N 0.70177 0.89811 0.7377 0.0
C758 C 0.69415 0.89471 0.71296 0.0
C759 C 0.71398 0.89331 0.6942 0.0
C760 C 0.34761 0.11211 0.32972 0.0
C761 C 0.34159 0.10923 0.30355 0.0
C762 C 0.32853 0.11441 0.34833 0.0
C763 C 0.30255 0.11394 0.34163 0.0
H764 H 0.36727 0.11292 0.33595 0.0
H765 H 0.33432 0.11679 0.36817 0.0
S766 S 0.2764 0.10589 0.27584 0.0
N767 N 0.30756 0.10537 0.27191 0.0
N768 N 0.27177 0.10971 0.30696 0.0
C769 C 0.29617 0.11071 0.31558 0.0
C770 C 0.31565 0.10834 0.29655 0.0
C771 C 0.89624 0.33094 0.34599 0.0
C772 C 0.89843 0.3047 0.3399 0.0
C773 C 0.89581 0.3498 0.32666 0.0
C774 C 0.89764 0.3432 0.30046 0.0
H775 H 0.89455 0.33699 0.36582 0.0
H776 H 0.89378 0.36969 0.33234 0.0
S777 S 0.90521 0.27733 0.27426 0.0
N778 N 0.90349 0.2733 0.30562 0.0
N779 N 0.90274 0.3085 0.26962 0.0
C780 C 0.90037 0.31708 0.29417 0.0
C781 C 0.90074 0.29793 0.31377 0.0
C782 C 0.68281 0.89102 0.35082 0.0
C783 C 0.70881 0.89168 0.34419 0.0
C784 C 0.66374 0.89281 0.33214 0.0
C785 C 0.66982 0.89533 0.30601 0.0
H786 H 0.67699 0.88891 0.37066 0.0
H787 H 0.64406 0.89198 0.33829 0.0
S788 S 0.73505 0.89883 0.2785 0.0
N789 N 0.73966 0.89558 0.30968 0.0
N790 N 0.7039 0.89898 0.27445 0.0
C791 C 0.69578 0.89633 0.29908 0.0
C792 C 0.71524 0.89449 0.31818 0.0
C793 C 0.11478 0.65772 0.32637 0.0
C794 C 0.11362 0.66439 0.30019 0.0
C795 C 0.11416 0.67653 0.34579 0.0
C796 C 0.11244 0.7028 0.33985 0.0
H797 H 0.1164 0.63781 0.33197 0.0
H798 H 0.11535 0.67041 0.36561 0.0
S799 S 0.1077 0.73039 0.27428 0.0
N800 N 0.10981 0.69918 0.26945 0.0
N801 N 0.10869 0.73437 0.30572 0.0
C802 C 0.11085 0.70968 0.31374 0.0
C803 C 0.11142 0.69055 0.294 0.0
C804 C 0.32171 0.8967 0.7051 0.0
C805 C 0.34756 0.89775 0.69817 0.0
C806 C 0.30238 0.89629 0.68654 0.0
C807 C 0.30789 0.89696 0.66006 0.0
H808 H 0.31621 0.89605 0.72513 0.0
H809 H 0.28286 0.89545 0.69316 0.0
S810 S 0.37251 0.90015 0.63146 0.0
N811 N 0.3777 0.89967 0.66275 0.0
N812 N 0.34129 0.89899 0.62784 0.0
C813 C 0.33366 0.89816 0.65274 0.0
C814 C 0.35347 0.89853 0.67175 0.0
C815 C 0.11757 0.31949 0.71078 0.0
C816 C 0.12003 0.34569 0.70446 0.0
C817 C 0.11875 0.30029 0.69184 0.0
C818 C 0.12245 0.30655 0.66585 0.0
H819 H 0.11481 0.31369 0.73054 0.0
H820 H 0.11672 0.28042 0.69764 0.0
S821 S 0.1303 0.37233 0.6392 0.0
N822 N 0.12639 0.37683 0.67031 0.0
N823 N 0.12885 0.34097 0.63485 0.0
C824 C 0.12492 0.33271 0.65929 0.0
C825 C 0.12363 0.35221 0.67854 0.0
C826 C 0.67945 0.11076 0.65546 0.0
C827 C 0.70536 0.11185 0.66248 0.0
C828 C 0.66005 0.1104 0.67416 0.0
C829 C 0.66578 0.1111 0.7006 0.0
H830 H 0.67407 0.1101 0.63539 0.0
H831 H 0.64043 0.10955 0.6678 0.0
S832 S 0.73064 0.11423 0.72918 0.0
N833 N 0.73556 0.11377 0.69793 0.0
N834 N 0.69948 0.11306 0.7327 0.0
C835 C 0.69164 0.11221 0.70781 0.0
C836 C 0.71129 0.1126 0.68887 0.0
C837 C 0.89372 0.71021 0.69442 0.0
C838 C 0.88883 0.7043 0.66847 0.0
C839 C 0.89405 0.69084 0.71322 0.0
C840 C 0.88956 0.66491 0.70668 0.0
H841 H 0.89752 0.72987 0.70024 0.0
H842 H 0.89801 0.69623 0.73294 0.0
S843 S 0.87444 0.63949 0.64159 0.0
N844 N 0.87835 0.67066 0.63749 0.0
N845 N 0.8792 0.63458 0.67247 0.0
C846 C 0.88436 0.65886 0.68083 0.0
C847 C 0.88393 0.67846 0.66183 0.0
C848 C 0.30291 0.31643 0.1114 0.0
C849 C 0.30899 0.3428 0.11174 0.0
C850 C 0.32191 0.29785 0.11099 0.0
C851 C 0.34793 0.30471 0.11099 0.0
H852 H 0.28324 0.30993 0.11158 0.0
H853 H 0.316 0.27784 0.11094 0.0
S854 S 0.37423 0.37121 0.11116 0.0
N855 N 0.34308 0.37492 0.11152 0.0
N856 N 0.3788 0.33991 0.11086 0.0
C857 C 0.35438 0.33103 0.11103 0.0
C858 C 0.33494 0.35006 0.11137 0.0
C859 C 0.34971 0.67689 0.88782 0.0
C860 C 0.3443 0.70298 0.89189 0.0
C861 C 0.33031 0.65806 0.88777 0.0
C862 C 0.30472 0.66455 0.89185 0.0
H863 H 0.36905 0.67095 0.8842 0.0
H864 H 0.33543 0.6383 0.8842 0.0
S865 S 0.28058 0.72993 0.90512 0.0
N866 N 0.31152 0.73413 0.90131 0.0
N867 N 0.27519 0.69888 0.90125 0.0
C868 C 0.29913 0.69049 0.8966 0.0
C869 C 0.31886 0.70964 0.89661 0.0
C870 C 0.30139 0.31776 0.89999 0.0
C871 C 0.30737 0.34417 0.90045 0.0
C872 C 0.32048 0.29924 0.9 0.0
C873 C 0.34645 0.30624 0.90043 0.0
H874 H 0.28174 0.31122 0.89943 0.0
H875 H 0.3147 0.27921 0.89941 0.0
S876 S 0.37246 0.37286 0.90249 0.0
N877 N 0.3413 0.37642 0.90194 0.0
N878 N 0.37716 0.34159 0.9019 0.0
C879 C 0.35277 0.33259 0.90123 0.0
C880 C 0.33327 0.35152 0.90126 0.0
C881 C 0.66003 0.32849 0.88919 0.0
C882 C 0.66559 0.30271 0.89459 0.0
C883 C 0.67936 0.34739 0.88816 0.0
C884 C 0.70503 0.34128 0.89249 0.0
H885 H 0.64067 0.33408 0.88517 0.0
H886 H 0.67414 0.36687 0.88348 0.0
S887 S 0.72945 0.27705 0.90975 0.0
N888 N 0.69854 0.27243 0.90601 0.0
N889 N 0.73469 0.30781 0.90406 0.0
C890 C 0.71073 0.31574 0.89876 0.0
C891 C 0.69107 0.29652 0.89982 0.0
C892 C 0.67894 0.65789 0.89837 0.0
C893 C 0.70493 0.66469 0.89985 0.0
C894 C 0.65995 0.67662 0.89892 0.0
C895 C 0.66618 0.70293 0.90099 0.0
H896 H 0.67316 0.63794 0.89645 0.0
H897 H 0.64026 0.67041 0.8973 0.0
S898 S 0.73137 0.73086 0.90712 0.0
N899 N 0.73579 0.69966 0.90464 0.0
N900 N 0.7003 0.73468 0.9057 0.0
C901 C 0.69209 0.70994 0.90308 0.0
C902 C 0.71139 0.6909 0.9025 0.0
C903 C 0.68813 0.71043 0.11041 0.0
C904 C 0.66201 0.70394 0.11025 0.0
C905 C 0.70689 0.69163 0.11139 0.0
C906 C 0.70054 0.66533 0.1122 0.0
H907 H 0.69432 0.73034 0.11002 0.0
H908 H 0.72662 0.69792 0.11161 0.0
S909 S 0.63496 0.63776 0.11148 0.0
N910 N 0.63074 0.6691 0.11052 0.0
N911 N 0.66606 0.63365 0.11225 0.0
C912 C 0.6745 0.6584 0.1117 0.0
C913 C 0.65526 0.67769 0.11075 0.0
C914 C 0.32436 0.70551 0.11011 0.0
C915 C 0.3503 0.69936 0.11224 0.0
C916 C 0.30521 0.68661 0.11144 0.0
C917 C 0.31104 0.66063 0.11503 0.0
H918 H 0.31862 0.72522 0.10751 0.0
H919 H 0.28562 0.69257 0.1098 0.0
S920 S 0.37596 0.63402 0.12128 0.0
N921 N 0.38084 0.66519 0.1177 0.0
N922 N 0.3448 0.62957 0.12035 0.0
C923 C 0.33691 0.65404 0.11693 0.0
C924 C 0.35652 0.67339 0.11548 0.0
C925 C 0.70674 0.32113 0.11185 0.0
C926 C 0.70093 0.34735 0.11353 0.0
C927 C 0.68755 0.3022 0.11155 0.0
C928 C 0.66163 0.30857 0.11282 0.0
H929 H 0.72634 0.31504 0.11103 0.0
H930 H 0.69324 0.28233 0.11046 0.0
S931 S 0.63603 0.37452 0.11638 0.0
N932 N 0.66721 0.37881 0.11581 0.0
N933 N 0.63112 0.34317 0.11506 0.0
C934 C 0.65545 0.33475 0.11402 0.0
C935 C 0.67508 0.35412 0.11443 0.0
C936 C 0.61531 0.84475 0.8289 0.0
C937 C 0.61505 0.83833 0.80269 0.0
C938 C 0.61623 0.82574 0.8478 0.0
C939 C 0.61686 0.79947 0.84133 0.0
H940 H 0.61503 0.86465 0.83496 0.0
H941 H 0.61662 0.83183 0.8677 0.0
S942 S 0.61569 0.77229 0.77543 0.0
N943 N 0.61491 0.80365 0.77116 0.0
N944 N 0.61662 0.76798 0.80681 0.0
C945 C 0.61628 0.7927 0.81521 0.0
C946 C 0.61538 0.8121 0.79588 0.0
C947 C 0.20551 0.61226 0.82093 0.0
C948 C 0.19978 0.61288 0.84735 0.0
C949 C 0.18641 0.61342 0.80223 0.0
C950 C 0.16061 0.6153 0.80898 0.0
H951 H 0.22503 0.61103 0.81446 0.0
H952 H 0.19207 0.61306 0.78224 0.0
S953 S 0.13509 0.6169 0.87545 0.0
N954 N 0.1662 0.61493 0.87934 0.0
N955 N 0.13019 0.61718 0.84412 0.0
C956 C 0.15444 0.61558 0.83532 0.0
C957 C 0.17402 0.61435 0.85449 0.0
C958 C 0.39433 0.19214 0.79813 0.0
C959 C 0.39156 0.16595 0.80434 0.0
C960 C 0.39397 0.21125 0.81729 0.0
C961 C 0.3908 0.20489 0.84337 0.0
H962 H 0.39683 0.19795 0.77833 0.0
H963 H 0.39623 0.23113 0.81161 0.0
S964 S 0.38198 0.13913 0.86973 0.0
N965 N 0.38508 0.13479 0.83852 0.0
N966 N 0.38432 0.17041 0.87424 0.0
C967 C 0.38789 0.17876 0.84977 0.0
C968 C 0.3883 0.15939 0.83035 0.0
C969 C 0.85287 0.39396 0.83061 0.0
C970 C 0.84696 0.39554 0.80425 0.0
C971 C 0.8336 0.39375 0.84949 0.0
C972 C 0.80766 0.3951 0.84274 0.0
H973 H 0.8725 0.39263 0.83674 0.0
H974 H 0.83908 0.39229 0.86948 0.0
S975 S 0.78204 0.40077 0.77641 0.0
N976 N 0.81312 0.39938 0.77259 0.0
N977 N 0.77733 0.39897 0.80765 0.0
C978 C 0.8016 0.3971 0.81645 0.0
C979 C 0.8211 0.39732 0.79735 0.0
C980 C 0.61656 0.17913 0.16032 0.0
C981 C 0.61364 0.20532 0.16621 0.0
C982 C 0.61579 0.16031 0.17964 0.0
C983 C 0.61215 0.16694 0.20562 0.0
H984 H 0.61974 0.17311 0.14067 0.0
H985 H 0.61844 0.14045 0.17418 0.0
S986 S 0.60166 0.23265 0.23103 0.0
N987 N 0.60563 0.23669 0.19988 0.0
N988 N 0.60429 0.20154 0.23594 0.0
C989 C 0.60864 0.19301 0.21166 0.0
C990 C 0.60934 0.21211 0.19204 0.0
C991 C 0.81797 0.61332 0.21075 0.0
C992 C 0.8438 0.61616 0.20386 0.0
C993 C 0.79847 0.61461 0.1923 0.0
C994 C 0.80401 0.61882 0.16622 0.0
H995 H 0.81269 0.61029 0.23062 0.0
H996 H 0.77892 0.61241 0.19857 0.0
S997 S 0.86863 0.62738 0.13808 0.0
N998 N 0.87381 0.62309 0.169 0.0
N999 N 0.83746 0.62582 0.13451 0.0
C1000 C 0.82982 0.62152 0.15907 0.0
C1001 C 0.84961 0.62009 0.17782 0.0
C1002 C 0.39753 0.79706 0.18995 0.0
C1003 C 0.39504 0.80409 0.16394 0.0
C1004 C 0.3972 0.81548 0.20975 0.0
C1005 C 0.39443 0.84173 0.20439 0.0
H1006 H 0.3996 0.77709 0.19517 0.0
H1007 H 0.3991 0.80904 0.22941 0.0
S1008 S 0.3875 0.87035 0.13943 0.0
N1009 N 0.38997 0.83928 0.13395 0.0
N1010 N 0.38927 0.8738 0.17089 0.0
C1011 C 0.39212 0.84905 0.17841 0.0
C1012 C 0.39245 0.83028 0.15828 0.0
C1013 C 0.18227 0.38818 0.1613 0.0
C1014 C 0.20816 0.39022 0.16822 0.0
C1015 C 0.16293 0.38912 0.17976 0.0
C1016 C 0.16861 0.39212 0.20598 0.0
H1017 H 0.17678 0.38554 0.1414 0.0
H1018 H 0.14338 0.38711 0.17339 0.0
S1019 S 0.23329 0.39956 0.23423 0.0
N1020 N 0.2384 0.39624 0.20313 0.0
N1021 N 0.20211 0.39804 0.23791 0.0
C1022 C 0.19441 0.39471 0.21319 0.0
C1023 C 0.21415 0.39374 0.19431 0.0
C1024 C 0.79876 0.61041 0.81962 0.0
C1025 C 0.8051 0.61292 0.84575 0.0
C1026 C 0.81769 0.60883 0.80071 0.0
C1027 C 0.84374 0.60962 0.80716 0.0
H1028 H 0.77901 0.60991 0.81364 0.0
H1029 H 0.81177 0.60723 0.78083 0.0
S1030 S 0.87056 0.61553 0.87292 0.0
N1031 N 0.83946 0.61585 0.87712 0.0
N1032 N 0.87484 0.61261 0.84167 0.0
C1033 C 0.85035 0.61171 0.83325 0.0
C1034 C 0.8311 0.61344 0.85251 0.0
C1035 C 0.396 0.81634 0.79389 0.0
C1036 C 0.39416 0.84252 0.80023 0.0
C1037 C 0.39697 0.79738 0.81307 0.0
C1038 C 0.39623 0.80383 0.83939 0.0
H1039 H 0.3967 0.81039 0.77396 0.0
H1040 H 0.39835 0.7775 0.80716 0.0
S1041 S 0.39098 0.86961 0.86633 0.0
N1042 N 0.39118 0.87379 0.83495 0.0
N1043 N 0.39331 0.83838 0.87068 0.0
C1044 C 0.3944 0.82994 0.84598 0.0
C1045 C 0.39328 0.84919 0.82651 0.0
C1046 C 0.18063 0.391 0.85119 0.0
C1047 C 0.20664 0.39276 0.84471 0.0
C1048 C 0.16152 0.3929 0.83245 0.0
C1049 C 0.16764 0.39662 0.80645 0.0
H1050 H 0.17488 0.38789 0.87091 0.0
H1051 H 0.14184 0.39109 0.83839 0.0
S1052 S 0.23291 0.40363 0.77949 0.0
N1053 N 0.23745 0.39922 0.81051 0.0
N1054 N 0.20178 0.40285 0.77531 0.0
C1055 C 0.19361 0.39885 0.79976 0.0
C1056 C 0.21304 0.3969 0.81886 0.0
C1057 C 0.61689 0.15676 0.82787 0.0
C1058 C 0.61475 0.16327 0.80172 0.0
C1059 C 0.61626 0.17563 0.84723 0.0
C1060 C 0.6135 0.20178 0.84121 0.0
H1061 H 0.61939 0.13695 0.83347 0.0
H1062 H 0.61829 0.16969 0.86703 0.0
S1063 S 0.60525 0.22876 0.77578 0.0
N1064 N 0.60844 0.19766 0.77099 0.0
N1065 N 0.60727 0.23296 0.80713 0.0
C1066 C 0.61073 0.20844 0.81516 0.0
C1067 C 0.61134 0.18926 0.7955 0.0
C1068 C 0.82105 0.39208 0.20441 0.0
C1069 C 0.8469 0.39434 0.19766 0.0
C1070 C 0.8018 0.39258 0.18579 0.0
C1071 C 0.80746 0.39533 0.15951 0.0
H1072 H 0.81551 0.38989 0.22433 0.0
H1073 H 0.78225 0.39072 0.19216 0.0
S1074 S 0.87209 0.40271 0.13155 0.0
N1075 N 0.87715 0.39991 0.16271 0.0
N1076 N 0.84094 0.40081 0.1277 0.0
C1077 C 0.83323 0.39771 0.15241 0.0
C1078 C 0.85292 0.39723 0.17145 0.0
C1079 C 0.61496 0.81989 0.21063 0.0
C1080 C 0.61893 0.84601 0.20471 0.0
C1081 C 0.61569 0.80087 0.1915 0.0
C1082 C 0.62053 0.80723 0.16572 0.0
H1083 H 0.61133 0.81402 0.23024 0.0
H1084 H 0.61249 0.78105 0.19699 0.0
S1085 S 0.63254 0.87287 0.14017 0.0
N1086 N 0.62786 0.87722 0.17119 0.0
N1087 N 0.62966 0.84166 0.13538 0.0
C1088 C 0.6245 0.83332 0.15956 0.0
C1089 C 0.62357 0.85266 0.179 0.0
C1090 C 0.18976 0.6133 0.20505 0.0
C1091 C 0.16393 0.61244 0.19789 0.0
C1092 C 0.20921 0.6132 0.18667 0.0
C1093 C 0.20382 0.61224 0.16018 0.0
H1094 H 0.19516 0.61404 0.22512 0.0
H1095 H 0.22871 0.61386 0.19341 0.0
S1096 S 0.13932 0.60969 0.13103 0.0
N1097 N 0.13396 0.61057 0.16227 0.0
N1098 N 0.17056 0.61039 0.12768 0.0
C1099 C 0.17807 0.61141 0.15264 0.0
C1100 C 0.15816 0.61149 0.17146 0.0
C1101 C 0.39312 0.20802 0.19208 0.0
C1102 C 0.39029 0.20174 0.16591 0.0
C1103 C 0.39355 0.18886 0.21103 0.0
C1104 C 0.39128 0.16267 0.20452 0.0
H1105 H 0.39501 0.2279 0.19803 0.0
H1106 H 0.3957 0.19464 0.23092 0.0
S1107 S 0.38294 0.13598 0.13876 0.0
N1108 N 0.38472 0.16732 0.13459 0.0
N1109 N 0.3858 0.13153 0.16996 0.0
C1110 C 0.38846 0.15615 0.17841 0.0
C1111 C 0.38789 0.1756 0.15919 0.0
C1112 C 0.85219 0.8307 0.61492 0.0
C1113 C 0.84675 0.8049 0.60863 0.0
C1114 C 0.83296 0.84927 0.61488 0.0
C1115 C 0.80759 0.84268 0.60864 0.0
H1116 H 0.87126 0.83647 0.62063 0.0
H1117 H 0.83788 0.86875 0.62052 0.0
S1118 S 0.78405 0.77854 0.58738 0.0
N1119 N 0.81452 0.77439 0.59352 0.0
N1120 N 0.77866 0.80904 0.59366 0.0
C1121 C 0.80219 0.81722 0.60122 0.0
C1122 C 0.82168 0.79841 0.60115 0.0
C1123 C 0.85267 0.17739 0.3879 0.0
C1124 C 0.84714 0.20314 0.3937 0.0
C1125 C 0.83348 0.15829 0.38765 0.0
C1126 C 0.80799 0.16417 0.39319 0.0
H1127 H 0.87188 0.17199 0.38295 0.0
H1128 H 0.83861 0.13887 0.38255 0.0
S1129 S 0.78389 0.22817 0.41215 0.0
N1130 N 0.81454 0.23308 0.40693 0.0
N1131 N 0.77865 0.19737 0.40647 0.0
C1132 C 0.80239 0.18967 0.39993 0.0
C1133 C 0.8219 0.20908 0.40019 0.0
C1134 C 0.83183 0.84795 0.40105 0.0
C1135 C 0.80589 0.84147 0.40394 0.0
C1136 C 0.85066 0.82902 0.40116 0.0
C1137 C 0.84432 0.80284 0.40421 0.0
H1138 H 0.83766 0.86775 0.39816 0.0
H1139 H 0.87029 0.83497 0.39835 0.0
S1140 S 0.77934 0.77592 0.41477 0.0
N1141 N 0.77506 0.80706 0.41153 0.0
N1142 N 0.81025 0.77168 0.41178 0.0
C1143 C 0.81852 0.79621 0.40793 0.0
C1144 C 0.79938 0.81545 0.40778 0.0
C1145 C 0.1602 0.82845 0.3899 0.0
C1146 C 0.16563 0.80251 0.39471 0.0
C1147 C 0.17953 0.84736 0.38981 0.0
C1148 C 0.20508 0.84115 0.39465 0.0
H1149 H 0.14093 0.83417 0.38562 0.0
H1150 H 0.1744 0.86695 0.38554 0.0
S1151 S 0.22915 0.77635 0.41028 0.0
N1152 N 0.19832 0.77186 0.4058 0.0
N1153 N 0.23451 0.80729 0.40574 0.0
C1154 C 0.21065 0.81541 0.40028 0.0
C1155 C 0.19099 0.79615 0.40028 0.0
C1156 C 0.20973 0.18802 0.40111 0.0
C1157 C 0.20318 0.16172 0.40056 0.0
C1158 C 0.19105 0.207 0.40132 0.0
C1159 C 0.16493 0.20059 0.40098 0.0
H1160 H 0.22951 0.19413 0.40107 0.0
H1161 H 0.19724 0.22692 0.40142 0.0
S1162 S 0.13748 0.13449 0.40057 0.0
N1163 N 0.16855 0.13024 0.40048 0.0
N1164 N 0.13348 0.16587 0.40086 0.0
C1165 C 0.15805 0.17435 0.40093 0.0
C1166 C 0.17713 0.15496 0.40073 0.0
C1167 C 0.18118 0.16085 0.61137 0.0
C1168 C 0.20688 0.16754 0.60692 0.0
C1169 C 0.16208 0.17954 0.6117 0.0
C1170 C 0.16791 0.20566 0.60756 0.0
H1171 H 0.17579 0.14109 0.61519 0.0
H1172 H 0.14269 0.1735 0.61575 0.0
S1173 S 0.23195 0.23296 0.59266 0.0
N1174 N 0.2368 0.20202 0.59665 0.0
N1175 N 0.20119 0.23692 0.59716 0.0
C1176 C 0.19343 0.21244 0.60224 0.0
C1177 C 0.21282 0.19347 0.60195 0.0
C1178 C 0.80554 0.18601 0.6115 0.0
C1179 C 0.81095 0.15976 0.61372 0.0
C1180 C 0.82501 0.20462 0.61082 0.0
C1181 C 0.85084 0.19787 0.61227 0.0
H1182 H 0.78603 0.19237 0.61053 0.0
H1183 H 0.81964 0.22456 0.60934 0.0
S1184 S 0.87542 0.13164 0.61724 0.0
N1185 N 0.84419 0.12784 0.6167 0.0
N1186 N 0.88081 0.16288 0.61527 0.0
C1187 C 0.85662 0.17165 0.61402 0.0
C1188 C 0.8367 0.15261 0.61478 0.0
C1189 C 0.20691 0.82186 0.60994 0.0
C1190 C 0.20103 0.84783 0.61382 0.0
C1191 C 0.18782 0.80282 0.60917 0.0
C1192 C 0.16195 0.80888 0.61212 0.0
H1193 H 0.2265 0.81605 0.60776 0.0
H1194 H 0.19351 0.7831 0.60639 0.0
S1195 S 0.13617 0.87413 0.62193 0.0
N1196 N 0.16726 0.87872 0.62013 0.0
N1197 N 0.13139 0.84292 0.61844 0.0
C1198 C 0.15569 0.83483 0.61551 0.0
C1199 C 0.1752 0.85428 0.61645 0.0
C1200 C 0.09426 0.29114 0.49137 0.0
C1201 C 0.10929 0.27381 0.47751 0.0
C1202 C 0.09445 0.29172 0.51805 0.0
C1203 C 0.10965 0.27499 0.53233 0.0
H1204 H 0.08235 0.30478 0.48152 0.0
H1205 H 0.08269 0.30578 0.52756 0.0
S1206 S 0.15119 0.22453 0.50559 0.0
N1207 N 0.13879 0.23833 0.48002 0.0
N1208 N 0.13913 0.23941 0.53078 0.0
C1209 C 0.12394 0.25662 0.51893 0.0
C1210 C 0.12376 0.25603 0.49139 0.0
C1211 C 0.7556 0.10428 0.51623 0.0
C1212 C 0.77344 0.11896 0.53039 0.0
C1213 C 0.75563 0.10468 0.48913 0.0
C1214 C 0.77351 0.11978 0.47557 0.0
H1215 H 0.74293 0.09097 0.526 0.0
H1216 H 0.74298 0.09167 0.47883 0.0
S1217 S 0.82039 0.16554 0.50392 0.0
N1218 N 0.80664 0.15179 0.52895 0.0
N1219 N 0.80664 0.15262 0.47836 0.0
C1220 C 0.78969 0.13627 0.48965 0.0
C1221 C 0.78967 0.13584 0.517 0.0
C1222 C 0.91716 0.71474 0.49389 0.0
C1223 C 0.90301 0.7325 0.47969 0.0
C1224 C 0.91681 0.71463 0.52058 0.0
C1225 C 0.90233 0.7323 0.53457 0.0
H1226 H 0.9286 0.70046 0.48433 0.0
H1227 H 0.92796 0.70028 0.53033 0.0
S1228 S 0.86292 0.78392 0.50698 0.0
N1229 N 0.87488 0.76918 0.48165 0.0
N1230 N 0.87428 0.76898 0.5324 0.0
C1231 C 0.88881 0.75095 0.52086 0.0
C1232 C 0.88913 0.75105 0.49331 0.0
C1233 C 0.21421 0.91503 0.48953 0.0
C1234 C 0.23263 0.90116 0.47591 0.0
C1235 C 0.21387 0.91576 0.51628 0.0
C1236 C 0.23192 0.90268 0.53109 0.0
H1237 H 0.19953 0.92537 0.47944 0.0
H1238 H 0.19894 0.92664 0.5254 0.0
S1239 S 0.28536 0.8647 0.50515 0.0
N1240 N 0.27038 0.87493 0.47927 0.0
N1241 N 0.26975 0.87632 0.53007 0.0
C1242 C 0.25123 0.88953 0.5179 0.0
C1243 C 0.25158 0.88877 0.49025 0.0
C1244 C 0.10644 0.7273 0.50975 0.0
C1245 C 0.11465 0.74389 0.52965 0.0
C1246 C 0.10714 0.73498 0.48387 0.0
C1247 C 0.116 0.75959 0.47681 0.0
H1248 H 0.09865 0.70848 0.51419 0.0
H1249 H 0.09977 0.72185 0.46941 0.0
S1250 S 0.14306 0.80907 0.52096 0.0
N1251 N 0.13442 0.78523 0.53998 0.0
N1252 N 0.13556 0.79956 0.49162 0.0
C1253 C 0.12543 0.77589 0.49636 0.0
C1254 C 0.1248 0.76808 0.52265 0.0
C1255 C 0.26214 0.12374 0.48996 0.0
C1256 C 0.27485 0.10435 0.47636 0.0
C1257 C 0.26264 0.12448 0.51704 0.0
C1258 C 0.27589 0.10585 0.5311 0.0
H1259 H 0.25283 0.139 0.47965 0.0
H1260 H 0.25367 0.14027 0.52694 0.0
S1261 S 0.30775 0.0485 0.50447 0.0
N1262 N 0.29785 0.06431 0.47903 0.0
N1263 N 0.29878 0.06565 0.52948 0.0
C1264 C 0.28702 0.08548 0.51763 0.0
C1265 C 0.28651 0.08474 0.49036 0.0
C1266 C 0.90402 0.27785 0.50909 0.0
C1267 C 0.9 0.25998 0.52905 0.0
C1268 C 0.90312 0.27041 0.48311 0.0
C1269 C 0.89824 0.24474 0.47589 0.0
H1270 H 0.90847 0.29774 0.51349 0.0
H1271 H 0.90708 0.2848 0.46863 0.0
S1272 S 0.88396 0.19073 0.52041 0.0
N1273 N 0.88913 0.21561 0.53945 0.0
N1274 N 0.88744 0.20173 0.49093 0.0
C1275 C 0.89319 0.22685 0.4956 0.0
C1276 C 0.89406 0.23442 0.52202 0.0
C1277 C 0.70919 0.89301 0.49281 0.0
C1278 C 0.73195 0.8915 0.47873 0.0
C1279 C 0.70909 0.8924 0.5195 0.0
C1280 C 0.73174 0.89029 0.53374 0.0
H1281 H 0.69105 0.89529 0.48327 0.0
H1282 H 0.69086 0.8943 0.52896 0.0
S1283 S 0.79637 0.88225 0.50634 0.0
N1284 N 0.77775 0.88527 0.48098 0.0
N1285 N 0.77754 0.88419 0.53163 0.0
C1286 C 0.75464 0.88735 0.52003 0.0
C1287 C 0.75475 0.88794 0.49249 0.0
C1288 C 0.49829 0.12766 0.23619 0.0
C1289 C 0.47794 0.12085 0.2525 0.0
C1290 C 0.52361 0.12677 0.24453 0.0
C1291 C 0.5299 0.11898 0.26961 0.0
H1292 H 0.49475 0.13303 0.21643 0.0
H1293 H 0.53839 0.13158 0.23081 0.0
S1294 S 0.48362 0.10162 0.32089 0.0
N1295 N 0.46573 0.10792 0.29568 0.0
N1296 N 0.51328 0.10627 0.31142 0.0
C1297 C 0.50967 0.11346 0.28663 0.0
C1298 C 0.48377 0.11442 0.27809 0.0
C1299 C 0.90026 0.52388 0.26958 0.0
C1300 C 0.89229 0.53085 0.24477 0.0
C1301 C 0.90138 0.49802 0.277 0.0
C1302 C 0.89445 0.47799 0.25999 0.0
H1303 H 0.90668 0.53844 0.28309 0.0
H1304 H 0.90849 0.49375 0.29602 0.0
S1305 S 0.8687 0.48627 0.194 0.0
N1306 N 0.87494 0.51577 0.20404 0.0
N1307 N 0.87678 0.46734 0.21791 0.0
C1308 C 0.88511 0.48483 0.23556 0.0
C1309 C 0.8841 0.51116 0.22799 0.0
C1310 C 0.52058 0.9053 0.25756 0.0
C1311 C 0.53525 0.8853 0.24749 0.0
C1312 C 0.49385 0.90379 0.25719 0.0
C1313 C 0.48111 0.8823 0.24661 0.0
H1314 H 0.52972 0.92304 0.26374 0.0
H1315 H 0.48316 0.92043 0.26313 0.0
S1316 S 0.51103 0.82275 0.22315 0.0
N1317 N 0.53531 0.84191 0.23046 0.0
N1318 N 0.48508 0.83912 0.2296 0.0
C1319 C 0.49562 0.86131 0.2387 0.0
C1320 C 0.52274 0.8628 0.23918 0.0
C1321 C 0.11829 0.52207 0.23608 0.0
C1322 C 0.11537 0.52919 0.26202 0.0
C1323 C 0.11917 0.49625 0.22858 0.0
C1324 C 0.11727 0.4762 0.24661 0.0
H1325 H 0.11928 0.53653 0.2212 0.0
H1326 H 0.12085 0.49206 0.20827 0.0
S1327 S 0.11169 0.48427 0.31732 0.0
N1328 N 0.1123 0.51386 0.30608 0.0
N1329 N 0.11394 0.46539 0.29195 0.0
C1330 C 0.11542 0.48298 0.27277 0.0
C1331 C 0.11445 0.50939 0.28045 0.0
C1332 C 0.48766 0.89511 0.73238 0.0
C1333 C 0.4805 0.88447 0.75617 0.0
C1334 C 0.51322 0.89584 0.72451 0.0
C1335 C 0.53268 0.88588 0.74007 0.0
H1336 H 0.4736 0.90409 0.72027 0.0
H1337 H 0.51783 0.9053 0.70658 0.0
S1338 S 0.52334 0.85187 0.8021 0.0
N1339 N 0.49453 0.86094 0.79376 0.0
N1340 N 0.54238 0.86209 0.779 0.0
C1341 C 0.52549 0.8736 0.76311 0.0
C1342 C 0.4995 0.87296 0.77114 0.0
C1343 C 0.11495 0.48656 0.77216 0.0
C1344 C 0.11509 0.48008 0.74589 0.0
C1345 C 0.11416 0.51218 0.78037 0.0
C1346 C 0.11358 0.53263 0.76273 0.0
H1347 H 0.11478 0.47172 0.78669 0.0
H1348 H 0.11353 0.51586 0.80084 0.0
S1349 S 0.11595 0.52633 0.69164 0.0
N1350 N 0.11628 0.49648 0.70215 0.0
N1351 N 0.1148 0.54457 0.71756 0.0
C1352 C 0.11473 0.52652 0.73636 0.0
C1353 C 0.11546 0.50033 0.72797 0.0
C1354 C 0.49075 0.10831 0.7486 0.0
C1355 C 0.47849 0.12677 0.76385 0.0
C1356 C 0.51751 0.10681 0.74817 0.0
C1357 C 0.53265 0.12376 0.76297 0.0
H1358 H 0.47965 0.09354 0.73887 0.0
H1359 H 0.52622 0.09098 0.73809 0.0
S1360 S 0.50989 0.1788 0.80137 0.0
N1361 N 0.48361 0.16473 0.7906 0.0
N1362 N 0.53367 0.16192 0.7898 0.0
C1363 C 0.52064 0.14383 0.77605 0.0
C1364 C 0.49359 0.14534 0.77648 0.0
C1365 C 0.88392 0.51613 0.71235 0.0
C1366 C 0.89166 0.5303 0.73408 0.0
C1367 C 0.88454 0.48936 0.71205 0.0
C1368 C 0.893 0.4754 0.73345 0.0
H1369 H 0.8781 0.52583 0.69498 0.0
H1370 H 0.87913 0.47957 0.69445 0.0
S1371 S 0.91279 0.50312 0.79622 0.0
N1372 N 0.906 0.52835 0.77846 0.0
N1373 N 0.90724 0.47771 0.77788 0.0
C1374 C 0.89918 0.48915 0.75599 0.0
C1375 C 0.8985 0.51667 0.75631 0.0
C1376 C 0.24028 0.52098 0.11646 0.0
C1377 C 0.2664 0.52734 0.117 0.0
C1378 C 0.23174 0.49539 0.11723 0.0
C1379 C 0.2489 0.4749 0.11861 0.0
H1380 H 0.22616 0.53583 0.11479 0.0
H1381 H 0.21143 0.49173 0.11611 0.0
S1382 S 0.31932 0.48112 0.12312 0.0
N1383 N 0.3094 0.51094 0.1209 0.0
N1384 N 0.29338 0.46294 0.12234 0.0
C1385 C 0.27508 0.48099 0.12021 0.0
C1386 C 0.2838 0.50712 0.1194 0.0
C1387 C 0.23853 0.52248 0.89189 0.0
C1388 C 0.26461 0.52912 0.89181 0.0
C1389 C 0.23024 0.49681 0.89246 0.0
C1390 C 0.2476 0.47645 0.89292 0.0
H1391 H 0.22421 0.53723 0.89214 0.0
H1392 H 0.20994 0.49302 0.89304 0.0
S1393 S 0.31809 0.48315 0.89062 0.0
N1394 N 0.30785 0.51294 0.89055 0.0
N1395 N 0.29229 0.46476 0.89159 0.0
C1396 C 0.27377 0.48272 0.89186 0.0
C1397 C 0.28225 0.50896 0.89132 0.0
C1398 C 0.48552 0.27177 0.8926 0.0
C1399 C 0.47853 0.24634 0.88619 0.0
C1400 C 0.51117 0.27966 0.89369 0.0
C1401 C 0.53099 0.26248 0.88837 0.0
H1402 H 0.47113 0.2855 0.89789 0.0
H1403 H 0.51545 0.29919 0.89964 0.0
S1404 S 0.52286 0.19451 0.86753 0.0
N1405 N 0.49361 0.20462 0.87209 0.0
N1406 N 0.54156 0.21934 0.8741 0.0
C1407 C 0.52419 0.23737 0.8805 0.0
C1408 C 0.49809 0.22935 0.87942 0.0
C1409 C 0.77787 0.50936 0.88917 0.0
C1410 C 0.76052 0.52955 0.89194 0.0
C1411 C 0.76974 0.48366 0.88864 0.0
C1412 C 0.74383 0.4768 0.89091 0.0
H1413 H 0.79812 0.5133 0.88791 0.0
H1414 H 0.78412 0.46904 0.88707 0.0
S1415 S 0.69021 0.52235 0.8963 0.0
N1416 N 0.71587 0.54092 0.8953 0.0
N1417 N 0.70055 0.49265 0.89428 0.0
C1418 C 0.72608 0.49682 0.89261 0.0
C1419 C 0.73441 0.52312 0.89311 0.0
C1420 C 0.48623 0.76464 0.88016 0.0
C1421 C 0.47925 0.73951 0.88747 0.0
C1422 C 0.51174 0.77269 0.87946 0.0
C1423 C 0.5316 0.75604 0.88601 0.0
H1424 H 0.47185 0.77861 0.87561 0.0
H1425 H 0.51579 0.79248 0.8744 0.0
S1426 S 0.52402 0.68735 0.90381 0.0
N1427 N 0.49466 0.69727 0.89936 0.0
N1428 N 0.5426 0.71247 0.89807 0.0
C1429 C 0.52508 0.73042 0.89198 0.0
C1430 C 0.49897 0.72216 0.89272 0.0
C1431 C 0.73771 0.52648 0.11116 0.0
C1432 C 0.76263 0.53326 0.11871 0.0
C1433 C 0.7297 0.50071 0.10972 0.0
C1434 C 0.74625 0.48055 0.11584 0.0
H1435 H 0.72446 0.54112 0.10539 0.0
H1436 H 0.71055 0.49662 0.10303 0.0
S1437 S 0.81251 0.48816 0.14008 0.0
N1438 N 0.80312 0.51777 0.13474 0.0
N1439 N 0.78813 0.46945 0.13215 0.0
C1440 C 0.77088 0.48714 0.12464 0.0
C1441 C 0.77904 0.51341 0.12605 0.0
C1442 C 0.52054 0.75559 0.11224 0.0
C1443 C 0.53366 0.77638 0.1239 0.0
C1444 C 0.49366 0.75486 0.11108 0.0
C1445 C 0.47917 0.77493 0.12149 0.0
H1446 H 0.53104 0.74077 0.10242 0.0
H1447 H 0.48434 0.7395 0.10044 0.0
S1448 S 0.50416 0.83141 0.1576 0.0
N1449 N 0.52977 0.81562 0.14898 0.0
N1450 N 0.47985 0.81429 0.14664 0.0
C1451 C 0.49207 0.79453 0.13507 0.0
C1452 C 0.51914 0.79524 0.13633 0.0
C1453 C 0.51732 0.25563 0.11146 0.0
C1454 C 0.53167 0.2379 0.12553 0.0
C1455 C 0.49052 0.25529 0.11266 0.0
C1456 C 0.4774 0.23724 0.128 0.0
H1457 H 0.52669 0.26839 0.09794 0.0
H1458 H 0.48006 0.26774 0.09994 0.0
S1459 S 0.50659 0.1907 0.17262 0.0
N1460 N 0.53103 0.20477 0.15824 0.0
N1461 N 0.48097 0.20419 0.16059 0.0
C1462 C 0.49175 0.2213 0.14405 0.0
C1463 C 0.51882 0.2216 0.14278 0.0
C1464 C 0.60104 0.79796 0.01683 0.0
C1465 C 0.6124 0.77837 0.03117 0.0
C1466 C 0.60017 0.79713 0.99019 0.0
C1467 C 0.61063 0.77666 0.97625 0.0
H1468 H 0.5925 0.81429 0.02623 0.0
H1469 H 0.59102 0.81291 0.98052 0.0
S1470 S 0.64215 0.71994 0.00445 0.0
N1471 N 0.63396 0.73738 0.0296 0.0
N1472 N 0.6324 0.73578 0.97889 0.0
C1473 C 0.62169 0.75651 0.99021 0.0
C1474 C 0.62253 0.75736 0.01776 0.0
C1475 C 0.29539 0.63061 0.99005 0.0
C1476 C 0.27532 0.61899 0.97614 0.0
C1477 C 0.29608 0.62998 0.01687 0.0
C1478 C 0.27669 0.61778 0.0311 0.0
H1479 H 0.31141 0.63929 0.98008 0.0
H1480 H 0.31258 0.63821 0.02651 0.0
S1481 S 0.21833 0.58707 0.00424 0.0
N1482 N 0.23431 0.59696 0.97872 0.0
N1483 N 0.23555 0.59589 0.02941 0.0
C1484 C 0.25547 0.60784 0.01764 0.0
C1485 C 0.25479 0.60842 0.99009 0.0
C1486 C 0.38596 0.24847 0.0186 0.0
C1487 C 0.40504 0.23556 0.03225 0.0
C1488 C 0.38603 0.24889 0.9915 0.0
C1489 C 0.4052 0.23641 0.97754 0.0
H1490 H 0.37025 0.25703 0.02882 0.0
H1491 H 0.37039 0.25776 0.98149 0.0
S1492 S 0.46185 0.20447 0.00457 0.0
N1493 N 0.44526 0.21328 0.02992 0.0
N1494 N 0.44546 0.21411 0.97942 0.0
C1495 C 0.42529 0.22525 0.99115 0.0
C1496 C 0.42519 0.22481 0.01842 0.0
C1497 C 0.75545 0.40221 0.01553 0.0
C1498 C 0.73725 0.38793 0.02952 0.0
C1499 C 0.75596 0.40122 0.98846 0.0
C1500 C 0.73833 0.38585 0.97474 0.0
H1501 H 0.76804 0.41563 0.02538 0.0
H1502 H 0.76884 0.41398 0.97825 0.0
S1503 S 0.69077 0.34084 1.00276 0.0
N1504 N 0.70399 0.35516 0.02787 0.0
N1505 N 0.70508 0.35313 0.97731 0.0
C1506 C 0.72182 0.36972 0.98872 0.0
C1507 C 0.72122 0.37082 0.01605 0.0
C1508 C 0.60996 0.23498 0.98429 0.0
C1509 C 0.61468 0.26076 0.97748 0.0
C1510 C 0.60939 0.22724 0.01015 0.0
C1511 C 0.61363 0.2449 0.03034 0.0
H1512 H 0.60585 0.22076 0.9696 0.0
H1513 H 0.605 0.2073 0.01428 0.0
S1514 S 0.62934 0.31432 0.02274 0.0
N1515 N 0.62552 0.30363 0.99312 0.0
N1516 N 0.62452 0.28921 0.04138 0.0
C1517 C 0.61943 0.27056 0.02369 0.0
C1518 C 0.61993 0.27844 0.99742 0.0
C1519 C 0.7938 0.63087 0.01934 0.0
C1520 C 0.77268 0.62185 0.0334 0.0
C1521 C 0.79413 0.62983 0.99258 0.0
C1522 C 0.77331 0.61982 0.97866 0.0
H1523 H 0.81079 0.63776 0.02911 0.0
H1524 H 0.81132 0.63599 0.98278 0.0
S1525 S 0.71197 0.59692 0.00603 0.0
N1526 N 0.7293 0.60503 0.03135 0.0
N1527 N 0.72987 0.60321 0.98069 0.0
C1528 C 0.7512 0.6127 0.99226 0.0
C1529 C 0.75089 0.6137 0.01974 0.0
C1530 C 0.39573 0.72911 0.99568 0.0
C1531 C 0.39581 0.74661 0.97506 0.0
C1532 C 0.3959 0.73743 0.02134 0.0
C1533 C 0.39622 0.76372 0.02777 0.0
H1534 H 0.39596 0.70862 0.99208 0.0
H1535 H 0.39631 0.72298 0.03623 0.0
S1536 S 0.39472 0.81769 0.98118 0.0
N1537 N 0.39488 0.79169 0.96301 0.0
N1538 N 0.3952 0.80734 0.0111 0.0
C1539 C 0.3955 0.78151 0.00738 0.0
C1540 C 0.39528 0.77299 0.98115 0.0
C1541 C 0.21256 0.37946 0.01986 0.0
C1542 C 0.23448 0.38649 0.03388 0.0
C1543 C 0.21232 0.37993 0.99308 0.0
C1544 C 0.234 0.38742 0.97902 0.0
H1545 H 0.19502 0.37441 0.02965 0.0
H1546 H 0.19462 0.3752 0.98336 0.0
S1547 S 0.29727 0.40464 0.0063 0.0
N1548 N 0.27925 0.39886 0.03166 0.0
N1549 N 0.27881 0.3997 0.98102 0.0
C1550 C 0.25665 0.39271 0.99263 0.0
C1551 C 0.25689 0.39225 0.02013 0.0
C1552 C 0.00818 0.60991 0.78069 0.0
C1553 C 0.02823 0.61862 0.76485 0.0
C1554 C 0.98278 0.6105 0.77243 0.0
C1555 C 0.9763 0.61973 0.74794 0.0
H1556 H 0.01212 0.60173 0.79935 0.0
H1557 H 0.96822 0.60266 0.78499 0.0
S1558 S 0.02105 0.64834 0.70046 0.0
N1559 N 0.0394 0.63941 0.72447 0.0
N1560 N 0.99177 0.64031 0.70898 0.0
C1561 C 0.99597 0.62976 0.73242 0.0
C1562 C 0.02185 0.62927 0.74086 0.0
C1563 C 0.41995 0.99089 0.78811 0.0
C1564 C 0.40493 0.97666 0.77062 0.0
C1565 C 0.41944 0.01758 0.78891 0.0
C1566 C 0.40392 0.03167 0.77224 0.0
H1567 H 0.43218 0.98132 0.80172 0.0
H1568 H 0.43133 0.02723 0.80306 0.0
S1569 S 0.36214 1.00406 0.72138 0.0
N1570 N 0.37497 0.97873 0.73507 0.0
N1571 N 0.37407 0.02946 0.73652 0.0
C1572 C 0.38956 0.01794 0.75375 0.0
C1573 C 0.39005 0.99035 0.75294 0.0
C1574 C 0.02101 0.36942 0.72416 0.0
C1575 C 0.03454 0.38533 0.7414 0.0
C1576 C 0.99441 0.36899 0.72359 0.0
C1577 C 0.98013 0.38449 0.74021 0.0
H1578 H 0.03111 0.35843 0.70981 0.0
H1579 H 0.98495 0.35764 0.70886 0.0
S1580 S 0.00627 0.42716 0.79119 0.0
N1581 N 0.03172 0.41499 0.77735 0.0
N1582 N 0.98143 0.41421 0.77627 0.0
C1583 C 0.99329 0.39875 0.75914 0.0
C1584 C 0.02059 0.39917 0.75974 0.0
C1585 C 0.61791 0.99533 0.72959 0.0
C1586 C 0.61537 0.97517 0.74744 0.0
C1587 C 0.61711 0.02111 0.73723 0.0
C1588 C 0.61365 0.0281 0.76313 0.0
H1589 H 0.62012 0.99126 0.70931 0.0
H1590 H 0.6187 0.03565 0.72248 0.0
S1591 S 0.60787 0.98281 0.81798 0.0
N1592 N 0.61063 0.96407 0.79256 0.0
N1593 N 0.60914 0.01247 0.80698 0.0
C1594 C 0.61197 0.00816 0.78139 0.0
C1595 C 0.61285 0.98179 0.77356 0.0
C1596 C 1.00027 0.38911 0.27473 0.0
C1597 C 0.98044 0.39184 0.25675 0.0
C1598 C 0.02582 0.38856 0.2671 0.0
C1599 C 0.0329 0.39086 0.24111 0.0
H1600 H 0.99613 0.38786 0.29506 0.0
H1601 H 0.04017 0.38709 0.28196 0.0
S1602 S 0.98831 0.39619 0.18596 0.0
N1603 N 0.96965 0.39518 0.21141 0.0
N1604 N 0.01762 0.39421 0.19709 0.0
C1605 C 0.01323 0.39255 0.22275 0.0
C1606 C 0.98709 0.393 0.23055 0.0
C1607 C 0.60744 0.02514 0.24001 0.0
C1608 C 0.61582 0.03239 0.26469 0.0
C1609 C 0.60751 0.99937 0.23203 0.0
C1610 C 0.6161 0.97973 0.24834 0.0
H1611 H 0.59989 0.03934 0.22702 0.0
H1612 H 0.60007 0.99481 0.21314 0.0
S1613 S 0.64345 0.98918 0.31366 0.0
N1614 N 0.63526 0.01823 0.30452 0.0
N1615 N 0.63562 0.96995 0.28959 0.0
C1616 C 0.62576 0.98696 0.27264 0.0
C1617 C 0.62555 0.01319 0.28079 0.0
C1618 C 0.02314 0.60935 0.23375 0.0
C1619 C 0.03064 0.61702 0.2586 0.0
C1620 C 0.99743 0.60927 0.2263 0.0
C1621 C 0.9781 0.61697 0.24333 0.0
H1622 H 0.03709 0.60239 0.22021 0.0
H1623 H 0.99268 0.60231 0.20725 0.0
S1624 S 0.98818 0.64238 0.30943 0.0
N1625 N 0.01695 0.635 0.2994 0.0
N1626 N 0.96884 0.63502 0.28546 0.0
C1627 C 0.98556 0.62603 0.26779 0.0
C1628 C 0.01172 0.626 0.2754 0.0
C1629 C 0.38626 0.01495 0.25077 0.0
C1630 C 0.40638 0.02924 0.23972 0.0
C1631 C 0.38685 0.98787 0.25136 0.0
C1632 C 0.40761 0.97454 0.241 0.0
H1633 H 0.36947 0.02462 0.25766 0.0
H1634 H 0.37046 0.97733 0.25859 0.0
S1635 S 0.46692 1.00338 0.21464 0.0
N1636 N 0.44895 0.02817 0.22163 0.0
N1637 N 0.45003 0.97773 0.22276 0.0
C1638 C 0.42853 0.98881 0.23182 0.0
C1639 C 0.42793 0.01606 0.23118 0.0
C1640 C 0.78069 0.007 0.6104 0.0
C1641 C 0.76482 0.02735 0.6176 0.0
C1642 C 0.77239 0.98137 0.61209 0.0
C1643 C 0.74785 0.97497 0.62103 0.0
H1644 H 0.79945 0.01083 0.60259 0.0
H1645 H 0.78504 0.96655 0.60539 0.0
S1646 S 0.70016 0.02078 0.64585 0.0
N1647 N 0.72428 0.03913 0.63659 0.0
N1648 N 0.7087 0.99103 0.63968 0.0
C1649 C 0.73225 0.99504 0.62956 0.0
C1650 C 0.74071 0.02117 0.62786 0.0
C1651 C 0.78283 0.00915 0.39912 0.0
C1652 C 0.76744 0.02885 0.38946 0.0
C1653 C 0.7746 0.98338 0.39877 0.0
C1654 C 0.75062 0.97623 0.38878 0.0
H1655 H 0.80103 0.0137 0.40792 0.0
H1656 H 0.78672 0.96912 0.40739 0.0
S1657 S 0.70476 0.01982 0.35735 0.0
N1658 N 0.72826 0.03893 0.36689 0.0
N1659 N 0.71283 0.99067 0.36628 0.0
C1660 C 0.73568 0.99555 0.3777 0.0
C1661 C 0.74406 0.02176 0.37804 0.0
C1662 C 0.99827 0.73207 0.38177 0.0
C1663 C 0.97835 0.74886 0.38782 0.0
C1664 C 0.02377 0.74018 0.38254 0.0
C1665 C 0.03068 0.7655 0.38942 0.0
H1666 H 0.99427 0.71214 0.37713 0.0
H1667 H 0.0382 0.7261 0.37842 0.0
S1668 S 0.98574 0.81804 0.40417 0.0
N1669 N 0.96723 0.79274 0.3988 0.0
N1670 N 0.01514 0.80804 0.40021 0.0
C1671 C 0.0109 0.78297 0.39408 0.0
C1672 C 0.98481 0.77466 0.39326 0.0
C1673 C 0.23674 0.02219 0.39073 0.0
C1674 C 0.26175 0.02902 0.38354 0.0
C1675 C 0.22841 0.99647 0.39075 0.0
C1676 C 0.24473 0.97646 0.3836 0.0
H1677 H 0.22373 0.03667 0.39746 0.0
H1678 H 0.20933 0.99222 0.3975 0.0
S1679 S 0.31074 0.98431 0.35914 0.0
N1680 N 0.30183 0.01376 0.36615 0.0
N1681 N 0.28619 0.96558 0.36625 0.0
C1682 C 0.26928 0.98315 0.37484 0.0
C1683 C 0.27777 0.00934 0.37479 0.0
C1684 C 0.02677 0.23571 0.39342 0.0
C1685 C 0.03371 0.26062 0.38536 0.0
C1686 C 1.00118 0.22761 0.39413 0.0
C1687 C 0.9814 0.24404 0.38675 0.0
H1688 H 0.04109 0.22266 0.40033 0.0
H1689 H 0.9969 0.20861 0.40146 0.0
S1690 S 0.98968 0.30985 0.3603 0.0
N1691 N 0.01884 0.30068 0.36712 0.0
N1692 N 0.97093 0.28552 0.36835 0.0
C1693 C 0.98822 0.26846 0.37714 0.0
C1694 C 0.01427 0.27672 0.37648 0.0
C1695 C 0.2794 0.01309 0.62392 0.0
C1696 C 0.26253 0.03385 0.62318 0.0
C1697 C 0.27053 0.98763 0.62364 0.0
C1698 C 0.24434 0.98165 0.62262 0.0
H1699 H 0.29979 0.01639 0.62385 0.0
H1700 H 0.28451 0.97254 0.62341 0.0
S1701 S 0.19192 0.02885 0.6238 0.0
N1702 N 0.21815 0.04663 0.6239 0.0
N1703 N 0.20145 0.99882 0.62338 0.0
C1704 C 0.22714 1.0022 0.62339 0.0
C1705 C 0.23622 0.02822 0.62367 0.0
C1706 C 0.99634 0.24976 0.61073 0.0
C1707 C 0.98169 0.2668 0.62541 0.0
C1708 C 0.02315 0.25035 0.61221 0.0
C1709 C 0.03594 0.26796 0.62845 0.0
H1710 H 0.98723 0.23751 0.5965 0.0
H1711 H 0.03385 0.2386 0.59898 0.0
S1712 S 0.00586 0.31248 0.67469 0.0
N1713 N 0.98168 0.2987 0.65947 0.0
N1714 N 0.03173 0.29968 0.66242 0.0
C1715 C 0.02128 0.28304 0.64509 0.0
C1716 C 0.99421 0.28252 0.64351 0.0
C1717 C 0.01881 0.72158 0.64074 0.0
C1718 C 0.03184 0.73903 0.62476 0.0
C1719 C 0.99228 0.72166 0.64272 0.0
C1720 C 0.97755 0.73906 0.62862 0.0
H1721 H 0.02912 0.70677 0.65076 0.0
H1722 H 0.98313 0.70682 0.65412 0.0
S1723 S 1.00266 0.7909 0.58662 0.0
N1724 N 0.02835 0.77608 0.59681 0.0
N1725 N 0.97821 0.77607 0.60026 0.0
C1726 C 0.99043 0.75813 0.61435 0.0
C1727 C 0.01766 0.75812 0.61245 0.0
loop_
_geom_bond_atom_site_label_1
_geom_bond_atom_site_label_2
_geom_bond_distance
_geom_bond_site_symmetry_2
_ccdc_geom_bond_type
Co0 O1 2.216 . S
Co0 O2 2.091 . S
Co0 O4 2.004 . S
Co0 O10 2.021 . S
Co0 O12 2.137 . S
Co0 O13 2.244 . S
O1 Co0 2.216 . S
O1 C8 1.247 . S
O2 Co0 2.091 . S
O2 C8 1.261 . S
C3 O12 1.247 . S
C3 O13 1.272 . S
O4 Co0 2.004 . S
O4 C9 1.259 . S
Co5 O6 2.061 . S
Co5 O11 2.052 . S
Co5 O13 2.135 . S
O6 Co5 2.061 . S
O6 C9 1.235 . S
C7 O10 1.238 . S
C7 O11 1.241 . S
C8 O1 1.247 . S
C8 O2 1.261 . S
C9 O4 1.259 . S
C9 O6 1.235 . S
O10 Co0 2.021 . S
O10 C7 1.238 . S
O11 Co5 2.052 . S
O11 C7 1.241 . S
O12 Co0 2.137 . S
O12 C3 1.247 . S
O13 Co0 2.244 . S
O13 C3 1.272 . S
O13 Co5 2.135 . S
Co14 O15 2.216 . S
Co14 O16 2.091 . S
Co14 O18 2.004 . S
Co14 O24 2.021 . S
Co14 O26 2.137 . S
Co14 O27 2.244 . S
O15 Co14 2.216 . S
O15 C22 1.247 . S
O16 Co14 2.091 . S
O16 C22 1.261 . S
C17 O26 1.247 . S
C17 O27 1.272 . S
O18 Co14 2.004 . S
O18 C23 1.259 . S
Co19 O20 2.061 . S
Co19 O25 2.052 . S
Co19 O27 2.135 . S
O20 Co19 2.061 . S
O20 C23 1.235 . S
C21 O24 1.238 . S
C21 O25 1.241 . S
C22 O15 1.247 . S
C22 O16 1.261 . S
C23 O18 1.259 . S
C23 O20 1.235 . S
O24 Co14 2.021 . S
O24 C21 1.238 . S
O25 Co19 2.052 . S
O25 C21 1.241 . S
O26 Co14 2.137 . S
O26 C17 1.247 . S
O27 Co14 2.244 . S
O27 C17 1.272 . S
O27 Co19 2.135 . S
Co28 O29 2.216 . S
Co28 O30 2.091 . S
Co28 O32 2.004 . S
Co28 O38 2.021 . S
Co28 O40 2.137 . S
Co28 O41 2.244 . S
O29 Co28 2.216 . S
O29 C36 1.247 . S
O30 Co28 2.091 . S
O30 C36 1.261 . S
C31 O40 1.247 . S
C31 O41 1.272 . S
O32 Co28 2.004 . S
O32 C37 1.259 . S
Co33 O34 2.061 . S
Co33 O39 2.052 . S
Co33 O41 2.135 . S
O34 Co33 2.061 . S
O34 C37 1.235 . S
C35 O38 1.238 . S
C35 O39 1.241 . S
C36 O29 1.247 . S
C36 O30 1.261 . S
C37 O32 1.259 . S
C37 O34 1.235 . S
O38 Co28 2.021 . S
O38 C35 1.238 . S
O39 Co33 2.052 . S
O39 C35 1.241 . S
O40 Co28 2.137 . S
O40 C31 1.247 . S
O41 Co28 2.244 . S
O41 C31 1.272 . S
O41 Co33 2.135 . S
Co42 O43 2.216 . S
Co42 O44 2.091 . S
Co42 O46 2.004 . S
Co42 O52 2.021 . S
Co42 O54 2.137 . S
Co42 O55 2.244 . S
O43 Co42 2.216 . S
O43 C50 1.247 . S
O44 Co42 2.091 . S
O44 C50 1.261 . S
C45 O54 1.247 . S
C45 O55 1.272 . S
O46 Co42 2.004 . S
O46 C51 1.259 . S
Co47 O48 2.061 . S
Co47 O53 2.052 . S
Co47 O55 2.135 . S
O48 Co47 2.061 . S
O48 C51 1.235 . S
C49 O52 1.238 . S
C49 O53 1.241 . S
C50 O43 1.247 . S
C50 O44 1.261 . S
C51 O46 1.259 . S
C51 O48 1.235 . S
O52 Co42 2.021 . S
O52 C49 1.238 . S
O53 Co47 2.052 . S
O53 C49 1.241 . S
O54 Co42 2.137 . S
O54 C45 1.247 . S
O55 Co42 2.244 . S
O55 C45 1.272 . S
O55 Co47 2.135 . S
Co56 O57 2.216 . S
Co56 O58 2.091 . S
Co56 O60 2.004 . S
Co56 O66 2.021 . S
Co56 O68 2.137 . S
Co56 O69 2.244 . S
O57 Co56 2.216 . S
O57 C64 1.247 . S
O58 Co56 2.091 . S
O58 C64 1.261 . S
C59 O68 1.247 . S
C59 O69 1.272 . S
O60 Co56 2.004 . S
O60 C65 1.259 . S
Co61 O62 2.061 . S
Co61 O67 2.052 . S
Co61 O69 2.135 . S
O62 Co61 2.061 . S
O62 C65 1.235 . S
C63 O66 1.238 . S
C63 O67 1.241 . S
C64 O57 1.247 . S
C64 O58 1.261 . S
C65 O60 1.259 . S
C65 O62 1.235 . S
O66 Co56 2.021 . S
O66 C63 1.238 . S
O67 Co61 2.052 . S
O67 C63 1.241 . S
O68 Co56 2.137 . S
O68 C59 1.247 . S
O69 Co56 2.244 . S
O69 C59 1.272 . S
O69 Co61 2.135 . S
Co70 O71 2.216 . S
Co70 O72 2.091 . S
Co70 O74 2.004 . S
Co70 O80 2.021 . S
Co70 O82 2.137 . S
Co70 O83 2.244 . S
O71 Co70 2.216 . S
O71 C78 1.247 . S
O72 Co70 2.091 . S
O72 C78 1.261 . S
C73 O82 1.247 . S
C73 O83 1.272 . S
O74 Co70 2.004 . S
O74 C79 1.259 . S
Co75 O76 2.061 . S
Co75 O81 2.052 . S
Co75 O83 2.135 . S
O76 Co75 2.061 . S
O76 C79 1.235 . S
C77 O80 1.238 . S
C77 O81 1.241 . S
C78 O71 1.247 . S
C78 O72 1.261 . S
C79 O74 1.259 . S
C79 O76 1.235 . S
O80 Co70 2.021 . S
O80 C77 1.238 . S
O81 Co75 2.052 . S
O81 C77 1.241 . S
O82 Co70 2.137 . S
O82 C73 1.247 . S
O83 Co70 2.244 . S
O83 C73 1.272 . S
O83 Co75 2.135 . S
Co84 O85 2.216 . S
Co84 O86 2.091 . S
Co84 O88 2.004 . S
Co84 O94 2.021 . S
Co84 O96 2.137 . S
Co84 O97 2.244 . S
O85 Co84 2.216 . S
O85 C92 1.247 . S
O86 Co84 2.091 . S
O86 C92 1.261 . S
C87 O96 1.247 . S
C87 O97 1.272 . S
O88 Co84 2.004 . S
O88 C93 1.259 . S
Co89 O90 2.061 . S
Co89 O95 2.052 . S
Co89 O97 2.135 . S
O90 Co89 2.061 . S
O90 C93 1.235 . S
C91 O94 1.238 . S
C91 O95 1.241 . S
C92 O85 1.247 . S
C92 O86 1.261 . S
C93 O88 1.259 . S
C93 O90 1.235 . S
O94 Co84 2.021 . S
O94 C91 1.238 . S
O95 Co89 2.052 . S
O95 C91 1.241 . S
O96 Co84 2.137 . S
O96 C87 1.247 . S
O97 Co84 2.244 . S
O97 C87 1.272 . S
O97 Co89 2.135 . S
Co98 O99 2.216 . S
Co98 O100 2.091 . S
Co98 O102 2.004 . S
Co98 O108 2.021 . S
Co98 O110 2.137 . S
Co98 O111 2.244 . S
O99 Co98 2.216 . S
O99 C106 1.247 . S
O100 Co98 2.091 . S
O100 C106 1.261 . S
C101 O110 1.247 . S
C101 O111 1.272 . S
O102 Co98 2.004 . S
O102 C107 1.259 . S
Co103 O104 2.061 . S
Co103 O109 2.052 . S
Co103 O111 2.135 . S
O104 Co103 2.061 . S
O104 C107 1.235 . S
C105 O108 1.238 . S
C105 O109 1.241 . S
C106 O99 1.247 . S
C106 O100 1.261 . S
C107 O102 1.259 . S
C107 O104 1.235 . S
O108 Co98 2.021 . S
O108 C105 1.238 . S
O109 Co103 2.052 . S
O109 C105 1.241 . S
O110 Co98 2.137 . S
O110 C101 1.247 . S
O111 Co98 2.244 . S
O111 C101 1.272 . S
O111 Co103 2.135 . S
Co112 O113 2.216 . S
Co112 O114 2.091 . S
Co112 O116 2.004 . S
Co112 O122 2.021 . S
Co112 O124 2.137 . S
Co112 O125 2.244 . S
O113 Co112 2.216 . S
O113 C120 1.247 . S
O114 Co112 2.091 . S
O114 C120 1.261 . S
C115 O124 1.247 . S
C115 O125 1.272 . S
O116 Co112 2.004 . S
O116 C121 1.259 . S
Co117 O118 2.061 . S
Co117 O123 2.052 . S
Co117 O125 2.135 . S
O118 Co117 2.061 . S
O118 C121 1.235 . S
C119 O122 1.238 . S
C119 O123 1.241 . S
C120 O113 1.247 . S
C120 O114 1.261 . S
C121 O116 1.259 . S
C121 O118 1.235 . S
O122 Co112 2.021 . S
O122 C119 1.238 . S
O123 Co117 2.052 . S
O123 C119 1.241 . S
O124 Co112 2.137 . S
O124 C115 1.247 . S
O125 Co112 2.244 . S
O125 C115 1.272 . S
O125 Co117 2.135 . S
Co126 O127 2.216 . S
Co126 O128 2.091 . S
Co126 O130 2.004 . S
Co126 O136 2.021 . S
Co126 O138 2.137 . S
Co126 O139 2.244 . S
O127 Co126 2.216 . S
O127 C134 1.247 . S
O128 Co126 2.091 . S
O128 C134 1.261 . S
C129 O138 1.247 . S
C129 O139 1.272 . S
O130 Co126 2.004 . S
O130 C135 1.259 . S
Co131 O132 2.061 . S
Co131 O137 2.052 . S
Co131 O139 2.135 . S
O132 Co131 2.061 . S
O132 C135 1.235 . S
C133 O136 1.238 . S
C133 O137 1.241 . S
C134 O127 1.247 . S
C134 O128 1.261 . S
C135 O130 1.259 . S
C135 O132 1.235 . S
O136 Co126 2.021 . S
O136 C133 1.238 . S
O137 Co131 2.052 . S
O137 C133 1.241 . S
O138 Co126 2.137 . S
O138 C129 1.247 . S
O139 Co126 2.244 . S
O139 C129 1.272 . S
O139 Co131 2.135 . S
Co140 O141 2.216 . S
Co140 O142 2.091 . S
Co140 O144 2.004 . S
Co140 O150 2.021 . S
Co140 O152 2.137 . S
Co140 O153 2.244 . S
O141 Co140 2.216 . S
O141 C148 1.247 . S
O142 Co140 2.091 . S
O142 C148 1.261 . S
C143 O152 1.247 . S
C143 O153 1.272 . S
O144 Co140 2.004 . S
O144 C149 1.259 . S
Co145 O146 2.061 . S
Co145 O151 2.052 . S
Co145 O153 2.135 . S
O146 Co145 2.061 . S
O146 C149 1.235 . S
C147 O150 1.238 . S
C147 O151 1.241 . S
C148 O141 1.247 . S
C148 O142 1.261 . S
C149 O144 1.259 . S
C149 O146 1.235 . S
O150 Co140 2.021 . S
O150 C147 1.238 . S
O151 Co145 2.052 . S
O151 C147 1.241 . S
O152 Co140 2.137 . S
O152 C143 1.247 . S
O153 Co140 2.244 . S
O153 C143 1.272 . S
O153 Co145 2.135 . S
Co154 O155 2.216 . S
Co154 O156 2.091 . S
Co154 O158 2.004 . S
Co154 O164 2.021 . S
Co154 O166 2.137 . S
Co154 O167 2.244 . S
O155 Co154 2.216 . S
O155 C162 1.247 . S
O156 Co154 2.091 . S
O156 C162 1.261 . S
C157 O166 1.247 . S
C157 O167 1.272 . S
O158 Co154 2.004 . S
O158 C163 1.259 . S
Co159 O160 2.061 . S
Co159 O165 2.052 . S
Co159 O167 2.135 . S
O160 Co159 2.061 . S
O160 C163 1.235 . S
C161 O164 1.238 . S
C161 O165 1.241 . S
C162 O155 1.247 . S
C162 O156 1.261 . S
C163 O158 1.259 . S
C163 O160 1.235 . S
O164 Co154 2.021 . S
O164 C161 1.238 . S
O165 Co159 2.052 . S
O165 C161 1.241 . S
O166 Co154 2.137 . S
O166 C157 1.247 . S
O167 Co154 2.244 . S
O167 C157 1.272 . S
O167 Co159 2.135 . S
Co168 O169 2.216 . S
Co168 O170 2.091 . S
Co168 O172 2.004 . S
Co168 O178 2.021 . S
Co168 O180 2.137 . S
Co168 O181 2.244 . S
O169 Co168 2.216 . S
O169 C176 1.247 . S
O170 Co168 2.091 . S
O170 C176 1.261 . S
C171 O180 1.247 . S
C171 O181 1.272 . S
O172 Co168 2.004 . S
O172 C177 1.259 . S
Co173 O174 2.061 . S
Co173 O179 2.052 . S
Co173 O181 2.135 . S
O174 Co173 2.061 . S
O174 C177 1.235 . S
C175 O178 1.238 . S
C175 O179 1.241 . S
C176 O169 1.247 . S
C176 O170 1.261 . S
C177 O172 1.259 . S
C177 O174 1.235 . S
O178 Co168 2.021 . S
O178 C175 1.238 . S
O179 Co173 2.052 . S
O179 C175 1.241 . S
O180 Co168 2.137 . S
O180 C171 1.247 . S
O181 Co168 2.244 . S
O181 C171 1.272 . S
O181 Co173 2.135 . S
Co182 O183 2.216 . S
Co182 O184 2.091 . S
Co182 O186 2.004 . S
Co182 O192 2.021 . S
Co182 O194 2.137 . S
Co182 O195 2.244 . S
O183 Co182 2.216 . S
O183 C190 1.247 . S
O184 Co182 2.091 . S
O184 C190 1.261 . S
C185 O194 1.247 . S
C185 O195 1.272 . S
O186 Co182 2.004 . S
O186 C191 1.259 . S
Co187 O188 2.061 . S
Co187 O193 2.052 . S
Co187 O195 2.135 . S
O188 Co187 2.061 . S
O188 C191 1.235 . S
C189 O192 1.238 . S
C189 O193 1.241 . S
C190 O183 1.247 . S
C190 O184 1.261 . S
C191 O186 1.259 . S
C191 O188 1.235 . S
O192 Co182 2.021 . S
O192 C189 1.238 . S
O193 Co187 2.052 . S
O193 C189 1.241 . S
O194 Co182 2.137 . S
O194 C185 1.247 . S
O195 Co182 2.244 . S
O195 C185 1.272 . S
O195 Co187 2.135 . S
Co196 O197 2.216 . S
Co196 O198 2.091 . S
Co196 O200 2.004 . S
Co196 O206 2.021 . S
Co196 O208 2.137 . S
Co196 O209 2.244 . S
O197 Co196 2.216 . S
O197 C204 1.247 . S
O198 Co196 2.091 . S
O198 C204 1.261 . S
C199 O208 1.247 . S
C199 O209 1.272 . S
O200 Co196 2.004 . S
O200 C205 1.259 . S
Co201 O202 2.061 . S
Co201 O207 2.052 . S
Co201 O209 2.135 . S
O202 Co201 2.061 . S
O202 C205 1.235 . S
C203 O206 1.238 . S
C203 O207 1.241 . S
C204 O197 1.247 . S
C204 O198 1.261 . S
C205 O200 1.259 . S
C205 O202 1.235 . S
O206 Co196 2.021 . S
O206 C203 1.238 . S
O207 Co201 2.052 . S
O207 C203 1.241 . S
O208 Co196 2.137 . S
O208 C199 1.247 . S
O209 Co196 2.244 . S
O209 C199 1.272 . S
O209 Co201 2.135 . S
Co210 O211 2.216 . S
Co210 O212 2.091 . S
Co210 O214 2.004 . S
Co210 O220 2.021 . S
Co210 O222 2.137 . S
Co210 O223 2.244 . S
O211 Co210 2.216 . S
O211 C218 1.247 . S
O212 Co210 2.091 . S
O212 C218 1.261 . S
C213 O222 1.247 . S
C213 O223 1.272 . S
O214 Co210 2.004 . S
O214 C219 1.259 . S
Co215 O216 2.061 . S
Co215 O221 2.052 . S
Co215 O223 2.135 . S
O216 Co215 2.061 . S
O216 C219 1.235 . S
C217 O220 1.238 . S
C217 O221 1.241 . S
C218 O211 1.247 . S
C218 O212 1.261 . S
C219 O214 1.259 . S
C219 O216 1.235 . S
O220 Co210 2.021 . S
O220 C217 1.238 . S
O221 Co215 2.052 . S
O221 C217 1.241 . S
O222 Co210 2.137 . S
O222 C213 1.247 . S
O223 Co210 2.244 . S
O223 C213 1.272 . S
O223 Co215 2.135 . S
Co224 O225 2.216 . S
Co224 O226 2.091 . S
Co224 O228 2.004 . S
Co224 O234 2.021 . S
Co224 O236 2.137 . S
Co224 O237 2.244 . S
O225 Co224 2.216 . S
O225 C232 1.247 . S
O226 Co224 2.091 . S
O226 C232 1.261 . S
C227 O236 1.247 . S
C227 O237 1.272 . S
O228 Co224 2.004 . S
O228 C233 1.259 . S
Co229 O230 2.061 . S
Co229 O235 2.052 . S
Co229 O237 2.135 . S
O230 Co229 2.061 . S
O230 C233 1.235 . S
C231 O234 1.238 . S
C231 O235 1.241 . S
C232 O225 1.247 . S
C232 O226 1.261 . S
C233 O228 1.259 . S
C233 O230 1.235 . S
O234 Co224 2.021 . S
O234 C231 1.238 . S
O235 Co229 2.052 . S
O235 C231 1.241 . S
O236 Co224 2.137 . S
O236 C227 1.247 . S
O237 Co224 2.244 . S
O237 C227 1.272 . S
O237 Co229 2.135 . S
Co238 O239 2.216 . S
Co238 O240 2.091 . S
Co238 O242 2.004 . S
Co238 O248 2.021 . S
Co238 O250 2.137 . S
Co238 O251 2.244 . S
O239 Co238 2.216 . S
O239 C246 1.247 . S
O240 Co238 2.091 . S
O240 C246 1.261 . S
C241 O250 1.247 . S
C241 O251 1.272 . S
O242 Co238 2.004 . S
O242 C247 1.259 . S
Co243 O244 2.061 . S
Co243 O249 2.052 . S
Co243 O251 2.135 . S
O244 Co243 2.061 . S
O244 C247 1.235 . S
C245 O248 1.238 . S
C245 O249 1.241 . S
C246 O239 1.247 . S
C246 O240 1.261 . S
C247 O242 1.259 . S
C247 O244 1.235 . S
O248 Co238 2.021 . S
O248 C245 1.238 . S
O249 Co243 2.052 . S
O249 C245 1.241 . S
O250 Co238 2.137 . S
O250 C241 1.247 . S
O251 Co238 2.244 . S
O251 C241 1.272 . S
O251 Co243 2.135 . S
Co252 O253 2.216 . S
Co252 O254 2.091 . S
Co252 O256 2.004 . S
Co252 O262 2.021 . S
Co252 O264 2.137 . S
Co252 O265 2.244 . S
O253 Co252 2.216 . S
O253 C260 1.247 . S
O254 Co252 2.091 . S
O254 C260 1.261 . S
C255 O264 1.247 . S
C255 O265 1.272 . S
O256 Co252 2.004 . S
O256 C261 1.259 . S
Co257 O258 2.061 . S
Co257 O263 2.052 . S
Co257 O265 2.135 . S
O258 Co257 2.061 . S
O258 C261 1.235 . S
C259 O262 1.238 . S
C259 O263 1.241 . S
C260 O253 1.247 . S
C260 O254 1.261 . S
C261 O256 1.259 . S
C261 O258 1.235 . S
O262 Co252 2.021 . S
O262 C259 1.238 . S
O263 Co257 2.052 . S
O263 C259 1.241 . S
O264 Co252 2.137 . S
O264 C255 1.247 . S
O265 Co252 2.244 . S
O265 C255 1.272 . S
O265 Co257 2.135 . S
Co266 O267 2.216 . S
Co266 O268 2.091 . S
Co266 O270 2.004 . S
Co266 O276 2.021 . S
Co266 O278 2.137 . S
Co266 O279 2.244 . S
O267 Co266 2.216 . S
O267 C274 1.247 . S
O268 Co266 2.091 . S
O268 C274 1.261 . S
C269 O278 1.247 . S
C269 O279 1.272 . S
O270 Co266 2.004 . S
O270 C275 1.259 . S
Co271 O272 2.061 . S
Co271 O277 2.052 . S
Co271 O279 2.135 . S
O272 Co271 2.061 . S
O272 C275 1.235 . S
C273 O276 1.238 . S
C273 O277 1.241 . S
C274 O267 1.247 . S
C274 O268 1.261 . S
C275 O270 1.259 . S
C275 O272 1.235 . S
O276 Co266 2.021 . S
O276 C273 1.238 . S
O277 Co271 2.052 . S
O277 C273 1.241 . S
O278 Co266 2.137 . S
O278 C269 1.247 . S
O279 Co266 2.244 . S
O279 C269 1.272 . S
O279 Co271 2.135 . S
Co280 O281 2.216 . S
Co280 O282 2.091 . S
Co280 O284 2.004 . S
Co280 O290 2.021 . S
Co280 O292 2.137 . S
Co280 O293 2.244 . S
O281 Co280 2.216 . S
O281 C288 1.247 . S
O282 Co280 2.091 . S
O282 C288 1.261 . S
C283 O292 1.247 . S
C283 O293 1.272 . S
O284 Co280 2.004 . S
O284 C289 1.259 . S
Co285 O286 2.061 . S
Co285 O291 2.052 . S
Co285 O293 2.135 . S
O286 Co285 2.061 . S
O286 C289 1.235 . S
C287 O290 1.238 . S
C287 O291 1.241 . S
C288 O281 1.247 . S
C288 O282 1.261 . S
C289 O284 1.259 . S
C289 O286 1.235 . S
O290 Co280 2.021 . S
O290 C287 1.238 . S
O291 Co285 2.052 . S
O291 C287 1.241 . S
O292 Co280 2.137 . S
O292 C283 1.247 . S
O293 Co280 2.244 . S
O293 C283 1.272 . S
O293 Co285 2.135 . S
Co294 O295 2.216 . S
Co294 O296 2.091 . S
Co294 O298 2.004 . S
Co294 O304 2.021 . S
Co294 O306 2.137 . S
Co294 O307 2.244 . S
O295 Co294 2.216 . S
O295 C302 1.247 . S
O296 Co294 2.091 . S
O296 C302 1.261 . S
C297 O306 1.247 . S
C297 O307 1.272 . S
O298 Co294 2.004 . S
O298 C303 1.259 . S
Co299 O300 2.061 . S
Co299 O305 2.052 . S
Co299 O307 2.135 . S
O300 Co299 2.061 . S
O300 C303 1.235 . S
C301 O304 1.238 . S
C301 O305 1.241 . S
C302 O295 1.247 . S
C302 O296 1.261 . S
C303 O298 1.259 . S
C303 O300 1.235 . S
O304 Co294 2.021 . S
O304 C301 1.238 . S
O305 Co299 2.052 . S
O305 C301 1.241 . S
O306 Co294 2.137 . S
O306 C297 1.247 . S
O307 Co294 2.244 . S
O307 C297 1.272 . S
O307 Co299 2.135 . S
Co308 O309 2.216 . S
Co308 O310 2.091 . S
Co308 O312 2.004 . S
Co308 O318 2.021 . S
Co308 O320 2.137 . S
Co308 O321 2.244 . S
O309 Co308 2.216 . S
O309 C316 1.247 . S
O310 Co308 2.091 . S
O310 C316 1.261 . S
C311 O320 1.247 . S
C311 O321 1.272 . S
O312 Co308 2.004 . S
O312 C317 1.259 . S
Co313 O314 2.061 . S
Co313 O319 2.052 . S
Co313 O321 2.135 . S
O314 Co313 2.061 . S
O314 C317 1.235 . S
C315 O318 1.238 . S
C315 O319 1.241 . S
C316 O309 1.247 . S
C316 O310 1.261 . S
C317 O312 1.259 . S
C317 O314 1.235 . S
O318 Co308 2.021 . S
O318 C315 1.238 . S
O319 Co313 2.052 . S
O319 C315 1.241 . S
O320 Co308 2.137 . S
O320 C311 1.247 . S
O321 Co308 2.244 . S
O321 C311 1.272 . S
O321 Co313 2.135 . S
Co322 O323 2.216 . S
Co322 O324 2.091 . S
Co322 O326 2.004 . S
Co322 O332 2.021 . S
Co322 O334 2.137 . S
Co322 O335 2.244 . S
O323 Co322 2.216 . S
O323 C330 1.247 . S
O324 Co322 2.091 . S
O324 C330 1.261 . S
C325 O334 1.247 . S
C325 O335 1.272 . S
O326 Co322 2.004 . S
O326 C331 1.259 . S
Co327 O328 2.061 . S
Co327 O333 2.052 . S
Co327 O335 2.135 . S
O328 Co327 2.061 . S
O328 C331 1.235 . S
C329 O332 1.238 . S
C329 O333 1.241 . S
C330 O323 1.247 . S
C330 O324 1.261 . S
C331 O326 1.259 . S
C331 O328 1.235 . S
O332 Co322 2.021 . S
O332 C329 1.238 . S
O333 Co327 2.052 . S
O333 C329 1.241 . S
O334 Co322 2.137 . S
O334 C325 1.247 . S
O335 Co322 2.244 . S
O335 C325 1.272 . S
O335 Co327 2.135 . S
Co336 O337 2.216 . S
Co336 O338 2.091 . S
Co336 O340 2.004 . S
Co336 O346 2.021 . S
Co336 O348 2.137 . S
Co336 O349 2.244 . S
O337 Co336 2.216 . S
O337 C344 1.247 . S
O338 Co336 2.091 . S
O338 C344 1.261 . S
C339 O348 1.247 . S
C339 O349 1.272 . S
O340 Co336 2.004 . S
O340 C345 1.259 . S
Co341 O342 2.061 . S
Co341 O347 2.052 . S
Co341 O349 2.135 . S
O342 Co341 2.061 . S
O342 C345 1.235 . S
C343 O346 1.238 . S
C343 O347 1.241 . S
C344 O337 1.247 . S
C344 O338 1.261 . S
C345 O340 1.259 . S
C345 O342 1.235 . S
O346 Co336 2.021 . S
O346 C343 1.238 . S
O347 Co341 2.052 . S
O347 C343 1.241 . S
O348 Co336 2.137 . S
O348 C339 1.247 . S
O349 Co336 2.244 . S
O349 C339 1.272 . S
O349 Co341 2.135 . S
Co350 O351 2.216 . S
Co350 O352 2.091 . S
Co350 O354 2.004 . S
Co350 O360 2.021 . S
Co350 O362 2.137 . S
Co350 O363 2.244 . S
O351 Co350 2.216 . S
O351 C358 1.247 . S
O352 Co350 2.091 . S
O352 C358 1.261 . S
C353 O362 1.247 . S
C353 O363 1.272 . S
O354 Co350 2.004 . S
O354 C359 1.259 . S
Co355 O356 2.061 . S
Co355 O361 2.052 . S
Co355 O363 2.135 . S
O356 Co355 2.061 . S
O356 C359 1.235 . S
C357 O360 1.238 . S
C357 O361 1.241 . S
C358 O351 1.247 . S
C358 O352 1.261 . S
C359 O354 1.259 . S
C359 O356 1.235 . S
O360 Co350 2.021 . S
O360 C357 1.238 . S
O361 Co355 2.052 . S
O361 C357 1.241 . S
O362 Co350 2.137 . S
O362 C353 1.247 . S
O363 Co350 2.244 . S
O363 C353 1.272 . S
O363 Co355 2.135 . S
Co364 O365 2.216 . S
Co364 O366 2.091 . S
Co364 O368 2.004 . S
Co364 O374 2.021 . S
Co364 O376 2.137 . S
Co364 O377 2.244 . S
O365 Co364 2.216 . S
O365 C372 1.247 . S
O366 Co364 2.091 . S
O366 C372 1.261 . S
C367 O376 1.247 . S
C367 O377 1.272 . S
O368 Co364 2.004 . S
O368 C373 1.259 . S
Co369 O370 2.061 . S
Co369 O375 2.052 . S
Co369 O377 2.135 . S
O370 Co369 2.061 . S
O370 C373 1.235 . S
C371 O374 1.238 . S
C371 O375 1.241 . S
C372 O365 1.247 . S
C372 O366 1.261 . S
C373 O368 1.259 . S
C373 O370 1.235 . S
O374 Co364 2.021 . S
O374 C371 1.238 . S
O375 Co369 2.052 . S
O375 C371 1.241 . S
O376 Co364 2.137 . S
O376 C367 1.247 . S
O377 Co364 2.244 . S
O377 C367 1.272 . S
O377 Co369 2.135 . S
Co378 O379 2.216 . S
Co378 O380 2.091 . S
Co378 O382 2.004 . S
Co378 O388 2.021 . S
Co378 O390 2.137 . S
Co378 O391 2.244 . S
O379 Co378 2.216 . S
O379 C386 1.247 . S
O380 Co378 2.091 . S
O380 C386 1.261 . S
C381 O390 1.247 . S
C381 O391 1.272 . S
O382 Co378 2.004 . S
O382 C387 1.259 . S
Co383 O384 2.061 . S
Co383 O389 2.052 . S
Co383 O391 2.135 . S
O384 Co383 2.061 . S
O384 C387 1.235 . S
C385 O388 1.238 . S
C385 O389 1.241 . S
C386 O379 1.247 . S
C386 O380 1.261 . S
C387 O382 1.259 . S
C387 O384 1.235 . S
O388 Co378 2.021 . S
O388 C385 1.238 . S
O389 Co383 2.052 . S
O389 C385 1.241 . S
O390 Co378 2.137 . S
O390 C381 1.247 . S
O391 Co378 2.244 . S
O391 C381 1.272 . S
O391 Co383 2.135 . S
Co392 O393 2.216 . S
Co392 O394 2.091 . S
Co392 O396 2.004 . S
Co392 O402 2.021 . S
Co392 O404 2.137 . S
Co392 O405 2.244 . S
O393 Co392 2.216 . S
O393 C400 1.247 . S
O394 Co392 2.091 . S
O394 C400 1.261 . S
C395 O404 1.247 . S
C395 O405 1.272 . S
O396 Co392 2.004 . S
O396 C401 1.259 . S
Co397 O398 2.061 . S
Co397 O403 2.052 . S
Co397 O405 2.135 . S
O398 Co397 2.061 . S
O398 C401 1.235 . S
C399 O402 1.238 . S
C399 O403 1.241 . S
C400 O393 1.247 . S
C400 O394 1.261 . S
C401 O396 1.259 . S
C401 O398 1.235 . S
O402 Co392 2.021 . S
O402 C399 1.238 . S
O403 Co397 2.052 . S
O403 C399 1.241 . S
O404 Co392 2.137 . S
O404 C395 1.247 . S
O405 Co392 2.244 . S
O405 C395 1.272 . S
O405 Co397 2.135 . S
Co406 O407 2.216 . S
Co406 O408 2.091 . S
Co406 O410 2.004 . S
Co406 O416 2.021 . S
Co406 O418 2.137 . S
Co406 O419 2.244 . S
O407 Co406 2.216 . S
O407 C414 1.247 . S
O408 Co406 2.091 . S
O408 C414 1.261 . S
C409 O418 1.247 . S
C409 O419 1.272 . S
O410 Co406 2.004 . S
O410 C415 1.259 . S
Co411 O412 2.061 . S
Co411 O417 2.052 . S
Co411 O419 2.135 . S
O412 Co411 2.061 . S
O412 C415 1.235 . S
C413 O416 1.238 . S
C413 O417 1.241 . S
C414 O407 1.247 . S
C414 O408 1.261 . S
C415 O410 1.259 . S
C415 O412 1.235 . S
O416 Co406 2.021 . S
O416 C413 1.238 . S
O417 Co411 2.052 . S
O417 C413 1.241 . S
O418 Co406 2.137 . S
O418 C409 1.247 . S
O419 Co406 2.244 . S
O419 C409 1.272 . S
O419 Co411 2.135 . S
Co420 O421 2.216 . S
Co420 O422 2.091 . S
Co420 O424 2.004 . S
Co420 O430 2.021 . S
Co420 O432 2.137 . S
Co420 O433 2.244 . S
O421 Co420 2.216 . S
O421 C428 1.247 . S
O422 Co420 2.091 . S
O422 C428 1.261 . S
C423 O432 1.247 . S
C423 O433 1.272 . S
O424 Co420 2.004 . S
O424 C429 1.259 . S
Co425 O426 2.061 . S
Co425 O431 2.052 . S
Co425 O433 2.135 . S
O426 Co425 2.061 . S
O426 C429 1.235 . S
C427 O430 1.238 . S
C427 O431 1.241 . S
C428 O421 1.247 . S
C428 O422 1.261 . S
C429 O424 1.259 . S
C429 O426 1.235 . S
O430 Co420 2.021 . S
O430 C427 1.238 . S
O431 Co425 2.052 . S
O431 C427 1.241 . S
O432 Co420 2.137 . S
O432 C423 1.247 . S
O433 Co420 2.244 . S
O433 C423 1.272 . S
O433 Co425 2.135 . S
Co434 O435 2.216 . S
Co434 O436 2.091 . S
Co434 O438 2.004 . S
Co434 O444 2.021 . S
Co434 O446 2.137 . S
Co434 O447 2.244 . S
O435 Co434 2.216 . S
O435 C442 1.247 . S
O436 Co434 2.091 . S
O436 C442 1.261 . S
C437 O446 1.247 . S
C437 O447 1.272 . S
O438 Co434 2.004 . S
O438 C443 1.259 . S
Co439 O440 2.061 . S
Co439 O445 2.052 . S
Co439 O447 2.135 . S
O440 Co439 2.061 . S
O440 C443 1.235 . S
C441 O444 1.238 . S
C441 O445 1.241 . S
C442 O435 1.247 . S
C442 O436 1.261 . S
C443 O438 1.259 . S
C443 O440 1.235 . S
O444 Co434 2.021 . S
O444 C441 1.238 . S
O445 Co439 2.052 . S
O445 C441 1.241 . S
O446 Co434 2.137 . S
O446 C437 1.247 . S
O447 Co434 2.244 . S
O447 C437 1.272 . S
O447 Co439 2.135 . S
Co448 O449 2.216 . S
Co448 O450 2.091 . S
Co448 O452 2.004 . S
Co448 O458 2.021 . S
Co448 O460 2.137 . S
Co448 O461 2.244 . S
O449 Co448 2.216 . S
O449 C456 1.247 . S
O450 Co448 2.091 . S
O450 C456 1.261 . S
C451 O460 1.247 . S
C451 O461 1.272 . S
O452 Co448 2.004 . S
O452 C457 1.259 . S
Co453 O454 2.061 . S
Co453 O459 2.052 . S
Co453 O461 2.135 . S
O454 Co453 2.061 . S
O454 C457 1.235 . S
C455 O458 1.238 . S
C455 O459 1.241 . S
C456 O449 1.247 . S
C456 O450 1.261 . S
C457 O452 1.259 . S
C457 O454 1.235 . S
O458 Co448 2.021 . S
O458 C455 1.238 . S
O459 Co453 2.052 . S
O459 C455 1.241 . S
O460 Co448 2.137 . S
O460 C451 1.247 . S
O461 Co448 2.244 . S
O461 C451 1.272 . S
O461 Co453 2.135 . S
Co462 O463 2.216 . S
Co462 O464 2.091 . S
Co462 O466 2.004 . S
Co462 O472 2.021 . S
Co462 O474 2.137 . S
Co462 O475 2.244 . S
O463 Co462 2.216 . S
O463 C470 1.247 . S
O464 Co462 2.091 . S
O464 C470 1.261 . S
C465 O474 1.247 . S
C465 O475 1.272 . S
O466 Co462 2.004 . S
O466 C471 1.259 . S
Co467 O468 2.061 . S
Co467 O473 2.052 . S
Co467 O475 2.135 . S
O468 Co467 2.061 . S
O468 C471 1.235 . S
C469 O472 1.238 . S
C469 O473 1.241 . S
C470 O463 1.247 . S
C470 O464 1.261 . S
C471 O466 1.259 . S
C471 O468 1.235 . S
O472 Co462 2.021 . S
O472 C469 1.238 . S
O473 Co467 2.052 . S
O473 C469 1.241 . S
O474 Co462 2.137 . S
O474 C465 1.247 . S
O475 Co462 2.244 . S
O475 C465 1.272 . S
O475 Co467 2.135 . S
Co476 O477 2.216 . S
Co476 O478 2.091 . S
Co476 O480 2.004 . S
Co476 O486 2.021 . S
Co476 O488 2.137 . S
Co476 O489 2.244 . S
O477 Co476 2.216 . S
O477 C484 1.247 . S
O478 Co476 2.091 . S
O478 C484 1.261 . S
C479 O488 1.247 . S
C479 O489 1.272 . S
O480 Co476 2.004 . S
O480 C485 1.259 . S
Co481 O482 2.061 . S
Co481 O487 2.052 . S
Co481 O489 2.135 . S
O482 Co481 2.061 . S
O482 C485 1.235 . S
C483 O486 1.238 . S
C483 O487 1.241 . S
C484 O477 1.247 . S
C484 O478 1.261 . S
C485 O480 1.259 . S
C485 O482 1.235 . S
O486 Co476 2.021 . S
O486 C483 1.238 . S
O487 Co481 2.052 . S
O487 C483 1.241 . S
O488 Co476 2.137 . S
O488 C479 1.247 . S
O489 Co476 2.244 . S
O489 C479 1.272 . S
O489 Co481 2.135 . S
Co490 O491 2.216 . S
Co490 O492 2.091 . S
Co490 O494 2.004 . S
Co490 O500 2.021 . S
Co490 O502 2.137 . S
Co490 O503 2.244 . S
O491 Co490 2.216 . S
O491 C498 1.247 . S
O492 Co490 2.091 . S
O492 C498 1.261 . S
C493 O502 1.247 . S
C493 O503 1.272 . S
O494 Co490 2.004 . S
O494 C499 1.259 . S
Co495 O496 2.061 . S
Co495 O501 2.052 . S
Co495 O503 2.135 . S
O496 Co495 2.061 . S
O496 C499 1.235 . S
C497 O500 1.238 . S
C497 O501 1.241 . S
C498 O491 1.247 . S
C498 O492 1.261 . S
C499 O494 1.259 . S
C499 O496 1.235 . S
O500 Co490 2.021 . S
O500 C497 1.238 . S
O501 Co495 2.052 . S
O501 C497 1.241 . S
O502 Co490 2.137 . S
O502 C493 1.247 . S
O503 Co490 2.244 . S
O503 C493 1.272 . S
O503 Co495 2.135 . S
Co504 O505 2.216 . S
Co504 O506 2.091 . S
Co504 O508 2.004 . S
Co504 O514 2.021 . S
Co504 O516 2.137 . S
Co504 O517 2.244 . S
O505 Co504 2.216 . S
O505 C512 1.247 . S
O506 Co504 2.091 . S
O506 C512 1.261 . S
C507 O516 1.247 . S
C507 O517 1.272 . S
O508 Co504 2.004 . S
O508 C513 1.259 . S
Co509 O510 2.061 . S
Co509 O515 2.052 . S
Co509 O517 2.135 . S
O510 Co509 2.061 . S
O510 C513 1.235 . S
C511 O514 1.238 . S
C511 O515 1.241 . S
C512 O505 1.247 . S
C512 O506 1.261 . S
C513 O508 1.259 . S
C513 O510 1.235 . S
O514 Co504 2.021 . S
O514 C511 1.238 . S
O515 Co509 2.052 . S
O515 C511 1.241 . S
O516 Co504 2.137 . S
O516 C507 1.247 . S
O517 Co504 2.244 . S
O517 C507 1.272 . S
O517 Co509 2.135 . S
Co518 O519 2.216 . S
Co518 O520 2.091 . S
Co518 O522 2.004 . S
Co518 O528 2.021 . S
Co518 O530 2.137 . S
Co518 O531 2.244 . S
O519 Co518 2.216 . S
O519 C526 1.247 . S
O520 Co518 2.091 . S
O520 C526 1.261 . S
C521 O530 1.247 . S
C521 O531 1.272 . S
O522 Co518 2.004 . S
O522 C527 1.259 . S
Co523 O524 2.061 . S
Co523 O529 2.052 . S
Co523 O531 2.135 . S
O524 Co523 2.061 . S
O524 C527 1.235 . S
C525 O528 1.238 . S
C525 O529 1.241 . S
C526 O519 1.247 . S
C526 O520 1.261 . S
C527 O522 1.259 . S
C527 O524 1.235 . S
O528 Co518 2.021 . S
O528 C525 1.238 . S
O529 Co523 2.052 . S
O529 C525 1.241 . S
O530 Co518 2.137 . S
O530 C521 1.247 . S
O531 Co518 2.244 . S
O531 C521 1.272 . S
O531 Co523 2.135 . S
Co532 O533 2.216 . S
Co532 O534 2.091 . S
Co532 O536 2.004 . S
Co532 O542 2.021 . S
Co532 O544 2.137 . S
Co532 O545 2.244 . S
O533 Co532 2.216 . S
O533 C540 1.247 . S
O534 Co532 2.091 . S
O534 C540 1.261 . S
C535 O544 1.247 . S
C535 O545 1.272 . S
O536 Co532 2.004 . S
O536 C541 1.259 . S
Co537 O538 2.061 . S
Co537 O543 2.052 . S
Co537 O545 2.135 . S
O538 Co537 2.061 . S
O538 C541 1.235 . S
C539 O542 1.238 . S
C539 O543 1.241 . S
C540 O533 1.247 . S
C540 O534 1.261 . S
C541 O536 1.259 . S
C541 O538 1.235 . S
O542 Co532 2.021 . S
O542 C539 1.238 . S
O543 Co537 2.052 . S
O543 C539 1.241 . S
O544 Co532 2.137 . S
O544 C535 1.247 . S
O545 Co532 2.244 . S
O545 C535 1.272 . S
O545 Co537 2.135 . S
Co546 O547 2.216 . S
Co546 O548 2.091 . S
Co546 O550 2.004 . S
Co546 O556 2.021 . S
Co546 O558 2.137 . S
Co546 O559 2.244 . S
O547 Co546 2.216 . S
O547 C554 1.247 . S
O548 Co546 2.091 . S
O548 C554 1.261 . S
C549 O558 1.247 . S
C549 O559 1.272 . S
O550 Co546 2.004 . S
O550 C555 1.259 . S
Co551 O552 2.061 . S
Co551 O557 2.052 . S
Co551 O559 2.135 . S
O552 Co551 2.061 . S
O552 C555 1.235 . S
C553 O556 1.238 . S
C553 O557 1.241 . S
C554 O547 1.247 . S
C554 O548 1.261 . S
C555 O550 1.259 . S
C555 O552 1.235 . S
O556 Co546 2.021 . S
O556 C553 1.238 . S
O557 Co551 2.052 . S
O557 C553 1.241 . S
O558 Co546 2.137 . S
O558 C549 1.247 . S
O559 Co546 2.244 . S
O559 C549 1.272 . S
O559 Co551 2.135 . S
Co560 O561 2.216 . S
Co560 O562 2.091 . S
Co560 O564 2.004 . S
Co560 O570 2.021 . S
Co560 O572 2.137 . S
Co560 O573 2.244 . S
O561 Co560 2.216 . S
O561 C568 1.247 . S
O562 Co560 2.091 . S
O562 C568 1.261 . S
C563 O572 1.247 . S
C563 O573 1.272 . S
O564 Co560 2.004 . S
O564 C569 1.259 . S
Co565 O566 2.061 . S
Co565 O571 2.052 . S
Co565 O573 2.135 . S
O566 Co565 2.061 . S
O566 C569 1.235 . S
C567 O570 1.238 . S
C567 O571 1.241 . S
C568 O561 1.247 . S
C568 O562 1.261 . S
C569 O564 1.259 . S
C569 O566 1.235 . S
O570 Co560 2.021 . S
O570 C567 1.238 . S
O571 Co565 2.052 . S
O571 C567 1.241 . S
O572 Co560 2.137 . S
O572 C563 1.247 . S
O573 Co560 2.244 . S
O573 C563 1.272 . S
O573 Co565 2.135 . S
Co574 O575 2.216 . S
Co574 O576 2.091 . S
Co574 O578 2.004 . S
Co574 O584 2.021 . S
Co574 O586 2.137 . S
Co574 O587 2.244 . S
O575 Co574 2.216 . S
O575 C582 1.247 . S
O576 Co574 2.091 . S
O576 C582 1.261 . S
C577 O586 1.247 . S
C577 O587 1.272 . S
O578 Co574 2.004 . S
O578 C583 1.259 . S
Co579 O580 2.061 . S
Co579 O585 2.052 . S
Co579 O587 2.135 . S
O580 Co579 2.061 . S
O580 C583 1.235 . S
C581 O584 1.238 . S
C581 O585 1.241 . S
C582 O575 1.247 . S
C582 O576 1.261 . S
C583 O578 1.259 . S
C583 O580 1.235 . S
O584 Co574 2.021 . S
O584 C581 1.238 . S
O585 Co579 2.052 . S
O585 C581 1.241 . S
O586 Co574 2.137 . S
O586 C577 1.247 . S
O587 Co574 2.244 . S
O587 C577 1.272 . S
O587 Co579 2.135 . S
Co588 O589 2.216 . S
Co588 O590 2.091 . S
Co588 O592 2.004 . S
Co588 O598 2.021 . S
Co588 O600 2.137 . S
Co588 O601 2.244 . S
O589 Co588 2.216 . S
O589 C596 1.247 . S
O590 Co588 2.091 . S
O590 C596 1.261 . S
C591 O600 1.247 . S
C591 O601 1.272 . S
O592 Co588 2.004 . S
O592 C597 1.259 . S
Co593 O594 2.061 . S
Co593 O599 2.052 . S
Co593 O601 2.135 . S
O594 Co593 2.061 . S
O594 C597 1.235 . S
C595 O598 1.238 . S
C595 O599 1.241 . S
C596 O589 1.247 . S
C596 O590 1.261 . S
C597 O592 1.259 . S
C597 O594 1.235 . S
O598 Co588 2.021 . S
O598 C595 1.238 . S
O599 Co593 2.052 . S
O599 C595 1.241 . S
O600 Co588 2.137 . S
O600 C591 1.247 . S
O601 Co588 2.244 . S
O601 C591 1.272 . S
O601 Co593 2.135 . S
Co602 O603 2.216 . S
Co602 O604 2.091 . S
Co602 O606 2.004 . S
Co602 O612 2.021 . S
Co602 O614 2.137 . S
Co602 O615 2.244 . S
O603 Co602 2.216 . S
O603 C610 1.247 . S
O604 Co602 2.091 . S
O604 C610 1.261 . S
C605 O614 1.247 . S
C605 O615 1.272 . S
O606 Co602 2.004 . S
O606 C611 1.259 . S
Co607 O608 2.061 . S
Co607 O613 2.052 . S
Co607 O615 2.135 . S
O608 Co607 2.061 . S
O608 C611 1.235 . S
C609 O612 1.238 . S
C609 O613 1.241 . S
C610 O603 1.247 . S
C610 O604 1.261 . S
C611 O606 1.259 . S
C611 O608 1.235 . S
O612 Co602 2.021 . S
O612 C609 1.238 . S
O613 Co607 2.052 . S
O613 C609 1.241 . S
O614 Co602 2.137 . S
O614 C605 1.247 . S
O615 Co602 2.244 . S
O615 C605 1.272 . S
O615 Co607 2.135 . S
Co616 O617 2.216 . S
Co616 O618 2.091 . S
Co616 O620 2.004 . S
Co616 O626 2.021 . S
Co616 O628 2.137 . S
Co616 O629 2.244 . S
O617 Co616 2.216 . S
O617 C624 1.247 . S
O618 Co616 2.091 . S
O618 C624 1.261 . S
C619 O628 1.247 . S
C619 O629 1.272 . S
O620 Co616 2.004 . S
O620 C625 1.259 . S
Co621 O622 2.061 . S
Co621 O627 2.052 . S
Co621 O629 2.135 . S
O622 Co621 2.061 . S
O622 C625 1.235 . S
C623 O626 1.238 . S
C623 O627 1.241 . S
C624 O617 1.247 . S
C624 O618 1.261 . S
C625 O620 1.259 . S
C625 O622 1.235 . S
O626 Co616 2.021 . S
O626 C623 1.238 . S
O627 Co621 2.052 . S
O627 C623 1.241 . S
O628 Co616 2.137 . S
O628 C619 1.247 . S
O629 Co616 2.244 . S
O629 C619 1.272 . S
O629 Co621 2.135 . S
Co630 O631 2.216 . S
Co630 O632 2.091 . S
Co630 O634 2.004 . S
Co630 O640 2.021 . S
Co630 O642 2.137 . S
Co630 O643 2.244 . S
O631 Co630 2.216 . S
O631 C638 1.247 . S
O632 Co630 2.091 . S
O632 C638 1.261 . S
C633 O642 1.247 . S
C633 O643 1.272 . S
O634 Co630 2.004 . S
O634 C639 1.259 . S
Co635 O636 2.061 . S
Co635 O641 2.052 . S
Co635 O643 2.135 . S
O636 Co635 2.061 . S
O636 C639 1.235 . S
C637 O640 1.238 . S
C637 O641 1.241 . S
C638 O631 1.247 . S
C638 O632 1.261 . S
C639 O634 1.259 . S
C639 O636 1.235 . S
O640 Co630 2.021 . S
O640 C637 1.238 . S
O641 Co635 2.052 . S
O641 C637 1.241 . S
O642 Co630 2.137 . S
O642 C633 1.247 . S
O643 Co630 2.244 . S
O643 C633 1.272 . S
O643 Co635 2.135 . S
Co644 O645 2.216 . S
Co644 O646 2.091 . S
Co644 O648 2.004 . S
Co644 O654 2.021 . S
Co644 O656 2.137 . S
Co644 O657 2.244 . S
O645 Co644 2.216 . S
O645 C652 1.247 . S
O646 Co644 2.091 . S
O646 C652 1.261 . S
C647 O656 1.247 . S
C647 O657 1.272 . S
O648 Co644 2.004 . S
O648 C653 1.259 . S
Co649 O650 2.061 . S
Co649 O655 2.052 . S
Co649 O657 2.135 . S
O650 Co649 2.061 . S
O650 C653 1.235 . S
C651 O654 1.238 . S
C651 O655 1.241 . S
C652 O645 1.247 . S
C652 O646 1.261 . S
C653 O648 1.259 . S
C653 O650 1.235 . S
O654 Co644 2.021 . S
O654 C651 1.238 . S
O655 Co649 2.052 . S
O655 C651 1.241 . S
O656 Co644 2.137 . S
O656 C647 1.247 . S
O657 Co644 2.244 . S
O657 C647 1.272 . S
O657 Co649 2.135 . S
Co658 O659 2.216 . S
Co658 O660 2.091 . S
Co658 O662 2.004 . S
Co658 O668 2.021 . S
Co658 O670 2.137 . S
Co658 O671 2.244 . S
O659 Co658 2.216 . S
O659 C666 1.247 . S
O660 Co658 2.091 . S
O660 C666 1.261 . S
C661 O670 1.247 . S
C661 O671 1.272 . S
O662 Co658 2.004 . S
O662 C667 1.259 . S
Co663 O664 2.061 . S
Co663 O669 2.052 . S
Co663 O671 2.135 . S
O664 Co663 2.061 . S
O664 C667 1.235 . S
C665 O668 1.238 . S
C665 O669 1.241 . S
C666 O659 1.247 . S
C666 O660 1.261 . S
C667 O662 1.259 . S
C667 O664 1.235 . S
O668 Co658 2.021 . S
O668 C665 1.238 . S
O669 Co663 2.052 . S
O669 C665 1.241 . S
O670 Co658 2.137 . S
O670 C661 1.247 . S
O671 Co658 2.244 . S
O671 C661 1.272 . S
O671 Co663 2.135 . S
C672 C673 1.369 . S
C672 C674 1.419 . S
C672 H676 0.930 . S
C673 C672 1.369 . S
C673 C682 1.429 . S
C674 C672 1.419 . S
C674 C675 1.363 . S
C674 H677 0.929 . S
C675 C674 1.363 . S
C675 C681 1.428 . S
H676 C672 0.930 . S
H677 C674 0.929 . S
S678 N679 1.613 . S
S678 N680 1.610 . S
N679 S678 1.613 . S
N679 C682 1.350 . S
N680 S678 1.610 . S
N680 C681 1.351 . S
C681 C675 1.428 . S
C681 N680 1.351 . S
C681 C682 1.434 . S
C682 C673 1.429 . S
C682 N679 1.350 . S
C682 C681 1.434 . S
C683 C684 1.369 . S
C683 C685 1.419 . S
C683 H687 0.930 . S
C684 C683 1.369 . S
C684 C693 1.429 . S
C685 C683 1.419 . S
C685 C686 1.363 . S
C685 H688 0.929 . S
C686 C685 1.363 . S
C686 C692 1.428 . S
H687 C683 0.930 . S
H688 C685 0.929 . S
S689 N690 1.613 . S
S689 N691 1.610 . S
N690 S689 1.613 . S
N690 C693 1.350 . S
N691 S689 1.610 . S
N691 C692 1.351 . S
C692 C686 1.428 . S
C692 N691 1.351 . S
C692 C693 1.434 . S
C693 C684 1.429 . S
C693 N690 1.350 . S
C693 C692 1.434 . S
C694 C695 1.369 . S
C694 C696 1.419 . S
C694 H698 0.930 . S
C695 C694 1.369 . S
C695 C704 1.429 . S
C696 C694 1.419 . S
C696 C697 1.363 . S
C696 H699 0.929 . S
C697 C696 1.363 . S
C697 C703 1.428 . S
H698 C694 0.930 . S
H699 C696 0.929 . S
S700 N701 1.613 . S
S700 N702 1.610 . S
N701 S700 1.613 . S
N701 C704 1.350 . S
N702 S700 1.610 . S
N702 C703 1.351 . S
C703 C697 1.428 . S
C703 N702 1.351 . S
C703 C704 1.434 . S
C704 C695 1.429 . S
C704 N701 1.350 . S
C704 C703 1.434 . S
C705 C706 1.369 . S
C705 C707 1.419 . S
C705 H709 0.930 . S
C706 C705 1.369 . S
C706 C715 1.429 . S
C707 C705 1.419 . S
C707 C708 1.363 . S
C707 H710 0.929 . S
C708 C707 1.363 . S
C708 C714 1.428 . S
H709 C705 0.930 . S
H710 C707 0.929 . S
S711 N712 1.613 . S
S711 N713 1.610 . S
N712 S711 1.613 . S
N712 C715 1.350 . S
N713 S711 1.610 . S
N713 C714 1.351 . S
C714 C708 1.428 . S
C714 N713 1.351 . S
C714 C715 1.434 . S
C715 C706 1.429 . S
C715 N712 1.350 . S
C715 C714 1.434 . S
C716 C717 1.369 . S
C716 C718 1.419 . S
C716 H720 0.930 . S
C717 C716 1.369 . S
C717 C726 1.429 . S
C718 C716 1.419 . S
C718 C719 1.363 . S
C718 H721 0.929 . S
C719 C718 1.363 . S
C719 C725 1.428 . S
H720 C716 0.930 . S
H721 C718 0.929 . S
S722 N723 1.613 . S
S722 N724 1.610 . S
N723 S722 1.613 . S
N723 C726 1.350 . S
N724 S722 1.610 . S
N724 C725 1.351 . S
C725 C719 1.428 . S
C725 N724 1.351 . S
C725 C726 1.434 . S
C726 C717 1.429 . S
C726 N723 1.350 . S
C726 C725 1.434 . S
C727 C728 1.369 . S
C727 C729 1.419 . S
C727 H731 0.930 . S
C728 C727 1.369 . S
C728 C737 1.429 . S
C729 C727 1.419 . S
C729 C730 1.363 . S
C729 H732 0.929 . S
C730 C729 1.363 . S
C730 C736 1.428 . S
H731 C727 0.930 . S
H732 C729 0.929 . S
S733 N734 1.613 . S
S733 N735 1.610 . S
N734 S733 1.613 . S
N734 C737 1.350 . S
N735 S733 1.610 . S
N735 C736 1.351 . S
C736 C730 1.428 . S
C736 N735 1.351 . S
C736 C737 1.434 . S
C737 C728 1.429 . S
C737 N734 1.350 . S
C737 C736 1.434 . S
C738 C739 1.369 . S
C738 C740 1.419 . S
C738 H742 0.930 . S
C739 C738 1.369 . S
C739 C748 1.429 . S
C740 C738 1.419 . S
C740 C741 1.363 . S
C740 H743 0.929 . S
C741 C740 1.363 . S
C741 C747 1.428 . S
H742 C738 0.930 . S
H743 C740 0.929 . S
S744 N745 1.613 . S
S744 N746 1.610 . S
N745 S744 1.613 . S
N745 C748 1.350 . S
N746 S744 1.610 . S
N746 C747 1.351 . S
C747 C741 1.428 . S
C747 N746 1.351 . S
C747 C748 1.434 . S
C748 C739 1.429 . S
C748 N745 1.350 . S
C748 C747 1.434 . S
C749 C750 1.369 . S
C749 C751 1.419 . S
C749 H753 0.930 . S
C750 C749 1.369 . S
C750 C759 1.429 . S
C751 C749 1.419 . S
C751 C752 1.363 . S
C751 H754 0.929 . S
C752 C751 1.363 . S
C752 C758 1.428 . S
H753 C749 0.930 . S
H754 C751 0.929 . S
S755 N756 1.613 . S
S755 N757 1.610 . S
N756 S755 1.613 . S
N756 C759 1.350 . S
N757 S755 1.610 . S
N757 C758 1.351 . S
C758 C752 1.428 . S
C758 N757 1.351 . S
C758 C759 1.434 . S
C759 C750 1.429 . S
C759 N756 1.350 . S
C759 C758 1.434 . S
C760 C761 1.369 . S
C760 C762 1.419 . S
C760 H764 0.930 . S
C761 C760 1.369 . S
C761 C770 1.429 . S
C762 C760 1.419 . S
C762 C763 1.363 . S
C762 H765 0.929 . S
C763 C762 1.363 . S
C763 C769 1.428 . S
H764 C760 0.930 . S
H765 C762 0.929 . S
S766 N767 1.613 . S
S766 N768 1.610 . S
N767 S766 1.613 . S
N767 C770 1.350 . S
N768 S766 1.610 . S
N768 C769 1.351 . S
C769 C763 1.428 . S
C769 N768 1.351 . S
C769 C770 1.434 . S
C770 C761 1.429 . S
C770 N767 1.350 . S
C770 C769 1.434 . S
C771 C772 1.369 . S
C771 C773 1.419 . S
C771 H775 0.930 . S
C772 C771 1.369 . S
C772 C781 1.429 . S
C773 C771 1.419 . S
C773 C774 1.363 . S
C773 H776 0.929 . S
C774 C773 1.363 . S
C774 C780 1.428 . S
H775 C771 0.930 . S
H776 C773 0.929 . S
S777 N778 1.613 . S
S777 N779 1.610 . S
N778 S777 1.613 . S
N778 C781 1.350 . S
N779 S777 1.610 . S
N779 C780 1.351 . S
C780 C774 1.428 . S
C780 N779 1.351 . S
C780 C781 1.434 . S
C781 C772 1.429 . S
C781 N778 1.350 . S
C781 C780 1.434 . S
C782 C783 1.369 . S
C782 C784 1.419 . S
C782 H786 0.930 . S
C783 C782 1.369 . S
C783 C792 1.429 . S
C784 C782 1.419 . S
C784 C785 1.363 . S
C784 H787 0.929 . S
C785 C784 1.363 . S
C785 C791 1.428 . S
H786 C782 0.930 . S
H787 C784 0.929 . S
S788 N789 1.613 . S
S788 N790 1.610 . S
N789 S788 1.613 . S
N789 C792 1.350 . S
N790 S788 1.610 . S
N790 C791 1.351 . S
C791 C785 1.428 . S
C791 N790 1.351 . S
C791 C792 1.434 . S
C792 C783 1.429 . S
C792 N789 1.350 . S
C792 C791 1.434 . S
C793 C794 1.369 . S
C793 C795 1.419 . S
C793 H797 0.930 . S
C794 C793 1.369 . S
C794 C803 1.429 . S
C795 C793 1.419 . S
C795 C796 1.363 . S
C795 H798 0.929 . S
C796 C795 1.363 . S
C796 C802 1.428 . S
H797 C793 0.930 . S
H798 C795 0.929 . S
S799 N800 1.613 . S
S799 N801 1.610 . S
N800 S799 1.613 . S
N800 C803 1.350 . S
N801 S799 1.610 . S
N801 C802 1.351 . S
C802 C796 1.428 . S
C802 N801 1.351 . S
C802 C803 1.434 . S
C803 C794 1.429 . S
C803 N800 1.350 . S
C803 C802 1.434 . S
C804 C805 1.369 . S
C804 C806 1.419 . S
C804 H808 0.930 . S
C805 C804 1.369 . S
C805 C814 1.429 . S
C806 C804 1.419 . S
C806 C807 1.363 . S
C806 H809 0.929 . S
C807 C806 1.363 . S
C807 C813 1.428 . S
H808 C804 0.930 . S
H809 C806 0.929 . S
S810 N811 1.613 . S
S810 N812 1.610 . S
N811 S810 1.613 . S
N811 C814 1.350 . S
N812 S810 1.610 . S
N812 C813 1.351 . S
C813 C807 1.428 . S
C813 N812 1.351 . S
C813 C814 1.434 . S
C814 C805 1.429 . S
C814 N811 1.350 . S
C814 C813 1.434 . S
C815 C816 1.369 . S
C815 C817 1.419 . S
C815 H819 0.930 . S
C816 C815 1.369 . S
C816 C825 1.429 . S
C817 C815 1.419 . S
C817 C818 1.363 . S
C817 H820 0.929 . S
C818 C817 1.363 . S
C818 C824 1.428 . S
H819 C815 0.930 . S
H820 C817 0.929 . S
S821 N822 1.613 . S
S821 N823 1.610 . S
N822 S821 1.613 . S
N822 C825 1.350 . S
N823 S821 1.610 . S
N823 C824 1.351 . S
C824 C818 1.428 . S
C824 N823 1.351 . S
C824 C825 1.434 . S
C825 C816 1.429 . S
C825 N822 1.350 . S
C825 C824 1.434 . S
C826 C827 1.369 . S
C826 C828 1.419 . S
C826 H830 0.930 . S
C827 C826 1.369 . S
C827 C836 1.429 . S
C828 C826 1.419 . S
C828 C829 1.363 . S
C828 H831 0.929 . S
C829 C828 1.363 . S
C829 C835 1.428 . S
H830 C826 0.930 . S
H831 C828 0.929 . S
S832 N833 1.613 . S
S832 N834 1.610 . S
N833 S832 1.613 . S
N833 C836 1.350 . S
N834 S832 1.610 . S
N834 C835 1.351 . S
C835 C829 1.428 . S
C835 N834 1.351 . S
C835 C836 1.434 . S
C836 C827 1.429 . S
C836 N833 1.350 . S
C836 C835 1.434 . S
C837 C838 1.369 . S
C837 C839 1.419 . S
C837 H841 0.930 . S
C838 C837 1.369 . S
C838 C847 1.429 . S
C839 C837 1.419 . S
C839 C840 1.363 . S
C839 H842 0.929 . S
C840 C839 1.363 . S
C840 C846 1.428 . S
H841 C837 0.930 . S
H842 C839 0.929 . S
S843 N844 1.613 . S
S843 N845 1.610 . S
N844 S843 1.613 . S
N844 C847 1.350 . S
N845 S843 1.610 . S
N845 C846 1.351 . S
C846 C840 1.428 . S
C846 N845 1.351 . S
C846 C847 1.434 . S
C847 C838 1.429 . S
C847 N844 1.350 . S
C847 C846 1.434 . S
C848 C849 1.369 . S
C848 C850 1.419 . S
C848 H852 0.930 . S
C849 C848 1.369 . S
C849 C858 1.429 . S
C850 C848 1.419 . S
C850 C851 1.363 . S
C850 H853 0.929 . S
C851 C850 1.363 . S
C851 C857 1.428 . S
H852 C848 0.930 . S
H853 C850 0.929 . S
S854 N855 1.613 . S
S854 N856 1.610 . S
N855 S854 1.613 . S
N855 C858 1.350 . S
N856 S854 1.610 . S
N856 C857 1.351 . S
C857 C851 1.428 . S
C857 N856 1.351 . S
C857 C858 1.434 . S
C858 C849 1.429 . S
C858 N855 1.350 . S
C858 C857 1.434 . S
C859 C860 1.369 . S
C859 C861 1.419 . S
C859 H863 0.930 . S
C860 C859 1.369 . S
C860 C869 1.429 . S
C861 C859 1.419 . S
C861 C862 1.363 . S
C861 H864 0.929 . S
C862 C861 1.363 . S
C862 C868 1.428 . S
H863 C859 0.930 . S
H864 C861 0.929 . S
S865 N866 1.613 . S
S865 N867 1.610 . S
N866 S865 1.613 . S
N866 C869 1.350 . S
N867 S865 1.610 . S
N867 C868 1.351 . S
C868 C862 1.428 . S
C868 N867 1.351 . S
C868 C869 1.434 . S
C869 C860 1.429 . S
C869 N866 1.350 . S
C869 C868 1.434 . S
C870 C871 1.369 . S
C870 C872 1.419 . S
C870 H874 0.930 . S
C871 C870 1.369 . S
C871 C880 1.429 . S
C872 C870 1.419 . S
C872 C873 1.363 . S
C872 H875 0.929 . S
C873 C872 1.363 . S
C873 C879 1.428 . S
H874 C870 0.930 . S
H875 C872 0.929 . S
S876 N877 1.613 . S
S876 N878 1.610 . S
N877 S876 1.613 . S
N877 C880 1.350 . S
N878 S876 1.610 . S
N878 C879 1.351 . S
C879 C873 1.428 . S
C879 N878 1.351 . S
C879 C880 1.434 . S
C880 C871 1.429 . S
C880 N877 1.350 . S
C880 C879 1.434 . S
C881 C882 1.369 . S
C881 C883 1.419 . S
C881 H885 0.930 . S
C882 C881 1.369 . S
C882 C891 1.429 . S
C883 C881 1.419 . S
C883 C884 1.363 . S
C883 H886 0.929 . S
C884 C883 1.363 . S
C884 C890 1.428 . S
H885 C881 0.930 . S
H886 C883 0.929 . S
S887 N888 1.613 . S
S887 N889 1.610 . S
N888 S887 1.613 . S
N888 C891 1.350 . S
N889 S887 1.610 . S
N889 C890 1.351 . S
C890 C884 1.428 . S
C890 N889 1.351 . S
C890 C891 1.434 . S
C891 C882 1.429 . S
C891 N888 1.350 . S
C891 C890 1.434 . S
C892 C893 1.369 . S
C892 C894 1.419 . S
C892 H896 0.930 . S
C893 C892 1.369 . S
C893 C902 1.429 . S
C894 C892 1.419 . S
C894 C895 1.363 . S
C894 H897 0.929 . S
C895 C894 1.363 . S
C895 C901 1.428 . S
H896 C892 0.930 . S
H897 C894 0.929 . S
S898 N899 1.613 . S
S898 N900 1.610 . S
N899 S898 1.613 . S
N899 C902 1.350 . S
N900 S898 1.610 . S
N900 C901 1.351 . S
C901 C895 1.428 . S
C901 N900 1.351 . S
C901 C902 1.434 . S
C902 C893 1.429 . S
C902 N899 1.350 . S
C902 C901 1.434 . S
C903 C904 1.369 . S
C903 C905 1.419 . S
C903 H907 0.930 . S
C904 C903 1.369 . S
C904 C913 1.429 . S
C905 C903 1.419 . S
C905 C906 1.363 . S
C905 H908 0.929 . S
C906 C905 1.363 . S
C906 C912 1.428 . S
H907 C903 0.930 . S
H908 C905 0.929 . S
S909 N910 1.613 . S
S909 N911 1.610 . S
N910 S909 1.613 . S
N910 C913 1.350 . S
N911 S909 1.610 . S
N911 C912 1.351 . S
C912 C906 1.428 . S
C912 N911 1.351 . S
C912 C913 1.434 . S
C913 C904 1.429 . S
C913 N910 1.350 . S
C913 C912 1.434 . S
C914 C915 1.369 . S
C914 C916 1.419 . S
C914 H918 0.930 . S
C915 C914 1.369 . S
C915 C924 1.429 . S
C916 C914 1.419 . S
C916 C917 1.363 . S
C916 H919 0.929 . S
C917 C916 1.363 . S
C917 C923 1.428 . S
H918 C914 0.930 . S
H919 C916 0.929 . S
S920 N921 1.613 . S
S920 N922 1.610 . S
N921 S920 1.613 . S
N921 C924 1.350 . S
N922 S920 1.610 . S
N922 C923 1.351 . S
C923 C917 1.428 . S
C923 N922 1.351 . S
C923 C924 1.434 . S
C924 C915 1.429 . S
C924 N921 1.350 . S
C924 C923 1.434 . S
C925 C926 1.369 . S
C925 C927 1.419 . S
C925 H929 0.930 . S
C926 C925 1.369 . S
C926 C935 1.429 . S
C927 C925 1.419 . S
C927 C928 1.363 . S
C927 H930 0.929 . S
C928 C927 1.363 . S
C928 C934 1.428 . S
H929 C925 0.930 . S
H930 C927 0.929 . S
S931 N932 1.613 . S
S931 N933 1.610 . S
N932 S931 1.613 . S
N932 C935 1.350 . S
N933 S931 1.610 . S
N933 C934 1.351 . S
C934 C928 1.428 . S
C934 N933 1.351 . S
C934 C935 1.434 . S
C935 C926 1.429 . S
C935 N932 1.350 . S
C935 C934 1.434 . S
C936 C937 1.369 . S
C936 C938 1.419 . S
C936 H940 0.930 . S
C937 C936 1.369 . S
C937 C946 1.429 . S
C938 C936 1.419 . S
C938 C939 1.363 . S
C938 H941 0.929 . S
C939 C938 1.363 . S
C939 C945 1.428 . S
H940 C936 0.930 . S
H941 C938 0.929 . S
S942 N943 1.613 . S
S942 N944 1.610 . S
N943 S942 1.613 . S
N943 C946 1.350 . S
N944 S942 1.610 . S
N944 C945 1.351 . S
C945 C939 1.428 . S
C945 N944 1.351 . S
C945 C946 1.434 . S
C946 C937 1.429 . S
C946 N943 1.350 . S
C946 C945 1.434 . S
C947 C948 1.369 . S
C947 C949 1.419 . S
C947 H951 0.930 . S
C948 C947 1.369 . S
C948 C957 1.429 . S
C949 C947 1.419 . S
C949 C950 1.363 . S
C949 H952 0.929 . S
C950 C949 1.363 . S
C950 C956 1.428 . S
H951 C947 0.930 . S
H952 C949 0.929 . S
S953 N954 1.613 . S
S953 N955 1.610 . S
N954 S953 1.613 . S
N954 C957 1.350 . S
N955 S953 1.610 . S
N955 C956 1.351 . S
C956 C950 1.428 . S
C956 N955 1.351 . S
C956 C957 1.434 . S
C957 C948 1.429 . S
C957 N954 1.350 . S
C957 C956 1.434 . S
C958 C959 1.369 . S
C958 C960 1.419 . S
C958 H962 0.930 . S
C959 C958 1.369 . S
C959 C968 1.429 . S
C960 C958 1.419 . S
C960 C961 1.363 . S
C960 H963 0.929 . S
C961 C960 1.363 . S
C961 C967 1.428 . S
H962 C958 0.930 . S
H963 C960 0.929 . S
S964 N965 1.613 . S
S964 N966 1.610 . S
N965 S964 1.613 . S
N965 C968 1.350 . S
N966 S964 1.610 . S
N966 C967 1.351 . S
C967 C961 1.428 . S
C967 N966 1.351 . S
C967 C968 1.434 . S
C968 C959 1.429 . S
C968 N965 1.350 . S
C968 C967 1.434 . S
C969 C970 1.369 . S
C969 C971 1.419 . S
C969 H973 0.930 . S
C970 C969 1.369 . S
C970 C979 1.429 . S
C971 C969 1.419 . S
C971 C972 1.363 . S
C971 H974 0.929 . S
C972 C971 1.363 . S
C972 C978 1.428 . S
H973 C969 0.930 . S
H974 C971 0.929 . S
S975 N976 1.613 . S
S975 N977 1.610 . S
N976 S975 1.613 . S
N976 C979 1.350 . S
N977 S975 1.610 . S
N977 C978 1.351 . S
C978 C972 1.428 . S
C978 N977 1.351 . S
C978 C979 1.434 . S
C979 C970 1.429 . S
C979 N976 1.350 . S
C979 C978 1.434 . S
C980 C981 1.369 . S
C980 C982 1.419 . S
C980 H984 0.930 . S
C981 C980 1.369 . S
C981 C990 1.429 . S
C982 C980 1.419 . S
C982 C983 1.363 . S
C982 H985 0.929 . S
C983 C982 1.363 . S
C983 C989 1.428 . S
H984 C980 0.930 . S
H985 C982 0.929 . S
S986 N987 1.613 . S
S986 N988 1.610 . S
N987 S986 1.613 . S
N987 C990 1.350 . S
N988 S986 1.610 . S
N988 C989 1.351 . S
C989 C983 1.428 . S
C989 N988 1.351 . S
C989 C990 1.434 . S
C990 C981 1.429 . S
C990 N987 1.350 . S
C990 C989 1.434 . S
C991 C992 1.369 . S
C991 C993 1.419 . S
C991 H995 0.930 . S
C992 C991 1.369 . S
C992 C1001 1.429 . S
C993 C991 1.419 . S
C993 C994 1.363 . S
C993 H996 0.929 . S
C994 C993 1.363 . S
C994 C1000 1.428 . S
H995 C991 0.930 . S
H996 C993 0.929 . S
S997 N998 1.613 . S
S997 N999 1.610 . S
N998 S997 1.613 . S
N998 C1001 1.350 . S
N999 S997 1.610 . S
N999 C1000 1.351 . S
C1000 C994 1.428 . S
C1000 N999 1.351 . S
C1000 C1001 1.434 . S
C1001 C992 1.429 . S
C1001 N998 1.350 . S
C1001 C1000 1.434 . S
C1002 C1003 1.369 . S
C1002 C1004 1.419 . S
C1002 H1006 0.930 . S
C1003 C1002 1.369 . S
C1003 C1012 1.429 . S
C1004 C1002 1.419 . S
C1004 C1005 1.363 . S
C1004 H1007 0.929 . S
C1005 C1004 1.363 . S
C1005 C1011 1.428 . S
H1006 C1002 0.930 . S
H1007 C1004 0.929 . S
S1008 N1009 1.613 . S
S1008 N1010 1.610 . S
N1009 S1008 1.613 . S
N1009 C1012 1.350 . S
N1010 S1008 1.610 . S
N1010 C1011 1.351 . S
C1011 C1005 1.428 . S
C1011 N1010 1.351 . S
C1011 C1012 1.434 . S
C1012 C1003 1.429 . S
C1012 N1009 1.350 . S
C1012 C1011 1.434 . S
C1013 C1014 1.369 . S
C1013 C1015 1.419 . S
C1013 H1017 0.930 . S
C1014 C1013 1.369 . S
C1014 C1023 1.429 . S
C1015 C1013 1.419 . S
C1015 C1016 1.363 . S
C1015 H1018 0.929 . S
C1016 C1015 1.363 . S
C1016 C1022 1.428 . S
H1017 C1013 0.930 . S
H1018 C1015 0.929 . S
S1019 N1020 1.613 . S
S1019 N1021 1.610 . S
N1020 S1019 1.613 . S
N1020 C1023 1.350 . S
N1021 S1019 1.610 . S
N1021 C1022 1.351 . S
C1022 C1016 1.428 . S
C1022 N1021 1.351 . S
C1022 C1023 1.434 . S
C1023 C1014 1.429 . S
C1023 N1020 1.350 . S
C1023 C1022 1.434 . S
C1024 C1025 1.369 . S
C1024 C1026 1.419 . S
C1024 H1028 0.930 . S
C1025 C1024 1.369 . S
C1025 C1034 1.429 . S
C1026 C1024 1.419 . S
C1026 C1027 1.363 . S
C1026 H1029 0.929 . S
C1027 C1026 1.363 . S
C1027 C1033 1.428 . S
H1028 C1024 0.930 . S
H1029 C1026 0.929 . S
S1030 N1031 1.613 . S
S1030 N1032 1.610 . S
N1031 S1030 1.613 . S
N1031 C1034 1.350 . S
N1032 S1030 1.610 . S
N1032 C1033 1.351 . S
C1033 C1027 1.428 . S
C1033 N1032 1.351 . S
C1033 C1034 1.434 . S
C1034 C1025 1.429 . S
C1034 N1031 1.350 . S
C1034 C1033 1.434 . S
C1035 C1036 1.369 . S
C1035 C1037 1.419 . S
C1035 H1039 0.930 . S
C1036 C1035 1.369 . S
C1036 C1045 1.429 . S
C1037 C1035 1.419 . S
C1037 C1038 1.363 . S
C1037 H1040 0.929 . S
C1038 C1037 1.363 . S
C1038 C1044 1.428 . S
H1039 C1035 0.930 . S
H1040 C1037 0.929 . S
S1041 N1042 1.613 . S
S1041 N1043 1.610 . S
N1042 S1041 1.613 . S
N1042 C1045 1.350 . S
N1043 S1041 1.610 . S
N1043 C1044 1.351 . S
C1044 C1038 1.428 . S
C1044 N1043 1.351 . S
C1044 C1045 1.434 . S
C1045 C1036 1.429 . S
C1045 N1042 1.350 . S
C1045 C1044 1.434 . S
C1046 C1047 1.369 . S
C1046 C1048 1.419 . S
C1046 H1050 0.930 . S
C1047 C1046 1.369 . S
C1047 C1056 1.429 . S
C1048 C1046 1.419 . S
C1048 C1049 1.363 . S
C1048 H1051 0.929 . S
C1049 C1048 1.363 . S
C1049 C1055 1.428 . S
H1050 C1046 0.930 . S
H1051 C1048 0.929 . S
S1052 N1053 1.613 . S
S1052 N1054 1.610 . S
N1053 S1052 1.613 . S
N1053 C1056 1.350 . S
N1054 S1052 1.610 . S
N1054 C1055 1.351 . S
C1055 C1049 1.428 . S
C1055 N1054 1.351 . S
C1055 C1056 1.434 . S
C1056 C1047 1.429 . S
C1056 N1053 1.350 . S
C1056 C1055 1.434 . S
C1057 C1058 1.369 . S
C1057 C1059 1.419 . S
C1057 H1061 0.930 . S
C1058 C1057 1.369 . S
C1058 C1067 1.429 . S
C1059 C1057 1.419 . S
C1059 C1060 1.363 . S
C1059 H1062 0.929 . S
C1060 C1059 1.363 . S
C1060 C1066 1.428 . S
H1061 C1057 0.930 . S
H1062 C1059 0.929 . S
S1063 N1064 1.613 . S
S1063 N1065 1.610 . S
N1064 S1063 1.613 . S
N1064 C1067 1.350 . S
N1065 S1063 1.610 . S
N1065 C1066 1.351 . S
C1066 C1060 1.428 . S
C1066 N1065 1.351 . S
C1066 C1067 1.434 . S
C1067 C1058 1.429 . S
C1067 N1064 1.350 . S
C1067 C1066 1.434 . S
C1068 C1069 1.369 . S
C1068 C1070 1.419 . S
C1068 H1072 0.930 . S
C1069 C1068 1.369 . S
C1069 C1078 1.429 . S
C1070 C1068 1.419 . S
C1070 C1071 1.363 . S
C1070 H1073 0.929 . S
C1071 C1070 1.363 . S
C1071 C1077 1.428 . S
H1072 C1068 0.930 . S
H1073 C1070 0.929 . S
S1074 N1075 1.613 . S
S1074 N1076 1.610 . S
N1075 S1074 1.613 . S
N1075 C1078 1.350 . S
N1076 S1074 1.610 . S
N1076 C1077 1.351 . S
C1077 C1071 1.428 . S
C1077 N1076 1.351 . S
C1077 C1078 1.434 . S
C1078 C1069 1.429 . S
C1078 N1075 1.350 . S
C1078 C1077 1.434 . S
C1079 C1080 1.369 . S
C1079 C1081 1.419 . S
C1079 H1083 0.930 . S
C1080 C1079 1.369 . S
C1080 C1089 1.429 . S
C1081 C1079 1.419 . S
C1081 C1082 1.363 . S
C1081 H1084 0.929 . S
C1082 C1081 1.363 . S
C1082 C1088 1.428 . S
H1083 C1079 0.930 . S
H1084 C1081 0.929 . S
S1085 N1086 1.613 . S
S1085 N1087 1.610 . S
N1086 S1085 1.613 . S
N1086 C1089 1.350 . S
N1087 S1085 1.610 . S
N1087 C1088 1.351 . S
C1088 C1082 1.428 . S
C1088 N1087 1.351 . S
C1088 C1089 1.434 . S
C1089 C1080 1.429 . S
C1089 N1086 1.350 . S
C1089 C1088 1.434 . S
C1090 C1091 1.369 . S
C1090 C1092 1.419 . S
C1090 H1094 0.930 . S
C1091 C1090 1.369 . S
C1091 C1100 1.429 . S
C1092 C1090 1.419 . S
C1092 C1093 1.363 . S
C1092 H1095 0.929 . S
C1093 C1092 1.363 . S
C1093 C1099 1.428 . S
H1094 C1090 0.930 . S
H1095 C1092 0.929 . S
S1096 N1097 1.613 . S
S1096 N1098 1.610 . S
N1097 S1096 1.613 . S
N1097 C1100 1.350 . S
N1098 S1096 1.610 . S
N1098 C1099 1.351 . S
C1099 C1093 1.428 . S
C1099 N1098 1.351 . S
C1099 C1100 1.434 . S
C1100 C1091 1.429 . S
C1100 N1097 1.350 . S
C1100 C1099 1.434 . S
C1101 C1102 1.369 . S
C1101 C1103 1.419 . S
C1101 H1105 0.930 . S
C1102 C1101 1.369 . S
C1102 C1111 1.429 . S
C1103 C1101 1.419 . S
C1103 C1104 1.363 . S
C1103 H1106 0.929 . S
C1104 C1103 1.363 . S
C1104 C1110 1.428 . S
H1105 C1101 0.930 . S
H1106 C1103 0.929 . S
S1107 N1108 1.613 . S
S1107 N1109 1.610 . S
N1108 S1107 1.613 . S
N1108 C1111 1.350 . S
N1109 S1107 1.610 . S
N1109 C1110 1.351 . S
C1110 C1104 1.428 . S
C1110 N1109 1.351 . S
C1110 C1111 1.434 . S
C1111 C1102 1.429 . S
C1111 N1108 1.350 . S
C1111 C1110 1.434 . S
C1112 C1113 1.369 . S
C1112 C1114 1.419 . S
C1112 H1116 0.930 . S
C1113 C1112 1.369 . S
C1113 C1122 1.429 . S
C1114 C1112 1.419 . S
C1114 C1115 1.363 . S
C1114 H1117 0.929 . S
C1115 C1114 1.363 . S
C1115 C1121 1.428 . S
H1116 C1112 0.930 . S
H1117 C1114 0.929 . S
S1118 N1119 1.613 . S
S1118 N1120 1.610 . S
N1119 S1118 1.613 . S
N1119 C1122 1.350 . S
N1120 S1118 1.610 . S
N1120 C1121 1.351 . S
C1121 C1115 1.428 . S
C1121 N1120 1.351 . S
C1121 C1122 1.434 . S
C1122 C1113 1.429 . S
C1122 N1119 1.350 . S
C1122 C1121 1.434 . S
C1123 C1124 1.369 . S
C1123 C1125 1.419 . S
C1123 H1127 0.930 . S
C1124 C1123 1.369 . S
C1124 C1133 1.429 . S
C1125 C1123 1.419 . S
C1125 C1126 1.363 . S
C1125 H1128 0.929 . S
C1126 C1125 1.363 . S
C1126 C1132 1.428 . S
H1127 C1123 0.930 . S
H1128 C1125 0.929 . S
S1129 N1130 1.613 . S
S1129 N1131 1.610 . S
N1130 S1129 1.613 . S
N1130 C1133 1.350 . S
N1131 S1129 1.610 . S
N1131 C1132 1.351 . S
C1132 C1126 1.428 . S
C1132 N1131 1.351 . S
C1132 C1133 1.434 . S
C1133 C1124 1.429 . S
C1133 N1130 1.350 . S
C1133 C1132 1.434 . S
C1134 C1135 1.369 . S
C1134 C1136 1.419 . S
C1134 H1138 0.930 . S
C1135 C1134 1.369 . S
C1135 C1144 1.429 . S
C1136 C1134 1.419 . S
C1136 C1137 1.363 . S
C1136 H1139 0.929 . S
C1137 C1136 1.363 . S
C1137 C1143 1.428 . S
H1138 C1134 0.930 . S
H1139 C1136 0.929 . S
S1140 N1141 1.613 . S
S1140 N1142 1.610 . S
N1141 S1140 1.613 . S
N1141 C1144 1.350 . S
N1142 S1140 1.610 . S
N1142 C1143 1.351 . S
C1143 C1137 1.428 . S
C1143 N1142 1.351 . S
C1143 C1144 1.434 . S
C1144 C1135 1.429 . S
C1144 N1141 1.350 . S
C1144 C1143 1.434 . S
C1145 C1146 1.369 . S
C1145 C1147 1.419 . S
C1145 H1149 0.930 . S
C1146 C1145 1.369 . S
C1146 C1155 1.429 . S
C1147 C1145 1.419 . S
C1147 C1148 1.363 . S
C1147 H1150 0.929 . S
C1148 C1147 1.363 . S
C1148 C1154 1.428 . S
H1149 C1145 0.930 . S
H1150 C1147 0.929 . S
S1151 N1152 1.613 . S
S1151 N1153 1.610 . S
N1152 S1151 1.613 . S
N1152 C1155 1.350 . S
N1153 S1151 1.610 . S
N1153 C1154 1.351 . S
C1154 C1148 1.428 . S
C1154 N1153 1.351 . S
C1154 C1155 1.434 . S
C1155 C1146 1.429 . S
C1155 N1152 1.350 . S
C1155 C1154 1.434 . S
C1156 C1157 1.369 . S
C1156 C1158 1.419 . S
C1156 H1160 0.930 . S
C1157 C1156 1.369 . S
C1157 C1166 1.429 . S
C1158 C1156 1.419 . S
C1158 C1159 1.363 . S
C1158 H1161 0.929 . S
C1159 C1158 1.363 . S
C1159 C1165 1.428 . S
H1160 C1156 0.930 . S
H1161 C1158 0.929 . S
S1162 N1163 1.613 . S
S1162 N1164 1.610 . S
N1163 S1162 1.613 . S
N1163 C1166 1.350 . S
N1164 S1162 1.610 . S
N1164 C1165 1.351 . S
C1165 C1159 1.428 . S
C1165 N1164 1.351 . S
C1165 C1166 1.434 . S
C1166 C1157 1.429 . S
C1166 N1163 1.350 . S
C1166 C1165 1.434 . S
C1167 C1168 1.369 . S
C1167 C1169 1.419 . S
C1167 H1171 0.930 . S
C1168 C1167 1.369 . S
C1168 C1177 1.429 . S
C1169 C1167 1.419 . S
C1169 C1170 1.363 . S
C1169 H1172 0.929 . S
C1170 C1169 1.363 . S
C1170 C1176 1.428 . S
H1171 C1167 0.930 . S
H1172 C1169 0.929 . S
S1173 N1174 1.613 . S
S1173 N1175 1.610 . S
N1174 S1173 1.613 . S
N1174 C1177 1.350 . S
N1175 S1173 1.610 . S
N1175 C1176 1.351 . S
C1176 C1170 1.428 . S
C1176 N1175 1.351 . S
C1176 C1177 1.434 . S
C1177 C1168 1.429 . S
C1177 N1174 1.350 . S
C1177 C1176 1.434 . S
C1178 C1179 1.369 . S
C1178 C1180 1.419 . S
C1178 H1182 0.930 . S
C1179 C1178 1.369 . S
C1179 C1188 1.429 . S
C1180 C1178 1.419 . S
C1180 C1181 1.363 . S
C1180 H1183 0.929 . S
C1181 C1180 1.363 . S
C1181 C1187 1.428 . S
H1182 C1178 0.930 . S
H1183 C1180 0.929 . S
S1184 N1185 1.613 . S
S1184 N1186 1.610 . S
N1185 S1184 1.613 . S
N1185 C1188 1.350 . S
N1186 S1184 1.610 . S
N1186 C1187 1.351 . S
C1187 C1181 1.428 . S
C1187 N1186 1.351 . S
C1187 C1188 1.434 . S
C1188 C1179 1.429 . S
C1188 N1185 1.350 . S
C1188 C1187 1.434 . S
C1189 C1190 1.369 . S
C1189 C1191 1.419 . S
C1189 H1193 0.930 . S
C1190 C1189 1.369 . S
C1190 C1199 1.429 . S
C1191 C1189 1.419 . S
C1191 C1192 1.363 . S
C1191 H1194 0.929 . S
C1192 C1191 1.363 . S
C1192 C1198 1.428 . S
H1193 C1189 0.930 . S
H1194 C1191 0.929 . S
S1195 N1196 1.613 . S
S1195 N1197 1.610 . S
N1196 S1195 1.613 . S
N1196 C1199 1.350 . S
N1197 S1195 1.610 . S
N1197 C1198 1.351 . S
C1198 C1192 1.428 . S
C1198 N1197 1.351 . S
C1198 C1199 1.434 . S
C1199 C1190 1.429 . S
C1199 N1196 1.350 . S
C1199 C1198 1.434 . S
C1200 C1201 1.369 . S
C1200 C1202 1.419 . S
C1200 H1204 0.930 . S
C1201 C1200 1.369 . S
C1201 C1210 1.429 . S
C1202 C1200 1.419 . S
C1202 C1203 1.363 . S
C1202 H1205 0.929 . S
C1203 C1202 1.363 . S
C1203 C1209 1.428 . S
H1204 C1200 0.930 . S
H1205 C1202 0.929 . S
S1206 N1207 1.613 . S
S1206 N1208 1.610 . S
N1207 S1206 1.613 . S
N1207 C1210 1.350 . S
N1208 S1206 1.610 . S
N1208 C1209 1.351 . S
C1209 C1203 1.428 . S
C1209 N1208 1.351 . S
C1209 C1210 1.434 . S
C1210 C1201 1.429 . S
C1210 N1207 1.350 . S
C1210 C1209 1.434 . S
C1211 C1212 1.369 . S
C1211 C1213 1.419 . S
C1211 H1215 0.930 . S
C1212 C1211 1.369 . S
C1212 C1221 1.429 . S
C1213 C1211 1.419 . S
C1213 C1214 1.363 . S
C1213 H1216 0.929 . S
C1214 C1213 1.363 . S
C1214 C1220 1.428 . S
H1215 C1211 0.930 . S
H1216 C1213 0.929 . S
S1217 N1218 1.613 . S
S1217 N1219 1.610 . S
N1218 S1217 1.613 . S
N1218 C1221 1.350 . S
N1219 S1217 1.610 . S
N1219 C1220 1.351 . S
C1220 C1214 1.428 . S
C1220 N1219 1.351 . S
C1220 C1221 1.434 . S
C1221 C1212 1.429 . S
C1221 N1218 1.350 . S
C1221 C1220 1.434 . S
C1222 C1223 1.369 . S
C1222 C1224 1.419 . S
C1222 H1226 0.930 . S
C1223 C1222 1.369 . S
C1223 C1232 1.429 . S
C1224 C1222 1.419 . S
C1224 C1225 1.363 . S
C1224 H1227 0.929 . S
C1225 C1224 1.363 . S
C1225 C1231 1.428 . S
H1226 C1222 0.930 . S
H1227 C1224 0.929 . S
S1228 N1229 1.613 . S
S1228 N1230 1.610 . S
N1229 S1228 1.613 . S
N1229 C1232 1.350 . S
N1230 S1228 1.610 . S
N1230 C1231 1.351 . S
C1231 C1225 1.428 . S
C1231 N1230 1.351 . S
C1231 C1232 1.434 . S
C1232 C1223 1.429 . S
C1232 N1229 1.350 . S
C1232 C1231 1.434 . S
C1233 C1234 1.369 . S
C1233 C1235 1.419 . S
C1233 H1237 0.930 . S
C1234 C1233 1.369 . S
C1234 C1243 1.429 . S
C1235 C1233 1.419 . S
C1235 C1236 1.363 . S
C1235 H1238 0.929 . S
C1236 C1235 1.363 . S
C1236 C1242 1.428 . S
H1237 C1233 0.930 . S
H1238 C1235 0.929 . S
S1239 N1240 1.613 . S
S1239 N1241 1.610 . S
N1240 S1239 1.613 . S
N1240 C1243 1.350 . S
N1241 S1239 1.610 . S
N1241 C1242 1.351 . S
C1242 C1236 1.428 . S
C1242 N1241 1.351 . S
C1242 C1243 1.434 . S
C1243 C1234 1.429 . S
C1243 N1240 1.350 . S
C1243 C1242 1.434 . S
C1244 C1245 1.369 . S
C1244 C1246 1.419 . S
C1244 H1248 0.930 . S
C1245 C1244 1.369 . S
C1245 C1254 1.429 . S
C1246 C1244 1.419 . S
C1246 C1247 1.363 . S
C1246 H1249 0.929 . S
C1247 C1246 1.363 . S
C1247 C1253 1.428 . S
H1248 C1244 0.930 . S
H1249 C1246 0.929 . S
S1250 N1251 1.613 . S
S1250 N1252 1.610 . S
N1251 S1250 1.613 . S
N1251 C1254 1.350 . S
N1252 S1250 1.610 . S
N1252 C1253 1.351 . S
C1253 C1247 1.428 . S
C1253 N1252 1.351 . S
C1253 C1254 1.434 . S
C1254 C1245 1.429 . S
C1254 N1251 1.350 . S
C1254 C1253 1.434 . S
C1255 C1256 1.369 . S
C1255 C1257 1.419 . S
C1255 H1259 0.930 . S
C1256 C1255 1.369 . S
C1256 C1265 1.429 . S
C1257 C1255 1.419 . S
C1257 C1258 1.363 . S
C1257 H1260 0.929 . S
C1258 C1257 1.363 . S
C1258 C1264 1.428 . S
H1259 C1255 0.930 . S
H1260 C1257 0.929 . S
S1261 N1262 1.613 . S
S1261 N1263 1.610 . S
N1262 S1261 1.613 . S
N1262 C1265 1.350 . S
N1263 S1261 1.610 . S
N1263 C1264 1.351 . S
C1264 C1258 1.428 . S
C1264 N1263 1.351 . S
C1264 C1265 1.434 . S
C1265 C1256 1.429 . S
C1265 N1262 1.350 . S
C1265 C1264 1.434 . S
C1266 C1267 1.369 . S
C1266 C1268 1.419 . S
C1266 H1270 0.930 . S
C1267 C1266 1.369 . S
C1267 C1276 1.429 . S
C1268 C1266 1.419 . S
C1268 C1269 1.363 . S
C1268 H1271 0.929 . S
C1269 C1268 1.363 . S
C1269 C1275 1.428 . S
H1270 C1266 0.930 . S
H1271 C1268 0.929 . S
S1272 N1273 1.613 . S
S1272 N1274 1.610 . S
N1273 S1272 1.613 . S
N1273 C1276 1.350 . S
N1274 S1272 1.610 . S
N1274 C1275 1.351 . S
C1275 C1269 1.428 . S
C1275 N1274 1.351 . S
C1275 C1276 1.434 . S
C1276 C1267 1.429 . S
C1276 N1273 1.350 . S
C1276 C1275 1.434 . S
C1277 C1278 1.369 . S
C1277 C1279 1.419 . S
C1277 H1281 0.930 . S
C1278 C1277 1.369 . S
C1278 C1287 1.429 . S
C1279 C1277 1.419 . S
C1279 C1280 1.363 . S
C1279 H1282 0.929 . S
C1280 C1279 1.363 . S
C1280 C1286 1.428 . S
H1281 C1277 0.930 . S
H1282 C1279 0.929 . S
S1283 N1284 1.613 . S
S1283 N1285 1.610 . S
N1284 S1283 1.613 . S
N1284 C1287 1.350 . S
N1285 S1283 1.610 . S
N1285 C1286 1.351 . S
C1286 C1280 1.428 . S
C1286 N1285 1.351 . S
C1286 C1287 1.434 . S
C1287 C1278 1.429 . S
C1287 N1284 1.350 . S
C1287 C1286 1.434 . S
C1288 C1289 1.369 . S
C1288 C1290 1.419 . S
C1288 H1292 0.930 . S
C1289 C1288 1.369 . S
C1289 C1298 1.429 . S
C1290 C1288 1.419 . S
C1290 C1291 1.363 . S
C1290 H1293 0.929 . S
C1291 C1290 1.363 . S
C1291 C1297 1.428 . S
H1292 C1288 0.930 . S
H1293 C1290 0.929 . S
S1294 N1295 1.613 . S
S1294 N1296 1.610 . S
N1295 S1294 1.613 . S
N1295 C1298 1.350 . S
N1296 S1294 1.610 . S
N1296 C1297 1.351 . S
C1297 C1291 1.428 . S
C1297 N1296 1.351 . S
C1297 C1298 1.434 . S
C1298 C1289 1.429 . S
C1298 N1295 1.350 . S
C1298 C1297 1.434 . S
C1299 C1300 1.369 . S
C1299 C1301 1.419 . S
C1299 H1303 0.930 . S
C1300 C1299 1.369 . S
C1300 C1309 1.429 . S
C1301 C1299 1.419 . S
C1301 C1302 1.363 . S
C1301 H1304 0.929 . S
C1302 C1301 1.363 . S
C1302 C1308 1.428 . S
H1303 C1299 0.930 . S
H1304 C1301 0.929 . S
S1305 N1306 1.613 . S
S1305 N1307 1.610 . S
N1306 S1305 1.613 . S
N1306 C1309 1.350 . S
N1307 S1305 1.610 . S
N1307 C1308 1.351 . S
C1308 C1302 1.428 . S
C1308 N1307 1.351 . S
C1308 C1309 1.434 . S
C1309 C1300 1.429 . S
C1309 N1306 1.350 . S
C1309 C1308 1.434 . S
C1310 C1311 1.369 . S
C1310 C1312 1.419 . S
C1310 H1314 0.930 . S
C1311 C1310 1.369 . S
C1311 C1320 1.429 . S
C1312 C1310 1.419 . S
C1312 C1313 1.363 . S
C1312 H1315 0.929 . S
C1313 C1312 1.363 . S
C1313 C1319 1.428 . S
H1314 C1310 0.930 . S
H1315 C1312 0.929 . S
S1316 N1317 1.613 . S
S1316 N1318 1.610 . S
N1317 S1316 1.613 . S
N1317 C1320 1.350 . S
N1318 S1316 1.610 . S
N1318 C1319 1.351 . S
C1319 C1313 1.428 . S
C1319 N1318 1.351 . S
C1319 C1320 1.434 . S
C1320 C1311 1.429 . S
C1320 N1317 1.350 . S
C1320 C1319 1.434 . S
C1321 C1322 1.369 . S
C1321 C1323 1.419 . S
C1321 H1325 0.930 . S
C1322 C1321 1.369 . S
C1322 C1331 1.429 . S
C1323 C1321 1.419 . S
C1323 C1324 1.363 . S
C1323 H1326 0.929 . S
C1324 C1323 1.363 . S
C1324 C1330 1.428 . S
H1325 C1321 0.930 . S
H1326 C1323 0.929 . S
S1327 N1328 1.613 . S
S1327 N1329 1.610 . S
N1328 S1327 1.613 . S
N1328 C1331 1.350 . S
N1329 S1327 1.610 . S
N1329 C1330 1.351 . S
C1330 C1324 1.428 . S
C1330 N1329 1.351 . S
C1330 C1331 1.434 . S
C1331 C1322 1.429 . S
C1331 N1328 1.350 . S
C1331 C1330 1.434 . S
C1332 C1333 1.369 . S
C1332 C1334 1.419 . S
C1332 H1336 0.930 . S
C1333 C1332 1.369 . S
C1333 C1342 1.429 . S
C1334 C1332 1.419 . S
C1334 C1335 1.363 . S
C1334 H1337 0.929 . S
C1335 C1334 1.363 . S
C1335 C1341 1.428 . S
H1336 C1332 0.930 . S
H1337 C1334 0.929 . S
S1338 N1339 1.613 . S
S1338 N1340 1.610 . S
N1339 S1338 1.613 . S
N1339 C1342 1.350 . S
N1340 S1338 1.610 . S
N1340 C1341 1.351 . S
C1341 C1335 1.428 . S
C1341 N1340 1.351 . S
C1341 C1342 1.434 . S
C1342 C1333 1.429 . S
C1342 N1339 1.350 . S
C1342 C1341 1.434 . S
C1343 C1344 1.369 . S
C1343 C1345 1.419 . S
C1343 H1347 0.930 . S
C1344 C1343 1.369 . S
C1344 C1353 1.429 . S
C1345 C1343 1.419 . S
C1345 C1346 1.363 . S
C1345 H1348 0.929 . S
C1346 C1345 1.363 . S
C1346 C1352 1.428 . S
H1347 C1343 0.930 . S
H1348 C1345 0.929 . S
S1349 N1350 1.613 . S
S1349 N1351 1.610 . S
N1350 S1349 1.613 . S
N1350 C1353 1.350 . S
N1351 S1349 1.610 . S
N1351 C1352 1.351 . S
C1352 C1346 1.428 . S
C1352 N1351 1.351 . S
C1352 C1353 1.434 . S
C1353 C1344 1.429 . S
C1353 N1350 1.350 . S
C1353 C1352 1.434 . S
C1354 C1355 1.369 . S
C1354 C1356 1.419 . S
C1354 H1358 0.930 . S
C1355 C1354 1.369 . S
C1355 C1364 1.429 . S
C1356 C1354 1.419 . S
C1356 C1357 1.363 . S
C1356 H1359 0.929 . S
C1357 C1356 1.363 . S
C1357 C1363 1.428 . S
H1358 C1354 0.930 . S
H1359 C1356 0.929 . S
S1360 N1361 1.613 . S
S1360 N1362 1.610 . S
N1361 S1360 1.613 . S
N1361 C1364 1.350 . S
N1362 S1360 1.610 . S
N1362 C1363 1.351 . S
C1363 C1357 1.428 . S
C1363 N1362 1.351 . S
C1363 C1364 1.434 . S
C1364 C1355 1.429 . S
C1364 N1361 1.350 . S
C1364 C1363 1.434 . S
C1365 C1366 1.369 . S
C1365 C1367 1.419 . S
C1365 H1369 0.930 . S
C1366 C1365 1.369 . S
C1366 C1375 1.429 . S
C1367 C1365 1.419 . S
C1367 C1368 1.363 . S
C1367 H1370 0.929 . S
C1368 C1367 1.363 . S
C1368 C1374 1.428 . S
H1369 C1365 0.930 . S
H1370 C1367 0.929 . S
S1371 N1372 1.613 . S
S1371 N1373 1.610 . S
N1372 S1371 1.613 . S
N1372 C1375 1.350 . S
N1373 S1371 1.610 . S
N1373 C1374 1.351 . S
C1374 C1368 1.428 . S
C1374 N1373 1.351 . S
C1374 C1375 1.434 . S
C1375 C1366 1.429 . S
C1375 N1372 1.350 . S
C1375 C1374 1.434 . S
C1376 C1377 1.369 . S
C1376 C1378 1.419 . S
C1376 H1380 0.930 . S
C1377 C1376 1.369 . S
C1377 C1386 1.429 . S
C1378 C1376 1.419 . S
C1378 C1379 1.363 . S
C1378 H1381 0.929 . S
C1379 C1378 1.363 . S
C1379 C1385 1.428 . S
H1380 C1376 0.930 . S
H1381 C1378 0.929 . S
S1382 N1383 1.613 . S
S1382 N1384 1.610 . S
N1383 S1382 1.613 . S
N1383 C1386 1.350 . S
N1384 S1382 1.610 . S
N1384 C1385 1.351 . S
C1385 C1379 1.428 . S
C1385 N1384 1.351 . S
C1385 C1386 1.434 . S
C1386 C1377 1.429 . S
C1386 N1383 1.350 . S
C1386 C1385 1.434 . S
C1387 C1388 1.369 . S
C1387 C1389 1.419 . S
C1387 H1391 0.930 . S
C1388 C1387 1.369 . S
C1388 C1397 1.429 . S
C1389 C1387 1.419 . S
C1389 C1390 1.363 . S
C1389 H1392 0.929 . S
C1390 C1389 1.363 . S
C1390 C1396 1.428 . S
H1391 C1387 0.930 . S
H1392 C1389 0.929 . S
S1393 N1394 1.613 . S
S1393 N1395 1.610 . S
N1394 S1393 1.613 . S
N1394 C1397 1.350 . S
N1395 S1393 1.610 . S
N1395 C1396 1.351 . S
C1396 C1390 1.428 . S
C1396 N1395 1.351 . S
C1396 C1397 1.434 . S
C1397 C1388 1.429 . S
C1397 N1394 1.350 . S
C1397 C1396 1.434 . S
C1398 C1399 1.369 . S
C1398 C1400 1.419 . S
C1398 H1402 0.930 . S
C1399 C1398 1.369 . S
C1399 C1408 1.429 . S
C1400 C1398 1.419 . S
C1400 C1401 1.363 . S
C1400 H1403 0.929 . S
C1401 C1400 1.363 . S
C1401 C1407 1.428 . S
H1402 C1398 0.930 . S
H1403 C1400 0.929 . S
S1404 N1405 1.613 . S
S1404 N1406 1.610 . S
N1405 S1404 1.613 . S
N1405 C1408 1.350 . S
N1406 S1404 1.610 . S
N1406 C1407 1.351 . S
C1407 C1401 1.428 . S
C1407 N1406 1.351 . S
C1407 C1408 1.434 . S
C1408 C1399 1.429 . S
C1408 N1405 1.350 . S
C1408 C1407 1.434 . S
C1409 C1410 1.369 . S
C1409 C1411 1.419 . S
C1409 H1413 0.930 . S
C1410 C1409 1.369 . S
C1410 C1419 1.429 . S
C1411 C1409 1.419 . S
C1411 C1412 1.363 . S
C1411 H1414 0.929 . S
C1412 C1411 1.363 . S
C1412 C1418 1.428 . S
H1413 C1409 0.930 . S
H1414 C1411 0.929 . S
S1415 N1416 1.613 . S
S1415 N1417 1.610 . S
N1416 S1415 1.613 . S
N1416 C1419 1.350 . S
N1417 S1415 1.610 . S
N1417 C1418 1.351 . S
C1418 C1412 1.428 . S
C1418 N1417 1.351 . S
C1418 C1419 1.434 . S
C1419 C1410 1.429 . S
C1419 N1416 1.350 . S
C1419 C1418 1.434 . S
C1420 C1421 1.369 . S
C1420 C1422 1.419 . S
C1420 H1424 0.930 . S
C1421 C1420 1.369 . S
C1421 C1430 1.429 . S
C1422 C1420 1.419 . S
C1422 C1423 1.363 . S
C1422 H1425 0.929 . S
C1423 C1422 1.363 . S
C1423 C1429 1.428 . S
H1424 C1420 0.930 . S
H1425 C1422 0.929 . S
S1426 N1427 1.613 . S
S1426 N1428 1.610 . S
N1427 S1426 1.613 . S
N1427 C1430 1.350 . S
N1428 S1426 1.610 . S
N1428 C1429 1.351 . S
C1429 C1423 1.428 . S
C1429 N1428 1.351 . S
C1429 C1430 1.434 . S
C1430 C1421 1.429 . S
C1430 N1427 1.350 . S
C1430 C1429 1.434 . S
C1431 C1432 1.369 . S
C1431 C1433 1.419 . S
C1431 H1435 0.930 . S
C1432 C1431 1.369 . S
C1432 C1441 1.429 . S
C1433 C1431 1.419 . S
C1433 C1434 1.363 . S
C1433 H1436 0.929 . S
C1434 C1433 1.363 . S
C1434 C1440 1.428 . S
H1435 C1431 0.930 . S
H1436 C1433 0.929 . S
S1437 N1438 1.613 . S
S1437 N1439 1.610 . S
N1438 S1437 1.613 . S
N1438 C1441 1.350 . S
N1439 S1437 1.610 . S
N1439 C1440 1.351 . S
C1440 C1434 1.428 . S
C1440 N1439 1.351 . S
C1440 C1441 1.434 . S
C1441 C1432 1.429 . S
C1441 N1438 1.350 . S
C1441 C1440 1.434 . S
C1442 C1443 1.369 . S
C1442 C1444 1.419 . S
C1442 H1446 0.930 . S
C1443 C1442 1.369 . S
C1443 C1452 1.429 . S
C1444 C1442 1.419 . S
C1444 C1445 1.363 . S
C1444 H1447 0.929 . S
C1445 C1444 1.363 . S
C1445 C1451 1.428 . S
H1446 C1442 0.930 . S
H1447 C1444 0.929 . S
S1448 N1449 1.613 . S
S1448 N1450 1.610 . S
N1449 S1448 1.613 . S
N1449 C1452 1.350 . S
N1450 S1448 1.610 . S
N1450 C1451 1.351 . S
C1451 C1445 1.428 . S
C1451 N1450 1.351 . S
C1451 C1452 1.434 . S
C1452 C1443 1.429 . S
C1452 N1449 1.350 . S
C1452 C1451 1.434 . S
C1453 C1454 1.369 . S
C1453 C1455 1.419 . S
C1453 H1457 0.930 . S
C1454 C1453 1.369 . S
C1454 C1463 1.429 . S
C1455 C1453 1.419 . S
C1455 C1456 1.363 . S
C1455 H1458 0.929 . S
C1456 C1455 1.363 . S
C1456 C1462 1.428 . S
H1457 C1453 0.930 . S
H1458 C1455 0.929 . S
S1459 N1460 1.613 . S
S1459 N1461 1.610 . S
N1460 S1459 1.613 . S
N1460 C1463 1.350 . S
N1461 S1459 1.610 . S
N1461 C1462 1.351 . S
C1462 C1456 1.428 . S
C1462 N1461 1.351 . S
C1462 C1463 1.434 . S
C1463 C1454 1.429 . S
C1463 N1460 1.350 . S
C1463 C1462 1.434 . S
C1464 C1465 1.369 . S
C1464 C1466 1.419 1_554 S
C1464 H1468 0.930 . S
C1465 C1464 1.369 . S
C1465 C1474 1.429 . S
C1466 C1464 1.419 1_556 S
C1466 C1467 1.363 . S
C1466 H1469 0.929 . S
C1467 C1466 1.363 . S
C1467 C1473 1.428 . S
H1468 C1464 0.930 . S
H1469 C1466 0.929 . S
S1470 N1471 1.613 . S
S1470 N1472 1.610 1_554 S
N1471 S1470 1.613 . S
N1471 C1474 1.350 . S
N1472 S1470 1.610 1_556 S
N1472 C1473 1.351 . S
C1473 C1467 1.428 . S
C1473 N1472 1.351 . S
C1473 C1474 1.434 1_556 S
C1474 C1465 1.429 . S
C1474 N1471 1.350 . S
C1474 C1473 1.434 1_554 S
C1475 C1476 1.369 . S
C1475 C1477 1.419 1_556 S
C1475 H1479 0.930 . S
C1476 C1475 1.369 . S
C1476 C1485 1.429 . S
C1477 C1475 1.419 1_554 S
C1477 C1478 1.363 . S
C1477 H1480 0.929 . S
C1478 C1477 1.363 . S
C1478 C1484 1.428 . S
H1479 C1475 0.930 . S
H1480 C1477 0.929 . S
S1481 N1482 1.613 . S
S1481 N1483 1.610 1_556 S
N1482 S1481 1.613 . S
N1482 C1485 1.350 . S
N1483 S1481 1.610 1_554 S
N1483 C1484 1.351 . S
C1484 C1478 1.428 . S
C1484 N1483 1.351 . S
C1484 C1485 1.434 1_554 S
C1485 C1476 1.429 . S
C1485 N1482 1.350 . S
C1485 C1484 1.434 1_556 S
C1486 C1487 1.369 . S
C1486 C1488 1.419 1_554 S
C1486 H1490 0.930 . S
C1487 C1486 1.369 . S
C1487 C1496 1.429 . S
C1488 C1486 1.419 1_556 S
C1488 C1489 1.363 . S
C1488 H1491 0.929 . S
C1489 C1488 1.363 . S
C1489 C1495 1.428 . S
H1490 C1486 0.930 . S
H1491 C1488 0.929 . S
S1492 N1493 1.613 . S
S1492 N1494 1.610 1_554 S
N1493 S1492 1.613 . S
N1493 C1496 1.350 . S
N1494 S1492 1.610 1_556 S
N1494 C1495 1.351 . S
C1495 C1489 1.428 . S
C1495 N1494 1.351 . S
C1495 C1496 1.434 1_556 S
C1496 C1487 1.429 . S
C1496 N1493 1.350 . S
C1496 C1495 1.434 1_554 S
C1497 C1498 1.369 . S
C1497 C1499 1.419 1_554 S
C1497 H1501 0.930 . S
C1498 C1497 1.369 . S
C1498 C1507 1.429 . S
C1499 C1497 1.419 1_556 S
C1499 C1500 1.363 . S
C1499 H1502 0.929 . S
C1500 C1499 1.363 . S
C1500 C1506 1.428 . S
H1501 C1497 0.930 . S
H1502 C1499 0.929 . S
S1503 N1504 1.620 . S
S1503 N1505 1.603 1_554 S
N1504 S1503 1.620 . S
N1504 C1507 1.350 . S
N1505 S1503 1.603 1_556 S
N1505 C1506 1.351 . S
C1506 C1500 1.428 . S
C1506 N1505 1.351 . S
C1506 C1507 1.434 1_556 S
C1507 C1498 1.429 . S
C1507 N1504 1.350 . S
C1507 C1506 1.434 1_554 S
C1508 C1509 1.369 . S
C1508 C1510 1.419 1_556 S
C1508 H1512 0.930 . S
C1509 C1508 1.369 . S
C1509 C1518 1.429 . S
C1510 C1508 1.419 1_554 S
C1510 C1511 1.363 . S
C1510 H1513 0.929 . S
C1511 C1510 1.363 . S
C1511 C1517 1.428 . S
H1512 C1508 0.930 . S
H1513 C1510 0.929 . S
S1514 N1515 1.613 1_554 S
S1514 N1516 1.610 . S
N1515 S1514 1.613 1_556 S
N1515 C1518 1.350 . S
N1516 S1514 1.610 . S
N1516 C1517 1.351 . S
C1517 C1511 1.428 . S
C1517 N1516 1.351 . S
C1517 C1518 1.434 1_554 S
C1518 C1509 1.429 . S
C1518 N1515 1.350 . S
C1518 C1517 1.434 1_556 S
C1519 C1520 1.369 . S
C1519 C1521 1.419 1_554 S
C1519 H1523 0.930 . S
C1520 C1519 1.369 . S
C1520 C1529 1.429 . S
C1521 C1519 1.419 1_556 S
C1521 C1522 1.363 . S
C1521 H1524 0.929 . S
C1522 C1521 1.363 . S
C1522 C1528 1.428 . S
H1523 C1519 0.930 . S
H1524 C1521 0.929 . S
S1525 N1526 1.613 . S
S1525 N1527 1.610 1_554 S
N1526 S1525 1.613 . S
N1526 C1529 1.350 . S
N1527 S1525 1.610 1_556 S
N1527 C1528 1.351 . S
C1528 C1522 1.428 . S
C1528 N1527 1.351 . S
C1528 C1529 1.434 1_556 S
C1529 C1520 1.429 . S
C1529 N1526 1.350 . S
C1529 C1528 1.434 1_554 S
C1530 C1531 1.369 . S
C1530 C1532 1.419 1_556 S
C1530 H1534 0.930 . S
C1531 C1530 1.369 . S
C1531 C1540 1.429 . S
C1532 C1530 1.419 1_554 S
C1532 C1533 1.363 . S
C1532 H1535 0.929 . S
C1533 C1532 1.363 . S
C1533 C1539 1.428 . S
H1534 C1530 0.930 . S
H1535 C1532 0.929 . S
S1536 N1537 1.613 1_554 S
S1536 N1538 1.610 . S
N1537 S1536 1.613 1_556 S
N1537 C1540 1.350 . S
N1538 S1536 1.610 . S
N1538 C1539 1.351 . S
C1539 C1533 1.428 . S
C1539 N1538 1.351 . S
C1539 C1540 1.434 1_554 S
C1540 C1531 1.429 . S
C1540 N1537 1.350 . S
C1540 C1539 1.434 1_556 S
C1541 C1542 1.369 . S
C1541 C1543 1.419 1_554 S
C1541 H1545 0.930 . S
C1542 C1541 1.369 . S
C1542 C1551 1.429 . S
C1543 C1541 1.419 1_556 S
C1543 C1544 1.363 . S
C1543 H1546 0.929 . S
C1544 C1543 1.363 . S
C1544 C1550 1.428 . S
H1545 C1541 0.930 . S
H1546 C1543 0.929 . S
S1547 N1548 1.613 . S
S1547 N1549 1.610 1_554 S
N1548 S1547 1.613 . S
N1548 C1551 1.350 . S
N1549 S1547 1.610 1_556 S
N1549 C1550 1.351 . S
C1550 C1544 1.428 . S
C1550 N1549 1.351 . S
C1550 C1551 1.434 1_556 S
C1551 C1542 1.429 . S
C1551 N1548 1.350 . S
C1551 C1550 1.434 1_554 S
C1552 C1553 1.369 . S
C1552 C1554 1.419 1_455 S
C1552 H1556 0.930 . S
C1553 C1552 1.369 . S
C1553 C1562 1.429 . S
C1554 C1552 1.419 1_655 S
C1554 C1555 1.363 . S
C1554 H1557 0.929 . S
C1555 C1554 1.363 . S
C1555 C1561 1.428 . S
H1556 C1552 0.930 . S
H1557 C1554 0.929 . S
S1558 N1559 1.613 . S
S1558 N1560 1.610 1_455 S
N1559 S1558 1.613 . S
N1559 C1562 1.350 . S
N1560 S1558 1.610 1_655 S
N1560 C1561 1.351 . S
C1561 C1555 1.428 . S
C1561 N1560 1.351 . S
C1561 C1562 1.434 1_655 S
C1562 C1553 1.429 . S
C1562 N1559 1.350 . S
C1562 C1561 1.434 1_455 S
C1563 C1564 1.369 . S
C1563 C1565 1.419 1_565 S
C1563 H1567 0.930 . S
C1564 C1563 1.369 . S
C1564 C1573 1.429 . S
C1565 C1563 1.419 1_545 S
C1565 C1566 1.363 . S
C1565 H1568 0.929 . S
C1566 C1565 1.363 . S
C1566 C1572 1.428 . S
H1567 C1563 0.930 . S
H1568 C1565 0.929 . S
S1569 N1570 1.613 . S
S1569 N1571 1.610 1_565 S
N1570 S1569 1.613 . S
N1570 C1573 1.350 . S
N1571 S1569 1.610 1_545 S
N1571 C1572 1.351 . S
C1572 C1566 1.428 . S
C1572 N1571 1.351 . S
C1572 C1573 1.434 1_545 S
C1573 C1564 1.429 . S
C1573 N1570 1.350 . S
C1573 C1572 1.434 1_565 S
C1574 C1575 1.369 . S
C1574 C1576 1.419 1_455 S
C1574 H1578 0.930 . S
C1575 C1574 1.369 . S
C1575 C1584 1.429 . S
C1576 C1574 1.419 1_655 S
C1576 C1577 1.363 . S
C1576 H1579 0.929 . S
C1577 C1576 1.363 . S
C1577 C1583 1.428 . S
H1578 C1574 0.930 . S
H1579 C1576 0.929 . S
S1580 N1581 1.613 . S
S1580 N1582 1.610 1_455 S
N1581 S1580 1.613 . S
N1581 C1584 1.350 . S
N1582 S1580 1.610 1_655 S
N1582 C1583 1.351 . S
C1583 C1577 1.428 . S
C1583 N1582 1.351 . S
C1583 C1584 1.434 1_655 S
C1584 C1575 1.429 . S
C1584 N1581 1.350 . S
C1584 C1583 1.434 1_455 S
C1585 C1586 1.369 . S
C1585 C1587 1.419 1_565 S
C1585 H1589 0.930 . S
C1586 C1585 1.369 . S
C1586 C1595 1.429 . S
C1587 C1585 1.419 1_545 S
C1587 C1588 1.363 . S
C1587 H1590 0.929 . S
C1588 C1587 1.363 . S
C1588 C1594 1.428 . S
H1589 C1585 0.930 . S
H1590 C1587 0.929 . S
S1591 N1592 1.613 1_545 S
S1591 N1593 1.610 . S
N1592 S1591 1.613 1_565 S
N1592 C1595 1.350 . S
N1593 S1591 1.610 . S
N1593 C1594 1.351 . S
C1594 C1588 1.428 . S
C1594 N1593 1.351 . S
C1594 C1595 1.434 1_545 S
C1595 C1586 1.429 . S
C1595 N1592 1.350 . S
C1595 C1594 1.434 1_565 S
C1596 C1597 1.369 . S
C1596 C1598 1.419 1_655 S
C1596 H1600 0.930 . S
C1597 C1596 1.369 . S
C1597 C1606 1.429 . S
C1598 C1596 1.419 1_455 S
C1598 C1599 1.363 . S
C1598 H1601 0.929 . S
C1599 C1598 1.363 . S
C1599 C1605 1.428 . S
H1600 C1596 0.930 . S
H1601 C1598 0.929 . S
S1602 N1603 1.613 1_455 S
S1602 N1604 1.610 . S
N1603 S1602 1.613 1_655 S
N1603 C1606 1.350 . S
N1604 S1602 1.610 . S
N1604 C1605 1.351 . S
C1605 C1599 1.428 . S
C1605 N1604 1.351 . S
C1605 C1606 1.434 1_455 S
C1606 C1597 1.429 . S
C1606 N1603 1.350 . S
C1606 C1605 1.434 1_655 S
C1607 C1608 1.369 . S
C1607 C1609 1.419 1_545 S
C1607 H1611 0.930 . S
C1608 C1607 1.369 . S
C1608 C1617 1.429 . S
C1609 C1607 1.419 1_565 S
C1609 C1610 1.363 . S
C1609 H1612 0.929 . S
C1610 C1609 1.363 . S
C1610 C1616 1.428 . S
H1611 C1607 0.930 . S
H1612 C1609 0.929 . S
S1613 N1614 1.613 1_565 S
S1613 N1615 1.610 . S
N1614 S1613 1.613 1_545 S
N1614 C1617 1.350 . S
N1615 S1613 1.610 . S
N1615 C1616 1.351 . S
C1616 C1610 1.428 . S
C1616 N1615 1.351 . S
C1616 C1617 1.434 1_565 S
C1617 C1608 1.429 . S
C1617 N1614 1.350 . S
C1617 C1616 1.434 1_545 S
C1618 C1619 1.369 . S
C1618 C1620 1.419 1_455 S
C1618 H1622 0.930 . S
C1619 C1618 1.369 . S
C1619 C1628 1.429 . S
C1620 C1618 1.419 1_655 S
C1620 C1621 1.363 . S
C1620 H1623 0.929 . S
C1621 C1620 1.363 . S
C1621 C1627 1.428 . S
H1622 C1618 0.930 . S
H1623 C1620 0.929 . S
S1624 N1625 1.613 1_655 S
S1624 N1626 1.610 . S
N1625 S1624 1.613 1_455 S
N1625 C1628 1.350 . S
N1626 S1624 1.610 . S
N1626 C1627 1.351 . S
C1627 C1621 1.428 . S
C1627 N1626 1.351 . S
C1627 C1628 1.434 1_655 S
C1628 C1619 1.429 . S
C1628 N1625 1.350 . S
C1628 C1627 1.434 1_455 S
C1629 C1630 1.369 . S
C1629 C1631 1.419 1_545 S
C1629 H1633 0.930 . S
C1630 C1629 1.369 . S
C1630 C1639 1.429 . S
C1631 C1629 1.419 1_565 S
C1631 C1632 1.363 . S
C1631 H1634 0.929 . S
C1632 C1631 1.363 . S
C1632 C1638 1.428 . S
H1633 C1629 0.930 . S
H1634 C1631 0.929 . S
S1635 N1636 1.616 1_565 S
S1635 N1637 1.607 . S
N1636 S1635 1.616 1_545 S
N1636 C1639 1.350 . S
N1637 S1635 1.607 . S
N1637 C1638 1.351 . S
C1638 C1632 1.428 . S
C1638 N1637 1.351 . S
C1638 C1639 1.434 1_565 S
C1639 C1630 1.429 . S
C1639 N1636 1.350 . S
C1639 C1638 1.434 1_545 S
C1640 C1641 1.369 . S
C1640 C1642 1.419 1_545 S
C1640 H1644 0.930 . S
C1641 C1640 1.369 . S
C1641 C1650 1.429 . S
C1642 C1640 1.419 1_565 S
C1642 C1643 1.363 . S
C1642 H1645 0.929 . S
C1643 C1642 1.363 . S
C1643 C1649 1.428 . S
H1644 C1640 0.930 . S
H1645 C1642 0.929 . S
S1646 N1647 1.613 . S
S1646 N1648 1.610 1_545 S
N1647 S1646 1.613 . S
N1647 C1650 1.350 . S
N1648 S1646 1.610 1_565 S
N1648 C1649 1.351 . S
C1649 C1643 1.428 . S
C1649 N1648 1.351 . S
C1649 C1650 1.434 1_565 S
C1650 C1641 1.429 . S
C1650 N1647 1.350 . S
C1650 C1649 1.434 1_545 S
C1651 C1652 1.369 . S
C1651 C1653 1.419 1_545 S
C1651 H1655 0.930 . S
C1652 C1651 1.369 . S
C1652 C1661 1.429 . S
C1653 C1651 1.419 1_565 S
C1653 C1654 1.363 . S
C1653 H1656 0.929 . S
C1654 C1653 1.363 . S
C1654 C1660 1.428 . S
H1655 C1651 0.930 . S
H1656 C1653 0.929 . S
S1657 N1658 1.613 . S
S1657 N1659 1.610 1_545 S
N1658 S1657 1.613 . S
N1658 C1661 1.350 . S
N1659 S1657 1.610 1_565 S
N1659 C1660 1.351 . S
C1660 C1654 1.428 . S
C1660 N1659 1.351 . S
C1660 C1661 1.434 1_565 S
C1661 C1652 1.429 . S
C1661 N1658 1.350 . S
C1661 C1660 1.434 1_545 S
C1662 C1663 1.369 . S
C1662 C1664 1.419 1_655 S
C1662 H1666 0.930 . S
C1663 C1662 1.369 . S
C1663 C1672 1.429 . S
C1664 C1662 1.419 1_455 S
C1664 C1665 1.363 . S
C1664 H1667 0.929 . S
C1665 C1664 1.363 . S
C1665 C1671 1.428 . S
H1666 C1662 0.930 . S
H1667 C1664 0.929 . S
S1668 N1669 1.613 1_455 S
S1668 N1670 1.610 . S
N1669 S1668 1.613 1_655 S
N1669 C1672 1.350 . S
N1670 S1668 1.610 . S
N1670 C1671 1.351 . S
C1671 C1665 1.428 . S
C1671 N1670 1.351 . S
C1671 C1672 1.434 1_455 S
C1672 C1663 1.429 . S
C1672 N1669 1.350 . S
C1672 C1671 1.434 1_655 S
C1673 C1674 1.369 . S
C1673 C1675 1.419 1_545 S
C1673 H1677 0.930 . S
C1674 C1673 1.369 . S
C1674 C1683 1.429 . S
C1675 C1673 1.419 1_565 S
C1675 C1676 1.363 . S
C1675 H1678 0.929 . S
C1676 C1675 1.363 . S
C1676 C1682 1.428 . S
H1677 C1673 0.930 . S
H1678 C1675 0.929 . S
S1679 N1680 1.613 1_565 S
S1679 N1681 1.610 . S
N1680 S1679 1.613 1_545 S
N1680 C1683 1.350 . S
N1681 S1679 1.610 . S
N1681 C1682 1.351 . S
C1682 C1676 1.428 . S
C1682 N1681 1.351 . S
C1682 C1683 1.434 1_565 S
C1683 C1674 1.429 . S
C1683 N1680 1.350 . S
C1683 C1682 1.434 1_545 S
C1684 C1685 1.369 . S
C1684 C1686 1.419 1_455 S
C1684 H1688 0.930 . S
C1685 C1684 1.369 . S
C1685 C1694 1.429 . S
C1686 C1684 1.419 1_655 S
C1686 C1687 1.363 . S
C1686 H1689 0.929 . S
C1687 C1686 1.363 . S
C1687 C1693 1.428 . S
H1688 C1684 0.930 . S
H1689 C1686 0.929 . S
S1690 N1691 1.613 1_655 S
S1690 N1692 1.610 . S
N1691 S1690 1.613 1_455 S
N1691 C1694 1.350 . S
N1692 S1690 1.610 . S
N1692 C1693 1.351 . S
C1693 C1687 1.428 . S
C1693 N1692 1.351 . S
C1693 C1694 1.434 1_655 S
C1694 C1685 1.429 . S
C1694 N1691 1.350 . S
C1694 C1693 1.434 1_455 S
C1695 C1696 1.369 . S
C1695 C1697 1.419 1_545 S
C1695 H1699 0.930 . S
C1696 C1695 1.369 . S
C1696 C1705 1.429 . S
C1697 C1695 1.419 1_565 S
C1697 C1698 1.363 . S
C1697 H1700 0.929 . S
C1698 C1697 1.363 . S
C1698 C1704 1.428 . S
H1699 C1695 0.930 . S
H1700 C1697 0.929 . S
S1701 N1702 1.613 1_565 S
S1701 N1703 1.610 . S
N1702 S1701 1.613 1_545 S
N1702 C1705 1.350 . S
N1703 S1701 1.610 . S
N1703 C1704 1.351 . S
C1704 C1698 1.428 . S
C1704 N1703 1.351 . S
C1704 C1705 1.434 1_565 S
C1705 C1696 1.429 . S
C1705 N1702 1.350 . S
C1705 C1704 1.434 1_545 S
C1706 C1707 1.369 . S
C1706 C1708 1.419 1_655 S
C1706 H1710 0.930 . S
C1707 C1706 1.369 . S
C1707 C1716 1.429 . S
C1708 C1706 1.419 1_455 S
C1708 C1709 1.363 . S
C1708 H1711 0.929 . S
C1709 C1708 1.363 . S
C1709 C1715 1.428 . S
H1710 C1706 0.930 . S
H1711 C1708 0.929 . S
S1712 N1713 1.613 1_455 S
S1712 N1714 1.610 . S
N1713 S1712 1.613 1_655 S
N1713 C1716 1.350 . S
N1714 S1712 1.610 . S
N1714 C1715 1.351 . S
C1715 C1709 1.428 . S
C1715 N1714 1.351 . S
C1715 C1716 1.434 1_455 S
C1716 C1707 1.429 . S
C1716 N1713 1.350 . S
C1716 C1715 1.434 1_655 S
C1717 C1718 1.369 . S
C1717 C1719 1.419 1_455 S
C1717 H1721 0.930 . S
C1718 C1717 1.369 . S
C1718 C1727 1.429 . S
C1719 C1717 1.419 1_655 S
C1719 C1720 1.363 . S
C1719 H1722 0.929 . S
C1720 C1719 1.363 . S
C1720 C1726 1.428 . S
H1721 C1717 0.930 . S
H1722 C1719 0.929 . S
S1723 N1724 1.613 1_655 S
S1723 N1725 1.610 . S
N1724 S1723 1.613 1_455 S
N1724 C1727 1.350 . S
N1725 S1723 1.610 . S
N1725 C1726 1.351 . S
C1726 C1720 1.428 . S
C1726 N1725 1.351 . S
C1726 C1727 1.434 1_655 S
C1727 C1718 1.429 . S
C1727 N1724 1.350 . S
C1727 C1726 1.434 1_455 S
C673 C554 1.356 . S
C675 C3 1.358 . S
C684 C22 1.375 . S
C686 C507 1.374 . S
C695 C31 1.352 . S
C697 C526 1.352 . S
C706 C540 1.344 . S
C708 C50 1.341 . S
C717 C470 1.275 . S
C719 C59 1.273 . S
C728 C73 1.384 . S
C730 C484 1.391 . S
C739 C87 1.299 . S
C741 C493 1.295 . S
C750 C101 1.417 . S
C752 C451 1.422 . S
C761 C120 1.419 . S
C763 C437 1.415 . S
C772 C400 1.314 . S
C774 C129 1.313 . S
C783 C409 1.367 . S
C785 C148 1.371 . S
C794 C157 1.309 . S
C796 C428 1.311 . S
C805 C176 1.280 . S
C807 C358 1.278 . S
C816 C185 1.326 . S
C818 C367 1.324 . S
C827 C386 1.229 . S
C829 C204 1.229 . S
C838 C339 1.389 . S
C840 C213 1.392 . S
C849 C232 1.422 . S
C851 C624 1.420 . S
C860 C661 1.400 . S
C862 C241 1.396 . S
C871 C638 1.389 . S
C873 C260 1.388 . S
C882 C647 1.333 . S
C884 C269 1.330 . S
C893 C568 1.366 . S
C895 C288 1.367 . S
C904 C596 1.399 . S
C906 C302 1.398 . S
C915 C316 1.293 . S
C917 C605 1.293 . S
C926 C577 1.244 . S
C928 C330 1.244 . S
C937 C456 1.358 . S
C939 C283 1.356 . S
C948 C246 1.373 . S
C950 C465 1.376 . S
C959 C479 1.368 . S
C961 C255 1.371 . S
C970 C498 1.352 . S
C972 C274 1.349 . S
C981 C325 1.281 . S
C983 C512 1.283 . S
C992 C521 1.412 . S
C994 C297 1.406 . S
C1003 C311 1.299 . S
C1005 C535 1.295 . S
C1014 C227 1.415 . S
C1016 C549 1.421 . S
C1025 C563 1.416 . S
C1027 C218 1.418 . S
C1036 C171 1.330 . S
C1038 C666 1.328 . S
C1047 C633 1.372 . S
C1049 C190 1.374 . S
C1058 C199 1.253 . S
C1060 C652 1.254 . S
C1069 C134 1.227 . S
C1071 C582 1.226 . S
C1080 C143 1.328 . S
C1082 C591 1.327 . S
C1091 C162 1.242 . S
C1093 C610 1.242 . S
C1102 C619 1.388 . S
C1104 C115 1.392 . S
C1113 C344 1.418 . S
C1115 C106 1.420 . S
C1124 C395 1.390 . S
C1126 C17 1.387 . S
C1135 C414 1.360 . S
C1137 C36 1.361 . S
C1146 C423 1.337 . S
C1148 C45 1.334 . S
C1157 C442 1.364 . S
C1159 C8 1.365 . S
C1168 C78 1.371 . S
C1170 C372 1.369 . S
C1179 C381 1.286 . S
C1181 C92 1.286 . S
C1190 C353 1.247 . S
C1192 C64 1.248 . S
C1201 C7 1.505 . S
C1203 C371 1.505 . S
C1212 C387 1.409 . S
C1214 C23 1.407 . S
C1223 C35 1.508 . S
C1225 C343 1.506 . S
C1234 C51 1.408 . S
C1236 C359 1.403 . S
C1245 C63 1.451 . S
C1247 C429 1.452 . S
C1256 C441 1.508 . S
C1258 C77 1.507 . S
C1267 C91 1.464 . S
C1269 C401 1.463 . S
C1278 C413 1.524 . S
C1280 C105 1.522 . S
C1289 C121 1.538 . S
C1291 C511 1.534 . S
C1300 C527 1.468 . S
C1302 C133 1.478 . S
C1311 C149 1.480 . S
C1313 C541 1.488 . S
C1322 C161 1.480 . S
C1324 C555 1.478 . S
C1333 C177 1.499 . S
C1335 C455 1.491 . S
C1344 C189 1.460 . S
C1346 C471 1.462 . S
C1355 C485 1.442 . S
C1357 C205 1.440 . S
C1366 C217 1.509 . S
C1368 C497 1.516 . S
C1377 C609 1.485 . S
C1379 C233 1.492 . S
C1388 C245 1.487 . S
C1390 C639 1.497 . S
C1399 C261 1.514 . S
C1401 C651 1.509 . S
C1410 C569 1.471 . S
C1412 C273 1.457 . S
C1421 C665 1.504 . S
C1423 C289 1.512 . S
C1432 C303 1.467 . S
C1434 C581 1.461 . S
C1443 C597 1.472 . S
C1445 C317 1.467 . S
C1454 C331 1.449 . S
C1456 C625 1.465 . S
C1465 C595 1.510 . S
C1467 C287 1.511 . S
C1476 C247 1.417 . S
C1478 C611 1.418 . S
C1487 C623 1.507 . S
C1489 C259 1.512 . S
C1498 C583 1.400 . S
C1500 C275 1.402 . S
C1509 C653 1.448 . S
C1511 C329 1.451 . S
C1520 C301 1.514 . S
C1522 C567 1.515 . S
C1531 C667 1.470 . S
C1533 C315 1.466 . S
C1542 C231 1.523 . S
C1544 C637 1.524 . S
C1553 C469 1.539 . S
C1555 C219 1.538 . S
C1564 C175 1.504 . S
C1566 C483 1.491 . S
C1575 C191 1.479 . S
C1577 C499 1.488 . S
C1586 C457 1.452 . S
C1588 C203 1.451 . S
C1597 C135 1.472 . S
C1599 C553 1.465 . S
C1608 C513 1.457 . S
C1610 C147 1.457 . S
C1619 C163 1.464 . S
C1621 C525 1.465 . S
C1630 C119 1.506 . S
C1632 C539 1.514 . S
C1641 C385 1.488 . S
C1643 C107 1.487 . S
C1652 C21 1.475 . S
C1654 C415 1.487 . S
C1663 C37 1.495 . S
C1665 C427 1.487 . S
C1674 C443 1.461 . S
C1676 C49 1.456 . S
C1685 C9 1.508 . S
C1687 C399 1.503 . S
C1696 C79 1.448 . S
C1698 C357 1.440 . S
C1707 C93 1.462 . S
C1709 C373 1.468 . S
C1718 C65 1.455 . S
C1720 C345 1.464 . S
