# Generated by pormake.
# Topology wkj, (6)-cn, num edge types: 1
# Building blocks:
#     Node 0, Type 0, BuildingBlock: NUHQIS_clean_sbu_0, # of connection points: 6
#     Node 1, Type 0, BuildingBlock: NUHQIS_clean_sbu_0, # of connection points: 6
#     Node 2, Type 0, BuildingBlock: NUHQIS_clean_sbu_0, # of connection points: 6
#     Node 3, Type 0, BuildingBlock: NUHQIS_clean_sbu_0, # of connection points: 6
#     Node 4, Type 0, BuildingBlock: NUHQIS_clean_sbu_0, # of connection points: 6
#     Node 5, Type 0, BuildingBlock: NUHQIS_clean_sbu_0, # of connection points: 6
#     Node 6, Type 0, BuildingBlock: NUHQIS_clean_sbu_0, # of connection points: 6
#     Node 7, Type 0, BuildingBlock: NUHQIS_clean_sbu_0, # of connection points: 6
#     Node 8, Type 0, BuildingBlock: NUHQIS_clean_sbu_0, # of connection points: 6
#     Node 9, Type 0, BuildingBlock: NUHQIS_clean_sbu_0, # of connection points: 6
#     Node 10, Type 0, BuildingBlock: NUHQIS_clean_sbu_0, # of connection points: 6
#     Node 11, Type 0, BuildingBlock: NUHQIS_clean_sbu_0, # of connection points: 6
#     Edge 12, Type (0, 0), BuildingBlock: ZUJKAS_clean_linker_0, # of connection points: 2
#     Edge 13, Type (0, 0), BuildingBlock: ZUJKAS_clean_linker_0, # of connection points: 2
#     Edge 14, Type (0, 0), BuildingBlock: ZUJKAS_clean_linker_0, # of connection points: 2
#     Edge 15, Type (0, 0), BuildingBlock: ZUJKAS_clean_linker_0, # of connection points: 2
#     Edge 16, Type (0, 0), BuildingBlock: ZUJKAS_clean_linker_0, # of connection points: 2
#     Edge 17, Type (0, 0), BuildingBlock: ZUJKAS_clean_linker_0, # of connection points: 2
#     Edge 18, Type (0, 0), BuildingBlock: ZUJKAS_clean_linker_0, # of connection points: 2
#     Edge 19, Type (0, 0), BuildingBlock: ZUJKAS_clean_linker_0, # of connection points: 2
#     Edge 20, Type (0, 0), BuildingBlock: ZUJKAS_clean_linker_0, # of connection points: 2
#     Edge 21, Type (0, 0), BuildingBlock: ZUJKAS_clean_linker_0, # of connection points: 2
#     Edge 22, Type (0, 0), BuildingBlock: ZUJKAS_clean_linker_0, # of connection points: 2
#     Edge 23, Type (0, 0), BuildingBlock: ZUJKAS_clean_linker_0, # of connection points: 2
#     Edge 24, Type (0, 0), BuildingBlock: ZUJKAS_clean_linker_0, # of connection points: 2
#     Edge 25, Type (0, 0), BuildingBlock: ZUJKAS_clean_linker_0, # of connection points: 2
#     Edge 26, Type (0, 0), BuildingBlock: ZUJKAS_clean_linker_0, # of connection points: 2
#     Edge 27, Type (0, 0), BuildingBlock: ZUJKAS_clean_linker_0, # of connection points: 2
#     Edge 28, Type (0, 0), BuildingBlock: ZUJKAS_clean_linker_0, # of connection points: 2
#     Edge 29, Type (0, 0), BuildingBlock: ZUJKAS_clean_linker_0, # of connection points: 2
#     Edge 30, Type (0, 0), BuildingBlock: ZUJKAS_clean_linker_0, # of connection points: 2
#     Edge 31, Type (0, 0), BuildingBlock: ZUJKAS_clean_linker_0, # of connection points: 2
#     Edge 32, Type (0, 0), BuildingBlock: ZUJKAS_clean_linker_0, # of connection points: 2
#     Edge 33, Type (0, 0), BuildingBlock: ZUJKAS_clean_linker_0, # of connection points: 2
#     Edge 34, Type (0, 0), BuildingBlock: ZUJKAS_clean_linker_0, # of connection points: 2
#     Edge 35, Type (0, 0), BuildingBlock: ZUJKAS_clean_linker_0, # of connection points: 2
#     Edge 36, Type (0, 0), BuildingBlock: ZUJKAS_clean_linker_0, # of connection points: 2
#     Edge 37, Type (0, 0), BuildingBlock: ZUJKAS_clean_linker_0, # of connection points: 2
#     Edge 38, Type (0, 0), BuildingBlock: ZUJKAS_clean_linker_0, # of connection points: 2
#     Edge 39, Type (0, 0), BuildingBlock: ZUJKAS_clean_linker_0, # of connection points: 2
#     Edge 40, Type (0, 0), BuildingBlock: ZUJKAS_clean_linker_0, # of connection points: 2
#     Edge 41, Type (0, 0), BuildingBlock: ZUJKAS_clean_linker_0, # of connection points: 2
#     Edge 42, Type (0, 0), BuildingBlock: ZUJKAS_clean_linker_0, # of connection points: 2
#     Edge 43, Type (0, 0), BuildingBlock: ZUJKAS_clean_linker_0, # of connection points: 2
#     Edge 44, Type (0, 0), BuildingBlock: ZUJKAS_clean_linker_0, # of connection points: 2
#     Edge 45, Type (0, 0), BuildingBlock: ZUJKAS_clean_linker_0, # of connection points: 2
#     Edge 46, Type (0, 0), BuildingBlock: ZUJKAS_clean_linker_0, # of connection points: 2
#     Edge 47, Type (0, 0), BuildingBlock: ZUJKAS_clean_linker_0, # of connection points: 2
# Relax obj value: 0.573
# Max RMSD: 0.176
# Mean RMSD: 0.176
data_MOF--net-wkj--node1-NUHQIS_clean_sbu_0--edge1-ZUJKAS_clean_linker_0
_symmetry_space_group_name_H-M    P1
_symmetry_Int_Tables_number       1
_symmetry_cell_setting            triclinic
loop_
_symmetry_equiv_pos_as_xyz
'x, y, z'
_cell_length_a     61.857409
_cell_length_b     62.047167
_cell_length_c     37.238624
_cell_angle_alpha  89.69666
_cell_angle_beta   90.301769
_cell_angle_gamma 120.13781
loop_
_atom_site_label
_atom_site_type_symbol
_atom_site_fract_x
_atom_site_fract_y
_atom_site_fract_z
_atom_type_partial_charge
Tb0 Tb 0.5136 0.10229 0.3502 0.0
Eu1 Eu 0.5717 0.12342 0.3303 0.0
C2 C 0.54696 0.15719 0.32088 0.0
C3 C 0.52564 0.08681 0.27422 0.0
C4 C 0.45072 0.07843 0.39309 0.0
C5 C 0.40806 0.06103 0.41381 0.0
C6 C 0.4259 0.07212 0.38677 0.0
C7 C 0.45768 0.07357 0.4267 0.0
C8 C 0.43985 0.06254 0.45384 0.0
C9 C 0.41485 0.05616 0.44764 0.0
C10 C 0.46892 0.08986 0.36411 0.0
O11 O 0.52172 0.07601 0.37679 0.0
O12 O 0.56063 0.08616 0.3547 0.0
O13 O 0.5729 0.12467 0.3916 0.0
O14 O 0.53219 0.11384 0.40418 0.0
C15 C 0.54122 0.07282 0.37549 0.0
O16 O 0.59983 0.12838 0.29062 0.0
O17 O 0.61153 0.14627 0.34213 0.0
O18 O 0.5668 0.15694 0.33217 0.0
O19 O 0.52579 0.13613 0.31763 0.0
O20 O 0.50973 0.08133 0.30081 0.0
O21 O 0.54932 0.10448 0.27838 0.0
C22 C 0.55526 0.12046 0.41509 0.0
O23 O 0.48802 0.11193 0.37049 0.0
O24 O 0.47548 0.07541 0.3481 0.0
C25 C 0.63242 0.17026 0.29094 0.0
C26 C 0.64679 0.21372 0.24989 0.0
C27 C 0.64588 0.1926 0.23435 0.0
C28 C 0.63886 0.17115 0.25473 0.0
C29 C 0.63579 0.19215 0.30738 0.0
C30 C 0.64299 0.21368 0.28705 0.0
C31 C 0.61814 0.14584 0.30916 0.0
H32 H 0.38903 0.05653 0.40837 0.0
H33 H 0.42031 0.07579 0.36087 0.0
H34 H 0.4768 0.07823 0.43184 0.0
H35 H 0.44555 0.05868 0.4795 0.0
H36 H 0.64843 0.19174 0.20576 0.0
H37 H 0.6365 0.1546 0.24145 0.0
H38 H 0.63123 0.19224 0.33539 0.0
H39 H 0.644 0.22974 0.30002 0.0
Tb40 Tb 0.40074 0.48648 0.6887 0.0
Eu41 Eu 0.43916 0.54439 0.67184 0.0
C42 C 0.3814 0.5198 0.65542 0.0
C43 C 0.43426 0.49971 0.61737 0.0
C44 C 0.35891 0.42707 0.73507 0.0
C45 C 0.3269 0.39154 0.76784 0.0
C46 C 0.33494 0.40604 0.73663 0.0
C47 C 0.37478 0.43363 0.76497 0.0
C48 C 0.36686 0.4191 0.79602 0.0
C49 C 0.34279 0.39792 0.79791 0.0
C50 C 0.36698 0.44251 0.70263 0.0
O51 O 0.43273 0.4943 0.72165 0.0
O52 O 0.46368 0.53149 0.69784 0.0
O53 O 0.43595 0.54524 0.73239 0.0
O54 O 0.40365 0.50518 0.74185 0.0
C55 C 0.45597 0.5128 0.72073 0.0
O56 O 0.45946 0.57279 0.63093 0.0
O57 O 0.4597 0.58403 0.68554 0.0
O58 O 0.40009 0.53856 0.67144 0.0
O59 O 0.38229 0.49938 0.65086 0.0
O60 O 0.42091 0.48295 0.64212 0.0
O61 O 0.44056 0.52331 0.62182 0.0
C62 C 0.42007 0.52778 0.75432 0.0
O63 O 0.36354 0.4616 0.70294 0.0
O64 O 0.38904 0.4484 0.69046 0.0
C65 C 0.45317 0.60652 0.64041 0.0
C66 C 0.4309 0.63442 0.61829 0.0
C67 C 0.45611 0.64656 0.62933 0.0
C68 C 0.46713 0.63265 0.64071 0.0
C69 C 0.42808 0.59456 0.62954 0.0
C70 C 0.41702 0.60827 0.6189 0.0
C71 C 0.46387 0.59118 0.65218 0.0
H72 H 0.3082 0.37551 0.76855 0.0
H73 H 0.32242 0.40092 0.71378 0.0
H74 H 0.39332 0.44995 0.76425 0.0
H75 H 0.37979 0.4243 0.81837 0.0
H76 H 0.46731 0.66671 0.62864 0.0
H77 H 0.48651 0.64221 0.6492 0.0
H78 H 0.41708 0.57447 0.62841 0.0
H79 H 0.39784 0.59828 0.60945 0.0
Tb80 Tb 0.92999 0.38756 1.01399 0.0
Eu81 Eu 0.9202 0.43388 1.01081 0.0
C82 C 0.87958 0.37926 0.98471 0.0
C83 C 0.95278 0.42687 0.94778 0.0
C84 C 0.9412 0.33797 1.04702 0.0
C85 C 0.93907 0.32603 1.1097 0.0
C86 C 0.92942 0.33286 1.08068 0.0
C87 C 0.96198 0.33485 1.0425 0.0
C88 C 0.97181 0.32827 1.07167 0.0
C89 C 0.9608 0.32443 1.10575 0.0
C90 C 0.93379 0.34905 1.01774 0.0
O91 O 0.95802 0.4124 1.05006 0.0
O92 O 0.95912 0.44919 1.03589 0.0
O93 O 0.91458 0.42531 1.06938 0.0
O94 O 0.91584 0.38886 1.0701 0.0
C95 C 0.96789 0.43642 1.05318 0.0
O96 O 0.91857 0.46244 0.97817 0.0
O97 O 0.90865 0.45878 1.03405 0.0
O98 O 0.88251 0.39816 1.004 0.0
O99 O 0.89926 0.3777 0.97674 0.0
O100 O 0.95495 0.41075 0.96897 0.0
O101 O 0.93734 0.43473 0.95653 0.0
C102 C 0.91259 0.4061 1.08695 0.0
O103 O 0.9127 0.34887 1.02161 0.0
O104 O 0.95152 0.37052 1.00595 0.0
C105 C 0.88368 0.46564 0.99313 0.0
C106 C 0.83876 0.45586 0.95956 0.0
C107 C 0.86022 0.47974 0.95742 0.0
C108 C 0.88259 0.48451 0.97387 0.0
C109 C 0.86178 0.4426 0.99809 0.0
C110 C 0.83955 0.43775 0.9815 0.0
C111 C 0.9079 0.46834 1.00323 0.0
H112 H 0.93042 0.32355 0.13577 0.0
H113 H 0.91346 0.33525 1.08512 0.0
H114 H 0.97133 0.33867 1.01677 0.0
H115 H 0.98854 0.32709 1.06792 0.0
H116 H 0.86015 0.49423 0.94118 0.0
H117 H 0.89933 0.50242 0.9698 0.0
H118 H 0.86221 0.42772 1.01283 0.0
H119 H 0.82365 0.41906 0.9835 0.0
Tb120 Tb 0.52863 0.92424 0.35666 0.0
Eu121 Eu 0.46954 0.8936 0.33242 0.0
C122 C 0.50524 0.86945 0.32898 0.0
C123 C 0.51361 0.93135 0.27678 0.0
C124 C 0.59301 0.95696 0.39955 0.0
C125 C 0.63683 0.97655 0.41595 0.0
C126 C 0.61818 0.96788 0.38971 0.0
C127 C 0.5865 0.95354 0.43602 0.0
C128 C 0.60518 0.96218 0.46234 0.0
C129 C 0.63057 0.97443 0.45251 0.0
C130 C 0.57443 0.95189 0.37139 0.0
O131 O 0.51105 0.94675 0.34874 0.0
O132 O 0.47195 0.92356 0.36821 0.0
O133 O 0.46956 0.88738 0.39364 0.0
O134 O 0.51083 0.91301 0.41014 0.0
C135 C 0.49315 0.94443 0.36988 0.0
O136 O 0.43676 0.88714 0.30098 0.0
O137 O 0.43443 0.85889 0.33783 0.0
O138 O 0.48816 0.87252 0.31255 0.0
O139 O 0.5197 0.88535 0.35365 0.0
O140 O 0.52942 0.92851 0.29758 0.0
O141 O 0.49009 0.92229 0.28707 0.0
C142 C 0.48708 0.89803 0.4188 0.0
O143 O 0.56553 0.93093 0.35408 0.0
O144 O 0.55714 0.95727 0.37886 0.0
C145 C 0.4124 0.84433 0.28355 0.0
C146 C 0.3984 0.80754 0.23018 0.0
C147 C 0.40574 0.83226 0.22071 0.0
C148 C 0.41273 0.85051 0.24714 0.0
C149 C 0.40329 0.81923 0.29305 0.0
C150 C 0.3966 0.80107 0.26662 0.0
C151 C 0.42364 0.86387 0.31147 0.0
H152 H 0.6562 0.98561 0.40761 0.0
H153 H 0.62348 0.97063 0.36164 0.0
H154 H 0.56713 0.94519 0.44411 0.0
H155 H 0.59979 0.96048 0.49029 0.0
H156 H 0.40747 0.83781 0.19276 0.0
H157 H 0.41944 0.8696 0.2389 0.0
H158 H 0.40244 0.8138 0.32093 0.0
H159 H 0.39078 0.78211 0.27462 0.0
Tb160 Tb 0.6125 0.51951 0.68382 0.0
Eu161 Eu 0.57571 0.46042 0.66997 0.0
C162 C 0.6348 0.48744 0.6526 0.0
C163 C 0.58068 0.50205 0.61168 0.0
C164 C 0.64399 0.58369 0.72165 0.0
C165 C 0.66035 0.62627 0.7416 0.0
C166 C 0.65579 0.60925 0.7141 0.0
C167 C 0.63656 0.57518 0.75686 0.0
C168 C 0.64118 0.59215 0.78436 0.0
C169 C 0.65326 0.61788 0.77703 0.0
C170 C 0.6395 0.56611 0.69263 0.0
O171 O 0.57404 0.50992 0.69355 0.0
O172 O 0.55538 0.46968 0.71132 0.0
O173 O 0.58817 0.46272 0.72909 0.0
O174 O 0.60676 0.50489 0.74001 0.0
C175 C 0.55889 0.49217 0.71537 0.0
O176 O 0.54263 0.42892 0.64593 0.0
O177 O 0.56906 0.42268 0.67604 0.0
O178 O 0.61226 0.47081 0.64179 0.0
O179 O 0.63806 0.50557 0.67396 0.0
O180 O 0.60332 0.51625 0.62544 0.0
O181 O 0.56513 0.48096 0.62812 0.0
C182 C 0.59773 0.48169 0.75192 0.0
O183 O 0.64701 0.55023 0.69853 0.0
O184 O 0.61727 0.55539 0.6785 0.0
C185 C 0.55236 0.39868 0.62423 0.0
C186 C 0.56707 0.37772 0.56916 0.0
C187 C 0.55951 0.39513 0.561 0.0
C188 C 0.55235 0.4056 0.58826 0.0
C189 C 0.55825 0.38004 0.63213 0.0
C190 C 0.56569 0.36975 0.60487 0.0
C191 C 0.55014 0.41316 0.65389 0.0
H192 H 0.66974 0.64598 0.73528 0.0
H193 H 0.66155 0.61605 0.68697 0.0
H194 H 0.62723 0.55546 0.76306 0.0
H195 H 0.63508 0.58513 0.81131 0.0
H196 H 0.56068 0.40189 0.53379 0.0
H197 H 0.54813 0.42007 0.58128 0.0
H198 H 0.55844 0.37444 0.65969 0.0
H199 H 0.57127 0.35628 0.61188 0.0
Tb200 Tb 0.10204 0.62907 1.0092 0.0
Eu201 Eu 0.11108 0.58244 1.00495 0.0
C202 C 0.15168 0.63737 0.97805 0.0
C203 C 0.07972 0.59126 0.94158 0.0
C204 C 0.09418 0.67698 1.05057 0.0
C205 C 0.0889 0.7073 1.08472 0.0
C206 C 0.09373 0.69933 1.05203 0.0
C207 C 0.08975 0.66273 1.08182 0.0
C208 C 0.08514 0.67063 1.11418 0.0
C209 C 0.08481 0.69306 0.11616 0.0
C210 C 0.09956 0.66805 1.01725 0.0
O211 O 0.0726 0.60355 1.04299 0.0
O212 O 0.07301 0.56714 1.03232 0.0
O213 O 0.11323 0.58794 1.06434 0.0
O214 O 0.11747 0.62688 1.064 0.0
C215 C 0.06337 0.5797 1.04752 0.0
O216 O 0.1043 0.54756 0.98042 0.0
O217 O 0.13223 0.56482 1.02201 0.0
O218 O 0.1487 0.61822 0.99711 0.0
O219 O 0.13212 0.63943 0.97092 0.0
O220 O 0.07734 0.60689 0.9633 0.0
O221 O 0.09555 0.58365 0.94983 0.0
C222 C 0.11782 0.60814 1.08148 0.0
O223 O 0.12048 0.6677 1.01775 0.0
O224 O 0.08113 0.64719 1.00498 0.0
C225 C 0.14297 0.54833 0.97367 0.0
C226 C 0.18637 0.56277 0.93284 0.0
C227 C 0.18609 0.55767 0.96966 0.0
C228 C 0.16449 0.55033 0.98987 0.0
C229 C 0.14257 0.55118 0.93629 0.0
C230 C 0.16403 0.55827 0.91609 0.0
C231 C 0.12351 0.54832 0.99647 0.0
H232 H 0.08857 0.72458 1.08552 0.0
H233 H 0.0971 0.71055 1.02807 0.0
H234 H 0.0898 0.64536 1.08123 0.0
H235 H 0.08137 0.65886 0.13763 0.0
H236 H 0.20295 0.56072 0.98318 0.0
H237 H 0.16522 0.54811 1.01865 0.0
H238 H 0.12632 0.54979 0.92292 0.0
H239 H 0.16362 0.56224 0.88782 0.0
Tb240 Tb 0.91425 0.50399 0.53345 0.0
Eu241 Eu 0.88737 0.44618 0.55535 0.0
C242 C 0.85896 0.47687 0.56096 0.0
C243 C 0.92513 0.489 0.61096 0.0
C244 C 0.94822 0.56782 0.49146 0.0
C245 C 0.95727 0.60523 0.45847 0.0
C246 C 0.94502 0.58843 0.48639 0.0
C247 C 0.96402 0.56424 0.46846 0.0
C248 C 0.97647 0.58118 0.44064 0.0
C249 C 0.9731 0.6018 0.43515 0.0
C250 C 0.93432 0.55014 0.52037 0.0
O251 O 0.94188 0.49293 0.52158 0.0
O252 O 0.91924 0.44999 0.52287 0.0
O253 O 0.88217 0.44643 0.49349 0.0
O254 O 0.90913 0.48759 0.47929 0.0
C255 C 0.93895 0.47095 0.5132 0.0
O256 O 0.88172 0.41446 0.58844 0.0
O257 O 0.85472 0.40955 0.54733 0.0
O258 O 0.86422 0.46176 0.57839 0.0
O259 O 0.87416 0.49117 0.53579 0.0
O260 O 0.91957 0.50382 0.59242 0.0
O261 O 0.91741 0.46626 0.59893 0.0
C262 C 0.89467 0.46415 0.46917 0.0
O263 O 0.91111 0.53396 0.51327 0.0
O264 O 0.94548 0.54002 0.53733 0.0
C265 C 0.83897 0.38876 0.60214 0.0
C266 C 0.80367 0.37155 0.6582 0.0
C267 C 0.81888 0.36095 0.65265 0.0
C268 C 0.83642 0.36953 0.62481 0.0
C269 C 0.82302 0.39855 0.60666 0.0
C270 C 0.80554 0.39 0.6343 0.0
C271 C 0.85929 0.39996 0.5756 0.0
H272 H 0.95385 0.62058 0.4547 0.0
H273 H 0.93274 0.59134 0.5038 0.0
H274 H 0.96663 0.54833 0.47189 0.0
H275 H 0.98876 0.57812 0.42348 0.0
H276 H 0.81779 0.34663 0.67056 0.0
H277 H 0.84854 0.36173 0.62173 0.0
H278 H 0.82465 0.4135 0.58965 0.0
H279 H 0.79454 0.39895 0.63816 0.0
Tb280 Tb 0.39281 0.91968 0.86576 0.0
Eu281 Eu 0.43752 0.90776 0.87691 0.0
C282 C 0.38074 0.86721 0.89421 0.0
C283 C 0.42799 0.94078 0.9361 0.0
C284 C 0.34785 0.9359 0.8275 0.0
C285 C 0.31491 0.93618 0.79204 0.0
C286 C 0.32239 0.92716 0.82127 0.0
C287 C 0.36576 0.95384 0.80443 0.0
C288 C 0.35835 0.96298 0.77558 0.0
C289 C 0.33287 0.95421 0.76899 0.0
C290 C 0.35572 0.92566 0.85707 0.0
O291 O 0.42069 0.94686 0.83114 0.0
O292 O 0.4556 0.94721 0.85373 0.0
O293 O 0.42844 0.89767 0.81884 0.0
O294 O 0.39792 0.9081 0.81018 0.0
C295 C 0.44488 0.95637 0.8326 0.0
O296 O 0.459 0.899 0.91473 0.0
O297 O 0.46814 0.90257 0.85839 0.0
O298 O 0.40134 0.87036 0.8795 0.0
O299 O 0.37832 0.88667 0.90008 0.0
O300 O 0.41429 0.94427 0.91181 0.0
O301 O 0.43498 0.9243 0.93017 0.0
C302 C 0.41311 0.90044 0.79742 0.0
O303 O 0.35527 0.90484 0.85016 0.0
O304 O 0.37624 0.94156 0.87359 0.0
C305 C 0.46865 0.87024 0.89141 0.0
C306 C 0.45437 0.8217 0.91428 0.0
C307 C 0.47737 0.84202 0.92534 0.0
C308 C 0.48438 0.86619 0.91411 0.0
C309 C 0.44723 0.84974 0.87691 0.0
C310 C 0.44018 0.8256 0.88819 0.0
C311 C 0.47122 0.89505 0.88973 0.0
H312 H 0.29516 0.92904 0.78738 0.0
H313 H 0.30834 0.91316 0.83872 0.0
H314 H 0.38549 0.96056 0.80842 0.0
H315 H 0.37258 0.97642 0.75776 0.0
H316 H 0.48858 0.83966 0.94571 0.0
H317 H 0.50085 0.88182 0.92576 0.0
H318 H 0.43477 0.85251 0.85944 0.0
H319 H 0.42243 0.81027 0.87915 0.0
Tb320 Tb 0.50256 0.39653 0.20925 0.0
Eu321 Eu 0.5602 0.44175 0.22382 0.0
C322 C 0.54206 0.38344 0.23899 0.0
C323 C 0.51632 0.42701 0.28562 0.0
C324 C 0.44167 0.3554 0.16462 0.0
C325 C 0.4032 0.32529 0.13523 0.0
C326 C 0.41955 0.33226 0.1645 0.0
C327 C 0.44742 0.37156 0.13529 0.0
C328 C 0.43105 0.36471 1.10615 0.0
C329 C 0.40878 0.34145 1.10572 0.0
C330 C 0.45862 0.36248 0.1954 0.0
O331 O 0.51103 0.43094 0.1833 0.0
O332 O 0.53581 0.45949 0.22274 0.0
O333 O 0.55772 0.43964 0.16269 0.0
O334 O 0.52079 0.40246 0.15498 0.0
C335 C 0.51542 0.44983 0.20314 0.0
O336 O 0.59087 0.46166 0.26144 0.0
O337 O 0.59679 0.47137 0.20511 0.0
O338 O 0.56017 0.4049 0.22698 0.0
O339 O 0.51921 0.37929 0.24107 0.0
O340 O 0.49929 0.41028 0.26341 0.0
O341 O 0.54021 0.43975 0.27653 0.0
C342 C 0.54152 0.42176 0.14151 0.0
O343 O 0.47832 0.3602 0.19102 0.0
O344 O 0.46412 0.38348 0.21076 0.0
C345 C 0.62775 0.46735 0.23743 0.0
C346 C 0.65166 0.44191 0.26289 0.0
C347 C 0.65753 0.46511 0.27758 0.0
C348 C 0.64555 0.4777 0.26498 0.0
C349 C 0.62486 0.4463 0.21913 0.0
C350 C 0.63684 0.43372 0.23169 0.0
C351 C 0.60733 0.47297 0.23623 0.0
H352 H 0.38636 0.30718 0.13556 0.0
H353 H 0.41497 0.31956 0.187 0.0
H354 H 0.46451 0.3895 0.13501 0.0
H355 H 0.43572 0.37781 1.08418 0.0
H356 H 0.66881 0.47195 0.30169 0.0
H357 H 0.6479 0.49379 0.27961 0.0
H358 H 0.61112 0.43788 0.19785 0.0
H359 H 0.63224 0.41609 0.21954 0.0
Tb360 Tb 0.10624 0.51175 0.53183 0.0
Eu361 Eu 0.13619 0.57135 0.55308 0.0
C362 C 0.16279 0.53788 0.55577 0.0
C363 C 0.09961 0.52762 0.61142 0.0
C364 C 0.07913 0.44943 0.48746 0.0
C365 C 0.06803 0.40793 0.46759 0.0
C366 C 0.07234 0.42472 0.49531 0.0
C367 C 0.0826 0.4575 0.45159 0.0
C368 C 0.07817 0.44071 0.42385 0.0
C369 C 0.07034 0.41559 0.43151 0.0
C370 C 0.08088 0.46597 0.51679 0.0
O371 O 0.08249 0.52802 0.53846 0.0
O372 O 0.1049 0.56695 0.51785 0.0
O373 O 0.14098 0.57037 0.49152 0.0
O374 O 0.11597 0.52867 0.47767 0.0
C375 C 0.08425 0.54554 0.5168 0.0
O376 O 0.14078 0.60378 0.5829 0.0
O377 O 0.16959 0.60746 0.54623 0.0
O378 O 0.1601 0.55525 0.57158 0.0
O379 O 0.14575 0.52221 0.53322 0.0
O380 O 0.10111 0.51114 0.59067 0.0
O381 O 0.10934 0.55112 0.60063 0.0
C382 C 0.13016 0.55219 0.46747 0.0
O383 O 0.10117 0.47562 0.53624 0.0
O384 O 0.07411 0.48222 0.50904 0.0
C385 C 0.18299 0.63154 0.59893 0.0
C386 C 0.21834 0.65544 0.65421 0.0
C387 C 0.19999 0.66197 0.64706 0.0
C388 C 0.1825 0.65016 0.61951 0.0
C389 C 0.20174 0.62552 0.60543 0.0
C390 C 0.21929 0.63743 0.63265 0.0
C391 C 0.16363 0.61805 0.57145 0.0
H392 H 0.06234 0.38882 0.47437 0.0
H393 H 0.0697 0.41823 0.52288 0.0
H394 H 0.0879 0.47654 0.44493 0.0
H395 H 0.07979 0.44717 0.3964 0.0
H396 H 0.1988 0.67574 0.66335 0.0
H397 H 0.16825 0.65513 0.61483 0.0
H398 H 0.20251 0.61113 0.5901 0.0
H399 H 0.23281 0.63158 0.63797 0.0
Tb400 Tb 0.64069 0.09534 0.8691 0.0
Eu401 Eu 0.59692 0.10889 0.87834 0.0
C402 C 0.65457 0.14922 0.89076 0.0
C403 C 0.60871 0.08104 0.94335 0.0
C404 C 0.69428 0.09041 0.8347 0.0
C405 C 0.70841 0.1029 0.77356 0.0
C406 C 0.69582 0.1041 0.80381 0.0
C407 C 0.70724 0.07731 0.83623 0.0
C408 C 0.71981 0.07606 0.80598 0.0
C409 C 0.71942 0.08781 0.7738 0.0
C410 C 0.67561 0.08573 0.86221 0.0
O411 O 0.60623 0.06044 0.87279 0.0
O412 O 0.58144 0.07303 0.84623 0.0
O413 O 0.60858 0.11899 0.82026 0.0
O414 O 0.6307 0.0988 0.81192 0.0
C415 C 0.58748 0.05576 0.85193 0.0
O416 O 0.56197 0.1035 0.90106 0.0
O417 O 0.58271 0.1334 0.86326 0.0
O418 O 0.63213 0.13997 0.90457 0.0
O419 O 0.65896 0.13587 0.86799 0.0
O420 O 0.63042 0.08769 0.92739 0.0
O421 O 0.59203 0.0851 0.92741 0.0
C422 C 0.61893 0.11011 0.79859 0.0
O423 O 0.67797 0.10492 0.87979 0.0
O424 O 0.65267 0.0711 0.85178 0.0
C425 C 0.56598 0.14277 0.9121 0.0
C426 C 0.57657 0.18491 0.95306 0.0
C427 C 0.55946 0.17754 0.9244 0.0
C428 C 0.55437 0.15665 0.90378 0.0
C429 C 0.58218 0.14952 0.94166 0.0
C430 C 0.58736 0.17033 0.96197 0.0
C431 C 0.56492 0.12414 0.88701 0.0
H432 H 0.70752 0.11193 0.74907 0.0
H433 H 0.68568 0.11413 0.80215 0.0
H434 H 0.70611 0.06655 0.8599 0.0
H435 H 0.72831 0.06447 0.80697 0.0
H436 H 0.5508 0.1884 0.91719 0.0
H437 H 0.54216 0.1519 0.88062 0.0
H438 H 0.59161 0.13927 0.94822 0.0
H439 H 0.60015 0.17521 0.98447 0.0
Tb440 Tb 0.51676 0.60191 0.20823 0.0
Eu441 Eu 0.45919 0.58487 0.22551 0.0
C442 C 0.50055 0.64144 0.22994 0.0
C443 C 0.49754 0.58415 0.28877 0.0
C444 C 0.57875 0.63264 0.1657 0.0
C445 C 0.61948 0.65264 0.13743 0.0
C446 C 0.6038 0.63866 0.16564 0.0
C447 C 0.5697 0.64148 0.13814 0.0
C448 C 0.58531 0.65538 1.10992 0.0
C449 C 0.61025 0.66069 1.10888 0.0
C450 C 0.56193 0.61673 0.19403 0.0
O451 O 0.49655 0.56229 0.22528 0.0
O452 O 0.46295 0.55631 0.19585 0.0
O453 O 0.46303 0.5918 0.16399 0.0
O454 O 0.50003 0.59266 0.15381 0.0
C455 C 0.47356 0.54676 0.21472 0.0
O456 O 0.42377 0.56196 0.25393 0.0
O457 O 0.42646 0.58746 0.21184 0.0
O458 O 0.48143 0.62338 0.24629 0.0
O459 O 0.51385 0.63633 0.20742 0.0
O460 O 0.51622 0.59845 0.26712 0.0
O461 O 0.47397 0.57506 0.27771 0.0
C462 C 0.4792 0.59107 0.14142 0.0
O463 O 0.5547 0.62787 0.21647 0.0
O464 O 0.54332 0.59544 0.18335 0.0
C465 C 0.4023 0.58425 0.2622 0.0
C466 C 0.38448 0.60574 0.31191 0.0
C467 C 0.37336 0.57967 0.3095 0.0
C468 C 0.38224 0.56901 0.2848 0.0
C469 C 0.41264 0.61024 0.26358 0.0
C470 C 0.40376 0.62084 0.28804 0.0
C471 C 0.41319 0.57328 0.2384 0.0
H472 H 0.63865 0.65663 0.13752 0.0
H473 H 0.61107 0.63213 0.18698 0.0
H474 H 0.55037 0.63703 0.13797 0.0
H475 H 0.57749 0.66093 1.08811 0.0
H476 H 0.35867 0.56759 0.32787 0.0
H477 H 0.37399 0.54894 0.28414 0.0
H478 H 0.42807 0.62253 0.24639 0.0
H479 H 0.41254 0.64096 0.28906 0.0
H480 H 0.51065 0.1655 0.29173 0.0
H481 H 0.51358 0.2056 0.27781 0.0
H482 H 0.58988 0.24438 0.31501 0.0
H483 H 0.58732 0.20447 0.32851 0.0
H484 H 0.55511 0.26172 0.34355 0.0
H485 H 0.55941 0.25704 0.19536 0.0
H486 H 0.53292 0.23062 0.2156 0.0
H487 H 0.56386 0.23654 0.22524 0.0
C488 C 0.52812 0.18251 0.29682 0.0
C489 C 0.54871 0.18156 0.31136 0.0
C490 C 0.52977 0.20548 0.28881 0.0
C491 C 0.55195 0.22811 0.29538 0.0
C492 C 0.57253 0.22725 0.3098 0.0
H493 H 0.58275 0.37762 0.22422 0.0
H494 H 0.58772 0.34157 0.23906 0.0
C495 C 0.57101 0.20431 0.31746 0.0
C496 C 0.55355 0.25261 0.28758 0.0
H497 H 0.55339 0.28952 0.21892 0.0
C498 C 0.5549 0.26786 0.31629 0.0
C499 C 0.55349 0.26085 0.25205 0.0
C500 C 0.55255 0.24556 0.22017 0.0
C501 C 0.55534 0.29059 0.31046 0.0
C502 C 0.55457 0.2985 0.27491 0.0
C503 C 0.55405 0.28363 0.24618 0.0
C504 C 0.55251 0.32116 0.26717 0.0
C505 C 0.55633 0.30584 0.34248 0.0
C506 C 0.53117 0.32186 0.278 0.0
C507 C 0.52828 0.34229 0.26949 0.0
C508 C 0.54666 0.36278 0.2499 0.0
C509 C 0.56829 0.36231 0.23951 0.0
C510 C 0.57109 0.34163 0.24784 0.0
H511 H 0.56383 0.30121 0.36666 0.0
H512 H 0.568 0.3261 0.33685 0.0
H513 H 0.53712 0.3018 0.34873 0.0
H514 H 0.5164 0.30627 0.29248 0.0
H515 H 0.51134 0.34183 0.27802 0.0
H516 H 0.33968 0.48528 0.61821 0.0
H517 H 0.30366 0.48873 0.59839 0.0
H518 H 0.33683 0.56205 0.64495 0.0
H519 H 0.373 0.55896 0.664 0.0
H520 H 0.26942 0.49309 0.63477 0.0
H521 H 0.31853 0.57696 0.54904 0.0
H522 H 0.33381 0.56072 0.56601 0.0
H523 H 0.33076 0.58269 0.59388 0.0
C524 C 0.33944 0.50225 0.62395 0.0
C525 C 0.35948 0.52188 0.64257 0.0
C526 C 0.31873 0.5042 0.61262 0.0
C527 C 0.31747 0.52586 0.61944 0.0
C528 C 0.33742 0.5454 0.63827 0.0
H529 H 0.20405 0.56963 0.59595 0.0
H530 H 0.24085 0.56617 0.61027 0.0
C531 C 0.35814 0.5435 0.64947 0.0
C532 C 0.2949 0.52754 0.60831 0.0
H533 H 0.27635 0.56425 0.56413 0.0
C534 C 0.27101 0.50857 0.61902 0.0
C535 C 0.29666 0.54771 0.58774 0.0
C536 C 0.32129 0.56803 0.5732 0.0
C537 C 0.24918 0.50947 0.61063 0.0
C538 C 0.251 0.52978 0.59053 0.0
C539 C 0.27482 0.5487 0.57963 0.0
C540 C 0.22847 0.53189 0.58103 0.0
C541 C 0.22434 0.48896 0.62426 0.0
C542 C 0.20917 0.514 0.55929 0.0
C543 C 0.18802 0.51599 0.55083 0.0
C544 C 0.18556 0.53592 0.56394 0.0
C545 C 0.20508 0.55395 0.58538 0.0
C546 C 0.22627 0.55203 0.5936 0.0
H547 H 0.22664 0.47799 0.64609 0.0
H548 H 0.21278 0.49669 0.63441 0.0
H549 H 0.21402 0.47605 0.60188 0.0
H550 H 0.21049 0.49849 0.54866 0.0
H551 H 0.17351 0.50177 0.53419 0.0
H552 H 0.86895 0.34166 0.93735 0.0
H553 H 0.82845 0.30593 0.92187 0.0
H554 H 0.79181 0.33333 0.99062 0.0
H555 H 0.83266 0.36953 1.00637 0.0
H556 H 0.77568 0.2814 1.00088 0.0
H557 H 0.77279 0.30203 0.85665 0.0
H558 H 0.80165 0.30415 0.87042 0.0
H559 H 0.79297 0.32556 0.88844 0.0
C560 C 0.85234 0.3404 0.94896 0.0
C561 C 0.85427 0.35872 0.9731 0.0
C562 C 0.82905 0.31986 0.93989 0.0
C563 C 0.80684 0.31686 0.95466 0.0
C564 C 0.80858 0.33517 0.97863 0.0
H565 H 0.65391 0.18365 0.9373 0.0
H566 H 0.68883 0.22491 0.95369 0.0
C567 C 0.83199 0.35597 0.98752 0.0
C568 C 0.7822 0.29402 0.94602 0.0
H569 H 0.74452 0.26047 0.87569 0.0
C570 C 0.76867 0.27699 0.97357 0.0
C571 C 0.77289 0.28808 0.91041 0.0
C572 C 0.78566 0.306 0.87978 0.0
C573 C 0.74694 0.25385 0.96631 0.0
C574 C 0.73805 0.24757 0.93049 0.0
C575 C 0.7512 0.265 0.90313 0.0
C576 C 0.71618 0.22256 0.92039 0.0
C577 C 0.73439 0.23584 0.99692 0.0
C578 C 0.71939 0.20749 0.89542 0.0
C579 C 0.69943 0.18399 0.88582 0.0
C580 C 0.67544 0.17474 0.90073 0.0
C581 C 0.67206 0.18997 0.92536 0.0
C582 C 0.69215 0.21359 0.93498 0.0
H583 H 0.7467 0.24085 1.02094 0.0
H584 H 0.71726 0.23615 1.00469 0.0
H585 H 0.72884 0.21654 0.98884 0.0
H586 H 0.73757 0.2138 0.88356 0.0
H587 H 0.70293 0.17299 0.86676 0.0
H588 H 0.47154 0.65427 0.26852 0.0
H589 H 0.47794 0.69504 0.28236 0.0
H590 H 0.54714 0.72933 0.22337 0.0
H591 H 0.54047 0.68768 0.2083 0.0
H592 H 0.51378 0.73175 0.32071 0.0
H593 H 0.51373 0.7664 0.18282 0.0
H594 H 0.50394 0.73419 0.19199 0.0
H595 H 0.53661 0.75722 0.19133 0.0
C596 C 0.48818 0.67029 0.25805 0.0
C597 C 0.50547 0.66736 0.23705 0.0
C598 C 0.49183 0.69383 0.26624 0.0
C599 C 0.51293 0.71555 0.25392 0.0
C600 C 0.53042 0.71295 0.23282 0.0
H601 H 0.54093 0.85793 0.35166 0.0
H602 H 0.54571 0.82263 0.33331 0.0
C603 C 0.52668 0.68909 0.22433 0.0
C604 C 0.51617 0.74042 0.26432 0.0
H605 H 0.51825 0.79298 0.23076 0.0
C606 C 0.51502 0.74524 0.30097 0.0
C607 C 0.51748 0.75805 0.23876 0.0
C608 C 0.51781 0.75375 0.19899 0.0
C609 C 0.51446 0.76655 0.31265 0.0
C610 C 0.51571 0.78417 0.28712 0.0
C611 C 0.51743 0.77968 0.25048 0.0
C612 C 0.51365 0.80646 0.29768 0.0
C613 C 0.5113 0.76931 0.35222 0.0
C614 C 0.49446 0.80979 0.28327 0.0
C615 C 0.4918 0.83007 0.29354 0.0
C616 C 0.5083 0.84779 0.31853 0.0
C617 C 0.52771 0.84463 0.33267 0.0
C618 C 0.53041 0.82431 0.32225 0.0
H619 H 0.50429 0.7514 0.36691 0.0
H620 H 0.52966 0.78295 0.36396 0.0
H621 H 0.49811 0.77624 0.35671 0.0
H622 H 0.48124 0.79643 0.2643 0.0
H623 H 0.47663 0.83175 0.28189 0.0
H624 H 0.63828 0.45788 0.60006 0.0
H625 H 0.67519 0.4555 0.58256 0.0
H626 H 0.71882 0.50973 0.6635 0.0
H627 H 0.68243 0.51295 0.67993 0.0
H628 H 0.74579 0.52047 0.60708 0.0
H629 H 0.70547 0.41911 0.628 0.0
H630 H 0.68823 0.42594 0.59553 0.0
H631 H 0.68942 0.43522 0.64161 0.0
C632 C 0.65572 0.46929 0.61418 0.0
C633 C 0.65717 0.48559 0.64153 0.0
C634 C 0.6769 0.46773 0.60435 0.0
C635 C 0.70002 0.48202 0.6221 0.0
C636 C 0.70142 0.49839 0.64924 0.0
H637 H 0.82623 0.45451 0.6172 0.0
H638 H 0.78842 0.45611 0.63122 0.0
C639 C 0.68042 0.5002 0.65871 0.0
C640 C 0.72296 0.48062 0.61216 0.0
H641 H 0.74523 0.44046 0.59979 0.0
C642 C 0.74556 0.5029 0.60561 0.0
C643 C 0.72318 0.45785 0.61061 0.0
C644 C 0.70036 0.43321 0.61967 0.0
C645 C 0.76798 0.50312 0.5976 0.0
C646 C 0.768 0.48031 0.59473 0.0
C647 C 0.74545 0.45801 0.60147 0.0
C648 C 0.79121 0.47921 0.58568 0.0
C649 C 0.79161 0.52802 0.59357 0.0
C650 C 0.80559 0.49127 0.55503 0.0
C651 C 0.82751 0.49066 0.5472 0.0
C652 C 0.83554 0.47753 0.56936 0.0
C653 C 0.82081 0.46491 0.5995 0.0
C654 C 0.79903 0.46576 0.60754 0.0
H655 H 0.7902 0.54301 0.60762 0.0
H656 H 0.80809 0.52746 0.60436 0.0
H657 H 0.79481 0.53307 0.56468 0.0
H658 H 0.79979 0.50111 0.53687 0.0
H659 H 0.83807 0.50035 0.52351 0.0
H660 H 0.37527 0.82094 0.87947 0.0
H661 H 0.33919 0.77959 0.89269 0.0
H662 H 0.30218 0.81422 0.94416 0.0
H663 H 0.3379 0.85533 0.93112 0.0
H664 H 0.29845 0.77367 0.98361 0.0
H665 H 0.27061 0.74731 0.84134 0.0
H666 H 0.30232 0.75622 0.85252 0.0
H667 H 0.29248 0.77892 0.85459 0.0
C668 C 0.35951 0.81978 0.89374 0.0
C669 C 0.35966 0.8417 0.90403 0.0
C670 C 0.33873 0.79604 0.90109 0.0
C671 C 0.31759 0.79356 0.91907 0.0
C672 C 0.31805 0.81541 0.93016 0.0
H673 H 0.16285 0.6775 0.93478 0.0
H674 H 0.20375 0.71316 0.92043 0.0
C675 C 0.33863 0.83905 0.92261 0.0
C676 C 0.29487 0.76848 0.92638 0.0
H677 H 0.2461 0.71784 0.88548 0.0
C678 C 0.28716 0.76137 0.96211 0.0
C679 C 0.27983 0.75234 0.89848 0.0
C680 C 0.2865 0.75904 0.85953 0.0
C681 C 0.26496 0.73898 0.97063 0.0
C682 C 0.24983 0.72291 0.94273 0.0
C683 C 0.25765 0.72989 0.90699 0.0
C684 C 0.22497 0.69988 0.94998 0.0
C685 C 0.25739 0.73317 1.00948 0.0
C686 C 0.2229 0.67987 0.97077 0.0
C687 C 0.19929 0.65916 0.97899 0.0
C688 C 0.1771 0.65792 0.96668 0.0
C689 C 0.17936 0.67764 0.94494 0.0
C690 C 0.20287 0.69818 0.93661 0.0
H691 H 0.26825 0.74961 1.02705 0.0
H692 H 0.23718 0.7266 1.01275 0.0
H693 H 0.26074 0.71807 1.01879 0.0
H694 H 0.23956 0.68035 0.98095 0.0
H695 H 0.19842 0.6444 0.99568 0.0
H696 H 0.54535 0.19919 0.98303 0.0
H697 H 0.55621 0.22902 1.03217 0.0
H698 H 0.63381 0.24992 1.02144 0.0
H699 H 0.62319 0.22131 0.97172 0.0
H700 H 0.57043 0.21584 1.08771 0.0
H701 H 0.64421 0.31208 1.06512 0.0
H702 H 0.62567 0.29245 1.02838 0.0
H703 H 0.65383 0.29285 1.0428 0.0
C704 C 0.56485 0.21113 0.99006 0.0
C705 C 0.58337 0.20749 0.97445 0.0
C706 C 0.57107 0.22824 1.01807 0.0
C707 C 0.59584 0.24172 1.03086 0.0
C708 C 0.61465 0.24024 1.01201 0.0
H709 H 0.67357 0.23392 0.18799 0.0
H710 H 0.66135 0.25228 0.13963 0.0
C711 C 0.60849 0.22341 0.98392 0.0
C712 C 0.60101 0.25062 1.06857 0.0
H713 H 0.64997 0.29155 0.1207 0.0
C714 C 0.58719 0.23298 1.09518 0.0
C715 C 0.62282 0.27297 1.07859 0.0
C716 C 0.63724 0.29369 1.05204 0.0
C717 C 0.5965 0.23518 0.13008 0.0
C718 C 0.61988 0.25619 0.13901 0.0
C719 C 0.63217 0.27539 1.11373 0.0
C720 C 0.63369 0.25536 0.17103 0.0
C721 C 0.58276 0.2134 0.15552 0.0
C722 C 0.62373 0.25305 0.20547 0.0
C723 C 0.63011 0.2418 0.23291 0.0
C724 C 0.64696 0.23324 0.22632 0.0
C725 C 0.65992 0.23951 0.19353 0.0
C726 C 0.6532 0.25035 0.16598 0.0
H727 H 0.56602 0.19756 0.14299 0.0
H728 H 0.59534 0.20659 0.16494 0.0
H729 H 0.5765 0.21938 0.17932 0.0
H730 H 0.60899 0.2573 0.21 0.0
H731 H 0.6198 0.23748 0.25784 0.0
H732 H 0.41728 0.64345 0.35441 0.0
H733 H 0.40866 0.65821 0.40962 0.0
H734 H 0.32945 0.6094 0.39341 0.0
H735 H 0.33815 0.59382 0.33794 0.0
H736 H 0.38209 0.67949 0.43423 0.0
H737 H 0.34043 0.58158 0.48451 0.0
H738 H 0.35557 0.59032 0.44146 0.0
H739 H 0.32556 0.5878 0.4476 0.0
C740 C 0.39796 0.63625 0.36199 0.0
C741 C 0.37839 0.61725 0.34207 0.0
C742 C 0.39302 0.64479 0.39361 0.0
C743 C 0.36842 0.63464 0.40605 0.0
C744 C 0.34861 0.61709 0.38475 0.0
H745 H 0.3845 0.62846 0.62954 0.0
H746 H 0.36075 0.63687 0.58459 0.0
C747 C 0.35359 0.60822 0.35314 0.0
C748 C 0.3648 0.63992 0.44363 0.0
H749 H 0.35841 0.61331 0.52586 0.0
C750 C 0.37606 0.66496 0.45445 0.0
C751 C 0.35639 0.62097 0.47014 0.0
C752 C 0.34386 0.59366 0.46059 0.0
C753 C 0.38238 0.67168 0.49056 0.0
C754 C 0.37733 0.65288 0.51617 0.0
C755 C 0.36254 0.62778 0.50615 0.0
C756 C 0.39235 0.65791 0.54948 0.0
C757 C 0.39622 0.69888 0.50039 0.0
C758 C 0.41841 0.6687 0.54617 0.0
C759 C 0.43199 0.66386 0.57179 0.0
C760 C 0.41964 0.64801 0.60088 0.0
C761 C 0.39438 0.64045 0.60699 0.0
C762 C 0.3808 0.64536 0.58141 0.0
H763 H 0.38884 0.70913 0.48479 0.0
H764 H 0.39471 0.70167 0.52951 0.0
H765 H 0.41625 0.70708 0.49338 0.0
H766 H 0.42779 0.67811 0.52163 0.0
H767 H 0.45141 0.66991 0.56632 0.0
H768 H 0.84138 0.46966 0.8895 0.0
H769 H 0.81052 0.44782 0.84356 0.0
H770 H 0.75723 0.40126 0.92392 0.0
H771 H 0.78841 0.42355 0.97084 0.0
H772 H 0.765 0.3738 0.87935 0.0
H773 H 0.74847 0.43646 0.79525 0.0
H774 H 0.7814 0.45219 0.80356 0.0
H775 H 0.76006 0.4447 0.84071 0.0
C776 C 0.82277 0.45573 0.89789 0.0
C777 C 0.81759 0.44814 0.93396 0.0
C778 C 0.80492 0.44318 0.87132 0.0
C779 C 0.78139 0.42286 0.88013 0.0
C780 C 0.77524 0.41688 0.91646 0.0
H781 H 0.75675 0.36562 0.66569 0.0
H782 H 0.73756 0.36791 0.72187 0.0
C783 C 0.79315 0.42955 0.94321 0.0
C784 C 0.76649 0.40508 0.85128 0.0
H785 H 0.75839 0.40721 0.76123 0.0
C786 C 0.76248 0.38073 0.8538 0.0
C787 C 0.76209 0.41342 0.81813 0.0
C788 C 0.76298 0.43807 0.81453 0.0
C789 C 0.75848 0.36635 0.82293 0.0
C790 C 0.75913 0.37689 0.78891 0.0
C791 C 0.75876 0.39934 0.78714 0.0
C792 C 0.76628 0.36855 0.75604 0.0
C793 C 0.75569 0.34088 0.82693 0.0
C794 C 0.78834 0.36729 0.75655 0.0
C795 C 0.7993 0.36601 0.72465 0.0
C796 C 0.78864 0.36631 0.69142 0.0
C797 C 0.76554 0.36565 0.69093 0.0
C798 C 0.75449 0.36682 0.723 0.0
H799 H 0.74424 0.3312 0.85092 0.0
H800 H 0.74688 0.32913 0.80288 0.0
H801 H 0.77439 0.3429 0.83118 0.0
H802 H 0.79836 0.36944 0.78143 0.0
H803 H 0.81726 0.36698 0.72606 0.0
H804 H 0.408 0.79949 0.94278 0.0
H805 H 0.39447 0.77349 0.99584 0.0
H806 H 0.45972 0.7654 0.99057 0.0
H807 H 0.47434 0.79315 0.93803 0.0
H808 H 0.38434 0.73145 1.02699 0.0
H809 H 0.47684 0.8066 1.07798 0.0
H810 H 0.46643 0.80792 1.03332 0.0
H811 H 0.47707 0.78641 1.04398 0.0
C812 C 0.4191 0.79147 0.95193 0.0
C813 C 0.44257 0.79888 0.93678 0.0
C814 C 0.41129 0.77649 0.98248 0.0
C815 C 0.42662 0.76835 0.99824 0.0
C816 C 0.44813 0.77239 0.97981 0.0
H817 H 0.41905 0.77776 0.22897 0.0
H818 H 0.42241 0.75564 0.17702 0.0
C819 C 0.45636 0.78804 0.94962 0.0
C820 C 0.42231 0.76066 1.03661 0.0
H821 H 0.44548 0.78553 0.11904 0.0
C822 C 0.39796 0.74276 1.04725 0.0
C823 C 0.44013 0.77519 1.06332 0.0
C824 C 0.46653 0.79518 1.05428 0.0
C825 C 0.39018 0.74122 1.083 0.0
C826 C 0.40728 0.7577 1.10865 0.0
C827 C 0.43238 0.77307 1.09909 0.0
C828 C 0.39905 0.76366 0.14255 0.0
C829 C 0.36332 0.72326 1.0925 0.0
C830 C 0.38418 0.77485 0.14071 0.0
C831 C 0.38245 0.78771 0.17017 0.0
C832 C 0.39549 0.7895 0.20201 0.0
C833 C 0.40863 0.77649 0.20483 0.0
C834 C 0.41053 0.76381 0.17522 0.0
H835 H 0.35545 0.70644 1.07521 0.0
H836 H 0.36144 0.71744 0.1211 0.0
H837 H 0.35209 0.73245 1.08796 0.0
H838 H 0.37563 0.77549 0.11557 0.0
H839 H 0.3721 0.79746 0.1674 0.0
H840 H 0.69281 0.44927 0.30198 0.0
H841 H 0.69122 0.4252 0.35521 0.0
H842 H 0.61444 0.37112 0.33047 0.0
H843 H 0.61637 0.39419 0.27735 0.0
H844 H 0.66476 0.42579 0.40457 0.0
H845 H 0.62893 0.32623 0.38533 0.0
H846 H 0.64398 0.34839 0.34928 0.0
H847 H 0.61079 0.3343 0.35675 0.0
C848 C 0.67608 0.43153 0.30701 0.0
C849 C 0.65463 0.42385 0.28572 0.0
C850 C 0.67515 0.41775 0.33745 0.0
C851 C 0.65264 0.39633 0.34734 0.0
C852 C 0.63228 0.38711 0.32347 0.0
H853 H 0.55146 0.36345 0.50007 0.0
H854 H 0.57659 0.36194 0.45068 0.0
C855 C 0.63336 0.40058 0.29283 0.0
C856 C 0.64789 0.38793 0.38548 0.0
H857 H 0.60865 0.33684 0.43553 0.0
C858 C 0.65345 0.40625 0.41165 0.0
C859 C 0.63326 0.36249 0.39528 0.0
C860 C 0.62922 0.34183 0.37013 0.0
C861 C 0.6423 0.40003 0.44559 0.0
C862 C 0.62509 0.3748 0.4536 0.0
C863 C 0.62151 0.35622 0.42901 0.0
C864 C 0.6079 0.36845 0.48434 0.0
C865 C 0.64713 0.42071 0.4714 0.0
C866 C 0.61679 0.37147 0.51972 0.0
C867 C 0.60251 0.37247 0.54797 0.0
C868 C 0.5792 0.37055 0.54111 0.0
C869 C 0.56947 0.36528 0.50604 0.0
C870 C 0.5837 0.36418 0.47789 0.0
H871 H 0.65999 0.43949 0.46012 0.0
H872 H 0.62926 0.41975 0.47858 0.0
H873 H 0.65556 0.41847 0.4965 0.0
H874 H 0.63548 0.37489 0.52513 0.0
H875 H 0.61059 0.37672 0.57468 0.0
H876 H 0.19591 0.55484 0.86421 0.0
H877 H 0.22882 0.58516 0.82609 0.0
H878 H 0.26442 0.63231 0.91792 0.0
H879 H 0.23037 0.60246 0.95595 0.0
H880 H 0.25698 0.65791 0.87368 0.0
H881 H 0.29736 0.61521 0.79168 0.0
H882 H 0.26471 0.5929 0.79084 0.0
H883 H 0.28154 0.60063 0.8331 0.0
C884 C 0.21116 0.57128 0.8765 0.0
C885 C 0.21024 0.57647 0.91288 0.0
C886 C 0.23036 0.58856 0.85472 0.0
C887 C 0.2494 0.61119 0.86898 0.0
C888 C 0.25002 0.61505 0.9062 0.0
H889 H 0.26846 0.6717 0.66106 0.0
H890 H 0.2908 0.67533 0.71725 0.0
C891 C 0.23058 0.59784 0.928 0.0
C892 C 0.26422 0.63229 0.84401 0.0
H893 H 0.27959 0.63851 0.75568 0.0
C894 C 0.26299 0.65416 0.84832 0.0
C895 C 0.2737 0.62876 0.81149 0.0
C896 C 0.27966 0.60818 0.8069 0.0
C897 C 0.26611 0.66963 0.81889 0.0
C898 C 0.26943 0.66235 0.78438 0.0
C899 C 0.27571 0.64355 0.7817 0.0
C900 C 0.25986 0.66861 0.75158 0.0
C901 C 0.2637 0.69236 0.82465 0.0
C902 C 0.23548 0.66491 0.75201 0.0
C903 C 0.22284 0.66308 0.72008 0.0
C904 C 0.23412 0.66444 0.68693 0.0
C905 C 0.25924 0.67031 0.68633 0.0
C906 C 0.27205 0.67247 0.71842 0.0
H907 H 0.27449 0.70256 0.84885 0.0
H908 H 0.27052 0.70522 0.80124 0.0
H909 H 0.24384 0.68655 0.82978 0.0
H910 H 0.22515 0.66101 0.77687 0.0
H911 H 0.20342 0.65822 0.72147 0.0
H912 H 0.43023 0.98572 0.95407 0.0
H913 H 0.4467 0.01061 1.00919 0.0
H914 H 0.46037 0.95438 1.0539 0.0
H915 H 0.44528 0.93036 0.99859 0.0
H916 H 0.43676 0.00861 1.07651 0.0
H917 H 0.52622 0.01004 1.07552 0.0
H918 H 0.50461 0.99712 1.03887 0.0
H919 H 0.50104 0.97868 1.07855 0.0
C920 C 0.43682 0.97864 0.97556 0.0
C921 C 0.4365 0.95586 0.97099 0.0
C922 C 0.44634 0.99302 1.00747 0.0
C923 C 0.45584 0.98523 1.03637 0.0
C924 C 0.45444 0.96192 1.03223 0.0
H925 H 0.55081 0.09202 0.20929 0.0
H926 H 0.53439 0.06879 0.15285 0.0
C927 C 0.44539 0.94783 1.00025 0.0
C928 C 0.46694 1.00112 1.07052 0.0
H929 H 0.51656 0.0234 0.12983 0.0
C930 C 0.45427 0.01176 1.08791 0.0
C931 C 0.49015 1.0062 1.08614 0.0
C932 C 0.50636 0.99758 1.06856 0.0
C933 C 0.46351 0.02631 0.11983 0.0
C934 C 0.48612 0.03037 0.13639 0.0
C935 C 0.4991 0.0203 0.11845 0.0
C936 C 0.49656 0.0449 0.17178 0.0
C937 C 0.44905 0.03784 0.13479 0.0
C938 C 0.4815 0.0395 0.20269 0.0
C939 C 0.49092 0.05296 0.23515 0.0
C940 C 0.51605 0.07241 0.23877 0.0
C941 C 0.53137 0.07748 0.20815 0.0
C942 C 0.52187 0.064 0.1755 0.0
H943 H 0.43783 0.04041 1.11357 0.0
H944 H 0.43586 0.02526 0.15551 0.0
H945 H 0.46166 0.05622 0.14724 0.0
H946 H 0.46226 0.02451 0.20203 0.0
H947 H 0.47829 0.04792 0.2577 0.0
H948 H 0.47918 0.3961 0.33453 0.0
H949 H 0.46683 0.40743 0.39113 0.0
H950 H 0.52174 0.48431 0.37342 0.0
H951 H 0.53515 0.473 0.31812 0.0
H952 H 0.47226 0.47639 0.39222 0.0
H953 H 0.50334 0.43048 0.49128 0.0
H954 H 0.5159 0.43821 0.44634 0.0
H955 H 0.48547 0.41168 0.45376 0.0
C956 C 0.48894 0.41542 0.34281 0.0
C957 C 0.50837 0.43348 0.32111 0.0
C958 C 0.48192 0.42195 0.37565 0.0
C959 C 0.49334 0.44697 0.38758 0.0
C960 C 0.51253 0.46495 0.36565 0.0
H961 H 0.42761 0.45316 0.59858 0.0
H962 H 0.44099 0.44086 0.54425 0.0
C963 C 0.52021 0.45834 0.33366 0.0
C964 C 0.48462 0.45456 0.4215 0.0
H965 H 0.48034 0.44831 0.51371 0.0
C966 C 0.47392 0.46996 0.41863 0.0
C967 C 0.48667 0.44678 0.45674 0.0
C968 C 0.49861 0.43103 0.46259 0.0
C969 C 0.46443 0.47663 0.44886 0.0
C970 C 0.46698 0.46937 0.4844 0.0
C971 C 0.47806 0.45422 0.48722 0.0
C972 C 0.45835 0.47711 0.51854 0.0
C973 C 0.45031 0.49019 0.44175 0.0
C974 C 0.46336 0.50177 0.52401 0.0
C975 C 0.4557 0.50894 0.55548 0.0
C976 C 0.44251 0.49182 0.58336 0.0
C977 C 0.43757 0.46715 0.57816 0.0
C978 C 0.4454 0.46002 0.54668 0.0
H979 H 0.443 0.48722 0.4138 0.0
H980 H 0.43435 0.48397 0.46049 0.0
H981 H 0.46305 0.51046 0.44535 0.0
H982 H 0.47375 0.51594 0.50417 0.0
H983 H 0.46028 0.52816 0.5579 0.0
H984 H 0.07185 0.47948 0.63806 0.0
H985 H 0.04809 0.46454 0.69396 0.0
H986 H 0.07038 0.53992 0.723 0.0
H987 H 0.09424 0.55507 0.66679 0.0
H988 H 1.00757 0.46789 0.72092 0.0
H989 H 0.08719 0.51539 0.81579 0.0
H990 H 0.08411 0.53514 0.78318 0.0
H991 H 0.09169 0.51218 0.76864 0.0
C992 C 0.07199 0.4931 0.65626 0.0
C993 C 0.08551 0.51874 0.64721 0.0
C994 C 0.05813 0.48438 0.68858 0.0
C995 C 0.05732 0.50084 0.71386 0.0
C996 C 0.07076 0.52651 0.70494 0.0
H997 H 0.99333 0.42298 0.92199 0.0
H998 H 0.01806 0.44108 0.86693 0.0
C999 C 0.08448 0.53526 0.67233 0.0
C1000 C 0.04218 0.49094 0.74876 0.0
H1001 H 0.04694 0.49248 0.84127 0.0
C1002 C 0.01634 0.47341 0.74713 0.0
C1003 C 0.05304 0.49774 0.78366 0.0
C1004 C 0.08055 0.51599 0.78822 0.0
C1005 C 1.00148 0.46279 0.77847 0.0
C1006 C 1.01236 0.46944 0.81336 0.0
C1007 C 0.0382 0.48699 0.81504 0.0
C1008 C 0.99724 0.45841 0.848 0.0
C1009 C 0.97413 0.44396 0.77383 0.0
C1010 C 0.97709 0.46193 0.85699 0.0
C1011 C 0.96297 0.45166 0.88876 0.0
C1012 C 0.96811 0.43719 0.91319 0.0
C1013 C 0.98836 0.4337 0.90425 0.0
C1014 C 1.00271 0.44425 0.87251 0.0
H1015 H 0.96968 0.43663 0.74598 0.0
H1016 H 0.96829 0.42809 0.79272 0.0
H1017 H 0.96294 0.45294 0.77979 0.0
H1018 H 0.97234 0.47295 0.83952 0.0
H1019 H 0.94782 0.45517 0.89414 0.0
H1020 H 0.49179 0.95167 0.23242 0.0
H1021 H 0.50902 0.97756 0.17816 0.0
H1022 H 0.57489 0.97103 0.18688 0.0
H1023 H 0.55801 0.94552 0.24121 0.0
H1024 H 0.55315 0.96341 1.11325 0.0
H1025 H 0.5681 0.05185 0.17293 0.0
H1026 H 0.56863 0.02779 0.19985 0.0
H1027 H 0.53952 0.02357 0.18346 0.0
C1028 C 0.50991 0.9556 0.22285 0.0
C1029 C 0.52329 0.94618 0.24184 0.0
C1030 C 0.51993 0.97069 0.19169 0.0
C1031 C 0.54362 0.97682 0.178 0.0
C1032 C 0.55672 0.96696 0.19645 0.0
H1033 H 0.57026 0.07302 0.98887 0.0
H1034 H 0.55664 0.04916 1.04478 0.0
C1035 C 0.54691 0.9522 0.22782 0.0
C1036 C 0.55465 0.99313 0.14454 0.0
H1037 H 0.57711 0.05258 1.11149 0.0
C1038 C 0.55844 0.98293 1.11306 0.0
C1039 C 0.56183 0.01878 0.14357 0.0
C1040 C 0.55953 0.03139 0.17664 0.0
C1041 C 0.56834 0.99715 1.08101 0.0
C1042 C 0.57551 0.02285 1.07991 0.0
C1043 C 0.57195 0.0331 1.11164 0.0
C1044 C 0.58522 0.03882 1.04577 0.0
C1045 C 0.57013 0.98413 1.04805 0.0
C1046 C 0.60651 0.04209 1.02697 0.0
C1047 C 0.61468 0.05623 0.99463 0.0
C1048 C 0.60179 0.06758 0.97962 0.0
C1049 C 0.58084 0.06468 0.99895 0.0
C1050 C 0.57291 0.05086 1.03135 0.0
H1051 H 0.5584 0.96355 1.05042 0.0
H1052 H 0.56423 0.99026 1.02368 0.0
H1053 H 0.58981 0.98883 1.04441 0.0
H1054 H 0.61696 0.03368 1.03728 0.0
H1055 H 0.63083 0.0578 0.98099 0.0
H1056 H 0.533 0.48154 0.58234 0.0
H1057 H 0.51854 0.49503 0.52997 0.0
H1058 H 0.5937 0.5542 0.51045 0.0
H1059 H 0.60831 0.54109 0.56345 0.0
H1060 H 0.56479 0.52456 0.44456 0.0
H1061 H 0.51143 0.55888 0.52175 0.0
H1062 H 0.54148 0.5641 0.53679 0.0
H1063 H 0.51474 0.53364 0.53987 0.0
C1064 C 0.54665 0.49744 0.56706 0.0
C1065 C 0.57206 0.51005 0.57791 0.0
C1066 C 0.53821 0.50525 0.5368 0.0
C1067 C 0.55476 0.52592 0.51559 0.0
C1068 C 0.58023 0.53829 0.52588 0.0
H1069 H 0.46698 0.54737 0.33914 0.0
H1070 H 0.47985 0.53301 0.39264 0.0
C1071 C 0.58866 0.53069 0.55653 0.0
C1072 C 0.54545 0.5344 0.48302 0.0
H1073 H 0.50894 0.55976 0.45867 0.0
C1074 C 0.55256 0.53222 0.44787 0.0
C1075 C 0.52972 0.5449 0.48639 0.0
C1076 C 0.52381 0.55071 0.52307 0.0
C1077 C 0.54431 0.53973 0.41683 0.0
C1078 C 0.52799 0.54961 0.42008 0.0
C1079 C 0.52085 0.55176 0.4553 0.0
C1080 C 0.51949 0.55898 0.38753 0.0
C1081 C 0.55329 0.53705 0.38048 0.0
C1082 C 0.53699 0.57881 0.36601 0.0
C1083 C 0.52963 0.58715 0.33528 0.0
C1084 C 0.50429 0.57622 0.32434 0.0
C1085 C 0.4866 0.55668 0.3463 0.0
C1086 C 0.49406 0.54832 0.37725 0.0
H1087 H 0.56098 0.52427 0.38129 0.0
H1088 H 0.53792 0.5301 0.3604 0.0
H1089 H 0.56841 0.55556 0.37129 0.0
H1090 H 0.55665 0.58798 0.3729 0.0
H1091 H 0.54413 0.60219 0.31969 0.0
H1092 H 0.0386 0.59484 0.91721 0.0
H1093 H 1.01287 0.57667 0.8629 0.0
H1094 H 0.05863 0.54555 0.83322 0.0
H1095 H 0.08419 0.56344 0.88714 0.0
H1096 H 0.98396 0.52501 0.83793 0.0
H1097 H 0.05875 0.58169 0.73988 0.0
H1098 H 0.06651 0.56609 0.77401 0.0
H1099 H 0.06073 0.59065 0.78641 0.0
C1100 C 0.04341 0.58431 0.89909 0.0
C1101 C 0.06399 0.58108 0.90719 0.0
C1102 C 0.02846 0.57371 0.8678 0.0
C1103 C 0.03361 0.55972 0.84288 0.0
C1104 C 0.0541 0.55646 0.85102 0.0
H1105 H 0.95083 0.53705 0.63837 0.0
H1106 H 0.97627 0.5526 0.6931 0.0
C1107 C 0.06885 0.56679 0.88236 0.0
C1108 C 0.01774 0.54857 0.80878 0.0
H1109 H 0.02024 0.55061 0.71615 0.0
C1110 C 0.99203 0.53071 0.81139 0.0
C1111 C 0.02774 0.5555 0.77349 0.0
C1112 C 0.05488 0.57464 0.76796 0.0
C1113 C 0.97651 0.51991 0.78054 0.0
C1114 C 0.98647 0.52701 0.74526 0.0
C1115 C 1.01217 0.54487 0.74268 0.0
C1116 C 0.97047 0.51689 0.71104 0.0
C1117 C 0.94921 0.50126 0.78599 0.0
C1118 C 0.9584 0.4914 0.70149 0.0
C1119 C 0.94382 0.48236 0.66956 0.0
C1120 C 0.94042 0.49836 0.64585 0.0
C1121 C 0.95253 0.52384 0.65554 0.0
C1122 C 0.96735 0.53289 0.68715 0.0
H1123 H 0.94329 0.50092 0.8142 0.0
H1124 H 0.93746 0.5055 0.76796 0.0
H1125 H 0.94569 0.48237 0.7792 0.0
H1126 H 0.96049 0.47838 0.71856 0.0
H1127 H 0.93516 0.4627 0.66348 0.0
H1128 H 0.58505 0.08379 0.40916 0.0
H1129 H 0.58936 0.07233 0.47042 0.0
H1130 H 0.50882 0.02486 0.47556 0.0
H1131 H 0.50499 0.03631 0.41562 0.0
H1132 H 0.58748 0.04 0.50875 0.0
H1133 H 0.53032 0.05416 0.56467 0.0
H1134 H 0.50323 0.02367 0.57284 0.0
H1135 H 0.50571 0.04019 0.53187 0.0
C1136 C 0.5684 0.07036 0.42334 0.0
C1137 C 0.54464 0.06058 0.40732 0.0
C1138 C 0.57083 0.0644 0.45893 0.0
C1139 C 0.54958 0.04841 0.47934 0.0
C1140 C 0.52592 0.0381 0.46231 0.0
H1141 H 0.46551 0.93441 0.43211 0.0
H1142 H 0.48194 0.95179 0.49156 0.0
C1143 C 0.52357 0.04399 0.42703 0.0
C1144 C 0.55208 0.03879 0.51539 0.0
H1145 H 0.49714 0.98744 0.53208 0.0
C1146 C 0.5678 0.02848 0.51494 0.0
C1147 C 0.52965 0.02429 0.53459 0.0
C1148 C 0.51648 0.03623 0.55212 0.0
C1149 C 0.55636 1.00242 0.51181 0.0
C1150 C 0.52996 0.98894 0.50848 0.0
C1151 C 0.51715 0.99844 0.52806 0.0
C1152 C 0.51925 0.97783 0.47269 0.0
C1153 C 0.57186 0.99066 0.50328 0.0
C1154 C 0.53373 0.98832 0.44144 0.0
C1155 C 0.52426 0.97893 0.40763 0.0
C1156 C 0.50007 0.95864 0.40382 0.0
C1157 C 0.48453 0.94976 0.43428 0.0
C1158 C 0.49404 0.95939 0.46844 0.0
H1159 H 0.58555 0.99469 0.52527 0.0
H1160 H 0.56003 0.97016 0.49999 0.0
H1161 H 0.58276 0.99894 0.47836 0.0
H1162 H 0.55255 1.00406 0.44272 0.0
H1163 H 0.53637 0.98691 0.38457 0.0
H1164 H 0.50675 0.54161 0.7288 0.0
H1165 H 0.53048 0.54999 0.78423 0.0
H1166 H 0.46224 0.50331 0.84279 0.0
H1167 H 0.43905 0.49284 0.78685 0.0
H1168 H 0.48907 0.49249 0.87186 0.0
H1169 H 0.55324 0.589 0.87143 0.0
H1170 H 0.52669 0.57821 0.84152 0.0
H1171 H 0.55694 0.5848 0.82491 0.0
C1172 C 0.49694 0.53294 0.75346 0.0
C1173 C 0.47117 0.51627 0.7532 0.0
C1174 C 0.51037 0.53835 0.78561 0.0
C1175 C 0.49818 0.52801 0.81853 0.0
C1176 C 0.47226 0.51173 0.81819 0.0
H1177 H 0.53175 0.46161 0.77076 0.0
H1178 H 0.53141 0.47298 0.83222 0.0
C1179 C 0.45904 0.50554 0.78589 0.0
C1180 C 0.51317 0.53014 0.85108 0.0
H1181 H 0.57619 0.56088 0.86225 0.0
C1182 C 0.508 0.50786 0.86877 0.0
C1183 C 0.5376 0.55085 0.8555 0.0
C1184 C 0.5437 0.57713 0.84775 0.0
C1185 C 0.52814 0.50436 0.87746 0.0
C1186 C 0.5512 0.52092 0.86122 0.0
C1187 C 0.55693 0.54589 0.86362 0.0
C1188 C 0.55513 0.51316 0.82441 0.0
C1189 C 0.52423 0.48185 0.89823 0.0
C1190 C 0.56884 0.53122 0.79775 0.0
C1191 C 0.56826 0.52449 0.76194 0.0
C1192 C 0.55482 0.4994 0.75146 0.0
C1193 C 0.5417 0.4812 0.77769 0.0
C1194 C 0.54192 0.48791 0.81349 0.0
H1195 H 0.50807 0.4647 0.88715 0.0
H1196 H 0.54125 0.4801 0.8981 0.0
H1197 H 0.5196 0.48357 0.92643 0.0
H1198 H 0.57972 0.55086 0.80396 0.0
H1199 H 0.5792 0.53906 0.74269 0.0
H1200 H 0.96472 0.41366 0.11637 0.0
H1201 H 0.98336 0.43379 0.17321 0.0
H1202 H 0.03155 0.50185 0.11592 0.0
H1203 H 1.00997 0.4828 1.05967 0.0
H1204 H 0.0498 0.50078 0.18809 0.0
H1205 H 0.95125 0.47455 0.20128 0.0
H1206 H 0.96189 0.45226 0.20345 0.0
H1207 H 0.95649 0.46248 0.16058 0.0
C1208 C 0.97924 0.43303 0.11597 0.0
C1209 C 0.98475 0.4473 1.08416 0.0
C1210 C 0.99023 0.44431 0.14849 0.0
C1211 C 1.00763 0.46978 0.14921 0.0
C1212 C 0.0169 0.48251 0.1163 0.0
H1213 H 0.02187 0.53297 1.05488 0.0
H1214 H 0.99973 0.51465 1.11107 0.0
C1215 C 1.00466 0.47175 1.08407 0.0
C1216 C 1.01014 0.48484 0.18139 0.0
H1217 H 0.97955 0.51723 0.18011 0.0
C1218 C 0.03433 0.50432 0.18886 0.0
C1219 C 0.99014 0.48934 0.18744 0.0
C1220 C 0.96341 0.46845 0.1884 0.0
C1221 C 0.03927 0.52898 0.18682 0.0
C1222 C 0.01941 0.53302 0.17688 0.0
C1223 C 0.99501 0.51392 0.18426 0.0
C1224 C 0.02282 0.54742 0.14342 0.0
C1225 C 0.06603 0.54983 0.1872 0.0
C1226 C 0.04001 0.57292 0.14193 0.0
C1227 C 0.0513 0.58376 1.10933 0.0
C1228 C 0.0463 0.56905 1.07825 0.0
C1229 C 0.02675 0.54441 1.07875 0.0
C1230 C 0.01422 0.53405 1.11093 0.0
H1231 H 0.07815 0.54436 0.20205 0.0
H1232 H 0.07308 0.55463 0.15925 0.0
H1233 H 0.06745 0.56658 0.20005 0.0
H1234 H 0.04636 0.5839 0.16626 0.0
H1235 H 0.06563 0.6032 1.10928 0.0
H1236 H 0.09217 0.57371 0.45553 0.0
H1237 H 0.07471 0.55814 0.39611 0.0
H1238 H 0.02707 0.48513 0.44252 0.0
H1239 H 0.04402 0.50075 0.50081 0.0
H1240 H 0.04134 0.47705 0.37887 0.0
H1241 H 0.01975 0.54831 0.3369 0.0
H1242 H 0.05126 0.55459 0.3449 0.0
H1243 H 0.03258 0.55535 0.38151 0.0
C1244 C 0.07753 0.55443 0.45292 0.0
C1245 C 0.06983 0.53827 0.48284 0.0
C1246 C 0.06766 0.54545 0.41867 0.0
C1247 C 0.04991 0.52016 0.41368 0.0
C1248 C 0.04145 0.50454 0.44433 0.0
H1249 H 0.92797 0.43234 0.46684 0.0
H1250 H 0.94652 0.43616 0.40756 0.0
C1251 C 0.05091 0.51355 0.47828 0.0
C1252 C 0.03769 0.50983 0.37815 0.0
H1253 H 0.98387 0.50926 0.35963 0.0
C1254 C 0.02885 0.48421 0.3735 0.0
C1255 C 0.02233 0.51861 0.36363 0.0
C1256 C 0.03209 0.54577 0.35616 0.0
C1257 C 1.00287 0.46773 0.37531 0.0
C1258 C 0.98734 0.47827 0.37872 0.0
C1259 C 0.99638 0.50189 0.36287 0.0
C1260 C 0.9748 0.47495 0.41406 0.0
C1261 C 0.99315 0.4405 0.38215 0.0
C1262 C 0.98489 0.49511 0.43832 0.0
C1263 C 0.97493 0.4928 0.4723 0.0
C1264 C 0.95405 0.47044 0.48301 0.0
C1265 C 0.94446 0.44977 0.45968 0.0
C1266 C 0.95476 0.45202 0.42543 0.0
H1267 H 0.99232 0.43709 0.41155 0.0
H1268 H 0.97407 0.42912 0.37078 0.0
H1269 H 1.00566 0.43446 0.37017 0.0
H1270 H 1.00062 0.51306 0.43118 0.0
H1271 H 0.98279 0.5091 0.4894 0.0
H1272 H 0.49246 0.99723 0.83346 0.0
H1273 H 0.5177 0.01804 0.78043 0.0
H1274 H 0.45527 0.97142 0.71167 0.0
H1275 H 0.42888 0.95441 0.76468 0.0
H1276 H 0.49269 0.95725 0.71523 0.0
H1277 H 0.53975 0.05591 0.68258 0.0
H1278 H 0.52993 0.05334 0.72839 0.0
H1279 H 0.50671 0.03844 0.6935 0.0
C1280 C 0.48389 0.99238 0.80709 0.0
C1281 C 0.45912 0.97333 0.80294 0.0
C1282 C 0.49821 1.00422 0.77669 0.0
C1283 C 0.48867 0.99539 0.74199 0.0
C1284 C 0.46316 0.97844 0.73799 0.0
H1285 H 0.61705 0.05532 0.79888 0.0
H1286 H 0.60255 0.03162 0.7433 0.0
C1287 C 0.44831 0.96822 0.76838 0.0
C1288 C 0.5065 0.99689 0.7144 0.0
H1289 H 0.56749 0.04125 0.71423 0.0
C1290 C 0.50913 0.97564 0.71305 0.0
C1291 C 0.52779 0.02022 0.70732 0.0
C1292 C 0.52576 0.04321 0.70248 0.0
C1293 C 0.53264 0.97822 0.71998 0.0
C1294 C 0.5528 1.00232 0.72684 0.0
C1295 C 0.55136 0.02264 0.71262 0.0
C1296 C 0.56503 1.00731 0.76254 0.0
C1297 C 0.53447 0.95552 0.72882 0.0
C1298 C 0.54944 1.0003 0.79305 0.0
C1299 C 0.55691 0.01544 0.82347 0.0
C1300 C 0.58078 0.03637 0.82477 0.0
C1301 C 0.59801 0.04014 0.7975 0.0
C1302 C 0.59003 0.02608 0.76608 0.0
H1303 H 0.52607 0.94175 0.70682 0.0
H1304 H 0.55419 0.96027 0.73281 0.0
H1305 H 0.52371 0.94662 0.75363 0.0
H1306 H 0.5302 0.98533 0.79156 0.0
H1307 H 0.54361 0.0117 0.84479 0.0
H1308 H 0.48518 0.52479 0.27048 0.0
H1309 H 0.45607 0.49118 0.30909 0.0
H1310 H 0.39407 0.49135 0.25506 0.0
H1311 H 0.4228 0.52318 0.21509 0.0
H1312 H 0.41804 0.45949 0.34879 0.0
H1313 H 0.35831 0.42246 0.23886 0.0
H1314 H 0.37807 0.45281 0.22048 0.0
H1315 H 0.36142 0.44945 0.26208 0.0
C1316 C 0.4653 0.51715 0.26635 0.0
C1317 C 0.45647 0.52579 0.2383 0.0
C1318 C 0.44838 0.49806 0.28894 0.0
C1319 C 0.42217 0.48689 0.28361 0.0
C1320 C 0.41378 0.498 0.25859 0.0
H1321 H 0.46774 0.42369 0.17758 0.0
H1322 H 0.43001 0.41283 0.21066 0.0
C1323 C 0.4305 0.51638 0.23542 0.0
C1324 C 0.40464 0.46056 0.29553 0.0
H1325 H 0.40274 0.42593 0.2255 0.0
C1326 C 0.41412 0.4514 0.32216 0.0
C1327 C 0.39329 0.44396 0.26649 0.0
C1328 C 0.37147 0.4422 0.24604 0.0
C1329 C 0.4258 0.43816 0.31074 0.0
C1330 C 0.42587 0.43366 0.27344 0.0
C1331 C 0.4063 0.43276 0.25282 0.0
C1332 C 0.44904 0.43812 0.25486 0.0
C1333 C 0.43969 0.43139 0.33727 0.0
C1334 C 0.47268 0.45687 0.26727 0.0
C1335 C 0.49448 0.46254 0.24881 0.0
C1336 C 0.49315 0.44994 0.21709 0.0
C1337 C 0.46948 0.43321 0.20265 0.0
C1338 C 0.44775 0.42683 0.22176 0.0
H1339 H 0.42873 0.42411 0.36239 0.0
H1340 H 0.44372 0.41725 0.32601 0.0
H1341 H 0.45742 0.44835 0.34434 0.0
H1342 H 0.4746 0.46743 0.29118 0.0
H1343 H 0.51237 0.47602 0.2602 0.0
H1344 H 0.35243 1.00193 0.74538 0.0
H1345 H 0.34862 0.01516 0.68528 0.0
H1346 H 0.29294 0.93954 0.65887 0.0
H1347 H 0.29741 0.92602 0.71901 0.0
H1348 H 0.33124 0.95623 0.61566 0.0
H1349 H 0.30502 0.02856 0.62107 0.0
H1350 H 0.32911 0.03581 0.6536 0.0
H1351 H 0.29932 1.0075 0.65821 0.0
C1352 C 0.33885 0.98824 0.72709 0.0
C1353 C 0.32553 0.96291 0.73657 0.0
C1354 C 0.33639 0.99588 0.69284 0.0
C1355 C 0.32031 0.97839 0.66754 0.0
C1356 C 0.30531 0.95337 0.67805 0.0
H1357 H 0.36714 0.01669 0.44159 0.0
H1358 H 0.33685 0.99572 0.48999 0.0
C1359 C 0.30784 0.94568 0.71241 0.0
C1360 C 0.32354 0.98548 0.62907 0.0
H1361 H 0.33637 0.03481 0.57454 0.0
C1362 C 0.33145 0.97289 0.60614 0.0
C1363 C 0.32373 1.00713 0.61656 0.0
C1364 C 0.31354 0.0203 0.63867 0.0
C1365 C 0.34211 0.98288 0.57269 0.0
C1366 C 0.34468 1.0059 0.56188 0.0
C1367 C 0.33463 0.01729 0.58321 0.0
C1368 C 0.36112 0.02011 0.53171 0.0
C1369 C 0.35259 0.96991 0.5506 0.0
C1370 C 0.38447 0.04104 0.5392 0.0
C1371 C 0.40174 0.05301 0.51178 0.0
C1372 C 0.39591 0.0443 0.47632 0.0
C1373 C 0.37211 0.02387 0.46866 0.0
C1374 C 0.35483 0.01184 0.4962 0.0
H1375 H 0.35092 0.95322 0.56439 0.0
H1376 H 0.3424 0.9639 0.52465 0.0
H1377 H 0.37262 0.98293 0.54457 0.0
H1378 H 0.38963 0.04762 0.56653 0.0
H1379 H 0.41976 0.06895 0.51837 0.0
H1380 H 0.35746 0.31726 1.10639 0.0
H1381 H 0.32945 0.30914 1.05517 0.0
H1382 H 0.39318 0.3432 0.98441 0.0
H1383 H 0.42089 0.34986 1.03473 0.0
H1384 H 0.32669 0.3419 1.01627 0.0
H1385 H 0.3472 0.28668 0.92317 0.0
H1386 H 0.35651 0.28993 0.96979 0.0
H1387 H 0.37665 0.31239 0.93669 0.0
C1388 C 0.3654 0.32227 1.07973 0.0
C1389 C 0.39144 0.33437 1.07465 0.0
C1390 C 0.34936 0.31771 1.05051 0.0
C1391 C 0.35911 0.32511 1.01578 0.0
C1392 C 0.38504 0.33655 1.01068 0.0
H1393 H 0.35201 0.41376 0.86743 0.0
H1394 H 0.34549 0.38871 0.92078 0.0
C1395 C 0.40099 0.34086 1.03967 0.0
C1396 C 0.34311 0.32437 0.98549 0.0
H1397 H 0.34073 0.31956 0.89445 0.0
C1398 C 0.32904 0.33623 0.98975 0.0
C1399 C 0.34504 0.31605 0.95101 0.0
C1400 C 0.35693 0.30027 0.94512 0.0
C1401 C 0.3199 0.34304 0.95985 0.0
C1402 C 0.32589 0.33869 0.92501 0.0
C1403 C 0.33681 0.32373 0.92106 0.0
C1404 C 0.32555 0.35315 0.89339 0.0
C1405 C 0.30511 0.35596 0.966 0.0
C1406 C 0.31683 0.3417 0.85986 0.0
C1407 C 0.32143 0.35618 0.82886 0.0
C1408 C 0.33478 0.38236 0.83092 0.0
C1409 C 0.34211 0.39367 0.86479 0.0
C1410 C 0.33784 0.37926 0.89556 0.0
H1411 H 0.29249 0.3476 0.98942 0.0
H1412 H 0.3181 0.37586 0.9724 0.0
H1413 H 0.29372 0.35478 0.94214 0.0
H1414 H 0.3075 0.32161 0.85744 0.0
H1415 H 0.31566 0.34687 0.80315 0.0
H1416 H 0.94044 0.29167 0.16191 0.0
H1417 H 0.95988 0.29491 0.22071 0.0
H1418 H 0.02907 0.35646 0.18171 0.0
H1419 H 1.00998 0.353 0.12294 0.0
H1420 H 0.03636 0.32664 0.23193 0.0
H1421 H 0.96826 0.35403 0.27932 0.0
H1422 H 0.95484 0.32339 0.26043 0.0
H1423 H 0.97249 0.3503 0.2324 0.0
C1424 C 0.95998 0.30544 0.16571 0.0
C1425 C 0.97363 0.32229 0.13808 0.0
C1426 C 0.97103 0.3073 0.19923 0.0
C1427 C 0.99571 0.3263 0.20571 0.0
C1428 C 1.00998 0.34169 0.17726 0.0
H1429 H 0.09247 0.42109 0.36585 0.0
H1430 H 0.07474 0.39383 0.31382 0.0
C1431 C 0.99905 0.33967 0.14366 0.0
C1432 C 1.00562 0.33268 0.24275 0.0
H1433 H 0.99853 0.35757 0.32015 0.0
C1434 C 0.02792 0.33305 0.2515 0.0
C1435 C 0.99464 0.3412 0.26808 0.0
C1436 C 0.97137 0.34246 0.25966 0.0
C1437 C 0.03986 0.34231 0.28469 0.0
C1438 C 0.0293 0.35163 0.30939 0.0
C1439 C 1.00648 0.35024 0.30121 0.0
C1440 C 0.04252 0.36529 0.34225 0.0
C1441 C 0.06382 0.34243 0.29276 0.0
C1442 C 0.03042 0.35821 0.37558 0.0
C1443 C 0.04027 0.37396 0.40518 0.0
C1444 C 0.06238 0.39715 0.40195 0.0
C1445 C 0.07525 0.40349 0.36908 0.0
C1446 C 0.06534 0.38774 0.33945 0.0
H1447 H 0.06498 0.32774 0.27739 0.0
H1448 H 0.07991 0.36071 0.28478 0.0
H1449 H 0.06557 0.33957 0.32186 0.0
H1450 H 1.01265 0.34108 0.37819 0.0
H1451 H 0.0297 0.36861 0.42994 0.0
H1452 H 0.74573 0.11764 0.7167 0.0
H1453 H 0.74577 0.10354 0.65526 0.0
H1454 H 0.70538 0.02712 0.69145 0.0
H1455 H 0.70587 0.04097 0.75248 0.0
H1456 H 0.73626 0.03289 0.63587 0.0
H1457 H 0.67925 0.07743 0.60519 0.0
H1458 H 0.71068 0.09813 0.61993 0.0
H1459 H 0.6885 0.07508 0.6503 0.0
C1460 C 0.73754 0.09788 0.7116 0.0
C1461 C 0.72555 0.08041 0.73928 0.0
C1462 C 0.73748 0.08985 0.67655 0.0
C1463 C 0.72492 0.06427 0.66868 0.0
C1464 C 0.71509 0.04695 0.69687 0.0
H1465 H 0.63416 0.95685 0.51861 0.0
H1466 H 0.66344 0.98051 0.56693 0.0
C1467 C 0.71545 0.05493 0.73186 0.0
C1468 C 0.71855 0.05513 0.6313 0.0
H1469 H 0.6813 0.05201 0.56126 0.0
C1470 C 0.72463 0.0374 0.61921 0.0
C1471 C 0.70316 0.06089 0.60974 0.0
C1472 C 0.6948 0.07875 0.62192 0.0
C1473 C 0.71487 0.02455 0.58685 0.0
C1474 C 0.6987 0.0296 0.56625 0.0
C1475 C 0.69382 0.04831 0.57721 0.0
C1476 C 0.68437 0.01411 0.53533 0.0
C1477 C 0.7213 1.00517 0.57544 0.0
C1478 C 0.68656 0.02515 0.50162 0.0
C1479 C 0.66979 0.01175 0.47413 0.0
C1480 C 0.65036 0.98715 0.48003 0.0
C1481 C 0.64885 0.9758 0.51339 0.0
C1482 C 0.66574 0.98919 0.54083 0.0
H1483 H 0.73892 1.0083 0.58823 0.0
H1484 H 0.70605 0.98647 0.58375 0.0
H1485 H 0.72323 1.00515 0.54581 0.0
H1486 H 0.70059 0.04448 0.49708 0.0
H1487 H 0.67123 0.02114 0.4489 0.0
H1488 H 0.61416 0.69952 1.06798 0.0
H1489 H 0.63207 0.71141 1.00757 0.0
H1490 H 0.65779 0.65854 1.01531 0.0
H1491 H 0.64006 0.64659 1.07514 0.0
H1492 H 0.69087 0.70304 0.97687 0.0
H1493 H 0.59175 0.65924 0.93021 0.0
H1494 H 0.60331 0.68535 0.96022 0.0
H1495 H 0.5994 0.65622 0.97604 0.0
C1496 C 0.62406 0.6908 1.05699 0.0
C1497 C 0.62538 0.67185 1.0761 0.0
C1498 C 0.63431 0.69766 1.02259 0.0
C1499 C 0.64584 0.68553 1.00685 0.0
C1500 C 0.649 0.66816 1.02705 0.0
H1501 H 0.67236 0.61848 0.84319 0.0
H1502 H 0.67576 0.64446 0.89419 0.0
C1503 C 0.63886 0.66137 1.06135 0.0
C1504 C 0.65138 0.68768 0.96804 0.0
H1505 H 0.62159 0.66404 0.8884 0.0
C1506 C 0.67587 0.6952 0.95722 0.0
C1507 C 0.63178 0.67765 0.94241 0.0
C1508 C 0.60503 0.66902 0.95258 0.0
C1509 C 0.6809 0.69093 0.92211 0.0
C1510 C 0.66087 0.67853 0.89763 0.0
C1511 C 0.63688 0.67343 0.90736 0.0
C1512 C 0.66312 0.6664 0.86493 0.0
C1513 C 0.70738 0.69852 0.91216 0.0
C1514 C 0.65473 0.66997 0.83154 0.0
C1515 C 0.65246 0.65484 0.80238 0.0
C1516 C 0.65823 0.63574 0.80642 0.0
C1517 C 0.66754 0.63289 0.83947 0.0
C1518 C 0.66989 0.64803 0.86845 0.0
H1519 H 0.72095 0.71549 0.92706 0.0
H1520 H 0.71109 0.68333 0.91964 0.0
H1521 H 0.71065 0.70215 0.88289 0.0
H1522 H 0.64904 0.68378 0.82846 0.0
H1523 H 0.64508 0.65732 0.77723 0.0
H1524 H 0.05176 0.70925 0.12956 0.0
H1525 H 0.03462 0.7103 0.1883 0.0
H1526 H 0.08614 0.69191 0.23942 0.0
H1527 H 0.10411 0.69238 0.18155 0.0
H1528 H 1.00973 0.67061 0.22397 0.0
H1529 H 0.08355 0.73364 0.31594 0.0
H1530 H 0.08819 0.73608 0.26792 0.0
H1531 H 0.09484 0.71555 0.29435 0.0
C1532 C 0.06016 0.70663 0.15356 0.0
C1533 C 0.07896 0.70031 0.15103 0.0
C1534 C 0.05028 0.7071 0.18711 0.0
C1535 C 0.05906 0.70124 0.2185 0.0
C1536 C 0.07934 0.69711 0.216 0.0
H1537 H 0.98045 0.5904 0.3671 0.0
H1538 H 0.99972 0.61868 0.31663 0.0
C1539 C 0.08937 0.69697 0.1827 0.0
C1540 C 0.04427 0.69427 0.25218 0.0
H1541 H 0.05165 0.69294 0.34287 0.0
C1542 C 0.01879 0.67616 0.25 0.0
C1543 C 0.05563 0.70176 0.28642 0.0
C1544 C 0.08201 0.72306 0.29115 0.0
C1545 C 1.00523 0.66353 0.28064 0.0
C1546 C 0.01768 0.66853 0.31414 0.0
C1547 C 0.0423 0.68849 0.31697 0.0
C1548 C 1.00631 0.65171 0.34538 0.0
C1549 C 0.97791 0.64429 0.27651 0.0
C1550 C 1.00472 0.66104 0.37888 0.0
C1551 C 0.99427 0.64493 0.4082 0.0
C1552 C 0.98526 0.6192 0.40455 0.0
C1553 C 0.98736 0.61008 0.37106 0.0
C1554 C 0.99798 0.62619 0.34194 0.0
H1555 H 0.96928 0.64937 0.25423 0.0
H1556 H 0.9761 0.62605 0.26977 0.0
H1557 H 0.96733 0.64215 0.30154 0.0
H1558 H 1.01141 0.68073 0.38227 0.0
H1559 H 0.99338 0.65267 0.43377 0.0
H1560 H 0.52289 0.09644 0.47241 0.0
H1561 H 0.53313 0.09268 0.53508 0.0
H1562 H 0.61143 0.13996 0.5119 0.0
H1563 H 0.60129 0.14274 0.44921 0.0
H1564 H 0.55051 0.1178 0.59048 0.0
H1565 H 0.62043 0.09035 0.56272 0.0
H1566 H 0.63026 0.12008 0.54247 0.0
H1567 H 0.60185 0.09295 0.52753 0.0
C1568 C 0.54233 0.1062 0.4806 0.0
C1569 C 0.56113 0.12006 0.455 0.0
C1570 C 0.5483 0.10389 0.51686 0.0
C1571 C 0.57334 0.11534 0.52932 0.0
C1572 C 0.592 0.12986 0.50384 0.0
H1573 H 0.61942 0.08058 0.74199 0.0
H1574 H 0.6072 0.08022 0.67891 0.0
C1575 C 0.58609 0.13184 0.46757 0.0
C1576 C 0.57985 0.11281 0.56866 0.0
H1577 H 0.62131 0.10529 0.62231 0.0
C1578 C 0.56596 0.11491 0.59706 0.0
C1579 C 0.59947 0.10818 0.57881 0.0
C1580 C 0.61363 0.10246 0.55126 0.0
C1581 C 0.57142 0.11342 0.63396 0.0
C1582 C 0.59237 0.11091 0.64408 0.0
C1583 C 0.60569 0.1079 0.6157 0.0
C1584 C 0.60061 0.11129 0.68341 0.0
C1585 C 0.5538 0.1137 0.66157 0.0
C1586 C 0.60208 0.12916 0.70818 0.0
C1587 C 0.6086 0.129 0.74465 0.0
C1588 C 0.61488 0.11151 0.75822 0.0
C1589 C 0.61477 0.0944 0.73318 0.0
C1590 C 0.60768 0.09422 0.69666 0.0
H1591 H 0.53462 0.10586 0.65041 0.0
H1592 H 0.55276 0.10282 0.6859 0.0
H1593 H 0.56028 0.13324 0.66943 0.0
H1594 H 0.59812 0.14348 0.69944 0.0
H1595 H 0.6086 0.14276 0.76244 0.0
H1596 H 0.39892 0.49589 0.81377 0.0
H1597 H 0.40826 0.50563 0.87803 0.0
H1598 H 0.45788 0.58274 0.85135 0.0
H1599 H 0.44929 0.57306 0.78775 0.0
H1600 H 0.4028 0.53203 0.92788 0.0
H1601 H 0.50466 0.57458 0.91418 0.0
H1602 H 0.49362 0.5907 0.88639 0.0
H1603 H 0.48359 0.55845 0.8776 0.0
C1604 C 0.41171 0.51499 0.82149 0.0
C1605 C 0.42324 0.53353 0.79466 0.0
C1606 C 0.4172 0.52061 0.85865 0.0
C1607 C 0.43449 0.545 0.87065 0.0
C1608 C 0.44522 0.56359 0.84383 0.0
H1609 H 0.5014 0.57609 1.09048 0.0
H1610 H 0.48987 0.56435 1.02779 0.0
C1611 C 0.43994 0.55798 0.8069 0.0
C1612 C 0.44113 0.55121 0.91067 0.0
H1613 H 0.49051 0.58297 0.96919 0.0
C1614 C 0.42206 0.5431 0.93672 0.0
C1615 C 0.4662 0.56513 0.92362 0.0
C1616 C 0.48817 0.57246 0.89907 0.0
C1617 C 0.42711 0.54884 0.97401 0.0
C1618 C 0.45216 0.56415 0.98665 0.0
C1619 C 0.47122 0.57173 0.9606 0.0
C1620 C 0.45916 0.57173 1.02638 0.0
C1621 C 0.40528 0.53741 0.9995 0.0
C1622 C 0.44644 0.58048 1.04818 0.0
C1623 C 0.45283 0.58685 1.08492 0.0
C1624 C 0.47277 0.58553 1.10144 0.0
C1625 C 0.486 0.5776 1.07937 0.0
C1626 C 0.47932 0.5708 1.04293 0.0
H1627 H 0.38945 0.52004 0.98833 0.0
H1628 H 0.41057 0.53292 1.02584 0.0
H1629 H 0.39849 0.5507 1.00378 0.0
H1630 H 0.43152 0.58265 1.03683 0.0
H1631 H 0.44214 0.59298 1.10037 0.0
H1632 H 0.88655 0.42506 0.12018 0.0
H1633 H 0.88265 0.43159 0.18346 0.0
H1634 H 0.9254 0.39625 0.21047 0.0
H1635 H 0.9274 0.38774 0.14654 0.0
H1636 H 0.9098 0.45819 0.22966 0.0
H1637 H 0.88015 0.36611 0.2899 0.0
H1638 H 0.90923 0.37793 0.26668 0.0
H1639 H 0.88116 0.37052 0.24198 0.0
C1640 C 0.8947 0.41803 0.13945 0.0
C1641 C 0.90737 0.40578 0.12723 0.0
C1642 C 0.89266 0.42209 0.17628 0.0
C1643 C 0.90356 0.41457 0.20338 0.0
C1644 C 0.91595 0.40186 0.19134 0.0
H1645 H 0.86313 0.4199 0.43263 0.0
H1646 H 0.86559 0.40865 0.37021 0.0
C1647 C 0.91741 0.39715 0.15415 0.0
C1648 C 0.90269 0.42138 0.24312 0.0
H1649 H 0.89315 0.39977 0.33061 0.0
C1650 C 0.90605 0.44512 0.25142 0.0
C1651 C 0.89744 0.40483 0.27282 0.0
C1652 C 0.89153 0.37836 0.26744 0.0
C1653 C 0.90432 0.45257 0.28693 0.0
C1654 C 0.90009 0.43643 0.31679 0.0
C1655 C 0.89667 0.41264 0.30864 0.0
C1656 C 0.89857 0.44357 0.35603 0.0
C1657 C 0.90601 0.47753 0.29142 0.0
C1658 C 0.91621 0.46695 0.37065 0.0
C1659 C 0.91432 0.47373 0.40635 0.0
C1660 C 0.89518 0.45719 0.42985 0.0
C1661 C 0.87798 0.43349 0.41575 0.0
C1662 C 0.87954 0.42691 0.37968 0.0
H1663 H 0.90041 0.48335 0.26644 0.0
H1664 H 0.89391 0.47719 0.31357 0.0
H1665 H 0.92566 0.49187 0.29731 0.0
H1666 H 0.93193 0.48008 0.35467 0.0
H1667 H 0.92854 0.49186 0.4159 0.0
H1668 H 0.51552 0.92286 0.47889 0.0
H1669 H 0.50162 0.92323 0.54008 0.0
H1670 H 0.42689 0.86637 0.51124 0.0
H1671 H 0.44037 0.86757 0.44937 0.0
H1672 H 0.48693 0.89921 0.59436 0.0
H1673 H 0.40402 0.90575 0.55919 0.0
H1674 H 0.40087 0.87779 0.54064 0.0
H1675 H 0.42572 0.9078 0.52553 0.0
C1676 C 0.49607 0.91033 0.48541 0.0
C1677 C 0.47918 0.89542 0.45822 0.0
C1678 C 0.48797 0.91055 0.52095 0.0
C1679 C 0.46266 0.89548 0.53137 0.0
C1680 C 0.44617 0.87937 0.50465 0.0
H1681 H 0.40022 0.91876 0.73617 0.0
H1682 H 0.41314 0.91915 0.6737 0.0
C1683 C 0.45411 0.87966 0.46887 0.0
C1684 C 0.45395 0.89628 0.56992 0.0
H1685 H 0.406 0.8941 0.61985 0.0
C1686 C 0.46925 0.89829 0.59948 0.0
C1687 C 0.4312 0.89586 0.57821 0.0
C1688 C 0.41469 0.89699 0.54919 0.0
C1689 C 0.46265 0.89946 0.63572 0.0
C1690 C 0.43896 0.89693 0.64419 0.0
C1691 C 0.42386 0.89545 0.61461 0.0
C1692 C 0.42984 0.89609 0.683 0.0
C1693 C 0.48207 0.90465 0.66421 0.0
C1694 C 0.4335 0.88229 0.71025 0.0
C1695 C 0.42712 0.88307 0.74643 0.0
C1696 C 0.4156 0.89671 0.75733 0.0
C1697 C 0.40968 0.90862 0.72969 0.0
C1698 C 0.41702 0.90866 0.69344 0.0
H1699 H 0.50126 0.91565 0.65308 0.0
H1700 H 0.4805 0.91514 0.6871 0.0
H1701 H 0.47986 0.88677 0.67415 0.0
H1702 H 0.44165 0.87094 0.70381 0.0
H1703 H 0.43159 0.87302 0.76619 0.0
H1704 H 0.58192 0.43679 0.78793 0.0
H1705 H 0.57362 0.42713 0.85187 0.0
H1706 H 0.59466 0.5035 0.8724 0.0
H1707 H 0.60519 0.51356 0.8091 0.0
H1708 H 0.54409 0.42273 0.89742 0.0
H1709 H 0.62963 0.50057 0.95524 0.0
H1710 H 0.61364 0.51233 0.92866 0.0
H1711 H 0.62639 0.49491 0.90769 0.0
C1712 C 0.58545 0.45178 0.80609 0.0
C1713 C 0.59463 0.47617 0.79244 0.0
C1714 C 0.58036 0.44613 0.84321 0.0
C1715 C 0.58378 0.46443 0.86877 0.0
C1716 C 0.59272 0.4888 0.8549 0.0
H1717 H 0.58656 0.44244 1.10565 0.0
H1718 H 0.59541 0.45082 1.04158 0.0
C1719 C 0.59854 0.49461 0.81793 0.0
C1720 C 0.57727 0.45771 0.90897 0.0
H1721 H 0.59603 0.4782 0.99569 0.0
C1722 C 0.55581 0.43493 0.91867 0.0
C1723 C 0.59215 0.47289 0.93812 0.0
C1724 C 0.61685 0.49637 0.93193 0.0
C1725 C 0.54906 0.4271 0.95508 0.0
C1726 C 0.56319 0.4429 0.98423 0.0
C1727 C 0.58462 0.4657 0.97449 0.0
C1728 C 0.55696 0.43611 1.02451 0.0
C1729 C 0.52729 0.40123 0.96138 0.0
C1730 C 0.53227 0.42459 1.03841 0.0
C1731 C 0.52706 0.41875 1.07558 0.0
C1732 C 0.54636 0.42504 1.10099 0.0
C1733 C 0.571 0.43696 1.08736 0.0
C1734 C 0.57613 0.44205 1.05018 0.0
H1735 H 0.52445 0.38881 0.93827 0.0
H1736 H 0.53006 0.39261 0.98586 0.0
H1737 H 0.50995 0.40218 0.96432 0.0
H1738 H 0.51678 0.42058 1.02078 0.0
H1739 H 0.50788 0.41022 1.08462 0.0
H1740 H 0.15986 0.59755 0.43229 0.0
H1741 H 0.15953 0.60812 0.36884 0.0
H1742 H 0.1004 0.53294 0.34865 0.0
H1743 H 0.10253 0.52188 0.41083 0.0
H1744 H 0.13384 0.61421 0.32534 0.0
H1745 H 0.135 0.5345 0.26361 0.0
H1746 H 0.10815 0.52331 0.29177 0.0
H1747 H 0.13919 0.53988 0.31115 0.0
C1748 C 0.14724 0.58302 0.41417 0.0
C1749 C 0.13155 0.55862 0.42744 0.0
C1750 C 0.14682 0.58919 0.37744 0.0
C1751 C 0.13037 0.57142 0.35218 0.0
C1752 C 0.11439 0.54714 0.36581 0.0
H1753 H 0.14343 0.58865 0.11538 0.0
H1754 H 0.14769 0.5827 0.17901 0.0
C1755 C 0.11542 0.54076 0.40217 0.0
C1756 C 0.12952 0.57845 0.31247 0.0
H1757 H 0.12258 0.55717 0.22557 0.0
C1758 C 0.1317 0.6017 0.30366 0.0
C1759 C 0.12711 0.56287 0.28285 0.0
C1760 C 0.12752 0.53892 0.2878 0.0
C1761 C 0.13155 0.60954 0.26755 0.0
C1762 C 0.12766 0.59332 0.23808 0.0
C1763 C 0.12541 0.57006 0.24702 0.0
C1764 C 0.1269 0.59994 0.19807 0.0
C1765 C 0.13673 0.63579 0.26183 0.0
C1766 C 0.11458 0.61266 0.18534 0.0
C1767 C 0.11323 0.61729 0.14806 0.0
C1768 C 0.1231 0.60838 0.12167 0.0
C1769 C 0.13551 0.59594 0.13438 0.0
C1770 C 0.13769 0.59218 0.17139 0.0
H1771 H 0.14772 0.64811 0.28445 0.0
H1772 H 0.14727 0.64397 0.23664 0.0
H1773 H 0.11875 0.63567 0.26056 0.0
H1774 H 0.10503 0.61831 0.20394 0.0
H1775 H 0.10336 0.62679 0.13993 0.0
loop_
_geom_bond_atom_site_label_1
_geom_bond_atom_site_label_2
_geom_bond_distance
_geom_bond_site_symmetry_2
_ccdc_geom_bond_type
Tb0 C10 2.825 . S
Tb0 O11 2.347 . S
Tb0 O14 2.366 . S
Tb0 O19 2.418 . S
Tb0 O20 2.384 . S
Tb0 O23 2.479 . S
Tb0 O24 2.471 . S
Eu1 O12 2.418 . S
Eu1 O13 2.384 . S
Eu1 O16 2.479 . S
Eu1 O17 2.471 . S
Eu1 O18 2.347 . S
Eu1 O21 2.366 . S
Eu1 C31 2.825 . S
C2 O18 1.259 . S
C2 O19 1.265 . S
C3 O20 1.255 . S
C3 O21 1.265 . S
C4 C6 1.380 . S
C4 C7 1.374 . S
C4 C10 1.507 . S
C5 C6 1.384 . S
C5 C9 1.387 . S
C5 H32 0.930 . S
C6 C4 1.380 . S
C6 C5 1.384 . S
C6 H33 0.931 . S
C7 C4 1.374 . S
C7 C8 1.390 . S
C7 H34 0.930 . S
C8 C7 1.390 . S
C8 C9 1.391 . S
C8 H35 0.930 . S
C9 C5 1.387 . S
C9 C8 1.391 . S
C10 Tb0 2.825 . S
C10 C4 1.507 . S
C10 O23 1.238 . S
C10 O24 1.247 . S
O11 Tb0 2.347 . S
O11 C15 1.259 . S
O12 Eu1 2.418 . S
O12 C15 1.265 . S
O13 Eu1 2.384 . S
O13 C22 1.255 . S
O14 Tb0 2.366 . S
O14 C22 1.265 . S
C15 O11 1.259 . S
C15 O12 1.265 . S
O16 Eu1 2.479 . S
O16 C31 1.238 . S
O17 Eu1 2.471 . S
O17 C31 1.247 . S
O18 Eu1 2.347 . S
O18 C2 1.259 . S
O19 Tb0 2.418 . S
O19 C2 1.265 . S
O20 Tb0 2.384 . S
O20 C3 1.255 . S
O21 Eu1 2.366 . S
O21 C3 1.265 . S
C22 O13 1.255 . S
C22 O14 1.265 . S
O23 Tb0 2.479 . S
O23 C10 1.238 . S
O24 Tb0 2.471 . S
O24 C10 1.247 . S
C25 C28 1.380 . S
C25 C29 1.374 . S
C25 C31 1.507 . S
C26 C27 1.387 . S
C26 C30 1.391 . S
C27 C26 1.387 . S
C27 C28 1.384 . S
C27 H36 0.930 . S
C28 C25 1.380 . S
C28 C27 1.384 . S
C28 H37 0.931 . S
C29 C25 1.374 . S
C29 C30 1.390 . S
C29 H38 0.930 . S
C30 C26 1.391 . S
C30 C29 1.390 . S
C30 H39 0.930 . S
C31 Eu1 2.825 . S
C31 O16 1.238 . S
C31 O17 1.247 . S
C31 C25 1.507 . S
H32 C5 0.930 . S
H33 C6 0.931 . S
H34 C7 0.930 . S
H35 C8 0.930 . S
H36 C27 0.930 . S
H37 C28 0.931 . S
H38 C29 0.930 . S
H39 C30 0.930 . S
Tb40 C50 2.825 . S
Tb40 O51 2.347 . S
Tb40 O54 2.366 . S
Tb40 O59 2.418 . S
Tb40 O60 2.384 . S
Tb40 O63 2.479 . S
Tb40 O64 2.471 . S
Eu41 O52 2.418 . S
Eu41 O53 2.384 . S
Eu41 O56 2.479 . S
Eu41 O57 2.471 . S
Eu41 O58 2.347 . S
Eu41 O61 2.366 . S
Eu41 C71 2.825 . S
C42 O58 1.259 . S
C42 O59 1.265 . S
C43 O60 1.255 . S
C43 O61 1.265 . S
C44 C46 1.380 . S
C44 C47 1.374 . S
C44 C50 1.507 . S
C45 C46 1.384 . S
C45 C49 1.387 . S
C45 H72 0.930 . S
C46 C44 1.380 . S
C46 C45 1.384 . S
C46 H73 0.931 . S
C47 C44 1.374 . S
C47 C48 1.390 . S
C47 H74 0.930 . S
C48 C47 1.390 . S
C48 C49 1.391 . S
C48 H75 0.930 . S
C49 C45 1.387 . S
C49 C48 1.391 . S
C50 Tb40 2.825 . S
C50 C44 1.507 . S
C50 O63 1.238 . S
C50 O64 1.247 . S
O51 Tb40 2.347 . S
O51 C55 1.259 . S
O52 Eu41 2.418 . S
O52 C55 1.265 . S
O53 Eu41 2.384 . S
O53 C62 1.255 . S
O54 Tb40 2.366 . S
O54 C62 1.265 . S
C55 O51 1.259 . S
C55 O52 1.265 . S
O56 Eu41 2.479 . S
O56 C71 1.238 . S
O57 Eu41 2.471 . S
O57 C71 1.247 . S
O58 Eu41 2.347 . S
O58 C42 1.259 . S
O59 Tb40 2.418 . S
O59 C42 1.265 . S
O60 Tb40 2.384 . S
O60 C43 1.255 . S
O61 Eu41 2.366 . S
O61 C43 1.265 . S
C62 O53 1.255 . S
C62 O54 1.265 . S
O63 Tb40 2.479 . S
O63 C50 1.238 . S
O64 Tb40 2.471 . S
O64 C50 1.247 . S
C65 C68 1.380 . S
C65 C69 1.374 . S
C65 C71 1.507 . S
C66 C67 1.387 . S
C66 C70 1.391 . S
C67 C66 1.387 . S
C67 C68 1.384 . S
C67 H76 0.930 . S
C68 C65 1.380 . S
C68 C67 1.384 . S
C68 H77 0.931 . S
C69 C65 1.374 . S
C69 C70 1.390 . S
C69 H78 0.930 . S
C70 C66 1.391 . S
C70 C69 1.390 . S
C70 H79 0.930 . S
C71 Eu41 2.825 . S
C71 O56 1.238 . S
C71 O57 1.247 . S
C71 C65 1.507 . S
H72 C45 0.930 . S
H73 C46 0.931 . S
H74 C47 0.930 . S
H75 C48 0.930 . S
H76 C67 0.930 . S
H77 C68 0.931 . S
H78 C69 0.930 . S
H79 C70 0.930 . S
Tb80 C90 2.825 . S
Tb80 O91 2.347 . S
Tb80 O94 2.366 . S
Tb80 O99 2.418 . S
Tb80 O100 2.384 . S
Tb80 O103 2.479 . S
Tb80 O104 2.471 . S
Eu81 O92 2.418 . S
Eu81 O93 2.384 . S
Eu81 O96 2.479 . S
Eu81 O97 2.471 . S
Eu81 O98 2.347 . S
Eu81 O101 2.366 . S
Eu81 C111 2.825 . S
C82 O98 1.259 . S
C82 O99 1.265 . S
C83 O100 1.255 . S
C83 O101 1.265 . S
C84 C86 1.380 . S
C84 C87 1.374 . S
C84 C90 1.507 1_554 S
C85 C86 1.384 . S
C85 C89 1.387 . S
C85 H112 0.930 . S
C86 C84 1.380 . S
C86 C85 1.384 . S
C86 H113 0.931 . S
C87 C84 1.374 . S
C87 C88 1.390 . S
C87 H114 0.930 . S
C88 C87 1.390 . S
C88 C89 1.391 . S
C88 H115 0.930 . S
C89 C85 1.387 . S
C89 C88 1.391 . S
C90 Tb80 2.825 . S
C90 C84 1.507 1_556 S
C90 O103 1.238 . S
C90 O104 1.247 . S
O91 Tb80 2.347 . S
O91 C95 1.259 . S
O92 Eu81 2.418 . S
O92 C95 1.265 . S
O93 Eu81 2.384 . S
O93 C102 1.255 . S
O94 Tb80 2.366 . S
O94 C102 1.265 . S
C95 O91 1.259 . S
C95 O92 1.265 . S
O96 Eu81 2.479 . S
O96 C111 1.238 . S
O97 Eu81 2.471 . S
O97 C111 1.247 . S
O98 Eu81 2.347 . S
O98 C82 1.259 . S
O99 Tb80 2.418 . S
O99 C82 1.265 . S
O100 Tb80 2.384 . S
O100 C83 1.255 . S
O101 Eu81 2.366 . S
O101 C83 1.265 . S
C102 O93 1.255 . S
C102 O94 1.265 . S
O103 Tb80 2.479 . S
O103 C90 1.238 . S
O104 Tb80 2.471 . S
O104 C90 1.247 . S
C105 C108 1.380 . S
C105 C109 1.374 . S
C105 C111 1.507 . S
C106 C107 1.387 . S
C106 C110 1.391 . S
C107 C106 1.387 . S
C107 C108 1.384 . S
C107 H116 0.930 . S
C108 C105 1.380 . S
C108 C107 1.384 . S
C108 H117 0.931 . S
C109 C105 1.374 . S
C109 C110 1.390 . S
C109 H118 0.930 . S
C110 C106 1.391 . S
C110 C109 1.390 . S
C110 H119 0.930 . S
C111 Eu81 2.825 . S
C111 O96 1.238 . S
C111 O97 1.247 . S
C111 C105 1.507 . S
H112 C85 0.930 . S
H113 C86 0.931 . S
H114 C87 0.930 . S
H115 C88 0.930 . S
H116 C107 0.930 . S
H117 C108 0.931 . S
H118 C109 0.930 . S
H119 C110 0.930 . S
Tb120 C130 2.825 . S
Tb120 O131 2.347 . S
Tb120 O134 2.366 . S
Tb120 O139 2.418 . S
Tb120 O140 2.384 . S
Tb120 O143 2.479 . S
Tb120 O144 2.471 . S
Eu121 O132 2.418 . S
Eu121 O133 2.384 . S
Eu121 O136 2.479 . S
Eu121 O137 2.471 . S
Eu121 O138 2.347 . S
Eu121 O141 2.366 . S
Eu121 C151 2.825 . S
C122 O138 1.259 . S
C122 O139 1.265 . S
C123 O140 1.255 . S
C123 O141 1.265 . S
C124 C126 1.380 . S
C124 C127 1.374 . S
C124 C130 1.507 . S
C125 C126 1.384 . S
C125 C129 1.387 . S
C125 H152 0.930 . S
C126 C124 1.380 . S
C126 C125 1.384 . S
C126 H153 0.931 . S
C127 C124 1.374 . S
C127 C128 1.390 . S
C127 H154 0.930 . S
C128 C127 1.390 . S
C128 C129 1.391 . S
C128 H155 0.930 . S
C129 C125 1.387 . S
C129 C128 1.391 . S
C130 Tb120 2.825 . S
C130 C124 1.507 . S
C130 O143 1.238 . S
C130 O144 1.247 . S
O131 Tb120 2.347 . S
O131 C135 1.259 . S
O132 Eu121 2.418 . S
O132 C135 1.265 . S
O133 Eu121 2.384 . S
O133 C142 1.255 . S
O134 Tb120 2.366 . S
O134 C142 1.265 . S
C135 O131 1.259 . S
C135 O132 1.265 . S
O136 Eu121 2.479 . S
O136 C151 1.238 . S
O137 Eu121 2.471 . S
O137 C151 1.247 . S
O138 Eu121 2.347 . S
O138 C122 1.259 . S
O139 Tb120 2.418 . S
O139 C122 1.265 . S
O140 Tb120 2.384 . S
O140 C123 1.255 . S
O141 Eu121 2.366 . S
O141 C123 1.265 . S
C142 O133 1.255 . S
C142 O134 1.265 . S
O143 Tb120 2.479 . S
O143 C130 1.238 . S
O144 Tb120 2.471 . S
O144 C130 1.247 . S
C145 C148 1.380 . S
C145 C149 1.374 . S
C145 C151 1.507 . S
C146 C147 1.387 . S
C146 C150 1.391 . S
C147 C146 1.387 . S
C147 C148 1.384 . S
C147 H156 0.930 . S
C148 C145 1.380 . S
C148 C147 1.384 . S
C148 H157 0.931 . S
C149 C145 1.374 . S
C149 C150 1.390 . S
C149 H158 0.930 . S
C150 C146 1.391 . S
C150 C149 1.390 . S
C150 H159 0.930 . S
C151 Eu121 2.825 . S
C151 O136 1.238 . S
C151 O137 1.247 . S
C151 C145 1.507 . S
H152 C125 0.930 . S
H153 C126 0.931 . S
H154 C127 0.930 . S
H155 C128 0.930 . S
H156 C147 0.930 . S
H157 C148 0.931 . S
H158 C149 0.930 . S
H159 C150 0.930 . S
Tb160 C170 2.825 . S
Tb160 O171 2.347 . S
Tb160 O174 2.366 . S
Tb160 O179 2.418 . S
Tb160 O180 2.384 . S
Tb160 O183 2.479 . S
Tb160 O184 2.471 . S
Eu161 O172 2.418 . S
Eu161 O173 2.384 . S
Eu161 O176 2.479 . S
Eu161 O177 2.471 . S
Eu161 O178 2.347 . S
Eu161 O181 2.366 . S
Eu161 C191 2.825 . S
C162 O178 1.259 . S
C162 O179 1.265 . S
C163 O180 1.255 . S
C163 O181 1.265 . S
C164 C166 1.380 . S
C164 C167 1.374 . S
C164 C170 1.507 . S
C165 C166 1.384 . S
C165 C169 1.387 . S
C165 H192 0.930 . S
C166 C164 1.380 . S
C166 C165 1.384 . S
C166 H193 0.931 . S
C167 C164 1.374 . S
C167 C168 1.390 . S
C167 H194 0.930 . S
C168 C167 1.390 . S
C168 C169 1.391 . S
C168 H195 0.930 . S
C169 C165 1.387 . S
C169 C168 1.391 . S
C170 Tb160 2.825 . S
C170 C164 1.507 . S
C170 O183 1.238 . S
C170 O184 1.247 . S
O171 Tb160 2.347 . S
O171 C175 1.259 . S
O172 Eu161 2.418 . S
O172 C175 1.265 . S
O173 Eu161 2.384 . S
O173 C182 1.255 . S
O174 Tb160 2.366 . S
O174 C182 1.265 . S
C175 O171 1.259 . S
C175 O172 1.265 . S
O176 Eu161 2.479 . S
O176 C191 1.238 . S
O177 Eu161 2.471 . S
O177 C191 1.247 . S
O178 Eu161 2.347 . S
O178 C162 1.259 . S
O179 Tb160 2.418 . S
O179 C162 1.265 . S
O180 Tb160 2.384 . S
O180 C163 1.255 . S
O181 Eu161 2.366 . S
O181 C163 1.265 . S
C182 O173 1.255 . S
C182 O174 1.265 . S
O183 Tb160 2.479 . S
O183 C170 1.238 . S
O184 Tb160 2.471 . S
O184 C170 1.247 . S
C185 C188 1.380 . S
C185 C189 1.374 . S
C185 C191 1.507 . S
C186 C187 1.387 . S
C186 C190 1.391 . S
C187 C186 1.387 . S
C187 C188 1.384 . S
C187 H196 0.930 . S
C188 C185 1.380 . S
C188 C187 1.384 . S
C188 H197 0.931 . S
C189 C185 1.374 . S
C189 C190 1.390 . S
C189 H198 0.930 . S
C190 C186 1.391 . S
C190 C189 1.390 . S
C190 H199 0.930 . S
C191 Eu161 2.825 . S
C191 O176 1.238 . S
C191 O177 1.247 . S
C191 C185 1.507 . S
H192 C165 0.930 . S
H193 C166 0.931 . S
H194 C167 0.930 . S
H195 C168 0.930 . S
H196 C187 0.930 . S
H197 C188 0.931 . S
H198 C189 0.930 . S
H199 C190 0.930 . S
Tb200 C210 2.825 . S
Tb200 O211 2.347 . S
Tb200 O214 2.366 . S
Tb200 O219 2.418 . S
Tb200 O220 2.384 . S
Tb200 O223 2.479 . S
Tb200 O224 2.471 . S
Eu201 O212 2.418 . S
Eu201 O213 2.384 . S
Eu201 O216 2.479 . S
Eu201 O217 2.471 . S
Eu201 O218 2.347 . S
Eu201 O221 2.366 . S
Eu201 C231 2.825 . S
C202 O218 1.259 . S
C202 O219 1.265 . S
C203 O220 1.255 . S
C203 O221 1.265 . S
C204 C206 1.380 . S
C204 C207 1.374 . S
C204 C210 1.507 1_554 S
C205 C206 1.384 . S
C205 C209 1.387 . S
C205 H232 0.930 . S
C206 C204 1.380 . S
C206 C205 1.384 . S
C206 H233 0.931 . S
C207 C204 1.374 . S
C207 C208 1.390 . S
C207 H234 0.930 . S
C208 C207 1.390 . S
C208 C209 1.391 . S
C208 H235 0.930 . S
C209 C205 1.387 . S
C209 C208 1.391 . S
C210 Tb200 2.825 . S
C210 C204 1.507 1_556 S
C210 O223 1.238 . S
C210 O224 1.247 . S
O211 Tb200 2.347 . S
O211 C215 1.259 . S
O212 Eu201 2.418 . S
O212 C215 1.265 . S
O213 Eu201 2.384 . S
O213 C222 1.255 . S
O214 Tb200 2.366 . S
O214 C222 1.265 . S
C215 O211 1.259 . S
C215 O212 1.265 . S
O216 Eu201 2.479 . S
O216 C231 1.238 . S
O217 Eu201 2.471 . S
O217 C231 1.247 . S
O218 Eu201 2.347 . S
O218 C202 1.259 . S
O219 Tb200 2.418 . S
O219 C202 1.265 . S
O220 Tb200 2.384 . S
O220 C203 1.255 . S
O221 Eu201 2.366 . S
O221 C203 1.265 . S
C222 O213 1.255 . S
C222 O214 1.265 . S
O223 Tb200 2.479 . S
O223 C210 1.238 . S
O224 Tb200 2.471 . S
O224 C210 1.247 . S
C225 C228 1.380 . S
C225 C229 1.374 . S
C225 C231 1.507 . S
C226 C227 1.387 . S
C226 C230 1.391 . S
C227 C226 1.387 . S
C227 C228 1.384 . S
C227 H236 0.930 . S
C228 C225 1.380 . S
C228 C227 1.384 . S
C228 H237 0.931 . S
C229 C225 1.374 . S
C229 C230 1.390 . S
C229 H238 0.930 . S
C230 C226 1.391 . S
C230 C229 1.390 . S
C230 H239 0.930 . S
C231 Eu201 2.825 . S
C231 O216 1.238 . S
C231 O217 1.247 . S
C231 C225 1.507 . S
H232 C205 0.930 . S
H233 C206 0.931 . S
H234 C207 0.930 . S
H235 C208 0.930 . S
H236 C227 0.930 . S
H237 C228 0.931 . S
H238 C229 0.930 . S
H239 C230 0.930 . S
Tb240 C250 2.825 . S
Tb240 O251 2.347 . S
Tb240 O254 2.366 . S
Tb240 O259 2.418 . S
Tb240 O260 2.384 . S
Tb240 O263 2.479 . S
Tb240 O264 2.471 . S
Eu241 O252 2.418 . S
Eu241 O253 2.384 . S
Eu241 O256 2.479 . S
Eu241 O257 2.471 . S
Eu241 O258 2.347 . S
Eu241 O261 2.366 . S
Eu241 C271 2.825 . S
C242 O258 1.259 . S
C242 O259 1.265 . S
C243 O260 1.255 . S
C243 O261 1.265 . S
C244 C246 1.380 . S
C244 C247 1.374 . S
C244 C250 1.507 . S
C245 C246 1.384 . S
C245 C249 1.387 . S
C245 H272 0.930 . S
C246 C244 1.380 . S
C246 C245 1.384 . S
C246 H273 0.931 . S
C247 C244 1.374 . S
C247 C248 1.390 . S
C247 H274 0.930 . S
C248 C247 1.390 . S
C248 C249 1.391 . S
C248 H275 0.930 . S
C249 C245 1.387 . S
C249 C248 1.391 . S
C250 Tb240 2.825 . S
C250 C244 1.507 . S
C250 O263 1.238 . S
C250 O264 1.247 . S
O251 Tb240 2.347 . S
O251 C255 1.259 . S
O252 Eu241 2.418 . S
O252 C255 1.265 . S
O253 Eu241 2.384 . S
O253 C262 1.255 . S
O254 Tb240 2.366 . S
O254 C262 1.265 . S
C255 O251 1.259 . S
C255 O252 1.265 . S
O256 Eu241 2.479 . S
O256 C271 1.238 . S
O257 Eu241 2.471 . S
O257 C271 1.247 . S
O258 Eu241 2.347 . S
O258 C242 1.259 . S
O259 Tb240 2.418 . S
O259 C242 1.265 . S
O260 Tb240 2.384 . S
O260 C243 1.255 . S
O261 Eu241 2.366 . S
O261 C243 1.265 . S
C262 O253 1.255 . S
C262 O254 1.265 . S
O263 Tb240 2.479 . S
O263 C250 1.238 . S
O264 Tb240 2.471 . S
O264 C250 1.247 . S
C265 C268 1.380 . S
C265 C269 1.374 . S
C265 C271 1.507 . S
C266 C267 1.387 . S
C266 C270 1.391 . S
C267 C266 1.387 . S
C267 C268 1.384 . S
C267 H276 0.930 . S
C268 C265 1.380 . S
C268 C267 1.384 . S
C268 H277 0.931 . S
C269 C265 1.374 . S
C269 C270 1.390 . S
C269 H278 0.930 . S
C270 C266 1.391 . S
C270 C269 1.390 . S
C270 H279 0.930 . S
C271 Eu241 2.825 . S
C271 O256 1.238 . S
C271 O257 1.247 . S
C271 C265 1.507 . S
H272 C245 0.930 . S
H273 C246 0.931 . S
H274 C247 0.930 . S
H275 C248 0.930 . S
H276 C267 0.930 . S
H277 C268 0.931 . S
H278 C269 0.930 . S
H279 C270 0.930 . S
Tb280 C290 2.825 . S
Tb280 O291 2.347 . S
Tb280 O294 2.366 . S
Tb280 O299 2.418 . S
Tb280 O300 2.384 . S
Tb280 O303 2.479 . S
Tb280 O304 2.471 . S
Eu281 O292 2.418 . S
Eu281 O293 2.384 . S
Eu281 O296 2.479 . S
Eu281 O297 2.471 . S
Eu281 O298 2.347 . S
Eu281 O301 2.366 . S
Eu281 C311 2.825 . S
C282 O298 1.259 . S
C282 O299 1.265 . S
C283 O300 1.255 . S
C283 O301 1.265 . S
C284 C286 1.380 . S
C284 C287 1.374 . S
C284 C290 1.507 . S
C285 C286 1.384 . S
C285 C289 1.387 . S
C285 H312 0.930 . S
C286 C284 1.380 . S
C286 C285 1.384 . S
C286 H313 0.931 . S
C287 C284 1.374 . S
C287 C288 1.390 . S
C287 H314 0.930 . S
C288 C287 1.390 . S
C288 C289 1.391 . S
C288 H315 0.930 . S
C289 C285 1.387 . S
C289 C288 1.391 . S
C290 Tb280 2.825 . S
C290 C284 1.507 . S
C290 O303 1.238 . S
C290 O304 1.247 . S
O291 Tb280 2.347 . S
O291 C295 1.259 . S
O292 Eu281 2.418 . S
O292 C295 1.265 . S
O293 Eu281 2.384 . S
O293 C302 1.255 . S
O294 Tb280 2.366 . S
O294 C302 1.265 . S
C295 O291 1.259 . S
C295 O292 1.265 . S
O296 Eu281 2.479 . S
O296 C311 1.238 . S
O297 Eu281 2.471 . S
O297 C311 1.247 . S
O298 Eu281 2.347 . S
O298 C282 1.259 . S
O299 Tb280 2.418 . S
O299 C282 1.265 . S
O300 Tb280 2.384 . S
O300 C283 1.255 . S
O301 Eu281 2.366 . S
O301 C283 1.265 . S
C302 O293 1.255 . S
C302 O294 1.265 . S
O303 Tb280 2.479 . S
O303 C290 1.238 . S
O304 Tb280 2.471 . S
O304 C290 1.247 . S
C305 C308 1.380 . S
C305 C309 1.374 . S
C305 C311 1.507 . S
C306 C307 1.387 . S
C306 C310 1.391 . S
C307 C306 1.387 . S
C307 C308 1.384 . S
C307 H316 0.930 . S
C308 C305 1.380 . S
C308 C307 1.384 . S
C308 H317 0.931 . S
C309 C305 1.374 . S
C309 C310 1.390 . S
C309 H318 0.930 . S
C310 C306 1.391 . S
C310 C309 1.390 . S
C310 H319 0.930 . S
C311 Eu281 2.825 . S
C311 O296 1.238 . S
C311 O297 1.247 . S
C311 C305 1.507 . S
H312 C285 0.930 . S
H313 C286 0.931 . S
H314 C287 0.930 . S
H315 C288 0.930 . S
H316 C307 0.930 . S
H317 C308 0.931 . S
H318 C309 0.930 . S
H319 C310 0.930 . S
Tb320 C330 2.825 . S
Tb320 O331 2.347 . S
Tb320 O334 2.366 . S
Tb320 O339 2.418 . S
Tb320 O340 2.384 . S
Tb320 O343 2.479 . S
Tb320 O344 2.471 . S
Eu321 O332 2.418 . S
Eu321 O333 2.384 . S
Eu321 O336 2.479 . S
Eu321 O337 2.471 . S
Eu321 O338 2.347 . S
Eu321 O341 2.366 . S
Eu321 C351 2.825 . S
C322 O338 1.259 . S
C322 O339 1.265 . S
C323 O340 1.255 . S
C323 O341 1.265 . S
C324 C326 1.380 . S
C324 C327 1.374 . S
C324 C330 1.507 1_556 S
C325 C326 1.384 . S
C325 C329 1.387 . S
C325 H352 0.930 . S
C326 C324 1.380 . S
C326 C325 1.384 . S
C326 H353 0.931 . S
C327 C324 1.374 . S
C327 C328 1.390 . S
C327 H354 0.930 . S
C328 C327 1.390 . S
C328 C329 1.391 . S
C328 H355 0.930 . S
C329 C325 1.387 . S
C329 C328 1.391 . S
C330 Tb320 2.825 . S
C330 C324 1.507 1_554 S
C330 O343 1.238 . S
C330 O344 1.247 . S
O331 Tb320 2.347 . S
O331 C335 1.259 . S
O332 Eu321 2.418 . S
O332 C335 1.265 . S
O333 Eu321 2.384 . S
O333 C342 1.255 . S
O334 Tb320 2.366 . S
O334 C342 1.265 . S
C335 O331 1.259 . S
C335 O332 1.265 . S
O336 Eu321 2.479 . S
O336 C351 1.238 . S
O337 Eu321 2.471 . S
O337 C351 1.247 . S
O338 Eu321 2.347 . S
O338 C322 1.259 . S
O339 Tb320 2.418 . S
O339 C322 1.265 . S
O340 Tb320 2.384 . S
O340 C323 1.255 . S
O341 Eu321 2.366 . S
O341 C323 1.265 . S
C342 O333 1.255 . S
C342 O334 1.265 . S
O343 Tb320 2.479 . S
O343 C330 1.238 . S
O344 Tb320 2.471 . S
O344 C330 1.247 . S
C345 C348 1.380 . S
C345 C349 1.374 . S
C345 C351 1.507 . S
C346 C347 1.387 . S
C346 C350 1.391 . S
C347 C346 1.387 . S
C347 C348 1.384 . S
C347 H356 0.930 . S
C348 C345 1.380 . S
C348 C347 1.384 . S
C348 H357 0.931 . S
C349 C345 1.374 . S
C349 C350 1.390 . S
C349 H358 0.930 . S
C350 C346 1.391 . S
C350 C349 1.390 . S
C350 H359 0.930 . S
C351 Eu321 2.825 . S
C351 O336 1.238 . S
C351 O337 1.247 . S
C351 C345 1.507 . S
H352 C325 0.930 . S
H353 C326 0.931 . S
H354 C327 0.930 . S
H355 C328 0.930 . S
H356 C347 0.930 . S
H357 C348 0.931 . S
H358 C349 0.930 . S
H359 C350 0.930 . S
Tb360 C370 2.825 . S
Tb360 O371 2.347 . S
Tb360 O374 2.366 . S
Tb360 O379 2.418 . S
Tb360 O380 2.384 . S
Tb360 O383 2.479 . S
Tb360 O384 2.471 . S
Eu361 O372 2.418 . S
Eu361 O373 2.384 . S
Eu361 O376 2.479 . S
Eu361 O377 2.471 . S
Eu361 O378 2.347 . S
Eu361 O381 2.366 . S
Eu361 C391 2.825 . S
C362 O378 1.259 . S
C362 O379 1.265 . S
C363 O380 1.255 . S
C363 O381 1.265 . S
C364 C366 1.380 . S
C364 C367 1.374 . S
C364 C370 1.507 . S
C365 C366 1.384 . S
C365 C369 1.387 . S
C365 H392 0.930 . S
C366 C364 1.380 . S
C366 C365 1.384 . S
C366 H393 0.931 . S
C367 C364 1.374 . S
C367 C368 1.390 . S
C367 H394 0.930 . S
C368 C367 1.390 . S
C368 C369 1.391 . S
C368 H395 0.930 . S
C369 C365 1.387 . S
C369 C368 1.391 . S
C370 Tb360 2.825 . S
C370 C364 1.507 . S
C370 O383 1.238 . S
C370 O384 1.247 . S
O371 Tb360 2.347 . S
O371 C375 1.259 . S
O372 Eu361 2.418 . S
O372 C375 1.265 . S
O373 Eu361 2.384 . S
O373 C382 1.255 . S
O374 Tb360 2.366 . S
O374 C382 1.265 . S
C375 O371 1.259 . S
C375 O372 1.265 . S
O376 Eu361 2.479 . S
O376 C391 1.238 . S
O377 Eu361 2.471 . S
O377 C391 1.247 . S
O378 Eu361 2.347 . S
O378 C362 1.259 . S
O379 Tb360 2.418 . S
O379 C362 1.265 . S
O380 Tb360 2.384 . S
O380 C363 1.255 . S
O381 Eu361 2.366 . S
O381 C363 1.265 . S
C382 O373 1.255 . S
C382 O374 1.265 . S
O383 Tb360 2.479 . S
O383 C370 1.238 . S
O384 Tb360 2.471 . S
O384 C370 1.247 . S
C385 C388 1.380 . S
C385 C389 1.374 . S
C385 C391 1.507 . S
C386 C387 1.387 . S
C386 C390 1.391 . S
C387 C386 1.387 . S
C387 C388 1.384 . S
C387 H396 0.930 . S
C388 C385 1.380 . S
C388 C387 1.384 . S
C388 H397 0.931 . S
C389 C385 1.374 . S
C389 C390 1.390 . S
C389 H398 0.930 . S
C390 C386 1.391 . S
C390 C389 1.390 . S
C390 H399 0.930 . S
C391 Eu361 2.825 . S
C391 O376 1.238 . S
C391 O377 1.247 . S
C391 C385 1.507 . S
H392 C365 0.930 . S
H393 C366 0.931 . S
H394 C367 0.930 . S
H395 C368 0.930 . S
H396 C387 0.930 . S
H397 C388 0.931 . S
H398 C389 0.930 . S
H399 C390 0.930 . S
Tb400 C410 2.825 . S
Tb400 O411 2.347 . S
Tb400 O414 2.366 . S
Tb400 O419 2.418 . S
Tb400 O420 2.384 . S
Tb400 O423 2.479 . S
Tb400 O424 2.471 . S
Eu401 O412 2.418 . S
Eu401 O413 2.384 . S
Eu401 O416 2.479 . S
Eu401 O417 2.471 . S
Eu401 O418 2.347 . S
Eu401 O421 2.366 . S
Eu401 C431 2.825 . S
C402 O418 1.259 . S
C402 O419 1.265 . S
C403 O420 1.255 . S
C403 O421 1.265 . S
C404 C406 1.380 . S
C404 C407 1.374 . S
C404 C410 1.507 . S
C405 C406 1.384 . S
C405 C409 1.387 . S
C405 H432 0.930 . S
C406 C404 1.380 . S
C406 C405 1.384 . S
C406 H433 0.931 . S
C407 C404 1.374 . S
C407 C408 1.390 . S
C407 H434 0.930 . S
C408 C407 1.390 . S
C408 C409 1.391 . S
C408 H435 0.930 . S
C409 C405 1.387 . S
C409 C408 1.391 . S
C410 Tb400 2.825 . S
C410 C404 1.507 . S
C410 O423 1.238 . S
C410 O424 1.247 . S
O411 Tb400 2.347 . S
O411 C415 1.259 . S
O412 Eu401 2.418 . S
O412 C415 1.265 . S
O413 Eu401 2.384 . S
O413 C422 1.255 . S
O414 Tb400 2.366 . S
O414 C422 1.265 . S
C415 O411 1.259 . S
C415 O412 1.265 . S
O416 Eu401 2.479 . S
O416 C431 1.238 . S
O417 Eu401 2.471 . S
O417 C431 1.247 . S
O418 Eu401 2.347 . S
O418 C402 1.259 . S
O419 Tb400 2.418 . S
O419 C402 1.265 . S
O420 Tb400 2.384 . S
O420 C403 1.255 . S
O421 Eu401 2.366 . S
O421 C403 1.265 . S
C422 O413 1.255 . S
C422 O414 1.265 . S
O423 Tb400 2.479 . S
O423 C410 1.238 . S
O424 Tb400 2.471 . S
O424 C410 1.247 . S
C425 C428 1.380 . S
C425 C429 1.374 . S
C425 C431 1.507 . S
C426 C427 1.387 . S
C426 C430 1.391 . S
C427 C426 1.387 . S
C427 C428 1.384 . S
C427 H436 0.930 . S
C428 C425 1.380 . S
C428 C427 1.384 . S
C428 H437 0.931 . S
C429 C425 1.374 . S
C429 C430 1.390 . S
C429 H438 0.930 . S
C430 C426 1.391 . S
C430 C429 1.390 . S
C430 H439 0.930 . S
C431 Eu401 2.825 . S
C431 O416 1.238 . S
C431 O417 1.247 . S
C431 C425 1.507 . S
H432 C405 0.930 . S
H433 C406 0.931 . S
H434 C407 0.930 . S
H435 C408 0.930 . S
H436 C427 0.930 . S
H437 C428 0.931 . S
H438 C429 0.930 . S
H439 C430 0.930 . S
Tb440 C450 2.825 . S
Tb440 O451 2.347 . S
Tb440 O454 2.366 . S
Tb440 O459 2.418 . S
Tb440 O460 2.384 . S
Tb440 O463 2.479 . S
Tb440 O464 2.471 . S
Eu441 O452 2.418 . S
Eu441 O453 2.384 . S
Eu441 O456 2.479 . S
Eu441 O457 2.471 . S
Eu441 O458 2.347 . S
Eu441 O461 2.366 . S
Eu441 C471 2.825 . S
C442 O458 1.259 . S
C442 O459 1.265 . S
C443 O460 1.255 . S
C443 O461 1.265 . S
C444 C446 1.380 . S
C444 C447 1.374 . S
C444 C450 1.507 1_556 S
C445 C446 1.384 . S
C445 C449 1.387 . S
C445 H472 0.930 . S
C446 C444 1.380 . S
C446 C445 1.384 . S
C446 H473 0.931 . S
C447 C444 1.374 . S
C447 C448 1.390 . S
C447 H474 0.930 . S
C448 C447 1.390 . S
C448 C449 1.391 . S
C448 H475 0.930 . S
C449 C445 1.387 . S
C449 C448 1.391 . S
C450 Tb440 2.825 . S
C450 C444 1.507 1_554 S
C450 O463 1.238 . S
C450 O464 1.247 . S
O451 Tb440 2.347 . S
O451 C455 1.259 . S
O452 Eu441 2.418 . S
O452 C455 1.265 . S
O453 Eu441 2.384 . S
O453 C462 1.255 . S
O454 Tb440 2.366 . S
O454 C462 1.265 . S
C455 O451 1.259 . S
C455 O452 1.265 . S
O456 Eu441 2.479 . S
O456 C471 1.238 . S
O457 Eu441 2.471 . S
O457 C471 1.247 . S
O458 Eu441 2.347 . S
O458 C442 1.259 . S
O459 Tb440 2.418 . S
O459 C442 1.265 . S
O460 Tb440 2.384 . S
O460 C443 1.255 . S
O461 Eu441 2.366 . S
O461 C443 1.265 . S
C462 O453 1.255 . S
C462 O454 1.265 . S
O463 Tb440 2.479 . S
O463 C450 1.238 . S
O464 Tb440 2.471 . S
O464 C450 1.247 . S
C465 C468 1.380 . S
C465 C469 1.374 . S
C465 C471 1.507 . S
C466 C467 1.387 . S
C466 C470 1.391 . S
C467 C466 1.387 . S
C467 C468 1.384 . S
C467 H476 0.930 . S
C468 C465 1.380 . S
C468 C467 1.384 . S
C468 H477 0.931 . S
C469 C465 1.374 . S
C469 C470 1.390 . S
C469 H478 0.930 . S
C470 C466 1.391 . S
C470 C469 1.390 . S
C470 H479 0.930 . S
C471 Eu441 2.825 . S
C471 O456 1.238 . S
C471 O457 1.247 . S
C471 C465 1.507 . S
H472 C445 0.930 . S
H473 C446 0.931 . S
H474 C447 0.930 . S
H475 C448 0.930 . S
H476 C467 0.930 . S
H477 C468 0.931 . S
H478 C469 0.930 . S
H479 C470 0.930 . S
H480 C488 0.929 . S
H481 C490 0.930 . S
H482 C492 0.930 . S
H483 C495 0.929 . S
H484 C498 0.930 . S
H485 C500 0.960 . S
H486 C500 0.960 . S
H487 C500 0.960 . S
C488 H480 0.929 . S
C488 C489 1.377 . S
C488 C490 1.384 . S
C489 C488 1.377 . S
C489 C495 1.390 . S
C490 H481 0.930 . S
C490 C488 1.384 . S
C490 C491 1.372 . S
C491 C490 1.372 . S
C491 C492 1.400 . S
C491 C496 1.490 . S
C492 H482 0.930 . S
C492 C491 1.400 . S
C492 C495 1.386 . S
H493 C509 0.930 . S
H494 C510 0.931 . S
C495 H483 0.929 . S
C495 C489 1.390 . S
C495 C492 1.386 . S
C496 C491 1.490 . S
C496 C498 1.395 . S
C496 C499 1.403 . S
H497 C503 0.930 . S
C498 H484 0.930 . S
C498 C496 1.395 . S
C498 C501 1.403 . S
C499 C496 1.403 . S
C499 C500 1.524 . S
C499 C503 1.400 . S
C500 H485 0.960 . S
C500 H486 0.960 . S
C500 H487 0.960 . S
C500 C499 1.524 . S
C501 C498 1.403 . S
C501 C502 1.392 . S
C501 C505 1.495 . S
C502 C501 1.392 . S
C502 C503 1.385 . S
C502 C504 1.478 . S
C503 H497 0.930 . S
C503 C499 1.400 . S
C503 C502 1.385 . S
C504 C502 1.478 . S
C504 C506 1.381 . S
C504 C510 1.383 . S
C505 C501 1.495 . S
C505 H511 0.959 . S
C505 H512 0.961 . S
C505 H513 0.960 . S
C506 C504 1.381 . S
C506 C507 1.394 . S
C506 H514 0.930 . S
C507 C506 1.394 . S
C507 C508 1.383 . S
C507 H515 0.929 . S
C508 C507 1.383 . S
C508 C509 1.377 . S
C509 H493 0.930 . S
C509 C508 1.377 . S
C509 C510 1.379 . S
C510 H494 0.931 . S
C510 C504 1.383 . S
C510 C509 1.379 . S
H511 C505 0.959 . S
H512 C505 0.961 . S
H513 C505 0.960 . S
H514 C506 0.930 . S
H515 C507 0.929 . S
H516 C524 0.929 . S
H517 C526 0.930 . S
H518 C528 0.930 . S
H519 C531 0.929 . S
H520 C534 0.930 . S
H521 C536 0.960 . S
H522 C536 0.960 . S
H523 C536 0.960 . S
C524 H516 0.929 . S
C524 C525 1.377 . S
C524 C526 1.384 . S
C525 C524 1.377 . S
C525 C531 1.390 . S
C526 H517 0.930 . S
C526 C524 1.384 . S
C526 C527 1.372 . S
C527 C526 1.372 . S
C527 C528 1.400 . S
C527 C532 1.490 . S
C528 H518 0.930 . S
C528 C527 1.400 . S
C528 C531 1.386 . S
H529 C545 0.930 . S
H530 C546 0.931 . S
C531 H519 0.929 . S
C531 C525 1.390 . S
C531 C528 1.386 . S
C532 C527 1.490 . S
C532 C534 1.395 . S
C532 C535 1.403 . S
H533 C539 0.930 . S
C534 H520 0.930 . S
C534 C532 1.395 . S
C534 C537 1.403 . S
C535 C532 1.403 . S
C535 C536 1.524 . S
C535 C539 1.400 . S
C536 H521 0.960 . S
C536 H522 0.960 . S
C536 H523 0.960 . S
C536 C535 1.524 . S
C537 C534 1.403 . S
C537 C538 1.392 . S
C537 C541 1.495 . S
C538 C537 1.392 . S
C538 C539 1.385 . S
C538 C540 1.478 . S
C539 H533 0.930 . S
C539 C535 1.400 . S
C539 C538 1.385 . S
C540 C538 1.478 . S
C540 C542 1.381 . S
C540 C546 1.383 . S
C541 C537 1.495 . S
C541 H547 0.959 . S
C541 H548 0.961 . S
C541 H549 0.960 . S
C542 C540 1.381 . S
C542 C543 1.394 . S
C542 H550 0.930 . S
C543 C542 1.394 . S
C543 C544 1.383 . S
C543 H551 0.929 . S
C544 C543 1.383 . S
C544 C545 1.377 . S
C545 H529 0.930 . S
C545 C544 1.377 . S
C545 C546 1.379 . S
C546 H530 0.931 . S
C546 C540 1.383 . S
C546 C545 1.379 . S
H547 C541 0.959 . S
H548 C541 0.961 . S
H549 C541 0.960 . S
H550 C542 0.930 . S
H551 C543 0.929 . S
H552 C560 0.929 . S
H553 C562 0.930 . S
H554 C564 0.930 . S
H555 C567 0.929 . S
H556 C570 0.930 . S
H557 C572 0.960 . S
H558 C572 0.960 . S
H559 C572 0.960 . S
C560 H552 0.929 . S
C560 C561 1.377 . S
C560 C562 1.384 . S
C561 C560 1.377 . S
C561 C567 1.390 . S
C562 H553 0.930 . S
C562 C560 1.384 . S
C562 C563 1.372 . S
C563 C562 1.372 . S
C563 C564 1.400 . S
C563 C568 1.490 . S
C564 H554 0.930 . S
C564 C563 1.400 . S
C564 C567 1.386 . S
H565 C581 0.930 . S
H566 C582 0.931 . S
C567 H555 0.929 . S
C567 C561 1.390 . S
C567 C564 1.386 . S
C568 C563 1.490 . S
C568 C570 1.395 . S
C568 C571 1.403 . S
H569 C575 0.930 . S
C570 H556 0.930 . S
C570 C568 1.395 . S
C570 C573 1.403 . S
C571 C568 1.403 . S
C571 C572 1.524 . S
C571 C575 1.400 . S
C572 H557 0.960 . S
C572 H558 0.960 . S
C572 H559 0.960 . S
C572 C571 1.524 . S
C573 C570 1.403 . S
C573 C574 1.392 . S
C573 C577 1.495 . S
C574 C573 1.392 . S
C574 C575 1.385 . S
C574 C576 1.478 . S
C575 H569 0.930 . S
C575 C571 1.400 . S
C575 C574 1.385 . S
C576 C574 1.478 . S
C576 C578 1.381 . S
C576 C582 1.383 . S
C577 C573 1.495 . S
C577 H583 0.959 . S
C577 H584 0.961 . S
C577 H585 0.960 . S
C578 C576 1.381 . S
C578 C579 1.394 . S
C578 H586 0.930 . S
C579 C578 1.394 . S
C579 C580 1.383 . S
C579 H587 0.929 . S
C580 C579 1.383 . S
C580 C581 1.377 . S
C581 H565 0.930 . S
C581 C580 1.377 . S
C581 C582 1.379 . S
C582 H566 0.931 . S
C582 C576 1.383 . S
C582 C581 1.379 . S
H583 C577 0.959 . S
H584 C577 0.961 . S
H585 C577 0.960 . S
H586 C578 0.930 . S
H587 C579 0.929 . S
H588 C596 0.929 . S
H589 C598 0.930 . S
H590 C600 0.930 . S
H591 C603 0.929 . S
H592 C606 0.930 . S
H593 C608 0.960 . S
H594 C608 0.960 . S
H595 C608 0.960 . S
C596 H588 0.929 . S
C596 C597 1.377 . S
C596 C598 1.384 . S
C597 C596 1.377 . S
C597 C603 1.390 . S
C598 H589 0.930 . S
C598 C596 1.384 . S
C598 C599 1.372 . S
C599 C598 1.372 . S
C599 C600 1.400 . S
C599 C604 1.490 . S
C600 H590 0.930 . S
C600 C599 1.400 . S
C600 C603 1.386 . S
H601 C617 0.930 . S
H602 C618 0.931 . S
C603 H591 0.929 . S
C603 C597 1.390 . S
C603 C600 1.386 . S
C604 C599 1.490 . S
C604 C606 1.395 . S
C604 C607 1.403 . S
H605 C611 0.930 . S
C606 H592 0.930 . S
C606 C604 1.395 . S
C606 C609 1.403 . S
C607 C604 1.403 . S
C607 C608 1.524 . S
C607 C611 1.400 . S
C608 H593 0.960 . S
C608 H594 0.960 . S
C608 H595 0.960 . S
C608 C607 1.524 . S
C609 C606 1.403 . S
C609 C610 1.392 . S
C609 C613 1.495 . S
C610 C609 1.392 . S
C610 C611 1.385 . S
C610 C612 1.478 . S
C611 H605 0.930 . S
C611 C607 1.400 . S
C611 C610 1.385 . S
C612 C610 1.478 . S
C612 C614 1.381 . S
C612 C618 1.383 . S
C613 C609 1.495 . S
C613 H619 0.959 . S
C613 H620 0.961 . S
C613 H621 0.960 . S
C614 C612 1.381 . S
C614 C615 1.394 . S
C614 H622 0.930 . S
C615 C614 1.394 . S
C615 C616 1.383 . S
C615 H623 0.929 . S
C616 C615 1.383 . S
C616 C617 1.377 . S
C617 H601 0.930 . S
C617 C616 1.377 . S
C617 C618 1.379 . S
C618 H602 0.931 . S
C618 C612 1.383 . S
C618 C617 1.379 . S
H619 C613 0.959 . S
H620 C613 0.961 . S
H621 C613 0.960 . S
H622 C614 0.930 . S
H623 C615 0.929 . S
H624 C632 0.929 . S
H625 C634 0.930 . S
H626 C636 0.930 . S
H627 C639 0.929 . S
H628 C642 0.930 . S
H629 C644 0.960 . S
H630 C644 0.960 . S
H631 C644 0.960 . S
C632 H624 0.929 . S
C632 C633 1.377 . S
C632 C634 1.384 . S
C633 C632 1.377 . S
C633 C639 1.390 . S
C634 H625 0.930 . S
C634 C632 1.384 . S
C634 C635 1.372 . S
C635 C634 1.372 . S
C635 C636 1.400 . S
C635 C640 1.490 . S
C636 H626 0.930 . S
C636 C635 1.400 . S
C636 C639 1.386 . S
H637 C653 0.930 . S
H638 C654 0.931 . S
C639 H627 0.929 . S
C639 C633 1.390 . S
C639 C636 1.386 . S
C640 C635 1.490 . S
C640 C642 1.395 . S
C640 C643 1.403 . S
H641 C647 0.930 . S
C642 H628 0.930 . S
C642 C640 1.395 . S
C642 C645 1.403 . S
C643 C640 1.403 . S
C643 C644 1.524 . S
C643 C647 1.400 . S
C644 H629 0.960 . S
C644 H630 0.960 . S
C644 H631 0.960 . S
C644 C643 1.524 . S
C645 C642 1.403 . S
C645 C646 1.392 . S
C645 C649 1.495 . S
C646 C645 1.392 . S
C646 C647 1.385 . S
C646 C648 1.478 . S
C647 H641 0.930 . S
C647 C643 1.400 . S
C647 C646 1.385 . S
C648 C646 1.478 . S
C648 C650 1.381 . S
C648 C654 1.383 . S
C649 C645 1.495 . S
C649 H655 0.959 . S
C649 H656 0.961 . S
C649 H657 0.960 . S
C650 C648 1.381 . S
C650 C651 1.394 . S
C650 H658 0.930 . S
C651 C650 1.394 . S
C651 C652 1.383 . S
C651 H659 0.929 . S
C652 C651 1.383 . S
C652 C653 1.377 . S
C653 H637 0.930 . S
C653 C652 1.377 . S
C653 C654 1.379 . S
C654 H638 0.931 . S
C654 C648 1.383 . S
C654 C653 1.379 . S
H655 C649 0.959 . S
H656 C649 0.961 . S
H657 C649 0.960 . S
H658 C650 0.930 . S
H659 C651 0.929 . S
H660 C668 0.929 . S
H661 C670 0.930 . S
H662 C672 0.930 . S
H663 C675 0.929 . S
H664 C678 0.930 . S
H665 C680 0.960 . S
H666 C680 0.960 . S
H667 C680 0.960 . S
C668 H660 0.929 . S
C668 C669 1.377 . S
C668 C670 1.384 . S
C669 C668 1.377 . S
C669 C675 1.390 . S
C670 H661 0.930 . S
C670 C668 1.384 . S
C670 C671 1.372 . S
C671 C670 1.372 . S
C671 C672 1.400 . S
C671 C676 1.490 . S
C672 H662 0.930 . S
C672 C671 1.400 . S
C672 C675 1.386 . S
H673 C689 0.930 . S
H674 C690 0.931 . S
C675 H663 0.929 . S
C675 C669 1.390 . S
C675 C672 1.386 . S
C676 C671 1.490 . S
C676 C678 1.395 . S
C676 C679 1.403 . S
H677 C683 0.930 . S
C678 H664 0.930 . S
C678 C676 1.395 . S
C678 C681 1.403 . S
C679 C676 1.403 . S
C679 C680 1.524 . S
C679 C683 1.400 . S
C680 H665 0.960 . S
C680 H666 0.960 . S
C680 H667 0.960 . S
C680 C679 1.524 . S
C681 C678 1.403 . S
C681 C682 1.392 . S
C681 C685 1.495 . S
C682 C681 1.392 . S
C682 C683 1.385 . S
C682 C684 1.478 . S
C683 H677 0.930 . S
C683 C679 1.400 . S
C683 C682 1.385 . S
C684 C682 1.478 . S
C684 C686 1.381 . S
C684 C690 1.383 . S
C685 C681 1.495 . S
C685 H691 0.959 . S
C685 H692 0.961 . S
C685 H693 0.960 . S
C686 C684 1.381 . S
C686 C687 1.394 . S
C686 H694 0.930 . S
C687 C686 1.394 . S
C687 C688 1.383 . S
C687 H695 0.929 . S
C688 C687 1.383 . S
C688 C689 1.377 . S
C689 H673 0.930 . S
C689 C688 1.377 . S
C689 C690 1.379 . S
C690 H674 0.931 . S
C690 C684 1.383 . S
C690 C689 1.379 . S
H691 C685 0.959 . S
H692 C685 0.961 . S
H693 C685 0.960 . S
H694 C686 0.930 . S
H695 C687 0.929 . S
H696 C704 0.929 . S
H697 C706 0.930 . S
H698 C708 0.930 . S
H699 C711 0.929 . S
H700 C714 0.931 . S
H701 C716 0.960 . S
H702 C716 0.960 . S
H703 C716 0.960 . S
C704 H696 0.929 . S
C704 C705 1.377 . S
C704 C706 1.384 . S
C705 C704 1.377 . S
C705 C711 1.390 . S
C706 H697 0.930 . S
C706 C704 1.384 . S
C706 C707 1.372 . S
C707 C706 1.372 . S
C707 C708 1.400 . S
C707 C712 1.490 . S
C708 H698 0.930 . S
C708 C707 1.400 . S
C708 C711 1.386 . S
H709 C725 0.930 . S
H710 C726 0.931 . S
C711 H699 0.929 . S
C711 C705 1.390 . S
C711 C708 1.386 . S
C712 C707 1.490 . S
C712 C714 1.395 1_556 S
C712 C715 1.403 . S
H713 C719 0.930 . S
C714 H700 0.931 . S
C714 C712 1.395 1_554 S
C714 C717 1.403 . S
C715 C712 1.403 . S
C715 C716 1.524 . S
C715 C719 1.400 1_556 S
C716 H701 0.960 . S
C716 H702 0.960 . S
C716 H703 0.960 . S
C716 C715 1.524 . S
C717 C714 1.403 . S
C717 C718 1.392 . S
C717 C721 1.495 . S
C718 C717 1.392 . S
C718 C719 1.385 . S
C718 C720 1.478 . S
C719 H713 0.930 . S
C719 C715 1.400 1_554 S
C719 C718 1.385 . S
C720 C718 1.478 . S
C720 C722 1.381 . S
C720 C726 1.383 . S
C721 C717 1.495 . S
C721 H727 0.959 . S
C721 H728 0.961 . S
C721 H729 0.960 . S
C722 C720 1.381 . S
C722 C723 1.394 . S
C722 H730 0.930 . S
C723 C722 1.394 . S
C723 C724 1.383 . S
C723 H731 0.929 . S
C724 C723 1.383 . S
C724 C725 1.377 . S
C725 H709 0.930 . S
C725 C724 1.377 . S
C725 C726 1.379 . S
C726 H710 0.931 . S
C726 C720 1.383 . S
C726 C725 1.379 . S
H727 C721 0.959 . S
H728 C721 0.961 . S
H729 C721 0.960 . S
H730 C722 0.930 . S
H731 C723 0.929 . S
H732 C740 0.929 . S
H733 C742 0.930 . S
H734 C744 0.930 . S
H735 C747 0.929 . S
H736 C750 0.930 . S
H737 C752 0.960 . S
H738 C752 0.960 . S
H739 C752 0.960 . S
C740 H732 0.929 . S
C740 C741 1.377 . S
C740 C742 1.384 . S
C741 C740 1.377 . S
C741 C747 1.390 . S
C742 H733 0.930 . S
C742 C740 1.384 . S
C742 C743 1.372 . S
C743 C742 1.372 . S
C743 C744 1.400 . S
C743 C748 1.490 . S
C744 H734 0.930 . S
C744 C743 1.400 . S
C744 C747 1.386 . S
H745 C761 0.930 . S
H746 C762 0.931 . S
C747 H735 0.929 . S
C747 C741 1.390 . S
C747 C744 1.386 . S
C748 C743 1.490 . S
C748 C750 1.395 . S
C748 C751 1.403 . S
H749 C755 0.930 . S
C750 H736 0.930 . S
C750 C748 1.395 . S
C750 C753 1.403 . S
C751 C748 1.403 . S
C751 C752 1.524 . S
C751 C755 1.400 . S
C752 H737 0.960 . S
C752 H738 0.960 . S
C752 H739 0.960 . S
C752 C751 1.524 . S
C753 C750 1.403 . S
C753 C754 1.392 . S
C753 C757 1.495 . S
C754 C753 1.392 . S
C754 C755 1.385 . S
C754 C756 1.478 . S
C755 H749 0.930 . S
C755 C751 1.400 . S
C755 C754 1.385 . S
C756 C754 1.478 . S
C756 C758 1.381 . S
C756 C762 1.383 . S
C757 C753 1.495 . S
C757 H763 0.959 . S
C757 H764 0.961 . S
C757 H765 0.960 . S
C758 C756 1.381 . S
C758 C759 1.394 . S
C758 H766 0.930 . S
C759 C758 1.394 . S
C759 C760 1.383 . S
C759 H767 0.929 . S
C760 C759 1.383 . S
C760 C761 1.377 . S
C761 H745 0.930 . S
C761 C760 1.377 . S
C761 C762 1.379 . S
C762 H746 0.931 . S
C762 C756 1.383 . S
C762 C761 1.379 . S
H763 C757 0.959 . S
H764 C757 0.961 . S
H765 C757 0.960 . S
H766 C758 0.930 . S
H767 C759 0.929 . S
H768 C776 0.929 . S
H769 C778 0.930 . S
H770 C780 0.930 . S
H771 C783 0.929 . S
H772 C786 0.930 . S
H773 C788 0.960 . S
H774 C788 0.960 . S
H775 C788 0.960 . S
C776 H768 0.929 . S
C776 C777 1.377 . S
C776 C778 1.384 . S
C777 C776 1.377 . S
C777 C783 1.390 . S
C778 H769 0.930 . S
C778 C776 1.384 . S
C778 C779 1.372 . S
C779 C778 1.372 . S
C779 C780 1.400 . S
C779 C784 1.490 . S
C780 H770 0.930 . S
C780 C779 1.400 . S
C780 C783 1.386 . S
H781 C797 0.930 . S
H782 C798 0.931 . S
C783 H771 0.929 . S
C783 C777 1.390 . S
C783 C780 1.386 . S
C784 C779 1.490 . S
C784 C786 1.395 . S
C784 C787 1.403 . S
H785 C791 0.930 . S
C786 H772 0.930 . S
C786 C784 1.395 . S
C786 C789 1.403 . S
C787 C784 1.403 . S
C787 C788 1.524 . S
C787 C791 1.400 . S
C788 H773 0.960 . S
C788 H774 0.960 . S
C788 H775 0.960 . S
C788 C787 1.524 . S
C789 C786 1.403 . S
C789 C790 1.392 . S
C789 C793 1.495 . S
C790 C789 1.392 . S
C790 C791 1.385 . S
C790 C792 1.478 . S
C791 H785 0.930 . S
C791 C787 1.400 . S
C791 C790 1.385 . S
C792 C790 1.478 . S
C792 C794 1.381 . S
C792 C798 1.383 . S
C793 C789 1.495 . S
C793 H799 0.959 . S
C793 H800 0.961 . S
C793 H801 0.960 . S
C794 C792 1.381 . S
C794 C795 1.394 . S
C794 H802 0.930 . S
C795 C794 1.394 . S
C795 C796 1.383 . S
C795 H803 0.929 . S
C796 C795 1.383 . S
C796 C797 1.377 . S
C797 H781 0.930 . S
C797 C796 1.377 . S
C797 C798 1.379 . S
C798 H782 0.931 . S
C798 C792 1.383 . S
C798 C797 1.379 . S
H799 C793 0.959 . S
H800 C793 0.961 . S
H801 C793 0.960 . S
H802 C794 0.930 . S
H803 C795 0.929 . S
H804 C812 0.929 . S
H805 C814 0.930 . S
H806 C816 0.930 . S
H807 C819 0.929 . S
H808 C822 0.930 . S
H809 C824 0.960 . S
H810 C824 0.960 . S
H811 C824 0.960 . S
C812 H804 0.929 . S
C812 C813 1.377 . S
C812 C814 1.384 . S
C813 C812 1.377 . S
C813 C819 1.390 . S
C814 H805 0.930 . S
C814 C812 1.384 . S
C814 C815 1.372 . S
C815 C814 1.372 . S
C815 C816 1.400 . S
C815 C820 1.490 . S
C816 H806 0.930 . S
C816 C815 1.400 . S
C816 C819 1.386 . S
H817 C833 0.930 . S
H818 C834 0.931 . S
C819 H807 0.929 . S
C819 C813 1.390 . S
C819 C816 1.386 . S
C820 C815 1.490 . S
C820 C822 1.395 . S
C820 C823 1.403 . S
H821 C827 0.930 . S
C822 H808 0.930 . S
C822 C820 1.395 . S
C822 C825 1.403 1_556 S
C823 C820 1.403 . S
C823 C824 1.524 . S
C823 C827 1.400 1_556 S
C824 H809 0.960 . S
C824 H810 0.960 . S
C824 H811 0.960 . S
C824 C823 1.524 . S
C825 C822 1.403 1_554 S
C825 C826 1.392 . S
C825 C829 1.495 . S
C826 C825 1.392 . S
C826 C827 1.385 . S
C826 C828 1.478 . S
C827 H821 0.930 . S
C827 C823 1.400 1_554 S
C827 C826 1.385 . S
C828 C826 1.478 . S
C828 C830 1.381 . S
C828 C834 1.383 . S
C829 C825 1.495 . S
C829 H835 0.959 . S
C829 H836 0.961 . S
C829 H837 0.960 . S
C830 C828 1.381 . S
C830 C831 1.394 . S
C830 H838 0.930 . S
C831 C830 1.394 . S
C831 C832 1.383 . S
C831 H839 0.929 . S
C832 C831 1.383 . S
C832 C833 1.377 . S
C833 H817 0.930 . S
C833 C832 1.377 . S
C833 C834 1.379 . S
C834 H818 0.931 . S
C834 C828 1.383 . S
C834 C833 1.379 . S
H835 C829 0.959 . S
H836 C829 0.961 . S
H837 C829 0.960 . S
H838 C830 0.930 . S
H839 C831 0.929 . S
H840 C848 0.929 . S
H841 C850 0.930 . S
H842 C852 0.930 . S
H843 C855 0.929 . S
H844 C858 0.930 . S
H845 C860 0.960 . S
H846 C860 0.960 . S
H847 C860 0.960 . S
C848 H840 0.929 . S
C848 C849 1.377 . S
C848 C850 1.384 . S
C849 C848 1.377 . S
C849 C855 1.390 . S
C850 H841 0.930 . S
C850 C848 1.384 . S
C850 C851 1.372 . S
C851 C850 1.372 . S
C851 C852 1.400 . S
C851 C856 1.490 . S
C852 H842 0.930 . S
C852 C851 1.400 . S
C852 C855 1.386 . S
H853 C869 0.930 . S
H854 C870 0.931 . S
C855 H843 0.929 . S
C855 C849 1.390 . S
C855 C852 1.386 . S
C856 C851 1.490 . S
C856 C858 1.395 . S
C856 C859 1.403 . S
H857 C863 0.930 . S
C858 H844 0.930 . S
C858 C856 1.395 . S
C858 C861 1.403 . S
C859 C856 1.403 . S
C859 C860 1.524 . S
C859 C863 1.400 . S
C860 H845 0.960 . S
C860 H846 0.960 . S
C860 H847 0.960 . S
C860 C859 1.524 . S
C861 C858 1.403 . S
C861 C862 1.392 . S
C861 C865 1.495 . S
C862 C861 1.392 . S
C862 C863 1.385 . S
C862 C864 1.478 . S
C863 H857 0.930 . S
C863 C859 1.400 . S
C863 C862 1.385 . S
C864 C862 1.478 . S
C864 C866 1.381 . S
C864 C870 1.383 . S
C865 C861 1.495 . S
C865 H871 0.959 . S
C865 H872 0.961 . S
C865 H873 0.960 . S
C866 C864 1.381 . S
C866 C867 1.394 . S
C866 H874 0.930 . S
C867 C866 1.394 . S
C867 C868 1.383 . S
C867 H875 0.929 . S
C868 C867 1.383 . S
C868 C869 1.377 . S
C869 H853 0.930 . S
C869 C868 1.377 . S
C869 C870 1.379 . S
C870 H854 0.931 . S
C870 C864 1.383 . S
C870 C869 1.379 . S
H871 C865 0.959 . S
H872 C865 0.961 . S
H873 C865 0.960 . S
H874 C866 0.930 . S
H875 C867 0.929 . S
H876 C884 0.929 . S
H877 C886 0.930 . S
H878 C888 0.930 . S
H879 C891 0.929 . S
H880 C894 0.930 . S
H881 C896 0.960 . S
H882 C896 0.960 . S
H883 C896 0.960 . S
C884 H876 0.929 . S
C884 C885 1.377 . S
C884 C886 1.384 . S
C885 C884 1.377 . S
C885 C891 1.390 . S
C886 H877 0.930 . S
C886 C884 1.384 . S
C886 C887 1.372 . S
C887 C886 1.372 . S
C887 C888 1.400 . S
C887 C892 1.490 . S
C888 H878 0.930 . S
C888 C887 1.400 . S
C888 C891 1.386 . S
H889 C905 0.930 . S
H890 C906 0.931 . S
C891 H879 0.929 . S
C891 C885 1.390 . S
C891 C888 1.386 . S
C892 C887 1.490 . S
C892 C894 1.395 . S
C892 C895 1.403 . S
H893 C899 0.930 . S
C894 H880 0.930 . S
C894 C892 1.395 . S
C894 C897 1.403 . S
C895 C892 1.403 . S
C895 C896 1.524 . S
C895 C899 1.400 . S
C896 H881 0.960 . S
C896 H882 0.960 . S
C896 H883 0.960 . S
C896 C895 1.524 . S
C897 C894 1.403 . S
C897 C898 1.392 . S
C897 C901 1.495 . S
C898 C897 1.392 . S
C898 C899 1.385 . S
C898 C900 1.478 . S
C899 H893 0.930 . S
C899 C895 1.400 . S
C899 C898 1.385 . S
C900 C898 1.478 . S
C900 C902 1.381 . S
C900 C906 1.383 . S
C901 C897 1.495 . S
C901 H907 0.959 . S
C901 H908 0.961 . S
C901 H909 0.960 . S
C902 C900 1.381 . S
C902 C903 1.394 . S
C902 H910 0.930 . S
C903 C902 1.394 . S
C903 C904 1.383 . S
C903 H911 0.929 . S
C904 C903 1.383 . S
C904 C905 1.377 . S
C905 H889 0.930 . S
C905 C904 1.377 . S
C905 C906 1.379 . S
C906 H890 0.931 . S
C906 C900 1.383 . S
C906 C905 1.379 . S
H907 C901 0.959 . S
H908 C901 0.961 . S
H909 C901 0.960 . S
H910 C902 0.930 . S
H911 C903 0.929 . S
H912 C920 0.929 . S
H913 C922 0.930 . S
H914 C924 0.930 . S
H915 C927 0.929 . S
H916 C930 0.930 . S
H917 C932 0.965 . S
H918 C932 0.982 . S
H919 C932 0.916 1_565 S
C920 H912 0.929 . S
C920 C921 1.377 . S
C920 C922 1.384 . S
C921 C920 1.377 . S
C921 C927 1.390 . S
C922 H913 0.930 . S
C922 C920 1.384 . S
C922 C923 1.372 . S
C923 C922 1.372 . S
C923 C924 1.400 . S
C923 C928 1.490 . S
C924 H914 0.930 . S
C924 C923 1.400 . S
C924 C927 1.386 . S
H925 C941 0.930 . S
H926 C942 0.986 . S
C927 H915 0.929 . S
C927 C921 1.390 . S
C927 C924 1.386 . S
C928 C923 1.490 . S
C928 C930 1.395 . S
C928 C931 1.403 . S
H929 C935 0.930 . S
C930 H916 0.930 . S
C930 C928 1.395 . S
C930 C933 1.403 1_566 S
C931 C928 1.403 . S
C931 C932 1.543 1_565 S
C931 C935 1.399 1_566 S
C932 H917 0.965 . S
C932 H918 0.982 . S
C932 H919 0.916 1_545 S
C932 C931 1.543 1_545 S
C933 C930 1.403 1_544 S
C933 C934 1.392 . S
C933 C937 1.495 . S
C934 C933 1.392 . S
C934 C935 1.385 . S
C934 C936 1.478 . S
C935 H929 0.930 . S
C935 C931 1.399 1_544 S
C935 C934 1.385 . S
C936 C934 1.478 . S
C936 C938 1.381 . S
C936 C942 1.383 . S
C937 C933 1.495 . S
C937 H943 0.959 1_545 S
C937 H944 0.961 1_545 S
C937 H945 0.960 . S
C938 C936 1.381 . S
C938 C939 1.394 . S
C938 H946 0.930 . S
C939 C938 1.394 . S
C939 C940 1.383 . S
C939 H947 0.929 . S
C940 C939 1.383 . S
C940 C941 1.377 . S
C941 H925 0.930 . S
C941 C940 1.377 . S
C941 C942 1.379 . S
C942 H926 0.986 . S
C942 C936 1.383 . S
C942 C941 1.379 . S
H943 C937 0.959 1_565 S
H944 C937 0.961 1_565 S
H945 C937 0.960 . S
H946 C938 0.930 . S
H947 C939 0.929 . S
H948 C956 0.929 . S
H949 C958 0.930 . S
H950 C960 0.930 . S
H951 C963 0.929 . S
H952 C966 0.930 . S
H953 C968 0.960 . S
H954 C968 0.960 . S
H955 C968 0.960 . S
C956 H948 0.929 . S
C956 C957 1.377 . S
C956 C958 1.384 . S
C957 C956 1.377 . S
C957 C963 1.390 . S
C958 H949 0.930 . S
C958 C956 1.384 . S
C958 C959 1.372 . S
C959 C958 1.372 . S
C959 C960 1.400 . S
C959 C964 1.490 . S
C960 H950 0.930 . S
C960 C959 1.400 . S
C960 C963 1.386 . S
H961 C977 0.930 . S
H962 C978 0.931 . S
C963 H951 0.929 . S
C963 C957 1.390 . S
C963 C960 1.386 . S
C964 C959 1.490 . S
C964 C966 1.395 . S
C964 C967 1.403 . S
H965 C971 0.930 . S
C966 H952 0.930 . S
C966 C964 1.395 . S
C966 C969 1.403 . S
C967 C964 1.403 . S
C967 C968 1.524 . S
C967 C971 1.400 . S
C968 H953 0.960 . S
C968 H954 0.960 . S
C968 H955 0.960 . S
C968 C967 1.524 . S
C969 C966 1.403 . S
C969 C970 1.392 . S
C969 C973 1.495 . S
C970 C969 1.392 . S
C970 C971 1.385 . S
C970 C972 1.478 . S
C971 H965 0.930 . S
C971 C967 1.400 . S
C971 C970 1.385 . S
C972 C970 1.478 . S
C972 C974 1.381 . S
C972 C978 1.383 . S
C973 C969 1.495 . S
C973 H979 0.959 . S
C973 H980 0.961 . S
C973 H981 0.960 . S
C974 C972 1.381 . S
C974 C975 1.394 . S
C974 H982 0.930 . S
C975 C974 1.394 . S
C975 C976 1.383 . S
C975 H983 0.929 . S
C976 C975 1.383 . S
C976 C977 1.377 . S
C977 H961 0.930 . S
C977 C976 1.377 . S
C977 C978 1.379 . S
C978 H962 0.931 . S
C978 C972 1.383 . S
C978 C977 1.379 . S
H979 C973 0.959 . S
H980 C973 0.961 . S
H981 C973 0.960 . S
H982 C974 0.930 . S
H983 C975 0.929 . S
H984 C992 0.929 . S
H985 C994 0.930 . S
H986 C996 0.930 . S
H987 C999 0.929 . S
H988 C1002 0.930 . S
H989 C1004 0.960 . S
H990 C1004 0.960 . S
H991 C1004 0.960 . S
C992 H984 0.929 . S
C992 C993 1.377 . S
C992 C994 1.384 . S
C993 C992 1.377 . S
C993 C999 1.390 . S
C994 H985 0.930 . S
C994 C992 1.384 . S
C994 C995 1.372 . S
C995 C994 1.372 . S
C995 C996 1.400 . S
C995 C1000 1.490 . S
C996 H986 0.930 . S
C996 C995 1.400 . S
C996 C999 1.386 . S
H997 C1013 0.930 . S
H998 C1014 0.931 . S
C999 H987 0.929 . S
C999 C993 1.390 . S
C999 C996 1.386 . S
C1000 C995 1.490 . S
C1000 C1002 1.395 1_455 S
C1000 C1003 1.403 . S
H1001 C1007 0.930 . S
C1002 H988 0.930 . S
C1002 C1000 1.395 1_655 S
C1002 C1005 1.403 . S
C1003 C1000 1.403 . S
C1003 C1004 1.524 . S
C1003 C1007 1.400 . S
C1004 H989 0.960 . S
C1004 H990 0.960 . S
C1004 H991 0.960 . S
C1004 C1003 1.524 . S
C1005 C1002 1.403 . S
C1005 C1006 1.392 . S
C1005 C1009 1.495 . S
C1006 C1005 1.392 . S
C1006 C1007 1.385 1_655 S
C1006 C1008 1.478 . S
C1007 H1001 0.930 . S
C1007 C1003 1.400 . S
C1007 C1006 1.385 1_455 S
C1008 C1006 1.478 . S
C1008 C1010 1.381 . S
C1008 C1014 1.383 . S
C1009 C1005 1.495 . S
C1009 H1015 0.959 . S
C1009 H1016 0.961 . S
C1009 H1017 0.960 . S
C1010 C1008 1.381 . S
C1010 C1011 1.394 . S
C1010 H1018 0.930 . S
C1011 C1010 1.394 . S
C1011 C1012 1.383 . S
C1011 H1019 0.929 . S
C1012 C1011 1.383 . S
C1012 C1013 1.377 . S
C1013 H997 0.930 . S
C1013 C1012 1.377 . S
C1013 C1014 1.379 . S
C1014 H998 0.931 . S
C1014 C1008 1.383 . S
C1014 C1013 1.379 . S
H1015 C1009 0.959 . S
H1016 C1009 0.961 . S
H1017 C1009 0.960 . S
H1018 C1010 0.930 . S
H1019 C1011 0.929 . S
H1020 C1028 0.929 . S
H1021 C1030 0.930 . S
H1022 C1032 0.930 1_545 S
H1023 C1035 0.929 . S
H1024 C1038 0.930 . S
H1025 C1040 0.960 . S
H1026 C1040 0.967 . S
H1027 C1040 0.960 . S
C1028 H1020 0.929 . S
C1028 C1029 1.377 . S
C1028 C1030 1.384 . S
C1029 C1028 1.377 . S
C1029 C1035 1.390 . S
C1030 H1021 0.930 . S
C1030 C1028 1.384 . S
C1030 C1031 1.372 . S
C1031 C1030 1.372 . S
C1031 C1032 1.400 . S
C1031 C1036 1.490 . S
C1032 H1022 0.930 1_565 S
C1032 C1031 1.400 . S
C1032 C1035 1.386 . S
H1033 C1049 0.930 . S
H1034 C1050 0.931 . S
C1035 H1023 0.929 . S
C1035 C1029 1.390 . S
C1035 C1032 1.386 . S
C1036 C1031 1.490 . S
C1036 C1038 1.395 . S
C1036 C1039 1.403 1_565 S
H1037 C1043 0.930 . S
C1038 H1024 0.930 . S
C1038 C1036 1.395 . S
C1038 C1041 1.403 1_554 S
C1039 C1036 1.403 1_545 S
C1039 C1040 1.524 . S
C1039 C1043 1.400 1_554 S
C1040 H1025 0.960 . S
C1040 H1026 0.967 . S
C1040 H1027 0.960 . S
C1040 C1039 1.524 . S
C1041 C1038 1.403 1_556 S
C1041 C1042 1.392 1_565 S
C1041 C1045 1.495 . S
C1042 C1041 1.392 1_545 S
C1042 C1043 1.385 . S
C1042 C1044 1.478 . S
C1043 H1037 0.930 . S
C1043 C1039 1.400 1_556 S
C1043 C1042 1.385 . S
C1044 C1042 1.478 . S
C1044 C1046 1.381 . S
C1044 C1050 1.383 . S
C1045 C1041 1.495 . S
C1045 H1051 0.959 . S
C1045 H1052 0.961 . S
C1045 H1053 0.960 . S
C1046 C1044 1.381 . S
C1046 C1047 1.394 . S
C1046 H1054 0.930 1_545 S
C1047 C1046 1.394 . S
C1047 C1048 1.383 . S
C1047 H1055 0.929 . S
C1048 C1047 1.383 . S
C1048 C1049 1.377 . S
C1049 H1033 0.930 . S
C1049 C1048 1.377 . S
C1049 C1050 1.379 . S
C1050 H1034 0.931 . S
C1050 C1044 1.383 . S
C1050 C1049 1.379 . S
H1051 C1045 0.959 . S
H1052 C1045 0.961 . S
H1053 C1045 0.960 . S
H1054 C1046 0.930 1_565 S
H1055 C1047 0.929 . S
H1056 C1064 0.929 . S
H1057 C1066 0.930 . S
H1058 C1068 0.930 . S
H1059 C1071 0.929 . S
H1060 C1074 0.930 . S
H1061 C1076 0.960 . S
H1062 C1076 0.960 . S
H1063 C1076 0.960 . S
C1064 H1056 0.929 . S
C1064 C1065 1.377 . S
C1064 C1066 1.384 . S
C1065 C1064 1.377 . S
C1065 C1071 1.390 . S
C1066 H1057 0.930 . S
C1066 C1064 1.384 . S
C1066 C1067 1.372 . S
C1067 C1066 1.372 . S
C1067 C1068 1.400 . S
C1067 C1072 1.490 . S
C1068 H1058 0.930 . S
C1068 C1067 1.400 . S
C1068 C1071 1.386 . S
H1069 C1085 0.930 . S
H1070 C1086 0.931 . S
C1071 H1059 0.929 . S
C1071 C1065 1.390 . S
C1071 C1068 1.386 . S
C1072 C1067 1.490 . S
C1072 C1074 1.395 . S
C1072 C1075 1.403 . S
H1073 C1079 0.930 . S
C1074 H1060 0.930 . S
C1074 C1072 1.395 . S
C1074 C1077 1.403 . S
C1075 C1072 1.403 . S
C1075 C1076 1.524 . S
C1075 C1079 1.400 . S
C1076 H1061 0.960 . S
C1076 H1062 0.960 . S
C1076 H1063 0.960 . S
C1076 C1075 1.524 . S
C1077 C1074 1.403 . S
C1077 C1078 1.392 . S
C1077 C1081 1.495 . S
C1078 C1077 1.392 . S
C1078 C1079 1.385 . S
C1078 C1080 1.478 . S
C1079 H1073 0.930 . S
C1079 C1075 1.400 . S
C1079 C1078 1.385 . S
C1080 C1078 1.478 . S
C1080 C1082 1.381 . S
C1080 C1086 1.383 . S
C1081 C1077 1.495 . S
C1081 H1087 0.959 . S
C1081 H1088 0.961 . S
C1081 H1089 0.960 . S
C1082 C1080 1.381 . S
C1082 C1083 1.394 . S
C1082 H1090 0.930 . S
C1083 C1082 1.394 . S
C1083 C1084 1.383 . S
C1083 H1091 0.929 . S
C1084 C1083 1.383 . S
C1084 C1085 1.377 . S
C1085 H1069 0.930 . S
C1085 C1084 1.377 . S
C1085 C1086 1.379 . S
C1086 H1070 0.931 . S
C1086 C1080 1.383 . S
C1086 C1085 1.379 . S
H1087 C1081 0.959 . S
H1088 C1081 0.961 . S
H1089 C1081 0.960 . S
H1090 C1082 0.930 . S
H1091 C1083 0.929 . S
H1092 C1100 0.929 . S
H1093 C1102 0.930 1_655 S
H1094 C1104 0.930 . S
H1095 C1107 0.929 . S
H1096 C1110 0.930 . S
H1097 C1112 0.960 . S
H1098 C1112 0.960 . S
H1099 C1112 0.960 . S
C1100 H1092 0.929 . S
C1100 C1101 1.377 . S
C1100 C1102 1.384 . S
C1101 C1100 1.377 . S
C1101 C1107 1.390 . S
C1102 H1093 0.930 1_455 S
C1102 C1100 1.384 . S
C1102 C1103 1.372 . S
C1103 C1102 1.372 . S
C1103 C1104 1.400 . S
C1103 C1108 1.490 . S
C1104 H1094 0.930 . S
C1104 C1103 1.400 . S
C1104 C1107 1.386 . S
H1105 C1121 0.930 . S
H1106 C1122 0.931 . S
C1107 H1095 0.929 . S
C1107 C1101 1.390 . S
C1107 C1104 1.386 . S
C1108 C1103 1.490 . S
C1108 C1110 1.395 1_455 S
C1108 C1111 1.403 . S
H1109 C1115 0.930 . S
C1110 H1096 0.930 . S
C1110 C1108 1.395 1_655 S
C1110 C1113 1.403 . S
C1111 C1108 1.403 . S
C1111 C1112 1.524 . S
C1111 C1115 1.400 . S
C1112 H1097 0.960 . S
C1112 H1098 0.960 . S
C1112 H1099 0.960 . S
C1112 C1111 1.524 . S
C1113 C1110 1.403 . S
C1113 C1114 1.392 . S
C1113 C1117 1.495 . S
C1114 C1113 1.392 . S
C1114 C1115 1.385 1_655 S
C1114 C1116 1.478 . S
C1115 H1109 0.930 . S
C1115 C1111 1.400 . S
C1115 C1114 1.385 1_455 S
C1116 C1114 1.478 . S
C1116 C1118 1.381 . S
C1116 C1122 1.383 . S
C1117 C1113 1.495 . S
C1117 H1123 0.959 . S
C1117 H1124 0.961 . S
C1117 H1125 0.960 . S
C1118 C1116 1.381 . S
C1118 C1119 1.394 . S
C1118 H1126 0.930 . S
C1119 C1118 1.394 . S
C1119 C1120 1.383 . S
C1119 H1127 0.929 . S
C1120 C1119 1.383 . S
C1120 C1121 1.377 . S
C1121 H1105 0.930 . S
C1121 C1120 1.377 . S
C1121 C1122 1.379 . S
C1122 H1106 0.931 . S
C1122 C1116 1.383 . S
C1122 C1121 1.379 . S
H1123 C1117 0.959 . S
H1124 C1117 0.961 . S
H1125 C1117 0.960 . S
H1126 C1118 0.930 . S
H1127 C1119 0.929 . S
H1128 C1136 0.929 . S
H1129 C1138 0.930 . S
H1130 C1140 0.930 . S
H1131 C1143 0.929 . S
H1132 C1146 0.930 . S
H1133 C1148 0.960 . S
H1134 C1148 0.960 . S
H1135 C1148 0.960 . S
C1136 H1128 0.929 . S
C1136 C1137 1.377 . S
C1136 C1138 1.384 . S
C1137 C1136 1.377 . S
C1137 C1143 1.390 . S
C1138 H1129 0.930 . S
C1138 C1136 1.384 . S
C1138 C1139 1.372 . S
C1139 C1138 1.372 . S
C1139 C1140 1.400 . S
C1139 C1144 1.490 . S
C1140 H1130 0.930 . S
C1140 C1139 1.400 . S
C1140 C1143 1.386 . S
H1141 C1157 0.930 . S
H1142 C1158 0.931 . S
C1143 H1131 0.929 . S
C1143 C1137 1.390 . S
C1143 C1140 1.386 . S
C1144 C1139 1.490 . S
C1144 C1146 1.395 . S
C1144 C1147 1.403 . S
H1145 C1151 0.930 . S
C1146 H1132 0.930 . S
C1146 C1144 1.395 . S
C1146 C1149 1.403 1_545 S
C1147 C1144 1.403 . S
C1147 C1148 1.524 . S
C1147 C1151 1.400 1_545 S
C1148 H1133 0.960 . S
C1148 H1134 0.960 . S
C1148 H1135 0.960 . S
C1148 C1147 1.524 . S
C1149 C1146 1.403 1_565 S
C1149 C1150 1.392 . S
C1149 C1153 1.495 . S
C1150 C1149 1.392 . S
C1150 C1151 1.385 . S
C1150 C1152 1.478 . S
C1151 H1145 0.930 . S
C1151 C1147 1.400 1_565 S
C1151 C1150 1.385 . S
C1152 C1150 1.478 . S
C1152 C1154 1.381 . S
C1152 C1158 1.383 . S
C1153 C1149 1.495 . S
C1153 H1159 0.959 . S
C1153 H1160 0.961 . S
C1153 H1161 0.960 . S
C1154 C1152 1.381 . S
C1154 C1155 1.394 . S
C1154 H1162 0.930 . S
C1155 C1154 1.394 . S
C1155 C1156 1.383 . S
C1155 H1163 0.929 . S
C1156 C1155 1.383 . S
C1156 C1157 1.377 . S
C1157 H1141 0.930 . S
C1157 C1156 1.377 . S
C1157 C1158 1.379 . S
C1158 H1142 0.931 . S
C1158 C1152 1.383 . S
C1158 C1157 1.379 . S
H1159 C1153 0.959 . S
H1160 C1153 0.961 . S
H1161 C1153 0.960 . S
H1162 C1154 0.930 . S
H1163 C1155 0.929 . S
H1164 C1172 0.929 . S
H1165 C1174 0.930 . S
H1166 C1176 0.930 . S
H1167 C1179 0.929 . S
H1168 C1182 0.930 . S
H1169 C1184 0.960 . S
H1170 C1184 0.960 . S
H1171 C1184 0.960 . S
C1172 H1164 0.929 . S
C1172 C1173 1.377 . S
C1172 C1174 1.384 . S
C1173 C1172 1.377 . S
C1173 C1179 1.390 . S
C1174 H1165 0.930 . S
C1174 C1172 1.384 . S
C1174 C1175 1.372 . S
C1175 C1174 1.372 . S
C1175 C1176 1.400 . S
C1175 C1180 1.490 . S
C1176 H1166 0.930 . S
C1176 C1175 1.400 . S
C1176 C1179 1.386 . S
H1177 C1193 0.930 . S
H1178 C1194 0.931 . S
C1179 H1167 0.929 . S
C1179 C1173 1.390 . S
C1179 C1176 1.386 . S
C1180 C1175 1.490 . S
C1180 C1182 1.395 . S
C1180 C1183 1.403 . S
H1181 C1187 0.930 . S
C1182 H1168 0.930 . S
C1182 C1180 1.395 . S
C1182 C1185 1.403 . S
C1183 C1180 1.403 . S
C1183 C1184 1.524 . S
C1183 C1187 1.400 . S
C1184 H1169 0.960 . S
C1184 H1170 0.960 . S
C1184 H1171 0.960 . S
C1184 C1183 1.524 . S
C1185 C1182 1.403 . S
C1185 C1186 1.392 . S
C1185 C1189 1.495 . S
C1186 C1185 1.392 . S
C1186 C1187 1.385 . S
C1186 C1188 1.478 . S
C1187 H1181 0.930 . S
C1187 C1183 1.400 . S
C1187 C1186 1.385 . S
C1188 C1186 1.478 . S
C1188 C1190 1.381 . S
C1188 C1194 1.383 . S
C1189 C1185 1.495 . S
C1189 H1195 0.959 . S
C1189 H1196 0.961 . S
C1189 H1197 0.960 . S
C1190 C1188 1.381 . S
C1190 C1191 1.394 . S
C1190 H1198 0.930 . S
C1191 C1190 1.394 . S
C1191 C1192 1.383 . S
C1191 H1199 0.929 . S
C1192 C1191 1.383 . S
C1192 C1193 1.377 . S
C1193 H1177 0.930 . S
C1193 C1192 1.377 . S
C1193 C1194 1.379 . S
C1194 H1178 0.931 . S
C1194 C1188 1.383 . S
C1194 C1193 1.379 . S
H1195 C1189 0.959 . S
H1196 C1189 0.961 . S
H1197 C1189 0.960 . S
H1198 C1190 0.930 . S
H1199 C1191 0.929 . S
H1200 C1208 0.929 . S
H1201 C1210 0.930 . S
H1202 C1212 0.930 . S
H1203 C1215 0.929 . S
H1204 C1218 0.930 . S
H1205 C1220 0.960 . S
H1206 C1220 0.960 . S
H1207 C1220 0.960 . S
C1208 H1200 0.929 . S
C1208 C1209 1.377 . S
C1208 C1210 1.384 . S
C1209 C1208 1.377 . S
C1209 C1215 1.390 . S
C1210 H1201 0.930 . S
C1210 C1208 1.384 . S
C1210 C1211 1.372 . S
C1211 C1210 1.372 . S
C1211 C1212 1.400 . S
C1211 C1216 1.490 . S
C1212 H1202 0.930 . S
C1212 C1211 1.400 . S
C1212 C1215 1.386 . S
H1213 C1229 0.930 . S
H1214 C1230 0.931 . S
C1215 H1203 0.929 . S
C1215 C1209 1.390 . S
C1215 C1212 1.386 . S
C1216 C1211 1.490 . S
C1216 C1218 1.395 1_655 S
C1216 C1219 1.403 . S
H1217 C1223 0.930 . S
C1218 H1204 0.930 . S
C1218 C1216 1.395 1_455 S
C1218 C1221 1.403 . S
C1219 C1216 1.403 . S
C1219 C1220 1.524 . S
C1219 C1223 1.400 . S
C1220 H1205 0.960 . S
C1220 H1206 0.960 . S
C1220 H1207 0.960 . S
C1220 C1219 1.524 . S
C1221 C1218 1.403 . S
C1221 C1222 1.392 . S
C1221 C1225 1.495 . S
C1222 C1221 1.392 . S
C1222 C1223 1.385 1_455 S
C1222 C1224 1.478 . S
C1223 H1217 0.930 . S
C1223 C1219 1.400 . S
C1223 C1222 1.385 1_655 S
C1224 C1222 1.478 . S
C1224 C1226 1.381 . S
C1224 C1230 1.383 . S
C1225 C1221 1.495 . S
C1225 H1231 0.959 . S
C1225 H1232 0.961 . S
C1225 H1233 0.960 . S
C1226 C1224 1.381 . S
C1226 C1227 1.394 . S
C1226 H1234 0.930 . S
C1227 C1226 1.394 . S
C1227 C1228 1.383 . S
C1227 H1235 0.929 . S
C1228 C1227 1.383 . S
C1228 C1229 1.377 . S
C1229 H1213 0.930 . S
C1229 C1228 1.377 . S
C1229 C1230 1.379 . S
C1230 H1214 0.931 . S
C1230 C1224 1.383 . S
C1230 C1229 1.379 . S
H1231 C1225 0.959 . S
H1232 C1225 0.961 . S
H1233 C1225 0.960 . S
H1234 C1226 0.930 . S
H1235 C1227 0.929 . S
H1236 C1244 0.929 . S
H1237 C1246 0.930 . S
H1238 C1248 0.930 . S
H1239 C1251 0.929 . S
H1240 C1254 0.930 . S
H1241 C1256 0.960 . S
H1242 C1256 0.960 . S
H1243 C1256 0.960 . S
C1244 H1236 0.929 . S
C1244 C1245 1.377 . S
C1244 C1246 1.384 . S
C1245 C1244 1.377 . S
C1245 C1251 1.390 . S
C1246 H1237 0.930 . S
C1246 C1244 1.384 . S
C1246 C1247 1.372 . S
C1247 C1246 1.372 . S
C1247 C1248 1.400 . S
C1247 C1252 1.490 . S
C1248 H1238 0.930 . S
C1248 C1247 1.400 . S
C1248 C1251 1.386 . S
H1249 C1265 0.930 . S
H1250 C1266 0.931 . S
C1251 H1239 0.929 . S
C1251 C1245 1.390 . S
C1251 C1248 1.386 . S
C1252 C1247 1.490 . S
C1252 C1254 1.395 1_455 S
C1252 C1255 1.403 . S
H1253 C1259 0.930 . S
C1254 H1240 0.930 . S
C1254 C1252 1.395 1_655 S
C1254 C1257 1.403 . S
C1255 C1252 1.403 . S
C1255 C1256 1.524 . S
C1255 C1259 1.400 . S
C1256 H1241 0.960 . S
C1256 H1242 0.960 . S
C1256 H1243 0.960 . S
C1256 C1255 1.524 . S
C1257 C1254 1.403 . S
C1257 C1258 1.392 . S
C1257 C1261 1.495 . S
C1258 C1257 1.392 . S
C1258 C1259 1.385 1_655 S
C1258 C1260 1.478 . S
C1259 H1253 0.930 . S
C1259 C1255 1.400 . S
C1259 C1258 1.385 1_455 S
C1260 C1258 1.478 . S
C1260 C1262 1.381 . S
C1260 C1266 1.383 . S
C1261 C1257 1.495 . S
C1261 H1267 0.959 . S
C1261 H1268 0.961 . S
C1261 H1269 0.960 . S
C1262 C1260 1.381 . S
C1262 C1263 1.394 . S
C1262 H1270 0.930 . S
C1263 C1262 1.394 . S
C1263 C1264 1.383 . S
C1263 H1271 0.929 . S
C1264 C1263 1.383 . S
C1264 C1265 1.377 . S
C1265 H1249 0.930 . S
C1265 C1264 1.377 . S
C1265 C1266 1.379 . S
C1266 H1250 0.931 . S
C1266 C1260 1.383 . S
C1266 C1265 1.379 . S
H1267 C1261 0.959 . S
H1268 C1261 0.961 . S
H1269 C1261 0.960 . S
H1270 C1262 0.930 . S
H1271 C1263 0.929 . S
H1272 C1280 0.929 . S
H1273 C1282 0.930 . S
H1274 C1284 0.930 . S
H1275 C1287 0.929 . S
H1276 C1290 0.930 . S
H1277 C1292 0.960 . S
H1278 C1292 0.960 . S
H1279 C1292 0.960 . S
C1280 H1272 0.929 . S
C1280 C1281 1.377 . S
C1280 C1282 1.384 . S
C1281 C1280 1.377 . S
C1281 C1287 1.390 . S
C1282 H1273 0.930 . S
C1282 C1280 1.384 . S
C1282 C1283 1.372 . S
C1283 C1282 1.372 . S
C1283 C1284 1.400 . S
C1283 C1288 1.490 . S
C1284 H1274 0.930 . S
C1284 C1283 1.400 . S
C1284 C1287 1.386 . S
H1285 C1301 0.930 . S
H1286 C1302 0.931 . S
C1287 H1275 0.929 . S
C1287 C1281 1.390 . S
C1287 C1284 1.386 . S
C1288 C1283 1.490 . S
C1288 C1290 1.395 . S
C1288 C1291 1.403 1_565 S
H1289 C1295 0.930 . S
C1290 H1276 0.930 . S
C1290 C1288 1.395 . S
C1290 C1293 1.403 . S
C1291 C1288 1.403 1_545 S
C1291 C1292 1.524 . S
C1291 C1295 1.400 . S
C1292 H1277 0.960 . S
C1292 H1278 0.960 . S
C1292 H1279 0.960 . S
C1292 C1291 1.524 . S
C1293 C1290 1.403 . S
C1293 C1294 1.392 1_565 S
C1293 C1297 1.495 . S
C1294 C1293 1.392 1_545 S
C1294 C1295 1.385 . S
C1294 C1296 1.478 . S
C1295 H1289 0.930 . S
C1295 C1291 1.400 . S
C1295 C1294 1.385 . S
C1296 C1294 1.478 . S
C1296 C1298 1.381 . S
C1296 C1302 1.383 . S
C1297 C1293 1.495 . S
C1297 H1303 0.959 . S
C1297 H1304 0.961 . S
C1297 H1305 0.960 . S
C1298 C1296 1.381 . S
C1298 C1299 1.394 . S
C1298 H1306 0.930 . S
C1299 C1298 1.394 . S
C1299 C1300 1.383 . S
C1299 H1307 0.929 . S
C1300 C1299 1.383 . S
C1300 C1301 1.377 . S
C1301 H1285 0.930 . S
C1301 C1300 1.377 . S
C1301 C1302 1.379 . S
C1302 H1286 0.931 . S
C1302 C1296 1.383 . S
C1302 C1301 1.379 . S
H1303 C1297 0.959 . S
H1304 C1297 0.961 . S
H1305 C1297 0.960 . S
H1306 C1298 0.930 . S
H1307 C1299 0.929 . S
H1308 C1316 0.929 . S
H1309 C1318 0.930 . S
H1310 C1320 0.930 . S
H1311 C1323 0.929 . S
H1312 C1326 0.930 . S
H1313 C1328 0.960 . S
H1314 C1328 0.960 . S
H1315 C1328 0.960 . S
C1316 H1308 0.929 . S
C1316 C1317 1.377 . S
C1316 C1318 1.384 . S
C1317 C1316 1.377 . S
C1317 C1323 1.390 . S
C1318 H1309 0.930 . S
C1318 C1316 1.384 . S
C1318 C1319 1.372 . S
C1319 C1318 1.372 . S
C1319 C1320 1.400 . S
C1319 C1324 1.490 . S
C1320 H1310 0.930 . S
C1320 C1319 1.400 . S
C1320 C1323 1.386 . S
H1321 C1337 0.930 . S
H1322 C1338 0.931 . S
C1323 H1311 0.929 . S
C1323 C1317 1.390 . S
C1323 C1320 1.386 . S
C1324 C1319 1.490 . S
C1324 C1326 1.395 . S
C1324 C1327 1.403 . S
H1325 C1331 0.930 . S
C1326 H1312 0.930 . S
C1326 C1324 1.395 . S
C1326 C1329 1.403 . S
C1327 C1324 1.403 . S
C1327 C1328 1.524 . S
C1327 C1331 1.400 . S
C1328 H1313 0.960 . S
C1328 H1314 0.960 . S
C1328 H1315 0.960 . S
C1328 C1327 1.524 . S
C1329 C1326 1.403 . S
C1329 C1330 1.392 . S
C1329 C1333 1.495 . S
C1330 C1329 1.392 . S
C1330 C1331 1.385 . S
C1330 C1332 1.478 . S
C1331 H1325 0.930 . S
C1331 C1327 1.400 . S
C1331 C1330 1.385 . S
C1332 C1330 1.478 . S
C1332 C1334 1.381 . S
C1332 C1338 1.383 . S
C1333 C1329 1.495 . S
C1333 H1339 0.959 . S
C1333 H1340 0.961 . S
C1333 H1341 0.960 . S
C1334 C1332 1.381 . S
C1334 C1335 1.394 . S
C1334 H1342 0.930 . S
C1335 C1334 1.394 . S
C1335 C1336 1.383 . S
C1335 H1343 0.929 . S
C1336 C1335 1.383 . S
C1336 C1337 1.377 . S
C1337 H1321 0.930 . S
C1337 C1336 1.377 . S
C1337 C1338 1.379 . S
C1338 H1322 0.931 . S
C1338 C1332 1.383 . S
C1338 C1337 1.379 . S
H1339 C1333 0.959 . S
H1340 C1333 0.961 . S
H1341 C1333 0.960 . S
H1342 C1334 0.930 . S
H1343 C1335 0.929 . S
H1344 C1352 0.929 . S
H1345 C1354 0.930 . S
H1346 C1356 0.930 . S
H1347 C1359 0.929 . S
H1348 C1362 0.930 . S
H1349 C1364 0.960 . S
H1350 C1364 0.960 . S
H1351 C1364 0.960 . S
C1352 H1344 0.929 . S
C1352 C1353 1.377 . S
C1352 C1354 1.384 . S
C1353 C1352 1.377 . S
C1353 C1359 1.390 . S
C1354 H1345 0.930 . S
C1354 C1352 1.384 . S
C1354 C1355 1.372 . S
C1355 C1354 1.372 . S
C1355 C1356 1.400 . S
C1355 C1360 1.490 . S
C1356 H1346 0.930 . S
C1356 C1355 1.400 . S
C1356 C1359 1.386 . S
H1357 C1373 0.930 . S
H1358 C1374 0.931 . S
C1359 H1347 0.929 . S
C1359 C1353 1.390 . S
C1359 C1356 1.386 . S
C1360 C1355 1.490 . S
C1360 C1362 1.395 . S
C1360 C1363 1.403 . S
H1361 C1367 0.930 . S
C1362 H1348 0.930 . S
C1362 C1360 1.395 . S
C1362 C1365 1.403 1_565 S
C1363 C1360 1.403 . S
C1363 C1364 1.524 . S
C1363 C1367 1.400 1_565 S
C1364 H1349 0.960 . S
C1364 H1350 0.960 . S
C1364 H1351 0.960 . S
C1364 C1363 1.524 . S
C1365 C1362 1.403 1_545 S
C1365 C1366 1.392 . S
C1365 C1369 1.495 . S
C1366 C1365 1.392 . S
C1366 C1367 1.385 . S
C1366 C1368 1.478 . S
C1367 H1361 0.930 . S
C1367 C1363 1.400 1_545 S
C1367 C1366 1.385 . S
C1368 C1366 1.478 . S
C1368 C1370 1.381 . S
C1368 C1374 1.383 . S
C1369 C1365 1.495 . S
C1369 H1375 0.959 . S
C1369 H1376 0.961 . S
C1369 H1377 0.960 . S
C1370 C1368 1.381 . S
C1370 C1371 1.394 . S
C1370 H1378 0.930 . S
C1371 C1370 1.394 . S
C1371 C1372 1.383 . S
C1371 H1379 0.929 . S
C1372 C1371 1.383 . S
C1372 C1373 1.377 . S
C1373 H1357 0.930 . S
C1373 C1372 1.377 . S
C1373 C1374 1.379 . S
C1374 H1358 0.931 . S
C1374 C1368 1.383 . S
C1374 C1373 1.379 . S
H1375 C1369 0.959 . S
H1376 C1369 0.961 . S
H1377 C1369 0.960 . S
H1378 C1370 0.930 . S
H1379 C1371 0.929 . S
H1380 C1388 0.929 . S
H1381 C1390 0.930 . S
H1382 C1392 0.930 . S
H1383 C1395 0.929 . S
H1384 C1398 0.930 . S
H1385 C1400 0.960 . S
H1386 C1400 0.960 . S
H1387 C1400 0.960 . S
C1388 H1380 0.929 . S
C1388 C1389 1.377 . S
C1388 C1390 1.384 . S
C1389 C1388 1.377 . S
C1389 C1395 1.390 . S
C1390 H1381 0.930 . S
C1390 C1388 1.384 . S
C1390 C1391 1.372 . S
C1391 C1390 1.372 . S
C1391 C1392 1.400 . S
C1391 C1396 1.490 . S
C1392 H1382 0.930 . S
C1392 C1391 1.400 . S
C1392 C1395 1.386 . S
H1393 C1409 0.930 . S
H1394 C1410 0.931 . S
C1395 H1383 0.929 . S
C1395 C1389 1.390 . S
C1395 C1392 1.386 . S
C1396 C1391 1.490 . S
C1396 C1398 1.395 . S
C1396 C1399 1.403 . S
H1397 C1403 0.930 . S
C1398 H1384 0.930 . S
C1398 C1396 1.395 . S
C1398 C1401 1.403 . S
C1399 C1396 1.403 . S
C1399 C1400 1.524 . S
C1399 C1403 1.400 . S
C1400 H1385 0.960 . S
C1400 H1386 0.960 . S
C1400 H1387 0.960 . S
C1400 C1399 1.524 . S
C1401 C1398 1.403 . S
C1401 C1402 1.392 . S
C1401 C1405 1.495 . S
C1402 C1401 1.392 . S
C1402 C1403 1.385 . S
C1402 C1404 1.478 . S
C1403 H1397 0.930 . S
C1403 C1399 1.400 . S
C1403 C1402 1.385 . S
C1404 C1402 1.478 . S
C1404 C1406 1.381 . S
C1404 C1410 1.383 . S
C1405 C1401 1.495 . S
C1405 H1411 0.959 . S
C1405 H1412 0.961 . S
C1405 H1413 0.960 . S
C1406 C1404 1.381 . S
C1406 C1407 1.394 . S
C1406 H1414 0.930 . S
C1407 C1406 1.394 . S
C1407 C1408 1.383 . S
C1407 H1415 0.929 . S
C1408 C1407 1.383 . S
C1408 C1409 1.377 . S
C1409 H1393 0.930 . S
C1409 C1408 1.377 . S
C1409 C1410 1.379 . S
C1410 H1394 0.931 . S
C1410 C1404 1.383 . S
C1410 C1409 1.379 . S
H1411 C1405 0.959 . S
H1412 C1405 0.961 . S
H1413 C1405 0.960 . S
H1414 C1406 0.930 . S
H1415 C1407 0.929 . S
H1416 C1424 0.929 . S
H1417 C1426 0.930 . S
H1418 C1428 0.930 . S
H1419 C1431 0.929 . S
H1420 C1434 0.930 . S
H1421 C1436 0.960 . S
H1422 C1436 0.960 . S
H1423 C1436 0.960 . S
C1424 H1416 0.929 . S
C1424 C1425 1.377 . S
C1424 C1426 1.384 . S
C1425 C1424 1.377 . S
C1425 C1431 1.390 . S
C1426 H1417 0.930 . S
C1426 C1424 1.384 . S
C1426 C1427 1.372 . S
C1427 C1426 1.372 . S
C1427 C1428 1.400 . S
C1427 C1432 1.490 . S
C1428 H1418 0.930 . S
C1428 C1427 1.400 . S
C1428 C1431 1.386 . S
H1429 C1445 0.930 . S
H1430 C1446 0.931 . S
C1431 H1419 0.929 . S
C1431 C1425 1.390 . S
C1431 C1428 1.386 . S
C1432 C1427 1.490 . S
C1432 C1434 1.395 1_655 S
C1432 C1435 1.403 . S
H1433 C1439 0.930 . S
C1434 H1420 0.930 . S
C1434 C1432 1.395 1_455 S
C1434 C1437 1.403 . S
C1435 C1432 1.403 . S
C1435 C1436 1.524 . S
C1435 C1439 1.400 . S
C1436 H1421 0.960 . S
C1436 H1422 0.960 . S
C1436 H1423 0.960 . S
C1436 C1435 1.524 . S
C1437 C1434 1.403 . S
C1437 C1438 1.392 . S
C1437 C1441 1.495 . S
C1438 C1437 1.392 . S
C1438 C1439 1.385 1_455 S
C1438 C1440 1.478 . S
C1439 H1433 0.930 . S
C1439 C1435 1.400 . S
C1439 C1438 1.385 1_655 S
C1440 C1438 1.478 . S
C1440 C1442 1.381 . S
C1440 C1446 1.383 . S
C1441 C1437 1.495 . S
C1441 H1447 0.959 . S
C1441 H1448 0.961 . S
C1441 H1449 0.960 . S
C1442 C1440 1.381 . S
C1442 C1443 1.394 . S
C1442 H1450 0.930 . S
C1443 C1442 1.394 . S
C1443 C1444 1.383 . S
C1443 H1451 0.929 . S
C1444 C1443 1.383 . S
C1444 C1445 1.377 . S
C1445 H1429 0.930 . S
C1445 C1444 1.377 . S
C1445 C1446 1.379 . S
C1446 H1430 0.931 . S
C1446 C1440 1.383 . S
C1446 C1445 1.379 . S
H1447 C1441 0.959 . S
H1448 C1441 0.961 . S
H1449 C1441 0.960 . S
H1450 C1442 0.930 . S
H1451 C1443 0.929 . S
H1452 C1460 0.929 . S
H1453 C1462 0.930 . S
H1454 C1464 0.930 . S
H1455 C1467 0.929 . S
H1456 C1470 0.936 1_545 S
H1457 C1472 0.960 . S
H1458 C1472 0.960 . S
H1459 C1472 0.960 . S
C1460 H1452 0.929 . S
C1460 C1461 1.377 . S
C1460 C1462 1.384 . S
C1461 C1460 1.377 . S
C1461 C1467 1.390 . S
C1462 H1453 0.930 . S
C1462 C1460 1.384 . S
C1462 C1463 1.372 . S
C1463 C1462 1.372 . S
C1463 C1464 1.400 . S
C1463 C1468 1.490 . S
C1464 H1454 0.930 . S
C1464 C1463 1.400 . S
C1464 C1467 1.386 . S
H1465 C1481 0.930 . S
H1466 C1482 0.931 . S
C1467 H1455 0.929 . S
C1467 C1461 1.390 . S
C1467 C1464 1.386 . S
C1468 C1463 1.490 . S
C1468 C1470 1.378 1_545 S
C1468 C1471 1.403 . S
H1469 C1475 0.930 . S
C1470 H1456 0.936 1_565 S
C1470 C1468 1.378 1_565 S
C1470 C1473 1.415 . S
C1471 C1468 1.403 . S
C1471 C1472 1.524 . S
C1471 C1475 1.400 1_545 S
C1472 H1457 0.960 . S
C1472 H1458 0.960 . S
C1472 H1459 0.960 . S
C1472 C1471 1.524 . S
C1473 C1470 1.415 . S
C1473 C1474 1.392 . S
C1473 C1477 1.495 . S
C1474 C1473 1.392 . S
C1474 C1475 1.385 . S
C1474 C1476 1.478 . S
C1475 H1469 0.930 . S
C1475 C1471 1.400 1_565 S
C1475 C1474 1.385 . S
C1476 C1474 1.478 . S
C1476 C1478 1.381 . S
C1476 C1482 1.383 . S
C1477 C1473 1.495 . S
C1477 H1483 0.959 . S
C1477 H1484 0.961 . S
C1477 H1485 0.960 . S
C1478 C1476 1.381 . S
C1478 C1479 1.394 . S
C1478 H1486 0.930 . S
C1479 C1478 1.394 . S
C1479 C1480 1.383 . S
C1479 H1487 0.929 . S
C1480 C1479 1.383 . S
C1480 C1481 1.377 . S
C1481 H1465 0.930 . S
C1481 C1480 1.377 . S
C1481 C1482 1.379 . S
C1482 H1466 0.931 . S
C1482 C1476 1.383 . S
C1482 C1481 1.379 . S
H1483 C1477 0.959 . S
H1484 C1477 0.961 . S
H1485 C1477 0.960 . S
H1486 C1478 0.930 . S
H1487 C1479 0.929 . S
H1488 C1496 0.929 . S
H1489 C1498 0.930 . S
H1490 C1500 0.930 . S
H1491 C1503 0.929 . S
H1492 C1506 0.930 . S
H1493 C1508 0.960 . S
H1494 C1508 0.960 . S
H1495 C1508 0.960 . S
C1496 H1488 0.929 . S
C1496 C1497 1.377 . S
C1496 C1498 1.384 . S
C1497 C1496 1.377 . S
C1497 C1503 1.390 . S
C1498 H1489 0.930 . S
C1498 C1496 1.384 . S
C1498 C1499 1.372 . S
C1499 C1498 1.372 . S
C1499 C1500 1.400 . S
C1499 C1504 1.490 . S
C1500 H1490 0.930 . S
C1500 C1499 1.400 . S
C1500 C1503 1.386 . S
H1501 C1517 0.930 . S
H1502 C1518 0.931 . S
C1503 H1491 0.929 . S
C1503 C1497 1.390 . S
C1503 C1500 1.386 . S
C1504 C1499 1.490 . S
C1504 C1506 1.395 . S
C1504 C1507 1.403 . S
H1505 C1511 0.930 . S
C1506 H1492 0.930 . S
C1506 C1504 1.395 . S
C1506 C1509 1.403 . S
C1507 C1504 1.403 . S
C1507 C1508 1.524 . S
C1507 C1511 1.400 . S
C1508 H1493 0.960 . S
C1508 H1494 0.960 . S
C1508 H1495 0.960 . S
C1508 C1507 1.524 . S
C1509 C1506 1.403 . S
C1509 C1510 1.392 . S
C1509 C1513 1.495 . S
C1510 C1509 1.392 . S
C1510 C1511 1.385 . S
C1510 C1512 1.478 . S
C1511 H1505 0.930 . S
C1511 C1507 1.400 . S
C1511 C1510 1.385 . S
C1512 C1510 1.478 . S
C1512 C1514 1.381 . S
C1512 C1518 1.383 . S
C1513 C1509 1.495 . S
C1513 H1519 0.959 . S
C1513 H1520 0.961 . S
C1513 H1521 0.960 . S
C1514 C1512 1.381 . S
C1514 C1515 1.394 . S
C1514 H1522 0.930 . S
C1515 C1514 1.394 . S
C1515 C1516 1.383 . S
C1515 H1523 0.929 . S
C1516 C1515 1.383 . S
C1516 C1517 1.377 . S
C1517 H1501 0.930 . S
C1517 C1516 1.377 . S
C1517 C1518 1.379 . S
C1518 H1502 0.931 . S
C1518 C1512 1.383 . S
C1518 C1517 1.379 . S
H1519 C1513 0.959 . S
H1520 C1513 0.961 . S
H1521 C1513 0.960 . S
H1522 C1514 0.930 . S
H1523 C1515 0.929 . S
H1524 C1532 0.929 . S
H1525 C1534 0.930 . S
H1526 C1536 0.930 . S
H1527 C1539 0.929 . S
H1528 C1542 0.930 . S
H1529 C1544 0.960 . S
H1530 C1544 0.960 . S
H1531 C1544 0.960 . S
C1532 H1524 0.929 . S
C1532 C1533 1.377 . S
C1532 C1534 1.384 . S
C1533 C1532 1.377 . S
C1533 C1539 1.390 . S
C1534 H1525 0.930 . S
C1534 C1532 1.384 . S
C1534 C1535 1.372 . S
C1535 C1534 1.372 . S
C1535 C1536 1.400 . S
C1535 C1540 1.490 . S
C1536 H1526 0.930 . S
C1536 C1535 1.400 . S
C1536 C1539 1.386 . S
H1537 C1553 0.930 . S
H1538 C1554 0.931 . S
C1539 H1527 0.929 . S
C1539 C1533 1.390 . S
C1539 C1536 1.386 . S
C1540 C1535 1.490 . S
C1540 C1542 1.395 1_455 S
C1540 C1543 1.403 . S
H1541 C1547 0.930 . S
C1542 H1528 0.930 . S
C1542 C1540 1.395 1_655 S
C1542 C1545 1.403 . S
C1543 C1540 1.403 . S
C1543 C1544 1.524 . S
C1543 C1547 1.400 . S
C1544 H1529 0.960 . S
C1544 H1530 0.960 . S
C1544 H1531 0.960 . S
C1544 C1543 1.524 . S
C1545 C1542 1.403 . S
C1545 C1546 1.392 . S
C1545 C1549 1.495 . S
C1546 C1545 1.392 . S
C1546 C1547 1.385 1_655 S
C1546 C1548 1.478 . S
C1547 H1541 0.930 . S
C1547 C1543 1.400 . S
C1547 C1546 1.385 1_455 S
C1548 C1546 1.478 . S
C1548 C1550 1.381 . S
C1548 C1554 1.383 . S
C1549 C1545 1.495 . S
C1549 H1555 0.959 . S
C1549 H1556 0.961 . S
C1549 H1557 0.960 . S
C1550 C1548 1.381 . S
C1550 C1551 1.394 . S
C1550 H1558 0.930 . S
C1551 C1550 1.394 . S
C1551 C1552 1.383 . S
C1551 H1559 0.929 . S
C1552 C1551 1.383 . S
C1552 C1553 1.377 . S
C1553 H1537 0.930 . S
C1553 C1552 1.377 . S
C1553 C1554 1.379 . S
C1554 H1538 0.931 . S
C1554 C1548 1.383 . S
C1554 C1553 1.379 . S
H1555 C1549 0.959 . S
H1556 C1549 0.961 . S
H1557 C1549 0.960 . S
H1558 C1550 0.930 . S
H1559 C1551 0.929 . S
H1560 C1568 0.929 . S
H1561 C1570 0.930 . S
H1562 C1572 0.930 . S
H1563 C1575 0.929 . S
H1564 C1578 0.930 . S
H1565 C1580 0.960 . S
H1566 C1580 0.960 . S
H1567 C1580 0.960 . S
C1568 H1560 0.929 . S
C1568 C1569 1.377 . S
C1568 C1570 1.384 . S
C1569 C1568 1.377 . S
C1569 C1575 1.390 . S
C1570 H1561 0.930 . S
C1570 C1568 1.384 . S
C1570 C1571 1.372 . S
C1571 C1570 1.372 . S
C1571 C1572 1.400 . S
C1571 C1576 1.490 . S
C1572 H1562 0.930 . S
C1572 C1571 1.400 . S
C1572 C1575 1.386 . S
H1573 C1589 0.930 . S
H1574 C1590 0.931 . S
C1575 H1563 0.929 . S
C1575 C1569 1.390 . S
C1575 C1572 1.386 . S
C1576 C1571 1.490 . S
C1576 C1578 1.395 . S
C1576 C1579 1.403 . S
H1577 C1583 0.930 . S
C1578 H1564 0.930 . S
C1578 C1576 1.395 . S
C1578 C1581 1.403 . S
C1579 C1576 1.403 . S
C1579 C1580 1.524 . S
C1579 C1583 1.400 . S
C1580 H1565 0.960 . S
C1580 H1566 0.960 . S
C1580 H1567 0.960 . S
C1580 C1579 1.524 . S
C1581 C1578 1.403 . S
C1581 C1582 1.392 . S
C1581 C1585 1.495 . S
C1582 C1581 1.392 . S
C1582 C1583 1.385 . S
C1582 C1584 1.478 . S
C1583 H1577 0.930 . S
C1583 C1579 1.400 . S
C1583 C1582 1.385 . S
C1584 C1582 1.478 . S
C1584 C1586 1.381 . S
C1584 C1590 1.383 . S
C1585 C1581 1.495 . S
C1585 H1591 0.959 . S
C1585 H1592 0.961 . S
C1585 H1593 0.960 . S
C1586 C1584 1.381 . S
C1586 C1587 1.394 . S
C1586 H1594 0.930 . S
C1587 C1586 1.394 . S
C1587 C1588 1.383 . S
C1587 H1595 0.929 . S
C1588 C1587 1.383 . S
C1588 C1589 1.377 . S
C1589 H1573 0.930 . S
C1589 C1588 1.377 . S
C1589 C1590 1.379 . S
C1590 H1574 0.931 . S
C1590 C1584 1.383 . S
C1590 C1589 1.379 . S
H1591 C1585 0.959 . S
H1592 C1585 0.961 . S
H1593 C1585 0.960 . S
H1594 C1586 0.930 . S
H1595 C1587 0.929 . S
H1596 C1604 0.929 . S
H1597 C1606 0.930 . S
H1598 C1608 0.930 . S
H1599 C1611 0.929 . S
H1600 C1614 0.930 . S
H1601 C1616 0.960 . S
H1602 C1616 0.960 . S
H1603 C1616 0.960 . S
C1604 H1596 0.929 . S
C1604 C1605 1.377 . S
C1604 C1606 1.384 . S
C1605 C1604 1.377 . S
C1605 C1611 1.390 . S
C1606 H1597 0.930 . S
C1606 C1604 1.384 . S
C1606 C1607 1.372 . S
C1607 C1606 1.372 . S
C1607 C1608 1.400 . S
C1607 C1612 1.490 . S
C1608 H1598 0.930 . S
C1608 C1607 1.400 . S
C1608 C1611 1.386 . S
H1609 C1625 0.930 . S
H1610 C1626 0.931 . S
C1611 H1599 0.929 . S
C1611 C1605 1.390 . S
C1611 C1608 1.386 . S
C1612 C1607 1.490 . S
C1612 C1614 1.395 . S
C1612 C1615 1.403 . S
H1613 C1619 0.930 . S
C1614 H1600 0.930 . S
C1614 C1612 1.395 . S
C1614 C1617 1.403 . S
C1615 C1612 1.403 . S
C1615 C1616 1.524 . S
C1615 C1619 1.400 . S
C1616 H1601 0.960 . S
C1616 H1602 0.960 . S
C1616 H1603 0.960 . S
C1616 C1615 1.524 . S
C1617 C1614 1.403 . S
C1617 C1618 1.392 . S
C1617 C1621 1.495 . S
C1618 C1617 1.392 . S
C1618 C1619 1.385 . S
C1618 C1620 1.478 . S
C1619 H1613 0.930 . S
C1619 C1615 1.400 . S
C1619 C1618 1.385 . S
C1620 C1618 1.478 . S
C1620 C1622 1.381 . S
C1620 C1626 1.383 . S
C1621 C1617 1.495 . S
C1621 H1627 0.959 . S
C1621 H1628 0.961 . S
C1621 H1629 0.960 . S
C1622 C1620 1.381 . S
C1622 C1623 1.394 . S
C1622 H1630 0.930 . S
C1623 C1622 1.394 . S
C1623 C1624 1.383 . S
C1623 H1631 0.929 . S
C1624 C1623 1.383 . S
C1624 C1625 1.377 . S
C1625 H1609 0.930 . S
C1625 C1624 1.377 . S
C1625 C1626 1.379 . S
C1626 H1610 0.931 . S
C1626 C1620 1.383 . S
C1626 C1625 1.379 . S
H1627 C1621 0.959 . S
H1628 C1621 0.961 . S
H1629 C1621 0.960 . S
H1630 C1622 0.930 . S
H1631 C1623 0.929 . S
H1632 C1640 0.929 . S
H1633 C1642 0.930 . S
H1634 C1644 0.930 . S
H1635 C1647 0.929 . S
H1636 C1650 0.930 . S
H1637 C1652 0.960 . S
H1638 C1652 0.960 . S
H1639 C1652 0.960 . S
C1640 H1632 0.929 . S
C1640 C1641 1.377 . S
C1640 C1642 1.384 . S
C1641 C1640 1.377 . S
C1641 C1647 1.390 . S
C1642 H1633 0.930 . S
C1642 C1640 1.384 . S
C1642 C1643 1.372 . S
C1643 C1642 1.372 . S
C1643 C1644 1.400 . S
C1643 C1648 1.490 . S
C1644 H1634 0.930 . S
C1644 C1643 1.400 . S
C1644 C1647 1.386 . S
H1645 C1661 0.930 . S
H1646 C1662 0.931 . S
C1647 H1635 0.929 . S
C1647 C1641 1.390 . S
C1647 C1644 1.386 . S
C1648 C1643 1.490 . S
C1648 C1650 1.395 . S
C1648 C1651 1.403 . S
H1649 C1655 0.930 . S
C1650 H1636 0.930 . S
C1650 C1648 1.395 . S
C1650 C1653 1.403 . S
C1651 C1648 1.403 . S
C1651 C1652 1.524 . S
C1651 C1655 1.400 . S
C1652 H1637 0.960 . S
C1652 H1638 0.960 . S
C1652 H1639 0.960 . S
C1652 C1651 1.524 . S
C1653 C1650 1.403 . S
C1653 C1654 1.392 . S
C1653 C1657 1.495 . S
C1654 C1653 1.392 . S
C1654 C1655 1.385 . S
C1654 C1656 1.478 . S
C1655 H1649 0.930 . S
C1655 C1651 1.400 . S
C1655 C1654 1.385 . S
C1656 C1654 1.478 . S
C1656 C1658 1.381 . S
C1656 C1662 1.383 . S
C1657 C1653 1.495 . S
C1657 H1663 0.959 . S
C1657 H1664 0.961 . S
C1657 H1665 0.960 . S
C1658 C1656 1.381 . S
C1658 C1659 1.394 . S
C1658 H1666 0.930 . S
C1659 C1658 1.394 . S
C1659 C1660 1.383 . S
C1659 H1667 0.929 . S
C1660 C1659 1.383 . S
C1660 C1661 1.377 . S
C1661 H1645 0.930 . S
C1661 C1660 1.377 . S
C1661 C1662 1.379 . S
C1662 H1646 0.931 . S
C1662 C1656 1.383 . S
C1662 C1661 1.379 . S
H1663 C1657 0.959 . S
H1664 C1657 0.961 . S
H1665 C1657 0.960 . S
H1666 C1658 0.930 . S
H1667 C1659 0.929 . S
H1668 C1676 0.929 . S
H1669 C1678 0.930 . S
H1670 C1680 0.930 . S
H1671 C1683 0.929 . S
H1672 C1686 0.930 . S
H1673 C1688 0.960 . S
H1674 C1688 0.960 . S
H1675 C1688 0.960 . S
C1676 H1668 0.929 . S
C1676 C1677 1.377 . S
C1676 C1678 1.384 . S
C1677 C1676 1.377 . S
C1677 C1683 1.390 . S
C1678 H1669 0.930 . S
C1678 C1676 1.384 . S
C1678 C1679 1.372 . S
C1679 C1678 1.372 . S
C1679 C1680 1.400 . S
C1679 C1684 1.490 . S
C1680 H1670 0.930 . S
C1680 C1679 1.400 . S
C1680 C1683 1.386 . S
H1681 C1697 0.930 . S
H1682 C1698 0.931 . S
C1683 H1671 0.929 . S
C1683 C1677 1.390 . S
C1683 C1680 1.386 . S
C1684 C1679 1.490 . S
C1684 C1686 1.395 . S
C1684 C1687 1.403 . S
H1685 C1691 0.930 . S
C1686 H1672 0.930 . S
C1686 C1684 1.395 . S
C1686 C1689 1.403 . S
C1687 C1684 1.403 . S
C1687 C1688 1.524 . S
C1687 C1691 1.400 . S
C1688 H1673 0.960 . S
C1688 H1674 0.960 . S
C1688 H1675 0.960 . S
C1688 C1687 1.524 . S
C1689 C1686 1.403 . S
C1689 C1690 1.392 . S
C1689 C1693 1.495 . S
C1690 C1689 1.392 . S
C1690 C1691 1.385 . S
C1690 C1692 1.478 . S
C1691 H1685 0.930 . S
C1691 C1687 1.400 . S
C1691 C1690 1.385 . S
C1692 C1690 1.478 . S
C1692 C1694 1.381 . S
C1692 C1698 1.383 . S
C1693 C1689 1.495 . S
C1693 H1699 0.959 . S
C1693 H1700 0.961 . S
C1693 H1701 0.960 . S
C1694 C1692 1.381 . S
C1694 C1695 1.394 . S
C1694 H1702 0.930 . S
C1695 C1694 1.394 . S
C1695 C1696 1.383 . S
C1695 H1703 0.929 . S
C1696 C1695 1.383 . S
C1696 C1697 1.377 . S
C1697 H1681 0.930 . S
C1697 C1696 1.377 . S
C1697 C1698 1.379 . S
C1698 H1682 0.931 . S
C1698 C1692 1.383 . S
C1698 C1697 1.379 . S
H1699 C1693 0.959 . S
H1700 C1693 0.961 . S
H1701 C1693 0.960 . S
H1702 C1694 0.930 . S
H1703 C1695 0.929 . S
H1704 C1712 0.929 . S
H1705 C1714 0.930 . S
H1706 C1716 0.930 . S
H1707 C1719 0.929 . S
H1708 C1722 0.930 . S
H1709 C1724 0.960 . S
H1710 C1724 0.960 . S
H1711 C1724 0.960 . S
C1712 H1704 0.929 . S
C1712 C1713 1.377 . S
C1712 C1714 1.384 . S
C1713 C1712 1.377 . S
C1713 C1719 1.390 . S
C1714 H1705 0.930 . S
C1714 C1712 1.384 . S
C1714 C1715 1.372 . S
C1715 C1714 1.372 . S
C1715 C1716 1.400 . S
C1715 C1720 1.490 . S
C1716 H1706 0.930 . S
C1716 C1715 1.400 . S
C1716 C1719 1.386 . S
H1717 C1733 0.930 . S
H1718 C1734 0.931 . S
C1719 H1707 0.929 . S
C1719 C1713 1.390 . S
C1719 C1716 1.386 . S
C1720 C1715 1.490 . S
C1720 C1722 1.395 . S
C1720 C1723 1.403 . S
H1721 C1727 0.930 . S
C1722 H1708 0.930 . S
C1722 C1720 1.395 . S
C1722 C1725 1.403 . S
C1723 C1720 1.403 . S
C1723 C1724 1.524 . S
C1723 C1727 1.400 . S
C1724 H1709 0.960 . S
C1724 H1710 0.960 . S
C1724 H1711 0.960 . S
C1724 C1723 1.524 . S
C1725 C1722 1.403 . S
C1725 C1726 1.392 . S
C1725 C1729 1.495 . S
C1726 C1725 1.392 . S
C1726 C1727 1.385 . S
C1726 C1728 1.478 . S
C1727 H1721 0.930 . S
C1727 C1723 1.400 . S
C1727 C1726 1.385 . S
C1728 C1726 1.478 . S
C1728 C1730 1.381 . S
C1728 C1734 1.383 . S
C1729 C1725 1.495 . S
C1729 H1735 0.959 . S
C1729 H1736 0.961 . S
C1729 H1737 0.960 . S
C1730 C1728 1.381 . S
C1730 C1731 1.394 . S
C1730 H1738 0.930 . S
C1731 C1730 1.394 . S
C1731 C1732 1.383 . S
C1731 H1739 0.929 . S
C1732 C1731 1.383 . S
C1732 C1733 1.377 . S
C1733 H1717 0.930 . S
C1733 C1732 1.377 . S
C1733 C1734 1.379 . S
C1734 H1718 0.931 . S
C1734 C1728 1.383 . S
C1734 C1733 1.379 . S
H1735 C1729 0.959 . S
H1736 C1729 0.961 . S
H1737 C1729 0.960 . S
H1738 C1730 0.930 . S
H1739 C1731 0.929 . S
H1740 C1748 0.929 . S
H1741 C1750 0.930 . S
H1742 C1752 0.930 . S
H1743 C1755 0.929 . S
H1744 C1758 0.930 . S
H1745 C1760 0.960 . S
H1746 C1760 0.960 . S
H1747 C1760 0.960 . S
C1748 H1740 0.929 . S
C1748 C1749 1.377 . S
C1748 C1750 1.384 . S
C1749 C1748 1.377 . S
C1749 C1755 1.390 . S
C1750 H1741 0.930 . S
C1750 C1748 1.384 . S
C1750 C1751 1.372 . S
C1751 C1750 1.372 . S
C1751 C1752 1.400 . S
C1751 C1756 1.490 . S
C1752 H1742 0.930 . S
C1752 C1751 1.400 . S
C1752 C1755 1.386 . S
H1753 C1769 0.930 . S
H1754 C1770 0.931 . S
C1755 H1743 0.929 . S
C1755 C1749 1.390 . S
C1755 C1752 1.386 . S
C1756 C1751 1.490 . S
C1756 C1758 1.395 . S
C1756 C1759 1.403 . S
H1757 C1763 0.930 . S
C1758 H1744 0.930 . S
C1758 C1756 1.395 . S
C1758 C1761 1.403 . S
C1759 C1756 1.403 . S
C1759 C1760 1.524 . S
C1759 C1763 1.400 . S
C1760 H1745 0.960 . S
C1760 H1746 0.960 . S
C1760 H1747 0.960 . S
C1760 C1759 1.524 . S
C1761 C1758 1.403 . S
C1761 C1762 1.392 . S
C1761 C1765 1.495 . S
C1762 C1761 1.392 . S
C1762 C1763 1.385 . S
C1762 C1764 1.478 . S
C1763 H1757 0.930 . S
C1763 C1759 1.400 . S
C1763 C1762 1.385 . S
C1764 C1762 1.478 . S
C1764 C1766 1.381 . S
C1764 C1770 1.383 . S
C1765 C1761 1.495 . S
C1765 H1771 0.959 . S
C1765 H1772 0.961 . S
C1765 H1773 0.960 . S
C1766 C1764 1.381 . S
C1766 C1767 1.394 . S
C1766 H1774 0.930 . S
C1767 C1766 1.394 . S
C1767 C1768 1.383 . S
C1767 H1775 0.929 . S
C1768 C1767 1.383 . S
C1768 C1769 1.377 . S
C1769 H1753 0.930 . S
C1769 C1768 1.377 . S
C1769 C1770 1.379 . S
C1770 H1754 0.931 . S
C1770 C1764 1.383 . S
C1770 C1769 1.379 . S
H1771 C1765 0.959 . S
H1772 C1765 0.961 . S
H1773 C1765 0.960 . S
H1774 C1766 0.930 . S
H1775 C1767 0.929 . S
C489 C2 0.973 . S
C508 C322 0.958 . S
C525 C42 0.973 . S
C544 C362 0.960 . S
C561 C82 0.975 . S
C580 C402 0.976 . S
C597 C442 0.980 . S
C616 C122 0.997 . S
C633 C162 0.977 . S
C652 C242 0.962 . S
C669 C282 0.981 . S
C688 C202 0.998 . S
C705 C426 1.683 . S
C724 C26 1.679 . S
C741 C466 1.683 . S
C760 C66 1.677 . S
C777 C106 1.683 . S
C796 C266 1.678 . S
C813 C306 1.686 . S
C832 C146 1.692 . S
C849 C346 1.686 . S
C868 C186 1.688 . S
C885 C226 1.683 . S
C904 C386 1.677 . S
C921 C283 4.307 . S
C940 C3 4.306 . S
C957 C323 4.307 . S
C976 C43 4.306 . S
C993 C363 4.307 . S
C1012 C83 4.306 . S
C1029 C123 4.309 . S
C1048 C403 4.297 . S
C1065 C163 4.309 . S
C1084 C443 4.297 . S
C1101 C203 4.307 . S
C1120 C243 4.307 . S
C1137 C15 0.771 . S
C1156 C135 0.734 . S
C1173 C55 0.749 . S
C1192 C175 0.808 . S
C1209 C95 0.760 . S
C1228 C215 0.733 . S
C1245 C375 0.765 . S
C1264 C255 0.720 . S
C1281 C295 0.758 . S
C1300 C415 0.817 . S
C1317 C455 0.771 . S
C1336 C335 0.735 . S
C1353 C289 0.650 . S
C1372 C9 0.656 . S
C1389 C329 0.667 . S
C1408 C49 0.722 . S
C1425 C89 0.667 . S
C1444 C369 0.722 . S
C1461 C409 0.668 . S
C1480 C129 0.716 . S
C1497 C449 0.662 . S
C1516 C169 0.682 . S
C1533 C209 0.664 . S
C1552 C249 0.716 . S
C1569 C22 4.532 . S
C1588 C422 4.524 . S
C1605 C62 4.532 . S
C1624 C462 4.522 1_556 S
C1641 C102 4.531 1_554 S
C1660 C262 4.529 . S
C1677 C142 4.532 . S
C1696 C302 4.521 . S
C1713 C182 4.530 . S
C1732 C342 4.531 1_556 S
C1749 C382 4.530 . S
C1768 C222 4.529 1_554 S
