# Generated by pormake.
# Topology dia, (4)-cn, num edge types: 1
# Building blocks:
#     Node 0, Type 0, BuildingBlock: UXUYUI_clean_sbu_0, # of connection points: 4
#     Node 1, Type 0, BuildingBlock: UXUYUI_clean_sbu_0, # of connection points: 4
#     Node 2, Type 0, BuildingBlock: UXUYUI_clean_sbu_0, # of connection points: 4
#     Node 3, Type 0, BuildingBlock: UXUYUI_clean_sbu_0, # of connection points: 4
#     Node 4, Type 0, BuildingBlock: UXUYUI_clean_sbu_0, # of connection points: 4
#     Node 5, Type 0, BuildingBlock: UXUYUI_clean_sbu_0, # of connection points: 4
#     Node 6, Type 0, BuildingBlock: UXUYUI_clean_sbu_0, # of connection points: 4
#     Node 7, Type 0, BuildingBlock: UXUYUI_clean_sbu_0, # of connection points: 4
#     Edge 8, Type (0, 0), BuildingBlock: MIFKUJ_clean_linker_0, # of connection points: 2
#     Edge 9, Type (0, 0), BuildingBlock: MIFKUJ_clean_linker_0, # of connection points: 2
#     Edge 10, Type (0, 0), BuildingBlock: MIFKUJ_clean_linker_0, # of connection points: 2
#     Edge 11, Type (0, 0), BuildingBlock: MIFKUJ_clean_linker_0, # of connection points: 2
#     Edge 12, Type (0, 0), BuildingBlock: MIFKUJ_clean_linker_0, # of connection points: 2
#     Edge 13, Type (0, 0), BuildingBlock: MIFKUJ_clean_linker_0, # of connection points: 2
#     Edge 14, Type (0, 0), BuildingBlock: MIFKUJ_clean_linker_0, # of connection points: 2
#     Edge 15, Type (0, 0), BuildingBlock: MIFKUJ_clean_linker_0, # of connection points: 2
#     Edge 16, Type (0, 0), BuildingBlock: MIFKUJ_clean_linker_0, # of connection points: 2
#     Edge 17, Type (0, 0), BuildingBlock: MIFKUJ_clean_linker_0, # of connection points: 2
#     Edge 18, Type (0, 0), BuildingBlock: MIFKUJ_clean_linker_0, # of connection points: 2
#     Edge 19, Type (0, 0), BuildingBlock: MIFKUJ_clean_linker_0, # of connection points: 2
#     Edge 20, Type (0, 0), BuildingBlock: MIFKUJ_clean_linker_0, # of connection points: 2
#     Edge 21, Type (0, 0), BuildingBlock: MIFKUJ_clean_linker_0, # of connection points: 2
#     Edge 22, Type (0, 0), BuildingBlock: MIFKUJ_clean_linker_0, # of connection points: 2
#     Edge 23, Type (0, 0), BuildingBlock: MIFKUJ_clean_linker_0, # of connection points: 2
# Relax obj value: 0.000
# Max RMSD: 0.003
# Mean RMSD: 0.003
data_MOF--net-dia--node1-UXUYUI_clean_sbu_0--edge1-MIFKUJ_clean_linker_0
_symmetry_space_group_name_H-M    P1
_symmetry_Int_Tables_number       1
_symmetry_cell_setting            triclinic
loop_
_symmetry_equiv_pos_as_xyz
'x, y, z'
_cell_length_a     62.091332
_cell_length_b     61.750555
_cell_length_c     61.937975
_cell_angle_alpha  90.05439
_cell_angle_beta   90.026024
_cell_angle_gamma 89.946222
loop_
_atom_site_label
_atom_site_type_symbol
_atom_site_fract_x
_atom_site_fract_y
_atom_site_fract_z
_atom_type_partial_charge
Li0 Li 0.12044 0.14676 0.64577 0.0
Li1 Li 0.14789 0.11905 0.64609 0.0
Li2 Li 0.14762 0.14636 0.61781 0.0
Li3 Li 0.1205 0.11837 0.61851 0.0
C4 C 0.15766 0.15552 0.67006 0.0
N5 N 0.16907 0.16493 0.71216 0.0
C6 C 0.14527 0.1477 0.6872 0.0
C7 C 0.17582 0.16816 0.67433 0.0
C8 C 0.15131 0.15262 0.70837 0.0
C9 C 0.18134 0.17273 0.69573 0.0
C10 C 0.11136 0.09413 0.65478 0.0
C11 C 0.11839 0.05588 0.65107 0.0
N12 N 0.10122 0.05157 0.66399 0.0
C13 C 0.09381 0.08933 0.66804 0.0
C14 C 0.12378 0.07729 0.64623 0.0
C15 C 0.08893 0.06771 0.6725 0.0
C16 C 0.08237 0.15763 0.66821 0.0
N17 N 0.10238 0.16488 0.66309 0.0
C18 C 0.09648 0.19752 0.68304 0.0
C19 C 0.10958 0.18443 0.67017 0.0
C20 C 0.07574 0.19043 0.68876 0.0
C21 C 0.06872 0.17018 0.6811 0.0
H22 H 0.07706 0.14201 0.66235 0.0
H23 H 0.12555 0.18987 0.66587 0.0
C24 C 0.18569 0.09581 0.65673 0.0
N25 N 0.16598 0.10174 0.6642 0.0
C26 C 0.1992 0.0828 0.66931 0.0
C27 C 0.17195 0.08251 0.69715 0.0
C28 C 0.15894 0.09537 0.68398 0.0
C29 C 0.19238 0.07593 0.68986 0.0
H30 H 0.19086 0.10108 0.64091 0.0
H31 H 0.14315 0.1002 0.68954 0.0
C32 C 0.11037 0.17084 0.60966 0.0
N33 N 0.09904 0.21317 0.60072 0.0
C34 C 0.09231 0.17527 0.59695 0.0
C35 C 0.12269 0.18793 0.6178 0.0
C36 C 0.08683 0.19679 0.59262 0.0
C37 C 0.1167 0.20922 0.61311 0.0
C38 C 0.15706 0.11019 0.59353 0.0
C39 C 0.1446 0.11891 0.57685 0.0
C40 C 0.17462 0.09693 0.58855 0.0
C41 C 0.14995 0.11424 0.55545 0.0
C42 C 0.17945 0.09263 0.56693 0.0
N43 N 0.16713 0.10131 0.55097 0.0
C44 C 0.18596 0.16791 0.60629 0.0
C45 C 0.15782 0.17183 0.58072 0.0
C46 C 0.19954 0.18088 0.59379 0.0
N47 N 0.16551 0.16376 0.59965 0.0
C48 C 0.17079 0.18495 0.56779 0.0
C49 C 0.19194 0.1897 0.57431 0.0
H50 H 0.19166 0.16121 0.62138 0.0
H51 H 0.14156 0.16818 0.57567 0.0
C52 C 0.08214 0.10696 0.59683 0.0
N53 N 0.10246 0.1001 0.60133 0.0
C54 C 0.0685 0.09433 0.58403 0.0
C55 C 0.09688 0.06771 0.58088 0.0
C56 C 0.10996 0.08085 0.59372 0.0
C57 C 0.07583 0.07441 0.57582 0.0
H58 H 0.07656 0.12228 0.60321 0.0
H59 H 0.12618 0.07573 0.59748 0.0
O60 O 0.15214 0.15092 0.64916 0.0
O61 O 0.11625 0.11526 0.65029 0.0
O62 O 0.11581 0.14982 0.61407 0.0
O63 O 0.15224 0.11454 0.61465 0.0
H64 H 0.13113 0.13794 0.68424 0.0
H65 H 0.18556 0.17437 0.66124 0.0
H66 H 0.14188 0.14666 0.72178 0.0
H67 H 0.19537 0.18248 0.69927 0.0
H68 H 0.12786 0.0427 0.64456 0.0
H69 H 0.08406 0.10218 0.67482 0.0
H70 H 0.13748 0.08065 0.63601 0.0
H71 H 0.07538 0.06376 0.68273 0.0
H72 H 0.10247 0.21313 0.68827 0.0
H73 H 0.05298 0.16392 0.68528 0.0
H74 H 0.21465 0.07792 0.66284 0.0
H75 H 0.16609 0.07794 0.71296 0.0
H76 H 0.08261 0.16222 0.59051 0.0
H77 H 0.13677 0.18484 0.6276 0.0
H78 H 0.07288 0.20046 0.58281 0.0
H79 H 0.12609 0.2226 0.61931 0.0
H80 H 0.13089 0.12912 0.58034 0.0
H81 H 0.18441 0.09002 0.60126 0.0
H82 H 0.14044 0.12088 0.5424 0.0
H83 H 0.19301 0.0824 0.56285 0.0
H84 H 0.21568 0.18426 0.59951 0.0
H85 H 0.16438 0.19114 0.55275 0.0
H86 H 0.05231 0.10001 0.58079 0.0
H87 H 0.10333 0.05264 0.57469 0.0
Li88 Li 0.87016 0.39843 0.86633 0.0
Li89 Li 0.89713 0.3982 0.89571 0.0
Li90 Li 0.89735 0.36895 0.86683 0.0
Li91 Li 0.86996 0.3698 0.89544 0.0
C92 C 0.90984 0.41384 0.84819 0.0
N93 N 0.92566 0.4404 0.81602 0.0
C94 C 0.91811 0.43425 0.85332 0.0
C95 C 0.90993 0.40681 0.82674 0.0
C96 C 0.92594 0.44748 0.83682 0.0
C97 C 0.91792 0.4205 0.8107 0.0
C98 C 0.86117 0.41789 0.91221 0.0
C99 C 0.86069 0.4318 0.9486 0.0
N100 N 0.85345 0.45116 0.94105 0.0
C101 C 0.85356 0.43786 0.90482 0.0
C102 C 0.86461 0.41475 0.93429 0.0
C103 C 0.8498 0.4545 0.91965 0.0
C104 C 0.83267 0.40862 0.84275 0.0
N105 N 0.85247 0.41618 0.84826 0.0
C106 C 0.8464 0.44867 0.82815 0.0
C107 C 0.85938 0.43592 0.84148 0.0
C108 C 0.82591 0.44122 0.82196 0.0
C109 C 0.81907 0.42089 0.82956 0.0
H110 H 0.82739 0.39303 0.84867 0.0
H111 H 0.87488 0.44193 0.84653 0.0
C112 C 0.93201 0.4067 0.92379 0.0
N113 N 0.91506 0.41607 0.91346 0.0
C114 C 0.94548 0.41911 0.93699 0.0
C115 C 0.92376 0.45054 0.92878 0.0
C116 C 0.91098 0.43763 0.91542 0.0
C117 C 0.94126 0.44127 0.93974 0.0
H118 H 0.93508 0.38959 0.92175 0.0
H119 H 0.89788 0.44487 0.90652 0.0
C120 C 0.85929 0.35534 0.84587 0.0
N121 N 0.84678 0.33263 0.80952 0.0
C122 C 0.85005 0.33481 0.84789 0.0
C123 C 0.86188 0.36444 0.8254 0.0
C124 C 0.84392 0.32354 0.82931 0.0
C125 C 0.85552 0.35268 0.80721 0.0
C126 C 0.90418 0.35085 0.91399 0.0
C127 C 0.90958 0.32968 0.90809 0.0
C128 C 0.90115 0.35597 0.93576 0.0
C129 C 0.91147 0.31385 0.92409 0.0
C130 C 0.90317 0.33969 0.95127 0.0
N131 N 0.90822 0.31914 0.94516 0.0
C132 C 0.93435 0.35855 0.84232 0.0
C133 C 0.90859 0.33035 0.84436 0.0
C134 C 0.94768 0.34578 0.8293 0.0
N135 N 0.91511 0.35077 0.84933 0.0
C136 C 0.92135 0.31706 0.83132 0.0
C137 C 0.94116 0.32477 0.82354 0.0
H138 H 0.93935 0.37471 0.8468 0.0
H139 H 0.89359 0.32426 0.85072 0.0
C140 C 0.83733 0.36131 0.9263 0.0
N141 N 0.85198 0.3519 0.91295 0.0
C142 C 0.82413 0.34857 0.9394 0.0
C143 C 0.84119 0.31664 0.92465 0.0
C144 C 0.85392 0.33 0.91172 0.0
C145 C 0.82601 0.32587 0.93879 0.0
H146 H 0.83577 0.37873 0.92667 0.0
H147 H 0.86543 0.3229 0.9007 0.0
O148 O 0.90212 0.40069 0.86419 0.0
O149 O 0.86503 0.40146 0.8979 0.0
O150 O 0.86547 0.36653 0.86391 0.0
O151 O 0.90198 0.36649 0.89854 0.0
H152 H 0.91834 0.43989 0.86985 0.0
H153 H 0.90413 0.39087 0.82252 0.0
H154 H 0.93225 0.46338 0.84054 0.0
H155 H 0.91804 0.41527 0.79402 0.0
H156 H 0.86341 0.42964 0.96572 0.0
H157 H 0.85067 0.44052 0.88781 0.0
H158 H 0.8703 0.39935 0.9403 0.0
H159 H 0.84401 0.47007 0.91415 0.0
H160 H 0.8525 0.46411 0.8226 0.0
H161 H 0.80327 0.41463 0.82562 0.0
H162 H 0.95886 0.41142 0.9452 0.0
H163 H 0.92022 0.46766 0.93026 0.0
H164 H 0.84776 0.3276 0.86363 0.0
H165 H 0.86852 0.38049 0.82357 0.0
H166 H 0.83687 0.30758 0.83063 0.0
H167 H 0.85748 0.35952 0.79126 0.0
H168 H 0.9121 0.32548 0.89132 0.0
H169 H 0.89725 0.37233 0.9406 0.0
H170 H 0.91549 0.29737 0.91974 0.0
H171 H 0.90073 0.34339 0.96817 0.0
H172 H 0.96278 0.35241 0.82359 0.0
H173 H 0.91592 0.30081 0.82766 0.0
H174 H 0.81237 0.35645 0.94965 0.0
H175 H 0.84341 0.29927 0.92372 0.0
Li176 Li 0.62043 0.14848 0.14572 0.0
Li177 Li 0.64726 0.11902 0.14612 0.0
Li178 Li 0.64747 0.14803 0.11714 0.0
Li179 Li 0.62017 0.11925 0.1169 0.0
C180 C 0.65614 0.16563 0.16477 0.0
N181 N 0.66333 0.19561 0.19714 0.0
C182 C 0.66263 0.1588 0.18527 0.0
C183 C 0.65367 0.18774 0.16064 0.0
C184 C 0.66609 0.17419 0.20145 0.0
C185 C 0.65727 0.20263 0.17724 0.0
C186 C 0.60942 0.10056 0.16241 0.0
C187 C 0.60564 0.06255 0.17056 0.0
N188 N 0.59776 0.06775 0.19039 0.0
C189 C 0.60103 0.10552 0.18276 0.0
C190 C 0.61152 0.07891 0.15616 0.0
C191 C 0.59533 0.08871 0.19671 0.0
C192 C 0.58676 0.17826 0.15399 0.0
N193 N 0.60275 0.16659 0.16347 0.0
C194 C 0.5933 0.18072 0.19818 0.0
C195 C 0.60607 0.16743 0.18516 0.0
C196 C 0.57676 0.19309 0.18882 0.0
C197 C 0.57353 0.19169 0.16641 0.0
H198 H 0.5842 0.17709 0.13677 0.0
H199 H 0.61849 0.15758 0.19242 0.0
C200 C 0.68341 0.09285 0.15565 0.0
N201 N 0.66484 0.10097 0.16405 0.0
C202 C 0.69675 0.07959 0.16814 0.0
C203 C 0.67181 0.08353 0.19782 0.0
C204 C 0.65902 0.09678 0.18479 0.0
C205 C 0.69095 0.0747 0.18951 0.0
H206 H 0.68787 0.09669 0.13923 0.0
H207 H 0.64464 0.10401 0.1914 0.0
C208 C 0.61249 0.1669 0.09894 0.0
N209 N 0.60675 0.1989 0.06829 0.0
C210 C 0.60544 0.16154 0.07818 0.0
C211 C 0.61627 0.18858 0.1042 0.0
C212 C 0.60272 0.17794 0.06288 0.0
C213 C 0.61338 0.20451 0.08846 0.0
C214 C 0.65698 0.09924 0.10111 0.0
C215 C 0.66387 0.10303 0.07996 0.0
C216 C 0.6555 0.07799 0.10868 0.0
C217 C 0.66863 0.08544 0.06657 0.0
C218 C 0.66042 0.06083 0.09481 0.0
N219 N 0.66679 0.06488 0.0742 0.0
C220 C 0.68123 0.1776 0.1084 0.0
C221 C 0.66208 0.16586 0.07746 0.0
C222 C 0.69443 0.19074 0.0957 0.0
N223 N 0.66534 0.16562 0.09916 0.0
C224 C 0.67484 0.17882 0.06415 0.0
C225 C 0.6913 0.19153 0.07323 0.0
H226 H 0.68376 0.17685 0.12565 0.0
H227 H 0.64956 0.15598 0.07044 0.0
C228 C 0.58496 0.09155 0.10761 0.0
N229 N 0.60241 0.10153 0.09886 0.0
C230 C 0.57172 0.07847 0.09484 0.0
C231 C 0.59426 0.08664 0.06413 0.0
C232 C 0.60711 0.09947 0.07752 0.0
C233 C 0.57631 0.07586 0.07278 0.0
H234 H 0.58119 0.09388 0.12448 0.0
H235 H 0.62071 0.108 0.07079 0.0
O236 O 0.65251 0.15076 0.14878 0.0
O237 O 0.61524 0.11684 0.14861 0.0
O238 O 0.61549 0.15103 0.11406 0.0
O239 O 0.65212 0.11628 0.1144 0.0
H240 H 0.66485 0.1418 0.18872 0.0
H241 H 0.64908 0.19336 0.14478 0.0
H242 H 0.67098 0.16911 0.21743 0.0
H243 H 0.65529 0.21978 0.17428 0.0
H244 H 0.60725 0.04573 0.16594 0.0
H245 H 0.59903 0.12215 0.18779 0.0
H246 H 0.6174 0.07476 0.14028 0.0
H247 H 0.58896 0.09232 0.21257 0.0
H248 H 0.59611 0.18099 0.21543 0.0
H249 H 0.56105 0.20104 0.1585 0.0
H250 H 0.71131 0.07306 0.16105 0.0
H251 H 0.66696 0.08057 0.21434 0.0
H252 H 0.6022 0.1449 0.07387 0.0
H253 H 0.62134 0.19306 0.12027 0.0
H254 H 0.59741 0.17399 0.04672 0.0
H255 H 0.61637 0.22133 0.0923 0.0
H256 H 0.66537 0.11935 0.07389 0.0
H257 H 0.65083 0.07475 0.12515 0.0
H258 H 0.6738 0.08815 0.05012 0.0
H259 H 0.65926 0.0443 0.10046 0.0
H260 H 0.70716 0.19993 0.10338 0.0
H261 H 0.67167 0.17903 0.04696 0.0
H262 H 0.55782 0.0708 0.10209 0.0
H263 H 0.59845 0.08503 0.04724 0.0
Li264 Li 0.89712 0.89799 0.39595 0.0
Li265 Li 0.86994 0.89736 0.36811 0.0
Li266 Li 0.86974 0.87023 0.39652 0.0
Li267 Li 0.89712 0.86939 0.36893 0.0
C268 C 0.8602 0.90669 0.42046 0.0
N269 N 0.84942 0.91604 0.46274 0.0
C270 C 0.84226 0.9196 0.42501 0.0
C271 C 0.87267 0.89858 0.43742 0.0
C272 C 0.83707 0.92413 0.44649 0.0
C273 C 0.86696 0.90348 0.45868 0.0
C274 C 0.90684 0.92184 0.3596 0.0
C275 C 0.92978 0.94785 0.34192 0.0
N276 N 0.91759 0.9642 0.35017 0.0
C277 C 0.89453 0.9389 0.36788 0.0
C278 C 0.9246 0.92633 0.3465 0.0
C279 C 0.90023 0.9602 0.36293 0.0
C280 C 0.93545 0.90923 0.41774 0.0
N281 N 0.91522 0.91624 0.4131 0.0
C282 C 0.92098 0.94873 0.43333 0.0
C283 C 0.90785 0.93561 0.42051 0.0
C284 C 0.94194 0.94189 0.43854 0.0
C285 C 0.94915 0.92184 0.4305 0.0
H286 H 0.94092 0.89381 0.41151 0.0
H287 H 0.89169 0.94085 0.41664 0.0
C288 C 0.83211 0.92012 0.35699 0.0
N289 N 0.85207 0.91467 0.34983 0.0
C290 C 0.81859 0.93301 0.34432 0.0
C291 C 0.84634 0.93421 0.31701 0.0
C292 C 0.85935 0.92141 0.33025 0.0
C293 C 0.82565 0.94028 0.324 0.0
H294 H 0.82674 0.91453 0.37263 0.0
H295 H 0.8753 0.9169 0.3249 0.0
C296 C 0.90646 0.84547 0.40538 0.0
N297 N 0.91696 0.80304 0.4149 0.0
C298 C 0.89411 0.82849 0.39703 0.0
C299 C 0.92412 0.84087 0.41859 0.0
C300 C 0.89968 0.80716 0.40203 0.0
C301 C 0.92918 0.81932 0.42321 0.0
C302 C 0.86039 0.86098 0.34408 0.0
C303 C 0.84248 0.84813 0.33935 0.0
C304 C 0.87302 0.86907 0.32725 0.0
C305 C 0.83747 0.84363 0.31781 0.0
C306 C 0.86748 0.86421 0.30593 0.0
N307 N 0.84997 0.8517 0.30169 0.0
C308 C 0.83184 0.84741 0.40704 0.0
C309 C 0.85859 0.84636 0.43433 0.0
C310 C 0.81819 0.83446 0.41947 0.0
N311 N 0.85163 0.853 0.41459 0.0
C312 C 0.84541 0.83356 0.44737 0.0
C313 C 0.82494 0.82738 0.43995 0.0
H314 H 0.82669 0.85299 0.39132 0.0
H315 H 0.87447 0.85084 0.43992 0.0
C316 C 0.93544 0.85786 0.34729 0.0
N317 N 0.91518 0.851 0.3519 0.0
C318 C 0.94907 0.84515 0.33453 0.0
C319 C 0.92075 0.81848 0.33167 0.0
C320 C 0.9077 0.83168 0.34448 0.0
C321 C 0.94175 0.82517 0.32647 0.0
H322 H 0.941 0.87324 0.35352 0.0
H323 H 0.89151 0.82657 0.34833 0.0
O324 O 0.86538 0.90212 0.39947 0.0
O325 O 0.90167 0.90081 0.3642 0.0
O326 O 0.90142 0.86653 0.40071 0.0
O327 O 0.86541 0.86551 0.36513 0.0
H328 H 0.83246 0.92605 0.41207 0.0
H329 H 0.88666 0.88864 0.43425 0.0
H330 H 0.82322 0.93409 0.45024 0.0
H331 H 0.87647 0.89729 0.47195 0.0
H332 H 0.94348 0.95156 0.33181 0.0
H333 H 0.88069 0.93578 0.37798 0.0
H334 H 0.93427 0.9133 0.33993 0.0
H335 H 0.89085 0.97355 0.36924 0.0
H336 H 0.91462 0.96389 0.43938 0.0
H337 H 0.96527 0.91604 0.43385 0.0
H338 H 0.80291 0.93749 0.35054 0.0
H339 H 0.85239 0.93911 0.30137 0.0
H340 H 0.88034 0.8317 0.38684 0.0
H341 H 0.93382 0.85384 0.4252 0.0
H342 H 0.89027 0.79387 0.39567 0.0
H343 H 0.94282 0.81552 0.4334 0.0
H344 H 0.83257 0.84169 0.35218 0.0
H345 H 0.88699 0.87896 0.33056 0.0
H346 H 0.82365 0.83371 0.31392 0.0
H347 H 0.87712 0.87038 0.29276 0.0
H348 H 0.80245 0.83023 0.41324 0.0
H349 H 0.85134 0.82824 0.46294 0.0
H350 H 0.96522 0.85083 0.3312 0.0
H351 H 0.9143 0.80337 0.3256 0.0
Li352 Li 0.11929 0.64807 0.14605 0.0
Li353 Li 0.14594 0.62039 0.14579 0.0
Li354 Li 0.1466 0.64923 0.11849 0.0
Li355 Li 0.11824 0.62122 0.11797 0.0
C356 C 0.15627 0.65555 0.17113 0.0
N357 N 0.16758 0.66263 0.2137 0.0
C358 C 0.14417 0.64631 0.18777 0.0
C359 C 0.17412 0.66836 0.17613 0.0
C360 C 0.15015 0.65009 0.20918 0.0
C361 C 0.17958 0.67176 0.19776 0.0
C362 C 0.10902 0.59541 0.15275 0.0
C363 C 0.11583 0.55735 0.14708 0.0
N364 N 0.09834 0.55249 0.15936 0.0
C365 C 0.09112 0.59003 0.1653 0.0
C366 C 0.12149 0.57895 0.14355 0.0
C367 C 0.08598 0.56824 0.16846 0.0
C368 C 0.0813 0.65893 0.1688 0.0
N369 N 0.10158 0.66576 0.16422 0.0
C370 C 0.09626 0.69798 0.18497 0.0
C371 C 0.10922 0.68488 0.17198 0.0
C372 C 0.0752 0.69138 0.19002 0.0
C373 C 0.06776 0.67153 0.18174 0.0
H374 H 0.07559 0.64375 0.16222 0.0
H375 H 0.12537 0.69003 0.16798 0.0
C376 C 0.18486 0.59962 0.1573 0.0
N377 N 0.164 0.60245 0.16333 0.0
C378 C 0.19864 0.58674 0.16973 0.0
C379 C 0.16917 0.57992 0.19428 0.0
C380 C 0.15606 0.59312 0.18155 0.0
C381 C 0.19076 0.57659 0.18841 0.0
H382 H 0.19078 0.60738 0.14282 0.0
H383 H 0.13954 0.59592 0.18626 0.0
C384 C 0.10475 0.67267 0.11542 0.0
N385 N 0.08374 0.71199 0.11931 0.0
C386 C 0.08237 0.67381 0.11318 0.0
C387 C 0.11641 0.69155 0.11973 0.0
C388 C 0.07205 0.69383 0.1152 0.0
C389 C 0.10551 0.71127 0.12158 0.0
C390 C 0.15603 0.61349 0.09339 0.0
C391 C 0.1446 0.62296 0.07639 0.0
C392 C 0.17371 0.60021 0.08894 0.0
C393 C 0.15104 0.61893 0.05516 0.0
C394 C 0.17964 0.59657 0.06748 0.0
N395 N 0.16828 0.60593 0.05118 0.0
C396 C 0.1864 0.66657 0.10457 0.0
C397 C 0.15622 0.67773 0.08398 0.0
C398 C 0.20018 0.67879 0.09153 0.0
N399 N 0.16488 0.66637 0.10065 0.0
C400 C 0.16931 0.69042 0.07076 0.0
C401 C 0.19168 0.6911 0.07438 0.0
H402 H 0.19287 0.65711 0.11776 0.0
H403 H 0.13908 0.67703 0.08099 0.0
C404 C 0.07973 0.60865 0.09652 0.0
N405 N 0.10063 0.60309 0.09997 0.0
C406 C 0.06649 0.59568 0.08364 0.0
C407 C 0.09635 0.57113 0.07852 0.0
C408 C 0.10903 0.58464 0.09138 0.0
C409 C 0.07476 0.5766 0.07439 0.0
H410 H 0.0733 0.62311 0.10387 0.0
H411 H 0.12555 0.58024 0.09466 0.0
O412 O 0.15088 0.65203 0.15 0.0
O413 O 0.11407 0.61672 0.14946 0.0
O414 O 0.11516 0.65312 0.11419 0.0
O415 O 0.15021 0.61734 0.11434 0.0
H416 H 0.1303 0.63636 0.18423 0.0
H417 H 0.18367 0.67559 0.16341 0.0
H418 H 0.14093 0.64304 0.22222 0.0
H419 H 0.19336 0.68165 0.20187 0.0
H420 H 0.12535 0.54447 0.14007 0.0
H421 H 0.0813 0.60258 0.17253 0.0
H422 H 0.13545 0.58274 0.13386 0.0
H423 H 0.07217 0.56385 0.17814 0.0
H424 H 0.10276 0.71302 0.19117 0.0
H425 H 0.05156 0.66595 0.18496 0.0
H426 H 0.21517 0.5845 0.16463 0.0
H427 H 0.16257 0.57265 0.20874 0.0
H428 H 0.07299 0.65943 0.11011 0.0
H429 H 0.13365 0.69095 0.12213 0.0
H430 H 0.05474 0.69492 0.11356 0.0
H431 H 0.11434 0.72596 0.12501 0.0
H432 H 0.13088 0.63331 0.07952 0.0
H433 H 0.18274 0.5928 0.10194 0.0
H434 H 0.14234 0.62616 0.04185 0.0
H435 H 0.19329 0.58631 0.06379 0.0
H436 H 0.21731 0.67836 0.09474 0.0
H437 H 0.16186 0.69979 0.05803 0.0
H438 H 0.05002 0.60069 0.08082 0.0
H439 H 0.10335 0.55638 0.07217 0.0
Li440 Li 0.36819 0.39702 0.36599 0.0
Li441 Li 0.39621 0.39559 0.39544 0.0
Li442 Li 0.39529 0.36839 0.36717 0.0
Li443 Li 0.36893 0.36798 0.39509 0.0
C444 C 0.41818 0.40105 0.35211 0.0
N445 N 0.45567 0.40056 0.32811 0.0
C446 C 0.4381 0.39854 0.36234 0.0
C447 C 0.41733 0.40331 0.32967 0.0
C448 C 0.45687 0.39834 0.34992 0.0
C449 C 0.43647 0.40302 0.31782 0.0
C450 C 0.36283 0.41761 0.41108 0.0
C451 C 0.36598 0.43446 0.4461 0.0
N452 N 0.36095 0.45392 0.43714 0.0
C453 C 0.35757 0.43776 0.40225 0.0
C454 C 0.36693 0.4159 0.43321 0.0
C455 C 0.35673 0.45592 0.41569 0.0
C456 C 0.32891 0.41325 0.34972 0.0
N457 N 0.35067 0.41521 0.34856 0.0
C458 C 0.34744 0.44335 0.32228 0.0
C459 C 0.36007 0.43 0.33536 0.0
C460 C 0.32485 0.44171 0.323 0.0
C461 C 0.31563 0.42643 0.33708 0.0
H462 H 0.32188 0.40147 0.36054 0.0
H463 H 0.37741 0.43144 0.335 0.0
C464 C 0.42762 0.40478 0.42766 0.0
N465 N 0.41425 0.41375 0.41275 0.0
C466 C 0.44074 0.41792 0.44047 0.0
C467 C 0.4264 0.44929 0.4221 0.0
C468 C 0.41371 0.43552 0.4095 0.0
C469 C 0.44011 0.44051 0.43788 0.0
H470 H 0.4282 0.3874 0.42954 0.0
H471 H 0.4034 0.4422 0.39711 0.0
C472 C 0.36086 0.35131 0.34664 0.0
N473 N 0.35557 0.32313 0.31237 0.0
C474 C 0.36706 0.32963 0.34861 0.0
C475 C 0.35186 0.35863 0.32728 0.0
C476 C 0.36431 0.31565 0.33107 0.0
C477 C 0.34933 0.34413 0.31014 0.0
C478 C 0.40035 0.34813 0.41363 0.0
C479 C 0.40294 0.32643 0.40767 0.0
C480 C 0.3968 0.35338 0.4353 0.0
C481 C 0.40192 0.31036 0.4235 0.0
C482 C 0.39582 0.33684 0.45064 0.0
N483 N 0.39839 0.31585 0.44447 0.0
C484 C 0.43087 0.34126 0.35745 0.0
C485 C 0.41007 0.35082 0.32685 0.0
C486 C 0.4447 0.32887 0.34463 0.0
N487 N 0.41367 0.35155 0.34851 0.0
C488 C 0.42345 0.3386 0.31344 0.0
C489 C 0.44096 0.32725 0.32231 0.0
H490 H 0.43391 0.34274 0.37457 0.0
H491 H 0.39691 0.35989 0.31992 0.0
C492 C 0.33873 0.36015 0.42873 0.0
N493 N 0.35045 0.35051 0.41285 0.0
C494 C 0.32569 0.34775 0.44233 0.0
C495 C 0.33682 0.31571 0.42288 0.0
C496 C 0.34945 0.32876 0.40954 0.0
C497 C 0.32478 0.32518 0.43959 0.0
H498 H 0.33957 0.37748 0.43092 0.0
H499 H 0.35866 0.32143 0.39672 0.0
O500 O 0.3996 0.40062 0.36396 0.0
O501 O 0.36404 0.39969 0.39812 0.0
O502 O 0.36339 0.3653 0.36359 0.0
O503 O 0.40093 0.36411 0.39831 0.0
H504 H 0.43904 0.39647 0.37965 0.0
H505 H 0.40204 0.40484 0.32143 0.0
H506 H 0.47238 0.39632 0.35761 0.0
H507 H 0.43604 0.40462 0.30044 0.0
H508 H 0.36927 0.43339 0.46322 0.0
H509 H 0.35436 0.43942 0.38518 0.0
H510 H 0.37103 0.40047 0.44034 0.0
H511 H 0.35279 0.47163 0.40905 0.0
H512 H 0.35536 0.45464 0.31155 0.0
H513 H 0.29833 0.42481 0.33854 0.0
H514 H 0.45107 0.41049 0.45245 0.0
H515 H 0.42572 0.46659 0.41931 0.0
H516 H 0.37443 0.32377 0.36328 0.0
H517 H 0.34697 0.37534 0.32547 0.0
H518 H 0.36923 0.29889 0.3323 0.0
H519 H 0.34244 0.34958 0.29505 0.0
H520 H 0.40532 0.32196 0.39096 0.0
H521 H 0.39457 0.37003 0.44021 0.0
H522 H 0.40378 0.29351 0.41909 0.0
H523 H 0.39296 0.34069 0.46744 0.0
H524 H 0.458 0.32042 0.35219 0.0
H525 H 0.42028 0.33828 0.29625 0.0
H526 H 0.31671 0.35568 0.45507 0.0
H527 H 0.33634 0.29842 0.42002 0.0
Li528 Li 0.36979 0.89635 0.86786 0.0
Li529 Li 0.39796 0.8963 0.89578 0.0
Li530 Li 0.39787 0.86858 0.8669 0.0
Li531 Li 0.37119 0.86728 0.89569 0.0
C532 C 0.40656 0.90579 0.84329 0.0
N533 N 0.41731 0.91591 0.80122 0.0
C534 C 0.42429 0.91902 0.83903 0.0
C535 C 0.39428 0.89771 0.82617 0.0
C536 C 0.42946 0.92395 0.81764 0.0
C537 C 0.39998 0.903 0.80501 0.0
C538 C 0.36022 0.91266 0.91532 0.0
C539 C 0.35212 0.92021 0.95266 0.0
N540 N 0.348 0.9412 0.94746 0.0
C541 C 0.35555 0.93422 0.91029 0.0
C542 C 0.3582 0.90551 0.93662 0.0
C543 C 0.34955 0.94844 0.92679 0.0
C544 C 0.33312 0.90639 0.84261 0.0
N545 N 0.35161 0.91457 0.85102 0.0
C546 C 0.34497 0.94885 0.83439 0.0
C547 C 0.35772 0.93534 0.84721 0.0
C548 C 0.3258 0.94085 0.82527 0.0
C549 C 0.31993 0.91928 0.8296 0.0
H550 H 0.32871 0.88978 0.84588 0.0
H551 H 0.37255 0.9414 0.85412 0.0
C552 C 0.43315 0.90614 0.92354 0.0
N553 N 0.4159 0.91472 0.91303 0.0
C554 C 0.4462 0.9192 0.93649 0.0
C555 C 0.42429 0.94999 0.92669 0.0
C556 C 0.41159 0.9363 0.91399 0.0
C557 C 0.44175 0.94143 0.93833 0.0
H558 H 0.43695 0.88917 0.92176 0.0
H559 H 0.39838 0.94293 0.90479 0.0
C560 C 0.36138 0.84316 0.85927 0.0
N561 N 0.35173 0.8004 0.85029 0.0
C562 C 0.37398 0.82652 0.86792 0.0
C563 C 0.3439 0.83804 0.84599 0.0
C564 C 0.36884 0.80502 0.86321 0.0
C565 C 0.33927 0.81632 0.84165 0.0
C566 C 0.4094 0.85359 0.91612 0.0
C567 C 0.42051 0.83399 0.91407 0.0
C568 C 0.40462 0.86164 0.93666 0.0
C569 C 0.42649 0.82267 0.93266 0.0
C570 C 0.41089 0.84985 0.95485 0.0
N571 N 0.42158 0.83076 0.95249 0.0
C572 C 0.43626 0.84726 0.85496 0.0
C573 C 0.40827 0.8446 0.82906 0.0
C574 C 0.44983 0.83465 0.84205 0.0
N575 N 0.41589 0.85183 0.84835 0.0
C576 C 0.42131 0.83205 0.8156 0.0
C577 C 0.44237 0.82683 0.82208 0.0
H578 H 0.44194 0.85338 0.87031 0.0
H579 H 0.392 0.84845 0.82417 0.0
C580 C 0.33307 0.85607 0.91748 0.0
N581 N 0.35346 0.8491 0.9134 0.0
C582 C 0.31926 0.8438 0.93042 0.0
C583 C 0.34764 0.81736 0.93473 0.0
C584 C 0.36075 0.82994 0.92143 0.0
C585 C 0.32663 0.82429 0.9394 0.0
H586 H 0.32758 0.87125 0.91071 0.0
H587 H 0.37668 0.82425 0.91747 0.0
O588 O 0.40136 0.9008 0.86416 0.0
O589 O 0.366 0.8985 0.89933 0.0
O590 O 0.36607 0.86437 0.86365 0.0
O591 O 0.40319 0.86472 0.89807 0.0
H592 H 0.43394 0.9254 0.85213 0.0
H593 H 0.3805 0.88744 0.82915 0.0
H594 H 0.44315 0.93418 0.8141 0.0
H595 H 0.39063 0.89685 0.79161 0.0
H596 H 0.35058 0.91491 0.96923 0.0
H597 H 0.35675 0.93997 0.89385 0.0
H598 H 0.36105 0.88874 0.94073 0.0
H599 H 0.34611 0.96522 0.92315 0.0
H600 H 0.35002 0.96542 0.8318 0.0
H601 H 0.3055 0.91228 0.82271 0.0
H602 H 0.45984 0.91201 0.94472 0.0
H603 H 0.42032 0.96705 0.92756 0.0
H604 H 0.38763 0.83014 0.87809 0.0
H605 H 0.33401 0.8507 0.83909 0.0
H606 H 0.37846 0.792 0.86981 0.0
H607 H 0.32579 0.81213 0.83141 0.0
H608 H 0.42431 0.82748 0.8983 0.0
H609 H 0.39637 0.87692 0.93851 0.0
H610 H 0.435 0.80744 0.93132 0.0
H611 H 0.40729 0.85591 0.97084 0.0
H612 H 0.46604 0.83123 0.84755 0.0
H613 H 0.41483 0.82617 0.80046 0.0
H614 H 0.30314 0.84967 0.93368 0.0
H615 H 0.35375 0.8022 0.94105 0.0
Li616 Li 0.62013 0.64683 0.64455 0.0
Li617 Li 0.64649 0.61769 0.6434 0.0
Li618 Li 0.64681 0.64689 0.61585 0.0
Li619 Li 0.61846 0.6191 0.61531 0.0
C620 C 0.65766 0.6659 0.66022 0.0
N621 N 0.66862 0.70031 0.68655 0.0
C622 C 0.66744 0.66216 0.68021 0.0
C623 C 0.6537 0.68713 0.65352 0.0
C624 C 0.67279 0.67978 0.69332 0.0
C625 C 0.65929 0.70431 0.66709 0.0
C626 C 0.60841 0.61013 0.66774 0.0
C627 C 0.58302 0.5943 0.69259 0.0
N628 N 0.59552 0.60084 0.70941 0.0
C629 C 0.62101 0.61665 0.68527 0.0
C630 C 0.58927 0.59884 0.6714 0.0
C631 C 0.61423 0.61182 0.70621 0.0
C632 C 0.58372 0.67213 0.65452 0.0
N633 N 0.60265 0.66477 0.66278 0.0
C634 C 0.59572 0.68282 0.69625 0.0
C635 C 0.60871 0.66971 0.6833 0.0
C636 C 0.5761 0.69079 0.68815 0.0
C637 C 0.57015 0.68522 0.66695 0.0
H638 H 0.5791 0.66773 0.63826 0.0
H639 H 0.6236 0.66347 0.68975 0.0
C640 C 0.68509 0.60494 0.66355 0.0
N641 N 0.66438 0.59883 0.65996 0.0
C642 C 0.69874 0.59196 0.67598 0.0
C643 C 0.66957 0.56648 0.6805 0.0
C644 C 0.6565 0.57994 0.66796 0.0
C645 C 0.69099 0.57247 0.68476 0.0
H646 H 0.69097 0.61997 0.65681 0.0
H647 H 0.63999 0.57539 0.66479 0.0
C648 C 0.60988 0.66607 0.59838 0.0
N649 N 0.59936 0.69699 0.56791 0.0
C650 C 0.60403 0.65982 0.57749 0.0
C651 C 0.60994 0.68802 0.6039 0.0
C652 C 0.59889 0.6757 0.56228 0.0
C653 C 0.60469 0.70341 0.58823 0.0
C654 C 0.65526 0.59411 0.60632 0.0
C655 C 0.67295 0.58964 0.59312 0.0
C656 C 0.64298 0.57706 0.61458 0.0
C657 C 0.67806 0.56812 0.58835 0.0
C658 C 0.64861 0.55576 0.60944 0.0
N659 N 0.66589 0.55177 0.59654 0.0
C660 C 0.68228 0.67439 0.60691 0.0
C661 C 0.66052 0.66634 0.57656 0.0
C662 C 0.69561 0.68752 0.59433 0.0
N663 N 0.66491 0.66443 0.59798 0.0
C664 C 0.6733 0.67946 0.56341 0.0
C665 C 0.6911 0.69039 0.57226 0.0
H666 H 0.68592 0.67204 0.6238 0.0
H667 H 0.64714 0.65763 0.56963 0.0
C668 C 0.5799 0.59766 0.60385 0.0
N669 N 0.60009 0.60258 0.59699 0.0
C670 C 0.56629 0.58507 0.59096 0.0
C671 C 0.59447 0.58306 0.56411 0.0
C672 C 0.60748 0.59577 0.57746 0.0
C673 C 0.5736 0.57746 0.57085 0.0
H674 H 0.57442 0.60342 0.61939 0.0
H675 H 0.62351 0.60017 0.57228 0.0
O676 O 0.65211 0.64883 0.64727 0.0
O677 O 0.61466 0.6148 0.64708 0.0
O678 O 0.61491 0.65073 0.61349 0.0
O679 O 0.65017 0.6151 0.61122 0.0
H680 H 0.67072 0.64583 0.68562 0.0
H681 H 0.64649 0.6903 0.63797 0.0
H682 H 0.68025 0.67712 0.70888 0.0
H683 H 0.65625 0.72082 0.66212 0.0
H684 H 0.56823 0.58558 0.69566 0.0
H685 H 0.63587 0.62536 0.68274 0.0
H686 H 0.57933 0.59362 0.65802 0.0
H687 H 0.62383 0.61681 0.71991 0.0
H688 H 0.60114 0.68685 0.71238 0.0
H689 H 0.55504 0.69064 0.66011 0.0
H690 H 0.71522 0.59707 0.67854 0.0
H691 H 0.66282 0.55174 0.6871 0.0
H692 H 0.60369 0.64289 0.57301 0.0
H693 H 0.61382 0.69313 0.62013 0.0
H694 H 0.59453 0.67109 0.546 0.0
H695 H 0.60478 0.72046 0.59225 0.0
H696 H 0.68263 0.60268 0.58664 0.0
H697 H 0.62923 0.5802 0.62483 0.0
H698 H 0.69171 0.56441 0.57814 0.0
H699 H 0.63924 0.54241 0.61571 0.0
H700 H 0.70945 0.69509 0.6018 0.0
H701 H 0.66908 0.68118 0.54653 0.0
H702 H 0.55039 0.581 0.59686 0.0
H703 H 0.60063 0.57784 0.5486 0.0
H704 H 0.28347 0.33263 0.45304 0.0
H705 H 0.26128 0.30983 0.47639 0.0
H706 H 0.31369 0.26427 0.48233 0.0
H707 H 0.33579 0.28685 0.45866 0.0
H708 H 0.27768 0.24327 0.47594 0.0
H709 H 0.29984 0.30017 0.52367 0.0
H710 H 0.30482 0.33794 0.53561 0.0
H711 H 0.23641 0.34803 0.53399 0.0
H712 H 0.23103 0.31038 0.52176 0.0
H713 H 0.23463 0.18418 0.56454 0.0
H714 H 0.25744 0.20747 0.54224 0.0
H715 H 0.20365 0.25031 0.5312 0.0
H716 H 0.18086 0.22734 0.55384 0.0
H717 H 0.24057 0.27255 0.54062 0.0
H718 H 0.21891 0.21524 0.49264 0.0
H719 H 0.21443 0.17724 0.48122 0.0
H720 H 0.28289 0.16777 0.48413 0.0
H721 H 0.28775 0.20565 0.49587 0.0
C722 C 0.2903 0.31784 0.45947 0.0
C723 C 0.31138 0.31155 0.45405 0.0
C724 C 0.27762 0.30482 0.47284 0.0
C725 C 0.28589 0.28544 0.48139 0.0
C726 C 0.30693 0.27912 0.47593 0.0
C727 C 0.31954 0.29202 0.46239 0.0
C728 C 0.2725 0.27156 0.49569 0.0
C729 C 0.26983 0.24963 0.49026 0.0
C730 C 0.26187 0.27989 0.51415 0.0
C731 C 0.26505 0.30251 0.5216 0.0
C732 C 0.28586 0.31049 0.52571 0.0
C733 C 0.28876 0.33187 0.53255 0.0
C734 C 0.27095 0.34539 0.5355 0.0
C735 C 0.25019 0.33754 0.53168 0.0
C736 C 0.24721 0.31618 0.52481 0.0
C737 C 0.22771 0.19865 0.55751 0.0
C738 C 0.20591 0.20387 0.56089 0.0
C739 C 0.24072 0.21186 0.54464 0.0
C740 C 0.23219 0.23051 0.53489 0.0
C741 C 0.21054 0.23595 0.53851 0.0
C742 C 0.1975 0.22271 0.5513 0.0
C743 C 0.24581 0.24435 0.52084 0.0
C744 C 0.24848 0.26624 0.52632 0.0
C745 C 0.25655 0.23596 0.50251 0.0
C746 C 0.25367 0.21321 0.49534 0.0
C747 C 0.23299 0.205 0.49101 0.0
C748 C 0.23038 0.1835 0.48445 0.0
C749 C 0.24836 0.17008 0.48201 0.0
C750 C 0.26898 0.17817 0.48606 0.0
C751 C 0.27167 0.19966 0.49265 0.0
H752 H 0.24631 0.15344 0.47692 0.0
H753 H 0.27322 0.36194 0.5408 0.0
H754 H 0.72006 0.58542 0.71545 0.0
H755 H 0.74309 0.56269 0.738 0.0
H756 H 0.71666 0.50547 0.70809 0.0
H757 H 0.69372 0.52812 0.68526 0.0
H758 H 0.71882 0.50112 0.75147 0.0
H759 H 0.76643 0.52272 0.69481 0.0
H760 H 0.78497 0.5483 0.67061 0.0
H761 H 0.81471 0.57904 0.72521 0.0
H762 H 0.79608 0.55383 0.74979 0.0
H763 H 0.79881 0.4274 0.7897 0.0
H764 H 0.77562 0.44942 0.76658 0.0
H765 H 0.79821 0.5073 0.79826 0.0
H766 H 0.82095 0.48543 0.82194 0.0
H767 H 0.79813 0.51074 0.7535 0.0
H768 H 0.74993 0.48905 0.81007 0.0
H769 H 0.73149 0.4631 0.83396 0.0
H770 H 0.70305 0.43198 0.77887 0.0
H771 H 0.7216 0.45757 0.75462 0.0
C772 C 0.71931 0.56802 0.71345 0.0
C773 C 0.70508 0.55862 0.69845 0.0
C774 C 0.73246 0.55503 0.72642 0.0
C775 C 0.73175 0.53238 0.7246 0.0
C776 C 0.71744 0.52292 0.7098 0.0
C777 C 0.7043 0.5359 0.6968 0.0
C778 C 0.7458 0.51858 0.73829 0.0
C779 C 0.73619 0.50301 0.75167 0.0
C780 C 0.76843 0.52134 0.73888 0.0
C781 C 0.77969 0.53652 0.72416 0.0
C782 C 0.77678 0.53505 0.70168 0.0
C783 C 0.78733 0.54946 0.68789 0.0
C784 C 0.80096 0.56532 0.69637 0.0
C785 C 0.80412 0.56677 0.71866 0.0
C786 C 0.79358 0.55241 0.73253 0.0
C787 C 0.79866 0.44478 0.792 0.0
C788 C 0.81178 0.45459 0.80777 0.0
C789 C 0.78547 0.45735 0.77867 0.0
C790 C 0.78514 0.47998 0.78078 0.0
C791 C 0.7983 0.48986 0.79632 0.0
C792 C 0.81138 0.4773 0.80977 0.0
C793 C 0.77113 0.49337 0.76669 0.0
C794 C 0.78076 0.50885 0.75324 0.0
C795 C 0.74854 0.49047 0.76597 0.0
C796 C 0.73735 0.47508 0.78051 0.0
C797 C 0.73991 0.47655 0.80303 0.0
C798 C 0.7294 0.46193 0.81664 0.0
C799 C 0.71615 0.44586 0.80793 0.0
C800 C 0.71335 0.44442 0.78559 0.0
C801 C 0.72384 0.45898 0.77191 0.0
H802 H 0.70802 0.43456 0.8185 0.0
H803 H 0.80913 0.57646 0.68566 0.0
H804 H 0.55894 0.03626 0.08224 0.0
H805 H 0.53594 0.01377 0.05931 0.0
H806 H 0.53942 0.06168 0.0088 0.0
H807 H 0.56204 0.08449 0.03183 0.0
H808 H 0.49843 0.04691 0.01457 0.0
H809 H 0.56889 0.01606 1.00538 0.0
H810 H 0.60333 1.00028 0.01746 0.0
H811 H 0.56946 0.94781 0.04762 0.0
H812 H 0.53477 0.96345 0.03597 0.0
H813 H 0.45703 0.98203 0.92932 0.0
H814 H 0.47962 1.00503 0.95215 0.0
H815 H 0.47978 0.95579 1.00152 0.0
H816 H 0.45732 0.93267 0.97871 0.0
H817 H 0.51905 0.97145 0.99625 0.0
H818 H 0.4487 1.002 1.00595 0.0
H819 H 0.41402 0.01768 0.99444 0.0
H820 H 0.44721 0.0705 0.96412 0.0
H821 H 0.48213 0.05497 0.9752 0.0
C822 C 0.55468 0.04209 0.06632 0.0
C823 C 0.56238 0.06214 0.05884 0.0
C824 C 0.54168 0.02914 0.05316 0.0
C825 C 0.53615 0.03595 0.03226 0.0
C826 C 0.54356 0.05607 0.02484 0.0
C827 C 0.55663 0.069 0.03796 0.0
C828 C 0.52257 0.02211 0.01814 0.0
C829 C 0.50306 0.03051 0.01031 0.0
C830 C 0.52838 1.00053 0.01303 0.0
C831 C 0.54922 0.99105 0.01998 0.0
C832 C 0.56877 1.00125 0.01473 0.0
C833 C 0.58834 0.99232 0.02148 0.0
C834 C 0.58858 0.97309 0.03335 0.0
C835 C 0.56925 0.96272 0.03845 0.0
C836 C 0.54963 0.97161 0.03176 0.0
C837 C 0.46172 0.97619 0.94512 0.0
C838 C 0.45534 0.95554 0.95222 0.0
C839 C 0.47464 0.98935 0.95816 0.0
C840 C 0.48122 0.98225 0.97868 0.0
C841 C 0.47495 0.96161 0.98575 0.0
C842 C 0.46214 0.94839 0.97267 0.0
C843 C 0.49485 0.99622 0.99268 0.0
C844 C 0.51439 0.98785 1.00049 0.0
C845 C 0.48902 0.01779 0.99785 0.0
C846 C 0.46804 0.0272 0.99122 0.0
C847 C 0.44861 0.01687 0.99668 0.0
C848 C 0.42891 0.02574 0.99026 0.0
C849 C 0.42841 0.04504 0.97851 0.0
C850 C 0.44762 0.05553 0.9732 0.0
C851 C 0.46737 0.04671 0.97956 0.0
H852 H 0.41314 0.05189 0.97355 0.0
H853 H 0.60375 0.96619 0.03856 0.0
H854 H 0.94609 0.78099 0.32707 0.0
H855 H 0.96855 0.75846 0.30372 0.0
H856 H 0.99219 0.81562 0.27156 0.0
H857 H 0.96914 0.83824 0.29432 0.0
H858 H 0.98241 0.78467 0.2429 0.0
H859 H 0.02304 0.78863 0.3087 0.0
H860 H 0.029 0.78545 0.34793 0.0
H861 H 0.01441 0.71756 0.345 0.0
H862 H 1.00806 0.72039 0.30578 0.0
H863 H 0.07096 0.73556 0.18943 0.0
H864 H 0.04843 0.75812 0.21268 0.0
H865 H 0.02458 0.70098 0.24474 0.0
H866 H 0.04767 0.67833 0.22204 0.0
H867 H 0.03447 0.73193 0.27343 0.0
H868 H 0.99391 0.72798 0.20759 0.0
H869 H 0.98801 0.73117 0.16835 0.0
H870 H 1.00255 0.79907 0.17133 0.0
H871 H 0.00883 0.79623 0.21057 0.0
C872 C 0.95593 0.78878 0.31492 0.0
C873 C 0.95582 0.81145 0.31261 0.0
C874 C 0.96893 0.77588 0.30172 0.0
C875 C 0.98226 0.78536 0.28605 0.0
C876 C 0.9821 0.80795 0.28359 0.0
C877 C 0.96906 0.82088 0.29676 0.0
C878 C 0.99619 0.77168 0.27207 0.0
C879 C 0.99401 0.77336 0.24957 0.0
C880 C 0.01097 0.75654 0.28077 0.0
C881 C 0.01488 0.75477 0.30434 0.0
C882 C 0.02094 0.77306 0.31645 0.0
C883 C 0.02442 0.77131 0.33868 0.0
C884 C 0.02203 0.75133 0.34896 0.0
C885 C 0.01622 0.73303 0.33702 0.0
C886 C 0.0127 0.73469 0.31479 0.0
C887 C 0.06106 0.72778 0.20154 0.0
C888 C 0.06113 0.70511 0.20386 0.0
C889 C 0.04801 0.7407 0.21468 0.0
C890 C 0.03462 0.73123 0.2303 0.0
C891 C 0.03473 0.70863 0.23274 0.0
C892 C 0.0478 0.6957 0.21962 0.0
C893 C 0.02069 0.74492 0.24426 0.0
C894 C 0.02287 0.74325 0.26676 0.0
C895 C 1.00592 0.76006 0.23556 0.0
C896 C 1.00204 0.76184 0.21199 0.0
C897 C 0.996 0.74356 0.19985 0.0
C898 C 0.99257 0.74531 0.17762 0.0
C899 C 0.99496 0.7653 0.16734 0.0
C900 C 1.00073 0.78359 0.1793 0.0
C901 C 1.00421 0.78193 0.20155 0.0
H902 H 0.99229 0.76662 0.15013 0.0
H903 H 0.02473 0.75001 0.36618 0.0
H904 H 0.33886 0.97084 0.79533 0.0
H905 H 0.31635 0.99391 0.77257 0.0
H906 H 0.25929 0.96535 0.80009 0.0
H907 H 0.28164 0.94255 0.82331 0.0
H908 H 0.25731 0.96816 0.75565 0.0
H909 H 0.27432 0.01474 0.81555 0.0
H910 H 0.29844 0.03341 0.84114 0.0
H911 H 0.32914 0.06649 0.78856 0.0
H912 H 0.30539 0.04778 0.76262 0.0
H913 H 0.18016 0.04253 0.71639 0.0
H914 H 0.20297 0.02005 0.73927 0.0
H915 H 0.25922 0.05407 0.71658 0.0
H916 H 0.23638 0.07749 0.69452 0.0
H917 H 0.26209 0.04831 0.75834 0.0
H918 H 0.24569 1.00233 0.6983 0.0
H919 H 0.22236 0.98349 0.67212 0.0
H920 H 0.19162 0.94903 0.72378 0.0
H921 H 0.21458 0.96789 0.75032 0.0
C922 C 0.32153 0.96963 0.79679 0.0
C923 C 0.3121 0.95485 0.81127 0.0
C924 C 0.30868 0.98278 0.78368 0.0
C925 C 0.28615 0.98145 0.78475 0.0
C926 C 0.27666 0.96659 0.79897 0.0
C927 C 0.28949 0.9535 0.81217 0.0
C928 C 0.27246 0.9955 0.77095 0.0
C929 C 0.25813 0.98569 0.75641 0.0
C930 C 0.27399 0.01835 0.77155 0.0
C931 C 0.28822 0.02969 0.78713 0.0
C932 C 0.28633 0.02586 0.80943 0.0
C933 C 0.29991 0.03647 0.824 0.0
C934 C 0.31535 0.05108 0.81648 0.0
C935 C 0.3172 0.05515 0.79437 0.0
C936 C 0.30367 0.04456 0.77972 0.0
C937 C 0.19735 0.04546 0.71642 0.0
C938 C 0.20638 0.06188 0.70354 0.0
C939 C 0.21043 0.03236 0.72933 0.0
C940 C 0.23288 0.0351 0.72942 0.0
C941 C 0.24195 0.05155 0.71671 0.0
C942 C 0.22886 0.0648 0.70392 0.0
C943 C 0.24685 0.021 0.74298 0.0
C944 C 0.26125 0.03079 0.7575 0.0
C945 C 0.2455 0.99811 0.74224 0.0
C946 C 0.23172 0.98667 0.72631 0.0
C947 C 0.23385 0.99085 0.70409 0.0
C948 C 0.22071 0.98015 0.68919 0.0
C949 C 0.20548 0.96511 0.69628 0.0
C950 C 0.2034 0.9607 0.71831 0.0
C951 C 0.21649 0.97138 0.73329 0.0
H952 H 0.19532 0.95685 0.68472 0.0
H953 H 0.32585 0.05928 0.82778 0.0
H954 H 0.98502 0.44484 0.93895 0.0
H955 H 1.00774 0.46772 0.96182 0.0
H956 H 0.95129 0.49026 0.99581 0.0
H957 H 0.92851 0.46815 0.97222 0.0
H958 H 0.97572 0.52264 0.98937 0.0
H959 H 0.98859 0.45142 0.01716 0.0
H960 H 0.99836 0.41273 0.01558 0.0
H961 H 0.06124 0.42929 0.992 0.0
H962 H 0.05175 0.46808 0.99317 0.0
H963 H 0.03196 0.56671 0.07973 0.0
H964 H 0.00941 0.54377 0.05686 0.0
H965 H 0.06372 0.5309 0.01543 0.0
H966 H 0.0863 0.55427 0.03783 0.0
H967 H 0.04061 0.4937 0.02617 0.0
H968 H 0.02646 0.56562 0.99922 0.0
H969 H 0.01596 0.604 1.00254 0.0
H970 H 0.95409 0.58518 0.02711 0.0
H971 H 0.96435 0.54668 0.02422 0.0
C972 C 0.97753 0.45464 0.95138 0.0
C973 C 0.95506 0.45472 0.95391 0.0
C974 C 0.99051 0.46763 0.96453 0.0
C975 C 0.98132 0.48047 0.98088 0.0
C976 C 0.95881 0.48053 0.98335 0.0
C977 C 0.94581 0.46788 0.96991 0.0
C978 C 0.99506 0.49418 0.99511 0.0
C979 C 0.98971 0.51616 0.99765 0.0
C980 C 0.0136 0.48596 1.00568 0.0
C981 C 0.01939 0.46265 1.00506 0.0
C982 C 1.00445 0.44681 0.0115 0.0
C983 C 0.00995 0.42486 0.0107 0.0
C984 C 0.03039 0.41856 1.00365 0.0
C985 C 0.0454 0.43419 0.99744 0.0
C986 C 0.03998 0.45616 0.99818 0.0
C987 C 0.03909 0.55925 0.06561 0.0
C988 C 0.06098 0.56245 0.06062 0.0
C989 C 0.02618 0.54604 0.05262 0.0
C990 C 0.03487 0.53574 0.03438 0.0
C991 C 0.05672 0.53865 0.02947 0.0
C992 C 0.06962 0.55196 0.04238 0.0
C993 C 0.02115 0.52196 0.02038 0.0
C994 C 0.02655 0.50003 0.01789 0.0
C995 C 1.00249 0.53013 0.01012 0.0
C996 C 0.99625 0.55327 0.0117 0.0
C997 C 0.01068 0.56967 1.00549 0.0
C998 C 1.00476 0.59145 0.00727 0.0
C999 C 0.98439 0.59703 0.01508 0.0
C1000 C 0.96987 0.58084 0.02108 0.0
C1001 C 0.97572 0.55904 0.01936 0.0
H1002 H 0.97983 0.6139 0.01645 0.0
H1003 H 0.03461 0.40156 1.00303 0.0
H1004 H 0.42912 0.30051 0.2891 0.0
H1005 H 0.45241 0.27819 0.26635 0.0
H1006 H 0.50808 0.30055 0.30156 0.0
H1007 H 0.48494 0.3235 0.32395 0.0
H1008 H 0.51568 0.30023 0.25882 0.0
H1009 H 0.48715 0.25053 0.31084 0.0
H1010 H 0.45873 0.23205 0.3316 0.0
H1011 H 0.43169 0.20693 0.27289 0.0
H1012 H 0.45979 0.22553 0.25173 0.0
H1013 H 0.58897 0.21964 0.22207 0.0
H1014 H 0.56595 0.24255 0.2446 0.0
H1015 H 0.51019 0.22168 0.20864 0.0
H1016 H 0.53304 0.19835 0.18636 0.0
H1017 H 0.50282 0.22123 0.25188 0.0
H1018 H 0.53151 0.27105 0.19992 0.0
H1019 H 0.5601 0.28946 0.17933 0.0
H1020 H 0.58708 0.31419 0.23824 0.0
H1021 H 0.5588 0.29567 0.25922 0.0
C1022 C 0.44634 0.30087 0.29187 0.0
C1023 C 0.45516 0.31376 0.30839 0.0
C1024 C 0.45962 0.28792 0.27899 0.0
C1025 C 0.48197 0.28748 0.28243 0.0
C1026 C 0.49086 0.30057 0.29868 0.0
C1027 C 0.4776 0.31353 0.31159 0.0
C1028 C 0.49605 0.27339 0.26905 0.0
C1029 C 0.51305 0.28291 0.25754 0.0
C1030 C 0.49234 0.25086 0.26701 0.0
C1031 C 0.47546 0.2396 0.27969 0.0
C1032 C 0.47505 0.24121 0.30234 0.0
C1033 C 0.45901 0.23069 0.31418 0.0
C1034 C 0.44338 0.21837 0.30357 0.0
C1035 C 0.44379 0.21651 0.28109 0.0
C1036 C 0.45978 0.22702 0.26916 0.0
C1037 C 0.57179 0.21982 0.21905 0.0
C1038 C 0.56284 0.2072 0.20239 0.0
C1039 C 0.55868 0.23306 0.23182 0.0
C1040 C 0.53638 0.23399 0.22816 0.0
C1041 C 0.52737 0.22126 0.21169 0.0
C1042 C 0.54047 0.20808 0.19886 0.0
C1043 C 0.52241 0.24808 0.24164 0.0
C1044 C 0.50544 0.23855 0.25317 0.0
C1045 C 0.52618 0.27059 0.24374 0.0
C1046 C 0.54316 0.28179 0.23116 0.0
C1047 C 0.54364 0.28027 0.2085 0.0
C1048 C 0.55977 0.29075 0.19676 0.0
C1049 C 0.57543 0.30294 0.20747 0.0
C1050 C 0.57495 0.30472 0.22996 0.0
C1051 C 0.55887 0.29425 0.24179 0.0
H1052 H 0.5879 0.31104 0.19835 0.0
H1053 H 0.43099 0.21024 0.31277 0.0
H1054 H 0.81662 0.8312 0.48312 0.0
H1055 H 0.7938 0.80801 0.50544 0.0
H1056 H 0.77874 0.76888 0.44969 0.0
H1057 H 0.80128 0.79227 0.42723 0.0
H1058 H 0.74369 0.77548 0.4723 0.0
H1059 H 0.81531 0.75212 0.48889 0.0
H1060 H 0.85322 0.75623 0.50003 0.0
H1061 H 0.83298 0.78111 0.56152 0.0
H1062 H 0.79493 0.77743 0.55064 0.0
H1063 H 0.7032 0.68425 0.53001 0.0
H1064 H 0.72536 0.7079 0.50757 0.0
H1065 H 0.73317 0.75192 0.56106 0.0
H1066 H 0.71045 0.72877 0.58348 0.0
H1067 H 0.77181 0.74251 0.5397 0.0
H1068 H 0.69972 0.76519 0.52225 0.0
H1069 H 0.66211 0.75982 0.51063 0.0
H1070 H 0.68397 0.7344 0.44991 0.0
H1071 H 0.72174 0.73932 0.46131 0.0
C1072 C 0.80852 0.81758 0.47566 0.0
C1073 C 0.81082 0.81349 0.45344 0.0
C1074 C 0.79551 0.80431 0.48843 0.0
C1075 C 0.7848 0.78646 0.47934 0.0
C1076 C 0.78683 0.78253 0.45709 0.0
C1077 C 0.79969 0.79593 0.44426 0.0
C1078 C 0.77139 0.77196 0.49299 0.0
C1079 C 0.74996 0.76804 0.48687 0.0
C1080 C 0.7794 0.76252 0.51225 0.0
C1081 C 0.80227 0.7647 0.51887 0.0
C1082 C 0.81894 0.75862 0.50473 0.0
C1083 C 0.84046 0.76085 0.511 0.0
C1084 C 0.84551 0.76898 0.53145 0.0
C1085 C 0.82905 0.77485 0.54568 0.0
C1086 C 0.8075 0.77268 0.53948 0.0
C1087 C 0.70936 0.69909 0.53698 0.0
C1088 C 0.70492 0.70458 0.5586 0.0
C1089 C 0.72213 0.71253 0.52413 0.0
C1090 C 0.7308 0.73171 0.53263 0.0
C1091 C 0.72668 0.73714 0.55422 0.0
C1092 C 0.71376 0.7238 0.56704 0.0
C1093 C 0.74421 0.7461 0.51898 0.0
C1094 C 0.76561 0.74997 0.52511 0.0
C1095 C 0.73625 0.75531 0.49964 0.0
C1096 C 0.71356 0.75242 0.49272 0.0
C1097 C 0.69651 0.75828 0.50649 0.0
C1098 C 0.67516 0.75535 0.49993 0.0
C1099 C 0.67066 0.74672 0.47957 0.0
C1100 C 0.68749 0.74106 0.4657 0.0
C1101 C 0.70887 0.74393 0.47219 0.0
H1102 H 0.65412 0.74447 0.47452 0.0
H1103 H 0.86217 0.77068 0.53628 0.0
H1104 H 0.23167 0.58508 0.20235 0.0
H1105 H 0.25461 0.5623 0.22509 0.0
H1106 H 0.20483 0.51359 0.22703 0.0
H1107 H 0.18166 0.53661 0.2048 0.0
H1108 H 0.22074 0.51809 0.26533 0.0
H1109 H 0.25152 0.50859 0.19512 0.0
H1110 H 0.26721 0.51999 0.16038 0.0
H1111 H 0.31954 0.55071 0.1938 0.0
H1112 H 0.304 0.53974 0.22877 0.0
H1113 H 0.28685 0.43123 0.30275 0.0
H1114 H 0.26423 0.45447 0.28029 0.0
H1115 H 0.30913 0.50703 0.28854 0.0
H1116 H 0.33151 0.48423 0.31169 0.0
H1117 H 0.2961 0.50045 0.24528 0.0
H1118 H 0.26439 0.50874 0.31575 0.0
H1119 H 0.24842 0.49579 0.34981 0.0
H1120 H 0.19731 0.46513 0.3145 0.0
H1121 H 0.21315 0.47764 0.28019 0.0
C1122 C 0.22572 0.56944 0.20752 0.0
C1123 C 0.20491 0.56259 0.20177 0.0
C1124 C 0.23884 0.5564 0.22048 0.0
C1125 C 0.2316 0.53605 0.22757 0.0
C1126 C 0.2108 0.52922 0.22182 0.0
C1127 C 0.19757 0.54237 0.20911 0.0
C1128 C 0.24551 0.52202 0.24127 0.0
C1129 C 0.23711 0.51401 0.26075 0.0
C1130 C 0.26705 0.51696 0.23558 0.0
C1131 C 0.27647 0.52353 0.21457 0.0
C1132 C 0.26628 0.51792 0.19507 0.0
C1133 C 0.27517 0.52428 0.17534 0.0
C1134 C 0.29433 0.53612 0.17489 0.0
C1135 C 0.30468 0.54157 0.19417 0.0
C1136 C 0.29585 0.53527 0.21396 0.0
C1137 C 0.29182 0.44781 0.3001 0.0
C1138 C 0.31105 0.4558 0.30915 0.0
C1139 C 0.27891 0.46103 0.28712 0.0
C1140 C 0.28498 0.48248 0.28282 0.0
C1141 C 0.30422 0.49048 0.29159 0.0
C1142 C 0.31704 0.47735 0.30475 0.0
C1143 C 0.27124 0.49656 0.26916 0.0
C1144 C 0.2797 0.50457 0.24975 0.0
C1145 C 0.24969 0.50139 0.27477 0.0
C1146 C 0.24008 0.49394 0.29539 0.0
C1147 C 0.24985 0.49908 0.31524 0.0
C1148 C 0.2408 0.49185 0.33459 0.0
C1149 C 0.22189 0.47959 0.33432 0.0
C1150 C 0.21197 0.47459 0.31469 0.0
C1151 C 0.22097 0.48177 0.29528 0.0
H1152 H 0.21491 0.47401 0.34932 0.0
H1153 H 0.30118 0.54102 0.15959 0.0
H1154 H 0.80782 0.28657 0.92881 0.0
H1155 H 0.78542 0.26375 0.95175 0.0
H1156 H 0.78941 0.31113 1.00282 0.0
H1157 H 0.81284 0.3335 0.98042 0.0
H1158 H 0.79383 0.27231 0.01906 0.0
H1159 H 0.74373 0.30546 0.97032 0.0
H1160 H 0.72892 0.31591 0.93487 0.0
H1161 H 0.72239 0.24889 0.91754 0.0
H1162 H 0.73743 0.23804 0.95279 0.0
H1163 H 0.70645 0.23236 0.08181 0.0
H1164 H 0.72951 0.2549 0.05911 0.0
H1165 H 0.73035 0.20498 0.01038 0.0
H1166 H 0.70758 0.18216 0.03311 0.0
H1167 H 0.72326 0.24507 0.99309 0.0
H1168 H 0.77339 0.21235 0.04252 0.0
H1169 H 0.78762 0.20253 0.07838 0.0
H1170 H 0.79329 0.26984 0.09488 0.0
H1171 H 0.7788 0.28006 0.05921 0.0
C1172 C 0.80419 0.29206 0.94501 0.0
C1173 C 0.81215 0.31197 0.95269 0.0
C1174 C 0.79112 0.27909 0.95803 0.0
C1175 C 0.7854 0.28586 0.97892 0.0
C1176 C 0.79348 0.30559 0.98673 0.0
C1177 C 0.80671 0.31849 0.97379 0.0
C1178 C 0.77117 0.2723 0.9927 0.0
C1179 C 0.77827 0.26662 0.01347 0.0
C1180 C 0.75103 0.26447 0.9853 0.0
C1181 C 0.7419 0.27095 0.96412 0.0
C1182 C 0.73928 0.29295 0.95889 0.0
C1183 C 0.73082 0.29895 0.93884 0.0
C1184 C 0.72477 0.28307 0.92394 0.0
C1185 C 0.72711 0.26117 0.92909 0.0
C1186 C 0.73558 0.25509 0.9491 0.0
C1187 C 0.71172 0.22605 0.06637 0.0
C1188 C 0.70519 0.20539 0.05935 0.0
C1189 C 0.72485 0.239 0.05338 0.0
C1190 C 0.7318 0.23155 0.03313 0.0
C1191 C 0.72514 0.21107 0.02594 0.0
C1192 C 0.71204 0.19808 0.03894 0.0
C1193 C 0.74595 0.24514 0.01938 0.0
C1194 C 0.73883 0.2508 0.99864 0.0
C1195 C 0.76599 0.25307 0.02686 0.0
C1196 C 0.77482 0.24696 0.04827 0.0
C1197 C 0.77752 0.22505 0.05386 0.0
C1198 C 0.78565 0.21942 0.07414 0.0
C1199 C 0.7913 0.23555 0.08892 0.0
C1200 C 0.78888 0.25736 0.08342 0.0
C1201 C 0.78072 0.26308 0.06317 0.0
H1202 H 0.7976 0.23116 0.10461 0.0
H1203 H 0.71822 0.28774 0.90843 0.0
H1204 H 0.83759 0.9745 0.29844 0.0
H1205 H 0.81469 0.99686 0.27549 0.0
H1206 H 0.75892 0.96072 0.29602 0.0
H1207 H 0.78189 0.93752 0.3182 0.0
H1208 H 0.75718 0.96734 0.25409 0.0
H1209 H 0.77028 0.01208 0.31593 0.0
H1210 H 0.79227 0.03092 0.34326 0.0
H1211 H 0.82314 0.0679 0.29344 0.0
H1212 H 0.80153 0.04906 0.26577 0.0
H1213 H 0.67842 0.04244 0.21704 0.0
H1214 H 0.7013 0.01966 0.23982 0.0
H1215 H 0.75774 0.05215 0.21546 0.0
H1216 H 0.73492 0.0753 0.19295 0.0
H1217 H 0.75888 0.0475 0.25938 0.0
H1218 H 0.7452 1.00236 0.19762 0.0
H1219 H 0.72255 0.98363 0.17076 0.0
H1220 H 0.69186 0.94753 0.22133 0.0
H1221 H 0.71413 0.96628 0.24853 0.0
C1222 C 0.82049 0.9711 0.29792 0.0
C1223 C 0.81162 0.95417 0.31024 0.0
C1224 C 0.80736 0.98411 0.28496 0.0
C1225 C 0.78501 0.98071 0.28426 0.0
C1226 C 0.77611 0.96373 0.29638 0.0
C1227 C 0.78925 0.95061 0.30923 0.0
C1228 C 0.77096 0.9947 0.27069 0.0
C1229 C 0.75734 0.98485 0.25548 0.0
C1230 C 0.77146 0.01759 0.27215 0.0
C1231 C 0.78443 0.02901 0.28876 0.0
C1232 C 0.78187 0.02411 0.31079 0.0
C1233 C 0.79425 0.03481 0.32634 0.0
C1234 C 0.80913 0.05056 0.32009 0.0
C1235 C 0.81162 0.05568 0.29826 0.0
C1236 C 0.7993 0.04501 0.28264 0.0
C1237 C 0.6957 0.04482 0.21663 0.0
C1238 C 0.70486 0.06066 0.20315 0.0
C1239 C 0.70876 0.03168 0.22952 0.0
C1240 C 0.73124 0.03408 0.22919 0.0
C1241 C 0.74043 0.04999 0.21591 0.0
C1242 C 0.72738 0.06308 0.20293 0.0
C1243 C 0.74516 0.02011 0.24283 0.0
C1244 C 0.75874 0.02998 0.25804 0.0
C1245 C 0.74453 0.99724 0.24146 0.0
C1246 C 0.73119 0.98588 0.22512 0.0
C1247 C 0.7335 0.99056 0.20303 0.0
C1248 C 0.72075 0.97991 0.18774 0.0
C1249 C 0.70573 0.96444 0.19434 0.0
C1250 C 0.70348 0.95954 0.21624 0.0
C1251 C 0.71617 0.97015 0.2316 0.0
H1252 H 0.69588 0.95622 0.18248 0.0
H1253 H 0.8187 0.05882 0.33215 0.0
H1254 H 0.96936 0.92862 0.47066 0.0
H1255 H 0.99222 0.95109 0.49368 0.0
H1256 H 0.96894 0.00844 0.4615 0.0
H1257 H 0.94662 0.98603 0.43787 0.0
H1258 H 0.01155 0.0105 0.46727 0.0
H1259 H 0.95028 0.99399 0.51152 0.0
H1260 H 0.92384 0.97025 0.5294 0.0
H1261 H 0.97471 0.93907 0.56463 0.0
H1262 H 1.00151 0.96242 0.54673 0.0
H1263 H 0.04831 0.08764 0.5438 0.0
H1264 H 0.02552 0.06513 0.52074 0.0
H1265 H 0.04911 1.0078 0.55272 0.0
H1266 H 0.07139 0.03025 0.57636 0.0
H1267 H 1.00637 1.00571 0.54706 0.0
H1268 H 0.06762 0.02228 0.50282 0.0
H1269 H 0.09405 0.04603 0.48494 0.0
H1270 H 0.04316 0.07717 0.4497 0.0
H1271 H 0.01638 0.05379 0.4676 0.0
C1272 C 0.96927 0.94599 0.46829 0.0
C1273 C 0.95608 0.95551 0.45244 0.0
C1274 C 0.98219 0.95884 0.48164 0.0
C1275 C 0.98208 0.98149 0.47953 0.0
C1276 C 0.96921 0.99101 0.4635 0.0
C1277 C 0.95631 0.97818 0.45012 0.0
C1278 C 0.9954 0.99525 0.494 0.0
C1279 C 0.01021 0.00966 0.48472 0.0
C1280 C 0.99401 0.99382 0.51678 0.0
C1281 C 0.97792 0.97981 0.52762 0.0
C1282 C 0.95585 0.98195 0.52295 0.0
C1283 C 0.94079 0.96859 0.53312 0.0
C1284 C 0.94759 0.95312 0.5481 0.0
C1285 C 0.96946 0.95103 0.553 0.0
C1286 C 0.98459 0.96434 0.54286 0.0
C1287 C 0.04848 0.07026 0.5461 0.0
C1288 C 0.06175 0.06076 0.56191 0.0
C1289 C 0.0356 0.05739 0.53275 0.0
C1290 C 0.03582 0.03474 0.5348 0.0
C1291 C 0.04876 0.02523 0.55077 0.0
C1292 C 0.06163 0.03808 0.56415 0.0
C1293 C 0.02251 0.02096 0.52033 0.0
C1294 C 1.00771 1.00655 0.52962 0.0
C1295 C 0.0239 0.02239 0.49756 0.0
C1296 C 0.03998 0.03642 0.48672 0.0
C1297 C 0.06205 0.0343 0.49139 0.0
C1298 C 0.0771 0.04768 0.48123 0.0
C1299 C 0.07028 0.06314 0.46624 0.0
C1300 C 0.04841 0.06521 0.46134 0.0
C1301 C 0.03329 0.05189 0.47147 0.0
H1302 H 0.08196 0.07348 0.45838 0.0
H1303 H 0.93591 0.94279 0.55595 0.0
H1304 H 0.92864 0.29884 0.78996 0.0
H1305 H 0.95132 0.27592 0.76714 0.0
H1306 H 1.00752 0.2964 0.80267 0.0
H1307 H 0.98492 0.31946 0.82547 0.0
H1308 H 0.01559 0.29648 0.76064 0.0
H1309 H 0.98453 0.24621 0.81065 0.0
H1310 H 0.95515 0.22805 0.83033 0.0
H1311 H 0.92842 0.20561 0.77041 0.0
H1312 H 0.95749 0.2239 0.75033 0.0
H1313 H 0.0873 0.21475 0.72394 0.0
H1314 H 0.06425 0.2376 0.74638 0.0
H1315 H 0.00913 0.21958 0.70799 0.0
H1316 H 0.03214 0.19689 0.68523 0.0
H1317 H 1.00039 0.21817 0.75119 0.0
H1318 H 0.03204 0.26842 0.70135 0.0
H1319 H 0.06181 0.28635 0.68206 0.0
H1320 H 0.08794 0.30855 0.74234 0.0
H1321 H 0.05847 0.29047 0.76202 0.0
C1322 C 0.94581 0.29833 0.79303 0.0
C1323 C 0.95497 0.31091 0.80959 0.0
C1324 C 0.95876 0.28522 0.77997 0.0
C1325 C 0.98111 0.28421 0.78336 0.0
C1326 C 0.99032 0.29693 0.79974 0.0
C1327 C 0.97739 0.31013 0.81273 0.0
C1328 C 0.9949 0.27003 0.76973 0.0
C1329 C 0.01243 0.2793 0.75882 0.0
C1330 C 0.99053 0.24769 0.76694 0.0
C1331 C 0.97307 0.2366 0.77898 0.0
C1332 C 0.97229 0.23754 0.80166 0.0
C1333 C 0.95571 0.2272 0.81289 0.0
C1334 C 0.9399 0.21573 0.80162 0.0
C1335 C 0.94067 0.21452 0.77911 0.0
C1336 C 0.9572 0.22486 0.7678 0.0
C1337 C 0.07032 0.2158 0.72009 0.0
C1338 C 0.06162 0.20406 0.70267 0.0
C1339 C 0.05715 0.22883 0.73299 0.0
C1340 C 0.035 0.23047 0.72872 0.0
C1341 C 0.02618 0.21853 0.71158 0.0
C1342 C 0.03935 0.20551 0.69864 0.0
C1343 C 0.02107 0.24463 0.74217 0.0
C1344 C 1.00352 0.23536 0.75303 0.0
C1345 C 0.02548 0.26694 0.74498 0.0
C1346 C 0.04316 0.27791 0.73317 0.0
C1347 C 0.04422 0.27698 0.71051 0.0
C1348 C 0.06103 0.2872 0.6995 0.0
C1349 C 0.07679 0.29854 0.71097 0.0
C1350 C 0.07574 0.29973 0.73348 0.0
C1351 C 0.05898 0.28952 0.74457 0.0
H1352 H 0.08979 0.30643 0.70242 0.0
H1353 H 0.92707 0.20773 0.81035 0.0
H1354 H 0.55208 0.72598 0.67563 0.0
H1355 H 0.52906 0.74884 0.69805 0.0
H1356 H 0.5458 0.71085 0.75403 0.0
H1357 H 0.56797 0.68723 0.73154 0.0
H1358 H 0.50438 0.71932 0.75438 0.0
H1359 H 0.56843 0.7614 0.74411 0.0
H1360 H 0.59709 0.77942 0.72326 0.0
H1361 H 0.54993 0.81928 0.69173 0.0
H1362 H 0.52094 0.80128 0.71219 0.0
H1363 H 0.46886 0.79362 0.83445 0.0
H1364 H 0.49149 0.7708 0.81145 0.0
H1365 H 0.46991 0.80593 0.75529 0.0
H1366 H 0.44757 0.82912 0.77825 0.0
H1367 H 0.5135 0.79913 0.7549 0.0
H1368 H 0.44952 0.75683 0.76606 0.0
H1369 H 0.42138 0.73891 0.78768 0.0
H1370 H 0.46935 0.69951 0.81856 0.0
H1371 H 0.49782 0.71743 0.79733 0.0
C1372 C 0.55068 0.72229 0.69266 0.0
C1373 C 0.562 0.70477 0.70176 0.0
C1374 C 0.5377 0.73557 0.70553 0.0
C1375 C 0.53595 0.7318 0.72782 0.0
C1376 C 0.54697 0.71416 0.7369 0.0
C1377 C 0.55984 0.70079 0.72403 0.0
C1378 C 0.52256 0.74615 0.74169 0.0
C1379 C 0.50659 0.73674 0.7547 0.0
C1380 C 0.5251 0.76895 0.7418 0.0
C1381 C 0.5425 0.77984 0.72953 0.0
C1382 C 0.56416 0.77389 0.73261 0.0
C1383 C 0.58046 0.78412 0.72088 0.0
C1384 C 0.57533 0.80044 0.70614 0.0
C1385 C 0.55388 0.80661 0.70313 0.0
C1386 C 0.53751 0.79642 0.7148 0.0
C1387 C 0.46908 0.79662 0.81723 0.0
C1388 C 0.45637 0.81315 0.80817 0.0
C1389 C 0.48188 0.78345 0.80408 0.0
C1390 C 0.4822 0.78652 0.78163 0.0
C1391 C 0.46983 0.80323 0.77257 0.0
C1392 C 0.45696 0.81636 0.78569 0.0
C1393 C 0.49543 0.77227 0.76758 0.0
C1394 C 0.51133 0.7817 0.75455 0.0
C1395 C 0.49293 0.74949 0.76755 0.0
C1396 C 0.47582 0.73862 0.78025 0.0
C1397 C 0.45408 0.74447 0.77758 0.0
C1398 C 0.43807 0.73429 0.78975 0.0
C1399 C 0.44358 0.71812 0.80453 0.0
C1400 C 0.46511 0.71206 0.80713 0.0
C1401 C 0.48119 0.72221 0.79502 0.0
H1402 H 0.43115 0.71026 0.81393 0.0
H1403 H 0.58798 0.80835 0.69707 0.0
H1404 H 0.22834 0.71334 0.08595 0.0
H1405 H 0.25143 0.73543 0.06309 0.0
H1406 H 0.20982 0.72307 0.00866 0.0
H1407 H 0.18762 0.69953 0.03094 0.0
H1408 H 0.2485 0.72161 0.99534 0.0
H1409 H 0.20962 0.77248 0.03855 0.0
H1410 H 0.19576 0.78907 0.07201 0.0
H1411 H 0.26042 0.80119 0.09341 0.0
H1412 H 0.27468 0.7844 0.06019 0.0
H1413 H 0.28533 0.81124 0.93165 0.0
H1414 H 0.26247 0.78859 0.95476 0.0
H1415 H 0.31321 0.78537 1.00221 0.0
H1416 H 0.33624 0.80773 0.97903 0.0
H1417 H 0.27 0.79537 0.01871 0.0
H1418 H 0.30775 0.74391 0.97352 0.0
H1419 H 0.31971 0.72885 0.93865 0.0
H1420 H 0.25388 0.71995 0.91934 0.0
H1421 H 0.24152 0.73528 0.954 0.0
C1422 C 0.22423 0.71497 0.06904 0.0
C1423 C 0.20593 0.70463 0.06042 0.0
C1424 C 0.23731 0.72795 0.05603 0.0
C1425 C 0.23216 0.73137 0.0342 0.0
C1426 C 0.2141 0.72085 0.02547 0.0
C1427 C 0.20122 0.70757 0.03837 0.0
C1428 C 0.24565 0.74572 0.02041 0.0
C1429 C 0.2529 0.73784 1.00039 0.0
C1430 C 0.25173 0.76686 0.02699 0.0
C1431 C 0.24322 0.77699 0.04698 0.0
C1432 C 0.22088 0.77854 0.05046 0.0
C1433 C 0.21296 0.788 0.06937 0.0
C1434 C 0.2272 0.79613 0.08485 0.0
C1435 C 0.24941 0.79486 0.08142 0.0
C1436 C 0.25742 0.78539 0.06255 0.0
C1437 C 0.29153 0.80577 0.94706 0.0
C1438 C 0.31254 0.81115 0.95356 0.0
C1439 C 0.27852 0.79281 0.96018 0.0
C1440 C 0.28622 0.78529 0.98013 0.0
C1441 C 0.30702 0.79102 0.98686 0.0
C1442 C 0.32016 0.80367 0.97359 0.0
C1443 C 0.27268 0.77118 0.99386 0.0
C1444 C 0.26547 0.77913 0.01378 0.0
C1445 C 0.2663 0.7503 0.98704 0.0
C1446 C 0.27371 0.74096 0.96626 0.0
C1447 C 0.29582 0.73893 0.96176 0.0
C1448 C 0.30268 0.7303 0.94205 0.0
C1449 C 0.28757 0.7235 0.92676 0.0
C1450 C 0.26557 0.72526 0.93119 0.0
C1451 C 0.25863 0.7339 0.95087 0.0
H1452 H 0.2929 0.71682 0.91151 0.0
H1453 H 0.22103 0.80346 0.09948 0.0
H1454 H 0.42854 0.47825 0.45791 0.0
H1455 H 0.45099 0.5017 0.48042 0.0
H1456 H 0.50498 0.45868 0.47093 0.0
H1457 H 0.48249 0.43502 0.44866 0.0
H1458 H 0.50284 0.47028 0.51166 0.0
H1459 H 0.50053 0.50798 0.44406 0.0
H1460 H 0.48331 0.52516 0.41253 0.0
H1461 H 0.45138 0.5706 0.45418 0.0
H1462 H 0.46819 0.5535 0.486 0.0
H1463 H 0.58509 0.54125 0.54811 0.0
H1464 H 0.56213 0.51839 0.52553 0.0
H1465 H 0.50755 0.5591 0.54013 0.0
H1466 H 0.53055 0.58234 0.5624 0.0
H1467 H 0.50979 0.54896 0.4971 0.0
H1468 H 0.51294 0.511 0.56471 0.0
H1469 H 0.53092 0.49381 0.5958 0.0
H1470 H 0.5623 0.44878 0.5533 0.0
H1471 H 0.54473 0.46591 0.52191 0.0
C1472 C 0.44524 0.47389 0.4605 0.0
C1473 C 0.45377 0.45482 0.45146 0.0
C1474 C 0.45807 0.48731 0.47335 0.0
C1475 C 0.47979 0.48213 0.47716 0.0
C1476 C 0.48828 0.46302 0.46826 0.0
C1477 C 0.47541 0.44949 0.45556 0.0
C1478 C 0.49359 0.49647 0.49062 0.0
C1479 C 0.50458 0.48743 0.50827 0.0
C1480 C 0.49552 0.51895 0.48654 0.0
C1481 C 0.48545 0.52932 0.46743 0.0
C1482 C 0.48971 0.52153 0.44651 0.0
C1483 C 0.48004 0.53127 0.42858 0.0
C1484 C 0.46622 0.54892 0.43136 0.0
C1485 C 0.46207 0.55691 0.45206 0.0
C1486 C 0.47168 0.54721 0.47005 0.0
C1487 C 0.56824 0.54545 0.54638 0.0
C1488 C 0.55963 0.5636 0.55708 0.0
C1489 C 0.5551 0.53227 0.53361 0.0
C1490 C 0.53308 0.53692 0.53132 0.0
C1491 C 0.52449 0.55518 0.54174 0.0
C1492 C 0.53761 0.56834 0.55459 0.0
C1493 C 0.51904 0.52274 0.51803 0.0
C1494 C 0.50801 0.53181 0.50044 0.0
C1495 C 0.51718 0.50027 0.52208 0.0
C1496 C 0.52768 0.48987 0.54095 0.0
C1497 C 0.52381 0.49754 0.56198 0.0
C1498 C 0.5339 0.48779 0.57966 0.0
C1499 C 0.54779 0.47025 0.57652 0.0
C1500 C 0.55156 0.46239 0.5557 0.0
C1501 C 0.54152 0.4721 0.53797 0.0
H1502 H 0.55559 0.46272 0.59023 0.0
H1503 H 0.45875 0.55644 0.41746 0.0
loop_
_geom_bond_atom_site_label_1
_geom_bond_atom_site_label_2
_geom_bond_distance
_geom_bond_site_symmetry_2
_ccdc_geom_bond_type
Li0 N17 1.990 . S
Li0 O60 1.956 . S
Li0 O61 1.970 . S
Li0 O62 1.961 . S
Li1 N25 1.990 . S
Li1 O60 1.970 . S
Li1 O61 1.956 . S
Li1 O63 1.961 . S
Li2 N47 1.990 . S
Li2 O60 1.961 . S
Li2 O62 1.956 . S
Li2 O63 1.970 . S
Li3 N53 1.990 . S
Li3 O61 1.961 . S
Li3 O62 1.970 . S
Li3 O63 1.956 . S
C4 C6 1.348 . S
C4 C7 1.356 . S
C4 O60 1.325 . S
N5 C8 1.314 . S
N5 C9 1.279 . S
C6 C4 1.348 . S
C6 C8 1.353 . S
C6 H64 0.929 . S
C7 C4 1.356 . S
C7 C9 1.358 . S
C7 H65 0.930 . S
C8 N5 1.314 . S
C8 C6 1.353 . S
C8 H66 0.930 . S
C9 N5 1.279 . S
C9 C7 1.358 . S
C9 H67 0.930 . S
C10 C13 1.348 . S
C10 C14 1.356 . S
C10 O61 1.325 . S
C11 N12 1.279 . S
C11 C14 1.358 . S
C11 H68 0.930 . S
N12 C11 1.279 . S
N12 C15 1.314 . S
C13 C10 1.348 . S
C13 C15 1.353 . S
C13 H69 0.929 . S
C14 C10 1.356 . S
C14 C11 1.358 . S
C14 H70 0.930 . S
C15 N12 1.314 . S
C15 C13 1.353 . S
C15 H71 0.930 . S
C16 N17 1.314 . S
C16 C21 1.353 . S
C16 H22 0.930 . S
N17 Li0 1.990 . S
N17 C16 1.314 . S
N17 C19 1.279 . S
C18 C19 1.358 . S
C18 C20 1.356 . S
C18 H72 0.930 . S
C19 N17 1.279 . S
C19 C18 1.358 . S
C19 H23 0.930 . S
C20 C18 1.356 . S
C20 C21 1.348 . S
C21 C16 1.353 . S
C21 C20 1.348 . S
C21 H73 0.929 . S
H22 C16 0.930 . S
H23 C19 0.930 . S
C24 N25 1.314 . S
C24 C26 1.353 . S
C24 H30 0.930 . S
N25 Li1 1.990 . S
N25 C24 1.314 . S
N25 C28 1.279 . S
C26 C24 1.353 . S
C26 C29 1.348 . S
C26 H74 0.929 . S
C27 C28 1.358 . S
C27 C29 1.356 . S
C27 H75 0.930 . S
C28 N25 1.279 . S
C28 C27 1.358 . S
C28 H31 0.930 . S
C29 C26 1.348 . S
C29 C27 1.356 . S
H30 C24 0.930 . S
H31 C28 0.930 . S
C32 C34 1.348 . S
C32 C35 1.356 . S
C32 O62 1.325 . S
N33 C36 1.314 . S
N33 C37 1.279 . S
C34 C32 1.348 . S
C34 C36 1.353 . S
C34 H76 0.929 . S
C35 C32 1.356 . S
C35 C37 1.358 . S
C35 H77 0.930 . S
C36 N33 1.314 . S
C36 C34 1.353 . S
C36 H78 0.930 . S
C37 N33 1.279 . S
C37 C35 1.358 . S
C37 H79 0.930 . S
C38 C39 1.348 . S
C38 C40 1.356 . S
C38 O63 1.325 . S
C39 C38 1.348 . S
C39 C41 1.353 . S
C39 H80 0.929 . S
C40 C38 1.356 . S
C40 C42 1.358 . S
C40 H81 0.930 . S
C41 C39 1.353 . S
C41 N43 1.314 . S
C41 H82 0.930 . S
C42 C40 1.358 . S
C42 N43 1.279 . S
C42 H83 0.930 . S
N43 C41 1.314 . S
N43 C42 1.279 . S
C44 C46 1.353 . S
C44 N47 1.314 . S
C44 H50 0.930 . S
C45 N47 1.279 . S
C45 C48 1.358 . S
C45 H51 0.930 . S
C46 C44 1.353 . S
C46 C49 1.348 . S
C46 H84 0.929 . S
N47 Li2 1.990 . S
N47 C44 1.314 . S
N47 C45 1.279 . S
C48 C45 1.358 . S
C48 C49 1.356 . S
C48 H85 0.930 . S
C49 C46 1.348 . S
C49 C48 1.356 . S
H50 C44 0.930 . S
H51 C45 0.930 . S
C52 N53 1.314 . S
C52 C54 1.353 . S
C52 H58 0.930 . S
N53 Li3 1.990 . S
N53 C52 1.314 . S
N53 C56 1.279 . S
C54 C52 1.353 . S
C54 C57 1.348 . S
C54 H86 0.929 . S
C55 C56 1.358 . S
C55 C57 1.356 . S
C55 H87 0.930 . S
C56 N53 1.279 . S
C56 C55 1.358 . S
C56 H59 0.930 . S
C57 C54 1.348 . S
C57 C55 1.356 . S
H58 C52 0.930 . S
H59 C56 0.930 . S
O60 Li0 1.956 . S
O60 Li1 1.970 . S
O60 Li2 1.961 . S
O60 C4 1.325 . S
O61 Li0 1.970 . S
O61 Li1 1.956 . S
O61 Li3 1.961 . S
O61 C10 1.325 . S
O62 Li0 1.961 . S
O62 Li2 1.956 . S
O62 Li3 1.970 . S
O62 C32 1.325 . S
O63 Li1 1.961 . S
O63 Li2 1.970 . S
O63 Li3 1.956 . S
O63 C38 1.325 . S
H64 C6 0.929 . S
H65 C7 0.930 . S
H66 C8 0.930 . S
H67 C9 0.930 . S
H68 C11 0.930 . S
H69 C13 0.929 . S
H70 C14 0.930 . S
H71 C15 0.930 . S
H72 C18 0.930 . S
H73 C21 0.929 . S
H74 C26 0.929 . S
H75 C27 0.930 . S
H76 C34 0.929 . S
H77 C35 0.930 . S
H78 C36 0.930 . S
H79 C37 0.930 . S
H80 C39 0.929 . S
H81 C40 0.930 . S
H82 C41 0.930 . S
H83 C42 0.930 . S
H84 C46 0.929 . S
H85 C48 0.930 . S
H86 C54 0.929 . S
H87 C55 0.930 . S
Li88 N105 1.990 . S
Li88 O148 1.956 . S
Li88 O149 1.970 . S
Li88 O150 1.961 . S
Li89 N113 1.990 . S
Li89 O148 1.970 . S
Li89 O149 1.956 . S
Li89 O151 1.961 . S
Li90 N135 1.990 . S
Li90 O148 1.961 . S
Li90 O150 1.956 . S
Li90 O151 1.970 . S
Li91 N141 1.990 . S
Li91 O149 1.961 . S
Li91 O150 1.970 . S
Li91 O151 1.956 . S
C92 C94 1.348 . S
C92 C95 1.356 . S
C92 O148 1.325 . S
N93 C96 1.314 . S
N93 C97 1.279 . S
C94 C92 1.348 . S
C94 C96 1.353 . S
C94 H152 0.929 . S
C95 C92 1.356 . S
C95 C97 1.358 . S
C95 H153 0.930 . S
C96 N93 1.314 . S
C96 C94 1.353 . S
C96 H154 0.930 . S
C97 N93 1.279 . S
C97 C95 1.358 . S
C97 H155 0.930 . S
C98 C101 1.348 . S
C98 C102 1.356 . S
C98 O149 1.325 . S
C99 N100 1.279 . S
C99 C102 1.358 . S
C99 H156 0.930 . S
N100 C99 1.279 . S
N100 C103 1.314 . S
C101 C98 1.348 . S
C101 C103 1.353 . S
C101 H157 0.929 . S
C102 C98 1.356 . S
C102 C99 1.358 . S
C102 H158 0.930 . S
C103 N100 1.314 . S
C103 C101 1.353 . S
C103 H159 0.930 . S
C104 N105 1.314 . S
C104 C109 1.353 . S
C104 H110 0.930 . S
N105 Li88 1.990 . S
N105 C104 1.314 . S
N105 C107 1.279 . S
C106 C107 1.358 . S
C106 C108 1.356 . S
C106 H160 0.930 . S
C107 N105 1.279 . S
C107 C106 1.358 . S
C107 H111 0.930 . S
C108 C106 1.356 . S
C108 C109 1.348 . S
C109 C104 1.353 . S
C109 C108 1.348 . S
C109 H161 0.929 . S
H110 C104 0.930 . S
H111 C107 0.930 . S
C112 N113 1.314 . S
C112 C114 1.353 . S
C112 H118 0.930 . S
N113 Li89 1.990 . S
N113 C112 1.314 . S
N113 C116 1.279 . S
C114 C112 1.353 . S
C114 C117 1.348 . S
C114 H162 0.929 . S
C115 C116 1.358 . S
C115 C117 1.356 . S
C115 H163 0.930 . S
C116 N113 1.279 . S
C116 C115 1.358 . S
C116 H119 0.930 . S
C117 C114 1.348 . S
C117 C115 1.356 . S
H118 C112 0.930 . S
H119 C116 0.930 . S
C120 C122 1.348 . S
C120 C123 1.356 . S
C120 O150 1.325 . S
N121 C124 1.314 . S
N121 C125 1.279 . S
C122 C120 1.348 . S
C122 C124 1.353 . S
C122 H164 0.929 . S
C123 C120 1.356 . S
C123 C125 1.358 . S
C123 H165 0.930 . S
C124 N121 1.314 . S
C124 C122 1.353 . S
C124 H166 0.930 . S
C125 N121 1.279 . S
C125 C123 1.358 . S
C125 H167 0.930 . S
C126 C127 1.348 . S
C126 C128 1.356 . S
C126 O151 1.325 . S
C127 C126 1.348 . S
C127 C129 1.353 . S
C127 H168 0.929 . S
C128 C126 1.356 . S
C128 C130 1.358 . S
C128 H169 0.930 . S
C129 C127 1.353 . S
C129 N131 1.314 . S
C129 H170 0.930 . S
C130 C128 1.358 . S
C130 N131 1.279 . S
C130 H171 0.930 . S
N131 C129 1.314 . S
N131 C130 1.279 . S
C132 C134 1.353 . S
C132 N135 1.314 . S
C132 H138 0.930 . S
C133 N135 1.279 . S
C133 C136 1.358 . S
C133 H139 0.930 . S
C134 C132 1.353 . S
C134 C137 1.348 . S
C134 H172 0.929 . S
N135 Li90 1.990 . S
N135 C132 1.314 . S
N135 C133 1.279 . S
C136 C133 1.358 . S
C136 C137 1.356 . S
C136 H173 0.930 . S
C137 C134 1.348 . S
C137 C136 1.356 . S
H138 C132 0.930 . S
H139 C133 0.930 . S
C140 N141 1.314 . S
C140 C142 1.353 . S
C140 H146 0.930 . S
N141 Li91 1.990 . S
N141 C140 1.314 . S
N141 C144 1.279 . S
C142 C140 1.353 . S
C142 C145 1.348 . S
C142 H174 0.929 . S
C143 C144 1.358 . S
C143 C145 1.356 . S
C143 H175 0.930 . S
C144 N141 1.279 . S
C144 C143 1.358 . S
C144 H147 0.930 . S
C145 C142 1.348 . S
C145 C143 1.356 . S
H146 C140 0.930 . S
H147 C144 0.930 . S
O148 Li88 1.956 . S
O148 Li89 1.970 . S
O148 Li90 1.961 . S
O148 C92 1.325 . S
O149 Li88 1.970 . S
O149 Li89 1.956 . S
O149 Li91 1.961 . S
O149 C98 1.325 . S
O150 Li88 1.961 . S
O150 Li90 1.956 . S
O150 Li91 1.970 . S
O150 C120 1.325 . S
O151 Li89 1.961 . S
O151 Li90 1.970 . S
O151 Li91 1.956 . S
O151 C126 1.325 . S
H152 C94 0.929 . S
H153 C95 0.930 . S
H154 C96 0.930 . S
H155 C97 0.930 . S
H156 C99 0.930 . S
H157 C101 0.929 . S
H158 C102 0.930 . S
H159 C103 0.930 . S
H160 C106 0.930 . S
H161 C109 0.929 . S
H162 C114 0.929 . S
H163 C115 0.930 . S
H164 C122 0.929 . S
H165 C123 0.930 . S
H166 C124 0.930 . S
H167 C125 0.930 . S
H168 C127 0.929 . S
H169 C128 0.930 . S
H170 C129 0.930 . S
H171 C130 0.930 . S
H172 C134 0.929 . S
H173 C136 0.930 . S
H174 C142 0.929 . S
H175 C143 0.930 . S
Li176 N193 1.990 . S
Li176 O236 1.956 . S
Li176 O237 1.970 . S
Li176 O238 1.961 . S
Li177 N201 1.990 . S
Li177 O236 1.970 . S
Li177 O237 1.956 . S
Li177 O239 1.961 . S
Li178 N223 1.990 . S
Li178 O236 1.961 . S
Li178 O238 1.956 . S
Li178 O239 1.970 . S
Li179 N229 1.990 . S
Li179 O237 1.961 . S
Li179 O238 1.970 . S
Li179 O239 1.956 . S
C180 C182 1.348 . S
C180 C183 1.356 . S
C180 O236 1.325 . S
N181 C184 1.314 . S
N181 C185 1.279 . S
C182 C180 1.348 . S
C182 C184 1.353 . S
C182 H240 0.929 . S
C183 C180 1.356 . S
C183 C185 1.358 . S
C183 H241 0.930 . S
C184 N181 1.314 . S
C184 C182 1.353 . S
C184 H242 0.930 . S
C185 N181 1.279 . S
C185 C183 1.358 . S
C185 H243 0.930 . S
C186 C189 1.348 . S
C186 C190 1.356 . S
C186 O237 1.325 . S
C187 N188 1.279 . S
C187 C190 1.358 . S
C187 H244 0.930 . S
N188 C187 1.279 . S
N188 C191 1.314 . S
C189 C186 1.348 . S
C189 C191 1.353 . S
C189 H245 0.929 . S
C190 C186 1.356 . S
C190 C187 1.358 . S
C190 H246 0.930 . S
C191 N188 1.314 . S
C191 C189 1.353 . S
C191 H247 0.930 . S
C192 N193 1.314 . S
C192 C197 1.353 . S
C192 H198 0.930 . S
N193 Li176 1.990 . S
N193 C192 1.314 . S
N193 C195 1.279 . S
C194 C195 1.358 . S
C194 C196 1.356 . S
C194 H248 0.930 . S
C195 N193 1.279 . S
C195 C194 1.358 . S
C195 H199 0.930 . S
C196 C194 1.356 . S
C196 C197 1.348 . S
C197 C192 1.353 . S
C197 C196 1.348 . S
C197 H249 0.929 . S
H198 C192 0.930 . S
H199 C195 0.930 . S
C200 N201 1.314 . S
C200 C202 1.353 . S
C200 H206 0.930 . S
N201 Li177 1.990 . S
N201 C200 1.314 . S
N201 C204 1.279 . S
C202 C200 1.353 . S
C202 C205 1.348 . S
C202 H250 0.929 . S
C203 C204 1.358 . S
C203 C205 1.356 . S
C203 H251 0.930 . S
C204 N201 1.279 . S
C204 C203 1.358 . S
C204 H207 0.930 . S
C205 C202 1.348 . S
C205 C203 1.356 . S
H206 C200 0.930 . S
H207 C204 0.930 . S
C208 C210 1.348 . S
C208 C211 1.356 . S
C208 O238 1.325 . S
N209 C212 1.314 . S
N209 C213 1.279 . S
C210 C208 1.348 . S
C210 C212 1.353 . S
C210 H252 0.929 . S
C211 C208 1.356 . S
C211 C213 1.358 . S
C211 H253 0.930 . S
C212 N209 1.314 . S
C212 C210 1.353 . S
C212 H254 0.930 . S
C213 N209 1.279 . S
C213 C211 1.358 . S
C213 H255 0.930 . S
C214 C215 1.348 . S
C214 C216 1.356 . S
C214 O239 1.325 . S
C215 C214 1.348 . S
C215 C217 1.353 . S
C215 H256 0.929 . S
C216 C214 1.356 . S
C216 C218 1.358 . S
C216 H257 0.930 . S
C217 C215 1.353 . S
C217 N219 1.314 . S
C217 H258 0.930 . S
C218 C216 1.358 . S
C218 N219 1.279 . S
C218 H259 0.930 . S
N219 C217 1.314 . S
N219 C218 1.279 . S
C220 C222 1.353 . S
C220 N223 1.314 . S
C220 H226 0.930 . S
C221 N223 1.279 . S
C221 C224 1.358 . S
C221 H227 0.930 . S
C222 C220 1.353 . S
C222 C225 1.348 . S
C222 H260 0.929 . S
N223 Li178 1.990 . S
N223 C220 1.314 . S
N223 C221 1.279 . S
C224 C221 1.358 . S
C224 C225 1.356 . S
C224 H261 0.930 . S
C225 C222 1.348 . S
C225 C224 1.356 . S
H226 C220 0.930 . S
H227 C221 0.930 . S
C228 N229 1.314 . S
C228 C230 1.353 . S
C228 H234 0.930 . S
N229 Li179 1.990 . S
N229 C228 1.314 . S
N229 C232 1.279 . S
C230 C228 1.353 . S
C230 C233 1.348 . S
C230 H262 0.929 . S
C231 C232 1.358 . S
C231 C233 1.356 . S
C231 H263 0.930 . S
C232 N229 1.279 . S
C232 C231 1.358 . S
C232 H235 0.930 . S
C233 C230 1.348 . S
C233 C231 1.356 . S
H234 C228 0.930 . S
H235 C232 0.930 . S
O236 Li176 1.956 . S
O236 Li177 1.970 . S
O236 Li178 1.961 . S
O236 C180 1.325 . S
O237 Li176 1.970 . S
O237 Li177 1.956 . S
O237 Li179 1.961 . S
O237 C186 1.325 . S
O238 Li176 1.961 . S
O238 Li178 1.956 . S
O238 Li179 1.970 . S
O238 C208 1.325 . S
O239 Li177 1.961 . S
O239 Li178 1.970 . S
O239 Li179 1.956 . S
O239 C214 1.325 . S
H240 C182 0.929 . S
H241 C183 0.930 . S
H242 C184 0.930 . S
H243 C185 0.930 . S
H244 C187 0.930 . S
H245 C189 0.929 . S
H246 C190 0.930 . S
H247 C191 0.930 . S
H248 C194 0.930 . S
H249 C197 0.929 . S
H250 C202 0.929 . S
H251 C203 0.930 . S
H252 C210 0.929 . S
H253 C211 0.930 . S
H254 C212 0.930 . S
H255 C213 0.930 . S
H256 C215 0.929 . S
H257 C216 0.930 . S
H258 C217 0.930 . S
H259 C218 0.930 . S
H260 C222 0.929 . S
H261 C224 0.930 . S
H262 C230 0.929 . S
H263 C231 0.930 . S
Li264 N281 1.990 . S
Li264 O324 1.956 . S
Li264 O325 1.970 . S
Li264 O326 1.961 . S
Li265 N289 1.990 . S
Li265 O324 1.970 . S
Li265 O325 1.956 . S
Li265 O327 1.961 . S
Li266 N311 1.990 . S
Li266 O324 1.961 . S
Li266 O326 1.956 . S
Li266 O327 1.970 . S
Li267 N317 1.990 . S
Li267 O325 1.961 . S
Li267 O326 1.970 . S
Li267 O327 1.956 . S
C268 C270 1.348 . S
C268 C271 1.356 . S
C268 O324 1.325 . S
N269 C272 1.314 . S
N269 C273 1.279 . S
C270 C268 1.348 . S
C270 C272 1.353 . S
C270 H328 0.929 . S
C271 C268 1.356 . S
C271 C273 1.358 . S
C271 H329 0.930 . S
C272 N269 1.314 . S
C272 C270 1.353 . S
C272 H330 0.930 . S
C273 N269 1.279 . S
C273 C271 1.358 . S
C273 H331 0.930 . S
C274 C277 1.348 . S
C274 C278 1.356 . S
C274 O325 1.325 . S
C275 N276 1.279 . S
C275 C278 1.358 . S
C275 H332 0.930 . S
N276 C275 1.279 . S
N276 C279 1.314 . S
C277 C274 1.348 . S
C277 C279 1.353 . S
C277 H333 0.929 . S
C278 C274 1.356 . S
C278 C275 1.358 . S
C278 H334 0.930 . S
C279 N276 1.314 . S
C279 C277 1.353 . S
C279 H335 0.930 . S
C280 N281 1.314 . S
C280 C285 1.353 . S
C280 H286 0.930 . S
N281 Li264 1.990 . S
N281 C280 1.314 . S
N281 C283 1.279 . S
C282 C283 1.358 . S
C282 C284 1.356 . S
C282 H336 0.930 . S
C283 N281 1.279 . S
C283 C282 1.358 . S
C283 H287 0.930 . S
C284 C282 1.356 . S
C284 C285 1.348 . S
C285 C280 1.353 . S
C285 C284 1.348 . S
C285 H337 0.929 . S
H286 C280 0.930 . S
H287 C283 0.930 . S
C288 N289 1.314 . S
C288 C290 1.353 . S
C288 H294 0.930 . S
N289 Li265 1.990 . S
N289 C288 1.314 . S
N289 C292 1.279 . S
C290 C288 1.353 . S
C290 C293 1.348 . S
C290 H338 0.929 . S
C291 C292 1.358 . S
C291 C293 1.356 . S
C291 H339 0.930 . S
C292 N289 1.279 . S
C292 C291 1.358 . S
C292 H295 0.930 . S
C293 C290 1.348 . S
C293 C291 1.356 . S
H294 C288 0.930 . S
H295 C292 0.930 . S
C296 C298 1.348 . S
C296 C299 1.356 . S
C296 O326 1.325 . S
N297 C300 1.314 . S
N297 C301 1.279 . S
C298 C296 1.348 . S
C298 C300 1.353 . S
C298 H340 0.929 . S
C299 C296 1.356 . S
C299 C301 1.358 . S
C299 H341 0.930 . S
C300 N297 1.314 . S
C300 C298 1.353 . S
C300 H342 0.930 . S
C301 N297 1.279 . S
C301 C299 1.358 . S
C301 H343 0.930 . S
C302 C303 1.348 . S
C302 C304 1.356 . S
C302 O327 1.325 . S
C303 C302 1.348 . S
C303 C305 1.353 . S
C303 H344 0.929 . S
C304 C302 1.356 . S
C304 C306 1.358 . S
C304 H345 0.930 . S
C305 C303 1.353 . S
C305 N307 1.314 . S
C305 H346 0.930 . S
C306 C304 1.358 . S
C306 N307 1.279 . S
C306 H347 0.930 . S
N307 C305 1.314 . S
N307 C306 1.279 . S
C308 C310 1.353 . S
C308 N311 1.314 . S
C308 H314 0.930 . S
C309 N311 1.279 . S
C309 C312 1.358 . S
C309 H315 0.930 . S
C310 C308 1.353 . S
C310 C313 1.348 . S
C310 H348 0.929 . S
N311 Li266 1.990 . S
N311 C308 1.314 . S
N311 C309 1.279 . S
C312 C309 1.358 . S
C312 C313 1.356 . S
C312 H349 0.930 . S
C313 C310 1.348 . S
C313 C312 1.356 . S
H314 C308 0.930 . S
H315 C309 0.930 . S
C316 N317 1.314 . S
C316 C318 1.353 . S
C316 H322 0.930 . S
N317 Li267 1.990 . S
N317 C316 1.314 . S
N317 C320 1.279 . S
C318 C316 1.353 . S
C318 C321 1.348 . S
C318 H350 0.929 . S
C319 C320 1.358 . S
C319 C321 1.356 . S
C319 H351 0.930 . S
C320 N317 1.279 . S
C320 C319 1.358 . S
C320 H323 0.930 . S
C321 C318 1.348 . S
C321 C319 1.356 . S
H322 C316 0.930 . S
H323 C320 0.930 . S
O324 Li264 1.956 . S
O324 Li265 1.970 . S
O324 Li266 1.961 . S
O324 C268 1.325 . S
O325 Li264 1.970 . S
O325 Li265 1.956 . S
O325 Li267 1.961 . S
O325 C274 1.325 . S
O326 Li264 1.961 . S
O326 Li266 1.956 . S
O326 Li267 1.970 . S
O326 C296 1.325 . S
O327 Li265 1.961 . S
O327 Li266 1.970 . S
O327 Li267 1.956 . S
O327 C302 1.325 . S
H328 C270 0.929 . S
H329 C271 0.930 . S
H330 C272 0.930 . S
H331 C273 0.930 . S
H332 C275 0.930 . S
H333 C277 0.929 . S
H334 C278 0.930 . S
H335 C279 0.930 . S
H336 C282 0.930 . S
H337 C285 0.929 . S
H338 C290 0.929 . S
H339 C291 0.930 . S
H340 C298 0.929 . S
H341 C299 0.930 . S
H342 C300 0.930 . S
H343 C301 0.930 . S
H344 C303 0.929 . S
H345 C304 0.930 . S
H346 C305 0.930 . S
H347 C306 0.930 . S
H348 C310 0.929 . S
H349 C312 0.930 . S
H350 C318 0.929 . S
H351 C319 0.930 . S
Li352 N369 1.990 . S
Li352 O412 1.956 . S
Li352 O413 1.970 . S
Li352 O414 1.961 . S
Li353 N377 1.990 . S
Li353 O412 1.970 . S
Li353 O413 1.956 . S
Li353 O415 1.961 . S
Li354 N399 1.990 . S
Li354 O412 1.961 . S
Li354 O414 1.956 . S
Li354 O415 1.970 . S
Li355 N405 1.990 . S
Li355 O413 1.961 . S
Li355 O414 1.970 . S
Li355 O415 1.956 . S
C356 C358 1.348 . S
C356 C359 1.356 . S
C356 O412 1.325 . S
N357 C360 1.314 . S
N357 C361 1.279 . S
C358 C356 1.348 . S
C358 C360 1.353 . S
C358 H416 0.929 . S
C359 C356 1.356 . S
C359 C361 1.358 . S
C359 H417 0.930 . S
C360 N357 1.314 . S
C360 C358 1.353 . S
C360 H418 0.930 . S
C361 N357 1.279 . S
C361 C359 1.358 . S
C361 H419 0.930 . S
C362 C365 1.348 . S
C362 C366 1.356 . S
C362 O413 1.325 . S
C363 N364 1.279 . S
C363 C366 1.358 . S
C363 H420 0.930 . S
N364 C363 1.279 . S
N364 C367 1.314 . S
C365 C362 1.348 . S
C365 C367 1.353 . S
C365 H421 0.929 . S
C366 C362 1.356 . S
C366 C363 1.358 . S
C366 H422 0.930 . S
C367 N364 1.314 . S
C367 C365 1.353 . S
C367 H423 0.930 . S
C368 N369 1.314 . S
C368 C373 1.353 . S
C368 H374 0.930 . S
N369 Li352 1.990 . S
N369 C368 1.314 . S
N369 C371 1.279 . S
C370 C371 1.358 . S
C370 C372 1.356 . S
C370 H424 0.930 . S
C371 N369 1.279 . S
C371 C370 1.358 . S
C371 H375 0.930 . S
C372 C370 1.356 . S
C372 C373 1.348 . S
C373 C368 1.353 . S
C373 C372 1.348 . S
C373 H425 0.929 . S
H374 C368 0.930 . S
H375 C371 0.930 . S
C376 N377 1.314 . S
C376 C378 1.353 . S
C376 H382 0.930 . S
N377 Li353 1.990 . S
N377 C376 1.314 . S
N377 C380 1.279 . S
C378 C376 1.353 . S
C378 C381 1.348 . S
C378 H426 0.929 . S
C379 C380 1.358 . S
C379 C381 1.356 . S
C379 H427 0.930 . S
C380 N377 1.279 . S
C380 C379 1.358 . S
C380 H383 0.930 . S
C381 C378 1.348 . S
C381 C379 1.356 . S
H382 C376 0.930 . S
H383 C380 0.930 . S
C384 C386 1.348 . S
C384 C387 1.356 . S
C384 O414 1.325 . S
N385 C388 1.314 . S
N385 C389 1.279 . S
C386 C384 1.348 . S
C386 C388 1.353 . S
C386 H428 0.929 . S
C387 C384 1.356 . S
C387 C389 1.358 . S
C387 H429 0.930 . S
C388 N385 1.314 . S
C388 C386 1.353 . S
C388 H430 0.930 . S
C389 N385 1.279 . S
C389 C387 1.358 . S
C389 H431 0.930 . S
C390 C391 1.348 . S
C390 C392 1.356 . S
C390 O415 1.325 . S
C391 C390 1.348 . S
C391 C393 1.353 . S
C391 H432 0.929 . S
C392 C390 1.356 . S
C392 C394 1.358 . S
C392 H433 0.930 . S
C393 C391 1.353 . S
C393 N395 1.314 . S
C393 H434 0.930 . S
C394 C392 1.358 . S
C394 N395 1.279 . S
C394 H435 0.930 . S
N395 C393 1.314 . S
N395 C394 1.279 . S
C396 C398 1.353 . S
C396 N399 1.314 . S
C396 H402 0.930 . S
C397 N399 1.279 . S
C397 C400 1.358 . S
C397 H403 0.930 . S
C398 C396 1.353 . S
C398 C401 1.348 . S
C398 H436 0.929 . S
N399 Li354 1.990 . S
N399 C396 1.314 . S
N399 C397 1.279 . S
C400 C397 1.358 . S
C400 C401 1.356 . S
C400 H437 0.930 . S
C401 C398 1.348 . S
C401 C400 1.356 . S
H402 C396 0.930 . S
H403 C397 0.930 . S
C404 N405 1.314 . S
C404 C406 1.353 . S
C404 H410 0.930 . S
N405 Li355 1.990 . S
N405 C404 1.314 . S
N405 C408 1.279 . S
C406 C404 1.353 . S
C406 C409 1.348 . S
C406 H438 0.929 . S
C407 C408 1.358 . S
C407 C409 1.356 . S
C407 H439 0.930 . S
C408 N405 1.279 . S
C408 C407 1.358 . S
C408 H411 0.930 . S
C409 C406 1.348 . S
C409 C407 1.356 . S
H410 C404 0.930 . S
H411 C408 0.930 . S
O412 Li352 1.956 . S
O412 Li353 1.970 . S
O412 Li354 1.961 . S
O412 C356 1.325 . S
O413 Li352 1.970 . S
O413 Li353 1.956 . S
O413 Li355 1.961 . S
O413 C362 1.325 . S
O414 Li352 1.961 . S
O414 Li354 1.956 . S
O414 Li355 1.970 . S
O414 C384 1.325 . S
O415 Li353 1.961 . S
O415 Li354 1.970 . S
O415 Li355 1.956 . S
O415 C390 1.325 . S
H416 C358 0.929 . S
H417 C359 0.930 . S
H418 C360 0.930 . S
H419 C361 0.930 . S
H420 C363 0.930 . S
H421 C365 0.929 . S
H422 C366 0.930 . S
H423 C367 0.930 . S
H424 C370 0.930 . S
H425 C373 0.929 . S
H426 C378 0.929 . S
H427 C379 0.930 . S
H428 C386 0.929 . S
H429 C387 0.930 . S
H430 C388 0.930 . S
H431 C389 0.930 . S
H432 C391 0.929 . S
H433 C392 0.930 . S
H434 C393 0.930 . S
H435 C394 0.930 . S
H436 C398 0.929 . S
H437 C400 0.930 . S
H438 C406 0.929 . S
H439 C407 0.930 . S
Li440 N457 1.990 . S
Li440 O500 1.956 . S
Li440 O501 1.970 . S
Li440 O502 1.961 . S
Li441 N465 1.990 . S
Li441 O500 1.970 . S
Li441 O501 1.956 . S
Li441 O503 1.961 . S
Li442 N487 1.990 . S
Li442 O500 1.961 . S
Li442 O502 1.956 . S
Li442 O503 1.970 . S
Li443 N493 1.990 . S
Li443 O501 1.961 . S
Li443 O502 1.970 . S
Li443 O503 1.956 . S
C444 C446 1.348 . S
C444 C447 1.356 . S
C444 O500 1.325 . S
N445 C448 1.314 . S
N445 C449 1.279 . S
C446 C444 1.348 . S
C446 C448 1.353 . S
C446 H504 0.929 . S
C447 C444 1.356 . S
C447 C449 1.358 . S
C447 H505 0.930 . S
C448 N445 1.314 . S
C448 C446 1.353 . S
C448 H506 0.930 . S
C449 N445 1.279 . S
C449 C447 1.358 . S
C449 H507 0.930 . S
C450 C453 1.348 . S
C450 C454 1.356 . S
C450 O501 1.325 . S
C451 N452 1.279 . S
C451 C454 1.358 . S
C451 H508 0.930 . S
N452 C451 1.279 . S
N452 C455 1.314 . S
C453 C450 1.348 . S
C453 C455 1.353 . S
C453 H509 0.929 . S
C454 C450 1.356 . S
C454 C451 1.358 . S
C454 H510 0.930 . S
C455 N452 1.314 . S
C455 C453 1.353 . S
C455 H511 0.930 . S
C456 N457 1.314 . S
C456 C461 1.353 . S
C456 H462 0.930 . S
N457 Li440 1.990 . S
N457 C456 1.314 . S
N457 C459 1.279 . S
C458 C459 1.358 . S
C458 C460 1.356 . S
C458 H512 0.930 . S
C459 N457 1.279 . S
C459 C458 1.358 . S
C459 H463 0.930 . S
C460 C458 1.356 . S
C460 C461 1.348 . S
C461 C456 1.353 . S
C461 C460 1.348 . S
C461 H513 0.929 . S
H462 C456 0.930 . S
H463 C459 0.930 . S
C464 N465 1.314 . S
C464 C466 1.353 . S
C464 H470 0.930 . S
N465 Li441 1.990 . S
N465 C464 1.314 . S
N465 C468 1.279 . S
C466 C464 1.353 . S
C466 C469 1.348 . S
C466 H514 0.929 . S
C467 C468 1.358 . S
C467 C469 1.356 . S
C467 H515 0.930 . S
C468 N465 1.279 . S
C468 C467 1.358 . S
C468 H471 0.930 . S
C469 C466 1.348 . S
C469 C467 1.356 . S
H470 C464 0.930 . S
H471 C468 0.930 . S
C472 C474 1.348 . S
C472 C475 1.356 . S
C472 O502 1.325 . S
N473 C476 1.314 . S
N473 C477 1.279 . S
C474 C472 1.348 . S
C474 C476 1.353 . S
C474 H516 0.929 . S
C475 C472 1.356 . S
C475 C477 1.358 . S
C475 H517 0.930 . S
C476 N473 1.314 . S
C476 C474 1.353 . S
C476 H518 0.930 . S
C477 N473 1.279 . S
C477 C475 1.358 . S
C477 H519 0.930 . S
C478 C479 1.348 . S
C478 C480 1.356 . S
C478 O503 1.325 . S
C479 C478 1.348 . S
C479 C481 1.353 . S
C479 H520 0.929 . S
C480 C478 1.356 . S
C480 C482 1.358 . S
C480 H521 0.930 . S
C481 C479 1.353 . S
C481 N483 1.314 . S
C481 H522 0.930 . S
C482 C480 1.358 . S
C482 N483 1.279 . S
C482 H523 0.930 . S
N483 C481 1.314 . S
N483 C482 1.279 . S
C484 C486 1.353 . S
C484 N487 1.314 . S
C484 H490 0.930 . S
C485 N487 1.279 . S
C485 C488 1.358 . S
C485 H491 0.930 . S
C486 C484 1.353 . S
C486 C489 1.348 . S
C486 H524 0.929 . S
N487 Li442 1.990 . S
N487 C484 1.314 . S
N487 C485 1.279 . S
C488 C485 1.358 . S
C488 C489 1.356 . S
C488 H525 0.930 . S
C489 C486 1.348 . S
C489 C488 1.356 . S
H490 C484 0.930 . S
H491 C485 0.930 . S
C492 N493 1.314 . S
C492 C494 1.353 . S
C492 H498 0.930 . S
N493 Li443 1.990 . S
N493 C492 1.314 . S
N493 C496 1.279 . S
C494 C492 1.353 . S
C494 C497 1.348 . S
C494 H526 0.929 . S
C495 C496 1.358 . S
C495 C497 1.356 . S
C495 H527 0.930 . S
C496 N493 1.279 . S
C496 C495 1.358 . S
C496 H499 0.930 . S
C497 C494 1.348 . S
C497 C495 1.356 . S
H498 C492 0.930 . S
H499 C496 0.930 . S
O500 Li440 1.956 . S
O500 Li441 1.970 . S
O500 Li442 1.961 . S
O500 C444 1.325 . S
O501 Li440 1.970 . S
O501 Li441 1.956 . S
O501 Li443 1.961 . S
O501 C450 1.325 . S
O502 Li440 1.961 . S
O502 Li442 1.956 . S
O502 Li443 1.970 . S
O502 C472 1.325 . S
O503 Li441 1.961 . S
O503 Li442 1.970 . S
O503 Li443 1.956 . S
O503 C478 1.325 . S
H504 C446 0.929 . S
H505 C447 0.930 . S
H506 C448 0.930 . S
H507 C449 0.930 . S
H508 C451 0.930 . S
H509 C453 0.929 . S
H510 C454 0.930 . S
H511 C455 0.930 . S
H512 C458 0.930 . S
H513 C461 0.929 . S
H514 C466 0.929 . S
H515 C467 0.930 . S
H516 C474 0.929 . S
H517 C475 0.930 . S
H518 C476 0.930 . S
H519 C477 0.930 . S
H520 C479 0.929 . S
H521 C480 0.930 . S
H522 C481 0.930 . S
H523 C482 0.930 . S
H524 C486 0.929 . S
H525 C488 0.930 . S
H526 C494 0.929 . S
H527 C495 0.930 . S
Li528 N545 1.990 . S
Li528 O588 1.956 . S
Li528 O589 1.970 . S
Li528 O590 1.961 . S
Li529 N553 1.990 . S
Li529 O588 1.970 . S
Li529 O589 1.956 . S
Li529 O591 1.961 . S
Li530 N575 1.990 . S
Li530 O588 1.961 . S
Li530 O590 1.956 . S
Li530 O591 1.970 . S
Li531 N581 1.990 . S
Li531 O589 1.961 . S
Li531 O590 1.970 . S
Li531 O591 1.956 . S
C532 C534 1.348 . S
C532 C535 1.356 . S
C532 O588 1.325 . S
N533 C536 1.314 . S
N533 C537 1.279 . S
C534 C532 1.348 . S
C534 C536 1.353 . S
C534 H592 0.929 . S
C535 C532 1.356 . S
C535 C537 1.358 . S
C535 H593 0.930 . S
C536 N533 1.314 . S
C536 C534 1.353 . S
C536 H594 0.930 . S
C537 N533 1.279 . S
C537 C535 1.358 . S
C537 H595 0.930 . S
C538 C541 1.348 . S
C538 C542 1.356 . S
C538 O589 1.325 . S
C539 N540 1.279 . S
C539 C542 1.358 . S
C539 H596 0.930 . S
N540 C539 1.279 . S
N540 C543 1.314 . S
C541 C538 1.348 . S
C541 C543 1.353 . S
C541 H597 0.929 . S
C542 C538 1.356 . S
C542 C539 1.358 . S
C542 H598 0.930 . S
C543 N540 1.314 . S
C543 C541 1.353 . S
C543 H599 0.930 . S
C544 N545 1.314 . S
C544 C549 1.353 . S
C544 H550 0.930 . S
N545 Li528 1.990 . S
N545 C544 1.314 . S
N545 C547 1.279 . S
C546 C547 1.358 . S
C546 C548 1.356 . S
C546 H600 0.930 . S
C547 N545 1.279 . S
C547 C546 1.358 . S
C547 H551 0.930 . S
C548 C546 1.356 . S
C548 C549 1.348 . S
C549 C544 1.353 . S
C549 C548 1.348 . S
C549 H601 0.929 . S
H550 C544 0.930 . S
H551 C547 0.930 . S
C552 N553 1.314 . S
C552 C554 1.353 . S
C552 H558 0.930 . S
N553 Li529 1.990 . S
N553 C552 1.314 . S
N553 C556 1.279 . S
C554 C552 1.353 . S
C554 C557 1.348 . S
C554 H602 0.929 . S
C555 C556 1.358 . S
C555 C557 1.356 . S
C555 H603 0.930 . S
C556 N553 1.279 . S
C556 C555 1.358 . S
C556 H559 0.930 . S
C557 C554 1.348 . S
C557 C555 1.356 . S
H558 C552 0.930 . S
H559 C556 0.930 . S
C560 C562 1.348 . S
C560 C563 1.356 . S
C560 O590 1.325 . S
N561 C564 1.314 . S
N561 C565 1.279 . S
C562 C560 1.348 . S
C562 C564 1.353 . S
C562 H604 0.929 . S
C563 C560 1.356 . S
C563 C565 1.358 . S
C563 H605 0.930 . S
C564 N561 1.314 . S
C564 C562 1.353 . S
C564 H606 0.930 . S
C565 N561 1.279 . S
C565 C563 1.358 . S
C565 H607 0.930 . S
C566 C567 1.348 . S
C566 C568 1.356 . S
C566 O591 1.325 . S
C567 C566 1.348 . S
C567 C569 1.353 . S
C567 H608 0.929 . S
C568 C566 1.356 . S
C568 C570 1.358 . S
C568 H609 0.930 . S
C569 C567 1.353 . S
C569 N571 1.314 . S
C569 H610 0.930 . S
C570 C568 1.358 . S
C570 N571 1.279 . S
C570 H611 0.930 . S
N571 C569 1.314 . S
N571 C570 1.279 . S
C572 C574 1.353 . S
C572 N575 1.314 . S
C572 H578 0.930 . S
C573 N575 1.279 . S
C573 C576 1.358 . S
C573 H579 0.930 . S
C574 C572 1.353 . S
C574 C577 1.348 . S
C574 H612 0.929 . S
N575 Li530 1.990 . S
N575 C572 1.314 . S
N575 C573 1.279 . S
C576 C573 1.358 . S
C576 C577 1.356 . S
C576 H613 0.930 . S
C577 C574 1.348 . S
C577 C576 1.356 . S
H578 C572 0.930 . S
H579 C573 0.930 . S
C580 N581 1.314 . S
C580 C582 1.353 . S
C580 H586 0.930 . S
N581 Li531 1.990 . S
N581 C580 1.314 . S
N581 C584 1.279 . S
C582 C580 1.353 . S
C582 C585 1.348 . S
C582 H614 0.929 . S
C583 C584 1.358 . S
C583 C585 1.356 . S
C583 H615 0.930 . S
C584 N581 1.279 . S
C584 C583 1.358 . S
C584 H587 0.930 . S
C585 C582 1.348 . S
C585 C583 1.356 . S
H586 C580 0.930 . S
H587 C584 0.930 . S
O588 Li528 1.956 . S
O588 Li529 1.970 . S
O588 Li530 1.961 . S
O588 C532 1.325 . S
O589 Li528 1.970 . S
O589 Li529 1.956 . S
O589 Li531 1.961 . S
O589 C538 1.325 . S
O590 Li528 1.961 . S
O590 Li530 1.956 . S
O590 Li531 1.970 . S
O590 C560 1.325 . S
O591 Li529 1.961 . S
O591 Li530 1.970 . S
O591 Li531 1.956 . S
O591 C566 1.325 . S
H592 C534 0.929 . S
H593 C535 0.930 . S
H594 C536 0.930 . S
H595 C537 0.930 . S
H596 C539 0.930 . S
H597 C541 0.929 . S
H598 C542 0.930 . S
H599 C543 0.930 . S
H600 C546 0.930 . S
H601 C549 0.929 . S
H602 C554 0.929 . S
H603 C555 0.930 . S
H604 C562 0.929 . S
H605 C563 0.930 . S
H606 C564 0.930 . S
H607 C565 0.930 . S
H608 C567 0.929 . S
H609 C568 0.930 . S
H610 C569 0.930 . S
H611 C570 0.930 . S
H612 C574 0.929 . S
H613 C576 0.930 . S
H614 C582 0.929 . S
H615 C583 0.930 . S
Li616 N633 1.990 . S
Li616 O676 1.956 . S
Li616 O677 1.970 . S
Li616 O678 1.961 . S
Li617 N641 1.990 . S
Li617 O676 1.970 . S
Li617 O677 1.956 . S
Li617 O679 1.961 . S
Li618 N663 1.990 . S
Li618 O676 1.961 . S
Li618 O678 1.956 . S
Li618 O679 1.970 . S
Li619 N669 1.990 . S
Li619 O677 1.961 . S
Li619 O678 1.970 . S
Li619 O679 1.956 . S
C620 C622 1.348 . S
C620 C623 1.356 . S
C620 O676 1.325 . S
N621 C624 1.314 . S
N621 C625 1.279 . S
C622 C620 1.348 . S
C622 C624 1.353 . S
C622 H680 0.929 . S
C623 C620 1.356 . S
C623 C625 1.358 . S
C623 H681 0.930 . S
C624 N621 1.314 . S
C624 C622 1.353 . S
C624 H682 0.930 . S
C625 N621 1.279 . S
C625 C623 1.358 . S
C625 H683 0.930 . S
C626 C629 1.348 . S
C626 C630 1.356 . S
C626 O677 1.325 . S
C627 N628 1.279 . S
C627 C630 1.358 . S
C627 H684 0.930 . S
N628 C627 1.279 . S
N628 C631 1.314 . S
C629 C626 1.348 . S
C629 C631 1.353 . S
C629 H685 0.929 . S
C630 C626 1.356 . S
C630 C627 1.358 . S
C630 H686 0.930 . S
C631 N628 1.314 . S
C631 C629 1.353 . S
C631 H687 0.930 . S
C632 N633 1.314 . S
C632 C637 1.353 . S
C632 H638 0.930 . S
N633 Li616 1.990 . S
N633 C632 1.314 . S
N633 C635 1.279 . S
C634 C635 1.358 . S
C634 C636 1.356 . S
C634 H688 0.930 . S
C635 N633 1.279 . S
C635 C634 1.358 . S
C635 H639 0.930 . S
C636 C634 1.356 . S
C636 C637 1.348 . S
C637 C632 1.353 . S
C637 C636 1.348 . S
C637 H689 0.929 . S
H638 C632 0.930 . S
H639 C635 0.930 . S
C640 N641 1.314 . S
C640 C642 1.353 . S
C640 H646 0.930 . S
N641 Li617 1.990 . S
N641 C640 1.314 . S
N641 C644 1.279 . S
C642 C640 1.353 . S
C642 C645 1.348 . S
C642 H690 0.929 . S
C643 C644 1.358 . S
C643 C645 1.356 . S
C643 H691 0.930 . S
C644 N641 1.279 . S
C644 C643 1.358 . S
C644 H647 0.930 . S
C645 C642 1.348 . S
C645 C643 1.356 . S
H646 C640 0.930 . S
H647 C644 0.930 . S
C648 C650 1.348 . S
C648 C651 1.356 . S
C648 O678 1.325 . S
N649 C652 1.314 . S
N649 C653 1.279 . S
C650 C648 1.348 . S
C650 C652 1.353 . S
C650 H692 0.929 . S
C651 C648 1.356 . S
C651 C653 1.358 . S
C651 H693 0.930 . S
C652 N649 1.314 . S
C652 C650 1.353 . S
C652 H694 0.930 . S
C653 N649 1.279 . S
C653 C651 1.358 . S
C653 H695 0.930 . S
C654 C655 1.348 . S
C654 C656 1.356 . S
C654 O679 1.325 . S
C655 C654 1.348 . S
C655 C657 1.353 . S
C655 H696 0.929 . S
C656 C654 1.356 . S
C656 C658 1.358 . S
C656 H697 0.930 . S
C657 C655 1.353 . S
C657 N659 1.314 . S
C657 H698 0.930 . S
C658 C656 1.358 . S
C658 N659 1.279 . S
C658 H699 0.930 . S
N659 C657 1.314 . S
N659 C658 1.279 . S
C660 C662 1.353 . S
C660 N663 1.314 . S
C660 H666 0.930 . S
C661 N663 1.279 . S
C661 C664 1.358 . S
C661 H667 0.930 . S
C662 C660 1.353 . S
C662 C665 1.348 . S
C662 H700 0.929 . S
N663 Li618 1.990 . S
N663 C660 1.314 . S
N663 C661 1.279 . S
C664 C661 1.358 . S
C664 C665 1.356 . S
C664 H701 0.930 . S
C665 C662 1.348 . S
C665 C664 1.356 . S
H666 C660 0.930 . S
H667 C661 0.930 . S
C668 N669 1.314 . S
C668 C670 1.353 . S
C668 H674 0.930 . S
N669 Li619 1.990 . S
N669 C668 1.314 . S
N669 C672 1.279 . S
C670 C668 1.353 . S
C670 C673 1.348 . S
C670 H702 0.929 . S
C671 C672 1.358 . S
C671 C673 1.356 . S
C671 H703 0.930 . S
C672 N669 1.279 . S
C672 C671 1.358 . S
C672 H675 0.930 . S
C673 C670 1.348 . S
C673 C671 1.356 . S
H674 C668 0.930 . S
H675 C672 0.930 . S
O676 Li616 1.956 . S
O676 Li617 1.970 . S
O676 Li618 1.961 . S
O676 C620 1.325 . S
O677 Li616 1.970 . S
O677 Li617 1.956 . S
O677 Li619 1.961 . S
O677 C626 1.325 . S
O678 Li616 1.961 . S
O678 Li618 1.956 . S
O678 Li619 1.970 . S
O678 C648 1.325 . S
O679 Li617 1.961 . S
O679 Li618 1.970 . S
O679 Li619 1.956 . S
O679 C654 1.325 . S
H680 C622 0.929 . S
H681 C623 0.930 . S
H682 C624 0.930 . S
H683 C625 0.930 . S
H684 C627 0.930 . S
H685 C629 0.929 . S
H686 C630 0.930 . S
H687 C631 0.930 . S
H688 C634 0.930 . S
H689 C637 0.929 . S
H690 C642 0.929 . S
H691 C643 0.930 . S
H692 C650 0.929 . S
H693 C651 0.930 . S
H694 C652 0.930 . S
H695 C653 0.930 . S
H696 C655 0.929 . S
H697 C656 0.930 . S
H698 C657 0.930 . S
H699 C658 0.930 . S
H700 C662 0.929 . S
H701 C664 0.930 . S
H702 C670 0.929 . S
H703 C671 0.930 . S
H704 C722 0.951 . S
H705 C724 0.951 . S
H706 C726 0.950 . S
H707 C727 0.950 . S
H708 C729 0.950 . S
H709 C732 0.950 . S
H710 C733 0.950 . S
H711 C735 0.950 . S
H712 C736 0.950 . S
H713 C737 0.951 . S
H714 C739 0.951 . S
H715 C741 0.950 . S
H716 C742 0.950 . S
H717 C744 0.950 . S
H718 C747 0.950 . S
H719 C748 0.950 . S
H720 C750 0.950 . S
H721 C751 0.950 . S
C722 H704 0.951 . S
C722 C723 1.366 . S
C722 C724 1.388 . S
C723 C722 1.366 . S
C723 C727 1.385 . S
C724 H705 0.951 . S
C724 C722 1.388 . S
C724 C725 1.366 . S
C725 C724 1.366 . S
C725 C726 1.414 . S
C725 C728 1.499 . S
C726 H706 0.950 . S
C726 C725 1.414 . S
C726 C727 1.374 . S
C727 H707 0.950 . S
C727 C723 1.385 . S
C727 C726 1.374 . S
C728 C725 1.499 . S
C728 C729 1.373 . S
C728 C730 1.389 . S
C729 H708 0.950 . S
C729 C728 1.373 . S
C729 C745 1.377 . S
C730 C728 1.389 . S
C730 C731 1.524 . S
C730 C744 1.377 . S
C731 C730 1.524 . S
C731 C732 1.397 . S
C731 C736 1.363 . S
C732 H709 0.950 . S
C732 C731 1.397 . S
C732 C733 1.334 . S
C733 H710 0.950 . S
C733 C732 1.334 . S
C733 C734 1.287 . S
C734 C733 1.287 . S
C734 C735 1.524 . S
C734 H753 0.913 . S
C735 H711 0.950 . S
C735 C734 1.524 . S
C735 C736 1.415 . S
C736 H712 0.950 . S
C736 C731 1.363 . S
C736 C735 1.415 . S
C737 H713 0.951 . S
C737 C738 1.366 . S
C737 C739 1.388 . S
C738 C737 1.366 . S
C738 C742 1.385 . S
C739 H714 0.951 . S
C739 C737 1.388 . S
C739 C740 1.366 . S
C740 C739 1.366 . S
C740 C741 1.414 . S
C740 C743 1.499 . S
C741 H715 0.950 . S
C741 C740 1.414 . S
C741 C742 1.374 . S
C742 H716 0.950 . S
C742 C738 1.385 . S
C742 C741 1.374 . S
C743 C740 1.499 . S
C743 C744 1.373 . S
C743 C745 1.389 . S
C744 H717 0.950 . S
C744 C730 1.377 . S
C744 C743 1.373 . S
C745 C729 1.377 . S
C745 C743 1.389 . S
C745 C746 1.524 . S
C746 C745 1.524 . S
C746 C747 1.397 . S
C746 C751 1.363 . S
C747 H718 0.950 . S
C747 C746 1.397 . S
C747 C748 1.334 . S
C748 H719 0.950 . S
C748 C747 1.334 . S
C748 C749 1.287 . S
C749 C748 1.287 . S
C749 C750 1.524 . S
C749 H752 0.999 . S
C750 H720 0.950 . S
C750 C749 1.524 . S
C750 C751 1.415 . S
C751 H721 0.950 . S
C751 C746 1.363 . S
C751 C750 1.415 . S
H752 C749 0.999 . S
H753 C734 0.913 . S
H754 C772 0.951 . S
H755 C774 0.951 . S
H756 C776 0.950 . S
H757 C777 0.950 . S
H758 C779 0.950 . S
H759 C782 0.950 . S
H760 C783 0.950 . S
H761 C785 0.950 . S
H762 C786 0.950 . S
H763 C787 0.951 . S
H764 C789 0.951 . S
H765 C791 0.950 . S
H766 C792 0.950 . S
H767 C794 0.950 . S
H768 C797 0.950 . S
H769 C798 0.950 . S
H770 C800 0.950 . S
H771 C801 0.950 . S
C772 H754 0.951 . S
C772 C773 1.366 . S
C772 C774 1.388 . S
C773 C772 1.366 . S
C773 C777 1.385 . S
C774 H755 0.951 . S
C774 C772 1.388 . S
C774 C775 1.366 . S
C775 C774 1.366 . S
C775 C776 1.414 . S
C775 C778 1.499 . S
C776 H756 0.950 . S
C776 C775 1.414 . S
C776 C777 1.374 . S
C777 H757 0.950 . S
C777 C773 1.385 . S
C777 C776 1.374 . S
C778 C775 1.499 . S
C778 C779 1.373 . S
C778 C780 1.389 . S
C779 H758 0.950 . S
C779 C778 1.373 . S
C779 C795 1.377 . S
C780 C778 1.389 . S
C780 C781 1.524 . S
C780 C794 1.377 . S
C781 C780 1.524 . S
C781 C782 1.397 . S
C781 C786 1.363 . S
C782 H759 0.950 . S
C782 C781 1.397 . S
C782 C783 1.334 . S
C783 H760 0.950 . S
C783 C782 1.334 . S
C783 C784 1.287 . S
C784 C783 1.287 . S
C784 C785 1.524 . S
C784 H803 0.913 . S
C785 H761 0.950 . S
C785 C784 1.524 . S
C785 C786 1.415 . S
C786 H762 0.950 . S
C786 C781 1.363 . S
C786 C785 1.415 . S
C787 H763 0.951 . S
C787 C788 1.366 . S
C787 C789 1.388 . S
C788 C787 1.366 . S
C788 C792 1.385 . S
C789 H764 0.951 . S
C789 C787 1.388 . S
C789 C790 1.366 . S
C790 C789 1.366 . S
C790 C791 1.414 . S
C790 C793 1.499 . S
C791 H765 0.950 . S
C791 C790 1.414 . S
C791 C792 1.374 . S
C792 H766 0.950 . S
C792 C788 1.385 . S
C792 C791 1.374 . S
C793 C790 1.499 . S
C793 C794 1.373 . S
C793 C795 1.389 . S
C794 H767 0.950 . S
C794 C780 1.377 . S
C794 C793 1.373 . S
C795 C779 1.377 . S
C795 C793 1.389 . S
C795 C796 1.524 . S
C796 C795 1.524 . S
C796 C797 1.397 . S
C796 C801 1.363 . S
C797 H768 0.950 . S
C797 C796 1.397 . S
C797 C798 1.334 . S
C798 H769 0.950 . S
C798 C797 1.334 . S
C798 C799 1.287 . S
C799 C798 1.287 . S
C799 C800 1.524 . S
C799 H802 0.999 . S
C800 H770 0.950 . S
C800 C799 1.524 . S
C800 C801 1.415 . S
C801 H771 0.950 . S
C801 C796 1.363 . S
C801 C800 1.415 . S
H802 C799 0.999 . S
H803 C784 0.913 . S
H804 C822 0.951 . S
H805 C824 0.951 . S
H806 C826 0.950 . S
H807 C827 0.950 . S
H808 C829 0.950 . S
H809 C832 0.936 1_545 S
H810 C833 0.950 . S
H811 C835 0.950 . S
H812 C836 0.950 . S
H813 C837 0.951 . S
H814 C839 0.951 . S
H815 C841 0.950 . S
H816 C842 0.950 . S
H817 C844 0.950 . S
H818 C847 0.953 . S
H819 C848 0.950 . S
H820 C850 0.950 . S
H821 C851 0.950 . S
C822 H804 0.951 . S
C822 C823 1.366 . S
C822 C824 1.388 . S
C823 C822 1.366 . S
C823 C827 1.385 . S
C824 H805 0.951 . S
C824 C822 1.388 . S
C824 C825 1.366 . S
C825 C824 1.366 . S
C825 C826 1.414 . S
C825 C828 1.499 . S
C826 H806 0.950 . S
C826 C825 1.414 . S
C826 C827 1.374 . S
C827 H807 0.950 . S
C827 C823 1.385 . S
C827 C826 1.374 . S
C828 C825 1.499 . S
C828 C829 1.373 . S
C828 C830 1.389 1_545 S
C829 H808 0.950 . S
C829 C828 1.373 . S
C829 C845 1.377 1_554 S
C830 C828 1.389 1_565 S
C830 C831 1.524 . S
C830 C844 1.377 1_554 S
C831 C830 1.524 . S
C831 C832 1.397 . S
C831 C836 1.363 . S
C832 H809 0.936 1_565 S
C832 C831 1.397 . S
C832 C833 1.334 . S
C833 H810 0.950 . S
C833 C832 1.334 . S
C833 C834 1.287 . S
C834 C833 1.287 . S
C834 C835 1.524 . S
C834 H853 0.913 . S
C835 H811 0.950 . S
C835 C834 1.524 . S
C835 C836 1.415 . S
C836 H812 0.950 . S
C836 C831 1.363 . S
C836 C835 1.415 . S
C837 H813 0.951 . S
C837 C838 1.366 . S
C837 C839 1.388 . S
C838 C837 1.366 . S
C838 C842 1.385 . S
C839 H814 0.951 . S
C839 C837 1.388 . S
C839 C840 1.366 . S
C840 C839 1.366 . S
C840 C841 1.414 . S
C840 C843 1.499 . S
C841 H815 0.950 . S
C841 C840 1.414 . S
C841 C842 1.374 . S
C842 H816 0.950 . S
C842 C838 1.385 . S
C842 C841 1.374 . S
C843 C840 1.499 . S
C843 C844 1.373 . S
C843 C845 1.389 1_565 S
C844 H817 0.950 . S
C844 C830 1.377 1_556 S
C844 C843 1.373 . S
C845 C829 1.377 1_556 S
C845 C843 1.389 1_545 S
C845 C846 1.524 . S
C846 C845 1.524 . S
C846 C847 1.397 . S
C846 C851 1.363 . S
C847 H818 0.953 . S
C847 C846 1.397 . S
C847 C848 1.334 . S
C848 H819 0.950 . S
C848 C847 1.334 . S
C848 C849 1.287 . S
C849 C848 1.287 . S
C849 C850 1.524 . S
C849 H852 0.999 . S
C850 H820 0.950 . S
C850 C849 1.524 . S
C850 C851 1.415 . S
C851 H821 0.950 . S
C851 C846 1.363 . S
C851 C850 1.415 . S
H852 C849 0.999 . S
H853 C834 0.913 . S
H854 C872 0.951 . S
H855 C874 0.951 . S
H856 C876 0.950 . S
H857 C877 0.950 . S
H858 C879 0.950 . S
H859 C882 0.950 . S
H860 C883 0.950 . S
H861 C885 0.950 . S
H862 C886 0.950 . S
H863 C887 0.951 . S
H864 C889 0.951 . S
H865 C891 0.950 . S
H866 C892 0.950 . S
H867 C894 0.950 . S
H868 C897 0.950 . S
H869 C898 0.950 . S
H870 C900 0.950 . S
H871 C901 0.950 . S
C872 H854 0.951 . S
C872 C873 1.366 . S
C872 C874 1.388 . S
C873 C872 1.366 . S
C873 C877 1.385 . S
C874 H855 0.951 . S
C874 C872 1.388 . S
C874 C875 1.366 . S
C875 C874 1.366 . S
C875 C876 1.414 . S
C875 C878 1.499 . S
C876 H856 0.950 . S
C876 C875 1.414 . S
C876 C877 1.374 . S
C877 H857 0.950 . S
C877 C873 1.385 . S
C877 C876 1.374 . S
C878 C875 1.499 . S
C878 C879 1.373 . S
C878 C880 1.389 . S
C879 H858 0.950 . S
C879 C878 1.373 . S
C879 C895 1.377 1_655 S
C880 C878 1.389 . S
C880 C881 1.525 1_655 S
C880 C894 1.377 1_655 S
C881 C880 1.525 1_455 S
C881 C882 1.395 . S
C881 C886 1.364 1_455 S
C882 H859 0.950 . S
C882 C881 1.395 . S
C882 C883 1.334 . S
C883 H860 0.950 . S
C883 C882 1.334 . S
C883 C884 1.287 . S
C884 C883 1.287 . S
C884 C885 1.524 1_455 S
C884 H903 0.913 . S
C885 H861 0.950 . S
C885 C884 1.524 1_655 S
C885 C886 1.415 . S
C886 H862 0.950 . S
C886 C881 1.364 1_655 S
C886 C885 1.415 . S
C887 H863 0.951 . S
C887 C888 1.366 . S
C887 C889 1.388 . S
C888 C887 1.366 . S
C888 C892 1.385 . S
C889 H864 0.951 . S
C889 C887 1.388 . S
C889 C890 1.366 . S
C890 C889 1.366 . S
C890 C891 1.414 . S
C890 C893 1.499 . S
C891 H865 0.950 . S
C891 C890 1.414 . S
C891 C892 1.374 . S
C892 H866 0.950 . S
C892 C888 1.385 . S
C892 C891 1.374 . S
C893 C890 1.499 . S
C893 C894 1.373 . S
C893 C895 1.389 . S
C894 H867 0.950 . S
C894 C880 1.377 1_455 S
C894 C893 1.373 . S
C895 C879 1.377 1_455 S
C895 C893 1.389 . S
C895 C896 1.525 1_455 S
C896 C895 1.525 1_655 S
C896 C897 1.395 . S
C896 C901 1.364 1_655 S
C897 H868 0.950 . S
C897 C896 1.395 . S
C897 C898 1.334 . S
C898 H869 0.950 . S
C898 C897 1.334 . S
C898 C899 1.287 . S
C899 C898 1.287 . S
C899 C900 1.524 1_655 S
C899 H902 0.999 . S
C900 H870 0.950 . S
C900 C899 1.524 1_455 S
C900 C901 1.415 . S
C901 H871 0.950 . S
C901 C896 1.364 1_455 S
C901 C900 1.415 . S
H902 C899 0.999 . S
H903 C884 0.913 . S
H904 C922 0.951 . S
H905 C924 0.951 . S
H906 C926 0.950 . S
H907 C927 0.950 . S
H908 C929 0.950 . S
H909 C932 0.950 . S
H910 C933 0.950 . S
H911 C935 0.950 . S
H912 C936 0.950 . S
H913 C937 0.951 . S
H914 C939 0.951 . S
H915 C941 0.950 . S
H916 C942 0.950 . S
H917 C944 0.950 . S
H918 C947 0.950 . S
H919 C948 0.950 . S
H920 C950 0.950 . S
H921 C951 0.950 . S
C922 H904 0.951 . S
C922 C923 1.366 . S
C922 C924 1.388 . S
C923 C922 1.366 . S
C923 C927 1.385 . S
C924 H905 0.951 . S
C924 C922 1.388 . S
C924 C925 1.366 . S
C925 C924 1.366 . S
C925 C926 1.414 . S
C925 C928 1.499 . S
C926 H906 0.950 . S
C926 C925 1.414 . S
C926 C927 1.374 . S
C927 H907 0.950 . S
C927 C923 1.385 . S
C927 C926 1.374 . S
C928 C925 1.499 . S
C928 C929 1.373 . S
C928 C930 1.389 1_565 S
C929 H908 0.950 . S
C929 C928 1.373 . S
C929 C945 1.377 . S
C930 C928 1.389 1_545 S
C930 C931 1.524 . S
C930 C944 1.377 . S
C931 C930 1.524 . S
C931 C932 1.397 . S
C931 C936 1.363 . S
C932 H909 0.950 . S
C932 C931 1.397 . S
C932 C933 1.334 . S
C933 H910 0.950 . S
C933 C932 1.334 . S
C933 C934 1.287 . S
C934 C933 1.287 . S
C934 C935 1.524 . S
C934 H953 0.913 . S
C935 H911 0.950 . S
C935 C934 1.524 . S
C935 C936 1.415 . S
C936 H912 0.950 . S
C936 C931 1.363 . S
C936 C935 1.415 . S
C937 H913 0.951 . S
C937 C938 1.366 . S
C937 C939 1.388 . S
C938 C937 1.366 . S
C938 C942 1.385 . S
C939 H914 0.951 . S
C939 C937 1.388 . S
C939 C940 1.366 . S
C940 C939 1.366 . S
C940 C941 1.414 . S
C940 C943 1.499 . S
C941 H915 0.950 . S
C941 C940 1.414 . S
C941 C942 1.374 . S
C942 H916 0.950 . S
C942 C938 1.385 . S
C942 C941 1.374 . S
C943 C940 1.499 . S
C943 C944 1.373 . S
C943 C945 1.389 1_545 S
C944 H917 0.950 . S
C944 C930 1.377 . S
C944 C943 1.373 . S
C945 C929 1.377 . S
C945 C943 1.389 1_565 S
C945 C946 1.524 . S
C946 C945 1.524 . S
C946 C947 1.397 . S
C946 C951 1.363 . S
C947 H918 0.950 . S
C947 C946 1.397 . S
C947 C948 1.334 . S
C948 H919 0.950 . S
C948 C947 1.334 . S
C948 C949 1.287 . S
C949 C948 1.287 . S
C949 C950 1.524 . S
C949 H952 0.999 . S
C950 H920 0.950 . S
C950 C949 1.524 . S
C950 C951 1.415 . S
C951 H921 0.950 . S
C951 C946 1.363 . S
C951 C950 1.415 . S
H952 C949 0.999 . S
H953 C934 0.913 . S
H954 C972 0.951 . S
H955 C974 0.951 . S
H956 C976 0.950 . S
H957 C977 0.950 . S
H958 C979 0.950 . S
H959 C982 0.950 . S
H960 C983 0.950 . S
H961 C985 0.950 . S
H962 C986 0.950 . S
H963 C987 0.951 . S
H964 C989 0.951 . S
H965 C991 0.950 . S
H966 C992 0.950 . S
H967 C994 0.950 . S
H968 C997 0.950 . S
H969 C998 0.950 . S
H970 C1000 0.950 . S
H971 C1001 0.950 . S
C972 H954 0.951 . S
C972 C973 1.366 . S
C972 C974 1.388 . S
C973 C972 1.366 . S
C973 C977 1.385 . S
C974 H955 0.951 . S
C974 C972 1.388 . S
C974 C975 1.366 . S
C975 C974 1.366 . S
C975 C976 1.414 . S
C975 C978 1.499 . S
C976 H956 0.950 . S
C976 C975 1.414 . S
C976 C977 1.374 . S
C977 H957 0.950 . S
C977 C973 1.385 . S
C977 C976 1.374 . S
C978 C975 1.499 . S
C978 C979 1.386 . S
C978 C980 1.389 1_655 S
C979 H958 0.950 . S
C979 C978 1.386 . S
C979 C995 1.364 1_556 S
C980 C978 1.389 1_455 S
C980 C981 1.524 . S
C980 C994 1.374 . S
C981 C980 1.524 . S
C981 C982 1.397 . S
C981 C986 1.363 . S
C982 H959 0.950 . S
C982 C981 1.397 . S
C982 C983 1.334 . S
C983 H960 0.950 . S
C983 C982 1.334 . S
C983 C984 1.287 . S
C984 C983 1.287 . S
C984 C985 1.524 . S
C984 H1003 0.913 . S
C985 H961 0.950 . S
C985 C984 1.524 . S
C985 C986 1.415 . S
C986 H962 0.950 . S
C986 C981 1.363 . S
C986 C985 1.415 . S
C987 H963 0.951 . S
C987 C988 1.366 . S
C987 C989 1.388 . S
C988 C987 1.366 . S
C988 C992 1.385 . S
C989 H964 0.951 . S
C989 C987 1.388 . S
C989 C990 1.366 . S
C990 C989 1.366 . S
C990 C991 1.414 . S
C990 C993 1.499 . S
C991 H965 0.950 . S
C991 C990 1.414 . S
C991 C992 1.374 . S
C992 H966 0.950 . S
C992 C988 1.385 . S
C992 C991 1.374 . S
C993 C990 1.499 . S
C993 C994 1.375 1_554 S
C993 C995 1.389 1_455 S
C994 H967 0.950 . S
C994 C980 1.374 . S
C994 C993 1.375 1_556 S
C995 C979 1.364 1_554 S
C995 C993 1.389 1_655 S
C995 C996 1.524 . S
C996 C995 1.524 . S
C996 C997 1.397 . S
C996 C1001 1.363 . S
C997 H968 0.950 . S
C997 C996 1.397 . S
C997 C998 1.334 . S
C998 H969 0.950 . S
C998 C997 1.334 . S
C998 C999 1.287 . S
C999 C998 1.287 . S
C999 C1000 1.524 . S
C999 H1002 0.999 . S
C1000 H970 0.950 . S
C1000 C999 1.524 . S
C1000 C1001 1.415 . S
C1001 H971 0.950 . S
C1001 C996 1.363 . S
C1001 C1000 1.415 . S
H1002 C999 0.999 . S
H1003 C984 0.913 . S
H1004 C1022 0.951 . S
H1005 C1024 0.951 . S
H1006 C1026 0.950 . S
H1007 C1027 0.950 . S
H1008 C1029 0.950 . S
H1009 C1032 0.950 . S
H1010 C1033 0.950 . S
H1011 C1035 0.950 . S
H1012 C1036 0.950 . S
H1013 C1037 0.951 . S
H1014 C1039 0.951 . S
H1015 C1041 0.950 . S
H1016 C1042 0.950 . S
H1017 C1044 0.950 . S
H1018 C1047 0.950 . S
H1019 C1048 0.950 . S
H1020 C1050 0.950 . S
H1021 C1051 0.950 . S
C1022 H1004 0.951 . S
C1022 C1023 1.366 . S
C1022 C1024 1.388 . S
C1023 C1022 1.366 . S
C1023 C1027 1.385 . S
C1024 H1005 0.951 . S
C1024 C1022 1.388 . S
C1024 C1025 1.366 . S
C1025 C1024 1.366 . S
C1025 C1026 1.414 . S
C1025 C1028 1.499 . S
C1026 H1006 0.950 . S
C1026 C1025 1.414 . S
C1026 C1027 1.374 . S
C1027 H1007 0.950 . S
C1027 C1023 1.385 . S
C1027 C1026 1.374 . S
C1028 C1025 1.499 . S
C1028 C1029 1.373 . S
C1028 C1030 1.389 . S
C1029 H1008 0.950 . S
C1029 C1028 1.373 . S
C1029 C1045 1.377 . S
C1030 C1028 1.389 . S
C1030 C1031 1.524 . S
C1030 C1044 1.377 . S
C1031 C1030 1.524 . S
C1031 C1032 1.397 . S
C1031 C1036 1.363 . S
C1032 H1009 0.950 . S
C1032 C1031 1.397 . S
C1032 C1033 1.334 . S
C1033 H1010 0.950 . S
C1033 C1032 1.334 . S
C1033 C1034 1.287 . S
C1034 C1033 1.287 . S
C1034 C1035 1.524 . S
C1034 H1053 0.913 . S
C1035 H1011 0.950 . S
C1035 C1034 1.524 . S
C1035 C1036 1.415 . S
C1036 H1012 0.950 . S
C1036 C1031 1.363 . S
C1036 C1035 1.415 . S
C1037 H1013 0.951 . S
C1037 C1038 1.366 . S
C1037 C1039 1.388 . S
C1038 C1037 1.366 . S
C1038 C1042 1.385 . S
C1039 H1014 0.951 . S
C1039 C1037 1.388 . S
C1039 C1040 1.366 . S
C1040 C1039 1.366 . S
C1040 C1041 1.414 . S
C1040 C1043 1.499 . S
C1041 H1015 0.950 . S
C1041 C1040 1.414 . S
C1041 C1042 1.374 . S
C1042 H1016 0.950 . S
C1042 C1038 1.385 . S
C1042 C1041 1.374 . S
C1043 C1040 1.499 . S
C1043 C1044 1.373 . S
C1043 C1045 1.389 . S
C1044 H1017 0.950 . S
C1044 C1030 1.377 . S
C1044 C1043 1.373 . S
C1045 C1029 1.377 . S
C1045 C1043 1.389 . S
C1045 C1046 1.524 . S
C1046 C1045 1.524 . S
C1046 C1047 1.397 . S
C1046 C1051 1.363 . S
C1047 H1018 0.950 . S
C1047 C1046 1.397 . S
C1047 C1048 1.334 . S
C1048 H1019 0.950 . S
C1048 C1047 1.334 . S
C1048 C1049 1.287 . S
C1049 C1048 1.287 . S
C1049 C1050 1.524 . S
C1049 H1052 0.999 . S
C1050 H1020 0.950 . S
C1050 C1049 1.524 . S
C1050 C1051 1.415 . S
C1051 H1021 0.950 . S
C1051 C1046 1.363 . S
C1051 C1050 1.415 . S
H1052 C1049 0.999 . S
H1053 C1034 0.913 . S
H1054 C1072 0.951 . S
H1055 C1074 0.951 . S
H1056 C1076 0.950 . S
H1057 C1077 0.950 . S
H1058 C1079 0.950 . S
H1059 C1082 0.950 . S
H1060 C1083 0.950 . S
H1061 C1085 0.950 . S
H1062 C1086 0.950 . S
H1063 C1087 0.951 . S
H1064 C1089 0.951 . S
H1065 C1091 0.950 . S
H1066 C1092 0.950 . S
H1067 C1094 0.950 . S
H1068 C1097 0.950 . S
H1069 C1098 0.950 . S
H1070 C1100 0.950 . S
H1071 C1101 0.950 . S
C1072 H1054 0.951 . S
C1072 C1073 1.366 . S
C1072 C1074 1.388 . S
C1073 C1072 1.366 . S
C1073 C1077 1.385 . S
C1074 H1055 0.951 . S
C1074 C1072 1.388 . S
C1074 C1075 1.366 . S
C1075 C1074 1.366 . S
C1075 C1076 1.414 . S
C1075 C1078 1.499 . S
C1076 H1056 0.950 . S
C1076 C1075 1.414 . S
C1076 C1077 1.374 . S
C1077 H1057 0.950 . S
C1077 C1073 1.385 . S
C1077 C1076 1.374 . S
C1078 C1075 1.499 . S
C1078 C1079 1.373 . S
C1078 C1080 1.389 . S
C1079 H1058 0.950 . S
C1079 C1078 1.373 . S
C1079 C1095 1.377 . S
C1080 C1078 1.389 . S
C1080 C1081 1.524 . S
C1080 C1094 1.377 . S
C1081 C1080 1.524 . S
C1081 C1082 1.397 . S
C1081 C1086 1.363 . S
C1082 H1059 0.950 . S
C1082 C1081 1.397 . S
C1082 C1083 1.334 . S
C1083 H1060 0.950 . S
C1083 C1082 1.334 . S
C1083 C1084 1.287 . S
C1084 C1083 1.287 . S
C1084 C1085 1.524 . S
C1084 H1103 0.913 . S
C1085 H1061 0.950 . S
C1085 C1084 1.524 . S
C1085 C1086 1.415 . S
C1086 H1062 0.950 . S
C1086 C1081 1.363 . S
C1086 C1085 1.415 . S
C1087 H1063 0.951 . S
C1087 C1088 1.366 . S
C1087 C1089 1.388 . S
C1088 C1087 1.366 . S
C1088 C1092 1.385 . S
C1089 H1064 0.951 . S
C1089 C1087 1.388 . S
C1089 C1090 1.366 . S
C1090 C1089 1.366 . S
C1090 C1091 1.414 . S
C1090 C1093 1.499 . S
C1091 H1065 0.950 . S
C1091 C1090 1.414 . S
C1091 C1092 1.374 . S
C1092 H1066 0.950 . S
C1092 C1088 1.385 . S
C1092 C1091 1.374 . S
C1093 C1090 1.499 . S
C1093 C1094 1.373 . S
C1093 C1095 1.389 . S
C1094 H1067 0.950 . S
C1094 C1080 1.377 . S
C1094 C1093 1.373 . S
C1095 C1079 1.377 . S
C1095 C1093 1.389 . S
C1095 C1096 1.524 . S
C1096 C1095 1.524 . S
C1096 C1097 1.397 . S
C1096 C1101 1.363 . S
C1097 H1068 0.950 . S
C1097 C1096 1.397 . S
C1097 C1098 1.334 . S
C1098 H1069 0.950 . S
C1098 C1097 1.334 . S
C1098 C1099 1.287 . S
C1099 C1098 1.287 . S
C1099 C1100 1.524 . S
C1099 H1102 0.999 . S
C1100 H1070 0.950 . S
C1100 C1099 1.524 . S
C1100 C1101 1.415 . S
C1101 H1071 0.950 . S
C1101 C1096 1.363 . S
C1101 C1100 1.415 . S
H1102 C1099 0.999 . S
H1103 C1084 0.913 . S
H1104 C1122 0.951 . S
H1105 C1124 0.951 . S
H1106 C1126 0.950 . S
H1107 C1127 0.950 . S
H1108 C1129 0.950 . S
H1109 C1132 0.950 . S
H1110 C1133 0.950 . S
H1111 C1135 0.950 . S
H1112 C1136 0.950 . S
H1113 C1137 0.951 . S
H1114 C1139 0.951 . S
H1115 C1141 0.950 . S
H1116 C1142 0.950 . S
H1117 C1144 0.950 . S
H1118 C1147 0.950 . S
H1119 C1148 0.950 . S
H1120 C1150 0.950 . S
H1121 C1151 0.950 . S
C1122 H1104 0.951 . S
C1122 C1123 1.366 . S
C1122 C1124 1.388 . S
C1123 C1122 1.366 . S
C1123 C1127 1.385 . S
C1124 H1105 0.951 . S
C1124 C1122 1.388 . S
C1124 C1125 1.366 . S
C1125 C1124 1.366 . S
C1125 C1126 1.414 . S
C1125 C1128 1.499 . S
C1126 H1106 0.950 . S
C1126 C1125 1.414 . S
C1126 C1127 1.374 . S
C1127 H1107 0.950 . S
C1127 C1123 1.385 . S
C1127 C1126 1.374 . S
C1128 C1125 1.499 . S
C1128 C1129 1.373 . S
C1128 C1130 1.389 . S
C1129 H1108 0.950 . S
C1129 C1128 1.373 . S
C1129 C1145 1.377 . S
C1130 C1128 1.389 . S
C1130 C1131 1.524 . S
C1130 C1144 1.377 . S
C1131 C1130 1.524 . S
C1131 C1132 1.397 . S
C1131 C1136 1.363 . S
C1132 H1109 0.950 . S
C1132 C1131 1.397 . S
C1132 C1133 1.334 . S
C1133 H1110 0.950 . S
C1133 C1132 1.334 . S
C1133 C1134 1.287 . S
C1134 C1133 1.287 . S
C1134 C1135 1.524 . S
C1134 H1153 0.913 . S
C1135 H1111 0.950 . S
C1135 C1134 1.524 . S
C1135 C1136 1.415 . S
C1136 H1112 0.950 . S
C1136 C1131 1.363 . S
C1136 C1135 1.415 . S
C1137 H1113 0.951 . S
C1137 C1138 1.366 . S
C1137 C1139 1.388 . S
C1138 C1137 1.366 . S
C1138 C1142 1.385 . S
C1139 H1114 0.951 . S
C1139 C1137 1.388 . S
C1139 C1140 1.366 . S
C1140 C1139 1.366 . S
C1140 C1141 1.414 . S
C1140 C1143 1.499 . S
C1141 H1115 0.950 . S
C1141 C1140 1.414 . S
C1141 C1142 1.374 . S
C1142 H1116 0.950 . S
C1142 C1138 1.385 . S
C1142 C1141 1.374 . S
C1143 C1140 1.499 . S
C1143 C1144 1.373 . S
C1143 C1145 1.389 . S
C1144 H1117 0.950 . S
C1144 C1130 1.377 . S
C1144 C1143 1.373 . S
C1145 C1129 1.377 . S
C1145 C1143 1.389 . S
C1145 C1146 1.524 . S
C1146 C1145 1.524 . S
C1146 C1147 1.397 . S
C1146 C1151 1.363 . S
C1147 H1118 0.950 . S
C1147 C1146 1.397 . S
C1147 C1148 1.334 . S
C1148 H1119 0.950 . S
C1148 C1147 1.334 . S
C1148 C1149 1.287 . S
C1149 C1148 1.287 . S
C1149 C1150 1.524 . S
C1149 H1152 0.999 . S
C1150 H1120 0.950 . S
C1150 C1149 1.524 . S
C1150 C1151 1.415 . S
C1151 H1121 0.950 . S
C1151 C1146 1.363 . S
C1151 C1150 1.415 . S
H1152 C1149 0.999 . S
H1153 C1134 0.913 . S
H1154 C1172 0.951 . S
H1155 C1174 0.951 . S
H1156 C1176 0.950 . S
H1157 C1177 0.950 . S
H1158 C1179 0.950 . S
H1159 C1182 0.950 . S
H1160 C1183 0.950 . S
H1161 C1185 0.950 . S
H1162 C1186 0.950 . S
H1163 C1187 0.951 . S
H1164 C1189 0.951 . S
H1165 C1191 0.950 . S
H1166 C1192 0.950 . S
H1167 C1194 0.950 . S
H1168 C1197 0.950 . S
H1169 C1198 0.950 . S
H1170 C1200 0.950 . S
H1171 C1201 0.950 . S
C1172 H1154 0.951 . S
C1172 C1173 1.366 . S
C1172 C1174 1.388 . S
C1173 C1172 1.366 . S
C1173 C1177 1.385 . S
C1174 H1155 0.951 . S
C1174 C1172 1.388 . S
C1174 C1175 1.366 . S
C1175 C1174 1.366 . S
C1175 C1176 1.414 . S
C1175 C1178 1.499 . S
C1176 H1156 0.950 . S
C1176 C1175 1.414 . S
C1176 C1177 1.374 . S
C1177 H1157 0.950 . S
C1177 C1173 1.385 . S
C1177 C1176 1.374 . S
C1178 C1175 1.499 . S
C1178 C1179 1.373 1_556 S
C1178 C1180 1.389 . S
C1179 H1158 0.950 . S
C1179 C1178 1.373 1_554 S
C1179 C1195 1.377 . S
C1180 C1178 1.389 . S
C1180 C1181 1.524 . S
C1180 C1194 1.377 . S
C1181 C1180 1.524 . S
C1181 C1182 1.397 . S
C1181 C1186 1.363 . S
C1182 H1159 0.950 . S
C1182 C1181 1.397 . S
C1182 C1183 1.334 . S
C1183 H1160 0.950 . S
C1183 C1182 1.334 . S
C1183 C1184 1.287 . S
C1184 C1183 1.287 . S
C1184 C1185 1.524 . S
C1184 H1203 0.913 . S
C1185 H1161 0.950 . S
C1185 C1184 1.524 . S
C1185 C1186 1.415 . S
C1186 H1162 0.950 . S
C1186 C1181 1.363 . S
C1186 C1185 1.415 . S
C1187 H1163 0.951 . S
C1187 C1188 1.366 . S
C1187 C1189 1.388 . S
C1188 C1187 1.366 . S
C1188 C1192 1.385 . S
C1189 H1164 0.951 . S
C1189 C1187 1.388 . S
C1189 C1190 1.366 . S
C1190 C1189 1.366 . S
C1190 C1191 1.414 . S
C1190 C1193 1.499 . S
C1191 H1165 0.950 . S
C1191 C1190 1.414 . S
C1191 C1192 1.374 . S
C1192 H1166 0.950 . S
C1192 C1188 1.385 . S
C1192 C1191 1.374 . S
C1193 C1190 1.499 . S
C1193 C1194 1.373 1_554 S
C1193 C1195 1.389 . S
C1194 H1167 0.950 . S
C1194 C1180 1.377 . S
C1194 C1193 1.373 1_556 S
C1195 C1179 1.377 . S
C1195 C1193 1.389 . S
C1195 C1196 1.524 . S
C1196 C1195 1.524 . S
C1196 C1197 1.397 . S
C1196 C1201 1.363 . S
C1197 H1168 0.950 . S
C1197 C1196 1.397 . S
C1197 C1198 1.334 . S
C1198 H1169 0.950 . S
C1198 C1197 1.334 . S
C1198 C1199 1.287 . S
C1199 C1198 1.287 . S
C1199 C1200 1.524 . S
C1199 H1202 0.999 . S
C1200 H1170 0.950 . S
C1200 C1199 1.524 . S
C1200 C1201 1.415 . S
C1201 H1171 0.950 . S
C1201 C1196 1.363 . S
C1201 C1200 1.415 . S
H1202 C1199 0.999 . S
H1203 C1184 0.913 . S
H1204 C1222 0.951 . S
H1205 C1224 0.951 . S
H1206 C1226 0.950 . S
H1207 C1227 0.950 . S
H1208 C1229 0.950 . S
H1209 C1232 0.950 . S
H1210 C1233 0.950 . S
H1211 C1235 0.950 . S
H1212 C1236 0.950 . S
H1213 C1237 0.951 . S
H1214 C1239 0.951 . S
H1215 C1241 0.950 . S
H1216 C1242 0.950 . S
H1217 C1244 0.950 . S
H1218 C1247 0.950 . S
H1219 C1248 0.950 . S
H1220 C1250 0.950 . S
H1221 C1251 0.950 . S
C1222 H1204 0.951 . S
C1222 C1223 1.366 . S
C1222 C1224 1.388 . S
C1223 C1222 1.366 . S
C1223 C1227 1.385 . S
C1224 H1205 0.951 . S
C1224 C1222 1.388 . S
C1224 C1225 1.366 . S
C1225 C1224 1.366 . S
C1225 C1226 1.414 . S
C1225 C1228 1.499 . S
C1226 H1206 0.950 . S
C1226 C1225 1.414 . S
C1226 C1227 1.374 . S
C1227 H1207 0.950 . S
C1227 C1223 1.385 . S
C1227 C1226 1.374 . S
C1228 C1225 1.499 . S
C1228 C1229 1.373 . S
C1228 C1230 1.389 1_565 S
C1229 H1208 0.950 . S
C1229 C1228 1.373 . S
C1229 C1245 1.377 . S
C1230 C1228 1.389 1_545 S
C1230 C1231 1.524 . S
C1230 C1244 1.377 . S
C1231 C1230 1.524 . S
C1231 C1232 1.397 . S
C1231 C1236 1.363 . S
C1232 H1209 0.950 . S
C1232 C1231 1.397 . S
C1232 C1233 1.334 . S
C1233 H1210 0.950 . S
C1233 C1232 1.334 . S
C1233 C1234 1.287 . S
C1234 C1233 1.287 . S
C1234 C1235 1.524 . S
C1234 H1253 0.913 . S
C1235 H1211 0.950 . S
C1235 C1234 1.524 . S
C1235 C1236 1.415 . S
C1236 H1212 0.950 . S
C1236 C1231 1.363 . S
C1236 C1235 1.415 . S
C1237 H1213 0.951 . S
C1237 C1238 1.366 . S
C1237 C1239 1.388 . S
C1238 C1237 1.366 . S
C1238 C1242 1.385 . S
C1239 H1214 0.951 . S
C1239 C1237 1.388 . S
C1239 C1240 1.366 . S
C1240 C1239 1.366 . S
C1240 C1241 1.414 . S
C1240 C1243 1.499 . S
C1241 H1215 0.950 . S
C1241 C1240 1.414 . S
C1241 C1242 1.374 . S
C1242 H1216 0.950 . S
C1242 C1238 1.385 . S
C1242 C1241 1.374 . S
C1243 C1240 1.499 . S
C1243 C1244 1.373 . S
C1243 C1245 1.389 1_545 S
C1244 H1217 0.950 . S
C1244 C1230 1.377 . S
C1244 C1243 1.373 . S
C1245 C1229 1.377 . S
C1245 C1243 1.389 1_565 S
C1245 C1246 1.524 . S
C1246 C1245 1.524 . S
C1246 C1247 1.397 . S
C1246 C1251 1.363 . S
C1247 H1218 0.950 . S
C1247 C1246 1.397 . S
C1247 C1248 1.334 . S
C1248 H1219 0.950 . S
C1248 C1247 1.334 . S
C1248 C1249 1.287 . S
C1249 C1248 1.287 . S
C1249 C1250 1.524 . S
C1249 H1252 0.999 . S
C1250 H1220 0.950 . S
C1250 C1249 1.524 . S
C1250 C1251 1.415 . S
C1251 H1221 0.950 . S
C1251 C1246 1.363 . S
C1251 C1250 1.415 . S
H1252 C1249 0.999 . S
H1253 C1234 0.913 . S
H1254 C1272 0.951 . S
H1255 C1274 0.951 . S
H1256 C1276 0.950 . S
H1257 C1277 0.950 . S
H1258 C1279 0.950 . S
H1259 C1282 0.950 . S
H1260 C1283 0.950 . S
H1261 C1285 0.950 . S
H1262 C1286 0.950 . S
H1263 C1287 0.951 . S
H1264 C1289 0.951 . S
H1265 C1291 0.950 . S
H1266 C1292 0.950 . S
H1267 C1294 0.950 . S
H1268 C1297 0.950 . S
H1269 C1298 0.950 . S
H1270 C1300 0.950 . S
H1271 C1301 0.950 . S
C1272 H1254 0.951 . S
C1272 C1273 1.366 . S
C1272 C1274 1.388 . S
C1273 C1272 1.366 . S
C1273 C1277 1.385 . S
C1274 H1255 0.951 . S
C1274 C1272 1.388 . S
C1274 C1275 1.366 . S
C1275 C1274 1.366 . S
C1275 C1276 1.414 . S
C1275 C1278 1.499 . S
C1276 H1256 0.950 . S
C1276 C1275 1.414 . S
C1276 C1277 1.374 . S
C1277 H1257 0.950 . S
C1277 C1273 1.385 . S
C1277 C1276 1.374 . S
C1278 C1275 1.499 . S
C1278 C1279 1.373 1_565 S
C1278 C1280 1.389 . S
C1279 H1258 0.950 . S
C1279 C1278 1.373 1_545 S
C1279 C1295 1.377 1_655 S
C1280 C1278 1.389 . S
C1280 C1281 1.524 . S
C1280 C1294 1.377 1_655 S
C1281 C1280 1.524 . S
C1281 C1282 1.397 . S
C1281 C1286 1.363 . S
C1282 H1259 0.950 . S
C1282 C1281 1.397 . S
C1282 C1283 1.334 . S
C1283 H1260 0.950 . S
C1283 C1282 1.334 . S
C1283 C1284 1.287 . S
C1284 C1283 1.287 . S
C1284 C1285 1.524 . S
C1284 H1303 0.913 . S
C1285 H1261 0.950 . S
C1285 C1284 1.524 . S
C1285 C1286 1.415 . S
C1286 H1262 0.950 . S
C1286 C1281 1.363 . S
C1286 C1285 1.415 . S
C1287 H1263 0.951 . S
C1287 C1288 1.366 . S
C1287 C1289 1.388 . S
C1288 C1287 1.366 . S
C1288 C1292 1.385 . S
C1289 H1264 0.951 . S
C1289 C1287 1.388 . S
C1289 C1290 1.366 . S
C1290 C1289 1.366 . S
C1290 C1291 1.414 . S
C1290 C1293 1.499 . S
C1291 H1265 0.950 . S
C1291 C1290 1.414 . S
C1291 C1292 1.374 . S
C1292 H1266 0.950 . S
C1292 C1288 1.385 . S
C1292 C1291 1.374 . S
C1293 C1290 1.499 . S
C1293 C1294 1.373 1_545 S
C1293 C1295 1.389 . S
C1294 H1267 0.950 . S
C1294 C1280 1.377 1_455 S
C1294 C1293 1.373 1_565 S
C1295 C1279 1.377 1_455 S
C1295 C1293 1.389 . S
C1295 C1296 1.524 . S
C1296 C1295 1.524 . S
C1296 C1297 1.397 . S
C1296 C1301 1.363 . S
C1297 H1268 0.950 . S
C1297 C1296 1.397 . S
C1297 C1298 1.334 . S
C1298 H1269 0.950 . S
C1298 C1297 1.334 . S
C1298 C1299 1.287 . S
C1299 C1298 1.287 . S
C1299 C1300 1.524 . S
C1299 H1302 0.999 . S
C1300 H1270 0.950 . S
C1300 C1299 1.524 . S
C1300 C1301 1.415 . S
C1301 H1271 0.950 . S
C1301 C1296 1.363 . S
C1301 C1300 1.415 . S
H1302 C1299 0.999 . S
H1303 C1284 0.913 . S
H1304 C1322 0.951 . S
H1305 C1324 0.951 . S
H1306 C1326 0.950 . S
H1307 C1327 0.950 . S
H1308 C1329 0.950 . S
H1309 C1332 0.950 . S
H1310 C1333 0.950 . S
H1311 C1335 0.950 . S
H1312 C1336 0.950 . S
H1313 C1337 0.951 . S
H1314 C1339 0.951 . S
H1315 C1341 0.950 . S
H1316 C1342 0.950 . S
H1317 C1344 0.950 . S
H1318 C1347 0.950 . S
H1319 C1348 0.950 . S
H1320 C1350 0.950 . S
H1321 C1351 0.950 . S
C1322 H1304 0.951 . S
C1322 C1323 1.366 . S
C1322 C1324 1.388 . S
C1323 C1322 1.366 . S
C1323 C1327 1.385 . S
C1324 H1305 0.951 . S
C1324 C1322 1.388 . S
C1324 C1325 1.366 . S
C1325 C1324 1.366 . S
C1325 C1326 1.414 . S
C1325 C1328 1.499 . S
C1326 H1306 0.950 . S
C1326 C1325 1.414 . S
C1326 C1327 1.374 . S
C1327 H1307 0.950 . S
C1327 C1323 1.385 . S
C1327 C1326 1.374 . S
C1328 C1325 1.499 . S
C1328 C1329 1.373 1_655 S
C1328 C1330 1.389 . S
C1329 H1308 0.950 . S
C1329 C1328 1.373 1_455 S
C1329 C1345 1.377 . S
C1330 C1328 1.389 . S
C1330 C1331 1.524 . S
C1330 C1344 1.377 . S
C1331 C1330 1.524 . S
C1331 C1332 1.397 . S
C1331 C1336 1.363 . S
C1332 H1309 0.950 . S
C1332 C1331 1.397 . S
C1332 C1333 1.334 . S
C1333 H1310 0.950 . S
C1333 C1332 1.334 . S
C1333 C1334 1.287 . S
C1334 C1333 1.287 . S
C1334 C1335 1.524 . S
C1334 H1353 0.913 . S
C1335 H1311 0.950 . S
C1335 C1334 1.524 . S
C1335 C1336 1.415 . S
C1336 H1312 0.950 . S
C1336 C1331 1.363 . S
C1336 C1335 1.415 . S
C1337 H1313 0.951 . S
C1337 C1338 1.366 . S
C1337 C1339 1.388 . S
C1338 C1337 1.366 . S
C1338 C1342 1.385 . S
C1339 H1314 0.951 . S
C1339 C1337 1.388 . S
C1339 C1340 1.366 . S
C1340 C1339 1.366 . S
C1340 C1341 1.414 . S
C1340 C1343 1.499 . S
C1341 H1315 0.950 . S
C1341 C1340 1.414 . S
C1341 C1342 1.374 . S
C1342 H1316 0.950 . S
C1342 C1338 1.385 . S
C1342 C1341 1.374 . S
C1343 C1340 1.499 . S
C1343 C1344 1.373 1_455 S
C1343 C1345 1.389 . S
C1344 H1317 0.950 . S
C1344 C1330 1.377 . S
C1344 C1343 1.373 1_655 S
C1345 C1329 1.377 . S
C1345 C1343 1.389 . S
C1345 C1346 1.524 . S
C1346 C1345 1.524 . S
C1346 C1347 1.397 . S
C1346 C1351 1.363 . S
C1347 H1318 0.950 . S
C1347 C1346 1.397 . S
C1347 C1348 1.334 . S
C1348 H1319 0.950 . S
C1348 C1347 1.334 . S
C1348 C1349 1.287 . S
C1349 C1348 1.287 . S
C1349 C1350 1.524 . S
C1349 H1352 0.999 . S
C1350 H1320 0.950 . S
C1350 C1349 1.524 . S
C1350 C1351 1.415 . S
C1351 H1321 0.950 . S
C1351 C1346 1.363 . S
C1351 C1350 1.415 . S
H1352 C1349 0.999 . S
H1353 C1334 0.913 . S
H1354 C1372 0.951 . S
H1355 C1374 0.951 . S
H1356 C1376 0.950 . S
H1357 C1377 0.950 . S
H1358 C1379 0.950 . S
H1359 C1382 0.950 . S
H1360 C1383 0.950 . S
H1361 C1385 0.950 . S
H1362 C1386 0.950 . S
H1363 C1387 0.951 . S
H1364 C1389 0.951 . S
H1365 C1391 0.950 . S
H1366 C1392 0.950 . S
H1367 C1394 0.950 . S
H1368 C1397 0.950 . S
H1369 C1398 0.950 . S
H1370 C1400 0.950 . S
H1371 C1401 0.950 . S
C1372 H1354 0.951 . S
C1372 C1373 1.366 . S
C1372 C1374 1.388 . S
C1373 C1372 1.366 . S
C1373 C1377 1.385 . S
C1374 H1355 0.951 . S
C1374 C1372 1.388 . S
C1374 C1375 1.366 . S
C1375 C1374 1.366 . S
C1375 C1376 1.414 . S
C1375 C1378 1.499 . S
C1376 H1356 0.950 . S
C1376 C1375 1.414 . S
C1376 C1377 1.374 . S
C1377 H1357 0.950 . S
C1377 C1373 1.385 . S
C1377 C1376 1.374 . S
C1378 C1375 1.499 . S
C1378 C1379 1.373 . S
C1378 C1380 1.389 . S
C1379 H1358 0.950 . S
C1379 C1378 1.373 . S
C1379 C1395 1.377 . S
C1380 C1378 1.389 . S
C1380 C1381 1.524 . S
C1380 C1394 1.377 . S
C1381 C1380 1.524 . S
C1381 C1382 1.397 . S
C1381 C1386 1.363 . S
C1382 H1359 0.950 . S
C1382 C1381 1.397 . S
C1382 C1383 1.334 . S
C1383 H1360 0.950 . S
C1383 C1382 1.334 . S
C1383 C1384 1.287 . S
C1384 C1383 1.287 . S
C1384 C1385 1.524 . S
C1384 H1403 0.913 . S
C1385 H1361 0.950 . S
C1385 C1384 1.524 . S
C1385 C1386 1.415 . S
C1386 H1362 0.950 . S
C1386 C1381 1.363 . S
C1386 C1385 1.415 . S
C1387 H1363 0.951 . S
C1387 C1388 1.366 . S
C1387 C1389 1.388 . S
C1388 C1387 1.366 . S
C1388 C1392 1.385 . S
C1389 H1364 0.951 . S
C1389 C1387 1.388 . S
C1389 C1390 1.366 . S
C1390 C1389 1.366 . S
C1390 C1391 1.414 . S
C1390 C1393 1.499 . S
C1391 H1365 0.950 . S
C1391 C1390 1.414 . S
C1391 C1392 1.374 . S
C1392 H1366 0.950 . S
C1392 C1388 1.385 . S
C1392 C1391 1.374 . S
C1393 C1390 1.499 . S
C1393 C1394 1.373 . S
C1393 C1395 1.389 . S
C1394 H1367 0.950 . S
C1394 C1380 1.377 . S
C1394 C1393 1.373 . S
C1395 C1379 1.377 . S
C1395 C1393 1.389 . S
C1395 C1396 1.524 . S
C1396 C1395 1.524 . S
C1396 C1397 1.397 . S
C1396 C1401 1.363 . S
C1397 H1368 0.950 . S
C1397 C1396 1.397 . S
C1397 C1398 1.334 . S
C1398 H1369 0.950 . S
C1398 C1397 1.334 . S
C1398 C1399 1.287 . S
C1399 C1398 1.287 . S
C1399 C1400 1.524 . S
C1399 H1402 0.999 . S
C1400 H1370 0.950 . S
C1400 C1399 1.524 . S
C1400 C1401 1.415 . S
C1401 H1371 0.950 . S
C1401 C1396 1.363 . S
C1401 C1400 1.415 . S
H1402 C1399 0.999 . S
H1403 C1384 0.913 . S
H1404 C1422 0.951 . S
H1405 C1424 0.951 . S
H1406 C1426 0.950 . S
H1407 C1427 0.950 . S
H1408 C1429 0.950 . S
H1409 C1432 0.950 . S
H1410 C1433 0.950 . S
H1411 C1435 0.950 . S
H1412 C1436 0.950 . S
H1413 C1437 0.951 . S
H1414 C1439 0.951 . S
H1415 C1441 0.950 . S
H1416 C1442 0.950 . S
H1417 C1444 0.950 . S
H1418 C1447 0.950 . S
H1419 C1448 0.950 . S
H1420 C1450 0.950 . S
H1421 C1451 0.950 . S
C1422 H1404 0.951 . S
C1422 C1423 1.366 . S
C1422 C1424 1.388 . S
C1423 C1422 1.366 . S
C1423 C1427 1.385 . S
C1424 H1405 0.951 . S
C1424 C1422 1.388 . S
C1424 C1425 1.366 . S
C1425 C1424 1.366 . S
C1425 C1426 1.414 . S
C1425 C1428 1.499 . S
C1426 H1406 0.950 . S
C1426 C1425 1.414 . S
C1426 C1427 1.374 . S
C1427 H1407 0.950 . S
C1427 C1423 1.385 . S
C1427 C1426 1.374 . S
C1428 C1425 1.499 . S
C1428 C1429 1.373 1_554 S
C1428 C1430 1.389 . S
C1429 H1408 0.950 . S
C1429 C1428 1.373 1_556 S
C1429 C1445 1.377 . S
C1430 C1428 1.389 . S
C1430 C1431 1.524 . S
C1430 C1444 1.377 . S
C1431 C1430 1.524 . S
C1431 C1432 1.397 . S
C1431 C1436 1.363 . S
C1432 H1409 0.950 . S
C1432 C1431 1.397 . S
C1432 C1433 1.334 . S
C1433 H1410 0.950 . S
C1433 C1432 1.334 . S
C1433 C1434 1.287 . S
C1434 C1433 1.287 . S
C1434 C1435 1.524 . S
C1434 H1453 0.913 . S
C1435 H1411 0.950 . S
C1435 C1434 1.524 . S
C1435 C1436 1.415 . S
C1436 H1412 0.950 . S
C1436 C1431 1.363 . S
C1436 C1435 1.415 . S
C1437 H1413 0.951 . S
C1437 C1438 1.366 . S
C1437 C1439 1.388 . S
C1438 C1437 1.366 . S
C1438 C1442 1.385 . S
C1439 H1414 0.951 . S
C1439 C1437 1.388 . S
C1439 C1440 1.366 . S
C1440 C1439 1.366 . S
C1440 C1441 1.414 . S
C1440 C1443 1.499 . S
C1441 H1415 0.950 . S
C1441 C1440 1.414 . S
C1441 C1442 1.374 . S
C1442 H1416 0.950 . S
C1442 C1438 1.385 . S
C1442 C1441 1.374 . S
C1443 C1440 1.499 . S
C1443 C1444 1.373 1_556 S
C1443 C1445 1.389 . S
C1444 H1417 0.950 . S
C1444 C1430 1.377 . S
C1444 C1443 1.373 1_554 S
C1445 C1429 1.377 . S
C1445 C1443 1.389 . S
C1445 C1446 1.524 . S
C1446 C1445 1.524 . S
C1446 C1447 1.397 . S
C1446 C1451 1.363 . S
C1447 H1418 0.950 . S
C1447 C1446 1.397 . S
C1447 C1448 1.334 . S
C1448 H1419 0.950 . S
C1448 C1447 1.334 . S
C1448 C1449 1.287 . S
C1449 C1448 1.287 . S
C1449 C1450 1.524 . S
C1449 H1452 0.999 . S
C1450 H1420 0.950 . S
C1450 C1449 1.524 . S
C1450 C1451 1.415 . S
C1451 H1421 0.950 . S
C1451 C1446 1.363 . S
C1451 C1450 1.415 . S
H1452 C1449 0.999 . S
H1453 C1434 0.913 . S
H1454 C1472 0.951 . S
H1455 C1474 0.951 . S
H1456 C1476 0.950 . S
H1457 C1477 0.950 . S
H1458 C1479 0.950 . S
H1459 C1482 0.950 . S
H1460 C1483 0.950 . S
H1461 C1485 0.950 . S
H1462 C1486 0.950 . S
H1463 C1487 0.951 . S
H1464 C1489 0.951 . S
H1465 C1491 0.950 . S
H1466 C1492 0.950 . S
H1467 C1494 0.950 . S
H1468 C1497 0.950 . S
H1469 C1498 0.950 . S
H1470 C1500 0.950 . S
H1471 C1501 0.950 . S
C1472 H1454 0.951 . S
C1472 C1473 1.366 . S
C1472 C1474 1.388 . S
C1473 C1472 1.366 . S
C1473 C1477 1.385 . S
C1474 H1455 0.951 . S
C1474 C1472 1.388 . S
C1474 C1475 1.366 . S
C1475 C1474 1.366 . S
C1475 C1476 1.414 . S
C1475 C1478 1.499 . S
C1476 H1456 0.950 . S
C1476 C1475 1.414 . S
C1476 C1477 1.374 . S
C1477 H1457 0.950 . S
C1477 C1473 1.385 . S
C1477 C1476 1.374 . S
C1478 C1475 1.499 . S
C1478 C1479 1.373 . S
C1478 C1480 1.389 . S
C1479 H1458 0.950 . S
C1479 C1478 1.373 . S
C1479 C1495 1.377 . S
C1480 C1478 1.389 . S
C1480 C1481 1.524 . S
C1480 C1494 1.377 . S
C1481 C1480 1.524 . S
C1481 C1482 1.397 . S
C1481 C1486 1.363 . S
C1482 H1459 0.950 . S
C1482 C1481 1.397 . S
C1482 C1483 1.334 . S
C1483 H1460 0.950 . S
C1483 C1482 1.334 . S
C1483 C1484 1.287 . S
C1484 C1483 1.287 . S
C1484 C1485 1.524 . S
C1484 H1503 0.913 . S
C1485 H1461 0.950 . S
C1485 C1484 1.524 . S
C1485 C1486 1.415 . S
C1486 H1462 0.950 . S
C1486 C1481 1.363 . S
C1486 C1485 1.415 . S
C1487 H1463 0.951 . S
C1487 C1488 1.366 . S
C1487 C1489 1.388 . S
C1488 C1487 1.366 . S
C1488 C1492 1.385 . S
C1489 H1464 0.951 . S
C1489 C1487 1.388 . S
C1489 C1490 1.366 . S
C1490 C1489 1.366 . S
C1490 C1491 1.414 . S
C1490 C1493 1.499 . S
C1491 H1465 0.950 . S
C1491 C1490 1.414 . S
C1491 C1492 1.374 . S
C1492 H1466 0.950 . S
C1492 C1488 1.385 . S
C1492 C1491 1.374 . S
C1493 C1490 1.499 . S
C1493 C1494 1.373 . S
C1493 C1495 1.389 . S
C1494 H1467 0.950 . S
C1494 C1480 1.377 . S
C1494 C1493 1.373 . S
C1495 C1479 1.377 . S
C1495 C1493 1.389 . S
C1495 C1496 1.524 . S
C1496 C1495 1.524 . S
C1496 C1497 1.397 . S
C1496 C1501 1.363 . S
C1497 H1468 0.950 . S
C1497 C1496 1.397 . S
C1497 C1498 1.334 . S
C1498 H1469 0.950 . S
C1498 C1497 1.334 . S
C1498 C1499 1.287 . S
C1499 C1498 1.287 . S
C1499 C1500 1.524 . S
C1499 H1502 0.999 . S
C1500 H1470 0.950 . S
C1500 C1499 1.524 . S
C1500 C1501 1.415 . S
C1501 H1471 0.950 . S
C1501 C1496 1.363 . S
C1501 C1500 1.415 . S
H1502 C1499 0.999 . S
H1503 C1484 0.913 . S
C723 C497 1.500 . S
C738 C49 1.500 . S
C773 C645 1.500 . S
C788 C108 1.500 . S
C823 C233 1.500 . S
C838 C557 1.500 . S
C873 C321 1.500 . S
C888 C372 1.500 . S
C923 C548 1.500 . S
C938 C29 1.500 . S
C973 C117 1.500 . S
C988 C409 1.500 . S
C1023 C489 1.500 . S
C1038 C196 1.500 . S
C1073 C313 1.500 . S
C1088 C665 1.500 . S
C1123 C381 1.500 . S
C1138 C460 1.500 . S
C1173 C145 1.500 . S
C1188 C225 1.500 . S
C1223 C293 1.500 . S
C1238 C205 1.500 . S
C1273 C284 1.500 . S
C1288 C57 1.500 . S
C1323 C137 1.500 . S
C1338 C20 1.500 . S
C1373 C636 1.500 . S
C1388 C577 1.500 . S
C1423 C401 1.500 . S
C1438 C585 1.500 . S
C1473 C469 1.500 . S
C1488 C673 1.500 . S
