# Generated by pormake.
# Topology lhb, (8)-cn, num edge types: 1
# Building blocks:
#     Node 0, Type 0, BuildingBlock: OLANAS_clean_sbu_2, # of connection points: 8
#     Node 1, Type 0, BuildingBlock: OLANAS_clean_sbu_2, # of connection points: 8
#     Node 2, Type 0, BuildingBlock: OLANAS_clean_sbu_2, # of connection points: 8
#     Node 3, Type 0, BuildingBlock: OLANAS_clean_sbu_2, # of connection points: 8
#     Node 4, Type 0, BuildingBlock: OLANAS_clean_sbu_2, # of connection points: 8
#     Node 5, Type 0, BuildingBlock: OLANAS_clean_sbu_2, # of connection points: 8
#     Node 6, Type 0, BuildingBlock: OLANAS_clean_sbu_2, # of connection points: 8
#     Node 7, Type 0, BuildingBlock: OLANAS_clean_sbu_2, # of connection points: 8
#     Edge 8, Type (0, 0), BuildingBlock: OJICUG_clean_linker_0, # of connection points: 2
#     Edge 9, Type (0, 0), BuildingBlock: OJICUG_clean_linker_0, # of connection points: 2
#     Edge 10, Type (0, 0), BuildingBlock: OJICUG_clean_linker_0, # of connection points: 2
#     Edge 11, Type (0, 0), BuildingBlock: OJICUG_clean_linker_0, # of connection points: 2
#     Edge 12, Type (0, 0), BuildingBlock: OJICUG_clean_linker_0, # of connection points: 2
#     Edge 13, Type (0, 0), BuildingBlock: OJICUG_clean_linker_0, # of connection points: 2
#     Edge 14, Type (0, 0), BuildingBlock: OJICUG_clean_linker_0, # of connection points: 2
#     Edge 15, Type (0, 0), BuildingBlock: OJICUG_clean_linker_0, # of connection points: 2
#     Edge 16, Type (0, 0), BuildingBlock: OJICUG_clean_linker_0, # of connection points: 2
#     Edge 17, Type (0, 0), BuildingBlock: OJICUG_clean_linker_0, # of connection points: 2
#     Edge 18, Type (0, 0), BuildingBlock: OJICUG_clean_linker_0, # of connection points: 2
#     Edge 19, Type (0, 0), BuildingBlock: OJICUG_clean_linker_0, # of connection points: 2
#     Edge 20, Type (0, 0), BuildingBlock: OJICUG_clean_linker_0, # of connection points: 2
#     Edge 21, Type (0, 0), BuildingBlock: OJICUG_clean_linker_0, # of connection points: 2
#     Edge 22, Type (0, 0), BuildingBlock: OJICUG_clean_linker_0, # of connection points: 2
#     Edge 23, Type (0, 0), BuildingBlock: OJICUG_clean_linker_0, # of connection points: 2
#     Edge 24, Type (0, 0), BuildingBlock: OJICUG_clean_linker_0, # of connection points: 2
#     Edge 25, Type (0, 0), BuildingBlock: OJICUG_clean_linker_0, # of connection points: 2
#     Edge 26, Type (0, 0), BuildingBlock: OJICUG_clean_linker_0, # of connection points: 2
#     Edge 27, Type (0, 0), BuildingBlock: OJICUG_clean_linker_0, # of connection points: 2
#     Edge 28, Type (0, 0), BuildingBlock: OJICUG_clean_linker_0, # of connection points: 2
#     Edge 29, Type (0, 0), BuildingBlock: OJICUG_clean_linker_0, # of connection points: 2
#     Edge 30, Type (0, 0), BuildingBlock: OJICUG_clean_linker_0, # of connection points: 2
#     Edge 31, Type (0, 0), BuildingBlock: OJICUG_clean_linker_0, # of connection points: 2
#     Edge 32, Type (0, 0), BuildingBlock: OJICUG_clean_linker_0, # of connection points: 2
#     Edge 33, Type (0, 0), BuildingBlock: OJICUG_clean_linker_0, # of connection points: 2
#     Edge 34, Type (0, 0), BuildingBlock: OJICUG_clean_linker_0, # of connection points: 2
#     Edge 35, Type (0, 0), BuildingBlock: OJICUG_clean_linker_0, # of connection points: 2
#     Edge 36, Type (0, 0), BuildingBlock: OJICUG_clean_linker_0, # of connection points: 2
#     Edge 37, Type (0, 0), BuildingBlock: OJICUG_clean_linker_0, # of connection points: 2
#     Edge 38, Type (0, 0), BuildingBlock: OJICUG_clean_linker_0, # of connection points: 2
#     Edge 39, Type (0, 0), BuildingBlock: OJICUG_clean_linker_0, # of connection points: 2
# Relax obj value: 0.220
# Max RMSD: 0.285
# Mean RMSD: 0.285
data_MOF--net-lhb--node1-OLANAS_clean_sbu_2--edge1-OJICUG_clean_linker_0
_symmetry_space_group_name_H-M    P1
_symmetry_Int_Tables_number       1
_symmetry_cell_setting            triclinic
loop_
_symmetry_equiv_pos_as_xyz
'x, y, z'
_cell_length_a     24.086963
_cell_length_b     14.988591
_cell_length_c     51.857984
_cell_angle_alpha  89.989689
_cell_angle_beta   89.8975
_cell_angle_gamma 89.99166
loop_
_atom_site_label
_atom_site_type_symbol
_atom_site_fract_x
_atom_site_fract_y
_atom_site_fract_z
_atom_type_partial_charge
C0 C 0.04541 0.88978 0.00873 0.0
O1 O 0.05352 0.82815 0.02637 0.0
C2 C 0.09128 0.92769 -0.00654 0.0
C3 C 0.14756 0.90452 -0.00659 0.0
C4 C 0.18316 0.94948 0.97595 0.0
C5 C 0.16213 1.01521 0.95895 0.0
C6 C 0.10534 0.03446 0.96008 0.0
N7 N 0.07429 0.99133 0.97737 0.0
N8 N 0.0028 0.10859 0.0028 0.0
Co9 Co 0.99952 1.01487 0.97688 0.0
N10 N 0.92473 0.0385 0.97586 0.0
C11 C 0.84994 0.12592 -0.00988 0.0
C12 C 0.81589 0.07918 0.97245 0.0
C13 C 0.83847 1.01221 0.95628 0.0
C14 C 0.8952 0.99363 0.95843 0.0
C15 C 0.90624 0.10323 -0.00877 0.0
N16 N 0.98399 0.92523 0.95091 0.0
N17 N 0.99377 0.92378 0.00353 0.0
N18 N 0.01737 0.10181 0.95042 0.0
C19 C 0.95071 0.14271 0.00692 0.0
O20 O 0.9412 0.20697 0.02361 0.0
C21 C 0.07283 0.09839 0.94468 0.0
O22 O 0.09604 0.15312 0.92803 0.0
C23 C 0.98153 0.17189 0.94171 0.0
C24 C 0.95649 0.32935 0.93995 0.0
C25 C 0.98961 0.26031 0.94995 0.0
C26 C 0.94227 0.15337 0.92271 0.0
C27 C 0.90795 0.22101 0.91287 0.0
C28 C 0.91277 0.3073 0.92318 0.0
C29 C 0.929 0.92809 0.94423 0.0
O30 O 0.90714 0.87159 0.92773 0.0
C31 C 0.01964 0.85273 0.94375 0.0
C32 C 0.05981 0.86638 0.92467 0.0
C33 C 0.08928 0.7941 0.91418 0.0
C34 C 0.07987 0.70831 0.92412 0.0
C35 C 0.03718 0.6928 0.94201 0.0
C36 C 0.00806 0.76562 0.95233 0.0
C37 C 0.94622 0.90604 0.01938 0.0
C38 C 0.89742 0.86999 0.00879 0.0
C39 C 0.84944 0.86268 0.02399 0.0
C40 C 0.85134 0.88783 0.04998 0.0
C41 C 0.90083 0.91772 0.06099 0.0
C42 C 0.94835 0.9257 0.04579 0.0
C43 C 0.04963 0.13334 0.01822 0.0
C44 C 0.13945 0.18232 0.04922 0.0
C45 C 0.09273 0.14277 0.06038 0.0
C46 C 0.04782 0.11897 0.04491 0.0
C47 C 0.09591 0.17606 0.0072 0.0
C48 C 0.14126 0.19928 0.02269 0.0
H49 H 0.16344 0.85335 0.00614 0.0
H50 H 0.22688 0.93294 0.97546 0.0
H51 H 0.18918 0.04903 0.94543 0.0
H52 H 0.83289 0.17795 0.00224 0.0
H53 H 0.77217 0.0952 0.97118 0.0
H54 H 0.8126 0.97684 0.94265 0.0
H55 H 0.02367 0.2755 0.96282 0.0
H56 H 0.94166 0.08708 0.91448 0.0
H57 H 0.88579 0.35986 0.91623 0.0
H58 H 0.06382 0.93225 0.91632 0.0
H59 H 0.10123 0.65161 0.91571 0.0
H60 H 0.97342 0.75426 0.96528 0.0
H61 H 0.89665 0.84766 -0.01099 0.0
H62 H 0.81438 0.88227 0.06187 0.0
H63 H 0.98666 0.94829 0.0544 0.0
H64 H 0.17477 0.19946 0.06121 0.0
H65 H 0.01127 0.09025 0.05368 0.0
H66 H 0.09642 0.1929 -0.01301 0.0
C67 C 0.20441 0.1326 0.25737 0.0
O68 O 0.19639 0.06753 0.27397 0.0
C69 C 0.15883 0.17137 0.2422 0.0
C70 C 0.10296 0.14606 0.24117 0.0
C71 C 0.06777 0.19213 0.22383 0.0
C72 C 0.08884 0.26096 0.20787 0.0
C73 C 0.14523 0.28213 0.20992 0.0
N74 N 0.17582 0.23794 0.2271 0.0
N75 N 0.24454 0.35304 0.25484 0.0
Co76 Co 0.25032 0.2639 0.22763 0.0
N77 N 0.32479 0.28962 0.22765 0.0
C78 C 0.39802 0.37526 0.24419 0.0
C79 C 0.43359 0.33179 0.22639 0.0
C80 C 0.41259 0.26711 0.20905 0.0
C81 C 0.35585 0.24752 0.21015 0.0
C82 C 0.34179 0.35186 0.24418 0.0
N83 N 0.26816 0.17912 0.20062 0.0
N84 N 0.25584 0.16876 0.25298 0.0
N85 N 0.23275 0.35442 0.20219 0.0
C86 C 0.29606 0.38756 0.25999 0.0
O87 O 0.3041 0.44844 0.27785 0.0
C88 C 0.1777 0.34945 0.19572 0.0
O89 O 0.15459 0.40566 0.17949 0.0
C90 C 0.26715 0.42852 0.19507 0.0
C91 C 0.28221 0.58916 0.19381 0.0
C92 C 0.25448 0.51481 0.20402 0.0
C93 C 0.30684 0.41732 0.17563 0.0
C94 C 0.33462 0.49131 0.16513 0.0
C95 C 0.32438 0.57619 0.17552 0.0
C96 C 0.32349 0.18354 0.19469 0.0
O97 O 0.34667 0.12996 0.17774 0.0
C98 C 0.2322 0.10989 0.19153 0.0
C99 C 0.19342 0.12963 0.17244 0.0
C100 C 0.15774 0.06344 0.16287 0.0
C101 C 0.16081 0.9774 0.17352 0.0
C102 C 0.20425 0.95354 0.1903 0.0
C103 C 0.23879 1.02144 0.19999 0.0
C104 C 0.30335 0.1468 0.26828 0.0
C105 C 0.35032 0.10612 0.25721 0.0
C106 C 0.39699 0.08821 0.27248 0.0
C107 C 0.39582 0.10858 0.29881 0.0
C108 C 0.34838 0.14561 0.31003 0.0
C109 C 0.30212 0.16384 0.29483 0.0
C110 C 0.19664 0.37152 0.27043 0.0
C111 C 0.10114 0.39317 0.30045 0.0
C112 C 0.15005 0.36266 0.31187 0.0
C113 C 0.19791 0.35283 0.29695 0.0
C114 C 0.14843 0.40839 0.25951 0.0
C115 C 0.10014 0.41726 0.27439 0.0
H116 H 0.08713 0.0924 0.25306 0.0
H117 H 0.02437 0.174 0.22261 0.0
H118 H 0.06215 0.29562 0.19442 0.0
H119 H 0.41394 0.42527 0.25728 0.0
H120 H 0.47729 0.34843 0.22597 0.0
H121 H 0.43966 0.23409 0.19539 0.0
H122 H 0.22007 0.52436 0.21721 0.0
H123 H 0.31165 0.35199 0.167 0.0
H124 H 0.34437 0.63415 0.1671 0.0
H125 H 0.19385 0.19581 0.16413 0.0
H126 H 0.13217 0.92658 0.16697 0.0
H127 H 0.27252 1.00557 0.21298 0.0
H128 H 0.35044 0.0874 0.23711 0.0
H129 H 0.43204 0.09548 0.31065 0.0
H130 H 0.26514 0.19088 0.30363 0.0
H131 H 0.06393 0.40024 0.31212 0.0
H132 H 0.2358 0.3299 0.30588 0.0
H133 H 0.14833 0.43045 0.23971 0.0
C134 C 0.70594 0.64658 0.25832 0.0
O135 O 0.69622 0.58286 0.27517 0.0
C136 C 0.66166 0.68563 0.24241 0.0
C137 C 0.60529 0.66344 0.24136 0.0
C138 C 0.57143 0.70987 0.22353 0.0
C139 C 0.59426 0.77611 0.20718 0.0
C140 C 0.65105 0.79421 0.20929 0.0
N141 N 0.68041 0.74956 0.22683 0.0
N142 N 0.74903 0.86496 0.25439 0.0
Co143 Co 0.75516 0.77317 0.22799 0.0
N144 N 0.82991 0.7967 0.22866 0.0
C145 C 0.90292 0.88402 0.24469 0.0
C146 C 0.93873 0.83885 0.22737 0.0
C147 C 0.91792 0.77277 0.21043 0.0
C148 C 0.86115 0.75337 0.21148 0.0
C149 C 0.84667 0.86067 0.24469 0.0
N150 N 0.77333 0.68555 0.20176 0.0
N151 N 0.75812 0.68029 0.25419 0.0
N152 N 0.73999 0.86208 0.20178 0.0
C153 C 0.80058 0.8989 0.25975 0.0
O154 O 0.80838 0.96089 0.27731 0.0
C155 C 0.68507 0.85924 0.19499 0.0
O156 O 0.6634 0.91561 0.17839 0.0
C157 C 0.77574 0.93447 0.19465 0.0
C158 C 0.7938 0.09427 0.1932 0.0
C159 C 0.76452 1.02146 0.20343 0.0
C160 C 0.81559 0.92096 0.17543 0.0
C161 C 0.84506 0.99329 0.16496 0.0
C162 C 0.83627 0.07881 0.17521 0.0
C163 C 0.82883 0.68911 0.1961 0.0
O164 O 0.85226 0.63417 0.17959 0.0
C165 C 0.7376 0.61526 0.19308 0.0
C166 C 0.69809 0.63354 0.17415 0.0
C167 C 0.66378 0.5657 0.16442 0.0
C168 C 0.66898 0.47942 0.17469 0.0
C169 C 0.71293 0.45763 0.19136 0.0
C170 C 0.74597 0.52685 0.2013 0.0
C171 C 0.80495 0.65495 0.26955 0.0
C172 C 0.85061 0.61064 0.2585 0.0
C173 C 0.89557 0.58539 0.27396 0.0
C174 C 0.8941 0.60216 0.30049 0.0
C175 C 0.84815 0.64383 0.3117 0.0
C176 C 0.80358 0.66966 0.29625 0.0
C177 C 0.701 0.88359 0.26982 0.0
C178 C 0.60469 0.9016 0.29942 0.0
C179 C 0.65363 0.87142 0.31092 0.0
C180 C 0.70187 0.86355 0.29622 0.0
C181 C 0.65281 0.92016 0.25879 0.0
C182 C 0.60411 0.92733 0.27347 0.0
H183 H 0.58803 0.61208 0.25366 0.0
H184 H 0.52766 0.69426 0.22231 0.0
H185 H 0.56851 0.81137 0.19347 0.0
H186 H 0.91862 0.93549 0.25736 0.0
H187 H 0.98243 0.85552 0.22692 0.0
H188 H 0.94512 0.7388 0.19701 0.0
H189 H 0.73003 0.03282 0.21646 0.0
H190 H 0.81925 0.85522 0.16694 0.0
H191 H 0.85771 0.13555 0.16687 0.0
H192 H 0.69716 0.69977 0.16588 0.0
H193 H 0.64207 0.42672 0.16779 0.0
H194 H 0.78016 0.51178 0.2141 0.0
H195 H 0.85086 0.5939 0.23828 0.0
H196 H 0.92918 0.58346 0.31244 0.0
H197 H 0.76758 0.7 0.30505 0.0
H198 H 0.56716 0.90714 0.31093 0.0
H199 H 0.73971 0.84049 0.30516 0.0
H200 H 0.65302 0.94277 0.23903 0.0
C201 C 0.05161 0.39599 0.51082 0.0
O202 O 0.05921 0.33439 0.52852 0.0
C203 C 0.09755 0.43109 0.49501 0.0
C204 C 0.15357 0.40638 0.49483 0.0
C205 C 0.18935 0.44959 0.47707 0.0
C206 C 0.16877 0.51533 0.45994 0.0
C207 C 0.11222 0.53626 0.46121 0.0
N208 N 0.08098 0.49431 0.47868 0.0
N209 N 0.01377 0.61582 0.5048 0.0
Co210 Co 0.00682 0.52219 0.479 0.0
N211 N 0.93265 0.55024 0.47885 0.0
C212 C 0.8608 0.64236 0.49386 0.0
C213 C 0.8248 0.59779 0.47656 0.0
C214 C 0.84494 0.52943 0.46017 0.0
C215 C 0.90125 0.50724 0.46174 0.0
C216 C 0.91655 0.61615 0.4944 0.0
N217 N 0.98799 0.43343 0.45327 0.0
N218 N 1.00039 0.43188 0.50583 0.0
N219 N 0.02517 0.60774 0.45227 0.0
C220 C 0.96277 0.65291 0.5096 0.0
O221 O 0.95564 0.71689 0.52662 0.0
C222 C 0.08031 0.60185 0.44608 0.0
O223 O 0.10372 0.65504 0.42909 0.0
C224 C 0.98932 0.67689 0.44299 0.0
C225 C 0.96122 0.83316 0.44155 0.0
C226 C 0.99573 0.76542 0.45141 0.0
C227 C 0.95087 0.65696 0.42376 0.0
C228 C 0.91515 0.72295 0.41408 0.0
C229 C 0.91796 0.80901 0.42471 0.0
C230 C 0.93281 0.43973 0.44714 0.0
O231 O 0.90884 0.38454 0.43091 0.0
C232 C 0.0218 0.35902 0.44578 0.0
C233 C 0.06143 0.37028 0.42631 0.0
C234 C 0.0897 0.29642 0.41598 0.0
C235 C 0.07983 0.21167 0.42656 0.0
C236 C 0.0375 0.19853 0.44475 0.0
C237 C 0.00934 0.27274 0.4548 0.0
C238 C 0.95227 0.41374 0.52129 0.0
C239 C 0.9041 0.37702 0.51028 0.0
C240 C 0.85549 0.36917 0.52499 0.0
C241 C 0.85607 0.39448 0.55096 0.0
C242 C 0.90488 0.42508 0.56245 0.0
C243 C 0.9531 0.43358 0.54772 0.0
C244 C 0.06199 0.63522 0.51994 0.0
C245 C 0.15833 0.65747 0.54912 0.0
C246 C 0.10991 0.62644 0.56093 0.0
C247 C 0.0616 0.6165 0.54644 0.0
C248 C 0.10972 0.67226 0.50855 0.0
C249 C 0.1584 0.68169 0.52305 0.0
H250 H 0.16917 0.35558 0.50776 0.0
H251 H 0.2329 0.43196 0.47652 0.0
H252 H 0.19602 0.54821 0.44632 0.0
H253 H 0.84563 0.69546 0.50613 0.0
H254 H 0.78146 0.61659 0.47573 0.0
H255 H 0.81758 0.49578 0.4468 0.0
H256 H 0.02926 0.78146 0.46449 0.0
H257 H 0.95151 0.59077 0.41547 0.0
H258 H 0.88925 0.85968 0.41812 0.0
H259 H 0.06608 0.43559 0.41765 0.0
H260 H 0.10036 0.15378 0.41838 0.0
H261 H 0.97502 0.26304 0.46802 0.0
H262 H 0.90421 0.3546 0.49052 0.0
H263 H 0.81857 0.38851 0.56248 0.0
H264 H 0.99087 0.4566 0.55669 0.0
H265 H 0.1959 0.66471 0.56046 0.0
H266 H 0.02405 0.59329 0.55564 0.0
H267 H 0.10911 0.69373 0.48868 0.0
C268 C 0.20815 0.65148 0.76007 0.0
O269 O 0.20058 0.58938 0.77764 0.0
C270 C 0.16228 0.6864 0.74425 0.0
C271 C 0.10634 0.66127 0.74402 0.0
C272 C 0.07059 0.70454 0.72631 0.0
C273 C 0.09113 0.77075 0.70929 0.0
C274 C 0.14759 0.7921 0.71062 0.0
N275 N 0.17881 0.75003 0.72802 0.0
N276 N 0.24504 0.87197 0.7544 0.0
Co277 Co 0.25283 0.77877 0.7285 0.0
N278 N 0.32687 0.80764 0.72849 0.0
C279 C 0.39798 0.90081 0.74358 0.0
C280 C 0.43444 0.85686 0.72628 0.0
C281 C 0.41489 0.78828 0.70984 0.0
C282 C 0.35871 0.76521 0.71138 0.0
C283 C 0.34239 0.87377 0.74406 0.0
N284 N 0.27243 0.69066 0.70269 0.0
N285 N 0.25929 0.688 0.7552 0.0
N286 N 0.23447 0.86464 0.70188 0.0
C287 C 0.29577 0.90978 0.75924 0.0
O288 O 0.30242 0.97332 0.77643 0.0
C289 C 0.1794 0.85845 0.69567 0.0
O290 O 0.15599 0.91165 0.67871 0.0
C291 C 0.27026 0.93395 0.69259 0.0
C292 C 0.29796 0.09035 0.69103 0.0
C293 C 0.26359 0.02253 0.70097 0.0
C294 C 0.30877 0.91422 0.67328 0.0
C295 C 0.34428 0.98044 0.66352 0.0
C296 C 0.34139 0.06637 0.67421 0.0
C297 C 0.32766 0.69753 0.69666 0.0
O298 O 0.35205 0.64297 0.68034 0.0
C299 C 0.23874 0.61669 0.69482 0.0
C300 C 0.1996 0.629 0.67526 0.0
C301 C 0.1712 0.55584 0.66469 0.0
C302 C 0.18054 0.47064 0.67503 0.0
C303 C 0.22235 0.45643 0.69335 0.0
C304 C 0.2506 0.53002 0.70369 0.0
C305 C 0.30734 0.6696 0.77061 0.0
C306 C 0.35563 0.63313 0.75953 0.0
C307 C 0.4041 0.62482 0.77426 0.0
C308 C 0.40327 0.64964 0.80027 0.0
C309 C 0.35432 0.67983 0.81181 0.0
C310 C 0.30622 0.68845 0.7971 0.0
C311 C 0.19686 0.88878 0.76991 0.0
C312 C 0.10022 0.90141 0.7995 0.0
C313 C 0.14968 0.87353 0.81099 0.0
C314 C 0.19813 0.86871 0.79631 0.0
C315 C 0.14799 0.923 0.75889 0.0
C316 C 0.09913 0.92752 0.77358 0.0
H317 H 0.09077 0.61017 0.75688 0.0
H318 H 0.02709 0.68662 0.72573 0.0
H319 H 0.06389 0.80373 0.69573 0.0
H320 H 0.4127 0.9541 0.75587 0.0
H321 H 0.47766 0.87636 0.72547 0.0
H322 H 0.44258 0.75518 0.69646 0.0
H323 H 0.22995 0.03856 0.71406 0.0
H324 H 0.30826 0.84806 0.66496 0.0
H325 H 0.36989 0.1173 0.66755 0.0
H326 H 0.19534 0.69463 0.66677 0.0
H327 H 0.1599 0.4133 0.66663 0.0
H328 H 0.28449 0.51958 0.71705 0.0
H329 H 0.35566 0.61107 0.73974 0.0
H330 H 0.44061 0.64326 0.81182 0.0
H331 H 0.26828 0.71074 0.80614 0.0
H332 H 0.0626 0.90474 0.81101 0.0
H333 H 0.23644 0.84792 0.80525 0.0
H334 H 0.1478 0.94557 0.73912 0.0
C335 C 0.70121 0.14589 0.75685 0.0
O336 O 0.69129 0.08134 0.7734 0.0
C337 C 0.65693 0.18711 0.74142 0.0
C338 C 0.60059 0.16488 0.74009 0.0
C339 C 0.56691 0.21242 0.72244 0.0
C340 C 0.58993 0.27957 0.70647 0.0
C341 C 0.64669 0.29758 0.70882 0.0
N342 N 0.67582 0.25224 0.72629 0.0
N343 N 0.74702 0.36354 0.75389 0.0
Co344 Co 0.75092 0.27323 0.72699 0.0
N345 N 0.82602 0.29412 0.72716 0.0
C346 C 0.90083 0.37756 0.74312 0.0
C347 C 0.93543 0.33204 0.72536 0.0
C348 C 0.91312 0.26772 0.70827 0.0
C349 C 0.8561 0.25053 0.70961 0.0
C350 C 0.84426 0.35637 0.74339 0.0
N351 N 0.76709 0.18642 0.70027 0.0
N352 N 0.75358 0.17876 0.75266 0.0
N353 N 0.73603 0.36403 0.70123 0.0
C354 C 0.79927 0.3954 0.75894 0.0
O355 O 0.80853 0.45734 0.77636 0.0
C356 C 0.68104 0.36209 0.69451 0.0
O357 O 0.65953 0.41931 0.6781 0.0
C358 C 0.7717 0.43721 0.69461 0.0
C359 C 0.78811 0.59753 0.69341 0.0
C360 C 0.75928 0.52386 0.70334 0.0
C361 C 0.81253 0.42498 0.67575 0.0
C362 C 0.84175 0.49823 0.66564 0.0
C363 C 0.83145 0.58348 0.67579 0.0
C364 C 0.82244 0.18819 0.69424 0.0
O365 O 0.8446 0.13283 0.67747 0.0
C366 C 0.73055 0.11684 0.69191 0.0
C367 C 0.6914 0.13547 0.6729 0.0
C368 C 0.65721 0.06788 0.66298 0.0
C369 C 0.6618 0.98154 0.6733 0.0
C370 C 0.70518 0.95944 0.69028 0.0
C371 C 0.73832 0.02849 0.70027 0.0
C372 C 0.80015 0.15326 0.76813 0.0
C373 C 0.84625 0.10977 0.75718 0.0
C374 C 0.8911 0.08505 0.77279 0.0
C375 C 0.88899 0.10142 0.79934 0.0
C376 C 0.84263 0.14245 0.81038 0.0
C377 C 0.79827 0.16795 0.7948 0.0
C378 C 0.69966 0.3874 0.76921 0.0
C379 C 0.60996 0.43866 0.8002 0.0
C380 C 0.65602 0.39739 0.81136 0.0
C381 C 0.70074 0.37194 0.79589 0.0
C382 C 0.65384 0.43132 0.75821 0.0
C383 C 0.60859 0.45572 0.77368 0.0
H384 H 0.58327 0.11238 0.75196 0.0
H385 H 0.52319 0.19665 0.72096 0.0
H386 H 0.56441 0.31523 0.69275 0.0
H387 H 0.91769 0.42764 0.75594 0.0
H388 H 0.97936 0.34699 0.72471 0.0
H389 H 0.93941 0.23337 0.69454 0.0
H390 H 0.72417 0.5344 0.71604 0.0
H391 H 0.8172 0.35951 0.66721 0.0
H392 H 0.85255 0.64094 0.66768 0.0
H393 H 0.69096 0.20171 0.66461 0.0
H394 H 0.63489 0.92916 0.6662 0.0
H395 H 0.77232 1.01335 0.71318 0.0
H396 H 0.84697 0.09356 0.73691 0.0
H397 H 0.924 0.08334 0.81142 0.0
H398 H 0.76212 0.19852 0.80343 0.0
H399 H 0.5748 0.45711 0.81219 0.0
H400 H 0.73671 0.34147 0.80466 0.0
H401 H 0.6537 0.44859 0.73803 0.0
C402 C 0.55498 0.90415 0.50873 0.0
O403 O 0.56407 0.84272 0.52634 0.0
C404 C 0.6001 0.94243 0.49311 0.0
C405 C 0.65672 0.92156 0.49313 0.0
C406 C 0.69154 0.96668 0.47537 0.0
C407 C 0.66941 0.03037 0.45803 0.0
C408 C 0.61233 0.04731 0.4591 0.0
N409 N 0.58201 1.00397 0.47662 0.0
N410 N 0.50987 0.1208 0.50172 0.0
Co411 Co 0.50696 0.02548 0.47635 0.0
N412 N 0.43191 0.04714 0.47555 0.0
C413 C 0.35707 0.13628 0.48887 0.0
C414 C 0.32331 0.08861 0.47129 0.0
C415 C 0.34611 1.02058 0.45557 0.0
C416 C 0.40274 1.0018 0.4581 0.0
C417 C 0.41327 0.11322 0.4904 0.0
N418 N 0.49183 0.93406 0.45085 0.0
N419 N 0.5028 0.93604 0.50353 0.0
N420 N 0.52345 0.11133 0.44941 0.0
C421 C 0.45765 0.15451 0.50574 0.0
O422 O 0.44789 0.21933 0.52221 0.0
C423 C 0.57889 0.1095 0.44357 0.0
O424 O 0.60129 0.16457 0.42678 0.0
C425 C 0.48706 0.18086 0.44087 0.0
C426 C 0.46119 0.3381 0.43936 0.0
C427 C 0.49465 0.26921 0.44924 0.0
C428 C 0.44779 0.162 0.42193 0.0
C429 C 0.41325 0.22936 0.41215 0.0
C430 C 0.41775 0.31573 0.42243 0.0
C431 C 0.43692 0.93653 0.444 0.0
O432 O 0.41533 0.87922 0.42765 0.0
C433 C 0.52737 0.86072 0.4443 0.0
C434 C 0.5678 0.87251 0.42525 0.0
C435 C 0.59629 0.7989 0.41494 0.0
C436 C 0.58612 0.71383 0.42522 0.0
C437 C 0.54326 0.70023 0.4431 0.0
C438 C 0.51488 0.77421 0.45314 0.0
C439 C 0.45524 0.91255 0.51876 0.0
C440 C 0.40916 0.86999 0.5076 0.0
C441 C 0.36317 0.84767 0.52284 0.0
C442 C 0.36416 0.86486 0.54935 0.0
C443 C 0.41065 0.90404 0.56073 0.0
C444 C 0.45609 0.92764 0.54547 0.0
C445 C 0.55615 0.14429 0.5176 0.0
C446 C 0.64541 0.18843 0.54949 0.0
C447 C 0.59783 0.14959 0.56007 0.0
C448 C 0.55324 0.12818 0.54417 0.0
C449 C 0.6033 0.18617 0.50712 0.0
C450 C 0.64836 0.2071 0.52307 0.0
H451 H 0.67347 0.87212 0.50619 0.0
H452 H 0.73552 0.95199 0.47496 0.0
H453 H 0.6959 0.06456 0.44435 0.0
H454 H 0.33996 0.18954 0.50051 0.0
H455 H 0.2797 0.10502 0.46965 0.0
H456 H 0.32055 0.98491 0.44187 0.0
H457 H 0.52864 0.28436 0.46215 0.0
H458 H 0.44729 0.09573 0.41367 0.0
H459 H 0.39046 0.36778 0.41542 0.0
H460 H 0.57245 0.93787 0.41661 0.0
H461 H 0.6066 0.65619 0.41686 0.0
H462 H 0.47995 0.76404 0.46598 0.0
H463 H 0.40927 0.85234 0.48746 0.0
H464 H 0.32843 0.84799 0.56117 0.0
H465 H 0.49233 0.95659 0.55442 0.0
H466 H 0.68045 0.20375 0.56185 0.0
H467 H 0.51614 0.0995 0.55246 0.0
H468 H 0.60472 0.20369 0.48693 0.0
C469 C 0.5419 0.39662 0.0097 0.0
O470 O 0.54929 0.33318 0.02687 0.0
C471 C 0.5881 0.4344 -0.00538 0.0
C472 C 0.64402 0.40913 -0.00585 0.0
C473 C 0.67991 0.4541 0.97682 0.0
C474 C 0.65949 0.52188 0.96034 0.0
C475 C 0.60302 0.54313 0.96185 0.0
N476 N 0.57174 0.49992 0.97902 0.0
N477 N 0.50182 0.61659 0.00549 0.0
Co478 Co 0.49726 0.52567 0.97879 0.0
N479 N 0.42277 0.55127 0.97807 0.0
C480 C 0.34876 0.63768 -0.00638 0.0
C481 C 0.31403 0.59321 0.97574 0.0
C482 C 0.33586 0.52769 0.95885 0.0
C483 C 0.39256 0.50826 0.96049 0.0
C484 C 0.40499 0.61435 -0.00582 0.0
N485 N 0.48065 0.43905 0.95212 0.0
N486 N 0.49065 0.43234 0.0047 0.0
N487 N 0.51576 0.61451 0.95299 0.0
C488 C 0.45003 0.65115 0.01012 0.0
O489 O 0.44128 0.71376 0.02741 0.0
C490 C 0.57108 0.60928 0.94696 0.0
O491 O 0.59486 0.66472 0.93069 0.0
C492 C 0.48161 0.68848 0.9455 0.0
C493 C 0.46539 0.84886 0.94425 0.0
C494 C 0.49363 0.77502 0.95442 0.0
C495 C 0.44208 0.67659 0.92609 0.0
C496 C 0.41366 0.75006 0.91568 0.0
C497 C 0.42328 0.83511 0.92607 0.0
C498 C 0.42563 0.44332 0.94565 0.0
O499 O 0.40327 0.38904 0.92868 0.0
C500 C 0.5171 0.36983 0.94336 0.0
C501 C 0.55595 0.38908 0.92416 0.0
C502 C 0.59116 0.32233 0.91444 0.0
C503 C 0.58779 0.23644 0.92515 0.0
C504 C 0.54419 0.21313 0.94195 0.0
C505 C 0.51007 0.28139 0.95179 0.0
C506 C 0.4425 0.413 0.01997 0.0
C507 C 0.39482 0.37552 0.00873 0.0
C508 C 0.34614 0.36626 0.02333 0.0
C509 C 0.34619 0.39108 0.04935 0.0
C510 C 0.39458 0.42259 0.06102 0.0
C511 C 0.44285 0.4325 0.04641 0.0
C512 C 0.5494 0.63938 0.02073 0.0
C513 C 0.64107 0.68353 0.05121 0.0
C514 C 0.59429 0.64489 0.06256 0.0
C515 C 0.54847 0.62334 0.04738 0.0
C516 C 0.59589 0.68122 0.00958 0.0
C517 C 0.64211 0.70202 0.02478 0.0
H518 H 0.65938 0.3563 0.00645 0.0
H519 H 0.72336 0.43594 0.97601 0.0
H520 H 0.68674 0.55566 0.9469 0.0
H521 H 0.33223 0.6884 0.00635 0.0
H522 H 0.27034 0.60975 0.9749 0.0
H523 H 0.30943 0.49388 0.94512 0.0
H524 H 0.52776 0.78535 0.96763 0.0
H525 H 0.43767 0.61114 0.91751 0.0
H526 H 0.40272 0.89269 0.91775 0.0
H527 H 0.55569 0.45515 0.91578 0.0
H528 H 0.61596 0.18503 0.91848 0.0
H529 H 0.47612 0.26573 0.96475 0.0
H530 H 0.39547 0.35369 -0.01111 0.0
H531 H 0.30865 0.38385 0.06078 0.0
H532 H 0.48033 0.45642 0.05547 0.0
H533 H 0.67704 0.69887 0.06299 0.0
H534 H 0.51205 0.5948 0.0563 0.0
H535 H 0.59603 0.69917 -0.01053 0.0
C536 C 0.10607 0.03131 0.09478 0.0
C537 C 0.09401 0.11925 0.08782 0.0
H538 H 0.13669 0.94454 0.12376 0.0
C539 C 0.09284 0.18599 0.10672 0.0
H540 H 0.10743 0.97923 0.08029 0.0
C541 C 0.10773 0.16598 0.1321 0.0
C542 C 0.12604 0.0796 0.13865 0.0
H543 H 0.08334 0.25433 0.10154 0.0
H544 H 0.10829 0.21948 0.14612 0.0
C545 C 0.12242 1.01164 0.1199 0.0
C546 C 0.91554 0.88561 0.1076 0.0
C547 C 0.90064 0.94564 0.08808 0.0
H548 H 0.91117 0.85505 0.14797 0.0
C549 C 0.87617 0.0272 0.09449 0.0
H550 H 0.93423 0.82198 0.10281 0.0
C551 C 0.8625 0.04585 0.11999 0.0
C552 C 0.87312 0.98303 0.1396 0.0
H553 H 0.86402 0.07372 0.07952 0.0
H554 H 0.83933 0.10631 0.12384 0.0
C555 C 0.90206 0.90436 0.1333 0.0
C556 C 0.14849 0.3816 0.38409 0.0
C557 C 0.11819 0.3045 0.39063 0.0
H558 H 0.18326 0.46027 0.35338 0.0
C559 C 0.10742 0.24069 0.37132 0.0
H560 H 0.15775 0.43165 0.39852 0.0
C561 C 0.1226 0.2567 0.34584 0.0
C562 C 0.14873 0.33663 0.33913 0.0
H563 H 0.08317 0.18147 0.37533 0.0
H564 H 0.11034 0.20952 0.33107 0.0
C565 C 0.16348 0.39772 0.35841 0.0
C566 C 0.86214 0.7551 0.34613 0.0
C567 C 0.85006 0.66716 0.33917 0.0
H568 H 0.89334 0.84178 0.37498 0.0
C569 C 0.8497 0.60023 0.35803 0.0
H570 H 0.863 0.80733 0.33167 0.0
C571 C 0.86523 0.62009 0.38334 0.0
C572 C 0.88339 0.70655 0.38987 0.0
H573 H 0.84025 0.53186 0.35287 0.0
H574 H 0.86625 0.56647 0.39733 0.0
C575 C 0.87916 0.77461 0.37116 0.0
C576 C 0.13872 0.51968 0.59442 0.0
C577 C 0.11219 0.59964 0.5881 0.0
H578 H 0.17841 0.44328 0.62354 0.0
C579 C 0.09733 0.6597 0.60765 0.0
H580 H 0.15102 0.47329 0.57942 0.0
C581 C 0.11248 0.64247 0.63323 0.0
C582 C 0.14296 0.56523 0.63939 0.0
H583 H 0.0772 0.72223 0.60293 0.0
H584 H 0.10308 0.6917 0.64789 0.0
C585 C 0.154 0.50253 0.61979 0.0
C586 C 0.90167 0.41111 0.63471 0.0
C587 C 0.87147 0.48889 0.64065 0.0
H588 H 0.93679 0.32997 0.60464 0.0
C589 C 0.86159 0.55167 0.62095 0.0
H590 H 0.91026 0.36184 0.64946 0.0
C591 C 0.87732 0.53379 0.59565 0.0
C592 C 0.90312 0.45301 0.58953 0.0
H593 H 0.83749 0.61141 0.62449 0.0
H594 H 0.86566 0.58012 0.58055 0.0
C595 C 0.9172 0.39309 0.60922 0.0
C596 C 0.16295 0.90307 0.85785 0.0
C597 C 0.14844 0.84425 0.83796 0.0
H598 H 0.15694 0.93195 0.89828 0.0
C599 C 0.12308 0.76289 0.84386 0.0
H600 H 0.18227 0.96656 0.85347 0.0
C601 C 0.10816 0.74336 0.86916 0.0
C602 C 0.11836 0.80508 0.88909 0.0
H603 H 0.11121 0.7173 0.82861 0.0
H604 H 0.08441 0.68319 0.87258 0.0
C605 C 0.14814 0.88346 0.88335 0.0
C606 C 0.85781 0.25386 0.84455 0.0
C607 C 0.84406 0.16644 0.83777 0.0
H608 H 0.88991 0.33974 0.87335 0.0
C609 C 0.84142 0.10025 0.8568 0.0
H610 H 0.86037 0.30546 0.82994 0.0
C611 C 0.85643 0.12015 0.88217 0.0
C612 C 0.87634 0.20574 0.88857 0.0
H613 H 0.83064 0.0323 0.85175 0.0
H614 H 0.85582 0.06701 0.89632 0.0
C615 C 0.87431 0.27332 0.86964 0.0
C616 C 0.60631 0.16862 0.6321 0.0
C617 C 0.62655 0.0832 0.63845 0.0
H618 H 0.5819 0.25735 0.60163 0.0
C619 C 0.62645 1.01644 0.61928 0.0
H620 H 0.60438 0.22105 0.64643 0.0
C621 C 0.61175 0.03681 0.594 0.0
C622 C 0.59774 0.12427 0.58736 0.0
H623 H 0.64233 0.95019 0.62303 0.0
H624 H 0.61583 0.986 0.57924 0.0
C625 C 0.59295 0.18941 0.60659 0.0
C626 C 0.39622 1.01432 0.59538 0.0
C627 C 0.40869 0.92672 0.58823 0.0
H628 H 0.36496 0.10008 0.62448 0.0
C629 C 0.40948 0.85936 0.60697 0.0
H630 H 0.39502 0.06684 0.58101 0.0
C631 C 0.39406 0.8785 0.63237 0.0
C632 C 0.37568 0.96467 0.63912 0.0
H633 H 0.41918 0.79122 0.60164 0.0
H634 H 0.39336 0.82458 0.64627 0.0
C635 C 0.37939 0.03313 0.6205 0.0
C636 C 0.6409 0.42349 0.88306 0.0
C637 C 0.62237 0.33753 0.88995 0.0
H638 H 0.66561 0.51038 0.85217 0.0
C639 C 0.62551 0.26891 0.87136 0.0
H640 H 0.64065 0.4775 0.89693 0.0
C641 C 0.64188 0.28742 0.84615 0.0
C642 C 0.65439 0.3749 0.83888 0.0
H643 H 0.61098 0.2021 0.87544 0.0
H644 H 0.64025 0.23481 0.83182 0.0
C645 C 0.6558 0.44235 0.85758 0.0
C646 C 0.39701 0.80387 0.87081 0.0
C647 C 0.38547 0.74122 0.89036 0.0
H648 H 0.39503 0.83301 0.83043 0.0
C649 C 0.35487 0.66423 0.8841 0.0
H650 H 0.42151 0.86294 0.87465 0.0
C651 C 0.34022 0.64705 0.85846 0.0
C652 C 0.35575 0.70689 0.83896 0.0
H653 H 0.34512 0.61506 0.89873 0.0
H654 H 0.32008 0.58462 0.85366 0.0
C655 C 0.38225 0.78676 0.84538 0.0
C656 C 0.6119 0.53307 0.09637 0.0
C657 C 0.59655 0.62009 0.08988 0.0
H658 H 0.64625 0.44766 0.12476 0.0
C659 C 0.5939 0.68579 0.10905 0.0
H660 H 0.61468 0.48196 0.08163 0.0
C661 C 0.61037 0.66592 0.13424 0.0
C662 C 0.63149 0.58081 0.14032 0.0
H663 H 0.58214 0.75351 0.10421 0.0
H664 H 0.60982 0.71875 0.14848 0.0
C665 C 0.62964 0.51362 0.12128 0.0
C666 C 0.39398 0.40689 0.13334 0.0
C667 C 0.36255 0.48301 0.13968 0.0
H668 H 0.42968 0.32835 0.10284 0.0
C669 C 0.35007 0.54514 0.12014 0.0
H670 H 0.4044 0.3581 0.14797 0.0
C671 C 0.36489 0.52837 0.09466 0.0
C672 C 0.39243 0.4494 0.08819 0.0
H673 H 0.32492 0.60349 0.12404 0.0
H674 H 0.35152 0.57419 0.07973 0.0
C675 C 0.40874 0.39011 0.10768 0.0
C676 C 0.65531 0.88413 0.38326 0.0
C677 C 0.62421 0.80762 0.38953 0.0
H678 H 0.68984 0.96415 0.35279 0.0
C679 C 0.6114 0.74608 0.36989 0.0
H680 H 0.66593 0.93247 0.39797 0.0
C681 C 0.62528 0.76406 0.34437 0.0
C682 C 0.65225 0.8436 0.338 0.0
H683 H 0.58651 0.68742 0.37376 0.0
H684 H 0.61161 0.71874 0.32939 0.0
C685 C 0.66919 0.90208 0.35756 0.0
C686 C 0.38135 0.2798 0.36855 0.0
C687 C 0.38178 0.21363 0.38789 0.0
H688 H 0.369 0.3093 0.32855 0.0
C689 C 0.36069 0.1284 0.38196 0.0
H690 H 0.39793 0.34581 0.37201 0.0
C691 C 0.34569 0.10725 0.35667 0.0
C692 C 0.34993 0.17178 0.33723 0.0
H693 H 0.35919 0.0764 0.39644 0.0
H694 H 0.33384 0.03943 0.35201 0.0
C695 C 0.36521 0.25904 0.34349 0.0
C696 C 0.99264 0.56505 0.9205 0.0
C697 C 0.01353 0.60184 0.94333 0.0
H698 H 0.95967 0.45143 0.90155 0.0
C699 C 0.01335 0.55029 0.96597 0.0
H700 H 0.99228 0.6036 0.90281 0.0
C701 C 0.99395 0.46162 0.96538 0.0
C702 C 0.97374 0.42453 0.94223 0.0
H703 H 0.02941 0.57765 0.98378 0.0
H704 H 0.99506 0.42208 0.98285 0.0
C705 C 0.97331 0.47787 0.91991 0.0
C706 C 0.23132 0.7121 0.17318 0.0
C707 C 0.25704 0.6789 0.19537 0.0
H708 H 0.19641 0.82331 0.15395 0.0
C709 C 0.26213 0.73415 0.2171 0.0
H710 H 0.22727 0.67068 0.15614 0.0
C711 C 0.24328 0.82306 0.21612 0.0
C712 C 0.21902 0.85727 0.19341 0.0
H713 H 0.28217 0.70963 0.23439 0.0
H714 H 0.24857 0.86524 0.23289 0.0
C715 C 0.213 0.79981 0.17211 0.0
C716 C 0.77018 0.23671 0.21725 0.0
C717 C 0.77023 0.18526 0.1946 0.0
H718 H 0.75192 0.36484 0.23419 0.0
C719 C 0.74923 0.22218 0.1718 0.0
H720 H 0.78633 0.20924 0.23504 0.0
C721 C 0.72991 0.30935 0.17126 0.0
C722 C 0.7304 0.36255 0.1936 0.0
H723 H 0.74877 0.18371 0.1541 0.0
H724 H 0.71617 0.33587 0.15292 0.0
C725 C 0.75075 0.32538 0.21671 0.0
C726 C 0.99955 0.96439 0.46729 0.0
C727 C 0.97578 0.92955 0.44455 0.0
H728 H 0.03755 0.07865 0.48552 0.0
C729 C 0.96985 0.98658 0.42315 0.0
H730 H 0.00478 0.92253 0.48413 0.0
C731 C 0.98765 0.07455 0.42415 0.0
C732 C 0.01281 0.10847 0.44639 0.0
H733 H 0.95365 0.96259 0.40497 0.0
H734 H 0.98364 0.11563 0.40704 0.0
C735 C 0.0179 0.05359 0.46821 0.0
C736 C 0.2878 0.24224 0.67192 0.0
C737 C 0.28295 0.18663 0.69369 0.0
H738 H 0.27356 0.37034 0.65533 0.0
C739 C 0.2602 0.2228 0.7165 0.0
H740 H 0.30322 0.21704 0.6537 0.0
C741 C 0.24212 0.31222 0.71721 0.0
C742 C 0.24628 0.36579 0.69505 0.0
H743 H 0.25573 0.18189 0.73359 0.0
H744 H 0.22348 0.33849 0.73464 0.0
C745 C 0.27018 0.33031 0.67268 0.0
C746 C 0.76368 0.74049 0.71694 0.0
C747 C 0.76326 0.68764 0.69457 0.0
H748 H 0.74526 0.86927 0.73334 0.0
C749 C 0.74093 0.72252 0.67179 0.0
H750 H 0.78086 0.71458 0.73471 0.0
C751 C 0.72098 0.80934 0.67092 0.0
C752 C 0.72219 0.86417 0.69293 0.0
H753 H 0.74018 0.68287 0.6543 0.0
H754 H 0.70652 0.83438 0.65253 0.0
C755 C 0.74356 0.8287 0.71608 0.0
C756 C 0.51999 0.55631 0.46636 0.0
C757 C 0.51803 0.61045 0.44427 0.0
H758 H 0.50295 0.42653 0.48238 0.0
C759 C 0.49434 0.57681 0.42164 0.0
H760 H 0.53827 0.58124 0.48401 0.0
C761 C 0.47475 0.48982 0.42059 0.0
C762 C 0.47758 0.4336 0.44228 0.0
H763 H 0.4925 0.61746 0.40436 0.0
H764 H 0.45946 0.46578 0.40224 0.0
C765 C 0.50007 0.46803 0.46534 0.0
C766 C 0.51398 0.97412 0.92349 0.0
C767 C 0.48985 0.93912 0.94588 0.0
H768 H 0.54824 0.08661 0.90456 0.0
C769 C 0.48645 0.99257 0.96808 0.0
H770 H 0.51687 0.93411 0.90612 0.0
C771 C 0.50544 0.08146 0.9674 0.0
C772 C 0.52844 0.11719 0.94458 0.0
H773 H 0.46772 0.96661 -0.01446 0.0
H774 H 0.50149 0.12236 0.98452 0.0
C775 C 0.5326 0.06166 0.92277 0.0
C776 C 0.24601 0.37825 0.01282 0.0
C777 C 0.29494 0.32728 0.01266 0.0
H778 H 0.15717 0.37586 0.01538 0.0
C779 C 0.29163 0.23465 0.00916 0.0
H780 H 0.24786 0.44977 0.01575 0.0
C781 C 0.23983 0.19247 0.00906 0.0
C782 C 0.19113 0.24281 0.01219 0.0
H783 H 0.32891 0.19419 0.00937 0.0
H784 H 0.23807 0.12022 0.00916 0.0
C785 C 0.19429 0.33615 0.01255 0.0
C786 C 0.79238 0.73349 0.00998 0.0
C787 C 0.79704 0.82575 0.01395 0.0
H788 H 0.73738 0.62081 0.00988 0.0
C789 C 0.74877 0.87821 0.01495 0.0
H790 H 0.82915 0.69186 0.00952 0.0
C791 C 0.69652 0.83781 0.01499 0.0
C792 C 0.69213 0.74463 0.0141 0.0
H793 H 0.75166 0.94948 0.01822 0.0
H794 H 0.66005 0.8785 0.01842 0.0
C795 C 0.74005 0.69298 0.01019 0.0
C796 C 0.99944 0.40467 0.26517 0.0
C797 C 0.04844 0.45528 0.26393 0.0
H798 H 0.91077 0.40795 0.26859 0.0
C799 C 0.04513 0.54733 0.25929 0.0
H800 H 0.0013 0.33359 0.26892 0.0
C801 C 0.9934 0.58977 0.25916 0.0
C802 C 0.94478 0.5402 0.26341 0.0
H803 H 0.08249 0.58754 0.25861 0.0
H804 H 0.99176 0.66198 0.25838 0.0
C805 C 0.94781 0.44699 0.2649 0.0
C806 C 0.31026 0.71115 0.51231 0.0
C807 C 0.31352 0.80449 0.5121 0.0
H808 H 0.25652 0.59767 0.51531 0.0
C809 C 0.26495 0.85502 0.50887 0.0
H810 H 0.34729 0.67132 0.51519 0.0
C811 C 0.2131 0.81301 0.50883 0.0
C812 C 0.20963 0.72036 0.51226 0.0
H813 H 0.26679 0.92727 0.50905 0.0
H814 H 0.17587 0.8536 0.50903 0.0
C815 C 0.25849 0.66922 0.51242 0.0
C816 C 0.79958 0.23923 0.51058 0.0
C817 C 0.80376 0.33161 0.51443 0.0
H818 H 0.74488 0.12622 0.50988 0.0
C819 C 0.75533 0.38379 0.51467 0.0
H820 H 0.83646 0.19783 0.5107 0.0
C821 C 0.7032 0.34307 0.51402 0.0
C822 C 0.69908 0.24985 0.5132 0.0
H823 H 0.75785 0.45514 0.51785 0.0
H824 H 0.66642 0.3836 0.51683 0.0
C825 C 0.74736 0.1984 0.51011 0.0
C826 C 0.94613 0.94902 0.76421 0.0
C827 C 0.94118 0.04195 0.76235 0.0
H828 H 0.00186 0.83864 0.76853 0.0
C829 C 0.98878 0.0938 0.75786 0.0
H830 H 0.90991 0.90824 0.76807 0.0
C831 C 0.04136 0.05409 0.7581 0.0
C832 C 0.04657 0.96248 0.76309 0.0
H833 H 0.98568 0.16584 0.75683 0.0
H834 H 0.07787 0.09623 0.75723 0.0
C835 C 0.99859 0.90943 0.76455 0.0
C836 C 0.51065 0.45165 0.75909 0.0
C837 C 0.55936 0.50102 0.7632 0.0
H838 H 0.42156 0.45425 0.75863 0.0
C839 C 0.55646 0.59428 0.76459 0.0
H840 H 0.51217 0.37942 0.75838 0.0
C841 C 0.50489 0.63684 0.76488 0.0
C842 C 0.45578 0.58647 0.76375 0.0
H843 H 0.59357 0.63319 0.76817 0.0
H844 H 0.50317 0.70797 0.76854 0.0
C845 C 0.45897 0.49433 0.75922 0.0
C846 C 0.54793 0.05729 0.25931 0.0
C847 C 0.55232 0.96482 0.26293 0.0
H848 H 0.49303 0.17007 0.25905 0.0
C849 C 0.50399 0.9124 0.26305 0.0
H850 H 0.58472 0.09885 0.25952 0.0
C851 C 0.45176 0.95291 0.26256 0.0
C852 C 0.44746 0.04615 0.26207 0.0
H853 H 0.50666 0.84097 0.26606 0.0
H854 H 0.41509 0.91211 0.26533 0.0
C855 C 0.49563 0.09789 0.25903 0.0
loop_
_geom_bond_atom_site_label_1
_geom_bond_atom_site_label_2
_geom_bond_distance
_geom_bond_site_symmetry_2
_ccdc_geom_bond_type
C0 O1 1.201 . S
C0 C2 1.493 . S
C0 N17 1.318 1_455 S
O1 C0 1.201 . S
C2 C0 1.493 . S
C2 C3 1.381 . S
C2 N7 1.335 1_554 S
C3 C2 1.381 . S
C3 C4 1.411 1_554 S
C3 H49 0.931 . S
C4 C3 1.411 1_556 S
C4 C5 1.384 . S
C4 H50 0.930 . S
C5 C4 1.384 . S
C5 C6 1.376 . S
C5 H51 0.929 . S
C6 C5 1.376 . S
C6 N7 1.330 . S
C6 C21 1.484 1_565 S
N7 C2 1.335 1_556 S
N7 C6 1.330 . S
N7 Co9 1.859 1_565 S
N8 Co9 1.962 1_554 S
N8 C19 1.318 1_455 S
N8 C43 1.421 . S
Co9 N7 1.859 1_545 S
Co9 N8 1.962 1_556 S
Co9 N10 1.859 1_455 S
Co9 N16 1.958 1_445 S
Co9 N17 1.962 1_446 S
Co9 N18 1.958 . S
N10 Co9 1.859 1_655 S
N10 C14 1.330 . S
N10 C15 1.335 1_556 S
C11 C12 1.411 1_554 S
C11 C15 1.381 . S
C11 H52 0.931 . S
C12 C11 1.411 1_556 S
C12 C13 1.384 . S
C12 H53 0.930 . S
C13 C12 1.384 . S
C13 C14 1.376 . S
C13 H54 0.929 . S
C14 N10 1.330 . S
C14 C13 1.376 . S
C14 C29 1.484 1_545 S
C15 N10 1.335 1_554 S
C15 C11 1.381 . S
C15 C19 1.493 . S
N16 Co9 1.958 1_665 S
N16 C29 1.344 . S
N16 C31 1.433 . S
N17 C0 1.318 1_655 S
N17 Co9 1.962 1_664 S
N17 C37 1.421 . S
N18 Co9 1.958 . S
N18 C21 1.344 . S
N18 C23 1.435 . S
C19 N8 1.318 1_655 S
C19 C15 1.493 . S
C19 O20 1.201 . S
O20 C19 1.201 . S
C21 C6 1.484 1_545 S
C21 N18 1.344 . S
C21 O22 1.268 . S
O22 C21 1.268 . S
C23 N18 1.435 . S
C23 C25 1.395 . S
C23 C26 1.354 1_455 S
C24 C25 1.382 1_655 S
C24 C28 1.386 . S
C25 C23 1.395 . S
C25 C24 1.382 1_455 S
C25 H55 0.928 . S
C26 C23 1.354 1_655 S
C26 C27 1.367 . S
C26 H56 0.930 . S
C27 C26 1.367 . S
C27 C28 1.369 . S
C28 C24 1.386 . S
C28 C27 1.369 . S
C28 H57 0.930 . S
C29 C14 1.484 1_565 S
C29 N16 1.344 . S
C29 O30 1.268 . S
O30 C29 1.268 . S
C31 N16 1.433 . S
C31 C32 1.357 1_655 S
C31 C36 1.394 . S
C32 C31 1.357 1_455 S
C32 C33 1.367 . S
C32 H58 0.930 . S
C33 C32 1.367 . S
C33 C34 1.369 . S
C34 C33 1.369 . S
C34 C35 1.386 . S
C34 H59 0.930 . S
C35 C34 1.386 . S
C35 C36 1.382 1_455 S
C36 C31 1.394 . S
C36 C35 1.382 1_655 S
C36 H60 0.928 . S
C37 N17 1.421 . S
C37 C38 1.371 . S
C37 C42 1.385 . S
C38 C37 1.371 . S
C38 C39 1.367 . S
C38 H61 0.931 . S
C39 C38 1.367 . S
C39 C40 1.401 . S
C40 C39 1.401 . S
C40 C41 1.385 . S
C40 H62 0.930 . S
C41 C40 1.385 . S
C41 C42 1.402 . S
C42 C37 1.385 . S
C42 C41 1.402 . S
C42 H63 0.929 . S
C43 N8 1.421 . S
C43 C46 1.385 . S
C43 C47 1.371 . S
C44 C45 1.385 . S
C44 C48 1.401 . S
C44 H64 0.930 . S
C45 C44 1.385 . S
C45 C46 1.402 . S
C46 C43 1.385 . S
C46 C45 1.402 . S
C46 H65 0.929 . S
C47 C43 1.371 . S
C47 C48 1.367 . S
C47 H66 0.931 . S
C48 C44 1.401 . S
C48 C47 1.367 . S
H49 C3 0.931 . S
H50 C4 0.930 . S
H51 C5 0.929 . S
H52 C11 0.931 . S
H53 C12 0.930 . S
H54 C13 0.929 . S
H55 C25 0.928 . S
H56 C26 0.930 . S
H57 C28 0.930 . S
H58 C32 0.930 . S
H59 C34 0.930 . S
H60 C36 0.928 . S
H61 C38 0.931 . S
H62 C40 0.930 . S
H63 C42 0.929 . S
H64 C44 0.930 . S
H65 C46 0.929 . S
H66 C47 0.931 . S
C67 O68 1.201 . S
C67 C69 1.493 . S
C67 N84 1.318 . S
O68 C67 1.201 . S
C69 C67 1.493 . S
C69 C70 1.381 . S
C69 N74 1.335 . S
C70 C69 1.381 . S
C70 C71 1.411 . S
C70 H116 0.931 . S
C71 C70 1.411 . S
C71 C72 1.384 . S
C71 H117 0.930 . S
C72 C71 1.384 . S
C72 C73 1.376 . S
C72 H118 0.929 . S
C73 C72 1.376 . S
C73 N74 1.330 . S
C73 C88 1.484 . S
N74 C69 1.335 . S
N74 C73 1.330 . S
N74 Co76 1.859 . S
N75 Co76 1.962 . S
N75 C86 1.318 . S
N75 C110 1.421 . S
Co76 N74 1.859 . S
Co76 N75 1.962 . S
Co76 N77 1.859 . S
Co76 N83 1.958 . S
Co76 N84 1.962 . S
Co76 N85 1.958 . S
N77 Co76 1.859 . S
N77 C81 1.330 . S
N77 C82 1.335 . S
C78 C79 1.411 . S
C78 C82 1.381 . S
C78 H119 0.931 . S
C79 C78 1.411 . S
C79 C80 1.384 . S
C79 H120 0.930 . S
C80 C79 1.384 . S
C80 C81 1.376 . S
C80 H121 0.929 . S
C81 N77 1.330 . S
C81 C80 1.376 . S
C81 C96 1.484 . S
C82 N77 1.335 . S
C82 C78 1.381 . S
C82 C86 1.493 . S
N83 Co76 1.958 . S
N83 C96 1.344 . S
N83 C98 1.425 . S
N84 C67 1.318 . S
N84 Co76 1.962 . S
N84 C104 1.421 . S
N85 Co76 1.958 . S
N85 C88 1.344 . S
N85 C90 1.425 . S
C86 N75 1.318 . S
C86 C82 1.493 . S
C86 O87 1.201 . S
O87 C86 1.201 . S
C88 C73 1.484 . S
C88 N85 1.344 . S
C88 O89 1.268 . S
O89 C88 1.268 . S
C90 N85 1.425 . S
C90 C92 1.392 . S
C90 C93 1.368 . S
C91 C92 1.382 . S
C91 C95 1.386 . S
C92 C90 1.392 . S
C92 C91 1.382 . S
C92 H122 0.928 . S
C93 C90 1.368 . S
C93 C94 1.367 . S
C93 H123 0.930 . S
C94 C93 1.367 . S
C94 C95 1.369 . S
C95 C91 1.386 . S
C95 C94 1.369 . S
C95 H124 0.930 . S
C96 C81 1.484 . S
C96 N83 1.344 . S
C96 O97 1.268 . S
O97 C96 1.268 . S
C98 N83 1.425 . S
C98 C99 1.368 . S
C98 C103 1.392 . S
C99 C98 1.368 . S
C99 C100 1.367 . S
C99 H125 0.930 . S
C100 C99 1.367 . S
C100 C101 1.369 1_545 S
C101 C100 1.369 1_565 S
C101 C102 1.386 . S
C101 H126 0.930 . S
C102 C101 1.386 . S
C102 C103 1.382 1_565 S
C103 C98 1.392 . S
C103 C102 1.382 1_545 S
C103 H127 0.928 . S
C104 N84 1.421 . S
C104 C105 1.371 . S
C104 C109 1.385 . S
C105 C104 1.371 . S
C105 C106 1.367 . S
C105 H128 0.931 . S
C106 C105 1.367 . S
C106 C107 1.401 . S
C107 C106 1.401 . S
C107 C108 1.385 . S
C107 H129 0.930 . S
C108 C107 1.385 . S
C108 C109 1.402 . S
C109 C104 1.385 . S
C109 C108 1.402 . S
C109 H130 0.929 . S
C110 N75 1.421 . S
C110 C113 1.385 . S
C110 C114 1.371 . S
C111 C112 1.385 . S
C111 C115 1.401 . S
C111 H131 0.930 . S
C112 C111 1.385 . S
C112 C113 1.402 . S
C113 C110 1.385 . S
C113 C112 1.402 . S
C113 H132 0.929 . S
C114 C110 1.371 . S
C114 C115 1.367 . S
C114 H133 0.931 . S
C115 C111 1.401 . S
C115 C114 1.367 . S
H116 C70 0.931 . S
H117 C71 0.930 . S
H118 C72 0.929 . S
H119 C78 0.931 . S
H120 C79 0.930 . S
H121 C80 0.929 . S
H122 C92 0.928 . S
H123 C93 0.930 . S
H124 C95 0.930 . S
H125 C99 0.930 . S
H126 C101 0.930 . S
H127 C103 0.928 . S
H128 C105 0.931 . S
H129 C107 0.930 . S
H130 C109 0.929 . S
H131 C111 0.930 . S
H132 C113 0.929 . S
H133 C114 0.931 . S
C134 O135 1.201 . S
C134 C136 1.493 . S
C134 N151 1.318 . S
O135 C134 1.201 . S
C136 C134 1.493 . S
C136 C137 1.381 . S
C136 N141 1.335 . S
C137 C136 1.381 . S
C137 C138 1.411 . S
C137 H183 0.931 . S
C138 C137 1.411 . S
C138 C139 1.384 . S
C138 H184 0.930 . S
C139 C138 1.384 . S
C139 C140 1.376 . S
C139 H185 0.929 . S
C140 C139 1.376 . S
C140 N141 1.330 . S
C140 C155 1.484 . S
N141 C136 1.335 . S
N141 C140 1.330 . S
N141 Co143 1.859 . S
N142 Co143 1.962 . S
N142 C153 1.318 . S
N142 C177 1.421 . S
Co143 N141 1.859 . S
Co143 N142 1.962 . S
Co143 N144 1.859 . S
Co143 N150 1.958 . S
Co143 N151 1.962 . S
Co143 N152 1.958 . S
N144 Co143 1.859 . S
N144 C148 1.330 . S
N144 C149 1.335 . S
C145 C146 1.411 . S
C145 C149 1.381 . S
C145 H186 0.931 . S
C146 C145 1.411 . S
C146 C147 1.384 . S
C146 H187 0.930 . S
C147 C146 1.384 . S
C147 C148 1.376 . S
C147 H188 0.929 . S
C148 N144 1.330 . S
C148 C147 1.376 . S
C148 C163 1.484 . S
C149 N144 1.335 . S
C149 C145 1.381 . S
C149 C153 1.493 . S
N150 Co143 1.958 . S
N150 C163 1.344 . S
N150 C165 1.425 . S
N151 C134 1.318 . S
N151 Co143 1.962 . S
N151 C171 1.421 . S
N152 Co143 1.958 . S
N152 C155 1.344 . S
N152 C157 1.425 . S
C153 N142 1.318 . S
C153 C149 1.493 . S
C153 O154 1.201 . S
O154 C153 1.201 . S
C155 C140 1.484 . S
C155 N152 1.344 . S
C155 O156 1.268 . S
O156 C155 1.268 . S
C157 N152 1.425 . S
C157 C159 1.392 . S
C157 C160 1.368 . S
C158 C159 1.382 1_545 S
C158 C162 1.386 . S
C159 C157 1.392 . S
C159 C158 1.382 1_565 S
C159 H189 0.928 . S
C160 C157 1.368 . S
C160 C161 1.367 . S
C160 H190 0.930 . S
C161 C160 1.367 . S
C161 C162 1.369 1_565 S
C162 C158 1.386 . S
C162 C161 1.369 1_545 S
C162 H191 0.930 . S
C163 C148 1.484 . S
C163 N150 1.344 . S
C163 O164 1.268 . S
O164 C163 1.268 . S
C165 N150 1.425 . S
C165 C166 1.368 . S
C165 C170 1.392 . S
C166 C165 1.368 . S
C166 C167 1.367 . S
C166 H192 0.930 . S
C167 C166 1.367 . S
C167 C168 1.369 . S
C168 C167 1.369 . S
C168 C169 1.386 . S
C168 H193 0.930 . S
C169 C168 1.386 . S
C169 C170 1.382 . S
C170 C165 1.392 . S
C170 C169 1.382 . S
C170 H194 0.928 . S
C171 N151 1.421 . S
C171 C172 1.371 . S
C171 C176 1.385 . S
C172 C171 1.371 . S
C172 C173 1.367 . S
C172 H195 0.931 . S
C173 C172 1.367 . S
C173 C174 1.401 . S
C174 C173 1.401 . S
C174 C175 1.385 . S
C174 H196 0.930 . S
C175 C174 1.385 . S
C175 C176 1.402 . S
C176 C171 1.385 . S
C176 C175 1.402 . S
C176 H197 0.929 . S
C177 N142 1.421 . S
C177 C180 1.385 . S
C177 C181 1.371 . S
C178 C179 1.385 . S
C178 C182 1.401 . S
C178 H198 0.930 . S
C179 C178 1.385 . S
C179 C180 1.402 . S
C180 C177 1.385 . S
C180 C179 1.402 . S
C180 H199 0.929 . S
C181 C177 1.371 . S
C181 C182 1.367 . S
C181 H200 0.931 . S
C182 C178 1.401 . S
C182 C181 1.367 . S
H183 C137 0.931 . S
H184 C138 0.930 . S
H185 C139 0.929 . S
H186 C145 0.931 . S
H187 C146 0.930 . S
H188 C147 0.929 . S
H189 C159 0.928 . S
H190 C160 0.930 . S
H191 C162 0.930 . S
H192 C166 0.930 . S
H193 C168 0.930 . S
H194 C170 0.928 . S
H195 C172 0.931 . S
H196 C174 0.930 . S
H197 C176 0.929 . S
H198 C178 0.930 . S
H199 C180 0.929 . S
H200 C181 0.931 . S
C201 O202 1.201 . S
C201 C203 1.493 . S
C201 N218 1.318 1_455 S
O202 C201 1.201 . S
C203 C201 1.493 . S
C203 C204 1.381 . S
C203 N208 1.335 . S
C204 C203 1.381 . S
C204 C205 1.411 . S
C204 H250 0.931 . S
C205 C204 1.411 . S
C205 C206 1.384 . S
C205 H251 0.930 . S
C206 C205 1.384 . S
C206 C207 1.376 . S
C206 H252 0.929 . S
C207 C206 1.376 . S
C207 N208 1.330 . S
C207 C222 1.484 . S
N208 C203 1.335 . S
N208 C207 1.330 . S
N208 Co210 1.859 . S
N209 Co210 1.962 . S
N209 C220 1.318 1_455 S
N209 C244 1.421 . S
Co210 N208 1.859 . S
Co210 N209 1.962 . S
Co210 N211 1.859 1_455 S
Co210 N217 1.958 1_455 S
Co210 N218 1.962 1_455 S
Co210 N219 1.958 . S
N211 Co210 1.859 1_655 S
N211 C215 1.330 . S
N211 C216 1.335 . S
C212 C213 1.411 . S
C212 C216 1.381 . S
C212 H253 0.931 . S
C213 C212 1.411 . S
C213 C214 1.384 . S
C213 H254 0.930 . S
C214 C213 1.384 . S
C214 C215 1.376 . S
C214 H255 0.929 . S
C215 N211 1.330 . S
C215 C214 1.376 . S
C215 C230 1.484 . S
C216 N211 1.335 . S
C216 C212 1.381 . S
C216 C220 1.493 . S
N217 Co210 1.958 1_655 S
N217 C230 1.344 . S
N217 C232 1.433 . S
N218 C201 1.318 1_655 S
N218 Co210 1.962 1_655 S
N218 C238 1.421 . S
N219 Co210 1.958 . S
N219 C222 1.344 . S
N219 C224 1.435 . S
C220 N209 1.318 1_655 S
C220 C216 1.493 . S
C220 O221 1.201 . S
O221 C220 1.201 . S
C222 C207 1.484 . S
C222 N219 1.344 . S
C222 O223 1.268 . S
O223 C222 1.268 . S
C224 N219 1.435 . S
C224 C226 1.395 . S
C224 C227 1.354 1_455 S
C225 C226 1.382 1_655 S
C225 C229 1.386 . S
C226 C224 1.395 . S
C226 C225 1.382 1_455 S
C226 H256 0.928 . S
C227 C224 1.354 1_655 S
C227 C228 1.367 . S
C227 H257 0.930 . S
C228 C227 1.367 . S
C228 C229 1.369 . S
C229 C225 1.386 . S
C229 C228 1.369 . S
C229 H258 0.930 . S
C230 C215 1.484 . S
C230 N217 1.344 . S
C230 O231 1.268 . S
O231 C230 1.268 . S
C232 N217 1.433 . S
C232 C233 1.357 1_655 S
C232 C237 1.394 . S
C233 C232 1.357 1_455 S
C233 C234 1.367 . S
C233 H259 0.930 . S
C234 C233 1.367 . S
C234 C235 1.369 . S
C235 C234 1.369 . S
C235 C236 1.386 . S
C235 H260 0.930 . S
C236 C235 1.386 . S
C236 C237 1.382 1_455 S
C237 C232 1.394 . S
C237 C236 1.382 1_655 S
C237 H261 0.928 . S
C238 N218 1.421 . S
C238 C239 1.371 . S
C238 C243 1.385 . S
C239 C238 1.371 . S
C239 C240 1.367 . S
C239 H262 0.931 . S
C240 C239 1.367 . S
C240 C241 1.401 . S
C241 C240 1.401 . S
C241 C242 1.385 . S
C241 H263 0.930 . S
C242 C241 1.385 . S
C242 C243 1.402 . S
C243 C238 1.385 . S
C243 C242 1.402 . S
C243 H264 0.929 . S
C244 N209 1.421 . S
C244 C247 1.385 . S
C244 C248 1.371 . S
C245 C246 1.385 . S
C245 C249 1.401 . S
C245 H265 0.930 . S
C246 C245 1.385 . S
C246 C247 1.402 . S
C247 C244 1.385 . S
C247 C246 1.402 . S
C247 H266 0.929 . S
C248 C244 1.371 . S
C248 C249 1.367 . S
C248 H267 0.931 . S
C249 C245 1.401 . S
C249 C248 1.367 . S
H250 C204 0.931 . S
H251 C205 0.930 . S
H252 C206 0.929 . S
H253 C212 0.931 . S
H254 C213 0.930 . S
H255 C214 0.929 . S
H256 C226 0.928 . S
H257 C227 0.930 . S
H258 C229 0.930 . S
H259 C233 0.930 . S
H260 C235 0.930 . S
H261 C237 0.928 . S
H262 C239 0.931 . S
H263 C241 0.930 . S
H264 C243 0.929 . S
H265 C245 0.930 . S
H266 C247 0.929 . S
H267 C248 0.931 . S
C268 O269 1.201 . S
C268 C270 1.493 . S
C268 N285 1.318 . S
O269 C268 1.201 . S
C270 C268 1.493 . S
C270 C271 1.381 . S
C270 N275 1.335 . S
C271 C270 1.381 . S
C271 C272 1.411 . S
C271 H317 0.931 . S
C272 C271 1.411 . S
C272 C273 1.384 . S
C272 H318 0.930 . S
C273 C272 1.384 . S
C273 C274 1.376 . S
C273 H319 0.929 . S
C274 C273 1.376 . S
C274 N275 1.330 . S
C274 C289 1.484 . S
N275 C270 1.335 . S
N275 C274 1.330 . S
N275 Co277 1.859 . S
N276 Co277 1.962 . S
N276 C287 1.318 . S
N276 C311 1.421 . S
Co277 N275 1.859 . S
Co277 N276 1.962 . S
Co277 N278 1.859 . S
Co277 N284 1.958 . S
Co277 N285 1.962 . S
Co277 N286 1.958 . S
N278 Co277 1.859 . S
N278 C282 1.330 . S
N278 C283 1.335 . S
C279 C280 1.411 . S
C279 C283 1.381 . S
C279 H320 0.931 . S
C280 C279 1.411 . S
C280 C281 1.384 . S
C280 H321 0.930 . S
C281 C280 1.384 . S
C281 C282 1.376 . S
C281 H322 0.929 . S
C282 N278 1.330 . S
C282 C281 1.376 . S
C282 C297 1.484 . S
C283 N278 1.335 . S
C283 C279 1.381 . S
C283 C287 1.493 . S
N284 Co277 1.958 . S
N284 C297 1.344 . S
N284 C299 1.425 . S
N285 C268 1.318 . S
N285 Co277 1.962 . S
N285 C305 1.421 . S
N286 Co277 1.958 . S
N286 C289 1.344 . S
N286 C291 1.425 . S
C287 N276 1.318 . S
C287 C283 1.493 . S
C287 O288 1.201 . S
O288 C287 1.201 . S
C289 C274 1.484 . S
C289 N286 1.344 . S
C289 O290 1.268 . S
O290 C289 1.268 . S
C291 N286 1.425 . S
C291 C293 1.392 . S
C291 C294 1.368 . S
C292 C293 1.382 1_545 S
C292 C296 1.386 . S
C293 C291 1.392 . S
C293 C292 1.382 1_565 S
C293 H323 0.928 . S
C294 C291 1.368 . S
C294 C295 1.367 . S
C294 H324 0.930 . S
C295 C294 1.367 . S
C295 C296 1.369 1_565 S
C296 C292 1.386 . S
C296 C295 1.369 1_545 S
C296 H325 0.930 . S
C297 C282 1.484 . S
C297 N284 1.344 . S
C297 O298 1.268 . S
O298 C297 1.268 . S
C299 N284 1.425 . S
C299 C300 1.368 . S
C299 C304 1.392 . S
C300 C299 1.368 . S
C300 C301 1.367 . S
C300 H326 0.930 . S
C301 C300 1.367 . S
C301 C302 1.369 . S
C302 C301 1.369 . S
C302 C303 1.386 . S
C302 H327 0.930 . S
C303 C302 1.386 . S
C303 C304 1.382 . S
C304 C299 1.392 . S
C304 C303 1.382 . S
C304 H328 0.928 . S
C305 N285 1.421 . S
C305 C306 1.371 . S
C305 C310 1.385 . S
C306 C305 1.371 . S
C306 C307 1.367 . S
C306 H329 0.931 . S
C307 C306 1.367 . S
C307 C308 1.401 . S
C308 C307 1.401 . S
C308 C309 1.385 . S
C308 H330 0.930 . S
C309 C308 1.385 . S
C309 C310 1.402 . S
C310 C305 1.385 . S
C310 C309 1.402 . S
C310 H331 0.929 . S
C311 N276 1.421 . S
C311 C314 1.385 . S
C311 C315 1.371 . S
C312 C313 1.385 . S
C312 C316 1.401 . S
C312 H332 0.930 . S
C313 C312 1.385 . S
C313 C314 1.402 . S
C314 C311 1.385 . S
C314 C313 1.402 . S
C314 H333 0.929 . S
C315 C311 1.371 . S
C315 C316 1.367 . S
C315 H334 0.931 . S
C316 C312 1.401 . S
C316 C315 1.367 . S
H317 C271 0.931 . S
H318 C272 0.930 . S
H319 C273 0.929 . S
H320 C279 0.931 . S
H321 C280 0.930 . S
H322 C281 0.929 . S
H323 C293 0.928 . S
H324 C294 0.930 . S
H325 C296 0.930 . S
H326 C300 0.930 . S
H327 C302 0.930 . S
H328 C304 0.928 . S
H329 C306 0.931 . S
H330 C308 0.930 . S
H331 C310 0.929 . S
H332 C312 0.930 . S
H333 C314 0.929 . S
H334 C315 0.931 . S
C335 O336 1.201 . S
C335 C337 1.493 . S
C335 N352 1.318 . S
O336 C335 1.201 . S
C337 C335 1.493 . S
C337 C338 1.381 . S
C337 N342 1.335 . S
C338 C337 1.381 . S
C338 C339 1.411 . S
C338 H384 0.931 . S
C339 C338 1.411 . S
C339 C340 1.384 . S
C339 H385 0.930 . S
C340 C339 1.384 . S
C340 C341 1.376 . S
C340 H386 0.929 . S
C341 C340 1.376 . S
C341 N342 1.330 . S
C341 C356 1.484 . S
N342 C337 1.335 . S
N342 C341 1.330 . S
N342 Co344 1.859 . S
N343 Co344 1.962 . S
N343 C354 1.318 . S
N343 C378 1.421 . S
Co344 N342 1.859 . S
Co344 N343 1.962 . S
Co344 N345 1.859 . S
Co344 N351 1.958 . S
Co344 N352 1.962 . S
Co344 N353 1.958 . S
N345 Co344 1.859 . S
N345 C349 1.330 . S
N345 C350 1.335 . S
C346 C347 1.411 . S
C346 C350 1.381 . S
C346 H387 0.931 . S
C347 C346 1.411 . S
C347 C348 1.384 . S
C347 H388 0.930 . S
C348 C347 1.384 . S
C348 C349 1.376 . S
C348 H389 0.929 . S
C349 N345 1.330 . S
C349 C348 1.376 . S
C349 C364 1.484 . S
C350 N345 1.335 . S
C350 C346 1.381 . S
C350 C354 1.493 . S
N351 Co344 1.958 . S
N351 C364 1.344 . S
N351 C366 1.425 . S
N352 C335 1.318 . S
N352 Co344 1.962 . S
N352 C372 1.421 . S
N353 Co344 1.958 . S
N353 C356 1.344 . S
N353 C358 1.425 . S
C354 N343 1.318 . S
C354 C350 1.493 . S
C354 O355 1.201 . S
O355 C354 1.201 . S
C356 C341 1.484 . S
C356 N353 1.344 . S
C356 O357 1.268 . S
O357 C356 1.268 . S
C358 N353 1.425 . S
C358 C360 1.392 . S
C358 C361 1.368 . S
C359 C360 1.382 . S
C359 C363 1.386 . S
C360 C358 1.392 . S
C360 C359 1.382 . S
C360 H390 0.928 . S
C361 C358 1.368 . S
C361 C362 1.367 . S
C361 H391 0.930 . S
C362 C361 1.367 . S
C362 C363 1.369 . S
C363 C359 1.386 . S
C363 C362 1.369 . S
C363 H392 0.930 . S
C364 C349 1.484 . S
C364 N351 1.344 . S
C364 O365 1.268 . S
O365 C364 1.268 . S
C366 N351 1.425 . S
C366 C367 1.368 . S
C366 C371 1.392 . S
C367 C366 1.368 . S
C367 C368 1.367 . S
C367 H393 0.930 . S
C368 C367 1.367 . S
C368 C369 1.369 1_545 S
C369 C368 1.369 1_565 S
C369 C370 1.386 . S
C369 H394 0.930 . S
C370 C369 1.386 . S
C370 C371 1.382 1_565 S
C371 C366 1.392 . S
C371 C370 1.382 1_545 S
C371 H395 0.928 . S
C372 N352 1.421 . S
C372 C373 1.371 . S
C372 C377 1.385 . S
C373 C372 1.371 . S
C373 C374 1.367 . S
C373 H396 0.931 . S
C374 C373 1.367 . S
C374 C375 1.401 . S
C375 C374 1.401 . S
C375 C376 1.385 . S
C375 H397 0.930 . S
C376 C375 1.385 . S
C376 C377 1.402 . S
C377 C372 1.385 . S
C377 C376 1.402 . S
C377 H398 0.929 . S
C378 N343 1.421 . S
C378 C381 1.385 . S
C378 C382 1.371 . S
C379 C380 1.385 . S
C379 C383 1.401 . S
C379 H399 0.930 . S
C380 C379 1.385 . S
C380 C381 1.402 . S
C381 C378 1.385 . S
C381 C380 1.402 . S
C381 H400 0.929 . S
C382 C378 1.371 . S
C382 C383 1.367 . S
C382 H401 0.931 . S
C383 C379 1.401 . S
C383 C382 1.367 . S
H384 C338 0.931 . S
H385 C339 0.930 . S
H386 C340 0.929 . S
H387 C346 0.931 . S
H388 C347 0.930 . S
H389 C348 0.929 . S
H390 C360 0.928 . S
H391 C361 0.930 . S
H392 C363 0.930 . S
H393 C367 0.930 . S
H394 C369 0.930 . S
H395 C371 0.928 . S
H396 C373 0.931 . S
H397 C375 0.930 . S
H398 C377 0.929 . S
H399 C379 0.930 . S
H400 C381 0.929 . S
H401 C382 0.931 . S
C402 O403 1.201 . S
C402 C404 1.493 . S
C402 N419 1.318 . S
O403 C402 1.201 . S
C404 C402 1.493 . S
C404 C405 1.381 . S
C404 N409 1.335 . S
C405 C404 1.381 . S
C405 C406 1.411 . S
C405 H451 0.931 . S
C406 C405 1.411 . S
C406 C407 1.384 . S
C406 H452 0.930 . S
C407 C406 1.384 . S
C407 C408 1.376 . S
C407 H453 0.929 . S
C408 C407 1.376 . S
C408 N409 1.330 . S
C408 C423 1.484 1_565 S
N409 C404 1.335 . S
N409 C408 1.330 . S
N409 Co411 1.859 1_565 S
N410 Co411 1.962 . S
N410 C421 1.318 . S
N410 C445 1.421 . S
Co411 N409 1.859 1_545 S
Co411 N410 1.962 . S
Co411 N412 1.859 . S
Co411 N418 1.958 1_545 S
Co411 N419 1.962 1_545 S
Co411 N420 1.958 . S
N412 Co411 1.859 . S
N412 C416 1.330 . S
N412 C417 1.335 . S
C413 C414 1.411 . S
C413 C417 1.381 . S
C413 H454 0.931 . S
C414 C413 1.411 . S
C414 C415 1.384 . S
C414 H455 0.930 . S
C415 C414 1.384 . S
C415 C416 1.376 . S
C415 H456 0.929 . S
C416 N412 1.330 . S
C416 C415 1.376 . S
C416 C431 1.484 1_545 S
C417 N412 1.335 . S
C417 C413 1.381 . S
C417 C421 1.493 . S
N418 Co411 1.958 1_565 S
N418 C431 1.344 . S
N418 C433 1.425 . S
N419 C402 1.318 . S
N419 Co411 1.962 1_565 S
N419 C439 1.421 . S
N420 Co411 1.958 . S
N420 C423 1.344 . S
N420 C425 1.425 . S
C421 N410 1.318 . S
C421 C417 1.493 . S
C421 O422 1.201 . S
O422 C421 1.201 . S
C423 C408 1.484 1_545 S
C423 N420 1.344 . S
C423 O424 1.268 . S
O424 C423 1.268 . S
C425 N420 1.425 . S
C425 C427 1.392 . S
C425 C428 1.368 . S
C426 C427 1.382 . S
C426 C430 1.386 . S
C427 C425 1.392 . S
C427 C426 1.382 . S
C427 H457 0.928 . S
C428 C425 1.368 . S
C428 C429 1.367 . S
C428 H458 0.930 . S
C429 C428 1.367 . S
C429 C430 1.369 . S
C430 C426 1.386 . S
C430 C429 1.369 . S
C430 H459 0.930 . S
C431 C416 1.484 1_565 S
C431 N418 1.344 . S
C431 O432 1.268 . S
O432 C431 1.268 . S
C433 N418 1.425 . S
C433 C434 1.368 . S
C433 C438 1.392 . S
C434 C433 1.368 . S
C434 C435 1.367 . S
C434 H460 0.930 . S
C435 C434 1.367 . S
C435 C436 1.369 . S
C436 C435 1.369 . S
C436 C437 1.386 . S
C436 H461 0.930 . S
C437 C436 1.386 . S
C437 C438 1.382 . S
C438 C433 1.392 . S
C438 C437 1.382 . S
C438 H462 0.928 . S
C439 N419 1.421 . S
C439 C440 1.371 . S
C439 C444 1.385 . S
C440 C439 1.371 . S
C440 C441 1.367 . S
C440 H463 0.931 . S
C441 C440 1.367 . S
C441 C442 1.401 . S
C442 C441 1.401 . S
C442 C443 1.385 . S
C442 H464 0.930 . S
C443 C442 1.385 . S
C443 C444 1.402 . S
C444 C439 1.385 . S
C444 C443 1.402 . S
C444 H465 0.929 . S
C445 N410 1.421 . S
C445 C448 1.385 . S
C445 C449 1.371 . S
C446 C447 1.385 . S
C446 C450 1.401 . S
C446 H466 0.930 . S
C447 C446 1.385 . S
C447 C448 1.402 . S
C448 C445 1.385 . S
C448 C447 1.402 . S
C448 H467 0.929 . S
C449 C445 1.371 . S
C449 C450 1.367 . S
C449 H468 0.931 . S
C450 C446 1.401 . S
C450 C449 1.367 . S
H451 C405 0.931 . S
H452 C406 0.930 . S
H453 C407 0.929 . S
H454 C413 0.931 . S
H455 C414 0.930 . S
H456 C415 0.929 . S
H457 C427 0.928 . S
H458 C428 0.930 . S
H459 C430 0.930 . S
H460 C434 0.930 . S
H461 C436 0.930 . S
H462 C438 0.928 . S
H463 C440 0.931 . S
H464 C442 0.930 . S
H465 C444 0.929 . S
H466 C446 0.930 . S
H467 C448 0.929 . S
H468 C449 0.931 . S
C469 O470 1.201 . S
C469 C471 1.493 . S
C469 N486 1.318 . S
O470 C469 1.201 . S
C471 C469 1.493 . S
C471 C472 1.381 . S
C471 N476 1.335 1_554 S
C472 C471 1.381 . S
C472 C473 1.411 1_554 S
C472 H518 0.931 . S
C473 C472 1.411 1_556 S
C473 C474 1.384 . S
C473 H519 0.930 . S
C474 C473 1.384 . S
C474 C475 1.376 . S
C474 H520 0.929 . S
C475 C474 1.376 . S
C475 N476 1.330 . S
C475 C490 1.484 . S
N476 C471 1.335 1_556 S
N476 C475 1.330 . S
N476 Co478 1.859 . S
N477 Co478 1.962 1_554 S
N477 C488 1.318 . S
N477 C512 1.421 . S
Co478 N476 1.859 . S
Co478 N477 1.962 1_556 S
Co478 N479 1.859 . S
Co478 N485 1.958 . S
Co478 N486 1.962 1_556 S
Co478 N487 1.958 . S
N479 Co478 1.859 . S
N479 C483 1.330 . S
N479 C484 1.335 1_556 S
C480 C481 1.411 1_554 S
C480 C484 1.381 . S
C480 H521 0.931 . S
C481 C480 1.411 1_556 S
C481 C482 1.384 . S
C481 H522 0.930 . S
C482 C481 1.384 . S
C482 C483 1.376 . S
C482 H523 0.929 . S
C483 N479 1.330 . S
C483 C482 1.376 . S
C483 C498 1.484 . S
C484 N479 1.335 1_554 S
C484 C480 1.381 . S
C484 C488 1.493 . S
N485 Co478 1.958 . S
N485 C498 1.344 . S
N485 C500 1.425 . S
N486 C469 1.318 . S
N486 Co478 1.962 1_554 S
N486 C506 1.421 . S
N487 Co478 1.958 . S
N487 C490 1.344 . S
N487 C492 1.425 . S
C488 N477 1.318 . S
C488 C484 1.493 . S
C488 O489 1.201 . S
O489 C488 1.201 . S
C490 C475 1.484 . S
C490 N487 1.344 . S
C490 O491 1.268 . S
O491 C490 1.268 . S
C492 N487 1.425 . S
C492 C494 1.392 . S
C492 C495 1.368 . S
C493 C494 1.382 . S
C493 C497 1.386 . S
C494 C492 1.392 . S
C494 C493 1.382 . S
C494 H524 0.928 . S
C495 C492 1.368 . S
C495 C496 1.367 . S
C495 H525 0.930 . S
C496 C495 1.367 . S
C496 C497 1.369 . S
C497 C493 1.386 . S
C497 C496 1.369 . S
C497 H526 0.930 . S
C498 C483 1.484 . S
C498 N485 1.344 . S
C498 O499 1.268 . S
O499 C498 1.268 . S
C500 N485 1.425 . S
C500 C501 1.368 . S
C500 C505 1.392 . S
C501 C500 1.368 . S
C501 C502 1.367 . S
C501 H527 0.930 . S
C502 C501 1.367 . S
C502 C503 1.369 . S
C503 C502 1.369 . S
C503 C504 1.386 . S
C503 H528 0.930 . S
C504 C503 1.386 . S
C504 C505 1.382 . S
C505 C500 1.392 . S
C505 C504 1.382 . S
C505 H529 0.928 . S
C506 N486 1.421 . S
C506 C507 1.371 . S
C506 C511 1.385 . S
C507 C506 1.371 . S
C507 C508 1.367 . S
C507 H530 0.931 . S
C508 C507 1.367 . S
C508 C509 1.401 . S
C509 C508 1.401 . S
C509 C510 1.385 . S
C509 H531 0.930 . S
C510 C509 1.385 . S
C510 C511 1.402 . S
C511 C506 1.385 . S
C511 C510 1.402 . S
C511 H532 0.929 . S
C512 N477 1.421 . S
C512 C515 1.385 . S
C512 C516 1.371 . S
C513 C514 1.385 . S
C513 C517 1.401 . S
C513 H533 0.930 . S
C514 C513 1.385 . S
C514 C515 1.402 . S
C515 C512 1.385 . S
C515 C514 1.402 . S
C515 H534 0.929 . S
C516 C512 1.371 . S
C516 C517 1.367 . S
C516 H535 0.931 . S
C517 C513 1.401 . S
C517 C516 1.367 . S
H518 C472 0.931 . S
H519 C473 0.930 . S
H520 C474 0.929 . S
H521 C480 0.931 . S
H522 C481 0.930 . S
H523 C482 0.929 . S
H524 C494 0.928 . S
H525 C495 0.930 . S
H526 C497 0.930 . S
H527 C501 0.930 . S
H528 C503 0.930 . S
H529 C505 0.928 . S
H530 C507 0.931 . S
H531 C509 0.930 . S
H532 C511 0.929 . S
H533 C513 0.930 . S
H534 C515 0.929 . S
H535 C516 0.931 . S
C536 C537 1.387 . S
C536 H540 0.950 1_545 S
C536 C545 1.390 . S
C537 C536 1.387 . S
C537 C539 1.387 . S
H538 C545 0.950 1_565 S
C539 C537 1.387 . S
C539 C541 1.390 . S
C539 H543 0.950 . S
H540 C536 0.950 1_565 S
C541 C539 1.390 . S
C541 C542 1.387 . S
C541 H544 0.950 . S
C542 C541 1.387 . S
C542 C545 1.387 . S
H543 C539 0.950 . S
H544 C541 0.950 . S
C545 C536 1.390 . S
C545 H538 0.950 1_545 S
C545 C542 1.387 . S
C546 C547 1.387 . S
C546 H550 0.950 . S
C546 C555 1.390 . S
C547 C546 1.387 . S
C547 C549 1.387 . S
H548 C555 0.950 . S
C549 C547 1.387 . S
C549 C551 1.390 1_565 S
C549 H553 0.950 1_565 S
H550 C546 0.950 . S
C551 C549 1.390 1_545 S
C551 C552 1.387 1_545 S
C551 H554 0.950 . S
C552 C551 1.387 1_565 S
C552 C555 1.387 . S
H553 C549 0.950 1_545 S
H554 C551 0.950 . S
C555 C546 1.390 . S
C555 H548 0.950 . S
C555 C552 1.387 . S
C556 C557 1.387 . S
C556 H560 0.950 . S
C556 C565 1.390 . S
C557 C556 1.387 . S
C557 C559 1.387 . S
H558 C565 0.950 . S
C559 C557 1.387 . S
C559 C561 1.390 . S
C559 H563 0.950 . S
H560 C556 0.950 . S
C561 C559 1.390 . S
C561 C562 1.387 . S
C561 H564 0.950 . S
C562 C561 1.387 . S
C562 C565 1.387 . S
H563 C559 0.950 . S
H564 C561 0.950 . S
C565 C556 1.390 . S
C565 H558 0.950 . S
C565 C562 1.387 . S
C566 C567 1.387 . S
C566 H570 0.950 . S
C566 C575 1.390 . S
C567 C566 1.387 . S
C567 C569 1.387 . S
H568 C575 0.950 . S
C569 C567 1.387 . S
C569 C571 1.390 . S
C569 H573 0.950 . S
H570 C566 0.950 . S
C571 C569 1.390 . S
C571 C572 1.387 . S
C571 H574 0.950 . S
C572 C571 1.387 . S
C572 C575 1.387 . S
H573 C569 0.950 . S
H574 C571 0.950 . S
C575 C566 1.390 . S
C575 H568 0.950 . S
C575 C572 1.387 . S
C576 C577 1.387 . S
C576 H580 0.950 . S
C576 C585 1.390 . S
C577 C576 1.387 . S
C577 C579 1.387 . S
H578 C585 0.950 . S
C579 C577 1.387 . S
C579 C581 1.390 . S
C579 H583 0.950 . S
H580 C576 0.950 . S
C581 C579 1.390 . S
C581 C582 1.387 . S
C581 H584 0.950 . S
C582 C581 1.387 . S
C582 C585 1.387 . S
H583 C579 0.950 . S
H584 C581 0.950 . S
C585 C576 1.390 . S
C585 H578 0.950 . S
C585 C582 1.387 . S
C586 C587 1.387 . S
C586 H590 0.950 . S
C586 C595 1.390 . S
C587 C586 1.387 . S
C587 C589 1.387 . S
H588 C595 0.950 . S
C589 C587 1.387 . S
C589 C591 1.390 . S
C589 H593 0.950 . S
H590 C586 0.950 . S
C591 C589 1.390 . S
C591 C592 1.387 . S
C591 H594 0.950 . S
C592 C591 1.387 . S
C592 C595 1.387 . S
H593 C589 0.950 . S
H594 C591 0.950 . S
C595 C586 1.390 . S
C595 H588 0.950 . S
C595 C592 1.387 . S
C596 C597 1.387 . S
C596 H600 0.950 . S
C596 C605 1.390 . S
C597 C596 1.387 . S
C597 C599 1.387 . S
H598 C605 0.950 . S
C599 C597 1.387 . S
C599 C601 1.390 . S
C599 H603 0.950 . S
H600 C596 0.950 . S
C601 C599 1.390 . S
C601 C602 1.387 . S
C601 H604 0.950 . S
C602 C601 1.387 . S
C602 C605 1.387 . S
H603 C599 0.950 . S
H604 C601 0.950 . S
C605 C596 1.390 . S
C605 H598 0.950 . S
C605 C602 1.387 . S
C606 C607 1.387 . S
C606 H610 0.950 . S
C606 C615 1.390 . S
C607 C606 1.387 . S
C607 C609 1.387 . S
H608 C615 0.950 . S
C609 C607 1.387 . S
C609 C611 1.390 . S
C609 H613 0.950 . S
H610 C606 0.950 . S
C611 C609 1.390 . S
C611 C612 1.387 . S
C611 H614 0.950 . S
C612 C611 1.387 . S
C612 C615 1.387 . S
H613 C609 0.950 . S
H614 C611 0.950 . S
C615 C606 1.390 . S
C615 H608 0.950 . S
C615 C612 1.387 . S
C616 C617 1.387 . S
C616 H620 0.950 . S
C616 C625 1.390 . S
C617 C616 1.387 . S
C617 C619 1.387 1_545 S
H618 C625 0.950 . S
C619 C617 1.387 1_565 S
C619 C621 1.390 1_565 S
C619 H623 0.950 . S
H620 C616 0.950 . S
C621 C619 1.390 1_545 S
C621 C622 1.387 . S
C621 H624 0.950 1_545 S
C622 C621 1.387 . S
C622 C625 1.387 . S
H623 C619 0.950 . S
H624 C621 0.950 1_565 S
C625 C616 1.390 . S
C625 H618 0.950 . S
C625 C622 1.387 . S
C626 C627 1.387 . S
C626 H630 0.950 1_565 S
C626 C635 1.390 1_565 S
C627 C626 1.387 . S
C627 C629 1.387 . S
H628 C635 0.950 . S
C629 C627 1.387 . S
C629 C631 1.390 . S
C629 H633 0.950 . S
H630 C626 0.950 1_545 S
C631 C629 1.390 . S
C631 C632 1.387 . S
C631 H634 0.950 . S
C632 C631 1.387 . S
C632 C635 1.387 1_565 S
H633 C629 0.950 . S
H634 C631 0.950 . S
C635 C626 1.390 1_545 S
C635 H628 0.950 . S
C635 C632 1.387 1_545 S
C636 C637 1.387 . S
C636 H640 0.950 . S
C636 C645 1.390 . S
C637 C636 1.387 . S
C637 C639 1.387 . S
H638 C645 0.950 . S
C639 C637 1.387 . S
C639 C641 1.390 . S
C639 H643 0.950 . S
H640 C636 0.950 . S
C641 C639 1.390 . S
C641 C642 1.387 . S
C641 H644 0.950 . S
C642 C641 1.387 . S
C642 C645 1.387 . S
H643 C639 0.950 . S
H644 C641 0.950 . S
C645 C636 1.390 . S
C645 H638 0.950 . S
C645 C642 1.387 . S
C646 C647 1.387 . S
C646 H650 0.950 . S
C646 C655 1.390 . S
C647 C646 1.387 . S
C647 C649 1.387 . S
H648 C655 0.950 . S
C649 C647 1.387 . S
C649 C651 1.390 . S
C649 H653 0.950 . S
H650 C646 0.950 . S
C651 C649 1.390 . S
C651 C652 1.387 . S
C651 H654 0.950 . S
C652 C651 1.387 . S
C652 C655 1.387 . S
H653 C649 0.950 . S
H654 C651 0.950 . S
C655 C646 1.390 . S
C655 H648 0.950 . S
C655 C652 1.387 . S
C656 C657 1.387 . S
C656 H660 0.950 . S
C656 C665 1.390 . S
C657 C656 1.387 . S
C657 C659 1.387 . S
H658 C665 0.950 . S
C659 C657 1.387 . S
C659 C661 1.390 . S
C659 H663 0.950 . S
H660 C656 0.950 . S
C661 C659 1.390 . S
C661 C662 1.387 . S
C661 H664 0.950 . S
C662 C661 1.387 . S
C662 C665 1.387 . S
H663 C659 0.950 . S
H664 C661 0.950 . S
C665 C656 1.390 . S
C665 H658 0.950 . S
C665 C662 1.387 . S
C666 C667 1.387 . S
C666 H670 0.950 . S
C666 C675 1.390 . S
C667 C666 1.387 . S
C667 C669 1.387 . S
H668 C675 0.950 . S
C669 C667 1.387 . S
C669 C671 1.390 . S
C669 H673 0.950 . S
H670 C666 0.950 . S
C671 C669 1.390 . S
C671 C672 1.387 . S
C671 H674 0.950 . S
C672 C671 1.387 . S
C672 C675 1.387 . S
H673 C669 0.950 . S
H674 C671 0.950 . S
C675 C666 1.390 . S
C675 H668 0.950 . S
C675 C672 1.387 . S
C676 C677 1.387 . S
C676 H680 0.950 . S
C676 C685 1.390 . S
C677 C676 1.387 . S
C677 C679 1.387 . S
H678 C685 0.950 . S
C679 C677 1.387 . S
C679 C681 1.390 . S
C679 H683 0.950 . S
H680 C676 0.950 . S
C681 C679 1.390 . S
C681 C682 1.387 . S
C681 H684 0.950 . S
C682 C681 1.387 . S
C682 C685 1.387 . S
H683 C679 0.950 . S
H684 C681 0.950 . S
C685 C676 1.390 . S
C685 H678 0.950 . S
C685 C682 1.387 . S
C686 C687 1.387 . S
C686 H690 0.950 . S
C686 C695 1.390 . S
C687 C686 1.387 . S
C687 C689 1.387 . S
H688 C695 0.950 . S
C689 C687 1.387 . S
C689 C691 1.390 . S
C689 H693 0.950 . S
H690 C686 0.950 . S
C691 C689 1.390 . S
C691 C692 1.387 . S
C691 H694 0.950 . S
C692 C691 1.387 . S
C692 C695 1.387 . S
H693 C689 0.950 . S
H694 C691 0.950 . S
C695 C686 1.390 . S
C695 H688 0.950 . S
C695 C692 1.387 . S
C696 C697 1.387 . S
C696 H700 0.950 . S
C696 C705 1.390 1_455 S
C697 C696 1.387 . S
C697 C699 1.387 . S
H698 C705 0.950 . S
C699 C697 1.387 . S
C699 C701 1.390 1_455 S
C699 H703 0.950 . S
H700 C696 0.950 . S
C701 C699 1.390 1_655 S
C701 C702 1.387 . S
C701 H704 0.950 . S
C702 C701 1.387 . S
C702 C705 1.387 . S
H703 C699 0.950 . S
H704 C701 0.950 . S
C705 C696 1.390 1_655 S
C705 H698 0.950 . S
C705 C702 1.387 . S
C706 C707 1.387 . S
C706 H710 0.950 . S
C706 C715 1.390 . S
C707 C706 1.387 . S
C707 C709 1.387 . S
H708 C715 0.950 . S
C709 C707 1.387 . S
C709 C711 1.390 . S
C709 H713 0.950 . S
H710 C706 0.950 . S
C711 C709 1.390 . S
C711 C712 1.387 . S
C711 H714 0.950 . S
C712 C711 1.387 . S
C712 C715 1.387 . S
H713 C709 0.950 . S
H714 C711 0.950 . S
C715 C706 1.390 . S
C715 H708 0.950 . S
C715 C712 1.387 . S
C716 C717 1.387 . S
C716 H720 0.950 . S
C716 C725 1.390 . S
C717 C716 1.387 . S
C717 C719 1.387 . S
H718 C725 0.950 . S
C719 C717 1.387 . S
C719 C721 1.390 . S
C719 H723 0.950 . S
H720 C716 0.950 . S
C721 C719 1.390 . S
C721 C722 1.387 . S
C721 H724 0.950 . S
C722 C721 1.387 . S
C722 C725 1.387 . S
H723 C719 0.950 . S
H724 C721 0.950 . S
C725 C716 1.390 . S
C725 H718 0.950 . S
C725 C722 1.387 . S
C726 C727 1.387 . S
C726 H730 0.950 . S
C726 C735 1.390 1_665 S
C727 C726 1.387 . S
C727 C729 1.387 . S
H728 C735 0.950 . S
C729 C727 1.387 . S
C729 C731 1.390 1_665 S
C729 H733 0.950 . S
H730 C726 0.950 . S
C731 C729 1.390 1_445 S
C731 C732 1.387 . S
C731 H734 0.950 . S
C732 C731 1.387 . S
C732 C735 1.387 . S
H733 C729 0.950 . S
H734 C731 0.950 . S
C735 C726 1.390 1_445 S
C735 H728 0.950 . S
C735 C732 1.387 . S
C736 C737 1.387 . S
C736 H740 0.950 . S
C736 C745 1.390 . S
C737 C736 1.387 . S
C737 C739 1.387 . S
H738 C745 0.950 . S
C739 C737 1.387 . S
C739 C741 1.390 . S
C739 H743 0.950 . S
H740 C736 0.950 . S
C741 C739 1.390 . S
C741 C742 1.387 . S
C741 H744 0.950 . S
C742 C741 1.387 . S
C742 C745 1.387 . S
H743 C739 0.950 . S
H744 C741 0.950 . S
C745 C736 1.390 . S
C745 H738 0.950 . S
C745 C742 1.387 . S
C746 C747 1.387 . S
C746 H750 0.950 . S
C746 C755 1.390 . S
C747 C746 1.387 . S
C747 C749 1.387 . S
H748 C755 0.950 . S
C749 C747 1.387 . S
C749 C751 1.390 . S
C749 H753 0.950 . S
H750 C746 0.950 . S
C751 C749 1.390 . S
C751 C752 1.387 . S
C751 H754 0.950 . S
C752 C751 1.387 . S
C752 C755 1.387 . S
H753 C749 0.950 . S
H754 C751 0.950 . S
C755 C746 1.390 . S
C755 H748 0.950 . S
C755 C752 1.387 . S
C756 C757 1.387 . S
C756 H760 0.950 . S
C756 C765 1.390 . S
C757 C756 1.387 . S
C757 C759 1.387 . S
H758 C765 0.950 . S
C759 C757 1.387 . S
C759 C761 1.390 . S
C759 H763 0.950 . S
H760 C756 0.950 . S
C761 C759 1.390 . S
C761 C762 1.387 . S
C761 H764 0.950 . S
C762 C761 1.387 . S
C762 C765 1.387 . S
H763 C759 0.950 . S
H764 C761 0.950 . S
C765 C756 1.390 . S
C765 H758 0.950 . S
C765 C762 1.387 . S
C766 C767 1.387 . S
C766 H770 0.950 . S
C766 C775 1.390 1_565 S
C767 C766 1.387 . S
C767 C769 1.387 . S
H768 C775 0.950 . S
C769 C767 1.387 . S
C769 C771 1.390 1_565 S
C769 H773 0.950 . S
H770 C766 0.950 . S
C771 C769 1.390 1_545 S
C771 C772 1.387 . S
C771 H774 0.950 . S
C772 C771 1.387 . S
C772 C775 1.387 . S
H773 C769 0.950 . S
H774 C771 0.950 . S
C775 C766 1.390 1_545 S
C775 H768 0.950 . S
C775 C772 1.387 . S
C776 C777 1.387 . S
C776 H780 0.950 1_554 S
C776 C785 1.390 . S
C777 C776 1.387 . S
C777 C779 1.387 . S
H778 C785 0.950 1_556 S
C779 C777 1.387 . S
C779 C781 1.390 . S
C779 H783 0.950 . S
H780 C776 0.950 1_556 S
C781 C779 1.390 . S
C781 C782 1.387 . S
C781 H784 0.950 . S
C782 C781 1.387 . S
C782 C785 1.387 . S
H783 C779 0.950 . S
H784 C781 0.950 . S
C785 C776 1.390 . S
C785 H778 0.950 1_554 S
C785 C782 1.387 . S
C786 C787 1.387 . S
C786 H790 0.950 1_554 S
C786 C795 1.390 . S
C787 C786 1.387 . S
C787 C789 1.387 . S
H788 C795 0.950 1_556 S
C789 C787 1.387 . S
C789 C791 1.390 . S
C789 H793 0.950 . S
H790 C786 0.950 1_556 S
C791 C789 1.390 . S
C791 C792 1.387 . S
C791 H794 0.950 . S
C792 C791 1.387 . S
C792 C795 1.387 . S
H793 C789 0.950 . S
H794 C791 0.950 . S
C795 C786 1.390 . S
C795 H788 0.950 1_554 S
C795 C792 1.387 . S
C796 C797 1.387 . S
C796 H800 0.950 . S
C796 C805 1.390 1_455 S
C797 C796 1.387 . S
C797 C799 1.387 . S
H798 C805 0.950 . S
C799 C797 1.387 . S
C799 C801 1.390 1_455 S
C799 H803 0.950 . S
H800 C796 0.950 . S
C801 C799 1.390 1_655 S
C801 C802 1.387 . S
C801 H804 0.950 . S
C802 C801 1.387 . S
C802 C805 1.387 . S
H803 C799 0.950 . S
H804 C801 0.950 . S
C805 C796 1.390 1_655 S
C805 H798 0.950 . S
C805 C802 1.387 . S
C806 C807 1.387 . S
C806 H810 0.950 . S
C806 C815 1.390 . S
C807 C806 1.387 . S
C807 C809 1.387 . S
H808 C815 0.950 . S
C809 C807 1.387 . S
C809 C811 1.390 . S
C809 H813 0.950 . S
H810 C806 0.950 . S
C811 C809 1.390 . S
C811 C812 1.387 . S
C811 H814 0.950 . S
C812 C811 1.387 . S
C812 C815 1.387 . S
H813 C809 0.950 . S
H814 C811 0.950 . S
C815 C806 1.390 . S
C815 H808 0.950 . S
C815 C812 1.387 . S
C816 C817 1.387 . S
C816 H820 0.950 . S
C816 C825 1.390 . S
C817 C816 1.387 . S
C817 C819 1.387 . S
H818 C825 0.950 . S
C819 C817 1.387 . S
C819 C821 1.390 . S
C819 H823 0.950 . S
H820 C816 0.950 . S
C821 C819 1.390 . S
C821 C822 1.387 . S
C821 H824 0.950 . S
C822 C821 1.387 . S
C822 C825 1.387 . S
H823 C819 0.950 . S
H824 C821 0.950 . S
C825 C816 1.390 . S
C825 H818 0.950 . S
C825 C822 1.387 . S
C826 C827 1.387 . S
C826 H830 0.950 . S
C826 C835 1.390 1_645 S
C827 C826 1.387 . S
C827 C829 1.387 . S
H828 C835 0.950 . S
C829 C827 1.387 . S
C829 C831 1.390 1_645 S
C829 H833 0.950 . S
H830 C826 0.950 . S
C831 C829 1.390 1_465 S
C831 C832 1.387 . S
C831 H834 0.950 . S
C832 C831 1.387 . S
C832 C835 1.387 . S
H833 C829 0.950 . S
H834 C831 0.950 . S
C835 C826 1.390 1_465 S
C835 H828 0.950 . S
C835 C832 1.387 . S
C836 C837 1.387 . S
C836 H840 0.950 . S
C836 C845 1.390 . S
C837 C836 1.387 . S
C837 C839 1.387 . S
H838 C845 0.950 . S
C839 C837 1.387 . S
C839 C841 1.390 . S
C839 H843 0.950 . S
H840 C836 0.950 . S
C841 C839 1.390 . S
C841 C842 1.387 . S
C841 H844 0.950 . S
C842 C841 1.387 . S
C842 C845 1.387 . S
H843 C839 0.950 . S
H844 C841 0.950 . S
C845 C836 1.390 . S
C845 H838 0.950 . S
C845 C842 1.387 . S
C846 C847 1.387 . S
C846 H850 0.950 . S
C846 C855 1.390 1_565 S
C847 C846 1.387 . S
C847 C849 1.387 . S
H848 C855 0.950 . S
C849 C847 1.387 . S
C849 C851 1.390 1_565 S
C849 H853 0.950 . S
H850 C846 0.950 . S
C851 C849 1.390 1_545 S
C851 C852 1.387 . S
C851 H854 0.950 . S
C852 C851 1.387 . S
C852 C855 1.387 . S
H853 C849 0.950 . S
H854 C851 0.950 . S
C855 C846 1.390 1_545 S
C855 H848 0.950 . S
C855 C852 1.387 . S
C537 C45 1.300 . S
C542 C100 1.275 . S
C547 C41 1.299 . S
C552 C161 1.280 . S
C557 C234 1.276 . S
C562 C112 1.300 . S
C567 C175 1.299 . S
C572 C228 1.281 . S
C577 C246 1.301 . S
C582 C301 1.276 . S
C587 C362 1.278 . S
C592 C242 1.299 . S
C597 C313 1.301 . S
C602 C33 1.275 . S
C607 C376 1.299 . S
C612 C27 1.281 . S
C617 C368 1.279 . S
C622 C447 1.299 . S
C627 C443 1.301 . S
C632 C295 1.276 . S
C637 C502 1.276 . S
C642 C380 1.301 . S
C647 C496 1.279 . S
C652 C309 1.299 . S
C657 C514 1.301 . S
C662 C167 1.276 . S
C667 C94 1.279 . S
C672 C510 1.299 . S
C677 C435 1.276 . S
C682 C179 1.301 . S
C687 C429 1.279 . S
C692 C108 1.299 . S
C697 C35 1.902 . S
C702 C24 1.902 . S
C707 C91 1.902 . S
C712 C102 1.902 . S
C717 C158 1.902 . S
C722 C169 1.902 . S
C727 C225 1.902 . S
C732 C236 1.902 . S
C737 C292 1.902 . S
C742 C303 1.902 . S
C747 C359 1.902 . S
C752 C370 1.902 . S
C757 C437 1.902 . S
C762 C426 1.902 . S
C767 C493 1.902 . S
C772 C504 1.902 . S
C777 C508 1.428 . S
C782 C48 1.425 . S
C787 C39 1.428 . S
C792 C517 1.431 . S
C797 C115 1.428 . S
C802 C173 1.428 . S
C807 C441 1.428 . S
C812 C249 1.427 . S
C817 C240 1.429 . S
C822 C450 1.430 . S
C827 C374 1.428 . S
C832 C316 1.428 . S
C837 C383 1.429 . S
C842 C307 1.429 . S
C847 C182 1.429 . S
C852 C106 1.429 . S
