# Generated by pormake.
# Topology wmi, (6)-cn, num edge types: 1
# Building blocks:
#     Node 0, Type 0, BuildingBlock: JUFBIX_clean_sbu_0, # of connection points: 6
#     Node 1, Type 0, BuildingBlock: JUFBIX_clean_sbu_0, # of connection points: 6
#     Node 2, Type 0, BuildingBlock: JUFBIX_clean_sbu_0, # of connection points: 6
#     Node 3, Type 0, BuildingBlock: JUFBIX_clean_sbu_0, # of connection points: 6
#     Node 4, Type 0, BuildingBlock: JUFBIX_clean_sbu_0, # of connection points: 6
#     Node 5, Type 0, BuildingBlock: JUFBIX_clean_sbu_0, # of connection points: 6
#     Node 6, Type 0, BuildingBlock: JUFBIX_clean_sbu_0, # of connection points: 6
#     Node 7, Type 0, BuildingBlock: JUFBIX_clean_sbu_0, # of connection points: 6
#     Node 8, Type 0, BuildingBlock: JUFBIX_clean_sbu_0, # of connection points: 6
#     Node 9, Type 0, BuildingBlock: JUFBIX_clean_sbu_0, # of connection points: 6
#     Node 10, Type 0, BuildingBlock: JUFBIX_clean_sbu_0, # of connection points: 6
#     Node 11, Type 0, BuildingBlock: JUFBIX_clean_sbu_0, # of connection points: 6
#     Node 12, Type 0, BuildingBlock: JUFBIX_clean_sbu_0, # of connection points: 6
#     Node 13, Type 0, BuildingBlock: JUFBIX_clean_sbu_0, # of connection points: 6
#     Node 14, Type 0, BuildingBlock: JUFBIX_clean_sbu_0, # of connection points: 6
#     Node 15, Type 0, BuildingBlock: JUFBIX_clean_sbu_0, # of connection points: 6
#     Node 16, Type 0, BuildingBlock: JUFBIX_clean_sbu_0, # of connection points: 6
#     Node 17, Type 0, BuildingBlock: JUFBIX_clean_sbu_0, # of connection points: 6
#     Edge 18, Type (0, 0), BuildingBlock: CIFDUS_clean_linker_0, # of connection points: 2
#     Edge 19, Type (0, 0), BuildingBlock: CIFDUS_clean_linker_0, # of connection points: 2
#     Edge 20, Type (0, 0), BuildingBlock: CIFDUS_clean_linker_0, # of connection points: 2
#     Edge 21, Type (0, 0), BuildingBlock: CIFDUS_clean_linker_0, # of connection points: 2
#     Edge 22, Type (0, 0), BuildingBlock: CIFDUS_clean_linker_0, # of connection points: 2
#     Edge 23, Type (0, 0), BuildingBlock: CIFDUS_clean_linker_0, # of connection points: 2
#     Edge 24, Type (0, 0), BuildingBlock: CIFDUS_clean_linker_0, # of connection points: 2
#     Edge 25, Type (0, 0), BuildingBlock: CIFDUS_clean_linker_0, # of connection points: 2
#     Edge 26, Type (0, 0), BuildingBlock: CIFDUS_clean_linker_0, # of connection points: 2
#     Edge 27, Type (0, 0), BuildingBlock: CIFDUS_clean_linker_0, # of connection points: 2
#     Edge 28, Type (0, 0), BuildingBlock: CIFDUS_clean_linker_0, # of connection points: 2
#     Edge 29, Type (0, 0), BuildingBlock: CIFDUS_clean_linker_0, # of connection points: 2
#     Edge 30, Type (0, 0), BuildingBlock: CIFDUS_clean_linker_0, # of connection points: 2
#     Edge 31, Type (0, 0), BuildingBlock: CIFDUS_clean_linker_0, # of connection points: 2
#     Edge 32, Type (0, 0), BuildingBlock: CIFDUS_clean_linker_0, # of connection points: 2
#     Edge 33, Type (0, 0), BuildingBlock: CIFDUS_clean_linker_0, # of connection points: 2
#     Edge 34, Type (0, 0), BuildingBlock: CIFDUS_clean_linker_0, # of connection points: 2
#     Edge 35, Type (0, 0), BuildingBlock: CIFDUS_clean_linker_0, # of connection points: 2
#     Edge 36, Type (0, 0), BuildingBlock: CIFDUS_clean_linker_0, # of connection points: 2
#     Edge 37, Type (0, 0), BuildingBlock: CIFDUS_clean_linker_0, # of connection points: 2
#     Edge 38, Type (0, 0), BuildingBlock: CIFDUS_clean_linker_0, # of connection points: 2
#     Edge 39, Type (0, 0), BuildingBlock: CIFDUS_clean_linker_0, # of connection points: 2
#     Edge 40, Type (0, 0), BuildingBlock: CIFDUS_clean_linker_0, # of connection points: 2
#     Edge 41, Type (0, 0), BuildingBlock: CIFDUS_clean_linker_0, # of connection points: 2
#     Edge 42, Type (0, 0), BuildingBlock: CIFDUS_clean_linker_0, # of connection points: 2
#     Edge 43, Type (0, 0), BuildingBlock: CIFDUS_clean_linker_0, # of connection points: 2
#     Edge 44, Type (0, 0), BuildingBlock: CIFDUS_clean_linker_0, # of connection points: 2
#     Edge 45, Type (0, 0), BuildingBlock: CIFDUS_clean_linker_0, # of connection points: 2
#     Edge 46, Type (0, 0), BuildingBlock: CIFDUS_clean_linker_0, # of connection points: 2
#     Edge 47, Type (0, 0), BuildingBlock: CIFDUS_clean_linker_0, # of connection points: 2
#     Edge 48, Type (0, 0), BuildingBlock: CIFDUS_clean_linker_0, # of connection points: 2
#     Edge 49, Type (0, 0), BuildingBlock: CIFDUS_clean_linker_0, # of connection points: 2
#     Edge 50, Type (0, 0), BuildingBlock: CIFDUS_clean_linker_0, # of connection points: 2
#     Edge 51, Type (0, 0), BuildingBlock: CIFDUS_clean_linker_0, # of connection points: 2
#     Edge 52, Type (0, 0), BuildingBlock: CIFDUS_clean_linker_0, # of connection points: 2
#     Edge 53, Type (0, 0), BuildingBlock: CIFDUS_clean_linker_0, # of connection points: 2
#     Edge 54, Type (0, 0), BuildingBlock: CIFDUS_clean_linker_0, # of connection points: 2
#     Edge 55, Type (0, 0), BuildingBlock: CIFDUS_clean_linker_0, # of connection points: 2
#     Edge 56, Type (0, 0), BuildingBlock: CIFDUS_clean_linker_0, # of connection points: 2
#     Edge 57, Type (0, 0), BuildingBlock: CIFDUS_clean_linker_0, # of connection points: 2
#     Edge 58, Type (0, 0), BuildingBlock: CIFDUS_clean_linker_0, # of connection points: 2
#     Edge 59, Type (0, 0), BuildingBlock: CIFDUS_clean_linker_0, # of connection points: 2
#     Edge 60, Type (0, 0), BuildingBlock: CIFDUS_clean_linker_0, # of connection points: 2
#     Edge 61, Type (0, 0), BuildingBlock: CIFDUS_clean_linker_0, # of connection points: 2
#     Edge 62, Type (0, 0), BuildingBlock: CIFDUS_clean_linker_0, # of connection points: 2
#     Edge 63, Type (0, 0), BuildingBlock: CIFDUS_clean_linker_0, # of connection points: 2
#     Edge 64, Type (0, 0), BuildingBlock: CIFDUS_clean_linker_0, # of connection points: 2
#     Edge 65, Type (0, 0), BuildingBlock: CIFDUS_clean_linker_0, # of connection points: 2
#     Edge 66, Type (0, 0), BuildingBlock: CIFDUS_clean_linker_0, # of connection points: 2
#     Edge 67, Type (0, 0), BuildingBlock: CIFDUS_clean_linker_0, # of connection points: 2
#     Edge 68, Type (0, 0), BuildingBlock: CIFDUS_clean_linker_0, # of connection points: 2
#     Edge 69, Type (0, 0), BuildingBlock: CIFDUS_clean_linker_0, # of connection points: 2
#     Edge 70, Type (0, 0), BuildingBlock: CIFDUS_clean_linker_0, # of connection points: 2
#     Edge 71, Type (0, 0), BuildingBlock: CIFDUS_clean_linker_0, # of connection points: 2
# Relax obj value: 0.308
# Max RMSD: 0.240
# Mean RMSD: 0.240
data_MOF--net-wmi--node1-JUFBIX_clean_sbu_0--edge1-CIFDUS_clean_linker_0
_symmetry_space_group_name_H-M    P1
_symmetry_Int_Tables_number       1
_symmetry_cell_setting            triclinic
loop_
_symmetry_equiv_pos_as_xyz
'x, y, z'
_cell_length_a     29.751474
_cell_length_b     29.660117
_cell_length_c     72.007121
_cell_angle_alpha  89.978104
_cell_angle_beta   90.182159
_cell_angle_gamma 119.7912
loop_
_atom_site_label
_atom_site_type_symbol
_atom_site_fract_x
_atom_site_fract_y
_atom_site_fract_z
_atom_type_partial_charge
Co0 Co 0.49725 0.97882 0.12379 0.0
C1 C 0.50737 0.01841 0.08753 0.0
Co2 Co 0.47185 0.03663 0.12009 0.0
C3 C 0.51722 0.89663 0.11387 0.0
C4 C 0.55387 0.93319 0.1395 0.0
N5 N 0.52236 0.93344 0.12605 0.0
N6 N 0.54481 0.87388 0.11907 0.0
C7 C 0.56786 0.89666 0.13522 0.0
H8 H 0.4948 0.8877 0.10117 0.0
H9 H 0.56662 0.95866 0.15147 0.0
C10 C 0.45585 0.99386 0.15589 0.0
N11 N 0.4474 0.08337 0.1184 0.0
C12 C 0.47291 0.13455 0.11408 0.0
C13 C 0.39975 0.07329 0.12353 0.0
N14 N 0.44296 0.15666 0.11635 0.0
C15 C 0.39687 0.11795 0.12225 0.0
C16 C 0.39584 0.93296 0.11424 0.0
O17 O 0.47495 0.96714 0.14937 0.0
O18 O 0.45528 0.02864 0.14574 0.0
O19 O 0.40365 0.97924 0.11486 0.0
O20 O 0.43315 0.92483 0.11717 0.0
O21 O 0.48735 0.04373 0.09445 0.0
H22 H 0.36956 0.03628 0.12865 0.0
H23 H 0.51292 0.15533 0.10966 0.0
O24 O 0.51662 0.98919 0.09793 0.0
O25 O 0.56284 0.03352 0.13054 0.0
O26 O 0.54042 0.0924 0.12517 0.0
C27 C 0.57476 0.08078 0.12967 0.0
H28 H 0.59268 0.88727 0.14341 0.0
H29 H 0.36394 0.12195 0.12616 0.0
Co30 Co 0.04136 0.50342 0.11905 0.0
C31 C 0.00402 0.47205 0.08249 0.0
Co32 Co 0.99103 0.42017 0.11474 0.0
C33 C 0.13063 0.60857 0.12236 0.0
C34 C 0.05888 0.60569 0.11626 0.0
N35 N 0.0794 0.57525 0.12044 0.0
N36 N 0.14251 0.65843 0.11948 0.0
C37 C 0.09719 0.65638 0.11574 0.0
H38 H 0.15869 0.59622 0.12502 0.0
H39 H 0.01889 0.59185 0.11253 0.0
C40 C 0.03174 0.44894 0.15075 0.0
N41 N 0.9481 0.34892 0.11299 0.0
C42 C 0.89799 0.325 0.10764 0.0
C43 C 0.95457 0.31125 0.12084 0.0
N44 N 0.87215 0.27453 0.11254 0.0
C45 C 0.90783 0.26547 0.12066 0.0
C46 C 0.09555 0.45535 0.10933 0.0
O47 O 0.05796 0.49481 0.14422 0.0
O48 O 0.99752 0.41325 0.1406 0.0
O49 O 0.05149 0.41425 0.11082 0.0
O50 O 0.09889 0.49949 0.11115 0.0
O51 O 0.98583 0.42666 0.08904 0.0
H52 H 0.98967 0.31765 0.12771 0.0
H53 H 0.87943 0.3454 0.10193 0.0
O54 O 0.02582 0.5108 0.09343 0.0
O55 O 0.98384 0.50724 0.12745 0.0
O56 O 0.93123 0.42799 0.11856 0.0
C57 C 0.93824 0.47071 0.125 0.0
H58 H 0.09222 0.68872 0.11162 0.0
H59 H 0.90006 0.22932 0.12709 0.0
Co60 Co 0.53033 0.53813 0.10198 0.0
C61 C 0.56952 0.53006 0.06728 0.0
Co62 Co 0.61415 0.56709 0.10131 0.0
C63 C 0.42573 0.5244 0.10628 0.0
C64 C 0.42908 0.46209 0.09261 0.0
N65 N 0.45908 0.5086 0.1008 0.0
N66 N 0.37617 0.48911 0.10183 0.0
C67 C 0.37854 0.45013 0.09318 0.0
H68 H 0.43759 0.56091 0.11329 0.0
H69 H 0.44321 0.43851 0.08624 0.0
C70 C 0.57739 0.58201 0.13544 0.0
N71 N 0.68457 0.59204 0.102 0.0
C72 C 0.70715 0.5639 0.09744 0.0
C73 C 0.72166 0.63423 0.1109 0.0
N74 N 0.7561 0.58545 0.10377 0.0
C75 C 0.76572 0.63007 0.11213 0.0
C76 C 0.58562 0.64131 0.09316 0.0
O77 O 0.53282 0.55859 0.12768 0.0
O78 O 0.616 0.58534 0.1267 0.0
O79 O 0.62441 0.6343 0.09489 0.0
O80 O 0.5401 0.603 0.09498 0.0
O81 O 0.61274 0.55029 0.07569 0.0
H82 H 0.7157 0.66368 0.11743 0.0
H83 H 0.68637 0.52559 0.09126 0.0
O84 O 0.52929 0.52084 0.0763 0.0
O85 O 0.52025 0.47237 0.10913 0.0
O86 O 0.60282 0.49937 0.10799 0.0
C87 C 0.55696 0.46264 0.11048 0.0
H88 H 0.34622 0.41597 0.08712 0.0
H89 H 0.80081 0.65603 0.11962 0.0
Co90 Co 0.99138 0.48396 0.93768 0.0
C91 C 0.03012 0.47206 0.97216 0.0
Co92 Co 0.04444 0.45256 0.93635 0.0
C93 C 0.90946 0.51124 0.93268 0.0
C94 C 0.96885 0.55849 0.9521 0.0
N95 N 0.95283 0.51685 0.94084 0.0
N96 N 0.89819 0.54807 0.93842 0.0
C97 C 0.93577 0.57771 0.95062 0.0
H98 H 0.88711 0.48108 0.92265 0.0
H99 H 0.00369 0.57516 0.96048 0.0
C100 C 0.003 0.45864 0.90202 0.0
N101 N 0.08833 0.42531 0.93339 0.0
C102 C 0.13908 0.44983 0.93795 0.0
C103 C 0.0816 0.3861 0.92215 0.0
N104 N 0.16509 0.42926 0.92936 0.0
C105 C 0.12864 0.38842 0.91965 0.0
C106 C 0.93898 0.37907 0.93997 0.0
O107 O 0.97713 0.47467 0.91127 0.0
O108 O 0.03658 0.45141 0.91032 0.0
O109 O 0.98383 0.38405 0.93758 0.0
O110 O 0.93444 0.41926 0.94142 0.0
O111 O 0.05155 0.45242 0.96242 0.0
H112 H 0.04598 0.36058 0.91487 0.0
H113 H 0.1572 0.48445 0.94645 0.0
O114 O 0.00457 0.49024 0.96405 0.0
O115 O 0.04812 0.54933 0.93376 0.0
O116 O 0.10357 0.52192 0.93518 0.0
C117 C 0.09451 0.55932 0.93399 0.0
H118 H 0.94033 0.61199 0.95761 0.0
H119 H 0.13592 0.36458 0.91012 0.0
Co120 Co 0.55064 0.50707 0.92089 0.0
C121 C 0.53925 0.53176 0.95757 0.0
Co122 Co 0.5653 0.58684 0.92497 0.0
C123 C 0.51506 0.39941 0.92949 0.0
C124 C 0.56647 0.42655 0.9062 0.0
N125 N 0.54124 0.44092 0.91827 0.0
N126 N 0.52342 0.36022 0.92493 0.0
C127 C 0.55584 0.37705 0.91037 0.0
H128 H 0.49338 0.39915 0.94157 0.0
H129 H 0.5938 0.45168 0.89589 0.0
C130 C 0.58345 0.56581 0.88877 0.0
N131 N 0.57571 0.65349 0.92721 0.0
C132 C 0.54097 0.6683 0.93184 0.0
C133 C 0.61853 0.69764 0.92211 0.0
N134 N 0.56015 0.71977 0.92949 0.0
C135 C 0.60911 0.73839 0.92351 0.0
C136 C 0.65235 0.57806 0.92901 0.0
O137 O 0.56506 0.51971 0.89486 0.0
O138 O 0.58396 0.60009 0.89946 0.0
O139 O 0.63705 0.61095 0.9309 0.0
O140 O 0.62016 0.53154 0.92487 0.0
O141 O 0.54828 0.57458 0.95043 0.0
H142 H 0.65361 0.69976 0.91693 0.0
H143 H 0.50149 0.6415 0.93591 0.0
O144 O 0.53881 0.4967 0.94726 0.0
O145 O 0.47984 0.48145 0.91678 0.0
O146 O 0.49316 0.56083 0.9192 0.0
C147 C 0.4621 0.51247 0.91677 0.0
H148 H 0.57323 0.35629 0.90405 0.0
H149 H 0.63586 0.77845 0.91996 0.0
Co150 Co 0.50275 0.0315 0.94273 0.0
C151 C 0.46975 0.98624 0.97818 0.0
Co152 Co 0.41921 0.97823 0.94557 0.0
C153 C 0.60809 0.11996 0.93745 0.0
C154 C 0.60452 0.04999 0.94702 0.0
N155 N 0.57442 0.06992 0.9417 0.0
N156 N 0.65792 0.13158 0.93988 0.0
C157 C 0.65543 0.08744 0.94589 0.0
H158 H 0.5962 0.14736 0.93304 0.0
H159 H 0.59031 0.01089 0.95208 0.0
C160 C 0.44975 0.02541 0.91056 0.0
N161 N 0.3483 0.93675 0.94658 0.0
C162 C 0.32179 0.88523 0.94983 0.0
C163 C 0.31246 0.94882 0.94076 0.0
N164 N 0.27105 0.8642 0.94575 0.0
C165 C 0.2649 0.90429 0.94025 0.0
C166 C 0.45407 0.08333 0.95365 0.0
O167 O 0.49513 0.05008 0.9176 0.0
O168 O 0.4131 0.99067 0.92011 0.0
O169 O 0.41388 0.03869 0.9518 0.0
O170 O 0.49853 0.08821 0.9513 0.0
O171 O 0.4248 0.96592 0.97105 0.0
H172 H 0.32091 0.98676 0.93592 0.0
H173 H 0.33987 0.86314 0.95427 0.0
O174 O 0.50887 0.01413 0.96807 0.0
O175 O 0.50704 0.97433 0.93369 0.0
O176 O 0.42585 0.91885 0.93913 0.0
C177 C 0.47004 0.92808 0.93364 0.0
H178 H 0.68795 0.08298 0.9501 0.0
H179 H 0.2294 0.90123 0.93496 0.0
Co180 Co 0.16911 0.3476 0.45271 0.0
C181 C 0.17704 0.37609 0.4152 0.0
Co182 Co 0.14064 0.40131 0.44609 0.0
C183 C 0.19229 0.26575 0.44683 0.0
C184 C 0.22282 0.30569 0.47258 0.0
N185 N 0.19422 0.3036 0.45769 0.0
N186 N 0.2191 0.24453 0.45426 0.0
C187 C 0.23824 0.26938 0.4705 0.0
H188 H 0.17253 0.25476 0.43355 0.0
H189 H 0.2325 0.3325 0.48406 0.0
C190 C 0.12514 0.36812 0.48287 0.0
N191 N 0.11737 0.44844 0.44194 0.0
C192 C 0.1471 0.50014 0.4391 0.0
C193 C 0.06999 0.44145 0.44586 0.0
N194 N 0.12087 0.52586 0.44173 0.0
C195 C 0.07205 0.48889 0.44576 0.0
C196 C 0.06672 0.29741 0.44283 0.0
O197 O 0.14495 0.34079 0.47777 0.0
O198 O 0.12468 0.40076 0.47158 0.0
O199 O 0.07231 0.34288 0.44205 0.0
O200 O 0.10541 0.29197 0.44647 0.0
O201 O 0.15448 0.40045 0.42069 0.0
H202 H 0.03712 0.40495 0.45006 0.0
H203 H 0.18841 0.51941 0.43677 0.0
O204 O 0.19059 0.35311 0.42705 0.0
O205 O 0.2338 0.40294 0.45921 0.0
O206 O 0.21025 0.45818 0.44997 0.0
C207 C 0.24504 0.44922 0.45616 0.0
H208 H 0.26107 0.26133 0.48028 0.0
H209 H 0.04076 0.49583 0.44945 0.0
Co210 Co 0.71669 0.86166 0.43766 0.0
C211 C 0.67288 0.82682 0.40206 0.0
Co212 Co 0.66304 0.77839 0.4352 0.0
C213 C 0.80645 0.96745 0.44151 0.0
C214 C 0.73554 0.96361 0.4333 0.0
N215 N 0.75602 0.93355 0.43806 0.0
N216 N 0.81777 0.01741 0.43916 0.0
C217 C 0.7728 0.01462 0.43417 0.0
H218 H 0.83426 0.9555 0.44518 0.0
H219 H 0.69579 0.94941 0.42911 0.0
C220 C 0.70976 0.81052 0.47033 0.0
N221 N 0.61868 0.70732 0.4346 0.0
C222 C 0.56828 0.68409 0.42965 0.0
C223 C 0.62431 0.66992 0.4431 0.0
N224 N 0.54157 0.63442 0.43542 0.0
C225 C 0.57681 0.62505 0.44372 0.0
C226 C 0.76676 0.8098 0.42803 0.0
O227 O 0.73624 0.8552 0.46286 0.0
O228 O 0.67336 0.77418 0.46104 0.0
O229 O 0.72204 0.77016 0.43048 0.0
O230 O 0.77221 0.85504 0.42903 0.0
O231 O 0.65393 0.78225 0.40943 0.0
H232 H 0.65945 0.67615 0.44989 0.0
H233 H 0.55032 0.70473 0.42364 0.0
O234 O 0.69813 0.86679 0.41222 0.0
O235 O 0.66124 0.86815 0.44687 0.0
O236 O 0.60467 0.78816 0.44016 0.0
C237 C 0.6147 0.83241 0.44604 0.0
H238 H 0.76665 0.04694 0.43134 0.0
H239 H 0.56827 0.58953 0.45084 0.0
Co240 Co 0.19376 0.90272 0.45709 0.0
C241 C 0.21596 0.88732 0.4209 0.0
Co242 Co 0.27482 0.92445 0.45262 0.0
C243 C 0.09279 0.88759 0.44818 0.0
C244 C 0.0954 0.85778 0.47502 0.0
N245 N 0.12533 0.88417 0.46045 0.0
N246 N 0.04361 0.86347 0.4544 0.0
C247 C 0.04504 0.84481 0.4713 0.0
H248 H 0.10451 0.90539 0.43462 0.0
H249 H 0.10906 0.84707 0.48727 0.0
C250 C 0.25583 0.94655 0.48835 0.0
N251 N 0.34297 0.94089 0.44952 0.0
C252 C 0.36007 0.90859 0.44395 0.0
C253 C 0.38578 0.98448 0.45511 0.0
N254 N 0.41159 0.92968 0.4463 0.0
C255 C 0.42803 0.97766 0.45319 0.0
C256 C 0.25512 0.00399 0.4458 0.0
O257 O 0.2102 0.93023 0.48211 0.0
O258 O 0.28835 0.94221 0.47819 0.0
O259 O 0.29204 0.99424 0.44739 0.0
O260 O 0.20895 0.96841 0.44886 0.0
O261 O 0.26193 0.90866 0.42713 0.0
H262 H 0.38587 0.01789 0.46118 0.0
H263 H 0.33478 0.869 0.43943 0.0
O264 O 0.17886 0.8777 0.43189 0.0
O265 O 0.17792 0.83593 0.46518 0.0
O266 O 0.25603 0.85368 0.45764 0.0
C267 C 0.21073 0.82104 0.46304 0.0
H268 H 0.01196 0.82304 0.48024 0.0
H269 H 0.46744 0.00513 0.45721 0.0
Co270 Co 0.664 0.81499 0.25508 0.0
C271 C 0.69493 0.81495 0.29168 0.0
Co272 Co 0.71938 0.78616 0.25818 0.0
C273 C 0.58539 0.84164 0.26481 0.0
C274 C 0.61574 0.86685 0.23752 0.0
N275 N 0.61823 0.84007 0.25225 0.0
N276 N 0.56291 0.86879 0.25858 0.0
C277 C 0.58178 0.88439 0.24134 0.0
H278 H 0.57949 0.82468 0.27852 0.0
H279 H 0.63834 0.87447 0.225 0.0
C280 C 0.68442 0.77788 0.22206 0.0
N281 N 0.76844 0.76447 0.26085 0.0
C282 C 0.81853 0.79449 0.26609 0.0
C283 C 0.76463 0.719 0.25578 0.0
N284 N 0.84672 0.77035 0.26412 0.0
C285 C 0.81237 0.7224 0.2578 0.0
C286 C 0.61591 0.70984 0.26134 0.0
O287 O 0.65759 0.79666 0.22882 0.0
O288 O 0.71743 0.77464 0.23235 0.0
O289 O 0.66165 0.71606 0.26115 0.0
O290 O 0.60983 0.74902 0.2596 0.0
O291 O 0.7201 0.79579 0.28403 0.0
H292 H 0.72998 0.68623 0.25022 0.0
H293 H 0.83447 0.83433 0.27051 0.0
O294 O 0.66947 0.82968 0.28152 0.0
O295 O 0.71853 0.88234 0.2506 0.0
O296 O 0.77484 0.85673 0.25523 0.0
C297 C 0.76521 0.89326 0.25217 0.0
H298 H 0.57179 0.90683 0.23208 0.0
H299 H 0.82092 0.692 0.25433 0.0
Co300 Co 0.23346 0.84932 0.27911 0.0
C301 C 0.22632 0.90223 0.31062 0.0
Co302 Co 0.25194 0.92972 0.27459 0.0
C303 C 0.18498 0.73525 0.27906 0.0
C304 C 0.23569 0.77378 0.30203 0.0
N305 N 0.21829 0.78293 0.2859 0.0
N306 N 0.18053 0.69731 0.29063 0.0
C307 C 0.21259 0.72147 0.30496 0.0
H308 H 0.16308 0.72851 0.26633 0.0
H309 H 0.26227 0.80346 0.31149 0.0
C310 C 0.26592 0.88125 0.24343 0.0
N311 N 0.26799 0.99686 0.26871 0.0
C312 C 0.24185 0.02244 0.27211 0.0
C313 C 0.31015 0.03072 0.25905 0.0
N314 N 0.26645 0.07105 0.26502 0.0
C315 C 0.30936 0.0762 0.2568 0.0
C316 C 0.33738 0.92006 0.28389 0.0
O317 O 0.25302 0.84208 0.25401 0.0
O318 O 0.26135 0.91895 0.2495 0.0
O319 O 0.32459 0.95316 0.27873 0.0
O320 O 0.30218 0.8735 0.28622 0.0
O321 O 0.24407 0.94128 0.2999 0.0
H322 H 0.33947 0.02269 0.25379 0.0
H323 H 0.20588 0.00596 0.27976 0.0
O324 O 0.2163 0.85853 0.304 0.0
O325 O 0.16404 0.82449 0.27174 0.0
O326 O 0.17896 0.9047 0.27027 0.0
C327 C 0.14732 0.85598 0.26919 0.0
H328 H 0.21893 0.70247 0.31671 0.0
H329 H 0.33785 0.11021 0.24942 0.0
Co330 Co 0.17933 0.36473 0.27073 0.0
C331 C 0.13423 0.32701 0.30597 0.0
Co332 Co 0.09462 0.31234 0.27082 0.0
C333 C 0.28584 0.44993 0.26514 0.0
C334 C 0.27941 0.38866 0.28259 0.0
N335 N 0.25093 0.40379 0.27249 0.0
N336 N 0.33495 0.46395 0.2703 0.0
C337 C 0.33071 0.42532 0.2813 0.0
H338 H 0.27531 0.4726 0.25621 0.0
H339 H 0.26373 0.35322 0.29062 0.0
C340 C 0.13672 0.35538 0.23613 0.0
N341 N 0.02313 0.27012 0.26893 0.0
C342 C 0.995 0.21802 0.27107 0.0
C343 C 0.9897 0.28353 0.26155 0.0
N344 N 0.94575 0.19828 0.26499 0.0
C345 C 0.94223 0.23963 0.25918 0.0
C346 C 0.12762 0.41809 0.27464 0.0
O347 O 0.18046 0.37744 0.24443 0.0
O348 O 0.09704 0.3222 0.24493 0.0
O349 O 0.0877 0.3731 0.27365 0.0
O350 O 0.17254 0.42317 0.27451 0.0
O351 O 0.09195 0.30407 0.2969 0.0
H352 H 0.99994 0.3222 0.25698 0.0
H353 H 0.0109 0.19467 0.2763 0.0
O354 O 0.17644 0.35343 0.29717 0.0
O355 O 0.18637 0.30621 0.2666 0.0
O356 O 0.10327 0.25249 0.26789 0.0
C357 C 0.14899 0.26007 0.26633 0.0
H358 H 0.3622 0.42422 0.28844 0.0
H359 H 0.90881 0.23806 0.25253 0.0
Co360 Co 0.83165 0.68332 0.77515 0.0
C361 C 0.83944 0.71399 0.73855 0.0
Co362 Co 0.80202 0.73723 0.77064 0.0
C363 C 0.85698 0.6013 0.76959 0.0
C364 C 0.88706 0.64323 0.795 0.0
N365 N 0.8582 0.63974 0.78001 0.0
N366 N 0.88446 0.58113 0.77744 0.0
C367 C 0.90325 0.60739 0.79346 0.0
H368 H 0.83714 0.58906 0.75636 0.0
H369 H 0.89622 0.67058 0.80627 0.0
C370 C 0.78738 0.70166 0.80656 0.0
N371 N 0.77793 0.7836 0.76652 0.0
C372 C 0.79578 0.83052 0.77472 0.0
C373 C 0.7411 0.7795 0.75459 0.0
N374 N 0.7719 0.85609 0.76835 0.0
C375 C 0.73721 0.82388 0.75571 0.0
C376 C 0.72815 0.63244 0.7666 0.0
O377 O 0.80709 0.6752 0.80032 0.0
O378 O 0.78661 0.736 0.79625 0.0
O379 O 0.7338 0.67802 0.76714 0.0
O380 O 0.76747 0.62676 0.76863 0.0
O381 O 0.81573 0.73666 0.74473 0.0
H382 H 0.71916 0.74679 0.74543 0.0
H383 H 0.82584 0.84568 0.78523 0.0
O384 O 0.85356 0.69026 0.7498 0.0
O385 O 0.89638 0.74017 0.78173 0.0
O386 O 0.87075 0.79519 0.77438 0.0
C387 C 0.90662 0.78671 0.7797 0.0
H388 H 0.92632 0.60058 0.80353 0.0
H389 H 0.71185 0.83236 0.74746 0.0
Co390 Co 0.39243 0.20155 0.79192 0.0
C391 C 0.36048 0.1776 0.75497 0.0
Co392 Co 0.33463 0.11872 0.78724 0.0
C393 C 0.47763 0.30455 0.78427 0.0
C394 C 0.43955 0.30075 0.80988 0.0
N395 N 0.43981 0.27115 0.79571 0.0
N396 N 0.50034 0.35389 0.79062 0.0
C397 C 0.47661 0.35162 0.80677 0.0
H398 H 0.48698 0.29319 0.7712 0.0
H399 H 0.41302 0.28645 0.82147 0.0
C400 C 0.37147 0.14096 0.8237 0.0
N401 N 0.28562 0.04908 0.78326 0.0
C402 C 0.23542 0.02288 0.7886 0.0
C403 C 0.29237 0.01414 0.77343 0.0
N404 N 0.21099 0.97321 0.78257 0.0
C405 C 0.24678 0.96752 0.7731 0.0
C406 C 0.43582 0.1413 0.78381 0.0
O407 O 0.39743 0.18699 0.8174 0.0
O408 O 0.33813 0.10537 0.81317 0.0
O409 O 0.38926 0.10457 0.78308 0.0
O410 O 0.44584 0.18752 0.78687 0.0
O411 O 0.33354 0.13195 0.76143 0.0
H412 H 0.32781 0.02215 0.76654 0.0
H413 H 0.21693 0.03973 0.79674 0.0
O414 O 0.38785 0.21489 0.766 0.0
O415 O 0.33915 0.21547 0.7973 0.0
O416 O 0.28037 0.13486 0.79143 0.0
C417 C 0.29203 0.18082 0.79597 0.0
H418 H 0.4854 0.3844 0.81568 0.0
H419 H 0.23999 0.93258 0.76595 0.0
Co420 Co 0.86468 0.23713 0.77809 0.0
C421 C 0.90827 0.22935 0.74468 0.0
Co422 Co 0.94791 0.26476 0.77917 0.0
C423 C 0.75486 0.19202 0.78546 0.0
C424 C 0.77775 0.22571 0.75839 0.0
N425 N 0.79651 0.21796 0.77444 0.0
N426 N 0.71095 0.18243 0.77664 0.0
C427 C 0.72522 0.2037 0.75967 0.0
H428 H 0.75663 0.1804 0.79958 0.0
H429 H 0.80092 0.24636 0.74647 0.0
C430 C 0.90626 0.27811 0.81229 0.0
N431 N 0.01667 0.28327 0.78184 0.0
C432 C 0.03722 0.25254 0.77847 0.0
C433 C 0.05548 0.32676 0.78948 0.0
N434 N 0.087 0.27445 0.78403 0.0
C435 C 0.0988 0.32145 0.79085 0.0
C436 C 0.92896 0.34281 0.76992 0.0
O437 O 0.86353 0.25785 0.80336 0.0
O438 O 0.9456 0.27977 0.80469 0.0
O439 O 0.96636 0.33495 0.77358 0.0
O440 O 0.88305 0.30492 0.7705 0.0
O441 O 0.95092 0.252 0.75343 0.0
H442 H 0.0519 0.35928 0.79441 0.0
H443 H 0.01517 0.2136 0.77292 0.0
O444 O 0.86676 0.2179 0.75311 0.0
O445 O 0.8454 0.16887 0.78542 0.0
O446 O 0.92781 0.1932 0.78475 0.0
C447 C 0.88097 0.15725 0.78662 0.0
H448 H 0.69959 0.20499 0.74924 0.0
H449 H 0.13566 0.34958 0.79681 0.0
Co450 Co 0.34074 0.17943 0.60993 0.0
C451 C 0.38464 0.17577 0.64433 0.0
Co452 Co 0.39351 0.14805 0.60877 0.0
C453 C 0.25358 0.19809 0.60639 0.0
C454 C 0.31873 0.25726 0.62118 0.0
N455 N 0.3018 0.21171 0.61218 0.0
N456 N 0.24006 0.23366 0.61143 0.0
C457 C 0.28104 0.27081 0.62075 0.0
H458 H 0.22899 0.16282 0.59872 0.0
H459 H 0.35606 0.27901 0.62793 0.0
C460 C 0.34506 0.14303 0.57493 0.0
N461 N 0.43575 0.1191 0.60643 0.0
C462 C 0.48749 0.14314 0.60906 0.0
C463 C 0.42347 0.0734 0.59834 0.0
N464 N 0.50827 0.11492 0.60253 0.0
C465 C 0.46791 0.07068 0.59596 0.0
C466 C 0.28878 0.07527 0.61508 0.0
O467 O 0.3225 0.16347 0.5838 0.0
O468 O 0.3807 0.13887 0.58306 0.0
O469 O 0.33355 0.08046 0.61254 0.0
O470 O 0.28401 0.11539 0.6157 0.0
O471 O 0.40529 0.15512 0.63469 0.0
H472 H 0.38528 0.04543 0.59333 0.0
H473 H 0.50979 0.1816 0.61497 0.0
O474 O 0.35745 0.19203 0.63614 0.0
O475 O 0.39713 0.24426 0.60385 0.0
O476 O 0.4525 0.21664 0.60475 0.0
C477 C 0.44338 0.25388 0.60275 0.0
H478 H 0.28308 0.30456 0.62734 0.0
H479 H 0.47054 0.03995 0.58884 0.0
Co480 Co 0.88859 0.21434 0.60087 0.0
C481 C 0.89395 0.26006 0.63563 0.0
Co482 Co 0.91961 0.29839 0.60059 0.0
C483 C 0.87202 0.10852 0.59818 0.0
C484 C 0.81167 0.1149 0.61187 0.0
N485 N 0.85727 0.14315 0.60302 0.0
N486 N 0.83699 0.05986 0.60363 0.0
C487 C 0.79913 0.064 0.61224 0.0
H488 H 0.90788 0.11891 0.59108 0.0
H489 H 0.78948 0.13062 0.61822 0.0
C490 C 0.923 0.25627 0.56631 0.0
N491 N 0.94649 0.3691 0.59905 0.0
C492 C 0.92207 0.39411 0.60518 0.0
C493 C 0.9857 0.40401 0.58847 0.0
N494 N 0.94286 0.44249 0.5983 0.0
C495 C 0.98329 0.44923 0.58786 0.0
C496 C 0.9926 0.26693 0.6062 0.0
O497 O 0.90306 0.21285 0.57484 0.0
O498 O 0.92754 0.29581 0.57481 0.0
O499 O 0.98761 0.30691 0.60396 0.0
O500 O 0.95273 0.22214 0.60618 0.0
O501 O 0.91368 0.30185 0.6264 0.0
H502 H 0.01149 0.3957 0.5805 0.0
H503 H 0.88641 0.37537 0.61304 0.0
O504 O 0.87745 0.21732 0.62702 0.0
O505 O 0.82364 0.20575 0.59531 0.0
O506 O 0.85059 0.2884 0.59723 0.0
C507 C 0.81358 0.2423 0.5951 0.0
H508 H 0.76575 0.03283 0.61904 0.0
H509 H 0.00722 0.48306 0.57946 0.0
Co510 Co 0.85688 0.72748 0.5936 0.0
C511 C 0.81215 0.68142 0.62807 0.0
Co512 Co 0.77233 0.67585 0.59324 0.0
C513 C 0.96337 0.8173 0.59452 0.0
C514 C 0.9568 0.74426 0.60161 0.0
N515 N 0.92877 0.76591 0.5956 0.0
N516 N 0.01169 0.82802 0.59955 0.0
C517 C 0.00725 0.78189 0.60395 0.0
H518 H 0.95292 0.84623 0.59075 0.0
H519 H 0.94113 0.70377 0.60517 0.0
C520 C 0.81341 0.72673 0.55947 0.0
N521 N 0.70119 0.63322 0.59191 0.0
C522 C 0.67463 0.58274 0.59696 0.0
C523 C 0.66573 0.6427 0.5839 0.0
N524 N 0.62417 0.55987 0.59215 0.0
C525 C 0.61831 0.5977 0.58406 0.0
C526 C 0.80572 0.77939 0.60161 0.0
O527 O 0.85704 0.74819 0.56795 0.0
O528 O 0.77388 0.69112 0.56769 0.0
O529 O 0.76554 0.73537 0.59862 0.0
O530 O 0.85025 0.78357 0.60106 0.0
O531 O 0.77039 0.66228 0.61879 0.0
H532 H 0.67422 0.67929 0.57769 0.0
H533 H 0.69238 0.56287 0.60372 0.0
O534 O 0.8549 0.70807 0.61957 0.0
O535 O 0.86339 0.67101 0.58562 0.0
O536 O 0.78047 0.61703 0.58788 0.0
C537 C 0.82567 0.62544 0.58443 0.0
H538 H 0.03757 0.77582 0.6096 0.0
H539 H 0.58287 0.59277 0.57795 0.0
H540 H 0.62779 0.86081 0.11724 0.0
H541 H 0.46876 0.79495 0.0997 0.0
H542 H 0.4706 0.71978 0.08671 0.0
H543 H 0.51378 0.66815 0.08415 0.0
H544 H 0.67214 0.73246 0.10258 0.0
H545 H 0.67481 0.81359 0.11094 0.0
C546 C 0.59376 0.83008 0.11045 0.0
C547 C 0.54794 0.8328 0.10968 0.0
C548 C 0.59509 0.78695 0.10312 0.0
C549 C 0.50439 0.79354 0.10046 0.0
C550 C 0.5054 0.75055 0.0931 0.0
C551 C 0.54932 0.70039 0.08957 0.0
C552 C 0.59247 0.69411 0.09296 0.0
C553 C 0.55006 0.74621 0.09484 0.0
C554 C 0.63841 0.73633 0.0998 0.0
C555 C 0.63975 0.78251 0.10481 0.0
H556 H 0.37172 0.83401 0.10787 0.0
H557 H 0.30289 0.93023 0.11769 0.0
H558 H 0.21764 0.85241 0.12068 0.0
H559 H 0.16486 0.7579 0.12281 0.0
H560 H 0.23399 0.6621 0.11251 0.0
H561 H 0.31812 0.73969 0.10831 0.0
C562 C 0.33799 0.83809 0.11046 0.0
C563 C 0.34349 0.88772 0.11266 0.0
C564 C 0.28972 0.79349 0.11259 0.0
C565 C 0.2995 0.89241 0.11585 0.0
C566 C 0.25097 0.84799 0.11776 0.0
C567 C 0.19804 0.75375 0.1194 0.0
C568 C 0.19285 0.70401 0.11798 0.0
C569 C 0.24595 0.79843 0.11654 0.0
C570 C 0.23677 0.69969 0.11399 0.0
C571 C 0.28482 0.74407 0.11135 0.0
H572 H 0.19373 0.53622 0.10767 0.0
H573 H 0.10494 0.36848 0.10662 0.0
H574 H 0.185 0.36463 0.1053 0.0
H575 H 0.27937 0.40869 0.10487 0.0
H576 H 0.36841 0.57621 0.10494 0.0
H577 H 0.28848 0.58034 0.10697 0.0
C578 C 0.19174 0.49873 0.10703 0.0
C579 C 0.14339 0.45263 0.10715 0.0
C580 C 0.23778 0.49682 0.10643 0.0
C581 C 0.14161 0.40448 0.10643 0.0
C582 C 0.18734 0.40227 0.10578 0.0
C583 C 0.28143 0.44619 0.10512 0.0
C584 C 0.32983 0.4921 0.10455 0.0
C585 C 0.23551 0.44817 0.10583 0.0
C586 C 0.33175 0.54032 0.10549 0.0
C587 C 0.28606 0.54267 0.10647 0.0
H588 H 0.86162 0.60326 0.9565 0.0
H589 H 0.8388 0.51021 0.90741 0.0
H590 H 0.76419 0.51875 0.89884 0.0
H591 H 0.70155 0.54593 0.90668 0.0
H592 H 0.72288 0.63794 0.95568 0.0
H593 H 0.80449 0.63906 0.96243 0.0
C594 C 0.84127 0.58563 0.94371 0.0
C595 C 0.85577 0.55547 0.93276 0.0
C596 C 0.7987 0.59114 0.93876 0.0
C597 C 0.82803 0.53254 0.91636 0.0
C598 C 0.78562 0.53784 0.91134 0.0
C599 C 0.72477 0.56717 0.91864 0.0
C600 C 0.7066 0.59151 0.9308 0.0
C601 C 0.77013 0.56611 0.92263 0.0
C602 C 0.73667 0.61933 0.94613 0.0
C603 C 0.78275 0.61928 0.95007 0.0
H604 H 0.52851 0.17812 0.96457 0.0
H605 H 0.37194 0.09559 0.94359 0.0
H606 H 0.37732 0.17793 0.93497 0.0
H607 H 0.43298 0.27179 0.9279 0.0
H608 H 0.59132 0.35143 0.94658 0.0
H609 H 0.57936 0.27214 0.96161 0.0
C610 C 0.49502 0.17824 0.95861 0.0
C611 C 0.45025 0.13097 0.95445 0.0
C612 C 0.4993 0.22529 0.95291 0.0
C613 C 0.40689 0.13156 0.94693 0.0
C614 C 0.41021 0.1786 0.94176 0.0
C615 C 0.4641 0.27156 0.9357 0.0
C616 C 0.51296 0.31647 0.93619 0.0
C617 C 0.45713 0.22542 0.94381 0.0
C618 C 0.5536 0.31668 0.94612 0.0
C619 C 0.54672 0.27154 0.95464 0.0
H620 H 0.7546 0.14878 0.934 0.0
H621 H 0.66656 0.22676 0.94287 0.0
H622 H 0.74656 0.31033 0.9437 0.0
H623 H 0.8408 0.36031 0.94337 0.0
H624 H 0.92982 0.28288 0.93546 0.0
H625 H 0.84949 0.19915 0.93345 0.0
C626 C 0.7528 0.18394 0.93625 0.0
C627 C 0.7045 0.18131 0.93855 0.0
C628 C 0.79897 0.23164 0.93719 0.0
C629 C 0.70298 0.22753 0.94091 0.0
C630 C 0.74877 0.2753 0.94159 0.0
C631 C 0.84291 0.32519 0.94129 0.0
C632 C 0.89134 0.32779 0.93971 0.0
C633 C 0.79688 0.27761 0.94002 0.0
C634 C 0.8931 0.28187 0.93688 0.0
C635 C 0.84722 0.23411 0.93563 0.0
H636 H 0.18979 0.03078 0.43023 0.0
H637 H 0.34141 0.09521 0.45514 0.0
H638 H 0.34632 0.17984 0.45792 0.0
H639 H 0.30097 0.2303 0.45791 0.0
H640 H 0.1476 0.16349 0.43435 0.0
H641 H 0.14994 0.08488 0.42615 0.0
C642 C 0.2244 0.06374 0.43587 0.0
C643 C 0.26479 0.05695 0.44278 0.0
C644 C 0.22619 0.11141 0.4379 0.0
C645 C 0.30985 0.09978 0.44977 0.0
C646 C 0.31238 0.1479 0.45154 0.0
C647 C 0.26837 0.19862 0.45083 0.0
C648 C 0.22378 0.20201 0.44706 0.0
C649 C 0.26973 0.15334 0.44644 0.0
C650 C 0.18224 0.16156 0.43742 0.0
C651 C 0.18346 0.11658 0.43282 0.0
H652 H 0.04063 0.20202 0.45506 0.0
H653 H 0.9794 0.28702 0.42581 0.0
H654 H 0.89667 0.20635 0.42159 0.0
H655 H 0.84386 0.1127 0.42573 0.0
H656 H 0.90396 0.02911 0.45675 0.0
H657 H 0.98657 0.10901 0.46024 0.0
C658 C 0.00927 0.20301 0.44769 0.0
C659 C 0.01604 0.25021 0.44058 0.0
C660 C 0.9622 0.157 0.44551 0.0
C661 C 0.97491 0.25107 0.43137 0.0
C662 C 0.92786 0.20503 0.42892 0.0
C663 C 0.87437 0.11157 0.43354 0.0
C664 C 0.86707 0.06442 0.44105 0.0
C665 C 0.92126 0.15785 0.43591 0.0
C666 C 0.90824 0.06434 0.45065 0.0
C667 C 0.95546 0.11016 0.45277 0.0
H668 H 0.94942 0.77859 0.45391 0.0
H669 H 0.03725 0.93523 0.4334 0.0
H670 H 0.95846 0.92902 0.42013 0.0
H671 H 0.86367 0.88291 0.41809 0.0
H672 H 0.77548 0.72639 0.43906 0.0
H673 H 0.85552 0.72795 0.44795 0.0
C674 C 0.95113 0.81109 0.4464 0.0
C675 C 0.99856 0.85764 0.44489 0.0
C676 C 0.9058 0.8071 0.43885 0.0
C677 C 1.00094 0.89919 0.43476 0.0
C678 C 0.95598 0.89564 0.42724 0.0
C679 C 0.86201 0.84864 0.42417 0.0
C680 C 0.81374 0.80487 0.42814 0.0
C681 C 0.90803 0.8503 0.42967 0.0
C682 C 0.81214 0.76056 0.43584 0.0
C683 C 0.85788 0.76166 0.44114 0.0
H684 H 0.37575 0.8636 0.29956 0.0
H685 H 0.41918 0.99805 0.26514 0.0
H686 H 0.49736 0.99683 0.25543 0.0
H687 H 0.54555 0.94925 0.25312 0.0
H688 H 0.49693 0.81064 0.28581 0.0
H689 H 0.42879 0.82193 0.29984 0.0
C690 C 0.40304 0.89354 0.29031 0.0
C691 C 0.39142 0.93059 0.28296 0.0
C692 C 0.44642 0.89109 0.28416 0.0
C693 C 0.42731 0.96932 0.27111 0.0
C694 C 0.47163 0.9681 0.26533 0.0
C695 C 0.52013 0.92152 0.26332 0.0
C696 C 0.52597 0.87858 0.26813 0.0
C697 C 0.48022 0.9277 0.27111 0.0
C698 C 0.49353 0.84398 0.28181 0.0
C699 C 0.45433 0.85031 0.28981 0.0
H700 H 0.17405 0.64368 0.25995 0.0
H701 H 0.12291 0.62777 0.3166 0.0
H702 H 0.09228 0.5345 0.31572 0.0
H703 H 0.09505 0.46138 0.30057 0.0
H704 H 0.15315 0.47959 0.24477 0.0
H705 H 0.16535 0.56737 0.24328 0.0
C706 C 0.15451 0.61922 0.2718 0.0
C707 C 0.15097 0.64207 0.28833 0.0
C708 C 0.13905 0.56616 0.27139 0.0
C709 C 0.12626 0.61056 0.30379 0.0
C710 C 0.10905 0.55744 0.30331 0.0
C711 C 0.10886 0.48426 0.28797 0.0
C712 C 0.12333 0.46485 0.27283 0.0
C713 C 0.11749 0.5353 0.28748 0.0
C714 C 0.1419 0.49444 0.25657 0.0
C715 C 0.14904 0.54454 0.25574 0.0
H716 H 0.51747 0.68904 0.25739 0.0
H717 H 0.6081 0.61457 0.26818 0.0
H718 H 0.52803 0.53042 0.27083 0.0
H719 H 0.43259 0.47937 0.2708 0.0
H720 H 0.344 0.55651 0.26089 0.0
H721 H 0.42379 0.63868 0.25666 0.0
C722 C 0.52011 0.65457 0.26037 0.0
C723 C 0.56882 0.65819 0.26279 0.0
C724 C 0.47437 0.60692 0.26185 0.0
C725 C 0.57113 0.61287 0.26638 0.0
C726 C 0.5254 0.56487 0.26786 0.0
C727 C 0.43062 0.51415 0.26783 0.0
C728 C 0.38208 0.51163 0.26633 0.0
C729 C 0.47681 0.56161 0.26577 0.0
C730 C 0.38051 0.55698 0.26198 0.0
C731 C 0.42619 0.60414 0.25971 0.0
H732 H 0.96651 0.56748 0.78296 0.0
H733 H 0.81567 0.49871 0.75719 0.0
H734 H 0.82044 0.42088 0.74975 0.0
H735 H 0.86226 0.36846 0.75424 0.0
H736 H 0.01151 0.43519 0.78119 0.0
H737 H 0.01312 0.51821 0.78424 0.0
C738 C 0.93486 0.53554 0.77563 0.0
C739 C 0.89039 0.53847 0.77092 0.0
C740 C 0.93762 0.49064 0.77164 0.0
C741 C 0.85025 0.49743 0.76097 0.0
C742 C 0.85286 0.45281 0.7568 0.0
C743 C 0.89565 0.4015 0.76046 0.0
C744 C 0.93645 0.39561 0.76768 0.0
C745 C 0.89563 0.44844 0.76258 0.0
C746 C 0.97971 0.43881 0.77549 0.0
C747 C 0.98036 0.48609 0.7774 0.0
H748 H 0.70397 0.53466 0.75731 0.0
H749 H 0.63687 0.62471 0.77779 0.0
H750 H 0.55768 0.54478 0.78609 0.0
H751 H 0.5122 0.44992 0.79095 0.0
H752 H 0.58027 0.36055 0.77086 0.0
H753 H 0.65446 0.4396 0.75887 0.0
C754 C 0.67154 0.53676 0.76321 0.0
C755 C 0.67637 0.5855 0.76706 0.0
C756 C 0.62673 0.49081 0.76828 0.0
C757 C 0.63399 0.58768 0.77458 0.0
C758 C 0.58895 0.54199 0.77953 0.0
C759 C 0.54324 0.44788 0.78388 0.0
C760 C 0.5413 0.3997 0.78204 0.0
C761 C 0.58569 0.49349 0.77705 0.0
C762 C 0.58102 0.39722 0.77244 0.0
C763 C 0.62345 0.44239 0.76565 0.0
H764 H 0.5148 0.17321 0.80751 0.0
H765 H 0.45087 0.08514 0.75725 0.0
H766 H 0.5304 0.08103 0.7524 0.0
H767 H 0.62266 0.11619 0.75988 0.0
H768 H 0.68643 0.20538 0.80986 0.0
H769 H 0.60152 0.19379 0.81802 0.0
C770 C 0.51824 0.15242 0.79569 0.0
C771 C 0.47845 0.13064 0.78245 0.0
C772 C 0.56362 0.15032 0.7931 0.0
C773 C 0.48184 0.10258 0.76741 0.0
C774 C 0.52711 0.10036 0.76466 0.0
C775 C 0.61722 0.13158 0.77281 0.0
C776 C 0.6602 0.16226 0.78414 0.0
C777 C 0.56892 0.12597 0.77703 0.0
C778 C 0.65348 0.18166 0.80101 0.0
C779 C 0.60526 0.17561 0.80552 0.0
H780 H 0.01182 0.1873 0.60638 0.0
H781 H 0.0882 0.35492 0.60818 0.0
H782 H 0.17259 0.35919 0.60897 0.0
H783 H 0.22373 0.31489 0.60929 0.0
H784 H 0.14612 0.14732 0.60795 0.0
H785 H 0.06242 0.14352 0.60623 0.0
C786 C 0.04682 0.22494 0.60705 0.0
C787 C 0.04382 0.27081 0.60741 0.0
C788 C 0.09471 0.22703 0.60732 0.0
C789 C 0.08958 0.3191 0.60803 0.0
C790 C 0.1377 0.32152 0.60842 0.0
C791 C 0.1885 0.27754 0.60874 0.0
C792 C 0.19111 0.23143 0.60889 0.0
C793 C 0.1406 0.27568 0.60809 0.0
C794 C 0.14521 0.18334 0.60768 0.0
C795 C 0.09736 0.18114 0.60688 0.0
H796 H 0.88534 0.87787 0.60342 0.0
H797 H 0.71814 0.78758 0.60326 0.0
H798 H 0.71351 0.86763 0.60304 0.0
H799 H 0.75705 0.9625 0.60199 0.0
H800 H 0.92402 0.05238 0.60235 0.0
H801 H 0.92867 0.97242 0.60263 0.0
C802 C 0.84776 0.8755 0.60351 0.0
C803 C 0.80207 0.82686 0.60345 0.0
C804 C 0.84543 0.92136 0.60302 0.0
C805 C 0.75382 0.82459 0.60343 0.0
C806 C 0.75117 0.87025 0.60317 0.0
C807 C 0.79447 0.96463 0.60229 0.0
C808 C 0.84013 0.01324 0.60227 0.0
C809 C 0.79675 0.91873 0.60281 0.0
C810 C 0.88836 0.01544 0.60216 0.0
C811 C 0.89101 0.9698 0.60253 0.0
H812 H 0.18932 0.05472 0.61638 0.0
H813 H 0.28194 0.9803 0.61092 0.0
H814 H 0.20371 0.8973 0.60477 0.0
H815 H 0.11027 0.84742 0.59951 0.0
H816 H 0.01739 0.92131 0.60546 0.0
H817 H 0.09537 0.00401 0.61206 0.0
C818 C 0.19251 0.02026 0.61411 0.0
C819 C 0.24151 0.0237 0.61421 0.0
C820 C 0.14762 0.97304 0.61022 0.0
C821 C 0.24476 0.97868 0.61108 0.0
C822 C 0.2001 0.93134 0.6074 0.0
C823 C 0.10677 0.88134 0.60247 0.0
C824 C 0.05775 0.87783 0.60209 0.0
C825 C 0.1515 0.92832 0.60669 0.0
C826 C 0.05446 0.92278 0.60544 0.0
C827 C 0.09901 0.96999 0.60944 0.0
H828 H 0.45263 0.93873 0.06418 0.0
H829 H 0.57382 0.09874 0.06571 0.0
H830 H 0.57703 0.10106 0.03162 0.0
H831 H 0.54033 0.05924 1.00142 0.0
H832 H 0.4116 0.90259 1.00019 0.0
H833 H 0.41625 0.8968 0.034 0.0
C834 C 0.48031 0.97369 0.05696 0.0
C835 C 0.51361 0.01826 0.06726 0.0
C836 C 0.48016 0.97528 0.03743 0.0
C837 C 0.54837 0.06391 0.05793 0.0
C838 C 0.54999 0.06522 0.0385 0.0
C839 C 0.51391 0.0236 1.00857 0.0
C840 C 0.47597 0.98119 0.99835 0.0
C841 C 0.51544 0.0214 0.02809 0.0
C842 C 0.44118 0.93562 1.00778 0.0
C843 C 0.4438 0.93236 0.0271 0.0
H844 H 0.01186 0.52993 0.99745 0.0
H845 H 0.04812 0.40632 0.99297 0.0
H846 H 0.04061 0.39418 0.02652 0.0
H847 H 0.02205 0.417 0.05705 0.0
H848 H 0.99331 0.54511 0.06259 0.0
H849 H 0.99919 0.5571 0.02871 0.0
C850 C 0.01845 0.50062 1.00387 0.0
C851 C 0.03037 0.46895 0.9927 0.0
C852 C 0.01489 0.49433 1.02331 0.0
C853 C 0.0392 0.4314 1.00122 0.0
C854 C 0.03459 0.42418 1.02041 0.0
C855 C 0.01665 0.44729 0.05081 0.0
C856 C 0.00621 0.47948 0.06216 0.0
C857 C 0.02198 0.45502 0.03154 0.0
C858 C 1.00083 0.51957 0.05403 0.0
C859 C 0.00433 0.52644 0.03471 0.0
H860 H 0.59408 0.50626 0.98114 0.0
H861 H 0.47235 0.5448 0.97922 0.0
H862 H 0.46751 0.54241 1.0132 0.0
H863 H 0.50204 0.53536 0.0434 0.0
H864 H 0.63123 0.50779 0.04555 0.0
H865 H 0.62925 0.49975 1.01162 0.0
C866 C 0.56597 0.51319 0.98825 0.0
C867 C 0.53297 0.52484 0.97784 0.0
C868 C 0.5652 0.51418 1.0078 0.0
C869 C 0.49767 0.53527 0.98705 0.0
C870 C 0.49507 0.53408 1.00643 0.0
C871 C 0.52931 0.5269 0.03644 0.0
C872 C 0.56646 0.52172 0.04694 0.0
C873 C 0.5292 0.52442 1.01695 0.0
C874 C 0.60225 0.51184 0.03774 0.0
C875 C 0.60111 0.50727 1.01836 0.0
H876 H 0.0989 0.34657 0.3911 0.0
H877 H 0.25834 0.38416 0.39455 0.0
H878 H 0.25925 0.37089 0.36082 0.0
H879 H 0.21453 0.3513 0.33017 0.0
H880 H 0.05264 0.30689 0.32805 0.0
H881 H 0.05258 0.31938 0.36147 0.0
C882 C 0.13391 0.35201 0.38442 0.0
C883 C 0.17884 0.36738 0.39509 0.0
C884 C 0.13347 0.34268 0.36531 0.0
C885 C 0.22353 0.37287 0.38649 0.0
C886 C 0.22394 0.36522 0.36726 0.0
C887 C 0.17916 0.34384 0.33708 0.0
C888 C 0.13369 0.3284 0.32656 0.0
C889 C 0.17915 0.35044 0.35649 0.0
C890 C 0.08808 0.31853 0.33575 0.0
C891 C 0.08806 0.326 0.35488 0.0
H892 H 0.67004 0.75895 0.37674 0.0
H893 H 0.67597 0.90659 0.38147 0.0
H894 H 0.68067 0.91569 0.34747 0.0
H895 H 0.68626 0.8821 0.31617 0.0
H896 H 0.68953 0.73842 0.31309 0.0
H897 H 0.67819 0.72742 0.3465 0.0
C898 C 0.67166 0.79285 0.37034 0.0
C899 C 0.67185 0.83164 0.38158 0.0
C900 C 0.67658 0.79874 0.351 0.0
C901 C 0.67535 0.87597 0.37308 0.0
C902 C 0.67821 0.88123 0.35366 0.0
C903 C 0.68449 0.84854 0.3229 0.0
C904 C 0.68901 0.81129 0.31215 0.0
C905 C 0.67942 0.84303 0.34243 0.0
C906 C 0.68684 0.76803 0.32104 0.0
C907 C 0.68006 0.76147 0.34016 0.0
H908 H 0.1715 0.82662 0.33617 0.0
H909 H 0.27471 0.99177 0.33063 0.0
H910 H 0.27986 0.00129 0.36434 0.0
H911 H 0.25985 0.96209 0.39539 0.0
H912 H 0.15245 0.79857 0.40153 0.0
H913 H 0.14398 0.7887 0.36756 0.0
C914 C 0.19458 0.86476 0.34236 0.0
C915 C 0.22301 0.90838 0.33089 0.0
C916 C 0.19699 0.87008 0.36182 0.0
C917 C 0.25237 0.9576 0.33911 0.0
C918 C 0.25562 0.96306 0.35839 0.0
C919 C 0.23443 0.92439 0.38921 0.0
C920 C 0.20737 0.88091 0.40072 0.0
C921 C 0.22894 0.91948 0.36985 0.0
C922 C 0.17375 0.83238 0.39279 0.0
C923 C 0.16903 0.82684 0.37343 0.0
H924 H 0.76432 0.68648 0.71309 0.0
H925 H 0.92485 0.72975 0.71883 0.0
H926 H 0.93128 0.72242 0.68501 0.0
H927 H 0.89074 0.70573 0.65352 0.0
H928 H 0.72735 0.65416 0.64924 0.0
H929 H 0.72242 0.66188 0.68262 0.0
C930 C 0.80076 0.6945 0.70688 0.0
C931 C 0.84434 0.7097 0.71828 0.0
C932 C 0.80349 0.68822 0.68766 0.0
C933 C 0.89097 0.71856 0.71023 0.0
C934 C 0.89455 0.71424 0.69092 0.0
C935 C 0.85399 0.69556 0.65994 0.0
C936 C 0.80959 0.6796 0.64873 0.0
C937 C 0.85101 0.69927 0.67944 0.0
C938 C 0.76221 0.66636 0.65737 0.0
C939 C 0.7593 0.67109 0.67653 0.0
H940 H 0.36925 0.23594 0.66978 0.0
H941 H 0.4027 0.11044 0.66526 0.0
H942 H 0.39614 0.09893 0.69881 0.0
H943 H 0.37814 0.12212 0.7295 0.0
H944 H 0.35326 0.25259 0.73511 0.0
H945 H 0.35897 0.26455 0.70122 0.0
C946 C 0.3756 0.20647 0.67619 0.0
C947 C 0.38632 0.17403 0.66495 0.0
C948 C 0.37276 0.2006 0.6957 0.0
C949 C 0.39475 0.13621 0.67351 0.0
C950 C 0.39065 0.1293 0.69273 0.0
C951 C 0.37381 0.15306 0.72325 0.0
C952 C 0.36431 0.18583 0.73464 0.0
C953 C 0.3791 0.16079 0.70394 0.0
C954 C 0.36012 0.22664 0.72652 0.0
C955 C 0.36345 0.23346 0.70718 0.0
H956 H 0.85816 0.17868 0.65987 0.0
H957 H 0.93914 0.34637 0.65749 0.0
H958 H 0.95559 0.35109 0.69076 0.0
H959 H 0.94751 0.30802 0.72064 0.0
H960 H 0.86102 0.14116 0.72392 0.0
H961 H 0.84714 0.13541 0.69014 0.0
C962 C 0.87894 0.21623 0.66666 0.0
C963 C 0.89737 0.26206 0.65615 0.0
C964 C 0.88828 0.21878 0.68589 0.0
C965 C 0.92426 0.31042 0.6652 0.0
C966 C 0.93411 0.31325 0.68423 0.0
C967 C 0.92666 0.27048 0.7138 0.0
C968 C 0.9067 0.225 0.72441 0.0
C969 C 0.91683 0.26776 0.69466 0.0
C970 C 0.87779 0.17649 0.71576 0.0
C971 C 0.86943 0.17331 0.69656 0.0
H972 H 0.31378 0.96994 0.22362 0.0
H973 H 0.28991 0.81408 0.22451 0.0
H974 H 0.34994 0.83582 0.19822 0.0
H975 H 0.40995 0.90059 0.17492 0.0
H976 H 0.43469 0.05689 0.1766 0.0
H977 H 0.37493 0.03374 0.20244 0.0
C978 C 0.32108 0.94017 0.21812 0.0
C979 C 0.29646 0.89002 0.22602 0.0
C980 C 0.35696 0.95354 0.20367 0.0
C981 C 0.30746 0.8527 0.2186 0.0
C982 C 0.3423 0.86538 0.20368 0.0
C983 C 0.40307 0.92978 0.18124 0.0
C984 C 0.42719 0.98065 0.1738 0.0
C985 C 0.36774 0.91597 0.19619 0.0
C986 C 0.41702 0.01765 0.18199 0.0
C987 C 0.38243 0.00433 0.19671 0.0
H988 H 0.12747 0.4818 0.16625 0.0
H989 H 0.96412 0.37797 0.17464 0.0
H990 H 0.98299 0.33706 0.20054 0.0
H991 H 0.04469 0.32811 0.21992 0.0
H992 H 0.20875 0.43198 0.21315 0.0
H993 H 0.19089 0.47439 0.1871 0.0
C994 C 0.09613 0.4512 0.17412 0.0
C995 C 0.04434 0.43348 0.16872 0.0
C996 C 0.10738 0.42673 0.18885 0.0
C997 C 0.00416 0.39273 0.17867 0.0
C998 C 0.01495 0.3689 0.19335 0.0
C999 C 0.07693 0.35961 0.21269 0.0
C1000 C 0.12818 0.37616 0.21841 0.0
C1001 C 0.06631 0.38488 0.19831 0.0
C1002 C 0.16898 0.41769 0.20889 0.0
C1003 C 0.1587 0.44241 0.19414 0.0
H1004 H 0.58913 0.71742 0.20598 0.0
H1005 H 0.75221 0.77477 0.19784 0.0
H1006 H 0.73301 0.7174 0.1711 0.0
H1007 H 0.6706 0.64846 0.15096 0.0
H1008 H 0.50686 0.58904 0.15848 0.0
H1009 H 0.5255 0.64863 0.18474 0.0
C1010 C 0.62042 0.71831 0.19801 0.0
C1011 C 0.67222 0.75122 0.20371 0.0
C1012 C 0.60893 0.68372 0.18287 0.0
C1013 C 0.71219 0.75055 0.1936 0.0
C1014 C 0.70118 0.71729 0.17842 0.0
C1015 C 0.63868 0.64793 0.15838 0.0
C1016 C 0.58719 0.61344 0.15278 0.0
C1017 C 0.64974 0.68302 0.17316 0.0
C1018 C 0.54678 0.61439 0.16256 0.0
C1019 C 0.5575 0.64891 0.17749 0.0
H1020 H 0.9077 0.39196 0.88742 0.0
H1021 H 0.07019 0.47838 0.87408 0.0
H1022 H 0.05421 0.42904 0.84533 0.0
H1023 H 0.99605 0.35697 0.82541 0.0
H1024 H 0.83299 0.26897 0.83783 0.0
H1025 H 0.84714 0.32256 0.86565 0.0
C1026 C 0.93915 0.40115 0.87784 0.0
C1027 C 0.99 0.4396 0.88267 0.0
C1028 C 0.92983 0.37116 0.86152 0.0
C1029 C 0.0307 0.44978 0.87048 0.0
C1030 C 0.02166 0.42105 0.85417 0.0
C1031 C 0.96348 0.34902 0.83425 0.0
C1032 C 0.91365 0.30802 0.82975 0.0
C1033 C 0.97175 0.38066 0.84986 0.0
C1034 C 0.87185 0.29961 0.84112 0.0
C1035 C 0.87993 0.33054 0.85695 0.0
H1036 H 0.64151 0.66416 0.87526 0.0
H1037 H 0.59719 0.50465 0.86344 0.0
H1038 H 0.65966 0.53313 0.83803 0.0
H1039 H 0.72877 0.60357 0.81963 0.0
H1040 H 0.77093 0.76258 0.83082 0.0
H1041 H 0.70844 0.73415 0.85632 0.0
C1042 C 0.6448 0.63541 0.86697 0.0
C1043 C 0.6142 0.58215 0.87129 0.0
C1044 C 0.68153 0.65214 0.85256 0.0
C1045 C 0.61968 0.54578 0.86041 0.0
C1046 C 0.65589 0.56211 0.84597 0.0
C1047 C 0.72505 0.63206 0.82793 0.0
C1048 C 0.75549 0.68531 0.82366 0.0
C1049 C 0.68767 0.61523 0.84213 0.0
C1050 C 0.74875 0.72155 0.83407 0.0
C1051 C 0.71264 0.70523 0.84852 0.0
H1052 H 0.34561 0.04467 0.83681 0.0
H1053 H 0.43532 0.20756 0.85056 0.0
H1054 H 0.47175 0.18696 0.87757 0.0
H1055 H 0.47881 0.12234 0.8974 0.0
H1056 H 0.38706 0.95969 0.88396 0.0
H1057 H 0.35196 0.98051 0.8566 0.0
C1058 C 0.37249 0.07569 0.84586 0.0
C1059 C 0.38716 0.12762 0.84166 0.0
C1060 C 0.39408 0.06365 0.86124 0.0
C1061 C 0.42283 0.16719 0.85347 0.0
C1062 C 0.44413 0.15549 0.86887 0.0
C1063 C 0.45212 0.09169 0.88819 0.0
C1064 C 0.43652 0.0396 0.89242 0.0
C1065 C 0.43059 0.10389 0.87278 0.0
C1066 C 0.40038 1.0001 0.88077 0.0
C1067 C 0.37987 0.01196 0.86524 0.0
H1068 H 0.97501 0.34688 0.54758 0.0
H1069 H 0.94013 0.18721 0.54601 0.0
H1070 H 0.00325 0.20864 0.52094 0.0
H1071 H 0.07079 0.27409 0.50014 0.0
H1072 H 0.10542 0.43352 0.50297 0.0
H1073 H 0.04134 0.41108 0.52749 0.0
C1074 C 0.98052 0.31633 0.54168 0.0
C1075 C 0.95237 0.26529 0.54869 0.0
C1076 C 0.01813 0.32933 0.52788 0.0
C1077 C 0.96056 0.22663 0.54078 0.0
C1078 C 0.99726 0.23907 0.52661 0.0
C1079 C 0.06512 0.30407 0.50646 0.0
C1080 C 0.0936 0.3557 0.49997 0.0
C1081 C 0.02704 0.29056 0.5203 0.0
C1082 C 0.08462 0.39377 0.50789 0.0
C1083 C 0.04756 0.38083 0.52176 0.0
H1084 H 0.806 0.84414 0.48612 0.0
H1085 H 0.64234 0.74405 0.49533 0.0
H1086 H 0.66052 0.70793 0.52282 0.0
H1087 H 0.72156 0.70163 0.54348 0.0
H1088 H 0.88595 0.80106 0.53579 0.0
H1089 H 0.86892 0.8397 0.50831 0.0
C1090 C 0.77446 0.81538 0.49445 0.0
C1091 C 0.72272 0.79733 0.48878 0.0
C1092 C 0.78529 0.79366 0.51023 0.0
C1093 C 0.68235 0.75899 0.49944 0.0
C1094 C 0.69273 0.73795 0.5151 0.0
C1095 C 0.75403 0.73146 0.5358 0.0
C1096 C 0.80514 0.74773 0.54167 0.0
C1097 C 0.74391 0.75426 0.52042 0.0
C1098 C 0.84626 0.78715 0.53152 0.0
C1099 C 0.83645 0.80958 0.51588 0.0
H1100 H 0.21786 0.00332 0.50583 0.0
H1101 H 0.33784 0.96212 0.50949 0.0
H1102 H 0.37796 0.02266 0.53518 0.0
H1103 H 0.38045 0.08778 0.55623 0.0
H1104 H 0.26072 0.1295 0.55406 0.0
H1105 H 0.22005 0.06957 0.52783 0.0
C1106 C 0.2522 0.0069 0.51251 0.0
C1107 C 0.27438 0.97751 0.50581 0.0
C1108 C 0.27593 0.04289 0.52722 0.0
C1109 C 0.31962 0.9837 0.51439 0.0
C1110 C 0.3429 0.01872 0.52901 0.0
C1111 C 0.34575 0.08453 0.54997 0.0
C1112 C 0.32416 0.11389 0.55712 0.0
C1113 C 0.32181 0.04891 0.53538 0.0
C1114 C 0.27881 0.10821 0.54876 0.0
C1115 C 0.25517 0.07338 0.53388 0.0
H1116 H 0.46291 0.3762 0.10854 0.0
H1117 H 0.62452 0.42648 0.11755 0.0
H1118 H 0.60379 0.33561 0.11988 0.0
H1119 H 0.53905 0.24155 0.11925 0.0
H1120 H 0.37858 0.1938 0.1086 0.0
H1121 H 0.39975 0.28408 0.10701 0.0
C1122 C 0.49374 0.36751 0.11116 0.0
C1123 C 0.54516 0.4082 0.11305 0.0
C1124 C 0.48173 0.3155 0.1121 0.0
C1125 C 0.58454 0.39594 0.11618 0.0
C1126 C 0.57272 0.34397 0.11743 0.0
C1127 C 0.50883 0.25088 0.11637 0.0
C1128 C 0.45709 0.21058 0.11423 0.0
C1129 C 0.52138 0.30334 0.11531 0.0
C1130 C 0.41847 0.22369 0.11067 0.0
C1131 C 0.43057 0.27544 0.10968 0.0
H1132 H 0.6295 0.16088 0.10636 0.0
H1133 H 0.64305 0.08554 0.15552 0.0
H1134 H 0.73747 0.13901 0.15448 0.0
H1135 H 0.81598 0.20346 0.13857 0.0
H1136 H 0.80305 0.27478 0.08816 0.0
H1137 H 0.70862 0.22631 0.09053 0.0
C1138 C 0.65327 0.15738 0.1171 0.0
C1139 C 0.62974 0.12032 0.13121 0.0
C1140 C 0.70754 0.18654 0.1159 0.0
C1141 C 0.66064 0.11459 0.14472 0.0
C1142 C 0.71451 0.14467 0.144 0.0
C1143 C 0.79257 0.20784 0.12795 0.0
C1144 C 0.81658 0.24242 0.11313 0.0
C1145 C 0.73839 0.17986 0.12941 0.0
C1146 C 0.7855 0.24848 0.09972 0.0
C1147 C 0.73154 0.2209 0.1011 0.0
H1148 H 0.81404 0.58769 0.13282 0.0
H1149 H 0.76175 0.52185 0.07835 0.0
H1150 H 0.80663 0.47192 0.08155 0.0
H1151 H 0.8655 0.45162 0.09913 0.0
H1152 H 0.92165 0.52178 0.15278 0.0
H1153 H 0.86931 0.5643 0.15096 0.0
C1154 C 0.81307 0.56293 0.12158 0.0
C1155 C 0.78543 0.55903 0.10525 0.0
C1156 C 0.83865 0.53427 0.12358 0.0
C1157 C 0.78316 0.52562 0.09099 0.0
C1158 C 0.80853 0.49693 0.09286 0.0
C1159 C 0.86468 0.47477 0.11066 0.0
C1160 C 0.89635 0.48298 0.12621 0.0
C1161 C 0.8366 0.50112 0.10907 0.0
C1162 C 0.89666 0.51439 0.14084 0.0
C1163 C 0.86741 0.53924 0.13967 0.0
H1164 H 0.40827 0.56187 0.92541 0.0
H1165 H 0.38813 0.41429 0.90718 0.0
H1166 H 0.29441 0.37523 0.90978 0.0
H1167 H 0.21829 0.38174 0.91859 0.0
H1168 H 0.23859 0.52988 0.93633 0.0
H1169 H 0.33167 0.56913 0.93301 0.0
C1170 C 0.38336 0.52137 0.92173 0.0
C1171 C 0.40531 0.49118 0.91607 0.0
C1172 C 0.32936 0.49877 0.92354 0.0
C1173 C 0.37236 0.43855 0.91156 0.0
C1174 C 0.31869 0.41603 0.91313 0.0
C1175 C 0.24288 0.42266 0.92161 0.0
C1176 C 0.22075 0.45223 0.92789 0.0
C1177 C 0.29676 0.44557 0.91936 0.0
C1178 C 0.25384 0.50533 0.93189 0.0
C1179 C 0.30742 0.52823 0.92979 0.0
H1180 H 0.43567 0.83312 0.94962 0.0
H1181 H 0.53081 0.9325 0.9054 0.0
H1182 H 0.56479 0.87423 0.89936 0.0
H1183 H 0.57417 0.8004 0.9086 0.0
H1184 H 0.48344 0.70212 0.95369 0.0
H1185 H 0.44061 0.75404 0.95741 0.0
C1186 C 0.4628 0.84103 0.93838 0.0
C1187 C 0.48081 0.88681 0.92794 0.0
C1188 C 0.48362 0.80813 0.93539 0.0
C1189 C 0.51654 0.89738 0.91359 0.0
C1190 C 0.53621 0.86431 0.91021 0.0
C1191 C 0.54521 0.79046 0.9193 0.0
C1192 C 0.53272 0.74819 0.93109 0.0
C1193 C 0.52133 0.8206 0.92141 0.0
C1194 C 0.49386 0.73471 0.9445 0.0
C1195 C 0.46948 0.76443 0.94664 0.0
H1196 H 0.2893 0.78418 0.94039 0.0
H1197 H 0.16737 0.82136 0.94807 0.0
H1198 H 0.10255 0.73026 0.94394 0.0
H1199 H 0.08062 0.64143 0.93828 0.0
H1200 H 0.20059 0.60084 0.9323 0.0
H1201 H 0.26674 0.69286 0.93571 0.0
C1202 C 0.24863 0.77239 0.94147 0.0
C1203 C 0.23325 0.80979 0.94453 0.0
C1204 C 0.21148 0.71972 0.93925 0.0
C1205 C 0.18026 0.79363 0.94551 0.0
C1206 C 0.1432 0.74155 0.9432 0.0
C1207 C 0.12121 0.65237 0.9376 0.0
C1208 C 0.1357 0.61432 0.93489 0.0
C1209 C 0.15844 0.7045 0.93997 0.0
C1210 C 0.18849 0.62946 0.93425 0.0
C1211 C 0.22618 0.68193 0.93627 0.0
H1212 H 0.24906 0.76976 0.44342 0.0
H1213 H 0.13076 0.74633 0.48295 0.0
H1214 H 0.09192 0.65218 0.47972 0.0
H1215 H 0.08923 0.5768 0.46455 0.0
H1216 H 0.20468 0.60024 0.42375 0.0
H1217 H 0.24687 0.69412 0.4285 0.0
C1218 C 0.21545 0.744 0.45162 0.0
C1219 C 0.19311 0.7649 0.46356 0.0
C1220 C 0.19227 0.68996 0.4492 0.0
C1221 C 0.14886 0.73109 0.47378 0.0
C1222 C 0.12641 0.67731 0.47182 0.0
C1223 C 0.12317 0.6024 0.4565 0.0
C1224 C 0.14352 0.5814 0.44371 0.0
C1225 C 0.14715 0.65634 0.45928 0.0
C1226 C 0.18833 0.6153 0.43373 0.0
C1227 C 0.2125 0.669 0.43645 0.0
H1228 H 0.48625 0.57175 0.46351 0.0
H1229 H 0.472 0.63073 0.41043 0.0
H1230 H 0.3776 0.5845 0.41349 0.0
H1231 H 0.29887 0.52363 0.43068 0.0
H1232 H 0.31394 0.46141 0.48293 0.0
H1233 H 0.40829 0.51349 0.48106 0.0
C1234 C 0.46247 0.57389 0.4525 0.0
C1235 C 0.486 0.60402 0.43665 0.0
C1236 C 0.40843 0.54748 0.45441 0.0
C1237 C 0.45467 0.60757 0.42272 0.0
C1238 C 0.40078 0.58136 0.42451 0.0
C1239 C 0.32296 0.52284 0.44188 0.0
C1240 C 0.29985 0.48962 0.45707 0.0
C1241 C 0.3772 0.55112 0.44029 0.0
C1242 C 0.33119 0.48744 0.47126 0.0
C1243 C 0.38502 0.51666 0.47008 0.0
H1244 H 0.52329 0.80223 0.42809 0.0
H1245 H 0.61771 0.89354 0.47411 0.0
H1246 H 0.56169 0.93083 0.47866 0.0
H1247 H 0.49072 0.94318 0.46799 0.0
H1248 H 0.3973 0.85549 0.42129 0.0
H1249 H 0.44779 0.811 0.41851 0.0
C1250 C 0.53057 0.82925 0.43938 0.0
C1251 C 0.57424 0.84509 0.45081 0.0
C1252 C 0.49908 0.85195 0.44153 0.0
C1253 C 0.58411 0.88082 0.46519 0.0
C1254 C 0.55238 0.90243 0.46771 0.0
C1255 C 0.48168 0.91467 0.45711 0.0
C1256 C 0.441 0.9033 0.44466 0.0
C1257 C 0.51077 0.88948 0.45563 0.0
C1258 C 0.42867 0.86503 0.43099 0.0
C1259 C 0.45749 0.83961 0.42941 0.0
H1260 H 0.90692 0.72937 0.25357 0.0
H1261 H 0.91459 0.86375 0.28014 0.0
H1262 H 0.00794 0.90361 0.28263 0.0
H1263 H 0.08859 0.90046 0.27789 0.0
H1264 H 0.07967 0.7636 0.25335 0.0
H1265 H 0.98617 0.7251 0.24951 0.0
C1266 C 0.92843 0.76715 0.26005 0.0
C1267 C 0.90247 0.79309 0.26646 0.0
C1268 C 0.98258 0.78991 0.26177 0.0
C1269 C 0.93242 0.84247 0.27473 0.0
C1270 C 0.98632 0.86557 0.27626 0.0
C1271 C 0.06617 0.86246 0.27152 0.0
C1272 C 0.09118 0.83514 0.26579 0.0
C1273 C 0.01193 0.83976 0.2698 0.0
C1274 C 0.06144 0.78553 0.25786 0.0
C1275 C 0.00788 0.76339 0.2557 0.0
H1276 H 0.16905 0.05683 0.26535 0.0
H1277 H 0.33075 0.17409 0.26707 0.0
H1278 H 0.30791 0.24218 0.26694 0.0
H1279 H 0.24333 0.26879 0.26611 0.0
H1280 H 0.08063 0.15432 0.26505 0.0
H1281 H 0.10252 0.08458 0.26509 0.0
C1282 C 0.19909 0.09729 0.26587 0.0
C1283 C 0.2516 0.11038 0.26605 0.0
C1284 C 0.18559 0.13662 0.26577 0.0
C1285 C 0.29018 0.16298 0.26659 0.0
C1286 C 0.27716 0.20197 0.26658 0.0
C1287 C 0.21236 0.22864 0.26581 0.0
C1288 C 0.16038 0.21684 0.26548 0.0
C1289 C 0.22515 0.18925 0.26603 0.0
C1290 C 0.121 0.16448 0.26521 0.0
C1291 C 0.13352 0.12465 0.2653 0.0
H1292 H 0.75249 0.97726 0.25355 0.0
H1293 H 0.87072 0.93329 0.25289 0.0
H1294 H 0.9376 0.0245 0.25691 0.0
H1295 H 0.96183 0.11632 0.26121 0.0
H1296 H 0.84201 0.15802 0.26352 0.0
H1297 H 0.77628 0.06776 0.2582 0.0
C1298 C 0.79292 0.98749 0.25408 0.0
C1299 C 0.80658 0.94846 0.25278 0.0
C1300 C 0.83081 0.03955 0.25683 0.0
C1301 C 0.85915 0.96257 0.25373 0.0
C1302 C 0.89735 0.01467 0.25612 0.0
C1303 C 0.92136 0.1057 0.26081 0.0
C1304 C 0.90704 0.14424 0.26278 0.0
C1305 C 0.88354 0.05343 0.2579 0.0
C1306 C 0.8543 0.12951 0.26184 0.0
C1307 C 0.81662 0.07781 0.25885 0.0
H1308 H 0.86381 0.93681 0.77949 0.0
H1309 H 0.70465 0.89245 0.76819 0.0
H1310 H 0.72347 0.98096 0.7747 0.0
H1311 H 0.78597 0.07196 0.78178 0.0
H1312 H 0.94616 0.11779 0.79183 0.0
H1313 H 0.92586 0.0276 0.78808 0.0
C1314 C 0.83307 0.9463 0.77872 0.0
C1315 C 0.78284 0.90788 0.77326 0.0
C1316 C 0.84435 0.9976 0.78231 0.0
C1317 C 0.74372 0.92126 0.77209 0.0
C1318 C 0.75442 0.97187 0.77591 0.0
C1319 C 0.81638 0.06222 0.78348 0.0
C1320 C 0.86755 0.10179 0.78716 0.0
C1321 C 0.80472 0.01052 0.78079 0.0
C1322 C 0.90643 0.08824 0.78908 0.0
C1323 C 0.89488 0.03665 0.78683 0.0
H1324 H 0.12861 0.98815 0.78129 0.0
H1325 H 0.17301 0.87128 0.78848 0.0
H1326 H 0.08205 0.80357 0.78963 0.0
H1327 H 0.99075 0.77714 0.78675 0.0
H1328 H 0.94438 0.89223 0.77789 0.0
H1329 H 0.03526 0.9613 0.77945 0.0
C1330 C 0.11814 0.94791 0.78338 0.0
C1331 C 0.15732 0.93454 0.78476 0.0
C1332 C 0.06558 0.909 0.78364 0.0
C1333 C 0.14345 0.88227 0.78721 0.0
C1334 C 0.09152 0.84365 0.78791 0.0
C1335 C 1.00026 0.81734 0.78532 0.0
C1336 C 0.96073 0.82943 0.78215 0.0
C1337 C 0.05235 0.85648 0.78583 0.0
C1338 C 0.97403 0.8818 0.7803 0.0
C1339 C 0.026 0.92129 0.78116 0.0
H1340 H 0.20379 0.14772 0.77594 0.0
H1341 H 0.29383 0.25061 0.82045 0.0
H1342 H 0.23698 0.28805 0.82106 0.0
H1343 H 0.16535 0.2953 0.80768 0.0
H1344 H 0.07884 0.19727 0.76157 0.0
H1345 H 0.13038 0.15408 0.76286 0.0
C1346 C 0.21008 0.17753 0.78601 0.0
C1347 C 0.25245 0.19622 0.79823 0.0
C1348 C 0.17842 0.20029 0.78579 0.0
C1349 C 0.26115 0.23559 0.81097 0.0
C1350 C 0.22893 0.25721 0.81125 0.0
C1351 C 0.15803 0.26492 0.79777 0.0
C1352 C 0.11839 0.24989 0.78449 0.0
C1353 C 0.18824 0.24074 0.79843 0.0
C1354 C 0.10882 0.20947 0.77204 0.0
C1355 C 0.13837 0.18477 0.77273 0.0
H1356 H 0.58899 0.21369 0.60075 0.0
H1357 H 0.55014 0.05266 0.60011 0.0
H1358 H 0.641 0.07879 0.59598 0.0
H1359 H 0.73064 0.1462 0.59343 0.0
H1360 H 0.77268 0.30793 0.59605 0.0
H1361 H 0.68073 0.28248 0.59842 0.0
C1362 C 0.60035 0.18427 0.59996 0.0
C1363 C 0.56249 0.13109 0.60078 0.0
C1364 C 0.65299 0.19964 0.5978 0.0
C1365 C 0.57814 0.09368 0.59932 0.0
C1366 C 0.63015 0.10861 0.59702 0.0
C1367 C 0.72003 0.17622 0.5944 0.0
C1368 C 0.7586 0.229 0.59455 0.0
C1369 C 0.66775 0.16135 0.59627 0.0
C1370 C 0.74377 0.26706 0.59581 0.0
C1371 C 0.69127 0.25247 0.59729 0.0
H1372 H 0.93732 0.4986 0.56998 0.0
H1373 H 0.8905 0.45356 0.62668 0.0
H1374 H 0.84117 0.49937 0.62623 0.0
H1375 H 0.81537 0.55618 0.61017 0.0
H1376 H 0.86725 0.60621 0.5543 0.0
H1377 H 0.90951 0.5533 0.55363 0.0
C1378 C 0.91693 0.4995 0.5823 0.0
C1379 C 0.91799 0.47341 0.59842 0.0
C1380 C 0.88857 0.52566 0.58188 0.0
C1381 C 0.89028 0.47365 0.61415 0.0
C1382 C 0.86192 0.49953 0.61386 0.0
C1383 C 0.83442 0.55381 0.59767 0.0
C1384 C 0.83721 0.58341 0.5821 0.0
C1385 C 0.86082 0.52567 0.5978 0.0
C1386 C 0.86369 0.5823 0.5662 0.0
C1387 C 0.88845 0.55283 0.56595 0.0
H1388 H 0.43095 0.33768 0.59976 0.0
H1389 H 0.54896 0.29334 0.59989 0.0
H1390 H 0.61594 0.38496 0.59663 0.0
H1391 H 0.64026 0.47752 0.59389 0.0
H1392 H 0.52067 0.51966 0.59466 0.0
H1393 H 0.45473 0.42845 0.5973 0.0
C1394 C 0.47129 0.34772 0.59902 0.0
C1395 C 0.48486 0.30852 0.60004 0.0
C1396 C 0.50922 0.40007 0.59732 0.0
C1397 C 0.53741 0.32264 0.59909 0.0
C1398 C 0.57566 0.37502 0.59727 0.0
C1399 C 0.59986 0.46688 0.59484 0.0
C1400 C 0.58556 0.50571 0.59409 0.0
C1401 C 0.56197 0.4141 0.59647 0.0
C1402 C 0.53283 0.49082 0.59499 0.0
C1403 C 0.49508 0.43862 0.59658 0.0
loop_
_geom_bond_atom_site_label_1
_geom_bond_atom_site_label_2
_geom_bond_distance
_geom_bond_site_symmetry_2
_ccdc_geom_bond_type
Co0 N5 2.057 . S
Co0 O17 2.021 . S
Co0 O20 2.062 . S
Co0 O24 2.117 . S
Co0 O25 2.020 1_565 S
C1 O21 1.259 . S
C1 O24 1.258 1_545 S
Co2 N11 2.057 . S
Co2 O18 2.117 . S
Co2 O19 2.020 1_545 S
Co2 O21 2.021 . S
Co2 O26 2.062 . S
C3 N5 1.316 . S
C3 N6 1.347 . S
C3 H8 0.931 . S
C4 N5 1.375 . S
C4 C7 1.350 . S
C4 H9 0.930 . S
N5 Co0 2.057 . S
N5 C3 1.316 . S
N5 C4 1.375 . S
N6 C3 1.347 . S
N6 C7 1.373 . S
C7 C4 1.350 . S
C7 N6 1.373 . S
C7 H28 0.931 . S
H8 C3 0.931 . S
H9 C4 0.930 . S
C10 O17 1.259 1_545 S
C10 O18 1.258 . S
N11 Co2 2.057 . S
N11 C12 1.316 . S
N11 C13 1.375 . S
C12 N11 1.316 . S
C12 N14 1.347 . S
C12 H23 0.931 . S
C13 N11 1.375 . S
C13 C15 1.350 . S
C13 H22 0.930 . S
N14 C12 1.347 . S
N14 C15 1.373 . S
C15 C13 1.350 . S
C15 N14 1.373 . S
C15 H29 0.931 . S
C16 O19 1.256 . S
C16 O20 1.255 . S
O17 Co0 2.021 . S
O17 C10 1.259 1_565 S
O18 Co2 2.117 . S
O18 C10 1.258 . S
O19 Co2 2.020 1_565 S
O19 C16 1.256 . S
O20 Co0 2.062 . S
O20 C16 1.255 . S
O21 C1 1.259 . S
O21 Co2 2.021 . S
H22 C13 0.930 . S
H23 C12 0.931 . S
O24 Co0 2.117 . S
O24 C1 1.258 1_565 S
O25 Co0 2.020 1_545 S
O25 C27 1.256 . S
O26 Co2 2.062 . S
O26 C27 1.255 . S
C27 O25 1.256 . S
C27 O26 1.255 . S
H28 C7 0.931 . S
H29 C15 0.931 . S
Co30 N35 2.057 . S
Co30 O47 2.021 . S
Co30 O50 2.062 . S
Co30 O54 2.117 . S
Co30 O55 2.015 1_455 S
C31 O51 1.259 1_455 S
C31 O54 1.258 . S
Co32 N41 2.057 . S
Co32 O48 2.117 1_655 S
Co32 O49 2.020 1_655 S
Co32 O51 2.021 . S
Co32 O56 2.062 . S
C33 N35 1.316 . S
C33 N36 1.347 . S
C33 H38 0.931 . S
C34 N35 1.375 . S
C34 C37 1.350 . S
C34 H39 0.930 . S
N35 Co30 2.057 . S
N35 C33 1.316 . S
N35 C34 1.375 . S
N36 C33 1.347 . S
N36 C37 1.373 . S
C37 C34 1.350 . S
C37 N36 1.373 . S
C37 H58 0.931 . S
H38 C33 0.931 . S
H39 C34 0.930 . S
C40 O47 1.259 . S
C40 O48 1.258 . S
N41 Co32 2.057 . S
N41 C42 1.316 . S
N41 C43 1.375 . S
C42 N41 1.316 . S
C42 N44 1.347 . S
C42 H53 0.931 . S
C43 N41 1.375 . S
C43 C45 1.350 . S
C43 H52 0.930 . S
N44 C42 1.347 . S
N44 C45 1.373 . S
C45 C43 1.350 . S
C45 N44 1.373 . S
C45 H59 0.931 . S
C46 O49 1.256 . S
C46 O50 1.255 . S
O47 Co30 2.021 . S
O47 C40 1.259 . S
O48 Co32 2.117 1_455 S
O48 C40 1.258 . S
O49 Co32 2.020 1_455 S
O49 C46 1.256 . S
O50 Co30 2.062 . S
O50 C46 1.255 . S
O51 C31 1.259 1_655 S
O51 Co32 2.021 . S
H52 C43 0.930 . S
H53 C42 0.931 . S
O54 Co30 2.117 . S
O54 C31 1.258 . S
O55 Co30 2.015 1_655 S
O55 C57 1.259 . S
O56 Co32 2.062 . S
O56 C57 1.255 . S
C57 O55 1.259 . S
C57 O56 1.255 . S
H58 C37 0.931 . S
H59 C45 0.931 . S
Co60 N65 2.057 . S
Co60 O77 2.021 . S
Co60 O80 2.062 . S
Co60 O84 2.117 . S
Co60 O85 2.020 . S
C61 O81 1.259 . S
C61 O84 1.258 . S
Co62 N71 2.057 . S
Co62 O78 2.117 . S
Co62 O79 2.020 . S
Co62 O81 2.021 . S
Co62 O86 2.062 . S
C63 N65 1.316 . S
C63 N66 1.347 . S
C63 H68 0.931 . S
C64 N65 1.375 . S
C64 C67 1.350 . S
C64 H69 0.930 . S
N65 Co60 2.057 . S
N65 C63 1.316 . S
N65 C64 1.375 . S
N66 C63 1.347 . S
N66 C67 1.373 . S
C67 C64 1.350 . S
C67 N66 1.373 . S
C67 H88 0.931 . S
H68 C63 0.931 . S
H69 C64 0.930 . S
C70 O77 1.259 . S
C70 O78 1.258 . S
N71 Co62 2.057 . S
N71 C72 1.316 . S
N71 C73 1.375 . S
C72 N71 1.316 . S
C72 N74 1.347 . S
C72 H83 0.931 . S
C73 N71 1.375 . S
C73 C75 1.350 . S
C73 H82 0.930 . S
N74 C72 1.347 . S
N74 C75 1.373 . S
C75 C73 1.350 . S
C75 N74 1.373 . S
C75 H89 0.931 . S
C76 O79 1.256 . S
C76 O80 1.255 . S
O77 Co60 2.021 . S
O77 C70 1.259 . S
O78 Co62 2.117 . S
O78 C70 1.258 . S
O79 Co62 2.020 . S
O79 C76 1.256 . S
O80 Co60 2.062 . S
O80 C76 1.255 . S
O81 C61 1.259 . S
O81 Co62 2.021 . S
H82 C73 0.930 . S
H83 C72 0.931 . S
O84 Co60 2.117 . S
O84 C61 1.258 . S
O85 Co60 2.020 . S
O85 C87 1.256 . S
O86 Co62 2.062 . S
O86 C87 1.255 . S
C87 O85 1.256 . S
C87 O86 1.255 . S
H88 C67 0.931 . S
H89 C75 0.931 . S
Co90 N95 2.057 . S
Co90 O107 2.021 . S
Co90 O110 2.062 . S
Co90 O114 2.117 . S
Co90 O115 2.020 1_655 S
C91 O111 1.259 . S
C91 O114 1.258 1_455 S
Co92 N101 2.057 . S
Co92 O108 2.117 . S
Co92 O109 2.020 1_455 S
Co92 O111 2.021 . S
Co92 O116 2.062 . S
C93 N95 1.316 . S
C93 N96 1.347 . S
C93 H98 0.931 . S
C94 N95 1.375 . S
C94 C97 1.350 . S
C94 H99 0.930 . S
N95 Co90 2.057 . S
N95 C93 1.316 . S
N95 C94 1.375 . S
N96 C93 1.347 . S
N96 C97 1.373 . S
C97 C94 1.350 . S
C97 N96 1.373 . S
C97 H118 0.931 . S
H98 C93 0.931 . S
H99 C94 0.930 . S
C100 O107 1.259 1_455 S
C100 O108 1.258 . S
N101 Co92 2.057 . S
N101 C102 1.316 . S
N101 C103 1.375 . S
C102 N101 1.316 . S
C102 N104 1.347 . S
C102 H113 0.931 . S
C103 N101 1.375 . S
C103 C105 1.350 . S
C103 H112 0.930 . S
N104 C102 1.347 . S
N104 C105 1.373 . S
C105 C103 1.350 . S
C105 N104 1.373 . S
C105 H119 0.931 . S
C106 O109 1.256 . S
C106 O110 1.255 . S
O107 Co90 2.021 . S
O107 C100 1.259 1_655 S
O108 Co92 2.117 . S
O108 C100 1.258 . S
O109 Co92 2.020 1_655 S
O109 C106 1.256 . S
O110 Co90 2.062 . S
O110 C106 1.255 . S
O111 C91 1.259 . S
O111 Co92 2.021 . S
H112 C103 0.930 . S
H113 C102 0.931 . S
O114 Co90 2.117 . S
O114 C91 1.258 1_655 S
O115 Co90 2.020 1_455 S
O115 C117 1.256 . S
O116 Co92 2.062 . S
O116 C117 1.255 . S
C117 O115 1.256 . S
C117 O116 1.255 . S
H118 C97 0.931 . S
H119 C105 0.931 . S
Co120 N125 2.057 . S
Co120 O137 2.021 . S
Co120 O140 2.062 . S
Co120 O144 2.117 . S
Co120 O145 2.020 . S
C121 O141 1.259 . S
C121 O144 1.258 . S
Co122 N131 2.057 . S
Co122 O138 2.117 . S
Co122 O139 2.020 . S
Co122 O141 2.021 . S
Co122 O146 2.062 . S
C123 N125 1.316 . S
C123 N126 1.347 . S
C123 H128 0.931 . S
C124 N125 1.375 . S
C124 C127 1.350 . S
C124 H129 0.930 . S
N125 Co120 2.057 . S
N125 C123 1.316 . S
N125 C124 1.375 . S
N126 C123 1.347 . S
N126 C127 1.373 . S
C127 C124 1.350 . S
C127 N126 1.373 . S
C127 H148 0.931 . S
H128 C123 0.931 . S
H129 C124 0.930 . S
C130 O137 1.259 . S
C130 O138 1.258 . S
N131 Co122 2.057 . S
N131 C132 1.316 . S
N131 C133 1.375 . S
C132 N131 1.316 . S
C132 N134 1.347 . S
C132 H143 0.931 . S
C133 N131 1.375 . S
C133 C135 1.350 . S
C133 H142 0.930 . S
N134 C132 1.347 . S
N134 C135 1.373 . S
C135 C133 1.350 . S
C135 N134 1.373 . S
C135 H149 0.931 . S
C136 O139 1.256 . S
C136 O140 1.255 . S
O137 Co120 2.021 . S
O137 C130 1.259 . S
O138 Co122 2.117 . S
O138 C130 1.258 . S
O139 Co122 2.020 . S
O139 C136 1.256 . S
O140 Co120 2.062 . S
O140 C136 1.255 . S
O141 C121 1.259 . S
O141 Co122 2.021 . S
H142 C133 0.930 . S
H143 C132 0.931 . S
O144 Co120 2.117 . S
O144 C121 1.258 . S
O145 Co120 2.020 . S
O145 C147 1.256 . S
O146 Co122 2.062 . S
O146 C147 1.255 . S
C147 O145 1.256 . S
C147 O146 1.255 . S
H148 C127 0.931 . S
H149 C135 0.931 . S
Co150 N155 2.057 . S
Co150 O167 2.021 . S
Co150 O170 2.062 . S
Co150 O174 2.117 . S
Co150 O175 2.015 1_545 S
C151 O171 1.259 1_545 S
C151 O174 1.258 . S
Co152 N161 2.057 . S
Co152 O168 2.117 1_565 S
Co152 O169 2.020 1_565 S
Co152 O171 2.021 . S
Co152 O176 2.062 . S
C153 N155 1.316 . S
C153 N156 1.347 . S
C153 H158 0.931 . S
C154 N155 1.375 . S
C154 C157 1.350 . S
C154 H159 0.930 . S
N155 Co150 2.057 . S
N155 C153 1.316 . S
N155 C154 1.375 . S
N156 C153 1.347 . S
N156 C157 1.373 . S
C157 C154 1.350 . S
C157 N156 1.373 . S
C157 H178 0.931 . S
H158 C153 0.931 . S
H159 C154 0.930 . S
C160 O167 1.259 . S
C160 O168 1.258 . S
N161 Co152 2.057 . S
N161 C162 1.316 . S
N161 C163 1.375 . S
C162 N161 1.316 . S
C162 N164 1.347 . S
C162 H173 0.931 . S
C163 N161 1.375 . S
C163 C165 1.350 . S
C163 H172 0.930 . S
N164 C162 1.347 . S
N164 C165 1.373 . S
C165 C163 1.350 . S
C165 N164 1.373 . S
C165 H179 0.931 . S
C166 O169 1.256 . S
C166 O170 1.255 . S
O167 Co150 2.021 . S
O167 C160 1.259 . S
O168 Co152 2.117 1_545 S
O168 C160 1.258 . S
O169 Co152 2.020 1_545 S
O169 C166 1.256 . S
O170 Co150 2.062 . S
O170 C166 1.255 . S
O171 C151 1.259 1_565 S
O171 Co152 2.021 . S
H172 C163 0.930 . S
H173 C162 0.931 . S
O174 Co150 2.117 . S
O174 C151 1.258 . S
O175 Co150 2.015 1_565 S
O175 C177 1.259 . S
O176 Co152 2.062 . S
O176 C177 1.255 . S
C177 O175 1.259 . S
C177 O176 1.255 . S
H178 C157 0.931 . S
H179 C165 0.931 . S
Co180 N185 2.057 . S
Co180 O197 2.021 . S
Co180 O200 2.062 . S
Co180 O204 2.117 . S
Co180 O205 2.020 . S
C181 O201 1.259 . S
C181 O204 1.258 . S
Co182 N191 2.057 . S
Co182 O198 2.117 . S
Co182 O199 2.020 . S
Co182 O201 2.021 . S
Co182 O206 2.062 . S
C183 N185 1.316 . S
C183 N186 1.347 . S
C183 H188 0.931 . S
C184 N185 1.375 . S
C184 C187 1.350 . S
C184 H189 0.930 . S
N185 Co180 2.057 . S
N185 C183 1.316 . S
N185 C184 1.375 . S
N186 C183 1.347 . S
N186 C187 1.373 . S
C187 C184 1.350 . S
C187 N186 1.373 . S
C187 H208 0.931 . S
H188 C183 0.931 . S
H189 C184 0.930 . S
C190 O197 1.259 . S
C190 O198 1.258 . S
N191 Co182 2.057 . S
N191 C192 1.316 . S
N191 C193 1.375 . S
C192 N191 1.316 . S
C192 N194 1.347 . S
C192 H203 0.931 . S
C193 N191 1.375 . S
C193 C195 1.350 . S
C193 H202 0.930 . S
N194 C192 1.347 . S
N194 C195 1.373 . S
C195 C193 1.350 . S
C195 N194 1.373 . S
C195 H209 0.931 . S
C196 O199 1.256 . S
C196 O200 1.255 . S
O197 Co180 2.021 . S
O197 C190 1.259 . S
O198 Co182 2.117 . S
O198 C190 1.258 . S
O199 Co182 2.020 . S
O199 C196 1.256 . S
O200 Co180 2.062 . S
O200 C196 1.255 . S
O201 C181 1.259 . S
O201 Co182 2.021 . S
H202 C193 0.930 . S
H203 C192 0.931 . S
O204 Co180 2.117 . S
O204 C181 1.258 . S
O205 Co180 2.020 . S
O205 C207 1.256 . S
O206 Co182 2.062 . S
O206 C207 1.255 . S
C207 O205 1.256 . S
C207 O206 1.255 . S
H208 C187 0.931 . S
H209 C195 0.931 . S
Co210 N215 2.057 . S
Co210 O227 2.021 . S
Co210 O230 2.062 . S
Co210 O234 2.117 . S
Co210 O235 2.020 . S
C211 O231 1.259 . S
C211 O234 1.258 . S
Co212 N221 2.057 . S
Co212 O228 2.117 . S
Co212 O229 2.020 . S
Co212 O231 2.021 . S
Co212 O236 2.062 . S
C213 N215 1.316 . S
C213 N216 1.347 1_565 S
C213 H218 0.931 . S
C214 N215 1.375 . S
C214 C217 1.350 1_565 S
C214 H219 0.930 . S
N215 Co210 2.057 . S
N215 C213 1.316 . S
N215 C214 1.375 . S
N216 C213 1.347 1_545 S
N216 C217 1.373 . S
C217 C214 1.350 1_545 S
C217 N216 1.373 . S
C217 H238 0.931 . S
H218 C213 0.931 . S
H219 C214 0.930 . S
C220 O227 1.259 . S
C220 O228 1.258 . S
N221 Co212 2.057 . S
N221 C222 1.316 . S
N221 C223 1.375 . S
C222 N221 1.316 . S
C222 N224 1.347 . S
C222 H233 0.931 . S
C223 N221 1.375 . S
C223 C225 1.350 . S
C223 H232 0.930 . S
N224 C222 1.347 . S
N224 C225 1.373 . S
C225 C223 1.350 . S
C225 N224 1.373 . S
C225 H239 0.931 . S
C226 O229 1.256 . S
C226 O230 1.255 . S
O227 Co210 2.021 . S
O227 C220 1.259 . S
O228 Co212 2.117 . S
O228 C220 1.258 . S
O229 Co212 2.020 . S
O229 C226 1.256 . S
O230 Co210 2.062 . S
O230 C226 1.255 . S
O231 C211 1.259 . S
O231 Co212 2.021 . S
H232 C223 0.930 . S
H233 C222 0.931 . S
O234 Co210 2.117 . S
O234 C211 1.258 . S
O235 Co210 2.020 . S
O235 C237 1.256 . S
O236 Co212 2.062 . S
O236 C237 1.255 . S
C237 O235 1.256 . S
C237 O236 1.255 . S
H238 C217 0.931 . S
H239 C225 0.931 . S
Co240 N245 2.057 . S
Co240 O257 2.021 . S
Co240 O260 2.062 . S
Co240 O264 2.117 . S
Co240 O265 2.020 . S
C241 O261 1.259 . S
C241 O264 1.258 . S
Co242 N251 2.057 . S
Co242 O258 2.117 . S
Co242 O259 2.020 . S
Co242 O261 2.021 . S
Co242 O266 2.062 . S
C243 N245 1.316 . S
C243 N246 1.347 . S
C243 H248 0.931 . S
C244 N245 1.375 . S
C244 C247 1.350 . S
C244 H249 0.930 . S
N245 Co240 2.057 . S
N245 C243 1.316 . S
N245 C244 1.375 . S
N246 C243 1.347 . S
N246 C247 1.373 . S
C247 C244 1.350 . S
C247 N246 1.373 . S
C247 H268 0.931 1_455 S
H248 C243 0.931 . S
H249 C244 0.930 . S
C250 O257 1.259 . S
C250 O258 1.258 . S
N251 Co242 2.057 . S
N251 C252 1.316 . S
N251 C253 1.375 . S
C252 N251 1.316 . S
C252 N254 1.347 . S
C252 H263 0.931 . S
C253 N251 1.375 . S
C253 C255 1.350 . S
C253 H262 0.930 . S
N254 C252 1.347 . S
N254 C255 1.373 . S
C255 C253 1.350 . S
C255 N254 1.373 . S
C255 H269 0.931 . S
C256 O259 1.256 . S
C256 O260 1.255 . S
O257 Co240 2.021 . S
O257 C250 1.259 . S
O258 Co242 2.117 . S
O258 C250 1.258 . S
O259 Co242 2.020 . S
O259 C256 1.256 . S
O260 Co240 2.062 . S
O260 C256 1.255 . S
O261 C241 1.259 . S
O261 Co242 2.021 . S
H262 C253 0.930 . S
H263 C252 0.931 . S
O264 Co240 2.117 . S
O264 C241 1.258 . S
O265 Co240 2.020 . S
O265 C267 1.256 . S
O266 Co242 2.062 . S
O266 C267 1.255 . S
C267 O265 1.256 . S
C267 O266 1.255 . S
H268 C247 0.931 1_655 S
H269 C255 0.931 . S
Co270 N275 2.057 . S
Co270 O287 2.021 . S
Co270 O290 2.062 . S
Co270 O294 2.117 . S
Co270 O295 2.020 . S
C271 O291 1.259 . S
C271 O294 1.258 . S
Co272 N281 2.057 . S
Co272 O288 2.117 . S
Co272 O289 2.020 . S
Co272 O291 2.021 . S
Co272 O296 2.062 . S
C273 N275 1.316 . S
C273 N276 1.347 . S
C273 H278 0.931 . S
C274 N275 1.375 . S
C274 C277 1.350 . S
C274 H279 0.930 . S
N275 Co270 2.057 . S
N275 C273 1.316 . S
N275 C274 1.375 . S
N276 C273 1.347 . S
N276 C277 1.373 . S
C277 C274 1.350 . S
C277 N276 1.373 . S
C277 H298 0.931 . S
H278 C273 0.931 . S
H279 C274 0.930 . S
C280 O287 1.259 . S
C280 O288 1.258 . S
N281 Co272 2.057 . S
N281 C282 1.316 . S
N281 C283 1.375 . S
C282 N281 1.316 . S
C282 N284 1.347 . S
C282 H293 0.931 . S
C283 N281 1.375 . S
C283 C285 1.350 . S
C283 H292 0.930 . S
N284 C282 1.347 . S
N284 C285 1.373 . S
C285 C283 1.350 . S
C285 N284 1.373 . S
C285 H299 0.931 . S
C286 O289 1.256 . S
C286 O290 1.255 . S
O287 Co270 2.021 . S
O287 C280 1.259 . S
O288 Co272 2.117 . S
O288 C280 1.258 . S
O289 Co272 2.020 . S
O289 C286 1.256 . S
O290 Co270 2.062 . S
O290 C286 1.255 . S
O291 C271 1.259 . S
O291 Co272 2.021 . S
H292 C283 0.930 . S
H293 C282 0.931 . S
O294 Co270 2.117 . S
O294 C271 1.258 . S
O295 Co270 2.020 . S
O295 C297 1.256 . S
O296 Co272 2.062 . S
O296 C297 1.255 . S
C297 O295 1.256 . S
C297 O296 1.255 . S
H298 C277 0.931 . S
H299 C285 0.931 . S
Co300 N305 2.057 . S
Co300 O317 2.021 . S
Co300 O320 2.062 . S
Co300 O324 2.117 . S
Co300 O325 2.020 . S
C301 O321 1.259 . S
C301 O324 1.258 . S
Co302 N311 2.057 1_565 S
Co302 O318 2.117 . S
Co302 O319 2.020 . S
Co302 O321 2.021 . S
Co302 O326 2.062 . S
C303 N305 1.316 . S
C303 N306 1.347 . S
C303 H308 0.931 . S
C304 N305 1.375 . S
C304 C307 1.350 . S
C304 H309 0.930 . S
N305 Co300 2.057 . S
N305 C303 1.316 . S
N305 C304 1.375 . S
N306 C303 1.347 . S
N306 C307 1.373 . S
C307 C304 1.350 . S
C307 N306 1.373 . S
C307 H328 0.931 . S
H308 C303 0.931 . S
H309 C304 0.930 . S
C310 O317 1.259 . S
C310 O318 1.258 . S
N311 Co302 2.057 1_545 S
N311 C312 1.316 . S
N311 C313 1.375 . S
C312 N311 1.316 . S
C312 N314 1.347 . S
C312 H323 0.931 . S
C313 N311 1.375 . S
C313 C315 1.350 . S
C313 H322 0.930 . S
N314 C312 1.347 . S
N314 C315 1.373 . S
C315 C313 1.350 . S
C315 N314 1.373 . S
C315 H329 0.931 . S
C316 O319 1.256 . S
C316 O320 1.255 . S
O317 Co300 2.021 . S
O317 C310 1.259 . S
O318 Co302 2.117 . S
O318 C310 1.258 . S
O319 Co302 2.020 . S
O319 C316 1.256 . S
O320 Co300 2.062 . S
O320 C316 1.255 . S
O321 C301 1.259 . S
O321 Co302 2.021 . S
H322 C313 0.930 . S
H323 C312 0.931 . S
O324 Co300 2.117 . S
O324 C301 1.258 . S
O325 Co300 2.020 . S
O325 C327 1.256 . S
O326 Co302 2.062 . S
O326 C327 1.255 . S
C327 O325 1.256 . S
C327 O326 1.255 . S
H328 C307 0.931 . S
H329 C315 0.931 . S
Co330 N335 2.057 . S
Co330 O347 2.021 . S
Co330 O350 2.062 . S
Co330 O354 2.117 . S
Co330 O355 2.020 . S
C331 O351 1.259 . S
C331 O354 1.258 . S
Co332 N341 2.057 . S
Co332 O348 2.117 . S
Co332 O349 2.020 . S
Co332 O351 2.021 . S
Co332 O356 2.062 . S
C333 N335 1.316 . S
C333 N336 1.347 . S
C333 H338 0.931 . S
C334 N335 1.375 . S
C334 C337 1.350 . S
C334 H339 0.930 . S
N335 Co330 2.057 . S
N335 C333 1.316 . S
N335 C334 1.375 . S
N336 C333 1.347 . S
N336 C337 1.373 . S
C337 C334 1.350 . S
C337 N336 1.373 . S
C337 H358 0.931 . S
H338 C333 0.931 . S
H339 C334 0.930 . S
C340 O347 1.259 . S
C340 O348 1.258 . S
N341 Co332 2.057 . S
N341 C342 1.313 1_455 S
N341 C343 1.375 . S
C342 N341 1.313 1_655 S
C342 N344 1.352 . S
C342 H353 0.928 1_655 S
C343 N341 1.375 . S
C343 C345 1.350 1_455 S
C343 H352 0.930 . S
N344 C342 1.352 . S
N344 C345 1.373 . S
C345 C343 1.350 1_655 S
C345 N344 1.373 . S
C345 H359 0.931 . S
C346 O349 1.256 . S
C346 O350 1.255 . S
O347 Co330 2.021 . S
O347 C340 1.259 . S
O348 Co332 2.117 . S
O348 C340 1.258 . S
O349 Co332 2.020 . S
O349 C346 1.256 . S
O350 Co330 2.062 . S
O350 C346 1.255 . S
O351 C331 1.259 . S
O351 Co332 2.021 . S
H352 C343 0.930 . S
H353 C342 0.928 1_455 S
O354 Co330 2.117 . S
O354 C331 1.258 . S
O355 Co330 2.020 . S
O355 C357 1.256 . S
O356 Co332 2.062 . S
O356 C357 1.255 . S
C357 O355 1.256 . S
C357 O356 1.255 . S
H358 C337 0.931 . S
H359 C345 0.931 . S
Co360 N365 2.057 . S
Co360 O377 2.021 . S
Co360 O380 2.062 . S
Co360 O384 2.117 . S
Co360 O385 2.020 . S
C361 O381 1.259 . S
C361 O384 1.258 . S
Co362 N371 2.057 . S
Co362 O378 2.117 . S
Co362 O379 2.020 . S
Co362 O381 2.021 . S
Co362 O386 2.062 . S
C363 N365 1.316 . S
C363 N366 1.347 . S
C363 H368 0.931 . S
C364 N365 1.375 . S
C364 C367 1.350 . S
C364 H369 0.930 . S
N365 Co360 2.057 . S
N365 C363 1.316 . S
N365 C364 1.375 . S
N366 C363 1.347 . S
N366 C367 1.373 . S
C367 C364 1.350 . S
C367 N366 1.373 . S
C367 H388 0.931 . S
H368 C363 0.931 . S
H369 C364 0.930 . S
C370 O377 1.259 . S
C370 O378 1.258 . S
N371 Co362 2.057 . S
N371 C372 1.316 . S
N371 C373 1.375 . S
C372 N371 1.316 . S
C372 N374 1.347 . S
C372 H383 0.931 . S
C373 N371 1.375 . S
C373 C375 1.350 . S
C373 H382 0.930 . S
N374 C372 1.347 . S
N374 C375 1.373 . S
C375 C373 1.350 . S
C375 N374 1.373 . S
C375 H389 0.931 . S
C376 O379 1.256 . S
C376 O380 1.255 . S
O377 Co360 2.021 . S
O377 C370 1.259 . S
O378 Co362 2.117 . S
O378 C370 1.258 . S
O379 Co362 2.020 . S
O379 C376 1.256 . S
O380 Co360 2.062 . S
O380 C376 1.255 . S
O381 C361 1.259 . S
O381 Co362 2.021 . S
H382 C373 0.930 . S
H383 C372 0.931 . S
O384 Co360 2.117 . S
O384 C361 1.258 . S
O385 Co360 2.020 . S
O385 C387 1.256 . S
O386 Co362 2.062 . S
O386 C387 1.255 . S
C387 O385 1.256 . S
C387 O386 1.255 . S
H388 C367 0.931 . S
H389 C375 0.931 . S
Co390 N395 2.057 . S
Co390 O407 2.021 . S
Co390 O410 2.062 . S
Co390 O414 2.117 . S
Co390 O415 2.020 . S
C391 O411 1.259 . S
C391 O414 1.258 . S
Co392 N401 2.057 . S
Co392 O408 2.117 . S
Co392 O409 2.020 . S
Co392 O411 2.021 . S
Co392 O416 2.062 . S
C393 N395 1.316 . S
C393 N396 1.347 . S
C393 H398 0.931 . S
C394 N395 1.375 . S
C394 C397 1.350 . S
C394 H399 0.930 . S
N395 Co390 2.057 . S
N395 C393 1.316 . S
N395 C394 1.375 . S
N396 C393 1.347 . S
N396 C397 1.373 . S
C397 C394 1.350 . S
C397 N396 1.373 . S
C397 H418 0.931 . S
H398 C393 0.931 . S
H399 C394 0.930 . S
C400 O407 1.259 . S
C400 O408 1.258 . S
N401 Co392 2.057 . S
N401 C402 1.313 1_545 S
N401 C403 1.375 . S
C402 N401 1.313 1_565 S
C402 N404 1.352 . S
C402 H413 0.928 1_565 S
C403 N401 1.375 . S
C403 C405 1.350 1_545 S
C403 H412 0.930 . S
N404 C402 1.352 . S
N404 C405 1.373 . S
C405 C403 1.350 1_565 S
C405 N404 1.373 . S
C405 H419 0.931 . S
C406 O409 1.256 . S
C406 O410 1.255 . S
O407 Co390 2.021 . S
O407 C400 1.259 . S
O408 Co392 2.117 . S
O408 C400 1.258 . S
O409 Co392 2.020 . S
O409 C406 1.256 . S
O410 Co390 2.062 . S
O410 C406 1.255 . S
O411 C391 1.259 . S
O411 Co392 2.021 . S
H412 C403 0.930 . S
H413 C402 0.928 1_545 S
O414 Co390 2.117 . S
O414 C391 1.258 . S
O415 Co390 2.020 . S
O415 C417 1.256 . S
O416 Co392 2.062 . S
O416 C417 1.255 . S
C417 O415 1.256 . S
C417 O416 1.255 . S
H418 C397 0.931 . S
H419 C405 0.931 . S
Co420 N425 2.057 . S
Co420 O437 2.021 . S
Co420 O440 2.062 . S
Co420 O444 2.117 . S
Co420 O445 2.020 . S
C421 O441 1.259 . S
C421 O444 1.258 . S
Co422 N431 2.057 1_655 S
Co422 O438 2.117 . S
Co422 O439 2.020 . S
Co422 O441 2.021 . S
Co422 O446 2.062 . S
C423 N425 1.316 . S
C423 N426 1.347 . S
C423 H428 0.931 . S
C424 N425 1.375 . S
C424 C427 1.350 . S
C424 H429 0.930 . S
N425 Co420 2.057 . S
N425 C423 1.316 . S
N425 C424 1.375 . S
N426 C423 1.347 . S
N426 C427 1.373 . S
C427 C424 1.350 . S
C427 N426 1.373 . S
C427 H448 0.931 . S
H428 C423 0.931 . S
H429 C424 0.930 . S
C430 O437 1.259 . S
C430 O438 1.258 . S
N431 Co422 2.057 1_455 S
N431 C432 1.316 . S
N431 C433 1.375 . S
C432 N431 1.316 . S
C432 N434 1.347 . S
C432 H443 0.931 . S
C433 N431 1.375 . S
C433 C435 1.350 . S
C433 H442 0.930 . S
N434 C432 1.347 . S
N434 C435 1.373 . S
C435 C433 1.350 . S
C435 N434 1.373 . S
C435 H449 0.931 . S
C436 O439 1.256 . S
C436 O440 1.255 . S
O437 Co420 2.021 . S
O437 C430 1.259 . S
O438 Co422 2.117 . S
O438 C430 1.258 . S
O439 Co422 2.020 . S
O439 C436 1.256 . S
O440 Co420 2.062 . S
O440 C436 1.255 . S
O441 C421 1.259 . S
O441 Co422 2.021 . S
H442 C433 0.930 . S
H443 C432 0.931 . S
O444 Co420 2.117 . S
O444 C421 1.258 . S
O445 Co420 2.020 . S
O445 C447 1.256 . S
O446 Co422 2.062 . S
O446 C447 1.255 . S
C447 O445 1.256 . S
C447 O446 1.255 . S
H448 C427 0.931 . S
H449 C435 0.931 . S
Co450 N455 2.057 . S
Co450 O467 2.021 . S
Co450 O470 2.062 . S
Co450 O474 2.117 . S
Co450 O475 2.020 . S
C451 O471 1.259 . S
C451 O474 1.258 . S
Co452 N461 2.057 . S
Co452 O468 2.117 . S
Co452 O469 2.020 . S
Co452 O471 2.021 . S
Co452 O476 2.062 . S
C453 N455 1.316 . S
C453 N456 1.347 . S
C453 H458 0.931 . S
C454 N455 1.375 . S
C454 C457 1.350 . S
C454 H459 0.930 . S
N455 Co450 2.057 . S
N455 C453 1.316 . S
N455 C454 1.375 . S
N456 C453 1.347 . S
N456 C457 1.373 . S
C457 C454 1.350 . S
C457 N456 1.373 . S
C457 H478 0.931 . S
H458 C453 0.931 . S
H459 C454 0.930 . S
C460 O467 1.259 . S
C460 O468 1.258 . S
N461 Co452 2.057 . S
N461 C462 1.316 . S
N461 C463 1.375 . S
C462 N461 1.316 . S
C462 N464 1.347 . S
C462 H473 0.931 . S
C463 N461 1.375 . S
C463 C465 1.350 . S
C463 H472 0.930 . S
N464 C462 1.347 . S
N464 C465 1.373 . S
C465 C463 1.350 . S
C465 N464 1.373 . S
C465 H479 0.931 . S
C466 O469 1.256 . S
C466 O470 1.255 . S
O467 Co450 2.021 . S
O467 C460 1.259 . S
O468 Co452 2.117 . S
O468 C460 1.258 . S
O469 Co452 2.020 . S
O469 C466 1.256 . S
O470 Co450 2.062 . S
O470 C466 1.255 . S
O471 C451 1.259 . S
O471 Co452 2.021 . S
H472 C463 0.930 . S
H473 C462 0.931 . S
O474 Co450 2.117 . S
O474 C451 1.258 . S
O475 Co450 2.020 . S
O475 C477 1.256 . S
O476 Co452 2.062 . S
O476 C477 1.255 . S
C477 O475 1.256 . S
C477 O476 1.255 . S
H478 C457 0.931 . S
H479 C465 0.931 . S
Co480 N485 2.057 . S
Co480 O497 2.021 . S
Co480 O500 2.062 . S
Co480 O504 2.117 . S
Co480 O505 2.020 . S
C481 O501 1.259 . S
C481 O504 1.258 . S
Co482 N491 2.057 . S
Co482 O498 2.117 . S
Co482 O499 2.020 . S
Co482 O501 2.021 . S
Co482 O506 2.062 . S
C483 N485 1.316 . S
C483 N486 1.347 . S
C483 H488 0.931 . S
C484 N485 1.375 . S
C484 C487 1.350 . S
C484 H489 0.930 . S
N485 Co480 2.057 . S
N485 C483 1.316 . S
N485 C484 1.375 . S
N486 C483 1.347 . S
N486 C487 1.373 . S
C487 C484 1.350 . S
C487 N486 1.373 . S
C487 H508 0.931 1_545 S
H488 C483 0.931 . S
H489 C484 0.930 . S
C490 O497 1.259 . S
C490 O498 1.258 . S
N491 Co482 2.057 . S
N491 C492 1.316 . S
N491 C493 1.375 . S
C492 N491 1.316 . S
C492 N494 1.347 . S
C492 H503 0.931 . S
C493 N491 1.375 . S
C493 C495 1.350 . S
C493 H502 0.930 . S
N494 C492 1.347 . S
N494 C495 1.373 . S
C495 C493 1.350 . S
C495 N494 1.373 . S
C495 H509 0.931 . S
C496 O499 1.256 . S
C496 O500 1.255 . S
O497 Co480 2.021 . S
O497 C490 1.259 . S
O498 Co482 2.117 . S
O498 C490 1.258 . S
O499 Co482 2.020 . S
O499 C496 1.256 . S
O500 Co480 2.062 . S
O500 C496 1.255 . S
O501 C481 1.259 . S
O501 Co482 2.021 . S
H502 C493 0.930 . S
H503 C492 0.931 . S
O504 Co480 2.117 . S
O504 C481 1.258 . S
O505 Co480 2.020 . S
O505 C507 1.256 . S
O506 Co482 2.062 . S
O506 C507 1.255 . S
C507 O505 1.256 . S
C507 O506 1.255 . S
H508 C487 0.931 1_565 S
H509 C495 0.931 . S
Co510 N515 2.057 . S
Co510 O527 2.021 . S
Co510 O530 2.062 . S
Co510 O534 2.117 . S
Co510 O535 2.020 . S
C511 O531 1.259 . S
C511 O534 1.258 . S
Co512 N521 2.057 . S
Co512 O528 2.117 . S
Co512 O529 2.020 . S
Co512 O531 2.021 . S
Co512 O536 2.062 . S
C513 N515 1.316 . S
C513 N516 1.347 1_655 S
C513 H518 0.931 . S
C514 N515 1.375 . S
C514 C517 1.350 1_655 S
C514 H519 0.930 . S
N515 Co510 2.057 . S
N515 C513 1.316 . S
N515 C514 1.375 . S
N516 C513 1.347 1_455 S
N516 C517 1.373 . S
C517 C514 1.350 1_455 S
C517 N516 1.373 . S
C517 H538 0.931 . S
H518 C513 0.931 . S
H519 C514 0.930 . S
C520 O527 1.259 . S
C520 O528 1.258 . S
N521 Co512 2.057 . S
N521 C522 1.316 . S
N521 C523 1.375 . S
C522 N521 1.316 . S
C522 N524 1.347 . S
C522 H533 0.931 . S
C523 N521 1.375 . S
C523 C525 1.350 . S
C523 H532 0.930 . S
N524 C522 1.347 . S
N524 C525 1.373 . S
C525 C523 1.350 . S
C525 N524 1.373 . S
C525 H539 0.931 . S
C526 O529 1.256 . S
C526 O530 1.255 . S
O527 Co510 2.021 . S
O527 C520 1.259 . S
O528 Co512 2.117 . S
O528 C520 1.258 . S
O529 Co512 2.020 . S
O529 C526 1.256 . S
O530 Co510 2.062 . S
O530 C526 1.255 . S
O531 C511 1.259 . S
O531 Co512 2.021 . S
H532 C523 0.930 . S
H533 C522 0.931 . S
O534 Co510 2.117 . S
O534 C511 1.258 . S
O535 Co510 2.020 . S
O535 C537 1.256 . S
O536 Co512 2.062 . S
O536 C537 1.255 . S
C537 O535 1.256 . S
C537 O536 1.255 . S
H538 C517 0.931 . S
H539 C525 0.931 . S
H540 C546 0.930 . S
H541 C549 0.930 . S
H542 C550 0.930 . S
H543 C551 0.930 . S
H544 C554 0.930 . S
H545 C555 0.930 . S
C546 H540 0.930 . S
C546 C547 1.355 . S
C546 C548 1.415 . S
C547 C546 1.355 . S
C547 C549 1.419 . S
C548 C546 1.415 . S
C548 C553 1.425 . S
C548 C555 1.409 . S
C549 H541 0.930 . S
C549 C547 1.419 . S
C549 C550 1.362 . S
C550 H542 0.930 . S
C550 C549 1.362 . S
C550 C553 1.409 . S
C551 H543 0.930 . S
C551 C552 1.355 . S
C551 C553 1.415 . S
C552 C551 1.355 . S
C552 C554 1.419 . S
C553 C548 1.425 . S
C553 C550 1.409 . S
C553 C551 1.415 . S
C554 H544 0.930 . S
C554 C552 1.419 . S
C554 C555 1.362 . S
C555 H545 0.930 . S
C555 C548 1.409 . S
C555 C554 1.362 . S
H556 C562 0.930 . S
H557 C565 0.930 . S
H558 C566 0.930 . S
H559 C567 0.930 . S
H560 C570 0.930 . S
H561 C571 0.930 . S
C562 H556 0.930 . S
C562 C563 1.355 . S
C562 C564 1.415 . S
C563 C562 1.355 . S
C563 C565 1.419 . S
C564 C562 1.415 . S
C564 C569 1.425 . S
C564 C571 1.409 . S
C565 H557 0.930 . S
C565 C563 1.419 . S
C565 C566 1.362 . S
C566 H558 0.930 . S
C566 C565 1.362 . S
C566 C569 1.409 . S
C567 H559 0.930 . S
C567 C568 1.355 . S
C567 C569 1.415 . S
C568 C567 1.355 . S
C568 C570 1.419 . S
C569 C564 1.425 . S
C569 C566 1.409 . S
C569 C567 1.415 . S
C570 H560 0.930 . S
C570 C568 1.419 . S
C570 C571 1.362 . S
C571 H561 0.930 . S
C571 C564 1.409 . S
C571 C570 1.362 . S
H572 C578 0.930 . S
H573 C581 0.930 . S
H574 C582 0.930 . S
H575 C583 0.930 . S
H576 C586 0.930 . S
H577 C587 0.930 . S
C578 H572 0.930 . S
C578 C579 1.355 . S
C578 C580 1.415 . S
C579 C578 1.355 . S
C579 C581 1.419 . S
C580 C578 1.415 . S
C580 C585 1.425 . S
C580 C587 1.409 . S
C581 H573 0.930 . S
C581 C579 1.419 . S
C581 C582 1.362 . S
C582 H574 0.930 . S
C582 C581 1.362 . S
C582 C585 1.409 . S
C583 H575 0.930 . S
C583 C584 1.355 . S
C583 C585 1.415 . S
C584 C583 1.355 . S
C584 C586 1.419 . S
C585 C580 1.425 . S
C585 C582 1.409 . S
C585 C583 1.415 . S
C586 H576 0.930 . S
C586 C584 1.419 . S
C586 C587 1.362 . S
C587 H577 0.930 . S
C587 C580 1.409 . S
C587 C586 1.362 . S
H588 C594 0.930 . S
H589 C597 0.930 . S
H590 C598 0.930 . S
H591 C599 0.930 . S
H592 C602 0.930 . S
H593 C603 0.930 . S
C594 H588 0.930 . S
C594 C595 1.355 . S
C594 C596 1.415 . S
C595 C594 1.355 . S
C595 C597 1.419 . S
C596 C594 1.415 . S
C596 C601 1.425 . S
C596 C603 1.409 . S
C597 H589 0.930 . S
C597 C595 1.419 . S
C597 C598 1.362 . S
C598 H590 0.930 . S
C598 C597 1.362 . S
C598 C601 1.409 . S
C599 H591 0.930 . S
C599 C600 1.355 . S
C599 C601 1.415 . S
C600 C599 1.355 . S
C600 C602 1.419 . S
C601 C596 1.425 . S
C601 C598 1.409 . S
C601 C599 1.415 . S
C602 H592 0.930 . S
C602 C600 1.419 . S
C602 C603 1.362 . S
C603 H593 0.930 . S
C603 C596 1.409 . S
C603 C602 1.362 . S
H604 C610 0.930 . S
H605 C613 0.930 . S
H606 C614 0.930 . S
H607 C615 0.930 . S
H608 C618 0.930 . S
H609 C619 0.930 . S
C610 H604 0.930 . S
C610 C611 1.355 . S
C610 C612 1.415 . S
C611 C610 1.355 . S
C611 C613 1.419 . S
C612 C610 1.415 . S
C612 C617 1.425 . S
C612 C619 1.409 . S
C613 H605 0.930 . S
C613 C611 1.419 . S
C613 C614 1.362 . S
C614 H606 0.930 . S
C614 C613 1.362 . S
C614 C617 1.409 . S
C615 H607 0.930 . S
C615 C616 1.355 . S
C615 C617 1.415 . S
C616 C615 1.355 . S
C616 C618 1.419 . S
C617 C612 1.425 . S
C617 C614 1.409 . S
C617 C615 1.415 . S
C618 H608 0.930 . S
C618 C616 1.419 . S
C618 C619 1.362 . S
C619 H609 0.930 . S
C619 C612 1.409 . S
C619 C618 1.362 . S
H620 C626 0.930 . S
H621 C629 0.930 . S
H622 C630 0.930 . S
H623 C631 0.930 . S
H624 C634 0.930 . S
H625 C635 0.930 . S
C626 H620 0.930 . S
C626 C627 1.355 . S
C626 C628 1.415 . S
C627 C626 1.355 . S
C627 C629 1.419 . S
C628 C626 1.415 . S
C628 C633 1.425 . S
C628 C635 1.409 . S
C629 H621 0.930 . S
C629 C627 1.419 . S
C629 C630 1.362 . S
C630 H622 0.930 . S
C630 C629 1.362 . S
C630 C633 1.409 . S
C631 H623 0.930 . S
C631 C632 1.355 . S
C631 C633 1.415 . S
C632 C631 1.355 . S
C632 C634 1.419 . S
C633 C628 1.425 . S
C633 C630 1.409 . S
C633 C631 1.415 . S
C634 H624 0.930 . S
C634 C632 1.419 . S
C634 C635 1.362 . S
C635 H625 0.930 . S
C635 C628 1.409 . S
C635 C634 1.362 . S
H636 C642 0.930 . S
H637 C645 0.930 1_565 S
H638 C646 0.930 . S
H639 C647 0.930 . S
H640 C650 0.930 . S
H641 C651 0.930 . S
C642 H636 0.930 . S
C642 C643 1.355 . S
C642 C644 1.415 . S
C643 C642 1.355 . S
C643 C645 1.419 . S
C644 C642 1.415 . S
C644 C649 1.425 . S
C644 C651 1.409 . S
C645 H637 0.930 1_545 S
C645 C643 1.419 . S
C645 C646 1.362 . S
C646 H638 0.930 . S
C646 C645 1.362 . S
C646 C649 1.409 . S
C647 H639 0.930 . S
C647 C648 1.355 . S
C647 C649 1.415 . S
C648 C647 1.355 . S
C648 C650 1.419 . S
C649 C644 1.425 . S
C649 C646 1.409 . S
C649 C647 1.415 . S
C650 H640 0.930 . S
C650 C648 1.419 . S
C650 C651 1.362 . S
C651 H641 0.930 . S
C651 C644 1.409 . S
C651 C650 1.362 . S
H652 C658 0.930 . S
H653 C661 0.930 . S
H654 C662 0.930 . S
H655 C663 0.930 . S
H656 C666 0.930 . S
H657 C667 0.930 . S
C658 H652 0.930 . S
C658 C659 1.355 1_655 S
C658 C660 1.415 . S
C659 C658 1.355 1_455 S
C659 C661 1.419 . S
C660 C658 1.415 . S
C660 C665 1.425 . S
C660 C667 1.409 . S
C661 H653 0.930 . S
C661 C659 1.419 . S
C661 C662 1.362 . S
C662 H654 0.930 . S
C662 C661 1.362 . S
C662 C665 1.409 1_455 S
C663 H655 0.930 . S
C663 C664 1.355 . S
C663 C665 1.415 . S
C664 C663 1.355 . S
C664 C666 1.419 . S
C665 C660 1.425 . S
C665 C662 1.409 1_655 S
C665 C663 1.415 . S
C666 H656 0.930 . S
C666 C664 1.419 . S
C666 C667 1.362 . S
C667 H657 0.930 . S
C667 C660 1.409 . S
C667 C666 1.362 . S
H668 C674 0.930 . S
H669 C677 0.930 . S
H670 C678 0.930 . S
H671 C679 0.930 . S
H672 C682 0.930 . S
H673 C683 0.930 . S
C674 H668 0.930 . S
C674 C675 1.355 . S
C674 C676 1.415 . S
C675 C674 1.355 . S
C675 C677 1.419 . S
C676 C674 1.415 . S
C676 C681 1.425 . S
C676 C683 1.409 . S
C677 H669 0.930 . S
C677 C675 1.419 . S
C677 C678 1.362 . S
C678 H670 0.930 . S
C678 C677 1.362 . S
C678 C681 1.409 . S
C679 H671 0.930 . S
C679 C680 1.355 . S
C679 C681 1.415 . S
C680 C679 1.355 . S
C680 C682 1.419 . S
C681 C676 1.425 . S
C681 C678 1.409 . S
C681 C679 1.415 . S
C682 H672 0.930 . S
C682 C680 1.419 . S
C682 C683 1.362 . S
C683 H673 0.930 . S
C683 C676 1.409 . S
C683 C682 1.362 . S
H684 C690 0.930 . S
H685 C693 0.930 . S
H686 C694 0.930 . S
H687 C695 0.930 . S
H688 C698 0.930 . S
H689 C699 0.930 . S
C690 H684 0.930 . S
C690 C691 1.355 . S
C690 C692 1.415 . S
C691 C690 1.355 . S
C691 C693 1.419 . S
C692 C690 1.415 . S
C692 C697 1.425 . S
C692 C699 1.409 . S
C693 H685 0.930 . S
C693 C691 1.419 . S
C693 C694 1.362 . S
C694 H686 0.930 . S
C694 C693 1.362 . S
C694 C697 1.409 . S
C695 H687 0.930 . S
C695 C696 1.355 . S
C695 C697 1.415 . S
C696 C695 1.355 . S
C696 C698 1.419 . S
C697 C692 1.425 . S
C697 C694 1.409 . S
C697 C695 1.415 . S
C698 H688 0.930 . S
C698 C696 1.419 . S
C698 C699 1.362 . S
C699 H689 0.930 . S
C699 C692 1.409 . S
C699 C698 1.362 . S
H700 C706 0.930 . S
H701 C709 0.930 . S
H702 C710 0.930 . S
H703 C711 0.930 . S
H704 C714 0.930 . S
H705 C715 0.930 . S
C706 H700 0.930 . S
C706 C707 1.355 . S
C706 C708 1.415 . S
C707 C706 1.355 . S
C707 C709 1.419 . S
C708 C706 1.415 . S
C708 C713 1.425 . S
C708 C715 1.409 . S
C709 H701 0.930 . S
C709 C707 1.419 . S
C709 C710 1.362 . S
C710 H702 0.930 . S
C710 C709 1.362 . S
C710 C713 1.409 . S
C711 H703 0.930 . S
C711 C712 1.355 . S
C711 C713 1.415 . S
C712 C711 1.355 . S
C712 C714 1.419 . S
C713 C708 1.425 . S
C713 C710 1.409 . S
C713 C711 1.415 . S
C714 H704 0.930 . S
C714 C712 1.419 . S
C714 C715 1.362 . S
C715 H705 0.930 . S
C715 C708 1.409 . S
C715 C714 1.362 . S
H716 C722 0.930 . S
H717 C725 0.930 . S
H718 C726 0.930 . S
H719 C727 0.930 . S
H720 C730 0.930 . S
H721 C731 0.930 . S
C722 H716 0.930 . S
C722 C723 1.355 . S
C722 C724 1.415 . S
C723 C722 1.355 . S
C723 C725 1.419 . S
C724 C722 1.415 . S
C724 C729 1.425 . S
C724 C731 1.409 . S
C725 H717 0.930 . S
C725 C723 1.419 . S
C725 C726 1.362 . S
C726 H718 0.930 . S
C726 C725 1.362 . S
C726 C729 1.409 . S
C727 H719 0.930 . S
C727 C728 1.355 . S
C727 C729 1.415 . S
C728 C727 1.355 . S
C728 C730 1.419 . S
C729 C724 1.425 . S
C729 C726 1.409 . S
C729 C727 1.415 . S
C730 H720 0.930 . S
C730 C728 1.419 . S
C730 C731 1.362 . S
C731 H721 0.930 . S
C731 C724 1.409 . S
C731 C730 1.362 . S
H732 C738 0.930 . S
H733 C741 0.930 . S
H734 C742 0.930 . S
H735 C743 0.930 . S
H736 C746 0.930 . S
H737 C747 0.930 . S
C738 H732 0.930 . S
C738 C739 1.355 . S
C738 C740 1.415 . S
C739 C738 1.355 . S
C739 C741 1.419 . S
C740 C738 1.415 . S
C740 C745 1.425 . S
C740 C747 1.409 . S
C741 H733 0.930 . S
C741 C739 1.419 . S
C741 C742 1.362 . S
C742 H734 0.930 . S
C742 C741 1.362 . S
C742 C745 1.409 . S
C743 H735 0.930 . S
C743 C744 1.355 . S
C743 C745 1.415 . S
C744 C743 1.355 . S
C744 C746 1.419 . S
C745 C740 1.425 . S
C745 C742 1.409 . S
C745 C743 1.415 . S
C746 H736 0.930 . S
C746 C744 1.419 . S
C746 C747 1.362 . S
C747 H737 0.930 . S
C747 C740 1.409 . S
C747 C746 1.362 . S
H748 C754 0.930 . S
H749 C757 0.930 . S
H750 C758 0.930 . S
H751 C759 0.930 . S
H752 C762 0.930 . S
H753 C763 0.930 . S
C754 H748 0.930 . S
C754 C755 1.355 . S
C754 C756 1.415 . S
C755 C754 1.355 . S
C755 C757 1.419 . S
C756 C754 1.415 . S
C756 C761 1.425 . S
C756 C763 1.409 . S
C757 H749 0.930 . S
C757 C755 1.419 . S
C757 C758 1.362 . S
C758 H750 0.930 . S
C758 C757 1.362 . S
C758 C761 1.409 . S
C759 H751 0.930 . S
C759 C760 1.355 . S
C759 C761 1.415 . S
C760 C759 1.355 . S
C760 C762 1.419 . S
C761 C756 1.425 . S
C761 C758 1.409 . S
C761 C759 1.415 . S
C762 H752 0.930 . S
C762 C760 1.419 . S
C762 C763 1.362 . S
C763 H753 0.930 . S
C763 C756 1.409 . S
C763 C762 1.362 . S
H764 C770 0.930 . S
H765 C773 0.930 . S
H766 C774 0.930 . S
H767 C775 0.930 . S
H768 C778 0.930 . S
H769 C779 0.930 . S
C770 H764 0.930 . S
C770 C771 1.355 . S
C770 C772 1.415 . S
C771 C770 1.355 . S
C771 C773 1.419 . S
C772 C770 1.415 . S
C772 C777 1.425 . S
C772 C779 1.409 . S
C773 H765 0.930 . S
C773 C771 1.419 . S
C773 C774 1.362 . S
C774 H766 0.930 . S
C774 C773 1.362 . S
C774 C777 1.409 . S
C775 H767 0.930 . S
C775 C776 1.355 . S
C775 C777 1.415 . S
C776 C775 1.355 . S
C776 C778 1.419 . S
C777 C772 1.425 . S
C777 C774 1.409 . S
C777 C775 1.415 . S
C778 H768 0.930 . S
C778 C776 1.419 . S
C778 C779 1.362 . S
C779 H769 0.930 . S
C779 C772 1.409 . S
C779 C778 1.362 . S
H780 C786 0.930 . S
H781 C789 0.930 . S
H782 C790 0.930 . S
H783 C791 0.930 . S
H784 C794 0.930 . S
H785 C795 0.930 . S
C786 H780 0.930 . S
C786 C787 1.355 . S
C786 C788 1.415 . S
C787 C786 1.355 . S
C787 C789 1.419 . S
C788 C786 1.415 . S
C788 C793 1.425 . S
C788 C795 1.409 . S
C789 H781 0.930 . S
C789 C787 1.419 . S
C789 C790 1.362 . S
C790 H782 0.930 . S
C790 C789 1.362 . S
C790 C793 1.409 . S
C791 H783 0.930 . S
C791 C792 1.355 . S
C791 C793 1.415 . S
C792 C791 1.355 . S
C792 C794 1.419 . S
C793 C788 1.425 . S
C793 C790 1.409 . S
C793 C791 1.415 . S
C794 H784 0.930 . S
C794 C792 1.419 . S
C794 C795 1.362 . S
C795 H785 0.930 . S
C795 C788 1.409 . S
C795 C794 1.362 . S
H796 C802 0.930 . S
H797 C805 0.930 . S
H798 C806 0.930 . S
H799 C807 0.930 . S
H800 C810 0.930 1_545 S
H801 C811 0.930 . S
C802 H796 0.930 . S
C802 C803 1.355 . S
C802 C804 1.415 . S
C803 C802 1.355 . S
C803 C805 1.419 . S
C804 C802 1.415 . S
C804 C809 1.425 . S
C804 C811 1.409 . S
C805 H797 0.930 . S
C805 C803 1.419 . S
C805 C806 1.362 . S
C806 H798 0.930 . S
C806 C805 1.362 . S
C806 C809 1.409 . S
C807 H799 0.930 . S
C807 C808 1.355 . S
C807 C809 1.415 . S
C808 C807 1.355 . S
C808 C810 1.419 . S
C809 C804 1.425 . S
C809 C806 1.409 . S
C809 C807 1.415 . S
C810 H800 0.930 1_565 S
C810 C808 1.419 . S
C810 C811 1.362 . S
C811 H801 0.930 . S
C811 C804 1.409 . S
C811 C810 1.362 . S
H812 C818 0.930 . S
H813 C821 0.930 . S
H814 C822 0.930 . S
H815 C823 0.930 . S
H816 C826 0.930 . S
H817 C827 0.930 . S
C818 H812 0.930 . S
C818 C819 1.355 . S
C818 C820 1.415 1_545 S
C819 C818 1.355 . S
C819 C821 1.419 . S
C820 C818 1.415 1_565 S
C820 C825 1.425 . S
C820 C827 1.409 . S
C821 H813 0.930 . S
C821 C819 1.419 . S
C821 C822 1.362 1_545 S
C822 H814 0.930 . S
C822 C821 1.362 1_565 S
C822 C825 1.409 . S
C823 H815 0.930 . S
C823 C824 1.355 . S
C823 C825 1.415 . S
C824 C823 1.355 . S
C824 C826 1.419 . S
C825 C820 1.425 . S
C825 C822 1.409 . S
C825 C823 1.415 . S
C826 H816 0.930 . S
C826 C824 1.419 . S
C826 C827 1.362 . S
C827 H817 0.930 . S
C827 C820 1.409 . S
C827 C826 1.362 . S
H828 C834 0.930 . S
H829 C837 0.930 . S
H830 C838 0.930 . S
H831 C839 0.930 . S
H832 C842 0.930 . S
H833 C843 0.930 . S
C834 H828 0.930 . S
C834 C835 1.355 1_565 S
C834 C836 1.417 . S
C835 C834 1.355 1_545 S
C835 C837 1.419 . S
C836 C834 1.417 . S
C836 C841 1.408 1_564 S
C836 C843 1.423 1_554 S
C837 H829 0.930 . S
C837 C835 1.419 . S
C837 C838 1.362 . S
C838 H830 0.930 . S
C838 C837 1.362 . S
C838 C841 1.409 1_554 S
C839 H831 0.930 . S
C839 C840 1.355 . S
C839 C841 1.415 . S
C840 C839 1.355 . S
C840 C842 1.419 1_545 S
C841 C836 1.408 1_546 S
C841 C838 1.409 1_556 S
C841 C839 1.415 . S
C842 H832 0.930 . S
C842 C840 1.419 1_565 S
C842 C843 1.362 . S
C843 H833 0.930 . S
C843 C836 1.423 1_556 S
C843 C842 1.362 . S
H844 C850 0.930 . S
H845 C853 0.930 . S
H846 C854 0.930 . S
H847 C855 0.930 . S
H848 C858 0.930 . S
H849 C859 0.930 . S
C850 H844 0.930 . S
C850 C851 1.355 1_655 S
C850 C852 1.415 . S
C851 C850 1.355 1_455 S
C851 C853 1.419 . S
C852 C850 1.415 . S
C852 C857 1.425 1_656 S
C852 C859 1.409 1_556 S
C853 H845 0.930 . S
C853 C851 1.419 . S
C853 C854 1.362 . S
C854 H846 0.930 . S
C854 C853 1.362 . S
C854 C857 1.409 1_556 S
C855 H847 0.930 . S
C855 C856 1.355 . S
C855 C857 1.415 . S
C856 C855 1.355 . S
C856 C858 1.419 1_455 S
C857 C852 1.425 1_454 S
C857 C854 1.409 1_554 S
C857 C855 1.415 . S
C858 H848 0.930 . S
C858 C856 1.419 1_655 S
C858 C859 1.362 . S
C859 H849 0.930 . S
C859 C852 1.409 1_554 S
C859 C858 1.362 . S
H860 C866 0.930 . S
H861 C869 0.930 . S
H862 C870 0.930 . S
H863 C871 0.930 . S
H864 C874 0.930 . S
H865 C875 0.930 . S
C866 H860 0.930 . S
C866 C867 1.355 . S
C866 C868 1.415 . S
C867 C866 1.355 . S
C867 C869 1.419 . S
C868 C866 1.415 . S
C868 C873 1.425 1_556 S
C868 C875 1.409 1_556 S
C869 H861 0.930 . S
C869 C867 1.419 . S
C869 C870 1.362 . S
C870 H862 0.930 . S
C870 C869 1.362 . S
C870 C873 1.409 1_556 S
C871 H863 0.930 . S
C871 C872 1.355 . S
C871 C873 1.415 . S
C872 C871 1.355 . S
C872 C874 1.419 . S
C873 C868 1.425 1_554 S
C873 C870 1.409 1_554 S
C873 C871 1.415 . S
C874 H864 0.930 . S
C874 C872 1.419 . S
C874 C875 1.362 . S
C875 H865 0.930 . S
C875 C868 1.409 1_554 S
C875 C874 1.362 . S
H876 C882 0.930 . S
H877 C885 0.930 . S
H878 C886 0.930 . S
H879 C887 0.930 . S
H880 C890 0.930 . S
H881 C891 0.930 . S
C882 H876 0.930 . S
C882 C883 1.355 . S
C882 C884 1.415 . S
C883 C882 1.355 . S
C883 C885 1.419 . S
C884 C882 1.415 . S
C884 C889 1.425 . S
C884 C891 1.409 . S
C885 H877 0.930 . S
C885 C883 1.419 . S
C885 C886 1.362 . S
C886 H878 0.930 . S
C886 C885 1.362 . S
C886 C889 1.409 . S
C887 H879 0.930 . S
C887 C888 1.355 . S
C887 C889 1.415 . S
C888 C887 1.355 . S
C888 C890 1.419 . S
C889 C884 1.425 . S
C889 C886 1.409 . S
C889 C887 1.415 . S
C890 H880 0.930 . S
C890 C888 1.419 . S
C890 C891 1.362 . S
C891 H881 0.930 . S
C891 C884 1.409 . S
C891 C890 1.362 . S
H892 C898 0.930 . S
H893 C901 0.930 . S
H894 C902 0.930 . S
H895 C903 0.930 . S
H896 C906 0.930 . S
H897 C907 0.930 . S
C898 H892 0.930 . S
C898 C899 1.355 . S
C898 C900 1.415 . S
C899 C898 1.355 . S
C899 C901 1.419 . S
C900 C898 1.415 . S
C900 C905 1.425 . S
C900 C907 1.409 . S
C901 H893 0.930 . S
C901 C899 1.419 . S
C901 C902 1.362 . S
C902 H894 0.930 . S
C902 C901 1.362 . S
C902 C905 1.409 . S
C903 H895 0.930 . S
C903 C904 1.355 . S
C903 C905 1.415 . S
C904 C903 1.355 . S
C904 C906 1.419 . S
C905 C900 1.425 . S
C905 C902 1.409 . S
C905 C903 1.415 . S
C906 H896 0.930 . S
C906 C904 1.419 . S
C906 C907 1.362 . S
C907 H897 0.930 . S
C907 C900 1.409 . S
C907 C906 1.362 . S
H908 C914 0.930 . S
H909 C917 0.930 . S
H910 C918 0.930 . S
H911 C919 0.930 . S
H912 C922 0.930 . S
H913 C923 0.930 . S
C914 H908 0.930 . S
C914 C915 1.355 . S
C914 C916 1.415 . S
C915 C914 1.355 . S
C915 C917 1.419 . S
C916 C914 1.415 . S
C916 C921 1.425 . S
C916 C923 1.409 . S
C917 H909 0.930 . S
C917 C915 1.419 . S
C917 C918 1.362 . S
C918 H910 0.930 . S
C918 C917 1.362 . S
C918 C921 1.409 . S
C919 H911 0.930 . S
C919 C920 1.355 . S
C919 C921 1.415 . S
C920 C919 1.355 . S
C920 C922 1.419 . S
C921 C916 1.425 . S
C921 C918 1.409 . S
C921 C919 1.415 . S
C922 H912 0.930 . S
C922 C920 1.419 . S
C922 C923 1.362 . S
C923 H913 0.930 . S
C923 C916 1.409 . S
C923 C922 1.362 . S
H924 C930 0.930 . S
H925 C933 0.930 . S
H926 C934 0.930 . S
H927 C935 0.930 . S
H928 C938 0.930 . S
H929 C939 0.930 . S
C930 H924 0.930 . S
C930 C931 1.355 . S
C930 C932 1.415 . S
C931 C930 1.355 . S
C931 C933 1.419 . S
C932 C930 1.415 . S
C932 C937 1.425 . S
C932 C939 1.409 . S
C933 H925 0.930 . S
C933 C931 1.419 . S
C933 C934 1.362 . S
C934 H926 0.930 . S
C934 C933 1.362 . S
C934 C937 1.409 . S
C935 H927 0.930 . S
C935 C936 1.355 . S
C935 C937 1.415 . S
C936 C935 1.355 . S
C936 C938 1.419 . S
C937 C932 1.425 . S
C937 C934 1.409 . S
C937 C935 1.415 . S
C938 H928 0.930 . S
C938 C936 1.419 . S
C938 C939 1.362 . S
C939 H929 0.930 . S
C939 C932 1.409 . S
C939 C938 1.362 . S
H940 C946 0.930 . S
H941 C949 0.930 . S
H942 C950 0.930 . S
H943 C951 0.930 . S
H944 C954 0.930 . S
H945 C955 0.930 . S
C946 H940 0.930 . S
C946 C947 1.355 . S
C946 C948 1.415 . S
C947 C946 1.355 . S
C947 C949 1.419 . S
C948 C946 1.415 . S
C948 C953 1.425 . S
C948 C955 1.409 . S
C949 H941 0.930 . S
C949 C947 1.419 . S
C949 C950 1.362 . S
C950 H942 0.930 . S
C950 C949 1.362 . S
C950 C953 1.409 . S
C951 H943 0.930 . S
C951 C952 1.355 . S
C951 C953 1.415 . S
C952 C951 1.355 . S
C952 C954 1.419 . S
C953 C948 1.425 . S
C953 C950 1.409 . S
C953 C951 1.415 . S
C954 H944 0.930 . S
C954 C952 1.419 . S
C954 C955 1.362 . S
C955 H945 0.930 . S
C955 C948 1.409 . S
C955 C954 1.362 . S
H956 C962 0.930 . S
H957 C965 0.930 . S
H958 C966 0.930 . S
H959 C967 0.930 . S
H960 C970 0.930 . S
H961 C971 0.930 . S
C962 H956 0.930 . S
C962 C963 1.355 . S
C962 C964 1.415 . S
C963 C962 1.355 . S
C963 C965 1.419 . S
C964 C962 1.415 . S
C964 C969 1.425 . S
C964 C971 1.409 . S
C965 H957 0.930 . S
C965 C963 1.419 . S
C965 C966 1.362 . S
C966 H958 0.930 . S
C966 C965 1.362 . S
C966 C969 1.409 . S
C967 H959 0.930 . S
C967 C968 1.355 . S
C967 C969 1.415 . S
C968 C967 1.355 . S
C968 C970 1.419 . S
C969 C964 1.425 . S
C969 C966 1.409 . S
C969 C967 1.415 . S
C970 H960 0.930 . S
C970 C968 1.419 . S
C970 C971 1.362 . S
C971 H961 0.930 . S
C971 C964 1.409 . S
C971 C970 1.362 . S
H972 C978 0.930 . S
H973 C981 0.930 . S
H974 C982 0.930 . S
H975 C983 0.930 . S
H976 C986 0.930 . S
H977 C987 0.930 . S
C978 H972 0.930 . S
C978 C979 1.355 . S
C978 C980 1.415 . S
C979 C978 1.355 . S
C979 C981 1.419 . S
C980 C978 1.415 . S
C980 C985 1.425 . S
C980 C987 1.409 . S
C981 H973 0.930 . S
C981 C979 1.419 . S
C981 C982 1.362 . S
C982 H974 0.930 . S
C982 C981 1.362 . S
C982 C985 1.409 . S
C983 H975 0.930 . S
C983 C984 1.355 . S
C983 C985 1.415 . S
C984 C983 1.355 . S
C984 C986 1.419 . S
C985 C980 1.425 . S
C985 C982 1.409 . S
C985 C983 1.415 . S
C986 H976 0.930 . S
C986 C984 1.419 . S
C986 C987 1.362 . S
C987 H977 0.930 . S
C987 C980 1.409 . S
C987 C986 1.362 . S
H988 C994 0.930 . S
H989 C997 0.930 1_655 S
H990 C998 0.930 . S
H991 C999 0.930 . S
H992 C1002 0.930 . S
H993 C1003 0.930 . S
C994 H988 0.930 . S
C994 C995 1.355 . S
C994 C996 1.415 . S
C995 C994 1.355 . S
C995 C997 1.419 . S
C996 C994 1.415 . S
C996 C1001 1.425 . S
C996 C1003 1.409 . S
C997 H989 0.930 1_455 S
C997 C995 1.419 . S
C997 C998 1.362 . S
C998 H990 0.930 . S
C998 C997 1.362 . S
C998 C1001 1.409 . S
C999 H991 0.930 . S
C999 C1000 1.355 . S
C999 C1001 1.415 . S
C1000 C999 1.355 . S
C1000 C1002 1.419 . S
C1001 C996 1.425 . S
C1001 C998 1.409 . S
C1001 C999 1.415 . S
C1002 H992 0.930 . S
C1002 C1000 1.419 . S
C1002 C1003 1.362 . S
C1003 H993 0.930 . S
C1003 C996 1.409 . S
C1003 C1002 1.362 . S
H1004 C1010 0.930 . S
H1005 C1013 0.930 . S
H1006 C1014 0.930 . S
H1007 C1015 0.930 . S
H1008 C1018 0.930 . S
H1009 C1019 0.930 . S
C1010 H1004 0.930 . S
C1010 C1011 1.355 . S
C1010 C1012 1.415 . S
C1011 C1010 1.355 . S
C1011 C1013 1.419 . S
C1012 C1010 1.415 . S
C1012 C1017 1.425 . S
C1012 C1019 1.409 . S
C1013 H1005 0.930 . S
C1013 C1011 1.419 . S
C1013 C1014 1.362 . S
C1014 H1006 0.930 . S
C1014 C1013 1.362 . S
C1014 C1017 1.409 . S
C1015 H1007 0.930 . S
C1015 C1016 1.355 . S
C1015 C1017 1.415 . S
C1016 C1015 1.355 . S
C1016 C1018 1.419 . S
C1017 C1012 1.425 . S
C1017 C1014 1.409 . S
C1017 C1015 1.415 . S
C1018 H1008 0.930 . S
C1018 C1016 1.419 . S
C1018 C1019 1.362 . S
C1019 H1009 0.930 . S
C1019 C1012 1.409 . S
C1019 C1018 1.362 . S
H1020 C1026 0.930 . S
H1021 C1029 0.930 1_455 S
H1022 C1030 0.930 . S
H1023 C1031 0.930 . S
H1024 C1034 0.930 . S
H1025 C1035 0.930 . S
C1026 H1020 0.930 . S
C1026 C1027 1.355 . S
C1026 C1028 1.415 . S
C1027 C1026 1.355 . S
C1027 C1029 1.419 . S
C1028 C1026 1.415 . S
C1028 C1033 1.425 . S
C1028 C1035 1.409 . S
C1029 H1021 0.930 1_655 S
C1029 C1027 1.419 . S
C1029 C1030 1.362 . S
C1030 H1022 0.930 . S
C1030 C1029 1.362 . S
C1030 C1033 1.409 . S
C1031 H1023 0.930 . S
C1031 C1032 1.355 . S
C1031 C1033 1.415 . S
C1032 C1031 1.355 . S
C1032 C1034 1.419 . S
C1033 C1028 1.425 . S
C1033 C1030 1.409 . S
C1033 C1031 1.415 . S
C1034 H1024 0.930 . S
C1034 C1032 1.419 . S
C1034 C1035 1.362 . S
C1035 H1025 0.930 . S
C1035 C1028 1.409 . S
C1035 C1034 1.362 . S
H1036 C1042 0.930 . S
H1037 C1045 0.930 . S
H1038 C1046 0.930 . S
H1039 C1047 0.930 . S
H1040 C1050 0.930 . S
H1041 C1051 0.930 . S
C1042 H1036 0.930 . S
C1042 C1043 1.355 . S
C1042 C1044 1.415 . S
C1043 C1042 1.355 . S
C1043 C1045 1.419 . S
C1044 C1042 1.415 . S
C1044 C1049 1.425 . S
C1044 C1051 1.409 . S
C1045 H1037 0.930 . S
C1045 C1043 1.419 . S
C1045 C1046 1.362 . S
C1046 H1038 0.930 . S
C1046 C1045 1.362 . S
C1046 C1049 1.409 . S
C1047 H1039 0.930 . S
C1047 C1048 1.355 . S
C1047 C1049 1.415 . S
C1048 C1047 1.355 . S
C1048 C1050 1.419 . S
C1049 C1044 1.425 . S
C1049 C1046 1.409 . S
C1049 C1047 1.415 . S
C1050 H1040 0.930 . S
C1050 C1048 1.419 . S
C1050 C1051 1.362 . S
C1051 H1041 0.930 . S
C1051 C1044 1.409 . S
C1051 C1050 1.362 . S
H1052 C1058 0.930 . S
H1053 C1061 0.930 . S
H1054 C1062 0.930 . S
H1055 C1063 0.930 . S
H1056 C1066 0.930 . S
H1057 C1067 0.930 . S
C1058 H1052 0.930 . S
C1058 C1059 1.355 . S
C1058 C1060 1.415 . S
C1059 C1058 1.355 . S
C1059 C1061 1.419 . S
C1060 C1058 1.415 . S
C1060 C1065 1.425 . S
C1060 C1067 1.409 . S
C1061 H1053 0.930 . S
C1061 C1059 1.419 . S
C1061 C1062 1.362 . S
C1062 H1054 0.930 . S
C1062 C1061 1.362 . S
C1062 C1065 1.409 . S
C1063 H1055 0.930 . S
C1063 C1064 1.355 . S
C1063 C1065 1.415 . S
C1064 C1063 1.355 . S
C1064 C1066 1.419 . S
C1065 C1060 1.425 . S
C1065 C1062 1.409 . S
C1065 C1063 1.415 . S
C1066 H1056 0.930 . S
C1066 C1064 1.419 . S
C1066 C1067 1.362 . S
C1067 H1057 0.930 . S
C1067 C1060 1.409 . S
C1067 C1066 1.362 . S
H1068 C1074 0.930 . S
H1069 C1077 0.930 . S
H1070 C1078 0.930 . S
H1071 C1079 0.930 . S
H1072 C1082 0.930 . S
H1073 C1083 0.930 1_655 S
C1074 H1068 0.930 . S
C1074 C1075 1.355 . S
C1074 C1076 1.434 . S
C1075 C1074 1.355 . S
C1075 C1077 1.419 . S
C1076 C1074 1.434 . S
C1076 C1081 1.402 1_655 S
C1076 C1083 1.412 1_655 S
C1077 H1069 0.930 . S
C1077 C1075 1.419 . S
C1077 C1078 1.362 1_655 S
C1078 H1070 0.930 . S
C1078 C1077 1.362 1_455 S
C1078 C1081 1.409 . S
C1079 H1071 0.930 . S
C1079 C1080 1.355 . S
C1079 C1081 1.415 . S
C1080 C1079 1.355 . S
C1080 C1082 1.419 . S
C1081 C1076 1.402 1_455 S
C1081 C1078 1.409 . S
C1081 C1079 1.415 . S
C1082 H1072 0.930 . S
C1082 C1080 1.419 . S
C1082 C1083 1.362 . S
C1083 H1073 0.930 1_455 S
C1083 C1076 1.412 1_455 S
C1083 C1082 1.362 . S
H1084 C1090 0.930 . S
H1085 C1093 0.930 . S
H1086 C1094 0.930 . S
H1087 C1095 0.930 . S
H1088 C1098 0.930 . S
H1089 C1099 0.930 . S
C1090 H1084 0.930 . S
C1090 C1091 1.355 . S
C1090 C1092 1.415 . S
C1091 C1090 1.355 . S
C1091 C1093 1.419 . S
C1092 C1090 1.415 . S
C1092 C1097 1.425 . S
C1092 C1099 1.409 . S
C1093 H1085 0.930 . S
C1093 C1091 1.419 . S
C1093 C1094 1.362 . S
C1094 H1086 0.930 . S
C1094 C1093 1.362 . S
C1094 C1097 1.409 . S
C1095 H1087 0.930 . S
C1095 C1096 1.355 . S
C1095 C1097 1.415 . S
C1096 C1095 1.355 . S
C1096 C1098 1.419 . S
C1097 C1092 1.425 . S
C1097 C1094 1.409 . S
C1097 C1095 1.415 . S
C1098 H1088 0.930 . S
C1098 C1096 1.419 . S
C1098 C1099 1.362 . S
C1099 H1089 0.930 . S
C1099 C1092 1.409 . S
C1099 C1098 1.362 . S
H1100 C1106 0.930 . S
H1101 C1109 0.930 . S
H1102 C1110 0.930 . S
H1103 C1111 0.930 . S
H1104 C1114 0.930 . S
H1105 C1115 0.930 1_565 S
C1106 H1100 0.930 . S
C1106 C1107 1.355 . S
C1106 C1108 1.415 1_565 S
C1107 C1106 1.355 . S
C1107 C1109 1.419 . S
C1108 C1106 1.415 1_545 S
C1108 C1113 1.425 . S
C1108 C1115 1.409 . S
C1109 H1101 0.930 . S
C1109 C1107 1.419 . S
C1109 C1110 1.362 1_565 S
C1110 H1102 0.930 . S
C1110 C1109 1.362 1_545 S
C1110 C1113 1.409 . S
C1111 H1103 0.930 . S
C1111 C1112 1.355 . S
C1111 C1113 1.415 . S
C1112 C1111 1.355 . S
C1112 C1114 1.419 . S
C1113 C1108 1.425 . S
C1113 C1110 1.409 . S
C1113 C1111 1.415 . S
C1114 H1104 0.930 . S
C1114 C1112 1.419 . S
C1114 C1115 1.362 . S
C1115 H1105 0.930 1_545 S
C1115 C1108 1.409 . S
C1115 C1114 1.362 . S
H1116 C1122 0.930 . S
H1117 C1125 0.930 . S
H1118 C1126 0.930 . S
H1119 C1127 0.930 . S
H1120 C1130 0.930 . S
H1121 C1131 0.930 . S
C1122 H1116 0.930 . S
C1122 C1123 1.355 . S
C1122 C1124 1.415 . S
C1123 C1122 1.355 . S
C1123 C1125 1.419 . S
C1124 C1122 1.415 . S
C1124 C1129 1.425 . S
C1124 C1131 1.409 . S
C1125 H1117 0.930 . S
C1125 C1123 1.419 . S
C1125 C1126 1.362 . S
C1126 H1118 0.930 . S
C1126 C1125 1.362 . S
C1126 C1129 1.409 . S
C1127 H1119 0.930 . S
C1127 C1128 1.355 . S
C1127 C1129 1.415 . S
C1128 C1127 1.355 . S
C1128 C1130 1.419 . S
C1129 C1124 1.425 . S
C1129 C1126 1.409 . S
C1129 C1127 1.415 . S
C1130 H1120 0.930 . S
C1130 C1128 1.419 . S
C1130 C1131 1.362 . S
C1131 H1121 0.930 . S
C1131 C1124 1.409 . S
C1131 C1130 1.362 . S
H1132 C1138 0.930 . S
H1133 C1141 0.930 . S
H1134 C1142 0.930 . S
H1135 C1143 0.930 . S
H1136 C1146 0.930 . S
H1137 C1147 0.930 . S
C1138 H1132 0.930 . S
C1138 C1139 1.355 . S
C1138 C1140 1.415 . S
C1139 C1138 1.355 . S
C1139 C1141 1.419 . S
C1140 C1138 1.415 . S
C1140 C1145 1.425 . S
C1140 C1147 1.409 . S
C1141 H1133 0.930 . S
C1141 C1139 1.419 . S
C1141 C1142 1.362 . S
C1142 H1134 0.930 . S
C1142 C1141 1.362 . S
C1142 C1145 1.409 . S
C1143 H1135 0.930 . S
C1143 C1144 1.355 . S
C1143 C1145 1.415 . S
C1144 C1143 1.355 . S
C1144 C1146 1.419 . S
C1145 C1140 1.425 . S
C1145 C1142 1.409 . S
C1145 C1143 1.415 . S
C1146 H1136 0.930 . S
C1146 C1144 1.419 . S
C1146 C1147 1.362 . S
C1147 H1137 0.930 . S
C1147 C1140 1.409 . S
C1147 C1146 1.362 . S
H1148 C1154 0.930 . S
H1149 C1157 0.930 . S
H1150 C1158 0.930 . S
H1151 C1159 0.930 . S
H1152 C1162 0.930 . S
H1153 C1163 0.930 . S
C1154 H1148 0.930 . S
C1154 C1155 1.355 . S
C1154 C1156 1.415 . S
C1155 C1154 1.355 . S
C1155 C1157 1.419 . S
C1156 C1154 1.415 . S
C1156 C1161 1.425 . S
C1156 C1163 1.409 . S
C1157 H1149 0.930 . S
C1157 C1155 1.419 . S
C1157 C1158 1.362 . S
C1158 H1150 0.930 . S
C1158 C1157 1.362 . S
C1158 C1161 1.409 . S
C1159 H1151 0.930 . S
C1159 C1160 1.355 . S
C1159 C1161 1.415 . S
C1160 C1159 1.355 . S
C1160 C1162 1.419 . S
C1161 C1156 1.425 . S
C1161 C1158 1.409 . S
C1161 C1159 1.415 . S
C1162 H1152 0.930 . S
C1162 C1160 1.419 . S
C1162 C1163 1.362 . S
C1163 H1153 0.930 . S
C1163 C1156 1.409 . S
C1163 C1162 1.362 . S
H1164 C1170 0.930 . S
H1165 C1173 0.930 . S
H1166 C1174 0.930 . S
H1167 C1175 0.930 . S
H1168 C1178 0.930 . S
H1169 C1179 0.930 . S
C1170 H1164 0.930 . S
C1170 C1171 1.355 . S
C1170 C1172 1.415 . S
C1171 C1170 1.355 . S
C1171 C1173 1.419 . S
C1172 C1170 1.415 . S
C1172 C1177 1.425 . S
C1172 C1179 1.409 . S
C1173 H1165 0.930 . S
C1173 C1171 1.419 . S
C1173 C1174 1.362 . S
C1174 H1166 0.930 . S
C1174 C1173 1.362 . S
C1174 C1177 1.409 . S
C1175 H1167 0.930 . S
C1175 C1176 1.355 . S
C1175 C1177 1.415 . S
C1176 C1175 1.355 . S
C1176 C1178 1.419 . S
C1177 C1172 1.425 . S
C1177 C1174 1.409 . S
C1177 C1175 1.415 . S
C1178 H1168 0.930 . S
C1178 C1176 1.419 . S
C1178 C1179 1.362 . S
C1179 H1169 0.930 . S
C1179 C1172 1.409 . S
C1179 C1178 1.362 . S
H1180 C1186 0.930 . S
H1181 C1189 0.930 . S
H1182 C1190 0.930 . S
H1183 C1191 0.930 . S
H1184 C1194 0.930 . S
H1185 C1195 0.930 . S
C1186 H1180 0.930 . S
C1186 C1187 1.355 . S
C1186 C1188 1.415 . S
C1187 C1186 1.355 . S
C1187 C1189 1.419 . S
C1188 C1186 1.415 . S
C1188 C1193 1.425 . S
C1188 C1195 1.409 . S
C1189 H1181 0.930 . S
C1189 C1187 1.419 . S
C1189 C1190 1.362 . S
C1190 H1182 0.930 . S
C1190 C1189 1.362 . S
C1190 C1193 1.409 . S
C1191 H1183 0.930 . S
C1191 C1192 1.355 . S
C1191 C1193 1.415 . S
C1192 C1191 1.355 . S
C1192 C1194 1.419 . S
C1193 C1188 1.425 . S
C1193 C1190 1.409 . S
C1193 C1191 1.415 . S
C1194 H1184 0.930 . S
C1194 C1192 1.419 . S
C1194 C1195 1.362 . S
C1195 H1185 0.930 . S
C1195 C1188 1.409 . S
C1195 C1194 1.362 . S
H1196 C1202 0.930 . S
H1197 C1205 0.930 . S
H1198 C1206 0.930 . S
H1199 C1207 0.930 . S
H1200 C1210 0.930 . S
H1201 C1211 0.930 . S
C1202 H1196 0.930 . S
C1202 C1203 1.355 . S
C1202 C1204 1.415 . S
C1203 C1202 1.355 . S
C1203 C1205 1.419 . S
C1204 C1202 1.415 . S
C1204 C1209 1.425 . S
C1204 C1211 1.409 . S
C1205 H1197 0.930 . S
C1205 C1203 1.419 . S
C1205 C1206 1.362 . S
C1206 H1198 0.930 . S
C1206 C1205 1.362 . S
C1206 C1209 1.409 . S
C1207 H1199 0.930 . S
C1207 C1208 1.355 . S
C1207 C1209 1.415 . S
C1208 C1207 1.355 . S
C1208 C1210 1.419 . S
C1209 C1204 1.425 . S
C1209 C1206 1.409 . S
C1209 C1207 1.415 . S
C1210 H1200 0.930 . S
C1210 C1208 1.419 . S
C1210 C1211 1.362 . S
C1211 H1201 0.930 . S
C1211 C1204 1.409 . S
C1211 C1210 1.362 . S
H1212 C1218 0.930 . S
H1213 C1221 0.930 . S
H1214 C1222 0.930 . S
H1215 C1223 0.930 . S
H1216 C1226 0.930 . S
H1217 C1227 0.930 . S
C1218 H1212 0.930 . S
C1218 C1219 1.355 . S
C1218 C1220 1.415 . S
C1219 C1218 1.355 . S
C1219 C1221 1.419 . S
C1220 C1218 1.415 . S
C1220 C1225 1.425 . S
C1220 C1227 1.409 . S
C1221 H1213 0.930 . S
C1221 C1219 1.419 . S
C1221 C1222 1.362 . S
C1222 H1214 0.930 . S
C1222 C1221 1.362 . S
C1222 C1225 1.409 . S
C1223 H1215 0.930 . S
C1223 C1224 1.355 . S
C1223 C1225 1.415 . S
C1224 C1223 1.355 . S
C1224 C1226 1.419 . S
C1225 C1220 1.425 . S
C1225 C1222 1.409 . S
C1225 C1223 1.415 . S
C1226 H1216 0.930 . S
C1226 C1224 1.419 . S
C1226 C1227 1.362 . S
C1227 H1217 0.930 . S
C1227 C1220 1.409 . S
C1227 C1226 1.362 . S
H1228 C1234 0.930 . S
H1229 C1237 0.930 . S
H1230 C1238 0.930 . S
H1231 C1239 0.930 . S
H1232 C1242 0.930 . S
H1233 C1243 0.930 . S
C1234 H1228 0.930 . S
C1234 C1235 1.355 . S
C1234 C1236 1.415 . S
C1235 C1234 1.355 . S
C1235 C1237 1.419 . S
C1236 C1234 1.415 . S
C1236 C1241 1.425 . S
C1236 C1243 1.409 . S
C1237 H1229 0.930 . S
C1237 C1235 1.419 . S
C1237 C1238 1.362 . S
C1238 H1230 0.930 . S
C1238 C1237 1.362 . S
C1238 C1241 1.409 . S
C1239 H1231 0.930 . S
C1239 C1240 1.355 . S
C1239 C1241 1.415 . S
C1240 C1239 1.355 . S
C1240 C1242 1.419 . S
C1241 C1236 1.425 . S
C1241 C1238 1.409 . S
C1241 C1239 1.415 . S
C1242 H1232 0.930 . S
C1242 C1240 1.419 . S
C1242 C1243 1.362 . S
C1243 H1233 0.930 . S
C1243 C1236 1.409 . S
C1243 C1242 1.362 . S
H1244 C1250 0.930 . S
H1245 C1253 0.930 . S
H1246 C1254 0.930 . S
H1247 C1255 0.930 . S
H1248 C1258 0.930 . S
H1249 C1259 0.930 . S
C1250 H1244 0.930 . S
C1250 C1251 1.355 . S
C1250 C1252 1.415 . S
C1251 C1250 1.355 . S
C1251 C1253 1.419 . S
C1252 C1250 1.415 . S
C1252 C1257 1.425 . S
C1252 C1259 1.409 . S
C1253 H1245 0.930 . S
C1253 C1251 1.419 . S
C1253 C1254 1.362 . S
C1254 H1246 0.930 . S
C1254 C1253 1.362 . S
C1254 C1257 1.409 . S
C1255 H1247 0.930 . S
C1255 C1256 1.355 . S
C1255 C1257 1.415 . S
C1256 C1255 1.355 . S
C1256 C1258 1.419 . S
C1257 C1252 1.425 . S
C1257 C1254 1.409 . S
C1257 C1255 1.415 . S
C1258 H1248 0.930 . S
C1258 C1256 1.419 . S
C1258 C1259 1.362 . S
C1259 H1249 0.930 . S
C1259 C1252 1.409 . S
C1259 C1258 1.362 . S
H1260 C1266 0.930 . S
H1261 C1269 0.930 . S
H1262 C1270 0.930 . S
H1263 C1271 0.930 . S
H1264 C1274 0.930 . S
H1265 C1275 0.930 . S
C1266 H1260 0.930 . S
C1266 C1267 1.355 . S
C1266 C1268 1.415 . S
C1267 C1266 1.355 . S
C1267 C1269 1.419 . S
C1268 C1266 1.415 . S
C1268 C1273 1.425 . S
C1268 C1275 1.408 . S
C1269 H1261 0.930 . S
C1269 C1267 1.419 . S
C1269 C1270 1.362 . S
C1270 H1262 0.930 . S
C1270 C1269 1.362 . S
C1270 C1273 1.409 . S
C1271 H1263 0.930 . S
C1271 C1272 1.355 . S
C1271 C1273 1.415 1_455 S
C1272 C1271 1.355 . S
C1272 C1274 1.419 . S
C1273 C1268 1.425 . S
C1273 C1270 1.409 . S
C1273 C1271 1.415 1_655 S
C1274 H1264 0.930 . S
C1274 C1272 1.419 . S
C1274 C1275 1.363 1_455 S
C1275 H1265 0.930 . S
C1275 C1268 1.408 . S
C1275 C1274 1.363 1_655 S
H1276 C1282 0.930 . S
H1277 C1285 0.930 . S
H1278 C1286 0.930 . S
H1279 C1287 0.930 . S
H1280 C1290 0.930 . S
H1281 C1291 0.930 . S
C1282 H1276 0.930 . S
C1282 C1283 1.355 . S
C1282 C1284 1.415 . S
C1283 C1282 1.355 . S
C1283 C1285 1.419 . S
C1284 C1282 1.415 . S
C1284 C1289 1.425 . S
C1284 C1291 1.409 . S
C1285 H1277 0.930 . S
C1285 C1283 1.419 . S
C1285 C1286 1.362 . S
C1286 H1278 0.930 . S
C1286 C1285 1.362 . S
C1286 C1289 1.409 . S
C1287 H1279 0.930 . S
C1287 C1288 1.355 . S
C1287 C1289 1.415 . S
C1288 C1287 1.355 . S
C1288 C1290 1.419 . S
C1289 C1284 1.425 . S
C1289 C1286 1.409 . S
C1289 C1287 1.415 . S
C1290 H1280 0.930 . S
C1290 C1288 1.419 . S
C1290 C1291 1.362 . S
C1291 H1281 0.930 . S
C1291 C1284 1.409 . S
C1291 C1290 1.362 . S
H1292 C1298 0.931 1_565 S
H1293 C1301 0.930 . S
H1294 C1302 0.930 . S
H1295 C1303 0.930 . S
H1296 C1306 0.930 . S
H1297 C1307 0.930 . S
C1298 H1292 0.931 1_545 S
C1298 C1299 1.355 1_545 S
C1298 C1300 1.415 . S
C1299 C1298 1.355 1_565 S
C1299 C1301 1.419 . S
C1300 C1298 1.415 . S
C1300 C1305 1.425 . S
C1300 C1307 1.409 . S
C1301 H1293 0.930 . S
C1301 C1299 1.419 . S
C1301 C1302 1.362 1_565 S
C1302 H1294 0.930 . S
C1302 C1301 1.362 1_545 S
C1302 C1305 1.409 . S
C1303 H1295 0.930 . S
C1303 C1304 1.355 . S
C1303 C1305 1.415 . S
C1304 C1303 1.355 . S
C1304 C1306 1.419 . S
C1305 C1300 1.425 . S
C1305 C1302 1.409 . S
C1305 C1303 1.415 . S
C1306 H1296 0.930 . S
C1306 C1304 1.419 . S
C1306 C1307 1.362 . S
C1307 H1297 0.930 . S
C1307 C1300 1.409 . S
C1307 C1306 1.362 . S
H1308 C1314 0.930 . S
H1309 C1317 0.930 . S
H1310 C1318 0.930 . S
H1311 C1319 0.930 . S
H1312 C1322 0.930 . S
H1313 C1323 0.930 . S
C1314 H1308 0.930 . S
C1314 C1315 1.355 . S
C1314 C1316 1.415 . S
C1315 C1314 1.355 . S
C1315 C1317 1.419 . S
C1316 C1314 1.415 . S
C1316 C1321 1.425 . S
C1316 C1323 1.409 1_565 S
C1317 H1309 0.930 . S
C1317 C1315 1.419 . S
C1317 C1318 1.362 . S
C1318 H1310 0.930 . S
C1318 C1317 1.362 . S
C1318 C1321 1.409 . S
C1319 H1311 0.930 . S
C1319 C1320 1.355 . S
C1319 C1321 1.415 1_545 S
C1320 C1319 1.355 . S
C1320 C1322 1.419 . S
C1321 C1316 1.425 . S
C1321 C1318 1.409 . S
C1321 C1319 1.415 1_565 S
C1322 H1312 0.930 . S
C1322 C1320 1.419 . S
C1322 C1323 1.362 . S
C1323 H1313 0.930 . S
C1323 C1316 1.409 1_545 S
C1323 C1322 1.362 . S
H1324 C1330 0.930 . S
H1325 C1333 0.930 . S
H1326 C1334 0.930 . S
H1327 C1335 0.936 . S
H1328 C1338 0.930 . S
H1329 C1339 0.930 . S
C1330 H1324 0.930 . S
C1330 C1331 1.355 . S
C1330 C1332 1.415 . S
C1331 C1330 1.355 . S
C1331 C1333 1.419 . S
C1332 C1330 1.415 . S
C1332 C1337 1.425 . S
C1332 C1339 1.409 . S
C1333 H1325 0.930 . S
C1333 C1331 1.419 . S
C1333 C1334 1.362 . S
C1334 H1326 0.930 . S
C1334 C1333 1.362 . S
C1334 C1337 1.409 . S
C1335 H1327 0.936 . S
C1335 C1336 1.359 . S
C1335 C1337 1.404 1_655 S
C1336 C1335 1.359 . S
C1336 C1338 1.419 . S
C1337 C1332 1.425 . S
C1337 C1334 1.409 . S
C1337 C1335 1.404 1_455 S
C1338 H1328 0.930 . S
C1338 C1336 1.419 . S
C1338 C1339 1.362 1_655 S
C1339 H1329 0.930 . S
C1339 C1332 1.409 . S
C1339 C1338 1.362 1_455 S
H1340 C1346 0.930 . S
H1341 C1349 0.930 . S
H1342 C1350 0.930 . S
H1343 C1351 0.930 . S
H1344 C1354 0.930 . S
H1345 C1355 0.930 . S
C1346 H1340 0.930 . S
C1346 C1347 1.355 . S
C1346 C1348 1.415 . S
C1347 C1346 1.355 . S
C1347 C1349 1.419 . S
C1348 C1346 1.415 . S
C1348 C1353 1.425 . S
C1348 C1355 1.409 . S
C1349 H1341 0.930 . S
C1349 C1347 1.419 . S
C1349 C1350 1.362 . S
C1350 H1342 0.930 . S
C1350 C1349 1.362 . S
C1350 C1353 1.409 . S
C1351 H1343 0.930 . S
C1351 C1352 1.355 . S
C1351 C1353 1.415 . S
C1352 C1351 1.355 . S
C1352 C1354 1.419 . S
C1353 C1348 1.425 . S
C1353 C1350 1.409 . S
C1353 C1351 1.415 . S
C1354 H1344 0.930 . S
C1354 C1352 1.419 . S
C1354 C1355 1.362 . S
C1355 H1345 0.930 . S
C1355 C1348 1.409 . S
C1355 C1354 1.362 . S
H1356 C1362 0.930 . S
H1357 C1365 0.930 . S
H1358 C1366 0.930 . S
H1359 C1367 0.930 . S
H1360 C1370 0.930 . S
H1361 C1371 0.930 . S
C1362 H1356 0.930 . S
C1362 C1363 1.355 . S
C1362 C1364 1.415 . S
C1363 C1362 1.355 . S
C1363 C1365 1.419 . S
C1364 C1362 1.415 . S
C1364 C1369 1.425 . S
C1364 C1371 1.409 . S
C1365 H1357 0.930 . S
C1365 C1363 1.419 . S
C1365 C1366 1.362 . S
C1366 H1358 0.930 . S
C1366 C1365 1.362 . S
C1366 C1369 1.409 . S
C1367 H1359 0.930 . S
C1367 C1368 1.355 . S
C1367 C1369 1.415 . S
C1368 C1367 1.355 . S
C1368 C1370 1.419 . S
C1369 C1364 1.425 . S
C1369 C1366 1.409 . S
C1369 C1367 1.415 . S
C1370 H1360 0.930 . S
C1370 C1368 1.419 . S
C1370 C1371 1.362 . S
C1371 H1361 0.930 . S
C1371 C1364 1.409 . S
C1371 C1370 1.362 . S
H1372 C1378 0.930 . S
H1373 C1381 0.930 . S
H1374 C1382 0.930 . S
H1375 C1383 0.930 . S
H1376 C1386 0.930 . S
H1377 C1387 0.930 . S
C1378 H1372 0.930 . S
C1378 C1379 1.355 . S
C1378 C1380 1.415 . S
C1379 C1378 1.355 . S
C1379 C1381 1.419 . S
C1380 C1378 1.415 . S
C1380 C1385 1.425 . S
C1380 C1387 1.409 . S
C1381 H1373 0.930 . S
C1381 C1379 1.419 . S
C1381 C1382 1.362 . S
C1382 H1374 0.930 . S
C1382 C1381 1.362 . S
C1382 C1385 1.409 . S
C1383 H1375 0.930 . S
C1383 C1384 1.355 . S
C1383 C1385 1.415 . S
C1384 C1383 1.355 . S
C1384 C1386 1.419 . S
C1385 C1380 1.425 . S
C1385 C1382 1.409 . S
C1385 C1383 1.415 . S
C1386 H1376 0.930 . S
C1386 C1384 1.419 . S
C1386 C1387 1.362 . S
C1387 H1377 0.930 . S
C1387 C1380 1.409 . S
C1387 C1386 1.362 . S
H1388 C1394 0.930 . S
H1389 C1397 0.930 . S
H1390 C1398 0.930 . S
H1391 C1399 0.930 . S
H1392 C1402 0.930 . S
H1393 C1403 0.930 . S
C1394 H1388 0.930 . S
C1394 C1395 1.355 . S
C1394 C1396 1.415 . S
C1395 C1394 1.355 . S
C1395 C1397 1.419 . S
C1396 C1394 1.415 . S
C1396 C1401 1.425 . S
C1396 C1403 1.409 . S
C1397 H1389 0.930 . S
C1397 C1395 1.419 . S
C1397 C1398 1.362 . S
C1398 H1390 0.930 . S
C1398 C1397 1.362 . S
C1398 C1401 1.409 . S
C1399 H1391 0.930 . S
C1399 C1400 1.355 . S
C1399 C1401 1.415 . S
C1400 C1399 1.355 . S
C1400 C1402 1.419 . S
C1401 C1396 1.425 . S
C1401 C1398 1.409 . S
C1401 C1399 1.415 . S
C1402 H1392 0.930 . S
C1402 C1400 1.419 . S
C1402 C1403 1.362 . S
C1403 H1393 0.930 . S
C1403 C1396 1.409 . S
C1403 C1402 1.362 . S
C547 N6 0.875 . S
C552 C76 0.894 . S
C563 C16 0.909 . S
C568 N36 0.909 . S
C579 C46 0.903 . S
C584 N66 0.892 . S
C595 N96 0.879 . S
C600 C136 0.897 . S
C611 C166 0.821 . S
C616 N126 0.785 . S
C627 N156 0.781 . S
C632 C106 0.815 . S
C643 C256 0.833 1_545 S
C648 N186 0.795 . S
C659 C196 0.810 . S
C664 N216 0.808 . S
C675 N246 0.886 1_655 S
C680 C226 0.865 . S
C691 C316 0.905 . S
C696 N276 0.896 . S
C707 N306 0.820 . S
C712 C346 0.816 . S
C723 C286 0.909 . S
C728 N336 0.912 . S
C739 N366 0.871 . S
C744 C436 0.892 . S
C755 C376 0.812 . S
C760 N396 0.812 . S
C771 C406 0.899 . S
C776 N426 0.915 . S
C787 C496 0.861 1_455 S
C792 N456 0.826 . S
C803 C526 0.872 . S
C808 N486 0.842 1_565 S
C819 C466 0.869 . S
C824 N516 0.837 . S
C835 C1 1.650 . S
C840 C151 1.654 . S
C851 C91 1.655 . S
C856 C31 1.648 . S
C867 C121 1.664 . S
C872 C61 1.633 . S
C883 C181 1.643 . S
C888 C331 1.641 . S
C899 C211 1.646 . S
C904 C271 1.639 . S
C915 C301 1.635 . S
C920 C241 1.651 . S
C931 C361 1.656 . S
C936 C511 1.631 . S
C947 C451 1.635 . S
C952 C391 1.664 . S
C963 C481 1.643 . S
C968 C421 1.659 . S
C979 C310 1.950 . S
C984 C10 1.956 1_565 S
C995 C40 1.992 . S
C1000 C340 1.983 . S
C1011 C280 1.975 . S
C1016 C70 1.965 . S
C1027 C100 1.953 1_655 S
C1032 C430 1.948 . S
C1043 C130 1.962 . S
C1048 C370 1.971 . S
C1059 C400 1.958 . S
C1064 C160 1.967 . S
C1075 C490 1.951 . S
C1080 C190 1.957 . S
C1091 C220 1.962 . S
C1096 C520 1.955 . S
C1107 C250 1.957 . S
C1112 C460 1.951 . S
C1123 C87 1.347 . S
C1128 N14 1.292 . S
C1139 C27 1.372 . S
C1144 N44 1.346 . S
C1155 N74 1.307 . S
C1160 C57 1.350 . S
C1171 C147 1.346 . S
C1176 N104 1.299 . S
C1187 C177 1.349 . S
C1192 N134 1.305 . S
C1203 N164 1.365 . S
C1208 C117 1.388 . S
C1219 C267 1.344 . S
C1224 N194 1.294 . S
C1235 N224 1.293 . S
C1240 C207 1.344 . S
C1251 C237 1.359 . S
C1256 N254 1.325 . S
C1267 N284 1.323 . S
C1272 C327 1.358 . S
C1283 N314 1.332 . S
C1288 C357 1.372 . S
C1299 C297 1.367 . S
C1304 N344 1.323 . S
C1315 N374 1.303 . S
C1320 C447 1.355 . S
C1331 N404 1.292 . S
C1336 C387 1.343 . S
C1347 C417 1.348 . S
C1352 N434 1.303 . S
C1363 N464 1.339 . S
C1368 C507 1.376 . S
C1379 N494 1.305 . S
C1384 C537 1.349 . S
C1395 C477 1.389 . S
C1400 N524 1.366 . S
