# Generated by pormake.
# Topology ulg, (4)-cn, num edge types: 1
# Building blocks:
#     Node 0, Type 0, BuildingBlock: KUFVIS_clean_sbu_0, # of connection points: 4
#     Node 1, Type 0, BuildingBlock: KUFVIS_clean_sbu_0, # of connection points: 4
#     Node 2, Type 0, BuildingBlock: KUFVIS_clean_sbu_0, # of connection points: 4
#     Node 3, Type 0, BuildingBlock: KUFVIS_clean_sbu_0, # of connection points: 4
#     Node 4, Type 0, BuildingBlock: KUFVIS_clean_sbu_0, # of connection points: 4
#     Node 5, Type 0, BuildingBlock: KUFVIS_clean_sbu_0, # of connection points: 4
#     Node 6, Type 0, BuildingBlock: KUFVIS_clean_sbu_0, # of connection points: 4
#     Node 7, Type 0, BuildingBlock: KUFVIS_clean_sbu_0, # of connection points: 4
#     Node 8, Type 0, BuildingBlock: KUFVIS_clean_sbu_0, # of connection points: 4
#     Node 9, Type 0, BuildingBlock: KUFVIS_clean_sbu_0, # of connection points: 4
#     Node 10, Type 0, BuildingBlock: KUFVIS_clean_sbu_0, # of connection points: 4
#     Node 11, Type 0, BuildingBlock: KUFVIS_clean_sbu_0, # of connection points: 4
#     Node 12, Type 0, BuildingBlock: KUFVIS_clean_sbu_0, # of connection points: 4
#     Node 13, Type 0, BuildingBlock: KUFVIS_clean_sbu_0, # of connection points: 4
#     Node 14, Type 0, BuildingBlock: KUFVIS_clean_sbu_0, # of connection points: 4
#     Node 15, Type 0, BuildingBlock: KUFVIS_clean_sbu_0, # of connection points: 4
#     Node 16, Type 0, BuildingBlock: KUFVIS_clean_sbu_0, # of connection points: 4
#     Node 17, Type 0, BuildingBlock: KUFVIS_clean_sbu_0, # of connection points: 4
#     Node 18, Type 0, BuildingBlock: KUFVIS_clean_sbu_0, # of connection points: 4
#     Node 19, Type 0, BuildingBlock: KUFVIS_clean_sbu_0, # of connection points: 4
#     Node 20, Type 0, BuildingBlock: KUFVIS_clean_sbu_0, # of connection points: 4
#     Node 21, Type 0, BuildingBlock: KUFVIS_clean_sbu_0, # of connection points: 4
#     Node 22, Type 0, BuildingBlock: KUFVIS_clean_sbu_0, # of connection points: 4
#     Node 23, Type 0, BuildingBlock: KUFVIS_clean_sbu_0, # of connection points: 4
#     Node 24, Type 0, BuildingBlock: KUFVIS_clean_sbu_0, # of connection points: 4
#     Node 25, Type 0, BuildingBlock: KUFVIS_clean_sbu_0, # of connection points: 4
#     Node 26, Type 0, BuildingBlock: KUFVIS_clean_sbu_0, # of connection points: 4
#     Node 27, Type 0, BuildingBlock: KUFVIS_clean_sbu_0, # of connection points: 4
#     Node 28, Type 0, BuildingBlock: KUFVIS_clean_sbu_0, # of connection points: 4
#     Node 29, Type 0, BuildingBlock: KUFVIS_clean_sbu_0, # of connection points: 4
#     Node 30, Type 0, BuildingBlock: KUFVIS_clean_sbu_0, # of connection points: 4
#     Node 31, Type 0, BuildingBlock: KUFVIS_clean_sbu_0, # of connection points: 4
#     Node 32, Type 0, BuildingBlock: KUFVIS_clean_sbu_0, # of connection points: 4
#     Node 33, Type 0, BuildingBlock: KUFVIS_clean_sbu_0, # of connection points: 4
#     Node 34, Type 0, BuildingBlock: KUFVIS_clean_sbu_0, # of connection points: 4
#     Node 35, Type 0, BuildingBlock: KUFVIS_clean_sbu_0, # of connection points: 4
#     Node 36, Type 0, BuildingBlock: KUFVIS_clean_sbu_0, # of connection points: 4
#     Node 37, Type 0, BuildingBlock: KUFVIS_clean_sbu_0, # of connection points: 4
#     Node 38, Type 0, BuildingBlock: KUFVIS_clean_sbu_0, # of connection points: 4
#     Node 39, Type 0, BuildingBlock: KUFVIS_clean_sbu_0, # of connection points: 4
#     Node 40, Type 0, BuildingBlock: KUFVIS_clean_sbu_0, # of connection points: 4
#     Node 41, Type 0, BuildingBlock: KUFVIS_clean_sbu_0, # of connection points: 4
#     Node 42, Type 0, BuildingBlock: KUFVIS_clean_sbu_0, # of connection points: 4
#     Node 43, Type 0, BuildingBlock: KUFVIS_clean_sbu_0, # of connection points: 4
#     Node 44, Type 0, BuildingBlock: KUFVIS_clean_sbu_0, # of connection points: 4
#     Node 45, Type 0, BuildingBlock: KUFVIS_clean_sbu_0, # of connection points: 4
#     Node 46, Type 0, BuildingBlock: KUFVIS_clean_sbu_0, # of connection points: 4
#     Node 47, Type 0, BuildingBlock: KUFVIS_clean_sbu_0, # of connection points: 4
#     Node 48, Type 0, BuildingBlock: KUFVIS_clean_sbu_0, # of connection points: 4
#     Node 49, Type 0, BuildingBlock: KUFVIS_clean_sbu_0, # of connection points: 4
#     Node 50, Type 0, BuildingBlock: KUFVIS_clean_sbu_0, # of connection points: 4
#     Node 51, Type 0, BuildingBlock: KUFVIS_clean_sbu_0, # of connection points: 4
#     Node 52, Type 0, BuildingBlock: KUFVIS_clean_sbu_0, # of connection points: 4
#     Node 53, Type 0, BuildingBlock: KUFVIS_clean_sbu_0, # of connection points: 4
#     Node 54, Type 0, BuildingBlock: KUFVIS_clean_sbu_0, # of connection points: 4
#     Node 55, Type 0, BuildingBlock: KUFVIS_clean_sbu_0, # of connection points: 4
#     Node 56, Type 0, BuildingBlock: KUFVIS_clean_sbu_0, # of connection points: 4
#     Node 57, Type 0, BuildingBlock: KUFVIS_clean_sbu_0, # of connection points: 4
#     Node 58, Type 0, BuildingBlock: KUFVIS_clean_sbu_0, # of connection points: 4
#     Node 59, Type 0, BuildingBlock: KUFVIS_clean_sbu_0, # of connection points: 4
#     Node 60, Type 0, BuildingBlock: KUFVIS_clean_sbu_0, # of connection points: 4
#     Node 61, Type 0, BuildingBlock: KUFVIS_clean_sbu_0, # of connection points: 4
#     Node 62, Type 0, BuildingBlock: KUFVIS_clean_sbu_0, # of connection points: 4
#     Node 63, Type 0, BuildingBlock: KUFVIS_clean_sbu_0, # of connection points: 4
#     Node 64, Type 0, BuildingBlock: KUFVIS_clean_sbu_0, # of connection points: 4
#     Node 65, Type 0, BuildingBlock: KUFVIS_clean_sbu_0, # of connection points: 4
#     Node 66, Type 0, BuildingBlock: KUFVIS_clean_sbu_0, # of connection points: 4
#     Node 67, Type 0, BuildingBlock: KUFVIS_clean_sbu_0, # of connection points: 4
#     Node 68, Type 0, BuildingBlock: KUFVIS_clean_sbu_0, # of connection points: 4
#     Node 69, Type 0, BuildingBlock: KUFVIS_clean_sbu_0, # of connection points: 4
#     Node 70, Type 0, BuildingBlock: KUFVIS_clean_sbu_0, # of connection points: 4
#     Node 71, Type 0, BuildingBlock: KUFVIS_clean_sbu_0, # of connection points: 4
#     Node 72, Type 0, BuildingBlock: KUFVIS_clean_sbu_0, # of connection points: 4
#     Node 73, Type 0, BuildingBlock: KUFVIS_clean_sbu_0, # of connection points: 4
#     Node 74, Type 0, BuildingBlock: KUFVIS_clean_sbu_0, # of connection points: 4
#     Node 75, Type 0, BuildingBlock: KUFVIS_clean_sbu_0, # of connection points: 4
#     Node 76, Type 0, BuildingBlock: KUFVIS_clean_sbu_0, # of connection points: 4
#     Node 77, Type 0, BuildingBlock: KUFVIS_clean_sbu_0, # of connection points: 4
#     Node 78, Type 0, BuildingBlock: KUFVIS_clean_sbu_0, # of connection points: 4
#     Node 79, Type 0, BuildingBlock: KUFVIS_clean_sbu_0, # of connection points: 4
#     Node 80, Type 0, BuildingBlock: KUFVIS_clean_sbu_0, # of connection points: 4
#     Node 81, Type 0, BuildingBlock: KUFVIS_clean_sbu_0, # of connection points: 4
#     Node 82, Type 0, BuildingBlock: KUFVIS_clean_sbu_0, # of connection points: 4
#     Node 83, Type 0, BuildingBlock: KUFVIS_clean_sbu_0, # of connection points: 4
#     Node 84, Type 0, BuildingBlock: KUFVIS_clean_sbu_0, # of connection points: 4
#     Node 85, Type 0, BuildingBlock: KUFVIS_clean_sbu_0, # of connection points: 4
#     Node 86, Type 0, BuildingBlock: KUFVIS_clean_sbu_0, # of connection points: 4
#     Node 87, Type 0, BuildingBlock: KUFVIS_clean_sbu_0, # of connection points: 4
#     Node 88, Type 0, BuildingBlock: KUFVIS_clean_sbu_0, # of connection points: 4
#     Node 89, Type 0, BuildingBlock: KUFVIS_clean_sbu_0, # of connection points: 4
#     Node 90, Type 0, BuildingBlock: KUFVIS_clean_sbu_0, # of connection points: 4
#     Node 91, Type 0, BuildingBlock: KUFVIS_clean_sbu_0, # of connection points: 4
#     Node 92, Type 0, BuildingBlock: KUFVIS_clean_sbu_0, # of connection points: 4
#     Node 93, Type 0, BuildingBlock: KUFVIS_clean_sbu_0, # of connection points: 4
#     Node 94, Type 0, BuildingBlock: KUFVIS_clean_sbu_0, # of connection points: 4
#     Node 95, Type 0, BuildingBlock: KUFVIS_clean_sbu_0, # of connection points: 4
#     Edge 96, Type (0, 0), BuildingBlock: AJUNOK_clean_linker_0, # of connection points: 2
#     Edge 97, Type (0, 0), BuildingBlock: AJUNOK_clean_linker_0, # of connection points: 2
#     Edge 98, Type (0, 0), BuildingBlock: AJUNOK_clean_linker_0, # of connection points: 2
#     Edge 99, Type (0, 0), BuildingBlock: AJUNOK_clean_linker_0, # of connection points: 2
#     Edge 100, Type (0, 0), BuildingBlock: AJUNOK_clean_linker_0, # of connection points: 2
#     Edge 101, Type (0, 0), BuildingBlock: AJUNOK_clean_linker_0, # of connection points: 2
#     Edge 102, Type (0, 0), BuildingBlock: AJUNOK_clean_linker_0, # of connection points: 2
#     Edge 103, Type (0, 0), BuildingBlock: AJUNOK_clean_linker_0, # of connection points: 2
#     Edge 104, Type (0, 0), BuildingBlock: AJUNOK_clean_linker_0, # of connection points: 2
#     Edge 105, Type (0, 0), BuildingBlock: AJUNOK_clean_linker_0, # of connection points: 2
#     Edge 106, Type (0, 0), BuildingBlock: AJUNOK_clean_linker_0, # of connection points: 2
#     Edge 107, Type (0, 0), BuildingBlock: AJUNOK_clean_linker_0, # of connection points: 2
#     Edge 108, Type (0, 0), BuildingBlock: AJUNOK_clean_linker_0, # of connection points: 2
#     Edge 109, Type (0, 0), BuildingBlock: AJUNOK_clean_linker_0, # of connection points: 2
#     Edge 110, Type (0, 0), BuildingBlock: AJUNOK_clean_linker_0, # of connection points: 2
#     Edge 111, Type (0, 0), BuildingBlock: AJUNOK_clean_linker_0, # of connection points: 2
#     Edge 112, Type (0, 0), BuildingBlock: AJUNOK_clean_linker_0, # of connection points: 2
#     Edge 113, Type (0, 0), BuildingBlock: AJUNOK_clean_linker_0, # of connection points: 2
#     Edge 114, Type (0, 0), BuildingBlock: AJUNOK_clean_linker_0, # of connection points: 2
#     Edge 115, Type (0, 0), BuildingBlock: AJUNOK_clean_linker_0, # of connection points: 2
#     Edge 116, Type (0, 0), BuildingBlock: AJUNOK_clean_linker_0, # of connection points: 2
#     Edge 117, Type (0, 0), BuildingBlock: AJUNOK_clean_linker_0, # of connection points: 2
#     Edge 118, Type (0, 0), BuildingBlock: AJUNOK_clean_linker_0, # of connection points: 2
#     Edge 119, Type (0, 0), BuildingBlock: AJUNOK_clean_linker_0, # of connection points: 2
#     Edge 120, Type (0, 0), BuildingBlock: AJUNOK_clean_linker_0, # of connection points: 2
#     Edge 121, Type (0, 0), BuildingBlock: AJUNOK_clean_linker_0, # of connection points: 2
#     Edge 122, Type (0, 0), BuildingBlock: AJUNOK_clean_linker_0, # of connection points: 2
#     Edge 123, Type (0, 0), BuildingBlock: AJUNOK_clean_linker_0, # of connection points: 2
#     Edge 124, Type (0, 0), BuildingBlock: AJUNOK_clean_linker_0, # of connection points: 2
#     Edge 125, Type (0, 0), BuildingBlock: AJUNOK_clean_linker_0, # of connection points: 2
#     Edge 126, Type (0, 0), BuildingBlock: AJUNOK_clean_linker_0, # of connection points: 2
#     Edge 127, Type (0, 0), BuildingBlock: AJUNOK_clean_linker_0, # of connection points: 2
#     Edge 128, Type (0, 0), BuildingBlock: AJUNOK_clean_linker_0, # of connection points: 2
#     Edge 129, Type (0, 0), BuildingBlock: AJUNOK_clean_linker_0, # of connection points: 2
#     Edge 130, Type (0, 0), BuildingBlock: AJUNOK_clean_linker_0, # of connection points: 2
#     Edge 131, Type (0, 0), BuildingBlock: AJUNOK_clean_linker_0, # of connection points: 2
#     Edge 132, Type (0, 0), BuildingBlock: AJUNOK_clean_linker_0, # of connection points: 2
#     Edge 133, Type (0, 0), BuildingBlock: AJUNOK_clean_linker_0, # of connection points: 2
#     Edge 134, Type (0, 0), BuildingBlock: AJUNOK_clean_linker_0, # of connection points: 2
#     Edge 135, Type (0, 0), BuildingBlock: AJUNOK_clean_linker_0, # of connection points: 2
#     Edge 136, Type (0, 0), BuildingBlock: AJUNOK_clean_linker_0, # of connection points: 2
#     Edge 137, Type (0, 0), BuildingBlock: AJUNOK_clean_linker_0, # of connection points: 2
#     Edge 138, Type (0, 0), BuildingBlock: AJUNOK_clean_linker_0, # of connection points: 2
#     Edge 139, Type (0, 0), BuildingBlock: AJUNOK_clean_linker_0, # of connection points: 2
#     Edge 140, Type (0, 0), BuildingBlock: AJUNOK_clean_linker_0, # of connection points: 2
#     Edge 141, Type (0, 0), BuildingBlock: AJUNOK_clean_linker_0, # of connection points: 2
#     Edge 142, Type (0, 0), BuildingBlock: AJUNOK_clean_linker_0, # of connection points: 2
#     Edge 143, Type (0, 0), BuildingBlock: AJUNOK_clean_linker_0, # of connection points: 2
#     Edge 144, Type (0, 0), BuildingBlock: AJUNOK_clean_linker_0, # of connection points: 2
#     Edge 145, Type (0, 0), BuildingBlock: AJUNOK_clean_linker_0, # of connection points: 2
#     Edge 146, Type (0, 0), BuildingBlock: AJUNOK_clean_linker_0, # of connection points: 2
#     Edge 147, Type (0, 0), BuildingBlock: AJUNOK_clean_linker_0, # of connection points: 2
#     Edge 148, Type (0, 0), BuildingBlock: AJUNOK_clean_linker_0, # of connection points: 2
#     Edge 149, Type (0, 0), BuildingBlock: AJUNOK_clean_linker_0, # of connection points: 2
#     Edge 150, Type (0, 0), BuildingBlock: AJUNOK_clean_linker_0, # of connection points: 2
#     Edge 151, Type (0, 0), BuildingBlock: AJUNOK_clean_linker_0, # of connection points: 2
#     Edge 152, Type (0, 0), BuildingBlock: AJUNOK_clean_linker_0, # of connection points: 2
#     Edge 153, Type (0, 0), BuildingBlock: AJUNOK_clean_linker_0, # of connection points: 2
#     Edge 154, Type (0, 0), BuildingBlock: AJUNOK_clean_linker_0, # of connection points: 2
#     Edge 155, Type (0, 0), BuildingBlock: AJUNOK_clean_linker_0, # of connection points: 2
#     Edge 156, Type (0, 0), BuildingBlock: AJUNOK_clean_linker_0, # of connection points: 2
#     Edge 157, Type (0, 0), BuildingBlock: AJUNOK_clean_linker_0, # of connection points: 2
#     Edge 158, Type (0, 0), BuildingBlock: AJUNOK_clean_linker_0, # of connection points: 2
#     Edge 159, Type (0, 0), BuildingBlock: AJUNOK_clean_linker_0, # of connection points: 2
#     Edge 160, Type (0, 0), BuildingBlock: AJUNOK_clean_linker_0, # of connection points: 2
#     Edge 161, Type (0, 0), BuildingBlock: AJUNOK_clean_linker_0, # of connection points: 2
#     Edge 162, Type (0, 0), BuildingBlock: AJUNOK_clean_linker_0, # of connection points: 2
#     Edge 163, Type (0, 0), BuildingBlock: AJUNOK_clean_linker_0, # of connection points: 2
#     Edge 164, Type (0, 0), BuildingBlock: AJUNOK_clean_linker_0, # of connection points: 2
#     Edge 165, Type (0, 0), BuildingBlock: AJUNOK_clean_linker_0, # of connection points: 2
#     Edge 166, Type (0, 0), BuildingBlock: AJUNOK_clean_linker_0, # of connection points: 2
#     Edge 167, Type (0, 0), BuildingBlock: AJUNOK_clean_linker_0, # of connection points: 2
#     Edge 168, Type (0, 0), BuildingBlock: AJUNOK_clean_linker_0, # of connection points: 2
#     Edge 169, Type (0, 0), BuildingBlock: AJUNOK_clean_linker_0, # of connection points: 2
#     Edge 170, Type (0, 0), BuildingBlock: AJUNOK_clean_linker_0, # of connection points: 2
#     Edge 171, Type (0, 0), BuildingBlock: AJUNOK_clean_linker_0, # of connection points: 2
#     Edge 172, Type (0, 0), BuildingBlock: AJUNOK_clean_linker_0, # of connection points: 2
#     Edge 173, Type (0, 0), BuildingBlock: AJUNOK_clean_linker_0, # of connection points: 2
#     Edge 174, Type (0, 0), BuildingBlock: AJUNOK_clean_linker_0, # of connection points: 2
#     Edge 175, Type (0, 0), BuildingBlock: AJUNOK_clean_linker_0, # of connection points: 2
#     Edge 176, Type (0, 0), BuildingBlock: AJUNOK_clean_linker_0, # of connection points: 2
#     Edge 177, Type (0, 0), BuildingBlock: AJUNOK_clean_linker_0, # of connection points: 2
#     Edge 178, Type (0, 0), BuildingBlock: AJUNOK_clean_linker_0, # of connection points: 2
#     Edge 179, Type (0, 0), BuildingBlock: AJUNOK_clean_linker_0, # of connection points: 2
#     Edge 180, Type (0, 0), BuildingBlock: AJUNOK_clean_linker_0, # of connection points: 2
#     Edge 181, Type (0, 0), BuildingBlock: AJUNOK_clean_linker_0, # of connection points: 2
#     Edge 182, Type (0, 0), BuildingBlock: AJUNOK_clean_linker_0, # of connection points: 2
#     Edge 183, Type (0, 0), BuildingBlock: AJUNOK_clean_linker_0, # of connection points: 2
#     Edge 184, Type (0, 0), BuildingBlock: AJUNOK_clean_linker_0, # of connection points: 2
#     Edge 185, Type (0, 0), BuildingBlock: AJUNOK_clean_linker_0, # of connection points: 2
#     Edge 186, Type (0, 0), BuildingBlock: AJUNOK_clean_linker_0, # of connection points: 2
#     Edge 187, Type (0, 0), BuildingBlock: AJUNOK_clean_linker_0, # of connection points: 2
#     Edge 188, Type (0, 0), BuildingBlock: AJUNOK_clean_linker_0, # of connection points: 2
#     Edge 189, Type (0, 0), BuildingBlock: AJUNOK_clean_linker_0, # of connection points: 2
#     Edge 190, Type (0, 0), BuildingBlock: AJUNOK_clean_linker_0, # of connection points: 2
#     Edge 191, Type (0, 0), BuildingBlock: AJUNOK_clean_linker_0, # of connection points: 2
#     Edge 192, Type (0, 0), BuildingBlock: AJUNOK_clean_linker_0, # of connection points: 2
#     Edge 193, Type (0, 0), BuildingBlock: AJUNOK_clean_linker_0, # of connection points: 2
#     Edge 194, Type (0, 0), BuildingBlock: AJUNOK_clean_linker_0, # of connection points: 2
#     Edge 195, Type (0, 0), BuildingBlock: AJUNOK_clean_linker_0, # of connection points: 2
#     Edge 196, Type (0, 0), BuildingBlock: AJUNOK_clean_linker_0, # of connection points: 2
#     Edge 197, Type (0, 0), BuildingBlock: AJUNOK_clean_linker_0, # of connection points: 2
#     Edge 198, Type (0, 0), BuildingBlock: AJUNOK_clean_linker_0, # of connection points: 2
#     Edge 199, Type (0, 0), BuildingBlock: AJUNOK_clean_linker_0, # of connection points: 2
#     Edge 200, Type (0, 0), BuildingBlock: AJUNOK_clean_linker_0, # of connection points: 2
#     Edge 201, Type (0, 0), BuildingBlock: AJUNOK_clean_linker_0, # of connection points: 2
#     Edge 202, Type (0, 0), BuildingBlock: AJUNOK_clean_linker_0, # of connection points: 2
#     Edge 203, Type (0, 0), BuildingBlock: AJUNOK_clean_linker_0, # of connection points: 2
#     Edge 204, Type (0, 0), BuildingBlock: AJUNOK_clean_linker_0, # of connection points: 2
#     Edge 205, Type (0, 0), BuildingBlock: AJUNOK_clean_linker_0, # of connection points: 2
#     Edge 206, Type (0, 0), BuildingBlock: AJUNOK_clean_linker_0, # of connection points: 2
#     Edge 207, Type (0, 0), BuildingBlock: AJUNOK_clean_linker_0, # of connection points: 2
#     Edge 208, Type (0, 0), BuildingBlock: AJUNOK_clean_linker_0, # of connection points: 2
#     Edge 209, Type (0, 0), BuildingBlock: AJUNOK_clean_linker_0, # of connection points: 2
#     Edge 210, Type (0, 0), BuildingBlock: AJUNOK_clean_linker_0, # of connection points: 2
#     Edge 211, Type (0, 0), BuildingBlock: AJUNOK_clean_linker_0, # of connection points: 2
#     Edge 212, Type (0, 0), BuildingBlock: AJUNOK_clean_linker_0, # of connection points: 2
#     Edge 213, Type (0, 0), BuildingBlock: AJUNOK_clean_linker_0, # of connection points: 2
#     Edge 214, Type (0, 0), BuildingBlock: AJUNOK_clean_linker_0, # of connection points: 2
#     Edge 215, Type (0, 0), BuildingBlock: AJUNOK_clean_linker_0, # of connection points: 2
#     Edge 216, Type (0, 0), BuildingBlock: AJUNOK_clean_linker_0, # of connection points: 2
#     Edge 217, Type (0, 0), BuildingBlock: AJUNOK_clean_linker_0, # of connection points: 2
#     Edge 218, Type (0, 0), BuildingBlock: AJUNOK_clean_linker_0, # of connection points: 2
#     Edge 219, Type (0, 0), BuildingBlock: AJUNOK_clean_linker_0, # of connection points: 2
#     Edge 220, Type (0, 0), BuildingBlock: AJUNOK_clean_linker_0, # of connection points: 2
#     Edge 221, Type (0, 0), BuildingBlock: AJUNOK_clean_linker_0, # of connection points: 2
#     Edge 222, Type (0, 0), BuildingBlock: AJUNOK_clean_linker_0, # of connection points: 2
#     Edge 223, Type (0, 0), BuildingBlock: AJUNOK_clean_linker_0, # of connection points: 2
#     Edge 224, Type (0, 0), BuildingBlock: AJUNOK_clean_linker_0, # of connection points: 2
#     Edge 225, Type (0, 0), BuildingBlock: AJUNOK_clean_linker_0, # of connection points: 2
#     Edge 226, Type (0, 0), BuildingBlock: AJUNOK_clean_linker_0, # of connection points: 2
#     Edge 227, Type (0, 0), BuildingBlock: AJUNOK_clean_linker_0, # of connection points: 2
#     Edge 228, Type (0, 0), BuildingBlock: AJUNOK_clean_linker_0, # of connection points: 2
#     Edge 229, Type (0, 0), BuildingBlock: AJUNOK_clean_linker_0, # of connection points: 2
#     Edge 230, Type (0, 0), BuildingBlock: AJUNOK_clean_linker_0, # of connection points: 2
#     Edge 231, Type (0, 0), BuildingBlock: AJUNOK_clean_linker_0, # of connection points: 2
#     Edge 232, Type (0, 0), BuildingBlock: AJUNOK_clean_linker_0, # of connection points: 2
#     Edge 233, Type (0, 0), BuildingBlock: AJUNOK_clean_linker_0, # of connection points: 2
#     Edge 234, Type (0, 0), BuildingBlock: AJUNOK_clean_linker_0, # of connection points: 2
#     Edge 235, Type (0, 0), BuildingBlock: AJUNOK_clean_linker_0, # of connection points: 2
#     Edge 236, Type (0, 0), BuildingBlock: AJUNOK_clean_linker_0, # of connection points: 2
#     Edge 237, Type (0, 0), BuildingBlock: AJUNOK_clean_linker_0, # of connection points: 2
#     Edge 238, Type (0, 0), BuildingBlock: AJUNOK_clean_linker_0, # of connection points: 2
#     Edge 239, Type (0, 0), BuildingBlock: AJUNOK_clean_linker_0, # of connection points: 2
#     Edge 240, Type (0, 0), BuildingBlock: AJUNOK_clean_linker_0, # of connection points: 2
#     Edge 241, Type (0, 0), BuildingBlock: AJUNOK_clean_linker_0, # of connection points: 2
#     Edge 242, Type (0, 0), BuildingBlock: AJUNOK_clean_linker_0, # of connection points: 2
#     Edge 243, Type (0, 0), BuildingBlock: AJUNOK_clean_linker_0, # of connection points: 2
#     Edge 244, Type (0, 0), BuildingBlock: AJUNOK_clean_linker_0, # of connection points: 2
#     Edge 245, Type (0, 0), BuildingBlock: AJUNOK_clean_linker_0, # of connection points: 2
#     Edge 246, Type (0, 0), BuildingBlock: AJUNOK_clean_linker_0, # of connection points: 2
#     Edge 247, Type (0, 0), BuildingBlock: AJUNOK_clean_linker_0, # of connection points: 2
#     Edge 248, Type (0, 0), BuildingBlock: AJUNOK_clean_linker_0, # of connection points: 2
#     Edge 249, Type (0, 0), BuildingBlock: AJUNOK_clean_linker_0, # of connection points: 2
#     Edge 250, Type (0, 0), BuildingBlock: AJUNOK_clean_linker_0, # of connection points: 2
#     Edge 251, Type (0, 0), BuildingBlock: AJUNOK_clean_linker_0, # of connection points: 2
#     Edge 252, Type (0, 0), BuildingBlock: AJUNOK_clean_linker_0, # of connection points: 2
#     Edge 253, Type (0, 0), BuildingBlock: AJUNOK_clean_linker_0, # of connection points: 2
#     Edge 254, Type (0, 0), BuildingBlock: AJUNOK_clean_linker_0, # of connection points: 2
#     Edge 255, Type (0, 0), BuildingBlock: AJUNOK_clean_linker_0, # of connection points: 2
#     Edge 256, Type (0, 0), BuildingBlock: AJUNOK_clean_linker_0, # of connection points: 2
#     Edge 257, Type (0, 0), BuildingBlock: AJUNOK_clean_linker_0, # of connection points: 2
#     Edge 258, Type (0, 0), BuildingBlock: AJUNOK_clean_linker_0, # of connection points: 2
#     Edge 259, Type (0, 0), BuildingBlock: AJUNOK_clean_linker_0, # of connection points: 2
#     Edge 260, Type (0, 0), BuildingBlock: AJUNOK_clean_linker_0, # of connection points: 2
#     Edge 261, Type (0, 0), BuildingBlock: AJUNOK_clean_linker_0, # of connection points: 2
#     Edge 262, Type (0, 0), BuildingBlock: AJUNOK_clean_linker_0, # of connection points: 2
#     Edge 263, Type (0, 0), BuildingBlock: AJUNOK_clean_linker_0, # of connection points: 2
#     Edge 264, Type (0, 0), BuildingBlock: AJUNOK_clean_linker_0, # of connection points: 2
#     Edge 265, Type (0, 0), BuildingBlock: AJUNOK_clean_linker_0, # of connection points: 2
#     Edge 266, Type (0, 0), BuildingBlock: AJUNOK_clean_linker_0, # of connection points: 2
#     Edge 267, Type (0, 0), BuildingBlock: AJUNOK_clean_linker_0, # of connection points: 2
#     Edge 268, Type (0, 0), BuildingBlock: AJUNOK_clean_linker_0, # of connection points: 2
#     Edge 269, Type (0, 0), BuildingBlock: AJUNOK_clean_linker_0, # of connection points: 2
#     Edge 270, Type (0, 0), BuildingBlock: AJUNOK_clean_linker_0, # of connection points: 2
#     Edge 271, Type (0, 0), BuildingBlock: AJUNOK_clean_linker_0, # of connection points: 2
#     Edge 272, Type (0, 0), BuildingBlock: AJUNOK_clean_linker_0, # of connection points: 2
#     Edge 273, Type (0, 0), BuildingBlock: AJUNOK_clean_linker_0, # of connection points: 2
#     Edge 274, Type (0, 0), BuildingBlock: AJUNOK_clean_linker_0, # of connection points: 2
#     Edge 275, Type (0, 0), BuildingBlock: AJUNOK_clean_linker_0, # of connection points: 2
#     Edge 276, Type (0, 0), BuildingBlock: AJUNOK_clean_linker_0, # of connection points: 2
#     Edge 277, Type (0, 0), BuildingBlock: AJUNOK_clean_linker_0, # of connection points: 2
#     Edge 278, Type (0, 0), BuildingBlock: AJUNOK_clean_linker_0, # of connection points: 2
#     Edge 279, Type (0, 0), BuildingBlock: AJUNOK_clean_linker_0, # of connection points: 2
#     Edge 280, Type (0, 0), BuildingBlock: AJUNOK_clean_linker_0, # of connection points: 2
#     Edge 281, Type (0, 0), BuildingBlock: AJUNOK_clean_linker_0, # of connection points: 2
#     Edge 282, Type (0, 0), BuildingBlock: AJUNOK_clean_linker_0, # of connection points: 2
#     Edge 283, Type (0, 0), BuildingBlock: AJUNOK_clean_linker_0, # of connection points: 2
#     Edge 284, Type (0, 0), BuildingBlock: AJUNOK_clean_linker_0, # of connection points: 2
#     Edge 285, Type (0, 0), BuildingBlock: AJUNOK_clean_linker_0, # of connection points: 2
#     Edge 286, Type (0, 0), BuildingBlock: AJUNOK_clean_linker_0, # of connection points: 2
#     Edge 287, Type (0, 0), BuildingBlock: AJUNOK_clean_linker_0, # of connection points: 2
# Relax obj value: 0.530
# Max RMSD: 0.157
# Mean RMSD: 0.157
data_MOF--net-ulg--node1-KUFVIS_clean_sbu_0--edge1-AJUNOK_clean_linker_0
_symmetry_space_group_name_H-M    P1
_symmetry_Int_Tables_number       1
_symmetry_cell_setting            triclinic
loop_
_symmetry_equiv_pos_as_xyz
'x, y, z'
_cell_length_a     69.213916
_cell_length_b     69.293295
_cell_length_c     69.280324
_cell_angle_alpha  90.020847
_cell_angle_beta   90.014717
_cell_angle_gamma 90.011911
loop_
_atom_site_label
_atom_site_type_symbol
_atom_site_fract_x
_atom_site_fract_y
_atom_site_fract_z
_atom_type_partial_charge
Mn0 Mn 0.04573 0.53553 0.15433 0.0
Mn1 Mn 0.06794 0.57451 0.15593 0.0
C2 C 0.02984 0.56284 0.13725 0.0
C3 C 0.027 0.51848 0.17557 0.0
C4 C 0.07839 0.53809 0.12843 0.0
O5 O 0.07186 0.53061 0.17111 0.0
O6 O 0.07054 0.56008 0.17997 0.0
C7 C 0.05381 0.59384 0.19403 0.0
N8 N 0.05516 0.59505 0.171 0.0
C9 C 0.05878 0.63538 0.16396 0.0
C10 C 0.0584 0.63573 0.20241 0.0
C11 C 0.0557 0.61241 0.21024 0.0
C12 C 0.05699 0.6124 0.15674 0.0
H13 H 0.05239 0.57982 0.20062 0.0
C14 C 0.07905 0.54433 0.18121 0.0
O15 O 0.03608 0.50971 0.16164 0.0
O16 O 0.02941 0.53685 0.1774 0.0
N17 N 0.06506 0.58997 0.1346 0.0
C18 C 0.06447 0.58413 0.11634 0.0
C19 C 0.06815 0.59754 0.1023 0.0
C20 C 0.07317 0.61641 0.10767 0.0
C21 C 0.068 0.6227 0.12575 0.0
C22 C 0.06311 0.60853 0.13895 0.0
H23 H 0.0619 0.56918 0.11295 0.0
O24 O 0.02298 0.54549 0.13642 0.0
O25 O 0.04415 0.56309 0.1494 0.0
O26 O 0.06193 0.53019 0.13039 0.0
O27 O 0.0828 0.55316 0.13916 0.0
C28 C 0.06708 0.64227 0.13012 0.0
C29 C 0.06236 0.64867 0.14845 0.0
H30 H 0.06018 0.6473 0.21299 0.0
H31 H 0.05524 0.60939 0.22554 0.0
H32 H 0.06627 0.59246 0.08797 0.0
H33 H 0.07924 0.62681 0.09808 0.0
H34 H 0.0703 0.6529 0.1191 0.0
H35 H 0.06324 0.66389 0.15005 0.0
Mn36 Mn 0.705 0.29539 0.4039 0.0
Mn37 Mn 0.66857 0.32073 0.38654 0.0
C38 C 0.68051 0.2813 0.38266 0.0
C39 C 0.71714 0.27438 0.42663 0.0
C40 C 0.71049 0.32255 0.36953 0.0
O41 O 0.70606 0.31841 0.42402 0.0
O42 O 0.68148 0.33292 0.41012 0.0
C43 C 0.64787 0.31527 0.4245 0.0
N44 N 0.64594 0.31653 0.40193 0.0
C45 C 0.60623 0.32514 0.39594 0.0
C46 C 0.60775 0.3231 0.43471 0.0
C47 C 0.63053 0.31814 0.44117 0.0
C48 C 0.62877 0.32027 0.38806 0.0
H49 H 0.6618 0.31135 0.43022 0.0
C50 C 0.69407 0.33245 0.42356 0.0
O51 O 0.72842 0.28435 0.41548 0.0
O52 O 0.6987 0.2771 0.425 0.0
N53 N 0.65343 0.31292 0.36368 0.0
C54 C 0.66624 0.31535 0.34516 0.0
C55 C 0.66362 0.33094 0.32704 0.0
C56 C 0.64421 0.34534 0.32557 0.0
C57 C 0.62095 0.33828 0.35648 0.0
C58 C 0.63289 0.32078 0.3695 0.0
H59 H 0.67917 0.30673 0.3442 0.0
O60 O 0.69771 0.27401 0.38378 0.0
O61 O 0.67833 0.29619 0.39344 0.0
O62 O 0.71864 0.31255 0.38264 0.0
O63 O 0.69223 0.32444 0.36956 0.0
C64 C 0.60209 0.3427 0.36394 0.0
C65 C 0.59442 0.33434 0.38121 0.0
H66 H 0.59688 0.32431 0.44583 0.0
H67 H 0.63371 0.3156 0.4562 0.0
H68 H 0.67513 0.33212 0.3167 0.0
H69 H 0.64331 0.35628 0.31537 0.0
H70 H 0.59231 0.35201 0.35621 0.0
H71 H 0.57969 0.33816 0.38377 0.0
Mn72 Mn 0.94732 0.95993 0.65023 0.0
Mn73 Mn 0.92244 0.92347 0.6453 0.0
C74 C 0.96273 0.93124 0.63303 0.0
C75 C 0.96614 0.97294 0.6743 0.0
C76 C 0.91535 0.96412 0.62389 0.0
O77 O 0.9204 0.96523 0.66648 0.0
O78 O 0.91817 0.93476 0.67098 0.0
C79 C 0.93624 0.90157 0.68084 0.0
N80 N 0.93317 0.90071 0.65805 0.0
C81 C 0.92722 0.86058 0.65058 0.0
C82 C 0.93099 0.86023 0.68937 0.0
C83 C 0.93511 0.88316 0.69687 0.0
C84 C 0.92969 0.88384 0.64356 0.0
H85 H 0.9394 0.91531 0.68742 0.0
C86 C 0.91106 0.951 0.67403 0.0
O87 O 0.95887 0.98379 0.6608 0.0
O88 O 0.96189 0.95484 0.67409 0.0
N89 N 0.92627 0.91157 0.62121 0.0
C90 C 0.92339 0.92455 0.60213 0.0
C91 C 0.91415 0.91706 0.57955 0.0
C92 C 0.9083 0.89276 0.57514 0.0
C93 C 0.91766 0.87176 0.60856 0.0
C94 C 0.92564 0.88891 0.62562 0.0
H95 H 0.92851 0.93911 0.60243 0.0
O96 O 0.97093 0.94804 0.63321 0.0
O97 O 0.94706 0.93295 0.64294 0.0
O98 O 0.93274 0.96986 0.62596 0.0
O99 O 0.91041 0.94811 0.63216 0.0
C100 C 0.91719 0.85242 0.6159 0.0
C101 C 0.92203 0.84727 0.63516 0.0
H102 H 0.92993 0.84872 0.70012 0.0
H103 H 0.93728 0.88604 0.71205 0.0
H104 H 0.91244 0.92776 0.56839 0.0
H105 H 0.89981 0.8882 0.56325 0.0
H106 H 0.91318 0.84039 0.60686 0.0
H107 H 0.92067 0.83202 0.63762 0.0
Mn108 Mn 0.27565 0.19012 0.91024 0.0
Mn109 Mn 0.31689 0.17225 0.91253 0.0
C110 C 0.30186 0.20922 0.89466 0.0
C111 C 0.25494 0.20593 0.93076 0.0
C112 C 0.28259 0.1585 0.88404 0.0
O113 O 0.2734 0.1634 0.92656 0.0
O114 O 0.30228 0.1683 0.93626 0.0
C115 C 0.33413 0.1886 0.95073 0.0
N116 N 0.33589 0.18694 0.92778 0.0
C117 C 0.37656 0.18725 0.92144 0.0
C118 C 0.3761 0.18859 0.95985 0.0
C119 C 0.3525 0.18905 0.96722 0.0
C120 C 0.35361 0.18648 0.91384 0.0
H121 H 0.3199 0.18854 0.95707 0.0
C122 C 0.28765 0.1579 0.93703 0.0
O123 O 0.24841 0.19607 0.91615 0.0
O124 O 0.27341 0.20592 0.93364 0.0
N125 N 0.33232 0.1766 0.89138 0.0
C126 C 0.32682 0.17745 0.87298 0.0
C127 C 0.34085 0.17527 0.85916 0.0
C128 C 0.3599 0.17118 0.86496 0.0
C129 C 0.36543 0.17613 0.88329 0.0
C130 C 0.35064 0.17959 0.89621 0.0
H131 H 0.31179 0.17901 0.86923 0.0
O132 O 0.28388 0.21423 0.89322 0.0
O133 O 0.30313 0.1948 0.90651 0.0
O134 O 0.2732 0.17412 0.88579 0.0
O135 O 0.29752 0.15537 0.89535 0.0
C136 C 0.3848 0.17896 0.88795 0.0
C137 C 0.39045 0.18464 0.90625 0.0
H138 H 0.38759 0.18818 0.97068 0.0
H139 H 0.34918 0.1895 0.98247 0.0
H140 H 0.33606 0.17729 0.84471 0.0
H141 H 0.3711 0.16636 0.85565 0.0
H142 H 0.39584 0.17687 0.87707 0.0
H143 H 0.4057 0.1854 0.90809 0.0
Mn144 Mn 0.05841 0.46921 0.84518 0.0
Mn145 Mn 0.07304 0.4276 0.83815 0.0
C146 C 0.0383 0.44285 0.86029 0.0
C147 C 0.04027 0.49134 0.82892 0.0
C148 C 0.09063 0.45936 0.86876 0.0
O149 O 0.08501 0.47151 0.8278 0.0
O150 O 0.0771 0.44454 0.81561 0.0
C151 C 0.0537 0.41412 0.79946 0.0
N152 N 0.05611 0.41045 0.82213 0.0
C153 C 0.05589 0.36923 0.82492 0.0
C154 C 0.05362 0.3729 0.78663 0.0
C155 C 0.05289 0.39716 0.78135 0.0
C156 C 0.05674 0.39152 0.83447 0.0
H157 H 0.05406 0.42886 0.79444 0.0
C158 C 0.08944 0.45774 0.81616 0.0
O159 O 0.05238 0.49685 0.84219 0.0
O160 O 0.04131 0.47365 0.82312 0.0
N161 N 0.06873 0.41049 0.8579 0.0
C162 C 0.06934 0.41459 0.87656 0.0
C163 C 0.07223 0.39964 0.88913 0.0
C164 C 0.07537 0.38107 0.88178 0.0
C165 C 0.0679 0.37698 0.86371 0.0
C166 C 0.06418 0.39284 0.85209 0.0
H167 H 0.06868 0.42939 0.88121 0.0
O168 O 0.03479 0.46091 0.86324 0.0
O169 O 0.05178 0.44174 0.84726 0.0
O170 O 0.0754 0.46941 0.86879 0.0
O171 O 0.09203 0.44492 0.85627 0.0
C172 C 0.06361 0.35822 0.85782 0.0
C173 C 0.05791 0.35414 0.83904 0.0
H174 H 0.05381 0.36237 0.77488 0.0
H175 H 0.05214 0.40179 0.76647 0.0
H176 H 0.07174 0.40354 0.90384 0.0
H177 H 0.08133 0.36964 0.89037 0.0
H178 H 0.06514 0.34632 0.86786 0.0
H179 H 0.05612 0.33912 0.83614 0.0
Mn180 Mn 0.7796 0.29966 0.08787 0.0
Mn181 Mn 0.8195 0.32033 0.08473 0.0
C182 C 0.80705 0.28266 0.10375 0.0
C183 C 0.76118 0.28135 0.067 0.0
C184 C 0.78469 0.33187 0.11393 0.0
O185 O 0.77501 0.32608 0.07155 0.0
O186 O 0.80405 0.32357 0.06152 0.0
C187 C 0.83604 0.30585 0.04525 0.0
N188 N 0.83854 0.30681 0.06857 0.0
C189 C 0.88052 0.30727 0.07358 0.0
C190 C 0.87903 0.30738 0.03436 0.0
C191 C 0.85449 0.30651 0.02803 0.0
C192 C 0.85707 0.30714 0.08213 0.0
H193 H 0.82167 0.3054 0.03925 0.0
C194 C 0.78866 0.33275 0.061 0.0
O195 O 0.75315 0.29053 0.08132 0.0
O196 O 0.77949 0.28367 0.06459 0.0
N197 N 0.83611 0.31677 0.10513 0.0
C198 C 0.83104 0.31638 0.12358 0.0
C199 C 0.8452 0.31901 0.13708 0.0
C200 C 0.86419 0.32274 0.13103 0.0
C201 C 0.8694 0.31729 0.11265 0.0
C202 C 0.85437 0.31355 0.10001 0.0
H203 H 0.81613 0.31443 0.12755 0.0
O204 O 0.78949 0.27642 0.10515 0.0
O205 O 0.80735 0.29705 0.09174 0.0
O206 O 0.77591 0.31584 0.11211 0.0
O207 O 0.79952 0.33574 0.10265 0.0
C208 C 0.88868 0.3148 0.10759 0.0
C209 C 0.89429 0.30961 0.08908 0.0
H210 H 0.8835 0.3077 0.04254 0.0
H211 H 0.85065 0.30622 0.01291 0.0
H212 H 0.84053 0.31714 0.15151 0.0
H213 H 0.87532 0.32792 0.14037 0.0
H214 H 0.89986 0.31709 0.11832 0.0
H215 H 0.90956 0.3093 0.0875 0.0
Mn216 Mn 0.93642 0.02493 0.34009 0.0
Mn217 Mn 0.9171 0.06535 0.33532 0.0
C218 C 0.95476 0.05272 0.35365 0.0
C219 C 0.95507 0.0039 0.32284 0.0
C220 C 0.90503 0.03268 0.3663 0.0
O221 O 0.90958 0.02057 0.32403 0.0
O222 O 0.91309 0.04908 0.31275 0.0
C223 C 0.93107 0.0806 0.29557 0.0
N224 N 0.93091 0.08363 0.31846 0.0
C225 C 0.93101 0.12454 0.32247 0.0
C226 C 0.92959 0.12187 0.28414 0.0
C227 C 0.92996 0.09795 0.27808 0.0
C228 C 0.93109 0.10211 0.3314 0.0
H229 H 0.93127 0.06607 0.29003 0.0
C230 C 0.90322 0.03408 0.31301 0.0
O231 O 0.94427 -0.00217 0.33695 0.0
O232 O 0.95269 0.02149 0.31711 0.0
N233 N 0.92137 0.08228 0.35529 0.0
C234 C 0.92237 0.07797 0.37398 0.0
C235 C 0.92037 0.09278 0.38695 0.0
C236 C 0.91629 0.11143 0.38012 0.0
C237 C 0.92117 0.11579 0.36145 0.0
C238 C 0.9245 0.10023 0.34935 0.0
H239 H 0.92424 0.06325 0.37863 0.0
O240 O 0.96021 0.03509 0.35639 0.0
O241 O 0.9403 0.05279 0.34171 0.0
O242 O 0.92084 0.02363 0.36486 0.0
O243 O 0.90122 0.04668 0.35408 0.0
C244 C 0.92422 0.13479 0.3557 0.0
C245 C 0.92945 0.13928 0.33697 0.0
H246 H 0.92808 0.13269 0.27274 0.0
H247 H 0.92944 0.09376 0.26305 0.0
H248 H 0.9227 0.0889 0.4016 0.0
H249 H 0.91158 0.12312 0.38892 0.0
H250 H 0.92262 0.14646 0.366 0.0
H251 H 0.93076 0.15434 0.33435 0.0
Mn252 Mn 0.21373 0.18903 0.59143 0.0
Mn253 Mn 0.17336 0.16858 0.58779 0.0
C254 C 0.18594 0.20603 0.60672 0.0
C255 C 0.23415 0.20843 0.57364 0.0
C256 C 0.2078 0.15617 0.61669 0.0
O257 O 0.21802 0.16304 0.57427 0.0
O258 O 0.1887 0.16547 0.56441 0.0
C259 C 0.15597 0.18391 0.54924 0.0
N260 N 0.15389 0.18226 0.57216 0.0
C261 C 0.11313 0.18079 0.57779 0.0
C262 C 0.11419 0.1819 0.53939 0.0
C263 C 0.13789 0.1834 0.53241 0.0
C264 C 0.13596 0.18107 0.5858 0.0
H265 H 0.17029 0.18456 0.54315 0.0
C266 C 0.2042 0.15636 0.56381 0.0
O267 O 0.24073 0.19761 0.58748 0.0
O268 O 0.21617 0.20639 0.56901 0.0
N269 N 0.15725 0.172 0.60864 0.0
C270 C 0.16241 0.17299 0.62715 0.0
C271 C 0.14829 0.1703 0.64076 0.0
C272 C 0.12944 0.16568 0.63471 0.0
C273 C 0.12403 0.17043 0.61625 0.0
C274 C 0.1389 0.17435 0.60353 0.0
H275 H 0.17732 0.17513 0.63111 0.0
O276 O 0.20354 0.21175 0.60904 0.0
O277 O 0.18572 0.19201 0.59424 0.0
O278 O 0.21637 0.17228 0.61537 0.0
O279 O 0.19317 0.1525 0.60517 0.0
C280 C 0.10464 0.1727 0.61128 0.0
C281 C 0.09908 0.17802 0.59282 0.0
H282 H 0.10292 0.18095 0.52837 0.0
H283 H 0.14145 0.18391 0.51723 0.0
H284 H 0.15282 0.17243 0.65526 0.0
H285 H 0.11834 0.16048 0.64397 0.0
H286 H 0.09351 0.1705 0.62205 0.0
H287 H 0.08381 0.17869 0.59083 0.0
Mn288 Mn 0.15009 0.04655 0.53205 0.0
Mn289 Mn 0.15401 0.06667 0.57151 0.0
C290 C 0.13427 0.02938 0.55955 0.0
C291 C 0.1719 0.02903 0.51444 0.0
C292 C 0.12395 0.07822 0.53729 0.0
O293 O 0.16618 0.07319 0.52699 0.0
O294 O 0.1769 0.06953 0.55538 0.0
C295 C 0.19346 0.05278 0.58736 0.0
N296 N 0.17051 0.0528 0.59022 0.0
C297 C 0.1663 0.05409 0.63114 0.0
C298 C 0.20467 0.05589 0.62859 0.0
C299 C 0.21085 0.05474 0.60475 0.0
C300 C 0.15744 0.05305 0.60864 0.0
H301 H 0.19921 0.05216 0.57292 0.0
C302 C 0.17716 0.07942 0.54046 0.0
O303 O 0.15734 0.03738 0.5059 0.0
O304 O 0.17369 0.03123 0.53278 0.0
N305 N 0.13397 0.06339 0.58849 0.0
C306 C 0.11536 0.06348 0.58397 0.0
C307 C 0.1024 0.06636 0.59855 0.0
C308 C 0.10918 0.07005 0.61727 0.0
C309 C 0.12747 0.06391 0.62192 0.0
C310 C 0.13953 0.05974 0.60649 0.0
H311 H 0.11084 0.06164 0.56921 0.0
O312 O 0.13291 0.02303 0.54205 0.0
O313 O 0.14615 0.0438 0.55963 0.0
O314 O 0.12564 0.06232 0.52827 0.0
O315 O 0.13563 0.08206 0.55187 0.0
C316 C 0.13302 0.06115 0.64103 0.0
C317 C 0.1517 0.05586 0.64578 0.0
H318 H 0.21602 0.05782 0.6394 0.0
H319 H 0.2259 0.05526 0.60063 0.0
H320 H 0.08776 0.06463 0.59441 0.0
H321 H 0.1005 0.07567 0.62867 0.0
H322 H 0.12269 0.06332 0.65259 0.0
H323 H 0.15424 0.05466 0.66089 0.0
Mn324 Mn 0.19974 0.39965 0.78058 0.0
Mn325 Mn 0.17704 0.38543 0.81867 0.0
C326 C 0.21523 0.37717 0.80372 0.0
C327 C 0.22034 0.4236 0.77033 0.0
C328 C 0.16984 0.36775 0.77678 0.0
O329 O 0.17637 0.4198 0.78036 0.0
O330 O 0.16384 0.40829 0.80703 0.0
C331 C 0.19343 0.42345 0.83662 0.0
N332 N 0.18698 0.40161 0.83945 0.0
C333 C 0.18269 0.39761 0.87988 0.0
C334 C 0.19281 0.43517 0.87801 0.0
C335 C 0.19638 0.44066 0.85412 0.0
C336 C 0.18277 0.3891 0.85731 0.0
H337 H 0.19516 0.42848 0.82195 0.0
C338 C 0.16334 0.42058 0.79347 0.0
O339 O 0.21103 0.41295 0.75795 0.0
O340 O 0.2173 0.4205 0.78838 0.0
N341 N 0.18374 0.36265 0.83374 0.0
C342 C 0.17761 0.34389 0.82269 0.0
C343 C 0.16046 0.32792 0.82844 0.0
C344 C 0.14735 0.33018 0.84869 0.0
C345 C 0.16058 0.36148 0.86841 0.0
C346 C 0.17854 0.37095 0.85416 0.0
H347 H 0.18387 0.34137 0.80868 0.0
O348 O 0.22175 0.37909 0.78635 0.0
O349 O 0.2007 0.38834 0.80644 0.0
O350 O 0.18164 0.37862 0.7676 0.0
O351 O 0.16896 0.36913 0.79536 0.0
C352 C 0.15934 0.37033 0.88682 0.0
C353 C 0.17231 0.38499 0.89303 0.0
H354 H 0.19332 0.44663 0.88885 0.0
H355 H 0.20007 0.45526 0.85004 0.0
H356 H 0.15778 0.31635 0.81845 0.0
H357 H 0.13524 0.32075 0.85095 0.0
H358 H 0.14934 0.36507 0.89717 0.0
H359 H 0.17129 0.3879 0.90806 0.0
Mn360 Mn 0.84298 0.44257 0.02966 0.0
Mn361 Mn 0.83962 0.42217 0.06899 0.0
C362 C 0.85842 0.45972 0.05737 0.0
C363 C 0.82111 0.4602 0.01198 0.0
C364 C 0.86959 0.41098 0.03492 0.0
O365 O 0.82682 0.41593 0.02483 0.0
O366 O 0.81648 0.41852 0.05371 0.0
C367 C 0.80057 0.43857 0.0839 0.0
N368 N 0.82339 0.43645 0.08732 0.0
C369 C 0.82651 0.43328 0.12824 0.0
C370 C 0.7884 0.43506 0.12512 0.0
C371 C 0.78269 0.43762 0.10108 0.0
C372 C 0.83594 0.43443 0.10599 0.0
H373 H 0.79533 0.43988 0.06929 0.0
C374 C 0.81601 0.40934 0.03833 0.0
O375 O 0.8357 0.45185 0.00349 0.0
O376 O 0.81931 0.45778 0.03028 0.0
N377 N 0.85971 0.42544 0.08576 0.0
C378 C 0.87837 0.42603 0.08144 0.0
C379 C 0.89124 0.42317 0.09614 0.0
C380 C 0.88427 0.4183 0.1146 0.0
C381 C 0.86561 0.42311 0.11918 0.0
C382 C 0.85374 0.42759 0.10384 0.0
H383 H 0.88302 0.42843 0.06678 0.0
O384 O 0.8599 0.46622 0.03993 0.0
O385 O 0.84686 0.44508 0.05712 0.0
O386 O 0.86762 0.42688 0.02592 0.0
O387 O 0.8579 0.40686 0.04936 0.0
C388 C 0.85954 0.42461 0.13826 0.0
C389 C 0.84073 0.42962 0.14292 0.0
H390 H 0.77676 0.43368 0.1357 0.0
H391 H 0.76771 0.4385 0.09673 0.0
H392 H 0.90591 0.42539 0.09221 0.0
H393 H 0.89289 0.41282 0.12606 0.0
H394 H 0.86964 0.42184 0.14987 0.0
H395 H 0.83784 0.42917 0.15795 0.0
Mn396 Mn 0.79406 0.08971 0.28068 0.0
Mn397 Mn 0.81505 0.08664 0.32011 0.0
C398 C 0.778 0.10684 0.30802 0.0
C399 C 0.7758 0.06871 0.2627 0.0
C400 C 0.82728 0.11455 0.28462 0.0
O401 O 0.81993 0.07233 0.27608 0.0
O402 O 0.81687 0.06289 0.3051 0.0
C403 C 0.79916 0.04875 0.33808 0.0
N404 N 0.80113 0.07168 0.33994 0.0
C405 C 0.80417 0.07757 0.38051 0.0
C406 C 0.80263 0.03916 0.37975 0.0
C407 C 0.80017 0.03204 0.35621 0.0
C408 C 0.80306 0.08544 0.3577 0.0
H409 H 0.79783 0.04251 0.32388 0.0
C410 C 0.82621 0.06172 0.28984 0.0
O411 O 0.78512 0.08281 0.25444 0.0
O412 O 0.77728 0.06693 0.28117 0.0
N413 N 0.81275 0.1077 0.33606 0.0
C414 C 0.81309 0.12609 0.3307 0.0
C415 C 0.81701 0.13965 0.34456 0.0
C416 C 0.82133 0.13363 0.36341 0.0
C417 C 0.81521 0.11564 0.36909 0.0
C418 C 0.81009 0.10302 0.35445 0.0
H419 H 0.81096 0.12996 0.31579 0.0
O420 O 0.7715 0.10808 0.29054 0.0
O421 O 0.79193 0.09433 0.30828 0.0
O422 O 0.81099 0.11329 0.27624 0.0
O423 O 0.83098 0.10332 0.2995 0.0
C424 C 0.81356 0.11087 0.3885 0.0
C425 C 0.80799 0.09259 0.3943 0.0
H426 H 0.80382 0.02822 0.39105 0.0
H427 H 0.79928 0.01685 0.35277 0.0
H428 H 0.81574 0.15416 0.33988 0.0
H429 H 0.82748 0.14273 0.3742 0.0
H430 H 0.81691 0.12149 0.39948 0.0
H431 H 0.80845 0.09057 0.40946 0.0
Mn432 Mn 0.1541 0.94334 0.46149 0.0
Mn433 Mn 0.15672 0.92158 0.42284 0.0
C434 C 0.13921 0.96018 0.43343 0.0
C435 C 0.17606 0.96137 0.47844 0.0
C436 C 0.12674 0.91223 0.45743 0.0
O437 O 0.16934 0.91649 0.46728 0.0
O438 O 0.17989 0.91843 0.43853 0.0
C439 C 0.19607 0.93535 0.40607 0.0
N440 N 0.17312 0.93435 0.40347 0.0
C441 C 0.16836 0.93191 0.36276 0.0
C442 C 0.20681 0.93179 0.3647 0.0
C443 C 0.21329 0.93373 0.38846 0.0
C444 C 0.15984 0.9331 0.3853 0.0
H445 H 0.20187 0.9365 0.42046 0.0
C446 C 0.18012 0.90946 0.45404 0.0
O447 O 0.16144 0.95338 0.48722 0.0
O448 O 0.17822 0.95794 0.46034 0.0
N449 N 0.13635 0.92489 0.40622 0.0
C450 C 0.11777 0.92645 0.4109 0.0
C451 C 0.10444 0.92357 0.39656 0.0
C452 C 0.11085 0.91817 0.37806 0.0
C453 C 0.12949 0.92247 0.37297 0.0
C454 C 0.14193 0.92671 0.38799 0.0
H455 H 0.11349 0.9293 0.42559 0.0
O456 O 0.13797 0.96716 0.45069 0.0
O457 O 0.15027 0.94516 0.43393 0.0
O458 O 0.12898 0.92847 0.46576 0.0
O459 O 0.13832 0.90738 0.44315 0.0
C460 C 0.13495 0.92396 0.3537 0.0
C461 C 0.15361 0.92882 0.34848 0.0
H462 H 0.21804 0.92993 0.35376 0.0
H463 H 0.22842 0.93387 0.39237 0.0
H464 H 0.08989 0.92624 0.40065 0.0
H465 H 0.10182 0.91278 0.36688 0.0
H466 H 0.12446 0.92135 0.34238 0.0
H467 H 0.15606 0.9285 0.33335 0.0
Mn468 Mn 0.30008 0.40334 0.7104 0.0
Mn469 Mn 0.32011 0.41027 0.67028 0.0
C470 C 0.28083 0.39052 0.68299 0.0
C471 C 0.28523 0.42366 0.73189 0.0
C472 C 0.33019 0.37584 0.70058 0.0
O473 O 0.32719 0.41706 0.71645 0.0
O474 O 0.32491 0.43085 0.68908 0.0
C475 C 0.31156 0.45297 0.6578 0.0
N476 N 0.3083 0.43055 0.65326 0.0
C477 C 0.31065 0.42931 0.61217 0.0
C478 C 0.31847 0.46632 0.61738 0.0
C479 C 0.31712 0.47104 0.64175 0.0
C480 C 0.30713 0.41926 0.63385 0.0
H481 H 0.31151 0.45755 0.67268 0.0
C482 C 0.33413 0.42899 0.7044 0.0
O483 O 0.29327 0.40771 0.73778 0.0
O484 O 0.28586 0.4275 0.71369 0.0
N485 N 0.31513 0.39281 0.6512 0.0
C486 C 0.31184 0.37431 0.65448 0.0
C487 C 0.30474 0.36368 0.63958 0.0
C488 C 0.3051 0.37042 0.62066 0.0
C489 C 0.30834 0.38934 0.61786 0.0
C490 C 0.31044 0.40057 0.63424 0.0
H491 H 0.3121 0.36849 0.66882 0.0
O492 O 0.27551 0.38876 0.70078 0.0
O493 O 0.29599 0.40205 0.68213 0.0
O494 O 0.31491 0.37811 0.71056 0.0
O495 O 0.33451 0.38818 0.68666 0.0
C496 C 0.30758 0.39677 0.59951 0.0
C497 C 0.30828 0.41617 0.59646 0.0
H498 H 0.3217 0.47806 0.60737 0.0
H499 H 0.3196 0.48553 0.64698 0.0
H500 H 0.3005 0.35002 0.6431 0.0
H501 H 0.30195 0.36183 0.60818 0.0
H502 H 0.30674 0.38718 0.58734 0.0
H503 H 0.30608 0.4201 0.58194 0.0
Mn504 Mn 0.83311 0.55201 0.96471 0.0
Mn505 Mn 0.84061 0.57699 0.92641 0.0
C506 C 0.85211 0.53695 0.93838 0.0
C507 C 0.81262 0.52991 0.97863 0.0
C508 C 0.8652 0.58264 0.96361 0.0
O509 O 0.81193 0.57428 0.96817 0.0
O510 O 0.82065 0.59007 0.9421 0.0
C511 C 0.80133 0.58105 0.90933 0.0
N512 N 0.82164 0.57125 0.90709 0.0
C513 C 0.82517 0.56671 0.86667 0.0
C514 C 0.79108 0.58381 0.86912 0.0
C515 C 0.78598 0.58787 0.89219 0.0
C516 C 0.8334 0.56449 0.88931 0.0
H517 H 0.79539 0.58168 0.92323 0.0
C518 C 0.80977 0.58859 0.95663 0.0
O519 O 0.82456 0.53988 0.98917 0.0
O520 O 0.81208 0.53351 0.96042 0.0
N521 N 0.85867 0.56648 0.90964 0.0
C522 C 0.8774 0.56528 0.91367 0.0
C523 C 0.8901 0.56789 0.89894 0.0
C524 C 0.88295 0.57178 0.8803 0.0
C525 C 0.86444 0.56677 0.87591 0.0
C526 C 0.85226 0.56456 0.89154 0.0
H527 H 0.88221 0.56365 0.92841 0.0
O528 O 0.85319 0.53107 0.95603 0.0
O529 O 0.83967 0.55134 0.93706 0.0
O530 O 0.85595 0.57055 0.97419 0.0
O531 O 0.86047 0.58458 0.94605 0.0
C532 C 0.85839 0.56398 0.85679 0.0
C533 C 0.83899 0.56191 0.85234 0.0
H534 H 0.78064 0.58741 0.85863 0.0
H535 H 0.77219 0.59403 0.89615 0.0
H536 H 0.90474 0.56593 0.90312 0.0
H537 H 0.891 0.57724 0.8685 0.0
H538 H 0.86885 0.5635 0.84515 0.0
H539 H 0.83543 0.55861 0.83779 0.0
Mn540 Mn 0.69379 0.09266 0.20792 0.0
Mn541 Mn 0.67145 0.10087 0.16921 0.0
C542 C 0.7118 0.11071 0.18355 0.0
C543 C 0.71041 0.06842 0.22322 0.0
C544 C 0.6636 0.12212 0.2068 0.0
O545 O 0.66714 0.07672 0.20977 0.0
O546 O 0.66407 0.07496 0.17847 0.0
C547 C 0.69169 0.06871 0.14472 0.0
N548 N 0.6813 0.08901 0.14681 0.0
C549 C 0.67221 0.1003 0.10889 0.0
C550 C 0.69 0.06605 0.10192 0.0
C551 C 0.69652 0.0566 0.12381 0.0
C552 C 0.67186 0.10344 0.13265 0.0
H553 H 0.69588 0.06148 0.1579 0.0
C554 C 0.65843 0.06974 0.19495 0.0
O555 O 0.70185 0.08196 0.23308 0.0
O556 O 0.7085 0.06867 0.2047 0.0
N557 N 0.67663 0.12529 0.15809 0.0
C558 C 0.6832 0.1448 0.16753 0.0
C559 C 0.67734 0.16738 0.16057 0.0
C560 C 0.66228 0.17109 0.14179 0.0
C561 C 0.6523 0.13599 0.12712 0.0
C562 C 0.66446 0.11956 0.14054 0.0
H563 H 0.68949 0.14383 0.18165 0.0
O564 O 0.71824 0.10918 0.201 0.0
O565 O 0.69617 0.10047 0.18129 0.0
O566 O 0.67925 0.11748 0.21526 0.0
O567 O 0.65822 0.11387 0.19124 0.0
C568 C 0.64812 0.12813 0.10825 0.0
C569 C 0.66033 0.11419 0.099 0.0
H570 H 0.6924 0.0577 0.08874 0.0
H571 H 0.70351 0.04266 0.12441 0.0
H572 H 0.68242 0.17955 0.16878 0.0
H573 H 0.65775 0.18427 0.1378 0.0
H574 H 0.63737 0.13487 0.09927 0.0
H575 H 0.65945 0.11363 0.08379 0.0
Mn576 Mn 0.53302 0.16362 0.04853 0.0
Mn577 Mn 0.57053 0.1621 0.07292 0.0
C578 C 0.55973 0.14586 0.0319 0.0
C579 C 0.51779 0.18592 0.0293 0.0
C580 C 0.53146 0.13757 0.08196 0.0
O581 O 0.52924 0.18095 0.07422 0.0
O582 O 0.55931 0.18794 0.07319 0.0
C583 C 0.59978 0.19649 0.06608 0.0
N584 N 0.59523 0.174 0.06433 0.0
C585 C 0.63299 0.15739 0.06233 0.0
C586 C 0.64271 0.1943 0.06572 0.0
C587 C 0.62185 0.20749 0.06715 0.0
C588 C 0.60852 0.15614 0.06293 0.0
H589 H 0.5878 0.20629 0.06774 0.0
C590 C 0.54338 0.19067 0.08118 0.0
O591 O 0.50795 0.17265 0.03826 0.0
O592 O 0.53612 0.18672 0.03243 0.0
N593 N 0.58133 0.13836 0.06976 0.0
C594 C 0.57056 0.12262 0.06548 0.0
C595 C 0.57925 0.10607 0.0604 0.0
C596 C 0.5987 0.1065 0.0589 0.0
C597 C 0.61022 0.12251 0.06265 0.0
C598 C 0.60024 0.13894 0.06595 0.0
H599 H 0.55553 0.12288 0.06335 0.0
O600 O 0.54213 0.14584 0.02559 0.0
O601 O 0.56079 0.15746 0.04699 0.0
O602 O 0.52509 0.13936 0.06474 0.0
O603 O 0.54621 0.14844 0.0867 0.0
C604 C 0.6304 0.12272 0.06153 0.0
C605 C 0.64183 0.13912 0.06082 0.0
H606 H 0.65667 0.20171 0.06544 0.0
H607 H 0.62266 0.22301 0.06858 0.0
H608 H 0.57088 0.09345 0.05632 0.0
H609 H 0.60272 0.09465 0.05153 0.0
H610 H 0.63798 0.10993 0.06332 0.0
H611 H 0.65726 0.13677 0.06012 0.0
Mn612 Mn 0.03036 0.84459 0.44403 0.0
Mn613 Mn 0.06993 0.83969 0.42395 0.0
C614 C 0.05815 0.86007 0.46104 0.0
C615 C 0.0118 0.82348 0.46184 0.0
C616 C 0.03631 0.86991 0.41166 0.0
O617 O 0.02537 0.8281 0.41766 0.0
O618 O 0.05372 0.81681 0.42113 0.0
C619 C 0.08527 0.80053 0.43987 0.0
N620 N 0.08846 0.82333 0.43816 0.0
C621 C 0.12941 0.82701 0.43691 0.0
C622 C 0.12655 0.7887 0.43801 0.0
C623 C 0.10253 0.78285 0.43942 0.0
C624 C 0.10701 0.8361 0.43713 0.0
H625 H 0.07069 0.79511 0.44065 0.0
C626 C 0.03855 0.81667 0.41155 0.0
O627 O 0.00382 0.8381 0.45307 0.0
O628 O 0.03015 0.82133 0.4599 0.0
N629 N 0.08699 0.85971 0.42701 0.0
C630 C 0.08264 0.87837 0.42682 0.0
C631 C 0.09737 0.89119 0.42397 0.0
C632 C 0.11605 0.88421 0.42033 0.0
C633 C 0.1205 0.86583 0.42621 0.0
C634 C 0.10499 0.85394 0.43034 0.0
H635 H 0.0679 0.88307 0.42849 0.0
O636 O 0.04062 0.86193 0.46726 0.0
O637 O 0.05806 0.84792 0.4468 0.0
O638 O 0.02732 0.86879 0.42765 0.0
O639 O 0.05062 0.85788 0.40805 0.0
C640 C 0.13958 0.85999 0.42866 0.0
C641 C 0.14416 0.84134 0.43414 0.0
H642 H 0.13731 0.77718 0.43724 0.0
H643 H 0.09824 0.76785 0.44004 0.0
H644 H 0.09338 0.9059 0.42547 0.0
H645 H 0.12758 0.89273 0.41485 0.0
H646 H 0.15126 0.8701 0.42615 0.0
H647 H 0.15924 0.83858 0.4347 0.0
Mn648 Mn 0.38996 0.27226 0.68447 0.0
Mn649 Mn 0.3935 0.31022 0.66061 0.0
C650 C 0.37278 0.30088 0.69728 0.0
C651 C 0.40627 0.25524 0.70727 0.0
C652 C 0.36708 0.2749 0.64922 0.0
O653 O 0.41024 0.26638 0.66132 0.0
O654 O 0.4179 0.29667 0.66075 0.0
C655 C 0.42708 0.32716 0.68579 0.0
N656 N 0.40664 0.33047 0.67552 0.0
C657 C 0.40271 0.37144 0.67518 0.0
C658 C 0.43763 0.36839 0.69206 0.0
C659 C 0.44297 0.3443 0.69392 0.0
C660 C 0.39491 0.34878 0.67028 0.0
H661 H 0.43199 0.31251 0.68777 0.0
C662 C 0.42096 0.28001 0.65468 0.0
O663 O 0.39401 0.24663 0.69592 0.0
O664 O 0.41064 0.273 0.70366 0.0
N665 N 0.37124 0.32489 0.65968 0.0
C666 C 0.352 0.31705 0.65034 0.0
C667 C 0.33631 0.34476 0.63015 0.0
C668 C 0.3512 0.36546 0.6319 0.0
C669 C 0.37081 0.36476 0.64641 0.0
C670 C 0.37945 0.34578 0.65879 0.0
H671 H 0.3467 0.30334 0.65467 0.0
O672 O 0.37011 0.28403 0.70479 0.0
O673 O 0.38569 0.29961 0.68392 0.0
O674 O 0.36784 0.26747 0.66594 0.0
O675 O 0.37887 0.28893 0.64453 0.0
C676 C 0.37747 0.38281 0.65222 0.0
C677 C 0.391 0.38636 0.6668 0.0
H678 H 0.44836 0.37911 0.69645 0.0
H679 H 0.45658 0.33989 0.70018 0.0
H680 H 0.34161 0.35751 0.62825 0.0
H681 H 0.35008 0.38145 0.62519 0.0
H682 H 0.37043 0.39508 0.64611 0.0
H683 H 0.39305 0.40146 0.66978 0.0
Mn684 Mn 0.95583 0.65507 0.94364 0.0
Mn685 Mn 0.91655 0.65514 0.92042 0.0
C686 C 0.92875 0.63937 0.96032 0.0
C687 C 0.97344 0.67649 0.96171 0.0
C688 C 0.95344 0.62687 0.91245 0.0
O689 O 0.96064 0.67074 0.91726 0.0
O690 O 0.93044 0.67891 0.91591 0.0
C691 C 0.89306 0.69351 0.92502 0.0
N692 N 0.89439 0.67105 0.92986 0.0
C693 C 0.85445 0.66031 0.9325 0.0
C694 C 0.85037 0.69701 0.92343 0.0
C695 C 0.87281 0.70702 0.92126 0.0
C696 C 0.87851 0.65561 0.93339 0.0
H697 H 0.90627 0.70148 0.92329 0.0
C698 C 0.94704 0.68019 0.909 0.0
O699 O 0.98184 0.66214 0.95294 0.0
O700 O 0.95516 0.67889 0.95897 0.0
N701 N 0.90206 0.63388 0.92582 0.0
C702 C 0.90887 0.61593 0.92726 0.0
C703 C 0.89582 0.6013 0.92609 0.0
C704 C 0.87671 0.60638 0.92191 0.0
C705 C 0.87001 0.62338 0.92886 0.0
C706 C 0.8836 0.63756 0.93021 0.0
H707 H 0.92399 0.61299 0.92908 0.0
O708 O 0.94619 0.63873 0.96699 0.0
O709 O 0.92785 0.65112 0.94547 0.0
O710 O 0.96119 0.62979 0.92882 0.0
O711 O 0.93864 0.63764 0.90749 0.0
C712 C 0.85065 0.626 0.93367 0.0
C713 C 0.8425 0.64391 0.93557 0.0
H714 H 0.83771 0.7064 0.92276 0.0
H715 H 0.87418 0.72221 0.91798 0.0
H716 H 0.90143 0.58711 0.92803 0.0
H717 H 0.8661 0.59769 0.91545 0.0
H718 H 0.84141 0.61393 0.93493 0.0
H719 H 0.827 0.64407 0.93733 0.0
Mn720 Mn 0.09679 0.71793 0.18539 0.0
Mn721 Mn 0.09047 0.67695 0.16783 0.0
C722 C 0.11109 0.6906 0.20404 0.0
C723 C 0.08 0.73938 0.20397 0.0
C724 C 0.12185 0.70875 0.15364 0.0
O725 O 0.07989 0.72182 0.15899 0.0
O726 O 0.06825 0.69384 0.16424 0.0
C727 C 0.0507 0.66322 0.18337 0.0
N728 N 0.0735 0.65954 0.18281 0.0
C729 C 0.07628 0.61848 0.18371 0.0
C730 C 0.03802 0.62225 0.18308 0.0
C731 C 0.03268 0.64636 0.18306 0.0
C732 C 0.08591 0.64068 0.18319 0.0
H733 H 0.04551 0.67788 0.18311 0.0
C734 C 0.06851 0.70823 0.15352 0.0
O735 O 0.09389 0.74527 0.19276 0.0
O736 O 0.07435 0.72171 0.20218 0.0
N737 N 0.10999 0.65947 0.1719 0.0
C738 C 0.12874 0.66337 0.17157 0.0
C739 C 0.14129 0.64823 0.16982 0.0
C740 C 0.13401 0.62952 0.16731 0.0
C741 C 0.11547 0.62585 0.17338 0.0
C742 C 0.10385 0.64187 0.17641 0.0
H743 H 0.13374 0.67805 0.17254 0.0
O744 O 0.11407 0.70837 0.2088 0.0
O745 O 0.09845 0.69012 0.19019 0.0
O746 O 0.12093 0.71858 0.16899 0.0
O747 O 0.10936 0.69467 0.1508 0.0
C748 C 0.10926 0.60714 0.17726 0.0
C749 C 0.09039 0.60331 0.18264 0.0
H750 H 0.02625 0.61174 0.18247 0.0
H751 H 0.01776 0.65098 0.18286 0.0
H752 H 0.15604 0.65202 0.17137 0.0
H753 H 0.14249 0.61753 0.16264 0.0
H754 H 0.11927 0.59518 0.17605 0.0
H755 H 0.0874 0.58839 0.18476 0.0
Mn756 Mn 0.46816 0.83856 0.04955 0.0
Mn757 Mn 0.42832 0.85241 0.07108 0.0
C758 C 0.44373 0.85657 0.03212 0.0
C759 C 0.48183 0.81374 0.03188 0.0
C760 C 0.46807 0.87654 0.07193 0.0
O761 O 0.46943 0.82164 0.07579 0.0
O762 O 0.44054 0.83053 0.08537 0.0
C763 C 0.41143 0.81247 0.05833 0.0
N764 N 0.40784 0.83474 0.0624 0.0
C765 C 0.36693 0.83803 0.06384 0.0
C766 C 0.37035 0.79969 0.05746 0.0
C767 C 0.39453 0.7946 0.05598 0.0
C768 C 0.3894 0.84713 0.06436 0.0
H769 H 0.42628 0.80774 0.05758 0.0
C770 C 0.45503 0.81948 0.08741 0.0
O771 O 0.49254 0.8268 0.04007 0.0
O772 O 0.46346 0.81452 0.03503 0.0
N773 N 0.41245 0.87376 0.06239 0.0
C774 C 0.42292 0.89288 0.06747 0.0
C775 C 0.41679 0.90943 0.08365 0.0
C776 C 0.39529 0.90855 0.0954 0.0
C777 C 0.37674 0.87647 0.08328 0.0
C778 C 0.39198 0.86574 0.06718 0.0
H779 H 0.43586 0.89566 0.05963 0.0
O780 O 0.46092 0.85472 0.02509 0.0
O781 O 0.44148 0.8472 0.04791 0.0
O782 O 0.4781 0.86444 0.06216 0.0
O783 O 0.45075 0.87165 0.07769 0.0
C784 C 0.35807 0.86755 0.08368 0.0
C785 C 0.35288 0.85123 0.07214 0.0
H786 H 0.35985 0.7879 0.05743 0.0
H787 H 0.39917 0.77985 0.05387 0.0
H788 H 0.42736 0.92012 0.08648 0.0
H789 H 0.39052 0.92032 0.10461 0.0
H790 H 0.34676 0.87363 0.09213 0.0
H791 H 0.33778 0.84785 0.07251 0.0
Mn792 Mn 0.39191 0.21834 0.80661 0.0
Mn793 Mn 0.39941 0.17824 0.82571 0.0
C794 C 0.37788 0.19009 0.78925 0.0
C795 C 0.40721 0.23996 0.7873 0.0
C796 C 0.36827 0.21022 0.83983 0.0
O797 O 0.40951 0.22344 0.83209 0.0
O798 O 0.4217 0.19526 0.8284 0.0
C799 C 0.43894 0.1641 0.80935 0.0
N800 N 0.41621 0.16029 0.8112 0.0
C801 C 0.41371 0.11926 0.81244 0.0
C802 C 0.45197 0.12319 0.81103 0.0
C803 C 0.45713 0.14736 0.80962 0.0
C804 C 0.40398 0.14138 0.8123 0.0
H805 H 0.44392 0.17883 0.80867 0.0
C806 C 0.4215 0.21055 0.83784 0.0
O807 O 0.3937 0.24559 0.79907 0.0
O808 O 0.41353 0.22247 0.78894 0.0
N809 N 0.37979 0.16068 0.82247 0.0
C810 C 0.36096 0.16448 0.82271 0.0
C811 C 0.34854 0.14938 0.82564 0.0
C812 C 0.35609 0.13094 0.82922 0.0
C813 C 0.37462 0.12704 0.82332 0.0
C814 C 0.38607 0.14288 0.81913 0.0
H815 H 0.35586 0.1791 0.82131 0.0
O816 O 0.37423 0.20765 0.78408 0.0
O817 O 0.39094 0.19038 0.8028 0.0
O818 O 0.36839 0.21904 0.82386 0.0
O819 O 0.38096 0.19638 0.8428 0.0
C820 C 0.38106 0.10817 0.82101 0.0
C821 C 0.39984 0.10414 0.8155 0.0
H822 H 0.4638 0.11277 0.81178 0.0
H823 H 0.47201 0.15207 0.80896 0.0
H824 H 0.33368 0.1529 0.82437 0.0
H825 H 0.34788 0.11919 0.83471 0.0
H826 H 0.37134 0.09621 0.82376 0.0
H827 H 0.40309 0.08918 0.81532 0.0
Mn828 Mn 0.59263 0.28018 0.29783 0.0
Mn829 Mn 0.59184 0.317 0.32162 0.0
C830 C 0.61545 0.30608 0.28693 0.0
C831 C 0.5718 0.26775 0.27558 0.0
C832 C 0.61275 0.27846 0.33392 0.0
O833 O 0.57162 0.27612 0.32101 0.0
O834 O 0.56623 0.30595 0.31805 0.0
C835 C 0.56221 0.33843 0.29486 0.0
N836 N 0.58255 0.33892 0.30594 0.0
C837 C 0.5901 0.37905 0.31008 0.0
C838 C 0.55528 0.38095 0.29304 0.0
C839 C 0.54785 0.35768 0.28857 0.0
C840 C 0.59575 0.35553 0.31304 0.0
H841 H 0.55607 0.32455 0.29133 0.0
C842 C 0.56175 0.29075 0.32636 0.0
O843 O 0.58308 0.25639 0.28548 0.0
O844 O 0.57261 0.28603 0.27885 0.0
N845 N 0.61544 0.32869 0.32536 0.0
C846 C 0.63295 0.31852 0.33587 0.0
C847 C 0.65121 0.34531 0.35571 0.0
C848 C 0.64043 0.36641 0.35214 0.0
C849 C 0.62156 0.36833 0.33711 0.0
C850 C 0.61031 0.35046 0.32534 0.0
H851 H 0.63643 0.30388 0.33312 0.0
O852 O 0.61514 0.28942 0.27845 0.0
O853 O 0.60184 0.30618 0.29958 0.0
O854 O 0.61249 0.27136 0.31698 0.0
O855 O 0.60237 0.29375 0.33812 0.0
C856 C 0.6206 0.38571 0.32717 0.0
C857 C 0.60513 0.39185 0.31608 0.0
H858 H 0.54596 0.39303 0.28898 0.0
H859 H 0.5341 0.35514 0.28161 0.0
H860 H 0.66152 0.34405 0.36648 0.0
H861 H 0.64792 0.37887 0.35751 0.0
H862 H 0.63319 0.39483 0.32724 0.0
H863 H 0.60629 0.40671 0.31172 0.0
Mn864 Mn 0.05046 0.02767 0.6547 0.0
Mn865 Mn 0.07096 0.06737 0.65759 0.0
C866 C 0.033 0.05526 0.63933 0.0
C867 C 0.03344 0.00882 0.67605 0.0
C868 C 0.08182 0.03278 0.62785 0.0
O869 O 0.07743 0.02307 0.67051 0.0
O870 O 0.07424 0.05179 0.68076 0.0
C871 C 0.05735 0.08426 0.69687 0.0
N872 N 0.05774 0.08665 0.6739 0.0
C873 C 0.05944 0.12741 0.66883 0.0
C874 C 0.06042 0.12576 0.70722 0.0
C875 C 0.05901 0.10203 0.7139 0.0
C876 C 0.05837 0.10475 0.66048 0.0
H877 H 0.05672 0.06992 0.70286 0.0
C878 C 0.08397 0.03675 0.68111 0.0
O879 O 0.04212 0.00113 0.66125 0.0
O880 O 0.03507 0.02721 0.67846 0.0
N881 N 0.06732 0.08387 0.63717 0.0
C882 C 0.06681 0.07899 0.61866 0.0
C883 C 0.06968 0.09328 0.60531 0.0
C884 C 0.07392 0.11205 0.61158 0.0
C885 C 0.06858 0.11714 0.62997 0.0
C886 C 0.06451 0.10208 0.64248 0.0
H887 H 0.06467 0.06417 0.61448 0.0
O888 O 0.02669 0.03772 0.63797 0.0
O889 O 0.0476 0.0554 0.65103 0.0
O890 O 0.06581 0.02407 0.6299 0.0
O891 O 0.08602 0.04735 0.63936 0.0
C892 C 0.06647 0.13638 0.63525 0.0
C893 C 0.06171 0.14161 0.65392 0.0
H894 H 0.06198 0.13685 0.71834 0.0
H895 H 0.05917 0.09824 0.72904 0.0
H896 H 0.06763 0.08892 0.59078 0.0
H897 H 0.07934 0.1232 0.60243 0.0
H898 H 0.06866 0.14767 0.62466 0.0
H899 H 0.06139 0.15673 0.6562 0.0
Mn900 Mn 0.7135 0.79436 0.89815 0.0
Mn901 Mn 0.67247 0.81397 0.8858 0.0
C902 C 0.68954 0.77705 0.8779 0.0
C903 C 0.727 0.77656 0.92276 0.0
C904 C 0.71342 0.82181 0.86516 0.0
O905 O 0.71382 0.81935 0.91672 0.0
O906 O 0.68381 0.82567 0.90964 0.0
C907 C 0.65391 0.79973 0.92331 0.0
N908 N 0.65128 0.80317 0.90088 0.0
C909 C 0.61045 0.80573 0.89608 0.0
C910 C 0.61275 0.8002 0.93455 0.0
C911 C 0.63649 0.79824 0.94047 0.0
C912 C 0.63333 0.80541 0.88759 0.0
H913 H 0.66851 0.799 0.92876 0.0
C914 C 0.6984 0.82907 0.92005 0.0
O915 O 0.73782 0.78545 0.91025 0.0
O916 O 0.70852 0.77817 0.92086 0.0
N917 N 0.65814 0.80758 0.86233 0.0
C918 C 0.66999 0.81638 0.84535 0.0
C919 C 0.66501 0.8357 0.8321 0.0
C920 C 0.64364 0.84693 0.83357 0.0
C921 C 0.62224 0.82871 0.86089 0.0
C922 C 0.63683 0.81053 0.86947 0.0
H923 H 0.68332 0.80927 0.84178 0.0
O924 O 0.70717 0.77098 0.87925 0.0
O925 O 0.68671 0.79155 0.88881 0.0
O926 O 0.72418 0.81054 0.87486 0.0
O927 O 0.69543 0.82314 0.86974 0.0
C928 C 0.60297 0.82787 0.86825 0.0
C929 C 0.597 0.81457 0.8827 0.0
H930 H 0.60196 0.8007 0.94607 0.0
H931 H 0.64057 0.79648 0.95543 0.0
H932 H 0.67602 0.84144 0.82311 0.0
H933 H 0.64023 0.85871 0.82398 0.0
H934 H 0.59189 0.83678 0.86238 0.0
H935 H 0.58172 0.81436 0.88511 0.0
Mn936 Mn 0.94199 0.4616 0.15299 0.0
Mn937 Mn 0.92152 0.42173 0.15568 0.0
C938 C 0.95949 0.4344 0.13747 0.0
C939 C 0.95963 0.47978 0.17438 0.0
C940 C 0.91036 0.45644 0.12622 0.0
O941 O 0.91522 0.46614 0.16868 0.0
O942 O 0.9177 0.43721 0.17889 0.0
C943 C 0.93505 0.40479 0.19507 0.0
N944 N 0.93476 0.40249 0.17209 0.0
C945 C 0.93325 0.36175 0.1668 0.0
C946 C 0.93188 0.36318 0.20518 0.0
C947 C 0.93322 0.38692 0.21202 0.0
C948 C 0.93432 0.38443 0.15859 0.0
H949 H 0.93564 0.41913 0.20107 0.0
C950 C 0.90843 0.45256 0.17918 0.0
O951 O 0.9508 0.48793 0.15991 0.0
O952 O 0.95739 0.46149 0.17667 0.0
N953 N 0.92564 0.40533 0.13523 0.0
C954 C 0.92635 0.41027 0.11674 0.0
C955 C 0.9235 0.39604 0.1033 0.0
C956 C 0.91929 0.37723 0.10951 0.0
C957 C 0.92456 0.37208 0.12791 0.0
C958 C 0.92845 0.38713 0.14051 0.0
H959 H 0.92836 0.42514 0.11269 0.0
O960 O 0.9657 0.45195 0.13622 0.0
O961 O 0.94484 0.43398 0.14917 0.0
O962 O 0.92632 0.46531 0.12837 0.0
O963 O 0.90634 0.44163 0.13746 0.0
C964 C 0.92679 0.35281 0.1331 0.0
C965 C 0.93154 0.34754 0.15177 0.0
H966 H 0.93027 0.35203 0.21622 0.0
H967 H 0.93292 0.39065 0.22717 0.0
H968 H 0.92538 0.40049 0.08878 0.0
H969 H 0.9139 0.36608 0.10034 0.0
H970 H 0.92477 0.34153 0.12244 0.0
H971 H 0.93256 0.33237 0.15387 0.0
Mn972 Mn 0.28306 0.69054 0.39679 0.0
Mn973 Mn 0.32145 0.66865 0.40625 0.0
C974 C 0.31022 0.70438 0.38001 0.0
C975 C 0.26641 0.71087 0.417 0.0
C976 C 0.28797 0.65668 0.37361 0.0
O977 O 0.27548 0.66631 0.41382 0.0
O978 O 0.30213 0.67283 0.42622 0.0
C979 C 0.3369 0.68731 0.44346 0.0
N980 N 0.33909 0.6866 0.42045 0.0
C981 C 0.38001 0.68734 0.41506 0.0
C982 C 0.37877 0.68499 0.4533 0.0
C983 C 0.35498 0.68564 0.46032 0.0
C984 C 0.35723 0.68786 0.40656 0.0
H985 H 0.32258 0.687 0.44953 0.0
C986 C 0.28762 0.66222 0.4267 0.0
O987 O 0.2574 0.70173 0.40322 0.0
O988 O 0.28459 0.70777 0.41904 0.0
N989 N 0.34405 0.66246 0.39128 0.0
C990 C 0.35226 0.64374 0.39109 0.0
C991 C 0.3693 0.64143 0.38055 0.0
C992 C 0.37791 0.65701 0.37143 0.0
C993 C 0.3733 0.67555 0.37787 0.0
C994 C 0.35647 0.67804 0.38934 0.0
H995 H 0.34001 0.65245 0.39311 0.0
O996 O 0.29316 0.71181 0.37904 0.0
O997 O 0.3113 0.68998 0.39187 0.0
O998 O 0.27928 0.67291 0.37415 0.0
O999 O 0.3016 0.65255 0.38689 0.0
C1000 C 0.38926 0.68704 0.38104 0.0
C1001 C 0.3942 0.6902 0.40009 0.0
H1002 H 0.39002 0.6841 0.46434 0.0
H1003 H 0.35137 0.6852 0.4755 0.0
H1004 H 0.37623 0.62747 0.38013 0.0
H1005 H 0.39124 0.65433 0.36363 0.0
H1006 H 0.40073 0.68719 0.37046 0.0
H1007 H 0.40906 0.69372 0.40234 0.0
Mn1008 Mn 0.05341 0.96295 0.34071 0.0
Mn1009 Mn 0.07269 0.92226 0.33713 0.0
C1010 C 0.03562 0.93598 0.35646 0.0
C1011 C 0.03431 0.98322 0.32311 0.0
C1012 C 0.08598 0.95657 0.36595 0.0
O1013 O 0.07955 0.96659 0.32356 0.0
O1014 O 0.07629 0.93746 0.31372 0.0
C1015 C 0.05752 0.90516 0.29839 0.0
N1016 N 0.05858 0.90313 0.32137 0.0
C1017 C 0.05931 0.86242 0.32711 0.0
C1018 C 0.05919 0.86334 0.28867 0.0
C1019 C 0.05821 0.88704 0.2816 0.0
C1020 C 0.0591 0.88524 0.33507 0.0
H1021 H 0.05717 0.91945 0.29225 0.0
C1022 C 0.08586 0.95266 0.31308 0.0
O1023 O 0.0456 0.9899 0.33657 0.0
O1024 O 0.03621 0.9653 0.31829 0.0
N1025 N 0.06872 0.9063 0.35796 0.0
C1026 C 0.06848 0.91157 0.37641 0.0
C1027 C 0.0709 0.89747 0.39006 0.0
C1028 C 0.07444 0.87844 0.38413 0.0
C1029 C 0.06904 0.87316 0.36579 0.0
C1030 C 0.06539 0.88808 0.35301 0.0
H1031 H 0.06704 0.92655 0.38029 0.0
O1032 O 0.03036 0.95377 0.35849 0.0
O1033 O 0.04956 0.93516 0.34384 0.0
O1034 O 0.07009 0.9655 0.36458 0.0
O1035 O 0.08925 0.94174 0.35456 0.0
C1036 C 0.06669 0.85387 0.36078 0.0
C1037 C 0.06178 0.84841 0.3422 0.0
H1038 H 0.06023 0.85202 0.27773 0.0
H1039 H 0.05809 0.89056 0.2664 0.0
H1040 H 0.0693 0.9022 0.40453 0.0
H1041 H 0.07954 0.86733 0.39347 0.0
H1042 H 0.06893 0.8427 0.3715 0.0
H1043 H 0.06159 0.83323 0.3401 0.0
Mn1044 Mn 0.77336 0.81058 0.58619 0.0
Mn1045 Mn 0.81386 0.83431 0.59182 0.0
C1046 C 0.7993 0.79427 0.60378 0.0
C1047 C 0.75564 0.7883 0.56933 0.0
C1048 C 0.77702 0.84113 0.61796 0.0
O1049 O 0.77073 0.83308 0.56557 0.0
O1050 O 0.79884 0.84724 0.57185 0.0
C1051 C 0.83485 0.83929 0.55342 0.0
N1052 N 0.83421 0.82817 0.57324 0.0
C1053 C 0.87348 0.81617 0.57782 0.0
C1054 C 0.87579 0.83429 0.54444 0.0
C1055 C 0.85374 0.84293 0.53874 0.0
C1056 C 0.85019 0.81796 0.5852 0.0
H1057 H 0.82233 0.84649 0.54875 0.0
C1058 C 0.78344 0.84617 0.56214 0.0
O1059 O 0.74724 0.80084 0.58044 0.0
O1060 O 0.77371 0.79105 0.56547 0.0
N1061 N 0.82939 0.82298 0.60983 0.0
C1062 C 0.82451 0.82153 0.62824 0.0
C1063 C 0.83899 0.82173 0.64125 0.0
C1064 C 0.85788 0.82486 0.63439 0.0
C1065 C 0.86241 0.81825 0.61651 0.0
C1066 C 0.84714 0.81808 0.60387 0.0
H1067 H 0.80956 0.82084 0.63258 0.0
O1068 O 0.78138 0.78954 0.60551 0.0
O1069 O 0.80158 0.80862 0.59116 0.0
O1070 O 0.76618 0.82885 0.60956 0.0
O1071 O 0.7943 0.84348 0.61185 0.0
C1072 C 0.88127 0.8128 0.61151 0.0
C1073 C 0.88648 0.80969 0.59247 0.0
H1074 H 0.88777 0.83661 0.53499 0.0
H1075 H 0.85131 0.8507 0.52553 0.0
H1076 H 0.83424 0.81922 0.65558 0.0
H1077 H 0.86983 0.8298 0.6423 0.0
H1078 H 0.89227 0.81142 0.62254 0.0
H1079 H 0.90132 0.80578 0.59008 0.0
Mn1080 Mn 0.93965 0.52808 0.8469 0.0
Mn1081 Mn 0.91984 0.56755 0.83923 0.0
C1082 C 0.95674 0.5566 0.86139 0.0
C1083 C 0.96023 0.50798 0.83082 0.0
C1084 C 0.90622 0.53428 0.87074 0.0
O1085 O 0.91385 0.52264 0.82932 0.0
O1086 O 0.917 0.55079 0.8168 0.0
C1087 C 0.93801 0.58279 0.79952 0.0
N1088 N 0.93405 0.58606 0.82211 0.0
C1089 C 0.93349 0.6268 0.82571 0.0
C1090 C 0.9377 0.62468 0.78762 0.0
C1091 C 0.93936 0.60034 0.78164 0.0
C1092 C 0.93249 0.60462 0.83459 0.0
H1093 H 0.93841 0.56811 0.79428 0.0
C1094 C 0.90751 0.53546 0.81745 0.0
O1095 O 0.94901 0.50131 0.84432 0.0
O1096 O 0.95725 0.52539 0.82492 0.0
N1097 N 0.92295 0.58514 0.85883 0.0
C1098 C 0.92369 0.58102 0.87752 0.0
C1099 C 0.92105 0.5958 0.89041 0.0
C1100 C 0.91822 0.61447 0.88352 0.0
C1101 C 0.92498 0.61853 0.86529 0.0
C1102 C 0.92674 0.6029 0.85285 0.0
H1103 H 0.92553 0.56628 0.88201 0.0
O1104 O 0.96207 0.53907 0.86471 0.0
O1105 O 0.94312 0.55616 0.84828 0.0
O1106 O 0.92256 0.52609 0.87071 0.0
O1107 O 0.90322 0.54828 0.85798 0.0
C1108 C 0.92996 0.63719 0.8598 0.0
C1109 C 0.93381 0.64154 0.84064 0.0
H1110 H 0.93845 0.63565 0.77631 0.0
H1111 H 0.94119 0.59611 0.76673 0.0
H1112 H 0.92262 0.59214 0.90512 0.0
H1113 H 0.91241 0.62587 0.89215 0.0
H1114 H 0.92938 0.64887 0.87021 0.0
H1115 H 0.93592 0.65669 0.8383 0.0
Mn1116 Mn 0.21628 0.68648 0.08617 0.0
Mn1117 Mn 0.17553 0.66787 0.08324 0.0
C1118 C 0.18955 0.70566 0.10064 0.0
C1119 C 0.23559 0.70267 0.06453 0.0
C1120 C 0.2092 0.65631 0.11387 0.0
O1121 O 0.21988 0.65897 0.07144 0.0
O1122 O 0.19135 0.66274 0.06052 0.0
C1123 C 0.1602 0.68123 0.04339 0.0
N1124 N 0.15731 0.6816 0.06613 0.0
C1125 C 0.11643 0.68274 0.06974 0.0
C1126 C 0.11897 0.68053 0.03187 0.0
C1127 C 0.14281 0.68022 0.02615 0.0
C1128 C 0.13889 0.68258 0.07893 0.0
H1129 H 0.1747 0.68096 0.03773 0.0
C1130 C 0.20615 0.65259 0.06083 0.0
O1131 O 0.24312 0.69404 0.07945 0.0
O1132 O 0.21725 0.70093 0.06197 0.0
N1133 N 0.15877 0.67314 0.10304 0.0
C1134 C 0.16335 0.67398 0.1216 0.0
C1135 C 0.14871 0.67242 0.13473 0.0
C1136 C 0.12974 0.66933 0.1283 0.0
C1137 C 0.12534 0.67435 0.10957 0.0
C1138 C 0.14085 0.67693 0.09724 0.0
H1139 H 0.17822 0.67536 0.12596 0.0
O1140 O 0.20735 0.71116 0.10197 0.0
O1141 O 0.18871 0.6907 0.08942 0.0
O1142 O 0.21886 0.67172 0.11141 0.0
O1143 O 0.19446 0.65252 0.10238 0.0
C1144 C 0.10646 0.67785 0.10383 0.0
C1145 C 0.10195 0.68254 0.08491 0.0
H1146 H 0.1149 0.68088 0.04042 0.0
H1147 H 0.14701 0.67954 0.01114 0.0
H1148 H 0.15305 0.67478 0.14918 0.0
H1149 H 0.11814 0.66507 0.13755 0.0
H1150 H 0.09484 0.67704 0.11429 0.0
H1151 H 0.08682 0.68469 0.08296 0.0
Mn1152 Mn 0.14792 0.54392 0.03283 0.0
Mn1153 Mn 0.15201 0.56625 0.07123 0.0
C1154 C 0.13163 0.52885 0.06123 0.0
C1155 C 0.16905 0.52535 0.0154 0.0
C1156 C 0.12298 0.57702 0.03612 0.0
O1157 O 0.16522 0.56963 0.02688 0.0
O1158 O 0.17547 0.56713 0.05565 0.0
C1159 C 0.18999 0.54975 0.08886 0.0
N1160 N 0.16723 0.55289 0.09122 0.0
C1161 C 0.16255 0.55728 0.13182 0.0
C1162 C 0.20082 0.5537 0.13017 0.0
C1163 C 0.20719 0.55032 0.10655 0.0
C1164 C 0.15406 0.55603 0.10923 0.0
H1165 H 0.19578 0.54784 0.07453 0.0
C1166 C 0.17644 0.57602 0.04012 0.0
O1167 O 0.15462 0.5339 0.00687 0.0
O1168 O 0.17088 0.52756 0.03377 0.0
N1169 N 0.13136 0.565 0.08778 0.0
C1170 C 0.11276 0.5646 0.08299 0.0
C1171 C 0.09958 0.56879 0.09713 0.0
C1172 C 0.10623 0.57443 0.11548 0.0
C1173 C 0.12451 0.56914 0.12089 0.0
C1174 C 0.1367 0.56354 0.10614 0.0
H1175 H 0.10839 0.5616 0.06836 0.0
O1176 O 0.12999 0.52159 0.04408 0.0
O1177 O 0.14391 0.5429 0.06052 0.0
O1178 O 0.12401 0.56046 0.02827 0.0
O1179 O 0.13484 0.58132 0.05038 0.0
C1180 C 0.1298 0.56812 0.14026 0.0
C1181 C 0.14807 0.56221 0.14584 0.0
H1182 H 0.21212 0.55471 0.14115 0.0
H1183 H 0.22226 0.54863 0.10277 0.0
H1184 H 0.0849 0.56698 0.09297 0.0
H1185 H 0.09754 0.5808 0.12639 0.0
H1186 H 0.11946 0.57191 0.15137 0.0
H1187 H 0.15049 0.56305 0.16096 0.0
Mn1188 Mn 0.19513 0.89686 0.28129 0.0
Mn1189 Mn 0.1745 0.90144 0.32062 0.0
C1190 C 0.21181 0.88152 0.30939 0.0
C1191 C 0.21363 0.91726 0.26276 0.0
C1192 C 0.16276 0.8713 0.2868 0.0
O1193 O 0.16877 0.91351 0.27595 0.0
O1194 O 0.1722 0.92427 0.30441 0.0
C1195 C 0.18953 0.94053 0.33639 0.0
N1196 N 0.18847 0.91766 0.33939 0.0
C1197 C 0.18688 0.91369 0.38028 0.0
C1198 C 0.18692 0.95204 0.37756 0.0
C1199 C 0.18838 0.95805 0.35369 0.0
C1200 C 0.18752 0.90472 0.35784 0.0
H1201 H 0.19035 0.94615 0.32191 0.0
C1202 C 0.1625 0.92461 0.28935 0.0
O1203 O 0.20452 0.90281 0.25489 0.0
O1204 O 0.21131 0.92003 0.28099 0.0
N1205 N 0.17717 0.88136 0.33765 0.0
C1206 C 0.17742 0.86268 0.33328 0.0
C1207 C 0.17433 0.84982 0.34795 0.0
C1208 C 0.16996 0.85683 0.36649 0.0
C1209 C 0.17568 0.87521 0.3711 0.0
C1210 C 0.18014 0.88711 0.3557 0.0
H1211 H 0.1796 0.85799 0.31861 0.0
O1212 O 0.21825 0.87957 0.29197 0.0
O1213 O 0.19754 0.89358 0.30904 0.0
O1214 O 0.17885 0.87259 0.27804 0.0
O1215 O 0.15889 0.88331 0.30104 0.0
C1216 C 0.1783 0.88081 0.39022 0.0
C1217 C 0.18417 0.89929 0.39494 0.0
H1218 H 0.18541 0.9635 0.38831 0.0
H1219 H 0.18853 0.97308 0.34951 0.0
H1220 H 0.17614 0.83511 0.34405 0.0
H1221 H 0.16431 0.84833 0.37796 0.0
H1222 H 0.17576 0.87061 0.40181 0.0
H1223 H 0.18501 0.90189 0.41004 0.0
Mn1224 Mn 0.84504 0.94387 0.53208 0.0
Mn1225 Mn 0.8378 0.92215 0.57047 0.0
C1226 C 0.85997 0.96057 0.56013 0.0
C1227 C 0.82463 0.96386 0.51519 0.0
C1228 C 0.8706 0.91072 0.53771 0.0
O1229 O 0.82807 0.91888 0.52473 0.0
O1230 O 0.81594 0.92177 0.55278 0.0
C1231 C 0.79801 0.94045 0.58431 0.0
N1232 N 0.82046 0.93669 0.58852 0.0
C1233 C 0.82211 0.93678 0.62957 0.0
C1234 C 0.78432 0.94105 0.62532 0.0
C1235 C 0.77952 0.94214 0.60089 0.0
C1236 C 0.83203 0.93508 0.6077 0.0
H1237 H 0.79352 0.94182 0.56951 0.0
C1238 C 0.81543 0.91349 0.53688 0.0
O1239 O 0.83883 0.95522 0.50636 0.0
O1240 O 0.82201 0.96001 0.53307 0.0
N1241 N 0.85584 0.92214 0.58957 0.0
C1242 C 0.87405 0.92647 0.586 0.0
C1243 C 0.88468 0.93253 0.60141 0.0
C1244 C 0.87951 0.92711 0.62002 0.0
C1245 C 0.86051 0.92552 0.62343 0.0
C1246 C 0.84871 0.92585 0.60717 0.0
H1247 H 0.87899 0.92856 0.57144 0.0
O1248 O 0.86183 0.96668 0.54268 0.0
O1249 O 0.84856 0.94553 0.56021 0.0
O1250 O 0.86912 0.92687 0.52885 0.0
O1251 O 0.85806 0.90651 0.55181 0.0
C1252 C 0.85418 0.92932 0.64187 0.0
C1253 C 0.83566 0.935 0.645 0.0
H1254 H 0.77242 0.94188 0.63565 0.0
H1255 H 0.76483 0.94412 0.59597 0.0
H1256 H 0.89605 0.94131 0.59816 0.0
H1257 H 0.88927 0.92535 0.63189 0.0
H1258 H 0.86425 0.92994 0.65385 0.0
H1259 H 0.83303 0.93878 0.65936 0.0
Mn1260 Mn 0.79753 0.58876 0.78286 0.0
Mn1261 Mn 0.8205 0.60033 0.82145 0.0
C1262 C 0.78068 0.60903 0.80637 0.0
C1263 C 0.77795 0.56524 0.76993 0.0
C1264 C 0.82813 0.61981 0.78313 0.0
O1265 O 0.82187 0.56997 0.78157 0.0
O1266 O 0.83256 0.57672 0.81072 0.0
C1267 C 0.80079 0.56531 0.84156 0.0
N1268 N 0.81101 0.58575 0.8421 0.0
C1269 C 0.81818 0.59343 0.88121 0.0
C1270 C 0.80069 0.55822 0.88375 0.0
C1271 C 0.7953 0.55105 0.86079 0.0
C1272 C 0.81931 0.59896 0.85798 0.0
H1273 H 0.79728 0.55948 0.82751 0.0
C1274 C 0.83353 0.56659 0.79554 0.0
O1275 O 0.7874 0.57706 0.75876 0.0
O1276 O 0.7808 0.5666 0.78824 0.0
N1277 N 0.81303 0.62314 0.83478 0.0
C1278 C 0.80731 0.64317 0.82608 0.0
C1279 C 0.8139 0.66517 0.83368 0.0
C1280 C 0.829 0.66789 0.85249 0.0
C1281 C 0.83773 0.63187 0.86637 0.0
C1282 C 0.82514 0.61635 0.85211 0.0
H1283 H 0.80187 0.64302 0.81156 0.0
O1284 O 0.77454 0.6075 0.78885 0.0
O1285 O 0.79593 0.5983 0.80911 0.0
O1286 O 0.81453 0.61181 0.77344 0.0
O1287 O 0.83159 0.61568 0.80061 0.0
C1288 C 0.84079 0.62302 0.88518 0.0
C1289 C 0.82991 0.60665 0.89258 0.0
H1290 H 0.79815 0.54839 0.89583 0.0
H1291 H 0.78865 0.53713 0.85842 0.0
H1292 H 0.80939 0.67757 0.82549 0.0
H1293 H 0.83363 0.6809 0.85712 0.0
H1294 H 0.8502 0.62997 0.89537 0.0
H1295 H 0.83205 0.60375 0.90751 0.0
Mn1296 Mn 0.1611 0.43798 0.9626 0.0
Mn1297 Mn 0.15552 0.41433 0.92278 0.0
C1298 C 0.14488 0.45453 0.93543 0.0
C1299 C 0.18188 0.45819 0.97873 0.0
C1300 C 0.12866 0.40859 0.95977 0.0
O1301 O 0.17977 0.41367 0.96696 0.0
O1302 O 0.17532 0.40163 0.93792 0.0
C1303 C 0.19651 0.41588 0.90631 0.0
N1304 N 0.17458 0.42128 0.90332 0.0
C1305 C 0.17024 0.42036 0.86255 0.0
C1306 C 0.2072 0.41064 0.86559 0.0
C1307 C 0.21311 0.41031 0.88931 0.0
C1308 C 0.16188 0.42369 0.88502 0.0
H1309 H 0.20186 0.41624 0.92079 0.0
C1310 C 0.18357 0.40098 0.95397 0.0
O1311 O 0.16857 0.44866 0.98794 0.0
O1312 O 0.18385 0.45487 0.96053 0.0
N1313 N 0.13725 0.42401 0.90598 0.0
C1314 C 0.11887 0.42669 0.91044 0.0
C1315 C 0.10549 0.42473 0.89613 0.0
C1316 C 0.11147 0.41915 0.87749 0.0
C1317 C 0.13041 0.42125 0.87251 0.0
C1318 C 0.14312 0.42364 0.88765 0.0
H1319 H 0.11479 0.42945 0.92523 0.0
O1320 O 0.14342 0.46052 0.95303 0.0
O1321 O 0.15635 0.43943 0.93454 0.0
O1322 O 0.13634 0.42168 0.97026 0.0
O1323 O 0.13553 0.40572 0.94283 0.0
C1324 C 0.1363 0.42173 0.85319 0.0
C1325 C 0.1557 0.42271 0.84824 0.0
H1326 H 0.21799 0.40768 0.85477 0.0
H1327 H 0.22774 0.40695 0.89362 0.0
H1328 H 0.09125 0.42833 0.9006 0.0
H1329 H 0.1022 0.41463 0.86614 0.0
H1330 H 0.12563 0.42192 0.84173 0.0
H1331 H 0.15863 0.42541 0.83355 0.0
Mn1332 Mn 0.29923 0.89845 0.20666 0.0
Mn1333 Mn 0.32194 0.89828 0.16742 0.0
C1334 C 0.2824 0.88216 0.17927 0.0
C1335 C 0.28112 0.92024 0.22381 0.0
C1336 C 0.32991 0.87013 0.20467 0.0
O1337 O 0.32619 0.9141 0.21176 0.0
O1338 O 0.32662 0.92166 0.18177 0.0
C1339 C 0.31902 0.93687 0.14612 0.0
N1340 N 0.3127 0.91485 0.14595 0.0
C1341 C 0.31274 0.90607 0.10551 0.0
C1342 C 0.32459 0.94234 0.10436 0.0
C1343 C 0.32538 0.95095 0.12727 0.0
C1344 C 0.30944 0.90033 0.12913 0.0
H1345 H 0.31845 0.94457 0.15953 0.0
C1346 C 0.33455 0.92294 0.19779 0.0
O1347 O 0.28967 0.90593 0.23245 0.0
O1348 O 0.28393 0.92232 0.20552 0.0
N1349 N 0.3162 0.87772 0.15208 0.0
C1350 C 0.31533 0.85956 0.15817 0.0
C1351 C 0.31804 0.84558 0.14472 0.0
C1352 C 0.32279 0.8515 0.12595 0.0
C1353 C 0.31536 0.86845 0.11946 0.0
C1354 C 0.31246 0.882 0.13357 0.0
H1355 H 0.31337 0.85621 0.17322 0.0
O1356 O 0.27576 0.88171 0.19671 0.0
O1357 O 0.2971 0.89406 0.1786 0.0
O1358 O 0.31374 0.87332 0.21264 0.0
O1359 O 0.33452 0.88034 0.18936 0.0
C1360 C 0.31165 0.87178 0.09989 0.0
C1361 C 0.31 0.89027 0.09269 0.0
H1362 H 0.32764 0.95197 0.09244 0.0
H1363 H 0.32879 0.96593 0.12991 0.0
H1364 H 0.31619 0.83123 0.14979 0.0
H1365 H 0.32999 0.84336 0.11541 0.0
H1366 H 0.31187 0.85999 0.08973 0.0
H1367 H 0.30885 0.89135 0.07735 0.0
Mn1368 Mn 0.83897 0.05204 0.46243 0.0
Mn1369 Mn 0.83509 0.0713 0.42248 0.0
C1370 C 0.8533 0.0335 0.43499 0.0
C1371 C 0.81828 0.03445 0.48122 0.0
C1372 C 0.86616 0.08266 0.4557 0.0
O1373 O 0.82371 0.0793 0.46705 0.0
O1374 O 0.81255 0.07538 0.4388 0.0
C1375 C 0.79499 0.05765 0.40762 0.0
N1376 N 0.81787 0.05761 0.40435 0.0
C1377 C 0.82143 0.05779 0.3634 0.0
C1378 C 0.78311 0.05946 0.36646 0.0
C1379 C 0.77731 0.05897 0.39046 0.0
C1380 C 0.83062 0.05738 0.38576 0.0
H1381 H 0.78953 0.05759 0.4222 0.0
C1382 C 0.81286 0.08565 0.45348 0.0
O1383 O 0.83293 0.04339 0.48896 0.0
O1384 O 0.81506 0.03708 0.46312 0.0
N1385 N 0.85483 0.06683 0.4054 0.0
C1386 C 0.8735 0.06601 0.40969 0.0
C1387 C 0.88642 0.06779 0.39487 0.0
C1388 C 0.87959 0.07139 0.37615 0.0
C1389 C 0.86087 0.06643 0.3719 0.0
C1390 C 0.84882 0.06331 0.38754 0.0
H1391 H 0.87816 0.06435 0.42444 0.0
O1392 O 0.85509 0.02775 0.45263 0.0
O1393 O 0.84194 0.04834 0.43479 0.0
O1394 O 0.86405 0.06705 0.46509 0.0
O1395 O 0.85431 0.08661 0.44133 0.0
C1396 C 0.85482 0.06377 0.35295 0.0
C1397 C 0.83584 0.0593 0.34858 0.0
H1398 H 0.77159 0.0608 0.35575 0.0
H1399 H 0.76231 0.0595 0.39481 0.0
H1400 H 0.90102 0.06541 0.39885 0.0
H1401 H 0.88842 0.07606 0.36447 0.0
H1402 H 0.86503 0.06534 0.3412 0.0
H1403 H 0.83298 0.05852 0.33358 0.0
Mn1404 Mn 0.69288 0.58794 0.71488 0.0
Mn1405 Mn 0.67417 0.58431 0.67443 0.0
C1406 C 0.7113 0.60341 0.68803 0.0
C1407 C 0.70981 0.56672 0.73397 0.0
C1408 C 0.66095 0.61391 0.70819 0.0
O1409 O 0.66617 0.57178 0.71859 0.0
O1410 O 0.67039 0.56124 0.69006 0.0
C1411 C 0.68885 0.54504 0.65868 0.0
N1412 N 0.68856 0.56798 0.65606 0.0
C1413 C 0.68868 0.57268 0.61524 0.0
C1414 C 0.68744 0.53428 0.61719 0.0
C1415 C 0.68782 0.52782 0.64102 0.0
C1416 C 0.68877 0.58124 0.63783 0.0
H1417 H 0.68918 0.53923 0.6731 0.0
C1418 C 0.66032 0.56088 0.70488 0.0
O1419 O 0.70071 0.58129 0.74165 0.0
O1420 O 0.70855 0.56448 0.71557 0.0
N1421 N 0.67848 0.60465 0.65802 0.0
C1422 C 0.67863 0.62323 0.66281 0.0
C1423 C 0.67631 0.63645 0.64831 0.0
C1424 C 0.6731 0.62994 0.6294 0.0
C1425 C 0.67885 0.61157 0.62471 0.0
C1426 C 0.68235 0.59924 0.64005 0.0
H1427 H 0.6799 0.62751 0.6777 0.0
O1428 O 0.71677 0.60502 0.70582 0.0
O1429 O 0.69681 0.59156 0.68736 0.0
O1430 O 0.67663 0.6123 0.71767 0.0
O1431 O 0.65775 0.60237 0.69342 0.0
C1432 C 0.68172 0.60611 0.60562 0.0
C1433 C 0.6868 0.58743 0.60079 0.0
H1434 H 0.68597 0.52308 0.60616 0.0
H1435 H 0.6874 0.51273 0.64494 0.0
H1436 H 0.67788 0.65105 0.65265 0.0
H1437 H 0.66807 0.63884 0.61792 0.0
H1438 H 0.67969 0.61651 0.59411 0.0
H1439 H 0.68746 0.58495 0.58572 0.0
Mn1440 Mn 0.5368 0.64724 0.54621 0.0
Mn1441 Mn 0.57604 0.65084 0.56761 0.0
C1442 C 0.56464 0.63112 0.5301 0.0
C1443 C 0.5189 0.6679 0.52768 0.0
C1444 C 0.54098 0.6214 0.57847 0.0
O1445 O 0.53143 0.66391 0.57246 0.0
O1446 O 0.56027 0.67406 0.56982 0.0
C1447 C 0.59332 0.68975 0.55332 0.0
N1448 N 0.59572 0.66681 0.55436 0.0
C1449 C 0.63656 0.6619 0.55739 0.0
C1450 C 0.63476 0.70028 0.55742 0.0
C1451 C 0.61102 0.70685 0.55512 0.0
C1452 C 0.61387 0.65346 0.55583 0.0
H1453 H 0.57897 0.69568 0.55216 0.0
C1454 C 0.54495 0.67463 0.57913 0.0
O1455 O 0.51064 0.65363 0.5367 0.0
O1456 O 0.53721 0.67036 0.53002 0.0
N1457 N 0.59273 0.63046 0.56503 0.0
C1458 C 0.58783 0.61197 0.56496 0.0
C1459 C 0.60204 0.59873 0.56844 0.0
C1460 C 0.62073 0.60513 0.57297 0.0
C1461 C 0.62603 0.62333 0.56718 0.0
C1462 C 0.61104 0.63567 0.56239 0.0
H1463 H 0.57304 0.60774 0.56263 0.0
O1464 O 0.54726 0.62964 0.52338 0.0
O1465 O 0.56457 0.64337 0.54425 0.0
O1466 O 0.5326 0.62305 0.56225 0.0
O1467 O 0.55557 0.63295 0.58265 0.0
C1468 C 0.64539 0.62854 0.56538 0.0
C1469 C 0.6508 0.64708 0.56023 0.0
H1470 H 0.64577 0.71148 0.55901 0.0
H1471 H 0.60719 0.72198 0.5548 0.0
H1472 H 0.59765 0.5842 0.56659 0.0
H1473 H 0.63171 0.59623 0.57901 0.0
H1474 H 0.65663 0.61801 0.56816 0.0
H1475 H 0.66605 0.64932 0.55987 0.0
Mn1476 Mn 0.03262 0.34115 0.94005 0.0
Mn1477 Mn 0.07253 0.343 0.91668 0.0
C1478 C 0.06013 0.35691 0.95642 0.0
C1479 C 0.0168 0.32047 0.96078 0.0
C1480 C 0.03692 0.37231 0.91013 0.0
O1481 O 0.0271 0.32355 0.91505 0.0
O1482 O 0.05721 0.32291 0.90485 0.0
C1483 C 0.08933 0.30232 0.91767 0.0
N1484 N 0.09144 0.32363 0.92566 0.0
C1485 C 0.13248 0.32799 0.92895 0.0
C1486 C 0.13054 0.29274 0.91438 0.0
C1487 C 0.10703 0.28677 0.91142 0.0
C1488 C 0.10941 0.33601 0.93128 0.0
H1489 H 0.07503 0.2966 0.91614 0.0
C1490 C 0.04014 0.31716 0.90342 0.0
O1491 O 0.00736 0.33404 0.95188 0.0
O1492 O 0.03465 0.31808 0.95632 0.0
N1493 N 0.08906 0.36109 0.92585 0.0
C1494 C 0.08481 0.37967 0.92576 0.0
C1495 C 0.09957 0.39216 0.92348 0.0
C1496 C 0.11798 0.38464 0.91952 0.0
C1497 C 0.1225 0.36704 0.9273 0.0
C1498 C 0.10699 0.35486 0.92958 0.0
H1499 H 0.07012 0.38452 0.9274 0.0
O1500 O 0.04269 0.35842 0.96274 0.0
O1501 O 0.06056 0.34502 0.94156 0.0
O1502 O 0.02663 0.36624 0.92421 0.0
O1503 O 0.05304 0.36357 0.90616 0.0
C1504 C 0.14152 0.36159 0.93156 0.0
C1505 C 0.14684 0.34236 0.93246 0.0
H1506 H 0.14125 0.28135 0.91249 0.0
H1507 H 0.1033 0.2725 0.90631 0.0
H1508 H 0.09542 0.40672 0.92549 0.0
H1509 H 0.12952 0.3924 0.91306 0.0
H1510 H 0.15284 0.37231 0.9318 0.0
H1511 H 0.16216 0.33975 0.93254 0.0
Mn1512 Mn 0.40002 0.77555 0.19354 0.0
Mn1513 Mn 0.40393 0.81595 0.17548 0.0
C1514 C 0.38315 0.80241 0.21153 0.0
C1515 C 0.42118 0.75656 0.21071 0.0
C1516 C 0.37596 0.78092 0.16053 0.0
O1517 O 0.41722 0.77219 0.16701 0.0
O1518 O 0.42787 0.80012 0.17297 0.0
C1519 C 0.44198 0.83387 0.18898 0.0
N1520 N 0.41907 0.83599 0.18956 0.0
C1521 C 0.41352 0.87644 0.1821 0.0
C1522 C 0.45178 0.87428 0.17884 0.0
C1523 C 0.45865 0.8511 0.18344 0.0
C1524 C 0.40538 0.85393 0.18734 0.0
H1525 H 0.44811 0.81978 0.19143 0.0
C1526 C 0.42835 0.78601 0.16177 0.0
O1527 O 0.40687 0.74881 0.20125 0.0
O1528 O 0.42298 0.77505 0.21 0.0
N1529 N 0.38285 0.83189 0.17881 0.0
C1530 C 0.36439 0.82648 0.17827 0.0
C1531 C 0.35098 0.84022 0.1735 0.0
C1532 C 0.3574 0.85882 0.16881 0.0
C1533 C 0.37485 0.86483 0.1761 0.0
C1534 C 0.38747 0.85035 0.18145 0.0
H1535 H 0.36058 0.81149 0.17989 0.0
O1536 O 0.38159 0.78454 0.21676 0.0
O1537 O 0.39591 0.80319 0.19785 0.0
O1538 O 0.37632 0.77198 0.17653 0.0
O1539 O 0.3874 0.79596 0.1583 0.0
C1540 C 0.37952 0.88434 0.17785 0.0
C1541 C 0.39849 0.89025 0.17973 0.0
H1542 H 0.4628 0.88486 0.17483 0.0
H1543 H 0.47379 0.8473 0.18284 0.0
H1544 H 0.33639 0.83556 0.17382 0.0
H1545 H 0.34896 0.8692 0.16121 0.0
H1546 H 0.36849 0.89527 0.17592 0.0
H1547 H 0.40078 0.90528 0.17821 0.0
Mn1548 Mn 0.96353 0.14724 0.43684 0.0
Mn1549 Mn 0.92273 0.15294 0.41805 0.0
C1550 C 0.93592 0.1332 0.45502 0.0
C1551 C 0.98521 0.16384 0.45524 0.0
C1552 C 0.95526 0.12194 0.40485 0.0
O1553 O 0.96782 0.16375 0.41044 0.0
O1554 O 0.93944 0.17526 0.41434 0.0
C1555 C 0.90794 0.19282 0.43234 0.0
N1556 N 0.90461 0.16998 0.43212 0.0
C1557 C 0.8635 0.1666 0.43176 0.0
C1558 C 0.86674 0.20486 0.43049 0.0
C1559 C 0.89081 0.21056 0.43113 0.0
C1560 C 0.8859 0.15732 0.43215 0.0
H1561 H 0.92256 0.1982 0.43236 0.0
C1562 C 0.9543 0.17482 0.40425 0.0
O1563 O 0.99084 0.14986 0.44405 0.0
O1564 O 0.96752 0.16967 0.45369 0.0
N1565 N 0.90546 0.13323 0.42225 0.0
C1566 C 0.90964 0.11454 0.42252 0.0
C1567 C 0.89473 0.10175 0.42038 0.0
C1568 C 0.876 0.10874 0.41705 0.0
C1569 C 0.87185 0.12733 0.42257 0.0
C1570 C 0.8876 0.13923 0.42594 0.0
H1571 H 0.92439 0.1098 0.42387 0.0
O1572 O 0.95364 0.13026 0.46017 0.0
O1573 O 0.93559 0.14573 0.44103 0.0
O1574 O 0.96448 0.12308 0.42057 0.0
O1575 O 0.94102 0.13409 0.40155 0.0
C1576 C 0.85288 0.13337 0.42549 0.0
C1577 C 0.84856 0.15228 0.43031 0.0
H1578 H 0.85608 0.21643 0.42925 0.0
H1579 H 0.89523 0.22553 0.43075 0.0
H1580 H 0.89864 0.0871 0.42224 0.0
H1581 H 0.86429 0.10004 0.4121 0.0
H1582 H 0.84108 0.12321 0.42387 0.0
H1583 H 0.83348 0.15513 0.43157 0.0
Mn1584 Mn 0.09381 0.20976 0.69358 0.0
Mn1585 Mn 0.08973 0.1699 0.67401 0.0
C1586 C 0.10997 0.18261 0.71091 0.0
C1587 C 0.07267 0.22821 0.71101 0.0
C1588 C 0.11898 0.20409 0.66097 0.0
O1589 O 0.07706 0.2141 0.66731 0.0
O1590 O 0.06651 0.18563 0.67135 0.0
C1591 C 0.05094 0.15385 0.68996 0.0
N1592 N 0.07385 0.15115 0.68844 0.0
C1593 C 0.07836 0.11032 0.68702 0.0
C1594 C 0.03994 0.11244 0.68789 0.0
C1595 C 0.03361 0.13628 0.68935 0.0
C1596 C 0.08702 0.13289 0.68742 0.0
H1597 H 0.04517 0.16829 0.69065 0.0
C1598 C 0.06602 0.20052 0.66141 0.0
O1599 O 0.08706 0.23626 0.70193 0.0
O1600 O 0.0707 0.20978 0.70972 0.0
N1601 N 0.11018 0.15339 0.67722 0.0
C1602 C 0.12876 0.15821 0.67716 0.0
C1603 C 0.14196 0.14381 0.67435 0.0
C1604 C 0.1354 0.12499 0.6707 0.0
C1605 C 0.11709 0.1201 0.67649 0.0
C1606 C 0.10484 0.1353 0.68064 0.0
H1607 H 0.13306 0.17307 0.67871 0.0
O1608 O 0.11154 0.20025 0.71682 0.0
O1609 O 0.09777 0.18222 0.6967 0.0
O1610 O 0.11773 0.21313 0.67691 0.0
O1611 O 0.10739 0.18937 0.65764 0.0
C1612 C 0.11159 0.10091 0.67869 0.0
C1613 C 0.09297 0.09591 0.68399 0.0
H1614 H 0.02861 0.10148 0.68696 0.0
H1615 H 0.01852 0.14026 0.68986 0.0
H1616 H 0.15659 0.14814 0.67585 0.0
H1617 H 0.14419 0.11368 0.66522 0.0
H1618 H 0.12191 0.08946 0.67594 0.0
H1619 H 0.09042 0.08081 0.68399 0.0
Mn1620 Mn 0.46389 0.33706 0.55492 0.0
Mn1621 Mn 0.4235 0.34088 0.57826 0.0
C1622 C 0.43724 0.35528 0.5394 0.0
C1623 C 0.4824 0.32012 0.53337 0.0
C1624 C 0.46152 0.3649 0.58824 0.0
O1625 O 0.4667 0.31596 0.57735 0.0
O1626 O 0.43664 0.31801 0.58798 0.0
C1627 C 0.40351 0.30221 0.57074 0.0
N1628 N 0.40259 0.32487 0.56876 0.0
C1629 C 0.36227 0.33265 0.5695 0.0
C1630 C 0.3619 0.29457 0.57299 0.0
C1631 C 0.38494 0.2866 0.57296 0.0
C1632 C 0.38553 0.33939 0.56807 0.0
H1633 H 0.4175 0.29559 0.57043 0.0
C1634 C 0.45282 0.3098 0.5881 0.0
O1635 O 0.4902 0.33156 0.54596 0.0
O1636 O 0.46406 0.31671 0.53495 0.0
N1637 N 0.40863 0.36186 0.57079 0.0
C1638 C 0.41472 0.38003 0.56935 0.0
C1639 C 0.40144 0.39444 0.57204 0.0
C1640 C 0.38239 0.38954 0.57733 0.0
C1641 C 0.37585 0.37129 0.57416 0.0
C1642 C 0.38983 0.35763 0.57072 0.0
H1643 H 0.42988 0.38307 0.56712 0.0
O1644 O 0.45509 0.35705 0.53422 0.0
O1645 O 0.43569 0.34224 0.55316 0.0
O1646 O 0.47124 0.35968 0.57364 0.0
O1647 O 0.44459 0.35777 0.5905 0.0
C1648 C 0.35609 0.36714 0.57352 0.0
C1649 C 0.34938 0.34858 0.5703 0.0
H1650 H 0.35008 0.2845 0.57387 0.0
H1651 H 0.38778 0.27131 0.57391 0.0
H1652 H 0.40687 0.40865 0.5697 0.0
H1653 H 0.3717 0.39922 0.58239 0.0
H1654 H 0.34557 0.37864 0.57515 0.0
H1655 H 0.33438 0.34738 0.56911 0.0
Mn1656 Mn 0.4019 0.70607 0.29575 0.0
Mn1657 Mn 0.3912 0.66826 0.31931 0.0
C1658 C 0.38245 0.68234 0.27849 0.0
C1659 C 0.42623 0.71919 0.27739 0.0
C1660 C 0.37229 0.70709 0.32653 0.0
O1661 O 0.41888 0.70785 0.32148 0.0
O1662 O 0.41723 0.67685 0.3278 0.0
C1663 C 0.41819 0.64217 0.29433 0.0
N1664 N 0.40202 0.64566 0.30985 0.0
C1665 C 0.39276 0.60902 0.32388 0.0
C1666 C 0.42029 0.59964 0.2977 0.0
C1667 C 0.42771 0.62072 0.28771 0.0
C1668 C 0.38996 0.63278 0.3234 0.0
H1669 H 0.42406 0.65474 0.2872 0.0
C1670 C 0.42461 0.6932 0.33125 0.0
O1671 O 0.41382 0.7302 0.28626 0.0
O1672 O 0.42514 0.70086 0.28035 0.0
N1673 N 0.367 0.65695 0.31458 0.0
C1674 C 0.34759 0.66552 0.30672 0.0
C1675 C 0.32496 0.65822 0.31197 0.0
C1676 C 0.32107 0.64027 0.32793 0.0
C1677 C 0.35592 0.62719 0.34028 0.0
C1678 C 0.37269 0.64038 0.32837 0.0
H1679 H 0.34848 0.67954 0.30023 0.0
O1680 O 0.38458 0.69964 0.27192 0.0
O1681 O 0.39239 0.67986 0.2943 0.0
O1682 O 0.37794 0.71532 0.31103 0.0
O1683 O 0.37866 0.69068 0.33173 0.0
C1684 C 0.36413 0.60947 0.34743 0.0
C1685 C 0.38085 0.60079 0.33903 0.0
H1686 H 0.41408 0.59776 0.30403 0.0
H1687 H 0.43887 0.62041 0.27681 0.0
H1688 H 0.31279 0.66582 0.30592 0.0
H1689 H 0.30771 0.63593 0.33175 0.0
H1690 H 0.35679 0.60101 0.3583 0.0
H1691 H 0.38471 0.58745 0.34526 0.0
Mn1692 Mn 0.59424 0.77763 0.79868 0.0
Mn1693 Mn 0.59468 0.81281 0.82699 0.0
C1694 C 0.61353 0.80572 0.78872 0.0
C1695 C 0.57363 0.7645 0.77643 0.0
C1696 C 0.61913 0.7752 0.83297 0.0
O1697 O 0.57469 0.77046 0.82193 0.0
O1698 O 0.56934 0.80076 0.8275 0.0
C1699 C 0.56125 0.83393 0.80473 0.0
N1700 N 0.58182 0.835 0.81511 0.0
C1701 C 0.58745 0.87515 0.82136 0.0
C1702 C 0.55247 0.87606 0.8044 0.0
C1703 C 0.5461 0.85269 0.79918 0.0
C1704 C 0.59425 0.85179 0.8228 0.0
H1705 H 0.55573 0.81982 0.80103 0.0
C1706 C 0.56524 0.78357 0.83097 0.0
O1707 O 0.58643 0.75381 0.78514 0.0
O1708 O 0.57274 0.78256 0.78087 0.0
N1709 N 0.61788 0.8264 0.82814 0.0
C1710 C 0.63679 0.8169 0.83626 0.0
C1711 C 0.65097 0.84037 0.86296 0.0
C1712 C 0.63662 0.85974 0.86456 0.0
C1713 C 0.61761 0.86229 0.84986 0.0
C1714 C 0.60957 0.84651 0.83337 0.0
H1715 H 0.64148 0.80315 0.83101 0.0
O1716 O 0.61418 0.78982 0.77892 0.0
O1717 O 0.60089 0.80415 0.80233 0.0
O1718 O 0.61667 0.76914 0.81577 0.0
O1719 O 0.60868 0.78936 0.83975 0.0
C1720 C 0.61152 0.88115 0.84737 0.0
C1721 C 0.59941 0.88787 0.83255 0.0
H1722 H 0.54213 0.88772 0.80184 0.0
H1723 H 0.53226 0.84975 0.79256 0.0
H1724 H 0.66098 0.83794 0.87442 0.0
H1725 H 0.64023 0.87106 0.8747 0.0
H1726 H 0.61841 0.89138 0.8564 0.0
H1727 H 0.59812 0.90329 0.83191 0.0
Mn1728 Mn 0.55226 0.52684 0.64873 0.0
Mn1729 Mn 0.57227 0.56683 0.65283 0.0
C1730 C 0.53564 0.55411 0.63208 0.0
C1731 C 0.53452 0.50833 0.66993 0.0
C1732 C 0.58541 0.53214 0.62405 0.0
O1733 O 0.57822 0.52251 0.66596 0.0
O1734 O 0.57438 0.5512 0.67608 0.0
C1735 C 0.55721 0.58371 0.69145 0.0
N1736 N 0.55802 0.586 0.66847 0.0
C1737 C 0.55953 0.62682 0.6633 0.0
C1738 C 0.55996 0.62523 0.70173 0.0
C1739 C 0.55857 0.60154 0.70845 0.0
C1740 C 0.55878 0.60409 0.65498 0.0
H1741 H 0.55646 0.56941 0.69752 0.0
C1742 C 0.58412 0.53619 0.67687 0.0
O1743 O 0.54367 0.5003 0.65559 0.0
O1744 O 0.53572 0.5268 0.67159 0.0
N1745 N 0.56951 0.5833 0.63228 0.0
C1746 C 0.5702 0.57835 0.6138 0.0
C1747 C 0.57384 0.59259 0.60063 0.0
C1748 C 0.57741 0.61145 0.60711 0.0
C1749 C 0.57063 0.61657 0.62505 0.0
C1750 C 0.56593 0.60146 0.63732 0.0
H1751 H 0.56855 0.56348 0.60959 0.0
O1752 O 0.52949 0.53653 0.63054 0.0
O1753 O 0.54951 0.55451 0.64466 0.0
O1754 O 0.56937 0.52323 0.62511 0.0
O1755 O 0.58863 0.54696 0.63556 0.0
C1756 C 0.56783 0.63583 0.63007 0.0
C1757 C 0.56192 0.64107 0.64843 0.0
H1758 H 0.56154 0.63632 0.71285 0.0
H1759 H 0.55859 0.5978 0.7236 0.0
H1760 H 0.57283 0.58812 0.58604 0.0
H1761 H 0.58347 0.62258 0.59836 0.0
H1762 H 0.57046 0.64712 0.61957 0.0
H1763 H 0.56079 0.65626 0.65057 0.0
Mn1764 Mn 0.21194 0.29561 0.89727 0.0
Mn1765 Mn 0.18022 0.32477 0.89873 0.0
C1766 C 0.1857 0.28801 0.87499 0.0
C1767 C 0.2207 0.27287 0.91954 0.0
C1768 C 0.2186 0.32915 0.8721 0.0
O1769 O 0.21565 0.31782 0.91945 0.0
O1770 O 0.2032 0.34079 0.90162 0.0
C1771 C 0.15824 0.30444 0.93116 0.0
N1772 N 0.15727 0.31329 0.90996 0.0
C1773 C 0.11702 0.31859 0.90348 0.0
C1774 C 0.11591 0.30389 0.93942 0.0
C1775 C 0.13934 0.29955 0.94643 0.0
C1776 C 0.14044 0.32051 0.89699 0.0
H1777 H 0.17247 0.30178 0.93699 0.0
C1778 C 0.21185 0.33599 0.91736 0.0
O1779 O 0.23358 0.28082 0.90837 0.0
O1780 O 0.20287 0.27796 0.91751 0.0
N1781 N 0.16683 0.3301 0.87596 0.0
C1782 C 0.17631 0.33752 0.85678 0.0
C1783 C 0.15072 0.35942 0.83905 0.0
C1784 C 0.13038 0.35978 0.85217 0.0
C1785 C 0.12841 0.34653 0.87226 0.0
C1786 C 0.14566 0.33281 0.88257 0.0
H1787 H 0.19022 0.33314 0.85249 0.0
O1788 O 0.20083 0.27695 0.87551 0.0
O1789 O 0.1876 0.30164 0.88746 0.0
O1790 O 0.22457 0.31214 0.87579 0.0
O1791 O 0.20434 0.33656 0.88257 0.0
C1792 C 0.10948 0.34217 0.87724 0.0
C1793 C 0.10384 0.328 0.89043 0.0
H1794 H 0.10412 0.30163 0.94967 0.0
H1795 H 0.14221 0.29399 0.96072 0.0
H1796 H 0.15259 0.37059 0.82851 0.0
H1797 H 0.11827 0.36834 0.84726 0.0
H1798 H 0.09833 0.34893 0.86889 0.0
H1799 H 0.08849 0.32605 0.89103 0.0
Mn1800 Mn 0.44467 0.95543 0.14797 0.0
Mn1801 Mn 0.42582 0.91337 0.13991 0.0
C1802 C 0.46237 0.93595 0.12549 0.0
C1803 C 0.46392 0.97312 0.16847 0.0
C1804 C 0.4167 0.94819 0.11419 0.0
O1805 O 0.42369 0.95381 0.16971 0.0
O1806 O 0.40854 0.92975 0.15601 0.0
C1807 C 0.43511 0.90387 0.18427 0.0
N1808 N 0.43244 0.89725 0.16239 0.0
C1809 C 0.43034 0.85639 0.165 0.0
C1810 C 0.43383 0.86452 0.20237 0.0
C1811 C 0.43566 0.88933 0.20449 0.0
C1812 C 0.43028 0.8771 0.15278 0.0
H1813 H 0.43628 0.91917 0.18698 0.0
C1814 C 0.40924 0.94262 0.16894 0.0
O1815 O 0.45119 0.98164 0.15754 0.0
O1816 O 0.46461 0.95455 0.16793 0.0
N1817 N 0.43616 0.89242 0.12533 0.0
C1818 C 0.45205 0.89157 0.11463 0.0
C1819 C 0.46325 0.87452 0.11418 0.0
C1820 C 0.454 0.85753 0.11709 0.0
C1821 C 0.43626 0.85808 0.1258 0.0
C1822 C 0.43096 0.87593 0.13368 0.0
H1823 H 0.45054 0.89955 0.10212 0.0
O1824 O 0.46498 0.95424 0.12717 0.0
O1825 O 0.45028 0.92871 0.13881 0.0
O1826 O 0.42369 0.96063 0.12615 0.0
O1827 O 0.41873 0.9299 0.11727 0.0
C1828 C 0.42946 0.84129 0.13329 0.0
C1829 C 0.42686 0.84016 0.15277 0.0
H1830 H 0.43353 0.8555 0.2153 0.0
H1831 H 0.43709 0.89579 0.21863 0.0
H1832 H 0.4774 0.87274 0.10875 0.0
H1833 H 0.46173 0.84447 0.11447 0.0
H1834 H 0.43032 0.82824 0.12497 0.0
H1835 H 0.4232 0.82642 0.15713 0.0
Mn1836 Mn 0.78054 0.19512 0.39852 0.0
Mn1837 Mn 0.8201 0.17383 0.40247 0.0
C1838 C 0.80843 0.21124 0.3825 0.0
C1839 C 0.76032 0.21184 0.41881 0.0
C1840 C 0.78512 0.16236 0.37348 0.0
O1841 O 0.7759 0.169 0.41553 0.0
O1842 O 0.80479 0.17171 0.42601 0.0
C1843 C 0.8382 0.18886 0.44087 0.0
N1844 N 0.84013 0.1871 0.41793 0.0
C1845 C 0.8808 0.18396 0.41223 0.0
C1846 C 0.87992 0.18511 0.45064 0.0
C1847 C 0.8563 0.18759 0.45767 0.0
C1848 C 0.85797 0.18524 0.40425 0.0
H1849 H 0.82395 0.19021 0.447 0.0
C1850 C 0.78926 0.1627 0.4267 0.0
O1851 O 0.75359 0.20265 0.40388 0.0
O1852 O 0.77883 0.2117 0.42155 0.0
N1853 N 0.83632 0.17621 0.38163 0.0
C1854 C 0.83111 0.1759 0.36318 0.0
C1855 C 0.84506 0.17206 0.34974 0.0
C1856 C 0.86383 0.16756 0.35589 0.0
C1857 C 0.86945 0.1735 0.37396 0.0
C1858 C 0.85474 0.17857 0.38653 0.0
H1859 H 0.81627 0.17817 0.35912 0.0
O1860 O 0.79095 0.21779 0.3808 0.0
O1861 O 0.80849 0.19742 0.3952 0.0
O1862 O 0.77721 0.1788 0.37445 0.0
O1863 O 0.79952 0.15829 0.38524 0.0
C1864 C 0.88889 0.17509 0.37884 0.0
C1865 C 0.89467 0.18046 0.3972 0.0
H1866 H 0.89119 0.18377 0.46161 0.0
H1867 H 0.8528 0.18832 0.47287 0.0
H1868 H 0.84047 0.1735 0.33522 0.0
H1869 H 0.87462 0.16137 0.34683 0.0
H1870 H 0.89991 0.17195 0.36819 0.0
H1871 H 0.90989 0.18029 0.39922 0.0
Mn1872 Mn 0.55549 0.46454 0.33404 0.0
Mn1873 Mn 0.57695 0.42296 0.33497 0.0
C1874 C 0.53628 0.43912 0.34936 0.0
C1875 C 0.53791 0.48362 0.31324 0.0
C1876 C 0.58422 0.45639 0.36606 0.0
O1877 O 0.58106 0.4688 0.31774 0.0
O1878 O 0.58998 0.43842 0.31592 0.0
C1879 C 0.57755 0.40703 0.29302 0.0
N1880 N 0.56848 0.40516 0.314 0.0
C1881 C 0.56354 0.36451 0.31804 0.0
C1882 C 0.58057 0.36527 0.28389 0.0
C1883 C 0.58448 0.38886 0.27783 0.0
C1884 C 0.56142 0.38746 0.32568 0.0
H1885 H 0.58013 0.42127 0.28772 0.0
C1886 C 0.59189 0.4556 0.31075 0.0
O1887 O 0.54733 0.49125 0.32763 0.0
O1888 O 0.53997 0.46536 0.31043 0.0
N1889 N 0.56612 0.40644 0.35183 0.0
C1890 C 0.56308 0.41116 0.37 0.0
C1891 C 0.55396 0.39824 0.3811 0.0
C1892 C 0.55012 0.37947 0.37443 0.0
C1893 C 0.55396 0.37486 0.35602 0.0
C1894 C 0.55998 0.3897 0.34441 0.0
H1895 H 0.56534 0.42547 0.37535 0.0
O1896 O 0.5316 0.45709 0.34988 0.0
O1897 O 0.55167 0.43655 0.33778 0.0
O1898 O 0.571 0.46763 0.35963 0.0
O1899 O 0.58832 0.44028 0.3571 0.0
C1900 C 0.55193 0.35603 0.34979 0.0
C1901 C 0.55659 0.35057 0.33142 0.0
H1902 H 0.58318 0.35429 0.27294 0.0
H1903 H 0.59052 0.39224 0.26387 0.0
H1904 H 0.55127 0.40367 0.39482 0.0
H1905 H 0.54378 0.36832 0.38273 0.0
H1906 H 0.54862 0.3451 0.36013 0.0
H1907 H 0.55568 0.3355 0.32887 0.0
Mn1908 Mn 0.275 0.30677 0.58526 0.0
Mn1909 Mn 0.31626 0.32415 0.6009 0.0
C1910 C 0.29797 0.287 0.60432 0.0
C1911 C 0.25811 0.2869 0.56471 0.0
C1912 C 0.27538 0.33362 0.61994 0.0
O1913 O 0.2775 0.33136 0.56662 0.0
O1914 O 0.30553 0.33985 0.57922 0.0
C1915 C 0.33469 0.31262 0.56168 0.0
N1916 N 0.33702 0.31496 0.58437 0.0
C1917 C 0.3776 0.31525 0.59032 0.0
C1918 C 0.37642 0.31159 0.5515 0.0
C1919 C 0.35263 0.31106 0.5448 0.0
C1920 C 0.35467 0.31567 0.59805 0.0
H1921 H 0.32016 0.31276 0.55599 0.0
C1922 C 0.29214 0.34287 0.56703 0.0
O1923 O 0.24938 0.29994 0.57488 0.0
O1924 O 0.27673 0.2883 0.56344 0.0
N1925 N 0.32994 0.3131 0.62308 0.0
C1926 C 0.31821 0.31739 0.64186 0.0
C1927 C 0.32342 0.3328 0.65989 0.0
C1928 C 0.34562 0.34591 0.65978 0.0
C1929 C 0.36563 0.33425 0.62845 0.0
C1930 C 0.35107 0.31789 0.61657 0.0
H1931 H 0.30382 0.31149 0.64281 0.0
O1932 O 0.2797 0.28323 0.60404 0.0
O1933 O 0.30188 0.30205 0.59425 0.0
O1934 O 0.26497 0.32438 0.60801 0.0
O1935 O 0.29383 0.33286 0.61789 0.0
C1936 C 0.38472 0.3348 0.6206 0.0
C1937 C 0.39082 0.32305 0.60473 0.0
H1938 H 0.38762 0.31226 0.54038 0.0
H1939 H 0.3489 0.31017 0.52967 0.0
H1940 H 0.30938 0.33227 0.66965 0.0
H1941 H 0.33278 0.34142 0.66355 0.0
H1942 H 0.39569 0.34322 0.62737 0.0
H1943 H 0.40611 0.32324 0.60248 0.0
Mn1944 Mn 0.44511 0.03743 0.84428 0.0
Mn1945 Mn 0.42312 0.07654 0.84136 0.0
C1946 C 0.4614 0.06545 0.85985 0.0
C1947 C 0.46295 0.01879 0.82361 0.0
C1948 C 0.4135 0.04144 0.87095 0.0
O1949 O 0.41841 0.03194 0.82834 0.0
O1950 O 0.42037 0.06082 0.81816 0.0
C1951 C 0.43577 0.09425 0.80212 0.0
N1952 N 0.43556 0.09648 0.8251 0.0
C1953 C 0.43209 0.13717 0.83044 0.0
C1954 C 0.43061 0.13564 0.79208 0.0
C1955 C 0.43303 0.11202 0.78523 0.0
C1956 C 0.43431 0.11449 0.83864 0.0
H1957 H 0.43691 0.07998 0.79604 0.0
C1958 C 0.41123 0.04538 0.81786 0.0
O1959 O 0.45406 0.0111 0.83827 0.0
O1960 O 0.46089 0.03709 0.82075 0.0
N1961 N 0.42614 0.09313 0.86181 0.0
C1962 C 0.4268 0.08814 0.88028 0.0
C1963 C 0.42361 0.10224 0.89373 0.0
C1964 C 0.41873 0.1209 0.88762 0.0
C1965 C 0.42388 0.12633 0.86927 0.0
C1966 C 0.42839 0.11147 0.85664 0.0
H1967 H 0.42942 0.07338 0.88434 0.0
O1968 O 0.4683 0.04814 0.8612 0.0
O1969 O 0.44698 0.06529 0.84786 0.0
O1970 O 0.42981 0.0334 0.86891 0.0
O1971 O 0.40876 0.05593 0.85955 0.0
C1972 C 0.42543 0.1457 0.86417 0.0
C1973 C 0.42977 0.15126 0.84548 0.0
H1974 H 0.42846 0.1467 0.78104 0.0
H1975 H 0.43284 0.10831 0.77007 0.0
H1976 H 0.42597 0.09785 0.90818 0.0
H1977 H 0.4129 0.13177 0.89685 0.0
H1978 H 0.42314 0.15683 0.87492 0.0
H1979 H 0.43003 0.16649 0.84337 0.0
Mn1980 Mn 0.71829 0.18678 0.08529 0.0
Mn1981 Mn 0.68451 0.15674 0.08966 0.0
C1982 C 0.6906 0.19903 0.10455 0.0
C1983 C 0.73026 0.20938 0.06417 0.0
C1984 C 0.72211 0.15362 0.11323 0.0
O1985 O 0.72458 0.16357 0.06492 0.0
O1986 O 0.69564 0.1507 0.06508 0.0
C1987 C 0.66376 0.17071 0.05248 0.0
N1988 N 0.66282 0.16811 0.07538 0.0
C1989 C 0.62371 0.17781 0.08394 0.0
C1990 C 0.62288 0.18144 0.04549 0.0
C1991 C 0.64557 0.17663 0.03702 0.0
C1992 C 0.64668 0.17111 0.09041 0.0
H1993 H 0.67744 0.16969 0.04545 0.0
C1994 C 0.71203 0.15178 0.05772 0.0
O1995 O 0.74161 0.20074 0.0764 0.0
O1996 O 0.7124 0.20412 0.0636 0.0
N1997 N 0.67239 0.1585 0.11319 0.0
C1998 C 0.68034 0.14805 0.13241 0.0
C1999 C 0.65068 0.14633 0.15645 0.0
C2000 C 0.63237 0.15715 0.14648 0.0
C2001 C 0.6326 0.16523 0.12409 0.0
C2002 C 0.65133 0.16609 0.10924 0.0
H2003 H 0.69394 0.14095 0.13346 0.0
O2004 O 0.70712 0.20769 0.10439 0.0
O2005 O 0.69175 0.18367 0.09319 0.0
O2006 O 0.72796 0.17058 0.10878 0.0
O2007 O 0.70802 0.14569 0.10382 0.0
C2008 C 0.61508 0.17281 0.11746 0.0
C2009 C 0.6105 0.17878 0.09924 0.0
H2010 H 0.61144 0.18526 0.03531 0.0
H2011 H 0.64881 0.17853 0.02189 0.0
H2012 H 0.64902 0.14159 0.17133 0.0
H2013 H 0.62562 0.16626 0.15694 0.0
H2014 H 0.60315 0.17404 0.12655 0.0
H2015 H 0.5959 0.18377 0.09774 0.0
Mn2016 Mn 0.65119 0.05422 0.02502 0.0
Mn2017 Mn 0.64892 0.08424 0.06096 0.0
C2018 C 0.63417 0.04342 0.05468 0.0
C2019 C 0.66637 0.0277 0.01187 0.0
C2020 C 0.62286 0.08769 0.02326 0.0
O2021 O 0.67374 0.0743 0.01782 0.0
O2022 O 0.66907 0.09286 0.04335 0.0
C2023 C 0.68778 0.0916 0.07894 0.0
N2024 N 0.66789 0.08054 0.08087 0.0
C2025 C 0.66621 0.07215 0.12092 0.0
C2026 C 0.69992 0.09006 0.11885 0.0
C2027 C 0.70391 0.09667 0.09607 0.0
C2028 C 0.65686 0.07222 0.09848 0.0
H2029 H 0.69102 0.09899 0.06605 0.0
C2030 C 0.67832 0.08909 0.02817 0.0
O2031 O 0.65513 0.0385 0.00151 0.0
O2032 O 0.67068 0.03375 0.02893 0.0
N2033 N 0.63031 0.07786 0.07995 0.0
C2034 C 0.61146 0.07466 0.07755 0.0
C2035 C 0.59937 0.07689 0.09297 0.0
C2036 C 0.60739 0.08002 0.11132 0.0
C2037 C 0.62648 0.0756 0.11409 0.0
C2038 C 0.6378 0.07455 0.09751 0.0
H2039 H 0.60591 0.06955 0.06398 0.0
O2040 O 0.63076 0.03652 0.03777 0.0
O2041 O 0.64763 0.05701 0.05369 0.0
O2042 O 0.62868 0.07267 0.0144 0.0
O2043 O 0.63026 0.09102 0.0397 0.0
C2044 C 0.63345 0.07042 0.13238 0.0
C2045 C 0.65285 0.06662 0.13538 0.0
H2046 H 0.71068 0.09276 0.12927 0.0
H2047 H 0.71681 0.10465 0.09239 0.0
H2048 H 0.58455 0.07384 0.09009 0.0
H2049 H 0.59937 0.08348 0.12393 0.0
H2050 H 0.6236 0.06892 0.14445 0.0
H2051 H 0.65699 0.06199 0.14935 0.0
Mn2052 Mn 0.70077 0.40462 0.29019 0.0
Mn2053 Mn 0.67911 0.39896 0.33145 0.0
C2054 C 0.71536 0.38345 0.31346 0.0
C2055 C 0.72028 0.42507 0.27332 0.0
C2056 C 0.67102 0.37183 0.29507 0.0
O2057 O 0.67932 0.4258 0.28863 0.0
O2058 O 0.66292 0.41533 0.31378 0.0
C2059 C 0.67639 0.44222 0.34245 0.0
N2060 N 0.68652 0.4225 0.34696 0.0
C2061 C 0.6862 0.42146 0.38808 0.0
C2062 C 0.665 0.45278 0.38259 0.0
C2063 C 0.66445 0.4572 0.35818 0.0
C2064 C 0.69313 0.41344 0.36607 0.0
H2065 H 0.67808 0.44696 0.32791 0.0
C2066 C 0.66443 0.42654 0.29933 0.0
O2067 O 0.70906 0.41294 0.26432 0.0
O2068 O 0.7203 0.42495 0.29196 0.0
N2069 N 0.6927 0.38483 0.35126 0.0
C2070 C 0.68802 0.36681 0.3562 0.0
C2071 C 0.69119 0.36095 0.37537 0.0
C2072 C 0.70469 0.36962 0.38646 0.0
C2073 C 0.70863 0.38839 0.38245 0.0
C2074 C 0.7006 0.39603 0.36528 0.0
H2075 H 0.6816 0.35794 0.34548 0.0
O2076 O 0.7209 0.38363 0.29565 0.0
O2077 O 0.70293 0.39744 0.31723 0.0
O2078 O 0.68069 0.38289 0.28376 0.0
O2079 O 0.67079 0.37522 0.31396 0.0
C2080 C 0.71168 0.39956 0.39874 0.0
C2081 C 0.69794 0.41327 0.40322 0.0
H2082 H 0.66199 0.46528 0.39144 0.0
H2083 H 0.65841 0.47061 0.35297 0.0
H2084 H 0.68292 0.351 0.38314 0.0
H2085 H 0.70836 0.36305 0.39995 0.0
H2086 H 0.72065 0.3941 0.41032 0.0
H2087 H 0.69851 0.41791 0.41803 0.0
Mn2088 Mn 0.35258 0.44923 0.53287 0.0
Mn2089 Mn 0.34501 0.43067 0.57236 0.0
C2090 C 0.36915 0.46557 0.56075 0.0
C2091 C 0.33238 0.46746 0.51398 0.0
C2092 C 0.37461 0.41478 0.53896 0.0
O2093 O 0.33447 0.42379 0.52798 0.0
O2094 O 0.32207 0.42876 0.55557 0.0
C2095 C 0.30797 0.45358 0.58723 0.0
N2096 N 0.32992 0.44715 0.59081 0.0
C2097 C 0.33178 0.44205 0.63156 0.0
C2098 C 0.29419 0.45013 0.6283 0.0
C2099 C 0.28959 0.45478 0.60414 0.0
C2100 C 0.34156 0.44266 0.60954 0.0
H2101 H 0.30343 0.45557 0.57244 0.0
C2102 C 0.32225 0.41838 0.54076 0.0
O2103 O 0.3466 0.45793 0.50614 0.0
O2104 O 0.33046 0.4666 0.53242 0.0
N2105 N 0.36494 0.43229 0.58957 0.0
C2106 C 0.38364 0.43092 0.58558 0.0
C2107 C 0.39574 0.42556 0.60024 0.0
C2108 C 0.38781 0.42074 0.61822 0.0
C2109 C 0.37007 0.4286 0.62291 0.0
C2110 C 0.35891 0.43468 0.60753 0.0
H2111 H 0.38862 0.43262 0.57095 0.0
O2112 O 0.37166 0.47134 0.54316 0.0
O2113 O 0.35591 0.45231 0.56047 0.0
O2114 O 0.3753 0.4309 0.53016 0.0
O2115 O 0.36212 0.4126 0.55331 0.0
C2116 C 0.36399 0.43082 0.64191 0.0
C2117 C 0.3454 0.43679 0.64633 0.0
H2118 H 0.28237 0.45033 0.63875 0.0
H2119 H 0.27506 0.45825 0.59956 0.0
H2120 H 0.41054 0.42551 0.59658 0.0
H2121 H 0.39568 0.41301 0.62906 0.0
H2122 H 0.37367 0.42728 0.65369 0.0
H2123 H 0.34231 0.43644 0.66132 0.0
Mn2124 Mn 0.29759 0.09189 0.78767 0.0
Mn2125 Mn 0.31969 0.08912 0.82648 0.0
C2126 C 0.28054 0.10585 0.81599 0.0
C2127 C 0.28053 0.07037 0.76928 0.0
C2128 C 0.32829 0.1197 0.79225 0.0
O2129 O 0.32482 0.07726 0.7819 0.0
O2130 O 0.32352 0.06619 0.81059 0.0
C2131 C 0.30661 0.04938 0.84317 0.0
N2132 N 0.30745 0.07229 0.84589 0.0
C2133 C 0.31001 0.07684 0.88666 0.0
C2134 C 0.31042 0.03848 0.88453 0.0
C2135 C 0.30841 0.0321 0.86071 0.0
C2136 C 0.30865 0.08545 0.86414 0.0
H2137 H 0.3057 0.04368 0.82872 0.0
C2138 C 0.33229 0.0665 0.79494 0.0
O2139 O 0.28848 0.08548 0.76139 0.0
O2140 O 0.28306 0.06765 0.78751 0.0
N2141 N 0.31593 0.10926 0.84326 0.0
C2142 C 0.31377 0.12778 0.83868 0.0
C2143 C 0.31607 0.14109 0.85311 0.0
C2144 C 0.32175 0.13479 0.87156 0.0
C2145 C 0.31825 0.11599 0.87658 0.0
C2146 C 0.31447 0.10351 0.8615 0.0
H2147 H 0.31075 0.13206 0.82403 0.0
O2148 O 0.27354 0.10733 0.79873 0.0
O2149 O 0.29572 0.09492 0.81539 0.0
O2150 O 0.312 0.1173 0.78411 0.0
O2151 O 0.33349 0.10803 0.80633 0.0
C2152 C 0.31692 0.1104 0.89586 0.0
C2153 C 0.31259 0.09159 0.90104 0.0
H2154 H 0.31217 0.02721 0.89543 0.0
H2155 H 0.30835 0.01701 0.85672 0.0
H2156 H 0.31272 0.15552 0.84912 0.0
H2157 H 0.32674 0.14394 0.88278 0.0
H2158 H 0.31904 0.12094 0.90722 0.0
H2159 H 0.31249 0.08917 0.91624 0.0
Mn2160 Mn 0.64406 0.9326 0.97105 0.0
Mn2161 Mn 0.64972 0.9198 0.92859 0.0
C2162 C 0.62786 0.95305 0.94603 0.0
C2163 C 0.66122 0.94898 0.99402 0.0
C2164 C 0.62175 0.89924 0.96028 0.0
O2165 O 0.66257 0.90719 0.9712 0.0
O2166 O 0.67386 0.91449 0.9431 0.0
C2167 C 0.6838 0.94912 0.91403 0.0
N2168 N 0.66305 0.93926 0.91125 0.0
C2169 C 0.66015 0.93421 0.87073 0.0
C2170 C 0.69643 0.94735 0.87211 0.0
C2171 C 0.7013 0.9529 0.89627 0.0
C2172 C 0.65141 0.93349 0.89303 0.0
H2173 H 0.68858 0.95151 0.9287 0.0
C2174 C 0.67406 0.9029 0.95721 0.0
O2175 O 0.64791 0.93669 -0.00101 0.0
O2176 O 0.66564 0.95014 0.97593 0.0
N2177 N 0.62844 0.92358 0.91366 0.0
C2178 C 0.6098 0.9226 0.91857 0.0
C2179 C 0.59671 0.91917 0.90406 0.0
C2180 C 0.6038 0.91477 0.88559 0.0
C2181 C 0.62184 0.92138 0.88059 0.0
C2182 C 0.634 0.92572 0.89557 0.0
H2183 H 0.60547 0.92321 0.93351 0.0
O2184 O 0.62499 0.95591 0.96428 0.0
O2185 O 0.64113 0.93994 0.94428 0.0
O2186 O 0.62126 0.91423 0.97077 0.0
O2187 O 0.63392 0.89884 0.94558 0.0
C2188 C 0.62693 0.9251 0.86159 0.0
C2189 C 0.6454 0.93059 0.85659 0.0
H2190 H 0.7074 0.94983 0.86104 0.0
H2191 H 0.71529 0.9586 0.90024 0.0
H2192 H 0.58191 0.9192 0.90821 0.0
H2193 H 0.59538 0.90842 0.87443 0.0
H2194 H 0.61622 0.924 0.85026 0.0
H2195 H 0.64642 0.93399 0.84186 0.0
Mn2196 Mn 0.79762 0.4 0.20958 0.0
Mn2197 Mn 0.81845 0.40382 0.1704 0.0
C2198 C 0.78053 0.38497 0.18169 0.0
C2199 C 0.78136 0.42158 0.22841 0.0
C2200 C 0.829 0.37354 0.20444 0.0
O2201 O 0.82453 0.41558 0.21486 0.0
O2202 O 0.82109 0.42669 0.1866 0.0
C2203 C 0.8051 0.44325 0.15406 0.0
N2204 N 0.80512 0.42036 0.15141 0.0
C2205 C 0.80778 0.41611 0.10983 0.0
C2206 C 0.80955 0.45445 0.11294 0.0
C2207 C 0.80765 0.46052 0.13673 0.0
C2208 C 0.80584 0.40716 0.13325 0.0
H2209 H 0.80418 0.44907 0.16846 0.0
C2210 C 0.83085 0.42676 0.20162 0.0
O2211 O 0.78952 0.40645 0.23605 0.0
O2212 O 0.78256 0.42388 0.20998 0.0
N2213 N 0.81548 0.38368 0.15335 0.0
C2214 C 0.81484 0.36506 0.15776 0.0
C2215 C 0.81794 0.35208 0.14319 0.0
C2216 C 0.82254 0.35885 0.12461 0.0
C2217 C 0.81726 0.37736 0.11972 0.0
C2218 C 0.81274 0.38939 0.13526 0.0
H2219 H 0.8124 0.3605 0.17242 0.0
O2220 O 0.77387 0.38353 0.1991 0.0
O2221 O 0.79515 0.3966 0.18189 0.0
O2222 O 0.81284 0.37521 0.21294 0.0
O2223 O 0.83338 0.38539 0.19023 0.0
C2224 C 0.81546 0.38279 0.10019 0.0
C2225 C 0.81076 0.4014 0.09441 0.0
H2226 H 0.81203 0.4659 0.10236 0.0
H2227 H 0.80815 0.47555 0.14088 0.0
H2228 H 0.81591 0.33747 0.14726 0.0
H2229 H 0.82817 0.34998 0.11337 0.0
H2230 H 0.81787 0.37221 0.08895 0.0
H2231 H 0.8089 0.41231 0.10309 0.0
Mn2232 Mn 0.33676 0.55043 0.45634 0.0
Mn2233 Mn 0.33663 0.57329 0.41725 0.0
C2234 C 0.3527 0.53319 0.42938 0.0
C2235 C 0.31594 0.53189 0.47403 0.0
C2236 C 0.36452 0.58198 0.4539 0.0
O2237 O 0.32072 0.57677 0.46101 0.0
O2238 O 0.31274 0.5777 0.43086 0.0
C2239 C 0.29788 0.56707 0.39442 0.0
N2240 N 0.32066 0.56356 0.39549 0.0
C2241 C 0.33111 0.56097 0.35572 0.0
C2242 C 0.29383 0.5678 0.35178 0.0
C2243 C 0.28391 0.56973 0.37429 0.0
C2244 C 0.33608 0.5607 0.3796 0.0
H2245 H 0.28995 0.5684 0.4077 0.0
C2246 C 0.31125 0.58482 0.4473 0.0
O2247 O 0.32996 0.54128 0.48232 0.0
O2248 O 0.31314 0.53469 0.45583 0.0
N2249 N 0.35818 0.56784 0.40303 0.0
C2250 C 0.37603 0.56564 0.4103 0.0
C2251 C 0.39098 0.56383 0.39768 0.0
C2252 C 0.38663 0.56473 0.37815 0.0
C2253 C 0.3686 0.56172 0.3714 0.0
C2254 C 0.3543 0.56315 0.3847 0.0
H2255 H 0.37874 0.56496 0.4255 0.0
O2256 O 0.35333 0.52701 0.44697 0.0
O2257 O 0.34095 0.54812 0.42837 0.0
O2258 O 0.36188 0.56558 0.46165 0.0
O2259 O 0.35379 0.58668 0.43907 0.0
C2260 C 0.36535 0.55795 0.35192 0.0
C2261 C 0.34745 0.55817 0.3437 0.0
H2262 H 0.28429 0.5678 0.33921 0.0
H2263 H 0.26855 0.57212 0.37578 0.0
H2264 H 0.40518 0.56198 0.40352 0.0
H2265 H 0.39636 0.56743 0.36757 0.0
H2266 H 0.37715 0.55673 0.34242 0.0
H2267 H 0.34731 0.55734 0.32816 0.0
Mn2268 Mn 0.19504 0.08836 0.71257 0.0
Mn2269 Mn 0.17325 0.08507 0.67375 0.0
C2270 C 0.21168 0.10315 0.68438 0.0
C2271 C 0.21339 0.06749 0.7305 0.0
C2272 C 0.1633 0.11504 0.70804 0.0
O2273 O 0.16841 0.07255 0.71821 0.0
O2274 O 0.17019 0.06189 0.68938 0.0
C2275 C 0.18825 0.046 0.65705 0.0
N2276 N 0.18622 0.06884 0.65441 0.0
C2277 C 0.18372 0.07346 0.61372 0.0
C2278 C 0.18541 0.03511 0.61561 0.0
C2279 C 0.18756 0.02872 0.63941 0.0
C2280 C 0.18444 0.082 0.63625 0.0
H2281 H 0.18936 0.0403 0.67149 0.0
C2282 C 0.16141 0.06162 0.70503 0.0
O2283 O 0.20474 0.08206 0.73867 0.0
O2284 O 0.21046 0.06469 0.71236 0.0
N2285 N 0.1764 0.10549 0.65717 0.0
C2286 C 0.17784 0.1241 0.6618 0.0
C2287 C 0.175 0.13735 0.64739 0.0
C2288 C 0.16961 0.13084 0.62892 0.0
C2289 C 0.17373 0.11218 0.62391 0.0
C2290 C 0.17797 0.09983 0.63894 0.0
H2291 H 0.1806 0.12848 0.67648 0.0
O2292 O 0.21853 0.10482 0.70167 0.0
O2293 O 0.19691 0.09169 0.68491 0.0
O2294 O 0.1796 0.11321 0.71633 0.0
O2295 O 0.15865 0.10325 0.6939 0.0
C2296 C 0.17509 0.10666 0.60464 0.0
C2297 C 0.18018 0.08807 0.59945 0.0
H2298 H 0.18429 0.02382 0.60463 0.0
H2299 H 0.18836 0.01364 0.64332 0.0
H2300 H 0.17754 0.15197 0.6514 0.0
H2301 H 0.16435 0.13974 0.61765 0.0
H2302 H 0.17234 0.11707 0.5933 0.0
H2303 H 0.17989 0.08564 0.58432 0.0
Mn2304 Mn 0.02924 0.1472 0.55277 0.0
Mn2305 Mn 0.06989 0.15179 0.57202 0.0
C2306 C 0.05653 0.13171 0.53531 0.0
C2307 C 0.00871 0.16436 0.53358 0.0
C2308 C 0.036 0.12218 0.58521 0.0
O2309 O 0.02525 0.16448 0.57882 0.0
O2310 O 0.0541 0.17486 0.5751 0.0
C2311 C 0.08648 0.19079 0.55755 0.0
N2312 N 0.08882 0.16783 0.55784 0.0
C2313 C 0.12973 0.16272 0.55829 0.0
C2314 C 0.12811 0.2011 0.5596 0.0
C2315 C 0.10433 0.2078 0.55889 0.0
C2316 C 0.10697 0.15438 0.55788 0.0
H2317 H 0.07212 0.19675 0.55701 0.0
C2318 C 0.03903 0.17534 0.58486 0.0
O2319 O 0.00223 0.15084 0.54487 0.0
O2320 O 0.02656 0.1695 0.5355 0.0
N2321 N 0.08644 0.13138 0.5685 0.0
C2322 C 0.08155 0.11288 0.56891 0.0
C2323 C 0.09593 0.09964 0.57163 0.0
C2324 C 0.11488 0.10602 0.57489 0.0
C2325 C 0.11979 0.12416 0.56854 0.0
C2326 C 0.10453 0.13654 0.56463 0.0
H2327 H 0.06666 0.10863 0.56747 0.0
O2328 O 0.0388 0.12938 0.52992 0.0
O2329 O 0.05714 0.14453 0.54903 0.0
O2330 O 0.02703 0.12328 0.56936 0.0
O2331 O 0.05055 0.134 0.5885 0.0
C2332 C 0.13899 0.12927 0.56533 0.0
C2333 C 0.14408 0.14781 0.5599 0.0
H2334 H 0.13923 0.2122 0.56116 0.0
H2335 H 0.10056 0.22294 0.55925 0.0
H2336 H 0.09144 0.08511 0.5702 0.0
H2337 H 0.12617 0.09705 0.58036 0.0
H2338 H 0.15034 0.11867 0.5672 0.0
H2339 H 0.15927 0.15 0.55842 0.0
Mn2340 Mn 0.52807 0.82758 0.93925 0.0
Mn2341 Mn 0.56645 0.83384 0.91353 0.0
C2342 C 0.55643 0.84274 0.95507 0.0
C2343 C 0.51235 0.80659 0.96 0.0
C2344 C 0.52898 0.86013 0.90966 0.0
O2345 O 0.52288 0.80966 0.91438 0.0
O2346 O 0.55187 0.81338 0.90159 0.0
C2347 C 0.58448 0.79327 0.91597 0.0
N2348 N 0.58683 0.81572 0.9191 0.0
C2349 C 0.62728 0.82146 0.91704 0.0
C2350 C 0.62558 0.78346 0.9118 0.0
C2351 C 0.60206 0.77676 0.9123 0.0
C2352 C 0.60459 0.82925 0.91979 0.0
H2353 H 0.57009 0.78746 0.91645 0.0
C2354 C 0.5357 0.80528 0.90159 0.0
O2355 O 0.50299 0.82012 0.95099 0.0
O2356 O 0.53035 0.80438 0.95569 0.0
N2357 N 0.58269 0.85285 0.9229 0.0
C2358 C 0.57759 0.87076 0.92763 0.0
C2359 C 0.59144 0.88482 0.9268 0.0
C2360 C 0.60996 0.88016 0.91969 0.0
C2361 C 0.6155 0.86133 0.9184 0.0
C2362 C 0.60111 0.84789 0.92039 0.0
H2363 H 0.56279 0.87402 0.93141 0.0
O2364 O 0.5391 0.84421 0.9619 0.0
O2365 O 0.55627 0.83204 0.93935 0.0
O2366 O 0.51978 0.85298 0.92398 0.0
O2367 O 0.54547 0.85296 0.9055 0.0
C2368 C 0.63475 0.85619 0.91562 0.0
C2369 C 0.64052 0.83705 0.91497 0.0
H2370 H 0.63649 0.77246 0.91004 0.0
H2371 H 0.59827 0.76173 0.9105 0.0
H2372 H 0.58701 0.89857 0.93216 0.0
H2373 H 0.62092 0.89021 0.91629 0.0
H2374 H 0.64564 0.8673 0.91366 0.0
H2375 H 0.65474 0.83547 0.91072 0.0
Mn2376 Mn 0.89879 0.27932 0.1911 0.0
Mn2377 Mn 0.90283 0.31911 0.17142 0.0
C2378 C 0.8824 0.30634 0.20812 0.0
C2379 C 0.92015 0.26156 0.2091 0.0
C2380 C 0.87341 0.28485 0.15873 0.0
O2381 O 0.91553 0.27484 0.16494 0.0
O2382 O 0.9261 0.30339 0.1688 0.0
C2383 C 0.94152 0.33519 0.18786 0.0
N2384 N 0.91863 0.33789 0.18602 0.0
C2385 C 0.91413 0.37874 0.18493 0.0
C2386 C 0.95253 0.37666 0.18615 0.0
C2387 C 0.95887 0.35278 0.18752 0.0
C2388 C 0.90548 0.35617 0.18502 0.0
H2389 H 0.94723 0.32073 0.18863 0.0
C2390 C 0.92672 0.2883 0.15913 0.0
O2391 O 0.90592 0.2531 0.20011 0.0
O2392 O 0.92199 0.2799 0.20705 0.0
N2393 N 0.88244 0.33579 0.17432 0.0
C2394 C 0.86388 0.33107 0.17378 0.0
C2395 C 0.85079 0.34553 0.1707 0.0
C2396 C 0.85739 0.36438 0.16738 0.0
C2397 C 0.87557 0.36916 0.17379 0.0
C2398 C 0.88776 0.35386 0.17794 0.0
H2399 H 0.85949 0.31625 0.17537 0.0
O2400 O 0.88103 0.28878 0.21426 0.0
O2401 O 0.89464 0.30679 0.19399 0.0
O2402 O 0.87477 0.27569 0.17459 0.0
O2403 O 0.88511 0.29949 0.15528 0.0
C2404 C 0.88089 0.38829 0.17691 0.0
C2405 C 0.89943 0.39321 0.18262 0.0
H2406 H 0.96385 0.38764 0.18553 0.0
H2407 H 0.97395 0.34881 0.18821 0.0
H2408 H 0.83617 0.34118 0.17192 0.0
H2409 H 0.84857 0.37571 0.16183 0.0
H2410 H 0.87041 0.39972 0.17488 0.0
H2411 H 0.90171 0.40834 0.18409 0.0
Mn2412 Mn 0.462 0.64914 0.44092 0.0
Mn2413 Mn 0.42319 0.65518 0.41979 0.0
C2414 C 0.43369 0.63419 0.45756 0.0
C2415 C 0.48035 0.66935 0.45964 0.0
C2416 C 0.45753 0.6239 0.40831 0.0
O2417 O 0.46767 0.66519 0.41443 0.0
O2418 O 0.43974 0.67777 0.41731 0.0
C2419 C 0.40672 0.69496 0.43617 0.0
N2420 N 0.4041 0.67209 0.43344 0.0
C2421 C 0.36342 0.66734 0.43279 0.0
C2422 C 0.36452 0.70562 0.43476 0.0
C2423 C 0.38867 0.71237 0.4363 0.0
C2424 C 0.38586 0.65901 0.43246 0.0
H2425 H 0.42124 0.70066 0.43646 0.0
C2426 C 0.45493 0.6768 0.40769 0.0
O2427 O 0.4883 0.65489 0.45061 0.0
O2428 O 0.46224 0.67246 0.45684 0.0
N2429 N 0.40577 0.63543 0.42232 0.0
C2430 C 0.41035 0.61699 0.42337 0.0
C2431 C 0.3961 0.60353 0.42034 0.0
C2432 C 0.37716 0.60987 0.41792 0.0
C2433 C 0.37263 0.62798 0.42486 0.0
C2434 C 0.38794 0.64086 0.42653 0.0
H2435 H 0.42503 0.61319 0.42662 0.0
O2436 O 0.45111 0.63213 0.46399 0.0
O2437 O 0.43412 0.64637 0.44323 0.0
O2438 O 0.46553 0.62472 0.42482 0.0
O2439 O 0.44341 0.63632 0.40448 0.0
C2440 C 0.35385 0.63302 0.42993 0.0
C2441 C 0.34901 0.65211 0.43336 0.0
H2442 H 0.35324 0.71666 0.43465 0.0
H2443 H 0.39247 0.72747 0.43732 0.0
H2444 H 0.40043 0.5889 0.42101 0.0
H2445 H 0.36596 0.60098 0.41213 0.0
H2446 H 0.3424 0.62235 0.4294 0.0
H2447 H 0.33373 0.65421 0.43513 0.0
Mn2448 Mn 0.59313 0.70937 0.69076 0.0
Mn2449 Mn 0.5901 0.66969 0.67009 0.0
C2450 C 0.60753 0.68165 0.70851 0.0
C2451 C 0.57219 0.72877 0.70767 0.0
C2452 C 0.62032 0.70369 0.65977 0.0
O2453 O 0.57791 0.71405 0.66362 0.0
O2454 O 0.56702 0.68534 0.66613 0.0
C2455 C 0.55062 0.65325 0.68427 0.0
N2456 N 0.57355 0.65062 0.68313 0.0
C2457 C 0.57826 0.60983 0.68182 0.0
C2458 C 0.53985 0.61176 0.68209 0.0
C2459 C 0.53338 0.63559 0.68341 0.0
C2460 C 0.58679 0.63242 0.68228 0.0
H2461 H 0.54486 0.6677 0.68482 0.0
C2462 C 0.5671 0.70066 0.65679 0.0
O2463 O 0.58717 0.73607 0.69895 0.0
O2464 O 0.56917 0.71049 0.70576 0.0
N2465 N 0.61044 0.65316 0.6741 0.0
C2466 C 0.62901 0.65789 0.67577 0.0
C2467 C 0.64238 0.64347 0.67373 0.0
C2468 C 0.6361 0.62478 0.66887 0.0
C2469 C 0.61734 0.61982 0.67282 0.0
C2470 C 0.60481 0.63496 0.67622 0.0
H2471 H 0.63326 0.67266 0.67818 0.0
O2472 O 0.6091 0.69917 0.71483 0.0
O2473 O 0.59616 0.68165 0.69363 0.0
O2474 O 0.61826 0.71231 0.67582 0.0
O2475 O 0.60862 0.68941 0.65528 0.0
C2476 C 0.61183 0.6006 0.67482 0.0
C2477 C 0.59304 0.59548 0.67937 0.0
H2478 H 0.52859 0.60075 0.68091 0.0
H2479 H 0.51826 0.6395 0.6836 0.0
H2480 H 0.65689 0.64767 0.67655 0.0
H2481 H 0.64527 0.61344 0.6641 0.0
H2482 H 0.62243 0.58925 0.67303 0.0
H2483 H 0.59063 0.58032 0.67968 0.0
Mn2484 Mn 0.96379 0.83305 0.55288 0.0
Mn2485 Mn 0.92681 0.83651 0.57718 0.0
C2486 C 0.93826 0.85504 0.53892 0.0
C2487 C 0.97668 0.81212 0.53062 0.0
C2488 C 0.96814 0.85537 0.58923 0.0
O2489 O 0.96517 0.81222 0.57637 0.0
O2490 O 0.934 0.8095 0.57644 0.0
C2491 C 0.89861 0.81028 0.55423 0.0
N2492 N 0.90227 0.83011 0.56522 0.0
C2493 C 0.86434 0.84526 0.57129 0.0
C2494 C 0.8558 0.81196 0.55258 0.0
C2495 C 0.87703 0.80045 0.54767 0.0
C2496 C 0.88858 0.84623 0.57334 0.0
H2497 H 0.91108 0.80164 0.55062 0.0
C2498 C 0.94987 0.80387 0.58294 0.0
O2499 O 0.98782 0.82294 0.54121 0.0
O2500 O 0.95835 0.81267 0.53391 0.0
N2501 N 0.91895 0.86089 0.57681 0.0
C2502 C 0.93602 0.87425 0.57894 0.0
C2503 C 0.93513 0.8927 0.59217 0.0
C2504 C 0.9006 0.89748 0.60472 0.0
C2505 C 0.88585 0.87749 0.59556 0.0
C2506 C 0.89753 0.86094 0.58226 0.0
H2507 H 0.94742 0.87387 0.5686 0.0
O2508 O 0.95571 0.85469 0.53219 0.0
O2509 O 0.93725 0.84208 0.55258 0.0
O2510 O 0.97429 0.85402 0.57186 0.0
O2511 O 0.95252 0.84519 0.59342 0.0
C2512 C 0.86426 0.87438 0.59408 0.0
C2513 C 0.8547 0.86033 0.5822 0.0
H2514 H 0.84213 0.80491 0.54898 0.0
H2515 H 0.87676 0.7866 0.54048 0.0
H2516 H 0.92755 0.89602 0.59661 0.0
H2517 H 0.88961 0.88913 0.60241 0.0
H2518 H 0.85512 0.88443 0.60178 0.0
H2519 H 0.83919 0.86119 0.58263 0.0
Mn2520 Mn 0.90008 0.20723 0.29477 0.0
Mn2521 Mn 0.90253 0.16827 0.31613 0.0
C2522 C 0.88308 0.17992 0.27866 0.0
C2523 C 0.92172 0.22394 0.27626 0.0
C2524 C 0.87443 0.20404 0.32731 0.0
O2525 O 0.917 0.21212 0.32086 0.0
O2526 O 0.92642 0.18308 0.31807 0.0
C2527 C 0.94044 0.14998 0.30052 0.0
N2528 N 0.91746 0.1483 0.30236 0.0
C2529 C 0.91121 0.10775 0.30487 0.0
C2530 C 0.94968 0.10824 0.30368 0.0
C2531 C 0.95701 0.13172 0.30153 0.0
C2532 C 0.90353 0.13064 0.30403 0.0
H2533 H 0.94676 0.16413 0.29913 0.0
C2534 C 0.92767 0.19845 0.3272 0.0
O2535 O 0.90774 0.23295 0.28506 0.0
O2536 O 0.92324 0.20559 0.27873 0.0
N2537 N 0.88145 0.15241 0.31393 0.0
C2538 C 0.86306 0.15789 0.31349 0.0
C2539 C 0.84932 0.14411 0.31687 0.0
C2540 C 0.85518 0.12527 0.32168 0.0
C2541 C 0.8733 0.11942 0.31617 0.0
C2542 C 0.88612 0.13398 0.31143 0.0
H2543 H 0.85928 0.17276 0.31095 0.0
O2544 O 0.88218 0.19728 0.27186 0.0
O2545 O 0.89511 0.1798 0.29296 0.0
O2546 O 0.87607 0.2123 0.311 0.0
O2547 O 0.88566 0.18924 0.33145 0.0
C2548 C 0.87781 0.09994 0.31402 0.0
C2549 C 0.89601 0.094 0.30821 0.0
H2550 H 0.96056 0.09688 0.30508 0.0
H2551 H 0.97225 0.13504 0.30084 0.0
H2552 H 0.83489 0.1489 0.31488 0.0
H2553 H 0.84594 0.11448 0.32751 0.0
H2554 H 0.86694 0.08905 0.31682 0.0
H2555 H 0.89776 0.07872 0.30779 0.0
Mn2556 Mn 0.08767 0.28668 0.79441 0.0
Mn2557 Mn 0.08454 0.32624 0.81566 0.0
C2558 C 0.10508 0.31264 0.77697 0.0
C2559 C 0.06642 0.26884 0.77645 0.0
C2560 C 0.11433 0.292 0.82627 0.0
O2561 O 0.07168 0.28164 0.82058 0.0
O2562 O 0.06125 0.3105 0.81869 0.0
C2563 C 0.0446 0.34428 0.80331 0.0
N2564 N 0.06766 0.34593 0.80304 0.0
C2565 C 0.0739 0.38646 0.80595 0.0
C2566 C 0.03571 0.38618 0.80839 0.0
C2567 C 0.02812 0.36259 0.80631 0.0
C2568 C 0.08141 0.36361 0.80362 0.0
H2569 H 0.03827 0.3301 0.8024 0.0
C2570 C 0.06073 0.29476 0.82733 0.0
O2571 O 0.08051 0.2605 0.78572 0.0
O2572 O 0.06426 0.28718 0.77856 0.0
N2573 N 0.10484 0.34267 0.81262 0.0
C2574 C 0.123 0.33697 0.81037 0.0
C2575 C 0.1359 0.35018 0.8037 0.0
C2576 C 0.13095 0.3698 0.80244 0.0
C2577 C 0.11284 0.37516 0.80652 0.0
C2578 C 0.09959 0.36059 0.80816 0.0
H2579 H 0.12683 0.32205 0.81059 0.0
O2580 O 0.10474 0.29499 0.77105 0.0
O2581 O 0.0929 0.31449 0.79155 0.0
O2582 O 0.11188 0.2829 0.81048 0.0
O2583 O 0.10306 0.3067 0.83074 0.0
C2584 C 0.10811 0.39435 0.80778 0.0
C2585 C 0.08927 0.40008 0.80792 0.0
H2586 H 0.02509 0.39761 0.81072 0.0
H2587 H 0.01287 0.35928 0.80691 0.0
H2588 H 0.14937 0.34451 0.80003 0.0
H2589 H 0.14034 0.38125 0.79802 0.0
H2590 H 0.11938 0.4049 0.80982 0.0
H2591 H 0.08759 0.41492 0.81022 0.0
Mn2592 Mn 0.5478 0.03724 0.14781 0.0
Mn2593 Mn 0.56906 0.07543 0.15594 0.0
C2594 C 0.53144 0.06622 0.13346 0.0
C2595 C 0.52918 0.01728 0.1664 0.0
C2596 C 0.58173 0.04276 0.12413 0.0
O2597 O 0.57382 0.03095 0.16453 0.0
O2598 O 0.57132 0.05843 0.17817 0.0
C2599 C 0.55351 0.09132 0.19632 0.0
N2600 N 0.55489 0.09383 0.17329 0.0
C2601 C 0.55594 0.13438 0.16848 0.0
C2602 C 0.55671 0.13352 0.20673 0.0
C2603 C 0.55504 0.10941 0.21369 0.0
C2604 C 0.55527 0.11195 0.16017 0.0
H2605 H 0.55338 0.07683 0.20207 0.0
C2606 C 0.5806 0.04308 0.17677 0.0
O2607 O 0.5388 0.01046 0.15177 0.0
O2608 O 0.53078 0.0354 0.17032 0.0
N2609 N 0.56646 0.09261 0.13621 0.0
C2610 C 0.56586 0.08791 0.11756 0.0
C2611 C 0.56657 0.10241 0.10428 0.0
C2612 C 0.56681 0.12139 0.11047 0.0
C2613 C 0.56085 0.12519 0.12898 0.0
C2614 C 0.56092 0.10998 0.14183 0.0
H2615 H 0.56447 0.07315 0.11312 0.0
O2616 O 0.52526 0.04884 0.13043 0.0
O2617 O 0.54546 0.06517 0.14617 0.0
O2618 O 0.56504 0.03506 0.1241 0.0
O2619 O 0.58545 0.05637 0.13707 0.0
C2620 C 0.55457 0.14327 0.13432 0.0
C2621 C 0.55324 0.14853 0.15341 0.0
H2622 H 0.55758 0.14483 0.21769 0.0
H2623 H 0.55492 0.10568 0.22884 0.0
H2624 H 0.56489 0.09811 0.08992 0.0
H2625 H 0.57065 0.13306 0.10142 0.0
H2626 H 0.55061 0.15333 0.12342 0.0
H2627 H 0.54974 0.16354 0.15539 0.0
Mn2628 Mn 0.21178 0.79791 0.40473 0.0
Mn2629 Mn 0.17228 0.81903 0.40777 0.0
C2630 C 0.18412 0.7811 0.38918 0.0
C2631 C 0.22999 0.77952 0.4252 0.0
C2632 C 0.20718 0.82982 0.37832 0.0
O2633 O 0.2169 0.82439 0.42081 0.0
O2634 O 0.18796 0.82203 0.43094 0.0
C2635 C 0.15507 0.8056 0.44697 0.0
N2636 N 0.15276 0.80595 0.424 0.0
C2637 C 0.11197 0.8083 0.41877 0.0
C2638 C 0.11354 0.80952 0.45716 0.0
C2639 C 0.13726 0.8077 0.46394 0.0
C2640 C 0.13467 0.80681 0.41051 0.0
H2641 H 0.16941 0.80479 0.45301 0.0
C2642 C 0.20332 0.83131 0.43125 0.0
O2643 O 0.23804 0.78873 0.41092 0.0
O2644 O 0.21176 0.78203 0.42808 0.0
N2645 N 0.15575 0.81561 0.38732 0.0
C2646 C 0.1607 0.81499 0.36883 0.0
C2647 C 0.14652 0.81814 0.35543 0.0
C2648 C 0.12774 0.8226 0.36163 0.0
C2649 C 0.12247 0.81722 0.37998 0.0
C2650 C 0.13747 0.81295 0.39253 0.0
H2651 H 0.17554 0.81272 0.36476 0.0
O2652 O 0.20158 0.77463 0.38767 0.0
O2653 O 0.18405 0.79558 0.40105 0.0
O2654 O 0.21567 0.81368 0.3803 0.0
O2655 O 0.19249 0.83406 0.38968 0.0
C2656 C 0.10314 0.81519 0.38514 0.0
C2657 C 0.09777 0.81041 0.40378 0.0
H2658 H 0.10243 0.81131 0.46823 0.0
H2659 H 0.14101 0.80788 0.47909 0.0
H2660 H 0.15095 0.81603 0.34095 0.0
H2661 H 0.11671 0.82822 0.35245 0.0
H2662 H 0.0919 0.8174 0.37447 0.0
H2663 H 0.08256 0.80969 0.40591 0.0
Mn2664 Mn 0.44792 0.45551 0.66304 0.0
Mn2665 Mn 0.42085 0.41782 0.6574 0.0
C2666 C 0.46232 0.42811 0.64602 0.0
C2667 C 0.46836 0.47055 0.68434 0.0
C2668 C 0.41818 0.45606 0.63123 0.0
O2669 O 0.42307 0.46122 0.68049 0.0
O2670 O 0.41011 0.43211 0.67884 0.0
C2671 C 0.41744 0.39599 0.69549 0.0
N2672 N 0.42685 0.39593 0.67468 0.0
C2673 C 0.42782 0.35558 0.66551 0.0
C2674 C 0.41102 0.3542 0.69971 0.0
C2675 C 0.40916 0.37707 0.70836 0.0
C2676 C 0.43206 0.37922 0.66055 0.0
H2677 H 0.41584 0.40953 0.70267 0.0
C2678 C 0.4104 0.44877 0.68592 0.0
O2679 O 0.45945 0.48023 0.67096 0.0
O2680 O 0.46432 0.45243 0.68613 0.0
N2681 N 0.42925 0.40266 0.63777 0.0
C2682 C 0.43079 0.40885 0.61974 0.0
C2683 C 0.42795 0.39575 0.60557 0.0
C2684 C 0.4218 0.37721 0.61098 0.0
C2685 C 0.4281 0.37012 0.62819 0.0
C2686 C 0.43115 0.38391 0.64209 0.0
H2687 H 0.43378 0.42378 0.61658 0.0
O2688 O 0.47006 0.4451 0.64582 0.0
O2689 O 0.44711 0.42772 0.65759 0.0
O2690 O 0.4332 0.4642 0.63808 0.0
O2691 O 0.41242 0.43995 0.63877 0.0
C2692 C 0.43092 0.35035 0.63136 0.0
C2693 C 0.43171 0.34289 0.6498 0.0
H2694 H 0.40634 0.3422 0.70842 0.0
H2695 H 0.40356 0.37981 0.72258 0.0
H2696 H 0.43084 0.40108 0.59149 0.0
H2697 H 0.41451 0.36713 0.60225 0.0
H2698 H 0.43071 0.3403 0.61944 0.0
H2699 H 0.43222 0.32744 0.65073 0.0
Mn2700 Mn 0.77184 0.68845 0.8997 0.0
Mn2701 Mn 0.80472 0.66067 0.90283 0.0
C2702 C 0.8013 0.70143 0.88241 0.0
C2703 C 0.7586 0.70868 0.92244 0.0
C2704 C 0.7689 0.65551 0.87507 0.0
O2705 O 0.76287 0.66336 0.91733 0.0
O2706 O 0.79129 0.66574 0.92652 0.0
C2707 C 0.82571 0.67901 0.9388 0.0
N2708 N 0.82695 0.67281 0.91638 0.0
C2709 C 0.86752 0.67568 0.90867 0.0
C2710 C 0.86759 0.68485 0.94633 0.0
C2711 C 0.84422 0.68445 0.9543 0.0
C2712 C 0.84407 0.67098 0.90204 0.0
H2713 H 0.81197 0.68103 0.9456 0.0
C2714 C 0.7757 0.65776 0.92928 0.0
O2715 O 0.74808 0.70156 0.90858 0.0
O2716 O 0.77661 0.70399 0.92299 0.0
N2717 N 0.81874 0.65507 0.88081 0.0
C2718 C 0.8103 0.64517 0.8614 0.0
C2719 C 0.8398 0.64307 0.83736 0.0
C2720 C 0.85834 0.65281 0.84742 0.0
C2721 C 0.8587 0.6602 0.86971 0.0
C2722 C 0.84007 0.66198 0.88461 0.0
H2723 H 0.79691 0.63792 0.86062 0.0
O2724 O 0.78495 0.71043 0.88247 0.0
O2725 O 0.79914 0.68546 0.89219 0.0
O2726 O 0.76399 0.67321 0.87595 0.0
O2727 O 0.78097 0.6485 0.88795 0.0
C2728 C 0.87692 0.6663 0.87583 0.0
C2729 C 0.88157 0.67281 0.89394 0.0
H2730 H 0.8792 0.68801 0.95658 0.0
H2731 H 0.84106 0.68809 0.96914 0.0
H2732 H 0.84136 0.63899 0.82237 0.0
H2733 H 0.86555 0.66167 0.83722 0.0
H2734 H 0.88905 0.66545 0.86627 0.0
H2735 H 0.89687 0.6754 0.89564 0.0
Mn2736 Mn 0.54695 0.95849 0.84513 0.0
Mn2737 Mn 0.57194 0.91924 0.84551 0.0
C2738 C 0.53117 0.93003 0.85943 0.0
C2739 C 0.52806 0.97658 0.82487 0.0
C2740 C 0.57756 0.95397 0.87586 0.0
O2741 O 0.57173 0.96511 0.82792 0.0
O2742 O 0.58357 0.93563 0.82606 0.0
C2743 C 0.57392 0.90293 0.80479 0.0
N2744 N 0.56447 0.90039 0.82542 0.0
C2745 C 0.56164 0.85925 0.82884 0.0
C2746 C 0.57842 0.862 0.7946 0.0
C2747 C 0.58135 0.88567 0.78931 0.0
C2748 C 0.55844 0.88216 0.8371 0.0
H2749 H 0.57603 0.91723 0.79952 0.0
C2750 C 0.58384 0.95296 0.82087 0.0
O2751 O 0.53672 0.98449 0.83955 0.0
O2752 O 0.53059 0.95837 0.82194 0.0
N2753 N 0.56258 0.90207 0.86298 0.0
C2754 C 0.56146 0.90584 0.88176 0.0
C2755 C 0.56369 0.89079 0.89394 0.0
C2756 C 0.56844 0.8728 0.88586 0.0
C2757 C 0.56166 0.86854 0.86791 0.0
C2758 C 0.55946 0.88425 0.85609 0.0
H2759 H 0.55971 0.9204 0.88694 0.0
O2760 O 0.52441 0.94729 0.86159 0.0
O2761 O 0.54624 0.93031 0.84758 0.0
O2762 O 0.56278 0.9636 0.87047 0.0
O2763 O 0.58199 0.9383 0.86663 0.0
C2764 C 0.55794 0.84958 0.862 0.0
C2765 C 0.55713 0.84475 0.84266 0.0
H2766 H 0.58284 0.85116 0.78432 0.0
H2767 H 0.58732 0.89001 0.77563 0.0
H2768 H 0.56144 0.89426 0.90869 0.0
H2769 H 0.57511 0.86118 0.8929 0.0
H2770 H 0.55751 0.83802 0.87248 0.0
H2771 H 0.55587 0.82969 0.83958 0.0
Mn2772 Mn 0.28481 0.79327 0.08478 0.0
Mn2773 Mn 0.32229 0.82053 0.08968 0.0
C2774 C 0.31262 0.77955 0.10214 0.0
C2775 C 0.27089 0.77174 0.06374 0.0
C2776 C 0.28408 0.82518 0.11488 0.0
O2777 O 0.27915 0.81633 0.06524 0.0
O2778 O 0.30761 0.83052 0.06785 0.0
C2779 C 0.3419 0.81782 0.05003 0.0
N2780 N 0.3435 0.81432 0.07247 0.0
C2781 C 0.38391 0.81706 0.07942 0.0
C2782 C 0.38307 0.82316 0.04166 0.0
C2783 C 0.35987 0.82226 0.03423 0.0
C2784 C 0.3609 0.81373 0.08651 0.0
H2785 H 0.32781 0.81717 0.04368 0.0
C2786 C 0.29141 0.82909 0.05975 0.0
O2787 O 0.26051 0.78054 0.07669 0.0
O2788 O 0.289 0.77591 0.06275 0.0
N2789 N 0.33823 0.81286 0.10971 0.0
C2790 C 0.33267 0.81008 0.12794 0.0
C2791 C 0.34615 0.81262 0.14214 0.0
C2792 C 0.36476 0.81902 0.13698 0.0
C2793 C 0.37095 0.81721 0.11847 0.0
C2794 C 0.35686 0.81431 0.10497 0.0
H2795 H 0.31777 0.8068 0.13128 0.0
O2796 O 0.29549 0.77221 0.10329 0.0
O2797 O 0.31269 0.79436 0.09015 0.0
O2798 O 0.27533 0.81011 0.10869 0.0
O2799 O 0.30062 0.82926 0.10773 0.0
C2800 C 0.39056 0.81743 0.11395 0.0
C2801 C 0.39717 0.81706 0.09507 0.0
H2802 H 0.39419 0.82433 0.03099 0.0
H2803 H 0.35661 0.82399 0.01907 0.0
H2804 H 0.34135 0.80928 0.15641 0.0
H2805 H 0.37548 0.82427 0.14644 0.0
H2806 H 0.40088 0.8173 0.12556 0.0
H2807 H 0.4123 0.8174 0.09353 0.0
Mn2808 Mn 0.44209 0.52933 0.33441 0.0
Mn2809 Mn 0.41426 0.56168 0.34679 0.0
C2810 C 0.45515 0.55537 0.35489 0.0
C2811 C 0.4663 0.51678 0.31525 0.0
C2812 C 0.41308 0.52635 0.36874 0.0
O2813 O 0.42283 0.52858 0.31066 0.0
O2814 O 0.40181 0.5405 0.33052 0.0
C2815 C 0.39411 0.57695 0.3106 0.0
N2816 N 0.41121 0.57975 0.32621 0.0
C2817 C 0.42172 0.62033 0.32145 0.0
C2818 C 0.39428 0.617 0.29385 0.0
C2819 C 0.38548 0.59368 0.29426 0.0
C2820 C 0.42347 0.5981 0.33264 0.0
H2821 H 0.38416 0.56551 0.31275 0.0
C2822 C 0.40562 0.53426 0.31362 0.0
O2823 O 0.45528 0.50546 0.32539 0.0
O2824 O 0.46292 0.53502 0.316 0.0
N2825 N 0.42417 0.58235 0.361 0.0
C2826 C 0.42606 0.58158 0.38004 0.0
C2827 C 0.42428 0.59791 0.39011 0.0
C2828 C 0.42109 0.61556 0.3807 0.0
C2829 C 0.42539 0.61661 0.36131 0.0
C2830 C 0.4262 0.59901 0.35152 0.0
H2831 H 0.42924 0.56832 0.38733 0.0
O2832 O 0.46067 0.53758 0.3567 0.0
O2833 O 0.44123 0.55691 0.34191 0.0
O2834 O 0.42035 0.517 0.35439 0.0
O2835 O 0.41709 0.54387 0.36935 0.0
C2836 C 0.42928 0.63422 0.35217 0.0
C2837 C 0.43037 0.63542 0.33218 0.0
H2838 H 0.38648 0.62766 0.28658 0.0
H2839 H 0.37319 0.59009 0.28556 0.0
H2840 H 0.42841 0.59549 0.40451 0.0
H2841 H 0.41673 0.62849 0.38803 0.0
H2842 H 0.43127 0.64715 0.3607 0.0
H2843 H 0.43457 0.64875 0.32572 0.0
Mn2844 Mn 0.71816 0.68892 0.59504 0.0
Mn2845 Mn 0.67831 0.66849 0.58916 0.0
C2846 C 0.68968 0.70602 0.60889 0.0
C2847 C 0.73872 0.70843 0.57794 0.0
C2848 C 0.71111 0.65668 0.62041 0.0
O2849 O 0.72357 0.66267 0.57843 0.0
O2850 O 0.69503 0.66523 0.56677 0.0
C2851 C 0.66323 0.68292 0.54929 0.0
N2852 N 0.65981 0.68193 0.5721 0.0
C2853 C 0.61879 0.68046 0.57532 0.0
C2854 C 0.62209 0.68044 0.53703 0.0
C2855 C 0.64618 0.68183 0.53142 0.0
C2856 C 0.6411 0.68113 0.58468 0.0
H2857 H 0.67787 0.68357 0.54403 0.0
C2858 C 0.71045 0.65601 0.56711 0.0
O2859 O 0.7451 0.69789 0.59211 0.0
O2860 O 0.72111 0.70573 0.57242 0.0
N2861 N 0.66092 0.67204 0.60888 0.0
C2862 C 0.66499 0.67239 0.62763 0.0
C2863 C 0.65007 0.66981 0.64034 0.0
C2864 C 0.63154 0.66583 0.63321 0.0
C2865 C 0.62732 0.67102 0.61457 0.0
C2866 C 0.64296 0.67495 0.60276 0.0
H2867 H 0.67964 0.67424 0.63251 0.0
O2868 O 0.70713 0.71187 0.61191 0.0
O2869 O 0.69009 0.69194 0.59647 0.0
O2870 O 0.7198 0.67274 0.6194 0.0
O2871 O 0.69721 0.65284 0.60802 0.0
C2872 C 0.6083 0.67296 0.60838 0.0
C2873 C 0.60391 0.6778 0.58952 0.0
H2874 H 0.61147 0.67919 0.52541 0.0
H2875 H 0.65064 0.68197 0.51647 0.0
H2876 H 0.65379 0.67173 0.65507 0.0
H2877 H 0.61992 0.6606 0.64178 0.0
H2878 H 0.59651 0.67047 0.61837 0.0
H2879 H 0.58888 0.67776 0.58652 0.0
Mn2880 Mn 0.65845 0.54602 0.53172 0.0
Mn2881 Mn 0.66009 0.56657 0.57133 0.0
C2882 C 0.64171 0.52896 0.55876 0.0
C2883 C 0.67952 0.52738 0.51428 0.0
C2884 C 0.63191 0.57778 0.53573 0.0
O2885 O 0.67506 0.57257 0.52748 0.0
O2886 O 0.68397 0.56943 0.55666 0.0
C2887 C 0.69824 0.55127 0.5894 0.0
N2888 N 0.67527 0.55288 0.5911 0.0
C2889 C 0.66897 0.5547 0.63167 0.0
C2890 C 0.70742 0.55367 0.6312 0.0
C2891 C 0.71477 0.55197 0.60769 0.0
C2892 C 0.66131 0.55418 0.60876 0.0
H2893 H 0.70462 0.55042 0.57523 0.0
C2894 C 0.68514 0.57906 0.54159 0.0
O2895 O 0.66564 0.53674 0.50571 0.0
O2896 O 0.68179 0.53006 0.53256 0.0
N2897 N 0.63897 0.56348 0.58707 0.0
C2898 C 0.62059 0.56262 0.58158 0.0
C2899 C 0.60674 0.56544 0.59542 0.0
C2900 C 0.61246 0.57014 0.61433 0.0
C2901 C 0.63075 0.56515 0.6201 0.0
C2902 C 0.64371 0.56106 0.60548 0.0
H2903 H 0.61689 0.56028 0.56665 0.0
O2904 O 0.64088 0.52264 0.54121 0.0
O2905 O 0.65358 0.5434 0.55923 0.0
O2906 O 0.6341 0.56179 0.52705 0.0
O2907 O 0.64295 0.58187 0.55067 0.0
C2908 C 0.63532 0.56279 0.63953 0.0
C2909 C 0.65369 0.55749 0.64542 0.0
H2910 H 0.71828 0.55465 0.64262 0.0
H2911 H 0.73002 0.55138 0.60438 0.0
H2912 H 0.59233 0.56327 0.5906 0.0
H2913 H 0.60305 0.57552 0.62522 0.0
H2914 H 0.6243 0.5649 0.65043 0.0
H2915 H 0.65539 0.55677 0.66066 0.0
Mn2916 Mn 0.69251 0.9077 0.78905 0.0
Mn2917 Mn 0.67285 0.90312 0.83175 0.0
C2918 C 0.7092 0.88722 0.81221 0.0
C2919 C 0.71271 0.92807 0.77224 0.0
C2920 C 0.66296 0.87562 0.79604 0.0
O2921 O 0.66968 0.92776 0.78651 0.0
O2922 O 0.6588 0.92147 0.81537 0.0
C2923 C 0.67776 0.94695 0.84335 0.0
N2924 N 0.68345 0.92515 0.84804 0.0
C2925 C 0.68382 0.92474 0.8891 0.0
C2926 C 0.67069 0.96018 0.88414 0.0
C2927 C 0.67037 0.96462 0.85949 0.0
C2928 C 0.68753 0.91475 0.86748 0.0
H2929 H 0.67739 0.95097 0.82833 0.0
C2930 C 0.6573 0.93061 0.79977 0.0
O2931 O 0.70164 0.91591 0.76309 0.0
O2932 O 0.71114 0.92886 0.79072 0.0
N2933 N 0.68303 0.88623 0.85089 0.0
C2934 C 0.68534 0.86673 0.85066 0.0
C2935 C 0.68757 0.85826 0.86868 0.0
C2936 C 0.68086 0.86659 0.88491 0.0
C2937 C 0.68456 0.88569 0.88548 0.0
C2938 C 0.68676 0.89565 0.86785 0.0
H2939 H 0.67515 0.87652 0.84442 0.0
O2940 O 0.71383 0.88785 0.79425 0.0
O2941 O 0.69616 0.90044 0.81649 0.0
O2942 O 0.67338 0.88493 0.78382 0.0
O2943 O 0.6621 0.88092 0.81423 0.0
C2944 C 0.68761 0.89387 0.90312 0.0
C2945 C 0.6902 0.91302 0.90472 0.0
H2946 H 0.66647 0.97157 0.89418 0.0
H2947 H 0.66596 0.97862 0.85419 0.0
H2948 H 0.70146 0.85398 0.87294 0.0
H2949 H 0.68029 0.85836 0.8981 0.0
H2950 H 0.68742 0.88519 0.91573 0.0
H2951 H 0.69578 0.91789 0.91834 0.0
Mn2952 Mn 0.34537 0.92935 0.02102 0.0
Mn2953 Mn 0.3465 0.90559 0.06019 0.0
C2954 C 0.36376 0.94339 0.04785 0.0
C2955 C 0.32799 0.9513 0.00391 0.0
C2956 C 0.37159 0.89605 0.02416 0.0
O2957 O 0.32598 0.90561 0.01653 0.0
O2958 O 0.32189 0.90145 0.04756 0.0
C2959 C 0.31044 0.92657 0.07727 0.0
N2960 N 0.33209 0.9192 0.08039 0.0
C2961 C 0.33636 0.91904 0.12132 0.0
C2962 C 0.29942 0.93086 0.11861 0.0
C2963 C 0.29369 0.9322 0.09458 0.0
C2964 C 0.34461 0.91549 0.09853 0.0
H2965 H 0.3052 0.92784 0.06265 0.0
C2966 C 0.31736 0.89718 0.0306 0.0
O2967 O 0.33984 0.93962 0.99521 0.0
O2968 O 0.32415 0.94804 0.0219 0.0
N2969 N 0.36933 0.90758 0.07444 0.0
C2970 C 0.38904 0.89941 0.06655 0.0
C2971 C 0.40552 0.8793 0.09488 0.0
C2972 C 0.39092 0.88028 0.11427 0.0
C2973 C 0.37061 0.89341 0.11399 0.0
C2974 C 0.36123 0.90571 0.0953 0.0
H2975 H 0.3937 0.90286 0.05224 0.0
O2976 O 0.36487 0.95043 0.03065 0.0
O2977 O 0.35103 0.92965 0.04839 0.0
O2978 O 0.3681 0.91184 0.0156 0.0
O2979 O 0.36176 0.89077 0.03923 0.0
C2980 C 0.3636 0.89828 0.13214 0.0
C2981 C 0.34906 0.91179 0.13604 0.0
H2982 H 0.28819 0.93344 0.12942 0.0
H2983 H 0.27929 0.93646 0.0903 0.0
H2984 H 0.41877 0.87103 0.09552 0.0
H2985 H 0.39471 0.87269 0.12732 0.0
H2986 H 0.37115 0.89227 0.14407 0.0
H2987 H 0.34688 0.91445 0.15122 0.0
Mn2988 Mn 0.30256 0.58989 0.2727 0.0
Mn2989 Mn 0.32993 0.58909 0.30611 0.0
C2990 C 0.28864 0.60793 0.30144 0.0
C2991 C 0.28117 0.56732 0.26099 0.0
C2992 C 0.33445 0.61555 0.2693 0.0
O2993 O 0.32853 0.57259 0.26436 0.0
O2994 O 0.32613 0.56502 0.2931 0.0
C2995 C 0.31258 0.55301 0.32729 0.0
N2996 N 0.31758 0.57577 0.32818 0.0
C2997 C 0.31441 0.58406 0.3685 0.0
C2998 C 0.30748 0.54592 0.3692 0.0
C2999 C 0.30817 0.5376 0.34604 0.0
C3000 C 0.31849 0.59058 0.34501 0.0
H3001 H 0.31147 0.54563 0.31372 0.0
C3002 C 0.33498 0.56202 0.27803 0.0
O3003 O 0.2887 0.58023 0.24962 0.0
O3004 O 0.28732 0.56662 0.27852 0.0
N3005 N 0.33469 0.61154 0.31989 0.0
C3006 C 0.34521 0.63054 0.31144 0.0
C3007 C 0.34492 0.65634 0.33966 0.0
C3008 C 0.33359 0.64719 0.35806 0.0
C3009 C 0.32622 0.62445 0.35887 0.0
C3010 C 0.32616 0.60857 0.34071 0.0
H3011 H 0.35252 0.631 0.29783 0.0
O3012 O 0.27993 0.60705 0.28501 0.0
O3013 O 0.30495 0.59864 0.29975 0.0
O3014 O 0.31695 0.61379 0.26395 0.0
O3015 O 0.34163 0.60372 0.28222 0.0
C3016 C 0.3208 0.61783 0.37721 0.0
C3017 C 0.31626 0.5992 0.38221 0.0
H3018 H 0.30497 0.53569 0.38097 0.0
H3019 H 0.30547 0.5225 0.34317 0.0
H3020 H 0.34941 0.67139 0.34069 0.0
H3021 H 0.32568 0.65807 0.3654 0.0
H3022 H 0.32125 0.62706 0.38949 0.0
H3023 H 0.31424 0.59746 0.39757 0.0
Mn3024 Mn 0.64577 0.43713 0.46787 0.0
Mn3025 Mn 0.64932 0.41486 0.43014 0.0
C3026 C 0.62607 0.45037 0.44103 0.0
C3027 C 0.66774 0.45761 0.48202 0.0
C3028 C 0.62282 0.40285 0.46564 0.0
O3029 O 0.66414 0.41223 0.47267 0.0
O3030 O 0.67366 0.4167 0.4441 0.0
C3031 C 0.67944 0.44524 0.41291 0.0
N3032 N 0.6616 0.43103 0.40967 0.0
C3033 C 0.66133 0.425 0.3693 0.0
C3034 C 0.69354 0.44676 0.3718 0.0
C3035 C 0.69609 0.4531 0.39589 0.0
C3036 C 0.65229 0.42212 0.39161 0.0
H3037 H 0.68259 0.44944 0.4276 0.0
C3038 C 0.67524 0.40678 0.45902 0.0
O3039 O 0.65498 0.44865 0.49258 0.0
O3040 O 0.66765 0.45432 0.46379 0.0
N3041 N 0.62773 0.41179 0.41544 0.0
C3042 C 0.60771 0.40371 0.42288 0.0
C3043 C 0.59002 0.38849 0.39327 0.0
C3044 C 0.60382 0.39078 0.37383 0.0
C3045 C 0.625 0.40216 0.375 0.0
C3046 C 0.63579 0.4114 0.39454 0.0
H3047 H 0.60307 0.40589 0.43725 0.0
O3048 O 0.62585 0.45853 0.45783 0.0
O3049 O 0.63853 0.43661 0.44124 0.0
O3050 O 0.62386 0.41923 0.47404 0.0
O3051 O 0.63478 0.3984 0.45147 0.0
C3052 C 0.62981 0.41163 0.35831 0.0
C3053 C 0.6473 0.42038 0.35467 0.0
H3054 H 0.70367 0.45234 0.36106 0.0
H3055 H 0.70799 0.46219 0.40031 0.0
H3056 H 0.5791 0.37751 0.39248 0.0
H3057 H 0.59805 0.38604 0.36023 0.0
H3058 H 0.61838 0.41404 0.34798 0.0
H3059 H 0.64695 0.42659 0.34056 0.0
Mn3060 Mn 0.79727 0.90728 0.71299 0.0
Mn3061 Mn 0.81464 0.9105 0.67202 0.0
C3062 C 0.77767 0.89213 0.68668 0.0
C3063 C 0.78069 0.92834 0.73248 0.0
C3064 C 0.82853 0.88083 0.70634 0.0
O3065 O 0.82477 0.92275 0.71564 0.0
O3066 O 0.81963 0.93392 0.68753 0.0
C3067 C 0.8008 0.94946 0.65423 0.0
N3068 N 0.7998 0.92642 0.65275 0.0
C3069 C 0.80252 0.91968 0.61198 0.0
C3070 C 0.80716 0.95787 0.61236 0.0
C3071 C 0.80507 0.96562 0.63588 0.0
C3072 C 0.79973 0.9123 0.635 0.0
H3073 H 0.8005 0.95583 0.66844 0.0
C3074 C 0.8308 0.9334 0.70173 0.0
O3075 O 0.79012 0.91387 0.73991 0.0
O3076 O 0.78197 0.93101 0.71413 0.0
N3077 N 0.80951 0.88977 0.65653 0.0
C3078 C 0.80965 0.87138 0.66198 0.0
C3079 C 0.81332 0.85789 0.64806 0.0
C3080 C 0.81885 0.8644 0.62971 0.0
C3081 C 0.81141 0.88177 0.62371 0.0
C3082 C 0.80599 0.89437 0.63827 0.0
H3083 H 0.8081 0.86754 0.67695 0.0
O3084 O 0.77277 0.89059 0.70462 0.0
O3085 O 0.79225 0.90385 0.6856 0.0
O3086 O 0.81286 0.88247 0.71573 0.0
O3087 O 0.83146 0.8924 0.69139 0.0
C3088 C 0.80911 0.88602 0.60423 0.0
C3089 C 0.80401 0.90426 0.59817 0.0
H3090 H 0.81071 0.9683 0.60106 0.0
H3091 H 0.80661 0.9808 0.63918 0.0
H3092 H 0.81238 0.84338 0.65273 0.0
H3093 H 0.82616 0.85579 0.61926 0.0
H3094 H 0.81185 0.87515 0.59342 0.0
H3095 H 0.80365 0.90596 0.58275 0.0
Mn3096 Mn 0.34744 0.0514 0.96848 0.0
Mn3097 Mn 0.34062 0.07131 0.92865 0.0
C3098 C 0.36264 0.03518 0.94019 0.0
C3099 C 0.33123 0.03144 0.98899 0.0
C3100 C 0.37086 0.08491 0.96185 0.0
O3101 O 0.32933 0.07657 0.97374 0.0
O3102 O 0.31796 0.07291 0.94528 0.0
C3103 C 0.30173 0.05549 0.91299 0.0
N3104 N 0.32459 0.05684 0.90992 0.0
C3105 C 0.32831 0.05857 0.86895 0.0
C3106 C 0.28994 0.05823 0.87184 0.0
C3107 C 0.28406 0.0566 0.89577 0.0
C3108 C 0.33743 0.05793 0.89136 0.0
H3109 H 0.29628 0.05428 0.92751 0.0
C3110 C 0.31756 0.08226 0.96061 0.0
O3111 O 0.34474 0.0428 0.99542 0.0
O3112 O 0.32576 0.03352 0.97127 0.0
N3113 N 0.36062 0.06916 0.91135 0.0
C3114 C 0.37927 0.07021 0.91561 0.0
C3115 C 0.39189 0.07388 0.90087 0.0
C3116 C 0.38472 0.07736 0.88228 0.0
C3117 C 0.36668 0.07039 0.87783 0.0
C3118 C 0.35501 0.0655 0.89337 0.0
H3119 H 0.38409 0.06851 0.93028 0.0
O3120 O 0.36577 0.02944 0.95766 0.0
O3121 O 0.34935 0.04843 0.94047 0.0
O3122 O 0.37081 0.06879 0.97038 0.0
O3123 O 0.35836 0.08805 0.94785 0.0
C3124 C 0.36106 0.06744 0.85876 0.0
C3125 C 0.34265 0.06118 0.85417 0.0
H3126 H 0.2784 0.05961 0.86113 0.0
H3127 H 0.26904 0.05621 0.90002 0.0
H3128 H 0.40666 0.07288 0.90477 0.0
H3129 H 0.39306 0.08343 0.87083 0.0
H3130 H 0.37114 0.0702 0.8471 0.0
H3131 H 0.34003 0.05991 0.83907 0.0
Mn3132 Mn 0.19167 0.59304 0.21249 0.0
Mn3133 Mn 0.17116 0.58848 0.17292 0.0
C3134 C 0.2096 0.60637 0.18409 0.0
C3135 C 0.20897 0.5721 0.23177 0.0
C3136 C 0.16119 0.62053 0.20561 0.0
O3137 O 0.16425 0.57836 0.21811 0.0
O3138 O 0.16702 0.56655 0.18997 0.0
C3139 C 0.18269 0.54766 0.15865 0.0
N3140 N 0.18384 0.57042 0.15486 0.0
C3141 C 0.18277 0.57304 0.11382 0.0
C3142 C 0.17916 0.53497 0.11788 0.0
C3143 C 0.17995 0.52972 0.14196 0.0
C3144 C 0.18423 0.58272 0.13595 0.0
H3145 H 0.18294 0.54249 0.17332 0.0
C3146 C 0.15724 0.56741 0.20495 0.0
O3147 O 0.20081 0.58735 0.23916 0.0
O3148 O 0.20625 0.56889 0.21367 0.0
N3149 N 0.17565 0.60763 0.15518 0.0
C3150 C 0.17659 0.62641 0.15891 0.0
C3151 C 0.17441 0.6389 0.14378 0.0
C3152 C 0.17031 0.63154 0.12537 0.0
C3153 C 0.17522 0.61274 0.12153 0.0
C3154 C 0.17874 0.60111 0.13741 0.0
H3155 H 0.17863 0.63147 0.17347 0.0
O3156 O 0.2159 0.6085 0.20153 0.0
O3157 O 0.19463 0.59514 0.18458 0.0
O3158 O 0.17698 0.61841 0.21474 0.0
O3159 O 0.15675 0.60842 0.19162 0.0
C3160 C 0.17721 0.6062 0.10267 0.0
C3161 C 0.18122 0.58708 0.09868 0.0
H3162 H 0.17659 0.52333 0.10752 0.0
H3163 H 0.17865 0.5149 0.14668 0.0
H3164 H 0.17672 0.65364 0.14725 0.0
H3165 H 0.16523 0.64 0.11357 0.0
H3166 H 0.17524 0.61607 0.0907 0.0
H3167 H 0.1812 0.58378 0.08375 0.0
Mn3168 Mn 0.03141 0.65114 0.04662 0.0
Mn3169 Mn 0.07148 0.65414 0.06664 0.0
C3170 C 0.058 0.63331 0.03035 0.0
C3171 C 0.01339 0.67197 0.02825 0.0
C3172 C 0.0359 0.6267 0.07994 0.0
O3173 O 0.02773 0.66901 0.07227 0.0
O3174 O 0.05693 0.67814 0.06875 0.0
C3175 C 0.08939 0.69235 0.0495 0.0
N3176 N 0.09095 0.6688 0.05191 0.0
C3177 C 0.1329 0.66177 0.05325 0.0
C3178 C 0.13327 0.70116 0.05117 0.0
C3179 C 0.10884 0.70907 0.04954 0.0
C3180 C 0.10899 0.65436 0.05332 0.0
H3181 H 0.07525 0.69884 0.04875 0.0
C3182 C 0.04169 0.67965 0.07811 0.0
O3183 O 0.00506 0.65823 0.03802 0.0
O3184 O 0.03191 0.67359 0.0295 0.0
N3185 N 0.08727 0.63288 0.06428 0.0
C3186 C 0.0816 0.61462 0.0652 0.0
C3187 C 0.09535 0.60092 0.06877 0.0
C3188 C 0.11447 0.60667 0.07233 0.0
C3189 C 0.12036 0.62436 0.06558 0.0
C3190 C 0.1057 0.63714 0.06085 0.0
H3191 H 0.06657 0.61094 0.06359 0.0
O3192 O 0.04036 0.63226 0.02422 0.0
O3193 O 0.05889 0.64615 0.04397 0.0
O3194 O 0.02705 0.62786 0.06391 0.0
O3195 O 0.05102 0.63783 0.08317 0.0
C3196 C 0.13995 0.62851 0.06285 0.0
C3197 C 0.1463 0.6464 0.05649 0.0
H3198 H 0.145 0.71169 0.0517 0.0
H3199 H 0.10579 0.72434 0.04859 0.0
H3200 H 0.09028 0.58653 0.06775 0.0
H3201 H 0.12526 0.59752 0.07831 0.0
H3202 H 0.1507 0.61753 0.06581 0.0
H3203 H 0.1616 0.64781 0.05551 0.0
Mn3204 Mn 0.52464 0.34463 0.43475 0.0
Mn3205 Mn 0.56416 0.35943 0.41384 0.0
C3206 C 0.55017 0.36249 0.45194 0.0
C3207 C 0.50808 0.3247 0.4555 0.0
C3208 C 0.52407 0.38074 0.40966 0.0
O3209 O 0.52434 0.32468 0.41192 0.0
O3210 O 0.54924 0.33919 0.398 0.0
C3211 C 0.57873 0.31834 0.41662 0.0
N3212 N 0.58414 0.3404 0.41748 0.0
C3213 C 0.62511 0.34036 0.4154 0.0
C3214 C 0.61757 0.30233 0.41393 0.0
C3215 C 0.59362 0.2993 0.4149 0.0
C3216 C 0.60359 0.35148 0.41753 0.0
H3217 H 0.56388 0.31455 0.41892 0.0
C3218 C 0.53609 0.32607 0.39773 0.0
O3219 O 0.49906 0.33607 0.44371 0.0
O3220 O 0.52664 0.32343 0.45374 0.0
N3221 N 0.58247 0.37899 0.4245 0.0
C3222 C 0.5732 0.39938 0.42233 0.0
C3223 C 0.58003 0.41807 0.40883 0.0
C3224 C 0.60187 0.41717 0.39553 0.0
C3225 C 0.61868 0.38222 0.40357 0.0
C3226 C 0.60271 0.37047 0.41862 0.0
H3227 H 0.55989 0.40204 0.42996 0.0
O3228 O 0.53218 0.36409 0.45677 0.0
O3229 O 0.55257 0.35164 0.43713 0.0
O3230 O 0.5142 0.36662 0.41589 0.0
O3231 O 0.54243 0.37978 0.41222 0.0
C3232 C 0.63656 0.37209 0.40108 0.0
C3233 C 0.6401 0.35353 0.40906 0.0
H3234 H 0.62666 0.28969 0.41312 0.0
H3235 H 0.58804 0.28487 0.41615 0.0
H3236 H 0.59088 0.42008 0.40079 0.0
H3237 H 0.60852 0.42889 0.38463 0.0
H3238 H 0.64873 0.37844 0.39363 0.0
H3239 H 0.65437 0.34898 0.40652 0.0
Mn3240 Mn 0.89311 0.78086 0.69121 0.0
Mn3241 Mn 0.89372 0.81884 0.6648 0.0
C3242 C 0.87957 0.81058 0.70585 0.0
C3243 C 0.91223 0.76367 0.71207 0.0
C3244 C 0.86375 0.78438 0.65917 0.0
O3245 O 0.91153 0.77309 0.66747 0.0
O3246 O 0.91352 0.80204 0.65442 0.0
C3247 C 0.93592 0.83252 0.66968 0.0
N3248 N 0.91358 0.83711 0.67165 0.0
C3249 C 0.91219 0.87783 0.67188 0.0
C3250 C 0.94995 0.87265 0.66814 0.0
C3251 C 0.95434 0.84851 0.66767 0.0
C3252 C 0.90197 0.85613 0.67265 0.0
H3253 H 0.94021 0.81766 0.66992 0.0
C3254 C 0.91894 0.7848 0.65509 0.0
O3255 O 0.8979 0.75538 0.7032 0.0
O3256 O 0.91563 0.78158 0.70841 0.0
N3257 N 0.87591 0.83712 0.67283 0.0
C3258 C 0.85723 0.83402 0.67588 0.0
C3259 C 0.8448 0.84925 0.67397 0.0
C3260 C 0.85202 0.86732 0.6682 0.0
C3261 C 0.8714 0.87081 0.66966 0.0
C3262 C 0.88304 0.85487 0.67185 0.0
H3263 H 0.85221 0.81964 0.67922 0.0
O3264 O 0.8762 0.79358 0.71275 0.0
O3265 O 0.89144 0.80919 0.69092 0.0
O3266 O 0.86811 0.77504 0.67447 0.0
O3267 O 0.87327 0.79973 0.6553 0.0
C3268 C 0.8787 0.8895 0.66974 0.0
C3269 C 0.89831 0.89314 0.67143 0.0
H3270 H 0.96172 0.88277 0.66811 0.0
H3271 H 0.969 0.84326 0.66681 0.0
H3272 H 0.8302 0.84625 0.67783 0.0
H3273 H 0.84336 0.87921 0.66379 0.0
H3274 H 0.86887 0.9016 0.6691 0.0
H3275 H 0.90169 0.90788 0.67109 0.0
Mn3276 Mn 0.46173 0.15864 0.94573 0.0
Mn3277 Mn 0.42117 0.16028 0.92684 0.0
C3278 C 0.43552 0.14171 0.96384 0.0
C3279 C 0.47998 0.18069 0.96244 0.0
C3280 C 0.45662 0.13228 0.91405 0.0
O3281 O 0.46469 0.17513 0.91901 0.0
O3282 O 0.4357 0.18407 0.92356 0.0
C3283 C 0.40304 0.19864 0.94114 0.0
N3284 N 0.40174 0.17557 0.9411 0.0
C3285 C 0.36114 0.16858 0.94131 0.0
C3286 C 0.36099 0.207 0.93978 0.0
C3287 C 0.38442 0.21479 0.94003 0.0
C3288 C 0.38425 0.16129 0.94141 0.0
H3289 H 0.41709 0.20536 0.94118 0.0
C3290 C 0.45033 0.18527 0.91328 0.0
O3291 O 0.48821 0.16642 0.95337 0.0
O3292 O 0.46143 0.18208 0.96144 0.0
N3293 N 0.40566 0.13917 0.93066 0.0
C3294 C 0.41137 0.1209 0.93037 0.0
C3295 C 0.39756 0.10705 0.92768 0.0
C3296 C 0.37835 0.1126 0.92446 0.0
C3297 C 0.37269 0.13052 0.93079 0.0
C3298 C 0.38741 0.14356 0.93464 0.0
H3299 H 0.42643 0.11732 0.93179 0.0
O3300 O 0.45333 0.14104 0.96947 0.0
O3301 O 0.43431 0.15366 0.94951 0.0
O3302 O 0.46588 0.13437 0.92974 0.0
O3303 O 0.44138 0.1432 0.91069 0.0
C3304 C 0.35334 0.1348 0.93404 0.0
C3305 C 0.34751 0.15306 0.93961 0.0
H3306 H 0.34935 0.21756 0.93829 0.0
H3307 H 0.38749 0.23008 0.93942 0.0
H3308 H 0.40267 0.09271 0.92919 0.0
H3309 H 0.36738 0.10317 0.91913 0.0
H3310 H 0.34242 0.12376 0.93204 0.0
H3311 H 0.3323 0.15465 0.9408 0.0
Mn3312 Mn 0.59652 0.21394 0.1883 0.0
Mn3313 Mn 0.58463 0.17558 0.16774 0.0
C3314 C 0.61234 0.18644 0.20272 0.0
C3315 C 0.57688 0.23236 0.20757 0.0
C3316 C 0.61915 0.20712 0.15458 0.0
O3317 O 0.57928 0.22166 0.16415 0.0
O3318 O 0.5661 0.19618 0.17247 0.0
C3319 C 0.54764 0.16138 0.18897 0.0
N3320 N 0.57047 0.15846 0.18646 0.0
C3321 C 0.57471 0.11743 0.18725 0.0
C3322 C 0.53636 0.11961 0.18756 0.0
C3323 C 0.53006 0.14371 0.18861 0.0
C3324 C 0.58383 0.13985 0.18692 0.0
H3325 H 0.54208 0.17592 0.18845 0.0
C3326 C 0.5656 0.21015 0.16102 0.0
O3327 O 0.59126 0.24025 0.19831 0.0
O3328 O 0.5744 0.21407 0.20573 0.0
N3329 N 0.59746 0.15224 0.16037 0.0
C3330 C 0.5959 0.14422 0.14162 0.0
C3331 C 0.60591 0.12699 0.13832 0.0
C3332 C 0.6156 0.11779 0.15327 0.0
C3333 C 0.61082 0.12258 0.17229 0.0
C3334 C 0.60021 0.1398 0.17575 0.0
H3335 H 0.59533 0.15642 0.15054 0.0
O3336 O 0.6141 0.20366 0.20961 0.0
O3337 O 0.60022 0.18533 0.18851 0.0
O3338 O 0.61919 0.21639 0.17046 0.0
O3339 O 0.60525 0.19391 0.15123 0.0
C3340 C 0.60828 0.10686 0.18419 0.0
C3341 C 0.58947 0.10284 0.18937 0.0
H3342 H 0.525 0.10866 0.18737 0.0
H3343 H 0.51498 0.14775 0.18906 0.0
H3344 H 0.60584 0.12067 0.12405 0.0
H3345 H 0.62308 0.10448 0.15002 0.0
H3346 H 0.61839 0.09495 0.18358 0.0
H3347 H 0.58713 0.08824 0.1937 0.0
Mn3348 Mn 0.96456 0.34217 0.05127 0.0
Mn3349 Mn 0.9239 0.33785 0.0701 0.0
C3350 C 0.93747 0.35796 0.03353 0.0
C3351 C 0.98429 0.32244 0.03326 0.0
C3352 C 0.95773 0.36761 0.08338 0.0
O3353 O 0.96846 0.3253 0.07767 0.0
O3354 O 0.93986 0.31497 0.07329 0.0
C3355 C 0.9087 0.29837 0.05449 0.0
N3356 N 0.90566 0.32162 0.05548 0.0
C3357 C 0.86352 0.32564 0.05486 0.0
C3358 C 0.86599 0.2865 0.0548 0.0
C3359 C 0.89064 0.28076 0.05454 0.0
C3360 C 0.8868 0.33476 0.05541 0.0
H3361 H 0.92318 0.29265 0.05454 0.0
C3362 C 0.95458 0.31452 0.08352 0.0
O3363 O 0.99147 0.33668 0.04323 0.0
O3364 O 0.96599 0.31929 0.03476 0.0
N3365 N 0.90691 0.3579 0.06648 0.0
C3366 C 0.91155 0.37643 0.0669 0.0
C3367 C 0.89701 0.38946 0.06956 0.0
C3368 C 0.87809 0.38287 0.07264 0.0
C3369 C 0.87342 0.36462 0.0662 0.0
C3370 C 0.88887 0.35249 0.06243 0.0
H3371 H 0.92641 0.38083 0.06559 0.0
O3372 O 0.95523 0.3598 0.02801 0.0
O3373 O 0.93682 0.34554 0.04753 0.0
O3374 O 0.96716 0.3662 0.06775 0.0
O3375 O 0.94299 0.35595 0.08654 0.0
C3376 C 0.85433 0.35928 0.06264 0.0
C3377 C 0.84929 0.34082 0.05663 0.0
H3378 H 0.86134 0.29457 0.05505 0.0
H3379 H 0.89483 0.26574 0.05429 0.0
H3380 H 0.90143 0.40397 0.06807 0.0
H3381 H 0.86672 0.39185 0.07796 0.0
H3382 H 0.84288 0.36977 0.06462 0.0
H3383 H 0.83404 0.33904 0.05494 0.0
Mn3384 Mn 0.89875 0.70751 0.80183 0.0
Mn3385 Mn 0.90771 0.66792 0.82314 0.0
C3386 C 0.88315 0.68021 0.78704 0.0
C3387 C 0.91717 0.72625 0.78172 0.0
C3388 C 0.87482 0.70041 0.83533 0.0
O3389 O 0.9155 0.71449 0.82628 0.0
O3390 O 0.92799 0.68739 0.82057 0.0
C3391 C 0.94558 0.6527 0.80571 0.0
N3392 N 0.92255 0.65072 0.80521 0.0
C3393 C 0.91677 0.6099 0.80511 0.0
C3394 C 0.95486 0.61086 0.80968 0.0
C3395 C 0.96215 0.63456 0.80883 0.0
C3396 C 0.90857 0.63273 0.80335 0.0
H3397 H 0.95171 0.667 0.80614 0.0
C3398 C 0.92798 0.70211 0.83098 0.0
O3399 O 0.90329 0.73387 0.79188 0.0
O3400 O 0.92094 0.70821 0.78429 0.0
N3401 N 0.89183 0.6457 0.82754 0.0
C3402 C 0.8921 0.63625 0.84566 0.0
C3403 C 0.88102 0.61941 0.84719 0.0
C3404 C 0.8714 0.61225 0.83114 0.0
C3405 C 0.87852 0.61734 0.81289 0.0
C3406 C 0.89047 0.63397 0.81144 0.0
H3407 H 0.8933 0.64926 0.83793 0.0
O3408 O 0.88152 0.69741 0.78011 0.0
O3409 O 0.89491 0.67928 0.80152 0.0
O3410 O 0.87587 0.70964 0.81945 0.0
O3411 O 0.8879 0.68667 0.83956 0.0
C3412 C 0.88264 0.60142 0.80175 0.0
C3413 C 0.90184 0.59589 0.80132 0.0
H3414 H 0.96575 0.59955 0.81134 0.0
H3415 H 0.97732 0.63806 0.81 0.0
H3416 H 0.88015 0.61193 0.86086 0.0
H3417 H 0.8628 0.5993 0.83306 0.0
H3418 H 0.87182 0.59031 0.80047 0.0
H3419 H 0.90414 0.5809 0.79866 0.0
Mn3420 Mn 0.09186 0.7779 0.30333 0.0
Mn3421 Mn 0.08804 0.81885 0.32204 0.0
C3422 C 0.10808 0.80476 0.28566 0.0
C3423 C 0.07523 0.75754 0.28362 0.0
C3424 C 0.11695 0.78461 0.3357 0.0
O3425 O 0.07421 0.77449 0.32937 0.0
O3426 O 0.06467 0.80346 0.32507 0.0
C3427 C 0.04943 0.83585 0.30675 0.0
N3428 N 0.07243 0.83789 0.30754 0.0
C3429 C 0.07811 0.87869 0.30804 0.0
C3430 C 0.03967 0.87759 0.30833 0.0
C3431 C 0.03264 0.85392 0.30752 0.0
C3432 C 0.08614 0.85583 0.30786 0.0
H3433 H 0.04323 0.82158 0.30654 0.0
C3434 C 0.06385 0.78871 0.33528 0.0
O3435 O 0.08793 0.75085 0.29572 0.0
O3436 O 0.06985 0.77531 0.28567 0.0
N3437 N 0.10879 0.835 0.31851 0.0
C3438 C 0.12724 0.8298 0.31888 0.0
C3439 C 0.14077 0.84398 0.32132 0.0
C3440 C 0.13474 0.86303 0.32448 0.0
C3441 C 0.11658 0.8682 0.31837 0.0
C3442 C 0.10392 0.85314 0.31464 0.0
H3443 H 0.13122 0.81484 0.31759 0.0
O3444 O 0.11015 0.78696 0.28059 0.0
O3445 O 0.09513 0.80573 0.29924 0.0
O3446 O 0.11559 0.77539 0.32005 0.0
O3447 O 0.10545 0.79944 0.33879 0.0
C3448 C 0.11173 0.88744 0.31519 0.0
C3449 C 0.09323 0.89279 0.3098 0.0
H3450 H 0.02868 0.88887 0.30926 0.0
H3451 H 0.01743 0.85036 0.30751 0.0
H3452 H 0.15524 0.83925 0.3198 0.0
H3453 H 0.14394 0.87421 0.32971 0.0
H3454 H 0.12252 0.89862 0.31701 0.0
H3455 H 0.09129 0.90797 0.30832 0.0
C3456 C 0.11166 0.52638 0.11414 0.0
C3457 C 0.09164 0.53029 0.11194 0.0
C3458 C 0.12424 0.52303 0.09791 0.0
C3459 C 0.1178 0.52417 0.07844 0.0
H3460 H 0.11796 0.52697 0.12844 0.0
H3461 H 0.1395 0.52109 0.10061 0.0
S3462 S 0.06596 0.5278 0.06474 0.0
N3463 N 0.06553 0.52973 0.0885 0.0
N3464 N 0.08883 0.52462 0.05873 0.0
C3465 C 0.0974 0.5247 0.07636 0.0
C3466 C 0.08454 0.5276 0.09283 0.0
C3467 C 0.72998 0.36781 0.34471 0.0
C3468 C 0.72061 0.36609 0.32653 0.0
C3469 C 0.73066 0.352 0.35813 0.0
C3470 C 0.72143 0.33414 0.35414 0.0
H3471 H 0.73546 0.38173 0.3492 0.0
H3472 H 0.73642 0.35455 0.37243 0.0
S3473 S 0.7141 0.31784 0.30427 0.0
N3474 N 0.7153 0.34159 0.30202 0.0
N3475 N 0.7151 0.31301 0.32749 0.0
C3476 C 0.71743 0.33107 0.33458 0.0
C3477 C 0.71742 0.34675 0.32074 0.0
C3478 C 0.86744 0.97097 0.59598 0.0
C3479 C 0.87342 0.96814 0.57655 0.0
C3480 C 0.88108 0.97328 0.61154 0.0
C3481 C 0.90152 0.97304 0.60858 0.0
H3482 H 0.85228 0.96963 0.59949 0.0
H3483 H 0.8756 0.9726 0.62614 0.0
S3484 S 0.92441 0.9732 0.56003 0.0
N3485 N 0.90118 0.97056 0.55523 0.0
N3486 N 0.9261 0.97522 0.58372 0.0
C3487 C 0.90722 0.97419 0.58894 0.0
C3488 C 0.89343 0.97148 0.57321 0.0
C3489 C 0.27469 0.12449 0.86907 0.0
C3490 C 0.27659 0.14481 0.86722 0.0
C3491 C 0.2731 0.11191 0.85259 0.0
C3492 C 0.27412 0.11877 0.83328 0.0
H3493 H 0.27554 0.11809 0.88329 0.0
H3494 H 0.27264 0.09652 0.85502 0.0
S3495 S 0.2725 0.17083 0.82035 0.0
N3496 N 0.27382 0.17109 0.84415 0.0
N3497 N 0.27196 0.14787 0.81395 0.0
C3498 C 0.27254 0.1391 0.83146 0.0
C3499 C 0.27364 0.15191 0.84816 0.0
C3500 C 0.09926 0.46697 0.90459 0.0
C3501 C 0.10559 0.4641 0.88516 0.0
C3502 C 0.11223 0.46669 0.92084 0.0
C3503 C 0.13244 0.4634 0.9187 0.0
H3504 H 0.0839 0.46733 0.90754 0.0
H3505 H 0.10601 0.46642 0.93517 0.0
S3506 S 0.1573 0.46964 0.87173 0.0
N3507 N 0.13431 0.4677 0.86544 0.0
N3508 N 0.15815 0.4676 0.89545 0.0
C3509 C 0.13911 0.46567 0.89951 0.0
C3510 C 0.12592 0.46573 0.88295 0.0
C3511 C 0.77469 0.36531 0.12894 0.0
C3512 C 0.77824 0.34522 0.13087 0.0
C3513 C 0.77259 0.3779 0.14536 0.0
C3514 C 0.77468 0.37135 0.1647 0.0
H3515 H 0.77462 0.37163 0.11465 0.0
H3516 H 0.77088 0.3932 0.14281 0.0
S3517 S 0.77791 0.31945 0.17804 0.0
N3518 N 0.77847 0.31906 0.15421 0.0
N3519 N 0.7756 0.34235 0.18428 0.0
C3520 C 0.77486 0.35096 0.1667 0.0
C3521 C 0.77652 0.33812 0.15007 0.0
C3522 C 0.89932 0.02743 0.40297 0.0
C3523 C 0.89193 0.02756 0.38377 0.0
C3524 C 0.88697 0.02701 0.41963 0.0
C3525 C 0.86647 0.02645 0.41809 0.0
H3526 H 0.91463 0.02974 0.40521 0.0
H3527 H 0.89346 0.0294 0.43365 0.0
S3528 S 0.84199 0.01193 0.37253 0.0
N3529 N 0.86401 0.01758 0.36531 0.0
N3530 N 0.84127 0.01592 0.39608 0.0
C3531 C 0.85965 0.02183 0.39932 0.0
C3532 C 0.87218 0.02263 0.38236 0.0
C3533 C 0.21693 0.12231 0.63139 0.0
C3534 C 0.21429 0.14254 0.63339 0.0
C3535 C 0.21898 0.10969 0.64779 0.0
C3536 C 0.2177 0.11638 0.66716 0.0
H3537 H 0.21632 0.11597 0.61712 0.0
H3538 H 0.22002 0.09435 0.64525 0.0
S3539 S 0.21756 0.16837 0.68045 0.0
N3540 N 0.21617 0.16874 0.65665 0.0
N3541 N 0.2189 0.14541 0.68668 0.0
C3542 C 0.21859 0.13674 0.66911 0.0
C3543 C 0.21701 0.1496 0.6525 0.0
C3544 C 0.07104 0.09739 0.53084 0.0
C3545 C 0.07312 0.11776 0.52917 0.0
C3546 C 0.08738 0.08466 0.53192 0.0
C3547 C 0.10678 0.0915 0.53153 0.0
H3548 H 0.05684 0.09142 0.53359 0.0
H3549 H 0.08475 0.06958 0.53509 0.0
S3550 S 0.11916 0.14035 0.51341 0.0
N3551 N 0.09564 0.14182 0.51738 0.0
N3552 N 0.12587 0.11845 0.52006 0.0
C3553 C 0.10865 0.11093 0.52553 0.0
C3554 C 0.09201 0.12383 0.52413 0.0
C3555 C 0.11944 0.34626 0.76478 0.0
C3556 C 0.1218 0.32649 0.77001 0.0
C3557 C 0.13569 0.35932 0.76253 0.0
C3558 C 0.15526 0.35371 0.76636 0.0
H3559 H 0.10498 0.35215 0.76403 0.0
H3560 H 0.13253 0.37454 0.76091 0.0
S3561 S 0.16999 0.30237 0.77037 0.0
N3562 N 0.14615 0.3012 0.77104 0.0
N3563 N 0.17559 0.32541 0.76822 0.0
C3564 C 0.15775 0.33342 0.76729 0.0
C3565 C 0.14139 0.32008 0.76904 0.0
C3566 C 0.90634 0.40489 0.03003 0.0
C3567 C 0.88698 0.39792 0.02926 0.0
C3568 C 0.92279 0.39227 0.0291 0.0
C3569 C 0.9209 0.37189 0.02721 0.0
H3570 H 0.90881 0.41996 0.03336 0.0
H3571 H 0.9369 0.39831 0.03211 0.0
S3572 S 0.87514 0.34906 0.01086 0.0
N3573 N 0.86822 0.37089 0.01749 0.0
N3574 N 0.89862 0.3477 0.01514 0.0
C3575 C 0.90208 0.36571 0.02197 0.0
C3576 C 0.88533 0.3785 0.02319 0.0
C3577 C 0.86115 0.12799 0.27378 0.0
C3578 C 0.8412 0.13081 0.27765 0.0
C3579 C 0.87437 0.14384 0.27126 0.0
C3580 C 0.86866 0.16345 0.27324 0.0
H3581 H 0.86686 0.11345 0.27377 0.0
H3582 H 0.88953 0.14063 0.2693 0.0
S3583 S 0.81736 0.17898 0.27705 0.0
N3584 N 0.81599 0.1552 0.27792 0.0
N3585 N 0.84048 0.18424 0.27432 0.0
C3586 C 0.84836 0.16631 0.27368 0.0
C3587 C 0.83485 0.15025 0.27575 0.0
C3588 C 0.07346 0.89423 0.46514 0.0
C3589 C 0.07514 0.87381 0.46688 0.0
C3590 C 0.09004 0.90668 0.46372 0.0
C3591 C 0.10933 0.89949 0.46378 0.0
H3592 H 0.05934 0.90046 0.46263 0.0
H3593 H 0.08764 0.92179 0.46053 0.0
S3594 S 0.12127 0.85052 0.48162 0.0
N3595 N 0.09762 0.84943 0.4782 0.0
N3596 N 0.12819 0.87226 0.47474 0.0
C3597 C 0.11095 0.88004 0.46967 0.0
C3598 C 0.0941 0.86744 0.47146 0.0
C3599 C 0.33098 0.33876 0.70047 0.0
C3600 C 0.34092 0.35639 0.70332 0.0
C3601 C 0.34101 0.32077 0.69825 0.0
C3602 C 0.3609 0.31912 0.70241 0.0
H3603 H 0.31551 0.33917 0.69858 0.0
H3604 H 0.33318 0.3083 0.69299 0.0
S3605 S 0.38025 0.35305 0.7389 0.0
N3606 N 0.36468 0.36649 0.72672 0.0
N3607 N 0.38078 0.33176 0.72811 0.0
C3608 C 0.36788 0.33468 0.71368 0.0
C3609 C 0.35852 0.35362 0.71332 0.0
C3610 C 0.90139 0.59059 0.96859 0.0
C3611 C 0.88171 0.59588 0.97076 0.0
C3612 C 0.91664 0.60459 0.96748 0.0
C3613 C 0.91305 0.62485 0.96734 0.0
H3614 H 0.90491 0.5756 0.9659 0.0
H3615 H 0.93109 0.59947 0.96436 0.0
S3616 S 0.86581 0.64607 0.98127 0.0
N3617 N 0.86092 0.62283 0.97894 0.0
N3618 N 0.88902 0.64865 0.97625 0.0
C3619 C 0.89404 0.63008 0.97262 0.0
C3620 C 0.8786 0.61582 0.97425 0.0
C3621 C 0.61887 0.15228 0.21385 0.0
C3622 C 0.6257 0.17065 0.20878 0.0
C3623 C 0.63156 0.13644 0.21535 0.0
C3624 C 0.65166 0.13877 0.21327 0.0
H3625 H 0.60363 0.15004 0.21615 0.0
H3626 H 0.62557 0.12214 0.21731 0.0
S3627 S 0.67718 0.18562 0.20945 0.0
N3628 N 0.65407 0.1913 0.20745 0.0
N3629 N 0.67794 0.16196 0.2123 0.0
C3630 C 0.65879 0.15771 0.21205 0.0
C3631 C 0.64582 0.17363 0.20949 0.0
C3632 C 0.52703 0.0831 0.0995 0.0
C3633 C 0.52556 0.084 0.12008 0.0
C3634 C 0.52707 0.10005 0.08725 0.0
C3635 C 0.52557 0.11929 0.09453 0.0
H3636 H 0.53024 0.06932 0.09286 0.0
H3637 H 0.53024 0.09803 0.07208 0.0
S3638 S 0.50811 0.1286 0.14456 0.0
N3639 N 0.5136 0.10537 0.14511 0.0
N3640 N 0.51328 0.13632 0.12257 0.0
C3641 C 0.51968 0.1198 0.11424 0.0
C3642 C 0.5198 0.10257 0.12676 0.0
C3643 C 0.03091 0.90628 0.40418 0.0
C3644 C 0.03077 0.88672 0.39786 0.0
C3645 C 0.03013 0.92225 0.39098 0.0
C3646 C 0.02907 0.91965 0.3706 0.0
H3647 H 0.03364 0.90933 0.41927 0.0
H3648 H 0.03265 0.93659 0.39666 0.0
S3649 S 0.01408 0.87284 0.34896 0.0
N3650 N 0.02022 0.86682 0.37119 0.0
N3651 N 0.01802 0.89632 0.34689 0.0
C3652 C 0.02432 0.90054 0.36492 0.0
C3653 C 0.02541 0.88428 0.37832 0.0
C3654 C 0.31286 0.27508 0.63606 0.0
C3655 C 0.31322 0.27583 0.61575 0.0
C3656 C 0.33019 0.27271 0.64683 0.0
C3657 C 0.34855 0.27114 0.63768 0.0
H3658 H 0.29965 0.27852 0.64369 0.0
H3659 H 0.32942 0.2744 0.66235 0.0
S3660 S 0.35176 0.24999 0.58897 0.0
N3661 N 0.32979 0.25954 0.58956 0.0
N3662 N 0.36247 0.25641 0.60933 0.0
C3663 C 0.34785 0.26609 0.61806 0.0
C3664 C 0.33008 0.26807 0.60718 0.0
C3665 C 0.96001 0.58978 0.90761 0.0
C3666 C 0.96025 0.60898 0.90014 0.0
C3667 C 0.96122 0.57289 0.89542 0.0
C3668 C 0.96281 0.57401 0.87487 0.0
H3669 H 0.95673 0.58768 0.92275 0.0
H3670 H 0.95857 0.55896 0.90197 0.0
S3671 S 0.97883 0.6192 0.85096 0.0
N3672 N 0.9722 0.62674 0.87258 0.0
N3673 N 0.9745 0.59575 0.85017 0.0
C3674 C 0.96768 0.59276 0.86824 0.0
C3675 C 0.96641 0.60992 0.88064 0.0
C3676 C 0.17503 0.71264 0.13453 0.0
C3677 C 0.17313 0.71315 0.11409 0.0
C3678 C 0.15856 0.71268 0.14714 0.0
C3679 C 0.13921 0.713 0.14008 0.0
H3680 H 0.18911 0.70996 0.14078 0.0
H3681 H 0.161 0.71043 0.16241 0.0
S3682 S 0.12768 0.72875 0.09029 0.0
N3683 N 0.15108 0.72406 0.08921 0.0
N3684 N 0.12061 0.72342 0.11243 0.0
C3685 C 0.13762 0.7179 0.12035 0.0
C3686 C 0.1544 0.71817 0.10756 0.0
C3687 C 0.4642 0.92888 0.08892 0.0
C3688 C 0.47172 0.92608 0.10776 0.0
C3689 C 0.46632 0.91434 0.07429 0.0
C3690 C 0.47667 0.89688 0.07785 0.0
H3691 H 0.45464 0.94088 0.08635 0.0
H3692 H 0.45839 0.91615 0.06102 0.0
S3693 S 0.51434 0.89447 0.11607 0.0
N3694 N 0.49986 0.912 0.12349 0.0
N3695 N 0.50606 0.88724 0.09483 0.0
C3696 C 0.49086 0.89941 0.09256 0.0
C3697 C 0.48758 0.91312 0.10828 0.0
C3698 C 0.33757 0.21951 0.88708 0.0
C3699 C 0.31817 0.21661 0.88092 0.0
C3700 C 0.35378 0.21853 0.87406 0.0
C3701 C 0.35149 0.21538 0.85394 0.0
H3702 H 0.3404 0.22095 0.90234 0.0
H3703 H 0.36823 0.21915 0.88002 0.0
S3704 S 0.30365 0.21511 0.82924 0.0
N3705 N 0.29789 0.21617 0.85236 0.0
N3706 N 0.32749 0.21539 0.82831 0.0
C3707 C 0.33203 0.21665 0.84734 0.0
C3708 C 0.31566 0.21717 0.8606 0.0
C3709 C 0.6452 0.27351 0.37879 0.0
C3710 C 0.66392 0.27333 0.37084 0.0
C3711 C 0.62828 0.27375 0.36724 0.0
C3712 C 0.62938 0.27223 0.34701 0.0
H3713 H 0.64399 0.27468 0.39415 0.0
H3714 H 0.61444 0.27616 0.3741 0.0
S3715 S 0.67504 0.26505 0.31926 0.0
N3716 N 0.68244 0.26756 0.34179 0.0
N3717 N 0.65121 0.26619 0.31996 0.0
C3718 C 0.64807 0.26848 0.33919 0.0
C3719 C 0.66523 0.26924 0.35105 0.0
C3720 C 0.08758 0.02647 0.59123 0.0
C3721 C 0.09479 0.02658 0.61052 0.0
C3722 C 0.10002 0.02504 0.57466 0.0
C3723 C 0.12045 0.02337 0.57635 0.0
H3724 H 0.07243 0.02956 0.58883 0.0
H3725 H 0.09377 0.02751 0.56054 0.0
S3726 S 0.14399 0.00885 0.6223 0.0
N3727 N 0.12219 0.01563 0.62928 0.0
N3728 N 0.14497 0.01221 0.59869 0.0
C3729 C 0.12687 0.01883 0.59525 0.0
C3730 C 0.11429 0.02064 0.61211 0.0
C3731 C 0.71181 0.85079 0.81789 0.0
C3732 C 0.716 0.86976 0.82425 0.0
C3733 C 0.71383 0.83433 0.83014 0.0
C3734 C 0.72121 0.8356 0.84917 0.0
H3735 H 0.70513 0.84881 0.80391 0.0
H3736 H 0.70829 0.8207 0.82498 0.0
S3737 S 0.743 0.8804 0.86939 0.0
N3738 N 0.73354 0.88772 0.84872 0.0
N3739 N 0.73917 0.85687 0.87063 0.0
C3740 C 0.73003 0.85369 0.85358 0.0
C3741 C 0.7268 0.87077 0.8416 0.0
C3742 C 0.86476 0.46798 0.09381 0.0
C3743 C 0.8717 0.46594 0.07458 0.0
C3744 C 0.87705 0.46603 0.11049 0.0
C3745 C 0.89726 0.46278 0.10899 0.0
H3746 H 0.84938 0.46949 0.09605 0.0
H3747 H 0.87043 0.46599 0.12465 0.0
S3748 S 0.92397 0.4635 0.06232 0.0
N3749 N 0.90115 0.46544 0.05561 0.0
N3750 N 0.92389 0.46298 0.08616 0.0
C3751 C 0.90471 0.46463 0.08992 0.0
C3752 C 0.89215 0.46607 0.07301 0.0
C3753 C 0.28133 0.62322 0.35593 0.0
C3754 C 0.28216 0.64364 0.35573 0.0
C3755 C 0.28026 0.61194 0.33845 0.0
C3756 C 0.28082 0.61965 0.3195 0.0
H3757 H 0.28182 0.61579 0.36963 0.0
H3758 H 0.27878 0.59694 0.33965 0.0
S3759 S 0.27018 0.67166 0.31095 0.0
N3760 N 0.27367 0.67067 0.33455 0.0
N3761 N 0.2727 0.6494 0.30272 0.0
C3762 C 0.27607 0.6397 0.31937 0.0
C3763 C 0.27675 0.65152 0.33718 0.0
C3764 C 0.1199 0.96563 0.38059 0.0
C3765 C 0.09968 0.96289 0.38264 0.0
C3766 C 0.13256 0.96768 0.39696 0.0
C3767 C 0.12591 0.96632 0.41633 0.0
H3768 H 0.1262 0.96511 0.3663 0.0
H3769 H 0.14793 0.96875 0.3944 0.0
S3770 S 0.0739 0.96588 0.42975 0.0
N3771 N 0.07349 0.9646 0.40594 0.0
N3772 N 0.09691 0.96733 0.43593 0.0
C3773 C 0.10554 0.96715 0.41834 0.0
C3774 C 0.09263 0.96555 0.40176 0.0
C3775 C 0.77132 0.85806 0.67171 0.0
C3776 C 0.77004 0.87856 0.67022 0.0
C3777 C 0.77181 0.84567 0.65501 0.0
C3778 C 0.77022 0.85288 0.63586 0.0
H3779 H 0.77463 0.85173 0.68561 0.0
H3780 H 0.77531 0.83059 0.6571 0.0
S3781 S 0.7541 0.90281 0.62501 0.0
N3782 N 0.75866 0.90356 0.64846 0.0
N3783 N 0.75945 0.88074 0.61775 0.0
C3784 C 0.76481 0.87255 0.6347 0.0
C3785 C 0.76453 0.88516 0.65162 0.0
C3786 C 0.89857 0.5266 0.90719 0.0
C3787 C 0.89188 0.52832 0.88769 0.0
C3788 C 0.88575 0.52637 0.9237 0.0
C3789 C 0.86526 0.52818 0.92183 0.0
H3790 H 0.91393 0.52765 0.90995 0.0
H3791 H 0.89213 0.52767 0.93791 0.0
S3792 S 0.84045 0.51772 0.87555 0.0
N3793 N 0.86318 0.52101 0.86882 0.0
N3794 N 0.83977 0.52084 0.89914 0.0
C3795 C 0.85868 0.52436 0.90283 0.0
C3796 C 0.87169 0.52457 0.88603 0.0
C3797 C 0.21596 0.63956 0.16761 0.0
C3798 C 0.21631 0.61904 0.16664 0.0
C3799 C 0.21521 0.65146 0.15063 0.0
C3800 C 0.21458 0.64361 0.13162 0.0
H3801 H 0.21399 0.64644 0.1815 0.0
H3802 H 0.21308 0.66682 0.15251 0.0
S3803 S 0.2291 0.5931 0.12135 0.0
N3804 N 0.22582 0.59312 0.14503 0.0
N3805 N 0.22368 0.61502 0.11371 0.0
C3806 C 0.21927 0.62376 0.13065 0.0
C3807 C 0.22036 0.61168 0.14793 0.0
C3808 C 0.07101 0.59812 0.02755 0.0
C3809 C 0.074 0.61831 0.02507 0.0
C3810 C 0.08677 0.58475 0.02953 0.0
C3811 C 0.10648 0.59072 0.02931 0.0
H3812 H 0.05652 0.59289 0.03023 0.0
H3813 H 0.08342 0.56995 0.03326 0.0
S3814 S 0.12133 0.6382 0.00955 0.0
N3815 N 0.09784 0.64087 0.01295 0.0
N3816 N 0.12694 0.61634 0.01726 0.0
C3817 C 0.1093 0.60981 0.02263 0.0
C3818 C 0.09327 0.62334 0.02032 0.0
C3819 C 0.15574 0.83478 0.28176 0.0
C3820 C 0.14922 0.85427 0.28118 0.0
C3821 C 0.14271 0.81866 0.28093 0.0
C3822 C 0.12233 0.82104 0.27932 0.0
H3823 H 0.17081 0.83194 0.2849 0.0
H3824 H 0.14846 0.80441 0.28382 0.0
S3825 S 0.10047 0.86722 0.26312 0.0
N3826 N 0.12252 0.87364 0.26965 0.0
N3827 N 0.0986 0.84381 0.26737 0.0
C3828 C 0.11657 0.83996 0.27412 0.0
C3829 C 0.12977 0.85639 0.27528 0.0
C3830 C 0.9245 0.89101 0.53597 0.0
C3831 C 0.92236 0.87066 0.53324 0.0
C3832 C 0.9083 0.90436 0.5344 0.0
C3833 C 0.88873 0.89777 0.53225 0.0
H3834 H 0.93831 0.8966 0.54071 0.0
H3835 H 0.91083 0.91943 0.53747 0.0
S3836 S 0.88311 0.85567 0.49981 0.0
N3837 N 0.90453 0.85193 0.50977 0.0
N3838 N 0.87382 0.87482 0.5107 0.0
C3839 C 0.88824 0.87945 0.52309 0.0
C3840 C 0.90516 0.86652 0.52283 0.0
C3841 C 0.84919 0.66866 0.78673 0.0
C3842 C 0.86863 0.66525 0.78201 0.0
C3843 C 0.83493 0.65462 0.78348 0.0
C3844 C 0.83958 0.63636 0.7759 0.0
H3845 H 0.84507 0.682 0.79379 0.0
H3846 H 0.82046 0.65751 0.78858 0.0
S3847 S 0.88738 0.62231 0.75625 0.0
N3848 N 0.89094 0.64425 0.76498 0.0
N3849 N 0.86449 0.61701 0.76061 0.0
C3850 C 0.8586 0.63356 0.76928 0.0
C3851 C 0.87305 0.6482 0.77196 0.0
C3852 C 0.09159 0.40336 0.9652 0.0
C3853 C 0.11087 0.39634 0.96641 0.0
C3854 C 0.07504 0.39071 0.96471 0.0
C3855 C 0.07679 0.37016 0.96441 0.0
H3856 H 0.08929 0.4186 0.96266 0.0
H3857 H 0.06105 0.39708 0.96186 0.0
S3858 S 0.12228 0.34518 0.97827 0.0
N3859 N 0.12922 0.36781 0.97519 0.0
N3860 N 0.09881 0.3446 0.97377 0.0
C3861 C 0.09539 0.36345 0.96974 0.0
C3862 C 0.11217 0.3763 0.97057 0.0
C3863 C 0.34835 0.81715 0.21566 0.0
C3864 C 0.36882 0.81904 0.21765 0.0
C3865 C 0.33574 0.83359 0.21316 0.0
C3866 C 0.34267 0.85302 0.21253 0.0
H3867 H 0.34231 0.80291 0.21343 0.0
H3868 H 0.32075 0.83088 0.20962 0.0
S3869 S 0.39156 0.86586 0.23079 0.0
N3870 N 0.39282 0.84216 0.22835 0.0
N3871 N 0.36974 0.87233 0.22351 0.0
C3872 C 0.36203 0.85491 0.21907 0.0
C3873 C 0.37481 0.83821 0.22173 0.0
C3874 C 0.92 0.09967 0.46084 0.0
C3875 C 0.91885 0.12017 0.46186 0.0
C3876 C 0.90309 0.08765 0.46039 0.0
C3877 C 0.88401 0.09535 0.46077 0.0
H3878 H 0.93388 0.093 0.45812 0.0
H3879 H 0.90501 0.07237 0.45771 0.0
S3880 S 0.87407 0.14521 0.47747 0.0
N3881 N 0.89756 0.14555 0.47312 0.0
N3882 N 0.8663 0.12345 0.47157 0.0
C3883 C 0.88309 0.11503 0.4661 0.0
C3884 C 0.9003 0.12722 0.46687 0.0
C3885 C 0.62688 0.62893 0.71593 0.0
C3886 C 0.64719 0.63087 0.71371 0.0
C3887 C 0.61414 0.64533 0.71705 0.0
C3888 C 0.62079 0.66467 0.71524 0.0
H3889 H 0.62059 0.61463 0.71571 0.0
H3890 H 0.59876 0.64276 0.7178 0.0
S3891 S 0.67284 0.67809 0.71534 0.0
N3892 N 0.6733 0.65426 0.71501 0.0
N3893 N 0.64981 0.6843 0.71608 0.0
C3894 C 0.64117 0.66671 0.71639 0.0
C3895 C 0.65414 0.65009 0.71573 0.0
C3896 C 0.5324 0.56861 0.59748 0.0
C3897 C 0.5301 0.57069 0.6178 0.0
C3898 C 0.53439 0.58494 0.58481 0.0
C3899 C 0.53438 0.60436 0.59164 0.0
H3900 H 0.53499 0.55437 0.59158 0.0
H3901 H 0.53796 0.58222 0.56984 0.0
S3902 S 0.51496 0.61714 0.63991 0.0
N3903 N 0.51822 0.59355 0.64147 0.0
N3904 N 0.52252 0.62368 0.61825 0.0
C3905 C 0.52775 0.60634 0.61087 0.0
C3906 C 0.52544 0.58973 0.6237 0.0
C3907 C 0.03344 0.40986 0.90628 0.0
C3908 C 0.03102 0.39089 0.89867 0.0
C3909 C 0.03314 0.42692 0.89431 0.0
C3910 C 0.0308 0.42613 0.87382 0.0
H3911 H 0.0375 0.41146 0.92129 0.0
H3912 H 0.03723 0.44051 0.90087 0.0
S3913 S 0.01152 0.38229 0.84953 0.0
N3914 N 0.01794 0.37414 0.87098 0.0
N3915 N 0.01713 0.4055 0.84906 0.0
C3916 C 0.02433 0.40788 0.86709 0.0
C3917 C 0.02464 0.39056 0.87924 0.0
C3918 C 0.34926 0.77271 0.11059 0.0
C3919 C 0.32935 0.77242 0.11575 0.0
C3920 C 0.36447 0.77394 0.12478 0.0
C3921 C 0.36089 0.77416 0.145 0.0
H3922 H 0.35306 0.7742 0.09552 0.0
H3923 H 0.37899 0.77637 0.11977 0.0
S3924 S 0.31225 0.76523 0.16622 0.0
N3925 N 0.30788 0.76636 0.14281 0.0
N3926 N 0.33583 0.76787 0.16872 0.0
C3927 C 0.34148 0.76957 0.15004 0.0
C3928 C 0.326 0.76868 0.13568 0.0
C3929 C 0.96455 0.08894 0.35921 0.0
C3930 C 0.96178 0.06992 0.36641 0.0
C3931 C 0.96353 0.10578 0.37138 0.0
C3932 C 0.96043 0.10451 0.3916 0.0
H3933 H 0.96596 0.09096 0.34381 0.0
H3934 H 0.96409 0.11988 0.36468 0.0
S3935 S 0.96031 0.05812 0.41876 0.0
N3936 N 0.96145 0.05118 0.39598 0.0
N3937 N 0.96055 0.08195 0.41845 0.0
C3938 C 0.96183 0.08548 0.39921 0.0
C3939 C 0.96241 0.06847 0.38682 0.0
C3940 C 0.13342 0.21304 0.62695 0.0
C3941 C 0.13569 0.21005 0.64711 0.0
C3942 C 0.14965 0.21459 0.61402 0.0
C3943 C 0.16909 0.21241 0.62032 0.0
H3944 H 0.11901 0.2131 0.62089 0.0
H3945 H 0.14686 0.21593 0.59873 0.0
S3946 S 0.18331 0.21116 0.67211 0.0
N3947 N 0.15947 0.21067 0.67289 0.0
N3948 N 0.18918 0.21253 0.64904 0.0
C3949 C 0.17144 0.21299 0.64067 0.0
C3950 C 0.15502 0.21189 0.65384 0.0
C3951 C 0.47154 0.39239 0.63673 0.0
C3952 C 0.4694 0.41212 0.63162 0.0
C3953 C 0.4711 0.37714 0.62261 0.0
C3954 C 0.469 0.38066 0.60249 0.0
H3955 H 0.47152 0.38851 0.65186 0.0
H3956 H 0.47076 0.36239 0.62773 0.0
S3957 S 0.47096 0.42969 0.58081 0.0
N3958 N 0.47136 0.43403 0.60427 0.0
N3959 N 0.47055 0.40596 0.57839 0.0
C3960 C 0.47101 0.40031 0.59714 0.0
C3961 C 0.47148 0.41581 0.61147 0.0
C3962 C 0.34398 0.71597 0.37177 0.0
C3963 C 0.32551 0.71 0.36587 0.0
C3964 C 0.35921 0.71773 0.35835 0.0
C3965 C 0.35618 0.71473 0.33846 0.0
H3966 H 0.34689 0.71848 0.38689 0.0
H3967 H 0.3737 0.72025 0.36368 0.0
S3968 S 0.30867 0.7073 0.3151 0.0
N3969 N 0.3039 0.70642 0.33845 0.0
N3970 N 0.33214 0.71118 0.31328 0.0
C3971 C 0.33706 0.71228 0.33221 0.0
C3972 C 0.32175 0.7097 0.34589 0.0
C3973 C 0.65548 0.76475 0.87408 0.0
C3974 C 0.67347 0.7687 0.86547 0.0
C3975 C 0.63778 0.76542 0.86365 0.0
C3976 C 0.63746 0.7688 0.8436 0.0
H3977 H 0.65534 0.76226 0.88935 0.0
H3978 H 0.6243 0.76433 0.8715 0.0
S3979 S 0.68138 0.77263 0.81274 0.0
N3980 N 0.69017 0.77143 0.83488 0.0
N3981 N 0.65766 0.77084 0.81485 0.0
C3982 C 0.65578 0.76888 0.83427 0.0
C3983 C 0.67364 0.76919 0.84518 0.0
C3984 C 0.63307 0.52074 0.59473 0.0
C3985 C 0.62739 0.52284 0.57511 0.0
C3986 C 0.61969 0.52259 0.61057 0.0
C3987 C 0.59963 0.52586 0.60773 0.0
H3988 H 0.64827 0.51923 0.59799 0.0
H3989 H 0.62535 0.52253 0.62513 0.0
S3990 S 0.57603 0.52522 0.55941 0.0
N3991 N 0.59925 0.52331 0.55422 0.0
N3992 N 0.57454 0.5257 0.5832 0.0
C3993 C 0.59344 0.52406 0.58821 0.0
C3994 C 0.60708 0.52267 0.57218 0.0
C3995 C 0.22097 0.34339 0.81834 0.0
C3996 C 0.22346 0.36361 0.81922 0.0
C3997 C 0.22187 0.33168 0.83526 0.0
C3998 C 0.22539 0.33968 0.85382 0.0
H3999 H 0.21642 0.33681 0.80491 0.0
H4000 H 0.2175 0.31671 0.83409 0.0
S4001 S 0.24975 0.3867 0.85989 0.0
N4002 N 0.24145 0.38752 0.83745 0.0
N4003 N 0.24172 0.36631 0.8693 0.0
C4004 C 0.23237 0.35874 0.85385 0.0
C4005 C 0.23189 0.37046 0.83653 0.0
C4006 C 0.39796 0.94693 0.06177 0.0
C4007 C 0.37784 0.94919 0.06406 0.0
C4008 C 0.41116 0.95052 0.07715 0.0
C4009 C 0.40488 0.95433 0.09628 0.0
H4010 H 0.4036 0.94192 0.04812 0.0
H4011 H 0.42631 0.9487 0.07418 0.0
S4012 S 0.35809 0.9783 0.10448 0.0
N4013 N 0.3557 0.96885 0.08267 0.0
N4014 N 0.37916 0.97094 0.11288 0.0
C4015 C 0.38563 0.96076 0.09748 0.0
C4016 C 0.37247 0.95898 0.08118 0.0
C4017 C 0.77727 0.15493 0.3375 0.0
C4018 C 0.77806 0.14868 0.3571 0.0
C4019 C 0.77484 0.14175 0.32166 0.0
C4020 C 0.77285 0.12148 0.32444 0.0
H4021 H 0.78058 0.16984 0.33421 0.0
H4022 H 0.77684 0.14723 0.30716 0.0
S4023 S 0.75932 0.10092 0.37218 0.0
N4024 N 0.76708 0.12277 0.37771 0.0
N4025 N 0.76181 0.09854 0.34853 0.0
C4026 C 0.76891 0.11615 0.34385 0.0
C4027 C 0.77171 0.12951 0.35995 0.0
C4028 C 0.62356 0.46084 0.40593 0.0
C4029 C 0.61406 0.45663 0.42319 0.0
C4030 C 0.61415 0.46311 0.38769 0.0
C4031 C 0.59386 0.46113 0.38577 0.0
H4032 H 0.63863 0.46206 0.4073 0.0
H4033 H 0.62294 0.46462 0.37486 0.0
S4034 S 0.56058 0.45803 0.42797 0.0
N4035 N 0.58224 0.45631 0.43794 0.0
N4036 N 0.5641 0.4606 0.40448 0.0
C4037 C 0.58368 0.46051 0.40364 0.0
C4038 C 0.59368 0.4581 0.42215 0.0
C4039 C 0.26897 0.34177 0.65609 0.0
C4040 C 0.26659 0.34678 0.63625 0.0
C4041 C 0.27196 0.35597 0.67099 0.0
C4042 C 0.27264 0.37624 0.66732 0.0
H4043 H 0.2714 0.32677 0.65974 0.0
H4044 H 0.27575 0.35083 0.68526 0.0
S4045 S 0.2584 0.39747 0.62003 0.0
N4046 N 0.25873 0.37402 0.61556 0.0
N4047 N 0.2641 0.40007 0.64308 0.0
C4048 C 0.26636 0.38139 0.64846 0.0
C4049 C 0.26316 0.36689 0.63325 0.0
C4050 C 0.4086 0.03469 0.90751 0.0
C4051 C 0.401 0.03468 0.88838 0.0
C4052 C 0.39658 0.03254 0.92427 0.0
C4053 C 0.37621 0.03005 0.92293 0.0
H4054 H 0.42364 0.03839 0.90967 0.0
H4055 H 0.403 0.0351 0.93829 0.0
S4056 S 0.35261 0.01441 0.87737 0.0
N4057 N 0.37388 0.02237 0.87003 0.0
N4058 N 0.35186 0.01769 0.90101 0.0
C4059 C 0.36963 0.02527 0.90415 0.0
C4060 C 0.3818 0.02778 0.88708 0.0
C4061 C 0.73126 0.12373 0.13314 0.0
C4062 C 0.72888 0.14393 0.13204 0.0
C4063 C 0.72862 0.11337 0.15077 0.0
C4064 C 0.72214 0.12239 0.16765 0.0
H4065 H 0.73415 0.11574 0.12006 0.0
H4066 H 0.73071 0.0979 0.15112 0.0
S4067 S 0.7262 0.17532 0.17555 0.0
N4068 N 0.72831 0.17292 0.15189 0.0
N4069 N 0.72407 0.15326 0.18442 0.0
C4070 C 0.72518 0.14264 0.16798 0.0
C4071 C 0.72785 0.15341 0.15016 0.0
C4072 C 0.5713 0.1113 0.0203 0.0
C4073 C 0.57541 0.13127 0.02378 0.0
C4074 C 0.58626 0.09692 0.01736 0.0
C4075 C 0.6063 0.10172 0.01643 0.0
H4076 H 0.55663 0.10627 0.02233 0.0
H4077 H 0.58219 0.08185 0.01806 0.0
S4078 S 0.62199 0.15194 0.0075 0.0
N4079 N 0.59951 0.15485 0.01493 0.0
N4080 N 0.62692 0.12872 0.00904 0.0
C4081 C 0.60962 0.12185 0.01502 0.0
C4082 C 0.59453 0.13633 0.01853 0.0
C4083 C 0.63816 0.35814 0.28215 0.0
C4084 C 0.65829 0.35549 0.28531 0.0
C4085 C 0.62502 0.34212 0.28167 0.0
C4086 C 0.63055 0.32262 0.28341 0.0
H4087 H 0.63218 0.37257 0.28281 0.0
H4088 H 0.61021 0.34483 0.28017 0.0
S4089 S 0.68088 0.30822 0.27281 0.0
N4090 N 0.68277 0.33173 0.27685 0.0
N4091 N 0.65809 0.30238 0.27658 0.0
C4092 C 0.65061 0.31994 0.28082 0.0
C4093 C 0.66429 0.33618 0.28132 0.0
C4094 C 0.38612 0.37901 0.53132 0.0
C4095 C 0.38992 0.39914 0.53283 0.0
C4096 C 0.40124 0.36466 0.53022 0.0
C4097 C 0.42121 0.36947 0.53161 0.0
H4098 H 0.37142 0.37411 0.53257 0.0
H4099 H 0.39714 0.3496 0.53056 0.0
S4100 S 0.43937 0.41998 0.52832 0.0
N4101 N 0.4157 0.42271 0.52948 0.0
N4102 N 0.44335 0.39648 0.52847 0.0
C4103 C 0.42503 0.38952 0.52917 0.0
C4104 C 0.40969 0.40406 0.5298 0.0
C4105 C 0.34441 0.17351 0.78479 0.0
C4106 C 0.36491 0.17259 0.78316 0.0
C4107 C 0.33258 0.1565 0.78611 0.0
C4108 C 0.34049 0.13752 0.78601 0.0
H4109 H 0.33764 0.18736 0.78736 0.0
H4110 H 0.31737 0.15834 0.78928 0.0
S4111 S 0.38983 0.12756 0.76781 0.0
N4112 N 0.39011 0.15116 0.77151 0.0
N4113 N 0.36838 0.11979 0.77474 0.0
C4114 C 0.36 0.13665 0.78005 0.0
C4115 C 0.372 0.15395 0.77839 0.0
C4116 C 0.60929 0.8629 0.96285 0.0
C4117 C 0.60635 0.88315 0.96496 0.0
C4118 C 0.59354 0.84915 0.96266 0.0
C4119 C 0.57374 0.85483 0.9637 0.0
H4120 H 0.62369 0.85763 0.95991 0.0
H4121 H 0.59684 0.83423 0.95955 0.0
S4122 S 0.55833 0.90469 0.97661 0.0
N4123 N 0.58197 0.9067 0.97414 0.0
N4124 N 0.55324 0.88171 0.9729 0.0
C4125 C 0.57111 0.8743 0.96968 0.0
C4126 C 0.58707 0.88816 0.9703 0.0
C4127 C 0.84787 0.32069 0.21174 0.0
C4128 C 0.86821 0.32279 0.21392 0.0
C4129 C 0.83518 0.33702 0.21021 0.0
C4130 C 0.84208 0.35639 0.21057 0.0
H4131 H 0.84197 0.30649 0.20896 0.0
H4132 H 0.82015 0.33439 0.20671 0.0
S4133 S 0.8905 0.36892 0.22965 0.0
N4134 N 0.89206 0.3454 0.22595 0.0
N4135 N 0.86877 0.37558 0.22241 0.0
C4136 C 0.86137 0.35832 0.21695 0.0
C4137 C 0.87421 0.34171 0.21881 0.0
C4138 C 0.41814 0.59988 0.46145 0.0
C4139 C 0.41659 0.62036 0.46327 0.0
C4140 C 0.40148 0.58745 0.46 0.0
C4141 C 0.38217 0.59458 0.46049 0.0
H4142 H 0.43222 0.59362 0.4588 0.0
H4143 H 0.40384 0.57239 0.45656 0.0
S4144 S 0.37088 0.64368 0.47877 0.0
N4145 N 0.39437 0.6448 0.47464 0.0
N4146 N 0.36378 0.62184 0.4723 0.0
C4147 C 0.38081 0.61403 0.46669 0.0
C4148 C 0.39772 0.62671 0.46801 0.0
C4149 C 0.15714 0.15164 0.71411 0.0
C4150 C 0.15025 0.13225 0.71425 0.0
C4151 C 0.1444 0.16799 0.71537 0.0
C4152 C 0.12398 0.16597 0.71704 0.0
H4153 H 0.17223 0.15426 0.71095 0.0
H4154 H 0.15041 0.18218 0.71277 0.0
S4155 S 0.10136 0.11962 0.73199 0.0
N4156 N 0.12325 0.11303 0.72522 0.0
N4157 N 0.09989 0.1432 0.72841 0.0
C4158 C 0.11789 0.14697 0.72172 0.0
C4159 C 0.13078 0.13034 0.72008 0.0
C4160 C 0.02923 0.08595 0.59219 0.0
C4161 C 0.03007 0.10539 0.59891 0.0
C4162 C 0.02778 0.06974 0.60505 0.0
C4163 C 0.02685 0.07198 0.62545 0.0
H4164 H 0.03176 0.08308 0.57703 0.0
H4165 H 0.02969 0.05543 0.59908 0.0
S4166 S 0.01354 0.11891 0.64794 0.0
N4167 N 0.02006 0.12515 0.62588 0.0
N4168 N 0.0166 0.09527 0.64957 0.0
C4169 C 0.02286 0.09117 0.6315 0.0
C4170 C 0.02467 0.10765 0.61844 0.0
C4171 C 0.51991 0.89383 0.86489 0.0
C4172 C 0.52323 0.91275 0.87211 0.0
C4173 C 0.5195 0.87701 0.87718 0.0
C4174 C 0.52172 0.87791 0.89763 0.0
H4175 H 0.51961 0.89167 0.84941 0.0
H4176 H 0.51902 0.86297 0.87035 0.0
S4177 S 0.52256 0.92423 0.92471 0.0
N4178 N 0.52254 0.93129 0.90192 0.0
N4179 N 0.52175 0.90041 0.92439 0.0
C4180 C 0.52105 0.89696 0.90513 0.0
C4181 C 0.5215 0.91408 0.89263 0.0
C4182 C 0.83708 0.27888 0.15136 0.0
C4183 C 0.85663 0.27908 0.14495 0.0
C4184 C 0.82104 0.27774 0.13825 0.0
C4185 C 0.82356 0.27659 0.11788 0.0
H4186 H 0.83405 0.28162 0.16645 0.0
H4187 H 0.80666 0.28001 0.14397 0.0
S4188 S 0.8706 0.26261 0.09599 0.0
N4189 N 0.87662 0.26884 0.11821 0.0
N4190 N 0.84702 0.26608 0.09402 0.0
C4191 C 0.84276 0.27226 0.1121 0.0
C4192 C 0.85908 0.2737 0.12542 0.0
C4193 C 0.4659 0.60827 0.37402 0.0
C4194 C 0.46394 0.60676 0.39443 0.0
C4195 C 0.46599 0.5917 0.36124 0.0
C4196 C 0.4636 0.57234 0.36789 0.0
H4197 H 0.4657 0.62244 0.36765 0.0
H4198 H 0.46576 0.59435 0.34584 0.0
S4199 S 0.46672 0.55942 0.42 0.0
N4200 N 0.46641 0.58325 0.42037 0.0
N4201 N 0.4663 0.55305 0.39701 0.0
C4202 C 0.46624 0.57056 0.38823 0.0
C4203 C 0.46625 0.58739 0.40122 0.0
C4204 C 0.67368 0.71119 0.64243 0.0
C4205 C 0.67231 0.71211 0.62194 0.0
C4206 C 0.65693 0.71006 0.6546 0.0
C4207 C 0.6378 0.70965 0.64704 0.0
H4208 H 0.68772 0.70907 0.649 0.0
H4209 H 0.65909 0.70745 0.66986 0.0
S4210 S 0.62659 0.72598 0.59738 0.0
N4211 N 0.65026 0.7226 0.59678 0.0
N4212 N 0.61932 0.71969 0.61918 0.0
C4213 C 0.63644 0.71491 0.62739 0.0
C4214 C 0.65348 0.71639 0.61505 0.0
C4215 C 0.97145 0.91135 0.60137 0.0
C4216 C 0.96993 0.9125 0.62182 0.0
C4217 C 0.9744 0.89324 0.59123 0.0
C4218 C 0.97326 0.87478 0.60068 0.0
H4219 H 0.96916 0.92429 0.59293 0.0
H4220 H 0.97435 0.89371 0.57561 0.0
S4221 S 0.99392 0.87327 0.64963 0.0
N4222 N 0.9861 0.89582 0.64791 0.0
N4223 N 0.98604 0.86183 0.63022 0.0
C4224 C 0.9772 0.87645 0.62068 0.0
C4225 C 0.97664 0.89521 0.63079 0.0
C4226 C 0.83837 0.21203 0.33457 0.0
C4227 C 0.85795 0.21117 0.34089 0.0
C4228 C 0.82245 0.21439 0.3477 0.0
C4229 C 0.8251 0.21618 0.36802 0.0
H4230 H 0.83513 0.20886 0.3196 0.0
H4231 H 0.80796 0.21255 0.34211 0.0
S4232 S 0.8729 0.22895 0.3891 0.0
N4233 N 0.8785 0.22154 0.36715 0.0
N4234 N 0.84919 0.22663 0.39128 0.0
C4235 C 0.84454 0.21989 0.37352 0.0
C4236 C 0.86072 0.21719 0.36019 0.0
C4237 C 0.13183 0.28671 0.85884 0.0
C4238 C 0.13216 0.28642 0.83852 0.0
C4239 C 0.14922 0.28598 0.86977 0.0
C4240 C 0.16782 0.2851 0.86191 0.0
H4241 H 0.11827 0.28885 0.86632 0.0
H4242 H 0.14854 0.28626 0.88475 0.0
S4243 S 0.17653 0.27465 0.81024 0.0
N4244 N 0.1529 0.27812 0.81125 0.0
N4245 N 0.18486 0.27771 0.83236 0.0
C4246 C 0.16819 0.28146 0.84192 0.0
C4247 C 0.15052 0.28173 0.83035 0.0
C4248 C 0.6287 0.03441 0.09182 0.0
C4249 C 0.62175 0.0364 0.07256 0.0
C4250 C 0.61604 0.03471 0.10846 0.0
C4251 C 0.59565 0.03701 0.107 0.0
H4252 H 0.64415 0.03421 0.09424 0.0
H4253 H 0.62248 0.03447 0.12261 0.0
S4254 S 0.5695 0.03277 0.06009 0.0
N4255 N 0.59244 0.03292 0.05357 0.0
N4256 N 0.56938 0.03401 0.08389 0.0
C4257 C 0.58859 0.03435 0.08784 0.0
C4258 C 0.60139 0.03371 0.07101 0.0
C4259 C 0.22003 0.875 0.34584 0.0
C4260 C 0.21757 0.86812 0.32664 0.0
C4261 C 0.21782 0.8628 0.36255 0.0
C4262 C 0.21377 0.84275 0.36107 0.0
H4263 H 0.22213 0.8903 0.34807 0.0
H4264 H 0.21821 0.8694 0.3767 0.0
S4265 S 0.21341 0.816 0.31442 0.0
N4266 N 0.21604 0.83872 0.30769 0.0
N4267 N 0.21301 0.81612 0.33826 0.0
C4268 C 0.21529 0.83523 0.342 0.0
C4269 C 0.21705 0.8477 0.32508 0.0
C4270 C 0.40344 0.46694 0.57716 0.0
C4271 C 0.38311 0.47054 0.57812 0.0
C4272 C 0.41519 0.46395 0.59416 0.0
C4273 C 0.4075 0.46469 0.61326 0.0
H4274 H 0.40986 0.46391 0.56324 0.0
H4275 H 0.42993 0.4591 0.5922 0.0
S4276 S 0.35992 0.48667 0.62383 0.0
N4277 N 0.3592 0.4836 0.60014 0.0
N4278 N 0.38072 0.47778 0.63127 0.0
C4279 C 0.38858 0.47229 0.61421 0.0
C4280 C 0.37665 0.47536 0.597 0.0
C4281 C 0.76211 0.6235 0.85678 0.0
C4282 C 0.76339 0.64389 0.85679 0.0
C4283 C 0.76433 0.61253 0.83943 0.0
C4284 C 0.77006 0.62094 0.82197 0.0
H4285 H 0.76012 0.61597 0.8703 0.0
H4286 H 0.76147 0.59725 0.83923 0.0
S4287 S 0.76435 0.67322 0.8117 0.0
N4288 N 0.76239 0.67184 0.83544 0.0
N4289 N 0.76701 0.65084 0.80386 0.0
C4290 C 0.76617 0.64096 0.82076 0.0
C4291 C 0.76346 0.65247 0.83813 0.0
C4292 C 0.60951 0.96426 0.89354 0.0
C4293 C 0.58938 0.9602 0.89418 0.0
C4294 C 0.62145 0.96517 0.91058 0.0
C4295 C 0.61442 0.96103 0.92943 0.0
H4296 H 0.61646 0.96558 0.8796 0.0
H4297 H 0.63673 0.96739 0.90877 0.0
S4298 S 0.56199 0.95558 0.94021 0.0
N4299 N 0.56245 0.95713 0.9164 0.0
N4300 N 0.58459 0.95777 0.94757 0.0
C4301 C 0.59387 0.9603 0.93051 0.0
C4302 C 0.5816 0.95985 0.9132 0.0
C4303 C 0.27606 0.84701 0.16663 0.0
C4304 C 0.27575 0.86737 0.16332 0.0
C4305 C 0.27658 0.83306 0.15115 0.0
C4306 C 0.27609 0.83847 0.13134 0.0
H4307 H 0.27842 0.84184 0.18119 0.0
H4308 H 0.27939 0.81813 0.15478 0.0
S4309 S 0.26377 0.88829 0.11533 0.0
N4310 N 0.26709 0.89084 0.13884 0.0
N4311 N 0.26772 0.86527 0.11041 0.0
C4312 C 0.27169 0.85828 0.12827 0.0
C4313 C 0.2714 0.87244 0.14397 0.0
C4314 C 0.38762 0.5244 0.4185 0.0
C4315 C 0.36757 0.5256 0.41396 0.0
C4316 C 0.40235 0.52189 0.40409 0.0
C4317 C 0.39824 0.51931 0.38413 0.0
H4318 H 0.3922 0.52759 0.4331 0.0
H4319 H 0.41724 0.52385 0.40848 0.0
S4320 S 0.34825 0.51194 0.36568 0.0
N4321 N 0.34471 0.5176 0.38861 0.0
N4322 N 0.37186 0.51256 0.36208 0.0
C4323 C 0.37823 0.51709 0.38003 0.0
C4324 C 0.36316 0.52013 0.39467 0.0
C4325 C 0.71697 0.63758 0.67345 0.0
C4326 C 0.71819 0.61716 0.67149 0.0
C4327 C 0.71624 0.65025 0.65704 0.0
C4328 C 0.71648 0.64332 0.63766 0.0
H4329 H 0.71426 0.64368 0.68758 0.0
H4330 H 0.7134 0.66541 0.6596 0.0
S4331 S 0.73382 0.59418 0.62551 0.0
N4332 N 0.72968 0.59283 0.64901 0.0
N4333 N 0.72754 0.61615 0.61873 0.0
C4334 C 0.7221 0.62379 0.6359 0.0
C4335 C 0.72318 0.61093 0.6526 0.0
C4336 C 0.59561 0.58403 0.52826 0.0
C4337 C 0.615 0.59094 0.52899 0.0
C4338 C 0.57931 0.59672 0.52629 0.0
C4339 C 0.58142 0.61709 0.52471 0.0
H4340 H 0.59286 0.56894 0.53128 0.0
H4341 H 0.565 0.59072 0.52827 0.0
S4342 S 0.62822 0.63977 0.5116 0.0
N4343 N 0.63462 0.61792 0.51866 0.0
N4344 N 0.60452 0.6412 0.51427 0.0
C4345 C 0.60056 0.62321 0.52082 0.0
C4346 C 0.61714 0.61037 0.52316 0.0
C4347 C 0.6472 0.8218 0.79101 0.0
C4348 C 0.62749 0.82288 0.78585 0.0
C4349 C 0.65938 0.83848 0.79095 0.0
C4350 C 0.65186 0.85742 0.78899 0.0
H4351 H 0.65329 0.80806 0.79528 0.0
H4352 H 0.67464 0.83649 0.79337 0.0
S4353 S 0.6104 0.86401 0.75614 0.0
N4354 N 0.60808 0.8414 0.76345 0.0
N4355 N 0.62844 0.87343 0.76866 0.0
C4356 C 0.63399 0.85787 0.77913 0.0
C4357 C 0.62238 0.84045 0.77676 0.0
C4358 C 0.41041 0.85691 0.01831 0.0
C4359 C 0.42736 0.86709 0.02252 0.0
C4360 C 0.39209 0.86602 0.01791 0.0
C4361 C 0.39052 0.88618 0.01943 0.0
H4362 H 0.41182 0.84172 0.01572 0.0
H4363 H 0.37917 0.8573 0.01677 0.0
S4364 S 0.43215 0.92021 0.02049 0.0
N4365 N 0.44231 0.8987 0.02222 0.0
N4366 N 0.40867 0.91636 0.01845 0.0
C4367 C 0.40809 0.89678 0.01885 0.0
C4368 C 0.42646 0.88722 0.0209 0.0
C4369 C 0.36589 0.63272 0.25917 0.0
C4370 C 0.34585 0.63335 0.26264 0.0
C4371 C 0.37782 0.6494 0.26182 0.0
C4372 C 0.37006 0.66708 0.26813 0.0
H4373 H 0.37277 0.61889 0.25673 0.0
H4374 H 0.39335 0.64775 0.26104 0.0
S4375 S 0.31798 0.67923 0.26402 0.0
N4376 N 0.31846 0.6554 0.26266 0.0
N4377 N 0.34074 0.68633 0.26568 0.0
C4378 C 0.34997 0.66905 0.26492 0.0
C4379 C 0.33779 0.65213 0.26304 0.0
C4380 C 0.58497 0.36188 0.46317 0.0
C4381 C 0.56727 0.37189 0.46217 0.0
C4382 C 0.60302 0.37134 0.46557 0.0
C4383 C 0.60413 0.39135 0.46889 0.0
H4384 H 0.58471 0.34666 0.46088 0.0
H4385 H 0.61611 0.36307 0.46375 0.0
S4386 S 0.5612 0.42359 0.47415 0.0
N4387 N 0.55166 0.40241 0.4688 0.0
N4388 N 0.5848 0.42019 0.47517 0.0
C4389 C 0.58606 0.401 0.47135 0.0
C4390 C 0.56781 0.39133 0.46784 0.0
C4391 C 0.84746 0.8279 0.71624 0.0
C4392 C 0.86789 0.82882 0.71333 0.0
C4393 C 0.83519 0.84474 0.71572 0.0
C4394 C 0.84241 0.86377 0.71231 0.0
H4395 H 0.84054 0.81389 0.71646 0.0
H4396 H 0.81971 0.8425 0.71587 0.0
S4397 S 0.89433 0.87523 0.71922 0.0
N4398 N 0.89437 0.85141 0.71756 0.0
N4399 N 0.87175 0.8823 0.71626 0.0
C4400 C 0.86277 0.86507 0.71424 0.0
C4401 C 0.8753 0.84793 0.71492 0.0
C4402 C 0.40701 0.09326 0.96741 0.0
C4403 C 0.38728 0.09916 0.96757 0.0
C4404 C 0.42273 0.10674 0.9686 0.0
C4405 C 0.41967 0.12698 0.97026 0.0
H4406 H 0.41039 0.07832 0.9643 0.0
H4407 H 0.4372 0.10146 0.96592 0.0
S4408 S 0.37239 0.14716 0.98596 0.0
N4409 N 0.36681 0.12501 0.97913 0.0
N4410 N 0.39584 0.14984 0.98208 0.0
C4411 C 0.40043 0.1321 0.97522 0.0
C4412 C 0.38442 0.11841 0.97367 0.0
C4413 C 0.1566 0.65759 0.20925 0.0
C4414 C 0.14877 0.63861 0.21044 0.0
C4415 C 0.14468 0.67457 0.20942 0.0
C4416 C 0.12419 0.67361 0.21097 0.0
H4417 H 0.17184 0.65931 0.20617 0.0
H4418 H 0.15139 0.68829 0.20612 0.0
S4419 S 0.09914 0.62956 0.22845 0.0
N4420 N 0.12074 0.62147 0.22234 0.0
N4421 N 0.09889 0.65289 0.22343 0.0
C4422 C 0.11711 0.6553 0.21671 0.0
C4423 C 0.12918 0.638 0.21621 0.0
C4424 C 0.02549 0.57566 0.1022 0.0
C4425 C 0.02447 0.57902 0.12246 0.0
C4426 C 0.02765 0.5911 0.08852 0.0
C4427 C 0.02904 0.61081 0.09423 0.0
H4428 H 0.02697 0.56099 0.09702 0.0
H4429 H 0.03027 0.58736 0.07356 0.0
S4430 S 0.01288 0.6275 0.14239 0.0
N4431 N 0.015 0.60388 0.14527 0.0
N4432 N 0.01972 0.63231 0.12008 0.0
C4433 C 0.02365 0.61429 0.11359 0.0
C4434 C 0.02116 0.59861 0.12747 0.0
C4435 C 0.5246 0.43055 0.38436 0.0
C4436 C 0.52583 0.42529 0.36439 0.0
C4437 C 0.51973 0.41705 0.39953 0.0
C4438 C 0.5157 0.39713 0.39587 0.0
H4439 H 0.52964 0.4447 0.38864 0.0
H4440 H 0.52242 0.4215 0.41427 0.0
S4441 S 0.50505 0.37912 0.34615 0.0
N4442 N 0.51407 0.40086 0.34211 0.0
N4443 N 0.50461 0.37622 0.36986 0.0
C4444 C 0.51149 0.39353 0.37592 0.0
C4445 C 0.51697 0.40714 0.36042 0.0
C4446 C 0.82696 0.78071 0.6514 0.0
C4447 C 0.84658 0.77886 0.64561 0.0
C4448 C 0.81145 0.78301 0.63771 0.0
C4449 C 0.81469 0.78453 0.61738 0.0
H4450 H 0.82374 0.78253 0.66658 0.0
H4451 H 0.79722 0.7863 0.64332 0.0
S4452 S 0.86069 0.76857 0.59473 0.0
N4453 N 0.86625 0.77018 0.61791 0.0
N4454 N 0.83773 0.77491 0.59281 0.0
C4455 C 0.83331 0.77835 0.61158 0.0
C4456 C 0.84903 0.77571 0.62546 0.0
C4457 C 0.46429 0.09614 0.90715 0.0
C4458 C 0.46308 0.11556 0.90045 0.0
C4459 C 0.46607 0.07997 0.89425 0.0
C4460 C 0.46695 0.08225 0.87384 0.0
H4461 H 0.46184 0.09323 0.9223 0.0
H4462 H 0.46449 0.06561 0.90019 0.0
S4463 S 0.47867 0.12936 0.85115 0.0
N4464 N 0.47226 0.13548 0.87329 0.0
N4465 N 0.47628 0.10567 0.84961 0.0
C4466 C 0.47038 0.10148 0.86778 0.0
C4467 C 0.46825 0.11791 0.88084 0.0
C4468 C 0.65387 0.2099 0.10902 0.0
C4469 C 0.67277 0.20742 0.11657 0.0
C4470 C 0.63655 0.21126 0.12056 0.0
C4471 C 0.63699 0.21175 0.14096 0.0
H4472 H 0.65255 0.21163 0.094 0.0
H4473 H 0.62273 0.21209 0.11338 0.0
S4474 S 0.68317 0.22228 0.16734 0.0
N4475 N 0.69075 0.21697 0.14533 0.0
N4476 N 0.6593 0.22098 0.1669 0.0
C4477 C 0.65606 0.2165 0.14812 0.0
C4478 C 0.67369 0.21426 0.13609 0.0
C4479 C 0.96516 0.42016 0.10319 0.0
C4480 C 0.96596 0.4179 0.12359 0.0
C4481 C 0.96398 0.40393 0.09032 0.0
C4482 C 0.9634 0.3845 0.09706 0.0
H4483 H 0.96308 0.43445 0.09722 0.0
H4484 H 0.96149 0.40674 0.07515 0.0
S4485 S 0.97945 0.37135 0.14638 0.0
N4486 N 0.97612 0.39493 0.1479 0.0
N4487 N 0.97331 0.36495 0.12424 0.0
C4488 C 0.96862 0.38234 0.11667 0.0
C4489 C 0.97009 0.39885 0.12971 0.0
C4490 C 0.83859 0.70923 0.879 0.0
C4491 C 0.81978 0.70846 0.87084 0.0
C4492 C 0.85636 0.70742 0.86822 0.0
C4493 C 0.85661 0.70604 0.84783 0.0
H4494 H 0.83945 0.71173 0.89386 0.0
H4495 H 0.8699 0.707 0.87599 0.0
S4496 S 0.81265 0.71769 0.8183 0.0
N4497 N 0.80381 0.7157 0.8404 0.0
N4498 N 0.83618 0.7139 0.82002 0.0
C4499 C 0.83826 0.71118 0.8393 0.0
C4500 C 0.82017 0.71229 0.85061 0.0
C4501 C 0.16949 0.77605 0.35501 0.0
C4502 C 0.16738 0.7751 0.37541 0.0
C4503 C 0.15317 0.77767 0.34232 0.0
C4504 C 0.1338 0.77865 0.34926 0.0
H4505 H 0.18378 0.7779 0.34894 0.0
H4506 H 0.1559 0.78021 0.32714 0.0
S4507 S 0.12074 0.76196 0.39836 0.0
N4508 N 0.14441 0.76492 0.39976 0.0
N4509 N 0.11425 0.7686 0.37639 0.0
C4510 C 0.13168 0.77316 0.36879 0.0
C4511 C 0.14828 0.77121 0.38166 0.0
C4512 C 0.13418 0.54279 0.1898 0.0
C4513 C 0.13739 0.55732 0.20408 0.0
C4514 C 0.11543 0.53697 0.18356 0.0
C4515 C 0.09854 0.54472 0.19179 0.0
H4516 H 0.14642 0.53668 0.18224 0.0
H4517 H 0.11427 0.5274 0.17125 0.0
S4518 S 0.09814 0.57871 0.2335 0.0
N4519 N 0.12138 0.57649 0.22851 0.0
N4520 N 0.08656 0.56484 0.21794 0.0
C4521 C 0.10154 0.55734 0.20776 0.0
C4522 C 0.12067 0.56371 0.21369 0.0
C4523 C 0.70562 0.36531 0.43719 0.0
C4524 C 0.69347 0.34896 0.43864 0.0
C4525 C 0.70051 0.38355 0.44532 0.0
C4526 C 0.68355 0.38639 0.45641 0.0
H4527 H 0.71886 0.36431 0.42901 0.0
H4528 H 0.70973 0.39581 0.44244 0.0
S4529 S 0.65323 0.3462 0.4742 0.0
N4530 N 0.66776 0.33568 0.45844 0.0
N4531 N 0.65874 0.36935 0.47403 0.0
C4532 C 0.67342 0.36942 0.46108 0.0
C4533 C 0.67825 0.35096 0.45227 0.0
C4534 C 0.8873 0.93592 0.69845 0.0
C4535 C 0.89142 0.95101 0.68501 0.0
C4536 C 0.86825 0.93143 0.70524 0.0
C4537 C 0.85166 0.9415 0.69895 0.0
H4538 H 0.89898 0.92663 0.70314 0.0
H4539 H 0.86642 0.91919 0.71469 0.0
S4540 S 0.85369 0.98387 0.66571 0.0
N4541 N 0.87652 0.97705 0.66711 0.0
N4542 N 0.84138 0.96915 0.67988 0.0
C4543 C 0.85568 0.95755 0.68663 0.0
C4544 C 0.87515 0.96213 0.6797 0.0
C4545 C 0.30492 0.13663 0.96178 0.0
C4546 C 0.29025 0.13853 0.94743 0.0
C4547 C 0.31263 0.11847 0.96767 0.0
C4548 C 0.30564 0.10096 0.96008 0.0
H4549 H 0.31163 0.1495 0.9676 0.0
H4550 H 0.32505 0.11832 0.97716 0.0
S4551 S 0.26433 0.09718 0.92557 0.0
N4552 N 0.26749 0.12068 0.92788 0.0
N4553 N 0.28038 0.08694 0.93995 0.0
C4554 C 0.28935 0.10263 0.94753 0.0
C4555 C 0.28202 0.12115 0.94104 0.0
C4556 C 0.12823 0.43049 0.78537 0.0
C4557 C 0.14624 0.43515 0.79378 0.0
C4558 C 0.11052 0.4395 0.79123 0.0
C4559 C 0.10934 0.45364 0.80615 0.0
H4560 H 0.12744 0.41848 0.77539 0.0
H4561 H 0.0973 0.43427 0.78471 0.0
S4562 S 0.15323 0.47846 0.82462 0.0
N4563 N 0.1622 0.45999 0.81251 0.0
N4564 N 0.12942 0.47666 0.82332 0.0
C4565 C 0.12762 0.46073 0.81212 0.0
C4566 C 0.14574 0.45156 0.80607 0.0
C4567 C 0.78348 0.36941 0.05978 0.0
C4568 C 0.78967 0.3523 0.05075 0.0
C4569 C 0.79047 0.38783 0.05389 0.0
C4570 C 0.80454 0.39038 0.03903 0.0
H4571 H 0.77441 0.36855 0.07248 0.0
H4572 H 0.78573 0.40022 0.06214 0.0
S4573 S 0.82253 0.3506 0.00813 0.0
N4574 N 0.80816 0.33965 0.02369 0.0
N4575 N 0.82195 0.37378 0.0137 0.0
C4576 C 0.80942 0.37358 0.02876 0.0
C4577 C 0.80191 0.35483 0.0344 0.0
C4578 C 0.86625 0.02905 0.31149 0.0
C4579 C 0.88349 0.03553 0.30283 0.0
C4580 C 0.84778 0.03601 0.30548 0.0
C4581 C 0.8453 0.05038 0.29092 0.0
H4582 H 0.86701 0.01961 0.32391 0.0
H4583 H 0.83528 0.03095 0.31339 0.0
S4584 S 0.88537 0.06975 0.26123 0.0
N4585 N 0.89623 0.05482 0.27633 0.0
N4586 N 0.86213 0.06879 0.26652 0.0
C4587 C 0.86224 0.05571 0.28109 0.0
C4588 C 0.881 0.04814 0.28672 0.0
C4589 C 0.20934 0.11961 0.5625 0.0
C4590 C 0.20315 0.13676 0.55354 0.0
C4591 C 0.20247 0.10117 0.55646 0.0
C4592 C 0.18836 0.09862 0.54162 0.0
H4593 H 0.21843 0.12043 0.5752 0.0
H4594 H 0.20741 0.08874 0.56453 0.0
S4595 S 0.17065 0.13848 0.51065 0.0
N4596 N 0.18477 0.14944 0.52644 0.0
N4597 N 0.17118 0.11529 0.51617 0.0
C4598 C 0.1835 0.11547 0.5314 0.0
C4599 C 0.19094 0.13424 0.53716 0.0
C4600 C 0.18213 0.87312 0.46159 0.0
C4601 C 0.19047 0.88988 0.4537 0.0
C4602 C 0.18818 0.85431 0.45584 0.0
C4603 C 0.20248 0.851 0.44138 0.0
H4604 H 0.16987 0.87444 0.4712 0.0
H4605 H 0.18045 0.84214 0.46186 0.0
S4606 S 0.23143 0.8898 0.41864 0.0
N4607 N 0.21648 0.90153 0.43307 0.0
N4608 N 0.2264 0.86666 0.42133 0.0
C4609 C 0.21207 0.86756 0.43467 0.0
C4610 C 0.20639 0.88671 0.44099 0.0
C4611 C 0.35747 0.4547 0.69259 0.0
C4612 C 0.35335 0.43966 0.70591 0.0
C4613 C 0.37656 0.46075 0.68839 0.0
C4614 C 0.39265 0.4528 0.69793 0.0
H4615 H 0.34596 0.46079 0.68397 0.0
H4616 H 0.3788 0.47007 0.67603 0.0
S4617 S 0.38947 0.41895 0.73951 0.0
N4618 N 0.3669 0.42056 0.73189 0.0
N4619 N 0.40231 0.43343 0.72553 0.0
C4620 C 0.38834 0.44052 0.71377 0.0
C4621 C 0.36893 0.43361 0.71742 0.0
C4622 C 0.77781 0.60423 0.94539 0.0
C4623 C 0.79417 0.60434 0.95798 0.0
C4624 C 0.76998 0.62146 0.93702 0.0
C4625 C 0.77664 0.63992 0.94247 0.0
H4626 H 0.77193 0.59061 0.94058 0.0
H4627 H 0.75963 0.62016 0.92537 0.0
S4628 S 0.8123 0.64859 0.98187 0.0
N4629 N 0.81294 0.62496 0.97889 0.0
N4630 N 0.79581 0.65668 0.96667 0.0
C4631 C 0.78985 0.64003 0.95823 0.0
C4632 C 0.79903 0.62261 0.96526 0.0
C4633 C 0.60494 0.05549 0.20163 0.0
C4634 C 0.6011 0.04343 0.18544 0.0
C4635 C 0.62378 0.06247 0.20625 0.0
C4636 C 0.64017 0.05712 0.19541 0.0
H4637 H 0.59294 0.06084 0.2101 0.0
H4638 H 0.62519 0.07338 0.21736 0.0
S4639 S 0.63972 0.01933 0.15717 0.0
N4640 N 0.61654 0.02261 0.16192 0.0
N4641 N 0.6517 0.03404 0.17164 0.0
C4642 C 0.63694 0.0425 0.18136 0.0
C4643 C 0.61764 0.03597 0.1762 0.0
C4644 C 0.56539 0.19045 0.13104 0.0
C4645 C 0.55849 0.2067 0.14068 0.0
C4646 C 0.55969 0.18569 0.11234 0.0
C4647 C 0.54534 0.19578 0.10226 0.0
H4648 H 0.57518 0.1809 0.13815 0.0
H4649 H 0.56671 0.17347 0.10565 0.0
S4650 S 0.52166 0.2402 0.12065 0.0
N4651 N 0.5363 0.23384 0.13845 0.0
N4652 N 0.52446 0.22397 0.10333 0.0
C4653 C 0.53775 0.21224 0.11162 0.0
C4654 C 0.54438 0.21774 0.13081 0.0
C4655 C 0.03295 0.81365 0.37481 0.0
C4656 C 0.03929 0.80554 0.39233 0.0
C4657 C 0.03921 0.80636 0.35658 0.0
C4658 C 0.05285 0.79101 0.35455 0.0
H4659 H 0.02413 0.82654 0.3751 0.0
H4660 H 0.0342 0.81385 0.34382 0.0
S4661 S 0.06985 0.76138 0.39573 0.0
N4662 N 0.05671 0.77835 0.40609 0.0
N4663 N 0.06924 0.76577 0.37229 0.0
C4664 C 0.05766 0.78156 0.37187 0.0
C4665 C 0.05083 0.7886 0.39046 0.0
C4666 C 0.4512 0.29305 0.63928 0.0
C4667 C 0.43607 0.27916 0.63872 0.0
C4668 C 0.45974 0.30078 0.62235 0.0
C4669 C 0.45429 0.29457 0.60377 0.0
H4670 H 0.45479 0.29987 0.65289 0.0
H4671 H 0.46887 0.3134 0.62383 0.0
S4672 S 0.4209 0.2535 0.59433 0.0
N4673 N 0.41941 0.25654 0.61794 0.0
N4674 N 0.43671 0.26958 0.58649 0.0
C4675 C 0.44179 0.27829 0.60328 0.0
C4676 C 0.43247 0.27092 0.62053 0.0
C4677 C 0.92766 0.70918 0.86681 0.0
C4678 C 0.93703 0.70109 0.85078 0.0
C4679 C 0.93316 0.70431 0.88579 0.0
C4680 C 0.94795 0.6907 0.88988 0.0
H4681 H 0.9151 0.71827 0.86477 0.0
H4682 H 0.92459 0.71022 0.89741 0.0
S4683 S 0.98085 0.67016 0.85306 0.0
N4684 N 0.96502 0.68265 0.84032 0.0
N4685 N 0.97445 0.67256 0.87592 0.0
C4686 C 0.95891 0.68434 0.87403 0.0
C4687 C 0.95359 0.68968 0.85459 0.0
C4688 C 0.04276 0.69168 0.13267 0.0
C4689 C 0.05746 0.70608 0.13429 0.0
C4690 C 0.03606 0.68428 0.11464 0.0
C4691 C 0.04304 0.69137 0.09692 0.0
H4692 H 0.03719 0.68497 0.14563 0.0
H4693 H 0.02637 0.67203 0.1147 0.0
S4694 S 0.07673 0.73311 0.09234 0.0
N4695 N 0.07571 0.7295 0.1159 0.0
N4696 N 0.0624 0.71682 0.08244 0.0
C4697 C 0.05575 0.7075 0.09833 0.0
C4698 C 0.06301 0.71462 0.11672 0.0
C4699 C 0.46309 0.80802 0.12266 0.0
C4700 C 0.45377 0.8048 0.10464 0.0
C4701 C 0.45559 0.80078 0.14063 0.0
C4702 C 0.43894 0.78872 0.14199 0.0
H4703 H 0.47543 0.81756 0.12327 0.0
H4704 H 0.46244 0.80564 0.15382 0.0
S4705 S 0.41413 0.76882 0.09874 0.0
N4706 N 0.43006 0.78394 0.08945 0.0
N4707 N 0.41686 0.76992 0.12243 0.0
C4708 C 0.43151 0.78283 0.12388 0.0
C4709 C 0.43877 0.79072 0.10562 0.0
C4710 C 0.42453 0.21594 0.87441 0.0
C4711 C 0.43287 0.21014 0.85683 0.0
C4712 C 0.432 0.20961 0.89249 0.0
C4713 C 0.44775 0.19642 0.89425 0.0
H4714 H 0.41128 0.22424 0.87426 0.0
H4715 H 0.4243 0.21411 0.90532 0.0
S4716 S 0.47769 0.18056 0.85284 0.0
N4717 N 0.46045 0.19356 0.84271 0.0
N4718 N 0.47335 0.18081 0.87629 0.0
C4719 C 0.45735 0.1921 0.87689 0.0
C4720 C 0.45014 0.19904 0.85845 0.0
C4721 C 0.53491 0.30752 0.34525 0.0
C4722 C 0.54957 0.29317 0.34473 0.0
C4723 C 0.52837 0.31618 0.36275 0.0
C4724 C 0.53648 0.31145 0.38084 0.0
H4725 H 0.52952 0.31336 0.33179 0.0
H4726 H 0.51848 0.32826 0.36179 0.0
S4727 S 0.56662 0.26746 0.38824 0.0
N4728 N 0.56627 0.2699 0.36457 0.0
N4729 N 0.55384 0.2856 0.39716 0.0
C4730 C 0.54827 0.29461 0.38073 0.0
C4731 C 0.55488 0.28572 0.36284 0.0
C4732 C 0.12486 0.0596 0.71173 0.0
C4733 C 0.14195 0.05099 0.70488 0.0
C4734 C 0.10627 0.05308 0.7057 0.0
C4735 C 0.10347 0.03811 0.6918 0.0
H4736 H 0.12578 0.07235 0.72071 0.0
H4737 H 0.09386 0.06093 0.71108 0.0
S4738 S 0.14323 0.00742 0.67333 0.0
N4739 N 0.15444 0.0237 0.68666 0.0
N4740 N 0.11995 0.01261 0.67452 0.0
C4741 C 0.12033 0.02811 0.68648 0.0
C4742 C 0.13928 0.03433 0.6931 0.0
C4743 C 0.6775 0.84823 0.94424 0.0
C4744 C 0.69576 0.84575 0.93506 0.0
C4745 C 0.67138 0.86587 0.95313 0.0
C4746 C 0.68318 0.88252 0.95401 0.0
H4747 H 0.66721 0.83651 0.94373 0.0
H4748 H 0.65664 0.86683 0.9582 0.0
S4749 S 0.73371 0.88376 0.93536 0.0
N4750 N 0.72646 0.86173 0.92972 0.0
N4751 N 0.71559 0.89409 0.947 0.0
C4752 C 0.70241 0.87959 0.94709 0.0
C4753 C 0.70849 0.86162 0.93751 0.0
C4754 C 0.85312 0.45163 0.18583 0.0
C4755 C 0.85022 0.43763 0.20066 0.0
C4756 C 0.87174 0.45814 0.17995 0.0
C4757 C 0.88868 0.45169 0.18913 0.0
H4758 H 0.84085 0.45674 0.17761 0.0
H4759 H 0.87285 0.46716 0.16724 0.0
S4760 S 0.88942 0.41987 0.23247 0.0
N4761 N 0.86629 0.42059 0.22659 0.0
N4762 N 0.9008 0.43355 0.21662 0.0
C4763 C 0.88582 0.43971 0.20558 0.0
C4764 C 0.86687 0.43263 0.21117 0.0
C4765 C 0.28156 0.62612 0.42685 0.0
C4766 C 0.28916 0.64252 0.43599 0.0
C4767 C 0.28679 0.60735 0.43276 0.0
C4768 C 0.30036 0.6038 0.44777 0.0
H4769 H 0.27253 0.62772 0.41418 0.0
H4770 H 0.28122 0.59547 0.42435 0.0
S4771 S 0.31983 0.64172 0.48006 0.0
N4772 N 0.30716 0.65387 0.46393 0.0
N4773 N 0.318 0.61869 0.47408 0.0
C4774 C 0.30629 0.62001 0.45843 0.0
C4775 C 0.30053 0.63924 0.45271 0.0
C4776 C 0.12275 0.95742 0.31126 0.0
C4777 C 0.10541 0.95118 0.30265 0.0
C4778 C 0.1411 0.9504 0.30504 0.0
C4779 C 0.14339 0.93605 0.2904 0.0
H4780 H 0.12216 0.96671 0.32382 0.0
H4781 H 0.15368 0.9554 0.31286 0.0
S4782 S 0.10297 0.91831 0.2601 0.0
N4783 N 0.09228 0.93263 0.27588 0.0
N4784 N 0.12626 0.91871 0.26536 0.0
C4785 C 0.12634 0.93116 0.28048 0.0
C4786 C 0.10766 0.93877 0.28639 0.0
C4787 C 0.79515 0.86221 0.53169 0.0
C4788 C 0.78166 0.86188 0.54716 0.0
C4789 C 0.80524 0.87936 0.52638 0.0
C4790 C 0.80069 0.89727 0.53487 0.0
H4791 H 0.80014 0.84865 0.52573 0.0
H4792 H 0.81772 0.87818 0.51703 0.0
S4793 S 0.7591 0.90554 0.56795 0.0
N4794 N 0.76034 0.88182 0.56617 0.0
N4795 N 0.77617 0.91407 0.55365 0.0
C4796 C 0.78382 0.89751 0.54655 0.0
C4797 C 0.77484 0.87995 0.55311 0.0
C4798 C 0.86763 0.55665 0.78508 0.0
C4799 C 0.85032 0.5521 0.79479 0.0
C4800 C 0.88574 0.54863 0.79073 0.0
C4801 C 0.88788 0.53601 0.80678 0.0
H4802 H 0.86754 0.56787 0.77419 0.0
H4803 H 0.89854 0.55356 0.78324 0.0
S4804 S 0.84595 0.51052 0.8282 0.0
N4805 N 0.83582 0.52774 0.81522 0.0
N4806 N 0.86961 0.51334 0.82621 0.0
C4807 C 0.8703 0.52853 0.81393 0.0
C4808 C 0.85174 0.53648 0.80792 0.0
C4809 C 0.21024 0.61563 0.06053 0.0
C4810 C 0.20437 0.6327 0.05123 0.0
C4811 C 0.20286 0.59723 0.05497 0.0
C4812 C 0.18849 0.59471 0.0404 0.0
H4813 H 0.21954 0.61653 0.07305 0.0
H4814 H 0.20758 0.58485 0.06326 0.0
S4815 S 0.17227 0.63409 0.00804 0.0
N4816 N 0.18663 0.64509 0.02357 0.0
N4817 N 0.17193 0.6111 0.01436 0.0
C4818 C 0.18414 0.61139 0.02967 0.0
C4819 C 0.19216 0.63007 0.03487 0.0
C4820 C 0.21955 0.36907 0.93097 0.0
C4821 C 0.21144 0.35062 0.93376 0.0
C4822 C 0.2138 0.38527 0.94214 0.0
C4823 C 0.19803 0.38456 0.95516 0.0
H4824 H 0.22964 0.37133 0.91923 0.0
H4825 H 0.22038 0.39901 0.93886 0.0
S4826 S 0.17624 0.33874 0.97246 0.0
N4827 N 0.19116 0.33169 0.9552 0.0
N4828 N 0.17796 0.36252 0.97349 0.0
C4829 C 0.19158 0.36577 0.95979 0.0
C4830 C 0.19864 0.34889 0.94957 0.0
C4831 C 0.37451 0.95192 0.17415 0.0
C4832 C 0.39164 0.9445 0.18198 0.0
C4833 C 0.35626 0.94761 0.18218 0.0
C4834 C 0.35364 0.93415 0.19745 0.0
H4835 H 0.37505 0.96016 0.16087 0.0
H4836 H 0.34388 0.95369 0.17503 0.0
S4837 S 0.39415 0.91588 0.22731 0.0
N4838 N 0.40507 0.92788 0.20982 0.0
N4839 N 0.37068 0.91747 0.22308 0.0
C4840 C 0.37074 0.92859 0.20699 0.0
C4841 C 0.38962 0.93419 0.19959 0.0
C4842 C 0.78224 0.12628 0.43021 0.0
C4843 C 0.78979 0.14352 0.43786 0.0
C4844 C 0.78813 0.10784 0.43722 0.0
C4845 C 0.80256 0.1053 0.45175 0.0
H4846 H 0.77272 0.1269 0.41783 0.0
H4847 H 0.78216 0.09527 0.43009 0.0
S4848 S 0.82301 0.14575 0.48018 0.0
N4849 N 0.80929 0.15661 0.464 0.0
N4850 N 0.82117 0.12236 0.47591 0.0
C4851 C 0.80864 0.12241 0.46085 0.0
C4852 C 0.80217 0.14123 0.45416 0.0
C4853 C 0.60523 0.55205 0.70268 0.0
C4854 C 0.60315 0.53757 0.68817 0.0
C4855 C 0.62351 0.55844 0.7097 0.0
C4856 C 0.64093 0.55028 0.70312 0.0
H4857 H 0.59254 0.55963 0.70778 0.0
H4858 H 0.62396 0.57082 0.71924 0.0
S4859 S 0.64394 0.5092 0.66835 0.0
N4860 N 0.62056 0.51384 0.66941 0.0
N4861 N 0.6544 0.5244 0.68347 0.0
C4862 C 0.6389 0.53428 0.69029 0.0
C4863 C 0.6203 0.52824 0.68269 0.0
C4864 C 0.5606 0.69971 0.60139 0.0
C4865 C 0.54573 0.68573 0.59842 0.0
C4866 C 0.56644 0.70625 0.62002 0.0
C4867 C 0.55723 0.69982 0.63695 0.0
H4868 H 0.56887 0.70479 0.58914 0.0
H4869 H 0.57911 0.71532 0.62116 0.0
S4870 S 0.51368 0.66818 0.63751 0.0
N4871 N 0.51967 0.66881 0.61443 0.0
N4872 N 0.52955 0.68183 0.64893 0.0
C4873 C 0.5407 0.68791 0.63401 0.0
C4874 C 0.53515 0.6808 0.61504 0.0
C4875 C 0.05077 0.28976 0.88179 0.0
C4876 C 0.03719 0.30476 0.88553 0.0
C4877 C 0.05716 0.28491 0.86287 0.0
C4878 C 0.0497 0.29423 0.84644 0.0
H4879 H 0.05795 0.28281 0.89371 0.0
H4880 H 0.06912 0.27496 0.86132 0.0
S4881 S 0.0093 0.32973 0.84733 0.0
N4882 N 0.01394 0.32598 0.87042 0.0
N4883 N 0.02423 0.31566 0.8352 0.0
C4884 C 0.03391 0.30692 0.84982 0.0
C4885 C 0.028 0.31238 0.86912 0.0
C4886 C 0.93202 0.20586 0.36346 0.0
C4887 C 0.939 0.19753 0.34627 0.0
C4888 C 0.93893 0.19994 0.38193 0.0
C4889 C 0.95276 0.18487 0.38453 0.0
H4890 H 0.92016 0.21602 0.36279 0.0
H4891 H 0.93221 0.20637 0.39449 0.0
S4892 S 0.97835 0.16073 0.34423 0.0
N4893 N 0.96337 0.17573 0.33329 0.0
N4894 N 0.9748 0.16373 0.36761 0.0
C4895 C 0.96102 0.17766 0.36746 0.0
C4896 C 0.95449 0.18414 0.34861 0.0
C4897 C 0.04018 0.18494 0.63994 0.0
C4898 C 0.05504 0.19907 0.64217 0.0
C4899 C 0.03339 0.17845 0.6216 0.0
C4900 C 0.04056 0.18618 0.6042 0.0
H4901 H 0.03457 0.17773 0.65262 0.0
H4902 H 0.0235 0.16637 0.6211 0.0
S4903 S 0.07625 0.22653 0.60149 0.0
N4904 N 0.07465 0.22217 0.62486 0.0
N4905 N 0.06103 0.21151 0.5909 0.0
C4906 C 0.0537 0.20193 0.60634 0.0
C4907 C 0.06107 0.20803 0.62501 0.0
C4908 C 0.43389 0.70551 0.36494 0.0
C4909 C 0.43842 0.69425 0.3486 0.0
C4910 C 0.44159 0.70126 0.38355 0.0
C4911 C 0.45391 0.68523 0.38715 0.0
H4912 H 0.4229 0.71658 0.36379 0.0
H4913 H 0.43662 0.70985 0.39561 0.0
S4914 S 0.47698 0.65682 0.34804 0.0
N4915 N 0.46139 0.67069 0.33648 0.0
N4916 N 0.47461 0.66191 0.37124 0.0
C4917 C 0.46088 0.67586 0.37048 0.0
C4918 C 0.45339 0.68051 0.35141 0.0
C4919 C 0.55568 0.77153 0.86445 0.0
C4920 C 0.55054 0.7809 0.84714 0.0
C4921 C 0.54708 0.7766 0.88245 0.0
C4922 C 0.53347 0.79189 0.88439 0.0
H4923 H 0.56787 0.76173 0.86451 0.0
H4924 H 0.55293 0.76999 0.8953 0.0
S4925 S 0.51197 0.8181 0.84298 0.0
N4926 N 0.52774 0.80338 0.8328 0.0
N4927 N 0.51316 0.81385 0.86641 0.0
C4928 C 0.52655 0.79954 0.86689 0.0
C4929 C 0.53475 0.79392 0.84849 0.0
C4930 C 0.62624 0.46499 0.31096 0.0
C4931 C 0.6104 0.45885 0.29998 0.0
C4932 C 0.64467 0.45663 0.30858 0.0
C4933 C 0.64807 0.44085 0.29591 0.0
H4934 H 0.62399 0.47476 0.32298 0.0
H4935 H 0.65577 0.46258 0.31742 0.0
S4936 S 0.6142 0.42688 0.25704 0.0
N4937 N 0.60178 0.44251 0.27013 0.0
N4938 N 0.63544 0.42458 0.26769 0.0
C4939 C 0.63331 0.43718 0.28253 0.0
C4940 C 0.61485 0.44675 0.28408 0.0
C4941 C 0.28587 0.37874 0.55836 0.0
C4942 C 0.29492 0.36094 0.55403 0.0
C4943 C 0.29364 0.39697 0.5522 0.0
C4944 C 0.31111 0.3988 0.54144 0.0
H4945 H 0.27374 0.37884 0.56822 0.0
H4946 H 0.28644 0.40993 0.55712 0.0
S4947 S 0.33647 0.35655 0.52017 0.0
N4948 N 0.31948 0.34658 0.53361 0.0
N4949 N 0.3341 0.38016 0.52276 0.0
C4950 C 0.31869 0.38102 0.53481 0.0
C4951 C 0.31067 0.36246 0.54093 0.0
C4952 C 0.38783 0.06084 0.79374 0.0
C4953 C 0.39153 0.04594 0.80749 0.0
C4954 C 0.36886 0.06644 0.78797 0.0
C4955 C 0.3523 0.05695 0.79496 0.0
H4956 H 0.39977 0.06931 0.78826 0.0
H4957 H 0.3672 0.07915 0.77905 0.0
S4958 S 0.35355 0.01319 0.8262 0.0
N4959 N 0.37652 0.01953 0.82476 0.0
N4960 N 0.34139 0.02898 0.81313 0.0
C4961 C 0.35593 0.04039 0.8066 0.0
C4962 C 0.37524 0.03508 0.81294 0.0
C4963 C 0.72043 0.11832 0.04554 0.0
C4964 C 0.71442 0.13737 0.04115 0.0
C4965 C 0.7116 0.10168 0.03701 0.0
C4966 C 0.69514 0.10301 0.0248 0.0
H4967 H 0.73022 0.11609 0.05754 0.0
H4968 H 0.71541 0.0877 0.04289 0.0
S4969 S 0.67848 0.14895 0.00295 0.0
N4970 N 0.69562 0.15583 0.01807 0.0
N4971 N 0.67707 0.12523 0.00487 0.0
C4972 C 0.69124 0.12177 0.01797 0.0
C4973 C 0.70125 0.1386 0.02548 0.0
C4974 C 0.93773 0.28916 0.10443 0.0
C4975 C 0.95262 0.30332 0.10264 0.0
C4976 C 0.93039 0.28271 0.12254 0.0
C4977 C 0.93809 0.28934 0.14013 0.0
H4978 H 0.93062 0.28385 0.09156 0.0
H4979 H 0.91775 0.27351 0.12267 0.0
S4980 S 0.98146 0.32096 0.14413 0.0
N4981 N 0.97729 0.32034 0.12065 0.0
N4982 N 0.9647 0.30738 0.15427 0.0
C4983 C 0.95475 0.30131 0.13852 0.0
C4984 C 0.96179 0.30838 0.12005 0.0
C4985 C 0.92372 0.77395 0.62096 0.0
C4986 C 0.93232 0.77962 0.63852 0.0
C4987 C 0.93149 0.77942 0.60281 0.0
C4988 C 0.9481 0.79137 0.60098 0.0
H4989 H 0.9096 0.76722 0.62119 0.0
H4990 H 0.92308 0.776 0.59007 0.0
S4991 S 0.9789 0.80631 0.64212 0.0
N4992 N 0.96103 0.79429 0.65243 0.0
N4993 N 0.9746 0.80578 0.61866 0.0
C4994 C 0.95812 0.79517 0.61823 0.0
C4995 C 0.95048 0.78906 0.63677 0.0
C4996 C 0.61805 0.96401 0.81885 0.0
C4997 C 0.60146 0.95779 0.80891 0.0
C4998 C 0.6368 0.95781 0.81346 0.0
C4999 C 0.64008 0.94427 0.79844 0.0
H5000 H 0.61645 0.97185 0.83229 0.0
H5001 H 0.64853 0.96236 0.82253 0.0
S5002 S 0.60253 0.92929 0.76339 0.0
N5003 N 0.59055 0.9425 0.77926 0.0
N5004 N 0.62525 0.92897 0.77073 0.0
C5005 C 0.62403 0.94031 0.78666 0.0
C5006 C 0.60498 0.94748 0.79154 0.0
C5007 C 0.28143 0.8628 0.052 0.0
C5008 C 0.28779 0.84478 0.04504 0.0
C5009 C 0.2883 0.88039 0.04416 0.0
C5010 C 0.30261 0.88104 0.02948 0.0
H5011 H 0.27307 0.86339 0.06521 0.0
H5012 H 0.28438 0.8936 0.05158 0.0
S5013 S 0.31902 0.83831 0.00186 0.0
N5014 N 0.30473 0.82912 0.01863 0.0
N5015 N 0.31914 0.8619 0.00537 0.0
C5016 C 0.30679 0.86333 0.02051 0.0
C5017 C 0.2991 0.84538 0.02798 0.0
C5018 C 0.35334 0.53558 0.29557 0.0
C5019 C 0.35334 0.54921 0.28019 0.0
C5020 C 0.37041 0.52863 0.30462 0.0
C5021 C 0.38911 0.53388 0.29844 0.0
H5022 H 0.33977 0.53153 0.30215 0.0
H5023 H 0.36883 0.52035 0.31779 0.0
S5024 S 0.3983 0.56422 0.25492 0.0
N5025 N 0.37445 0.56433 0.25663 0.0
N5026 N 0.40637 0.55049 0.27272 0.0
C5027 C 0.38952 0.54481 0.28095 0.0
C5028 C 0.37185 0.5526 0.27209 0.0
C5029 C 0.71623 0.61924 0.56524 0.0
C5030 C 0.71003 0.6365 0.55648 0.0
C5031 C 0.70989 0.6008 0.55857 0.0
C5032 C 0.69628 0.59831 0.54325 0.0
H5033 H 0.72496 0.61994 0.57818 0.0
H5034 H 0.71479 0.58827 0.56651 0.0
S5035 S 0.67938 0.63849 0.51224 0.0
N5036 N 0.69267 0.64935 0.5288 0.0
N5037 N 0.67993 0.61522 0.51743 0.0
C5038 C 0.69158 0.6153 0.53318 0.0
C5039 C 0.69853 0.63407 0.53957 0.0
C5040 C 0.97561 0.50978 0.18479 0.0
C5041 C 0.97537 0.48959 0.18442 0.0
C5042 C 0.99316 0.51962 0.18548 0.0
C5043 C 0.01067 0.50933 0.18508 0.0
H5044 H 0.96248 0.51792 0.18226 0.0
H5045 H 0.99294 0.53512 0.18342 0.0
S5046 S 0.01729 0.4568 0.19098 0.0
N5047 N 0.99367 0.45989 0.18963 0.0
N5048 N 0.02679 0.47861 0.18948 0.0
C5049 C 0.01047 0.48944 0.18814 0.0
C5050 C 0.99261 0.47944 0.18821 0.0
C5051 C 0.74459 0.25764 0.44125 0.0
C5052 C 0.72493 0.25734 0.43629 0.0
C5053 C 0.75601 0.24133 0.43829 0.0
C5054 C 0.74789 0.22457 0.43024 0.0
H5055 H 0.75169 0.27121 0.44449 0.0
H5056 H 0.77153 0.24283 0.43974 0.0
S5057 S 0.69585 0.21438 0.42338 0.0
N5058 N 0.69679 0.23737 0.42963 0.0
N5059 N 0.71842 0.20663 0.42368 0.0
C5060 C 0.72772 0.22295 0.42937 0.0
C5061 C 0.71607 0.23947 0.43272 0.0
C5062 C 0.98345 -0.00053 0.69017 0.0
C5063 C 0.98243 0.97979 0.68576 0.0
C5064 C 0.00133 0.00868 0.69088 0.0
C5065 C 0.01828 -0.00159 0.68636 0.0
H5066 H 0.97045 0.00819 0.69047 0.0
H5067 H 0.00143 0.02429 0.69184 0.0
S5068 S 0.02335 0.94552 0.68181 0.0
N5069 N -0.00016 0.9493 0.68345 0.0
N5070 N 0.03354 0.96702 0.68352 0.0
C5071 C 0.01763 0.97825 0.68594 0.0
C5072 C -0.00052 0.96876 0.68595 0.0
C5073 C 0.24424 0.25602 0.94011 0.0
C5074 C 0.22576 0.25667 0.93193 0.0
C5075 C 0.25266 0.2383 0.94451 0.0
C5076 C 0.2431 0.22106 0.93953 0.0
H5077 H 0.25298 0.26897 0.94106 0.0
H5078 H 0.2678 0.23825 0.94848 0.0
S5079 S 0.19178 0.21586 0.92572 0.0
N5080 N 0.19582 0.23935 0.9255 0.0
N5081 N 0.21228 0.2058 0.93262 0.0
C5082 C 0.2233 0.22178 0.93547 0.0
C5083 C 0.21447 0.23985 0.93164 0.0
C5084 C 0.01007 0.49924 0.81149 0.0
C5085 C 0.02096 0.49961 0.82862 0.0
C5086 C 0.98989 0.50084 0.81206 0.0
C5087 C 0.98014 0.50144 0.82982 0.0
H5088 H 0.01718 0.49727 0.79769 0.0
H5089 H 0.98188 0.50155 0.79864 0.0
S5090 S 0.00207 0.50268 0.87867 0.0
N5091 N 0.02055 0.50166 0.8637 0.0
N5092 N 0.98271 0.50253 0.86481 0.0
C5093 C 0.99089 0.50156 0.84698 0.0
C5094 C 0.0113 0.50128 0.84636 0.0
C5095 C 0.7316 0.26237 0.06066 0.0
C5096 C 0.75135 0.26531 0.05723 0.0
C5097 C 0.72382 0.24381 0.05977 0.0
C5098 C 0.73578 0.22788 0.05589 0.0
H5099 H 0.72267 0.27395 0.06622 0.0
H5100 H 0.70911 0.24173 0.06473 0.0
S5101 S 0.78636 0.22893 0.03905 0.0
N5102 N 0.78108 0.25166 0.04393 0.0
N5103 N 0.76653 0.21653 0.04374 0.0
C5104 C 0.75453 0.23103 0.04927 0.0
C5105 C 0.76231 0.24997 0.04947 0.0
C5106 C 0.98529 -0.00319 0.33872 0.0
C5107 C 0.97463 -0.00347 0.32152 0.0
C5108 C 0.00517 0.99465 0.33853 0.0
C5109 C 0.01507 0.99133 0.32121 0.0
H5110 H 0.97831 -0.00056 0.35248 0.0
H5111 H 0.01267 0.99451 0.35228 0.0
S5112 S 0.9938 0.98928 0.27222 0.0
N5113 N 0.97524 0.9938 0.28657 0.0
N5114 N 0.01296 0.98751 0.28639 0.0
C5115 C 0.00465 0.99077 0.30384 0.0
C5116 C 0.9843 0.99394 0.30395 0.0
C5117 C 0.2478 0.23455 0.55259 0.0
C5118 C 0.24247 0.22753 0.57087 0.0
C5119 C 0.2524 0.2542 0.5501 0.0
C5120 C 0.25014 0.26732 0.56544 0.0
H5121 H 0.24853 0.22485 0.54035 0.0
H5122 H 0.25761 0.25915 0.53621 0.0
S5123 S 0.23544 0.25574 0.61575 0.0
N5124 N 0.23584 0.23483 0.60445 0.0
N5125 N 0.24135 0.2718 0.59925 0.0
C5126 C 0.24397 0.26035 0.58348 0.0
C5127 C 0.24093 0.24041 0.58632 0.0
C5128 C 0.18631 -0.00311 0.51602 0.0
C5129 C 0.18279 0.0137 0.50516 0.0
C5130 C 0.1874 0.97904 0.50689 0.0
C5131 C 0.18579 0.97797 0.48681 0.0
H5132 H 0.18527 -0.00298 0.53163 0.0
H5133 H 0.18694 0.96606 0.51559 0.0
S5134 S 0.18506 0.01882 0.45219 0.0
N5135 N 0.18344 0.02897 0.4737 0.0
N5136 N 0.18706 0.99541 0.45621 0.0
C5137 C 0.18686 0.99506 0.47583 0.0
C5138 C 0.18487 0.01313 0.48516 0.0
C5139 C 0.25516 0.44185 0.73542 0.0
C5140 C 0.27192 0.43438 0.74417 0.0
C5141 C 0.23771 0.44168 0.7454 0.0
C5142 C 0.2371 0.43482 0.76437 0.0
H5143 H 0.2547 0.4447 0.72005 0.0
H5144 H 0.22445 0.44422 0.73745 0.0
S5145 S 0.27884 0.4234 0.79588 0.0
N5146 N 0.28823 0.42664 0.7742 0.0
N5147 N 0.25547 0.42758 0.79354 0.0
C5148 C 0.25452 0.43232 0.77452 0.0
C5149 C 0.27216 0.43178 0.76416 0.0
C5150 C 0.81102 0.47725 0.98241 0.0
C5151 C 0.80978 0.47527 0.00247 0.0
C5152 C 0.80831 0.49527 0.97392 0.0
C5153 C 0.805 0.51163 0.98551 0.0
H5154 H 0.81626 0.46548 0.97354 0.0
H5155 H 0.81168 0.49677 0.95872 0.0
S5156 S 0.79325 0.51243 0.03745 0.0
N5157 N 0.79878 0.48973 0.03275 0.0
N5158 N 0.79526 0.524 0.01671 0.0
C5159 C 0.80029 0.50916 0.0049 0.0
C5160 C 0.80228 0.4907 0.01346 0.0
C5161 C 0.74313 0.05511 0.26229 0.0
C5162 C 0.76066 0.05823 0.25251 0.0
C5163 C 0.72579 0.05481 0.25207 0.0
C5164 C 0.72589 0.05709 0.23199 0.0
H5165 H 0.74241 0.05592 0.27789 0.0
H5166 H 0.71235 0.05559 0.26006 0.0
S5167 S 0.76873 0.0565 0.19984 0.0
N5168 N 0.77768 0.05732 0.22193 0.0
N5169 N 0.74503 0.05551 0.20245 0.0
C5170 C 0.74353 0.05541 0.22202 0.0
C5171 C 0.76113 0.05642 0.23244 0.0
C5172 C 0.48977 0.19829 0.0115 0.0
C5173 C 0.50975 0.19535 0.0123 0.0
C5174 C 0.48012 0.19691 0.99392 0.0
C5175 C 0.49029 0.19183 0.97706 0.0
H5176 H 0.48135 0.19913 0.02466 0.0
H5177 H 0.46447 0.19694 0.99418 0.0
S5178 S 0.54327 0.19017 0.97086 0.0
N5179 N 0.53994 0.19351 0.99422 0.0
N5180 N 0.52146 0.18966 0.9612 0.0
C5181 C 0.51045 0.19262 0.97717 0.0
C5182 C 0.52035 0.19476 0.99497 0.0
C5183 C 0.97242 0.81018 0.49569 0.0
C5184 C 0.98347 0.80516 0.51199 0.0
C5185 C 0.98145 0.81396 0.4781 0.0
C5186 C 0.00152 0.81208 0.4764 0.0
H5187 H 0.95731 0.81402 0.49713 0.0
H5188 H 0.97302 0.82032 0.46656 0.0
S5189 S 0.035 0.79149 0.51295 0.0
N5190 N 0.01404 0.79333 0.52417 0.0
N5191 N 0.03106 0.79895 0.49066 0.0
C5192 C 0.01187 0.80308 0.49148 0.0
C5193 C 0.00276 0.79994 0.50954 0.0
C5194 C 0.42508 0.24809 0.75749 0.0
C5195 C 0.4077 0.24793 0.76797 0.0
C5196 C 0.42485 0.2496 0.73733 0.0
C5197 C 0.40722 0.24958 0.72733 0.0
H5198 H 0.4388 0.24658 0.76488 0.0
H5199 H 0.43838 0.2506 0.72954 0.0
S5200 S 0.35789 0.24943 0.74818 0.0
N5201 N 0.37254 0.24884 0.76693 0.0
N5202 N 0.37214 0.24975 0.72912 0.0
C5203 C 0.38985 0.24932 0.73768 0.0
C5204 C 0.39008 0.24905 0.75803 0.0
C5205 C 0.01313 0.6856 0.99558 0.0
C5206 C 0.0032 0.68227 0.01299 0.0
C5207 C 0.00299 0.68694 0.97826 0.0
C5208 C 0.98282 0.68561 0.97819 0.0
H5209 H 0.02872 0.68447 0.99487 0.0
H5210 H 0.011 0.68659 0.96482 0.0
S5211 S 0.95046 0.6846 0.02086 0.0
N5212 N 0.9725 0.68294 0.02985 0.0
N5213 N 0.95322 0.68663 -0.00273 0.0
C5214 C 0.97281 0.68642 0.99586 0.0
C5215 C 0.98314 0.68436 0.01342 0.0
C5216 C 0.05887 0.75078 0.2524 0.0
C5217 C 0.07562 0.75046 0.26385 0.0
C5218 C 0.06015 0.74855 0.23232 0.0
C5219 C 0.07826 0.74745 0.22323 0.0
H5220 H 0.04482 0.75275 0.25901 0.0
H5221 H 0.047 0.74744 0.22389 0.0
S5222 S 0.12638 0.74696 0.2468 0.0
N5223 N 0.11075 0.74848 0.26468 0.0
N5224 N 0.11318 0.74665 0.227 0.0
C5225 C 0.09505 0.74792 0.23452 0.0
C5226 C 0.09372 0.74875 0.25485 0.0
C5227 C 0.47688 0.80011 -0.00059 0.0
C5228 C 0.48913 0.80251 0.01547 0.0
C5229 C 0.48457 0.79846 0.98085 0.0
C5230 C 0.50463 0.79855 0.97803 0.0
H5231 H 0.46143 0.8022 0.00076 0.0
H5232 H 0.47486 0.79939 0.96861 0.0
S5233 S 0.54227 0.79711 0.01618 0.0
N5234 N 0.52174 0.79982 0.02801 0.0
N5235 N 0.53633 0.79564 0.99314 0.0
C5236 C 0.51677 0.797 0.99429 0.0
C5237 C 0.50895 0.79929 0.01313 0.0
C5238 C 0.56793 0.26283 0.22348 0.0
C5239 C 0.56603 0.24276 0.22231 0.0
C5240 C 0.56591 0.27202 0.24122 0.0
C5241 C 0.56269 0.26104 0.25798 0.0
H5242 H 0.57326 0.27108 0.21131 0.0
H5243 H 0.56995 0.2871 0.24215 0.0
S5244 S 0.54846 0.20981 0.26076 0.0
N5245 N 0.55384 0.21348 0.23783 0.0
N5246 N 0.5516 0.23081 0.27159 0.0
C5247 C 0.5569 0.24187 0.25628 0.0
C5248 C 0.5582 0.23262 0.23812 0.0
C5249 C 0.72325 0.74481 0.93764 0.0
C5250 C 0.73487 0.76125 0.93493 0.0
C5251 C 0.73153 0.7265 0.93679 0.0
C5252 C 0.7515 0.72461 0.93423 0.0
H5253 H 0.70764 0.74577 0.93685 0.0
H5254 H 0.72212 0.71407 0.9354 0.0
S5255 S 0.78815 0.76348 0.93725 0.0
N5256 N 0.76715 0.77479 0.9371 0.0
N5257 N 0.78298 0.74021 0.9368 0.0
C5258 C 0.76335 0.74086 0.93697 0.0
C5259 C 0.75488 0.75948 0.93712 0.0
C5260 C 0.22831 0.7452 0.43251 0.0
C5261 C 0.23914 0.76239 0.43306 0.0
C5262 C 0.23745 0.7276 0.42924 0.0
C5263 C 0.25755 0.72685 0.42743 0.0
H5264 H 0.21267 0.74558 0.43166 0.0
H5265 H 0.2287 0.71496 0.42631 0.0
S5266 S 0.29221 0.76705 0.43524 0.0
N5267 N 0.27065 0.77718 0.43647 0.0
N5268 N 0.28822 0.7438 0.43182 0.0
C5269 C 0.26857 0.74339 0.43188 0.0
C5270 C 0.2592 0.76137 0.43444 0.0
C5271 C 0.75092 0.7558 0.55452 0.0
C5272 C 0.74933 0.76825 0.57046 0.0
C5273 C 0.74861 0.7358 0.55686 0.0
C5274 C 0.74626 0.72784 0.57537 0.0
H5275 H 0.75382 0.76157 0.54028 0.0
H5276 H 0.74852 0.72656 0.54424 0.0
S5277 S 0.74218 0.75426 0.62172 0.0
N5278 N 0.74475 0.77118 0.6052 0.0
N5279 N 0.74294 0.7337 0.60978 0.0
C5280 C 0.74547 0.74013 0.59139 0.0
C5281 C 0.74635 0.76034 0.58889 0.0
C5282 C 0.26603 0.71942 0.05689 0.0
C5283 C 0.24599 0.71802 0.0544 0.0
C5284 C 0.27497 0.73745 0.05669 0.0
C5285 C 0.26387 0.75429 0.0545 0.0
H5286 H 0.27438 0.70698 0.06139 0.0
H5287 H 0.29 0.73829 0.06101 0.0
S5288 S 0.21259 0.75753 0.04026 0.0
N5289 N 0.2166 0.73426 0.04345 0.0
N5290 N 0.23341 0.76834 0.04461 0.0
C5291 C 0.24469 0.75279 0.04858 0.0
C5292 C 0.23571 0.73441 0.04801 0.0
C5293 C 0.19088 0.47732 0.00703 0.0
C5294 C 0.18937 0.47605 0.98693 0.0
C5295 C 0.18685 0.49468 0.01633 0.0
C5296 C 0.18078 0.51085 0.00564 0.0
H5297 H 0.19261 0.4644 0.01567 0.0
H5298 H 0.18601 0.49459 0.03195 0.0
S5299 S 0.18177 0.51642 0.9526 0.0
N5300 N 0.1874 0.49358 0.95647 0.0
N5301 N 0.17879 0.52611 0.97418 0.0
C5302 C 0.18269 0.51063 0.98557 0.0
C5303 C 0.18744 0.49312 0.97609 0.0
C5304 C 0.24694 0.92871 0.22255 0.0
C5305 C 0.26449 0.92942 0.23277 0.0
C5306 C 0.22948 0.9272 0.23246 0.0
C5307 C 0.22929 0.92716 0.25267 0.0
H5308 H 0.24681 0.9264 0.20708 0.0
H5309 H 0.21646 0.92398 0.22439 0.0
S5310 S 0.27096 0.93613 0.28524 0.0
N5311 N 0.28044 0.93491 0.2634 0.0
N5312 N 0.24743 0.93353 0.28225 0.0
C5313 C 0.24637 0.93186 0.26272 0.0
C5314 C 0.26418 0.93264 0.25264 0.0
C5315 C 0.81007 0.00032 0.47874 0.0
C5316 C 0.81056 0.01714 0.49018 0.0
C5317 C 0.81279 0.98226 0.48711 0.0
C5318 C 0.815 0.98069 0.50708 0.0
H5319 H 0.81039 0.00119 0.46312 0.0
H5320 H 0.81487 0.96982 0.47786 0.0
S5321 S 0.81054 0.01997 0.54335 0.0
N5322 N 0.80906 0.03093 0.52225 0.0
N5323 N 0.8126 -0.00325 0.53842 0.0
C5324 C 0.81183 -0.00295 0.51881 0.0
C5325 C 0.80989 0.01547 0.51019 0.0
C5326 C 0.74166 0.55122 0.73402 0.0
C5327 C 0.72494 0.55639 0.7444 0.0
C5328 C 0.75958 0.55094 0.74316 0.0
C5329 C 0.76089 0.55505 0.76288 0.0
H5330 H 0.74147 0.55031 0.71841 0.0
H5331 H 0.77251 0.54999 0.73438 0.0
S5332 S 0.72019 0.56046 0.79734 0.0
N5333 N 0.7099 0.55964 0.77584 0.0
N5334 N 0.74357 0.55772 0.79348 0.0
C5335 C 0.74382 0.5556 0.77396 0.0
C5336 C 0.72566 0.55666 0.76453 0.0
C5337 C 0.51007 0.67898 0.47656 0.0
C5338 C 0.48988 0.67827 0.47614 0.0
C5339 C 0.51977 0.67892 0.49418 0.0
C5340 C 0.50937 0.67736 0.51156 0.0
H5341 H 0.51835 0.67746 0.46338 0.0
H5342 H 0.53534 0.67734 0.49397 0.0
S5343 S 0.45657 0.68126 0.51804 0.0
N5344 N 0.45988 0.68138 0.49443 0.0
N5345 N 0.47837 0.67987 0.52762 0.0
C5346 C 0.48937 0.67978 0.51137 0.0
C5347 C 0.47949 0.68062 0.49347 0.0
C5348 C 0.01416 0.31977 0.01413 0.0
C5349 C 0.99505 0.31383 0.01718 0.0
C5350 C 0.02189 0.31973 0.99559 0.0
C5351 C 0.01063 0.31394 0.97972 0.0
H5352 H 0.02241 0.32646 0.02562 0.0
H5353 H 0.03597 0.32626 0.99344 0.0
S5354 S 0.9627 0.29069 0.98111 0.0
N5355 N 0.96725 0.29667 0.00376 0.0
N5356 N 0.98167 0.29785 0.96853 0.0
C5357 C 0.99275 0.30531 0.9829 0.0
C5358 C 0.98505 0.30474 0.00189 0.0
C5359 C 0.43859 0.7557 0.24163 0.0
C5360 C 0.43222 0.74575 0.22508 0.0
C5361 C 0.44031 0.74607 0.2592 0.0
C5362 C 0.43626 0.72632 0.26028 0.0
H5363 H 0.43947 0.77131 0.24179 0.0
H5364 H 0.44209 0.75452 0.27225 0.0
S5365 S 0.42798 0.6929 0.21926 0.0
N5366 N 0.42801 0.71465 0.20951 0.0
N5367 N 0.43243 0.69619 0.24245 0.0
C5368 C 0.43456 0.71569 0.24303 0.0
C5369 C 0.43211 0.72558 0.22528 0.0
C5370 C -0.0036 0.14829 0.48434 0.0
C5371 C 0.99397 0.16559 0.47417 0.0
C5372 C -0.00062 0.14837 0.50408 0.0
C5373 C 0.00076 0.16577 0.51429 0.0
H5374 H 0.99499 0.13444 0.47718 0.0
H5375 H 0.00136 0.13462 0.51128 0.0
S5376 S -0.00364 0.21504 0.49423 0.0
N5377 N 0.99279 0.20062 0.47552 0.0
N5378 N 0.00054 0.20081 0.51294 0.0
C5379 C -0.00096 0.18328 0.50432 0.0
C5380 C 0.99508 0.18318 0.48414 0.0
C5381 C 0.05802 0.22878 0.74316 0.0
C5382 C 0.06182 0.23851 0.72574 0.0
C5383 C 0.05614 0.23911 0.76028 0.0
C5384 C 0.05741 0.25925 0.76006 0.0
H5385 H 0.05927 0.21322 0.74411 0.0
H5386 H 0.05624 0.23131 0.77384 0.0
S5387 S 0.05909 0.29098 0.71697 0.0
N5388 N 0.06129 0.26886 0.70836 0.0
N5389 N 0.05643 0.28855 0.74053 0.0
C5390 C 0.05686 0.26901 0.74224 0.0
C5391 C 0.05953 0.25848 0.72491 0.0
C5392 C 0.49316 0.3032 0.5033 0.0
C5393 C 0.49054 0.32016 0.51409 0.0
C5394 C 0.49862 0.30431 0.48379 0.0
C5395 C 0.5001 0.32236 0.47469 0.0
H5396 H 0.49115 0.28921 0.50997 0.0
H5397 H 0.5015 0.29118 0.47581 0.0
S5398 S 0.49378 0.37072 0.49674 0.0
N5399 N 0.49033 0.35528 0.51449 0.0
N5400 N 0.49813 0.35727 0.47761 0.0
C5401 C 0.49689 0.33924 0.48531 0.0
C5402 C 0.49269 0.33816 0.50513 0.0
C5403 C 0.56584 0.76849 0.74224 0.0
C5404 C 0.56389 0.75756 0.7592 0.0
C5405 C 0.56532 0.75942 0.72428 0.0
C5406 C 0.56245 0.73942 0.7231 0.0
H5407 H 0.57048 0.78341 0.74288 0.0
H5408 H 0.56964 0.76758 0.71166 0.0
S5409 S 0.54862 0.70667 0.76318 0.0
N5410 N 0.55365 0.72745 0.77372 0.0
N5411 N 0.55135 0.71042 0.7398 0.0
C5412 C 0.55629 0.72941 0.7397 0.0
C5413 C 0.5575 0.73851 0.75799 0.0
C5414 C 0.50326 0.46758 0.6858 0.0
C5415 C 0.4867 0.47786 0.69149 0.0
C5416 C 0.52009 0.47743 0.68074 0.0
C5417 C 0.52082 0.49761 0.68202 0.0
H5418 H 0.50231 0.45236 0.68226 0.0
H5419 H 0.5317 0.46946 0.67393 0.0
S5420 S 0.48366 0.52958 0.70384 0.0
N5421 N 0.47353 0.50801 0.70321 0.0
N5422 N 0.5057 0.52666 0.6952 0.0
C5423 C 0.50573 0.50736 0.69164 0.0
C5424 C 0.48841 0.49736 0.69611 0.0
C5425 C 0.47884 0.004 0.17801 0.0
C5426 C 0.48 0.98384 0.17704 0.0
C5427 C 0.49561 0.01511 0.17737 0.0
C5428 C 0.51373 0.0062 0.17528 0.0
H5429 H 0.46499 0.01123 0.17708 0.0
H5430 H 0.49413 0.03062 0.17602 0.0
S5431 S 0.5247 0.95419 0.17895 0.0
N5432 N 0.50089 0.95551 0.1797 0.0
N5433 N 0.53238 0.97668 0.17721 0.0
C5434 C 0.51525 0.98626 0.17749 0.0
C5435 C 0.49825 0.97493 0.17882 0.0
C5436 C 0.50087 0.52161 0.30878 0.0
C5437 C 0.48432 0.51 0.30675 0.0
C5438 C 0.51925 0.51344 0.30789 0.0
C5439 C 0.52139 0.49361 0.30455 0.0
H5440 H 0.49967 0.5365 0.31342 0.0
H5441 H 0.53156 0.52218 0.31203 0.0
S5442 S 0.48257 0.45911 0.29097 0.0
N5443 N 0.47113 0.47929 0.2964 0.0
N5444 N 0.5058 0.46395 0.29346 0.0
C5445 C 0.50509 0.48285 0.29871 0.0
C5446 C 0.48637 0.49104 0.30028 0.0
C5447 C 0.49454 0.97728 0.81384 0.0
C5448 C 0.51251 0.98663 0.815 0.0
C5449 C 0.47755 0.98806 0.81358 0.0
C5450 C 0.47838 0.00826 0.81389 0.0
H5451 H 0.49343 0.96182 0.81596 0.0
H5452 H 0.46389 0.98065 0.81553 0.0
S5453 S 0.5222 0.03873 0.80937 0.0
N5454 N 0.53044 0.01645 0.81133 0.0
N5455 N 0.4984 0.03691 0.80961 0.0
C5456 C 0.49626 0.01746 0.81096 0.0
C5457 C 0.51353 0.0065 0.81191 0.0
C5458 C 0.68204 0.97612 0.00406 0.0
C5459 C 0.66419 0.96641 0.00529 0.0
C5460 C 0.68304 -0.0038 0.00643 0.0
C5461 C 0.66606 0.00693 0.00888 0.0
H5462 H 0.69498 0.96832 -3e-05 0.0
H5463 H 0.69688 0.00342 0.00538 0.0
S5464 S 0.61614 0.98815 0.01429 0.0
N5465 N 0.6297 0.96881 0.01143 0.0
N5466 N 0.63124 0.00652 0.01342 0.0
C5467 C 0.64837 -0.00273 0.0109 0.0
C5468 C 0.64755 0.97693 0.00988 0.0
C5469 C 0.75396 0.4352 0.2714 0.0
C5470 C 0.73545 0.43527 0.26306 0.0
C5471 C 0.77019 0.43387 0.25964 0.0
C5472 C 0.768 0.43332 0.23956 0.0
H5473 H 0.75584 0.4329 0.28676 0.0
H5474 H 0.78402 0.43064 0.26623 0.0
S5475 S 0.72325 0.44266 0.21171 0.0
N5476 N 0.71619 0.44132 0.23443 0.0
N5477 N 0.74697 0.44001 0.2121 0.0
C5478 C 0.75009 0.43831 0.2314 0.0
C5479 C 0.73353 0.439 0.24335 0.0
C5480 C 0.3131 0.49729 0.51313 0.0
C5481 C 0.32045 0.48111 0.50325 0.0
C5482 C 0.30763 0.51376 0.50303 0.0
C5483 C 0.30906 0.51415 0.48291 0.0
H5484 H 0.31377 0.4982 0.52873 0.0
H5485 H 0.3049 0.52693 0.51103 0.0
S5486 S 0.31991 0.47291 0.45054 0.0
N5487 N 0.32369 0.46454 0.47254 0.0
N5488 N 0.31244 0.49538 0.45333 0.0
C5489 C 0.31238 0.49678 0.47291 0.0
C5490 C 0.31858 0.4802 0.48319 0.0
C5491 C 0.23016 0.05696 0.75992 0.0
C5492 C 0.22985 0.05827 0.73978 0.0
C5493 C 0.24771 0.05744 0.76974 0.0
C5494 C 0.26508 0.06005 0.75952 0.0
H5495 H 0.21686 0.05786 0.76813 0.0
H5496 H 0.24734 0.05867 0.78533 0.0
S5497 S 0.27204 0.0577 0.70674 0.0
N5498 N 0.24842 0.05654 0.70987 0.0
N5499 N 0.28144 0.05892 0.72862 0.0
C5500 C 0.26512 0.05804 0.73949 0.0
C5501 C 0.24732 0.05674 0.72947 0.0
C5502 C 0.93186 0.22217 0.24263 0.0
C5503 C 0.93157 0.2327 0.25999 0.0
C5504 C 0.931 0.23177 0.22501 0.0
C5505 C 0.93063 0.25195 0.2246 0.0
H5506 H 0.92969 0.20667 0.24261 0.0
H5507 H 0.92824 0.22349 0.21203 0.0
S5508 S 0.93829 0.28519 0.26597 0.0
N5509 N 0.93659 0.26352 0.27573 0.0
N5510 N 0.93659 0.28182 0.24243 0.0
C5511 C 0.93488 0.26229 0.24162 0.0
C5512 C 0.93491 0.25252 0.25957 0.0
C5513 C 0.6869 0.49311 0.51736 0.0
C5514 C 0.68716 0.50977 0.50571 0.0
C5515 C 0.68253 0.4752 0.50932 0.0
C5516 C 0.6794 0.47355 0.48945 0.0
H5517 H 0.68699 0.49423 0.53296 0.0
H5518 H 0.67973 0.46312 0.51884 0.0
S5519 S 0.68683 0.51169 0.45247 0.0
N5520 N 0.68949 0.52283 0.47337 0.0
N5521 N 0.68285 0.4888 0.4578 0.0
C5522 C 0.68389 0.48935 0.4774 0.0
C5523 C 0.68754 0.50769 0.4857 0.0
C5524 C 0.72965 0.93894 0.74285 0.0
C5525 C 0.72949 0.93687 0.76294 0.0
C5526 C 0.74714 0.93953 0.73292 0.0
C5527 C 0.76474 0.93729 0.74288 0.0
H5528 H 0.71632 0.93811 0.73467 0.0
H5529 H 0.74664 0.93905 0.71729 0.0
S5530 S 0.77203 0.93773 0.79567 0.0
N5531 N 0.74835 0.93802 0.79275 0.0
N5532 N 0.78126 0.93775 0.7737 0.0
C5533 C 0.76483 0.93833 0.76298 0.0
C5534 C 0.74705 0.93847 0.77317 0.0
C5535 C 0.31093 0.98252 -0.00065 0.0
C5536 C 0.32785 0.97141 -0.00188 0.0
C5537 C 0.31187 0.00268 -0.0022 0.0
C5538 C 0.32984 0.01203 -0.00341 0.0
H5539 H 0.29704 0.9756 0.00134 0.0
H5540 H 0.29859 0.01094 -0.00274 0.0
S5541 S 0.37826 0.98928 0.99419 0.0
N5542 N 0.36291 0.97113 0.99535 0.0
N5543 N 0.36478 0.00887 0.99496 0.0
C5544 C 0.3468 0.00102 -0.00365 0.0
C5545 C 0.34578 0.9807 -0.00357 0.0
C5546 C 0.23987 0.5547 0.23002 0.0
C5547 C 0.22476 0.56202 0.24156 0.0
C5548 C 0.25864 0.55363 0.23723 0.0
C5549 C 0.26244 0.55891 0.25632 0.0
H5550 H 0.23789 0.5524 0.21468 0.0
H5551 H 0.27042 0.5508 0.22732 0.0
S5552 S 0.22656 0.57164 0.29401 0.0
N5553 N 0.21382 0.56967 0.27394 0.0
N5554 N 0.24903 0.56634 0.28801 0.0
C5555 C 0.24684 0.56229 0.26892 0.0
C5556 C 0.22785 0.56417 0.26138 0.0
C5557 C 0.92366 0.75617 0.76367 0.0
C5558 C 0.92444 0.736 0.76452 0.0
C5559 C 0.92238 0.76548 0.74589 0.0
C5560 C 0.92125 0.7547 0.72874 0.0
H5561 H 0.92209 0.76462 0.77674 0.0
H5562 H 0.9199 0.78092 0.74579 0.0
S5563 S 0.9281 0.70215 0.72309 0.0
N5564 N 0.92872 0.70592 0.74662 0.0
N5565 N 0.92506 0.72361 0.71318 0.0
C5566 C 0.9247 0.73488 0.72924 0.0
C5567 C 0.92671 0.72543 0.74727 0.0
loop_
_geom_bond_atom_site_label_1
_geom_bond_atom_site_label_2
_geom_bond_distance
_geom_bond_site_symmetry_2
_ccdc_geom_bond_type
Mn0 O5 2.095 . S
Mn0 O15 2.162 . S
Mn0 O16 2.297 . S
Mn0 O24 2.385 . S
Mn0 O25 2.209 . S
Mn0 O26 2.094 . S
Mn1 O6 2.121 . S
Mn1 N8 2.257 . S
Mn1 N17 2.282 . S
Mn1 O25 2.215 . S
Mn1 O27 2.117 . S
C2 O24 1.234 . S
C2 O25 1.283 . S
C3 O15 1.281 . S
C3 O16 1.236 . S
C4 O26 1.240 . S
C4 O27 1.264 . S
O5 Mn0 2.095 . S
O5 C14 1.250 . S
O6 Mn1 2.121 . S
O6 C14 1.258 . S
C7 N8 1.326 . S
C7 C11 1.460 . S
C7 H13 0.929 . S
N8 Mn1 2.257 . S
N8 C7 1.326 . S
N8 C12 1.362 . S
C9 C10 1.258 . S
C9 C12 1.431 . S
C9 C29 1.449 . S
C10 C9 1.258 . S
C10 C11 1.477 . S
C10 H30 0.931 . S
C11 C7 1.460 . S
C11 C10 1.477 . S
C11 H31 0.930 . S
C12 N8 1.362 . S
C12 C9 1.431 . S
C12 C22 1.476 . S
H13 C7 0.929 . S
C14 O5 1.250 . S
C14 O6 1.258 . S
O15 Mn0 2.162 . S
O15 C3 1.281 . S
O16 Mn0 2.297 . S
O16 C3 1.236 . S
N17 Mn1 2.282 . S
N17 C18 1.328 . S
N17 C22 1.318 . S
C18 N17 1.328 . S
C18 C19 1.457 . S
C18 H23 0.929 . S
C19 C18 1.457 . S
C19 C20 1.291 . S
C19 H32 0.931 . S
C20 C19 1.291 . S
C20 C21 1.373 . S
C20 H33 0.929 . S
C21 C20 1.373 . S
C21 C22 1.396 . S
C21 C28 1.403 . S
C22 C12 1.476 . S
C22 N17 1.318 . S
C22 C21 1.396 . S
H23 C18 0.929 . S
O24 Mn0 2.385 . S
O24 C2 1.234 . S
O25 Mn0 2.209 . S
O25 Mn1 2.215 . S
O25 C2 1.283 . S
O26 Mn0 2.094 . S
O26 C4 1.240 . S
O27 Mn1 2.117 . S
O27 C4 1.264 . S
C28 C21 1.403 . S
C28 C29 1.399 . S
C28 H34 0.929 . S
C29 C9 1.449 . S
C29 C28 1.399 . S
C29 H35 0.930 . S
H30 C10 0.931 . S
H31 C11 0.930 . S
H32 C19 0.931 . S
H33 C20 0.929 . S
H34 C28 0.929 . S
H35 C29 0.930 . S
Mn36 O41 2.095 . S
Mn36 O51 2.162 . S
Mn36 O52 2.297 . S
Mn36 O60 2.385 . S
Mn36 O61 2.209 . S
Mn36 O62 2.094 . S
Mn37 O42 2.121 . S
Mn37 N44 2.257 . S
Mn37 N53 2.282 . S
Mn37 O61 2.215 . S
Mn37 O63 2.117 . S
C38 O60 1.234 . S
C38 O61 1.283 . S
C39 O51 1.281 . S
C39 O52 1.236 . S
C40 O62 1.240 . S
C40 O63 1.264 . S
O41 Mn36 2.095 . S
O41 C50 1.250 . S
O42 Mn37 2.121 . S
O42 C50 1.258 . S
C43 N44 1.326 . S
C43 C47 1.460 . S
C43 H49 0.929 . S
N44 Mn37 2.257 . S
N44 C43 1.326 . S
N44 C48 1.362 . S
C45 C46 1.258 . S
C45 C48 1.431 . S
C45 C65 1.449 . S
C46 C45 1.258 . S
C46 C47 1.477 . S
C46 H66 0.931 . S
C47 C43 1.460 . S
C47 C46 1.477 . S
C47 H67 0.930 . S
C48 N44 1.362 . S
C48 C45 1.431 . S
C48 C58 1.476 . S
H49 C43 0.929 . S
C50 O41 1.250 . S
C50 O42 1.258 . S
O51 Mn36 2.162 . S
O51 C39 1.281 . S
O52 Mn36 2.297 . S
O52 C39 1.236 . S
N53 Mn37 2.282 . S
N53 C54 1.328 . S
N53 C58 1.318 . S
C54 N53 1.328 . S
C54 C55 1.457 . S
C54 H59 0.929 . S
C55 C54 1.457 . S
C55 C56 1.291 . S
C55 H68 0.931 . S
C56 C55 1.291 . S
C56 C57 1.373 . S
C56 H69 0.929 . S
C57 C56 1.373 . S
C57 C58 1.396 . S
C57 C64 1.403 . S
C58 C48 1.476 . S
C58 N53 1.318 . S
C58 C57 1.396 . S
H59 C54 0.929 . S
O60 Mn36 2.385 . S
O60 C38 1.234 . S
O61 Mn36 2.209 . S
O61 Mn37 2.215 . S
O61 C38 1.283 . S
O62 Mn36 2.094 . S
O62 C40 1.240 . S
O63 Mn37 2.117 . S
O63 C40 1.264 . S
C64 C57 1.403 . S
C64 C65 1.399 . S
C64 H70 0.929 . S
C65 C45 1.449 . S
C65 C64 1.399 . S
C65 H71 0.930 . S
H66 C46 0.931 . S
H67 C47 0.930 . S
H68 C55 0.931 . S
H69 C56 0.929 . S
H70 C64 0.929 . S
H71 C65 0.930 . S
Mn72 O77 2.095 . S
Mn72 O87 2.162 1_565 S
Mn72 O88 2.297 . S
Mn72 O96 2.385 . S
Mn72 O97 2.209 . S
Mn72 O98 2.094 . S
Mn73 O78 2.121 . S
Mn73 N80 2.257 . S
Mn73 N89 2.282 . S
Mn73 O97 2.215 . S
Mn73 O99 2.117 . S
C74 O96 1.234 . S
C74 O97 1.283 . S
C75 O87 1.272 1_565 S
C75 O88 1.257 . S
C76 O98 1.240 . S
C76 O99 1.264 . S
O77 Mn72 2.095 . S
O77 C86 1.250 . S
O78 Mn73 2.121 . S
O78 C86 1.258 . S
C79 N80 1.326 . S
C79 C83 1.460 . S
C79 H85 0.929 . S
N80 Mn73 2.257 . S
N80 C79 1.326 . S
N80 C84 1.362 . S
C81 C82 1.258 . S
C81 C84 1.431 . S
C81 C101 1.449 . S
C82 C81 1.258 . S
C82 C83 1.477 . S
C82 H102 0.931 . S
C83 C79 1.460 . S
C83 C82 1.477 . S
C83 H103 0.930 . S
C84 N80 1.362 . S
C84 C81 1.431 . S
C84 C94 1.476 . S
H85 C79 0.929 . S
C86 O77 1.250 . S
C86 O78 1.258 . S
O87 Mn72 2.162 1_545 S
O87 C75 1.272 1_545 S
O88 Mn72 2.297 . S
O88 C75 1.257 . S
N89 Mn73 2.282 . S
N89 C90 1.328 . S
N89 C94 1.318 . S
C90 N89 1.328 . S
C90 C91 1.457 . S
C90 H95 0.929 . S
C91 C90 1.457 . S
C91 C92 1.291 . S
C91 H104 0.931 . S
C92 C91 1.291 . S
C92 C93 1.373 . S
C92 H105 0.929 . S
C93 C92 1.373 . S
C93 C94 1.396 . S
C93 C100 1.403 . S
C94 C84 1.476 . S
C94 N89 1.318 . S
C94 C93 1.396 . S
H95 C90 0.929 . S
O96 Mn72 2.385 . S
O96 C74 1.234 . S
O97 Mn72 2.209 . S
O97 Mn73 2.215 . S
O97 C74 1.283 . S
O98 Mn72 2.094 . S
O98 C76 1.240 . S
O99 Mn73 2.117 . S
O99 C76 1.264 . S
C100 C93 1.403 . S
C100 C101 1.399 . S
C100 H106 0.929 . S
C101 C81 1.449 . S
C101 C100 1.399 . S
C101 H107 0.930 . S
H102 C82 0.931 . S
H103 C83 0.930 . S
H104 C91 0.931 . S
H105 C92 0.929 . S
H106 C100 0.929 . S
H107 C101 0.930 . S
Mn108 O113 2.095 . S
Mn108 O123 2.162 . S
Mn108 O124 2.297 . S
Mn108 O132 2.385 . S
Mn108 O133 2.209 . S
Mn108 O134 2.094 . S
Mn109 O114 2.121 . S
Mn109 N116 2.257 . S
Mn109 N125 2.282 . S
Mn109 O133 2.215 . S
Mn109 O135 2.117 . S
C110 O132 1.234 . S
C110 O133 1.283 . S
C111 O123 1.281 . S
C111 O124 1.236 . S
C112 O134 1.240 . S
C112 O135 1.264 . S
O113 Mn108 2.095 . S
O113 C122 1.250 . S
O114 Mn109 2.121 . S
O114 C122 1.258 . S
C115 N116 1.326 . S
C115 C119 1.460 . S
C115 H121 0.929 . S
N116 Mn109 2.257 . S
N116 C115 1.326 . S
N116 C120 1.362 . S
C117 C118 1.258 . S
C117 C120 1.431 . S
C117 C137 1.449 . S
C118 C117 1.258 . S
C118 C119 1.477 . S
C118 H138 0.931 . S
C119 C115 1.460 . S
C119 C118 1.477 . S
C119 H139 0.930 . S
C120 N116 1.362 . S
C120 C117 1.431 . S
C120 C130 1.476 . S
H121 C115 0.929 . S
C122 O113 1.250 . S
C122 O114 1.258 . S
O123 Mn108 2.162 . S
O123 C111 1.281 . S
O124 Mn108 2.297 . S
O124 C111 1.236 . S
N125 Mn109 2.282 . S
N125 C126 1.328 . S
N125 C130 1.318 . S
C126 N125 1.328 . S
C126 C127 1.457 . S
C126 H131 0.929 . S
C127 C126 1.457 . S
C127 C128 1.291 . S
C127 H140 0.931 . S
C128 C127 1.291 . S
C128 C129 1.373 . S
C128 H141 0.929 . S
C129 C128 1.373 . S
C129 C130 1.396 . S
C129 C136 1.403 . S
C130 C120 1.476 . S
C130 N125 1.318 . S
C130 C129 1.396 . S
H131 C126 0.929 . S
O132 Mn108 2.385 . S
O132 C110 1.234 . S
O133 Mn108 2.209 . S
O133 Mn109 2.215 . S
O133 C110 1.283 . S
O134 Mn108 2.094 . S
O134 C112 1.240 . S
O135 Mn109 2.117 . S
O135 C112 1.264 . S
C136 C129 1.403 . S
C136 C137 1.399 . S
C136 H142 0.929 . S
C137 C117 1.449 . S
C137 C136 1.399 . S
C137 H143 0.930 . S
H138 C118 0.931 . S
H139 C119 0.930 . S
H140 C127 0.931 . S
H141 C128 0.929 . S
H142 C136 0.929 . S
H143 C137 0.930 . S
Mn144 O149 2.095 . S
Mn144 O159 2.162 . S
Mn144 O160 2.297 . S
Mn144 O168 2.385 . S
Mn144 O169 2.209 . S
Mn144 O170 2.094 . S
Mn145 O150 2.121 . S
Mn145 N152 2.257 . S
Mn145 N161 2.282 . S
Mn145 O169 2.215 . S
Mn145 O171 2.117 . S
C146 O168 1.234 . S
C146 O169 1.283 . S
C147 O159 1.281 . S
C147 O160 1.236 . S
C148 O170 1.240 . S
C148 O171 1.264 . S
O149 Mn144 2.095 . S
O149 C158 1.250 . S
O150 Mn145 2.121 . S
O150 C158 1.258 . S
C151 N152 1.326 . S
C151 C155 1.460 . S
C151 H157 0.929 . S
N152 Mn145 2.257 . S
N152 C151 1.326 . S
N152 C156 1.362 . S
C153 C154 1.258 . S
C153 C156 1.431 . S
C153 C173 1.449 . S
C154 C153 1.258 . S
C154 C155 1.477 . S
C154 H174 0.931 . S
C155 C151 1.460 . S
C155 C154 1.477 . S
C155 H175 0.930 . S
C156 N152 1.362 . S
C156 C153 1.431 . S
C156 C166 1.476 . S
H157 C151 0.929 . S
C158 O149 1.250 . S
C158 O150 1.258 . S
O159 Mn144 2.162 . S
O159 C147 1.281 . S
O160 Mn144 2.297 . S
O160 C147 1.236 . S
N161 Mn145 2.282 . S
N161 C162 1.328 . S
N161 C166 1.318 . S
C162 N161 1.328 . S
C162 C163 1.457 . S
C162 H167 0.929 . S
C163 C162 1.457 . S
C163 C164 1.291 . S
C163 H176 0.931 . S
C164 C163 1.291 . S
C164 C165 1.373 . S
C164 H177 0.929 . S
C165 C164 1.373 . S
C165 C166 1.396 . S
C165 C172 1.403 . S
C166 C156 1.476 . S
C166 N161 1.318 . S
C166 C165 1.396 . S
H167 C162 0.929 . S
O168 Mn144 2.385 . S
O168 C146 1.234 . S
O169 Mn144 2.209 . S
O169 Mn145 2.215 . S
O169 C146 1.283 . S
O170 Mn144 2.094 . S
O170 C148 1.240 . S
O171 Mn145 2.117 . S
O171 C148 1.264 . S
C172 C165 1.403 . S
C172 C173 1.399 . S
C172 H178 0.929 . S
C173 C153 1.449 . S
C173 C172 1.399 . S
C173 H179 0.930 . S
H174 C154 0.931 . S
H175 C155 0.930 . S
H176 C163 0.931 . S
H177 C164 0.929 . S
H178 C172 0.929 . S
H179 C173 0.930 . S
Mn180 O185 2.095 . S
Mn180 O195 2.162 . S
Mn180 O196 2.297 . S
Mn180 O204 2.385 . S
Mn180 O205 2.209 . S
Mn180 O206 2.094 . S
Mn181 O186 2.121 . S
Mn181 N188 2.257 . S
Mn181 N197 2.282 . S
Mn181 O205 2.215 . S
Mn181 O207 2.117 . S
C182 O204 1.234 . S
C182 O205 1.283 . S
C183 O195 1.281 . S
C183 O196 1.236 . S
C184 O206 1.240 . S
C184 O207 1.264 . S
O185 Mn180 2.095 . S
O185 C194 1.250 . S
O186 Mn181 2.121 . S
O186 C194 1.258 . S
C187 N188 1.326 . S
C187 C191 1.460 . S
C187 H193 0.929 . S
N188 Mn181 2.257 . S
N188 C187 1.326 . S
N188 C192 1.362 . S
C189 C190 1.258 . S
C189 C192 1.431 . S
C189 C209 1.449 . S
C190 C189 1.258 . S
C190 C191 1.477 . S
C190 H210 0.931 . S
C191 C187 1.460 . S
C191 C190 1.477 . S
C191 H211 0.930 . S
C192 N188 1.362 . S
C192 C189 1.431 . S
C192 C202 1.476 . S
H193 C187 0.929 . S
C194 O185 1.250 . S
C194 O186 1.258 . S
O195 Mn180 2.162 . S
O195 C183 1.281 . S
O196 Mn180 2.297 . S
O196 C183 1.236 . S
N197 Mn181 2.282 . S
N197 C198 1.328 . S
N197 C202 1.318 . S
C198 N197 1.328 . S
C198 C199 1.457 . S
C198 H203 0.929 . S
C199 C198 1.457 . S
C199 C200 1.291 . S
C199 H212 0.931 . S
C200 C199 1.291 . S
C200 C201 1.373 . S
C200 H213 0.929 . S
C201 C200 1.373 . S
C201 C202 1.396 . S
C201 C208 1.403 . S
C202 C192 1.476 . S
C202 N197 1.318 . S
C202 C201 1.396 . S
H203 C198 0.929 . S
O204 Mn180 2.385 . S
O204 C182 1.234 . S
O205 Mn180 2.209 . S
O205 Mn181 2.215 . S
O205 C182 1.283 . S
O206 Mn180 2.094 . S
O206 C184 1.240 . S
O207 Mn181 2.117 . S
O207 C184 1.264 . S
C208 C201 1.403 . S
C208 C209 1.399 . S
C208 H214 0.929 . S
C209 C189 1.449 . S
C209 C208 1.399 . S
C209 H215 0.930 . S
H210 C190 0.931 . S
H211 C191 0.930 . S
H212 C199 0.931 . S
H213 C200 0.929 . S
H214 C208 0.929 . S
H215 C209 0.930 . S
Mn216 O221 2.095 . S
Mn216 O231 2.162 1_545 S
Mn216 O232 2.297 . S
Mn216 O240 2.385 . S
Mn216 O241 2.209 . S
Mn216 O242 2.094 . S
Mn217 O222 2.121 . S
Mn217 N224 2.257 . S
Mn217 N233 2.282 . S
Mn217 O241 2.215 . S
Mn217 O243 2.117 . S
C218 O240 1.234 . S
C218 O241 1.283 . S
C219 O231 1.272 1_545 S
C219 O232 1.257 . S
C220 O242 1.240 . S
C220 O243 1.264 . S
O221 Mn216 2.095 . S
O221 C230 1.250 . S
O222 Mn217 2.121 . S
O222 C230 1.258 . S
C223 N224 1.326 . S
C223 C227 1.460 . S
C223 H229 0.929 . S
N224 Mn217 2.257 . S
N224 C223 1.326 . S
N224 C228 1.362 . S
C225 C226 1.258 . S
C225 C228 1.431 . S
C225 C245 1.449 . S
C226 C225 1.258 . S
C226 C227 1.477 . S
C226 H246 0.931 . S
C227 C223 1.460 . S
C227 C226 1.477 . S
C227 H247 0.930 . S
C228 N224 1.362 . S
C228 C225 1.431 . S
C228 C238 1.476 . S
H229 C223 0.929 . S
C230 O221 1.250 . S
C230 O222 1.258 . S
O231 Mn216 2.162 1_565 S
O231 C219 1.272 1_565 S
O232 Mn216 2.297 . S
O232 C219 1.257 . S
N233 Mn217 2.282 . S
N233 C234 1.328 . S
N233 C238 1.318 . S
C234 N233 1.328 . S
C234 C235 1.457 . S
C234 H239 0.929 . S
C235 C234 1.457 . S
C235 C236 1.291 . S
C235 H248 0.931 . S
C236 C235 1.291 . S
C236 C237 1.373 . S
C236 H249 0.929 . S
C237 C236 1.373 . S
C237 C238 1.396 . S
C237 C244 1.403 . S
C238 C228 1.476 . S
C238 N233 1.318 . S
C238 C237 1.396 . S
H239 C234 0.929 . S
O240 Mn216 2.385 . S
O240 C218 1.234 . S
O241 Mn216 2.209 . S
O241 Mn217 2.215 . S
O241 C218 1.283 . S
O242 Mn216 2.094 . S
O242 C220 1.240 . S
O243 Mn217 2.117 . S
O243 C220 1.264 . S
C244 C237 1.403 . S
C244 C245 1.399 . S
C244 H250 0.929 . S
C245 C225 1.449 . S
C245 C244 1.399 . S
C245 H251 0.930 . S
H246 C226 0.931 . S
H247 C227 0.930 . S
H248 C235 0.931 . S
H249 C236 0.929 . S
H250 C244 0.929 . S
H251 C245 0.930 . S
Mn252 O257 2.095 . S
Mn252 O267 2.162 . S
Mn252 O268 2.297 . S
Mn252 O276 2.385 . S
Mn252 O277 2.209 . S
Mn252 O278 2.094 . S
Mn253 O258 2.121 . S
Mn253 N260 2.257 . S
Mn253 N269 2.282 . S
Mn253 O277 2.215 . S
Mn253 O279 2.117 . S
C254 O276 1.234 . S
C254 O277 1.283 . S
C255 O267 1.281 . S
C255 O268 1.236 . S
C256 O278 1.240 . S
C256 O279 1.264 . S
O257 Mn252 2.095 . S
O257 C266 1.250 . S
O258 Mn253 2.121 . S
O258 C266 1.258 . S
C259 N260 1.326 . S
C259 C263 1.460 . S
C259 H265 0.929 . S
N260 Mn253 2.257 . S
N260 C259 1.326 . S
N260 C264 1.362 . S
C261 C262 1.258 . S
C261 C264 1.431 . S
C261 C281 1.449 . S
C262 C261 1.258 . S
C262 C263 1.477 . S
C262 H282 0.931 . S
C263 C259 1.460 . S
C263 C262 1.477 . S
C263 H283 0.930 . S
C264 N260 1.362 . S
C264 C261 1.431 . S
C264 C274 1.476 . S
H265 C259 0.929 . S
C266 O257 1.250 . S
C266 O258 1.258 . S
O267 Mn252 2.162 . S
O267 C255 1.281 . S
O268 Mn252 2.297 . S
O268 C255 1.236 . S
N269 Mn253 2.282 . S
N269 C270 1.328 . S
N269 C274 1.318 . S
C270 N269 1.328 . S
C270 C271 1.457 . S
C270 H275 0.929 . S
C271 C270 1.457 . S
C271 C272 1.291 . S
C271 H284 0.931 . S
C272 C271 1.291 . S
C272 C273 1.373 . S
C272 H285 0.929 . S
C273 C272 1.373 . S
C273 C274 1.396 . S
C273 C280 1.403 . S
C274 C264 1.476 . S
C274 N269 1.318 . S
C274 C273 1.396 . S
H275 C270 0.929 . S
O276 Mn252 2.385 . S
O276 C254 1.234 . S
O277 Mn252 2.209 . S
O277 Mn253 2.215 . S
O277 C254 1.283 . S
O278 Mn252 2.094 . S
O278 C256 1.240 . S
O279 Mn253 2.117 . S
O279 C256 1.264 . S
C280 C273 1.403 . S
C280 C281 1.399 . S
C280 H286 0.929 . S
C281 C261 1.449 . S
C281 C280 1.399 . S
C281 H287 0.930 . S
H282 C262 0.931 . S
H283 C263 0.930 . S
H284 C271 0.931 . S
H285 C272 0.929 . S
H286 C280 0.929 . S
H287 C281 0.930 . S
Mn288 O293 2.095 . S
Mn288 O303 2.162 . S
Mn288 O304 2.297 . S
Mn288 O312 2.385 . S
Mn288 O313 2.209 . S
Mn288 O314 2.094 . S
Mn289 O294 2.121 . S
Mn289 N296 2.257 . S
Mn289 N305 2.282 . S
Mn289 O313 2.215 . S
Mn289 O315 2.117 . S
C290 O312 1.234 . S
C290 O313 1.283 . S
C291 O303 1.281 . S
C291 O304 1.236 . S
C292 O314 1.240 . S
C292 O315 1.264 . S
O293 Mn288 2.095 . S
O293 C302 1.250 . S
O294 Mn289 2.121 . S
O294 C302 1.258 . S
C295 N296 1.326 . S
C295 C299 1.460 . S
C295 H301 0.929 . S
N296 Mn289 2.257 . S
N296 C295 1.326 . S
N296 C300 1.362 . S
C297 C298 1.258 . S
C297 C300 1.431 . S
C297 C317 1.449 . S
C298 C297 1.258 . S
C298 C299 1.477 . S
C298 H318 0.931 . S
C299 C295 1.460 . S
C299 C298 1.477 . S
C299 H319 0.930 . S
C300 N296 1.362 . S
C300 C297 1.431 . S
C300 C310 1.476 . S
H301 C295 0.929 . S
C302 O293 1.250 . S
C302 O294 1.258 . S
O303 Mn288 2.162 . S
O303 C291 1.281 . S
O304 Mn288 2.297 . S
O304 C291 1.236 . S
N305 Mn289 2.282 . S
N305 C306 1.328 . S
N305 C310 1.318 . S
C306 N305 1.328 . S
C306 C307 1.457 . S
C306 H311 0.929 . S
C307 C306 1.457 . S
C307 C308 1.291 . S
C307 H320 0.931 . S
C308 C307 1.291 . S
C308 C309 1.373 . S
C308 H321 0.929 . S
C309 C308 1.373 . S
C309 C310 1.396 . S
C309 C316 1.403 . S
C310 C300 1.476 . S
C310 N305 1.318 . S
C310 C309 1.396 . S
H311 C306 0.929 . S
O312 Mn288 2.385 . S
O312 C290 1.234 . S
O313 Mn288 2.209 . S
O313 Mn289 2.215 . S
O313 C290 1.283 . S
O314 Mn288 2.094 . S
O314 C292 1.240 . S
O315 Mn289 2.117 . S
O315 C292 1.264 . S
C316 C309 1.403 . S
C316 C317 1.399 . S
C316 H322 0.929 . S
C317 C297 1.449 . S
C317 C316 1.399 . S
C317 H323 0.930 . S
H318 C298 0.931 . S
H319 C299 0.930 . S
H320 C307 0.931 . S
H321 C308 0.929 . S
H322 C316 0.929 . S
H323 C317 0.930 . S
Mn324 O329 2.095 . S
Mn324 O339 2.162 . S
Mn324 O340 2.297 . S
Mn324 O348 2.385 . S
Mn324 O349 2.209 . S
Mn324 O350 2.094 . S
Mn325 O330 2.121 . S
Mn325 N332 2.257 . S
Mn325 N341 2.282 . S
Mn325 O349 2.215 . S
Mn325 O351 2.117 . S
C326 O348 1.234 . S
C326 O349 1.283 . S
C327 O339 1.281 . S
C327 O340 1.236 . S
C328 O350 1.240 . S
C328 O351 1.264 . S
O329 Mn324 2.095 . S
O329 C338 1.250 . S
O330 Mn325 2.121 . S
O330 C338 1.258 . S
C331 N332 1.326 . S
C331 C335 1.460 . S
C331 H337 0.929 . S
N332 Mn325 2.257 . S
N332 C331 1.326 . S
N332 C336 1.362 . S
C333 C334 1.258 . S
C333 C336 1.431 . S
C333 C353 1.449 . S
C334 C333 1.258 . S
C334 C335 1.477 . S
C334 H354 0.931 . S
C335 C331 1.460 . S
C335 C334 1.477 . S
C335 H355 0.930 . S
C336 N332 1.362 . S
C336 C333 1.431 . S
C336 C346 1.476 . S
H337 C331 0.929 . S
C338 O329 1.250 . S
C338 O330 1.258 . S
O339 Mn324 2.162 . S
O339 C327 1.281 . S
O340 Mn324 2.297 . S
O340 C327 1.236 . S
N341 Mn325 2.282 . S
N341 C342 1.328 . S
N341 C346 1.318 . S
C342 N341 1.328 . S
C342 C343 1.457 . S
C342 H347 0.929 . S
C343 C342 1.457 . S
C343 C344 1.291 . S
C343 H356 0.931 . S
C344 C343 1.291 . S
C344 C345 1.373 . S
C344 H357 0.929 . S
C345 C344 1.373 . S
C345 C346 1.396 . S
C345 C352 1.403 . S
C346 C336 1.476 . S
C346 N341 1.318 . S
C346 C345 1.396 . S
H347 C342 0.929 . S
O348 Mn324 2.385 . S
O348 C326 1.234 . S
O349 Mn324 2.209 . S
O349 Mn325 2.215 . S
O349 C326 1.283 . S
O350 Mn324 2.094 . S
O350 C328 1.240 . S
O351 Mn325 2.117 . S
O351 C328 1.264 . S
C352 C345 1.403 . S
C352 C353 1.399 . S
C352 H358 0.929 . S
C353 C333 1.449 . S
C353 C352 1.399 . S
C353 H359 0.930 . S
H354 C334 0.931 . S
H355 C335 0.930 . S
H356 C343 0.931 . S
H357 C344 0.929 . S
H358 C352 0.929 . S
H359 C353 0.930 . S
Mn360 O365 2.095 . S
Mn360 O375 2.162 1_554 S
Mn360 O376 2.297 . S
Mn360 O384 2.385 . S
Mn360 O385 2.209 . S
Mn360 O386 2.094 . S
Mn361 O366 2.121 . S
Mn361 N368 2.257 . S
Mn361 N377 2.282 . S
Mn361 O385 2.215 . S
Mn361 O387 2.117 . S
C362 O384 1.234 . S
C362 O385 1.283 . S
C363 O375 1.272 1_554 S
C363 O376 1.257 . S
C364 O386 1.240 . S
C364 O387 1.264 . S
O365 Mn360 2.095 . S
O365 C374 1.250 . S
O366 Mn361 2.121 . S
O366 C374 1.258 . S
C367 N368 1.326 . S
C367 C371 1.460 . S
C367 H373 0.929 . S
N368 Mn361 2.257 . S
N368 C367 1.326 . S
N368 C372 1.362 . S
C369 C370 1.258 . S
C369 C372 1.431 . S
C369 C389 1.449 . S
C370 C369 1.258 . S
C370 C371 1.477 . S
C370 H390 0.931 . S
C371 C367 1.460 . S
C371 C370 1.477 . S
C371 H391 0.930 . S
C372 N368 1.362 . S
C372 C369 1.431 . S
C372 C382 1.476 . S
H373 C367 0.929 . S
C374 O365 1.250 . S
C374 O366 1.258 . S
O375 Mn360 2.162 1_556 S
O375 C363 1.272 1_556 S
O376 Mn360 2.297 . S
O376 C363 1.257 . S
N377 Mn361 2.282 . S
N377 C378 1.328 . S
N377 C382 1.318 . S
C378 N377 1.328 . S
C378 C379 1.457 . S
C378 H383 0.929 . S
C379 C378 1.457 . S
C379 C380 1.291 . S
C379 H392 0.931 . S
C380 C379 1.291 . S
C380 C381 1.373 . S
C380 H393 0.929 . S
C381 C380 1.373 . S
C381 C382 1.396 . S
C381 C388 1.403 . S
C382 C372 1.476 . S
C382 N377 1.318 . S
C382 C381 1.396 . S
H383 C378 0.929 . S
O384 Mn360 2.385 . S
O384 C362 1.234 . S
O385 Mn360 2.209 . S
O385 Mn361 2.215 . S
O385 C362 1.283 . S
O386 Mn360 2.094 . S
O386 C364 1.240 . S
O387 Mn361 2.117 . S
O387 C364 1.264 . S
C388 C381 1.403 . S
C388 C389 1.399 . S
C388 H394 0.929 . S
C389 C369 1.449 . S
C389 C388 1.399 . S
C389 H395 0.930 . S
H390 C370 0.931 . S
H391 C371 0.930 . S
H392 C379 0.931 . S
H393 C380 0.929 . S
H394 C388 0.929 . S
H395 C389 0.930 . S
Mn396 O401 2.095 . S
Mn396 O411 2.162 . S
Mn396 O412 2.297 . S
Mn396 O420 2.385 . S
Mn396 O421 2.209 . S
Mn396 O422 2.094 . S
Mn397 O402 2.121 . S
Mn397 N404 2.257 . S
Mn397 N413 2.282 . S
Mn397 O421 2.215 . S
Mn397 O423 2.117 . S
C398 O420 1.234 . S
C398 O421 1.283 . S
C399 O411 1.281 . S
C399 O412 1.236 . S
C400 O422 1.240 . S
C400 O423 1.264 . S
O401 Mn396 2.095 . S
O401 C410 1.250 . S
O402 Mn397 2.121 . S
O402 C410 1.258 . S
C403 N404 1.326 . S
C403 C407 1.460 . S
C403 H409 0.929 . S
N404 Mn397 2.257 . S
N404 C403 1.326 . S
N404 C408 1.362 . S
C405 C406 1.258 . S
C405 C408 1.431 . S
C405 C425 1.449 . S
C406 C405 1.258 . S
C406 C407 1.477 . S
C406 H426 0.931 . S
C407 C403 1.460 . S
C407 C406 1.477 . S
C407 H427 0.930 . S
C408 N404 1.362 . S
C408 C405 1.431 . S
C408 C418 1.476 . S
H409 C403 0.929 . S
C410 O401 1.250 . S
C410 O402 1.258 . S
O411 Mn396 2.162 . S
O411 C399 1.281 . S
O412 Mn396 2.297 . S
O412 C399 1.236 . S
N413 Mn397 2.282 . S
N413 C414 1.328 . S
N413 C418 1.318 . S
C414 N413 1.328 . S
C414 C415 1.457 . S
C414 H419 0.929 . S
C415 C414 1.457 . S
C415 C416 1.291 . S
C415 H428 0.931 . S
C416 C415 1.291 . S
C416 C417 1.373 . S
C416 H429 0.929 . S
C417 C416 1.373 . S
C417 C418 1.396 . S
C417 C424 1.403 . S
C418 C408 1.476 . S
C418 N413 1.318 . S
C418 C417 1.396 . S
H419 C414 0.929 . S
O420 Mn396 2.385 . S
O420 C398 1.234 . S
O421 Mn396 2.209 . S
O421 Mn397 2.215 . S
O421 C398 1.283 . S
O422 Mn396 2.094 . S
O422 C400 1.240 . S
O423 Mn397 2.117 . S
O423 C400 1.264 . S
C424 C417 1.403 . S
C424 C425 1.399 . S
C424 H430 0.929 . S
C425 C405 1.449 . S
C425 C424 1.399 . S
C425 H431 0.930 . S
H426 C406 0.931 . S
H427 C407 0.930 . S
H428 C415 0.931 . S
H429 C416 0.929 . S
H430 C424 0.929 . S
H431 C425 0.930 . S
Mn432 O437 2.095 . S
Mn432 O447 2.162 . S
Mn432 O448 2.297 . S
Mn432 O456 2.385 . S
Mn432 O457 2.209 . S
Mn432 O458 2.094 . S
Mn433 O438 2.121 . S
Mn433 N440 2.257 . S
Mn433 N449 2.282 . S
Mn433 O457 2.215 . S
Mn433 O459 2.117 . S
C434 O456 1.234 . S
C434 O457 1.283 . S
C435 O447 1.281 . S
C435 O448 1.236 . S
C436 O458 1.240 . S
C436 O459 1.264 . S
O437 Mn432 2.095 . S
O437 C446 1.250 . S
O438 Mn433 2.121 . S
O438 C446 1.258 . S
C439 N440 1.326 . S
C439 C443 1.460 . S
C439 H445 0.929 . S
N440 Mn433 2.257 . S
N440 C439 1.326 . S
N440 C444 1.362 . S
C441 C442 1.258 . S
C441 C444 1.431 . S
C441 C461 1.449 . S
C442 C441 1.258 . S
C442 C443 1.477 . S
C442 H462 0.931 . S
C443 C439 1.460 . S
C443 C442 1.477 . S
C443 H463 0.930 . S
C444 N440 1.362 . S
C444 C441 1.431 . S
C444 C454 1.476 . S
H445 C439 0.929 . S
C446 O437 1.250 . S
C446 O438 1.258 . S
O447 Mn432 2.162 . S
O447 C435 1.281 . S
O448 Mn432 2.297 . S
O448 C435 1.236 . S
N449 Mn433 2.282 . S
N449 C450 1.328 . S
N449 C454 1.318 . S
C450 N449 1.328 . S
C450 C451 1.457 . S
C450 H455 0.929 . S
C451 C450 1.457 . S
C451 C452 1.291 . S
C451 H464 0.931 . S
C452 C451 1.291 . S
C452 C453 1.373 . S
C452 H465 0.929 . S
C453 C452 1.373 . S
C453 C454 1.396 . S
C453 C460 1.403 . S
C454 C444 1.476 . S
C454 N449 1.318 . S
C454 C453 1.396 . S
H455 C450 0.929 . S
O456 Mn432 2.385 . S
O456 C434 1.234 . S
O457 Mn432 2.209 . S
O457 Mn433 2.215 . S
O457 C434 1.283 . S
O458 Mn432 2.094 . S
O458 C436 1.240 . S
O459 Mn433 2.117 . S
O459 C436 1.264 . S
C460 C453 1.403 . S
C460 C461 1.399 . S
C460 H466 0.929 . S
C461 C441 1.449 . S
C461 C460 1.399 . S
C461 H467 0.930 . S
H462 C442 0.931 . S
H463 C443 0.930 . S
H464 C451 0.931 . S
H465 C452 0.929 . S
H466 C460 0.929 . S
H467 C461 0.930 . S
Mn468 O473 2.095 . S
Mn468 O483 2.162 . S
Mn468 O484 2.297 . S
Mn468 O492 2.385 . S
Mn468 O493 2.209 . S
Mn468 O494 2.094 . S
Mn469 O474 2.121 . S
Mn469 N476 2.257 . S
Mn469 N485 2.282 . S
Mn469 O493 2.215 . S
Mn469 O495 2.117 . S
C470 O492 1.234 . S
C470 O493 1.283 . S
C471 O483 1.281 . S
C471 O484 1.236 . S
C472 O494 1.240 . S
C472 O495 1.264 . S
O473 Mn468 2.095 . S
O473 C482 1.250 . S
O474 Mn469 2.121 . S
O474 C482 1.258 . S
C475 N476 1.326 . S
C475 C479 1.460 . S
C475 H481 0.929 . S
N476 Mn469 2.257 . S
N476 C475 1.326 . S
N476 C480 1.362 . S
C477 C478 1.258 . S
C477 C480 1.431 . S
C477 C497 1.449 . S
C478 C477 1.258 . S
C478 C479 1.477 . S
C478 H498 0.931 . S
C479 C475 1.460 . S
C479 C478 1.477 . S
C479 H499 0.930 . S
C480 N476 1.362 . S
C480 C477 1.431 . S
C480 C490 1.476 . S
H481 C475 0.929 . S
C482 O473 1.250 . S
C482 O474 1.258 . S
O483 Mn468 2.162 . S
O483 C471 1.281 . S
O484 Mn468 2.297 . S
O484 C471 1.236 . S
N485 Mn469 2.282 . S
N485 C486 1.328 . S
N485 C490 1.318 . S
C486 N485 1.328 . S
C486 C487 1.457 . S
C486 H491 0.929 . S
C487 C486 1.457 . S
C487 C488 1.291 . S
C487 H500 0.931 . S
C488 C487 1.291 . S
C488 C489 1.373 . S
C488 H501 0.929 . S
C489 C488 1.373 . S
C489 C490 1.396 . S
C489 C496 1.403 . S
C490 C480 1.476 . S
C490 N485 1.318 . S
C490 C489 1.396 . S
H491 C486 0.929 . S
O492 Mn468 2.385 . S
O492 C470 1.234 . S
O493 Mn468 2.209 . S
O493 Mn469 2.215 . S
O493 C470 1.283 . S
O494 Mn468 2.094 . S
O494 C472 1.240 . S
O495 Mn469 2.117 . S
O495 C472 1.264 . S
C496 C489 1.403 . S
C496 C497 1.399 . S
C496 H502 0.929 . S
C497 C477 1.449 . S
C497 C496 1.399 . S
C497 H503 0.930 . S
H498 C478 0.931 . S
H499 C479 0.930 . S
H500 C487 0.931 . S
H501 C488 0.929 . S
H502 C496 0.929 . S
H503 C497 0.930 . S
Mn504 O509 2.095 . S
Mn504 O519 2.162 1_556 S
Mn504 O520 2.297 . S
Mn504 O528 2.385 . S
Mn504 O529 2.209 . S
Mn504 O530 2.094 . S
Mn505 O510 2.121 . S
Mn505 N512 2.257 . S
Mn505 N521 2.282 . S
Mn505 O529 2.215 . S
Mn505 O531 2.117 . S
C506 O528 1.234 . S
C506 O529 1.283 . S
C507 O519 1.272 1_556 S
C507 O520 1.257 . S
C508 O530 1.240 . S
C508 O531 1.264 . S
O509 Mn504 2.095 . S
O509 C518 1.250 . S
O510 Mn505 2.121 . S
O510 C518 1.258 . S
C511 N512 1.326 . S
C511 C515 1.460 . S
C511 H517 0.929 . S
N512 Mn505 2.257 . S
N512 C511 1.326 . S
N512 C516 1.362 . S
C513 C514 1.258 . S
C513 C516 1.431 . S
C513 C533 1.449 . S
C514 C513 1.258 . S
C514 C515 1.477 . S
C514 H534 0.931 . S
C515 C511 1.460 . S
C515 C514 1.477 . S
C515 H535 0.930 . S
C516 N512 1.362 . S
C516 C513 1.431 . S
C516 C526 1.476 . S
H517 C511 0.929 . S
C518 O509 1.250 . S
C518 O510 1.258 . S
O519 Mn504 2.162 1_554 S
O519 C507 1.272 1_554 S
O520 Mn504 2.297 . S
O520 C507 1.257 . S
N521 Mn505 2.282 . S
N521 C522 1.328 . S
N521 C526 1.318 . S
C522 N521 1.328 . S
C522 C523 1.457 . S
C522 H527 0.929 . S
C523 C522 1.457 . S
C523 C524 1.291 . S
C523 H536 0.931 . S
C524 C523 1.291 . S
C524 C525 1.373 . S
C524 H537 0.929 . S
C525 C524 1.373 . S
C525 C526 1.396 . S
C525 C532 1.403 . S
C526 C516 1.476 . S
C526 N521 1.318 . S
C526 C525 1.396 . S
H527 C522 0.929 . S
O528 Mn504 2.385 . S
O528 C506 1.234 . S
O529 Mn504 2.209 . S
O529 Mn505 2.215 . S
O529 C506 1.283 . S
O530 Mn504 2.094 . S
O530 C508 1.240 . S
O531 Mn505 2.117 . S
O531 C508 1.264 . S
C532 C525 1.403 . S
C532 C533 1.399 . S
C532 H538 0.929 . S
C533 C513 1.449 . S
C533 C532 1.399 . S
C533 H539 0.930 . S
H534 C514 0.931 . S
H535 C515 0.930 . S
H536 C523 0.931 . S
H537 C524 0.929 . S
H538 C532 0.929 . S
H539 C533 0.930 . S
Mn540 O545 2.095 . S
Mn540 O555 2.162 . S
Mn540 O556 2.297 . S
Mn540 O564 2.385 . S
Mn540 O565 2.209 . S
Mn540 O566 2.094 . S
Mn541 O546 2.121 . S
Mn541 N548 2.257 . S
Mn541 N557 2.282 . S
Mn541 O565 2.215 . S
Mn541 O567 2.117 . S
C542 O564 1.234 . S
C542 O565 1.283 . S
C543 O555 1.281 . S
C543 O556 1.236 . S
C544 O566 1.240 . S
C544 O567 1.264 . S
O545 Mn540 2.095 . S
O545 C554 1.250 . S
O546 Mn541 2.121 . S
O546 C554 1.258 . S
C547 N548 1.326 . S
C547 C551 1.460 . S
C547 H553 0.929 . S
N548 Mn541 2.257 . S
N548 C547 1.326 . S
N548 C552 1.362 . S
C549 C550 1.258 . S
C549 C552 1.431 . S
C549 C569 1.449 . S
C550 C549 1.258 . S
C550 C551 1.477 . S
C550 H570 0.931 . S
C551 C547 1.460 . S
C551 C550 1.477 . S
C551 H571 0.930 . S
C552 N548 1.362 . S
C552 C549 1.431 . S
C552 C562 1.476 . S
H553 C547 0.929 . S
C554 O545 1.250 . S
C554 O546 1.258 . S
O555 Mn540 2.162 . S
O555 C543 1.281 . S
O556 Mn540 2.297 . S
O556 C543 1.236 . S
N557 Mn541 2.282 . S
N557 C558 1.328 . S
N557 C562 1.318 . S
C558 N557 1.328 . S
C558 C559 1.457 . S
C558 H563 0.929 . S
C559 C558 1.457 . S
C559 C560 1.291 . S
C559 H572 0.931 . S
C560 C559 1.291 . S
C560 C561 1.373 . S
C560 H573 0.929 . S
C561 C560 1.373 . S
C561 C562 1.396 . S
C561 C568 1.403 . S
C562 C552 1.476 . S
C562 N557 1.318 . S
C562 C561 1.396 . S
H563 C558 0.929 . S
O564 Mn540 2.385 . S
O564 C542 1.234 . S
O565 Mn540 2.209 . S
O565 Mn541 2.215 . S
O565 C542 1.283 . S
O566 Mn540 2.094 . S
O566 C544 1.240 . S
O567 Mn541 2.117 . S
O567 C544 1.264 . S
C568 C561 1.403 . S
C568 C569 1.399 . S
C568 H574 0.929 . S
C569 C549 1.449 . S
C569 C568 1.399 . S
C569 H575 0.930 . S
H570 C550 0.931 . S
H571 C551 0.930 . S
H572 C559 0.931 . S
H573 C560 0.929 . S
H574 C568 0.929 . S
H575 C569 0.930 . S
Mn576 O581 2.095 . S
Mn576 O591 2.162 . S
Mn576 O592 2.297 . S
Mn576 O600 2.385 . S
Mn576 O601 2.209 . S
Mn576 O602 2.094 . S
Mn577 O582 2.121 . S
Mn577 N584 2.257 . S
Mn577 N593 2.282 . S
Mn577 O601 2.215 . S
Mn577 O603 2.117 . S
C578 O600 1.234 . S
C578 O601 1.283 . S
C579 O591 1.281 . S
C579 O592 1.236 . S
C580 O602 1.240 . S
C580 O603 1.264 . S
O581 Mn576 2.095 . S
O581 C590 1.250 . S
O582 Mn577 2.121 . S
O582 C590 1.258 . S
C583 N584 1.326 . S
C583 C587 1.460 . S
C583 H589 0.929 . S
N584 Mn577 2.257 . S
N584 C583 1.326 . S
N584 C588 1.362 . S
C585 C586 1.258 . S
C585 C588 1.431 . S
C585 C605 1.449 . S
C586 C585 1.258 . S
C586 C587 1.477 . S
C586 H606 0.931 . S
C587 C583 1.460 . S
C587 C586 1.477 . S
C587 H607 0.930 . S
C588 N584 1.362 . S
C588 C585 1.431 . S
C588 C598 1.476 . S
H589 C583 0.929 . S
C590 O581 1.250 . S
C590 O582 1.258 . S
O591 Mn576 2.162 . S
O591 C579 1.281 . S
O592 Mn576 2.297 . S
O592 C579 1.236 . S
N593 Mn577 2.282 . S
N593 C594 1.328 . S
N593 C598 1.318 . S
C594 N593 1.328 . S
C594 C595 1.457 . S
C594 H599 0.929 . S
C595 C594 1.457 . S
C595 C596 1.291 . S
C595 H608 0.931 . S
C596 C595 1.291 . S
C596 C597 1.373 . S
C596 H609 0.929 . S
C597 C596 1.373 . S
C597 C598 1.396 . S
C597 C604 1.403 . S
C598 C588 1.476 . S
C598 N593 1.318 . S
C598 C597 1.396 . S
H599 C594 0.929 . S
O600 Mn576 2.385 . S
O600 C578 1.234 . S
O601 Mn576 2.209 . S
O601 Mn577 2.215 . S
O601 C578 1.283 . S
O602 Mn576 2.094 . S
O602 C580 1.240 . S
O603 Mn577 2.117 . S
O603 C580 1.264 . S
C604 C597 1.403 . S
C604 C605 1.399 . S
C604 H610 0.929 . S
C605 C585 1.449 . S
C605 C604 1.399 . S
C605 H611 0.930 . S
H606 C586 0.931 . S
H607 C587 0.930 . S
H608 C595 0.931 . S
H609 C596 0.929 . S
H610 C604 0.929 . S
H611 C605 0.930 . S
Mn612 O617 2.095 . S
Mn612 O627 2.162 1_455 S
Mn612 O628 2.297 . S
Mn612 O636 2.385 . S
Mn612 O637 2.209 . S
Mn612 O638 2.094 . S
Mn613 O618 2.121 . S
Mn613 N620 2.257 . S
Mn613 N629 2.282 . S
Mn613 O637 2.215 . S
Mn613 O639 2.117 . S
C614 O636 1.234 . S
C614 O637 1.283 . S
C615 O627 1.272 1_455 S
C615 O628 1.257 . S
C616 O638 1.240 . S
C616 O639 1.264 . S
O617 Mn612 2.095 . S
O617 C626 1.250 . S
O618 Mn613 2.121 . S
O618 C626 1.258 . S
C619 N620 1.326 . S
C619 C623 1.460 . S
C619 H625 0.929 . S
N620 Mn613 2.257 . S
N620 C619 1.326 . S
N620 C624 1.362 . S
C621 C622 1.258 . S
C621 C624 1.431 . S
C621 C641 1.449 . S
C622 C621 1.258 . S
C622 C623 1.477 . S
C622 H642 0.931 . S
C623 C619 1.460 . S
C623 C622 1.477 . S
C623 H643 0.930 . S
C624 N620 1.362 . S
C624 C621 1.431 . S
C624 C634 1.476 . S
H625 C619 0.929 . S
C626 O617 1.250 . S
C626 O618 1.258 . S
O627 Mn612 2.162 1_655 S
O627 C615 1.272 1_655 S
O628 Mn612 2.297 . S
O628 C615 1.257 . S
N629 Mn613 2.282 . S
N629 C630 1.328 . S
N629 C634 1.318 . S
C630 N629 1.328 . S
C630 C631 1.457 . S
C630 H635 0.929 . S
C631 C630 1.457 . S
C631 C632 1.291 . S
C631 H644 0.931 . S
C632 C631 1.291 . S
C632 C633 1.373 . S
C632 H645 0.929 . S
C633 C632 1.373 . S
C633 C634 1.396 . S
C633 C640 1.403 . S
C634 C624 1.476 . S
C634 N629 1.318 . S
C634 C633 1.396 . S
H635 C630 0.929 . S
O636 Mn612 2.385 . S
O636 C614 1.234 . S
O637 Mn612 2.209 . S
O637 Mn613 2.215 . S
O637 C614 1.283 . S
O638 Mn612 2.094 . S
O638 C616 1.240 . S
O639 Mn613 2.117 . S
O639 C616 1.264 . S
C640 C633 1.403 . S
C640 C641 1.399 . S
C640 H646 0.929 . S
C641 C621 1.449 . S
C641 C640 1.399 . S
C641 H647 0.930 . S
H642 C622 0.931 . S
H643 C623 0.930 . S
H644 C631 0.931 . S
H645 C632 0.929 . S
H646 C640 0.929 . S
H647 C641 0.930 . S
Mn648 O653 2.095 . S
Mn648 O663 2.162 . S
Mn648 O664 2.297 . S
Mn648 O672 2.385 . S
Mn648 O673 2.209 . S
Mn648 O674 2.094 . S
Mn649 O654 2.121 . S
Mn649 N656 2.257 . S
Mn649 N665 2.282 . S
Mn649 O673 2.215 . S
Mn649 O675 2.117 . S
C650 O672 1.234 . S
C650 O673 1.283 . S
C651 O663 1.281 . S
C651 O664 1.236 . S
C652 O674 1.240 . S
C652 O675 1.264 . S
O653 Mn648 2.095 . S
O653 C662 1.250 . S
O654 Mn649 2.121 . S
O654 C662 1.258 . S
C655 N656 1.326 . S
C655 C659 1.460 . S
C655 H661 0.929 . S
N656 Mn649 2.257 . S
N656 C655 1.326 . S
N656 C660 1.362 . S
C657 C658 1.258 . S
C657 C660 1.431 . S
C657 C677 1.449 . S
C658 C657 1.258 . S
C658 C659 1.477 . S
C658 H678 0.931 . S
C659 C655 1.460 . S
C659 C658 1.477 . S
C659 H679 0.930 . S
C660 N656 1.362 . S
C660 C657 1.431 . S
C660 C670 1.476 . S
H661 C655 0.929 . S
C662 O653 1.250 . S
C662 O654 1.258 . S
O663 Mn648 2.162 . S
O663 C651 1.281 . S
O664 Mn648 2.297 . S
O664 C651 1.236 . S
N665 Mn649 2.282 . S
N665 C666 1.328 . S
N665 C670 1.318 . S
C666 N665 1.328 . S
C666 C667 1.457 . S
C666 H671 0.929 . S
C667 C666 1.457 . S
C667 C668 1.291 . S
C667 H680 0.931 . S
C668 C667 1.291 . S
C668 C669 1.373 . S
C668 H681 0.929 . S
C669 C668 1.373 . S
C669 C670 1.396 . S
C669 C676 1.403 . S
C670 C660 1.476 . S
C670 N665 1.318 . S
C670 C669 1.396 . S
H671 C666 0.929 . S
O672 Mn648 2.385 . S
O672 C650 1.234 . S
O673 Mn648 2.209 . S
O673 Mn649 2.215 . S
O673 C650 1.283 . S
O674 Mn648 2.094 . S
O674 C652 1.240 . S
O675 Mn649 2.117 . S
O675 C652 1.264 . S
C676 C669 1.403 . S
C676 C677 1.399 . S
C676 H682 0.929 . S
C677 C657 1.449 . S
C677 C676 1.399 . S
C677 H683 0.930 . S
H678 C658 0.931 . S
H679 C659 0.930 . S
H680 C667 0.931 . S
H681 C668 0.929 . S
H682 C676 0.929 . S
H683 C677 0.930 . S
Mn684 O689 2.095 . S
Mn684 O699 2.162 1_655 S
Mn684 O700 2.297 . S
Mn684 O708 2.385 . S
Mn684 O709 2.209 . S
Mn684 O710 2.094 . S
Mn685 O690 2.121 . S
Mn685 N692 2.257 . S
Mn685 N701 2.282 . S
Mn685 O709 2.215 . S
Mn685 O711 2.117 . S
C686 O708 1.234 . S
C686 O709 1.283 . S
C687 O699 1.272 1_655 S
C687 O700 1.257 . S
C688 O710 1.240 . S
C688 O711 1.264 . S
O689 Mn684 2.095 . S
O689 C698 1.250 . S
O690 Mn685 2.121 . S
O690 C698 1.258 . S
C691 N692 1.326 . S
C691 C695 1.460 . S
C691 H697 0.929 . S
N692 Mn685 2.257 . S
N692 C691 1.326 . S
N692 C696 1.362 . S
C693 C694 1.258 . S
C693 C696 1.431 . S
C693 C713 1.449 . S
C694 C693 1.258 . S
C694 C695 1.477 . S
C694 H714 0.931 . S
C695 C691 1.460 . S
C695 C694 1.477 . S
C695 H715 0.930 . S
C696 N692 1.362 . S
C696 C693 1.431 . S
C696 C706 1.476 . S
H697 C691 0.929 . S
C698 O689 1.250 . S
C698 O690 1.258 . S
O699 Mn684 2.162 1_455 S
O699 C687 1.272 1_455 S
O700 Mn684 2.297 . S
O700 C687 1.257 . S
N701 Mn685 2.282 . S
N701 C702 1.328 . S
N701 C706 1.318 . S
C702 N701 1.328 . S
C702 C703 1.457 . S
C702 H707 0.929 . S
C703 C702 1.457 . S
C703 C704 1.291 . S
C703 H716 0.931 . S
C704 C703 1.291 . S
C704 C705 1.373 . S
C704 H717 0.929 . S
C705 C704 1.373 . S
C705 C706 1.396 . S
C705 C712 1.403 . S
C706 C696 1.476 . S
C706 N701 1.318 . S
C706 C705 1.396 . S
H707 C702 0.929 . S
O708 Mn684 2.385 . S
O708 C686 1.234 . S
O709 Mn684 2.209 . S
O709 Mn685 2.215 . S
O709 C686 1.283 . S
O710 Mn684 2.094 . S
O710 C688 1.240 . S
O711 Mn685 2.117 . S
O711 C688 1.264 . S
C712 C705 1.403 . S
C712 C713 1.399 . S
C712 H718 0.929 . S
C713 C693 1.449 . S
C713 C712 1.399 . S
C713 H719 0.930 . S
H714 C694 0.931 . S
H715 C695 0.930 . S
H716 C703 0.931 . S
H717 C704 0.929 . S
H718 C712 0.929 . S
H719 C713 0.930 . S
Mn720 O725 2.095 . S
Mn720 O735 2.162 . S
Mn720 O736 2.297 . S
Mn720 O744 2.385 . S
Mn720 O745 2.209 . S
Mn720 O746 2.094 . S
Mn721 O726 2.121 . S
Mn721 N728 2.257 . S
Mn721 N737 2.282 . S
Mn721 O745 2.215 . S
Mn721 O747 2.117 . S
C722 O744 1.234 . S
C722 O745 1.283 . S
C723 O735 1.281 . S
C723 O736 1.236 . S
C724 O746 1.240 . S
C724 O747 1.264 . S
O725 Mn720 2.095 . S
O725 C734 1.250 . S
O726 Mn721 2.121 . S
O726 C734 1.258 . S
C727 N728 1.326 . S
C727 C731 1.460 . S
C727 H733 0.929 . S
N728 Mn721 2.257 . S
N728 C727 1.326 . S
N728 C732 1.362 . S
C729 C730 1.258 . S
C729 C732 1.431 . S
C729 C749 1.449 . S
C730 C729 1.258 . S
C730 C731 1.477 . S
C730 H750 0.931 . S
C731 C727 1.460 . S
C731 C730 1.477 . S
C731 H751 0.930 . S
C732 N728 1.362 . S
C732 C729 1.431 . S
C732 C742 1.476 . S
H733 C727 0.929 . S
C734 O725 1.250 . S
C734 O726 1.258 . S
O735 Mn720 2.162 . S
O735 C723 1.281 . S
O736 Mn720 2.297 . S
O736 C723 1.236 . S
N737 Mn721 2.282 . S
N737 C738 1.328 . S
N737 C742 1.318 . S
C738 N737 1.328 . S
C738 C739 1.457 . S
C738 H743 0.929 . S
C739 C738 1.457 . S
C739 C740 1.291 . S
C739 H752 0.931 . S
C740 C739 1.291 . S
C740 C741 1.373 . S
C740 H753 0.929 . S
C741 C740 1.373 . S
C741 C742 1.396 . S
C741 C748 1.403 . S
C742 C732 1.476 . S
C742 N737 1.318 . S
C742 C741 1.396 . S
H743 C738 0.929 . S
O744 Mn720 2.385 . S
O744 C722 1.234 . S
O745 Mn720 2.209 . S
O745 Mn721 2.215 . S
O745 C722 1.283 . S
O746 Mn720 2.094 . S
O746 C724 1.240 . S
O747 Mn721 2.117 . S
O747 C724 1.264 . S
C748 C741 1.403 . S
C748 C749 1.399 . S
C748 H754 0.929 . S
C749 C729 1.449 . S
C749 C748 1.399 . S
C749 H755 0.930 . S
H750 C730 0.931 . S
H751 C731 0.930 . S
H752 C739 0.931 . S
H753 C740 0.929 . S
H754 C748 0.929 . S
H755 C749 0.930 . S
Mn756 O761 2.095 . S
Mn756 O771 2.162 . S
Mn756 O772 2.297 . S
Mn756 O780 2.385 . S
Mn756 O781 2.209 . S
Mn756 O782 2.094 . S
Mn757 O762 2.121 . S
Mn757 N764 2.257 . S
Mn757 N773 2.282 . S
Mn757 O781 2.215 . S
Mn757 O783 2.117 . S
C758 O780 1.234 . S
C758 O781 1.283 . S
C759 O771 1.281 . S
C759 O772 1.236 . S
C760 O782 1.240 . S
C760 O783 1.264 . S
O761 Mn756 2.095 . S
O761 C770 1.250 . S
O762 Mn757 2.121 . S
O762 C770 1.258 . S
C763 N764 1.326 . S
C763 C767 1.460 . S
C763 H769 0.929 . S
N764 Mn757 2.257 . S
N764 C763 1.326 . S
N764 C768 1.362 . S
C765 C766 1.258 . S
C765 C768 1.431 . S
C765 C785 1.449 . S
C766 C765 1.258 . S
C766 C767 1.477 . S
C766 H786 0.931 . S
C767 C763 1.460 . S
C767 C766 1.477 . S
C767 H787 0.930 . S
C768 N764 1.362 . S
C768 C765 1.431 . S
C768 C778 1.476 . S
H769 C763 0.929 . S
C770 O761 1.250 . S
C770 O762 1.258 . S
O771 Mn756 2.162 . S
O771 C759 1.281 . S
O772 Mn756 2.297 . S
O772 C759 1.236 . S
N773 Mn757 2.282 . S
N773 C774 1.328 . S
N773 C778 1.318 . S
C774 N773 1.328 . S
C774 C775 1.457 . S
C774 H779 0.929 . S
C775 C774 1.457 . S
C775 C776 1.291 . S
C775 H788 0.931 . S
C776 C775 1.291 . S
C776 C777 1.373 . S
C776 H789 0.929 . S
C777 C776 1.373 . S
C777 C778 1.396 . S
C777 C784 1.403 . S
C778 C768 1.476 . S
C778 N773 1.318 . S
C778 C777 1.396 . S
H779 C774 0.929 . S
O780 Mn756 2.385 . S
O780 C758 1.234 . S
O781 Mn756 2.209 . S
O781 Mn757 2.215 . S
O781 C758 1.283 . S
O782 Mn756 2.094 . S
O782 C760 1.240 . S
O783 Mn757 2.117 . S
O783 C760 1.264 . S
C784 C777 1.403 . S
C784 C785 1.399 . S
C784 H790 0.929 . S
C785 C765 1.449 . S
C785 C784 1.399 . S
C785 H791 0.930 . S
H786 C766 0.931 . S
H787 C767 0.930 . S
H788 C775 0.931 . S
H789 C776 0.929 . S
H790 C784 0.929 . S
H791 C785 0.930 . S
Mn792 O797 2.095 . S
Mn792 O807 2.162 . S
Mn792 O808 2.297 . S
Mn792 O816 2.385 . S
Mn792 O817 2.209 . S
Mn792 O818 2.094 . S
Mn793 O798 2.121 . S
Mn793 N800 2.257 . S
Mn793 N809 2.282 . S
Mn793 O817 2.215 . S
Mn793 O819 2.117 . S
C794 O816 1.234 . S
C794 O817 1.283 . S
C795 O807 1.281 . S
C795 O808 1.236 . S
C796 O818 1.240 . S
C796 O819 1.264 . S
O797 Mn792 2.095 . S
O797 C806 1.250 . S
O798 Mn793 2.121 . S
O798 C806 1.258 . S
C799 N800 1.326 . S
C799 C803 1.460 . S
C799 H805 0.929 . S
N800 Mn793 2.257 . S
N800 C799 1.326 . S
N800 C804 1.362 . S
C801 C802 1.258 . S
C801 C804 1.431 . S
C801 C821 1.449 . S
C802 C801 1.258 . S
C802 C803 1.477 . S
C802 H822 0.931 . S
C803 C799 1.460 . S
C803 C802 1.477 . S
C803 H823 0.930 . S
C804 N800 1.362 . S
C804 C801 1.431 . S
C804 C814 1.476 . S
H805 C799 0.929 . S
C806 O797 1.250 . S
C806 O798 1.258 . S
O807 Mn792 2.162 . S
O807 C795 1.281 . S
O808 Mn792 2.297 . S
O808 C795 1.236 . S
N809 Mn793 2.282 . S
N809 C810 1.328 . S
N809 C814 1.318 . S
C810 N809 1.328 . S
C810 C811 1.457 . S
C810 H815 0.929 . S
C811 C810 1.457 . S
C811 C812 1.291 . S
C811 H824 0.931 . S
C812 C811 1.291 . S
C812 C813 1.373 . S
C812 H825 0.929 . S
C813 C812 1.373 . S
C813 C814 1.396 . S
C813 C820 1.403 . S
C814 C804 1.476 . S
C814 N809 1.318 . S
C814 C813 1.396 . S
H815 C810 0.929 . S
O816 Mn792 2.385 . S
O816 C794 1.234 . S
O817 Mn792 2.209 . S
O817 Mn793 2.215 . S
O817 C794 1.283 . S
O818 Mn792 2.094 . S
O818 C796 1.240 . S
O819 Mn793 2.117 . S
O819 C796 1.264 . S
C820 C813 1.403 . S
C820 C821 1.399 . S
C820 H826 0.929 . S
C821 C801 1.449 . S
C821 C820 1.399 . S
C821 H827 0.930 . S
H822 C802 0.931 . S
H823 C803 0.930 . S
H824 C811 0.931 . S
H825 C812 0.929 . S
H826 C820 0.929 . S
H827 C821 0.930 . S
Mn828 O833 2.095 . S
Mn828 O843 2.162 . S
Mn828 O844 2.297 . S
Mn828 O852 2.385 . S
Mn828 O853 2.209 . S
Mn828 O854 2.094 . S
Mn829 O834 2.121 . S
Mn829 N836 2.257 . S
Mn829 N845 2.282 . S
Mn829 O853 2.215 . S
Mn829 O855 2.117 . S
C830 O852 1.234 . S
C830 O853 1.283 . S
C831 O843 1.281 . S
C831 O844 1.236 . S
C832 O854 1.240 . S
C832 O855 1.264 . S
O833 Mn828 2.095 . S
O833 C842 1.250 . S
O834 Mn829 2.121 . S
O834 C842 1.258 . S
C835 N836 1.326 . S
C835 C839 1.460 . S
C835 H841 0.929 . S
N836 Mn829 2.257 . S
N836 C835 1.326 . S
N836 C840 1.362 . S
C837 C838 1.258 . S
C837 C840 1.431 . S
C837 C857 1.449 . S
C838 C837 1.258 . S
C838 C839 1.477 . S
C838 H858 0.931 . S
C839 C835 1.460 . S
C839 C838 1.477 . S
C839 H859 0.930 . S
C840 N836 1.362 . S
C840 C837 1.431 . S
C840 C850 1.476 . S
H841 C835 0.929 . S
C842 O833 1.250 . S
C842 O834 1.258 . S
O843 Mn828 2.162 . S
O843 C831 1.281 . S
O844 Mn828 2.297 . S
O844 C831 1.236 . S
N845 Mn829 2.282 . S
N845 C846 1.328 . S
N845 C850 1.318 . S
C846 N845 1.328 . S
C846 C847 1.457 . S
C846 H851 0.929 . S
C847 C846 1.457 . S
C847 C848 1.291 . S
C847 H860 0.931 . S
C848 C847 1.291 . S
C848 C849 1.373 . S
C848 H861 0.929 . S
C849 C848 1.373 . S
C849 C850 1.396 . S
C849 C856 1.403 . S
C850 C840 1.476 . S
C850 N845 1.318 . S
C850 C849 1.396 . S
H851 C846 0.929 . S
O852 Mn828 2.385 . S
O852 C830 1.234 . S
O853 Mn828 2.209 . S
O853 Mn829 2.215 . S
O853 C830 1.283 . S
O854 Mn828 2.094 . S
O854 C832 1.240 . S
O855 Mn829 2.117 . S
O855 C832 1.264 . S
C856 C849 1.403 . S
C856 C857 1.399 . S
C856 H862 0.929 . S
C857 C837 1.449 . S
C857 C856 1.399 . S
C857 H863 0.930 . S
H858 C838 0.931 . S
H859 C839 0.930 . S
H860 C847 0.931 . S
H861 C848 0.929 . S
H862 C856 0.929 . S
H863 C857 0.930 . S
Mn864 O869 2.095 . S
Mn864 O879 2.162 1_545 S
Mn864 O880 2.297 . S
Mn864 O888 2.385 . S
Mn864 O889 2.209 . S
Mn864 O890 2.094 . S
Mn865 O870 2.121 . S
Mn865 N872 2.257 . S
Mn865 N881 2.282 . S
Mn865 O889 2.215 . S
Mn865 O891 2.117 . S
C866 O888 1.234 . S
C866 O889 1.283 . S
C867 O879 1.272 1_545 S
C867 O880 1.257 . S
C868 O890 1.240 . S
C868 O891 1.264 . S
O869 Mn864 2.095 . S
O869 C878 1.250 . S
O870 Mn865 2.121 . S
O870 C878 1.258 . S
C871 N872 1.326 . S
C871 C875 1.460 . S
C871 H877 0.929 . S
N872 Mn865 2.257 . S
N872 C871 1.326 . S
N872 C876 1.362 . S
C873 C874 1.258 . S
C873 C876 1.431 . S
C873 C893 1.449 . S
C874 C873 1.258 . S
C874 C875 1.477 . S
C874 H894 0.931 . S
C875 C871 1.460 . S
C875 C874 1.477 . S
C875 H895 0.930 . S
C876 N872 1.362 . S
C876 C873 1.431 . S
C876 C886 1.476 . S
H877 C871 0.929 . S
C878 O869 1.250 . S
C878 O870 1.258 . S
O879 Mn864 2.162 1_565 S
O879 C867 1.272 1_565 S
O880 Mn864 2.297 . S
O880 C867 1.257 . S
N881 Mn865 2.282 . S
N881 C882 1.328 . S
N881 C886 1.318 . S
C882 N881 1.328 . S
C882 C883 1.457 . S
C882 H887 0.929 . S
C883 C882 1.457 . S
C883 C884 1.291 . S
C883 H896 0.931 . S
C884 C883 1.291 . S
C884 C885 1.373 . S
C884 H897 0.929 . S
C885 C884 1.373 . S
C885 C886 1.396 . S
C885 C892 1.403 . S
C886 C876 1.476 . S
C886 N881 1.318 . S
C886 C885 1.396 . S
H887 C882 0.929 . S
O888 Mn864 2.385 . S
O888 C866 1.234 . S
O889 Mn864 2.209 . S
O889 Mn865 2.215 . S
O889 C866 1.283 . S
O890 Mn864 2.094 . S
O890 C868 1.240 . S
O891 Mn865 2.117 . S
O891 C868 1.264 . S
C892 C885 1.403 . S
C892 C893 1.399 . S
C892 H898 0.929 . S
C893 C873 1.449 . S
C893 C892 1.399 . S
C893 H899 0.930 . S
H894 C874 0.931 . S
H895 C875 0.930 . S
H896 C883 0.931 . S
H897 C884 0.929 . S
H898 C892 0.929 . S
H899 C893 0.930 . S
Mn900 O905 2.095 . S
Mn900 O915 2.162 . S
Mn900 O916 2.297 . S
Mn900 O924 2.385 . S
Mn900 O925 2.209 . S
Mn900 O926 2.094 . S
Mn901 O906 2.121 . S
Mn901 N908 2.257 . S
Mn901 N917 2.282 . S
Mn901 O925 2.215 . S
Mn901 O927 2.117 . S
C902 O924 1.234 . S
C902 O925 1.283 . S
C903 O915 1.281 . S
C903 O916 1.236 . S
C904 O926 1.240 . S
C904 O927 1.264 . S
O905 Mn900 2.095 . S
O905 C914 1.250 . S
O906 Mn901 2.121 . S
O906 C914 1.258 . S
C907 N908 1.326 . S
C907 C911 1.460 . S
C907 H913 0.929 . S
N908 Mn901 2.257 . S
N908 C907 1.326 . S
N908 C912 1.362 . S
C909 C910 1.258 . S
C909 C912 1.431 . S
C909 C929 1.449 . S
C910 C909 1.258 . S
C910 C911 1.477 . S
C910 H930 0.931 . S
C911 C907 1.460 . S
C911 C910 1.477 . S
C911 H931 0.930 . S
C912 N908 1.362 . S
C912 C909 1.431 . S
C912 C922 1.476 . S
H913 C907 0.929 . S
C914 O905 1.250 . S
C914 O906 1.258 . S
O915 Mn900 2.162 . S
O915 C903 1.281 . S
O916 Mn900 2.297 . S
O916 C903 1.236 . S
N917 Mn901 2.282 . S
N917 C918 1.328 . S
N917 C922 1.318 . S
C918 N917 1.328 . S
C918 C919 1.457 . S
C918 H923 0.929 . S
C919 C918 1.457 . S
C919 C920 1.291 . S
C919 H932 0.931 . S
C920 C919 1.291 . S
C920 C921 1.373 . S
C920 H933 0.929 . S
C921 C920 1.373 . S
C921 C922 1.396 . S
C921 C928 1.403 . S
C922 C912 1.476 . S
C922 N917 1.318 . S
C922 C921 1.396 . S
H923 C918 0.929 . S
O924 Mn900 2.385 . S
O924 C902 1.234 . S
O925 Mn900 2.209 . S
O925 Mn901 2.215 . S
O925 C902 1.283 . S
O926 Mn900 2.094 . S
O926 C904 1.240 . S
O927 Mn901 2.117 . S
O927 C904 1.264 . S
C928 C921 1.403 . S
C928 C929 1.399 . S
C928 H934 0.929 . S
C929 C909 1.449 . S
C929 C928 1.399 . S
C929 H935 0.930 . S
H930 C910 0.931 . S
H931 C911 0.930 . S
H932 C919 0.931 . S
H933 C920 0.929 . S
H934 C928 0.929 . S
H935 C929 0.930 . S
Mn936 O941 2.095 . S
Mn936 O951 2.162 . S
Mn936 O952 2.297 . S
Mn936 O960 2.385 . S
Mn936 O961 2.209 . S
Mn936 O962 2.094 . S
Mn937 O942 2.121 . S
Mn937 N944 2.257 . S
Mn937 N953 2.282 . S
Mn937 O961 2.215 . S
Mn937 O963 2.117 . S
C938 O960 1.234 . S
C938 O961 1.283 . S
C939 O951 1.281 . S
C939 O952 1.236 . S
C940 O962 1.240 . S
C940 O963 1.264 . S
O941 Mn936 2.095 . S
O941 C950 1.250 . S
O942 Mn937 2.121 . S
O942 C950 1.258 . S
C943 N944 1.326 . S
C943 C947 1.460 . S
C943 H949 0.929 . S
N944 Mn937 2.257 . S
N944 C943 1.326 . S
N944 C948 1.362 . S
C945 C946 1.258 . S
C945 C948 1.431 . S
C945 C965 1.449 . S
C946 C945 1.258 . S
C946 C947 1.477 . S
C946 H966 0.931 . S
C947 C943 1.460 . S
C947 C946 1.477 . S
C947 H967 0.930 . S
C948 N944 1.362 . S
C948 C945 1.431 . S
C948 C958 1.476 . S
H949 C943 0.929 . S
C950 O941 1.250 . S
C950 O942 1.258 . S
O951 Mn936 2.162 . S
O951 C939 1.281 . S
O952 Mn936 2.297 . S
O952 C939 1.236 . S
N953 Mn937 2.282 . S
N953 C954 1.328 . S
N953 C958 1.318 . S
C954 N953 1.328 . S
C954 C955 1.457 . S
C954 H959 0.929 . S
C955 C954 1.457 . S
C955 C956 1.291 . S
C955 H968 0.931 . S
C956 C955 1.291 . S
C956 C957 1.373 . S
C956 H969 0.929 . S
C957 C956 1.373 . S
C957 C958 1.396 . S
C957 C964 1.403 . S
C958 C948 1.476 . S
C958 N953 1.318 . S
C958 C957 1.396 . S
H959 C954 0.929 . S
O960 Mn936 2.385 . S
O960 C938 1.234 . S
O961 Mn936 2.209 . S
O961 Mn937 2.215 . S
O961 C938 1.283 . S
O962 Mn936 2.094 . S
O962 C940 1.240 . S
O963 Mn937 2.117 . S
O963 C940 1.264 . S
C964 C957 1.403 . S
C964 C965 1.399 . S
C964 H970 0.929 . S
C965 C945 1.449 . S
C965 C964 1.399 . S
C965 H971 0.930 . S
H966 C946 0.931 . S
H967 C947 0.930 . S
H968 C955 0.931 . S
H969 C956 0.929 . S
H970 C964 0.929 . S
H971 C965 0.930 . S
Mn972 O977 2.095 . S
Mn972 O987 2.162 . S
Mn972 O988 2.297 . S
Mn972 O996 2.385 . S
Mn972 O997 2.209 . S
Mn972 O998 2.094 . S
Mn973 O978 2.121 . S
Mn973 N980 2.257 . S
Mn973 N989 2.282 . S
Mn973 O997 2.215 . S
Mn973 O999 2.117 . S
C974 O996 1.234 . S
C974 O997 1.283 . S
C975 O987 1.281 . S
C975 O988 1.236 . S
C976 O998 1.240 . S
C976 O999 1.264 . S
O977 Mn972 2.095 . S
O977 C986 1.250 . S
O978 Mn973 2.121 . S
O978 C986 1.258 . S
C979 N980 1.326 . S
C979 C983 1.460 . S
C979 H985 0.929 . S
N980 Mn973 2.257 . S
N980 C979 1.326 . S
N980 C984 1.362 . S
C981 C982 1.258 . S
C981 C984 1.431 . S
C981 C1001 1.449 . S
C982 C981 1.258 . S
C982 C983 1.477 . S
C982 H1002 0.931 . S
C983 C979 1.460 . S
C983 C982 1.477 . S
C983 H1003 0.930 . S
C984 N980 1.362 . S
C984 C981 1.431 . S
C984 C994 1.476 . S
H985 C979 0.929 . S
C986 O977 1.250 . S
C986 O978 1.258 . S
O987 Mn972 2.162 . S
O987 C975 1.281 . S
O988 Mn972 2.297 . S
O988 C975 1.236 . S
N989 Mn973 2.282 . S
N989 C990 1.328 . S
N989 C994 1.318 . S
C990 N989 1.328 . S
C990 C991 1.457 . S
C990 H995 0.929 . S
C991 C990 1.457 . S
C991 C992 1.291 . S
C991 H1004 0.931 . S
C992 C991 1.291 . S
C992 C993 1.373 . S
C992 H1005 0.929 . S
C993 C992 1.373 . S
C993 C994 1.396 . S
C993 C1000 1.403 . S
C994 C984 1.476 . S
C994 N989 1.318 . S
C994 C993 1.396 . S
H995 C990 0.929 . S
O996 Mn972 2.385 . S
O996 C974 1.234 . S
O997 Mn972 2.209 . S
O997 Mn973 2.215 . S
O997 C974 1.283 . S
O998 Mn972 2.094 . S
O998 C976 1.240 . S
O999 Mn973 2.117 . S
O999 C976 1.264 . S
C1000 C993 1.403 . S
C1000 C1001 1.399 . S
C1000 H1006 0.929 . S
C1001 C981 1.449 . S
C1001 C1000 1.399 . S
C1001 H1007 0.930 . S
H1002 C982 0.931 . S
H1003 C983 0.930 . S
H1004 C991 0.931 . S
H1005 C992 0.929 . S
H1006 C1000 0.929 . S
H1007 C1001 0.930 . S
Mn1008 O1013 2.095 . S
Mn1008 O1023 2.162 1_565 S
Mn1008 O1024 2.297 . S
Mn1008 O1032 2.385 . S
Mn1008 O1033 2.209 . S
Mn1008 O1034 2.094 . S
Mn1009 O1014 2.121 . S
Mn1009 N1016 2.257 . S
Mn1009 N1025 2.282 . S
Mn1009 O1033 2.215 . S
Mn1009 O1035 2.117 . S
C1010 O1032 1.234 . S
C1010 O1033 1.283 . S
C1011 O1023 1.272 1_565 S
C1011 O1024 1.257 . S
C1012 O1034 1.240 . S
C1012 O1035 1.264 . S
O1013 Mn1008 2.095 . S
O1013 C1022 1.250 . S
O1014 Mn1009 2.121 . S
O1014 C1022 1.258 . S
C1015 N1016 1.326 . S
C1015 C1019 1.460 . S
C1015 H1021 0.929 . S
N1016 Mn1009 2.257 . S
N1016 C1015 1.326 . S
N1016 C1020 1.362 . S
C1017 C1018 1.258 . S
C1017 C1020 1.431 . S
C1017 C1037 1.449 . S
C1018 C1017 1.258 . S
C1018 C1019 1.477 . S
C1018 H1038 0.931 . S
C1019 C1015 1.460 . S
C1019 C1018 1.477 . S
C1019 H1039 0.930 . S
C1020 N1016 1.362 . S
C1020 C1017 1.431 . S
C1020 C1030 1.476 . S
H1021 C1015 0.929 . S
C1022 O1013 1.250 . S
C1022 O1014 1.258 . S
O1023 Mn1008 2.162 1_545 S
O1023 C1011 1.272 1_545 S
O1024 Mn1008 2.297 . S
O1024 C1011 1.257 . S
N1025 Mn1009 2.282 . S
N1025 C1026 1.328 . S
N1025 C1030 1.318 . S
C1026 N1025 1.328 . S
C1026 C1027 1.457 . S
C1026 H1031 0.929 . S
C1027 C1026 1.457 . S
C1027 C1028 1.291 . S
C1027 H1040 0.931 . S
C1028 C1027 1.291 . S
C1028 C1029 1.373 . S
C1028 H1041 0.929 . S
C1029 C1028 1.373 . S
C1029 C1030 1.396 . S
C1029 C1036 1.403 . S
C1030 C1020 1.476 . S
C1030 N1025 1.318 . S
C1030 C1029 1.396 . S
H1031 C1026 0.929 . S
O1032 Mn1008 2.385 . S
O1032 C1010 1.234 . S
O1033 Mn1008 2.209 . S
O1033 Mn1009 2.215 . S
O1033 C1010 1.283 . S
O1034 Mn1008 2.094 . S
O1034 C1012 1.240 . S
O1035 Mn1009 2.117 . S
O1035 C1012 1.264 . S
C1036 C1029 1.403 . S
C1036 C1037 1.399 . S
C1036 H1042 0.929 . S
C1037 C1017 1.449 . S
C1037 C1036 1.399 . S
C1037 H1043 0.930 . S
H1038 C1018 0.931 . S
H1039 C1019 0.930 . S
H1040 C1027 0.931 . S
H1041 C1028 0.929 . S
H1042 C1036 0.929 . S
H1043 C1037 0.930 . S
Mn1044 O1049 2.095 . S
Mn1044 O1059 2.162 . S
Mn1044 O1060 2.297 . S
Mn1044 O1068 2.385 . S
Mn1044 O1069 2.209 . S
Mn1044 O1070 2.094 . S
Mn1045 O1050 2.121 . S
Mn1045 N1052 2.257 . S
Mn1045 N1061 2.282 . S
Mn1045 O1069 2.215 . S
Mn1045 O1071 2.117 . S
C1046 O1068 1.234 . S
C1046 O1069 1.283 . S
C1047 O1059 1.281 . S
C1047 O1060 1.236 . S
C1048 O1070 1.240 . S
C1048 O1071 1.264 . S
O1049 Mn1044 2.095 . S
O1049 C1058 1.250 . S
O1050 Mn1045 2.121 . S
O1050 C1058 1.258 . S
C1051 N1052 1.326 . S
C1051 C1055 1.460 . S
C1051 H1057 0.929 . S
N1052 Mn1045 2.257 . S
N1052 C1051 1.326 . S
N1052 C1056 1.362 . S
C1053 C1054 1.258 . S
C1053 C1056 1.431 . S
C1053 C1073 1.449 . S
C1054 C1053 1.258 . S
C1054 C1055 1.477 . S
C1054 H1074 0.931 . S
C1055 C1051 1.460 . S
C1055 C1054 1.477 . S
C1055 H1075 0.930 . S
C1056 N1052 1.362 . S
C1056 C1053 1.431 . S
C1056 C1066 1.476 . S
H1057 C1051 0.929 . S
C1058 O1049 1.250 . S
C1058 O1050 1.258 . S
O1059 Mn1044 2.162 . S
O1059 C1047 1.281 . S
O1060 Mn1044 2.297 . S
O1060 C1047 1.236 . S
N1061 Mn1045 2.282 . S
N1061 C1062 1.328 . S
N1061 C1066 1.318 . S
C1062 N1061 1.328 . S
C1062 C1063 1.457 . S
C1062 H1067 0.929 . S
C1063 C1062 1.457 . S
C1063 C1064 1.291 . S
C1063 H1076 0.931 . S
C1064 C1063 1.291 . S
C1064 C1065 1.373 . S
C1064 H1077 0.929 . S
C1065 C1064 1.373 . S
C1065 C1066 1.396 . S
C1065 C1072 1.403 . S
C1066 C1056 1.476 . S
C1066 N1061 1.318 . S
C1066 C1065 1.396 . S
H1067 C1062 0.929 . S
O1068 Mn1044 2.385 . S
O1068 C1046 1.234 . S
O1069 Mn1044 2.209 . S
O1069 Mn1045 2.215 . S
O1069 C1046 1.283 . S
O1070 Mn1044 2.094 . S
O1070 C1048 1.240 . S
O1071 Mn1045 2.117 . S
O1071 C1048 1.264 . S
C1072 C1065 1.403 . S
C1072 C1073 1.399 . S
C1072 H1078 0.929 . S
C1073 C1053 1.449 . S
C1073 C1072 1.399 . S
C1073 H1079 0.930 . S
H1074 C1054 0.931 . S
H1075 C1055 0.930 . S
H1076 C1063 0.931 . S
H1077 C1064 0.929 . S
H1078 C1072 0.929 . S
H1079 C1073 0.930 . S
Mn1080 O1085 2.095 . S
Mn1080 O1095 2.162 . S
Mn1080 O1096 2.297 . S
Mn1080 O1104 2.385 . S
Mn1080 O1105 2.209 . S
Mn1080 O1106 2.094 . S
Mn1081 O1086 2.121 . S
Mn1081 N1088 2.257 . S
Mn1081 N1097 2.282 . S
Mn1081 O1105 2.215 . S
Mn1081 O1107 2.117 . S
C1082 O1104 1.234 . S
C1082 O1105 1.283 . S
C1083 O1095 1.281 . S
C1083 O1096 1.236 . S
C1084 O1106 1.240 . S
C1084 O1107 1.264 . S
O1085 Mn1080 2.095 . S
O1085 C1094 1.250 . S
O1086 Mn1081 2.121 . S
O1086 C1094 1.258 . S
C1087 N1088 1.326 . S
C1087 C1091 1.460 . S
C1087 H1093 0.929 . S
N1088 Mn1081 2.257 . S
N1088 C1087 1.326 . S
N1088 C1092 1.362 . S
C1089 C1090 1.258 . S
C1089 C1092 1.431 . S
C1089 C1109 1.449 . S
C1090 C1089 1.258 . S
C1090 C1091 1.477 . S
C1090 H1110 0.931 . S
C1091 C1087 1.460 . S
C1091 C1090 1.477 . S
C1091 H1111 0.930 . S
C1092 N1088 1.362 . S
C1092 C1089 1.431 . S
C1092 C1102 1.476 . S
H1093 C1087 0.929 . S
C1094 O1085 1.250 . S
C1094 O1086 1.258 . S
O1095 Mn1080 2.162 . S
O1095 C1083 1.281 . S
O1096 Mn1080 2.297 . S
O1096 C1083 1.236 . S
N1097 Mn1081 2.282 . S
N1097 C1098 1.328 . S
N1097 C1102 1.318 . S
C1098 N1097 1.328 . S
C1098 C1099 1.457 . S
C1098 H1103 0.929 . S
C1099 C1098 1.457 . S
C1099 C1100 1.291 . S
C1099 H1112 0.931 . S
C1100 C1099 1.291 . S
C1100 C1101 1.373 . S
C1100 H1113 0.929 . S
C1101 C1100 1.373 . S
C1101 C1102 1.396 . S
C1101 C1108 1.403 . S
C1102 C1092 1.476 . S
C1102 N1097 1.318 . S
C1102 C1101 1.396 . S
H1103 C1098 0.929 . S
O1104 Mn1080 2.385 . S
O1104 C1082 1.234 . S
O1105 Mn1080 2.209 . S
O1105 Mn1081 2.215 . S
O1105 C1082 1.283 . S
O1106 Mn1080 2.094 . S
O1106 C1084 1.240 . S
O1107 Mn1081 2.117 . S
O1107 C1084 1.264 . S
C1108 C1101 1.403 . S
C1108 C1109 1.399 . S
C1108 H1114 0.929 . S
C1109 C1089 1.449 . S
C1109 C1108 1.399 . S
C1109 H1115 0.930 . S
H1110 C1090 0.931 . S
H1111 C1091 0.930 . S
H1112 C1099 0.931 . S
H1113 C1100 0.929 . S
H1114 C1108 0.929 . S
H1115 C1109 0.930 . S
Mn1116 O1121 2.095 . S
Mn1116 O1131 2.162 . S
Mn1116 O1132 2.297 . S
Mn1116 O1140 2.385 . S
Mn1116 O1141 2.209 . S
Mn1116 O1142 2.094 . S
Mn1117 O1122 2.121 . S
Mn1117 N1124 2.257 . S
Mn1117 N1133 2.282 . S
Mn1117 O1141 2.215 . S
Mn1117 O1143 2.117 . S
C1118 O1140 1.234 . S
C1118 O1141 1.283 . S
C1119 O1131 1.281 . S
C1119 O1132 1.236 . S
C1120 O1142 1.240 . S
C1120 O1143 1.264 . S
O1121 Mn1116 2.095 . S
O1121 C1130 1.250 . S
O1122 Mn1117 2.121 . S
O1122 C1130 1.258 . S
C1123 N1124 1.326 . S
C1123 C1127 1.460 . S
C1123 H1129 0.929 . S
N1124 Mn1117 2.257 . S
N1124 C1123 1.326 . S
N1124 C1128 1.362 . S
C1125 C1126 1.258 . S
C1125 C1128 1.431 . S
C1125 C1145 1.449 . S
C1126 C1125 1.258 . S
C1126 C1127 1.477 . S
C1126 H1146 0.931 . S
C1127 C1123 1.460 . S
C1127 C1126 1.477 . S
C1127 H1147 0.930 . S
C1128 N1124 1.362 . S
C1128 C1125 1.431 . S
C1128 C1138 1.476 . S
H1129 C1123 0.929 . S
C1130 O1121 1.250 . S
C1130 O1122 1.258 . S
O1131 Mn1116 2.162 . S
O1131 C1119 1.281 . S
O1132 Mn1116 2.297 . S
O1132 C1119 1.236 . S
N1133 Mn1117 2.282 . S
N1133 C1134 1.328 . S
N1133 C1138 1.318 . S
C1134 N1133 1.328 . S
C1134 C1135 1.457 . S
C1134 H1139 0.929 . S
C1135 C1134 1.457 . S
C1135 C1136 1.291 . S
C1135 H1148 0.931 . S
C1136 C1135 1.291 . S
C1136 C1137 1.373 . S
C1136 H1149 0.929 . S
C1137 C1136 1.373 . S
C1137 C1138 1.396 . S
C1137 C1144 1.403 . S
C1138 C1128 1.476 . S
C1138 N1133 1.318 . S
C1138 C1137 1.396 . S
H1139 C1134 0.929 . S
O1140 Mn1116 2.385 . S
O1140 C1118 1.234 . S
O1141 Mn1116 2.209 . S
O1141 Mn1117 2.215 . S
O1141 C1118 1.283 . S
O1142 Mn1116 2.094 . S
O1142 C1120 1.240 . S
O1143 Mn1117 2.117 . S
O1143 C1120 1.264 . S
C1144 C1137 1.403 . S
C1144 C1145 1.399 . S
C1144 H1150 0.929 . S
C1145 C1125 1.449 . S
C1145 C1144 1.399 . S
C1145 H1151 0.930 . S
H1146 C1126 0.931 . S
H1147 C1127 0.930 . S
H1148 C1135 0.931 . S
H1149 C1136 0.929 . S
H1150 C1144 0.929 . S
H1151 C1145 0.930 . S
Mn1152 O1157 2.095 . S
Mn1152 O1167 2.162 1_554 S
Mn1152 O1168 2.297 . S
Mn1152 O1176 2.385 . S
Mn1152 O1177 2.209 . S
Mn1152 O1178 2.094 . S
Mn1153 O1158 2.121 . S
Mn1153 N1160 2.257 . S
Mn1153 N1169 2.282 . S
Mn1153 O1177 2.215 . S
Mn1153 O1179 2.117 . S
C1154 O1176 1.234 . S
C1154 O1177 1.283 . S
C1155 O1167 1.272 1_554 S
C1155 O1168 1.257 . S
C1156 O1178 1.240 . S
C1156 O1179 1.264 . S
O1157 Mn1152 2.095 . S
O1157 C1166 1.250 . S
O1158 Mn1153 2.121 . S
O1158 C1166 1.258 . S
C1159 N1160 1.326 . S
C1159 C1163 1.460 . S
C1159 H1165 0.929 . S
N1160 Mn1153 2.257 . S
N1160 C1159 1.326 . S
N1160 C1164 1.362 . S
C1161 C1162 1.258 . S
C1161 C1164 1.431 . S
C1161 C1181 1.449 . S
C1162 C1161 1.258 . S
C1162 C1163 1.477 . S
C1162 H1182 0.931 . S
C1163 C1159 1.460 . S
C1163 C1162 1.477 . S
C1163 H1183 0.930 . S
C1164 N1160 1.362 . S
C1164 C1161 1.431 . S
C1164 C1174 1.476 . S
H1165 C1159 0.929 . S
C1166 O1157 1.250 . S
C1166 O1158 1.258 . S
O1167 Mn1152 2.162 1_556 S
O1167 C1155 1.272 1_556 S
O1168 Mn1152 2.297 . S
O1168 C1155 1.257 . S
N1169 Mn1153 2.282 . S
N1169 C1170 1.328 . S
N1169 C1174 1.318 . S
C1170 N1169 1.328 . S
C1170 C1171 1.457 . S
C1170 H1175 0.929 . S
C1171 C1170 1.457 . S
C1171 C1172 1.291 . S
C1171 H1184 0.931 . S
C1172 C1171 1.291 . S
C1172 C1173 1.373 . S
C1172 H1185 0.929 . S
C1173 C1172 1.373 . S
C1173 C1174 1.396 . S
C1173 C1180 1.403 . S
C1174 C1164 1.476 . S
C1174 N1169 1.318 . S
C1174 C1173 1.396 . S
H1175 C1170 0.929 . S
O1176 Mn1152 2.385 . S
O1176 C1154 1.234 . S
O1177 Mn1152 2.209 . S
O1177 Mn1153 2.215 . S
O1177 C1154 1.283 . S
O1178 Mn1152 2.094 . S
O1178 C1156 1.240 . S
O1179 Mn1153 2.117 . S
O1179 C1156 1.264 . S
C1180 C1173 1.403 . S
C1180 C1181 1.399 . S
C1180 H1186 0.929 . S
C1181 C1161 1.449 . S
C1181 C1180 1.399 . S
C1181 H1187 0.930 . S
H1182 C1162 0.931 . S
H1183 C1163 0.930 . S
H1184 C1171 0.931 . S
H1185 C1172 0.929 . S
H1186 C1180 0.929 . S
H1187 C1181 0.930 . S
Mn1188 O1193 2.095 . S
Mn1188 O1203 2.162 . S
Mn1188 O1204 2.297 . S
Mn1188 O1212 2.385 . S
Mn1188 O1213 2.209 . S
Mn1188 O1214 2.094 . S
Mn1189 O1194 2.121 . S
Mn1189 N1196 2.257 . S
Mn1189 N1205 2.282 . S
Mn1189 O1213 2.215 . S
Mn1189 O1215 2.117 . S
C1190 O1212 1.234 . S
C1190 O1213 1.283 . S
C1191 O1203 1.281 . S
C1191 O1204 1.236 . S
C1192 O1214 1.240 . S
C1192 O1215 1.264 . S
O1193 Mn1188 2.095 . S
O1193 C1202 1.250 . S
O1194 Mn1189 2.121 . S
O1194 C1202 1.258 . S
C1195 N1196 1.326 . S
C1195 C1199 1.460 . S
C1195 H1201 0.929 . S
N1196 Mn1189 2.257 . S
N1196 C1195 1.326 . S
N1196 C1200 1.362 . S
C1197 C1198 1.258 . S
C1197 C1200 1.431 . S
C1197 C1217 1.449 . S
C1198 C1197 1.258 . S
C1198 C1199 1.477 . S
C1198 H1218 0.931 . S
C1199 C1195 1.460 . S
C1199 C1198 1.477 . S
C1199 H1219 0.930 . S
C1200 N1196 1.362 . S
C1200 C1197 1.431 . S
C1200 C1210 1.476 . S
H1201 C1195 0.929 . S
C1202 O1193 1.250 . S
C1202 O1194 1.258 . S
O1203 Mn1188 2.162 . S
O1203 C1191 1.281 . S
O1204 Mn1188 2.297 . S
O1204 C1191 1.236 . S
N1205 Mn1189 2.282 . S
N1205 C1206 1.328 . S
N1205 C1210 1.318 . S
C1206 N1205 1.328 . S
C1206 C1207 1.457 . S
C1206 H1211 0.929 . S
C1207 C1206 1.457 . S
C1207 C1208 1.291 . S
C1207 H1220 0.931 . S
C1208 C1207 1.291 . S
C1208 C1209 1.373 . S
C1208 H1221 0.929 . S
C1209 C1208 1.373 . S
C1209 C1210 1.396 . S
C1209 C1216 1.403 . S
C1210 C1200 1.476 . S
C1210 N1205 1.318 . S
C1210 C1209 1.396 . S
H1211 C1206 0.929 . S
O1212 Mn1188 2.385 . S
O1212 C1190 1.234 . S
O1213 Mn1188 2.209 . S
O1213 Mn1189 2.215 . S
O1213 C1190 1.283 . S
O1214 Mn1188 2.094 . S
O1214 C1192 1.240 . S
O1215 Mn1189 2.117 . S
O1215 C1192 1.264 . S
C1216 C1209 1.403 . S
C1216 C1217 1.399 . S
C1216 H1222 0.929 . S
C1217 C1197 1.449 . S
C1217 C1216 1.399 . S
C1217 H1223 0.930 . S
H1218 C1198 0.931 . S
H1219 C1199 0.930 . S
H1220 C1207 0.931 . S
H1221 C1208 0.929 . S
H1222 C1216 0.929 . S
H1223 C1217 0.930 . S
Mn1224 O1229 2.095 . S
Mn1224 O1239 2.162 . S
Mn1224 O1240 2.297 . S
Mn1224 O1248 2.385 . S
Mn1224 O1249 2.209 . S
Mn1224 O1250 2.094 . S
Mn1225 O1230 2.121 . S
Mn1225 N1232 2.257 . S
Mn1225 N1241 2.282 . S
Mn1225 O1249 2.215 . S
Mn1225 O1251 2.117 . S
C1226 O1248 1.234 . S
C1226 O1249 1.283 . S
C1227 O1239 1.281 . S
C1227 O1240 1.236 . S
C1228 O1250 1.240 . S
C1228 O1251 1.264 . S
O1229 Mn1224 2.095 . S
O1229 C1238 1.250 . S
O1230 Mn1225 2.121 . S
O1230 C1238 1.258 . S
C1231 N1232 1.326 . S
C1231 C1235 1.460 . S
C1231 H1237 0.929 . S
N1232 Mn1225 2.257 . S
N1232 C1231 1.326 . S
N1232 C1236 1.362 . S
C1233 C1234 1.258 . S
C1233 C1236 1.431 . S
C1233 C1253 1.449 . S
C1234 C1233 1.258 . S
C1234 C1235 1.477 . S
C1234 H1254 0.931 . S
C1235 C1231 1.460 . S
C1235 C1234 1.477 . S
C1235 H1255 0.930 . S
C1236 N1232 1.362 . S
C1236 C1233 1.431 . S
C1236 C1246 1.476 . S
H1237 C1231 0.929 . S
C1238 O1229 1.250 . S
C1238 O1230 1.258 . S
O1239 Mn1224 2.162 . S
O1239 C1227 1.281 . S
O1240 Mn1224 2.297 . S
O1240 C1227 1.236 . S
N1241 Mn1225 2.282 . S
N1241 C1242 1.328 . S
N1241 C1246 1.318 . S
C1242 N1241 1.328 . S
C1242 C1243 1.457 . S
C1242 H1247 0.929 . S
C1243 C1242 1.457 . S
C1243 C1244 1.291 . S
C1243 H1256 0.931 . S
C1244 C1243 1.291 . S
C1244 C1245 1.373 . S
C1244 H1257 0.929 . S
C1245 C1244 1.373 . S
C1245 C1246 1.396 . S
C1245 C1252 1.403 . S
C1246 C1236 1.476 . S
C1246 N1241 1.318 . S
C1246 C1245 1.396 . S
H1247 C1242 0.929 . S
O1248 Mn1224 2.385 . S
O1248 C1226 1.234 . S
O1249 Mn1224 2.209 . S
O1249 Mn1225 2.215 . S
O1249 C1226 1.283 . S
O1250 Mn1224 2.094 . S
O1250 C1228 1.240 . S
O1251 Mn1225 2.117 . S
O1251 C1228 1.264 . S
C1252 C1245 1.403 . S
C1252 C1253 1.399 . S
C1252 H1258 0.929 . S
C1253 C1233 1.449 . S
C1253 C1252 1.399 . S
C1253 H1259 0.930 . S
H1254 C1234 0.931 . S
H1255 C1235 0.930 . S
H1256 C1243 0.931 . S
H1257 C1244 0.929 . S
H1258 C1252 0.929 . S
H1259 C1253 0.930 . S
Mn1260 O1265 2.095 . S
Mn1260 O1275 2.162 . S
Mn1260 O1276 2.297 . S
Mn1260 O1284 2.385 . S
Mn1260 O1285 2.209 . S
Mn1260 O1286 2.094 . S
Mn1261 O1266 2.121 . S
Mn1261 N1268 2.257 . S
Mn1261 N1277 2.282 . S
Mn1261 O1285 2.215 . S
Mn1261 O1287 2.117 . S
C1262 O1284 1.234 . S
C1262 O1285 1.283 . S
C1263 O1275 1.281 . S
C1263 O1276 1.236 . S
C1264 O1286 1.240 . S
C1264 O1287 1.264 . S
O1265 Mn1260 2.095 . S
O1265 C1274 1.250 . S
O1266 Mn1261 2.121 . S
O1266 C1274 1.258 . S
C1267 N1268 1.326 . S
C1267 C1271 1.460 . S
C1267 H1273 0.929 . S
N1268 Mn1261 2.257 . S
N1268 C1267 1.326 . S
N1268 C1272 1.362 . S
C1269 C1270 1.258 . S
C1269 C1272 1.431 . S
C1269 C1289 1.449 . S
C1270 C1269 1.258 . S
C1270 C1271 1.477 . S
C1270 H1290 0.931 . S
C1271 C1267 1.460 . S
C1271 C1270 1.477 . S
C1271 H1291 0.930 . S
C1272 N1268 1.362 . S
C1272 C1269 1.431 . S
C1272 C1282 1.476 . S
H1273 C1267 0.929 . S
C1274 O1265 1.250 . S
C1274 O1266 1.258 . S
O1275 Mn1260 2.162 . S
O1275 C1263 1.281 . S
O1276 Mn1260 2.297 . S
O1276 C1263 1.236 . S
N1277 Mn1261 2.282 . S
N1277 C1278 1.328 . S
N1277 C1282 1.318 . S
C1278 N1277 1.328 . S
C1278 C1279 1.457 . S
C1278 H1283 0.929 . S
C1279 C1278 1.457 . S
C1279 C1280 1.291 . S
C1279 H1292 0.931 . S
C1280 C1279 1.291 . S
C1280 C1281 1.373 . S
C1280 H1293 0.929 . S
C1281 C1280 1.373 . S
C1281 C1282 1.396 . S
C1281 C1288 1.403 . S
C1282 C1272 1.476 . S
C1282 N1277 1.318 . S
C1282 C1281 1.396 . S
H1283 C1278 0.929 . S
O1284 Mn1260 2.385 . S
O1284 C1262 1.234 . S
O1285 Mn1260 2.209 . S
O1285 Mn1261 2.215 . S
O1285 C1262 1.283 . S
O1286 Mn1260 2.094 . S
O1286 C1264 1.240 . S
O1287 Mn1261 2.117 . S
O1287 C1264 1.264 . S
C1288 C1281 1.403 . S
C1288 C1289 1.399 . S
C1288 H1294 0.929 . S
C1289 C1269 1.449 . S
C1289 C1288 1.399 . S
C1289 H1295 0.930 . S
H1290 C1270 0.931 . S
H1291 C1271 0.930 . S
H1292 C1279 0.931 . S
H1293 C1280 0.929 . S
H1294 C1288 0.929 . S
H1295 C1289 0.930 . S
Mn1296 O1301 2.095 . S
Mn1296 O1311 2.162 1_556 S
Mn1296 O1312 2.297 . S
Mn1296 O1320 2.385 . S
Mn1296 O1321 2.209 . S
Mn1296 O1322 2.094 . S
Mn1297 O1302 2.121 . S
Mn1297 N1304 2.257 . S
Mn1297 N1313 2.282 . S
Mn1297 O1321 2.215 . S
Mn1297 O1323 2.117 . S
C1298 O1320 1.234 . S
C1298 O1321 1.283 . S
C1299 O1311 1.272 1_556 S
C1299 O1312 1.257 . S
C1300 O1322 1.240 . S
C1300 O1323 1.264 . S
O1301 Mn1296 2.095 . S
O1301 C1310 1.250 . S
O1302 Mn1297 2.121 . S
O1302 C1310 1.258 . S
C1303 N1304 1.326 . S
C1303 C1307 1.460 . S
C1303 H1309 0.929 . S
N1304 Mn1297 2.257 . S
N1304 C1303 1.326 . S
N1304 C1308 1.362 . S
C1305 C1306 1.258 . S
C1305 C1308 1.431 . S
C1305 C1325 1.449 . S
C1306 C1305 1.258 . S
C1306 C1307 1.477 . S
C1306 H1326 0.931 . S
C1307 C1303 1.460 . S
C1307 C1306 1.477 . S
C1307 H1327 0.930 . S
C1308 N1304 1.362 . S
C1308 C1305 1.431 . S
C1308 C1318 1.476 . S
H1309 C1303 0.929 . S
C1310 O1301 1.250 . S
C1310 O1302 1.258 . S
O1311 Mn1296 2.162 1_554 S
O1311 C1299 1.272 1_554 S
O1312 Mn1296 2.297 . S
O1312 C1299 1.257 . S
N1313 Mn1297 2.282 . S
N1313 C1314 1.328 . S
N1313 C1318 1.318 . S
C1314 N1313 1.328 . S
C1314 C1315 1.457 . S
C1314 H1319 0.929 . S
C1315 C1314 1.457 . S
C1315 C1316 1.291 . S
C1315 H1328 0.931 . S
C1316 C1315 1.291 . S
C1316 C1317 1.373 . S
C1316 H1329 0.929 . S
C1317 C1316 1.373 . S
C1317 C1318 1.396 . S
C1317 C1324 1.403 . S
C1318 C1308 1.476 . S
C1318 N1313 1.318 . S
C1318 C1317 1.396 . S
H1319 C1314 0.929 . S
O1320 Mn1296 2.385 . S
O1320 C1298 1.234 . S
O1321 Mn1296 2.209 . S
O1321 Mn1297 2.215 . S
O1321 C1298 1.283 . S
O1322 Mn1296 2.094 . S
O1322 C1300 1.240 . S
O1323 Mn1297 2.117 . S
O1323 C1300 1.264 . S
C1324 C1317 1.403 . S
C1324 C1325 1.399 . S
C1324 H1330 0.929 . S
C1325 C1305 1.449 . S
C1325 C1324 1.399 . S
C1325 H1331 0.930 . S
H1326 C1306 0.931 . S
H1327 C1307 0.930 . S
H1328 C1315 0.931 . S
H1329 C1316 0.929 . S
H1330 C1324 0.929 . S
H1331 C1325 0.930 . S
Mn1332 O1337 2.095 . S
Mn1332 O1347 2.162 . S
Mn1332 O1348 2.297 . S
Mn1332 O1356 2.385 . S
Mn1332 O1357 2.209 . S
Mn1332 O1358 2.094 . S
Mn1333 O1338 2.121 . S
Mn1333 N1340 2.257 . S
Mn1333 N1349 2.282 . S
Mn1333 O1357 2.215 . S
Mn1333 O1359 2.117 . S
C1334 O1356 1.234 . S
C1334 O1357 1.283 . S
C1335 O1347 1.281 . S
C1335 O1348 1.236 . S
C1336 O1358 1.240 . S
C1336 O1359 1.264 . S
O1337 Mn1332 2.095 . S
O1337 C1346 1.250 . S
O1338 Mn1333 2.121 . S
O1338 C1346 1.258 . S
C1339 N1340 1.326 . S
C1339 C1343 1.460 . S
C1339 H1345 0.929 . S
N1340 Mn1333 2.257 . S
N1340 C1339 1.326 . S
N1340 C1344 1.362 . S
C1341 C1342 1.258 . S
C1341 C1344 1.431 . S
C1341 C1361 1.449 . S
C1342 C1341 1.258 . S
C1342 C1343 1.477 . S
C1342 H1362 0.931 . S
C1343 C1339 1.460 . S
C1343 C1342 1.477 . S
C1343 H1363 0.930 . S
C1344 N1340 1.362 . S
C1344 C1341 1.431 . S
C1344 C1354 1.476 . S
H1345 C1339 0.929 . S
C1346 O1337 1.250 . S
C1346 O1338 1.258 . S
O1347 Mn1332 2.162 . S
O1347 C1335 1.281 . S
O1348 Mn1332 2.297 . S
O1348 C1335 1.236 . S
N1349 Mn1333 2.282 . S
N1349 C1350 1.328 . S
N1349 C1354 1.318 . S
C1350 N1349 1.328 . S
C1350 C1351 1.457 . S
C1350 H1355 0.929 . S
C1351 C1350 1.457 . S
C1351 C1352 1.291 . S
C1351 H1364 0.931 . S
C1352 C1351 1.291 . S
C1352 C1353 1.373 . S
C1352 H1365 0.929 . S
C1353 C1352 1.373 . S
C1353 C1354 1.396 . S
C1353 C1360 1.403 . S
C1354 C1344 1.476 . S
C1354 N1349 1.318 . S
C1354 C1353 1.396 . S
H1355 C1350 0.929 . S
O1356 Mn1332 2.385 . S
O1356 C1334 1.234 . S
O1357 Mn1332 2.209 . S
O1357 Mn1333 2.215 . S
O1357 C1334 1.283 . S
O1358 Mn1332 2.094 . S
O1358 C1336 1.240 . S
O1359 Mn1333 2.117 . S
O1359 C1336 1.264 . S
C1360 C1353 1.403 . S
C1360 C1361 1.399 . S
C1360 H1366 0.929 . S
C1361 C1341 1.449 . S
C1361 C1360 1.399 . S
C1361 H1367 0.930 . S
H1362 C1342 0.931 . S
H1363 C1343 0.930 . S
H1364 C1351 0.931 . S
H1365 C1352 0.929 . S
H1366 C1360 0.929 . S
H1367 C1361 0.930 . S
Mn1368 O1373 2.095 . S
Mn1368 O1383 2.162 . S
Mn1368 O1384 2.297 . S
Mn1368 O1392 2.385 . S
Mn1368 O1393 2.209 . S
Mn1368 O1394 2.094 . S
Mn1369 O1374 2.121 . S
Mn1369 N1376 2.257 . S
Mn1369 N1385 2.282 . S
Mn1369 O1393 2.215 . S
Mn1369 O1395 2.117 . S
C1370 O1392 1.234 . S
C1370 O1393 1.283 . S
C1371 O1383 1.281 . S
C1371 O1384 1.236 . S
C1372 O1394 1.240 . S
C1372 O1395 1.264 . S
O1373 Mn1368 2.095 . S
O1373 C1382 1.250 . S
O1374 Mn1369 2.121 . S
O1374 C1382 1.258 . S
C1375 N1376 1.326 . S
C1375 C1379 1.460 . S
C1375 H1381 0.929 . S
N1376 Mn1369 2.257 . S
N1376 C1375 1.326 . S
N1376 C1380 1.362 . S
C1377 C1378 1.258 . S
C1377 C1380 1.431 . S
C1377 C1397 1.449 . S
C1378 C1377 1.258 . S
C1378 C1379 1.477 . S
C1378 H1398 0.931 . S
C1379 C1375 1.460 . S
C1379 C1378 1.477 . S
C1379 H1399 0.930 . S
C1380 N1376 1.362 . S
C1380 C1377 1.431 . S
C1380 C1390 1.476 . S
H1381 C1375 0.929 . S
C1382 O1373 1.250 . S
C1382 O1374 1.258 . S
O1383 Mn1368 2.162 . S
O1383 C1371 1.281 . S
O1384 Mn1368 2.297 . S
O1384 C1371 1.236 . S
N1385 Mn1369 2.282 . S
N1385 C1386 1.328 . S
N1385 C1390 1.318 . S
C1386 N1385 1.328 . S
C1386 C1387 1.457 . S
C1386 H1391 0.929 . S
C1387 C1386 1.457 . S
C1387 C1388 1.291 . S
C1387 H1400 0.931 . S
C1388 C1387 1.291 . S
C1388 C1389 1.373 . S
C1388 H1401 0.929 . S
C1389 C1388 1.373 . S
C1389 C1390 1.396 . S
C1389 C1396 1.403 . S
C1390 C1380 1.476 . S
C1390 N1385 1.318 . S
C1390 C1389 1.396 . S
H1391 C1386 0.929 . S
O1392 Mn1368 2.385 . S
O1392 C1370 1.234 . S
O1393 Mn1368 2.209 . S
O1393 Mn1369 2.215 . S
O1393 C1370 1.283 . S
O1394 Mn1368 2.094 . S
O1394 C1372 1.240 . S
O1395 Mn1369 2.117 . S
O1395 C1372 1.264 . S
C1396 C1389 1.403 . S
C1396 C1397 1.399 . S
C1396 H1402 0.929 . S
C1397 C1377 1.449 . S
C1397 C1396 1.399 . S
C1397 H1403 0.930 . S
H1398 C1378 0.931 . S
H1399 C1379 0.930 . S
H1400 C1387 0.931 . S
H1401 C1388 0.929 . S
H1402 C1396 0.929 . S
H1403 C1397 0.930 . S
Mn1404 O1409 2.095 . S
Mn1404 O1419 2.162 . S
Mn1404 O1420 2.297 . S
Mn1404 O1428 2.385 . S
Mn1404 O1429 2.209 . S
Mn1404 O1430 2.094 . S
Mn1405 O1410 2.121 . S
Mn1405 N1412 2.257 . S
Mn1405 N1421 2.282 . S
Mn1405 O1429 2.215 . S
Mn1405 O1431 2.117 . S
C1406 O1428 1.234 . S
C1406 O1429 1.283 . S
C1407 O1419 1.281 . S
C1407 O1420 1.236 . S
C1408 O1430 1.240 . S
C1408 O1431 1.264 . S
O1409 Mn1404 2.095 . S
O1409 C1418 1.250 . S
O1410 Mn1405 2.121 . S
O1410 C1418 1.258 . S
C1411 N1412 1.326 . S
C1411 C1415 1.460 . S
C1411 H1417 0.929 . S
N1412 Mn1405 2.257 . S
N1412 C1411 1.326 . S
N1412 C1416 1.362 . S
C1413 C1414 1.258 . S
C1413 C1416 1.431 . S
C1413 C1433 1.449 . S
C1414 C1413 1.258 . S
C1414 C1415 1.477 . S
C1414 H1434 0.931 . S
C1415 C1411 1.460 . S
C1415 C1414 1.477 . S
C1415 H1435 0.930 . S
C1416 N1412 1.362 . S
C1416 C1413 1.431 . S
C1416 C1426 1.476 . S
H1417 C1411 0.929 . S
C1418 O1409 1.250 . S
C1418 O1410 1.258 . S
O1419 Mn1404 2.162 . S
O1419 C1407 1.281 . S
O1420 Mn1404 2.297 . S
O1420 C1407 1.236 . S
N1421 Mn1405 2.282 . S
N1421 C1422 1.328 . S
N1421 C1426 1.318 . S
C1422 N1421 1.328 . S
C1422 C1423 1.457 . S
C1422 H1427 0.929 . S
C1423 C1422 1.457 . S
C1423 C1424 1.291 . S
C1423 H1436 0.931 . S
C1424 C1423 1.291 . S
C1424 C1425 1.373 . S
C1424 H1437 0.929 . S
C1425 C1424 1.373 . S
C1425 C1426 1.396 . S
C1425 C1432 1.403 . S
C1426 C1416 1.476 . S
C1426 N1421 1.318 . S
C1426 C1425 1.396 . S
H1427 C1422 0.929 . S
O1428 Mn1404 2.385 . S
O1428 C1406 1.234 . S
O1429 Mn1404 2.209 . S
O1429 Mn1405 2.215 . S
O1429 C1406 1.283 . S
O1430 Mn1404 2.094 . S
O1430 C1408 1.240 . S
O1431 Mn1405 2.117 . S
O1431 C1408 1.264 . S
C1432 C1425 1.403 . S
C1432 C1433 1.399 . S
C1432 H1438 0.929 . S
C1433 C1413 1.449 . S
C1433 C1432 1.399 . S
C1433 H1439 0.930 . S
H1434 C1414 0.931 . S
H1435 C1415 0.930 . S
H1436 C1423 0.931 . S
H1437 C1424 0.929 . S
H1438 C1432 0.929 . S
H1439 C1433 0.930 . S
Mn1440 O1445 2.095 . S
Mn1440 O1455 2.162 . S
Mn1440 O1456 2.297 . S
Mn1440 O1464 2.385 . S
Mn1440 O1465 2.209 . S
Mn1440 O1466 2.094 . S
Mn1441 O1446 2.121 . S
Mn1441 N1448 2.257 . S
Mn1441 N1457 2.282 . S
Mn1441 O1465 2.215 . S
Mn1441 O1467 2.117 . S
C1442 O1464 1.234 . S
C1442 O1465 1.283 . S
C1443 O1455 1.281 . S
C1443 O1456 1.236 . S
C1444 O1466 1.240 . S
C1444 O1467 1.264 . S
O1445 Mn1440 2.095 . S
O1445 C1454 1.250 . S
O1446 Mn1441 2.121 . S
O1446 C1454 1.258 . S
C1447 N1448 1.326 . S
C1447 C1451 1.460 . S
C1447 H1453 0.929 . S
N1448 Mn1441 2.257 . S
N1448 C1447 1.326 . S
N1448 C1452 1.362 . S
C1449 C1450 1.258 . S
C1449 C1452 1.431 . S
C1449 C1469 1.449 . S
C1450 C1449 1.258 . S
C1450 C1451 1.477 . S
C1450 H1470 0.931 . S
C1451 C1447 1.460 . S
C1451 C1450 1.477 . S
C1451 H1471 0.930 . S
C1452 N1448 1.362 . S
C1452 C1449 1.431 . S
C1452 C1462 1.476 . S
H1453 C1447 0.929 . S
C1454 O1445 1.250 . S
C1454 O1446 1.258 . S
O1455 Mn1440 2.162 . S
O1455 C1443 1.281 . S
O1456 Mn1440 2.297 . S
O1456 C1443 1.236 . S
N1457 Mn1441 2.282 . S
N1457 C1458 1.328 . S
N1457 C1462 1.318 . S
C1458 N1457 1.328 . S
C1458 C1459 1.457 . S
C1458 H1463 0.929 . S
C1459 C1458 1.457 . S
C1459 C1460 1.291 . S
C1459 H1472 0.931 . S
C1460 C1459 1.291 . S
C1460 C1461 1.373 . S
C1460 H1473 0.929 . S
C1461 C1460 1.373 . S
C1461 C1462 1.396 . S
C1461 C1468 1.403 . S
C1462 C1452 1.476 . S
C1462 N1457 1.318 . S
C1462 C1461 1.396 . S
H1463 C1458 0.929 . S
O1464 Mn1440 2.385 . S
O1464 C1442 1.234 . S
O1465 Mn1440 2.209 . S
O1465 Mn1441 2.215 . S
O1465 C1442 1.283 . S
O1466 Mn1440 2.094 . S
O1466 C1444 1.240 . S
O1467 Mn1441 2.117 . S
O1467 C1444 1.264 . S
C1468 C1461 1.403 . S
C1468 C1469 1.399 . S
C1468 H1474 0.929 . S
C1469 C1449 1.449 . S
C1469 C1468 1.399 . S
C1469 H1475 0.930 . S
H1470 C1450 0.931 . S
H1471 C1451 0.930 . S
H1472 C1459 0.931 . S
H1473 C1460 0.929 . S
H1474 C1468 0.929 . S
H1475 C1469 0.930 . S
Mn1476 O1481 2.095 . S
Mn1476 O1491 2.162 1_455 S
Mn1476 O1492 2.297 . S
Mn1476 O1500 2.385 . S
Mn1476 O1501 2.209 . S
Mn1476 O1502 2.094 . S
Mn1477 O1482 2.121 . S
Mn1477 N1484 2.257 . S
Mn1477 N1493 2.282 . S
Mn1477 O1501 2.215 . S
Mn1477 O1503 2.117 . S
C1478 O1500 1.234 . S
C1478 O1501 1.283 . S
C1479 O1491 1.272 1_455 S
C1479 O1492 1.257 . S
C1480 O1502 1.240 . S
C1480 O1503 1.264 . S
O1481 Mn1476 2.095 . S
O1481 C1490 1.250 . S
O1482 Mn1477 2.121 . S
O1482 C1490 1.258 . S
C1483 N1484 1.326 . S
C1483 C1487 1.460 . S
C1483 H1489 0.929 . S
N1484 Mn1477 2.257 . S
N1484 C1483 1.326 . S
N1484 C1488 1.362 . S
C1485 C1486 1.258 . S
C1485 C1488 1.431 . S
C1485 C1505 1.449 . S
C1486 C1485 1.258 . S
C1486 C1487 1.477 . S
C1486 H1506 0.931 . S
C1487 C1483 1.460 . S
C1487 C1486 1.477 . S
C1487 H1507 0.930 . S
C1488 N1484 1.362 . S
C1488 C1485 1.431 . S
C1488 C1498 1.476 . S
H1489 C1483 0.929 . S
C1490 O1481 1.250 . S
C1490 O1482 1.258 . S
O1491 Mn1476 2.162 1_655 S
O1491 C1479 1.272 1_655 S
O1492 Mn1476 2.297 . S
O1492 C1479 1.257 . S
N1493 Mn1477 2.282 . S
N1493 C1494 1.328 . S
N1493 C1498 1.318 . S
C1494 N1493 1.328 . S
C1494 C1495 1.457 . S
C1494 H1499 0.929 . S
C1495 C1494 1.457 . S
C1495 C1496 1.291 . S
C1495 H1508 0.931 . S
C1496 C1495 1.291 . S
C1496 C1497 1.373 . S
C1496 H1509 0.929 . S
C1497 C1496 1.373 . S
C1497 C1498 1.396 . S
C1497 C1504 1.403 . S
C1498 C1488 1.476 . S
C1498 N1493 1.318 . S
C1498 C1497 1.396 . S
H1499 C1494 0.929 . S
O1500 Mn1476 2.385 . S
O1500 C1478 1.234 . S
O1501 Mn1476 2.209 . S
O1501 Mn1477 2.215 . S
O1501 C1478 1.283 . S
O1502 Mn1476 2.094 . S
O1502 C1480 1.240 . S
O1503 Mn1477 2.117 . S
O1503 C1480 1.264 . S
C1504 C1497 1.403 . S
C1504 C1505 1.399 . S
C1504 H1510 0.929 . S
C1505 C1485 1.449 . S
C1505 C1504 1.399 . S
C1505 H1511 0.930 . S
H1506 C1486 0.931 . S
H1507 C1487 0.930 . S
H1508 C1495 0.931 . S
H1509 C1496 0.929 . S
H1510 C1504 0.929 . S
H1511 C1505 0.930 . S
Mn1512 O1517 2.095 . S
Mn1512 O1527 2.162 . S
Mn1512 O1528 2.297 . S
Mn1512 O1536 2.385 . S
Mn1512 O1537 2.209 . S
Mn1512 O1538 2.094 . S
Mn1513 O1518 2.121 . S
Mn1513 N1520 2.257 . S
Mn1513 N1529 2.282 . S
Mn1513 O1537 2.215 . S
Mn1513 O1539 2.117 . S
C1514 O1536 1.234 . S
C1514 O1537 1.283 . S
C1515 O1527 1.281 . S
C1515 O1528 1.236 . S
C1516 O1538 1.240 . S
C1516 O1539 1.264 . S
O1517 Mn1512 2.095 . S
O1517 C1526 1.250 . S
O1518 Mn1513 2.121 . S
O1518 C1526 1.258 . S
C1519 N1520 1.326 . S
C1519 C1523 1.460 . S
C1519 H1525 0.929 . S
N1520 Mn1513 2.257 . S
N1520 C1519 1.326 . S
N1520 C1524 1.362 . S
C1521 C1522 1.258 . S
C1521 C1524 1.431 . S
C1521 C1541 1.449 . S
C1522 C1521 1.258 . S
C1522 C1523 1.477 . S
C1522 H1542 0.931 . S
C1523 C1519 1.460 . S
C1523 C1522 1.477 . S
C1523 H1543 0.930 . S
C1524 N1520 1.362 . S
C1524 C1521 1.431 . S
C1524 C1534 1.476 . S
H1525 C1519 0.929 . S
C1526 O1517 1.250 . S
C1526 O1518 1.258 . S
O1527 Mn1512 2.162 . S
O1527 C1515 1.281 . S
O1528 Mn1512 2.297 . S
O1528 C1515 1.236 . S
N1529 Mn1513 2.282 . S
N1529 C1530 1.328 . S
N1529 C1534 1.318 . S
C1530 N1529 1.328 . S
C1530 C1531 1.457 . S
C1530 H1535 0.929 . S
C1531 C1530 1.457 . S
C1531 C1532 1.291 . S
C1531 H1544 0.931 . S
C1532 C1531 1.291 . S
C1532 C1533 1.373 . S
C1532 H1545 0.929 . S
C1533 C1532 1.373 . S
C1533 C1534 1.396 . S
C1533 C1540 1.403 . S
C1534 C1524 1.476 . S
C1534 N1529 1.318 . S
C1534 C1533 1.396 . S
H1535 C1530 0.929 . S
O1536 Mn1512 2.385 . S
O1536 C1514 1.234 . S
O1537 Mn1512 2.209 . S
O1537 Mn1513 2.215 . S
O1537 C1514 1.283 . S
O1538 Mn1512 2.094 . S
O1538 C1516 1.240 . S
O1539 Mn1513 2.117 . S
O1539 C1516 1.264 . S
C1540 C1533 1.403 . S
C1540 C1541 1.399 . S
C1540 H1546 0.929 . S
C1541 C1521 1.449 . S
C1541 C1540 1.399 . S
C1541 H1547 0.930 . S
H1542 C1522 0.931 . S
H1543 C1523 0.930 . S
H1544 C1531 0.931 . S
H1545 C1532 0.929 . S
H1546 C1540 0.929 . S
H1547 C1541 0.930 . S
Mn1548 O1553 2.095 . S
Mn1548 O1563 2.162 1_655 S
Mn1548 O1564 2.297 . S
Mn1548 O1572 2.385 . S
Mn1548 O1573 2.209 . S
Mn1548 O1574 2.094 . S
Mn1549 O1554 2.121 . S
Mn1549 N1556 2.257 . S
Mn1549 N1565 2.282 . S
Mn1549 O1573 2.215 . S
Mn1549 O1575 2.117 . S
C1550 O1572 1.234 . S
C1550 O1573 1.283 . S
C1551 O1563 1.272 1_655 S
C1551 O1564 1.257 . S
C1552 O1574 1.240 . S
C1552 O1575 1.264 . S
O1553 Mn1548 2.095 . S
O1553 C1562 1.250 . S
O1554 Mn1549 2.121 . S
O1554 C1562 1.258 . S
C1555 N1556 1.326 . S
C1555 C1559 1.460 . S
C1555 H1561 0.929 . S
N1556 Mn1549 2.257 . S
N1556 C1555 1.326 . S
N1556 C1560 1.362 . S
C1557 C1558 1.258 . S
C1557 C1560 1.431 . S
C1557 C1577 1.449 . S
C1558 C1557 1.258 . S
C1558 C1559 1.477 . S
C1558 H1578 0.931 . S
C1559 C1555 1.460 . S
C1559 C1558 1.477 . S
C1559 H1579 0.930 . S
C1560 N1556 1.362 . S
C1560 C1557 1.431 . S
C1560 C1570 1.476 . S
H1561 C1555 0.929 . S
C1562 O1553 1.250 . S
C1562 O1554 1.258 . S
O1563 Mn1548 2.162 1_455 S
O1563 C1551 1.272 1_455 S
O1564 Mn1548 2.297 . S
O1564 C1551 1.257 . S
N1565 Mn1549 2.282 . S
N1565 C1566 1.328 . S
N1565 C1570 1.318 . S
C1566 N1565 1.328 . S
C1566 C1567 1.457 . S
C1566 H1571 0.929 . S
C1567 C1566 1.457 . S
C1567 C1568 1.291 . S
C1567 H1580 0.931 . S
C1568 C1567 1.291 . S
C1568 C1569 1.373 . S
C1568 H1581 0.929 . S
C1569 C1568 1.373 . S
C1569 C1570 1.396 . S
C1569 C1576 1.403 . S
C1570 C1560 1.476 . S
C1570 N1565 1.318 . S
C1570 C1569 1.396 . S
H1571 C1566 0.929 . S
O1572 Mn1548 2.385 . S
O1572 C1550 1.234 . S
O1573 Mn1548 2.209 . S
O1573 Mn1549 2.215 . S
O1573 C1550 1.283 . S
O1574 Mn1548 2.094 . S
O1574 C1552 1.240 . S
O1575 Mn1549 2.117 . S
O1575 C1552 1.264 . S
C1576 C1569 1.403 . S
C1576 C1577 1.399 . S
C1576 H1582 0.929 . S
C1577 C1557 1.449 . S
C1577 C1576 1.399 . S
C1577 H1583 0.930 . S
H1578 C1558 0.931 . S
H1579 C1559 0.930 . S
H1580 C1567 0.931 . S
H1581 C1568 0.929 . S
H1582 C1576 0.929 . S
H1583 C1577 0.930 . S
Mn1584 O1589 2.095 . S
Mn1584 O1599 2.162 . S
Mn1584 O1600 2.297 . S
Mn1584 O1608 2.385 . S
Mn1584 O1609 2.209 . S
Mn1584 O1610 2.094 . S
Mn1585 O1590 2.121 . S
Mn1585 N1592 2.257 . S
Mn1585 N1601 2.282 . S
Mn1585 O1609 2.215 . S
Mn1585 O1611 2.117 . S
C1586 O1608 1.234 . S
C1586 O1609 1.283 . S
C1587 O1599 1.281 . S
C1587 O1600 1.236 . S
C1588 O1610 1.240 . S
C1588 O1611 1.264 . S
O1589 Mn1584 2.095 . S
O1589 C1598 1.250 . S
O1590 Mn1585 2.121 . S
O1590 C1598 1.258 . S
C1591 N1592 1.326 . S
C1591 C1595 1.460 . S
C1591 H1597 0.929 . S
N1592 Mn1585 2.257 . S
N1592 C1591 1.326 . S
N1592 C1596 1.362 . S
C1593 C1594 1.258 . S
C1593 C1596 1.431 . S
C1593 C1613 1.449 . S
C1594 C1593 1.258 . S
C1594 C1595 1.477 . S
C1594 H1614 0.931 . S
C1595 C1591 1.460 . S
C1595 C1594 1.477 . S
C1595 H1615 0.930 . S
C1596 N1592 1.362 . S
C1596 C1593 1.431 . S
C1596 C1606 1.476 . S
H1597 C1591 0.929 . S
C1598 O1589 1.250 . S
C1598 O1590 1.258 . S
O1599 Mn1584 2.162 . S
O1599 C1587 1.281 . S
O1600 Mn1584 2.297 . S
O1600 C1587 1.236 . S
N1601 Mn1585 2.282 . S
N1601 C1602 1.328 . S
N1601 C1606 1.318 . S
C1602 N1601 1.328 . S
C1602 C1603 1.457 . S
C1602 H1607 0.929 . S
C1603 C1602 1.457 . S
C1603 C1604 1.291 . S
C1603 H1616 0.931 . S
C1604 C1603 1.291 . S
C1604 C1605 1.373 . S
C1604 H1617 0.929 . S
C1605 C1604 1.373 . S
C1605 C1606 1.396 . S
C1605 C1612 1.403 . S
C1606 C1596 1.476 . S
C1606 N1601 1.318 . S
C1606 C1605 1.396 . S
H1607 C1602 0.929 . S
O1608 Mn1584 2.385 . S
O1608 C1586 1.234 . S
O1609 Mn1584 2.209 . S
O1609 Mn1585 2.215 . S
O1609 C1586 1.283 . S
O1610 Mn1584 2.094 . S
O1610 C1588 1.240 . S
O1611 Mn1585 2.117 . S
O1611 C1588 1.264 . S
C1612 C1605 1.403 . S
C1612 C1613 1.399 . S
C1612 H1618 0.929 . S
C1613 C1593 1.449 . S
C1613 C1612 1.399 . S
C1613 H1619 0.930 . S
H1614 C1594 0.931 . S
H1615 C1595 0.930 . S
H1616 C1603 0.931 . S
H1617 C1604 0.929 . S
H1618 C1612 0.929 . S
H1619 C1613 0.930 . S
Mn1620 O1625 2.095 . S
Mn1620 O1635 2.162 . S
Mn1620 O1636 2.297 . S
Mn1620 O1644 2.385 . S
Mn1620 O1645 2.209 . S
Mn1620 O1646 2.094 . S
Mn1621 O1626 2.121 . S
Mn1621 N1628 2.257 . S
Mn1621 N1637 2.282 . S
Mn1621 O1645 2.215 . S
Mn1621 O1647 2.117 . S
C1622 O1644 1.234 . S
C1622 O1645 1.283 . S
C1623 O1635 1.281 . S
C1623 O1636 1.236 . S
C1624 O1646 1.240 . S
C1624 O1647 1.264 . S
O1625 Mn1620 2.095 . S
O1625 C1634 1.250 . S
O1626 Mn1621 2.121 . S
O1626 C1634 1.258 . S
C1627 N1628 1.326 . S
C1627 C1631 1.460 . S
C1627 H1633 0.929 . S
N1628 Mn1621 2.257 . S
N1628 C1627 1.326 . S
N1628 C1632 1.362 . S
C1629 C1630 1.258 . S
C1629 C1632 1.431 . S
C1629 C1649 1.449 . S
C1630 C1629 1.258 . S
C1630 C1631 1.477 . S
C1630 H1650 0.931 . S
C1631 C1627 1.460 . S
C1631 C1630 1.477 . S
C1631 H1651 0.930 . S
C1632 N1628 1.362 . S
C1632 C1629 1.431 . S
C1632 C1642 1.476 . S
H1633 C1627 0.929 . S
C1634 O1625 1.250 . S
C1634 O1626 1.258 . S
O1635 Mn1620 2.162 . S
O1635 C1623 1.281 . S
O1636 Mn1620 2.297 . S
O1636 C1623 1.236 . S
N1637 Mn1621 2.282 . S
N1637 C1638 1.328 . S
N1637 C1642 1.318 . S
C1638 N1637 1.328 . S
C1638 C1639 1.457 . S
C1638 H1643 0.929 . S
C1639 C1638 1.457 . S
C1639 C1640 1.291 . S
C1639 H1652 0.931 . S
C1640 C1639 1.291 . S
C1640 C1641 1.373 . S
C1640 H1653 0.929 . S
C1641 C1640 1.373 . S
C1641 C1642 1.396 . S
C1641 C1648 1.403 . S
C1642 C1632 1.476 . S
C1642 N1637 1.318 . S
C1642 C1641 1.396 . S
H1643 C1638 0.929 . S
O1644 Mn1620 2.385 . S
O1644 C1622 1.234 . S
O1645 Mn1620 2.209 . S
O1645 Mn1621 2.215 . S
O1645 C1622 1.283 . S
O1646 Mn1620 2.094 . S
O1646 C1624 1.240 . S
O1647 Mn1621 2.117 . S
O1647 C1624 1.264 . S
C1648 C1641 1.403 . S
C1648 C1649 1.399 . S
C1648 H1654 0.929 . S
C1649 C1629 1.449 . S
C1649 C1648 1.399 . S
C1649 H1655 0.930 . S
H1650 C1630 0.931 . S
H1651 C1631 0.930 . S
H1652 C1639 0.931 . S
H1653 C1640 0.929 . S
H1654 C1648 0.929 . S
H1655 C1649 0.930 . S
Mn1656 O1661 2.095 . S
Mn1656 O1671 2.162 . S
Mn1656 O1672 2.297 . S
Mn1656 O1680 2.385 . S
Mn1656 O1681 2.209 . S
Mn1656 O1682 2.094 . S
Mn1657 O1662 2.121 . S
Mn1657 N1664 2.257 . S
Mn1657 N1673 2.282 . S
Mn1657 O1681 2.215 . S
Mn1657 O1683 2.117 . S
C1658 O1680 1.234 . S
C1658 O1681 1.283 . S
C1659 O1671 1.281 . S
C1659 O1672 1.236 . S
C1660 O1682 1.240 . S
C1660 O1683 1.264 . S
O1661 Mn1656 2.095 . S
O1661 C1670 1.250 . S
O1662 Mn1657 2.121 . S
O1662 C1670 1.258 . S
C1663 N1664 1.326 . S
C1663 C1667 1.460 . S
C1663 H1669 0.929 . S
N1664 Mn1657 2.257 . S
N1664 C1663 1.326 . S
N1664 C1668 1.362 . S
C1665 C1666 1.258 . S
C1665 C1668 1.431 . S
C1665 C1685 1.449 . S
C1666 C1665 1.258 . S
C1666 C1667 1.477 . S
C1666 H1686 0.931 . S
C1667 C1663 1.460 . S
C1667 C1666 1.477 . S
C1667 H1687 0.930 . S
C1668 N1664 1.362 . S
C1668 C1665 1.431 . S
C1668 C1678 1.476 . S
H1669 C1663 0.929 . S
C1670 O1661 1.250 . S
C1670 O1662 1.258 . S
O1671 Mn1656 2.162 . S
O1671 C1659 1.281 . S
O1672 Mn1656 2.297 . S
O1672 C1659 1.236 . S
N1673 Mn1657 2.282 . S
N1673 C1674 1.328 . S
N1673 C1678 1.318 . S
C1674 N1673 1.328 . S
C1674 C1675 1.457 . S
C1674 H1679 0.929 . S
C1675 C1674 1.457 . S
C1675 C1676 1.291 . S
C1675 H1688 0.931 . S
C1676 C1675 1.291 . S
C1676 C1677 1.373 . S
C1676 H1689 0.929 . S
C1677 C1676 1.373 . S
C1677 C1678 1.396 . S
C1677 C1684 1.403 . S
C1678 C1668 1.476 . S
C1678 N1673 1.318 . S
C1678 C1677 1.396 . S
H1679 C1674 0.929 . S
O1680 Mn1656 2.385 . S
O1680 C1658 1.234 . S
O1681 Mn1656 2.209 . S
O1681 Mn1657 2.215 . S
O1681 C1658 1.283 . S
O1682 Mn1656 2.094 . S
O1682 C1660 1.240 . S
O1683 Mn1657 2.117 . S
O1683 C1660 1.264 . S
C1684 C1677 1.403 . S
C1684 C1685 1.399 . S
C1684 H1690 0.929 . S
C1685 C1665 1.449 . S
C1685 C1684 1.399 . S
C1685 H1691 0.930 . S
H1686 C1666 0.931 . S
H1687 C1667 0.930 . S
H1688 C1675 0.931 . S
H1689 C1676 0.929 . S
H1690 C1684 0.929 . S
H1691 C1685 0.930 . S
Mn1692 O1697 2.095 . S
Mn1692 O1707 2.162 . S
Mn1692 O1708 2.297 . S
Mn1692 O1716 2.385 . S
Mn1692 O1717 2.209 . S
Mn1692 O1718 2.094 . S
Mn1693 O1698 2.121 . S
Mn1693 N1700 2.257 . S
Mn1693 N1709 2.282 . S
Mn1693 O1717 2.215 . S
Mn1693 O1719 2.117 . S
C1694 O1716 1.234 . S
C1694 O1717 1.283 . S
C1695 O1707 1.281 . S
C1695 O1708 1.236 . S
C1696 O1718 1.240 . S
C1696 O1719 1.264 . S
O1697 Mn1692 2.095 . S
O1697 C1706 1.250 . S
O1698 Mn1693 2.121 . S
O1698 C1706 1.258 . S
C1699 N1700 1.326 . S
C1699 C1703 1.460 . S
C1699 H1705 0.929 . S
N1700 Mn1693 2.257 . S
N1700 C1699 1.326 . S
N1700 C1704 1.362 . S
C1701 C1702 1.258 . S
C1701 C1704 1.431 . S
C1701 C1721 1.449 . S
C1702 C1701 1.258 . S
C1702 C1703 1.477 . S
C1702 H1722 0.931 . S
C1703 C1699 1.460 . S
C1703 C1702 1.477 . S
C1703 H1723 0.930 . S
C1704 N1700 1.362 . S
C1704 C1701 1.431 . S
C1704 C1714 1.476 . S
H1705 C1699 0.929 . S
C1706 O1697 1.250 . S
C1706 O1698 1.258 . S
O1707 Mn1692 2.162 . S
O1707 C1695 1.281 . S
O1708 Mn1692 2.297 . S
O1708 C1695 1.236 . S
N1709 Mn1693 2.282 . S
N1709 C1710 1.328 . S
N1709 C1714 1.318 . S
C1710 N1709 1.328 . S
C1710 C1711 1.457 . S
C1710 H1715 0.929 . S
C1711 C1710 1.457 . S
C1711 C1712 1.291 . S
C1711 H1724 0.931 . S
C1712 C1711 1.291 . S
C1712 C1713 1.373 . S
C1712 H1725 0.929 . S
C1713 C1712 1.373 . S
C1713 C1714 1.396 . S
C1713 C1720 1.403 . S
C1714 C1704 1.476 . S
C1714 N1709 1.318 . S
C1714 C1713 1.396 . S
H1715 C1710 0.929 . S
O1716 Mn1692 2.385 . S
O1716 C1694 1.234 . S
O1717 Mn1692 2.209 . S
O1717 Mn1693 2.215 . S
O1717 C1694 1.283 . S
O1718 Mn1692 2.094 . S
O1718 C1696 1.240 . S
O1719 Mn1693 2.117 . S
O1719 C1696 1.264 . S
C1720 C1713 1.403 . S
C1720 C1721 1.399 . S
C1720 H1726 0.929 . S
C1721 C1701 1.449 . S
C1721 C1720 1.399 . S
C1721 H1727 0.930 . S
H1722 C1702 0.931 . S
H1723 C1703 0.930 . S
H1724 C1711 0.931 . S
H1725 C1712 0.929 . S
H1726 C1720 0.929 . S
H1727 C1721 0.930 . S
Mn1728 O1733 2.095 . S
Mn1728 O1743 2.162 . S
Mn1728 O1744 2.297 . S
Mn1728 O1752 2.385 . S
Mn1728 O1753 2.209 . S
Mn1728 O1754 2.094 . S
Mn1729 O1734 2.121 . S
Mn1729 N1736 2.257 . S
Mn1729 N1745 2.282 . S
Mn1729 O1753 2.215 . S
Mn1729 O1755 2.117 . S
C1730 O1752 1.234 . S
C1730 O1753 1.283 . S
C1731 O1743 1.281 . S
C1731 O1744 1.236 . S
C1732 O1754 1.240 . S
C1732 O1755 1.264 . S
O1733 Mn1728 2.095 . S
O1733 C1742 1.250 . S
O1734 Mn1729 2.121 . S
O1734 C1742 1.258 . S
C1735 N1736 1.326 . S
C1735 C1739 1.460 . S
C1735 H1741 0.929 . S
N1736 Mn1729 2.257 . S
N1736 C1735 1.326 . S
N1736 C1740 1.362 . S
C1737 C1738 1.258 . S
C1737 C1740 1.431 . S
C1737 C1757 1.449 . S
C1738 C1737 1.258 . S
C1738 C1739 1.477 . S
C1738 H1758 0.931 . S
C1739 C1735 1.460 . S
C1739 C1738 1.477 . S
C1739 H1759 0.930 . S
C1740 N1736 1.362 . S
C1740 C1737 1.431 . S
C1740 C1750 1.476 . S
H1741 C1735 0.929 . S
C1742 O1733 1.250 . S
C1742 O1734 1.258 . S
O1743 Mn1728 2.162 . S
O1743 C1731 1.281 . S
O1744 Mn1728 2.297 . S
O1744 C1731 1.236 . S
N1745 Mn1729 2.282 . S
N1745 C1746 1.328 . S
N1745 C1750 1.318 . S
C1746 N1745 1.328 . S
C1746 C1747 1.457 . S
C1746 H1751 0.929 . S
C1747 C1746 1.457 . S
C1747 C1748 1.291 . S
C1747 H1760 0.931 . S
C1748 C1747 1.291 . S
C1748 C1749 1.373 . S
C1748 H1761 0.929 . S
C1749 C1748 1.373 . S
C1749 C1750 1.396 . S
C1749 C1756 1.403 . S
C1750 C1740 1.476 . S
C1750 N1745 1.318 . S
C1750 C1749 1.396 . S
H1751 C1746 0.929 . S
O1752 Mn1728 2.385 . S
O1752 C1730 1.234 . S
O1753 Mn1728 2.209 . S
O1753 Mn1729 2.215 . S
O1753 C1730 1.283 . S
O1754 Mn1728 2.094 . S
O1754 C1732 1.240 . S
O1755 Mn1729 2.117 . S
O1755 C1732 1.264 . S
C1756 C1749 1.403 . S
C1756 C1757 1.399 . S
C1756 H1762 0.929 . S
C1757 C1737 1.449 . S
C1757 C1756 1.399 . S
C1757 H1763 0.930 . S
H1758 C1738 0.931 . S
H1759 C1739 0.930 . S
H1760 C1747 0.931 . S
H1761 C1748 0.929 . S
H1762 C1756 0.929 . S
H1763 C1757 0.930 . S
Mn1764 O1769 2.095 . S
Mn1764 O1779 2.162 . S
Mn1764 O1780 2.297 . S
Mn1764 O1788 2.385 . S
Mn1764 O1789 2.209 . S
Mn1764 O1790 2.094 . S
Mn1765 O1770 2.121 . S
Mn1765 N1772 2.257 . S
Mn1765 N1781 2.282 . S
Mn1765 O1789 2.215 . S
Mn1765 O1791 2.117 . S
C1766 O1788 1.234 . S
C1766 O1789 1.283 . S
C1767 O1779 1.281 . S
C1767 O1780 1.236 . S
C1768 O1790 1.240 . S
C1768 O1791 1.264 . S
O1769 Mn1764 2.095 . S
O1769 C1778 1.250 . S
O1770 Mn1765 2.121 . S
O1770 C1778 1.258 . S
C1771 N1772 1.326 . S
C1771 C1775 1.460 . S
C1771 H1777 0.929 . S
N1772 Mn1765 2.257 . S
N1772 C1771 1.326 . S
N1772 C1776 1.362 . S
C1773 C1774 1.258 . S
C1773 C1776 1.431 . S
C1773 C1793 1.449 . S
C1774 C1773 1.258 . S
C1774 C1775 1.477 . S
C1774 H1794 0.931 . S
C1775 C1771 1.460 . S
C1775 C1774 1.477 . S
C1775 H1795 0.930 . S
C1776 N1772 1.362 . S
C1776 C1773 1.431 . S
C1776 C1786 1.476 . S
H1777 C1771 0.929 . S
C1778 O1769 1.250 . S
C1778 O1770 1.258 . S
O1779 Mn1764 2.162 . S
O1779 C1767 1.281 . S
O1780 Mn1764 2.297 . S
O1780 C1767 1.236 . S
N1781 Mn1765 2.282 . S
N1781 C1782 1.328 . S
N1781 C1786 1.318 . S
C1782 N1781 1.328 . S
C1782 C1783 1.457 . S
C1782 H1787 0.929 . S
C1783 C1782 1.457 . S
C1783 C1784 1.291 . S
C1783 H1796 0.931 . S
C1784 C1783 1.291 . S
C1784 C1785 1.373 . S
C1784 H1797 0.929 . S
C1785 C1784 1.373 . S
C1785 C1786 1.396 . S
C1785 C1792 1.403 . S
C1786 C1776 1.476 . S
C1786 N1781 1.318 . S
C1786 C1785 1.396 . S
H1787 C1782 0.929 . S
O1788 Mn1764 2.385 . S
O1788 C1766 1.234 . S
O1789 Mn1764 2.209 . S
O1789 Mn1765 2.215 . S
O1789 C1766 1.283 . S
O1790 Mn1764 2.094 . S
O1790 C1768 1.240 . S
O1791 Mn1765 2.117 . S
O1791 C1768 1.264 . S
C1792 C1785 1.403 . S
C1792 C1793 1.399 . S
C1792 H1798 0.929 . S
C1793 C1773 1.449 . S
C1793 C1792 1.399 . S
C1793 H1799 0.930 . S
H1794 C1774 0.931 . S
H1795 C1775 0.930 . S
H1796 C1783 0.931 . S
H1797 C1784 0.929 . S
H1798 C1792 0.929 . S
H1799 C1793 0.930 . S
Mn1800 O1805 2.095 . S
Mn1800 O1815 2.162 1_565 S
Mn1800 O1816 2.297 . S
Mn1800 O1824 2.385 . S
Mn1800 O1825 2.209 . S
Mn1800 O1826 2.094 . S
Mn1801 O1806 2.121 . S
Mn1801 N1808 2.257 . S
Mn1801 N1817 2.282 . S
Mn1801 O1825 2.215 . S
Mn1801 O1827 2.117 . S
C1802 O1824 1.234 . S
C1802 O1825 1.283 . S
C1803 O1815 1.272 1_565 S
C1803 O1816 1.257 . S
C1804 O1826 1.240 . S
C1804 O1827 1.264 . S
O1805 Mn1800 2.095 . S
O1805 C1814 1.250 . S
O1806 Mn1801 2.121 . S
O1806 C1814 1.258 . S
C1807 N1808 1.326 . S
C1807 C1811 1.460 . S
C1807 H1813 0.929 . S
N1808 Mn1801 2.257 . S
N1808 C1807 1.326 . S
N1808 C1812 1.362 . S
C1809 C1810 1.258 . S
C1809 C1812 1.431 . S
C1809 C1829 1.449 . S
C1810 C1809 1.258 . S
C1810 C1811 1.477 . S
C1810 H1830 0.931 . S
C1811 C1807 1.460 . S
C1811 C1810 1.477 . S
C1811 H1831 0.930 . S
C1812 N1808 1.362 . S
C1812 C1809 1.431 . S
C1812 C1822 1.476 . S
H1813 C1807 0.929 . S
C1814 O1805 1.250 . S
C1814 O1806 1.258 . S
O1815 Mn1800 2.162 1_545 S
O1815 C1803 1.272 1_545 S
O1816 Mn1800 2.297 . S
O1816 C1803 1.257 . S
N1817 Mn1801 2.282 . S
N1817 C1818 1.328 . S
N1817 C1822 1.318 . S
C1818 N1817 1.328 . S
C1818 C1819 1.457 . S
C1818 H1823 0.929 . S
C1819 C1818 1.457 . S
C1819 C1820 1.291 . S
C1819 H1832 0.931 . S
C1820 C1819 1.291 . S
C1820 C1821 1.373 . S
C1820 H1833 0.929 . S
C1821 C1820 1.373 . S
C1821 C1822 1.396 . S
C1821 C1828 1.403 . S
C1822 C1812 1.476 . S
C1822 N1817 1.318 . S
C1822 C1821 1.396 . S
H1823 C1818 0.929 . S
O1824 Mn1800 2.385 . S
O1824 C1802 1.234 . S
O1825 Mn1800 2.209 . S
O1825 Mn1801 2.215 . S
O1825 C1802 1.283 . S
O1826 Mn1800 2.094 . S
O1826 C1804 1.240 . S
O1827 Mn1801 2.117 . S
O1827 C1804 1.264 . S
C1828 C1821 1.403 . S
C1828 C1829 1.399 . S
C1828 H1834 0.929 . S
C1829 C1809 1.449 . S
C1829 C1828 1.399 . S
C1829 H1835 0.930 . S
H1830 C1810 0.931 . S
H1831 C1811 0.930 . S
H1832 C1819 0.931 . S
H1833 C1820 0.929 . S
H1834 C1828 0.929 . S
H1835 C1829 0.930 . S
Mn1836 O1841 2.095 . S
Mn1836 O1851 2.162 . S
Mn1836 O1852 2.297 . S
Mn1836 O1860 2.385 . S
Mn1836 O1861 2.209 . S
Mn1836 O1862 2.094 . S
Mn1837 O1842 2.121 . S
Mn1837 N1844 2.257 . S
Mn1837 N1853 2.282 . S
Mn1837 O1861 2.215 . S
Mn1837 O1863 2.117 . S
C1838 O1860 1.234 . S
C1838 O1861 1.283 . S
C1839 O1851 1.281 . S
C1839 O1852 1.236 . S
C1840 O1862 1.240 . S
C1840 O1863 1.264 . S
O1841 Mn1836 2.095 . S
O1841 C1850 1.250 . S
O1842 Mn1837 2.121 . S
O1842 C1850 1.258 . S
C1843 N1844 1.326 . S
C1843 C1847 1.460 . S
C1843 H1849 0.929 . S
N1844 Mn1837 2.257 . S
N1844 C1843 1.326 . S
N1844 C1848 1.362 . S
C1845 C1846 1.258 . S
C1845 C1848 1.431 . S
C1845 C1865 1.449 . S
C1846 C1845 1.258 . S
C1846 C1847 1.477 . S
C1846 H1866 0.931 . S
C1847 C1843 1.460 . S
C1847 C1846 1.477 . S
C1847 H1867 0.930 . S
C1848 N1844 1.362 . S
C1848 C1845 1.431 . S
C1848 C1858 1.476 . S
H1849 C1843 0.929 . S
C1850 O1841 1.250 . S
C1850 O1842 1.258 . S
O1851 Mn1836 2.162 . S
O1851 C1839 1.281 . S
O1852 Mn1836 2.297 . S
O1852 C1839 1.236 . S
N1853 Mn1837 2.282 . S
N1853 C1854 1.328 . S
N1853 C1858 1.318 . S
C1854 N1853 1.328 . S
C1854 C1855 1.457 . S
C1854 H1859 0.929 . S
C1855 C1854 1.457 . S
C1855 C1856 1.291 . S
C1855 H1868 0.931 . S
C1856 C1855 1.291 . S
C1856 C1857 1.373 . S
C1856 H1869 0.929 . S
C1857 C1856 1.373 . S
C1857 C1858 1.396 . S
C1857 C1864 1.403 . S
C1858 C1848 1.476 . S
C1858 N1853 1.318 . S
C1858 C1857 1.396 . S
H1859 C1854 0.929 . S
O1860 Mn1836 2.385 . S
O1860 C1838 1.234 . S
O1861 Mn1836 2.209 . S
O1861 Mn1837 2.215 . S
O1861 C1838 1.283 . S
O1862 Mn1836 2.094 . S
O1862 C1840 1.240 . S
O1863 Mn1837 2.117 . S
O1863 C1840 1.264 . S
C1864 C1857 1.403 . S
C1864 C1865 1.399 . S
C1864 H1870 0.929 . S
C1865 C1845 1.449 . S
C1865 C1864 1.399 . S
C1865 H1871 0.930 . S
H1866 C1846 0.931 . S
H1867 C1847 0.930 . S
H1868 C1855 0.931 . S
H1869 C1856 0.929 . S
H1870 C1864 0.929 . S
H1871 C1865 0.930 . S
Mn1872 O1877 2.095 . S
Mn1872 O1887 2.162 . S
Mn1872 O1888 2.297 . S
Mn1872 O1896 2.385 . S
Mn1872 O1897 2.209 . S
Mn1872 O1898 2.094 . S
Mn1873 O1878 2.121 . S
Mn1873 N1880 2.257 . S
Mn1873 N1889 2.282 . S
Mn1873 O1897 2.215 . S
Mn1873 O1899 2.117 . S
C1874 O1896 1.234 . S
C1874 O1897 1.283 . S
C1875 O1887 1.281 . S
C1875 O1888 1.236 . S
C1876 O1898 1.240 . S
C1876 O1899 1.264 . S
O1877 Mn1872 2.095 . S
O1877 C1886 1.250 . S
O1878 Mn1873 2.121 . S
O1878 C1886 1.258 . S
C1879 N1880 1.326 . S
C1879 C1883 1.460 . S
C1879 H1885 0.929 . S
N1880 Mn1873 2.257 . S
N1880 C1879 1.326 . S
N1880 C1884 1.362 . S
C1881 C1882 1.258 . S
C1881 C1884 1.431 . S
C1881 C1901 1.449 . S
C1882 C1881 1.258 . S
C1882 C1883 1.477 . S
C1882 H1902 0.931 . S
C1883 C1879 1.460 . S
C1883 C1882 1.477 . S
C1883 H1903 0.930 . S
C1884 N1880 1.362 . S
C1884 C1881 1.431 . S
C1884 C1894 1.476 . S
H1885 C1879 0.929 . S
C1886 O1877 1.250 . S
C1886 O1878 1.258 . S
O1887 Mn1872 2.162 . S
O1887 C1875 1.281 . S
O1888 Mn1872 2.297 . S
O1888 C1875 1.236 . S
N1889 Mn1873 2.282 . S
N1889 C1890 1.328 . S
N1889 C1894 1.318 . S
C1890 N1889 1.328 . S
C1890 C1891 1.457 . S
C1890 H1895 0.929 . S
C1891 C1890 1.457 . S
C1891 C1892 1.291 . S
C1891 H1904 0.931 . S
C1892 C1891 1.291 . S
C1892 C1893 1.373 . S
C1892 H1905 0.929 . S
C1893 C1892 1.373 . S
C1893 C1894 1.396 . S
C1893 C1900 1.403 . S
C1894 C1884 1.476 . S
C1894 N1889 1.318 . S
C1894 C1893 1.396 . S
H1895 C1890 0.929 . S
O1896 Mn1872 2.385 . S
O1896 C1874 1.234 . S
O1897 Mn1872 2.209 . S
O1897 Mn1873 2.215 . S
O1897 C1874 1.283 . S
O1898 Mn1872 2.094 . S
O1898 C1876 1.240 . S
O1899 Mn1873 2.117 . S
O1899 C1876 1.264 . S
C1900 C1893 1.403 . S
C1900 C1901 1.399 . S
C1900 H1906 0.929 . S
C1901 C1881 1.449 . S
C1901 C1900 1.399 . S
C1901 H1907 0.930 . S
H1902 C1882 0.931 . S
H1903 C1883 0.930 . S
H1904 C1891 0.931 . S
H1905 C1892 0.929 . S
H1906 C1900 0.929 . S
H1907 C1901 0.930 . S
Mn1908 O1913 2.095 . S
Mn1908 O1923 2.162 . S
Mn1908 O1924 2.297 . S
Mn1908 O1932 2.385 . S
Mn1908 O1933 2.209 . S
Mn1908 O1934 2.094 . S
Mn1909 O1914 2.121 . S
Mn1909 N1916 2.257 . S
Mn1909 N1925 2.282 . S
Mn1909 O1933 2.215 . S
Mn1909 O1935 2.117 . S
C1910 O1932 1.234 . S
C1910 O1933 1.283 . S
C1911 O1923 1.281 . S
C1911 O1924 1.236 . S
C1912 O1934 1.240 . S
C1912 O1935 1.264 . S
O1913 Mn1908 2.095 . S
O1913 C1922 1.250 . S
O1914 Mn1909 2.121 . S
O1914 C1922 1.258 . S
C1915 N1916 1.326 . S
C1915 C1919 1.460 . S
C1915 H1921 0.929 . S
N1916 Mn1909 2.257 . S
N1916 C1915 1.326 . S
N1916 C1920 1.362 . S
C1917 C1918 1.258 . S
C1917 C1920 1.431 . S
C1917 C1937 1.449 . S
C1918 C1917 1.258 . S
C1918 C1919 1.477 . S
C1918 H1938 0.931 . S
C1919 C1915 1.460 . S
C1919 C1918 1.477 . S
C1919 H1939 0.930 . S
C1920 N1916 1.362 . S
C1920 C1917 1.431 . S
C1920 C1930 1.476 . S
H1921 C1915 0.929 . S
C1922 O1913 1.250 . S
C1922 O1914 1.258 . S
O1923 Mn1908 2.162 . S
O1923 C1911 1.281 . S
O1924 Mn1908 2.297 . S
O1924 C1911 1.236 . S
N1925 Mn1909 2.282 . S
N1925 C1926 1.328 . S
N1925 C1930 1.318 . S
C1926 N1925 1.328 . S
C1926 C1927 1.457 . S
C1926 H1931 0.929 . S
C1927 C1926 1.457 . S
C1927 C1928 1.291 . S
C1927 H1940 0.931 . S
C1928 C1927 1.291 . S
C1928 C1929 1.373 . S
C1928 H1941 0.929 . S
C1929 C1928 1.373 . S
C1929 C1930 1.396 . S
C1929 C1936 1.403 . S
C1930 C1920 1.476 . S
C1930 N1925 1.318 . S
C1930 C1929 1.396 . S
H1931 C1926 0.929 . S
O1932 Mn1908 2.385 . S
O1932 C1910 1.234 . S
O1933 Mn1908 2.209 . S
O1933 Mn1909 2.215 . S
O1933 C1910 1.283 . S
O1934 Mn1908 2.094 . S
O1934 C1912 1.240 . S
O1935 Mn1909 2.117 . S
O1935 C1912 1.264 . S
C1936 C1929 1.403 . S
C1936 C1937 1.399 . S
C1936 H1942 0.929 . S
C1937 C1917 1.449 . S
C1937 C1936 1.399 . S
C1937 H1943 0.930 . S
H1938 C1918 0.931 . S
H1939 C1919 0.930 . S
H1940 C1927 0.931 . S
H1941 C1928 0.929 . S
H1942 C1936 0.929 . S
H1943 C1937 0.930 . S
Mn1944 O1949 2.095 . S
Mn1944 O1959 2.162 1_545 S
Mn1944 O1960 2.297 . S
Mn1944 O1968 2.385 . S
Mn1944 O1969 2.209 . S
Mn1944 O1970 2.094 . S
Mn1945 O1950 2.121 . S
Mn1945 N1952 2.257 . S
Mn1945 N1961 2.282 . S
Mn1945 O1969 2.215 . S
Mn1945 O1971 2.117 . S
C1946 O1968 1.234 . S
C1946 O1969 1.283 . S
C1947 O1959 1.272 1_545 S
C1947 O1960 1.257 . S
C1948 O1970 1.240 . S
C1948 O1971 1.264 . S
O1949 Mn1944 2.095 . S
O1949 C1958 1.250 . S
O1950 Mn1945 2.121 . S
O1950 C1958 1.258 . S
C1951 N1952 1.326 . S
C1951 C1955 1.460 . S
C1951 H1957 0.929 . S
N1952 Mn1945 2.257 . S
N1952 C1951 1.326 . S
N1952 C1956 1.362 . S
C1953 C1954 1.258 . S
C1953 C1956 1.431 . S
C1953 C1973 1.449 . S
C1954 C1953 1.258 . S
C1954 C1955 1.477 . S
C1954 H1974 0.931 . S
C1955 C1951 1.460 . S
C1955 C1954 1.477 . S
C1955 H1975 0.930 . S
C1956 N1952 1.362 . S
C1956 C1953 1.431 . S
C1956 C1966 1.476 . S
H1957 C1951 0.929 . S
C1958 O1949 1.250 . S
C1958 O1950 1.258 . S
O1959 Mn1944 2.162 1_565 S
O1959 C1947 1.272 1_565 S
O1960 Mn1944 2.297 . S
O1960 C1947 1.257 . S
N1961 Mn1945 2.282 . S
N1961 C1962 1.328 . S
N1961 C1966 1.318 . S
C1962 N1961 1.328 . S
C1962 C1963 1.457 . S
C1962 H1967 0.929 . S
C1963 C1962 1.457 . S
C1963 C1964 1.291 . S
C1963 H1976 0.931 . S
C1964 C1963 1.291 . S
C1964 C1965 1.373 . S
C1964 H1977 0.929 . S
C1965 C1964 1.373 . S
C1965 C1966 1.396 . S
C1965 C1972 1.403 . S
C1966 C1956 1.476 . S
C1966 N1961 1.318 . S
C1966 C1965 1.396 . S
H1967 C1962 0.929 . S
O1968 Mn1944 2.385 . S
O1968 C1946 1.234 . S
O1969 Mn1944 2.209 . S
O1969 Mn1945 2.215 . S
O1969 C1946 1.283 . S
O1970 Mn1944 2.094 . S
O1970 C1948 1.240 . S
O1971 Mn1945 2.117 . S
O1971 C1948 1.264 . S
C1972 C1965 1.403 . S
C1972 C1973 1.399 . S
C1972 H1978 0.929 . S
C1973 C1953 1.449 . S
C1973 C1972 1.399 . S
C1973 H1979 0.930 . S
H1974 C1954 0.931 . S
H1975 C1955 0.930 . S
H1976 C1963 0.931 . S
H1977 C1964 0.929 . S
H1978 C1972 0.929 . S
H1979 C1973 0.930 . S
Mn1980 O1985 2.095 . S
Mn1980 O1995 2.162 . S
Mn1980 O1996 2.297 . S
Mn1980 O2004 2.385 . S
Mn1980 O2005 2.209 . S
Mn1980 O2006 2.094 . S
Mn1981 O1986 2.121 . S
Mn1981 N1988 2.257 . S
Mn1981 N1997 2.282 . S
Mn1981 O2005 2.215 . S
Mn1981 O2007 2.117 . S
C1982 O2004 1.234 . S
C1982 O2005 1.283 . S
C1983 O1995 1.281 . S
C1983 O1996 1.236 . S
C1984 O2006 1.240 . S
C1984 O2007 1.264 . S
O1985 Mn1980 2.095 . S
O1985 C1994 1.250 . S
O1986 Mn1981 2.121 . S
O1986 C1994 1.258 . S
C1987 N1988 1.326 . S
C1987 C1991 1.460 . S
C1987 H1993 0.929 . S
N1988 Mn1981 2.257 . S
N1988 C1987 1.326 . S
N1988 C1992 1.362 . S
C1989 C1990 1.258 . S
C1989 C1992 1.431 . S
C1989 C2009 1.449 . S
C1990 C1989 1.258 . S
C1990 C1991 1.477 . S
C1990 H2010 0.931 . S
C1991 C1987 1.460 . S
C1991 C1990 1.477 . S
C1991 H2011 0.930 . S
C1992 N1988 1.362 . S
C1992 C1989 1.431 . S
C1992 C2002 1.476 . S
H1993 C1987 0.929 . S
C1994 O1985 1.250 . S
C1994 O1986 1.258 . S
O1995 Mn1980 2.162 . S
O1995 C1983 1.281 . S
O1996 Mn1980 2.297 . S
O1996 C1983 1.236 . S
N1997 Mn1981 2.282 . S
N1997 C1998 1.328 . S
N1997 C2002 1.318 . S
C1998 N1997 1.328 . S
C1998 C1999 1.457 . S
C1998 H2003 0.929 . S
C1999 C1998 1.457 . S
C1999 C2000 1.291 . S
C1999 H2012 0.931 . S
C2000 C1999 1.291 . S
C2000 C2001 1.373 . S
C2000 H2013 0.929 . S
C2001 C2000 1.373 . S
C2001 C2002 1.396 . S
C2001 C2008 1.403 . S
C2002 C1992 1.476 . S
C2002 N1997 1.318 . S
C2002 C2001 1.396 . S
H2003 C1998 0.929 . S
O2004 Mn1980 2.385 . S
O2004 C1982 1.234 . S
O2005 Mn1980 2.209 . S
O2005 Mn1981 2.215 . S
O2005 C1982 1.283 . S
O2006 Mn1980 2.094 . S
O2006 C1984 1.240 . S
O2007 Mn1981 2.117 . S
O2007 C1984 1.264 . S
C2008 C2001 1.403 . S
C2008 C2009 1.399 . S
C2008 H2014 0.929 . S
C2009 C1989 1.449 . S
C2009 C2008 1.399 . S
C2009 H2015 0.930 . S
H2010 C1990 0.931 . S
H2011 C1991 0.930 . S
H2012 C1999 0.931 . S
H2013 C2000 0.929 . S
H2014 C2008 0.929 . S
H2015 C2009 0.930 . S
Mn2016 O2021 2.095 . S
Mn2016 O2031 2.162 1_554 S
Mn2016 O2032 2.297 . S
Mn2016 O2040 2.385 . S
Mn2016 O2041 2.209 . S
Mn2016 O2042 2.094 . S
Mn2017 O2022 2.121 . S
Mn2017 N2024 2.257 . S
Mn2017 N2033 2.282 . S
Mn2017 O2041 2.215 . S
Mn2017 O2043 2.117 . S
C2018 O2040 1.234 . S
C2018 O2041 1.283 . S
C2019 O2031 1.272 1_554 S
C2019 O2032 1.257 . S
C2020 O2042 1.240 . S
C2020 O2043 1.264 . S
O2021 Mn2016 2.095 . S
O2021 C2030 1.250 . S
O2022 Mn2017 2.121 . S
O2022 C2030 1.258 . S
C2023 N2024 1.326 . S
C2023 C2027 1.460 . S
C2023 H2029 0.929 . S
N2024 Mn2017 2.257 . S
N2024 C2023 1.326 . S
N2024 C2028 1.362 . S
C2025 C2026 1.258 . S
C2025 C2028 1.431 . S
C2025 C2045 1.449 . S
C2026 C2025 1.258 . S
C2026 C2027 1.477 . S
C2026 H2046 0.931 . S
C2027 C2023 1.460 . S
C2027 C2026 1.477 . S
C2027 H2047 0.930 . S
C2028 N2024 1.362 . S
C2028 C2025 1.431 . S
C2028 C2038 1.476 . S
H2029 C2023 0.929 . S
C2030 O2021 1.250 . S
C2030 O2022 1.258 . S
O2031 Mn2016 2.162 1_556 S
O2031 C2019 1.272 1_556 S
O2032 Mn2016 2.297 . S
O2032 C2019 1.257 . S
N2033 Mn2017 2.282 . S
N2033 C2034 1.328 . S
N2033 C2038 1.318 . S
C2034 N2033 1.328 . S
C2034 C2035 1.457 . S
C2034 H2039 0.929 . S
C2035 C2034 1.457 . S
C2035 C2036 1.291 . S
C2035 H2048 0.931 . S
C2036 C2035 1.291 . S
C2036 C2037 1.373 . S
C2036 H2049 0.929 . S
C2037 C2036 1.373 . S
C2037 C2038 1.396 . S
C2037 C2044 1.403 . S
C2038 C2028 1.476 . S
C2038 N2033 1.318 . S
C2038 C2037 1.396 . S
H2039 C2034 0.929 . S
O2040 Mn2016 2.385 . S
O2040 C2018 1.234 . S
O2041 Mn2016 2.209 . S
O2041 Mn2017 2.215 . S
O2041 C2018 1.283 . S
O2042 Mn2016 2.094 . S
O2042 C2020 1.240 . S
O2043 Mn2017 2.117 . S
O2043 C2020 1.264 . S
C2044 C2037 1.403 . S
C2044 C2045 1.399 . S
C2044 H2050 0.929 . S
C2045 C2025 1.449 . S
C2045 C2044 1.399 . S
C2045 H2051 0.930 . S
H2046 C2026 0.931 . S
H2047 C2027 0.930 . S
H2048 C2035 0.931 . S
H2049 C2036 0.929 . S
H2050 C2044 0.929 . S
H2051 C2045 0.930 . S
Mn2052 O2057 2.095 . S
Mn2052 O2067 2.162 . S
Mn2052 O2068 2.297 . S
Mn2052 O2076 2.385 . S
Mn2052 O2077 2.209 . S
Mn2052 O2078 2.094 . S
Mn2053 O2058 2.121 . S
Mn2053 N2060 2.257 . S
Mn2053 N2069 2.282 . S
Mn2053 O2077 2.215 . S
Mn2053 O2079 2.117 . S
C2054 O2076 1.234 . S
C2054 O2077 1.283 . S
C2055 O2067 1.281 . S
C2055 O2068 1.236 . S
C2056 O2078 1.240 . S
C2056 O2079 1.264 . S
O2057 Mn2052 2.095 . S
O2057 C2066 1.250 . S
O2058 Mn2053 2.121 . S
O2058 C2066 1.258 . S
C2059 N2060 1.326 . S
C2059 C2063 1.460 . S
C2059 H2065 0.929 . S
N2060 Mn2053 2.257 . S
N2060 C2059 1.326 . S
N2060 C2064 1.362 . S
C2061 C2062 1.258 . S
C2061 C2064 1.431 . S
C2061 C2081 1.449 . S
C2062 C2061 1.258 . S
C2062 C2063 1.477 . S
C2062 H2082 0.931 . S
C2063 C2059 1.460 . S
C2063 C2062 1.477 . S
C2063 H2083 0.930 . S
C2064 N2060 1.362 . S
C2064 C2061 1.431 . S
C2064 C2074 1.476 . S
H2065 C2059 0.929 . S
C2066 O2057 1.250 . S
C2066 O2058 1.258 . S
O2067 Mn2052 2.162 . S
O2067 C2055 1.281 . S
O2068 Mn2052 2.297 . S
O2068 C2055 1.236 . S
N2069 Mn2053 2.282 . S
N2069 C2070 1.328 . S
N2069 C2074 1.318 . S
C2070 N2069 1.328 . S
C2070 C2071 1.457 . S
C2070 H2075 0.929 . S
C2071 C2070 1.457 . S
C2071 C2072 1.291 . S
C2071 H2084 0.931 . S
C2072 C2071 1.291 . S
C2072 C2073 1.373 . S
C2072 H2085 0.929 . S
C2073 C2072 1.373 . S
C2073 C2074 1.396 . S
C2073 C2080 1.403 . S
C2074 C2064 1.476 . S
C2074 N2069 1.318 . S
C2074 C2073 1.396 . S
H2075 C2070 0.929 . S
O2076 Mn2052 2.385 . S
O2076 C2054 1.234 . S
O2077 Mn2052 2.209 . S
O2077 Mn2053 2.215 . S
O2077 C2054 1.283 . S
O2078 Mn2052 2.094 . S
O2078 C2056 1.240 . S
O2079 Mn2053 2.117 . S
O2079 C2056 1.264 . S
C2080 C2073 1.403 . S
C2080 C2081 1.399 . S
C2080 H2086 0.929 . S
C2081 C2061 1.449 . S
C2081 C2080 1.399 . S
C2081 H2087 0.930 . S
H2082 C2062 0.931 . S
H2083 C2063 0.930 . S
H2084 C2071 0.931 . S
H2085 C2072 0.929 . S
H2086 C2080 0.929 . S
H2087 C2081 0.930 . S
Mn2088 O2093 2.095 . S
Mn2088 O2103 2.162 . S
Mn2088 O2104 2.297 . S
Mn2088 O2112 2.385 . S
Mn2088 O2113 2.209 . S
Mn2088 O2114 2.094 . S
Mn2089 O2094 2.121 . S
Mn2089 N2096 2.257 . S
Mn2089 N2105 2.282 . S
Mn2089 O2113 2.215 . S
Mn2089 O2115 2.117 . S
C2090 O2112 1.234 . S
C2090 O2113 1.283 . S
C2091 O2103 1.281 . S
C2091 O2104 1.236 . S
C2092 O2114 1.240 . S
C2092 O2115 1.264 . S
O2093 Mn2088 2.095 . S
O2093 C2102 1.250 . S
O2094 Mn2089 2.121 . S
O2094 C2102 1.258 . S
C2095 N2096 1.326 . S
C2095 C2099 1.460 . S
C2095 H2101 0.929 . S
N2096 Mn2089 2.257 . S
N2096 C2095 1.326 . S
N2096 C2100 1.362 . S
C2097 C2098 1.258 . S
C2097 C2100 1.431 . S
C2097 C2117 1.449 . S
C2098 C2097 1.258 . S
C2098 C2099 1.477 . S
C2098 H2118 0.931 . S
C2099 C2095 1.460 . S
C2099 C2098 1.477 . S
C2099 H2119 0.930 . S
C2100 N2096 1.362 . S
C2100 C2097 1.431 . S
C2100 C2110 1.476 . S
H2101 C2095 0.929 . S
C2102 O2093 1.250 . S
C2102 O2094 1.258 . S
O2103 Mn2088 2.162 . S
O2103 C2091 1.281 . S
O2104 Mn2088 2.297 . S
O2104 C2091 1.236 . S
N2105 Mn2089 2.282 . S
N2105 C2106 1.328 . S
N2105 C2110 1.318 . S
C2106 N2105 1.328 . S
C2106 C2107 1.457 . S
C2106 H2111 0.929 . S
C2107 C2106 1.457 . S
C2107 C2108 1.291 . S
C2107 H2120 0.931 . S
C2108 C2107 1.291 . S
C2108 C2109 1.373 . S
C2108 H2121 0.929 . S
C2109 C2108 1.373 . S
C2109 C2110 1.396 . S
C2109 C2116 1.403 . S
C2110 C2100 1.476 . S
C2110 N2105 1.318 . S
C2110 C2109 1.396 . S
H2111 C2106 0.929 . S
O2112 Mn2088 2.385 . S
O2112 C2090 1.234 . S
O2113 Mn2088 2.209 . S
O2113 Mn2089 2.215 . S
O2113 C2090 1.283 . S
O2114 Mn2088 2.094 . S
O2114 C2092 1.240 . S
O2115 Mn2089 2.117 . S
O2115 C2092 1.264 . S
C2116 C2109 1.403 . S
C2116 C2117 1.399 . S
C2116 H2122 0.929 . S
C2117 C2097 1.449 . S
C2117 C2116 1.399 . S
C2117 H2123 0.930 . S
H2118 C2098 0.931 . S
H2119 C2099 0.930 . S
H2120 C2107 0.931 . S
H2121 C2108 0.929 . S
H2122 C2116 0.929 . S
H2123 C2117 0.930 . S
Mn2124 O2129 2.095 . S
Mn2124 O2139 2.162 . S
Mn2124 O2140 2.297 . S
Mn2124 O2148 2.385 . S
Mn2124 O2149 2.209 . S
Mn2124 O2150 2.094 . S
Mn2125 O2130 2.121 . S
Mn2125 N2132 2.257 . S
Mn2125 N2141 2.282 . S
Mn2125 O2149 2.215 . S
Mn2125 O2151 2.117 . S
C2126 O2148 1.234 . S
C2126 O2149 1.283 . S
C2127 O2139 1.281 . S
C2127 O2140 1.236 . S
C2128 O2150 1.240 . S
C2128 O2151 1.264 . S
O2129 Mn2124 2.095 . S
O2129 C2138 1.250 . S
O2130 Mn2125 2.121 . S
O2130 C2138 1.258 . S
C2131 N2132 1.326 . S
C2131 C2135 1.460 . S
C2131 H2137 0.929 . S
N2132 Mn2125 2.257 . S
N2132 C2131 1.326 . S
N2132 C2136 1.362 . S
C2133 C2134 1.258 . S
C2133 C2136 1.431 . S
C2133 C2153 1.449 . S
C2134 C2133 1.258 . S
C2134 C2135 1.477 . S
C2134 H2154 0.931 . S
C2135 C2131 1.460 . S
C2135 C2134 1.477 . S
C2135 H2155 0.930 . S
C2136 N2132 1.362 . S
C2136 C2133 1.431 . S
C2136 C2146 1.476 . S
H2137 C2131 0.929 . S
C2138 O2129 1.250 . S
C2138 O2130 1.258 . S
O2139 Mn2124 2.162 . S
O2139 C2127 1.281 . S
O2140 Mn2124 2.297 . S
O2140 C2127 1.236 . S
N2141 Mn2125 2.282 . S
N2141 C2142 1.328 . S
N2141 C2146 1.318 . S
C2142 N2141 1.328 . S
C2142 C2143 1.457 . S
C2142 H2147 0.929 . S
C2143 C2142 1.457 . S
C2143 C2144 1.291 . S
C2143 H2156 0.931 . S
C2144 C2143 1.291 . S
C2144 C2145 1.373 . S
C2144 H2157 0.929 . S
C2145 C2144 1.373 . S
C2145 C2146 1.396 . S
C2145 C2152 1.403 . S
C2146 C2136 1.476 . S
C2146 N2141 1.318 . S
C2146 C2145 1.396 . S
H2147 C2142 0.929 . S
O2148 Mn2124 2.385 . S
O2148 C2126 1.234 . S
O2149 Mn2124 2.209 . S
O2149 Mn2125 2.215 . S
O2149 C2126 1.283 . S
O2150 Mn2124 2.094 . S
O2150 C2128 1.240 . S
O2151 Mn2125 2.117 . S
O2151 C2128 1.264 . S
C2152 C2145 1.403 . S
C2152 C2153 1.399 . S
C2152 H2158 0.929 . S
C2153 C2133 1.449 . S
C2153 C2152 1.399 . S
C2153 H2159 0.930 . S
H2154 C2134 0.931 . S
H2155 C2135 0.930 . S
H2156 C2143 0.931 . S
H2157 C2144 0.929 . S
H2158 C2152 0.929 . S
H2159 C2153 0.930 . S
Mn2160 O2165 2.095 . S
Mn2160 O2175 2.162 1_556 S
Mn2160 O2176 2.297 . S
Mn2160 O2184 2.385 . S
Mn2160 O2185 2.209 . S
Mn2160 O2186 2.094 . S
Mn2161 O2166 2.121 . S
Mn2161 N2168 2.257 . S
Mn2161 N2177 2.282 . S
Mn2161 O2185 2.215 . S
Mn2161 O2187 2.117 . S
C2162 O2184 1.234 . S
C2162 O2185 1.283 . S
C2163 O2175 1.272 1_556 S
C2163 O2176 1.257 . S
C2164 O2186 1.240 . S
C2164 O2187 1.264 . S
O2165 Mn2160 2.095 . S
O2165 C2174 1.250 . S
O2166 Mn2161 2.121 . S
O2166 C2174 1.258 . S
C2167 N2168 1.326 . S
C2167 C2171 1.460 . S
C2167 H2173 0.929 . S
N2168 Mn2161 2.257 . S
N2168 C2167 1.326 . S
N2168 C2172 1.362 . S
C2169 C2170 1.258 . S
C2169 C2172 1.431 . S
C2169 C2189 1.449 . S
C2170 C2169 1.258 . S
C2170 C2171 1.477 . S
C2170 H2190 0.931 . S
C2171 C2167 1.460 . S
C2171 C2170 1.477 . S
C2171 H2191 0.930 . S
C2172 N2168 1.362 . S
C2172 C2169 1.431 . S
C2172 C2182 1.476 . S
H2173 C2167 0.929 . S
C2174 O2165 1.250 . S
C2174 O2166 1.258 . S
O2175 Mn2160 2.162 1_554 S
O2175 C2163 1.272 1_554 S
O2176 Mn2160 2.297 . S
O2176 C2163 1.257 . S
N2177 Mn2161 2.282 . S
N2177 C2178 1.328 . S
N2177 C2182 1.318 . S
C2178 N2177 1.328 . S
C2178 C2179 1.457 . S
C2178 H2183 0.929 . S
C2179 C2178 1.457 . S
C2179 C2180 1.291 . S
C2179 H2192 0.931 . S
C2180 C2179 1.291 . S
C2180 C2181 1.373 . S
C2180 H2193 0.929 . S
C2181 C2180 1.373 . S
C2181 C2182 1.396 . S
C2181 C2188 1.403 . S
C2182 C2172 1.476 . S
C2182 N2177 1.318 . S
C2182 C2181 1.396 . S
H2183 C2178 0.929 . S
O2184 Mn2160 2.385 . S
O2184 C2162 1.234 . S
O2185 Mn2160 2.209 . S
O2185 Mn2161 2.215 . S
O2185 C2162 1.283 . S
O2186 Mn2160 2.094 . S
O2186 C2164 1.240 . S
O2187 Mn2161 2.117 . S
O2187 C2164 1.264 . S
C2188 C2181 1.403 . S
C2188 C2189 1.399 . S
C2188 H2194 0.929 . S
C2189 C2169 1.449 . S
C2189 C2188 1.399 . S
C2189 H2195 0.930 . S
H2190 C2170 0.931 . S
H2191 C2171 0.930 . S
H2192 C2179 0.931 . S
H2193 C2180 0.929 . S
H2194 C2188 0.929 . S
H2195 C2189 0.930 . S
Mn2196 O2201 2.095 . S
Mn2196 O2211 2.162 . S
Mn2196 O2212 2.297 . S
Mn2196 O2220 2.385 . S
Mn2196 O2221 2.209 . S
Mn2196 O2222 2.094 . S
Mn2197 O2202 2.121 . S
Mn2197 N2204 2.257 . S
Mn2197 N2213 2.282 . S
Mn2197 O2221 2.215 . S
Mn2197 O2223 2.117 . S
C2198 O2220 1.234 . S
C2198 O2221 1.283 . S
C2199 O2211 1.281 . S
C2199 O2212 1.236 . S
C2200 O2222 1.240 . S
C2200 O2223 1.264 . S
O2201 Mn2196 2.095 . S
O2201 C2210 1.250 . S
O2202 Mn2197 2.121 . S
O2202 C2210 1.258 . S
C2203 N2204 1.326 . S
C2203 C2207 1.460 . S
C2203 H2209 0.929 . S
N2204 Mn2197 2.257 . S
N2204 C2203 1.326 . S
N2204 C2208 1.362 . S
C2205 C2206 1.258 . S
C2205 C2208 1.431 . S
C2205 C2225 1.449 . S
C2206 C2205 1.258 . S
C2206 C2207 1.477 . S
C2206 H2226 0.931 . S
C2207 C2203 1.460 . S
C2207 C2206 1.477 . S
C2207 H2227 0.930 . S
C2208 N2204 1.362 . S
C2208 C2205 1.431 . S
C2208 C2218 1.476 . S
H2209 C2203 0.929 . S
C2210 O2201 1.250 . S
C2210 O2202 1.258 . S
O2211 Mn2196 2.162 . S
O2211 C2199 1.281 . S
O2212 Mn2196 2.297 . S
O2212 C2199 1.236 . S
N2213 Mn2197 2.282 . S
N2213 C2214 1.328 . S
N2213 C2218 1.318 . S
C2214 N2213 1.328 . S
C2214 C2215 1.457 . S
C2214 H2219 0.929 . S
C2215 C2214 1.457 . S
C2215 C2216 1.291 . S
C2215 H2228 0.931 . S
C2216 C2215 1.291 . S
C2216 C2217 1.373 . S
C2216 H2229 0.929 . S
C2217 C2216 1.373 . S
C2217 C2218 1.396 . S
C2217 C2224 1.403 . S
C2218 C2208 1.476 . S
C2218 N2213 1.318 . S
C2218 C2217 1.396 . S
H2219 C2214 0.929 . S
O2220 Mn2196 2.385 . S
O2220 C2198 1.234 . S
O2221 Mn2196 2.209 . S
O2221 Mn2197 2.215 . S
O2221 C2198 1.283 . S
O2222 Mn2196 2.094 . S
O2222 C2200 1.240 . S
O2223 Mn2197 2.117 . S
O2223 C2200 1.264 . S
C2224 C2217 1.403 . S
C2224 C2225 1.399 . S
C2224 H2230 0.929 . S
C2225 C2205 1.449 . S
C2225 C2224 1.399 . S
C2225 H2231 0.930 . S
H2226 C2206 0.931 . S
H2227 C2207 0.930 . S
H2228 C2215 0.931 . S
H2229 C2216 0.929 . S
H2230 C2224 0.929 . S
H2231 C2225 0.930 . S
Mn2232 O2237 2.095 . S
Mn2232 O2247 2.162 . S
Mn2232 O2248 2.297 . S
Mn2232 O2256 2.385 . S
Mn2232 O2257 2.209 . S
Mn2232 O2258 2.094 . S
Mn2233 O2238 2.121 . S
Mn2233 N2240 2.257 . S
Mn2233 N2249 2.282 . S
Mn2233 O2257 2.215 . S
Mn2233 O2259 2.117 . S
C2234 O2256 1.234 . S
C2234 O2257 1.283 . S
C2235 O2247 1.281 . S
C2235 O2248 1.236 . S
C2236 O2258 1.240 . S
C2236 O2259 1.264 . S
O2237 Mn2232 2.095 . S
O2237 C2246 1.250 . S
O2238 Mn2233 2.121 . S
O2238 C2246 1.258 . S
C2239 N2240 1.326 . S
C2239 C2243 1.460 . S
C2239 H2245 0.929 . S
N2240 Mn2233 2.257 . S
N2240 C2239 1.326 . S
N2240 C2244 1.362 . S
C2241 C2242 1.258 . S
C2241 C2244 1.431 . S
C2241 C2261 1.449 . S
C2242 C2241 1.258 . S
C2242 C2243 1.477 . S
C2242 H2262 0.931 . S
C2243 C2239 1.460 . S
C2243 C2242 1.477 . S
C2243 H2263 0.930 . S
C2244 N2240 1.362 . S
C2244 C2241 1.431 . S
C2244 C2254 1.476 . S
H2245 C2239 0.929 . S
C2246 O2237 1.250 . S
C2246 O2238 1.258 . S
O2247 Mn2232 2.162 . S
O2247 C2235 1.281 . S
O2248 Mn2232 2.297 . S
O2248 C2235 1.236 . S
N2249 Mn2233 2.282 . S
N2249 C2250 1.328 . S
N2249 C2254 1.318 . S
C2250 N2249 1.328 . S
C2250 C2251 1.457 . S
C2250 H2255 0.929 . S
C2251 C2250 1.457 . S
C2251 C2252 1.291 . S
C2251 H2264 0.931 . S
C2252 C2251 1.291 . S
C2252 C2253 1.373 . S
C2252 H2265 0.929 . S
C2253 C2252 1.373 . S
C2253 C2254 1.396 . S
C2253 C2260 1.403 . S
C2254 C2244 1.476 . S
C2254 N2249 1.318 . S
C2254 C2253 1.396 . S
H2255 C2250 0.929 . S
O2256 Mn2232 2.385 . S
O2256 C2234 1.234 . S
O2257 Mn2232 2.209 . S
O2257 Mn2233 2.215 . S
O2257 C2234 1.283 . S
O2258 Mn2232 2.094 . S
O2258 C2236 1.240 . S
O2259 Mn2233 2.117 . S
O2259 C2236 1.264 . S
C2260 C2253 1.403 . S
C2260 C2261 1.399 . S
C2260 H2266 0.929 . S
C2261 C2241 1.449 . S
C2261 C2260 1.399 . S
C2261 H2267 0.930 . S
H2262 C2242 0.931 . S
H2263 C2243 0.930 . S
H2264 C2251 0.931 . S
H2265 C2252 0.929 . S
H2266 C2260 0.929 . S
H2267 C2261 0.930 . S
Mn2268 O2273 2.095 . S
Mn2268 O2283 2.162 . S
Mn2268 O2284 2.297 . S
Mn2268 O2292 2.385 . S
Mn2268 O2293 2.209 . S
Mn2268 O2294 2.094 . S
Mn2269 O2274 2.121 . S
Mn2269 N2276 2.257 . S
Mn2269 N2285 2.282 . S
Mn2269 O2293 2.215 . S
Mn2269 O2295 2.117 . S
C2270 O2292 1.234 . S
C2270 O2293 1.283 . S
C2271 O2283 1.281 . S
C2271 O2284 1.236 . S
C2272 O2294 1.240 . S
C2272 O2295 1.264 . S
O2273 Mn2268 2.095 . S
O2273 C2282 1.250 . S
O2274 Mn2269 2.121 . S
O2274 C2282 1.258 . S
C2275 N2276 1.326 . S
C2275 C2279 1.460 . S
C2275 H2281 0.929 . S
N2276 Mn2269 2.257 . S
N2276 C2275 1.326 . S
N2276 C2280 1.362 . S
C2277 C2278 1.258 . S
C2277 C2280 1.431 . S
C2277 C2297 1.449 . S
C2278 C2277 1.258 . S
C2278 C2279 1.477 . S
C2278 H2298 0.931 . S
C2279 C2275 1.460 . S
C2279 C2278 1.477 . S
C2279 H2299 0.930 . S
C2280 N2276 1.362 . S
C2280 C2277 1.431 . S
C2280 C2290 1.476 . S
H2281 C2275 0.929 . S
C2282 O2273 1.250 . S
C2282 O2274 1.258 . S
O2283 Mn2268 2.162 . S
O2283 C2271 1.281 . S
O2284 Mn2268 2.297 . S
O2284 C2271 1.236 . S
N2285 Mn2269 2.282 . S
N2285 C2286 1.328 . S
N2285 C2290 1.318 . S
C2286 N2285 1.328 . S
C2286 C2287 1.457 . S
C2286 H2291 0.929 . S
C2287 C2286 1.457 . S
C2287 C2288 1.291 . S
C2287 H2300 0.931 . S
C2288 C2287 1.291 . S
C2288 C2289 1.373 . S
C2288 H2301 0.929 . S
C2289 C2288 1.373 . S
C2289 C2290 1.396 . S
C2289 C2296 1.403 . S
C2290 C2280 1.476 . S
C2290 N2285 1.318 . S
C2290 C2289 1.396 . S
H2291 C2286 0.929 . S
O2292 Mn2268 2.385 . S
O2292 C2270 1.234 . S
O2293 Mn2268 2.209 . S
O2293 Mn2269 2.215 . S
O2293 C2270 1.283 . S
O2294 Mn2268 2.094 . S
O2294 C2272 1.240 . S
O2295 Mn2269 2.117 . S
O2295 C2272 1.264 . S
C2296 C2289 1.403 . S
C2296 C2297 1.399 . S
C2296 H2302 0.929 . S
C2297 C2277 1.449 . S
C2297 C2296 1.399 . S
C2297 H2303 0.930 . S
H2298 C2278 0.931 . S
H2299 C2279 0.930 . S
H2300 C2287 0.931 . S
H2301 C2288 0.929 . S
H2302 C2296 0.929 . S
H2303 C2297 0.930 . S
Mn2304 O2309 2.095 . S
Mn2304 O2319 2.162 1_455 S
Mn2304 O2320 2.297 . S
Mn2304 O2328 2.385 . S
Mn2304 O2329 2.209 . S
Mn2304 O2330 2.094 . S
Mn2305 O2310 2.121 . S
Mn2305 N2312 2.257 . S
Mn2305 N2321 2.282 . S
Mn2305 O2329 2.215 . S
Mn2305 O2331 2.117 . S
C2306 O2328 1.234 . S
C2306 O2329 1.283 . S
C2307 O2319 1.272 1_455 S
C2307 O2320 1.257 . S
C2308 O2330 1.240 . S
C2308 O2331 1.264 . S
O2309 Mn2304 2.095 . S
O2309 C2318 1.250 . S
O2310 Mn2305 2.121 . S
O2310 C2318 1.258 . S
C2311 N2312 1.326 . S
C2311 C2315 1.460 . S
C2311 H2317 0.929 . S
N2312 Mn2305 2.257 . S
N2312 C2311 1.326 . S
N2312 C2316 1.362 . S
C2313 C2314 1.258 . S
C2313 C2316 1.431 . S
C2313 C2333 1.449 . S
C2314 C2313 1.258 . S
C2314 C2315 1.477 . S
C2314 H2334 0.931 . S
C2315 C2311 1.460 . S
C2315 C2314 1.477 . S
C2315 H2335 0.930 . S
C2316 N2312 1.362 . S
C2316 C2313 1.431 . S
C2316 C2326 1.476 . S
H2317 C2311 0.929 . S
C2318 O2309 1.250 . S
C2318 O2310 1.258 . S
O2319 Mn2304 2.162 1_655 S
O2319 C2307 1.272 1_655 S
O2320 Mn2304 2.297 . S
O2320 C2307 1.257 . S
N2321 Mn2305 2.282 . S
N2321 C2322 1.328 . S
N2321 C2326 1.318 . S
C2322 N2321 1.328 . S
C2322 C2323 1.457 . S
C2322 H2327 0.929 . S
C2323 C2322 1.457 . S
C2323 C2324 1.291 . S
C2323 H2336 0.931 . S
C2324 C2323 1.291 . S
C2324 C2325 1.373 . S
C2324 H2337 0.929 . S
C2325 C2324 1.373 . S
C2325 C2326 1.396 . S
C2325 C2332 1.403 . S
C2326 C2316 1.476 . S
C2326 N2321 1.318 . S
C2326 C2325 1.396 . S
H2327 C2322 0.929 . S
O2328 Mn2304 2.385 . S
O2328 C2306 1.234 . S
O2329 Mn2304 2.209 . S
O2329 Mn2305 2.215 . S
O2329 C2306 1.283 . S
O2330 Mn2304 2.094 . S
O2330 C2308 1.240 . S
O2331 Mn2305 2.117 . S
O2331 C2308 1.264 . S
C2332 C2325 1.403 . S
C2332 C2333 1.399 . S
C2332 H2338 0.929 . S
C2333 C2313 1.449 . S
C2333 C2332 1.399 . S
C2333 H2339 0.930 . S
H2334 C2314 0.931 . S
H2335 C2315 0.930 . S
H2336 C2323 0.931 . S
H2337 C2324 0.929 . S
H2338 C2332 0.929 . S
H2339 C2333 0.930 . S
Mn2340 O2345 2.095 . S
Mn2340 O2355 2.162 . S
Mn2340 O2356 2.297 . S
Mn2340 O2364 2.385 . S
Mn2340 O2365 2.209 . S
Mn2340 O2366 2.094 . S
Mn2341 O2346 2.121 . S
Mn2341 N2348 2.257 . S
Mn2341 N2357 2.282 . S
Mn2341 O2365 2.215 . S
Mn2341 O2367 2.117 . S
C2342 O2364 1.234 . S
C2342 O2365 1.283 . S
C2343 O2355 1.281 . S
C2343 O2356 1.236 . S
C2344 O2366 1.240 . S
C2344 O2367 1.264 . S
O2345 Mn2340 2.095 . S
O2345 C2354 1.250 . S
O2346 Mn2341 2.121 . S
O2346 C2354 1.258 . S
C2347 N2348 1.326 . S
C2347 C2351 1.460 . S
C2347 H2353 0.929 . S
N2348 Mn2341 2.257 . S
N2348 C2347 1.326 . S
N2348 C2352 1.362 . S
C2349 C2350 1.258 . S
C2349 C2352 1.431 . S
C2349 C2369 1.449 . S
C2350 C2349 1.258 . S
C2350 C2351 1.477 . S
C2350 H2370 0.931 . S
C2351 C2347 1.460 . S
C2351 C2350 1.477 . S
C2351 H2371 0.930 . S
C2352 N2348 1.362 . S
C2352 C2349 1.431 . S
C2352 C2362 1.476 . S
H2353 C2347 0.929 . S
C2354 O2345 1.250 . S
C2354 O2346 1.258 . S
O2355 Mn2340 2.162 . S
O2355 C2343 1.281 . S
O2356 Mn2340 2.297 . S
O2356 C2343 1.236 . S
N2357 Mn2341 2.282 . S
N2357 C2358 1.328 . S
N2357 C2362 1.318 . S
C2358 N2357 1.328 . S
C2358 C2359 1.457 . S
C2358 H2363 0.929 . S
C2359 C2358 1.457 . S
C2359 C2360 1.291 . S
C2359 H2372 0.931 . S
C2360 C2359 1.291 . S
C2360 C2361 1.373 . S
C2360 H2373 0.929 . S
C2361 C2360 1.373 . S
C2361 C2362 1.396 . S
C2361 C2368 1.403 . S
C2362 C2352 1.476 . S
C2362 N2357 1.318 . S
C2362 C2361 1.396 . S
H2363 C2358 0.929 . S
O2364 Mn2340 2.385 . S
O2364 C2342 1.234 . S
O2365 Mn2340 2.209 . S
O2365 Mn2341 2.215 . S
O2365 C2342 1.283 . S
O2366 Mn2340 2.094 . S
O2366 C2344 1.240 . S
O2367 Mn2341 2.117 . S
O2367 C2344 1.264 . S
C2368 C2361 1.403 . S
C2368 C2369 1.399 . S
C2368 H2374 0.929 . S
C2369 C2349 1.449 . S
C2369 C2368 1.399 . S
C2369 H2375 0.930 . S
H2370 C2350 0.931 . S
H2371 C2351 0.930 . S
H2372 C2359 0.931 . S
H2373 C2360 0.929 . S
H2374 C2368 0.929 . S
H2375 C2369 0.930 . S
Mn2376 O2381 2.095 . S
Mn2376 O2391 2.162 . S
Mn2376 O2392 2.297 . S
Mn2376 O2400 2.385 . S
Mn2376 O2401 2.209 . S
Mn2376 O2402 2.094 . S
Mn2377 O2382 2.121 . S
Mn2377 N2384 2.257 . S
Mn2377 N2393 2.282 . S
Mn2377 O2401 2.215 . S
Mn2377 O2403 2.117 . S
C2378 O2400 1.234 . S
C2378 O2401 1.283 . S
C2379 O2391 1.281 . S
C2379 O2392 1.236 . S
C2380 O2402 1.240 . S
C2380 O2403 1.264 . S
O2381 Mn2376 2.095 . S
O2381 C2390 1.250 . S
O2382 Mn2377 2.121 . S
O2382 C2390 1.258 . S
C2383 N2384 1.326 . S
C2383 C2387 1.460 . S
C2383 H2389 0.929 . S
N2384 Mn2377 2.257 . S
N2384 C2383 1.326 . S
N2384 C2388 1.362 . S
C2385 C2386 1.258 . S
C2385 C2388 1.431 . S
C2385 C2405 1.449 . S
C2386 C2385 1.258 . S
C2386 C2387 1.477 . S
C2386 H2406 0.931 . S
C2387 C2383 1.460 . S
C2387 C2386 1.477 . S
C2387 H2407 0.930 . S
C2388 N2384 1.362 . S
C2388 C2385 1.431 . S
C2388 C2398 1.476 . S
H2389 C2383 0.929 . S
C2390 O2381 1.250 . S
C2390 O2382 1.258 . S
O2391 Mn2376 2.162 . S
O2391 C2379 1.281 . S
O2392 Mn2376 2.297 . S
O2392 C2379 1.236 . S
N2393 Mn2377 2.282 . S
N2393 C2394 1.328 . S
N2393 C2398 1.318 . S
C2394 N2393 1.328 . S
C2394 C2395 1.457 . S
C2394 H2399 0.929 . S
C2395 C2394 1.457 . S
C2395 C2396 1.291 . S
C2395 H2408 0.931 . S
C2396 C2395 1.291 . S
C2396 C2397 1.373 . S
C2396 H2409 0.929 . S
C2397 C2396 1.373 . S
C2397 C2398 1.396 . S
C2397 C2404 1.403 . S
C2398 C2388 1.476 . S
C2398 N2393 1.318 . S
C2398 C2397 1.396 . S
H2399 C2394 0.929 . S
O2400 Mn2376 2.385 . S
O2400 C2378 1.234 . S
O2401 Mn2376 2.209 . S
O2401 Mn2377 2.215 . S
O2401 C2378 1.283 . S
O2402 Mn2376 2.094 . S
O2402 C2380 1.240 . S
O2403 Mn2377 2.117 . S
O2403 C2380 1.264 . S
C2404 C2397 1.403 . S
C2404 C2405 1.399 . S
C2404 H2410 0.929 . S
C2405 C2385 1.449 . S
C2405 C2404 1.399 . S
C2405 H2411 0.930 . S
H2406 C2386 0.931 . S
H2407 C2387 0.930 . S
H2408 C2395 0.931 . S
H2409 C2396 0.929 . S
H2410 C2404 0.929 . S
H2411 C2405 0.930 . S
Mn2412 O2417 2.095 . S
Mn2412 O2427 2.162 . S
Mn2412 O2428 2.297 . S
Mn2412 O2436 2.385 . S
Mn2412 O2437 2.209 . S
Mn2412 O2438 2.094 . S
Mn2413 O2418 2.121 . S
Mn2413 N2420 2.257 . S
Mn2413 N2429 2.282 . S
Mn2413 O2437 2.215 . S
Mn2413 O2439 2.117 . S
C2414 O2436 1.234 . S
C2414 O2437 1.283 . S
C2415 O2427 1.281 . S
C2415 O2428 1.236 . S
C2416 O2438 1.240 . S
C2416 O2439 1.264 . S
O2417 Mn2412 2.095 . S
O2417 C2426 1.250 . S
O2418 Mn2413 2.121 . S
O2418 C2426 1.258 . S
C2419 N2420 1.326 . S
C2419 C2423 1.460 . S
C2419 H2425 0.929 . S
N2420 Mn2413 2.257 . S
N2420 C2419 1.326 . S
N2420 C2424 1.362 . S
C2421 C2422 1.258 . S
C2421 C2424 1.431 . S
C2421 C2441 1.449 . S
C2422 C2421 1.258 . S
C2422 C2423 1.477 . S
C2422 H2442 0.931 . S
C2423 C2419 1.460 . S
C2423 C2422 1.477 . S
C2423 H2443 0.930 . S
C2424 N2420 1.362 . S
C2424 C2421 1.431 . S
C2424 C2434 1.476 . S
H2425 C2419 0.929 . S
C2426 O2417 1.250 . S
C2426 O2418 1.258 . S
O2427 Mn2412 2.162 . S
O2427 C2415 1.281 . S
O2428 Mn2412 2.297 . S
O2428 C2415 1.236 . S
N2429 Mn2413 2.282 . S
N2429 C2430 1.328 . S
N2429 C2434 1.318 . S
C2430 N2429 1.328 . S
C2430 C2431 1.457 . S
C2430 H2435 0.929 . S
C2431 C2430 1.457 . S
C2431 C2432 1.291 . S
C2431 H2444 0.931 . S
C2432 C2431 1.291 . S
C2432 C2433 1.373 . S
C2432 H2445 0.929 . S
C2433 C2432 1.373 . S
C2433 C2434 1.396 . S
C2433 C2440 1.403 . S
C2434 C2424 1.476 . S
C2434 N2429 1.318 . S
C2434 C2433 1.396 . S
H2435 C2430 0.929 . S
O2436 Mn2412 2.385 . S
O2436 C2414 1.234 . S
O2437 Mn2412 2.209 . S
O2437 Mn2413 2.215 . S
O2437 C2414 1.283 . S
O2438 Mn2412 2.094 . S
O2438 C2416 1.240 . S
O2439 Mn2413 2.117 . S
O2439 C2416 1.264 . S
C2440 C2433 1.403 . S
C2440 C2441 1.399 . S
C2440 H2446 0.929 . S
C2441 C2421 1.449 . S
C2441 C2440 1.399 . S
C2441 H2447 0.930 . S
H2442 C2422 0.931 . S
H2443 C2423 0.930 . S
H2444 C2431 0.931 . S
H2445 C2432 0.929 . S
H2446 C2440 0.929 . S
H2447 C2441 0.930 . S
Mn2448 O2453 2.095 . S
Mn2448 O2463 2.162 . S
Mn2448 O2464 2.297 . S
Mn2448 O2472 2.385 . S
Mn2448 O2473 2.209 . S
Mn2448 O2474 2.094 . S
Mn2449 O2454 2.121 . S
Mn2449 N2456 2.257 . S
Mn2449 N2465 2.282 . S
Mn2449 O2473 2.215 . S
Mn2449 O2475 2.117 . S
C2450 O2472 1.234 . S
C2450 O2473 1.283 . S
C2451 O2463 1.281 . S
C2451 O2464 1.236 . S
C2452 O2474 1.240 . S
C2452 O2475 1.264 . S
O2453 Mn2448 2.095 . S
O2453 C2462 1.250 . S
O2454 Mn2449 2.121 . S
O2454 C2462 1.258 . S
C2455 N2456 1.326 . S
C2455 C2459 1.460 . S
C2455 H2461 0.929 . S
N2456 Mn2449 2.257 . S
N2456 C2455 1.326 . S
N2456 C2460 1.362 . S
C2457 C2458 1.258 . S
C2457 C2460 1.431 . S
C2457 C2477 1.449 . S
C2458 C2457 1.258 . S
C2458 C2459 1.477 . S
C2458 H2478 0.931 . S
C2459 C2455 1.460 . S
C2459 C2458 1.477 . S
C2459 H2479 0.930 . S
C2460 N2456 1.362 . S
C2460 C2457 1.431 . S
C2460 C2470 1.476 . S
H2461 C2455 0.929 . S
C2462 O2453 1.250 . S
C2462 O2454 1.258 . S
O2463 Mn2448 2.162 . S
O2463 C2451 1.281 . S
O2464 Mn2448 2.297 . S
O2464 C2451 1.236 . S
N2465 Mn2449 2.282 . S
N2465 C2466 1.328 . S
N2465 C2470 1.318 . S
C2466 N2465 1.328 . S
C2466 C2467 1.457 . S
C2466 H2471 0.929 . S
C2467 C2466 1.457 . S
C2467 C2468 1.291 . S
C2467 H2480 0.931 . S
C2468 C2467 1.291 . S
C2468 C2469 1.373 . S
C2468 H2481 0.929 . S
C2469 C2468 1.373 . S
C2469 C2470 1.396 . S
C2469 C2476 1.403 . S
C2470 C2460 1.476 . S
C2470 N2465 1.318 . S
C2470 C2469 1.396 . S
H2471 C2466 0.929 . S
O2472 Mn2448 2.385 . S
O2472 C2450 1.234 . S
O2473 Mn2448 2.209 . S
O2473 Mn2449 2.215 . S
O2473 C2450 1.283 . S
O2474 Mn2448 2.094 . S
O2474 C2452 1.240 . S
O2475 Mn2449 2.117 . S
O2475 C2452 1.264 . S
C2476 C2469 1.403 . S
C2476 C2477 1.399 . S
C2476 H2482 0.929 . S
C2477 C2457 1.449 . S
C2477 C2476 1.399 . S
C2477 H2483 0.930 . S
H2478 C2458 0.931 . S
H2479 C2459 0.930 . S
H2480 C2467 0.931 . S
H2481 C2468 0.929 . S
H2482 C2476 0.929 . S
H2483 C2477 0.930 . S
Mn2484 O2489 2.095 . S
Mn2484 O2499 2.162 1_655 S
Mn2484 O2500 2.297 . S
Mn2484 O2508 2.385 . S
Mn2484 O2509 2.209 . S
Mn2484 O2510 2.094 . S
Mn2485 O2490 2.121 . S
Mn2485 N2492 2.257 . S
Mn2485 N2501 2.282 . S
Mn2485 O2509 2.215 . S
Mn2485 O2511 2.117 . S
C2486 O2508 1.234 . S
C2486 O2509 1.283 . S
C2487 O2499 1.272 1_655 S
C2487 O2500 1.257 . S
C2488 O2510 1.240 . S
C2488 O2511 1.264 . S
O2489 Mn2484 2.095 . S
O2489 C2498 1.250 . S
O2490 Mn2485 2.121 . S
O2490 C2498 1.258 . S
C2491 N2492 1.326 . S
C2491 C2495 1.460 . S
C2491 H2497 0.929 . S
N2492 Mn2485 2.257 . S
N2492 C2491 1.326 . S
N2492 C2496 1.362 . S
C2493 C2494 1.258 . S
C2493 C2496 1.431 . S
C2493 C2513 1.449 . S
C2494 C2493 1.258 . S
C2494 C2495 1.477 . S
C2494 H2514 0.931 . S
C2495 C2491 1.460 . S
C2495 C2494 1.477 . S
C2495 H2515 0.930 . S
C2496 N2492 1.362 . S
C2496 C2493 1.431 . S
C2496 C2506 1.476 . S
H2497 C2491 0.929 . S
C2498 O2489 1.250 . S
C2498 O2490 1.258 . S
O2499 Mn2484 2.162 1_455 S
O2499 C2487 1.272 1_455 S
O2500 Mn2484 2.297 . S
O2500 C2487 1.257 . S
N2501 Mn2485 2.282 . S
N2501 C2502 1.328 . S
N2501 C2506 1.318 . S
C2502 N2501 1.328 . S
C2502 C2503 1.457 . S
C2502 H2507 0.929 . S
C2503 C2502 1.457 . S
C2503 C2504 1.291 . S
C2503 H2516 0.931 . S
C2504 C2503 1.291 . S
C2504 C2505 1.373 . S
C2504 H2517 0.929 . S
C2505 C2504 1.373 . S
C2505 C2506 1.396 . S
C2505 C2512 1.403 . S
C2506 C2496 1.476 . S
C2506 N2501 1.318 . S
C2506 C2505 1.396 . S
H2507 C2502 0.929 . S
O2508 Mn2484 2.385 . S
O2508 C2486 1.234 . S
O2509 Mn2484 2.209 . S
O2509 Mn2485 2.215 . S
O2509 C2486 1.283 . S
O2510 Mn2484 2.094 . S
O2510 C2488 1.240 . S
O2511 Mn2485 2.117 . S
O2511 C2488 1.264 . S
C2512 C2505 1.403 . S
C2512 C2513 1.399 . S
C2512 H2518 0.929 . S
C2513 C2493 1.449 . S
C2513 C2512 1.399 . S
C2513 H2519 0.930 . S
H2514 C2494 0.931 . S
H2515 C2495 0.930 . S
H2516 C2503 0.931 . S
H2517 C2504 0.929 . S
H2518 C2512 0.929 . S
H2519 C2513 0.930 . S
Mn2520 O2525 2.095 . S
Mn2520 O2535 2.162 . S
Mn2520 O2536 2.297 . S
Mn2520 O2544 2.385 . S
Mn2520 O2545 2.209 . S
Mn2520 O2546 2.094 . S
Mn2521 O2526 2.121 . S
Mn2521 N2528 2.257 . S
Mn2521 N2537 2.282 . S
Mn2521 O2545 2.215 . S
Mn2521 O2547 2.117 . S
C2522 O2544 1.234 . S
C2522 O2545 1.283 . S
C2523 O2535 1.281 . S
C2523 O2536 1.236 . S
C2524 O2546 1.240 . S
C2524 O2547 1.264 . S
O2525 Mn2520 2.095 . S
O2525 C2534 1.250 . S
O2526 Mn2521 2.121 . S
O2526 C2534 1.258 . S
C2527 N2528 1.326 . S
C2527 C2531 1.460 . S
C2527 H2533 0.929 . S
N2528 Mn2521 2.257 . S
N2528 C2527 1.326 . S
N2528 C2532 1.362 . S
C2529 C2530 1.258 . S
C2529 C2532 1.431 . S
C2529 C2549 1.449 . S
C2530 C2529 1.258 . S
C2530 C2531 1.477 . S
C2530 H2550 0.931 . S
C2531 C2527 1.460 . S
C2531 C2530 1.477 . S
C2531 H2551 0.930 . S
C2532 N2528 1.362 . S
C2532 C2529 1.431 . S
C2532 C2542 1.476 . S
H2533 C2527 0.929 . S
C2534 O2525 1.250 . S
C2534 O2526 1.258 . S
O2535 Mn2520 2.162 . S
O2535 C2523 1.281 . S
O2536 Mn2520 2.297 . S
O2536 C2523 1.236 . S
N2537 Mn2521 2.282 . S
N2537 C2538 1.328 . S
N2537 C2542 1.318 . S
C2538 N2537 1.328 . S
C2538 C2539 1.457 . S
C2538 H2543 0.929 . S
C2539 C2538 1.457 . S
C2539 C2540 1.291 . S
C2539 H2552 0.931 . S
C2540 C2539 1.291 . S
C2540 C2541 1.373 . S
C2540 H2553 0.929 . S
C2541 C2540 1.373 . S
C2541 C2542 1.396 . S
C2541 C2548 1.403 . S
C2542 C2532 1.476 . S
C2542 N2537 1.318 . S
C2542 C2541 1.396 . S
H2543 C2538 0.929 . S
O2544 Mn2520 2.385 . S
O2544 C2522 1.234 . S
O2545 Mn2520 2.209 . S
O2545 Mn2521 2.215 . S
O2545 C2522 1.283 . S
O2546 Mn2520 2.094 . S
O2546 C2524 1.240 . S
O2547 Mn2521 2.117 . S
O2547 C2524 1.264 . S
C2548 C2541 1.403 . S
C2548 C2549 1.399 . S
C2548 H2554 0.929 . S
C2549 C2529 1.449 . S
C2549 C2548 1.399 . S
C2549 H2555 0.930 . S
H2550 C2530 0.931 . S
H2551 C2531 0.930 . S
H2552 C2539 0.931 . S
H2553 C2540 0.929 . S
H2554 C2548 0.929 . S
H2555 C2549 0.930 . S
Mn2556 O2561 2.095 . S
Mn2556 O2571 2.162 . S
Mn2556 O2572 2.297 . S
Mn2556 O2580 2.385 . S
Mn2556 O2581 2.209 . S
Mn2556 O2582 2.094 . S
Mn2557 O2562 2.121 . S
Mn2557 N2564 2.257 . S
Mn2557 N2573 2.282 . S
Mn2557 O2581 2.215 . S
Mn2557 O2583 2.117 . S
C2558 O2580 1.234 . S
C2558 O2581 1.283 . S
C2559 O2571 1.281 . S
C2559 O2572 1.236 . S
C2560 O2582 1.240 . S
C2560 O2583 1.264 . S
O2561 Mn2556 2.095 . S
O2561 C2570 1.250 . S
O2562 Mn2557 2.121 . S
O2562 C2570 1.258 . S
C2563 N2564 1.326 . S
C2563 C2567 1.460 . S
C2563 H2569 0.929 . S
N2564 Mn2557 2.257 . S
N2564 C2563 1.326 . S
N2564 C2568 1.362 . S
C2565 C2566 1.258 . S
C2565 C2568 1.431 . S
C2565 C2585 1.449 . S
C2566 C2565 1.258 . S
C2566 C2567 1.477 . S
C2566 H2586 0.931 . S
C2567 C2563 1.460 . S
C2567 C2566 1.477 . S
C2567 H2587 0.930 . S
C2568 N2564 1.362 . S
C2568 C2565 1.431 . S
C2568 C2578 1.476 . S
H2569 C2563 0.929 . S
C2570 O2561 1.250 . S
C2570 O2562 1.258 . S
O2571 Mn2556 2.162 . S
O2571 C2559 1.281 . S
O2572 Mn2556 2.297 . S
O2572 C2559 1.236 . S
N2573 Mn2557 2.282 . S
N2573 C2574 1.328 . S
N2573 C2578 1.318 . S
C2574 N2573 1.328 . S
C2574 C2575 1.457 . S
C2574 H2579 0.929 . S
C2575 C2574 1.457 . S
C2575 C2576 1.291 . S
C2575 H2588 0.931 . S
C2576 C2575 1.291 . S
C2576 C2577 1.373 . S
C2576 H2589 0.929 . S
C2577 C2576 1.373 . S
C2577 C2578 1.396 . S
C2577 C2584 1.403 . S
C2578 C2568 1.476 . S
C2578 N2573 1.318 . S
C2578 C2577 1.396 . S
H2579 C2574 0.929 . S
O2580 Mn2556 2.385 . S
O2580 C2558 1.234 . S
O2581 Mn2556 2.209 . S
O2581 Mn2557 2.215 . S
O2581 C2558 1.283 . S
O2582 Mn2556 2.094 . S
O2582 C2560 1.240 . S
O2583 Mn2557 2.117 . S
O2583 C2560 1.264 . S
C2584 C2577 1.403 . S
C2584 C2585 1.399 . S
C2584 H2590 0.929 . S
C2585 C2565 1.449 . S
C2585 C2584 1.399 . S
C2585 H2591 0.930 . S
H2586 C2566 0.931 . S
H2587 C2567 0.930 . S
H2588 C2575 0.931 . S
H2589 C2576 0.929 . S
H2590 C2584 0.929 . S
H2591 C2585 0.930 . S
Mn2592 O2597 2.095 . S
Mn2592 O2607 2.162 1_545 S
Mn2592 O2608 2.297 . S
Mn2592 O2616 2.385 . S
Mn2592 O2617 2.209 . S
Mn2592 O2618 2.094 . S
Mn2593 O2598 2.121 . S
Mn2593 N2600 2.257 . S
Mn2593 N2609 2.282 . S
Mn2593 O2617 2.215 . S
Mn2593 O2619 2.117 . S
C2594 O2616 1.234 . S
C2594 O2617 1.283 . S
C2595 O2607 1.272 1_545 S
C2595 O2608 1.257 . S
C2596 O2618 1.240 . S
C2596 O2619 1.264 . S
O2597 Mn2592 2.095 . S
O2597 C2606 1.250 . S
O2598 Mn2593 2.121 . S
O2598 C2606 1.258 . S
C2599 N2600 1.326 . S
C2599 C2603 1.460 . S
C2599 H2605 0.929 . S
N2600 Mn2593 2.257 . S
N2600 C2599 1.326 . S
N2600 C2604 1.362 . S
C2601 C2602 1.258 . S
C2601 C2604 1.431 . S
C2601 C2621 1.449 . S
C2602 C2601 1.258 . S
C2602 C2603 1.477 . S
C2602 H2622 0.931 . S
C2603 C2599 1.460 . S
C2603 C2602 1.477 . S
C2603 H2623 0.930 . S
C2604 N2600 1.362 . S
C2604 C2601 1.431 . S
C2604 C2614 1.476 . S
H2605 C2599 0.929 . S
C2606 O2597 1.250 . S
C2606 O2598 1.258 . S
O2607 Mn2592 2.162 1_565 S
O2607 C2595 1.272 1_565 S
O2608 Mn2592 2.297 . S
O2608 C2595 1.257 . S
N2609 Mn2593 2.282 . S
N2609 C2610 1.328 . S
N2609 C2614 1.318 . S
C2610 N2609 1.328 . S
C2610 C2611 1.457 . S
C2610 H2615 0.929 . S
C2611 C2610 1.457 . S
C2611 C2612 1.291 . S
C2611 H2624 0.931 . S
C2612 C2611 1.291 . S
C2612 C2613 1.373 . S
C2612 H2625 0.929 . S
C2613 C2612 1.373 . S
C2613 C2614 1.396 . S
C2613 C2620 1.403 . S
C2614 C2604 1.476 . S
C2614 N2609 1.318 . S
C2614 C2613 1.396 . S
H2615 C2610 0.929 . S
O2616 Mn2592 2.385 . S
O2616 C2594 1.234 . S
O2617 Mn2592 2.209 . S
O2617 Mn2593 2.215 . S
O2617 C2594 1.283 . S
O2618 Mn2592 2.094 . S
O2618 C2596 1.240 . S
O2619 Mn2593 2.117 . S
O2619 C2596 1.264 . S
C2620 C2613 1.403 . S
C2620 C2621 1.399 . S
C2620 H2626 0.929 . S
C2621 C2601 1.449 . S
C2621 C2620 1.399 . S
C2621 H2627 0.930 . S
H2622 C2602 0.931 . S
H2623 C2603 0.930 . S
H2624 C2611 0.931 . S
H2625 C2612 0.929 . S
H2626 C2620 0.929 . S
H2627 C2621 0.930 . S
Mn2628 O2633 2.095 . S
Mn2628 O2643 2.162 . S
Mn2628 O2644 2.297 . S
Mn2628 O2652 2.385 . S
Mn2628 O2653 2.209 . S
Mn2628 O2654 2.094 . S
Mn2629 O2634 2.121 . S
Mn2629 N2636 2.257 . S
Mn2629 N2645 2.282 . S
Mn2629 O2653 2.215 . S
Mn2629 O2655 2.117 . S
C2630 O2652 1.234 . S
C2630 O2653 1.283 . S
C2631 O2643 1.281 . S
C2631 O2644 1.236 . S
C2632 O2654 1.240 . S
C2632 O2655 1.264 . S
O2633 Mn2628 2.095 . S
O2633 C2642 1.250 . S
O2634 Mn2629 2.121 . S
O2634 C2642 1.258 . S
C2635 N2636 1.326 . S
C2635 C2639 1.460 . S
C2635 H2641 0.929 . S
N2636 Mn2629 2.257 . S
N2636 C2635 1.326 . S
N2636 C2640 1.362 . S
C2637 C2638 1.258 . S
C2637 C2640 1.431 . S
C2637 C2657 1.449 . S
C2638 C2637 1.258 . S
C2638 C2639 1.477 . S
C2638 H2658 0.931 . S
C2639 C2635 1.460 . S
C2639 C2638 1.477 . S
C2639 H2659 0.930 . S
C2640 N2636 1.362 . S
C2640 C2637 1.431 . S
C2640 C2650 1.476 . S
H2641 C2635 0.929 . S
C2642 O2633 1.250 . S
C2642 O2634 1.258 . S
O2643 Mn2628 2.162 . S
O2643 C2631 1.281 . S
O2644 Mn2628 2.297 . S
O2644 C2631 1.236 . S
N2645 Mn2629 2.282 . S
N2645 C2646 1.328 . S
N2645 C2650 1.318 . S
C2646 N2645 1.328 . S
C2646 C2647 1.457 . S
C2646 H2651 0.929 . S
C2647 C2646 1.457 . S
C2647 C2648 1.291 . S
C2647 H2660 0.931 . S
C2648 C2647 1.291 . S
C2648 C2649 1.373 . S
C2648 H2661 0.929 . S
C2649 C2648 1.373 . S
C2649 C2650 1.396 . S
C2649 C2656 1.403 . S
C2650 C2640 1.476 . S
C2650 N2645 1.318 . S
C2650 C2649 1.396 . S
H2651 C2646 0.929 . S
O2652 Mn2628 2.385 . S
O2652 C2630 1.234 . S
O2653 Mn2628 2.209 . S
O2653 Mn2629 2.215 . S
O2653 C2630 1.283 . S
O2654 Mn2628 2.094 . S
O2654 C2632 1.240 . S
O2655 Mn2629 2.117 . S
O2655 C2632 1.264 . S
C2656 C2649 1.403 . S
C2656 C2657 1.399 . S
C2656 H2662 0.929 . S
C2657 C2637 1.449 . S
C2657 C2656 1.399 . S
C2657 H2663 0.930 . S
H2658 C2638 0.931 . S
H2659 C2639 0.930 . S
H2660 C2647 0.931 . S
H2661 C2648 0.929 . S
H2662 C2656 0.929 . S
H2663 C2657 0.930 . S
Mn2664 O2669 2.095 . S
Mn2664 O2679 2.162 . S
Mn2664 O2680 2.297 . S
Mn2664 O2688 2.385 . S
Mn2664 O2689 2.209 . S
Mn2664 O2690 2.094 . S
Mn2665 O2670 2.121 . S
Mn2665 N2672 2.257 . S
Mn2665 N2681 2.282 . S
Mn2665 O2689 2.215 . S
Mn2665 O2691 2.117 . S
C2666 O2688 1.234 . S
C2666 O2689 1.283 . S
C2667 O2679 1.281 . S
C2667 O2680 1.236 . S
C2668 O2690 1.240 . S
C2668 O2691 1.264 . S
O2669 Mn2664 2.095 . S
O2669 C2678 1.250 . S
O2670 Mn2665 2.121 . S
O2670 C2678 1.258 . S
C2671 N2672 1.326 . S
C2671 C2675 1.460 . S
C2671 H2677 0.929 . S
N2672 Mn2665 2.257 . S
N2672 C2671 1.326 . S
N2672 C2676 1.362 . S
C2673 C2674 1.258 . S
C2673 C2676 1.431 . S
C2673 C2693 1.449 . S
C2674 C2673 1.258 . S
C2674 C2675 1.477 . S
C2674 H2694 0.931 . S
C2675 C2671 1.460 . S
C2675 C2674 1.477 . S
C2675 H2695 0.930 . S
C2676 N2672 1.362 . S
C2676 C2673 1.431 . S
C2676 C2686 1.476 . S
H2677 C2671 0.929 . S
C2678 O2669 1.250 . S
C2678 O2670 1.258 . S
O2679 Mn2664 2.162 . S
O2679 C2667 1.281 . S
O2680 Mn2664 2.297 . S
O2680 C2667 1.236 . S
N2681 Mn2665 2.282 . S
N2681 C2682 1.328 . S
N2681 C2686 1.318 . S
C2682 N2681 1.328 . S
C2682 C2683 1.457 . S
C2682 H2687 0.929 . S
C2683 C2682 1.457 . S
C2683 C2684 1.291 . S
C2683 H2696 0.931 . S
C2684 C2683 1.291 . S
C2684 C2685 1.373 . S
C2684 H2697 0.929 . S
C2685 C2684 1.373 . S
C2685 C2686 1.396 . S
C2685 C2692 1.403 . S
C2686 C2676 1.476 . S
C2686 N2681 1.318 . S
C2686 C2685 1.396 . S
H2687 C2682 0.929 . S
O2688 Mn2664 2.385 . S
O2688 C2666 1.234 . S
O2689 Mn2664 2.209 . S
O2689 Mn2665 2.215 . S
O2689 C2666 1.283 . S
O2690 Mn2664 2.094 . S
O2690 C2668 1.240 . S
O2691 Mn2665 2.117 . S
O2691 C2668 1.264 . S
C2692 C2685 1.403 . S
C2692 C2693 1.399 . S
C2692 H2698 0.929 . S
C2693 C2673 1.449 . S
C2693 C2692 1.399 . S
C2693 H2699 0.930 . S
H2694 C2674 0.931 . S
H2695 C2675 0.930 . S
H2696 C2683 0.931 . S
H2697 C2684 0.929 . S
H2698 C2692 0.929 . S
H2699 C2693 0.930 . S
Mn2700 O2705 2.095 . S
Mn2700 O2715 2.162 . S
Mn2700 O2716 2.297 . S
Mn2700 O2724 2.385 . S
Mn2700 O2725 2.209 . S
Mn2700 O2726 2.094 . S
Mn2701 O2706 2.121 . S
Mn2701 N2708 2.257 . S
Mn2701 N2717 2.282 . S
Mn2701 O2725 2.215 . S
Mn2701 O2727 2.117 . S
C2702 O2724 1.234 . S
C2702 O2725 1.283 . S
C2703 O2715 1.281 . S
C2703 O2716 1.236 . S
C2704 O2726 1.240 . S
C2704 O2727 1.264 . S
O2705 Mn2700 2.095 . S
O2705 C2714 1.250 . S
O2706 Mn2701 2.121 . S
O2706 C2714 1.258 . S
C2707 N2708 1.326 . S
C2707 C2711 1.460 . S
C2707 H2713 0.929 . S
N2708 Mn2701 2.257 . S
N2708 C2707 1.326 . S
N2708 C2712 1.362 . S
C2709 C2710 1.258 . S
C2709 C2712 1.431 . S
C2709 C2729 1.449 . S
C2710 C2709 1.258 . S
C2710 C2711 1.477 . S
C2710 H2730 0.931 . S
C2711 C2707 1.460 . S
C2711 C2710 1.477 . S
C2711 H2731 0.930 . S
C2712 N2708 1.362 . S
C2712 C2709 1.431 . S
C2712 C2722 1.476 . S
H2713 C2707 0.929 . S
C2714 O2705 1.250 . S
C2714 O2706 1.258 . S
O2715 Mn2700 2.162 . S
O2715 C2703 1.281 . S
O2716 Mn2700 2.297 . S
O2716 C2703 1.236 . S
N2717 Mn2701 2.282 . S
N2717 C2718 1.328 . S
N2717 C2722 1.318 . S
C2718 N2717 1.328 . S
C2718 C2719 1.457 . S
C2718 H2723 0.929 . S
C2719 C2718 1.457 . S
C2719 C2720 1.291 . S
C2719 H2732 0.931 . S
C2720 C2719 1.291 . S
C2720 C2721 1.373 . S
C2720 H2733 0.929 . S
C2721 C2720 1.373 . S
C2721 C2722 1.396 . S
C2721 C2728 1.403 . S
C2722 C2712 1.476 . S
C2722 N2717 1.318 . S
C2722 C2721 1.396 . S
H2723 C2718 0.929 . S
O2724 Mn2700 2.385 . S
O2724 C2702 1.234 . S
O2725 Mn2700 2.209 . S
O2725 Mn2701 2.215 . S
O2725 C2702 1.283 . S
O2726 Mn2700 2.094 . S
O2726 C2704 1.240 . S
O2727 Mn2701 2.117 . S
O2727 C2704 1.264 . S
C2728 C2721 1.403 . S
C2728 C2729 1.399 . S
C2728 H2734 0.929 . S
C2729 C2709 1.449 . S
C2729 C2728 1.399 . S
C2729 H2735 0.930 . S
H2730 C2710 0.931 . S
H2731 C2711 0.930 . S
H2732 C2719 0.931 . S
H2733 C2720 0.929 . S
H2734 C2728 0.929 . S
H2735 C2729 0.930 . S
Mn2736 O2741 2.095 . S
Mn2736 O2751 2.162 1_565 S
Mn2736 O2752 2.297 . S
Mn2736 O2760 2.385 . S
Mn2736 O2761 2.209 . S
Mn2736 O2762 2.094 . S
Mn2737 O2742 2.121 . S
Mn2737 N2744 2.257 . S
Mn2737 N2753 2.282 . S
Mn2737 O2761 2.215 . S
Mn2737 O2763 2.117 . S
C2738 O2760 1.234 . S
C2738 O2761 1.283 . S
C2739 O2751 1.272 1_565 S
C2739 O2752 1.257 . S
C2740 O2762 1.240 . S
C2740 O2763 1.264 . S
O2741 Mn2736 2.095 . S
O2741 C2750 1.250 . S
O2742 Mn2737 2.121 . S
O2742 C2750 1.258 . S
C2743 N2744 1.326 . S
C2743 C2747 1.460 . S
C2743 H2749 0.929 . S
N2744 Mn2737 2.257 . S
N2744 C2743 1.326 . S
N2744 C2748 1.362 . S
C2745 C2746 1.258 . S
C2745 C2748 1.431 . S
C2745 C2765 1.449 . S
C2746 C2745 1.258 . S
C2746 C2747 1.477 . S
C2746 H2766 0.931 . S
C2747 C2743 1.460 . S
C2747 C2746 1.477 . S
C2747 H2767 0.930 . S
C2748 N2744 1.362 . S
C2748 C2745 1.431 . S
C2748 C2758 1.476 . S
H2749 C2743 0.929 . S
C2750 O2741 1.250 . S
C2750 O2742 1.258 . S
O2751 Mn2736 2.162 1_545 S
O2751 C2739 1.272 1_545 S
O2752 Mn2736 2.297 . S
O2752 C2739 1.257 . S
N2753 Mn2737 2.282 . S
N2753 C2754 1.328 . S
N2753 C2758 1.318 . S
C2754 N2753 1.328 . S
C2754 C2755 1.457 . S
C2754 H2759 0.929 . S
C2755 C2754 1.457 . S
C2755 C2756 1.291 . S
C2755 H2768 0.931 . S
C2756 C2755 1.291 . S
C2756 C2757 1.373 . S
C2756 H2769 0.929 . S
C2757 C2756 1.373 . S
C2757 C2758 1.396 . S
C2757 C2764 1.403 . S
C2758 C2748 1.476 . S
C2758 N2753 1.318 . S
C2758 C2757 1.396 . S
H2759 C2754 0.929 . S
O2760 Mn2736 2.385 . S
O2760 C2738 1.234 . S
O2761 Mn2736 2.209 . S
O2761 Mn2737 2.215 . S
O2761 C2738 1.283 . S
O2762 Mn2736 2.094 . S
O2762 C2740 1.240 . S
O2763 Mn2737 2.117 . S
O2763 C2740 1.264 . S
C2764 C2757 1.403 . S
C2764 C2765 1.399 . S
C2764 H2770 0.929 . S
C2765 C2745 1.449 . S
C2765 C2764 1.399 . S
C2765 H2771 0.930 . S
H2766 C2746 0.931 . S
H2767 C2747 0.930 . S
H2768 C2755 0.931 . S
H2769 C2756 0.929 . S
H2770 C2764 0.929 . S
H2771 C2765 0.930 . S
Mn2772 O2777 2.095 . S
Mn2772 O2787 2.162 . S
Mn2772 O2788 2.297 . S
Mn2772 O2796 2.385 . S
Mn2772 O2797 2.209 . S
Mn2772 O2798 2.094 . S
Mn2773 O2778 2.121 . S
Mn2773 N2780 2.257 . S
Mn2773 N2789 2.282 . S
Mn2773 O2797 2.215 . S
Mn2773 O2799 2.117 . S
C2774 O2796 1.234 . S
C2774 O2797 1.283 . S
C2775 O2787 1.281 . S
C2775 O2788 1.236 . S
C2776 O2798 1.240 . S
C2776 O2799 1.264 . S
O2777 Mn2772 2.095 . S
O2777 C2786 1.250 . S
O2778 Mn2773 2.121 . S
O2778 C2786 1.258 . S
C2779 N2780 1.326 . S
C2779 C2783 1.460 . S
C2779 H2785 0.929 . S
N2780 Mn2773 2.257 . S
N2780 C2779 1.326 . S
N2780 C2784 1.362 . S
C2781 C2782 1.258 . S
C2781 C2784 1.431 . S
C2781 C2801 1.449 . S
C2782 C2781 1.258 . S
C2782 C2783 1.477 . S
C2782 H2802 0.931 . S
C2783 C2779 1.460 . S
C2783 C2782 1.477 . S
C2783 H2803 0.930 . S
C2784 N2780 1.362 . S
C2784 C2781 1.431 . S
C2784 C2794 1.476 . S
H2785 C2779 0.929 . S
C2786 O2777 1.250 . S
C2786 O2778 1.258 . S
O2787 Mn2772 2.162 . S
O2787 C2775 1.281 . S
O2788 Mn2772 2.297 . S
O2788 C2775 1.236 . S
N2789 Mn2773 2.282 . S
N2789 C2790 1.328 . S
N2789 C2794 1.318 . S
C2790 N2789 1.328 . S
C2790 C2791 1.457 . S
C2790 H2795 0.929 . S
C2791 C2790 1.457 . S
C2791 C2792 1.291 . S
C2791 H2804 0.931 . S
C2792 C2791 1.291 . S
C2792 C2793 1.373 . S
C2792 H2805 0.929 . S
C2793 C2792 1.373 . S
C2793 C2794 1.396 . S
C2793 C2800 1.403 . S
C2794 C2784 1.476 . S
C2794 N2789 1.318 . S
C2794 C2793 1.396 . S
H2795 C2790 0.929 . S
O2796 Mn2772 2.385 . S
O2796 C2774 1.234 . S
O2797 Mn2772 2.209 . S
O2797 Mn2773 2.215 . S
O2797 C2774 1.283 . S
O2798 Mn2772 2.094 . S
O2798 C2776 1.240 . S
O2799 Mn2773 2.117 . S
O2799 C2776 1.264 . S
C2800 C2793 1.403 . S
C2800 C2801 1.399 . S
C2800 H2806 0.929 . S
C2801 C2781 1.449 . S
C2801 C2800 1.399 . S
C2801 H2807 0.930 . S
H2802 C2782 0.931 . S
H2803 C2783 0.930 . S
H2804 C2791 0.931 . S
H2805 C2792 0.929 . S
H2806 C2800 0.929 . S
H2807 C2801 0.930 . S
Mn2808 O2813 2.095 . S
Mn2808 O2823 2.162 . S
Mn2808 O2824 2.297 . S
Mn2808 O2832 2.385 . S
Mn2808 O2833 2.209 . S
Mn2808 O2834 2.094 . S
Mn2809 O2814 2.121 . S
Mn2809 N2816 2.257 . S
Mn2809 N2825 2.282 . S
Mn2809 O2833 2.215 . S
Mn2809 O2835 2.117 . S
C2810 O2832 1.234 . S
C2810 O2833 1.283 . S
C2811 O2823 1.281 . S
C2811 O2824 1.236 . S
C2812 O2834 1.240 . S
C2812 O2835 1.264 . S
O2813 Mn2808 2.095 . S
O2813 C2822 1.250 . S
O2814 Mn2809 2.121 . S
O2814 C2822 1.258 . S
C2815 N2816 1.326 . S
C2815 C2819 1.460 . S
C2815 H2821 0.929 . S
N2816 Mn2809 2.257 . S
N2816 C2815 1.326 . S
N2816 C2820 1.362 . S
C2817 C2818 1.258 . S
C2817 C2820 1.431 . S
C2817 C2837 1.449 . S
C2818 C2817 1.258 . S
C2818 C2819 1.477 . S
C2818 H2838 0.931 . S
C2819 C2815 1.460 . S
C2819 C2818 1.477 . S
C2819 H2839 0.930 . S
C2820 N2816 1.362 . S
C2820 C2817 1.431 . S
C2820 C2830 1.476 . S
H2821 C2815 0.929 . S
C2822 O2813 1.250 . S
C2822 O2814 1.258 . S
O2823 Mn2808 2.162 . S
O2823 C2811 1.281 . S
O2824 Mn2808 2.297 . S
O2824 C2811 1.236 . S
N2825 Mn2809 2.282 . S
N2825 C2826 1.328 . S
N2825 C2830 1.318 . S
C2826 N2825 1.328 . S
C2826 C2827 1.457 . S
C2826 H2831 0.929 . S
C2827 C2826 1.457 . S
C2827 C2828 1.291 . S
C2827 H2840 0.931 . S
C2828 C2827 1.291 . S
C2828 C2829 1.373 . S
C2828 H2841 0.929 . S
C2829 C2828 1.373 . S
C2829 C2830 1.396 . S
C2829 C2836 1.403 . S
C2830 C2820 1.476 . S
C2830 N2825 1.318 . S
C2830 C2829 1.396 . S
H2831 C2826 0.929 . S
O2832 Mn2808 2.385 . S
O2832 C2810 1.234 . S
O2833 Mn2808 2.209 . S
O2833 Mn2809 2.215 . S
O2833 C2810 1.283 . S
O2834 Mn2808 2.094 . S
O2834 C2812 1.240 . S
O2835 Mn2809 2.117 . S
O2835 C2812 1.264 . S
C2836 C2829 1.403 . S
C2836 C2837 1.399 . S
C2836 H2842 0.929 . S
C2837 C2817 1.449 . S
C2837 C2836 1.399 . S
C2837 H2843 0.930 . S
H2838 C2818 0.931 . S
H2839 C2819 0.930 . S
H2840 C2827 0.931 . S
H2841 C2828 0.929 . S
H2842 C2836 0.929 . S
H2843 C2837 0.930 . S
Mn2844 O2849 2.095 . S
Mn2844 O2859 2.162 . S
Mn2844 O2860 2.297 . S
Mn2844 O2868 2.385 . S
Mn2844 O2869 2.209 . S
Mn2844 O2870 2.094 . S
Mn2845 O2850 2.121 . S
Mn2845 N2852 2.257 . S
Mn2845 N2861 2.282 . S
Mn2845 O2869 2.215 . S
Mn2845 O2871 2.117 . S
C2846 O2868 1.234 . S
C2846 O2869 1.283 . S
C2847 O2859 1.281 . S
C2847 O2860 1.236 . S
C2848 O2870 1.240 . S
C2848 O2871 1.264 . S
O2849 Mn2844 2.095 . S
O2849 C2858 1.250 . S
O2850 Mn2845 2.121 . S
O2850 C2858 1.258 . S
C2851 N2852 1.326 . S
C2851 C2855 1.460 . S
C2851 H2857 0.929 . S
N2852 Mn2845 2.257 . S
N2852 C2851 1.326 . S
N2852 C2856 1.362 . S
C2853 C2854 1.258 . S
C2853 C2856 1.431 . S
C2853 C2873 1.449 . S
C2854 C2853 1.258 . S
C2854 C2855 1.477 . S
C2854 H2874 0.931 . S
C2855 C2851 1.460 . S
C2855 C2854 1.477 . S
C2855 H2875 0.930 . S
C2856 N2852 1.362 . S
C2856 C2853 1.431 . S
C2856 C2866 1.476 . S
H2857 C2851 0.929 . S
C2858 O2849 1.250 . S
C2858 O2850 1.258 . S
O2859 Mn2844 2.162 . S
O2859 C2847 1.281 . S
O2860 Mn2844 2.297 . S
O2860 C2847 1.236 . S
N2861 Mn2845 2.282 . S
N2861 C2862 1.328 . S
N2861 C2866 1.318 . S
C2862 N2861 1.328 . S
C2862 C2863 1.457 . S
C2862 H2867 0.929 . S
C2863 C2862 1.457 . S
C2863 C2864 1.291 . S
C2863 H2876 0.931 . S
C2864 C2863 1.291 . S
C2864 C2865 1.373 . S
C2864 H2877 0.929 . S
C2865 C2864 1.373 . S
C2865 C2866 1.396 . S
C2865 C2872 1.403 . S
C2866 C2856 1.476 . S
C2866 N2861 1.318 . S
C2866 C2865 1.396 . S
H2867 C2862 0.929 . S
O2868 Mn2844 2.385 . S
O2868 C2846 1.234 . S
O2869 Mn2844 2.209 . S
O2869 Mn2845 2.215 . S
O2869 C2846 1.283 . S
O2870 Mn2844 2.094 . S
O2870 C2848 1.240 . S
O2871 Mn2845 2.117 . S
O2871 C2848 1.264 . S
C2872 C2865 1.403 . S
C2872 C2873 1.399 . S
C2872 H2878 0.929 . S
C2873 C2853 1.449 . S
C2873 C2872 1.399 . S
C2873 H2879 0.930 . S
H2874 C2854 0.931 . S
H2875 C2855 0.930 . S
H2876 C2863 0.931 . S
H2877 C2864 0.929 . S
H2878 C2872 0.929 . S
H2879 C2873 0.930 . S
Mn2880 O2885 2.095 . S
Mn2880 O2895 2.162 . S
Mn2880 O2896 2.297 . S
Mn2880 O2904 2.385 . S
Mn2880 O2905 2.209 . S
Mn2880 O2906 2.094 . S
Mn2881 O2886 2.121 . S
Mn2881 N2888 2.257 . S
Mn2881 N2897 2.282 . S
Mn2881 O2905 2.215 . S
Mn2881 O2907 2.117 . S
C2882 O2904 1.234 . S
C2882 O2905 1.283 . S
C2883 O2895 1.281 . S
C2883 O2896 1.236 . S
C2884 O2906 1.240 . S
C2884 O2907 1.264 . S
O2885 Mn2880 2.095 . S
O2885 C2894 1.250 . S
O2886 Mn2881 2.121 . S
O2886 C2894 1.258 . S
C2887 N2888 1.326 . S
C2887 C2891 1.460 . S
C2887 H2893 0.929 . S
N2888 Mn2881 2.257 . S
N2888 C2887 1.326 . S
N2888 C2892 1.362 . S
C2889 C2890 1.258 . S
C2889 C2892 1.431 . S
C2889 C2909 1.449 . S
C2890 C2889 1.258 . S
C2890 C2891 1.477 . S
C2890 H2910 0.931 . S
C2891 C2887 1.460 . S
C2891 C2890 1.477 . S
C2891 H2911 0.930 . S
C2892 N2888 1.362 . S
C2892 C2889 1.431 . S
C2892 C2902 1.476 . S
H2893 C2887 0.929 . S
C2894 O2885 1.250 . S
C2894 O2886 1.258 . S
O2895 Mn2880 2.162 . S
O2895 C2883 1.281 . S
O2896 Mn2880 2.297 . S
O2896 C2883 1.236 . S
N2897 Mn2881 2.282 . S
N2897 C2898 1.328 . S
N2897 C2902 1.318 . S
C2898 N2897 1.328 . S
C2898 C2899 1.457 . S
C2898 H2903 0.929 . S
C2899 C2898 1.457 . S
C2899 C2900 1.291 . S
C2899 H2912 0.931 . S
C2900 C2899 1.291 . S
C2900 C2901 1.373 . S
C2900 H2913 0.929 . S
C2901 C2900 1.373 . S
C2901 C2902 1.396 . S
C2901 C2908 1.403 . S
C2902 C2892 1.476 . S
C2902 N2897 1.318 . S
C2902 C2901 1.396 . S
H2903 C2898 0.929 . S
O2904 Mn2880 2.385 . S
O2904 C2882 1.234 . S
O2905 Mn2880 2.209 . S
O2905 Mn2881 2.215 . S
O2905 C2882 1.283 . S
O2906 Mn2880 2.094 . S
O2906 C2884 1.240 . S
O2907 Mn2881 2.117 . S
O2907 C2884 1.264 . S
C2908 C2901 1.403 . S
C2908 C2909 1.399 . S
C2908 H2914 0.929 . S
C2909 C2889 1.449 . S
C2909 C2908 1.399 . S
C2909 H2915 0.930 . S
H2910 C2890 0.931 . S
H2911 C2891 0.930 . S
H2912 C2899 0.931 . S
H2913 C2900 0.929 . S
H2914 C2908 0.929 . S
H2915 C2909 0.930 . S
Mn2916 O2921 2.095 . S
Mn2916 O2931 2.162 . S
Mn2916 O2932 2.297 . S
Mn2916 O2940 2.385 . S
Mn2916 O2941 2.209 . S
Mn2916 O2942 2.094 . S
Mn2917 O2922 2.121 . S
Mn2917 N2924 2.257 . S
Mn2917 N2933 2.282 . S
Mn2917 O2941 2.215 . S
Mn2917 O2943 2.117 . S
C2918 O2940 1.234 . S
C2918 O2941 1.283 . S
C2919 O2931 1.281 . S
C2919 O2932 1.236 . S
C2920 O2942 1.240 . S
C2920 O2943 1.264 . S
O2921 Mn2916 2.095 . S
O2921 C2930 1.250 . S
O2922 Mn2917 2.121 . S
O2922 C2930 1.258 . S
C2923 N2924 1.326 . S
C2923 C2927 1.460 . S
C2923 H2929 0.929 . S
N2924 Mn2917 2.257 . S
N2924 C2923 1.326 . S
N2924 C2928 1.362 . S
C2925 C2926 1.258 . S
C2925 C2928 1.431 . S
C2925 C2945 1.449 . S
C2926 C2925 1.258 . S
C2926 C2927 1.477 . S
C2926 H2946 0.931 . S
C2927 C2923 1.460 . S
C2927 C2926 1.477 . S
C2927 H2947 0.930 . S
C2928 N2924 1.362 . S
C2928 C2925 1.431 . S
C2928 C2938 1.476 . S
H2929 C2923 0.929 . S
C2930 O2921 1.250 . S
C2930 O2922 1.258 . S
O2931 Mn2916 2.162 . S
O2931 C2919 1.281 . S
O2932 Mn2916 2.297 . S
O2932 C2919 1.236 . S
N2933 Mn2917 2.282 . S
N2933 C2934 1.328 . S
N2933 C2938 1.318 . S
C2934 N2933 1.328 . S
C2934 C2935 1.457 . S
C2934 H2939 0.929 . S
C2935 C2934 1.457 . S
C2935 C2936 1.291 . S
C2935 H2948 0.931 . S
C2936 C2935 1.291 . S
C2936 C2937 1.373 . S
C2936 H2949 0.929 . S
C2937 C2936 1.373 . S
C2937 C2938 1.396 . S
C2937 C2944 1.403 . S
C2938 C2928 1.476 . S
C2938 N2933 1.318 . S
C2938 C2937 1.396 . S
H2939 C2934 0.929 . S
O2940 Mn2916 2.385 . S
O2940 C2918 1.234 . S
O2941 Mn2916 2.209 . S
O2941 Mn2917 2.215 . S
O2941 C2918 1.283 . S
O2942 Mn2916 2.094 . S
O2942 C2920 1.240 . S
O2943 Mn2917 2.117 . S
O2943 C2920 1.264 . S
C2944 C2937 1.403 . S
C2944 C2945 1.399 . S
C2944 H2950 0.929 . S
C2945 C2925 1.449 . S
C2945 C2944 1.399 . S
C2945 H2951 0.930 . S
H2946 C2926 0.931 . S
H2947 C2927 0.930 . S
H2948 C2935 0.931 . S
H2949 C2936 0.929 . S
H2950 C2944 0.929 . S
H2951 C2945 0.930 . S
Mn2952 O2957 2.095 . S
Mn2952 O2967 2.162 1_554 S
Mn2952 O2968 2.297 . S
Mn2952 O2976 2.385 . S
Mn2952 O2977 2.209 . S
Mn2952 O2978 2.094 . S
Mn2953 O2958 2.121 . S
Mn2953 N2960 2.257 . S
Mn2953 N2969 2.282 . S
Mn2953 O2977 2.215 . S
Mn2953 O2979 2.117 . S
C2954 O2976 1.234 . S
C2954 O2977 1.283 . S
C2955 O2967 1.272 1_554 S
C2955 O2968 1.257 . S
C2956 O2978 1.240 . S
C2956 O2979 1.264 . S
O2957 Mn2952 2.095 . S
O2957 C2966 1.250 . S
O2958 Mn2953 2.121 . S
O2958 C2966 1.258 . S
C2959 N2960 1.326 . S
C2959 C2963 1.460 . S
C2959 H2965 0.929 . S
N2960 Mn2953 2.257 . S
N2960 C2959 1.326 . S
N2960 C2964 1.362 . S
C2961 C2962 1.258 . S
C2961 C2964 1.431 . S
C2961 C2981 1.449 . S
C2962 C2961 1.258 . S
C2962 C2963 1.477 . S
C2962 H2982 0.931 . S
C2963 C2959 1.460 . S
C2963 C2962 1.477 . S
C2963 H2983 0.930 . S
C2964 N2960 1.362 . S
C2964 C2961 1.431 . S
C2964 C2974 1.476 . S
H2965 C2959 0.929 . S
C2966 O2957 1.250 . S
C2966 O2958 1.258 . S
O2967 Mn2952 2.162 1_556 S
O2967 C2955 1.272 1_556 S
O2968 Mn2952 2.297 . S
O2968 C2955 1.257 . S
N2969 Mn2953 2.282 . S
N2969 C2970 1.328 . S
N2969 C2974 1.318 . S
C2970 N2969 1.328 . S
C2970 C2971 1.457 . S
C2970 H2975 0.929 . S
C2971 C2970 1.457 . S
C2971 C2972 1.291 . S
C2971 H2984 0.931 . S
C2972 C2971 1.291 . S
C2972 C2973 1.373 . S
C2972 H2985 0.929 . S
C2973 C2972 1.373 . S
C2973 C2974 1.396 . S
C2973 C2980 1.403 . S
C2974 C2964 1.476 . S
C2974 N2969 1.318 . S
C2974 C2973 1.396 . S
H2975 C2970 0.929 . S
O2976 Mn2952 2.385 . S
O2976 C2954 1.234 . S
O2977 Mn2952 2.209 . S
O2977 Mn2953 2.215 . S
O2977 C2954 1.283 . S
O2978 Mn2952 2.094 . S
O2978 C2956 1.240 . S
O2979 Mn2953 2.117 . S
O2979 C2956 1.264 . S
C2980 C2973 1.403 . S
C2980 C2981 1.399 . S
C2980 H2986 0.929 . S
C2981 C2961 1.449 . S
C2981 C2980 1.399 . S
C2981 H2987 0.930 . S
H2982 C2962 0.931 . S
H2983 C2963 0.930 . S
H2984 C2971 0.931 . S
H2985 C2972 0.929 . S
H2986 C2980 0.929 . S
H2987 C2981 0.930 . S
Mn2988 O2993 2.095 . S
Mn2988 O3003 2.162 . S
Mn2988 O3004 2.297 . S
Mn2988 O3012 2.385 . S
Mn2988 O3013 2.209 . S
Mn2988 O3014 2.094 . S
Mn2989 O2994 2.121 . S
Mn2989 N2996 2.257 . S
Mn2989 N3005 2.282 . S
Mn2989 O3013 2.215 . S
Mn2989 O3015 2.117 . S
C2990 O3012 1.234 . S
C2990 O3013 1.283 . S
C2991 O3003 1.281 . S
C2991 O3004 1.236 . S
C2992 O3014 1.240 . S
C2992 O3015 1.264 . S
O2993 Mn2988 2.095 . S
O2993 C3002 1.250 . S
O2994 Mn2989 2.121 . S
O2994 C3002 1.258 . S
C2995 N2996 1.326 . S
C2995 C2999 1.460 . S
C2995 H3001 0.929 . S
N2996 Mn2989 2.257 . S
N2996 C2995 1.326 . S
N2996 C3000 1.362 . S
C2997 C2998 1.258 . S
C2997 C3000 1.431 . S
C2997 C3017 1.449 . S
C2998 C2997 1.258 . S
C2998 C2999 1.477 . S
C2998 H3018 0.931 . S
C2999 C2995 1.460 . S
C2999 C2998 1.477 . S
C2999 H3019 0.930 . S
C3000 N2996 1.362 . S
C3000 C2997 1.431 . S
C3000 C3010 1.476 . S
H3001 C2995 0.929 . S
C3002 O2993 1.250 . S
C3002 O2994 1.258 . S
O3003 Mn2988 2.162 . S
O3003 C2991 1.281 . S
O3004 Mn2988 2.297 . S
O3004 C2991 1.236 . S
N3005 Mn2989 2.282 . S
N3005 C3006 1.328 . S
N3005 C3010 1.318 . S
C3006 N3005 1.328 . S
C3006 C3007 1.457 . S
C3006 H3011 0.929 . S
C3007 C3006 1.457 . S
C3007 C3008 1.291 . S
C3007 H3020 0.931 . S
C3008 C3007 1.291 . S
C3008 C3009 1.373 . S
C3008 H3021 0.929 . S
C3009 C3008 1.373 . S
C3009 C3010 1.396 . S
C3009 C3016 1.403 . S
C3010 C3000 1.476 . S
C3010 N3005 1.318 . S
C3010 C3009 1.396 . S
H3011 C3006 0.929 . S
O3012 Mn2988 2.385 . S
O3012 C2990 1.234 . S
O3013 Mn2988 2.209 . S
O3013 Mn2989 2.215 . S
O3013 C2990 1.283 . S
O3014 Mn2988 2.094 . S
O3014 C2992 1.240 . S
O3015 Mn2989 2.117 . S
O3015 C2992 1.264 . S
C3016 C3009 1.403 . S
C3016 C3017 1.399 . S
C3016 H3022 0.929 . S
C3017 C2997 1.449 . S
C3017 C3016 1.399 . S
C3017 H3023 0.930 . S
H3018 C2998 0.931 . S
H3019 C2999 0.930 . S
H3020 C3007 0.931 . S
H3021 C3008 0.929 . S
H3022 C3016 0.929 . S
H3023 C3017 0.930 . S
Mn3024 O3029 2.095 . S
Mn3024 O3039 2.162 . S
Mn3024 O3040 2.297 . S
Mn3024 O3048 2.385 . S
Mn3024 O3049 2.209 . S
Mn3024 O3050 2.094 . S
Mn3025 O3030 2.121 . S
Mn3025 N3032 2.257 . S
Mn3025 N3041 2.282 . S
Mn3025 O3049 2.215 . S
Mn3025 O3051 2.117 . S
C3026 O3048 1.234 . S
C3026 O3049 1.283 . S
C3027 O3039 1.281 . S
C3027 O3040 1.236 . S
C3028 O3050 1.240 . S
C3028 O3051 1.264 . S
O3029 Mn3024 2.095 . S
O3029 C3038 1.250 . S
O3030 Mn3025 2.121 . S
O3030 C3038 1.258 . S
C3031 N3032 1.326 . S
C3031 C3035 1.460 . S
C3031 H3037 0.929 . S
N3032 Mn3025 2.257 . S
N3032 C3031 1.326 . S
N3032 C3036 1.362 . S
C3033 C3034 1.258 . S
C3033 C3036 1.431 . S
C3033 C3053 1.449 . S
C3034 C3033 1.258 . S
C3034 C3035 1.477 . S
C3034 H3054 0.931 . S
C3035 C3031 1.460 . S
C3035 C3034 1.477 . S
C3035 H3055 0.930 . S
C3036 N3032 1.362 . S
C3036 C3033 1.431 . S
C3036 C3046 1.476 . S
H3037 C3031 0.929 . S
C3038 O3029 1.250 . S
C3038 O3030 1.258 . S
O3039 Mn3024 2.162 . S
O3039 C3027 1.281 . S
O3040 Mn3024 2.297 . S
O3040 C3027 1.236 . S
N3041 Mn3025 2.282 . S
N3041 C3042 1.328 . S
N3041 C3046 1.318 . S
C3042 N3041 1.328 . S
C3042 C3043 1.457 . S
C3042 H3047 0.929 . S
C3043 C3042 1.457 . S
C3043 C3044 1.291 . S
C3043 H3056 0.931 . S
C3044 C3043 1.291 . S
C3044 C3045 1.373 . S
C3044 H3057 0.929 . S
C3045 C3044 1.373 . S
C3045 C3046 1.396 . S
C3045 C3052 1.403 . S
C3046 C3036 1.476 . S
C3046 N3041 1.318 . S
C3046 C3045 1.396 . S
H3047 C3042 0.929 . S
O3048 Mn3024 2.385 . S
O3048 C3026 1.234 . S
O3049 Mn3024 2.209 . S
O3049 Mn3025 2.215 . S
O3049 C3026 1.283 . S
O3050 Mn3024 2.094 . S
O3050 C3028 1.240 . S
O3051 Mn3025 2.117 . S
O3051 C3028 1.264 . S
C3052 C3045 1.403 . S
C3052 C3053 1.399 . S
C3052 H3058 0.929 . S
C3053 C3033 1.449 . S
C3053 C3052 1.399 . S
C3053 H3059 0.930 . S
H3054 C3034 0.931 . S
H3055 C3035 0.930 . S
H3056 C3043 0.931 . S
H3057 C3044 0.929 . S
H3058 C3052 0.929 . S
H3059 C3053 0.930 . S
Mn3060 O3065 2.095 . S
Mn3060 O3075 2.162 . S
Mn3060 O3076 2.297 . S
Mn3060 O3084 2.385 . S
Mn3060 O3085 2.209 . S
Mn3060 O3086 2.094 . S
Mn3061 O3066 2.121 . S
Mn3061 N3068 2.257 . S
Mn3061 N3077 2.282 . S
Mn3061 O3085 2.215 . S
Mn3061 O3087 2.117 . S
C3062 O3084 1.234 . S
C3062 O3085 1.283 . S
C3063 O3075 1.281 . S
C3063 O3076 1.236 . S
C3064 O3086 1.240 . S
C3064 O3087 1.264 . S
O3065 Mn3060 2.095 . S
O3065 C3074 1.250 . S
O3066 Mn3061 2.121 . S
O3066 C3074 1.258 . S
C3067 N3068 1.326 . S
C3067 C3071 1.460 . S
C3067 H3073 0.929 . S
N3068 Mn3061 2.257 . S
N3068 C3067 1.326 . S
N3068 C3072 1.362 . S
C3069 C3070 1.258 . S
C3069 C3072 1.431 . S
C3069 C3089 1.449 . S
C3070 C3069 1.258 . S
C3070 C3071 1.477 . S
C3070 H3090 0.931 . S
C3071 C3067 1.460 . S
C3071 C3070 1.477 . S
C3071 H3091 0.930 . S
C3072 N3068 1.362 . S
C3072 C3069 1.431 . S
C3072 C3082 1.476 . S
H3073 C3067 0.929 . S
C3074 O3065 1.250 . S
C3074 O3066 1.258 . S
O3075 Mn3060 2.162 . S
O3075 C3063 1.281 . S
O3076 Mn3060 2.297 . S
O3076 C3063 1.236 . S
N3077 Mn3061 2.282 . S
N3077 C3078 1.328 . S
N3077 C3082 1.318 . S
C3078 N3077 1.328 . S
C3078 C3079 1.457 . S
C3078 H3083 0.929 . S
C3079 C3078 1.457 . S
C3079 C3080 1.291 . S
C3079 H3092 0.931 . S
C3080 C3079 1.291 . S
C3080 C3081 1.373 . S
C3080 H3093 0.929 . S
C3081 C3080 1.373 . S
C3081 C3082 1.396 . S
C3081 C3088 1.403 . S
C3082 C3072 1.476 . S
C3082 N3077 1.318 . S
C3082 C3081 1.396 . S
H3083 C3078 0.929 . S
O3084 Mn3060 2.385 . S
O3084 C3062 1.234 . S
O3085 Mn3060 2.209 . S
O3085 Mn3061 2.215 . S
O3085 C3062 1.283 . S
O3086 Mn3060 2.094 . S
O3086 C3064 1.240 . S
O3087 Mn3061 2.117 . S
O3087 C3064 1.264 . S
C3088 C3081 1.403 . S
C3088 C3089 1.399 . S
C3088 H3094 0.929 . S
C3089 C3069 1.449 . S
C3089 C3088 1.399 . S
C3089 H3095 0.930 . S
H3090 C3070 0.931 . S
H3091 C3071 0.930 . S
H3092 C3079 0.931 . S
H3093 C3080 0.929 . S
H3094 C3088 0.929 . S
H3095 C3089 0.930 . S
Mn3096 O3101 2.095 . S
Mn3096 O3111 2.162 1_556 S
Mn3096 O3112 2.297 . S
Mn3096 O3120 2.385 . S
Mn3096 O3121 2.209 . S
Mn3096 O3122 2.094 . S
Mn3097 O3102 2.121 . S
Mn3097 N3104 2.257 . S
Mn3097 N3113 2.282 . S
Mn3097 O3121 2.215 . S
Mn3097 O3123 2.117 . S
C3098 O3120 1.234 . S
C3098 O3121 1.283 . S
C3099 O3111 1.272 1_556 S
C3099 O3112 1.257 . S
C3100 O3122 1.240 . S
C3100 O3123 1.264 . S
O3101 Mn3096 2.095 . S
O3101 C3110 1.250 . S
O3102 Mn3097 2.121 . S
O3102 C3110 1.258 . S
C3103 N3104 1.326 . S
C3103 C3107 1.460 . S
C3103 H3109 0.929 . S
N3104 Mn3097 2.257 . S
N3104 C3103 1.326 . S
N3104 C3108 1.362 . S
C3105 C3106 1.258 . S
C3105 C3108 1.431 . S
C3105 C3125 1.449 . S
C3106 C3105 1.258 . S
C3106 C3107 1.477 . S
C3106 H3126 0.931 . S
C3107 C3103 1.460 . S
C3107 C3106 1.477 . S
C3107 H3127 0.930 . S
C3108 N3104 1.362 . S
C3108 C3105 1.431 . S
C3108 C3118 1.476 . S
H3109 C3103 0.929 . S
C3110 O3101 1.250 . S
C3110 O3102 1.258 . S
O3111 Mn3096 2.162 1_554 S
O3111 C3099 1.272 1_554 S
O3112 Mn3096 2.297 . S
O3112 C3099 1.257 . S
N3113 Mn3097 2.282 . S
N3113 C3114 1.328 . S
N3113 C3118 1.318 . S
C3114 N3113 1.328 . S
C3114 C3115 1.457 . S
C3114 H3119 0.929 . S
C3115 C3114 1.457 . S
C3115 C3116 1.291 . S
C3115 H3128 0.931 . S
C3116 C3115 1.291 . S
C3116 C3117 1.373 . S
C3116 H3129 0.929 . S
C3117 C3116 1.373 . S
C3117 C3118 1.396 . S
C3117 C3124 1.403 . S
C3118 C3108 1.476 . S
C3118 N3113 1.318 . S
C3118 C3117 1.396 . S
H3119 C3114 0.929 . S
O3120 Mn3096 2.385 . S
O3120 C3098 1.234 . S
O3121 Mn3096 2.209 . S
O3121 Mn3097 2.215 . S
O3121 C3098 1.283 . S
O3122 Mn3096 2.094 . S
O3122 C3100 1.240 . S
O3123 Mn3097 2.117 . S
O3123 C3100 1.264 . S
C3124 C3117 1.403 . S
C3124 C3125 1.399 . S
C3124 H3130 0.929 . S
C3125 C3105 1.449 . S
C3125 C3124 1.399 . S
C3125 H3131 0.930 . S
H3126 C3106 0.931 . S
H3127 C3107 0.930 . S
H3128 C3115 0.931 . S
H3129 C3116 0.929 . S
H3130 C3124 0.929 . S
H3131 C3125 0.930 . S
Mn3132 O3137 2.095 . S
Mn3132 O3147 2.162 . S
Mn3132 O3148 2.297 . S
Mn3132 O3156 2.385 . S
Mn3132 O3157 2.209 . S
Mn3132 O3158 2.094 . S
Mn3133 O3138 2.121 . S
Mn3133 N3140 2.257 . S
Mn3133 N3149 2.282 . S
Mn3133 O3157 2.215 . S
Mn3133 O3159 2.117 . S
C3134 O3156 1.234 . S
C3134 O3157 1.283 . S
C3135 O3147 1.281 . S
C3135 O3148 1.236 . S
C3136 O3158 1.240 . S
C3136 O3159 1.264 . S
O3137 Mn3132 2.095 . S
O3137 C3146 1.250 . S
O3138 Mn3133 2.121 . S
O3138 C3146 1.258 . S
C3139 N3140 1.326 . S
C3139 C3143 1.460 . S
C3139 H3145 0.929 . S
N3140 Mn3133 2.257 . S
N3140 C3139 1.326 . S
N3140 C3144 1.362 . S
C3141 C3142 1.258 . S
C3141 C3144 1.431 . S
C3141 C3161 1.449 . S
C3142 C3141 1.258 . S
C3142 C3143 1.477 . S
C3142 H3162 0.931 . S
C3143 C3139 1.460 . S
C3143 C3142 1.477 . S
C3143 H3163 0.930 . S
C3144 N3140 1.362 . S
C3144 C3141 1.431 . S
C3144 C3154 1.476 . S
H3145 C3139 0.929 . S
C3146 O3137 1.250 . S
C3146 O3138 1.258 . S
O3147 Mn3132 2.162 . S
O3147 C3135 1.281 . S
O3148 Mn3132 2.297 . S
O3148 C3135 1.236 . S
N3149 Mn3133 2.282 . S
N3149 C3150 1.328 . S
N3149 C3154 1.318 . S
C3150 N3149 1.328 . S
C3150 C3151 1.457 . S
C3150 H3155 0.929 . S
C3151 C3150 1.457 . S
C3151 C3152 1.291 . S
C3151 H3164 0.931 . S
C3152 C3151 1.291 . S
C3152 C3153 1.373 . S
C3152 H3165 0.929 . S
C3153 C3152 1.373 . S
C3153 C3154 1.396 . S
C3153 C3160 1.403 . S
C3154 C3144 1.476 . S
C3154 N3149 1.318 . S
C3154 C3153 1.396 . S
H3155 C3150 0.929 . S
O3156 Mn3132 2.385 . S
O3156 C3134 1.234 . S
O3157 Mn3132 2.209 . S
O3157 Mn3133 2.215 . S
O3157 C3134 1.283 . S
O3158 Mn3132 2.094 . S
O3158 C3136 1.240 . S
O3159 Mn3133 2.117 . S
O3159 C3136 1.264 . S
C3160 C3153 1.403 . S
C3160 C3161 1.399 . S
C3160 H3166 0.929 . S
C3161 C3141 1.449 . S
C3161 C3160 1.399 . S
C3161 H3167 0.930 . S
H3162 C3142 0.931 . S
H3163 C3143 0.930 . S
H3164 C3151 0.931 . S
H3165 C3152 0.929 . S
H3166 C3160 0.929 . S
H3167 C3161 0.930 . S
Mn3168 O3173 2.095 . S
Mn3168 O3183 2.162 1_455 S
Mn3168 O3184 2.297 . S
Mn3168 O3192 2.385 . S
Mn3168 O3193 2.209 . S
Mn3168 O3194 2.094 . S
Mn3169 O3174 2.121 . S
Mn3169 N3176 2.257 . S
Mn3169 N3185 2.282 . S
Mn3169 O3193 2.215 . S
Mn3169 O3195 2.117 . S
C3170 O3192 1.234 . S
C3170 O3193 1.283 . S
C3171 O3183 1.272 1_455 S
C3171 O3184 1.257 . S
C3172 O3194 1.240 . S
C3172 O3195 1.264 . S
O3173 Mn3168 2.095 . S
O3173 C3182 1.250 . S
O3174 Mn3169 2.121 . S
O3174 C3182 1.258 . S
C3175 N3176 1.326 . S
C3175 C3179 1.460 . S
C3175 H3181 0.929 . S
N3176 Mn3169 2.257 . S
N3176 C3175 1.326 . S
N3176 C3180 1.362 . S
C3177 C3178 1.258 . S
C3177 C3180 1.431 . S
C3177 C3197 1.449 . S
C3178 C3177 1.258 . S
C3178 C3179 1.477 . S
C3178 H3198 0.931 . S
C3179 C3175 1.460 . S
C3179 C3178 1.477 . S
C3179 H3199 0.930 . S
C3180 N3176 1.362 . S
C3180 C3177 1.431 . S
C3180 C3190 1.476 . S
H3181 C3175 0.929 . S
C3182 O3173 1.250 . S
C3182 O3174 1.258 . S
O3183 Mn3168 2.162 1_655 S
O3183 C3171 1.272 1_655 S
O3184 Mn3168 2.297 . S
O3184 C3171 1.257 . S
N3185 Mn3169 2.282 . S
N3185 C3186 1.328 . S
N3185 C3190 1.318 . S
C3186 N3185 1.328 . S
C3186 C3187 1.457 . S
C3186 H3191 0.929 . S
C3187 C3186 1.457 . S
C3187 C3188 1.291 . S
C3187 H3200 0.931 . S
C3188 C3187 1.291 . S
C3188 C3189 1.373 . S
C3188 H3201 0.929 . S
C3189 C3188 1.373 . S
C3189 C3190 1.396 . S
C3189 C3196 1.403 . S
C3190 C3180 1.476 . S
C3190 N3185 1.318 . S
C3190 C3189 1.396 . S
H3191 C3186 0.929 . S
O3192 Mn3168 2.385 . S
O3192 C3170 1.234 . S
O3193 Mn3168 2.209 . S
O3193 Mn3169 2.215 . S
O3193 C3170 1.283 . S
O3194 Mn3168 2.094 . S
O3194 C3172 1.240 . S
O3195 Mn3169 2.117 . S
O3195 C3172 1.264 . S
C3196 C3189 1.403 . S
C3196 C3197 1.399 . S
C3196 H3202 0.929 . S
C3197 C3177 1.449 . S
C3197 C3196 1.399 . S
C3197 H3203 0.930 . S
H3198 C3178 0.931 . S
H3199 C3179 0.930 . S
H3200 C3187 0.931 . S
H3201 C3188 0.929 . S
H3202 C3196 0.929 . S
H3203 C3197 0.930 . S
Mn3204 O3209 2.095 . S
Mn3204 O3219 2.162 . S
Mn3204 O3220 2.297 . S
Mn3204 O3228 2.385 . S
Mn3204 O3229 2.209 . S
Mn3204 O3230 2.094 . S
Mn3205 O3210 2.121 . S
Mn3205 N3212 2.257 . S
Mn3205 N3221 2.282 . S
Mn3205 O3229 2.215 . S
Mn3205 O3231 2.117 . S
C3206 O3228 1.234 . S
C3206 O3229 1.283 . S
C3207 O3219 1.281 . S
C3207 O3220 1.236 . S
C3208 O3230 1.240 . S
C3208 O3231 1.264 . S
O3209 Mn3204 2.095 . S
O3209 C3218 1.250 . S
O3210 Mn3205 2.121 . S
O3210 C3218 1.258 . S
C3211 N3212 1.326 . S
C3211 C3215 1.460 . S
C3211 H3217 0.929 . S
N3212 Mn3205 2.257 . S
N3212 C3211 1.326 . S
N3212 C3216 1.362 . S
C3213 C3214 1.258 . S
C3213 C3216 1.431 . S
C3213 C3233 1.449 . S
C3214 C3213 1.258 . S
C3214 C3215 1.477 . S
C3214 H3234 0.931 . S
C3215 C3211 1.460 . S
C3215 C3214 1.477 . S
C3215 H3235 0.930 . S
C3216 N3212 1.362 . S
C3216 C3213 1.431 . S
C3216 C3226 1.476 . S
H3217 C3211 0.929 . S
C3218 O3209 1.250 . S
C3218 O3210 1.258 . S
O3219 Mn3204 2.162 . S
O3219 C3207 1.281 . S
O3220 Mn3204 2.297 . S
O3220 C3207 1.236 . S
N3221 Mn3205 2.282 . S
N3221 C3222 1.328 . S
N3221 C3226 1.318 . S
C3222 N3221 1.328 . S
C3222 C3223 1.457 . S
C3222 H3227 0.929 . S
C3223 C3222 1.457 . S
C3223 C3224 1.291 . S
C3223 H3236 0.931 . S
C3224 C3223 1.291 . S
C3224 C3225 1.373 . S
C3224 H3237 0.929 . S
C3225 C3224 1.373 . S
C3225 C3226 1.396 . S
C3225 C3232 1.403 . S
C3226 C3216 1.476 . S
C3226 N3221 1.318 . S
C3226 C3225 1.396 . S
H3227 C3222 0.929 . S
O3228 Mn3204 2.385 . S
O3228 C3206 1.234 . S
O3229 Mn3204 2.209 . S
O3229 Mn3205 2.215 . S
O3229 C3206 1.283 . S
O3230 Mn3204 2.094 . S
O3230 C3208 1.240 . S
O3231 Mn3205 2.117 . S
O3231 C3208 1.264 . S
C3232 C3225 1.403 . S
C3232 C3233 1.399 . S
C3232 H3238 0.929 . S
C3233 C3213 1.449 . S
C3233 C3232 1.399 . S
C3233 H3239 0.930 . S
H3234 C3214 0.931 . S
H3235 C3215 0.930 . S
H3236 C3223 0.931 . S
H3237 C3224 0.929 . S
H3238 C3232 0.929 . S
H3239 C3233 0.930 . S
Mn3240 O3245 2.095 . S
Mn3240 O3255 2.162 . S
Mn3240 O3256 2.297 . S
Mn3240 O3264 2.385 . S
Mn3240 O3265 2.209 . S
Mn3240 O3266 2.094 . S
Mn3241 O3246 2.121 . S
Mn3241 N3248 2.257 . S
Mn3241 N3257 2.282 . S
Mn3241 O3265 2.215 . S
Mn3241 O3267 2.117 . S
C3242 O3264 1.234 . S
C3242 O3265 1.283 . S
C3243 O3255 1.281 . S
C3243 O3256 1.236 . S
C3244 O3266 1.240 . S
C3244 O3267 1.264 . S
O3245 Mn3240 2.095 . S
O3245 C3254 1.250 . S
O3246 Mn3241 2.121 . S
O3246 C3254 1.258 . S
C3247 N3248 1.326 . S
C3247 C3251 1.460 . S
C3247 H3253 0.929 . S
N3248 Mn3241 2.257 . S
N3248 C3247 1.326 . S
N3248 C3252 1.362 . S
C3249 C3250 1.258 . S
C3249 C3252 1.431 . S
C3249 C3269 1.449 . S
C3250 C3249 1.258 . S
C3250 C3251 1.477 . S
C3250 H3270 0.931 . S
C3251 C3247 1.460 . S
C3251 C3250 1.477 . S
C3251 H3271 0.930 . S
C3252 N3248 1.362 . S
C3252 C3249 1.431 . S
C3252 C3262 1.476 . S
H3253 C3247 0.929 . S
C3254 O3245 1.250 . S
C3254 O3246 1.258 . S
O3255 Mn3240 2.162 . S
O3255 C3243 1.281 . S
O3256 Mn3240 2.297 . S
O3256 C3243 1.236 . S
N3257 Mn3241 2.282 . S
N3257 C3258 1.328 . S
N3257 C3262 1.318 . S
C3258 N3257 1.328 . S
C3258 C3259 1.457 . S
C3258 H3263 0.929 . S
C3259 C3258 1.457 . S
C3259 C3260 1.291 . S
C3259 H3272 0.931 . S
C3260 C3259 1.291 . S
C3260 C3261 1.373 . S
C3260 H3273 0.929 . S
C3261 C3260 1.373 . S
C3261 C3262 1.396 . S
C3261 C3268 1.403 . S
C3262 C3252 1.476 . S
C3262 N3257 1.318 . S
C3262 C3261 1.396 . S
H3263 C3258 0.929 . S
O3264 Mn3240 2.385 . S
O3264 C3242 1.234 . S
O3265 Mn3240 2.209 . S
O3265 Mn3241 2.215 . S
O3265 C3242 1.283 . S
O3266 Mn3240 2.094 . S
O3266 C3244 1.240 . S
O3267 Mn3241 2.117 . S
O3267 C3244 1.264 . S
C3268 C3261 1.403 . S
C3268 C3269 1.399 . S
C3268 H3274 0.929 . S
C3269 C3249 1.449 . S
C3269 C3268 1.399 . S
C3269 H3275 0.930 . S
H3270 C3250 0.931 . S
H3271 C3251 0.930 . S
H3272 C3259 0.931 . S
H3273 C3260 0.929 . S
H3274 C3268 0.929 . S
H3275 C3269 0.930 . S
Mn3276 O3281 2.095 . S
Mn3276 O3291 2.162 . S
Mn3276 O3292 2.297 . S
Mn3276 O3300 2.385 . S
Mn3276 O3301 2.209 . S
Mn3276 O3302 2.094 . S
Mn3277 O3282 2.121 . S
Mn3277 N3284 2.257 . S
Mn3277 N3293 2.282 . S
Mn3277 O3301 2.215 . S
Mn3277 O3303 2.117 . S
C3278 O3300 1.234 . S
C3278 O3301 1.283 . S
C3279 O3291 1.281 . S
C3279 O3292 1.236 . S
C3280 O3302 1.240 . S
C3280 O3303 1.264 . S
O3281 Mn3276 2.095 . S
O3281 C3290 1.250 . S
O3282 Mn3277 2.121 . S
O3282 C3290 1.258 . S
C3283 N3284 1.326 . S
C3283 C3287 1.460 . S
C3283 H3289 0.929 . S
N3284 Mn3277 2.257 . S
N3284 C3283 1.326 . S
N3284 C3288 1.362 . S
C3285 C3286 1.258 . S
C3285 C3288 1.431 . S
C3285 C3305 1.449 . S
C3286 C3285 1.258 . S
C3286 C3287 1.477 . S
C3286 H3306 0.931 . S
C3287 C3283 1.460 . S
C3287 C3286 1.477 . S
C3287 H3307 0.930 . S
C3288 N3284 1.362 . S
C3288 C3285 1.431 . S
C3288 C3298 1.476 . S
H3289 C3283 0.929 . S
C3290 O3281 1.250 . S
C3290 O3282 1.258 . S
O3291 Mn3276 2.162 . S
O3291 C3279 1.281 . S
O3292 Mn3276 2.297 . S
O3292 C3279 1.236 . S
N3293 Mn3277 2.282 . S
N3293 C3294 1.328 . S
N3293 C3298 1.318 . S
C3294 N3293 1.328 . S
C3294 C3295 1.457 . S
C3294 H3299 0.929 . S
C3295 C3294 1.457 . S
C3295 C3296 1.291 . S
C3295 H3308 0.931 . S
C3296 C3295 1.291 . S
C3296 C3297 1.373 . S
C3296 H3309 0.929 . S
C3297 C3296 1.373 . S
C3297 C3298 1.396 . S
C3297 C3304 1.403 . S
C3298 C3288 1.476 . S
C3298 N3293 1.318 . S
C3298 C3297 1.396 . S
H3299 C3294 0.929 . S
O3300 Mn3276 2.385 . S
O3300 C3278 1.234 . S
O3301 Mn3276 2.209 . S
O3301 Mn3277 2.215 . S
O3301 C3278 1.283 . S
O3302 Mn3276 2.094 . S
O3302 C3280 1.240 . S
O3303 Mn3277 2.117 . S
O3303 C3280 1.264 . S
C3304 C3297 1.403 . S
C3304 C3305 1.399 . S
C3304 H3310 0.929 . S
C3305 C3285 1.449 . S
C3305 C3304 1.399 . S
C3305 H3311 0.930 . S
H3306 C3286 0.931 . S
H3307 C3287 0.930 . S
H3308 C3295 0.931 . S
H3309 C3296 0.929 . S
H3310 C3304 0.929 . S
H3311 C3305 0.930 . S
Mn3312 O3317 2.095 . S
Mn3312 O3327 2.162 . S
Mn3312 O3328 2.297 . S
Mn3312 O3336 2.385 . S
Mn3312 O3337 2.209 . S
Mn3312 O3338 2.094 . S
Mn3313 O3318 2.121 . S
Mn3313 N3320 2.257 . S
Mn3313 N3329 2.282 . S
Mn3313 O3337 2.215 . S
Mn3313 O3339 2.117 . S
C3314 O3336 1.234 . S
C3314 O3337 1.283 . S
C3315 O3327 1.281 . S
C3315 O3328 1.236 . S
C3316 O3338 1.240 . S
C3316 O3339 1.264 . S
O3317 Mn3312 2.095 . S
O3317 C3326 1.250 . S
O3318 Mn3313 2.121 . S
O3318 C3326 1.258 . S
C3319 N3320 1.326 . S
C3319 C3323 1.460 . S
C3319 H3325 0.929 . S
N3320 Mn3313 2.257 . S
N3320 C3319 1.326 . S
N3320 C3324 1.362 . S
C3321 C3322 1.258 . S
C3321 C3324 1.431 . S
C3321 C3341 1.449 . S
C3322 C3321 1.258 . S
C3322 C3323 1.477 . S
C3322 H3342 0.931 . S
C3323 C3319 1.460 . S
C3323 C3322 1.477 . S
C3323 H3343 0.930 . S
C3324 N3320 1.362 . S
C3324 C3321 1.431 . S
C3324 C3334 1.476 . S
H3325 C3319 0.929 . S
C3326 O3317 1.250 . S
C3326 O3318 1.258 . S
O3327 Mn3312 2.162 . S
O3327 C3315 1.281 . S
O3328 Mn3312 2.297 . S
O3328 C3315 1.236 . S
N3329 Mn3313 2.282 . S
N3329 C3330 1.328 . S
N3329 C3334 1.318 . S
C3330 N3329 1.328 . S
C3330 C3331 1.457 . S
C3330 H3335 0.929 . S
C3331 C3330 1.457 . S
C3331 C3332 1.291 . S
C3331 H3344 0.931 . S
C3332 C3331 1.291 . S
C3332 C3333 1.373 . S
C3332 H3345 0.929 . S
C3333 C3332 1.373 . S
C3333 C3334 1.396 . S
C3333 C3340 1.403 . S
C3334 C3324 1.476 . S
C3334 N3329 1.318 . S
C3334 C3333 1.396 . S
H3335 C3330 0.929 . S
O3336 Mn3312 2.385 . S
O3336 C3314 1.234 . S
O3337 Mn3312 2.209 . S
O3337 Mn3313 2.215 . S
O3337 C3314 1.283 . S
O3338 Mn3312 2.094 . S
O3338 C3316 1.240 . S
O3339 Mn3313 2.117 . S
O3339 C3316 1.264 . S
C3340 C3333 1.403 . S
C3340 C3341 1.399 . S
C3340 H3346 0.929 . S
C3341 C3321 1.449 . S
C3341 C3340 1.399 . S
C3341 H3347 0.930 . S
H3342 C3322 0.931 . S
H3343 C3323 0.930 . S
H3344 C3331 0.931 . S
H3345 C3332 0.929 . S
H3346 C3340 0.929 . S
H3347 C3341 0.930 . S
Mn3348 O3353 2.095 . S
Mn3348 O3363 2.162 1_655 S
Mn3348 O3364 2.297 . S
Mn3348 O3372 2.385 . S
Mn3348 O3373 2.209 . S
Mn3348 O3374 2.094 . S
Mn3349 O3354 2.121 . S
Mn3349 N3356 2.257 . S
Mn3349 N3365 2.282 . S
Mn3349 O3373 2.215 . S
Mn3349 O3375 2.117 . S
C3350 O3372 1.234 . S
C3350 O3373 1.283 . S
C3351 O3363 1.272 1_655 S
C3351 O3364 1.257 . S
C3352 O3374 1.240 . S
C3352 O3375 1.264 . S
O3353 Mn3348 2.095 . S
O3353 C3362 1.250 . S
O3354 Mn3349 2.121 . S
O3354 C3362 1.258 . S
C3355 N3356 1.326 . S
C3355 C3359 1.460 . S
C3355 H3361 0.929 . S
N3356 Mn3349 2.257 . S
N3356 C3355 1.326 . S
N3356 C3360 1.362 . S
C3357 C3358 1.258 . S
C3357 C3360 1.431 . S
C3357 C3377 1.449 . S
C3358 C3357 1.258 . S
C3358 C3359 1.477 . S
C3358 H3378 0.931 . S
C3359 C3355 1.460 . S
C3359 C3358 1.477 . S
C3359 H3379 0.930 . S
C3360 N3356 1.362 . S
C3360 C3357 1.431 . S
C3360 C3370 1.476 . S
H3361 C3355 0.929 . S
C3362 O3353 1.250 . S
C3362 O3354 1.258 . S
O3363 Mn3348 2.162 1_455 S
O3363 C3351 1.272 1_455 S
O3364 Mn3348 2.297 . S
O3364 C3351 1.257 . S
N3365 Mn3349 2.282 . S
N3365 C3366 1.328 . S
N3365 C3370 1.318 . S
C3366 N3365 1.328 . S
C3366 C3367 1.457 . S
C3366 H3371 0.929 . S
C3367 C3366 1.457 . S
C3367 C3368 1.291 . S
C3367 H3380 0.931 . S
C3368 C3367 1.291 . S
C3368 C3369 1.373 . S
C3368 H3381 0.929 . S
C3369 C3368 1.373 . S
C3369 C3370 1.396 . S
C3369 C3376 1.403 . S
C3370 C3360 1.476 . S
C3370 N3365 1.318 . S
C3370 C3369 1.396 . S
H3371 C3366 0.929 . S
O3372 Mn3348 2.385 . S
O3372 C3350 1.234 . S
O3373 Mn3348 2.209 . S
O3373 Mn3349 2.215 . S
O3373 C3350 1.283 . S
O3374 Mn3348 2.094 . S
O3374 C3352 1.240 . S
O3375 Mn3349 2.117 . S
O3375 C3352 1.264 . S
C3376 C3369 1.403 . S
C3376 C3377 1.399 . S
C3376 H3382 0.929 . S
C3377 C3357 1.449 . S
C3377 C3376 1.399 . S
C3377 H3383 0.930 . S
H3378 C3358 0.931 . S
H3379 C3359 0.930 . S
H3380 C3367 0.931 . S
H3381 C3368 0.929 . S
H3382 C3376 0.929 . S
H3383 C3377 0.930 . S
Mn3384 O3389 2.095 . S
Mn3384 O3399 2.162 . S
Mn3384 O3400 2.297 . S
Mn3384 O3408 2.385 . S
Mn3384 O3409 2.209 . S
Mn3384 O3410 2.094 . S
Mn3385 O3390 2.121 . S
Mn3385 N3392 2.257 . S
Mn3385 N3401 2.282 . S
Mn3385 O3409 2.215 . S
Mn3385 O3411 2.117 . S
C3386 O3408 1.234 . S
C3386 O3409 1.283 . S
C3387 O3399 1.281 . S
C3387 O3400 1.236 . S
C3388 O3410 1.240 . S
C3388 O3411 1.264 . S
O3389 Mn3384 2.095 . S
O3389 C3398 1.250 . S
O3390 Mn3385 2.121 . S
O3390 C3398 1.258 . S
C3391 N3392 1.326 . S
C3391 C3395 1.460 . S
C3391 H3397 0.929 . S
N3392 Mn3385 2.257 . S
N3392 C3391 1.326 . S
N3392 C3396 1.362 . S
C3393 C3394 1.258 . S
C3393 C3396 1.431 . S
C3393 C3413 1.449 . S
C3394 C3393 1.258 . S
C3394 C3395 1.477 . S
C3394 H3414 0.931 . S
C3395 C3391 1.460 . S
C3395 C3394 1.477 . S
C3395 H3415 0.930 . S
C3396 N3392 1.362 . S
C3396 C3393 1.431 . S
C3396 C3406 1.476 . S
H3397 C3391 0.929 . S
C3398 O3389 1.250 . S
C3398 O3390 1.258 . S
O3399 Mn3384 2.162 . S
O3399 C3387 1.281 . S
O3400 Mn3384 2.297 . S
O3400 C3387 1.236 . S
N3401 Mn3385 2.282 . S
N3401 C3402 1.328 . S
N3401 C3406 1.318 . S
C3402 N3401 1.328 . S
C3402 C3403 1.457 . S
C3402 H3407 0.929 . S
C3403 C3402 1.457 . S
C3403 C3404 1.291 . S
C3403 H3416 0.931 . S
C3404 C3403 1.291 . S
C3404 C3405 1.373 . S
C3404 H3417 0.929 . S
C3405 C3404 1.373 . S
C3405 C3406 1.396 . S
C3405 C3412 1.403 . S
C3406 C3396 1.476 . S
C3406 N3401 1.318 . S
C3406 C3405 1.396 . S
H3407 C3402 0.929 . S
O3408 Mn3384 2.385 . S
O3408 C3386 1.234 . S
O3409 Mn3384 2.209 . S
O3409 Mn3385 2.215 . S
O3409 C3386 1.283 . S
O3410 Mn3384 2.094 . S
O3410 C3388 1.240 . S
O3411 Mn3385 2.117 . S
O3411 C3388 1.264 . S
C3412 C3405 1.403 . S
C3412 C3413 1.399 . S
C3412 H3418 0.929 . S
C3413 C3393 1.449 . S
C3413 C3412 1.399 . S
C3413 H3419 0.930 . S
H3414 C3394 0.931 . S
H3415 C3395 0.930 . S
H3416 C3403 0.931 . S
H3417 C3404 0.929 . S
H3418 C3412 0.929 . S
H3419 C3413 0.930 . S
Mn3420 O3425 2.095 . S
Mn3420 O3435 2.162 . S
Mn3420 O3436 2.297 . S
Mn3420 O3444 2.385 . S
Mn3420 O3445 2.209 . S
Mn3420 O3446 2.094 . S
Mn3421 O3426 2.121 . S
Mn3421 N3428 2.257 . S
Mn3421 N3437 2.282 . S
Mn3421 O3445 2.215 . S
Mn3421 O3447 2.117 . S
C3422 O3444 1.234 . S
C3422 O3445 1.283 . S
C3423 O3435 1.281 . S
C3423 O3436 1.236 . S
C3424 O3446 1.240 . S
C3424 O3447 1.264 . S
O3425 Mn3420 2.095 . S
O3425 C3434 1.250 . S
O3426 Mn3421 2.121 . S
O3426 C3434 1.258 . S
C3427 N3428 1.326 . S
C3427 C3431 1.460 . S
C3427 H3433 0.929 . S
N3428 Mn3421 2.257 . S
N3428 C3427 1.326 . S
N3428 C3432 1.362 . S
C3429 C3430 1.258 . S
C3429 C3432 1.431 . S
C3429 C3449 1.449 . S
C3430 C3429 1.258 . S
C3430 C3431 1.477 . S
C3430 H3450 0.931 . S
C3431 C3427 1.460 . S
C3431 C3430 1.477 . S
C3431 H3451 0.930 . S
C3432 N3428 1.362 . S
C3432 C3429 1.431 . S
C3432 C3442 1.476 . S
H3433 C3427 0.929 . S
C3434 O3425 1.250 . S
C3434 O3426 1.258 . S
O3435 Mn3420 2.162 . S
O3435 C3423 1.281 . S
O3436 Mn3420 2.297 . S
O3436 C3423 1.236 . S
N3437 Mn3421 2.282 . S
N3437 C3438 1.328 . S
N3437 C3442 1.318 . S
C3438 N3437 1.328 . S
C3438 C3439 1.457 . S
C3438 H3443 0.929 . S
C3439 C3438 1.457 . S
C3439 C3440 1.291 . S
C3439 H3452 0.931 . S
C3440 C3439 1.291 . S
C3440 C3441 1.373 . S
C3440 H3453 0.929 . S
C3441 C3440 1.373 . S
C3441 C3442 1.396 . S
C3441 C3448 1.403 . S
C3442 C3432 1.476 . S
C3442 N3437 1.318 . S
C3442 C3441 1.396 . S
H3443 C3438 0.929 . S
O3444 Mn3420 2.385 . S
O3444 C3422 1.234 . S
O3445 Mn3420 2.209 . S
O3445 Mn3421 2.215 . S
O3445 C3422 1.283 . S
O3446 Mn3420 2.094 . S
O3446 C3424 1.240 . S
O3447 Mn3421 2.117 . S
O3447 C3424 1.264 . S
C3448 C3441 1.403 . S
C3448 C3449 1.399 . S
C3448 H3454 0.929 . S
C3449 C3429 1.449 . S
C3449 C3448 1.399 . S
C3449 H3455 0.930 . S
H3450 C3430 0.931 . S
H3451 C3431 0.930 . S
H3452 C3439 0.931 . S
H3453 C3440 0.929 . S
H3454 C3448 0.929 . S
H3455 C3449 0.930 . S
C3456 C3457 1.369 . S
C3456 C3458 1.419 . S
C3456 H3460 0.930 . S
C3457 C3456 1.369 . S
C3457 C3466 1.429 . S
C3458 C3456 1.419 . S
C3458 C3459 1.363 . S
C3458 H3461 0.929 . S
C3459 C3458 1.363 . S
C3459 C3465 1.428 . S
H3460 C3456 0.930 . S
H3461 C3458 0.929 . S
S3462 N3463 1.613 . S
S3462 N3464 1.610 . S
N3463 S3462 1.613 . S
N3463 C3466 1.350 . S
N3464 S3462 1.610 . S
N3464 C3465 1.351 . S
C3465 C3459 1.428 . S
C3465 N3464 1.351 . S
C3465 C3466 1.434 . S
C3466 C3457 1.429 . S
C3466 N3463 1.350 . S
C3466 C3465 1.434 . S
C3467 C3468 1.369 . S
C3467 C3469 1.419 . S
C3467 H3471 0.930 . S
C3468 C3467 1.369 . S
C3468 C3477 1.429 . S
C3469 C3467 1.419 . S
C3469 C3470 1.363 . S
C3469 H3472 0.929 . S
C3470 C3469 1.363 . S
C3470 C3476 1.428 . S
H3471 C3467 0.930 . S
H3472 C3469 0.929 . S
S3473 N3474 1.613 . S
S3473 N3475 1.610 . S
N3474 S3473 1.613 . S
N3474 C3477 1.350 . S
N3475 S3473 1.610 . S
N3475 C3476 1.351 . S
C3476 C3470 1.428 . S
C3476 N3475 1.351 . S
C3476 C3477 1.434 . S
C3477 C3468 1.429 . S
C3477 N3474 1.350 . S
C3477 C3476 1.434 . S
C3478 C3479 1.369 . S
C3478 C3480 1.419 . S
C3478 H3482 0.930 . S
C3479 C3478 1.369 . S
C3479 C3488 1.429 . S
C3480 C3478 1.419 . S
C3480 C3481 1.363 . S
C3480 H3483 0.929 . S
C3481 C3480 1.363 . S
C3481 C3487 1.428 . S
H3482 C3478 0.930 . S
H3483 C3480 0.929 . S
S3484 N3485 1.613 . S
S3484 N3486 1.610 . S
N3485 S3484 1.613 . S
N3485 C3488 1.350 . S
N3486 S3484 1.610 . S
N3486 C3487 1.351 . S
C3487 C3481 1.428 . S
C3487 N3486 1.351 . S
C3487 C3488 1.434 . S
C3488 C3479 1.429 . S
C3488 N3485 1.350 . S
C3488 C3487 1.434 . S
C3489 C3490 1.369 . S
C3489 C3491 1.419 . S
C3489 H3493 0.930 . S
C3490 C3489 1.369 . S
C3490 C3499 1.429 . S
C3491 C3489 1.419 . S
C3491 C3492 1.363 . S
C3491 H3494 0.929 . S
C3492 C3491 1.363 . S
C3492 C3498 1.428 . S
H3493 C3489 0.930 . S
H3494 C3491 0.929 . S
S3495 N3496 1.613 . S
S3495 N3497 1.610 . S
N3496 S3495 1.613 . S
N3496 C3499 1.350 . S
N3497 S3495 1.610 . S
N3497 C3498 1.351 . S
C3498 C3492 1.428 . S
C3498 N3497 1.351 . S
C3498 C3499 1.434 . S
C3499 C3490 1.429 . S
C3499 N3496 1.350 . S
C3499 C3498 1.434 . S
C3500 C3501 1.369 . S
C3500 C3502 1.419 . S
C3500 H3504 0.930 . S
C3501 C3500 1.369 . S
C3501 C3510 1.429 . S
C3502 C3500 1.419 . S
C3502 C3503 1.363 . S
C3502 H3505 0.929 . S
C3503 C3502 1.363 . S
C3503 C3509 1.428 . S
H3504 C3500 0.930 . S
H3505 C3502 0.929 . S
S3506 N3507 1.613 . S
S3506 N3508 1.610 . S
N3507 S3506 1.613 . S
N3507 C3510 1.350 . S
N3508 S3506 1.610 . S
N3508 C3509 1.351 . S
C3509 C3503 1.428 . S
C3509 N3508 1.351 . S
C3509 C3510 1.434 . S
C3510 C3501 1.429 . S
C3510 N3507 1.350 . S
C3510 C3509 1.434 . S
C3511 C3512 1.369 . S
C3511 C3513 1.419 . S
C3511 H3515 0.930 . S
C3512 C3511 1.369 . S
C3512 C3521 1.429 . S
C3513 C3511 1.419 . S
C3513 C3514 1.363 . S
C3513 H3516 0.929 . S
C3514 C3513 1.363 . S
C3514 C3520 1.428 . S
H3515 C3511 0.930 . S
H3516 C3513 0.929 . S
S3517 N3518 1.613 . S
S3517 N3519 1.610 . S
N3518 S3517 1.613 . S
N3518 C3521 1.350 . S
N3519 S3517 1.610 . S
N3519 C3520 1.351 . S
C3520 C3514 1.428 . S
C3520 N3519 1.351 . S
C3520 C3521 1.434 . S
C3521 C3512 1.429 . S
C3521 N3518 1.350 . S
C3521 C3520 1.434 . S
C3522 C3523 1.369 . S
C3522 C3524 1.419 . S
C3522 H3526 0.930 . S
C3523 C3522 1.369 . S
C3523 C3532 1.429 . S
C3524 C3522 1.419 . S
C3524 C3525 1.363 . S
C3524 H3527 0.929 . S
C3525 C3524 1.363 . S
C3525 C3531 1.428 . S
H3526 C3522 0.930 . S
H3527 C3524 0.929 . S
S3528 N3529 1.613 . S
S3528 N3530 1.610 . S
N3529 S3528 1.613 . S
N3529 C3532 1.350 . S
N3530 S3528 1.610 . S
N3530 C3531 1.351 . S
C3531 C3525 1.428 . S
C3531 N3530 1.351 . S
C3531 C3532 1.434 . S
C3532 C3523 1.429 . S
C3532 N3529 1.350 . S
C3532 C3531 1.434 . S
C3533 C3534 1.369 . S
C3533 C3535 1.419 . S
C3533 H3537 0.930 . S
C3534 C3533 1.369 . S
C3534 C3543 1.429 . S
C3535 C3533 1.419 . S
C3535 C3536 1.363 . S
C3535 H3538 0.929 . S
C3536 C3535 1.363 . S
C3536 C3542 1.428 . S
H3537 C3533 0.930 . S
H3538 C3535 0.929 . S
S3539 N3540 1.613 . S
S3539 N3541 1.610 . S
N3540 S3539 1.613 . S
N3540 C3543 1.350 . S
N3541 S3539 1.610 . S
N3541 C3542 1.351 . S
C3542 C3536 1.428 . S
C3542 N3541 1.351 . S
C3542 C3543 1.434 . S
C3543 C3534 1.429 . S
C3543 N3540 1.350 . S
C3543 C3542 1.434 . S
C3544 C3545 1.369 . S
C3544 C3546 1.419 . S
C3544 H3548 0.930 . S
C3545 C3544 1.369 . S
C3545 C3554 1.429 . S
C3546 C3544 1.419 . S
C3546 C3547 1.363 . S
C3546 H3549 0.929 . S
C3547 C3546 1.363 . S
C3547 C3553 1.428 . S
H3548 C3544 0.930 . S
H3549 C3546 0.929 . S
S3550 N3551 1.613 . S
S3550 N3552 1.610 . S
N3551 S3550 1.613 . S
N3551 C3554 1.350 . S
N3552 S3550 1.610 . S
N3552 C3553 1.351 . S
C3553 C3547 1.428 . S
C3553 N3552 1.351 . S
C3553 C3554 1.434 . S
C3554 C3545 1.429 . S
C3554 N3551 1.350 . S
C3554 C3553 1.434 . S
C3555 C3556 1.369 . S
C3555 C3557 1.419 . S
C3555 H3559 0.930 . S
C3556 C3555 1.369 . S
C3556 C3565 1.429 . S
C3557 C3555 1.419 . S
C3557 C3558 1.363 . S
C3557 H3560 0.929 . S
C3558 C3557 1.363 . S
C3558 C3564 1.428 . S
H3559 C3555 0.930 . S
H3560 C3557 0.929 . S
S3561 N3562 1.613 . S
S3561 N3563 1.610 . S
N3562 S3561 1.613 . S
N3562 C3565 1.350 . S
N3563 S3561 1.610 . S
N3563 C3564 1.351 . S
C3564 C3558 1.428 . S
C3564 N3563 1.351 . S
C3564 C3565 1.434 . S
C3565 C3556 1.429 . S
C3565 N3562 1.350 . S
C3565 C3564 1.434 . S
C3566 C3567 1.369 . S
C3566 C3568 1.419 . S
C3566 H3570 0.930 . S
C3567 C3566 1.369 . S
C3567 C3576 1.429 . S
C3568 C3566 1.419 . S
C3568 C3569 1.363 . S
C3568 H3571 0.929 . S
C3569 C3568 1.363 . S
C3569 C3575 1.428 . S
H3570 C3566 0.930 . S
H3571 C3568 0.929 . S
S3572 N3573 1.613 . S
S3572 N3574 1.610 . S
N3573 S3572 1.613 . S
N3573 C3576 1.350 . S
N3574 S3572 1.610 . S
N3574 C3575 1.351 . S
C3575 C3569 1.428 . S
C3575 N3574 1.351 . S
C3575 C3576 1.434 . S
C3576 C3567 1.429 . S
C3576 N3573 1.350 . S
C3576 C3575 1.434 . S
C3577 C3578 1.369 . S
C3577 C3579 1.419 . S
C3577 H3581 0.930 . S
C3578 C3577 1.369 . S
C3578 C3587 1.429 . S
C3579 C3577 1.419 . S
C3579 C3580 1.363 . S
C3579 H3582 0.929 . S
C3580 C3579 1.363 . S
C3580 C3586 1.428 . S
H3581 C3577 0.930 . S
H3582 C3579 0.929 . S
S3583 N3584 1.613 . S
S3583 N3585 1.610 . S
N3584 S3583 1.613 . S
N3584 C3587 1.350 . S
N3585 S3583 1.610 . S
N3585 C3586 1.351 . S
C3586 C3580 1.428 . S
C3586 N3585 1.351 . S
C3586 C3587 1.434 . S
C3587 C3578 1.429 . S
C3587 N3584 1.350 . S
C3587 C3586 1.434 . S
C3588 C3589 1.369 . S
C3588 C3590 1.419 . S
C3588 H3592 0.930 . S
C3589 C3588 1.369 . S
C3589 C3598 1.429 . S
C3590 C3588 1.419 . S
C3590 C3591 1.363 . S
C3590 H3593 0.929 . S
C3591 C3590 1.363 . S
C3591 C3597 1.428 . S
H3592 C3588 0.930 . S
H3593 C3590 0.929 . S
S3594 N3595 1.613 . S
S3594 N3596 1.610 . S
N3595 S3594 1.613 . S
N3595 C3598 1.350 . S
N3596 S3594 1.610 . S
N3596 C3597 1.351 . S
C3597 C3591 1.428 . S
C3597 N3596 1.351 . S
C3597 C3598 1.434 . S
C3598 C3589 1.429 . S
C3598 N3595 1.350 . S
C3598 C3597 1.434 . S
C3599 C3600 1.369 . S
C3599 C3601 1.419 . S
C3599 H3603 0.930 . S
C3600 C3599 1.369 . S
C3600 C3609 1.429 . S
C3601 C3599 1.419 . S
C3601 C3602 1.363 . S
C3601 H3604 0.929 . S
C3602 C3601 1.363 . S
C3602 C3608 1.428 . S
H3603 C3599 0.930 . S
H3604 C3601 0.929 . S
S3605 N3606 1.613 . S
S3605 N3607 1.610 . S
N3606 S3605 1.613 . S
N3606 C3609 1.350 . S
N3607 S3605 1.610 . S
N3607 C3608 1.351 . S
C3608 C3602 1.428 . S
C3608 N3607 1.351 . S
C3608 C3609 1.434 . S
C3609 C3600 1.429 . S
C3609 N3606 1.350 . S
C3609 C3608 1.434 . S
C3610 C3611 1.369 . S
C3610 C3612 1.419 . S
C3610 H3614 0.930 . S
C3611 C3610 1.369 . S
C3611 C3620 1.429 . S
C3612 C3610 1.419 . S
C3612 C3613 1.363 . S
C3612 H3615 0.929 . S
C3613 C3612 1.363 . S
C3613 C3619 1.428 . S
H3614 C3610 0.930 . S
H3615 C3612 0.929 . S
S3616 N3617 1.613 . S
S3616 N3618 1.610 . S
N3617 S3616 1.613 . S
N3617 C3620 1.350 . S
N3618 S3616 1.610 . S
N3618 C3619 1.351 . S
C3619 C3613 1.428 . S
C3619 N3618 1.351 . S
C3619 C3620 1.434 . S
C3620 C3611 1.429 . S
C3620 N3617 1.350 . S
C3620 C3619 1.434 . S
C3621 C3622 1.369 . S
C3621 C3623 1.419 . S
C3621 H3625 0.930 . S
C3622 C3621 1.369 . S
C3622 C3631 1.429 . S
C3623 C3621 1.419 . S
C3623 C3624 1.363 . S
C3623 H3626 0.929 . S
C3624 C3623 1.363 . S
C3624 C3630 1.428 . S
H3625 C3621 0.930 . S
H3626 C3623 0.929 . S
S3627 N3628 1.613 . S
S3627 N3629 1.610 . S
N3628 S3627 1.613 . S
N3628 C3631 1.350 . S
N3629 S3627 1.610 . S
N3629 C3630 1.351 . S
C3630 C3624 1.428 . S
C3630 N3629 1.351 . S
C3630 C3631 1.434 . S
C3631 C3622 1.429 . S
C3631 N3628 1.350 . S
C3631 C3630 1.434 . S
C3632 C3633 1.369 . S
C3632 C3634 1.419 . S
C3632 H3636 0.930 . S
C3633 C3632 1.369 . S
C3633 C3642 1.429 . S
C3634 C3632 1.419 . S
C3634 C3635 1.363 . S
C3634 H3637 0.929 . S
C3635 C3634 1.363 . S
C3635 C3641 1.428 . S
H3636 C3632 0.930 . S
H3637 C3634 0.929 . S
S3638 N3639 1.613 . S
S3638 N3640 1.610 . S
N3639 S3638 1.613 . S
N3639 C3642 1.350 . S
N3640 S3638 1.610 . S
N3640 C3641 1.351 . S
C3641 C3635 1.428 . S
C3641 N3640 1.351 . S
C3641 C3642 1.434 . S
C3642 C3633 1.429 . S
C3642 N3639 1.350 . S
C3642 C3641 1.434 . S
C3643 C3644 1.369 . S
C3643 C3645 1.419 . S
C3643 H3647 0.930 . S
C3644 C3643 1.369 . S
C3644 C3653 1.429 . S
C3645 C3643 1.419 . S
C3645 C3646 1.363 . S
C3645 H3648 0.929 . S
C3646 C3645 1.363 . S
C3646 C3652 1.428 . S
H3647 C3643 0.930 . S
H3648 C3645 0.929 . S
S3649 N3650 1.613 . S
S3649 N3651 1.610 . S
N3650 S3649 1.613 . S
N3650 C3653 1.350 . S
N3651 S3649 1.610 . S
N3651 C3652 1.351 . S
C3652 C3646 1.428 . S
C3652 N3651 1.351 . S
C3652 C3653 1.434 . S
C3653 C3644 1.429 . S
C3653 N3650 1.350 . S
C3653 C3652 1.434 . S
C3654 C3655 1.369 . S
C3654 C3656 1.419 . S
C3654 H3658 0.930 . S
C3655 C3654 1.369 . S
C3655 C3664 1.429 . S
C3656 C3654 1.419 . S
C3656 C3657 1.363 . S
C3656 H3659 0.929 . S
C3657 C3656 1.363 . S
C3657 C3663 1.428 . S
H3658 C3654 0.930 . S
H3659 C3656 0.929 . S
S3660 N3661 1.613 . S
S3660 N3662 1.610 . S
N3661 S3660 1.613 . S
N3661 C3664 1.350 . S
N3662 S3660 1.610 . S
N3662 C3663 1.351 . S
C3663 C3657 1.428 . S
C3663 N3662 1.351 . S
C3663 C3664 1.434 . S
C3664 C3655 1.429 . S
C3664 N3661 1.350 . S
C3664 C3663 1.434 . S
C3665 C3666 1.369 . S
C3665 C3667 1.419 . S
C3665 H3669 0.930 . S
C3666 C3665 1.369 . S
C3666 C3675 1.429 . S
C3667 C3665 1.419 . S
C3667 C3668 1.363 . S
C3667 H3670 0.929 . S
C3668 C3667 1.363 . S
C3668 C3674 1.428 . S
H3669 C3665 0.930 . S
H3670 C3667 0.929 . S
S3671 N3672 1.613 . S
S3671 N3673 1.610 . S
N3672 S3671 1.613 . S
N3672 C3675 1.350 . S
N3673 S3671 1.610 . S
N3673 C3674 1.351 . S
C3674 C3668 1.428 . S
C3674 N3673 1.351 . S
C3674 C3675 1.434 . S
C3675 C3666 1.429 . S
C3675 N3672 1.350 . S
C3675 C3674 1.434 . S
C3676 C3677 1.369 . S
C3676 C3678 1.419 . S
C3676 H3680 0.930 . S
C3677 C3676 1.369 . S
C3677 C3686 1.429 . S
C3678 C3676 1.419 . S
C3678 C3679 1.363 . S
C3678 H3681 0.929 . S
C3679 C3678 1.363 . S
C3679 C3685 1.428 . S
H3680 C3676 0.930 . S
H3681 C3678 0.929 . S
S3682 N3683 1.613 . S
S3682 N3684 1.610 . S
N3683 S3682 1.613 . S
N3683 C3686 1.350 . S
N3684 S3682 1.610 . S
N3684 C3685 1.351 . S
C3685 C3679 1.428 . S
C3685 N3684 1.351 . S
C3685 C3686 1.434 . S
C3686 C3677 1.429 . S
C3686 N3683 1.350 . S
C3686 C3685 1.434 . S
C3687 C3688 1.369 . S
C3687 C3689 1.419 . S
C3687 H3691 0.930 . S
C3688 C3687 1.369 . S
C3688 C3697 1.429 . S
C3689 C3687 1.419 . S
C3689 C3690 1.363 . S
C3689 H3692 0.929 . S
C3690 C3689 1.363 . S
C3690 C3696 1.428 . S
H3691 C3687 0.930 . S
H3692 C3689 0.929 . S
S3693 N3694 1.613 . S
S3693 N3695 1.610 . S
N3694 S3693 1.613 . S
N3694 C3697 1.350 . S
N3695 S3693 1.610 . S
N3695 C3696 1.351 . S
C3696 C3690 1.428 . S
C3696 N3695 1.351 . S
C3696 C3697 1.434 . S
C3697 C3688 1.429 . S
C3697 N3694 1.350 . S
C3697 C3696 1.434 . S
C3698 C3699 1.369 . S
C3698 C3700 1.419 . S
C3698 H3702 0.930 . S
C3699 C3698 1.369 . S
C3699 C3708 1.429 . S
C3700 C3698 1.419 . S
C3700 C3701 1.363 . S
C3700 H3703 0.929 . S
C3701 C3700 1.363 . S
C3701 C3707 1.428 . S
H3702 C3698 0.930 . S
H3703 C3700 0.929 . S
S3704 N3705 1.613 . S
S3704 N3706 1.610 . S
N3705 S3704 1.613 . S
N3705 C3708 1.350 . S
N3706 S3704 1.610 . S
N3706 C3707 1.351 . S
C3707 C3701 1.428 . S
C3707 N3706 1.351 . S
C3707 C3708 1.434 . S
C3708 C3699 1.429 . S
C3708 N3705 1.350 . S
C3708 C3707 1.434 . S
C3709 C3710 1.369 . S
C3709 C3711 1.419 . S
C3709 H3713 0.930 . S
C3710 C3709 1.369 . S
C3710 C3719 1.429 . S
C3711 C3709 1.419 . S
C3711 C3712 1.363 . S
C3711 H3714 0.929 . S
C3712 C3711 1.363 . S
C3712 C3718 1.428 . S
H3713 C3709 0.930 . S
H3714 C3711 0.929 . S
S3715 N3716 1.613 . S
S3715 N3717 1.610 . S
N3716 S3715 1.613 . S
N3716 C3719 1.350 . S
N3717 S3715 1.610 . S
N3717 C3718 1.351 . S
C3718 C3712 1.428 . S
C3718 N3717 1.351 . S
C3718 C3719 1.434 . S
C3719 C3710 1.429 . S
C3719 N3716 1.350 . S
C3719 C3718 1.434 . S
C3720 C3721 1.369 . S
C3720 C3722 1.419 . S
C3720 H3724 0.930 . S
C3721 C3720 1.369 . S
C3721 C3730 1.429 . S
C3722 C3720 1.419 . S
C3722 C3723 1.363 . S
C3722 H3725 0.929 . S
C3723 C3722 1.363 . S
C3723 C3729 1.428 . S
H3724 C3720 0.930 . S
H3725 C3722 0.929 . S
S3726 N3727 1.613 . S
S3726 N3728 1.610 . S
N3727 S3726 1.613 . S
N3727 C3730 1.350 . S
N3728 S3726 1.610 . S
N3728 C3729 1.351 . S
C3729 C3723 1.428 . S
C3729 N3728 1.351 . S
C3729 C3730 1.434 . S
C3730 C3721 1.429 . S
C3730 N3727 1.350 . S
C3730 C3729 1.434 . S
C3731 C3732 1.369 . S
C3731 C3733 1.419 . S
C3731 H3735 0.930 . S
C3732 C3731 1.369 . S
C3732 C3741 1.429 . S
C3733 C3731 1.419 . S
C3733 C3734 1.363 . S
C3733 H3736 0.929 . S
C3734 C3733 1.363 . S
C3734 C3740 1.428 . S
H3735 C3731 0.930 . S
H3736 C3733 0.929 . S
S3737 N3738 1.613 . S
S3737 N3739 1.610 . S
N3738 S3737 1.613 . S
N3738 C3741 1.350 . S
N3739 S3737 1.610 . S
N3739 C3740 1.351 . S
C3740 C3734 1.428 . S
C3740 N3739 1.351 . S
C3740 C3741 1.434 . S
C3741 C3732 1.429 . S
C3741 N3738 1.350 . S
C3741 C3740 1.434 . S
C3742 C3743 1.369 . S
C3742 C3744 1.419 . S
C3742 H3746 0.930 . S
C3743 C3742 1.369 . S
C3743 C3752 1.429 . S
C3744 C3742 1.419 . S
C3744 C3745 1.363 . S
C3744 H3747 0.929 . S
C3745 C3744 1.363 . S
C3745 C3751 1.428 . S
H3746 C3742 0.930 . S
H3747 C3744 0.929 . S
S3748 N3749 1.613 . S
S3748 N3750 1.610 . S
N3749 S3748 1.613 . S
N3749 C3752 1.350 . S
N3750 S3748 1.610 . S
N3750 C3751 1.351 . S
C3751 C3745 1.428 . S
C3751 N3750 1.351 . S
C3751 C3752 1.434 . S
C3752 C3743 1.429 . S
C3752 N3749 1.350 . S
C3752 C3751 1.434 . S
C3753 C3754 1.369 . S
C3753 C3755 1.419 . S
C3753 H3757 0.930 . S
C3754 C3753 1.369 . S
C3754 C3763 1.429 . S
C3755 C3753 1.419 . S
C3755 C3756 1.363 . S
C3755 H3758 0.929 . S
C3756 C3755 1.363 . S
C3756 C3762 1.428 . S
H3757 C3753 0.930 . S
H3758 C3755 0.929 . S
S3759 N3760 1.613 . S
S3759 N3761 1.610 . S
N3760 S3759 1.613 . S
N3760 C3763 1.350 . S
N3761 S3759 1.610 . S
N3761 C3762 1.351 . S
C3762 C3756 1.428 . S
C3762 N3761 1.351 . S
C3762 C3763 1.434 . S
C3763 C3754 1.429 . S
C3763 N3760 1.350 . S
C3763 C3762 1.434 . S
C3764 C3765 1.369 . S
C3764 C3766 1.419 . S
C3764 H3768 0.930 . S
C3765 C3764 1.369 . S
C3765 C3774 1.429 . S
C3766 C3764 1.419 . S
C3766 C3767 1.363 . S
C3766 H3769 0.929 . S
C3767 C3766 1.363 . S
C3767 C3773 1.428 . S
H3768 C3764 0.930 . S
H3769 C3766 0.929 . S
S3770 N3771 1.613 . S
S3770 N3772 1.610 1_545 S
N3771 S3770 1.613 . S
N3771 C3774 1.350 1_545 S
N3772 S3770 1.610 1_565 S
N3772 C3773 1.351 . S
C3773 C3767 1.428 . S
C3773 N3772 1.351 . S
C3773 C3774 1.434 . S
C3774 C3765 1.429 . S
C3774 N3771 1.350 1_565 S
C3774 C3773 1.434 . S
C3775 C3776 1.369 . S
C3775 C3777 1.419 . S
C3775 H3779 0.930 . S
C3776 C3775 1.369 . S
C3776 C3785 1.429 . S
C3777 C3775 1.419 . S
C3777 C3778 1.363 . S
C3777 H3780 0.929 . S
C3778 C3777 1.363 . S
C3778 C3784 1.428 . S
H3779 C3775 0.930 . S
H3780 C3777 0.929 . S
S3781 N3782 1.613 . S
S3781 N3783 1.610 . S
N3782 S3781 1.613 . S
N3782 C3785 1.350 . S
N3783 S3781 1.610 . S
N3783 C3784 1.351 . S
C3784 C3778 1.428 . S
C3784 N3783 1.351 . S
C3784 C3785 1.434 . S
C3785 C3776 1.429 . S
C3785 N3782 1.350 . S
C3785 C3784 1.434 . S
C3786 C3787 1.369 . S
C3786 C3788 1.419 . S
C3786 H3790 0.930 . S
C3787 C3786 1.369 . S
C3787 C3796 1.429 . S
C3788 C3786 1.419 . S
C3788 C3789 1.363 . S
C3788 H3791 0.929 . S
C3789 C3788 1.363 . S
C3789 C3795 1.428 . S
H3790 C3786 0.930 . S
H3791 C3788 0.929 . S
S3792 N3793 1.613 . S
S3792 N3794 1.610 . S
N3793 S3792 1.613 . S
N3793 C3796 1.350 . S
N3794 S3792 1.610 . S
N3794 C3795 1.351 . S
C3795 C3789 1.428 . S
C3795 N3794 1.351 . S
C3795 C3796 1.434 . S
C3796 C3787 1.429 . S
C3796 N3793 1.350 . S
C3796 C3795 1.434 . S
C3797 C3798 1.369 . S
C3797 C3799 1.419 . S
C3797 H3801 0.930 . S
C3798 C3797 1.369 . S
C3798 C3807 1.429 . S
C3799 C3797 1.419 . S
C3799 C3800 1.363 . S
C3799 H3802 0.929 . S
C3800 C3799 1.363 . S
C3800 C3806 1.428 . S
H3801 C3797 0.930 . S
H3802 C3799 0.929 . S
S3803 N3804 1.613 . S
S3803 N3805 1.610 . S
N3804 S3803 1.613 . S
N3804 C3807 1.350 . S
N3805 S3803 1.610 . S
N3805 C3806 1.351 . S
C3806 C3800 1.428 . S
C3806 N3805 1.351 . S
C3806 C3807 1.434 . S
C3807 C3798 1.429 . S
C3807 N3804 1.350 . S
C3807 C3806 1.434 . S
C3808 C3809 1.369 . S
C3808 C3810 1.419 . S
C3808 H3812 0.930 . S
C3809 C3808 1.369 . S
C3809 C3818 1.429 . S
C3810 C3808 1.419 . S
C3810 C3811 1.363 . S
C3810 H3813 0.929 . S
C3811 C3810 1.363 . S
C3811 C3817 1.428 . S
H3812 C3808 0.930 . S
H3813 C3810 0.929 . S
S3814 N3815 1.613 . S
S3814 N3816 1.610 . S
N3815 S3814 1.613 . S
N3815 C3818 1.350 . S
N3816 S3814 1.610 . S
N3816 C3817 1.351 . S
C3817 C3811 1.428 . S
C3817 N3816 1.351 . S
C3817 C3818 1.434 . S
C3818 C3809 1.429 . S
C3818 N3815 1.350 . S
C3818 C3817 1.434 . S
C3819 C3820 1.369 . S
C3819 C3821 1.419 . S
C3819 H3823 0.930 . S
C3820 C3819 1.369 . S
C3820 C3829 1.429 . S
C3821 C3819 1.419 . S
C3821 C3822 1.363 . S
C3821 H3824 0.929 . S
C3822 C3821 1.363 . S
C3822 C3828 1.428 . S
H3823 C3819 0.930 . S
H3824 C3821 0.929 . S
S3825 N3826 1.613 . S
S3825 N3827 1.610 . S
N3826 S3825 1.613 . S
N3826 C3829 1.350 . S
N3827 S3825 1.610 . S
N3827 C3828 1.351 . S
C3828 C3822 1.428 . S
C3828 N3827 1.351 . S
C3828 C3829 1.434 . S
C3829 C3820 1.429 . S
C3829 N3826 1.350 . S
C3829 C3828 1.434 . S
C3830 C3831 1.369 . S
C3830 C3832 1.419 . S
C3830 H3834 0.930 . S
C3831 C3830 1.369 . S
C3831 C3840 1.429 . S
C3832 C3830 1.419 . S
C3832 C3833 1.363 . S
C3832 H3835 0.929 . S
C3833 C3832 1.363 . S
C3833 C3839 1.428 . S
H3834 C3830 0.930 . S
H3835 C3832 0.929 . S
S3836 N3837 1.613 . S
S3836 N3838 1.610 . S
N3837 S3836 1.613 . S
N3837 C3840 1.350 . S
N3838 S3836 1.610 . S
N3838 C3839 1.351 . S
C3839 C3833 1.428 . S
C3839 N3838 1.351 . S
C3839 C3840 1.434 . S
C3840 C3831 1.429 . S
C3840 N3837 1.350 . S
C3840 C3839 1.434 . S
C3841 C3842 1.369 . S
C3841 C3843 1.419 . S
C3841 H3845 0.930 . S
C3842 C3841 1.369 . S
C3842 C3851 1.429 . S
C3843 C3841 1.419 . S
C3843 C3844 1.363 . S
C3843 H3846 0.929 . S
C3844 C3843 1.363 . S
C3844 C3850 1.428 . S
H3845 C3841 0.930 . S
H3846 C3843 0.929 . S
S3847 N3848 1.613 . S
S3847 N3849 1.610 . S
N3848 S3847 1.613 . S
N3848 C3851 1.350 . S
N3849 S3847 1.610 . S
N3849 C3850 1.351 . S
C3850 C3844 1.428 . S
C3850 N3849 1.351 . S
C3850 C3851 1.434 . S
C3851 C3842 1.429 . S
C3851 N3848 1.350 . S
C3851 C3850 1.434 . S
C3852 C3853 1.369 . S
C3852 C3854 1.419 . S
C3852 H3856 0.930 . S
C3853 C3852 1.369 . S
C3853 C3862 1.429 . S
C3854 C3852 1.419 . S
C3854 C3855 1.363 . S
C3854 H3857 0.929 . S
C3855 C3854 1.363 . S
C3855 C3861 1.428 . S
H3856 C3852 0.930 . S
H3857 C3854 0.929 . S
S3858 N3859 1.613 . S
S3858 N3860 1.610 . S
N3859 S3858 1.613 . S
N3859 C3862 1.350 . S
N3860 S3858 1.610 . S
N3860 C3861 1.351 . S
C3861 C3855 1.428 . S
C3861 N3860 1.351 . S
C3861 C3862 1.434 . S
C3862 C3853 1.429 . S
C3862 N3859 1.350 . S
C3862 C3861 1.434 . S
C3863 C3864 1.369 . S
C3863 C3865 1.419 . S
C3863 H3867 0.930 . S
C3864 C3863 1.369 . S
C3864 C3873 1.429 . S
C3865 C3863 1.419 . S
C3865 C3866 1.363 . S
C3865 H3868 0.929 . S
C3866 C3865 1.363 . S
C3866 C3872 1.428 . S
H3867 C3863 0.930 . S
H3868 C3865 0.929 . S
S3869 N3870 1.613 . S
S3869 N3871 1.610 . S
N3870 S3869 1.613 . S
N3870 C3873 1.350 . S
N3871 S3869 1.610 . S
N3871 C3872 1.351 . S
C3872 C3866 1.428 . S
C3872 N3871 1.351 . S
C3872 C3873 1.434 . S
C3873 C3864 1.429 . S
C3873 N3870 1.350 . S
C3873 C3872 1.434 . S
C3874 C3875 1.369 . S
C3874 C3876 1.419 . S
C3874 H3878 0.930 . S
C3875 C3874 1.369 . S
C3875 C3884 1.429 . S
C3876 C3874 1.419 . S
C3876 C3877 1.363 . S
C3876 H3879 0.929 . S
C3877 C3876 1.363 . S
C3877 C3883 1.428 . S
H3878 C3874 0.930 . S
H3879 C3876 0.929 . S
S3880 N3881 1.613 . S
S3880 N3882 1.610 . S
N3881 S3880 1.613 . S
N3881 C3884 1.350 . S
N3882 S3880 1.610 . S
N3882 C3883 1.351 . S
C3883 C3877 1.428 . S
C3883 N3882 1.351 . S
C3883 C3884 1.434 . S
C3884 C3875 1.429 . S
C3884 N3881 1.350 . S
C3884 C3883 1.434 . S
C3885 C3886 1.369 . S
C3885 C3887 1.419 . S
C3885 H3889 0.930 . S
C3886 C3885 1.369 . S
C3886 C3895 1.429 . S
C3887 C3885 1.419 . S
C3887 C3888 1.363 . S
C3887 H3890 0.929 . S
C3888 C3887 1.363 . S
C3888 C3894 1.428 . S
H3889 C3885 0.930 . S
H3890 C3887 0.929 . S
S3891 N3892 1.613 . S
S3891 N3893 1.610 . S
N3892 S3891 1.613 . S
N3892 C3895 1.350 . S
N3893 S3891 1.610 . S
N3893 C3894 1.351 . S
C3894 C3888 1.428 . S
C3894 N3893 1.351 . S
C3894 C3895 1.434 . S
C3895 C3886 1.429 . S
C3895 N3892 1.350 . S
C3895 C3894 1.434 . S
C3896 C3897 1.369 . S
C3896 C3898 1.419 . S
C3896 H3900 0.930 . S
C3897 C3896 1.369 . S
C3897 C3906 1.429 . S
C3898 C3896 1.419 . S
C3898 C3899 1.363 . S
C3898 H3901 0.929 . S
C3899 C3898 1.363 . S
C3899 C3905 1.428 . S
H3900 C3896 0.930 . S
H3901 C3898 0.929 . S
S3902 N3903 1.613 . S
S3902 N3904 1.610 . S
N3903 S3902 1.613 . S
N3903 C3906 1.350 . S
N3904 S3902 1.610 . S
N3904 C3905 1.351 . S
C3905 C3899 1.428 . S
C3905 N3904 1.351 . S
C3905 C3906 1.434 . S
C3906 C3897 1.429 . S
C3906 N3903 1.350 . S
C3906 C3905 1.434 . S
C3907 C3908 1.369 . S
C3907 C3909 1.419 . S
C3907 H3911 0.930 . S
C3908 C3907 1.369 . S
C3908 C3917 1.429 . S
C3909 C3907 1.419 . S
C3909 C3910 1.363 . S
C3909 H3912 0.929 . S
C3910 C3909 1.363 . S
C3910 C3916 1.428 . S
H3911 C3907 0.930 . S
H3912 C3909 0.929 . S
S3913 N3914 1.613 . S
S3913 N3915 1.610 . S
N3914 S3913 1.613 . S
N3914 C3917 1.350 . S
N3915 S3913 1.610 . S
N3915 C3916 1.351 . S
C3916 C3910 1.428 . S
C3916 N3915 1.351 . S
C3916 C3917 1.434 . S
C3917 C3908 1.429 . S
C3917 N3914 1.350 . S
C3917 C3916 1.434 . S
C3918 C3919 1.369 . S
C3918 C3920 1.419 . S
C3918 H3922 0.930 . S
C3919 C3918 1.369 . S
C3919 C3928 1.429 . S
C3920 C3918 1.419 . S
C3920 C3921 1.363 . S
C3920 H3923 0.929 . S
C3921 C3920 1.363 . S
C3921 C3927 1.428 . S
H3922 C3918 0.930 . S
H3923 C3920 0.929 . S
S3924 N3925 1.613 . S
S3924 N3926 1.610 . S
N3925 S3924 1.613 . S
N3925 C3928 1.350 . S
N3926 S3924 1.610 . S
N3926 C3927 1.351 . S
C3927 C3921 1.428 . S
C3927 N3926 1.351 . S
C3927 C3928 1.434 . S
C3928 C3919 1.429 . S
C3928 N3925 1.350 . S
C3928 C3927 1.434 . S
C3929 C3930 1.369 . S
C3929 C3931 1.419 . S
C3929 H3933 0.930 . S
C3930 C3929 1.369 . S
C3930 C3939 1.429 . S
C3931 C3929 1.419 . S
C3931 C3932 1.363 . S
C3931 H3934 0.929 . S
C3932 C3931 1.363 . S
C3932 C3938 1.428 . S
H3933 C3929 0.930 . S
H3934 C3931 0.929 . S
S3935 N3936 1.613 . S
S3935 N3937 1.610 . S
N3936 S3935 1.613 . S
N3936 C3939 1.350 . S
N3937 S3935 1.610 . S
N3937 C3938 1.351 . S
C3938 C3932 1.428 . S
C3938 N3937 1.351 . S
C3938 C3939 1.434 . S
C3939 C3930 1.429 . S
C3939 N3936 1.350 . S
C3939 C3938 1.434 . S
C3940 C3941 1.369 . S
C3940 C3942 1.419 . S
C3940 H3944 0.930 . S
C3941 C3940 1.369 . S
C3941 C3950 1.429 . S
C3942 C3940 1.419 . S
C3942 C3943 1.363 . S
C3942 H3945 0.929 . S
C3943 C3942 1.363 . S
C3943 C3949 1.428 . S
H3944 C3940 0.930 . S
H3945 C3942 0.929 . S
S3946 N3947 1.613 . S
S3946 N3948 1.610 . S
N3947 S3946 1.613 . S
N3947 C3950 1.350 . S
N3948 S3946 1.610 . S
N3948 C3949 1.351 . S
C3949 C3943 1.428 . S
C3949 N3948 1.351 . S
C3949 C3950 1.434 . S
C3950 C3941 1.429 . S
C3950 N3947 1.350 . S
C3950 C3949 1.434 . S
C3951 C3952 1.369 . S
C3951 C3953 1.419 . S
C3951 H3955 0.930 . S
C3952 C3951 1.369 . S
C3952 C3961 1.429 . S
C3953 C3951 1.419 . S
C3953 C3954 1.363 . S
C3953 H3956 0.929 . S
C3954 C3953 1.363 . S
C3954 C3960 1.428 . S
H3955 C3951 0.930 . S
H3956 C3953 0.929 . S
S3957 N3958 1.613 . S
S3957 N3959 1.610 . S
N3958 S3957 1.613 . S
N3958 C3961 1.350 . S
N3959 S3957 1.610 . S
N3959 C3960 1.351 . S
C3960 C3954 1.428 . S
C3960 N3959 1.351 . S
C3960 C3961 1.434 . S
C3961 C3952 1.429 . S
C3961 N3958 1.350 . S
C3961 C3960 1.434 . S
C3962 C3963 1.369 . S
C3962 C3964 1.419 . S
C3962 H3966 0.930 . S
C3963 C3962 1.369 . S
C3963 C3972 1.429 . S
C3964 C3962 1.419 . S
C3964 C3965 1.363 . S
C3964 H3967 0.929 . S
C3965 C3964 1.363 . S
C3965 C3971 1.428 . S
H3966 C3962 0.930 . S
H3967 C3964 0.929 . S
S3968 N3969 1.613 . S
S3968 N3970 1.610 . S
N3969 S3968 1.613 . S
N3969 C3972 1.350 . S
N3970 S3968 1.610 . S
N3970 C3971 1.351 . S
C3971 C3965 1.428 . S
C3971 N3970 1.351 . S
C3971 C3972 1.434 . S
C3972 C3963 1.429 . S
C3972 N3969 1.350 . S
C3972 C3971 1.434 . S
C3973 C3974 1.369 . S
C3973 C3975 1.419 . S
C3973 H3977 0.930 . S
C3974 C3973 1.369 . S
C3974 C3983 1.429 . S
C3975 C3973 1.419 . S
C3975 C3976 1.363 . S
C3975 H3978 0.929 . S
C3976 C3975 1.363 . S
C3976 C3982 1.428 . S
H3977 C3973 0.930 . S
H3978 C3975 0.929 . S
S3979 N3980 1.613 . S
S3979 N3981 1.610 . S
N3980 S3979 1.613 . S
N3980 C3983 1.350 . S
N3981 S3979 1.610 . S
N3981 C3982 1.351 . S
C3982 C3976 1.428 . S
C3982 N3981 1.351 . S
C3982 C3983 1.434 . S
C3983 C3974 1.429 . S
C3983 N3980 1.350 . S
C3983 C3982 1.434 . S
C3984 C3985 1.369 . S
C3984 C3986 1.419 . S
C3984 H3988 0.930 . S
C3985 C3984 1.369 . S
C3985 C3994 1.429 . S
C3986 C3984 1.419 . S
C3986 C3987 1.363 . S
C3986 H3989 0.929 . S
C3987 C3986 1.363 . S
C3987 C3993 1.428 . S
H3988 C3984 0.930 . S
H3989 C3986 0.929 . S
S3990 N3991 1.613 . S
S3990 N3992 1.610 . S
N3991 S3990 1.613 . S
N3991 C3994 1.350 . S
N3992 S3990 1.610 . S
N3992 C3993 1.351 . S
C3993 C3987 1.428 . S
C3993 N3992 1.351 . S
C3993 C3994 1.434 . S
C3994 C3985 1.429 . S
C3994 N3991 1.350 . S
C3994 C3993 1.434 . S
C3995 C3996 1.369 . S
C3995 C3997 1.419 . S
C3995 H3999 0.930 . S
C3996 C3995 1.369 . S
C3996 C4005 1.429 . S
C3997 C3995 1.419 . S
C3997 C3998 1.363 . S
C3997 H4000 0.929 . S
C3998 C3997 1.363 . S
C3998 C4004 1.428 . S
H3999 C3995 0.930 . S
H4000 C3997 0.929 . S
S4001 N4002 1.613 . S
S4001 N4003 1.610 . S
N4002 S4001 1.613 . S
N4002 C4005 1.350 . S
N4003 S4001 1.610 . S
N4003 C4004 1.351 . S
C4004 C3998 1.428 . S
C4004 N4003 1.351 . S
C4004 C4005 1.434 . S
C4005 C3996 1.429 . S
C4005 N4002 1.350 . S
C4005 C4004 1.434 . S
C4006 C4007 1.369 . S
C4006 C4008 1.419 . S
C4006 H4010 0.930 . S
C4007 C4006 1.369 . S
C4007 C4016 1.429 . S
C4008 C4006 1.419 . S
C4008 C4009 1.363 . S
C4008 H4011 0.929 . S
C4009 C4008 1.363 . S
C4009 C4015 1.428 . S
H4010 C4006 0.930 . S
H4011 C4008 0.929 . S
S4012 N4013 1.613 . S
S4012 N4014 1.610 . S
N4013 S4012 1.613 . S
N4013 C4016 1.350 . S
N4014 S4012 1.610 . S
N4014 C4015 1.351 . S
C4015 C4009 1.428 . S
C4015 N4014 1.351 . S
C4015 C4016 1.434 . S
C4016 C4007 1.429 . S
C4016 N4013 1.350 . S
C4016 C4015 1.434 . S
C4017 C4018 1.369 . S
C4017 C4019 1.419 . S
C4017 H4021 0.930 . S
C4018 C4017 1.369 . S
C4018 C4027 1.429 . S
C4019 C4017 1.419 . S
C4019 C4020 1.363 . S
C4019 H4022 0.929 . S
C4020 C4019 1.363 . S
C4020 C4026 1.428 . S
H4021 C4017 0.930 . S
H4022 C4019 0.929 . S
S4023 N4024 1.613 . S
S4023 N4025 1.610 . S
N4024 S4023 1.613 . S
N4024 C4027 1.350 . S
N4025 S4023 1.610 . S
N4025 C4026 1.351 . S
C4026 C4020 1.428 . S
C4026 N4025 1.351 . S
C4026 C4027 1.434 . S
C4027 C4018 1.429 . S
C4027 N4024 1.350 . S
C4027 C4026 1.434 . S
C4028 C4029 1.369 . S
C4028 C4030 1.419 . S
C4028 H4032 0.930 . S
C4029 C4028 1.369 . S
C4029 C4038 1.429 . S
C4030 C4028 1.419 . S
C4030 C4031 1.363 . S
C4030 H4033 0.929 . S
C4031 C4030 1.363 . S
C4031 C4037 1.428 . S
H4032 C4028 0.930 . S
H4033 C4030 0.929 . S
S4034 N4035 1.613 . S
S4034 N4036 1.610 . S
N4035 S4034 1.613 . S
N4035 C4038 1.350 . S
N4036 S4034 1.610 . S
N4036 C4037 1.351 . S
C4037 C4031 1.428 . S
C4037 N4036 1.351 . S
C4037 C4038 1.434 . S
C4038 C4029 1.429 . S
C4038 N4035 1.350 . S
C4038 C4037 1.434 . S
C4039 C4040 1.369 . S
C4039 C4041 1.419 . S
C4039 H4043 0.930 . S
C4040 C4039 1.369 . S
C4040 C4049 1.429 . S
C4041 C4039 1.419 . S
C4041 C4042 1.363 . S
C4041 H4044 0.929 . S
C4042 C4041 1.363 . S
C4042 C4048 1.428 . S
H4043 C4039 0.930 . S
H4044 C4041 0.929 . S
S4045 N4046 1.613 . S
S4045 N4047 1.610 . S
N4046 S4045 1.613 . S
N4046 C4049 1.350 . S
N4047 S4045 1.610 . S
N4047 C4048 1.351 . S
C4048 C4042 1.428 . S
C4048 N4047 1.351 . S
C4048 C4049 1.434 . S
C4049 C4040 1.429 . S
C4049 N4046 1.350 . S
C4049 C4048 1.434 . S
C4050 C4051 1.369 . S
C4050 C4052 1.419 . S
C4050 H4054 0.930 . S
C4051 C4050 1.369 . S
C4051 C4060 1.429 . S
C4052 C4050 1.419 . S
C4052 C4053 1.363 . S
C4052 H4055 0.929 . S
C4053 C4052 1.363 . S
C4053 C4059 1.428 . S
H4054 C4050 0.930 . S
H4055 C4052 0.929 . S
S4056 N4057 1.613 . S
S4056 N4058 1.610 . S
N4057 S4056 1.613 . S
N4057 C4060 1.350 . S
N4058 S4056 1.610 . S
N4058 C4059 1.351 . S
C4059 C4053 1.428 . S
C4059 N4058 1.351 . S
C4059 C4060 1.434 . S
C4060 C4051 1.429 . S
C4060 N4057 1.350 . S
C4060 C4059 1.434 . S
C4061 C4062 1.369 . S
C4061 C4063 1.419 . S
C4061 H4065 0.930 . S
C4062 C4061 1.369 . S
C4062 C4071 1.429 . S
C4063 C4061 1.419 . S
C4063 C4064 1.363 . S
C4063 H4066 0.929 . S
C4064 C4063 1.363 . S
C4064 C4070 1.428 . S
H4065 C4061 0.930 . S
H4066 C4063 0.929 . S
S4067 N4068 1.613 . S
S4067 N4069 1.610 . S
N4068 S4067 1.613 . S
N4068 C4071 1.350 . S
N4069 S4067 1.610 . S
N4069 C4070 1.351 . S
C4070 C4064 1.428 . S
C4070 N4069 1.351 . S
C4070 C4071 1.434 . S
C4071 C4062 1.429 . S
C4071 N4068 1.350 . S
C4071 C4070 1.434 . S
C4072 C4073 1.369 . S
C4072 C4074 1.419 . S
C4072 H4076 0.930 . S
C4073 C4072 1.369 . S
C4073 C4082 1.429 . S
C4074 C4072 1.419 . S
C4074 C4075 1.363 . S
C4074 H4077 0.929 . S
C4075 C4074 1.363 . S
C4075 C4081 1.428 . S
H4076 C4072 0.930 . S
H4077 C4074 0.929 . S
S4078 N4079 1.613 . S
S4078 N4080 1.610 . S
N4079 S4078 1.613 . S
N4079 C4082 1.350 . S
N4080 S4078 1.610 . S
N4080 C4081 1.351 . S
C4081 C4075 1.428 . S
C4081 N4080 1.351 . S
C4081 C4082 1.434 . S
C4082 C4073 1.429 . S
C4082 N4079 1.350 . S
C4082 C4081 1.434 . S
C4083 C4084 1.369 . S
C4083 C4085 1.419 . S
C4083 H4087 0.930 . S
C4084 C4083 1.369 . S
C4084 C4093 1.429 . S
C4085 C4083 1.419 . S
C4085 C4086 1.363 . S
C4085 H4088 0.929 . S
C4086 C4085 1.363 . S
C4086 C4092 1.428 . S
H4087 C4083 0.930 . S
H4088 C4085 0.929 . S
S4089 N4090 1.613 . S
S4089 N4091 1.610 . S
N4090 S4089 1.613 . S
N4090 C4093 1.350 . S
N4091 S4089 1.610 . S
N4091 C4092 1.351 . S
C4092 C4086 1.428 . S
C4092 N4091 1.351 . S
C4092 C4093 1.434 . S
C4093 C4084 1.429 . S
C4093 N4090 1.350 . S
C4093 C4092 1.434 . S
C4094 C4095 1.369 . S
C4094 C4096 1.419 . S
C4094 H4098 0.930 . S
C4095 C4094 1.369 . S
C4095 C4104 1.429 . S
C4096 C4094 1.419 . S
C4096 C4097 1.363 . S
C4096 H4099 0.929 . S
C4097 C4096 1.363 . S
C4097 C4103 1.428 . S
H4098 C4094 0.930 . S
H4099 C4096 0.929 . S
S4100 N4101 1.613 . S
S4100 N4102 1.610 . S
N4101 S4100 1.613 . S
N4101 C4104 1.350 . S
N4102 S4100 1.610 . S
N4102 C4103 1.351 . S
C4103 C4097 1.428 . S
C4103 N4102 1.351 . S
C4103 C4104 1.434 . S
C4104 C4095 1.429 . S
C4104 N4101 1.350 . S
C4104 C4103 1.434 . S
C4105 C4106 1.369 . S
C4105 C4107 1.419 . S
C4105 H4109 0.930 . S
C4106 C4105 1.369 . S
C4106 C4115 1.429 . S
C4107 C4105 1.419 . S
C4107 C4108 1.363 . S
C4107 H4110 0.929 . S
C4108 C4107 1.363 . S
C4108 C4114 1.428 . S
H4109 C4105 0.930 . S
H4110 C4107 0.929 . S
S4111 N4112 1.613 . S
S4111 N4113 1.610 . S
N4112 S4111 1.613 . S
N4112 C4115 1.350 . S
N4113 S4111 1.610 . S
N4113 C4114 1.351 . S
C4114 C4108 1.428 . S
C4114 N4113 1.351 . S
C4114 C4115 1.434 . S
C4115 C4106 1.429 . S
C4115 N4112 1.350 . S
C4115 C4114 1.434 . S
C4116 C4117 1.369 . S
C4116 C4118 1.419 . S
C4116 H4120 0.930 . S
C4117 C4116 1.369 . S
C4117 C4126 1.429 . S
C4118 C4116 1.419 . S
C4118 C4119 1.363 . S
C4118 H4121 0.929 . S
C4119 C4118 1.363 . S
C4119 C4125 1.428 . S
H4120 C4116 0.930 . S
H4121 C4118 0.929 . S
S4122 N4123 1.613 . S
S4122 N4124 1.610 . S
N4123 S4122 1.613 . S
N4123 C4126 1.350 . S
N4124 S4122 1.610 . S
N4124 C4125 1.351 . S
C4125 C4119 1.428 . S
C4125 N4124 1.351 . S
C4125 C4126 1.434 . S
C4126 C4117 1.429 . S
C4126 N4123 1.350 . S
C4126 C4125 1.434 . S
C4127 C4128 1.369 . S
C4127 C4129 1.419 . S
C4127 H4131 0.930 . S
C4128 C4127 1.369 . S
C4128 C4137 1.429 . S
C4129 C4127 1.419 . S
C4129 C4130 1.363 . S
C4129 H4132 0.929 . S
C4130 C4129 1.363 . S
C4130 C4136 1.428 . S
H4131 C4127 0.930 . S
H4132 C4129 0.929 . S
S4133 N4134 1.613 . S
S4133 N4135 1.610 . S
N4134 S4133 1.613 . S
N4134 C4137 1.350 . S
N4135 S4133 1.610 . S
N4135 C4136 1.351 . S
C4136 C4130 1.428 . S
C4136 N4135 1.351 . S
C4136 C4137 1.434 . S
C4137 C4128 1.429 . S
C4137 N4134 1.350 . S
C4137 C4136 1.434 . S
C4138 C4139 1.369 . S
C4138 C4140 1.419 . S
C4138 H4142 0.930 . S
C4139 C4138 1.369 . S
C4139 C4148 1.429 . S
C4140 C4138 1.419 . S
C4140 C4141 1.363 . S
C4140 H4143 0.929 . S
C4141 C4140 1.363 . S
C4141 C4147 1.428 . S
H4142 C4138 0.930 . S
H4143 C4140 0.929 . S
S4144 N4145 1.613 . S
S4144 N4146 1.610 . S
N4145 S4144 1.613 . S
N4145 C4148 1.350 . S
N4146 S4144 1.610 . S
N4146 C4147 1.351 . S
C4147 C4141 1.428 . S
C4147 N4146 1.351 . S
C4147 C4148 1.434 . S
C4148 C4139 1.429 . S
C4148 N4145 1.350 . S
C4148 C4147 1.434 . S
C4149 C4150 1.369 . S
C4149 C4151 1.419 . S
C4149 H4153 0.930 . S
C4150 C4149 1.369 . S
C4150 C4159 1.429 . S
C4151 C4149 1.419 . S
C4151 C4152 1.363 . S
C4151 H4154 0.929 . S
C4152 C4151 1.363 . S
C4152 C4158 1.428 . S
H4153 C4149 0.930 . S
H4154 C4151 0.929 . S
S4155 N4156 1.613 . S
S4155 N4157 1.610 . S
N4156 S4155 1.613 . S
N4156 C4159 1.350 . S
N4157 S4155 1.610 . S
N4157 C4158 1.351 . S
C4158 C4152 1.428 . S
C4158 N4157 1.351 . S
C4158 C4159 1.434 . S
C4159 C4150 1.429 . S
C4159 N4156 1.350 . S
C4159 C4158 1.434 . S
C4160 C4161 1.369 . S
C4160 C4162 1.419 . S
C4160 H4164 0.930 . S
C4161 C4160 1.369 . S
C4161 C4170 1.429 . S
C4162 C4160 1.419 . S
C4162 C4163 1.363 . S
C4162 H4165 0.929 . S
C4163 C4162 1.363 . S
C4163 C4169 1.428 . S
H4164 C4160 0.930 . S
H4165 C4162 0.929 . S
S4166 N4167 1.613 . S
S4166 N4168 1.610 . S
N4167 S4166 1.613 . S
N4167 C4170 1.350 . S
N4168 S4166 1.610 . S
N4168 C4169 1.351 . S
C4169 C4163 1.428 . S
C4169 N4168 1.351 . S
C4169 C4170 1.434 . S
C4170 C4161 1.429 . S
C4170 N4167 1.350 . S
C4170 C4169 1.434 . S
C4171 C4172 1.369 . S
C4171 C4173 1.419 . S
C4171 H4175 0.930 . S
C4172 C4171 1.369 . S
C4172 C4181 1.429 . S
C4173 C4171 1.419 . S
C4173 C4174 1.363 . S
C4173 H4176 0.929 . S
C4174 C4173 1.363 . S
C4174 C4180 1.428 . S
H4175 C4171 0.930 . S
H4176 C4173 0.929 . S
S4177 N4178 1.613 . S
S4177 N4179 1.610 . S
N4178 S4177 1.613 . S
N4178 C4181 1.350 . S
N4179 S4177 1.610 . S
N4179 C4180 1.351 . S
C4180 C4174 1.428 . S
C4180 N4179 1.351 . S
C4180 C4181 1.434 . S
C4181 C4172 1.429 . S
C4181 N4178 1.350 . S
C4181 C4180 1.434 . S
C4182 C4183 1.369 . S
C4182 C4184 1.419 . S
C4182 H4186 0.930 . S
C4183 C4182 1.369 . S
C4183 C4192 1.429 . S
C4184 C4182 1.419 . S
C4184 C4185 1.363 . S
C4184 H4187 0.929 . S
C4185 C4184 1.363 . S
C4185 C4191 1.428 . S
H4186 C4182 0.930 . S
H4187 C4184 0.929 . S
S4188 N4189 1.613 . S
S4188 N4190 1.610 . S
N4189 S4188 1.613 . S
N4189 C4192 1.350 . S
N4190 S4188 1.610 . S
N4190 C4191 1.351 . S
C4191 C4185 1.428 . S
C4191 N4190 1.351 . S
C4191 C4192 1.434 . S
C4192 C4183 1.429 . S
C4192 N4189 1.350 . S
C4192 C4191 1.434 . S
C4193 C4194 1.369 . S
C4193 C4195 1.419 . S
C4193 H4197 0.930 . S
C4194 C4193 1.369 . S
C4194 C4203 1.429 . S
C4195 C4193 1.419 . S
C4195 C4196 1.363 . S
C4195 H4198 0.929 . S
C4196 C4195 1.363 . S
C4196 C4202 1.428 . S
H4197 C4193 0.930 . S
H4198 C4195 0.929 . S
S4199 N4200 1.613 . S
S4199 N4201 1.610 . S
N4200 S4199 1.613 . S
N4200 C4203 1.350 . S
N4201 S4199 1.610 . S
N4201 C4202 1.351 . S
C4202 C4196 1.428 . S
C4202 N4201 1.351 . S
C4202 C4203 1.434 . S
C4203 C4194 1.429 . S
C4203 N4200 1.350 . S
C4203 C4202 1.434 . S
C4204 C4205 1.369 . S
C4204 C4206 1.419 . S
C4204 H4208 0.930 . S
C4205 C4204 1.369 . S
C4205 C4214 1.429 . S
C4206 C4204 1.419 . S
C4206 C4207 1.363 . S
C4206 H4209 0.929 . S
C4207 C4206 1.363 . S
C4207 C4213 1.428 . S
H4208 C4204 0.930 . S
H4209 C4206 0.929 . S
S4210 N4211 1.613 . S
S4210 N4212 1.610 . S
N4211 S4210 1.613 . S
N4211 C4214 1.350 . S
N4212 S4210 1.610 . S
N4212 C4213 1.351 . S
C4213 C4207 1.428 . S
C4213 N4212 1.351 . S
C4213 C4214 1.434 . S
C4214 C4205 1.429 . S
C4214 N4211 1.350 . S
C4214 C4213 1.434 . S
C4215 C4216 1.369 . S
C4215 C4217 1.419 . S
C4215 H4219 0.930 . S
C4216 C4215 1.369 . S
C4216 C4225 1.429 . S
C4217 C4215 1.419 . S
C4217 C4218 1.363 . S
C4217 H4220 0.929 . S
C4218 C4217 1.363 . S
C4218 C4224 1.428 . S
H4219 C4215 0.930 . S
H4220 C4217 0.929 . S
S4221 N4222 1.613 . S
S4221 N4223 1.610 . S
N4222 S4221 1.613 . S
N4222 C4225 1.350 . S
N4223 S4221 1.610 . S
N4223 C4224 1.351 . S
C4224 C4218 1.428 . S
C4224 N4223 1.351 . S
C4224 C4225 1.434 . S
C4225 C4216 1.429 . S
C4225 N4222 1.350 . S
C4225 C4224 1.434 . S
C4226 C4227 1.369 . S
C4226 C4228 1.419 . S
C4226 H4230 0.930 . S
C4227 C4226 1.369 . S
C4227 C4236 1.429 . S
C4228 C4226 1.419 . S
C4228 C4229 1.363 . S
C4228 H4231 0.929 . S
C4229 C4228 1.363 . S
C4229 C4235 1.428 . S
H4230 C4226 0.930 . S
H4231 C4228 0.929 . S
S4232 N4233 1.613 . S
S4232 N4234 1.610 . S
N4233 S4232 1.613 . S
N4233 C4236 1.350 . S
N4234 S4232 1.610 . S
N4234 C4235 1.351 . S
C4235 C4229 1.428 . S
C4235 N4234 1.351 . S
C4235 C4236 1.434 . S
C4236 C4227 1.429 . S
C4236 N4233 1.350 . S
C4236 C4235 1.434 . S
C4237 C4238 1.369 . S
C4237 C4239 1.419 . S
C4237 H4241 0.930 . S
C4238 C4237 1.369 . S
C4238 C4247 1.429 . S
C4239 C4237 1.419 . S
C4239 C4240 1.363 . S
C4239 H4242 0.929 . S
C4240 C4239 1.363 . S
C4240 C4246 1.428 . S
H4241 C4237 0.930 . S
H4242 C4239 0.929 . S
S4243 N4244 1.613 . S
S4243 N4245 1.610 . S
N4244 S4243 1.613 . S
N4244 C4247 1.350 . S
N4245 S4243 1.610 . S
N4245 C4246 1.351 . S
C4246 C4240 1.428 . S
C4246 N4245 1.351 . S
C4246 C4247 1.434 . S
C4247 C4238 1.429 . S
C4247 N4244 1.350 . S
C4247 C4246 1.434 . S
C4248 C4249 1.369 . S
C4248 C4250 1.419 . S
C4248 H4252 0.930 . S
C4249 C4248 1.369 . S
C4249 C4258 1.429 . S
C4250 C4248 1.419 . S
C4250 C4251 1.363 . S
C4250 H4253 0.929 . S
C4251 C4250 1.363 . S
C4251 C4257 1.428 . S
H4252 C4248 0.930 . S
H4253 C4250 0.929 . S
S4254 N4255 1.613 . S
S4254 N4256 1.610 . S
N4255 S4254 1.613 . S
N4255 C4258 1.350 . S
N4256 S4254 1.610 . S
N4256 C4257 1.351 . S
C4257 C4251 1.428 . S
C4257 N4256 1.351 . S
C4257 C4258 1.434 . S
C4258 C4249 1.429 . S
C4258 N4255 1.350 . S
C4258 C4257 1.434 . S
C4259 C4260 1.369 . S
C4259 C4261 1.419 . S
C4259 H4263 0.930 . S
C4260 C4259 1.369 . S
C4260 C4269 1.429 . S
C4261 C4259 1.419 . S
C4261 C4262 1.363 . S
C4261 H4264 0.929 . S
C4262 C4261 1.363 . S
C4262 C4268 1.428 . S
H4263 C4259 0.930 . S
H4264 C4261 0.929 . S
S4265 N4266 1.613 . S
S4265 N4267 1.610 . S
N4266 S4265 1.613 . S
N4266 C4269 1.350 . S
N4267 S4265 1.610 . S
N4267 C4268 1.351 . S
C4268 C4262 1.428 . S
C4268 N4267 1.351 . S
C4268 C4269 1.434 . S
C4269 C4260 1.429 . S
C4269 N4266 1.350 . S
C4269 C4268 1.434 . S
C4270 C4271 1.369 . S
C4270 C4272 1.419 . S
C4270 H4274 0.930 . S
C4271 C4270 1.369 . S
C4271 C4280 1.429 . S
C4272 C4270 1.419 . S
C4272 C4273 1.363 . S
C4272 H4275 0.929 . S
C4273 C4272 1.363 . S
C4273 C4279 1.428 . S
H4274 C4270 0.930 . S
H4275 C4272 0.929 . S
S4276 N4277 1.613 . S
S4276 N4278 1.610 . S
N4277 S4276 1.613 . S
N4277 C4280 1.350 . S
N4278 S4276 1.610 . S
N4278 C4279 1.351 . S
C4279 C4273 1.428 . S
C4279 N4278 1.351 . S
C4279 C4280 1.434 . S
C4280 C4271 1.429 . S
C4280 N4277 1.350 . S
C4280 C4279 1.434 . S
C4281 C4282 1.369 . S
C4281 C4283 1.419 . S
C4281 H4285 0.930 . S
C4282 C4281 1.369 . S
C4282 C4291 1.429 . S
C4283 C4281 1.419 . S
C4283 C4284 1.363 . S
C4283 H4286 0.929 . S
C4284 C4283 1.363 . S
C4284 C4290 1.428 . S
H4285 C4281 0.930 . S
H4286 C4283 0.929 . S
S4287 N4288 1.613 . S
S4287 N4289 1.610 . S
N4288 S4287 1.613 . S
N4288 C4291 1.350 . S
N4289 S4287 1.610 . S
N4289 C4290 1.351 . S
C4290 C4284 1.428 . S
C4290 N4289 1.351 . S
C4290 C4291 1.434 . S
C4291 C4282 1.429 . S
C4291 N4288 1.350 . S
C4291 C4290 1.434 . S
C4292 C4293 1.369 . S
C4292 C4294 1.419 . S
C4292 H4296 0.930 . S
C4293 C4292 1.369 . S
C4293 C4302 1.429 . S
C4294 C4292 1.419 . S
C4294 C4295 1.363 . S
C4294 H4297 0.929 . S
C4295 C4294 1.363 . S
C4295 C4301 1.428 . S
H4296 C4292 0.930 . S
H4297 C4294 0.929 . S
S4298 N4299 1.613 . S
S4298 N4300 1.610 1_545 S
N4299 S4298 1.613 . S
N4299 C4302 1.350 1_545 S
N4300 S4298 1.610 1_565 S
N4300 C4301 1.351 . S
C4301 C4295 1.428 . S
C4301 N4300 1.351 . S
C4301 C4302 1.434 . S
C4302 C4293 1.429 . S
C4302 N4299 1.350 1_565 S
C4302 C4301 1.434 . S
C4303 C4304 1.369 . S
C4303 C4305 1.419 . S
C4303 H4307 0.930 . S
C4304 C4303 1.369 . S
C4304 C4313 1.429 . S
C4305 C4303 1.419 . S
C4305 C4306 1.363 . S
C4305 H4308 0.929 . S
C4306 C4305 1.363 . S
C4306 C4312 1.428 . S
H4307 C4303 0.930 . S
H4308 C4305 0.929 . S
S4309 N4310 1.613 . S
S4309 N4311 1.610 . S
N4310 S4309 1.613 . S
N4310 C4313 1.350 . S
N4311 S4309 1.610 . S
N4311 C4312 1.351 . S
C4312 C4306 1.428 . S
C4312 N4311 1.351 . S
C4312 C4313 1.434 . S
C4313 C4304 1.429 . S
C4313 N4310 1.350 . S
C4313 C4312 1.434 . S
C4314 C4315 1.369 . S
C4314 C4316 1.419 . S
C4314 H4318 0.930 . S
C4315 C4314 1.369 . S
C4315 C4324 1.429 . S
C4316 C4314 1.419 . S
C4316 C4317 1.363 . S
C4316 H4319 0.929 . S
C4317 C4316 1.363 . S
C4317 C4323 1.428 . S
H4318 C4314 0.930 . S
H4319 C4316 0.929 . S
S4320 N4321 1.613 . S
S4320 N4322 1.610 . S
N4321 S4320 1.613 . S
N4321 C4324 1.350 . S
N4322 S4320 1.610 . S
N4322 C4323 1.351 . S
C4323 C4317 1.428 . S
C4323 N4322 1.351 . S
C4323 C4324 1.434 . S
C4324 C4315 1.429 . S
C4324 N4321 1.350 . S
C4324 C4323 1.434 . S
C4325 C4326 1.369 . S
C4325 C4327 1.419 . S
C4325 H4329 0.930 . S
C4326 C4325 1.369 . S
C4326 C4335 1.429 . S
C4327 C4325 1.419 . S
C4327 C4328 1.363 . S
C4327 H4330 0.929 . S
C4328 C4327 1.363 . S
C4328 C4334 1.428 . S
H4329 C4325 0.930 . S
H4330 C4327 0.929 . S
S4331 N4332 1.613 . S
S4331 N4333 1.610 . S
N4332 S4331 1.613 . S
N4332 C4335 1.350 . S
N4333 S4331 1.610 . S
N4333 C4334 1.351 . S
C4334 C4328 1.428 . S
C4334 N4333 1.351 . S
C4334 C4335 1.434 . S
C4335 C4326 1.429 . S
C4335 N4332 1.350 . S
C4335 C4334 1.434 . S
C4336 C4337 1.369 . S
C4336 C4338 1.419 . S
C4336 H4340 0.930 . S
C4337 C4336 1.369 . S
C4337 C4346 1.429 . S
C4338 C4336 1.419 . S
C4338 C4339 1.363 . S
C4338 H4341 0.929 . S
C4339 C4338 1.363 . S
C4339 C4345 1.428 . S
H4340 C4336 0.930 . S
H4341 C4338 0.929 . S
S4342 N4343 1.613 . S
S4342 N4344 1.610 . S
N4343 S4342 1.613 . S
N4343 C4346 1.350 . S
N4344 S4342 1.610 . S
N4344 C4345 1.351 . S
C4345 C4339 1.428 . S
C4345 N4344 1.351 . S
C4345 C4346 1.434 . S
C4346 C4337 1.429 . S
C4346 N4343 1.350 . S
C4346 C4345 1.434 . S
C4347 C4348 1.369 . S
C4347 C4349 1.419 . S
C4347 H4351 0.930 . S
C4348 C4347 1.369 . S
C4348 C4357 1.429 . S
C4349 C4347 1.419 . S
C4349 C4350 1.363 . S
C4349 H4352 0.929 . S
C4350 C4349 1.363 . S
C4350 C4356 1.428 . S
H4351 C4347 0.930 . S
H4352 C4349 0.929 . S
S4353 N4354 1.613 . S
S4353 N4355 1.610 . S
N4354 S4353 1.613 . S
N4354 C4357 1.350 . S
N4355 S4353 1.610 . S
N4355 C4356 1.351 . S
C4356 C4350 1.428 . S
C4356 N4355 1.351 . S
C4356 C4357 1.434 . S
C4357 C4348 1.429 . S
C4357 N4354 1.350 . S
C4357 C4356 1.434 . S
C4358 C4359 1.369 . S
C4358 C4360 1.419 . S
C4358 H4362 0.930 . S
C4359 C4358 1.369 . S
C4359 C4368 1.429 . S
C4360 C4358 1.419 . S
C4360 C4361 1.363 . S
C4360 H4363 0.929 . S
C4361 C4360 1.363 . S
C4361 C4367 1.428 . S
H4362 C4358 0.930 . S
H4363 C4360 0.929 . S
S4364 N4365 1.613 . S
S4364 N4366 1.610 . S
N4365 S4364 1.613 . S
N4365 C4368 1.350 . S
N4366 S4364 1.610 . S
N4366 C4367 1.351 . S
C4367 C4361 1.428 . S
C4367 N4366 1.351 . S
C4367 C4368 1.434 . S
C4368 C4359 1.429 . S
C4368 N4365 1.350 . S
C4368 C4367 1.434 . S
C4369 C4370 1.369 . S
C4369 C4371 1.419 . S
C4369 H4373 0.930 . S
C4370 C4369 1.369 . S
C4370 C4379 1.429 . S
C4371 C4369 1.419 . S
C4371 C4372 1.363 . S
C4371 H4374 0.929 . S
C4372 C4371 1.363 . S
C4372 C4378 1.428 . S
H4373 C4369 0.930 . S
H4374 C4371 0.929 . S
S4375 N4376 1.613 . S
S4375 N4377 1.610 . S
N4376 S4375 1.613 . S
N4376 C4379 1.350 . S
N4377 S4375 1.610 . S
N4377 C4378 1.351 . S
C4378 C4372 1.428 . S
C4378 N4377 1.351 . S
C4378 C4379 1.434 . S
C4379 C4370 1.429 . S
C4379 N4376 1.350 . S
C4379 C4378 1.434 . S
C4380 C4381 1.369 . S
C4380 C4382 1.419 . S
C4380 H4384 0.930 . S
C4381 C4380 1.369 . S
C4381 C4390 1.429 . S
C4382 C4380 1.419 . S
C4382 C4383 1.363 . S
C4382 H4385 0.929 . S
C4383 C4382 1.363 . S
C4383 C4389 1.428 . S
H4384 C4380 0.930 . S
H4385 C4382 0.929 . S
S4386 N4387 1.613 . S
S4386 N4388 1.610 . S
N4387 S4386 1.613 . S
N4387 C4390 1.350 . S
N4388 S4386 1.610 . S
N4388 C4389 1.351 . S
C4389 C4383 1.428 . S
C4389 N4388 1.351 . S
C4389 C4390 1.434 . S
C4390 C4381 1.429 . S
C4390 N4387 1.350 . S
C4390 C4389 1.434 . S
C4391 C4392 1.369 . S
C4391 C4393 1.419 . S
C4391 H4395 0.930 . S
C4392 C4391 1.369 . S
C4392 C4401 1.429 . S
C4393 C4391 1.419 . S
C4393 C4394 1.363 . S
C4393 H4396 0.929 . S
C4394 C4393 1.363 . S
C4394 C4400 1.428 . S
H4395 C4391 0.930 . S
H4396 C4393 0.929 . S
S4397 N4398 1.613 . S
S4397 N4399 1.610 . S
N4398 S4397 1.613 . S
N4398 C4401 1.350 . S
N4399 S4397 1.610 . S
N4399 C4400 1.351 . S
C4400 C4394 1.428 . S
C4400 N4399 1.351 . S
C4400 C4401 1.434 . S
C4401 C4392 1.429 . S
C4401 N4398 1.350 . S
C4401 C4400 1.434 . S
C4402 C4403 1.369 . S
C4402 C4404 1.419 . S
C4402 H4406 0.930 . S
C4403 C4402 1.369 . S
C4403 C4412 1.429 . S
C4404 C4402 1.419 . S
C4404 C4405 1.363 . S
C4404 H4407 0.929 . S
C4405 C4404 1.363 . S
C4405 C4411 1.428 . S
H4406 C4402 0.930 . S
H4407 C4404 0.929 . S
S4408 N4409 1.613 . S
S4408 N4410 1.610 . S
N4409 S4408 1.613 . S
N4409 C4412 1.350 . S
N4410 S4408 1.610 . S
N4410 C4411 1.351 . S
C4411 C4405 1.428 . S
C4411 N4410 1.351 . S
C4411 C4412 1.434 . S
C4412 C4403 1.429 . S
C4412 N4409 1.350 . S
C4412 C4411 1.434 . S
C4413 C4414 1.369 . S
C4413 C4415 1.419 . S
C4413 H4417 0.930 . S
C4414 C4413 1.369 . S
C4414 C4423 1.429 . S
C4415 C4413 1.419 . S
C4415 C4416 1.363 . S
C4415 H4418 0.929 . S
C4416 C4415 1.363 . S
C4416 C4422 1.428 . S
H4417 C4413 0.930 . S
H4418 C4415 0.929 . S
S4419 N4420 1.613 . S
S4419 N4421 1.610 . S
N4420 S4419 1.613 . S
N4420 C4423 1.350 . S
N4421 S4419 1.610 . S
N4421 C4422 1.351 . S
C4422 C4416 1.428 . S
C4422 N4421 1.351 . S
C4422 C4423 1.434 . S
C4423 C4414 1.429 . S
C4423 N4420 1.350 . S
C4423 C4422 1.434 . S
C4424 C4425 1.369 . S
C4424 C4426 1.419 . S
C4424 H4428 0.930 . S
C4425 C4424 1.369 . S
C4425 C4434 1.429 . S
C4426 C4424 1.419 . S
C4426 C4427 1.363 . S
C4426 H4429 0.929 . S
C4427 C4426 1.363 . S
C4427 C4433 1.428 . S
H4428 C4424 0.930 . S
H4429 C4426 0.929 . S
S4430 N4431 1.613 . S
S4430 N4432 1.610 . S
N4431 S4430 1.613 . S
N4431 C4434 1.350 . S
N4432 S4430 1.610 . S
N4432 C4433 1.351 . S
C4433 C4427 1.428 . S
C4433 N4432 1.351 . S
C4433 C4434 1.434 . S
C4434 C4425 1.429 . S
C4434 N4431 1.350 . S
C4434 C4433 1.434 . S
C4435 C4436 1.369 . S
C4435 C4437 1.419 . S
C4435 H4439 0.930 . S
C4436 C4435 1.369 . S
C4436 C4445 1.429 . S
C4437 C4435 1.419 . S
C4437 C4438 1.363 . S
C4437 H4440 0.929 . S
C4438 C4437 1.363 . S
C4438 C4444 1.428 . S
H4439 C4435 0.930 . S
H4440 C4437 0.929 . S
S4441 N4442 1.613 . S
S4441 N4443 1.610 . S
N4442 S4441 1.613 . S
N4442 C4445 1.350 . S
N4443 S4441 1.610 . S
N4443 C4444 1.351 . S
C4444 C4438 1.428 . S
C4444 N4443 1.351 . S
C4444 C4445 1.434 . S
C4445 C4436 1.429 . S
C4445 N4442 1.350 . S
C4445 C4444 1.434 . S
C4446 C4447 1.369 . S
C4446 C4448 1.419 . S
C4446 H4450 0.930 . S
C4447 C4446 1.369 . S
C4447 C4456 1.429 . S
C4448 C4446 1.419 . S
C4448 C4449 1.363 . S
C4448 H4451 0.929 . S
C4449 C4448 1.363 . S
C4449 C4455 1.428 . S
H4450 C4446 0.930 . S
H4451 C4448 0.929 . S
S4452 N4453 1.613 . S
S4452 N4454 1.610 . S
N4453 S4452 1.613 . S
N4453 C4456 1.350 . S
N4454 S4452 1.610 . S
N4454 C4455 1.351 . S
C4455 C4449 1.428 . S
C4455 N4454 1.351 . S
C4455 C4456 1.434 . S
C4456 C4447 1.429 . S
C4456 N4453 1.350 . S
C4456 C4455 1.434 . S
C4457 C4458 1.369 . S
C4457 C4459 1.419 . S
C4457 H4461 0.930 . S
C4458 C4457 1.369 . S
C4458 C4467 1.429 . S
C4459 C4457 1.419 . S
C4459 C4460 1.363 . S
C4459 H4462 0.929 . S
C4460 C4459 1.363 . S
C4460 C4466 1.428 . S
H4461 C4457 0.930 . S
H4462 C4459 0.929 . S
S4463 N4464 1.613 . S
S4463 N4465 1.610 . S
N4464 S4463 1.613 . S
N4464 C4467 1.350 . S
N4465 S4463 1.610 . S
N4465 C4466 1.351 . S
C4466 C4460 1.428 . S
C4466 N4465 1.351 . S
C4466 C4467 1.434 . S
C4467 C4458 1.429 . S
C4467 N4464 1.350 . S
C4467 C4466 1.434 . S
C4468 C4469 1.369 . S
C4468 C4470 1.419 . S
C4468 H4472 0.930 . S
C4469 C4468 1.369 . S
C4469 C4478 1.429 . S
C4470 C4468 1.419 . S
C4470 C4471 1.363 . S
C4470 H4473 0.929 . S
C4471 C4470 1.363 . S
C4471 C4477 1.428 . S
H4472 C4468 0.930 . S
H4473 C4470 0.929 . S
S4474 N4475 1.613 . S
S4474 N4476 1.610 . S
N4475 S4474 1.613 . S
N4475 C4478 1.350 . S
N4476 S4474 1.610 . S
N4476 C4477 1.351 . S
C4477 C4471 1.428 . S
C4477 N4476 1.351 . S
C4477 C4478 1.434 . S
C4478 C4469 1.429 . S
C4478 N4475 1.350 . S
C4478 C4477 1.434 . S
C4479 C4480 1.369 . S
C4479 C4481 1.419 . S
C4479 H4483 0.930 . S
C4480 C4479 1.369 . S
C4480 C4489 1.429 . S
C4481 C4479 1.419 . S
C4481 C4482 1.363 . S
C4481 H4484 0.929 . S
C4482 C4481 1.363 . S
C4482 C4488 1.428 . S
H4483 C4479 0.930 . S
H4484 C4481 0.929 . S
S4485 N4486 1.613 . S
S4485 N4487 1.610 . S
N4486 S4485 1.613 . S
N4486 C4489 1.350 . S
N4487 S4485 1.610 . S
N4487 C4488 1.351 . S
C4488 C4482 1.428 . S
C4488 N4487 1.351 . S
C4488 C4489 1.434 . S
C4489 C4480 1.429 . S
C4489 N4486 1.350 . S
C4489 C4488 1.434 . S
C4490 C4491 1.369 . S
C4490 C4492 1.419 . S
C4490 H4494 0.930 . S
C4491 C4490 1.369 . S
C4491 C4500 1.429 . S
C4492 C4490 1.419 . S
C4492 C4493 1.363 . S
C4492 H4495 0.929 . S
C4493 C4492 1.363 . S
C4493 C4499 1.428 . S
H4494 C4490 0.930 . S
H4495 C4492 0.929 . S
S4496 N4497 1.613 . S
S4496 N4498 1.610 . S
N4497 S4496 1.613 . S
N4497 C4500 1.350 . S
N4498 S4496 1.610 . S
N4498 C4499 1.351 . S
C4499 C4493 1.428 . S
C4499 N4498 1.351 . S
C4499 C4500 1.434 . S
C4500 C4491 1.429 . S
C4500 N4497 1.350 . S
C4500 C4499 1.434 . S
C4501 C4502 1.369 . S
C4501 C4503 1.419 . S
C4501 H4505 0.930 . S
C4502 C4501 1.369 . S
C4502 C4511 1.429 . S
C4503 C4501 1.419 . S
C4503 C4504 1.363 . S
C4503 H4506 0.929 . S
C4504 C4503 1.363 . S
C4504 C4510 1.428 . S
H4505 C4501 0.930 . S
H4506 C4503 0.929 . S
S4507 N4508 1.613 . S
S4507 N4509 1.610 . S
N4508 S4507 1.613 . S
N4508 C4511 1.350 . S
N4509 S4507 1.610 . S
N4509 C4510 1.351 . S
C4510 C4504 1.428 . S
C4510 N4509 1.351 . S
C4510 C4511 1.434 . S
C4511 C4502 1.429 . S
C4511 N4508 1.350 . S
C4511 C4510 1.434 . S
C4512 C4513 1.369 . S
C4512 C4514 1.419 . S
C4512 H4516 0.930 . S
C4513 C4512 1.369 . S
C4513 C4522 1.429 . S
C4514 C4512 1.419 . S
C4514 C4515 1.363 . S
C4514 H4517 0.929 . S
C4515 C4514 1.363 . S
C4515 C4521 1.428 . S
H4516 C4512 0.930 . S
H4517 C4514 0.929 . S
S4518 N4519 1.613 . S
S4518 N4520 1.610 . S
N4519 S4518 1.613 . S
N4519 C4522 1.350 . S
N4520 S4518 1.610 . S
N4520 C4521 1.351 . S
C4521 C4515 1.428 . S
C4521 N4520 1.351 . S
C4521 C4522 1.434 . S
C4522 C4513 1.429 . S
C4522 N4519 1.350 . S
C4522 C4521 1.434 . S
C4523 C4524 1.369 . S
C4523 C4525 1.419 . S
C4523 H4527 0.930 . S
C4524 C4523 1.369 . S
C4524 C4533 1.429 . S
C4525 C4523 1.419 . S
C4525 C4526 1.363 . S
C4525 H4528 0.929 . S
C4526 C4525 1.363 . S
C4526 C4532 1.428 . S
H4527 C4523 0.930 . S
H4528 C4525 0.929 . S
S4529 N4530 1.613 . S
S4529 N4531 1.610 . S
N4530 S4529 1.613 . S
N4530 C4533 1.350 . S
N4531 S4529 1.610 . S
N4531 C4532 1.351 . S
C4532 C4526 1.428 . S
C4532 N4531 1.351 . S
C4532 C4533 1.434 . S
C4533 C4524 1.429 . S
C4533 N4530 1.350 . S
C4533 C4532 1.434 . S
C4534 C4535 1.369 . S
C4534 C4536 1.419 . S
C4534 H4538 0.930 . S
C4535 C4534 1.369 . S
C4535 C4544 1.429 . S
C4536 C4534 1.419 . S
C4536 C4537 1.363 . S
C4536 H4539 0.929 . S
C4537 C4536 1.363 . S
C4537 C4543 1.428 . S
H4538 C4534 0.930 . S
H4539 C4536 0.929 . S
S4540 N4541 1.613 . S
S4540 N4542 1.610 . S
N4541 S4540 1.613 . S
N4541 C4544 1.350 . S
N4542 S4540 1.610 . S
N4542 C4543 1.351 . S
C4543 C4537 1.428 . S
C4543 N4542 1.351 . S
C4543 C4544 1.434 . S
C4544 C4535 1.429 . S
C4544 N4541 1.350 . S
C4544 C4543 1.434 . S
C4545 C4546 1.369 . S
C4545 C4547 1.419 . S
C4545 H4549 0.930 . S
C4546 C4545 1.369 . S
C4546 C4555 1.429 . S
C4547 C4545 1.419 . S
C4547 C4548 1.363 . S
C4547 H4550 0.929 . S
C4548 C4547 1.363 . S
C4548 C4554 1.428 . S
H4549 C4545 0.930 . S
H4550 C4547 0.929 . S
S4551 N4552 1.613 . S
S4551 N4553 1.610 . S
N4552 S4551 1.613 . S
N4552 C4555 1.350 . S
N4553 S4551 1.610 . S
N4553 C4554 1.351 . S
C4554 C4548 1.428 . S
C4554 N4553 1.351 . S
C4554 C4555 1.434 . S
C4555 C4546 1.429 . S
C4555 N4552 1.350 . S
C4555 C4554 1.434 . S
C4556 C4557 1.369 . S
C4556 C4558 1.419 . S
C4556 H4560 0.930 . S
C4557 C4556 1.369 . S
C4557 C4566 1.429 . S
C4558 C4556 1.419 . S
C4558 C4559 1.363 . S
C4558 H4561 0.929 . S
C4559 C4558 1.363 . S
C4559 C4565 1.428 . S
H4560 C4556 0.930 . S
H4561 C4558 0.929 . S
S4562 N4563 1.613 . S
S4562 N4564 1.610 . S
N4563 S4562 1.613 . S
N4563 C4566 1.350 . S
N4564 S4562 1.610 . S
N4564 C4565 1.351 . S
C4565 C4559 1.428 . S
C4565 N4564 1.351 . S
C4565 C4566 1.434 . S
C4566 C4557 1.429 . S
C4566 N4563 1.350 . S
C4566 C4565 1.434 . S
C4567 C4568 1.369 . S
C4567 C4569 1.419 . S
C4567 H4571 0.930 . S
C4568 C4567 1.369 . S
C4568 C4577 1.429 . S
C4569 C4567 1.419 . S
C4569 C4570 1.363 . S
C4569 H4572 0.929 . S
C4570 C4569 1.363 . S
C4570 C4576 1.428 . S
H4571 C4567 0.930 . S
H4572 C4569 0.929 . S
S4573 N4574 1.613 . S
S4573 N4575 1.610 . S
N4574 S4573 1.613 . S
N4574 C4577 1.350 . S
N4575 S4573 1.610 . S
N4575 C4576 1.351 . S
C4576 C4570 1.428 . S
C4576 N4575 1.351 . S
C4576 C4577 1.434 . S
C4577 C4568 1.429 . S
C4577 N4574 1.350 . S
C4577 C4576 1.434 . S
C4578 C4579 1.369 . S
C4578 C4580 1.419 . S
C4578 H4582 0.930 . S
C4579 C4578 1.369 . S
C4579 C4588 1.429 . S
C4580 C4578 1.419 . S
C4580 C4581 1.363 . S
C4580 H4583 0.929 . S
C4581 C4580 1.363 . S
C4581 C4587 1.428 . S
H4582 C4578 0.930 . S
H4583 C4580 0.929 . S
S4584 N4585 1.613 . S
S4584 N4586 1.610 . S
N4585 S4584 1.613 . S
N4585 C4588 1.350 . S
N4586 S4584 1.610 . S
N4586 C4587 1.351 . S
C4587 C4581 1.428 . S
C4587 N4586 1.351 . S
C4587 C4588 1.434 . S
C4588 C4579 1.429 . S
C4588 N4585 1.350 . S
C4588 C4587 1.434 . S
C4589 C4590 1.369 . S
C4589 C4591 1.419 . S
C4589 H4593 0.930 . S
C4590 C4589 1.369 . S
C4590 C4599 1.429 . S
C4591 C4589 1.419 . S
C4591 C4592 1.363 . S
C4591 H4594 0.929 . S
C4592 C4591 1.363 . S
C4592 C4598 1.428 . S
H4593 C4589 0.930 . S
H4594 C4591 0.929 . S
S4595 N4596 1.613 . S
S4595 N4597 1.610 . S
N4596 S4595 1.613 . S
N4596 C4599 1.350 . S
N4597 S4595 1.610 . S
N4597 C4598 1.351 . S
C4598 C4592 1.428 . S
C4598 N4597 1.351 . S
C4598 C4599 1.434 . S
C4599 C4590 1.429 . S
C4599 N4596 1.350 . S
C4599 C4598 1.434 . S
C4600 C4601 1.369 . S
C4600 C4602 1.419 . S
C4600 H4604 0.930 . S
C4601 C4600 1.369 . S
C4601 C4610 1.429 . S
C4602 C4600 1.419 . S
C4602 C4603 1.363 . S
C4602 H4605 0.929 . S
C4603 C4602 1.363 . S
C4603 C4609 1.428 . S
H4604 C4600 0.930 . S
H4605 C4602 0.929 . S
S4606 N4607 1.613 . S
S4606 N4608 1.610 . S
N4607 S4606 1.613 . S
N4607 C4610 1.350 . S
N4608 S4606 1.610 . S
N4608 C4609 1.351 . S
C4609 C4603 1.428 . S
C4609 N4608 1.351 . S
C4609 C4610 1.434 . S
C4610 C4601 1.429 . S
C4610 N4607 1.350 . S
C4610 C4609 1.434 . S
C4611 C4612 1.369 . S
C4611 C4613 1.419 . S
C4611 H4615 0.930 . S
C4612 C4611 1.369 . S
C4612 C4621 1.429 . S
C4613 C4611 1.419 . S
C4613 C4614 1.363 . S
C4613 H4616 0.929 . S
C4614 C4613 1.363 . S
C4614 C4620 1.428 . S
H4615 C4611 0.930 . S
H4616 C4613 0.929 . S
S4617 N4618 1.613 . S
S4617 N4619 1.610 . S
N4618 S4617 1.613 . S
N4618 C4621 1.350 . S
N4619 S4617 1.610 . S
N4619 C4620 1.351 . S
C4620 C4614 1.428 . S
C4620 N4619 1.351 . S
C4620 C4621 1.434 . S
C4621 C4612 1.429 . S
C4621 N4618 1.350 . S
C4621 C4620 1.434 . S
C4622 C4623 1.369 . S
C4622 C4624 1.419 . S
C4622 H4626 0.930 . S
C4623 C4622 1.369 . S
C4623 C4632 1.429 . S
C4624 C4622 1.419 . S
C4624 C4625 1.363 . S
C4624 H4627 0.929 . S
C4625 C4624 1.363 . S
C4625 C4631 1.428 . S
H4626 C4622 0.930 . S
H4627 C4624 0.929 . S
S4628 N4629 1.613 . S
S4628 N4630 1.610 . S
N4629 S4628 1.613 . S
N4629 C4632 1.350 . S
N4630 S4628 1.610 . S
N4630 C4631 1.351 . S
C4631 C4625 1.428 . S
C4631 N4630 1.351 . S
C4631 C4632 1.434 . S
C4632 C4623 1.429 . S
C4632 N4629 1.350 . S
C4632 C4631 1.434 . S
C4633 C4634 1.369 . S
C4633 C4635 1.419 . S
C4633 H4637 0.930 . S
C4634 C4633 1.369 . S
C4634 C4643 1.429 . S
C4635 C4633 1.419 . S
C4635 C4636 1.363 . S
C4635 H4638 0.929 . S
C4636 C4635 1.363 . S
C4636 C4642 1.428 . S
H4637 C4633 0.930 . S
H4638 C4635 0.929 . S
S4639 N4640 1.613 . S
S4639 N4641 1.610 . S
N4640 S4639 1.613 . S
N4640 C4643 1.350 . S
N4641 S4639 1.610 . S
N4641 C4642 1.351 . S
C4642 C4636 1.428 . S
C4642 N4641 1.351 . S
C4642 C4643 1.434 . S
C4643 C4634 1.429 . S
C4643 N4640 1.350 . S
C4643 C4642 1.434 . S
C4644 C4645 1.369 . S
C4644 C4646 1.419 . S
C4644 H4648 0.930 . S
C4645 C4644 1.369 . S
C4645 C4654 1.429 . S
C4646 C4644 1.419 . S
C4646 C4647 1.363 . S
C4646 H4649 0.929 . S
C4647 C4646 1.363 . S
C4647 C4653 1.428 . S
H4648 C4644 0.930 . S
H4649 C4646 0.929 . S
S4650 N4651 1.613 . S
S4650 N4652 1.610 . S
N4651 S4650 1.613 . S
N4651 C4654 1.350 . S
N4652 S4650 1.610 . S
N4652 C4653 1.351 . S
C4653 C4647 1.428 . S
C4653 N4652 1.351 . S
C4653 C4654 1.434 . S
C4654 C4645 1.429 . S
C4654 N4651 1.350 . S
C4654 C4653 1.434 . S
C4655 C4656 1.369 . S
C4655 C4657 1.419 . S
C4655 H4659 0.930 . S
C4656 C4655 1.369 . S
C4656 C4665 1.429 . S
C4657 C4655 1.419 . S
C4657 C4658 1.363 . S
C4657 H4660 0.929 . S
C4658 C4657 1.363 . S
C4658 C4664 1.428 . S
H4659 C4655 0.930 . S
H4660 C4657 0.929 . S
S4661 N4662 1.613 . S
S4661 N4663 1.610 . S
N4662 S4661 1.613 . S
N4662 C4665 1.350 . S
N4663 S4661 1.610 . S
N4663 C4664 1.351 . S
C4664 C4658 1.428 . S
C4664 N4663 1.351 . S
C4664 C4665 1.434 . S
C4665 C4656 1.429 . S
C4665 N4662 1.350 . S
C4665 C4664 1.434 . S
C4666 C4667 1.369 . S
C4666 C4668 1.419 . S
C4666 H4670 0.930 . S
C4667 C4666 1.369 . S
C4667 C4676 1.429 . S
C4668 C4666 1.419 . S
C4668 C4669 1.363 . S
C4668 H4671 0.929 . S
C4669 C4668 1.363 . S
C4669 C4675 1.428 . S
H4670 C4666 0.930 . S
H4671 C4668 0.929 . S
S4672 N4673 1.613 . S
S4672 N4674 1.610 . S
N4673 S4672 1.613 . S
N4673 C4676 1.350 . S
N4674 S4672 1.610 . S
N4674 C4675 1.351 . S
C4675 C4669 1.428 . S
C4675 N4674 1.351 . S
C4675 C4676 1.434 . S
C4676 C4667 1.429 . S
C4676 N4673 1.350 . S
C4676 C4675 1.434 . S
C4677 C4678 1.369 . S
C4677 C4679 1.419 . S
C4677 H4681 0.930 . S
C4678 C4677 1.369 . S
C4678 C4687 1.429 . S
C4679 C4677 1.419 . S
C4679 C4680 1.363 . S
C4679 H4682 0.929 . S
C4680 C4679 1.363 . S
C4680 C4686 1.428 . S
H4681 C4677 0.930 . S
H4682 C4679 0.929 . S
S4683 N4684 1.613 . S
S4683 N4685 1.610 . S
N4684 S4683 1.613 . S
N4684 C4687 1.350 . S
N4685 S4683 1.610 . S
N4685 C4686 1.351 . S
C4686 C4680 1.428 . S
C4686 N4685 1.351 . S
C4686 C4687 1.434 . S
C4687 C4678 1.429 . S
C4687 N4684 1.350 . S
C4687 C4686 1.434 . S
C4688 C4689 1.369 . S
C4688 C4690 1.419 . S
C4688 H4692 0.930 . S
C4689 C4688 1.369 . S
C4689 C4698 1.429 . S
C4690 C4688 1.419 . S
C4690 C4691 1.363 . S
C4690 H4693 0.929 . S
C4691 C4690 1.363 . S
C4691 C4697 1.428 . S
H4692 C4688 0.930 . S
H4693 C4690 0.929 . S
S4694 N4695 1.613 . S
S4694 N4696 1.610 . S
N4695 S4694 1.613 . S
N4695 C4698 1.350 . S
N4696 S4694 1.610 . S
N4696 C4697 1.351 . S
C4697 C4691 1.428 . S
C4697 N4696 1.351 . S
C4697 C4698 1.434 . S
C4698 C4689 1.429 . S
C4698 N4695 1.350 . S
C4698 C4697 1.434 . S
C4699 C4700 1.369 . S
C4699 C4701 1.419 . S
C4699 H4703 0.930 . S
C4700 C4699 1.369 . S
C4700 C4709 1.429 . S
C4701 C4699 1.419 . S
C4701 C4702 1.363 . S
C4701 H4704 0.929 . S
C4702 C4701 1.363 . S
C4702 C4708 1.428 . S
H4703 C4699 0.930 . S
H4704 C4701 0.929 . S
S4705 N4706 1.613 . S
S4705 N4707 1.610 . S
N4706 S4705 1.613 . S
N4706 C4709 1.350 . S
N4707 S4705 1.610 . S
N4707 C4708 1.351 . S
C4708 C4702 1.428 . S
C4708 N4707 1.351 . S
C4708 C4709 1.434 . S
C4709 C4700 1.429 . S
C4709 N4706 1.350 . S
C4709 C4708 1.434 . S
C4710 C4711 1.369 . S
C4710 C4712 1.419 . S
C4710 H4714 0.930 . S
C4711 C4710 1.369 . S
C4711 C4720 1.429 . S
C4712 C4710 1.419 . S
C4712 C4713 1.363 . S
C4712 H4715 0.929 . S
C4713 C4712 1.363 . S
C4713 C4719 1.428 . S
H4714 C4710 0.930 . S
H4715 C4712 0.929 . S
S4716 N4717 1.613 . S
S4716 N4718 1.610 . S
N4717 S4716 1.613 . S
N4717 C4720 1.350 . S
N4718 S4716 1.610 . S
N4718 C4719 1.351 . S
C4719 C4713 1.428 . S
C4719 N4718 1.351 . S
C4719 C4720 1.434 . S
C4720 C4711 1.429 . S
C4720 N4717 1.350 . S
C4720 C4719 1.434 . S
C4721 C4722 1.369 . S
C4721 C4723 1.419 . S
C4721 H4725 0.930 . S
C4722 C4721 1.369 . S
C4722 C4731 1.429 . S
C4723 C4721 1.419 . S
C4723 C4724 1.363 . S
C4723 H4726 0.929 . S
C4724 C4723 1.363 . S
C4724 C4730 1.428 . S
H4725 C4721 0.930 . S
H4726 C4723 0.929 . S
S4727 N4728 1.613 . S
S4727 N4729 1.610 . S
N4728 S4727 1.613 . S
N4728 C4731 1.350 . S
N4729 S4727 1.610 . S
N4729 C4730 1.351 . S
C4730 C4724 1.428 . S
C4730 N4729 1.351 . S
C4730 C4731 1.434 . S
C4731 C4722 1.429 . S
C4731 N4728 1.350 . S
C4731 C4730 1.434 . S
C4732 C4733 1.369 . S
C4732 C4734 1.419 . S
C4732 H4736 0.930 . S
C4733 C4732 1.369 . S
C4733 C4742 1.429 . S
C4734 C4732 1.419 . S
C4734 C4735 1.363 . S
C4734 H4737 0.929 . S
C4735 C4734 1.363 . S
C4735 C4741 1.428 . S
H4736 C4732 0.930 . S
H4737 C4734 0.929 . S
S4738 N4739 1.613 . S
S4738 N4740 1.610 . S
N4739 S4738 1.613 . S
N4739 C4742 1.350 . S
N4740 S4738 1.610 . S
N4740 C4741 1.351 . S
C4741 C4735 1.428 . S
C4741 N4740 1.351 . S
C4741 C4742 1.434 . S
C4742 C4733 1.429 . S
C4742 N4739 1.350 . S
C4742 C4741 1.434 . S
C4743 C4744 1.369 . S
C4743 C4745 1.419 . S
C4743 H4747 0.930 . S
C4744 C4743 1.369 . S
C4744 C4753 1.429 . S
C4745 C4743 1.419 . S
C4745 C4746 1.363 . S
C4745 H4748 0.929 . S
C4746 C4745 1.363 . S
C4746 C4752 1.428 . S
H4747 C4743 0.930 . S
H4748 C4745 0.929 . S
S4749 N4750 1.613 . S
S4749 N4751 1.610 . S
N4750 S4749 1.613 . S
N4750 C4753 1.350 . S
N4751 S4749 1.610 . S
N4751 C4752 1.351 . S
C4752 C4746 1.428 . S
C4752 N4751 1.351 . S
C4752 C4753 1.434 . S
C4753 C4744 1.429 . S
C4753 N4750 1.350 . S
C4753 C4752 1.434 . S
C4754 C4755 1.369 . S
C4754 C4756 1.419 . S
C4754 H4758 0.930 . S
C4755 C4754 1.369 . S
C4755 C4764 1.429 . S
C4756 C4754 1.419 . S
C4756 C4757 1.363 . S
C4756 H4759 0.929 . S
C4757 C4756 1.363 . S
C4757 C4763 1.428 . S
H4758 C4754 0.930 . S
H4759 C4756 0.929 . S
S4760 N4761 1.613 . S
S4760 N4762 1.610 . S
N4761 S4760 1.613 . S
N4761 C4764 1.350 . S
N4762 S4760 1.610 . S
N4762 C4763 1.351 . S
C4763 C4757 1.428 . S
C4763 N4762 1.351 . S
C4763 C4764 1.434 . S
C4764 C4755 1.429 . S
C4764 N4761 1.350 . S
C4764 C4763 1.434 . S
C4765 C4766 1.369 . S
C4765 C4767 1.419 . S
C4765 H4769 0.930 . S
C4766 C4765 1.369 . S
C4766 C4775 1.429 . S
C4767 C4765 1.419 . S
C4767 C4768 1.363 . S
C4767 H4770 0.929 . S
C4768 C4767 1.363 . S
C4768 C4774 1.428 . S
H4769 C4765 0.930 . S
H4770 C4767 0.929 . S
S4771 N4772 1.613 . S
S4771 N4773 1.610 . S
N4772 S4771 1.613 . S
N4772 C4775 1.350 . S
N4773 S4771 1.610 . S
N4773 C4774 1.351 . S
C4774 C4768 1.428 . S
C4774 N4773 1.351 . S
C4774 C4775 1.434 . S
C4775 C4766 1.429 . S
C4775 N4772 1.350 . S
C4775 C4774 1.434 . S
C4776 C4777 1.369 . S
C4776 C4778 1.419 . S
C4776 H4780 0.930 . S
C4777 C4776 1.369 . S
C4777 C4786 1.429 . S
C4778 C4776 1.419 . S
C4778 C4779 1.363 . S
C4778 H4781 0.929 . S
C4779 C4778 1.363 . S
C4779 C4785 1.428 . S
H4780 C4776 0.930 . S
H4781 C4778 0.929 . S
S4782 N4783 1.613 . S
S4782 N4784 1.610 . S
N4783 S4782 1.613 . S
N4783 C4786 1.350 . S
N4784 S4782 1.610 . S
N4784 C4785 1.351 . S
C4785 C4779 1.428 . S
C4785 N4784 1.351 . S
C4785 C4786 1.434 . S
C4786 C4777 1.429 . S
C4786 N4783 1.350 . S
C4786 C4785 1.434 . S
C4787 C4788 1.369 . S
C4787 C4789 1.419 . S
C4787 H4791 0.930 . S
C4788 C4787 1.369 . S
C4788 C4797 1.429 . S
C4789 C4787 1.419 . S
C4789 C4790 1.363 . S
C4789 H4792 0.929 . S
C4790 C4789 1.363 . S
C4790 C4796 1.428 . S
H4791 C4787 0.930 . S
H4792 C4789 0.929 . S
S4793 N4794 1.613 . S
S4793 N4795 1.610 . S
N4794 S4793 1.613 . S
N4794 C4797 1.350 . S
N4795 S4793 1.610 . S
N4795 C4796 1.351 . S
C4796 C4790 1.428 . S
C4796 N4795 1.351 . S
C4796 C4797 1.434 . S
C4797 C4788 1.429 . S
C4797 N4794 1.350 . S
C4797 C4796 1.434 . S
C4798 C4799 1.369 . S
C4798 C4800 1.419 . S
C4798 H4802 0.930 . S
C4799 C4798 1.369 . S
C4799 C4808 1.429 . S
C4800 C4798 1.419 . S
C4800 C4801 1.363 . S
C4800 H4803 0.929 . S
C4801 C4800 1.363 . S
C4801 C4807 1.428 . S
H4802 C4798 0.930 . S
H4803 C4800 0.929 . S
S4804 N4805 1.613 . S
S4804 N4806 1.610 . S
N4805 S4804 1.613 . S
N4805 C4808 1.350 . S
N4806 S4804 1.610 . S
N4806 C4807 1.351 . S
C4807 C4801 1.428 . S
C4807 N4806 1.351 . S
C4807 C4808 1.434 . S
C4808 C4799 1.429 . S
C4808 N4805 1.350 . S
C4808 C4807 1.434 . S
C4809 C4810 1.369 . S
C4809 C4811 1.419 . S
C4809 H4813 0.930 . S
C4810 C4809 1.369 . S
C4810 C4819 1.429 . S
C4811 C4809 1.419 . S
C4811 C4812 1.363 . S
C4811 H4814 0.929 . S
C4812 C4811 1.363 . S
C4812 C4818 1.428 . S
H4813 C4809 0.930 . S
H4814 C4811 0.929 . S
S4815 N4816 1.613 . S
S4815 N4817 1.610 . S
N4816 S4815 1.613 . S
N4816 C4819 1.350 . S
N4817 S4815 1.610 . S
N4817 C4818 1.351 . S
C4818 C4812 1.428 . S
C4818 N4817 1.351 . S
C4818 C4819 1.434 . S
C4819 C4810 1.429 . S
C4819 N4816 1.350 . S
C4819 C4818 1.434 . S
C4820 C4821 1.369 . S
C4820 C4822 1.419 . S
C4820 H4824 0.930 . S
C4821 C4820 1.369 . S
C4821 C4830 1.429 . S
C4822 C4820 1.419 . S
C4822 C4823 1.363 . S
C4822 H4825 0.929 . S
C4823 C4822 1.363 . S
C4823 C4829 1.428 . S
H4824 C4820 0.930 . S
H4825 C4822 0.929 . S
S4826 N4827 1.613 . S
S4826 N4828 1.610 . S
N4827 S4826 1.613 . S
N4827 C4830 1.350 . S
N4828 S4826 1.610 . S
N4828 C4829 1.351 . S
C4829 C4823 1.428 . S
C4829 N4828 1.351 . S
C4829 C4830 1.434 . S
C4830 C4821 1.429 . S
C4830 N4827 1.350 . S
C4830 C4829 1.434 . S
C4831 C4832 1.369 . S
C4831 C4833 1.419 . S
C4831 H4835 0.930 . S
C4832 C4831 1.369 . S
C4832 C4841 1.429 . S
C4833 C4831 1.419 . S
C4833 C4834 1.363 . S
C4833 H4836 0.929 . S
C4834 C4833 1.363 . S
C4834 C4840 1.428 . S
H4835 C4831 0.930 . S
H4836 C4833 0.929 . S
S4837 N4838 1.613 . S
S4837 N4839 1.610 . S
N4838 S4837 1.613 . S
N4838 C4841 1.350 . S
N4839 S4837 1.610 . S
N4839 C4840 1.351 . S
C4840 C4834 1.428 . S
C4840 N4839 1.351 . S
C4840 C4841 1.434 . S
C4841 C4832 1.429 . S
C4841 N4838 1.350 . S
C4841 C4840 1.434 . S
C4842 C4843 1.369 . S
C4842 C4844 1.419 . S
C4842 H4846 0.930 . S
C4843 C4842 1.369 . S
C4843 C4852 1.429 . S
C4844 C4842 1.419 . S
C4844 C4845 1.363 . S
C4844 H4847 0.929 . S
C4845 C4844 1.363 . S
C4845 C4851 1.428 . S
H4846 C4842 0.930 . S
H4847 C4844 0.929 . S
S4848 N4849 1.613 . S
S4848 N4850 1.610 . S
N4849 S4848 1.613 . S
N4849 C4852 1.350 . S
N4850 S4848 1.610 . S
N4850 C4851 1.351 . S
C4851 C4845 1.428 . S
C4851 N4850 1.351 . S
C4851 C4852 1.434 . S
C4852 C4843 1.429 . S
C4852 N4849 1.350 . S
C4852 C4851 1.434 . S
C4853 C4854 1.369 . S
C4853 C4855 1.419 . S
C4853 H4857 0.930 . S
C4854 C4853 1.369 . S
C4854 C4863 1.429 . S
C4855 C4853 1.419 . S
C4855 C4856 1.363 . S
C4855 H4858 0.929 . S
C4856 C4855 1.363 . S
C4856 C4862 1.428 . S
H4857 C4853 0.930 . S
H4858 C4855 0.929 . S
S4859 N4860 1.613 . S
S4859 N4861 1.610 . S
N4860 S4859 1.613 . S
N4860 C4863 1.350 . S
N4861 S4859 1.610 . S
N4861 C4862 1.351 . S
C4862 C4856 1.428 . S
C4862 N4861 1.351 . S
C4862 C4863 1.434 . S
C4863 C4854 1.429 . S
C4863 N4860 1.350 . S
C4863 C4862 1.434 . S
C4864 C4865 1.369 . S
C4864 C4866 1.419 . S
C4864 H4868 0.930 . S
C4865 C4864 1.369 . S
C4865 C4874 1.429 . S
C4866 C4864 1.419 . S
C4866 C4867 1.363 . S
C4866 H4869 0.929 . S
C4867 C4866 1.363 . S
C4867 C4873 1.428 . S
H4868 C4864 0.930 . S
H4869 C4866 0.929 . S
S4870 N4871 1.613 . S
S4870 N4872 1.610 . S
N4871 S4870 1.613 . S
N4871 C4874 1.350 . S
N4872 S4870 1.610 . S
N4872 C4873 1.351 . S
C4873 C4867 1.428 . S
C4873 N4872 1.351 . S
C4873 C4874 1.434 . S
C4874 C4865 1.429 . S
C4874 N4871 1.350 . S
C4874 C4873 1.434 . S
C4875 C4876 1.369 . S
C4875 C4877 1.419 . S
C4875 H4879 0.930 . S
C4876 C4875 1.369 . S
C4876 C4885 1.429 . S
C4877 C4875 1.419 . S
C4877 C4878 1.363 . S
C4877 H4880 0.929 . S
C4878 C4877 1.363 . S
C4878 C4884 1.428 . S
H4879 C4875 0.930 . S
H4880 C4877 0.929 . S
S4881 N4882 1.613 . S
S4881 N4883 1.610 . S
N4882 S4881 1.613 . S
N4882 C4885 1.350 . S
N4883 S4881 1.610 . S
N4883 C4884 1.351 . S
C4884 C4878 1.428 . S
C4884 N4883 1.351 . S
C4884 C4885 1.434 . S
C4885 C4876 1.429 . S
C4885 N4882 1.350 . S
C4885 C4884 1.434 . S
C4886 C4887 1.369 . S
C4886 C4888 1.419 . S
C4886 H4890 0.930 . S
C4887 C4886 1.369 . S
C4887 C4896 1.429 . S
C4888 C4886 1.419 . S
C4888 C4889 1.363 . S
C4888 H4891 0.929 . S
C4889 C4888 1.363 . S
C4889 C4895 1.428 . S
H4890 C4886 0.930 . S
H4891 C4888 0.929 . S
S4892 N4893 1.613 . S
S4892 N4894 1.610 . S
N4893 S4892 1.613 . S
N4893 C4896 1.350 . S
N4894 S4892 1.610 . S
N4894 C4895 1.351 . S
C4895 C4889 1.428 . S
C4895 N4894 1.351 . S
C4895 C4896 1.434 . S
C4896 C4887 1.429 . S
C4896 N4893 1.350 . S
C4896 C4895 1.434 . S
C4897 C4898 1.369 . S
C4897 C4899 1.419 . S
C4897 H4901 0.930 . S
C4898 C4897 1.369 . S
C4898 C4907 1.429 . S
C4899 C4897 1.419 . S
C4899 C4900 1.363 . S
C4899 H4902 0.929 . S
C4900 C4899 1.363 . S
C4900 C4906 1.428 . S
H4901 C4897 0.930 . S
H4902 C4899 0.929 . S
S4903 N4904 1.613 . S
S4903 N4905 1.610 . S
N4904 S4903 1.613 . S
N4904 C4907 1.350 . S
N4905 S4903 1.610 . S
N4905 C4906 1.351 . S
C4906 C4900 1.428 . S
C4906 N4905 1.351 . S
C4906 C4907 1.434 . S
C4907 C4898 1.429 . S
C4907 N4904 1.350 . S
C4907 C4906 1.434 . S
C4908 C4909 1.369 . S
C4908 C4910 1.419 . S
C4908 H4912 0.930 . S
C4909 C4908 1.369 . S
C4909 C4918 1.429 . S
C4910 C4908 1.419 . S
C4910 C4911 1.363 . S
C4910 H4913 0.929 . S
C4911 C4910 1.363 . S
C4911 C4917 1.428 . S
H4912 C4908 0.930 . S
H4913 C4910 0.929 . S
S4914 N4915 1.613 . S
S4914 N4916 1.610 . S
N4915 S4914 1.613 . S
N4915 C4918 1.350 . S
N4916 S4914 1.610 . S
N4916 C4917 1.351 . S
C4917 C4911 1.428 . S
C4917 N4916 1.351 . S
C4917 C4918 1.434 . S
C4918 C4909 1.429 . S
C4918 N4915 1.350 . S
C4918 C4917 1.434 . S
C4919 C4920 1.369 . S
C4919 C4921 1.419 . S
C4919 H4923 0.930 . S
C4920 C4919 1.369 . S
C4920 C4929 1.429 . S
C4921 C4919 1.419 . S
C4921 C4922 1.363 . S
C4921 H4924 0.929 . S
C4922 C4921 1.363 . S
C4922 C4928 1.428 . S
H4923 C4919 0.930 . S
H4924 C4921 0.929 . S
S4925 N4926 1.613 . S
S4925 N4927 1.610 . S
N4926 S4925 1.613 . S
N4926 C4929 1.350 . S
N4927 S4925 1.610 . S
N4927 C4928 1.351 . S
C4928 C4922 1.428 . S
C4928 N4927 1.351 . S
C4928 C4929 1.434 . S
C4929 C4920 1.429 . S
C4929 N4926 1.350 . S
C4929 C4928 1.434 . S
C4930 C4931 1.369 . S
C4930 C4932 1.419 . S
C4930 H4934 0.930 . S
C4931 C4930 1.369 . S
C4931 C4940 1.429 . S
C4932 C4930 1.419 . S
C4932 C4933 1.363 . S
C4932 H4935 0.929 . S
C4933 C4932 1.363 . S
C4933 C4939 1.428 . S
H4934 C4930 0.930 . S
H4935 C4932 0.929 . S
S4936 N4937 1.613 . S
S4936 N4938 1.610 . S
N4937 S4936 1.613 . S
N4937 C4940 1.350 . S
N4938 S4936 1.610 . S
N4938 C4939 1.351 . S
C4939 C4933 1.428 . S
C4939 N4938 1.351 . S
C4939 C4940 1.434 . S
C4940 C4931 1.429 . S
C4940 N4937 1.350 . S
C4940 C4939 1.434 . S
C4941 C4942 1.369 . S
C4941 C4943 1.419 . S
C4941 H4945 0.930 . S
C4942 C4941 1.369 . S
C4942 C4951 1.429 . S
C4943 C4941 1.419 . S
C4943 C4944 1.363 . S
C4943 H4946 0.929 . S
C4944 C4943 1.363 . S
C4944 C4950 1.428 . S
H4945 C4941 0.930 . S
H4946 C4943 0.929 . S
S4947 N4948 1.613 . S
S4947 N4949 1.610 . S
N4948 S4947 1.613 . S
N4948 C4951 1.350 . S
N4949 S4947 1.610 . S
N4949 C4950 1.351 . S
C4950 C4944 1.428 . S
C4950 N4949 1.351 . S
C4950 C4951 1.434 . S
C4951 C4942 1.429 . S
C4951 N4948 1.350 . S
C4951 C4950 1.434 . S
C4952 C4953 1.369 . S
C4952 C4954 1.419 . S
C4952 H4956 0.930 . S
C4953 C4952 1.369 . S
C4953 C4962 1.429 . S
C4954 C4952 1.419 . S
C4954 C4955 1.363 . S
C4954 H4957 0.929 . S
C4955 C4954 1.363 . S
C4955 C4961 1.428 . S
H4956 C4952 0.930 . S
H4957 C4954 0.929 . S
S4958 N4959 1.613 . S
S4958 N4960 1.610 . S
N4959 S4958 1.613 . S
N4959 C4962 1.350 . S
N4960 S4958 1.610 . S
N4960 C4961 1.351 . S
C4961 C4955 1.428 . S
C4961 N4960 1.351 . S
C4961 C4962 1.434 . S
C4962 C4953 1.429 . S
C4962 N4959 1.350 . S
C4962 C4961 1.434 . S
C4963 C4964 1.369 . S
C4963 C4965 1.419 . S
C4963 H4967 0.930 . S
C4964 C4963 1.369 . S
C4964 C4973 1.429 . S
C4965 C4963 1.419 . S
C4965 C4966 1.363 . S
C4965 H4968 0.929 . S
C4966 C4965 1.363 . S
C4966 C4972 1.428 . S
H4967 C4963 0.930 . S
H4968 C4965 0.929 . S
S4969 N4970 1.613 . S
S4969 N4971 1.610 . S
N4970 S4969 1.613 . S
N4970 C4973 1.350 . S
N4971 S4969 1.610 . S
N4971 C4972 1.351 . S
C4972 C4966 1.428 . S
C4972 N4971 1.351 . S
C4972 C4973 1.434 . S
C4973 C4964 1.429 . S
C4973 N4970 1.350 . S
C4973 C4972 1.434 . S
C4974 C4975 1.369 . S
C4974 C4976 1.419 . S
C4974 H4978 0.930 . S
C4975 C4974 1.369 . S
C4975 C4984 1.429 . S
C4976 C4974 1.419 . S
C4976 C4977 1.363 . S
C4976 H4979 0.929 . S
C4977 C4976 1.363 . S
C4977 C4983 1.428 . S
H4978 C4974 0.930 . S
H4979 C4976 0.929 . S
S4980 N4981 1.613 . S
S4980 N4982 1.610 . S
N4981 S4980 1.613 . S
N4981 C4984 1.350 . S
N4982 S4980 1.610 . S
N4982 C4983 1.351 . S
C4983 C4977 1.428 . S
C4983 N4982 1.351 . S
C4983 C4984 1.434 . S
C4984 C4975 1.429 . S
C4984 N4981 1.350 . S
C4984 C4983 1.434 . S
C4985 C4986 1.369 . S
C4985 C4987 1.419 . S
C4985 H4989 0.930 . S
C4986 C4985 1.369 . S
C4986 C4995 1.429 . S
C4987 C4985 1.419 . S
C4987 C4988 1.363 . S
C4987 H4990 0.929 . S
C4988 C4987 1.363 . S
C4988 C4994 1.428 . S
H4989 C4985 0.930 . S
H4990 C4987 0.929 . S
S4991 N4992 1.613 . S
S4991 N4993 1.610 . S
N4992 S4991 1.613 . S
N4992 C4995 1.350 . S
N4993 S4991 1.610 . S
N4993 C4994 1.351 . S
C4994 C4988 1.428 . S
C4994 N4993 1.351 . S
C4994 C4995 1.434 . S
C4995 C4986 1.429 . S
C4995 N4992 1.350 . S
C4995 C4994 1.434 . S
C4996 C4997 1.369 . S
C4996 C4998 1.419 . S
C4996 H5000 0.930 . S
C4997 C4996 1.369 . S
C4997 C5006 1.429 . S
C4998 C4996 1.419 . S
C4998 C4999 1.363 . S
C4998 H5001 0.929 . S
C4999 C4998 1.363 . S
C4999 C5005 1.428 . S
H5000 C4996 0.930 . S
H5001 C4998 0.929 . S
S5002 N5003 1.613 . S
S5002 N5004 1.610 . S
N5003 S5002 1.613 . S
N5003 C5006 1.350 . S
N5004 S5002 1.610 . S
N5004 C5005 1.351 . S
C5005 C4999 1.428 . S
C5005 N5004 1.351 . S
C5005 C5006 1.434 . S
C5006 C4997 1.429 . S
C5006 N5003 1.350 . S
C5006 C5005 1.434 . S
C5007 C5008 1.369 . S
C5007 C5009 1.419 . S
C5007 H5011 0.930 . S
C5008 C5007 1.369 . S
C5008 C5017 1.429 . S
C5009 C5007 1.419 . S
C5009 C5010 1.363 . S
C5009 H5012 0.929 . S
C5010 C5009 1.363 . S
C5010 C5016 1.428 . S
H5011 C5007 0.930 . S
H5012 C5009 0.929 . S
S5013 N5014 1.613 . S
S5013 N5015 1.610 . S
N5014 S5013 1.613 . S
N5014 C5017 1.350 . S
N5015 S5013 1.610 . S
N5015 C5016 1.351 . S
C5016 C5010 1.428 . S
C5016 N5015 1.351 . S
C5016 C5017 1.434 . S
C5017 C5008 1.429 . S
C5017 N5014 1.350 . S
C5017 C5016 1.434 . S
C5018 C5019 1.369 . S
C5018 C5020 1.419 . S
C5018 H5022 0.930 . S
C5019 C5018 1.369 . S
C5019 C5028 1.429 . S
C5020 C5018 1.419 . S
C5020 C5021 1.363 . S
C5020 H5023 0.929 . S
C5021 C5020 1.363 . S
C5021 C5027 1.428 . S
H5022 C5018 0.930 . S
H5023 C5020 0.929 . S
S5024 N5025 1.613 . S
S5024 N5026 1.610 . S
N5025 S5024 1.613 . S
N5025 C5028 1.350 . S
N5026 S5024 1.610 . S
N5026 C5027 1.351 . S
C5027 C5021 1.428 . S
C5027 N5026 1.351 . S
C5027 C5028 1.434 . S
C5028 C5019 1.429 . S
C5028 N5025 1.350 . S
C5028 C5027 1.434 . S
C5029 C5030 1.369 . S
C5029 C5031 1.419 . S
C5029 H5033 0.930 . S
C5030 C5029 1.369 . S
C5030 C5039 1.429 . S
C5031 C5029 1.419 . S
C5031 C5032 1.363 . S
C5031 H5034 0.929 . S
C5032 C5031 1.363 . S
C5032 C5038 1.428 . S
H5033 C5029 0.930 . S
H5034 C5031 0.929 . S
S5035 N5036 1.613 . S
S5035 N5037 1.610 . S
N5036 S5035 1.613 . S
N5036 C5039 1.350 . S
N5037 S5035 1.610 . S
N5037 C5038 1.351 . S
C5038 C5032 1.428 . S
C5038 N5037 1.351 . S
C5038 C5039 1.434 . S
C5039 C5030 1.429 . S
C5039 N5036 1.350 . S
C5039 C5038 1.434 . S
C5040 C5041 1.369 . S
C5040 C5042 1.419 1_655 S
C5040 H5044 0.930 . S
C5041 C5040 1.369 . S
C5041 C5050 1.429 . S
C5042 C5040 1.419 1_455 S
C5042 C5043 1.363 . S
C5042 H5045 0.929 . S
C5043 C5042 1.363 . S
C5043 C5049 1.428 . S
H5044 C5040 0.930 . S
H5045 C5042 0.929 . S
S5046 N5047 1.613 . S
S5046 N5048 1.610 1_655 S
N5047 S5046 1.613 . S
N5047 C5050 1.350 . S
N5048 S5046 1.610 1_455 S
N5048 C5049 1.351 . S
C5049 C5043 1.428 . S
C5049 N5048 1.351 . S
C5049 C5050 1.434 1_455 S
C5050 C5041 1.429 . S
C5050 N5047 1.350 . S
C5050 C5049 1.434 1_655 S
C5051 C5052 1.369 . S
C5051 C5053 1.419 . S
C5051 H5055 0.930 . S
C5052 C5051 1.369 . S
C5052 C5061 1.429 . S
C5053 C5051 1.419 . S
C5053 C5054 1.363 . S
C5053 H5056 0.929 . S
C5054 C5053 1.363 . S
C5054 C5060 1.428 . S
H5055 C5051 0.930 . S
H5056 C5053 0.929 . S
S5057 N5058 1.613 . S
S5057 N5059 1.610 . S
N5058 S5057 1.613 . S
N5058 C5061 1.350 . S
N5059 S5057 1.610 . S
N5059 C5060 1.351 . S
C5060 C5054 1.428 . S
C5060 N5059 1.351 . S
C5060 C5061 1.434 . S
C5061 C5052 1.429 . S
C5061 N5058 1.350 . S
C5061 C5060 1.434 . S
C5062 C5063 1.369 . S
C5062 C5064 1.419 1_655 S
C5062 H5066 0.930 . S
C5063 C5062 1.369 . S
C5063 C5072 1.429 1_545 S
C5064 C5062 1.419 1_455 S
C5064 C5065 1.363 1_545 S
C5064 H5067 0.929 . S
C5065 C5064 1.363 1_565 S
C5065 C5071 1.428 . S
H5066 C5062 0.930 . S
H5067 C5064 0.929 . S
S5068 N5069 1.613 . S
S5068 N5070 1.610 1_655 S
N5069 S5068 1.613 . S
N5069 C5072 1.350 . S
N5070 S5068 1.610 1_455 S
N5070 C5071 1.351 . S
C5071 C5065 1.428 . S
C5071 N5070 1.351 . S
C5071 C5072 1.434 1_455 S
C5072 C5063 1.429 1_565 S
C5072 N5069 1.350 . S
C5072 C5071 1.434 1_655 S
C5073 C5074 1.369 . S
C5073 C5075 1.419 . S
C5073 H5077 0.930 . S
C5074 C5073 1.369 . S
C5074 C5083 1.429 . S
C5075 C5073 1.419 . S
C5075 C5076 1.363 . S
C5075 H5078 0.929 . S
C5076 C5075 1.363 . S
C5076 C5082 1.428 . S
H5077 C5073 0.930 . S
H5078 C5075 0.929 . S
S5079 N5080 1.613 . S
S5079 N5081 1.610 . S
N5080 S5079 1.613 . S
N5080 C5083 1.350 . S
N5081 S5079 1.610 . S
N5081 C5082 1.351 . S
C5082 C5076 1.428 . S
C5082 N5081 1.351 . S
C5082 C5083 1.434 . S
C5083 C5074 1.429 . S
C5083 N5080 1.350 . S
C5083 C5082 1.434 . S
C5084 C5085 1.369 . S
C5084 C5086 1.419 1_455 S
C5084 H5088 0.930 . S
C5085 C5084 1.369 . S
C5085 C5094 1.429 . S
C5086 C5084 1.419 1_655 S
C5086 C5087 1.363 . S
C5086 H5089 0.929 . S
C5087 C5086 1.363 . S
C5087 C5093 1.428 . S
H5088 C5084 0.930 . S
H5089 C5086 0.929 . S
S5090 N5091 1.613 1_655 S
S5090 N5092 1.610 . S
N5091 S5090 1.613 1_455 S
N5091 C5094 1.350 . S
N5092 S5090 1.610 . S
N5092 C5093 1.351 . S
C5093 C5087 1.428 . S
C5093 N5092 1.351 . S
C5093 C5094 1.434 1_655 S
C5094 C5085 1.429 . S
C5094 N5091 1.350 . S
C5094 C5093 1.434 1_455 S
C5095 C5096 1.369 . S
C5095 C5097 1.419 . S
C5095 H5099 0.930 . S
C5096 C5095 1.369 . S
C5096 C5105 1.429 . S
C5097 C5095 1.419 . S
C5097 C5098 1.363 . S
C5097 H5100 0.929 . S
C5098 C5097 1.363 . S
C5098 C5104 1.428 . S
H5099 C5095 0.930 . S
H5100 C5097 0.929 . S
S5101 N5102 1.613 . S
S5101 N5103 1.610 . S
N5102 S5101 1.613 . S
N5102 C5105 1.350 . S
N5103 S5101 1.610 . S
N5103 C5104 1.351 . S
C5104 C5098 1.428 . S
C5104 N5103 1.351 . S
C5104 C5105 1.434 . S
C5105 C5096 1.429 . S
C5105 N5102 1.350 . S
C5105 C5104 1.434 . S
C5106 C5107 1.369 1_545 S
C5106 C5108 1.419 1_655 S
C5106 H5110 0.930 . S
C5107 C5106 1.369 1_565 S
C5107 C5116 1.429 . S
C5108 C5106 1.419 1_455 S
C5108 C5109 1.363 . S
C5108 H5111 0.929 . S
C5109 C5108 1.363 . S
C5109 C5115 1.428 1_545 S
H5110 C5106 0.930 . S
H5111 C5108 0.929 . S
S5112 N5113 1.613 1_455 S
S5112 N5114 1.610 . S
N5113 S5112 1.613 1_655 S
N5113 C5116 1.350 . S
N5114 S5112 1.610 . S
N5114 C5115 1.351 . S
C5115 C5109 1.428 1_565 S
C5115 N5114 1.351 . S
C5115 C5116 1.434 1_455 S
C5116 C5107 1.429 . S
C5116 N5113 1.350 . S
C5116 C5115 1.434 1_655 S
C5117 C5118 1.369 . S
C5117 C5119 1.419 . S
C5117 H5121 0.930 . S
C5118 C5117 1.369 . S
C5118 C5127 1.429 . S
C5119 C5117 1.419 . S
C5119 C5120 1.363 . S
C5119 H5122 0.929 . S
C5120 C5119 1.363 . S
C5120 C5126 1.428 . S
H5121 C5117 0.930 . S
H5122 C5119 0.929 . S
S5123 N5124 1.613 . S
S5123 N5125 1.610 . S
N5124 S5123 1.613 . S
N5124 C5127 1.350 . S
N5125 S5123 1.610 . S
N5125 C5126 1.351 . S
C5126 C5120 1.428 . S
C5126 N5125 1.351 . S
C5126 C5127 1.434 . S
C5127 C5118 1.429 . S
C5127 N5124 1.350 . S
C5127 C5126 1.434 . S
C5128 C5129 1.369 . S
C5128 C5130 1.419 1_545 S
C5128 H5132 0.930 . S
C5129 C5128 1.369 . S
C5129 C5138 1.429 . S
C5130 C5128 1.419 1_565 S
C5130 C5131 1.363 . S
C5130 H5133 0.929 . S
C5131 C5130 1.363 . S
C5131 C5137 1.428 . S
H5132 C5128 0.930 . S
H5133 C5130 0.929 . S
S5134 N5135 1.613 1_565 S
S5134 N5136 1.610 . S
N5135 S5134 1.613 1_545 S
N5135 C5138 1.350 . S
N5136 S5134 1.610 . S
N5136 C5137 1.351 . S
C5137 C5131 1.428 . S
C5137 N5136 1.351 . S
C5137 C5138 1.434 1_565 S
C5138 C5129 1.429 . S
C5138 N5135 1.350 . S
C5138 C5137 1.434 1_545 S
C5139 C5140 1.369 . S
C5139 C5141 1.419 . S
C5139 H5143 0.930 . S
C5140 C5139 1.369 . S
C5140 C5149 1.429 . S
C5141 C5139 1.419 . S
C5141 C5142 1.363 . S
C5141 H5144 0.929 . S
C5142 C5141 1.363 . S
C5142 C5148 1.428 . S
H5143 C5139 0.930 . S
H5144 C5141 0.929 . S
S5145 N5146 1.613 . S
S5145 N5147 1.610 . S
N5146 S5145 1.613 . S
N5146 C5149 1.350 . S
N5147 S5145 1.610 . S
N5147 C5148 1.351 . S
C5148 C5142 1.428 . S
C5148 N5147 1.351 . S
C5148 C5149 1.434 . S
C5149 C5140 1.429 . S
C5149 N5146 1.350 . S
C5149 C5148 1.434 . S
C5150 C5151 1.369 . S
C5150 C5152 1.419 . S
C5150 H5154 0.930 . S
C5151 C5150 1.369 . S
C5151 C5160 1.429 1_556 S
C5152 C5150 1.419 . S
C5152 C5153 1.363 1_556 S
C5152 H5155 0.929 . S
C5153 C5152 1.363 1_554 S
C5153 C5159 1.428 . S
H5154 C5150 0.930 . S
H5155 C5152 0.929 . S
S5156 N5157 1.613 . S
S5156 N5158 1.610 . S
N5157 S5156 1.613 . S
N5157 C5160 1.350 . S
N5158 S5156 1.610 . S
N5158 C5159 1.351 . S
C5159 C5153 1.428 . S
C5159 N5158 1.351 . S
C5159 C5160 1.434 . S
C5160 C5151 1.429 1_554 S
C5160 N5157 1.350 . S
C5160 C5159 1.434 . S
C5161 C5162 1.369 . S
C5161 C5163 1.419 . S
C5161 H5165 0.930 . S
C5162 C5161 1.369 . S
C5162 C5171 1.429 . S
C5163 C5161 1.419 . S
C5163 C5164 1.363 . S
C5163 H5166 0.929 . S
C5164 C5163 1.363 . S
C5164 C5170 1.428 . S
H5165 C5161 0.930 . S
H5166 C5163 0.929 . S
S5167 N5168 1.613 . S
S5167 N5169 1.610 . S
N5168 S5167 1.613 . S
N5168 C5171 1.350 . S
N5169 S5167 1.610 . S
N5169 C5170 1.351 . S
C5170 C5164 1.428 . S
C5170 N5169 1.351 . S
C5170 C5171 1.434 . S
C5171 C5162 1.429 . S
C5171 N5168 1.350 . S
C5171 C5170 1.434 . S
C5172 C5173 1.369 . S
C5172 C5174 1.419 1_554 S
C5172 H5176 0.930 . S
C5173 C5172 1.369 . S
C5173 C5182 1.429 . S
C5174 C5172 1.419 1_556 S
C5174 C5175 1.363 . S
C5174 H5177 0.929 . S
C5175 C5174 1.363 . S
C5175 C5181 1.428 . S
H5176 C5172 0.930 . S
H5177 C5174 0.929 . S
S5178 N5179 1.613 . S
S5178 N5180 1.610 1_554 S
N5179 S5178 1.613 . S
N5179 C5182 1.350 . S
N5180 S5178 1.610 1_556 S
N5180 C5181 1.351 . S
C5181 C5175 1.428 . S
C5181 N5180 1.351 . S
C5181 C5182 1.434 1_556 S
C5182 C5173 1.429 . S
C5182 N5179 1.350 . S
C5182 C5181 1.434 1_554 S
C5183 C5184 1.369 1_655 S
C5183 C5185 1.419 . S
C5183 H5187 0.930 . S
C5184 C5183 1.369 1_455 S
C5184 C5193 1.429 . S
C5185 C5183 1.419 . S
C5185 C5186 1.363 . S
C5185 H5188 0.929 . S
C5186 C5185 1.363 . S
C5186 C5192 1.428 1_655 S
H5187 C5183 0.930 . S
H5188 C5185 0.929 . S
S5189 N5190 1.613 . S
S5189 N5191 1.610 . S
N5190 S5189 1.613 . S
N5190 C5193 1.350 . S
N5191 S5189 1.610 . S
N5191 C5192 1.351 . S
C5192 C5186 1.428 1_455 S
C5192 N5191 1.351 . S
C5192 C5193 1.434 . S
C5193 C5184 1.429 . S
C5193 N5190 1.350 . S
C5193 C5192 1.434 . S
C5194 C5195 1.369 . S
C5194 C5196 1.419 . S
C5194 H5198 0.930 . S
C5195 C5194 1.369 . S
C5195 C5204 1.429 . S
C5196 C5194 1.419 . S
C5196 C5197 1.363 . S
C5196 H5199 0.929 . S
C5197 C5196 1.363 . S
C5197 C5203 1.428 . S
H5198 C5194 0.930 . S
H5199 C5196 0.929 . S
S5200 N5201 1.613 . S
S5200 N5202 1.610 . S
N5201 S5200 1.613 . S
N5201 C5204 1.350 . S
N5202 S5200 1.610 . S
N5202 C5203 1.351 . S
C5203 C5197 1.428 . S
C5203 N5202 1.351 . S
C5203 C5204 1.434 . S
C5204 C5195 1.429 . S
C5204 N5201 1.350 . S
C5204 C5203 1.434 . S
C5205 C5206 1.369 1_455 S
C5205 C5207 1.419 1_554 S
C5205 H5209 0.930 . S
C5206 C5205 1.369 1_655 S
C5206 C5215 1.429 . S
C5207 C5205 1.419 1_556 S
C5207 C5208 1.363 . S
C5207 H5210 0.929 . S
C5208 C5207 1.363 . S
C5208 C5214 1.428 1_455 S
H5209 C5205 0.930 . S
H5210 C5207 0.929 . S
S5211 N5212 1.613 1_556 S
S5211 N5213 1.610 . S
N5212 S5211 1.613 1_554 S
N5212 C5215 1.350 . S
N5213 S5211 1.610 . S
N5213 C5214 1.351 . S
C5214 C5208 1.428 1_655 S
C5214 N5213 1.351 . S
C5214 C5215 1.434 1_556 S
C5215 C5206 1.429 . S
C5215 N5212 1.350 . S
C5215 C5214 1.434 1_554 S
C5216 C5217 1.369 . S
C5216 C5218 1.419 . S
C5216 H5220 0.930 . S
C5217 C5216 1.369 . S
C5217 C5226 1.429 . S
C5218 C5216 1.419 . S
C5218 C5219 1.363 . S
C5218 H5221 0.929 . S
C5219 C5218 1.363 . S
C5219 C5225 1.428 . S
H5220 C5216 0.930 . S
H5221 C5218 0.929 . S
S5222 N5223 1.613 . S
S5222 N5224 1.610 . S
N5223 S5222 1.613 . S
N5223 C5226 1.350 . S
N5224 S5222 1.610 . S
N5224 C5225 1.351 . S
C5225 C5219 1.428 . S
C5225 N5224 1.351 . S
C5225 C5226 1.434 . S
C5226 C5217 1.429 . S
C5226 N5223 1.350 . S
C5226 C5225 1.434 . S
C5227 C5228 1.369 . S
C5227 C5229 1.419 1_554 S
C5227 H5231 0.930 . S
C5228 C5227 1.369 . S
C5228 C5237 1.429 . S
C5229 C5227 1.419 1_556 S
C5229 C5230 1.363 . S
C5229 H5232 0.929 . S
C5230 C5229 1.363 . S
C5230 C5236 1.428 . S
H5231 C5227 0.930 . S
H5232 C5229 0.929 . S
S5233 N5234 1.613 1_556 S
S5233 N5235 1.610 . S
N5234 S5233 1.613 1_554 S
N5234 C5237 1.350 . S
N5235 S5233 1.610 . S
N5235 C5236 1.351 . S
C5236 C5230 1.428 . S
C5236 N5235 1.351 . S
C5236 C5237 1.434 1_556 S
C5237 C5228 1.429 . S
C5237 N5234 1.350 . S
C5237 C5236 1.434 1_554 S
C5238 C5239 1.369 . S
C5238 C5240 1.419 . S
C5238 H5242 0.930 . S
C5239 C5238 1.369 . S
C5239 C5248 1.429 . S
C5240 C5238 1.419 . S
C5240 C5241 1.363 . S
C5240 H5243 0.929 . S
C5241 C5240 1.363 . S
C5241 C5247 1.428 . S
H5242 C5238 0.930 . S
H5243 C5240 0.929 . S
S5244 N5245 1.613 . S
S5244 N5246 1.610 . S
N5245 S5244 1.613 . S
N5245 C5248 1.350 . S
N5246 S5244 1.610 . S
N5246 C5247 1.351 . S
C5247 C5241 1.428 . S
C5247 N5246 1.351 . S
C5247 C5248 1.434 . S
C5248 C5239 1.429 . S
C5248 N5245 1.350 . S
C5248 C5247 1.434 . S
C5249 C5250 1.369 . S
C5249 C5251 1.419 . S
C5249 H5253 0.930 . S
C5250 C5249 1.369 . S
C5250 C5259 1.429 . S
C5251 C5249 1.419 . S
C5251 C5252 1.363 . S
C5251 H5254 0.929 . S
C5252 C5251 1.363 . S
C5252 C5258 1.428 . S
H5253 C5249 0.930 . S
H5254 C5251 0.929 . S
S5255 N5256 1.613 . S
S5255 N5257 1.610 . S
N5256 S5255 1.613 . S
N5256 C5259 1.350 . S
N5257 S5255 1.610 . S
N5257 C5258 1.351 . S
C5258 C5252 1.428 . S
C5258 N5257 1.351 . S
C5258 C5259 1.434 . S
C5259 C5250 1.429 . S
C5259 N5256 1.350 . S
C5259 C5258 1.434 . S
C5260 C5261 1.369 . S
C5260 C5262 1.419 . S
C5260 H5264 0.930 . S
C5261 C5260 1.369 . S
C5261 C5270 1.429 . S
C5262 C5260 1.419 . S
C5262 C5263 1.363 . S
C5262 H5265 0.929 . S
C5263 C5262 1.363 . S
C5263 C5269 1.428 . S
H5264 C5260 0.930 . S
H5265 C5262 0.929 . S
S5266 N5267 1.613 . S
S5266 N5268 1.610 . S
N5267 S5266 1.613 . S
N5267 C5270 1.350 . S
N5268 S5266 1.610 . S
N5268 C5269 1.351 . S
C5269 C5263 1.428 . S
C5269 N5268 1.351 . S
C5269 C5270 1.434 . S
C5270 C5261 1.429 . S
C5270 N5267 1.350 . S
C5270 C5269 1.434 . S
C5271 C5272 1.369 . S
C5271 C5273 1.419 . S
C5271 H5275 0.930 . S
C5272 C5271 1.369 . S
C5272 C5281 1.429 . S
C5273 C5271 1.419 . S
C5273 C5274 1.363 . S
C5273 H5276 0.929 . S
C5274 C5273 1.363 . S
C5274 C5280 1.428 . S
H5275 C5271 0.930 . S
H5276 C5273 0.929 . S
S5277 N5278 1.613 . S
S5277 N5279 1.610 . S
N5278 S5277 1.613 . S
N5278 C5281 1.350 . S
N5279 S5277 1.610 . S
N5279 C5280 1.351 . S
C5280 C5274 1.428 . S
C5280 N5279 1.351 . S
C5280 C5281 1.434 . S
C5281 C5272 1.429 . S
C5281 N5278 1.350 . S
C5281 C5280 1.434 . S
C5282 C5283 1.369 . S
C5282 C5284 1.419 . S
C5282 H5286 0.930 . S
C5283 C5282 1.369 . S
C5283 C5292 1.429 . S
C5284 C5282 1.419 . S
C5284 C5285 1.363 . S
C5284 H5287 0.929 . S
C5285 C5284 1.363 . S
C5285 C5291 1.428 . S
H5286 C5282 0.930 . S
H5287 C5284 0.929 . S
S5288 N5289 1.613 . S
S5288 N5290 1.610 . S
N5289 S5288 1.613 . S
N5289 C5292 1.350 . S
N5290 S5288 1.610 . S
N5290 C5291 1.351 . S
C5291 C5285 1.428 . S
C5291 N5290 1.351 . S
C5291 C5292 1.434 . S
C5292 C5283 1.429 . S
C5292 N5289 1.350 . S
C5292 C5291 1.434 . S
C5293 C5294 1.369 . S
C5293 C5295 1.419 . S
C5293 H5297 0.930 . S
C5294 C5293 1.369 . S
C5294 C5303 1.429 1_554 S
C5295 C5293 1.419 . S
C5295 C5296 1.363 1_554 S
C5295 H5298 0.929 . S
C5296 C5295 1.363 1_556 S
C5296 C5302 1.428 . S
H5297 C5293 0.930 . S
H5298 C5295 0.929 . S
S5299 N5300 1.613 . S
S5299 N5301 1.610 . S
N5300 S5299 1.613 . S
N5300 C5303 1.350 . S
N5301 S5299 1.610 . S
N5301 C5302 1.351 . S
C5302 C5296 1.428 . S
C5302 N5301 1.351 . S
C5302 C5303 1.434 . S
C5303 C5294 1.429 1_556 S
C5303 N5300 1.350 . S
C5303 C5302 1.434 . S
C5304 C5305 1.369 . S
C5304 C5306 1.419 . S
C5304 H5308 0.930 . S
C5305 C5304 1.369 . S
C5305 C5314 1.429 . S
C5306 C5304 1.419 . S
C5306 C5307 1.363 . S
C5306 H5309 0.929 . S
C5307 C5306 1.363 . S
C5307 C5313 1.428 . S
H5308 C5304 0.930 . S
H5309 C5306 0.929 . S
S5310 N5311 1.613 . S
S5310 N5312 1.610 . S
N5311 S5310 1.613 . S
N5311 C5314 1.350 . S
N5312 S5310 1.610 . S
N5312 C5313 1.351 . S
C5313 C5307 1.428 . S
C5313 N5312 1.351 . S
C5313 C5314 1.434 . S
C5314 C5305 1.429 . S
C5314 N5311 1.350 . S
C5314 C5313 1.434 . S
C5315 C5316 1.369 . S
C5315 C5317 1.419 1_545 S
C5315 H5319 0.930 . S
C5316 C5315 1.369 . S
C5316 C5325 1.429 . S
C5317 C5315 1.419 1_565 S
C5317 C5318 1.363 . S
C5317 H5320 0.929 . S
C5318 C5317 1.363 . S
C5318 C5324 1.428 . S
H5319 C5315 0.930 . S
H5320 C5317 0.929 . S
S5321 N5322 1.613 1_565 S
S5321 N5323 1.610 . S
N5322 S5321 1.613 1_545 S
N5322 C5325 1.350 . S
N5323 S5321 1.610 . S
N5323 C5324 1.351 . S
C5324 C5318 1.428 . S
C5324 N5323 1.351 . S
C5324 C5325 1.434 1_565 S
C5325 C5316 1.429 . S
C5325 N5322 1.350 . S
C5325 C5324 1.434 1_545 S
C5326 C5327 1.369 . S
C5326 C5328 1.419 . S
C5326 H5330 0.930 . S
C5327 C5326 1.369 . S
C5327 C5336 1.429 . S
C5328 C5326 1.419 . S
C5328 C5329 1.363 . S
C5328 H5331 0.929 . S
C5329 C5328 1.363 . S
C5329 C5335 1.428 . S
H5330 C5326 0.930 . S
H5331 C5328 0.929 . S
S5332 N5333 1.613 . S
S5332 N5334 1.610 . S
N5333 S5332 1.613 . S
N5333 C5336 1.350 . S
N5334 S5332 1.610 . S
N5334 C5335 1.351 . S
C5335 C5329 1.428 . S
C5335 N5334 1.351 . S
C5335 C5336 1.434 . S
C5336 C5327 1.429 . S
C5336 N5333 1.350 . S
C5336 C5335 1.434 . S
C5337 C5338 1.369 . S
C5337 C5339 1.419 . S
C5337 H5341 0.930 . S
C5338 C5337 1.369 . S
C5338 C5347 1.429 . S
C5339 C5337 1.419 . S
C5339 C5340 1.363 . S
C5339 H5342 0.929 . S
C5340 C5339 1.363 . S
C5340 C5346 1.428 . S
H5341 C5337 0.930 . S
H5342 C5339 0.929 . S
S5343 N5344 1.613 . S
S5343 N5345 1.610 . S
N5344 S5343 1.613 . S
N5344 C5347 1.350 . S
N5345 S5343 1.610 . S
N5345 C5346 1.351 . S
C5346 C5340 1.428 . S
C5346 N5345 1.351 . S
C5346 C5347 1.434 . S
C5347 C5338 1.429 . S
C5347 N5344 1.350 . S
C5347 C5346 1.434 . S
C5348 C5349 1.369 . S
C5348 C5350 1.419 1_554 S
C5348 H5352 0.930 . S
C5349 C5348 1.369 . S
C5349 C5358 1.429 1_455 S
C5350 C5348 1.419 1_556 S
C5350 C5351 1.363 1_455 S
C5350 H5353 0.929 . S
C5351 C5350 1.363 1_655 S
C5351 C5357 1.428 . S
H5352 C5348 0.930 . S
H5353 C5350 0.929 . S
S5354 N5355 1.613 . S
S5354 N5356 1.610 1_554 S
N5355 S5354 1.613 . S
N5355 C5358 1.350 . S
N5356 S5354 1.610 1_556 S
N5356 C5357 1.351 . S
C5357 C5351 1.428 . S
C5357 N5356 1.351 . S
C5357 C5358 1.434 1_556 S
C5358 C5349 1.429 1_655 S
C5358 N5355 1.350 . S
C5358 C5357 1.434 1_554 S
C5359 C5360 1.369 . S
C5359 C5361 1.419 . S
C5359 H5363 0.930 . S
C5360 C5359 1.369 . S
C5360 C5369 1.429 . S
C5361 C5359 1.419 . S
C5361 C5362 1.363 . S
C5361 H5364 0.929 . S
C5362 C5361 1.363 . S
C5362 C5368 1.428 . S
H5363 C5359 0.930 . S
H5364 C5361 0.929 . S
S5365 N5366 1.613 . S
S5365 N5367 1.610 . S
N5366 S5365 1.613 . S
N5366 C5369 1.350 . S
N5367 S5365 1.610 . S
N5367 C5368 1.351 . S
C5368 C5362 1.428 . S
C5368 N5367 1.351 . S
C5368 C5369 1.434 . S
C5369 C5360 1.429 . S
C5369 N5366 1.350 . S
C5369 C5368 1.434 . S
C5370 C5371 1.369 1_655 S
C5370 C5372 1.419 . S
C5370 H5374 0.930 . S
C5371 C5370 1.369 1_455 S
C5371 C5380 1.429 . S
C5372 C5370 1.419 . S
C5372 C5373 1.363 . S
C5372 H5375 0.929 . S
C5373 C5372 1.363 . S
C5373 C5379 1.428 1_655 S
H5374 C5370 0.930 . S
H5375 C5372 0.929 . S
S5376 N5377 1.613 . S
S5376 N5378 1.610 . S
N5377 S5376 1.613 . S
N5377 C5380 1.350 . S
N5378 S5376 1.610 . S
N5378 C5379 1.351 . S
C5379 C5373 1.428 1_455 S
C5379 N5378 1.351 . S
C5379 C5380 1.434 . S
C5380 C5371 1.429 . S
C5380 N5377 1.350 . S
C5380 C5379 1.434 . S
C5381 C5382 1.369 . S
C5381 C5383 1.419 . S
C5381 H5385 0.930 . S
C5382 C5381 1.369 . S
C5382 C5391 1.429 . S
C5383 C5381 1.419 . S
C5383 C5384 1.363 . S
C5383 H5386 0.929 . S
C5384 C5383 1.363 . S
C5384 C5390 1.428 . S
H5385 C5381 0.930 . S
H5386 C5383 0.929 . S
S5387 N5388 1.613 . S
S5387 N5389 1.610 . S
N5388 S5387 1.613 . S
N5388 C5391 1.350 . S
N5389 S5387 1.610 . S
N5389 C5390 1.351 . S
C5390 C5384 1.428 . S
C5390 N5389 1.351 . S
C5390 C5391 1.434 . S
C5391 C5382 1.429 . S
C5391 N5388 1.350 . S
C5391 C5390 1.434 . S
C5392 C5393 1.369 . S
C5392 C5394 1.419 . S
C5392 H5396 0.930 . S
C5393 C5392 1.369 . S
C5393 C5402 1.429 . S
C5394 C5392 1.419 . S
C5394 C5395 1.363 . S
C5394 H5397 0.929 . S
C5395 C5394 1.363 . S
C5395 C5401 1.428 . S
H5396 C5392 0.930 . S
H5397 C5394 0.929 . S
S5398 N5399 1.613 . S
S5398 N5400 1.610 . S
N5399 S5398 1.613 . S
N5399 C5402 1.350 . S
N5400 S5398 1.610 . S
N5400 C5401 1.351 . S
C5401 C5395 1.428 . S
C5401 N5400 1.351 . S
C5401 C5402 1.434 . S
C5402 C5393 1.429 . S
C5402 N5399 1.350 . S
C5402 C5401 1.434 . S
C5403 C5404 1.369 . S
C5403 C5405 1.419 . S
C5403 H5407 0.930 . S
C5404 C5403 1.369 . S
C5404 C5413 1.429 . S
C5405 C5403 1.419 . S
C5405 C5406 1.363 . S
C5405 H5408 0.929 . S
C5406 C5405 1.363 . S
C5406 C5412 1.428 . S
H5407 C5403 0.930 . S
H5408 C5405 0.929 . S
S5409 N5410 1.613 . S
S5409 N5411 1.610 . S
N5410 S5409 1.613 . S
N5410 C5413 1.350 . S
N5411 S5409 1.610 . S
N5411 C5412 1.351 . S
C5412 C5406 1.428 . S
C5412 N5411 1.351 . S
C5412 C5413 1.434 . S
C5413 C5404 1.429 . S
C5413 N5410 1.350 . S
C5413 C5412 1.434 . S
C5414 C5415 1.369 . S
C5414 C5416 1.419 . S
C5414 H5418 0.930 . S
C5415 C5414 1.369 . S
C5415 C5424 1.429 . S
C5416 C5414 1.419 . S
C5416 C5417 1.363 . S
C5416 H5419 0.929 . S
C5417 C5416 1.363 . S
C5417 C5423 1.428 . S
H5418 C5414 0.930 . S
H5419 C5416 0.929 . S
S5420 N5421 1.613 . S
S5420 N5422 1.610 . S
N5421 S5420 1.613 . S
N5421 C5424 1.350 . S
N5422 S5420 1.610 . S
N5422 C5423 1.351 . S
C5423 C5417 1.428 . S
C5423 N5422 1.351 . S
C5423 C5424 1.434 . S
C5424 C5415 1.429 . S
C5424 N5421 1.350 . S
C5424 C5423 1.434 . S
C5425 C5426 1.369 . S
C5425 C5427 1.419 . S
C5425 H5429 0.930 . S
C5426 C5425 1.369 . S
C5426 C5435 1.429 1_545 S
C5427 C5425 1.419 . S
C5427 C5428 1.363 1_545 S
C5427 H5430 0.929 . S
C5428 C5427 1.363 1_565 S
C5428 C5434 1.428 . S
H5429 C5425 0.930 . S
H5430 C5427 0.929 . S
S5431 N5432 1.613 . S
S5431 N5433 1.610 . S
N5432 S5431 1.613 . S
N5432 C5435 1.350 . S
N5433 S5431 1.610 . S
N5433 C5434 1.351 . S
C5434 C5428 1.428 . S
C5434 N5433 1.351 . S
C5434 C5435 1.434 . S
C5435 C5426 1.429 1_565 S
C5435 N5432 1.350 . S
C5435 C5434 1.434 . S
C5436 C5437 1.369 . S
C5436 C5438 1.419 . S
C5436 H5440 0.930 . S
C5437 C5436 1.369 . S
C5437 C5446 1.429 . S
C5438 C5436 1.419 . S
C5438 C5439 1.363 . S
C5438 H5441 0.929 . S
C5439 C5438 1.363 . S
C5439 C5445 1.428 . S
H5440 C5436 0.930 . S
H5441 C5438 0.929 . S
S5442 N5443 1.613 . S
S5442 N5444 1.610 . S
N5443 S5442 1.613 . S
N5443 C5446 1.350 . S
N5444 S5442 1.610 . S
N5444 C5445 1.351 . S
C5445 C5439 1.428 . S
C5445 N5444 1.351 . S
C5445 C5446 1.434 . S
C5446 C5437 1.429 . S
C5446 N5443 1.350 . S
C5446 C5445 1.434 . S
C5447 C5448 1.369 1_565 S
C5447 C5449 1.419 . S
C5447 H5451 0.930 . S
C5448 C5447 1.369 1_545 S
C5448 C5457 1.429 . S
C5449 C5447 1.419 . S
C5449 C5450 1.363 . S
C5449 H5452 0.929 . S
C5450 C5449 1.363 . S
C5450 C5456 1.428 1_565 S
H5451 C5447 0.930 . S
H5452 C5449 0.929 . S
S5453 N5454 1.613 . S
S5453 N5455 1.610 . S
N5454 S5453 1.613 . S
N5454 C5457 1.350 . S
N5455 S5453 1.610 . S
N5455 C5456 1.351 . S
C5456 C5450 1.428 1_545 S
C5456 N5455 1.351 . S
C5456 C5457 1.434 . S
C5457 C5448 1.429 . S
C5457 N5454 1.350 . S
C5457 C5456 1.434 . S
C5458 C5459 1.369 . S
C5458 C5460 1.419 1_565 S
C5458 H5462 0.930 . S
C5459 C5458 1.369 . S
C5459 C5468 1.429 1_554 S
C5460 C5458 1.419 1_545 S
C5460 C5461 1.363 1_554 S
C5460 H5463 0.929 . S
C5461 C5460 1.363 1_556 S
C5461 C5467 1.428 . S
H5462 C5458 0.930 . S
H5463 C5460 0.929 . S
S5464 N5465 1.613 . S
S5464 N5466 1.610 1_565 S
N5465 S5464 1.613 . S
N5465 C5468 1.350 . S
N5466 S5464 1.610 1_545 S
N5466 C5467 1.351 . S
C5467 C5461 1.428 . S
C5467 N5466 1.351 . S
C5467 C5468 1.434 1_545 S
C5468 C5459 1.429 1_556 S
C5468 N5465 1.350 . S
C5468 C5467 1.434 1_565 S
C5469 C5470 1.369 . S
C5469 C5471 1.419 . S
C5469 H5473 0.930 . S
C5470 C5469 1.369 . S
C5470 C5479 1.429 . S
C5471 C5469 1.419 . S
C5471 C5472 1.363 . S
C5471 H5474 0.929 . S
C5472 C5471 1.363 . S
C5472 C5478 1.428 . S
H5473 C5469 0.930 . S
H5474 C5471 0.929 . S
S5475 N5476 1.613 . S
S5475 N5477 1.610 . S
N5476 S5475 1.613 . S
N5476 C5479 1.350 . S
N5477 S5475 1.610 . S
N5477 C5478 1.351 . S
C5478 C5472 1.428 . S
C5478 N5477 1.351 . S
C5478 C5479 1.434 . S
C5479 C5470 1.429 . S
C5479 N5476 1.350 . S
C5479 C5478 1.434 . S
C5480 C5481 1.369 . S
C5480 C5482 1.419 . S
C5480 H5484 0.930 . S
C5481 C5480 1.369 . S
C5481 C5490 1.429 . S
C5482 C5480 1.419 . S
C5482 C5483 1.363 . S
C5482 H5485 0.929 . S
C5483 C5482 1.363 . S
C5483 C5489 1.428 . S
H5484 C5480 0.930 . S
H5485 C5482 0.929 . S
S5486 N5487 1.613 . S
S5486 N5488 1.610 . S
N5487 S5486 1.613 . S
N5487 C5490 1.350 . S
N5488 S5486 1.610 . S
N5488 C5489 1.351 . S
C5489 C5483 1.428 . S
C5489 N5488 1.351 . S
C5489 C5490 1.434 . S
C5490 C5481 1.429 . S
C5490 N5487 1.350 . S
C5490 C5489 1.434 . S
C5491 C5492 1.369 . S
C5491 C5493 1.419 . S
C5491 H5495 0.930 . S
C5492 C5491 1.369 . S
C5492 C5501 1.429 . S
C5493 C5491 1.419 . S
C5493 C5494 1.363 . S
C5493 H5496 0.929 . S
C5494 C5493 1.363 . S
C5494 C5500 1.428 . S
H5495 C5491 0.930 . S
H5496 C5493 0.929 . S
S5497 N5498 1.613 . S
S5497 N5499 1.610 . S
N5498 S5497 1.613 . S
N5498 C5501 1.350 . S
N5499 S5497 1.610 . S
N5499 C5500 1.351 . S
C5500 C5494 1.428 . S
C5500 N5499 1.351 . S
C5500 C5501 1.434 . S
C5501 C5492 1.429 . S
C5501 N5498 1.350 . S
C5501 C5500 1.434 . S
C5502 C5503 1.369 . S
C5502 C5504 1.419 . S
C5502 H5506 0.930 . S
C5503 C5502 1.369 . S
C5503 C5512 1.429 . S
C5504 C5502 1.419 . S
C5504 C5505 1.363 . S
C5504 H5507 0.929 . S
C5505 C5504 1.363 . S
C5505 C5511 1.428 . S
H5506 C5502 0.930 . S
H5507 C5504 0.929 . S
S5508 N5509 1.613 . S
S5508 N5510 1.610 . S
N5509 S5508 1.613 . S
N5509 C5512 1.350 . S
N5510 S5508 1.610 . S
N5510 C5511 1.351 . S
C5511 C5505 1.428 . S
C5511 N5510 1.351 . S
C5511 C5512 1.434 . S
C5512 C5503 1.429 . S
C5512 N5509 1.350 . S
C5512 C5511 1.434 . S
C5513 C5514 1.369 . S
C5513 C5515 1.419 . S
C5513 H5517 0.930 . S
C5514 C5513 1.369 . S
C5514 C5523 1.429 . S
C5515 C5513 1.419 . S
C5515 C5516 1.363 . S
C5515 H5518 0.929 . S
C5516 C5515 1.363 . S
C5516 C5522 1.428 . S
H5517 C5513 0.930 . S
H5518 C5515 0.929 . S
S5519 N5520 1.613 . S
S5519 N5521 1.610 . S
N5520 S5519 1.613 . S
N5520 C5523 1.350 . S
N5521 S5519 1.610 . S
N5521 C5522 1.351 . S
C5522 C5516 1.428 . S
C5522 N5521 1.351 . S
C5522 C5523 1.434 . S
C5523 C5514 1.429 . S
C5523 N5520 1.350 . S
C5523 C5522 1.434 . S
C5524 C5525 1.369 . S
C5524 C5526 1.419 . S
C5524 H5528 0.930 . S
C5525 C5524 1.369 . S
C5525 C5534 1.429 . S
C5526 C5524 1.419 . S
C5526 C5527 1.363 . S
C5526 H5529 0.929 . S
C5527 C5526 1.363 . S
C5527 C5533 1.428 . S
H5528 C5524 0.930 . S
H5529 C5526 0.929 . S
S5530 N5531 1.613 . S
S5530 N5532 1.610 . S
N5531 S5530 1.613 . S
N5531 C5534 1.350 . S
N5532 S5530 1.610 . S
N5532 C5533 1.351 . S
C5533 C5527 1.428 . S
C5533 N5532 1.351 . S
C5533 C5534 1.434 . S
C5534 C5525 1.429 . S
C5534 N5531 1.350 . S
C5534 C5533 1.434 . S
C5535 C5536 1.369 . S
C5535 C5537 1.419 1_565 S
C5535 H5539 0.930 . S
C5536 C5535 1.369 . S
C5536 C5545 1.429 1_556 S
C5537 C5535 1.419 1_545 S
C5537 C5538 1.363 1_556 S
C5537 H5540 0.929 . S
C5538 C5537 1.363 1_554 S
C5538 C5544 1.428 . S
H5539 C5535 0.930 . S
H5540 C5537 0.929 . S
S5541 N5542 1.613 . S
S5541 N5543 1.610 1_565 S
N5542 S5541 1.613 . S
N5542 C5545 1.350 . S
N5543 S5541 1.610 1_545 S
N5543 C5544 1.351 . S
C5544 C5538 1.428 . S
C5544 N5543 1.351 . S
C5544 C5545 1.434 1_545 S
C5545 C5536 1.429 1_554 S
C5545 N5542 1.350 . S
C5545 C5544 1.434 1_565 S
C5546 C5547 1.369 . S
C5546 C5548 1.419 . S
C5546 H5550 0.930 . S
C5547 C5546 1.369 . S
C5547 C5556 1.429 . S
C5548 C5546 1.419 . S
C5548 C5549 1.363 . S
C5548 H5551 0.929 . S
C5549 C5548 1.363 . S
C5549 C5555 1.428 . S
H5550 C5546 0.930 . S
H5551 C5548 0.929 . S
S5552 N5553 1.613 . S
S5552 N5554 1.610 . S
N5553 S5552 1.613 . S
N5553 C5556 1.350 . S
N5554 S5552 1.610 . S
N5554 C5555 1.351 . S
C5555 C5549 1.428 . S
C5555 N5554 1.351 . S
C5555 C5556 1.434 . S
C5556 C5547 1.429 . S
C5556 N5553 1.350 . S
C5556 C5555 1.434 . S
C5557 C5558 1.369 . S
C5557 C5559 1.419 . S
C5557 H5561 0.930 . S
C5558 C5557 1.369 . S
C5558 C5567 1.429 . S
C5559 C5557 1.419 . S
C5559 C5560 1.363 . S
C5559 H5562 0.929 . S
C5560 C5559 1.363 . S
C5560 C5566 1.428 . S
H5561 C5557 0.930 . S
H5562 C5559 0.929 . S
S5563 N5564 1.613 . S
S5563 N5565 1.610 . S
N5564 S5563 1.613 . S
N5564 C5567 1.350 . S
N5565 S5563 1.610 . S
N5565 C5566 1.351 . S
C5566 C5560 1.428 . S
C5566 N5565 1.351 . S
C5566 C5567 1.434 . S
C5567 C5558 1.429 . S
C5567 N5564 1.350 . S
C5567 C5566 1.434 . S
C3457 C4 1.250 . S
C3459 C1154 1.387 . S
C3468 C2054 1.387 . S
C3470 C40 1.244 . S
C3479 C1226 1.388 . S
C3481 C76 1.242 . S
C3490 C112 1.257 . S
C3492 C2126 1.389 . S
C3501 C148 1.244 . S
C3503 C1298 1.390 . S
C3512 C184 1.249 . S
C3514 C2198 1.387 . S
C3523 C220 1.247 . S
C3525 C1370 1.390 . S
C3534 C256 1.255 . S
C3536 C2270 1.388 . S
C3545 C2306 1.390 . S
C3547 C292 1.245 . S
C3556 C2558 1.387 . S
C3558 C328 1.246 . S
C3567 C364 1.240 . S
C3569 C3350 1.388 . S
C3578 C400 1.254 . S
C3580 C2522 1.388 . S
C3589 C614 1.390 . S
C3591 C436 1.254 . S
C3600 C472 1.256 . S
C3602 C650 1.389 . S
C3611 C508 1.248 . S
C3613 C686 1.390 . S
C3622 C3314 1.387 . S
C3624 C544 1.245 . S
C3633 C2594 1.391 . S
C3635 C580 1.248 . S
C3644 C616 1.240 . S
C3646 C1010 1.389 . S
C3655 C1910 1.388 . S
C3657 C652 1.255 . S
C3666 C688 1.245 . S
C3668 C1082 1.390 . S
C3677 C1118 1.389 . S
C3679 C724 1.242 . S
C3688 C1802 1.390 . S
C3690 C760 1.247 . S
C3699 C110 1.387 . S
C3701 C796 1.250 . S
C3710 C38 1.389 . S
C3712 C832 1.242 . S
C3721 C868 1.240 . S
C3723 C290 1.389 . S
C3732 C2918 1.390 . S
C3734 C904 1.245 . S
C3743 C362 1.387 . S
C3745 C940 1.249 . S
C3754 C976 1.256 . S
C3756 C2990 1.388 . S
C3765 C1012 1.256 . S
C3767 C434 1.388 . S
C3776 C3062 1.390 . S
C3778 C1048 1.254 . S
C3787 C1084 1.253 . S
C3789 C506 1.390 . S
C3798 C3134 1.390 . S
C3800 C1120 1.254 . S
C3809 C3170 1.389 . S
C3811 C1156 1.243 . S
C3820 C1192 1.247 . S
C3822 C3422 1.390 . S
C3831 C2486 1.390 . S
C3833 C1228 1.243 . S
C3842 C3386 1.389 . S
C3844 C1264 1.255 . S
C3853 C1300 1.240 . S
C3855 C1478 1.389 . S
C3864 C1514 1.390 . S
C3866 C1336 1.246 . S
C3875 C1550 1.389 . S
C3877 C1372 1.255 . S
C3886 C1408 1.256 . S
C3888 C2450 1.388 . S
C3897 C1730 1.390 . S
C3899 C1444 1.245 . S
C3908 C1480 1.244 . S
C3910 C146 1.390 . S
C3919 C2774 1.387 . S
C3921 C1516 1.248 . S
C3930 C218 1.387 . S
C3932 C1552 1.249 . S
C3941 C1588 1.256 . S
C3943 C254 1.388 . S
C3952 C2666 1.387 . S
C3954 C1624 1.253 . S
C3963 C974 1.387 . S
C3965 C1660 1.246 . S
C3974 C902 1.387 . S
C3976 C1696 1.244 . S
C3985 C2882 1.387 . S
C3987 C1732 1.253 . S
C3996 C326 1.390 . S
C3998 C1768 1.246 . S
C4007 C2954 1.390 . S
C4009 C1804 1.244 . S
C4018 C1840 1.249 . S
C4020 C398 1.390 . S
C4029 C3026 1.387 . S
C4031 C1876 1.252 . S
C4040 C1912 1.241 . S
C4042 C470 1.389 . S
C4051 C1948 1.240 . S
C4053 C3098 1.389 . S
C4062 C1984 1.245 . S
C4064 C542 1.388 . S
C4073 C578 1.390 . S
C4075 C2020 1.250 . S
C4084 C2056 1.243 . S
C4086 C830 1.388 . S
C4095 C2092 1.257 . S
C4097 C1622 1.389 . S
C4106 C794 1.390 . S
C4108 C2128 1.250 . S
C4117 C2164 1.248 . S
C4119 C2342 1.387 . S
C4128 C2378 1.390 . S
C4130 C2200 1.244 . S
C4139 C2414 1.389 . S
C4141 C2236 1.242 . S
C4150 C2272 1.243 . S
C4152 C1586 1.390 . S
C4161 C2308 1.252 . S
C4163 C866 1.390 . S
C4172 C2738 1.388 . S
C4174 C2344 1.254 . S
C4183 C2380 1.240 . S
C4185 C182 1.388 . S
C4194 C2416 1.256 . S
C4196 C2810 1.388 . S
C4205 C2846 1.390 . S
C4207 C2452 1.243 . S
C4216 C74 1.390 . S
C4218 C2488 1.247 . S
C4227 C2524 1.244 . S
C4229 C1838 1.390 . S
C4238 C2560 1.255 . S
C4240 C1766 1.388 . S
C4249 C2018 1.387 . S
C4251 C2596 1.249 . S
C4260 C1190 1.387 . S
C4262 C2632 1.247 . S
C4271 C2090 1.390 . S
C4273 C2668 1.252 . S
C4282 C2704 1.241 . S
C4284 C1262 1.388 . S
C4293 C2740 1.256 . S
C4295 C2162 1.389 . S
C4304 C1334 1.390 . S
C4306 C2776 1.250 . S
C4315 C2234 1.389 . S
C4317 C2812 1.255 . S
C4326 C1406 1.390 . S
C4328 C2848 1.245 . S
C4337 C2884 1.249 . S
C4339 C1442 1.390 . S
C4348 C1694 1.390 . S
C4350 C2920 1.245 . S
C4359 C758 1.388 . S
C4361 C2956 1.243 . S
C4370 C2992 1.241 . S
C4372 C1658 1.388 . S
C4381 C3206 1.387 . S
C4383 C3028 1.248 . S
C4392 C3242 1.390 . S
C4394 C3064 1.252 . S
C4403 C3100 1.243 . S
C4405 C3278 1.390 . S
C4414 C3136 1.256 . S
C4416 C722 1.389 . S
C4425 C2 1.390 . S
C4427 C3172 1.244 . S
C4436 C1874 1.390 . S
C4438 C3208 1.243 . S
C4447 C3244 1.240 . S
C4449 C1046 1.389 . S
C4458 C3280 1.253 . S
C4460 C1946 1.390 . S
C4469 C1982 1.387 . S
C4471 C3316 1.249 . S
C4480 C938 1.390 . S
C4482 C3352 1.253 . S
C4491 C2702 1.387 . S
C4493 C3388 1.250 . S
C4502 C2630 1.390 . S
C4504 C3424 1.248 . S
C4513 C3146 1.243 . S
C4515 C14 1.241 . S
C4524 C50 1.238 . S
C4526 C3038 1.235 . S
C4535 C86 1.240 . S
C4537 C3074 1.240 . S
C4546 C122 1.240 . S
C4548 C3110 1.240 . S
C4557 C338 1.228 . S
C4559 C158 1.228 . S
C4568 C194 1.225 . S
C4570 C374 1.228 . S
C4579 C230 1.241 . S
C4581 C410 1.239 . S
C4590 C266 1.239 . S
C4592 C302 1.237 . S
C4601 C446 1.242 . S
C4603 C2642 1.239 . S
C4612 C482 1.240 . S
C4614 C2678 1.240 . S
C4623 C518 1.241 . S
C4625 C2714 1.240 . S
C4634 C2606 1.233 . S
C4636 C554 1.235 . S
C4645 C3326 1.243 . S
C4647 C590 1.240 . S
C4656 C626 1.230 . S
C4658 C3434 1.229 . S
C4667 C662 1.228 . S
C4669 C1634 1.231 . S
C4678 C3398 1.227 . S
C4680 C698 1.228 . S
C4689 C734 1.239 . S
C4691 C3182 1.240 . S
C4700 C770 1.241 . S
C4702 C1526 1.239 . S
C4711 C806 1.231 . S
C4713 C3290 1.230 . S
C4722 C842 1.226 . S
C4724 C3218 1.229 . S
C4733 C2282 1.239 . S
C4735 C878 1.236 . S
C4744 C914 1.232 . S
C4746 C2174 1.235 . S
C4755 C2210 1.240 . S
C4757 C950 1.240 . S
C4766 C986 1.236 . S
C4768 C2246 1.234 . S
C4777 C1022 1.225 . S
C4779 C1202 1.227 . S
C4788 C1058 1.240 . S
C4790 C1238 1.240 . S
C4799 C1274 1.238 . S
C4801 C1094 1.235 . S
C4810 C1130 1.225 . S
C4812 C1166 1.227 . S
C4821 C1778 1.225 . S
C4823 C1310 1.227 . S
C4832 C1814 1.225 . S
C4834 C1346 1.227 . S
C4843 C1850 1.234 . S
C4845 C1382 1.232 . S
C4854 C1742 1.237 . S
C4856 C1418 1.238 . S
C4865 C1454 1.226 . S
C4867 C2462 1.229 . S
C4876 C1490 1.237 . S
C4878 C2570 1.238 . S
C4887 C2534 1.230 . S
C4889 C1562 1.229 . S
C4898 C1598 1.241 . S
C4900 C2318 1.241 . S
C4909 C1670 1.229 . S
C4911 C2426 1.229 . S
C4920 C1706 1.236 . S
C4922 C2354 1.234 . S
C4931 C1886 1.238 . S
C4933 C2066 1.235 . S
C4942 C1922 1.225 . S
C4944 C2102 1.227 . S
C4953 C1958 1.230 . S
C4955 C2138 1.233 . S
C4964 C1994 1.241 . S
C4966 C2030 1.238 . S
C4975 C3362 1.229 . S
C4977 C2390 1.232 . S
C4986 C3254 1.226 . S
C4988 C2498 1.227 . S
C4997 C2750 1.240 . S
C4999 C2930 1.237 . S
C5008 C2786 1.240 . S
C5010 C2966 1.237 . S
C5019 C3002 1.243 . S
C5021 C2822 1.241 . S
C5030 C2858 1.240 . S
C5032 C2894 1.237 . S
C5041 C939 1.714 . S
C5043 C3 1.719 . S
C5052 C39 1.710 . S
C5054 C1839 1.719 . S
C5063 C75 1.711 1_545 S
C5065 C867 1.716 1_565 S
C5074 C1767 1.715 . S
C5076 C111 1.719 . S
C5085 C147 1.714 . S
C5087 C1083 1.713 . S
C5096 C183 1.720 . S
C5098 C1983 1.715 . S
C5107 C219 1.717 1_565 S
C5109 C1011 1.711 1_545 S
C5118 C255 1.712 . S
C5120 C1911 1.714 . S
C5129 C291 1.721 . S
C5131 C435 1.712 . S
C5140 C471 1.718 . S
C5142 C327 1.711 . S
C5151 C363 1.709 1_556 S
C5153 C507 1.716 1_554 S
C5162 C399 1.719 . S
C5164 C543 1.711 . S
C5173 C579 1.716 . S
C5175 C3279 1.719 . S
C5184 C2487 1.714 1_455 S
C5186 C615 1.708 1_655 S
C5195 C795 1.710 . S
C5197 C651 1.717 . S
C5206 C3171 1.717 1_655 S
C5208 C687 1.709 1_455 S
C5217 C3423 1.710 . S
C5219 C723 1.718 . S
C5228 C759 1.719 . S
C5230 C2343 1.711 . S
C5239 C3315 1.720 . S
C5241 C831 1.716 . S
C5250 C903 1.715 . S
C5252 C2703 1.712 . S
C5261 C2631 1.717 . S
C5263 C975 1.711 . S
C5272 C1047 1.711 . S
C5274 C2847 1.715 . S
C5283 C1119 1.716 . S
C5285 C2775 1.718 . S
C5294 C1299 1.707 1_554 S
C5296 C1155 1.716 1_556 S
C5305 C1335 1.716 . S
C5307 C1191 1.712 . S
C5316 C1371 1.717 . S
C5318 C1227 1.711 . S
C5327 C1407 1.717 . S
C5329 C1263 1.711 . S
C5338 C2415 1.712 . S
C5340 C1443 1.720 . S
C5349 C3351 1.713 1_455 S
C5351 C1479 1.715 1_655 S
C5360 C1515 1.720 . S
C5362 C1659 1.711 . S
C5371 C1551 1.717 1_455 S
C5373 C2307 1.711 1_655 S
C5382 C1587 1.719 . S
C5384 C2559 1.711 . S
C5393 C1623 1.711 . S
C5395 C3207 1.715 . S
C5404 C1695 1.717 . S
C5406 C2451 1.711 . S
C5415 C2667 1.719 . S
C5417 C1731 1.715 . S
C5426 C1803 1.709 1_545 S
C5428 C2595 1.716 1_565 S
C5437 C2811 1.717 . S
C5439 C1875 1.718 . S
C5448 C2739 1.715 1_545 S
C5450 C1947 1.708 1_565 S
C5459 C2163 1.707 1_554 S
C5461 C2019 1.714 1_556 S
C5470 C2055 1.717 . S
C5472 C2199 1.712 . S
C5481 C2091 1.720 . S
C5483 C2235 1.711 . S
C5492 C2271 1.712 . S
C5494 C2127 1.720 . S
C5503 C2523 1.721 . S
C5505 C2379 1.713 . S
C5514 C2883 1.720 . S
C5516 C3027 1.711 . S
C5525 C2919 1.713 . S
C5527 C3063 1.719 . S
C5536 C2955 1.707 1_556 S
C5538 C3099 1.714 1_554 S
C5547 C3135 1.718 . S
C5549 C2991 1.711 . S
C5558 C3387 1.710 . S
C5560 C3243 1.718 . S
