# Generated by pormake.
# Topology yfz, (5)-cn, num edge types: 1
# Building blocks:
#     Node 0, Type 0, BuildingBlock: XOMCOT_clean_sbu_1, # of connection points: 5
#     Node 1, Type 0, BuildingBlock: XOMCOT_clean_sbu_1, # of connection points: 5
#     Node 2, Type 0, BuildingBlock: XOMCOT_clean_sbu_1, # of connection points: 5
#     Node 3, Type 0, BuildingBlock: XOMCOT_clean_sbu_1, # of connection points: 5
#     Node 4, Type 0, BuildingBlock: XOMCOT_clean_sbu_1, # of connection points: 5
#     Node 5, Type 0, BuildingBlock: XOMCOT_clean_sbu_1, # of connection points: 5
#     Node 6, Type 0, BuildingBlock: XOMCOT_clean_sbu_1, # of connection points: 5
#     Node 7, Type 0, BuildingBlock: XOMCOT_clean_sbu_1, # of connection points: 5
#     Edge 8, Type (0, 0), BuildingBlock: CIFDUS_clean_linker_0, # of connection points: 2
#     Edge 9, Type (0, 0), BuildingBlock: CIFDUS_clean_linker_0, # of connection points: 2
#     Edge 10, Type (0, 0), BuildingBlock: CIFDUS_clean_linker_0, # of connection points: 2
#     Edge 11, Type (0, 0), BuildingBlock: CIFDUS_clean_linker_0, # of connection points: 2
#     Edge 12, Type (0, 0), BuildingBlock: CIFDUS_clean_linker_0, # of connection points: 2
#     Edge 13, Type (0, 0), BuildingBlock: CIFDUS_clean_linker_0, # of connection points: 2
#     Edge 14, Type (0, 0), BuildingBlock: CIFDUS_clean_linker_0, # of connection points: 2
#     Edge 15, Type (0, 0), BuildingBlock: CIFDUS_clean_linker_0, # of connection points: 2
#     Edge 16, Type (0, 0), BuildingBlock: CIFDUS_clean_linker_0, # of connection points: 2
#     Edge 17, Type (0, 0), BuildingBlock: CIFDUS_clean_linker_0, # of connection points: 2
#     Edge 18, Type (0, 0), BuildingBlock: CIFDUS_clean_linker_0, # of connection points: 2
#     Edge 19, Type (0, 0), BuildingBlock: CIFDUS_clean_linker_0, # of connection points: 2
#     Edge 20, Type (0, 0), BuildingBlock: CIFDUS_clean_linker_0, # of connection points: 2
#     Edge 21, Type (0, 0), BuildingBlock: CIFDUS_clean_linker_0, # of connection points: 2
#     Edge 22, Type (0, 0), BuildingBlock: CIFDUS_clean_linker_0, # of connection points: 2
#     Edge 23, Type (0, 0), BuildingBlock: CIFDUS_clean_linker_0, # of connection points: 2
#     Edge 24, Type (0, 0), BuildingBlock: CIFDUS_clean_linker_0, # of connection points: 2
#     Edge 25, Type (0, 0), BuildingBlock: CIFDUS_clean_linker_0, # of connection points: 2
#     Edge 26, Type (0, 0), BuildingBlock: CIFDUS_clean_linker_0, # of connection points: 2
#     Edge 27, Type (0, 0), BuildingBlock: CIFDUS_clean_linker_0, # of connection points: 2
# Relax obj value: 0.149
# Max RMSD: 0.137
# Mean RMSD: 0.137
data_MOF--net-yfz--node1-XOMCOT_clean_sbu_1--edge1-CIFDUS_clean_linker_0
_symmetry_space_group_name_H-M    P1
_symmetry_Int_Tables_number       1
_symmetry_cell_setting            triclinic
loop_
_symmetry_equiv_pos_as_xyz
'x, y, z'
_cell_length_a     46.559556
_cell_length_b     46.559937
_cell_length_c     15.717421
_cell_angle_alpha  89.982053
_cell_angle_beta   89.920049
_cell_angle_gamma 90.123333
loop_
_atom_site_label
_atom_site_type_symbol
_atom_site_fract_x
_atom_site_fract_y
_atom_site_fract_z
_atom_type_partial_charge
C0 C 0.54006 0.06133 0.22185 0.0
C1 C 0.5378 0.06269 0.13467 0.0
N2 N 0.54611 0.08908 0.10935 0.0
N3 N 0.54961 0.08681 0.25128 0.0
C4 C 0.55277 0.10334 0.18133 0.0
H5 H 0.53643 0.04245 0.2604 0.0
Co6 Co 0.5609 0.09593 0.36142 0.0
C7 C 0.53567 0.15534 0.38936 0.0
O8 O 0.54273 0.15705 0.46994 0.0
N9 N 0.57259 0.10428 0.47382 0.0
C10 C 0.59903 0.10645 0.5917 0.0
C11 C 0.59972 0.10494 0.50439 0.0
C12 C 0.5559 0.10477 0.54439 0.0
N13 N 0.5714 0.10612 0.61659 0.0
O14 O 0.52649 0.07804 0.40511 0.0
H15 H 0.61897 0.10254 0.4666 0.0
H16 H 0.53271 0.10344 0.54319 0.0
O17 O 0.54156 0.13278 0.34671 0.0
C18 C 0.53324 0.05336 0.43394 0.0
O19 O 0.55991 0.04471 0.42399 0.0
N20 N 0.59555 0.11123 0.3187 0.0
C21 C 0.65062 0.12663 0.26556 0.0
C22 C 0.63252 0.14695 0.30359 0.0
C23 C 0.60486 0.13888 0.32918 0.0
C24 C 0.61286 0.09133 0.28123 0.0
C25 C 0.64032 0.09867 0.25302 0.0
H26 H 0.59172 0.15448 0.36143 0.0
H27 H 0.6055 0.06937 0.27505 0.0
H28 H 0.56118 0.12502 0.18299 0.0
H29 H 0.53238 0.04502 0.09287 0.0
H30 H 0.61742 0.10576 0.63372 0.0
H31 H 0.63991 0.16868 0.31497 0.0
H32 H 0.65387 0.08228 0.22516 0.0
C33 C 0.40432 0.58452 0.76243 0.0
C34 C 0.40549 0.58411 0.67509 0.0
N35 N 0.38766 0.5633 0.64706 0.0
N36 N 0.38558 0.56432 0.78903 0.0
C37 C 0.37633 0.55135 0.71769 0.0
H38 H 0.4157 0.59919 0.80371 0.0
Co39 Co 0.37364 0.55764 0.89928 0.0
C40 C 0.31059 0.54725 0.88618 0.0
O41 O 0.30629 0.56127 0.95762 0.0
N42 N 0.36259 0.55006 0.01095 0.0
C43 C 0.34967 0.52408 0.12359 0.0
C44 C 0.34915 0.52576 0.03654 0.0
C45 C 0.37186 0.56228 0.08371 0.0
N46 N 0.36418 0.54701 0.1529 0.0
O47 O 0.38868 0.5195 0.89392 0.0
H48 H 0.34101 0.50932 0.99431 0.0
H49 H 0.38533 0.58107 0.08663 0.0
O50 O 0.33614 0.54435 0.85724 0.0
C51 C 0.41579 0.51988 0.9036 0.0
O52 O 0.42892 0.54476 0.91095 0.0
N53 N 0.36128 0.59631 0.90434 0.0
C54 C 0.3589 0.6558 0.87858 0.0
C55 C 0.33879 0.6375 0.84013 0.0
C56 C 0.34064 0.6078 0.85259 0.0
C57 C 0.38054 0.61397 0.94351 0.0
C58 C 0.37936 0.64369 0.93316 0.0
H59 H 0.32729 0.59432 0.81338 0.0
H60 H 0.39893 0.60493 0.97538 0.0
H61 H 0.3614 0.53357 0.71778 0.0
H62 H 0.41761 0.59881 0.63558 0.0
H63 H 0.34176 0.50642 0.16186 0.0
H64 H 0.3233 0.64574 0.79502 0.0
H65 H 0.39559 0.65689 0.96335 0.0
C66 C 0.92368 0.41309 0.24992 0.0
C67 C 0.92535 0.41682 0.16312 0.0
N68 N 0.92094 0.39132 0.12465 0.0
N69 N 0.9185 0.38524 0.26791 0.0
C70 C 0.9165 0.37261 0.18979 0.0
H71 H 0.92604 0.42993 0.29658 0.0
Co72 Co 0.91476 0.36895 0.37939 0.0
C73 C 0.94864 0.31445 0.35563 0.0
O74 O 0.96155 0.31515 0.42986 0.0
N75 N 0.91048 0.35253 0.49138 0.0
C76 C 0.89988 0.32117 0.59421 0.0
C77 C 0.90203 0.32534 0.50771 0.0
C78 C 0.91293 0.36452 0.57033 0.0
N79 N 0.90665 0.34586 0.63435 0.0
O80 O 0.95224 0.38294 0.40944 0.0
H81 H 0.8974 0.30941 0.4596 0.0
H82 H 0.91838 0.38674 0.58126 0.0
O83 O 0.93089 0.334 0.33497 0.0
C84 C 0.94997 0.40714 0.44664 0.0
O85 O 0.92423 0.4184 0.45458 0.0
N86 N 0.87754 0.35732 0.35251 0.0
C87 C 0.81961 0.34858 0.31606 0.0
C88 C 0.84038 0.32876 0.28888 0.0
C89 C 0.86935 0.33352 0.30772 0.0
C90 C 0.85768 0.37643 0.38081 0.0
C91 C 0.82859 0.37246 0.36361 0.0
H92 H 0.88499 0.31828 0.28484 0.0
H93 H 0.86462 0.39509 0.41636 0.0
H94 H 0.91197 0.35007 0.18073 0.0
H95 H 0.92914 0.43702 0.13092 0.0
H96 H 0.89381 0.30125 0.62484 0.0
H97 H 0.83442 0.31017 0.2514 0.0
H98 H 0.8133 0.38805 0.38718 0.0
C99 C 0.06672 0.88396 0.7386 0.0
C100 C 0.06397 0.88446 0.65158 0.0
N101 N 0.08057 0.90587 0.62133 0.0
N102 N 0.08523 0.90474 0.76256 0.0
C103 C 0.09304 0.91797 0.68988 0.0
H104 H 0.0564 0.86904 0.78167 0.0
Co105 Co 0.09746 0.91102 0.87263 0.0
C106 C 0.15871 0.92559 0.86034 0.0
O107 O 0.16255 0.90841 0.92577 0.0
N108 N 0.10859 0.91819 0.98545 0.0
C109 C 0.12193 0.94371 0.0985 0.0
C110 C 0.12057 0.94316 0.01151 0.0
C111 C 0.10173 0.9045 0.05855 0.0
N112 N 0.10988 0.91941 0.12821 0.0
O113 O 0.07808 0.94717 0.87408 0.0
H114 H 0.12691 0.96055 0.96986 0.0
H115 H 0.08906 0.88517 0.06165 0.0
O116 O 0.13335 0.92911 0.83051 0.0
C117 C 0.05172 0.94291 0.89159 0.0
O118 O 0.04263 0.91636 0.90127 0.0
N119 N 0.11417 0.8739 0.87066 0.0
C120 C 0.12627 0.81573 0.84348 0.0
C121 C 0.14096 0.83708 0.79811 0.0
C122 C 0.13422 0.86594 0.81133 0.0
C123 C 0.09936 0.85327 0.91404 0.0
C124 C 0.10551 0.82415 0.90306 0.0
H125 H 0.14363 0.8815 0.76871 0.0
H126 H 0.08079 0.85906 0.95118 0.0
H127 H 0.10828 0.93552 0.68685 0.0
H128 H 0.05094 0.87012 0.61347 0.0
H129 H 0.13039 0.96112 0.1366 0.0
H130 H 0.1566 0.8315 0.74983 0.0
H131 H 0.09263 0.80832 0.93633 0.0
C132 C 0.56563 0.40922 0.27132 0.0
C133 C 0.56501 0.41398 0.35778 0.0
N134 N 0.55341 0.39086 0.39666 0.0
N135 N 0.55439 0.38321 0.25399 0.0
C136 C 0.54698 0.37257 0.33187 0.0
H137 H 0.57496 0.42337 0.22416 0.0
Co138 Co 0.55579 0.36669 0.14281 0.0
C139 C 0.52736 0.30994 0.17351 0.0
O140 O 0.51086 0.31184 0.10602 0.0
N141 N 0.55783 0.35038 0.03019 0.0
C142 C 0.56884 0.32014 0.92519 0.0
C143 C 0.56898 0.3244 0.01183 0.0
C144 C 0.55145 0.36166 0.95227 0.0
N145 N 0.55774 0.34355 0.88687 0.0
O146 O 0.51659 0.37718 0.1236 0.0
H147 H 0.57742 0.30961 0.05858 0.0
H148 H 0.54263 0.38286 0.94325 0.0
O149 O 0.54497 0.33006 0.19101 0.0
C150 C 0.51737 0.40211 0.09025 0.0
O151 O 0.54251 0.4147 0.08136 0.0
N152 N 0.5946 0.35888 0.15928 0.0
C153 C 0.65369 0.3582 0.18697 0.0
C154 C 0.6352 0.34139 0.23729 0.0
C155 C 0.60558 0.34212 0.22264 0.0
C156 C 0.61224 0.37468 0.1084 0.0
C157 C 0.64186 0.37445 0.12055 0.0
H158 H 0.59151 0.33033 0.26477 0.0
H159 H 0.60311 0.3883 0.0597 0.0
H160 H 0.53743 0.3517 0.34123 0.0
H161 H 0.57379 0.43263 0.38966 0.0
H162 H 0.57722 0.3014 0.89307 0.0
H163 H 0.64336 0.32889 0.29007 0.0
H164 H 0.6553 0.38747 0.07949 0.0
C165 C 0.07003 0.58942 0.76904 0.0
C166 C 0.06749 0.58891 0.85618 0.0
N167 N 0.08291 0.56661 0.88571 0.0
N168 N 0.08731 0.56777 0.74416 0.0
C169 C 0.09443 0.55397 0.81649 0.0
H170 H 0.06039 0.60492 0.7266 0.0
Co171 Co 0.09948 0.56066 0.63386 0.0
C172 C 0.16106 0.54538 0.64984 0.0
O173 O 0.16639 0.55928 0.57871 0.0
N174 N 0.11069 0.55274 0.52153 0.0
C175 C 0.12355 0.52683 0.40874 0.0
C176 C 0.12205 0.52748 0.49585 0.0
C177 C 0.10454 0.5666 0.44823 0.0
N178 N 0.11236 0.55144 0.3787 0.0
O179 O 0.08079 0.52401 0.63614 0.0
H180 H 0.12796 0.51009 0.53791 0.0
H181 H 0.09269 0.58638 0.44487 0.0
O182 O 0.13527 0.54383 0.67788 0.0
C183 C 0.05385 0.52668 0.62538 0.0
O184 O 0.04302 0.55261 0.61857 0.0
N185 N 0.11573 0.59803 0.63208 0.0
C186 C 0.127 0.65662 0.65495 0.0
C187 C 0.14301 0.63586 0.6984 0.0
C188 C 0.13669 0.60678 0.68745 0.0
C189 C 0.09983 0.61806 0.58997 0.0
C190 C 0.1055 0.64739 0.59891 0.0
H191 H 0.14709 0.59182 0.72952 0.0
H192 H 0.08085 0.61156 0.55566 0.0
H193 H 0.10846 0.53551 0.8187 0.0
H194 H 0.05539 0.60386 0.89485 0.0
H195 H 0.13158 0.50921 0.37074 0.0
H196 H 0.15932 0.64207 0.74393 0.0
H197 H 0.09171 0.66271 0.56716 0.0
C198 C 0.88405 0.07218 0.23744 0.0
C199 C 0.88374 0.0711 0.32494 0.0
N200 N 0.90421 0.08905 0.35427 0.0
N201 N 0.90441 0.09093 0.21208 0.0
C202 C 0.91678 0.10022 0.28434 0.0
H203 H 0.86952 0.06101 0.1952 0.0
Co204 Co 0.91074 0.10379 0.10256 0.0
C205 C 0.92551 0.16588 0.12077 0.0
O206 O 0.91043 0.17173 0.05229 0.0
N207 N 0.91772 0.11572 0.99077 0.0
C208 C 0.94296 0.12826 0.87623 0.0
C209 C 0.94218 0.12848 0.96343 0.0
C210 C 0.90452 0.10707 0.91875 0.0
N211 N 0.91934 0.11454 0.84843 0.0
O212 O 0.94775 0.08601 0.1017 0.0
H213 H 0.9594 0.13569 1.00436 0.0
H214 H 0.88548 0.0939 0.91722 0.0
O215 O 0.92717 0.13991 0.14714 0.0
C216 C 0.94477 0.06166 0.06581 0.0
O217 O 0.91861 0.05314 0.04681 0.0
N218 N 0.87301 0.11866 0.10186 0.0
C219 C 0.8137 0.12843 0.1124 0.0
C220 C 0.83328 0.14651 0.15447 0.0
C221 C 0.86278 0.14082 0.15025 0.0
C222 C 0.85424 0.10061 0.06234 0.0
C223 C 0.82471 0.10523 0.0658 0.0
H224 H 0.87688 0.1533 0.19007 0.0
H225 H 0.86208 0.08116 0.03308 0.0
H226 H 0.93442 0.11527 0.28564 0.0
H227 H 0.86862 0.05916 0.36362 0.0
H228 H 0.96055 0.13562 0.83669 0.0
H229 H 0.82591 0.16436 0.19277 0.0
H230 H 0.81063 0.08966 0.03609 0.0
C231 C 0.40641 0.89838 0.80054 0.0
C232 C 0.40827 0.9004 0.88755 0.0
N233 N 0.38797 0.91885 0.91483 0.0
N234 N 0.38505 0.91543 0.77277 0.0
C235 C 0.3746 0.92806 0.8436 0.0
H236 H 0.4185 0.88386 0.76053 0.0
Co237 Co 0.37069 0.91421 0.66236 0.0
C238 C 0.3154 0.94756 0.67524 0.0
O239 O 0.31835 0.96093 0.60214 0.0
N240 N 0.35708 0.91224 0.55147 0.0
C241 C 0.33157 0.9041 0.43464 0.0
C242 C 0.33128 0.90345 0.52226 0.0
C243 C 0.37278 0.91752 0.48105 0.0
N244 N 0.35779 0.91292 0.40899 0.0
O245 O 0.38603 0.95191 0.64 0.0
H246 H 0.3136 0.89651 0.56204 0.0
H247 H 0.39496 0.92437 0.48257 0.0
O248 O 0.33463 0.93014 0.7009 0.0
C249 C 0.41313 0.95115 0.62895 0.0
O250 O 0.4262 0.92626 0.6358 0.0
N251 N 0.35744 0.87683 0.68341 0.0
C252 C 0.34734 0.81941 0.72472 0.0
C253 C 0.33192 0.8414 0.76502 0.0
C254 C 0.33746 0.87005 0.74401 0.0
C255 C 0.37202 0.85575 0.64178 0.0
C256 C 0.36725 0.82687 0.66125 0.0
H257 H 0.32667 0.88664 0.7797 0.0
H258 H 0.38822 0.86149 0.59535 0.0
H259 H 0.35678 0.9428 0.84341 0.0
H260 H 0.42199 0.88754 0.92789 0.0
H261 H 0.31418 0.89767 0.39316 0.0
H262 H 0.31676 0.83662 0.81542 0.0
H263 H 0.37949 0.81056 0.62821 0.0
H264 H 0.4697 0.95879 0.64757 0.0
H265 H 0.39447 -0.00033 0.54437 0.0
H266 H 0.42487 0.03681 0.47835 0.0
H267 H 0.47386 0.05484 0.43945 0.0
H268 H 0.54787 0.01135 0.54301 0.0
H269 H 0.51697 0.97822 0.61912 0.0
C270 C 0.45985 0.97599 0.61132 0.0
C271 C 0.42997 0.97635 0.60017 0.0
C272 C 0.47736 0.99669 0.57273 0.0
C273 C 0.41749 0.99898 0.55404 0.0
C274 C 0.4349 0.02007 0.51577 0.0
C275 C 0.48309 0.03825 0.47929 0.0
C276 C 0.51318 0.0353 0.48411 0.0
C277 C 0.465 0.01874 0.52293 0.0
C278 C 0.52485 0.01382 0.53654 0.0
C279 C 0.50719 0.99486 0.58059 0.0
H280 H 0.51666 0.43454 0.95047 0.0
H281 H 0.46131 0.40136 0.14732 0.0
H282 H 0.42207 0.43235 0.09679 0.0
H283 H 0.40644 0.47413 0.00866 0.0
H284 H 0.46424 0.50795 0.81876 0.0
H285 H 0.4995 0.47108 0.85309 0.0
C286 C 0.49587 0.4338 0.98174 0.0
C287 C 0.49191 0.4162 0.05333 0.0
C288 C 0.47392 0.45183 0.9533 0.0
C289 C 0.46479 0.41491 0.09222 0.0
C290 C 0.44248 0.43273 0.06357 0.0
C291 C 0.4264 0.47269 0.97328 0.0
C292 C 0.43289 0.49352 0.91114 0.0
C293 C 0.44712 0.452 0.99581 0.0
C294 C 0.45894 0.49202 0.8666 0.0
C295 C 0.47913 0.4711 0.88658 0.0
H296 H 0.9484 0.44613 0.57172 0.0
H297 H 0.00727 0.403 0.40308 0.0
H298 H 0.04655 0.43409 0.45305 0.0
H299 H 0.06243 0.47755 0.53341 0.0
H300 H 0.00146 0.5211 0.69467 0.0
H301 H 0.96478 0.48557 0.66002 0.0
C302 C 0.96987 0.44334 0.54613 0.0
C303 C 0.97486 0.42269 0.48273 0.0
C304 C 0.99196 0.46141 0.57413 0.0
C305 C 0.0029 0.4189 0.45165 0.0
C306 C 0.02529 0.43674 0.48003 0.0
C307 C 0.04131 0.47868 0.56241 0.0
C308 C 0.03451 0.5018 0.6165 0.0
C309 C 0.0199 0.45861 0.53974 0.0
C310 C 0.00703 0.50347 0.6528 0.0
C311 C 0.98605 0.48327 0.63273 0.0
H312 H 0.94316 0.01831 0.95346 0.0
H313 H 0.002 0.06643 0.11033 0.0
H314 H 0.04176 0.03575 0.06216 0.0
H315 H 0.0588 0.99265 0.98207 0.0
H316 H 0.99806 0.94484 0.83082 0.0
H317 H 0.96006 0.97838 0.86885 0.0
C318 C 0.96465 0.0222 0.97749 0.0
C319 C 0.96953 0.04432 0.03655 0.0
C320 C 0.9871 0.00463 0.9497 0.0
C321 C 0.99765 0.04934 0.06541 0.0
C322 C 0.02036 0.03183 0.03774 0.0
C323 C 0.03737 0.99013 0.95613 0.0
C324 C 0.03111 0.96649 0.90344 0.0
C325 C 0.01526 0.00913 0.98058 0.0
C326 C 0.00324 0.96295 0.87133 0.0
C327 C 0.98151 0.98201 0.89341 0.0
H328 H 0.54491 0.21015 0.43883 0.0
H329 H 0.50928 0.15982 0.23413 0.0
H330 H 0.50118 0.20365 0.1512 0.0
H331 H 0.50749 0.25618 0.13334 0.0
H332 H 0.54822 0.30449 0.33434 0.0
H333 H 0.55078 0.26178 0.42202 0.0
C334 C 0.53489 0.20874 0.3767 0.0
C335 C 0.52749 0.18179 0.34305 0.0
C336 C 0.53136 0.23379 0.3283 0.0
C337 C 0.51506 0.18036 0.26164 0.0
C338 C 0.51053 0.2054 0.21409 0.0
C339 C 0.5166 0.25738 0.1967 0.0
C340 C 0.52727 0.28375 0.22734 0.0
C341 C 0.51909 0.23224 0.24617 0.0
C342 C 0.53948 0.28476 0.30911 0.0
C343 C 0.5411 0.26021 0.35949 0.0
H344 H 0.21624 0.53606 0.60307 0.0
H345 H 0.16082 0.5392 0.82306 0.0
H346 H 0.20253 0.53719 0.91671 0.0
H347 H 0.25494 0.5407 0.93546 0.0
H348 H 0.31013 0.53759 0.71525 0.0
H349 H 0.26846 0.53317 0.62248 0.0
C350 C 0.21327 0.53578 0.67154 0.0
C351 C 0.18548 0.5381 0.70594 0.0
C352 C 0.23737 0.53494 0.72502 0.0
C353 C 0.18193 0.53737 0.79477 0.0
C354 C 0.20583 0.53647 0.84847 0.0
C355 C 0.25784 0.53863 0.86726 0.0
C356 C 0.28564 0.53983 0.83217 0.0
C357 C 0.23367 0.53621 0.81422 0.0
C358 C 0.28905 0.53673 0.74384 0.0
C359 C 0.26517 0.53436 0.69067 0.0
H360 H 0.93247 0.22129 0.07267 0.0
H361 H 0.94391 0.16458 0.28659 0.0
H362 H 0.95523 0.20549 0.37795 0.0
H363 H 0.95666 0.25823 0.39991 0.0
H364 H 0.94605 0.31419 0.18373 0.0
H365 H 0.93988 0.27291 0.09042 0.0
C366 C 0.93773 0.2178 0.13908 0.0
C367 C 0.93669 0.18991 0.17315 0.0
C368 C 0.94422 0.24144 0.19104 0.0
C369 C 0.94413 0.1858 0.25895 0.0
C370 C 0.95061 0.20925 0.31131 0.0
C371 C 0.95365 0.26129 0.3321 0.0
C372 C 0.95109 0.28923 0.29899 0.0
C373 C 0.94998 0.23729 0.27854 0.0
C374 C 0.94721 0.29291 0.21103 0.0
C375 C 0.94381 0.2693 0.15754 0.0
H376 H 0.26122 0.95957 0.61624 0.0
H377 H 0.30827 0.9378 0.84331 0.0
H378 H 0.2639 0.93282 0.92254 0.0
H379 H 0.212 0.9294 0.92446 0.0
H380 H 0.16323 0.94763 0.69782 0.0
H381 H 0.20774 0.95967 0.62168 0.0
C382 C 0.26169 0.95434 0.68345 0.0
C383 C 0.28818 0.94909 0.72387 0.0
C384 C 0.2357 0.95057 0.72848 0.0
C385 C 0.28837 0.94199 0.81069 0.0
C386 C 0.2629 0.93901 0.8561 0.0
C387 C 0.21097 0.93628 0.85857 0.0
C388 C 0.18439 0.93727 0.81661 0.0
C389 C 0.2365 0.94243 0.81511 0.0
C390 C 0.18346 0.94664 0.73161 0.0
C391 C 0.20893 0.95336 0.68795 0.0
H392 H 0.38989 0.78115 0.75474 0.0
H393 H 0.29771 0.78985 0.76011 0.0
H394 H 0.29297 0.74027 0.8105 0.0
H395 H 0.31526 0.69427 0.8526 0.0
H396 H 0.4076 0.68621 0.84394 0.0
H397 H 0.41197 0.73568 0.79597 0.0
C398 C 0.36873 0.7721 0.76591 0.0
C399 C 0.34419 0.78909 0.75296 0.0
C400 C 0.36619 0.74374 0.79515 0.0
C401 C 0.31696 0.77724 0.76979 0.0
C402 C 0.31424 0.74889 0.79845 0.0
C403 C 0.33632 0.70336 0.84013 0.0
C404 C 0.36105 0.68653 0.85299 0.0
C405 C 0.33874 0.73191 0.81143 0.0
C406 C 0.38819 0.69875 0.83676 0.0
C407 C 0.39074 0.72701 0.80838 0.0
H408 H 0.78281 0.38999 0.26392 0.0
H409 H 0.78743 0.2991 0.3153 0.0
H410 H 0.73664 0.29378 0.27834 0.0
H411 H 0.69066 0.3153 0.23316 0.0
H412 H 0.68654 0.40665 0.18725 0.0
H413 H 0.73734 0.41139 0.22068 0.0
C414 C 0.77266 0.36904 0.26801 0.0
C415 C 0.78886 0.34503 0.29295 0.0
C416 C 0.74352 0.3662 0.24739 0.0
C417 C 0.77551 0.31792 0.29576 0.0
C418 C 0.74643 0.31489 0.27506 0.0
C419 C 0.70087 0.33624 0.23093 0.0
C420 C 0.6848 0.36052 0.207 0.0
C421 C 0.73018 0.33893 0.25109 0.0
C422 C 0.69845 0.38749 0.20374 0.0
C423 C 0.72749 0.39029 0.22349 0.0
H424 H 0.12902 0.79179 0.68604 0.0
H425 H 0.1312 0.77046 0.95307 0.0
H426 H 0.13337 0.71932 0.91789 0.0
H427 H 0.13181 0.68077 0.81154 0.0
H428 H 0.12857 0.70201 0.54455 0.0
H429 H 0.12982 0.75322 0.5794 0.0
C430 C 0.13054 0.77598 0.73652 0.0
C431 C 0.13007 0.7849 0.8221 0.0
C432 C 0.1314 0.74665 0.7158 0.0
C433 C 0.13138 0.7641 0.88678 0.0
C434 C 0.13266 0.7349 0.86668 0.0
C435 C 0.13195 0.69659 0.76087 0.0
C436 C 0.13024 0.6876 0.6755 0.0
C437 C 0.1323 0.72593 0.78145 0.0
C438 C 0.12975 0.7084 0.61072 0.0
C439 C 0.1305 0.73765 0.63063 0.0
H440 H 0.78418 0.14596 0.25412 0.0
H441 H 0.77147 0.11813 0.99467 0.0
H442 H 0.71975 0.11631 0.01796 0.0
H443 H 0.67833 0.11898 0.11532 0.0
H444 H 0.69073 0.14926 0.37173 0.0
H445 H 0.74231 0.15458 0.3455 0.0
C446 C 0.77019 0.14022 0.20176 0.0
C447 C 0.78199 0.1317 0.1231 0.0
C448 C 0.74033 0.13959 0.21511 0.0
C449 C 0.76321 0.12405 0.05665 0.0
C450 C 0.73354 0.12314 0.06968 0.0
C451 C 0.69236 0.12709 0.1649 0.0
C452 C 0.68092 0.13356 0.24538 0.0
C453 C 0.72192 0.13019 0.14923 0.0
C454 C 0.69913 0.14429 0.30913 0.0
C455 C 0.7286 0.14715 0.2943 0.0
H456 H 0.59434 0.12941 0.75691 0.0
H457 H 0.52505 0.07563 0.66852 0.0
H458 H 0.5096 0.06723 0.81492 0.0
H459 H 0.51779 0.07265 0.96863 0.0
H460 H 0.58798 0.12542 0.05666 0.0
H461 H 0.60088 0.13699 0.91032 0.0
C462 C 0.57582 0.11595 0.76997 0.0
C463 C 0.56094 0.10313 0.70224 0.0
C464 C 0.56722 0.11102 0.85425 0.0
C465 C 0.53669 0.08603 0.71956 0.0
C466 C 0.52797 0.08103 0.80328 0.0
C467 C 0.53582 0.08676 0.95558 0.0
C468 C 0.55189 0.09806 0.0234 0.0
C469 C 0.54336 0.09305 0.87116 0.0
C470 C 0.57498 0.11669 1.00579 0.0
C471 C 0.58256 0.12313 0.92202 0.0
H472 H 0.41865 0.57547 0.50648 0.0
H473 H 0.33889 0.53741 0.5911 0.0
H474 H 0.32487 0.52872 0.44496 0.0
H475 H 0.3344 0.53319 0.29254 0.0
H476 H 0.41347 0.57201 0.20683 0.0
H477 H 0.42818 0.58 0.35388 0.0
C478 C 0.39812 0.56547 0.49315 0.0
C479 C 0.37995 0.55716 0.56029 0.0
C480 C 0.38987 0.56096 0.40856 0.0
C481 C 0.3536 0.54373 0.54139 0.0
C482 C 0.34538 0.53893 0.45749 0.0
C483 C 0.35491 0.54322 0.30625 0.0
C484 C 0.37272 0.55211 0.23923 0.0
C485 C 0.36327 0.54759 0.39067 0.0
C486 C 0.39913 0.56543 0.25746 0.0
C487 C 0.40767 0.56978 0.34147 0.0
H488 H 0.89303 0.34927 0.03595 0.0
H489 H 0.95076 0.42109 1.00506 0.0
H490 H 0.9511 0.41395 0.85156 0.0
H491 H 0.93523 0.38729 0.72396 0.0
H492 H 0.87694 0.31583 0.75456 0.0
H493 H 0.87703 0.32266 0.90797 0.0
C494 C 0.90585 0.36324 0.99584 0.0
C495 C 0.92166 0.38588 0.03324 0.0
C496 C 0.90596 0.35907 0.90638 0.0
C497 C 0.93793 0.4038 0.97906 0.0
C498 C 0.93828 0.39965 0.89069 0.0
C499 C 0.92235 0.37331 0.76382 0.0
C500 C 0.90628 0.35089 0.72611 0.0
C501 C 0.92227 0.37745 0.85326 0.0
C502 C 0.88999 0.33296 0.78037 0.0
C503 C 0.88987 0.33694 0.86886 0.0
H504 H 0.10571 0.9562 0.26035 0.0
H505 H 0.10099 0.86631 0.19411 0.0
H506 H 0.0902 0.85423 0.34175 0.0
H507 H 0.08302 0.86917 0.49011 0.0
H508 H 0.08991 0.9587 0.55681 0.0
H509 H 0.09965 0.97098 0.40822 0.0
C510 C 0.10274 0.93391 0.27798 0.0
C511 C 0.10416 0.91223 0.2158 0.0
C512 C 0.097 0.92708 0.36308 0.0
C513 C 0.09963 0.8835 0.24021 0.0
C514 C 0.09362 0.87654 0.32476 0.0
C515 C 0.08636 0.89137 0.47175 0.0
C516 C 0.08562 0.91305 0.53381 0.0
C517 C 0.09223 0.89817 0.38663 0.0
C518 C 0.09057 0.94169 0.5099 0.0
C519 C 0.09603 0.94869 0.42512 0.0
H520 H 0.55233 0.34007 0.48399 0.0
H521 H 0.54916 0.43189 0.51888 0.0
H522 H 0.54956 0.42565 0.6728 0.0
H523 H 0.55296 0.39428 0.79956 0.0
H524 H 0.55468 0.30237 0.76429 0.0
H525 H 0.55266 0.30862 0.61088 0.0
C526 C 0.55134 0.35874 0.525 0.0
C527 C 0.55104 0.38648 0.48844 0.0
C528 C 0.55158 0.35504 0.61467 0.0
C529 C 0.54997 0.41027 0.54398 0.0
C530 C 0.55007 0.40673 0.63266 0.0
C531 C 0.5526 0.37555 0.75872 0.0
C532 C 0.55447 0.34784 0.7952 0.0
C533 C 0.55126 0.37923 0.66909 0.0
C534 C 0.554 0.32403 0.73957 0.0
C535 C 0.55264 0.32755 0.65102 0.0
H536 H 0.08724 0.60299 0.0175 0.0
H537 H 0.0904 0.51337 0.94963 0.0
H538 H 0.10013 0.50057 0.09774 0.0
H539 H 0.10708 0.51494 0.24597 0.0
H540 H 0.10577 0.60486 0.31302 0.0
H541 H 0.09535 0.61746 0.16573 0.0
C542 C 0.08975 0.58066 0.03545 0.0
C543 C 0.08795 0.55912 0.97309 0.0
C544 C 0.09559 0.57354 0.12035 0.0
C545 C 0.09187 0.53029 0.99664 0.0
C546 C 0.09733 0.52299 0.08121 0.0
C547 C 0.10492 0.53733 0.22854 0.0
C548 C 0.10715 0.55887 0.291 0.0
C549 C 0.0993 0.54446 0.14352 0.0
C550 C 0.10374 0.58776 0.26681 0.0
C551 C 0.09793 0.59502 0.18242 0.0
H552 H 0.89135 0.0587 0.49574 0.0
H553 H 0.92784 0.13896 0.40961 0.0
H554 H 0.93584 0.15373 0.55548 0.0
H555 H 0.9319 0.14441 0.70814 0.0
H556 H 0.89423 0.06511 0.79594 0.0
H557 H 0.88636 0.04984 0.6491 0.0
C558 C 0.90087 0.07948 0.50878 0.0
C559 C 0.90925 0.09744 0.4412 0.0
C560 C 0.90488 0.08821 0.59333 0.0
C561 C 0.9218 0.12426 0.45967 0.0
C562 C 0.92613 0.13295 0.54341 0.0
C563 C 0.92206 0.12377 0.69488 0.0
C564 C 0.9136 0.10599 0.7624 0.0
C565 C 0.91775 0.11511 0.61063 0.0
C566 C 0.90052 0.0794 0.74486 0.0
C567 C 0.89624 0.07055 0.66098 0.0
H568 H 0.32666 0.92544 0.26963 0.0
H569 H 0.41257 0.90617 0.35438 0.0
H570 H 0.43008 0.90893 0.20839 0.0
H571 H 0.42057 0.91431 0.05569 0.0
H572 H 0.33425 0.93155 0.97074 0.0
H573 H 0.31749 0.93256 0.11724 0.0
C574 C 0.34918 0.92173 0.25606 0.0
C575 C 0.36819 0.91546 0.32291 0.0
C576 C 0.3591 0.92314 0.17177 0.0
C577 C 0.39746 0.91128 0.30442 0.0
C578 C 0.4075 0.91271 0.22079 0.0
C579 C 0.39811 0.91833 0.06921 0.0
C580 C 0.37877 0.92272 1.00179 0.0
C581 C 0.38845 0.91829 0.15386 0.0
C582 C 0.34979 0.92844 0.02079 0.0
C583 C 0.34007 0.92873 0.10484 0.0
loop_
_geom_bond_atom_site_label_1
_geom_bond_atom_site_label_2
_geom_bond_distance
_geom_bond_site_symmetry_2
_ccdc_geom_bond_type
C0 C1 1.351 . S
C0 N3 1.368 . S
C0 H5 0.931 . S
C1 C0 1.351 . S
C1 N2 1.373 . S
C1 H29 0.930 . S
N2 C1 1.373 . S
N2 C4 1.340 . S
N3 C0 1.368 . S
N3 C4 1.321 . S
N3 Co6 2.135 . S
C4 N2 1.340 . S
C4 N3 1.321 . S
C4 H28 0.930 . S
H5 C0 0.931 . S
Co6 N3 2.135 . S
Co6 N9 2.121 . S
Co6 O14 2.055 . S
Co6 O17 2.039 . S
Co6 N20 2.140 . S
C7 O8 1.227 . S
C7 O17 1.265 . S
O8 C7 1.227 . S
N9 Co6 2.121 . S
N9 C11 1.375 . S
N9 C12 1.313 . S
C10 C11 1.338 . S
C10 N13 1.377 . S
C10 H30 0.930 . S
C11 N9 1.375 . S
C11 C10 1.338 . S
C11 H15 0.931 . S
C12 N9 1.313 . S
C12 N13 1.344 . S
C12 H16 0.930 . S
N13 C10 1.377 . S
N13 C12 1.344 . S
O14 Co6 2.055 . S
O14 C18 1.253 . S
H15 C11 0.931 . S
H16 C12 0.930 . S
O17 Co6 2.039 . S
O17 C7 1.265 . S
C18 O14 1.253 . S
C18 O19 1.227 . S
O19 C18 1.227 . S
N20 Co6 2.140 . S
N20 C23 1.346 . S
N20 C24 1.345 . S
C21 C22 1.387 . S
C21 C25 1.391 . S
C22 C21 1.387 . S
C22 C23 1.369 . S
C22 H31 0.929 . S
C23 N20 1.346 . S
C23 C22 1.369 . S
C23 H26 0.928 . S
C24 N20 1.345 . S
C24 C25 1.371 . S
C24 H27 0.931 . S
C25 C21 1.391 . S
C25 C24 1.371 . S
C25 H32 0.930 . S
H26 C23 0.928 . S
H27 C24 0.931 . S
H28 C4 0.930 . S
H29 C1 0.930 . S
H30 C10 0.930 . S
H31 C22 0.929 . S
H32 C25 0.930 . S
C33 C34 1.351 . S
C33 N36 1.368 . S
C33 H38 0.931 . S
C34 C33 1.351 . S
C34 N35 1.373 . S
C34 H62 0.930 . S
N35 C34 1.373 . S
N35 C37 1.340 . S
N36 C33 1.368 . S
N36 C37 1.321 . S
N36 Co39 2.135 . S
C37 N35 1.340 . S
C37 N36 1.321 . S
C37 H61 0.930 . S
H38 C33 0.931 . S
Co39 N36 2.135 . S
Co39 N42 2.121 . S
Co39 O47 2.055 . S
Co39 O50 2.039 . S
Co39 N53 2.140 . S
C40 O41 1.227 . S
C40 O50 1.265 . S
O41 C40 1.227 . S
N42 Co39 2.121 . S
N42 C44 1.375 . S
N42 C45 1.313 1_556 S
C43 C44 1.338 1_554 S
C43 N46 1.377 . S
C43 H63 0.930 . S
C44 N42 1.375 . S
C44 C43 1.338 1_556 S
C44 H48 0.931 . S
C45 N42 1.313 1_554 S
C45 N46 1.344 . S
C45 H49 0.930 . S
N46 C43 1.377 . S
N46 C45 1.344 . S
O47 Co39 2.055 . S
O47 C51 1.253 . S
H48 C44 0.931 . S
H49 C45 0.930 . S
O50 Co39 2.039 . S
O50 C40 1.265 . S
C51 O47 1.253 . S
C51 O52 1.227 . S
O52 C51 1.227 . S
N53 Co39 2.140 . S
N53 C56 1.346 . S
N53 C57 1.345 . S
C54 C55 1.387 . S
C54 C58 1.391 . S
C55 C54 1.387 . S
C55 C56 1.369 . S
C55 H64 0.929 . S
C56 N53 1.346 . S
C56 C55 1.369 . S
C56 H59 0.928 . S
C57 N53 1.345 . S
C57 C58 1.371 . S
C57 H60 0.931 . S
C58 C54 1.391 . S
C58 C57 1.371 . S
C58 H65 0.930 . S
H59 C56 0.928 . S
H60 C57 0.931 . S
H61 C37 0.930 . S
H62 C34 0.930 . S
H63 C43 0.930 . S
H64 C55 0.929 . S
H65 C58 0.930 . S
C66 C67 1.351 . S
C66 N69 1.368 . S
C66 H71 0.931 . S
C67 C66 1.351 . S
C67 N68 1.373 . S
C67 H95 0.930 . S
N68 C67 1.373 . S
N68 C70 1.340 . S
N69 C66 1.368 . S
N69 C70 1.321 . S
N69 Co72 2.135 . S
C70 N68 1.340 . S
C70 N69 1.321 . S
C70 H94 0.930 . S
H71 C66 0.931 . S
Co72 N69 2.135 . S
Co72 N75 2.121 . S
Co72 O80 2.055 . S
Co72 O83 2.039 . S
Co72 N86 2.140 . S
C73 O74 1.227 . S
C73 O83 1.265 . S
O74 C73 1.227 . S
N75 Co72 2.121 . S
N75 C77 1.375 . S
N75 C78 1.313 . S
C76 C77 1.338 . S
C76 N79 1.377 . S
C76 H96 0.930 . S
C77 N75 1.375 . S
C77 C76 1.338 . S
C77 H81 0.931 . S
C78 N75 1.313 . S
C78 N79 1.344 . S
C78 H82 0.930 . S
N79 C76 1.377 . S
N79 C78 1.344 . S
O80 Co72 2.055 . S
O80 C84 1.253 . S
H81 C77 0.931 . S
H82 C78 0.930 . S
O83 Co72 2.039 . S
O83 C73 1.265 . S
C84 O80 1.253 . S
C84 O85 1.227 . S
O85 C84 1.227 . S
N86 Co72 2.140 . S
N86 C89 1.346 . S
N86 C90 1.345 . S
C87 C88 1.387 . S
C87 C91 1.391 . S
C88 C87 1.387 . S
C88 C89 1.369 . S
C88 H97 0.929 . S
C89 N86 1.346 . S
C89 C88 1.369 . S
C89 H92 0.928 . S
C90 N86 1.345 . S
C90 C91 1.371 . S
C90 H93 0.931 . S
C91 C87 1.391 . S
C91 C90 1.371 . S
C91 H98 0.930 . S
H92 C89 0.928 . S
H93 C90 0.931 . S
H94 C70 0.930 . S
H95 C67 0.930 . S
H96 C76 0.930 . S
H97 C88 0.929 . S
H98 C91 0.930 . S
C99 C100 1.351 . S
C99 N102 1.368 . S
C99 H104 0.931 . S
C100 C99 1.351 . S
C100 N101 1.373 . S
C100 H128 0.930 . S
N101 C100 1.373 . S
N101 C103 1.340 . S
N102 C99 1.368 . S
N102 C103 1.321 . S
N102 Co105 2.135 . S
C103 N101 1.340 . S
C103 N102 1.321 . S
C103 H127 0.930 . S
H104 C99 0.931 . S
Co105 N102 2.135 . S
Co105 N108 2.121 . S
Co105 O113 2.055 . S
Co105 O116 2.039 . S
Co105 N119 2.140 . S
C106 O107 1.227 . S
C106 O116 1.265 . S
O107 C106 1.227 . S
N108 Co105 2.121 . S
N108 C110 1.375 . S
N108 C111 1.313 1_556 S
C109 C110 1.338 1_554 S
C109 N112 1.377 . S
C109 H129 0.930 . S
C110 N108 1.375 . S
C110 C109 1.338 1_556 S
C110 H114 0.931 . S
C111 N108 1.313 1_554 S
C111 N112 1.344 . S
C111 H115 0.930 . S
N112 C109 1.377 . S
N112 C111 1.344 . S
O113 Co105 2.055 . S
O113 C117 1.253 . S
H114 C110 0.931 . S
H115 C111 0.930 . S
O116 Co105 2.039 . S
O116 C106 1.265 . S
C117 O113 1.253 . S
C117 O118 1.227 . S
O118 C117 1.227 . S
N119 Co105 2.140 . S
N119 C122 1.346 . S
N119 C123 1.345 . S
C120 C121 1.387 . S
C120 C124 1.391 . S
C121 C120 1.387 . S
C121 C122 1.369 . S
C121 H130 0.929 . S
C122 N119 1.346 . S
C122 C121 1.369 . S
C122 H125 0.928 . S
C123 N119 1.345 . S
C123 C124 1.371 . S
C123 H126 0.931 . S
C124 C120 1.391 . S
C124 C123 1.371 . S
C124 H131 0.930 . S
H125 C122 0.928 . S
H126 C123 0.931 . S
H127 C103 0.930 . S
H128 C100 0.930 . S
H129 C109 0.930 . S
H130 C121 0.929 . S
H131 C124 0.930 . S
C132 C133 1.351 . S
C132 N135 1.368 . S
C132 H137 0.931 . S
C133 C132 1.351 . S
C133 N134 1.373 . S
C133 H161 0.930 . S
N134 C133 1.373 . S
N134 C136 1.340 . S
N135 C132 1.368 . S
N135 C136 1.321 . S
N135 Co138 2.135 . S
C136 N134 1.340 . S
C136 N135 1.321 . S
C136 H160 0.930 . S
H137 C132 0.931 . S
Co138 N135 2.135 . S
Co138 N141 2.121 . S
Co138 O146 2.055 . S
Co138 O149 2.039 . S
Co138 N152 2.140 . S
C139 O140 1.227 . S
C139 O149 1.265 . S
O140 C139 1.227 . S
N141 Co138 2.121 . S
N141 C143 1.375 . S
N141 C144 1.313 1_554 S
C142 C143 1.338 1_556 S
C142 N145 1.377 . S
C142 H162 0.930 . S
C143 N141 1.375 . S
C143 C142 1.338 1_554 S
C143 H147 0.931 . S
C144 N141 1.313 1_556 S
C144 N145 1.344 . S
C144 H148 0.930 . S
N145 C142 1.377 . S
N145 C144 1.344 . S
O146 Co138 2.055 . S
O146 C150 1.253 . S
H147 C143 0.931 . S
H148 C144 0.930 . S
O149 Co138 2.039 . S
O149 C139 1.265 . S
C150 O146 1.253 . S
C150 O151 1.227 . S
O151 C150 1.227 . S
N152 Co138 2.140 . S
N152 C155 1.346 . S
N152 C156 1.345 . S
C153 C154 1.387 . S
C153 C157 1.391 . S
C154 C153 1.387 . S
C154 C155 1.369 . S
C154 H163 0.929 . S
C155 N152 1.346 . S
C155 C154 1.369 . S
C155 H158 0.928 . S
C156 N152 1.345 . S
C156 C157 1.371 . S
C156 H159 0.931 . S
C157 C153 1.391 . S
C157 C156 1.371 . S
C157 H164 0.930 . S
H158 C155 0.928 . S
H159 C156 0.931 . S
H160 C136 0.930 . S
H161 C133 0.930 . S
H162 C142 0.930 . S
H163 C154 0.929 . S
H164 C157 0.930 . S
C165 C166 1.351 . S
C165 N168 1.368 . S
C165 H170 0.931 . S
C166 C165 1.351 . S
C166 N167 1.373 . S
C166 H194 0.930 . S
N167 C166 1.373 . S
N167 C169 1.340 . S
N168 C165 1.368 . S
N168 C169 1.321 . S
N168 Co171 2.135 . S
C169 N167 1.340 . S
C169 N168 1.321 . S
C169 H193 0.930 . S
H170 C165 0.931 . S
Co171 N168 2.135 . S
Co171 N174 2.121 . S
Co171 O179 2.055 . S
Co171 O182 2.039 . S
Co171 N185 2.140 . S
C172 O173 1.227 . S
C172 O182 1.265 . S
O173 C172 1.227 . S
N174 Co171 2.121 . S
N174 C176 1.375 . S
N174 C177 1.313 . S
C175 C176 1.338 . S
C175 N178 1.377 . S
C175 H195 0.930 . S
C176 N174 1.375 . S
C176 C175 1.338 . S
C176 H180 0.931 . S
C177 N174 1.313 . S
C177 N178 1.344 . S
C177 H181 0.930 . S
N178 C175 1.377 . S
N178 C177 1.344 . S
O179 Co171 2.055 . S
O179 C183 1.253 . S
H180 C176 0.931 . S
H181 C177 0.930 . S
O182 Co171 2.039 . S
O182 C172 1.265 . S
C183 O179 1.253 . S
C183 O184 1.227 . S
O184 C183 1.227 . S
N185 Co171 2.140 . S
N185 C188 1.346 . S
N185 C189 1.345 . S
C186 C187 1.387 . S
C186 C190 1.391 . S
C187 C186 1.387 . S
C187 C188 1.369 . S
C187 H196 0.929 . S
C188 N185 1.346 . S
C188 C187 1.369 . S
C188 H191 0.928 . S
C189 N185 1.345 . S
C189 C190 1.371 . S
C189 H192 0.931 . S
C190 C186 1.391 . S
C190 C189 1.371 . S
C190 H197 0.930 . S
H191 C188 0.928 . S
H192 C189 0.931 . S
H193 C169 0.930 . S
H194 C166 0.930 . S
H195 C175 0.930 . S
H196 C187 0.929 . S
H197 C190 0.930 . S
C198 C199 1.351 . S
C198 N201 1.368 . S
C198 H203 0.931 . S
C199 C198 1.351 . S
C199 N200 1.373 . S
C199 H227 0.930 . S
N200 C199 1.373 . S
N200 C202 1.340 . S
N201 C198 1.368 . S
N201 C202 1.321 . S
N201 Co204 2.135 . S
C202 N200 1.340 . S
C202 N201 1.321 . S
C202 H226 0.930 . S
H203 C198 0.931 . S
Co204 N201 2.135 . S
Co204 N207 2.121 . S
Co204 O212 2.055 . S
Co204 O215 2.039 . S
Co204 N218 2.140 . S
C205 O206 1.227 . S
C205 O215 1.265 . S
O206 C205 1.227 . S
N207 Co204 2.121 . S
N207 C209 1.375 . S
N207 C210 1.313 1_554 S
C208 C209 1.338 1_556 S
C208 N211 1.377 . S
C208 H228 0.930 . S
C209 N207 1.375 . S
C209 C208 1.338 1_554 S
C209 H213 0.931 . S
C210 N207 1.313 1_556 S
C210 N211 1.344 . S
C210 H214 0.930 . S
N211 C208 1.377 . S
N211 C210 1.344 . S
O212 Co204 2.055 . S
O212 C216 1.253 . S
H213 C209 0.931 . S
H214 C210 0.930 . S
O215 Co204 2.039 . S
O215 C205 1.265 . S
C216 O212 1.253 . S
C216 O217 1.227 . S
O217 C216 1.227 . S
N218 Co204 2.140 . S
N218 C221 1.346 . S
N218 C222 1.345 . S
C219 C220 1.387 . S
C219 C223 1.391 . S
C220 C219 1.387 . S
C220 C221 1.369 . S
C220 H229 0.929 . S
C221 N218 1.346 . S
C221 C220 1.369 . S
C221 H224 0.928 . S
C222 N218 1.345 . S
C222 C223 1.371 . S
C222 H225 0.931 . S
C223 C219 1.391 . S
C223 C222 1.371 . S
C223 H230 0.930 . S
H224 C221 0.928 . S
H225 C222 0.931 . S
H226 C202 0.930 . S
H227 C199 0.930 . S
H228 C208 0.930 . S
H229 C220 0.929 . S
H230 C223 0.930 . S
C231 C232 1.351 . S
C231 N234 1.368 . S
C231 H236 0.931 . S
C232 C231 1.351 . S
C232 N233 1.373 . S
C232 H260 0.930 . S
N233 C232 1.373 . S
N233 C235 1.340 . S
N234 C231 1.368 . S
N234 C235 1.321 . S
N234 Co237 2.135 . S
C235 N233 1.340 . S
C235 N234 1.321 . S
C235 H259 0.930 . S
H236 C231 0.931 . S
Co237 N234 2.135 . S
Co237 N240 2.121 . S
Co237 O245 2.055 . S
Co237 O248 2.039 . S
Co237 N251 2.140 . S
C238 O239 1.227 . S
C238 O248 1.265 . S
O239 C238 1.227 . S
N240 Co237 2.121 . S
N240 C242 1.375 . S
N240 C243 1.313 . S
C241 C242 1.338 . S
C241 N244 1.377 . S
C241 H261 0.930 . S
C242 N240 1.375 . S
C242 C241 1.338 . S
C242 H246 0.931 . S
C243 N240 1.313 . S
C243 N244 1.344 . S
C243 H247 0.930 . S
N244 C241 1.377 . S
N244 C243 1.344 . S
O245 Co237 2.055 . S
O245 C249 1.253 . S
H246 C242 0.931 . S
H247 C243 0.930 . S
O248 Co237 2.039 . S
O248 C238 1.265 . S
C249 O245 1.253 . S
C249 O250 1.227 . S
O250 C249 1.227 . S
N251 Co237 2.140 . S
N251 C254 1.346 . S
N251 C255 1.345 . S
C252 C253 1.387 . S
C252 C256 1.391 . S
C253 C252 1.387 . S
C253 C254 1.369 . S
C253 H262 0.929 . S
C254 N251 1.346 . S
C254 C253 1.369 . S
C254 H257 0.928 . S
C255 N251 1.345 . S
C255 C256 1.371 . S
C255 H258 0.931 . S
C256 C252 1.391 . S
C256 C255 1.371 . S
C256 H263 0.930 . S
H257 C254 0.928 . S
H258 C255 0.931 . S
H259 C235 0.930 . S
H260 C232 0.930 . S
H261 C241 0.930 . S
H262 C253 0.929 . S
H263 C256 0.930 . S
H264 C270 0.930 . S
H265 C273 0.930 . S
H266 C274 0.930 1_545 S
H267 C275 0.930 . S
H268 C278 0.930 . S
H269 C279 0.930 1_565 S
C270 H264 0.930 . S
C270 C271 1.355 . S
C270 C272 1.415 . S
C271 C270 1.355 . S
C271 C273 1.419 . S
C272 C270 1.415 . S
C272 C277 1.425 1_565 S
C272 C279 1.409 1_565 S
C273 H265 0.930 . S
C273 C271 1.419 . S
C273 C274 1.362 . S
C274 H266 0.930 1_565 S
C274 C273 1.362 . S
C274 C277 1.409 1_565 S
C275 H267 0.930 . S
C275 C276 1.355 . S
C275 C277 1.415 . S
C276 C275 1.355 . S
C276 C278 1.419 . S
C277 C272 1.425 1_545 S
C277 C274 1.409 1_545 S
C277 C275 1.415 . S
C278 H268 0.930 . S
C278 C276 1.419 . S
C278 C279 1.362 . S
C279 H269 0.930 1_545 S
C279 C272 1.409 1_545 S
C279 C278 1.362 . S
H280 C286 0.930 . S
H281 C289 0.930 . S
H282 C290 0.930 1_556 S
H283 C291 0.930 . S
H284 C294 0.930 . S
H285 C295 0.930 1_554 S
C286 H280 0.930 . S
C286 C287 1.355 . S
C286 C288 1.415 . S
C287 C286 1.355 . S
C287 C289 1.419 . S
C288 C286 1.415 . S
C288 C293 1.425 1_554 S
C288 C295 1.409 1_554 S
C289 H281 0.930 . S
C289 C287 1.419 . S
C289 C290 1.362 . S
C290 H282 0.930 1_554 S
C290 C289 1.362 . S
C290 C293 1.409 1_554 S
C291 H283 0.930 . S
C291 C292 1.355 . S
C291 C293 1.415 . S
C292 C291 1.355 . S
C292 C294 1.419 . S
C293 C288 1.425 1_556 S
C293 C290 1.409 1_556 S
C293 C291 1.415 . S
C294 H284 0.930 . S
C294 C292 1.419 . S
C294 C295 1.362 . S
C295 H285 0.930 1_556 S
C295 C288 1.409 1_556 S
C295 C294 1.362 . S
H296 C302 0.930 . S
H297 C305 0.930 . S
H298 C306 0.930 . S
H299 C307 0.930 . S
H300 C310 0.930 . S
H301 C311 0.930 . S
C302 H296 0.930 . S
C302 C303 1.355 . S
C302 C304 1.415 1_655 S
C303 C302 1.355 . S
C303 C305 1.419 . S
C304 C302 1.415 1_455 S
C304 C309 1.425 1_455 S
C304 C311 1.409 . S
C305 H297 0.930 . S
C305 C303 1.419 . S
C305 C306 1.362 . S
C306 H298 0.930 . S
C306 C305 1.362 . S
C306 C309 1.409 . S
C307 H299 0.930 . S
C307 C308 1.355 . S
C307 C309 1.415 1_455 S
C308 C307 1.355 . S
C308 C310 1.419 . S
C309 C304 1.425 1_655 S
C309 C306 1.409 . S
C309 C307 1.415 1_655 S
C310 H300 0.930 . S
C310 C308 1.419 . S
C310 C311 1.362 . S
C311 H301 0.930 . S
C311 C304 1.409 . S
C311 C310 1.362 . S
H312 C318 0.930 1_565 S
H313 C321 0.931 . S
H314 C322 0.930 . S
H315 C323 0.926 1_545 S
H316 C326 0.930 . S
H317 C327 0.930 . S
C318 H312 0.930 1_545 S
C318 C319 1.355 . S
C318 C320 1.415 1_545 S
C319 C318 1.355 . S
C319 C321 1.413 1_655 S
C320 C318 1.415 1_565 S
C320 C325 1.425 1_664 S
C320 C327 1.409 1_554 S
C321 H313 0.931 . S
C321 C319 1.413 1_455 S
C321 C322 1.366 . S
C322 H314 0.930 . S
C322 C321 1.366 . S
C322 C325 1.409 1_554 S
C323 H315 0.926 1_565 S
C323 C324 1.355 . S
C323 C325 1.415 1_565 S
C324 C323 1.355 . S
C324 C326 1.419 1_455 S
C325 C320 1.425 1_446 S
C325 C322 1.409 1_556 S
C325 C323 1.415 1_545 S
C326 H316 0.930 . S
C326 C324 1.419 1_655 S
C326 C327 1.362 . S
C327 H317 0.930 . S
C327 C320 1.409 1_556 S
C327 C326 1.362 . S
H328 C334 0.930 . S
H329 C337 0.930 . S
H330 C338 0.930 . S
H331 C339 0.930 . S
H332 C342 0.930 . S
H333 C343 0.930 . S
C334 H328 0.930 . S
C334 C335 1.355 . S
C334 C336 1.415 . S
C335 C334 1.355 . S
C335 C337 1.419 . S
C336 C334 1.415 . S
C336 C341 1.425 . S
C336 C343 1.409 . S
C337 H329 0.930 . S
C337 C335 1.419 . S
C337 C338 1.362 . S
C338 H330 0.930 . S
C338 C337 1.362 . S
C338 C341 1.409 . S
C339 H331 0.930 . S
C339 C340 1.355 . S
C339 C341 1.415 . S
C340 C339 1.355 . S
C340 C342 1.419 . S
C341 C336 1.425 . S
C341 C338 1.409 . S
C341 C339 1.415 . S
C342 H332 0.930 . S
C342 C340 1.419 . S
C342 C343 1.362 . S
C343 H333 0.930 . S
C343 C336 1.409 . S
C343 C342 1.362 . S
H344 C350 0.930 . S
H345 C353 0.930 . S
H346 C354 0.930 . S
H347 C355 0.930 . S
H348 C358 0.930 . S
H349 C359 0.930 . S
C350 H344 0.930 . S
C350 C351 1.355 . S
C350 C352 1.415 . S
C351 C350 1.355 . S
C351 C353 1.419 . S
C352 C350 1.415 . S
C352 C357 1.425 . S
C352 C359 1.409 . S
C353 H345 0.930 . S
C353 C351 1.419 . S
C353 C354 1.362 . S
C354 H346 0.930 . S
C354 C353 1.362 . S
C354 C357 1.409 . S
C355 H347 0.930 . S
C355 C356 1.355 . S
C355 C357 1.415 . S
C356 C355 1.355 . S
C356 C358 1.419 . S
C357 C352 1.425 . S
C357 C354 1.409 . S
C357 C355 1.415 . S
C358 H348 0.930 . S
C358 C356 1.419 . S
C358 C359 1.362 . S
C359 H349 0.930 . S
C359 C352 1.409 . S
C359 C358 1.362 . S
H360 C366 0.930 . S
H361 C369 0.930 . S
H362 C370 0.930 . S
H363 C371 0.930 . S
H364 C374 0.930 . S
H365 C375 0.930 . S
C366 H360 0.930 . S
C366 C367 1.355 . S
C366 C368 1.415 . S
C367 C366 1.355 . S
C367 C369 1.419 . S
C368 C366 1.415 . S
C368 C373 1.425 . S
C368 C375 1.409 . S
C369 H361 0.930 . S
C369 C367 1.419 . S
C369 C370 1.362 . S
C370 H362 0.930 . S
C370 C369 1.362 . S
C370 C373 1.409 . S
C371 H363 0.930 . S
C371 C372 1.355 . S
C371 C373 1.415 . S
C372 C371 1.355 . S
C372 C374 1.419 . S
C373 C368 1.425 . S
C373 C370 1.409 . S
C373 C371 1.415 . S
C374 H364 0.930 . S
C374 C372 1.419 . S
C374 C375 1.362 . S
C375 H365 0.930 . S
C375 C368 1.409 . S
C375 C374 1.362 . S
H376 C382 0.930 . S
H377 C385 0.930 . S
H378 C386 0.930 . S
H379 C387 0.930 . S
H380 C390 0.930 . S
H381 C391 0.930 . S
C382 H376 0.930 . S
C382 C383 1.355 . S
C382 C384 1.415 . S
C383 C382 1.355 . S
C383 C385 1.419 . S
C384 C382 1.415 . S
C384 C389 1.425 . S
C384 C391 1.409 . S
C385 H377 0.930 . S
C385 C383 1.419 . S
C385 C386 1.362 . S
C386 H378 0.930 . S
C386 C385 1.362 . S
C386 C389 1.409 . S
C387 H379 0.930 . S
C387 C388 1.355 . S
C387 C389 1.415 . S
C388 C387 1.355 . S
C388 C390 1.419 . S
C389 C384 1.425 . S
C389 C386 1.409 . S
C389 C387 1.415 . S
C390 H380 0.930 . S
C390 C388 1.419 . S
C390 C391 1.362 . S
C391 H381 0.930 . S
C391 C384 1.409 . S
C391 C390 1.362 . S
H392 C398 0.930 . S
H393 C401 0.930 . S
H394 C402 0.930 . S
H395 C403 0.930 . S
H396 C406 0.930 . S
H397 C407 0.930 . S
C398 H392 0.930 . S
C398 C399 1.355 . S
C398 C400 1.415 . S
C399 C398 1.355 . S
C399 C401 1.419 . S
C400 C398 1.415 . S
C400 C405 1.425 . S
C400 C407 1.409 . S
C401 H393 0.930 . S
C401 C399 1.419 . S
C401 C402 1.362 . S
C402 H394 0.930 . S
C402 C401 1.362 . S
C402 C405 1.409 . S
C403 H395 0.930 . S
C403 C404 1.355 . S
C403 C405 1.415 . S
C404 C403 1.355 . S
C404 C406 1.419 . S
C405 C400 1.425 . S
C405 C402 1.409 . S
C405 C403 1.415 . S
C406 H396 0.930 . S
C406 C404 1.419 . S
C406 C407 1.362 . S
C407 H397 0.930 . S
C407 C400 1.409 . S
C407 C406 1.362 . S
H408 C414 0.930 . S
H409 C417 0.930 . S
H410 C418 0.930 . S
H411 C419 0.930 . S
H412 C422 0.930 . S
H413 C423 0.930 . S
C414 H408 0.930 . S
C414 C415 1.355 . S
C414 C416 1.415 . S
C415 C414 1.355 . S
C415 C417 1.419 . S
C416 C414 1.415 . S
C416 C421 1.425 . S
C416 C423 1.409 . S
C417 H409 0.930 . S
C417 C415 1.419 . S
C417 C418 1.362 . S
C418 H410 0.930 . S
C418 C417 1.362 . S
C418 C421 1.409 . S
C419 H411 0.930 . S
C419 C420 1.355 . S
C419 C421 1.415 . S
C420 C419 1.355 . S
C420 C422 1.419 . S
C421 C416 1.425 . S
C421 C418 1.409 . S
C421 C419 1.415 . S
C422 H412 0.930 . S
C422 C420 1.419 . S
C422 C423 1.362 . S
C423 H413 0.930 . S
C423 C416 1.409 . S
C423 C422 1.362 . S
H424 C430 0.930 . S
H425 C433 0.930 . S
H426 C434 0.930 . S
H427 C435 0.930 . S
H428 C438 0.930 . S
H429 C439 0.930 . S
C430 H424 0.930 . S
C430 C431 1.355 . S
C430 C432 1.415 . S
C431 C430 1.355 . S
C431 C433 1.419 . S
C432 C430 1.415 . S
C432 C437 1.425 . S
C432 C439 1.409 . S
C433 H425 0.930 . S
C433 C431 1.419 . S
C433 C434 1.362 . S
C434 H426 0.930 . S
C434 C433 1.362 . S
C434 C437 1.409 . S
C435 H427 0.930 . S
C435 C436 1.355 . S
C435 C437 1.415 . S
C436 C435 1.355 . S
C436 C438 1.419 . S
C437 C432 1.425 . S
C437 C434 1.409 . S
C437 C435 1.415 . S
C438 H428 0.930 . S
C438 C436 1.419 . S
C438 C439 1.362 . S
C439 H429 0.930 . S
C439 C432 1.409 . S
C439 C438 1.362 . S
H440 C446 0.930 . S
H441 C449 0.930 . S
H442 C450 0.930 . S
H443 C451 0.930 . S
H444 C454 0.930 . S
H445 C455 0.930 . S
C446 H440 0.930 . S
C446 C447 1.355 . S
C446 C448 1.415 . S
C447 C446 1.355 . S
C447 C449 1.419 . S
C448 C446 1.415 . S
C448 C453 1.425 . S
C448 C455 1.409 . S
C449 H441 0.930 . S
C449 C447 1.419 . S
C449 C450 1.362 . S
C450 H442 0.930 . S
C450 C449 1.362 . S
C450 C453 1.409 . S
C451 H443 0.930 . S
C451 C452 1.355 . S
C451 C453 1.415 . S
C452 C451 1.355 . S
C452 C454 1.419 . S
C453 C448 1.425 . S
C453 C450 1.409 . S
C453 C451 1.415 . S
C454 H444 0.930 . S
C454 C452 1.419 . S
C454 C455 1.362 . S
C455 H445 0.930 . S
C455 C448 1.409 . S
C455 C454 1.362 . S
H456 C462 0.930 . S
H457 C465 0.930 . S
H458 C466 0.930 . S
H459 C467 0.930 . S
H460 C470 0.930 1_554 S
H461 C471 0.930 . S
C462 H456 0.930 . S
C462 C463 1.355 . S
C462 C464 1.415 . S
C463 C462 1.355 . S
C463 C465 1.419 . S
C464 C462 1.415 . S
C464 C469 1.425 . S
C464 C471 1.409 . S
C465 H457 0.930 . S
C465 C463 1.419 . S
C465 C466 1.362 . S
C466 H458 0.930 . S
C466 C465 1.362 . S
C466 C469 1.409 . S
C467 H459 0.930 . S
C467 C468 1.355 . S
C467 C469 1.415 . S
C468 C467 1.355 . S
C468 C470 1.419 . S
C469 C464 1.425 . S
C469 C466 1.409 . S
C469 C467 1.415 . S
C470 H460 0.930 1_556 S
C470 C468 1.419 . S
C470 C471 1.362 . S
C471 H461 0.930 . S
C471 C464 1.409 . S
C471 C470 1.362 . S
H472 C478 0.930 . S
H473 C481 0.930 . S
H474 C482 0.930 . S
H475 C483 0.930 . S
H476 C486 0.930 . S
H477 C487 0.930 . S
C478 H472 0.930 . S
C478 C479 1.355 . S
C478 C480 1.415 . S
C479 C478 1.355 . S
C479 C481 1.419 . S
C480 C478 1.415 . S
C480 C485 1.425 . S
C480 C487 1.409 . S
C481 H473 0.930 . S
C481 C479 1.419 . S
C481 C482 1.362 . S
C482 H474 0.930 . S
C482 C481 1.362 . S
C482 C485 1.409 . S
C483 H475 0.930 . S
C483 C484 1.355 . S
C483 C485 1.415 . S
C484 C483 1.355 . S
C484 C486 1.419 . S
C485 C480 1.425 . S
C485 C482 1.409 . S
C485 C483 1.415 . S
C486 H476 0.930 . S
C486 C484 1.419 . S
C486 C487 1.362 . S
C487 H477 0.930 . S
C487 C480 1.409 . S
C487 C486 1.362 . S
H488 C494 0.930 . S
H489 C497 0.930 . S
H490 C498 0.930 . S
H491 C499 0.930 . S
H492 C502 0.930 . S
H493 C503 0.930 . S
C494 H488 0.930 . S
C494 C495 1.355 . S
C494 C496 1.415 . S
C495 C494 1.355 . S
C495 C497 1.419 . S
C496 C494 1.415 . S
C496 C501 1.425 . S
C496 C503 1.409 . S
C497 H489 0.930 . S
C497 C495 1.419 . S
C497 C498 1.362 . S
C498 H490 0.930 . S
C498 C497 1.362 . S
C498 C501 1.409 . S
C499 H491 0.930 . S
C499 C500 1.355 . S
C499 C501 1.415 . S
C500 C499 1.355 . S
C500 C502 1.419 . S
C501 C496 1.425 . S
C501 C498 1.409 . S
C501 C499 1.415 . S
C502 H492 0.930 . S
C502 C500 1.419 . S
C502 C503 1.362 . S
C503 H493 0.930 . S
C503 C496 1.409 . S
C503 C502 1.362 . S
H504 C510 0.930 . S
H505 C513 0.930 . S
H506 C514 0.930 . S
H507 C515 0.930 . S
H508 C518 0.930 . S
H509 C519 0.930 . S
C510 H504 0.930 . S
C510 C511 1.355 . S
C510 C512 1.415 . S
C511 C510 1.355 . S
C511 C513 1.419 . S
C512 C510 1.415 . S
C512 C517 1.425 . S
C512 C519 1.409 . S
C513 H505 0.930 . S
C513 C511 1.419 . S
C513 C514 1.362 . S
C514 H506 0.930 . S
C514 C513 1.362 . S
C514 C517 1.409 . S
C515 H507 0.930 . S
C515 C516 1.355 . S
C515 C517 1.415 . S
C516 C515 1.355 . S
C516 C518 1.419 . S
C517 C512 1.425 . S
C517 C514 1.409 . S
C517 C515 1.415 . S
C518 H508 0.930 . S
C518 C516 1.419 . S
C518 C519 1.362 . S
C519 H509 0.930 . S
C519 C512 1.409 . S
C519 C518 1.362 . S
H520 C526 0.930 . S
H521 C529 0.930 . S
H522 C530 0.930 . S
H523 C531 0.930 . S
H524 C534 0.930 . S
H525 C535 0.930 . S
C526 H520 0.930 . S
C526 C527 1.355 . S
C526 C528 1.415 . S
C527 C526 1.355 . S
C527 C529 1.419 . S
C528 C526 1.415 . S
C528 C533 1.425 . S
C528 C535 1.409 . S
C529 H521 0.930 . S
C529 C527 1.419 . S
C529 C530 1.362 . S
C530 H522 0.930 . S
C530 C529 1.362 . S
C530 C533 1.409 . S
C531 H523 0.930 . S
C531 C532 1.355 . S
C531 C533 1.415 . S
C532 C531 1.355 . S
C532 C534 1.419 . S
C533 C528 1.425 . S
C533 C530 1.409 . S
C533 C531 1.415 . S
C534 H524 0.930 . S
C534 C532 1.419 . S
C534 C535 1.362 . S
C535 H525 0.930 . S
C535 C528 1.409 . S
C535 C534 1.362 . S
H536 C542 0.930 . S
H537 C545 0.930 . S
H538 C546 0.930 . S
H539 C547 0.930 . S
H540 C550 0.930 . S
H541 C551 0.930 . S
C542 H536 0.930 . S
C542 C543 1.355 . S
C542 C544 1.415 . S
C543 C542 1.355 . S
C543 C545 1.419 . S
C544 C542 1.415 . S
C544 C549 1.425 . S
C544 C551 1.409 . S
C545 H537 0.930 . S
C545 C543 1.419 . S
C545 C546 1.362 . S
C546 H538 0.930 . S
C546 C545 1.362 . S
C546 C549 1.409 . S
C547 H539 0.930 . S
C547 C548 1.355 . S
C547 C549 1.415 . S
C548 C547 1.355 . S
C548 C550 1.419 . S
C549 C544 1.425 . S
C549 C546 1.409 . S
C549 C547 1.415 . S
C550 H540 0.930 . S
C550 C548 1.419 . S
C550 C551 1.362 . S
C551 H541 0.930 . S
C551 C544 1.409 . S
C551 C550 1.362 . S
H552 C558 0.930 . S
H553 C561 0.930 . S
H554 C562 0.930 . S
H555 C563 0.930 . S
H556 C566 0.930 . S
H557 C567 0.930 . S
C558 H552 0.930 . S
C558 C559 1.355 . S
C558 C560 1.415 . S
C559 C558 1.355 . S
C559 C561 1.419 . S
C560 C558 1.415 . S
C560 C565 1.425 . S
C560 C567 1.409 . S
C561 H553 0.930 . S
C561 C559 1.419 . S
C561 C562 1.362 . S
C562 H554 0.930 . S
C562 C561 1.362 . S
C562 C565 1.409 . S
C563 H555 0.930 . S
C563 C564 1.355 . S
C563 C565 1.415 . S
C564 C563 1.355 . S
C564 C566 1.419 . S
C565 C560 1.425 . S
C565 C562 1.409 . S
C565 C563 1.415 . S
C566 H556 0.930 . S
C566 C564 1.419 . S
C566 C567 1.362 . S
C567 H557 0.930 . S
C567 C560 1.409 . S
C567 C566 1.362 . S
H568 C574 0.930 . S
H569 C577 0.930 . S
H570 C578 0.930 . S
H571 C579 0.930 . S
H572 C582 0.934 . S
H573 C583 0.930 . S
C574 H568 0.930 . S
C574 C575 1.355 . S
C574 C576 1.415 . S
C575 C574 1.355 . S
C575 C577 1.419 . S
C576 C574 1.415 . S
C576 C581 1.425 . S
C576 C583 1.409 . S
C577 H569 0.930 . S
C577 C575 1.419 . S
C577 C578 1.362 . S
C578 H570 0.930 . S
C578 C577 1.362 . S
C578 C581 1.409 . S
C579 H571 0.930 . S
C579 C580 1.355 . S
C579 C581 1.415 . S
C580 C579 1.355 . S
C580 C582 1.419 . S
C581 C576 1.425 . S
C581 C578 1.409 . S
C581 C579 1.415 . S
C582 H572 0.934 . S
C582 C580 1.419 . S
C582 C583 1.362 . S
C583 H573 0.930 . S
C583 C576 1.409 . S
C583 C582 1.362 . S
C271 C249 1.227 . S
C276 C18 1.229 . S
C287 C150 1.252 . S
C292 C51 1.254 . S
C303 C84 1.250 . S
C308 C183 1.248 . S
C319 C216 1.266 . S
C324 C117 1.268 . S
C335 C7 1.487 . S
C340 C139 1.458 . S
C351 C172 1.454 . S
C356 C40 1.459 . S
C367 C205 1.444 . S
C372 C73 1.474 . S
C383 C238 1.453 . S
C388 C106 1.460 . S
C399 C252 1.485 . S
C404 C54 1.510 . S
C415 C87 1.485 . S
C420 C153 1.513 . S
C431 C120 1.516 . S
C436 C186 1.500 . S
C447 C219 1.512 . S
C452 C21 1.505 . S
C463 N13 1.293 . S
C468 N2 1.293 1_556 S
C479 N35 1.294 . S
C484 N46 1.294 . S
C495 N68 1.255 1_556 S
C500 N79 1.258 . S
C511 N112 1.271 . S
C516 N101 1.269 . S
C527 N134 1.252 . S
C532 N145 1.254 . S
C543 N167 1.293 1_554 S
C548 N178 1.293 . S
C559 N200 1.276 . S
C564 N211 1.276 . S
C575 N244 1.295 . S
C580 N233 1.295 1_554 S
