# Generated by pormake.
# Topology snz, (6)-cn, num edge types: 1
# Building blocks:
#     Node 0, Type 0, BuildingBlock: KUMBUR_clean_sbu_0, # of connection points: 6
#     Node 1, Type 0, BuildingBlock: KUMBUR_clean_sbu_0, # of connection points: 6
#     Node 2, Type 0, BuildingBlock: KUMBUR_clean_sbu_0, # of connection points: 6
#     Node 3, Type 0, BuildingBlock: KUMBUR_clean_sbu_0, # of connection points: 6
#     Node 4, Type 0, BuildingBlock: KUMBUR_clean_sbu_0, # of connection points: 6
#     Node 5, Type 0, BuildingBlock: KUMBUR_clean_sbu_0, # of connection points: 6
#     Node 6, Type 0, BuildingBlock: KUMBUR_clean_sbu_0, # of connection points: 6
#     Node 7, Type 0, BuildingBlock: KUMBUR_clean_sbu_0, # of connection points: 6
#     Node 8, Type 0, BuildingBlock: KUMBUR_clean_sbu_0, # of connection points: 6
#     Edge 9, Type (0, 0), BuildingBlock: UVAHIK_clean_linker_0, # of connection points: 2
#     Edge 10, Type (0, 0), BuildingBlock: UVAHIK_clean_linker_0, # of connection points: 2
#     Edge 11, Type (0, 0), BuildingBlock: UVAHIK_clean_linker_0, # of connection points: 2
#     Edge 12, Type (0, 0), BuildingBlock: UVAHIK_clean_linker_0, # of connection points: 2
#     Edge 13, Type (0, 0), BuildingBlock: UVAHIK_clean_linker_0, # of connection points: 2
#     Edge 14, Type (0, 0), BuildingBlock: UVAHIK_clean_linker_0, # of connection points: 2
#     Edge 15, Type (0, 0), BuildingBlock: UVAHIK_clean_linker_0, # of connection points: 2
#     Edge 16, Type (0, 0), BuildingBlock: UVAHIK_clean_linker_0, # of connection points: 2
#     Edge 17, Type (0, 0), BuildingBlock: UVAHIK_clean_linker_0, # of connection points: 2
#     Edge 18, Type (0, 0), BuildingBlock: UVAHIK_clean_linker_0, # of connection points: 2
#     Edge 19, Type (0, 0), BuildingBlock: UVAHIK_clean_linker_0, # of connection points: 2
#     Edge 20, Type (0, 0), BuildingBlock: UVAHIK_clean_linker_0, # of connection points: 2
#     Edge 21, Type (0, 0), BuildingBlock: UVAHIK_clean_linker_0, # of connection points: 2
#     Edge 22, Type (0, 0), BuildingBlock: UVAHIK_clean_linker_0, # of connection points: 2
#     Edge 23, Type (0, 0), BuildingBlock: UVAHIK_clean_linker_0, # of connection points: 2
#     Edge 24, Type (0, 0), BuildingBlock: UVAHIK_clean_linker_0, # of connection points: 2
#     Edge 25, Type (0, 0), BuildingBlock: UVAHIK_clean_linker_0, # of connection points: 2
#     Edge 26, Type (0, 0), BuildingBlock: UVAHIK_clean_linker_0, # of connection points: 2
#     Edge 27, Type (0, 0), BuildingBlock: UVAHIK_clean_linker_0, # of connection points: 2
#     Edge 28, Type (0, 0), BuildingBlock: UVAHIK_clean_linker_0, # of connection points: 2
#     Edge 29, Type (0, 0), BuildingBlock: UVAHIK_clean_linker_0, # of connection points: 2
#     Edge 30, Type (0, 0), BuildingBlock: UVAHIK_clean_linker_0, # of connection points: 2
#     Edge 31, Type (0, 0), BuildingBlock: UVAHIK_clean_linker_0, # of connection points: 2
#     Edge 32, Type (0, 0), BuildingBlock: UVAHIK_clean_linker_0, # of connection points: 2
#     Edge 33, Type (0, 0), BuildingBlock: UVAHIK_clean_linker_0, # of connection points: 2
#     Edge 34, Type (0, 0), BuildingBlock: UVAHIK_clean_linker_0, # of connection points: 2
#     Edge 35, Type (0, 0), BuildingBlock: UVAHIK_clean_linker_0, # of connection points: 2
# Relax obj value: 0.225
# Max RMSD: 0.299
# Mean RMSD: 0.201
data_MOF--net-snz--node1-KUMBUR_clean_sbu_0--edge1-UVAHIK_clean_linker_0
_symmetry_space_group_name_H-M    P1
_symmetry_Int_Tables_number       1
_symmetry_cell_setting            triclinic
loop_
_symmetry_equiv_pos_as_xyz
'x, y, z'
_cell_length_a     74.510343
_cell_length_b     69.99107
_cell_length_c     20.610774
_cell_angle_alpha  93.519379
_cell_angle_beta   94.743541
_cell_angle_gamma 120.53747
loop_
_atom_site_label
_atom_site_type_symbol
_atom_site_fract_x
_atom_site_fract_y
_atom_site_fract_z
_atom_type_partial_charge
Tb0 Tb 0.10351 0.49206 0.17832 0.0
C1 C 0.01347 0.437 0.11945 0.0
C2 C 0.99653 0.43607 1.01302 0.0
C3 C 0.98197 0.40274 0.06876 0.0
C4 C 0.01297 0.44746 0.06548 0.0
C5 C 0.99777 0.4146 0.12233 0.0
C6 C 0.98134 0.41348 1.01418 0.0
C7 C 0.014 0.41764 0.23176 0.0
N8 N 0.02906 0.44903 0.16997 0.0
C9 C 0.02936 0.43974 0.22624 0.0
C10 C 0.99823 0.40494 0.17937 0.0
Tb11 Tb 0.05251 0.48556 0.15794 0.0
N12 N 0.02788 0.46926 0.06641 0.0
C13 C 0.02573 0.48142 1.01995 0.0
C14 C 0.99537 0.448 0.96243 0.0
C15 C 0.00981 0.4709 0.96658 0.0
H16 H 0.0415 0.44905 0.26695 0.0
H17 H 0.00864 0.48047 0.92892 0.0
H18 H 0.96872 0.40435 0.97398 0.0
H19 H 0.01447 0.41036 0.27624 0.0
H20 H 0.03677 0.49919 1.02323 0.0
H21 H 0.14422 0.56875 0.34396 0.0
H22 H 0.98295 0.43989 0.9213 0.0
H23 H 0.11977 0.47628 0.05234 0.0
H24 H 0.11798 0.52904 0.30941 0.0
H25 H 0.14638 0.49403 0.97727 0.0
H26 H 0.96993 0.38544 0.0697 0.0
H27 H 0.16928 0.59117 0.2691 0.0
H28 H 0.1837 0.59239 0.162 0.0
H29 H 0.98645 0.38779 0.18362 0.0
H30 H 0.18406 0.57198 0.06079 0.0
N31 N 0.12763 0.52883 0.21506 0.0
C32 C 0.12882 0.53849 0.27622 0.0
C33 C 0.15776 0.5737 0.25361 0.0
C34 C 0.15719 0.56341 0.19248 0.0
C35 C 0.1437 0.56107 0.29608 0.0
C36 C 0.14181 0.54066 0.17472 0.0
H37 H 0.17042 0.53507 0.99196 0.0
N38 N 0.12785 0.50711 0.10657 0.0
C39 C 0.14515 0.50421 1.01628 0.0
C40 C 0.14186 0.52937 0.11795 0.0
C41 C 0.13011 0.49422 0.05889 0.0
C42 C 0.15864 0.52739 1.02457 0.0
C43 C 0.15748 0.54022 0.07704 0.0
O44 O 0.11228 0.4676 0.18052 0.0
O45 O 0.06982 0.46874 0.16821 0.0
O46 O 0.06158 0.48902 0.26665 0.0
O47 O 0.093 0.48905 0.27772 0.0
O48 O 0.08783 0.46031 0.11553 0.0
O49 O 0.1243 0.49406 0.25825 0.0
O50 O 0.03101 0.48463 0.21983 0.0
O51 O 0.08574 0.50853 0.19075 0.0
O52 O 0.09711 0.49785 0.07414 0.0
O53 O 0.06055 0.48186 0.05718 0.0
O54 O 0.0707 0.51808 0.12403 0.0
O55 O 0.04279 0.50912 0.15294 0.0
C56 C 0.06911 0.4538 0.12765 0.0
C57 C 0.14634 0.47993 0.23477 0.0
C58 C 0.17149 0.46744 0.25964 0.0
C59 C 0.15102 0.46417 0.25893 0.0
C60 C 0.18676 0.48637 0.23389 0.0
C61 C 0.16225 0.49885 0.21155 0.0
C62 C 0.18219 0.50189 0.21052 0.0
C63 C 0.0772 0.48906 0.30377 0.0
C64 C 0.12509 0.47693 0.23452 0.0
C65 C 0.17209 0.56323 0.09203 0.0
C66 C 0.17192 0.57483 0.14973 0.0
C67 C 0.08822 0.52472 0.15991 0.0
C68 C 0.00713 0.49391 0.16763 0.0
C69 C 0.00303 0.51049 0.14772 0.0
C70 C 0.9826 0.50462 0.12016 0.0
C71 C 0.96638 0.48208 0.11383 0.0
C72 C 0.99046 0.47158 0.16105 0.0
C73 C 0.9703 0.46578 0.13433 0.0
C74 C 0.07905 0.49009 1.03411 0.0
C75 C 0.02885 0.49973 0.19231 0.0
H76 H 0.1389 0.44974 0.27813 0.0
H77 H 0.20238 0.48922 0.23126 0.0
H78 H 0.15935 0.5114 0.19444 0.0
H79 H 0.19422 0.51645 0.1916 0.0
H80 H 0.01576 0.52774 0.15214 0.0
H81 H 0.95052 0.47706 0.09347 0.0
H82 H 0.99295 0.45847 0.17606 0.0
H83 H 0.95763 0.4485 0.12925 0.0
Tb84 Tb 0.61018 0.52442 0.10884 0.0
C85 C 0.65215 0.47462 0.18799 0.0
C86 C 0.68404 0.49247 0.13753 0.0
C87 C 0.68368 0.47648 0.23913 0.0
C88 C 0.66286 0.48619 0.13898 0.0
C89 C 0.66219 0.46892 0.23752 0.0
C90 C 0.69461 0.48824 0.1891 0.0
C91 C 0.62837 0.44585 0.27349 0.0
N92 N 0.63131 0.46713 0.18343 0.0
C93 C 0.61912 0.45176 0.22292 0.0
C94 C 0.65008 0.45483 0.28169 0.0
Tb95 Tb 0.61751 0.47791 0.09929 0.0
N96 N 0.65195 0.48951 0.0896 0.0
C97 C 0.66091 0.4975 1.03447 0.0
C98 C 0.69365 0.50186 0.08294 0.0
C99 C 0.6819 0.50403 1.03068 0.0
H100 H 0.60229 0.44445 0.21666 0.0
H101 H 0.68904 0.51087 0.98761 0.0
H102 H 0.71097 0.49322 0.1894 0.0
H103 H 0.61874 0.43427 0.30584 0.0
H104 H 0.65214 0.49939 0.99371 0.0
H105 H 0.60746 0.56826 0.32919 0.0
H106 H 0.70988 0.50691 0.07986 0.0
H107 H 0.57406 0.49498 0.97967 0.0
H108 H 0.62447 0.55746 0.24841 0.0
H109 H 0.53667 0.48132 0.94684 0.0
H110 H 0.69177 0.47253 0.27724 0.0
H111 H 0.5689 0.55185 0.31244 0.0
H112 H 0.53444 0.52784 0.2396 0.0
H113 H 0.65719 0.45004 0.32043 0.0
H114 H 0.51528 0.50471 0.13446 0.0
N115 N 0.59567 0.5342 0.18873 0.0
C116 C 0.60759 0.55009 0.24107 0.0
C117 C 0.57627 0.54695 0.2772 0.0
C118 C 0.56443 0.53221 0.22067 0.0
C119 C 0.59803 0.55626 0.28679 0.0
C120 C 0.57481 0.52643 0.17635 0.0
H121 H 0.51614 0.48793 1.02408 0.0
N122 N 0.57512 0.50962 0.07475 0.0
C123 C 0.54421 0.49044 0.99492 0.0
C124 C 0.56418 0.51383 0.11701 0.0
C125 C 0.56553 0.49832 1.0138 0.0
C126 C 0.53266 0.49417 1.03868 0.0
C127 C 0.54264 0.50607 0.10054 0.0
O128 O 0.60647 0.544 1.04158 0.0
O129 O 0.63189 0.51327 0.092 0.0
O130 O 0.62444 0.49175 0.20651 0.0
O131 O 0.60929 0.51405 0.20997 0.0
O132 O 0.64215 0.5405 0.15973 0.0
O133 O 0.63098 0.55939 0.12318 0.0
O134 O 0.59211 0.44478 0.07116 0.0
O135 O 0.59481 0.48867 0.0932 0.0
O136 O 0.61217 0.51754 1.00269 0.0
O137 O 0.61526 0.48601 0.99648 0.0
O138 O 0.58896 0.46215 0.14548 0.0
O139 O 0.62081 0.45665 1.0308 0.0
C140 C 0.64795 0.52829 0.12982 0.0
C141 C 0.61431 0.57915 0.09344 0.0
C142 C 0.62386 0.61692 0.13737 0.0
C143 C 0.62972 0.6015 0.11668 0.0
C144 C 0.60239 0.60967 0.13444 0.0
C145 C 0.59296 0.57252 0.08975 0.0
C146 C 0.5871 0.58766 0.11053 0.0
C147 C 0.61744 0.5032 0.24005 0.0
C148 C 0.62064 0.56276 0.07598 0.0
C149 C 0.53189 0.51073 0.14587 0.0
C150 C 0.54278 0.52383 0.20584 0.0
C151 C 0.58197 0.47466 0.12782 0.0
C152 C 0.60147 0.41816 1.04309 0.0
C153 C 0.58414 0.39791 1.01169 0.0
C154 C 0.58313 0.37744 1.01797 0.0
C155 C 0.59958 0.37756 0.05721 0.0
C156 C 0.61773 0.41782 0.0815 0.0
C157 C 0.61669 0.3976 0.08876 0.0
C158 C 0.6136 0.50174 0.96789 0.0
C159 C 0.60246 0.43943 1.03426 0.0
H160 H 0.64622 0.60676 0.11967 0.0
H161 H 0.59741 0.62118 0.14944 0.0
H162 H 0.58073 0.55561 0.07114 0.0
H163 H 0.57061 0.58232 0.1079 0.0
H164 H 0.5717 0.39818 0.98124 0.0
H165 H 0.59915 0.36211 0.06384 0.0
H166 H 0.63132 0.43314 0.10549 0.0
H167 H 0.62926 0.39748 0.11869 0.0
Tb168 Tb 0.56185 0.02304 0.89421 0.0
C169 C 0.59862 0.11857 0.99274 0.0
C170 C 0.5811 0.13045 0.9155 0.0
C171 C 0.5904 0.14667 1.02938 0.0
C172 C 0.58926 0.11662 0.9301 0.0
C173 C 0.60016 0.13439 1.04233 0.0
C174 C 0.58081 0.14464 0.96601 0.0
C175 C 0.62348 0.12729 0.11072 0.0
N176 N 0.60814 0.10669 1.00322 0.0
C177 C 0.62129 0.11161 0.06048 0.0
C178 C 0.61244 0.13833 0.10225 0.0
Tb179 Tb 0.60253 0.08053 0.91795 0.0
N180 N 0.59039 0.10317 0.88217 0.0
C181 C 0.58643 0.1055 0.81782 0.0
C182 C 0.57477 0.13073 0.85009 0.0
C183 C 0.57811 0.11878 0.80099 0.0
H184 H 0.62883 0.1022 0.06971 0.0
H185 H 0.57425 0.11972 0.74995 0.0
H186 H 0.57426 0.15503 0.95582 0.0
H187 H 0.63329 0.13045 0.15653 0.0
H188 H 0.58895 0.09693 0.77815 0.0
H189 H 0.58343 0.9745 1.04315 0.0
H190 H 0.56842 0.14108 0.83685 0.0
H191 H 0.52941 0.0016 0.75114 0.0
H192 H 0.5727 0.00141 1.02396 0.0
H193 H 0.52247 0.97463 0.65685 0.0
H194 H 0.59107 0.15857 0.06718 0.0
H195 H 0.58697 0.95334 0.94974 0.0
H196 H 0.58032 0.94209 0.82836 0.0
H197 H 0.61409 0.1504 0.14139 0.0
H198 H 0.56313 0.94193 0.72111 0.0
N199 N 0.57175 0.99777 0.91976 0.0
C200 C 0.5746 0.99311 0.98208 0.0
C201 C 0.58248 0.96554 0.94071 0.0
C202 C 0.57697 0.96824 0.87698 0.0
C203 C 0.58047 0.97741 0.9935 0.0
C204 C 0.57102 0.98423 0.86812 0.0
H205 H 0.54053 0.95321 0.65753 0.0
N206 N 0.55236 0.99679 0.80491 0.0
C207 C 0.53356 0.97724 0.69876 0.0
C208 C 0.56098 0.98379 0.80824 0.0
C209 C 0.53766 0.99267 0.75268 0.0
C210 C 0.54388 0.96529 0.69916 0.0
C211 C 0.55721 0.96789 0.7552 0.0
O212 O 0.53376 0.99277 0.90044 0.0
O213 O 0.56875 0.05739 0.89868 0.0
O214 O 0.59015 0.07165 1.0154 0.0
O215 O 0.57207 0.03275 1.00251 0.0
O216 O 0.54564 0.03396 0.82779 0.0
O217 O 0.53963 0.02346 0.95043 0.0
O218 O 0.62691 0.08242 0.86698 0.0
O219 O 0.59536 0.04637 0.91325 0.0
O220 O 0.57426 0.03063 0.79691 0.0
O221 O 0.59425 0.06962 0.80954 0.0
O222 O 0.61935 0.06969 0.98327 0.0
O223 O 0.63061 0.1116 0.91941 0.0
C224 C 0.55516 0.05459 0.85142 0.0
C225 C 0.50412 0.9953 0.92007 0.0
C226 C 0.46881 0.97856 0.95236 0.0
C227 C 0.49012 0.98499 0.96574 0.0
C228 C 0.46178 0.98272 0.89235 0.0
C229 C 0.49674 0.99916 0.86045 0.0
C230 C 0.47567 0.99293 0.84686 0.0
C231 C 0.58042 0.05218 1.04068 0.0
C232 C 0.52635 0.00221 0.93681 0.0
C233 C 0.56551 0.95393 0.76168 0.0
C234 C 0.57535 0.95406 0.8227 0.0
C235 C 0.60961 0.04915 0.95779 0.0
C236 C 0.66151 0.10963 0.91671 0.0
C237 C 0.67796 0.11525 0.87773 0.0
C238 C 0.6985 0.12208 0.90755 0.0
C239 C 0.70221 0.1228 0.97577 0.0
C240 C 0.66594 0.11048 0.98472 0.0
C241 C 0.68602 0.11693 1.01388 0.0
C242 C 0.58502 0.04997 0.77177 0.0
C243 C 0.63996 0.10336 0.88747 0.0
H244 H 0.49594 0.98228 1.01213 0.0
H245 H 0.44546 0.97776 0.88007 0.0
H246 H 0.50714 0.00696 0.82442 0.0
H247 H 0.47006 0.99595 0.80074 0.0
H248 H 0.67493 0.11471 0.82513 0.0
H249 H 0.71773 0.12784 0.99966 0.0
H250 H 0.65393 0.10631 1.0158 0.0
H251 H 0.68908 0.11749 0.06644 0.0
Tb252 Tb 0.80026 0.89107 0.33971 0.0
C253 C 0.71018 0.85244 0.38783 0.0
C254 C 0.69099 0.81842 0.3128 0.0
C255 C 0.6785 0.82076 0.41648 0.0
C256 C 0.70831 0.84033 0.3301 0.0
C257 C 0.69487 0.84317 0.43068 0.0
C258 C 0.67657 0.80837 0.3575 0.0
C259 C 0.71109 0.87978 0.49206 0.0
N260 N 0.72579 0.87416 0.39821 0.0
C261 C 0.72583 0.88818 0.44781 0.0
C262 C 0.6958 0.85706 0.48428 0.0
Tb263 Tb 0.7498 0.88656 0.32449 0.0
N264 N 0.72226 0.85097 0.28784 0.0
C265 C 0.71845 0.84127 0.22457 0.0
C266 C 0.68807 0.80779 0.24986 0.0
C267 C 0.70162 0.81947 0.2051 0.0
H268 H 0.73768 0.90574 0.45468 0.0
H269 H 0.69918 0.81167 0.15562 0.0
H270 H 0.66335 0.79142 0.34561 0.0
H271 H 0.7116 0.89082 0.53224 0.0
H272 H 0.72875 0.84988 0.1892 0.0
H273 H 0.85236 0.96345 0.51961 0.0
H274 H 0.675 0.79095 0.2346 0.0
H275 H 0.81418 0.87237 0.21112 0.0
H276 H 0.82253 0.9263 0.48373 0.0
H277 H 0.84076 0.88839 0.13585 0.0
H278 H 0.66674 0.8132 0.44923 0.0
H279 H 0.8766 0.98491 0.4421 0.0
H280 H 0.88821 0.98571 0.33133 0.0
H281 H 0.68431 0.85062 0.51833 0.0
H282 H 0.88503 0.96518 0.22576 0.0
N283 N 0.82832 0.92579 0.38364 0.0
C284 C 0.83248 0.93482 0.44794 0.0
C285 C 0.86331 0.96832 0.42537 0.0
C286 C 0.86024 0.95837 0.36145 0.0
C287 C 0.8497 0.95623 0.46925 0.0
C288 C 0.84263 0.93669 0.34214 0.0
H289 H 0.86779 0.92864 0.15343 0.0
N290 N 0.82516 0.90354 0.26922 0.0
C291 C 0.84085 0.899 0.17651 0.0
C292 C 0.84092 0.92518 0.28276 0.0
C293 C 0.82575 0.89 0.21936 0.0
C294 C 0.85601 0.92174 0.18643 0.0
C295 C 0.85661 0.93498 0.24118 0.0
O296 O 0.82492 0.88504 0.36396 0.0
O297 O 0.76659 0.86891 0.32528 0.0
O298 O 0.75558 0.87875 0.42582 0.0
O299 O 0.79207 0.89496 0.4404 0.0
O300 O 0.78395 0.86135 0.26796 0.0
O301 O 0.79451 0.86355 0.39042 0.0
O302 O 0.74115 0.91102 0.32641 0.0
O303 O 0.78367 0.90882 0.3343 0.0
O304 O 0.79473 0.89734 0.2361 0.0
O305 O 0.75921 0.88634 0.22335 0.0
O306 O 0.76674 0.91886 0.38505 0.0
O307 O 0.7335 0.88871 0.23929 0.0
C308 C 0.76525 0.85449 0.28169 0.0
C309 C 0.82296 0.86508 0.45463 0.0
C310 C 0.83153 0.84224 0.52152 0.0
C311 C 0.823 0.84519 0.46183 0.0
C312 C 0.8401 0.85969 0.57359 0.0
C313 C 0.83159 0.88214 0.50724 0.0
C314 C 0.8401 0.87942 0.56638 0.0
C315 C 0.77376 0.88643 0.4649 0.0
C316 C 0.8135 0.86748 0.39227 0.0
C317 C 0.87305 0.95724 0.25762 0.0
C318 C 0.87486 0.96892 0.31773 0.0
C319 C 0.78528 0.92456 0.37285 0.0
C320 C 0.71002 0.90118 0.25761 0.0
C321 C 0.70642 0.91689 0.22849 0.0
C322 C 0.68617 0.91407 0.2221 0.0
C323 C 0.66965 0.89531 0.24439 0.0
C324 C 0.69315 0.88247 0.27846 0.0
C325 C 0.67313 0.87958 0.27195 0.0
C326 C 0.77711 0.89249 0.19822 0.0
C327 C 0.73134 0.90449 0.26698 0.0
H328 H 0.81607 0.8319 0.42128 0.0
H329 H 0.84709 0.85824 0.61982 0.0
H330 H 0.83175 0.89752 0.50257 0.0
H331 H 0.84677 0.89269 0.60682 0.0
H332 H 0.71934 0.9314 0.21206 0.0
H333 H 0.65395 0.8927 0.23982 0.0
H334 H 0.69541 0.87006 0.29979 0.0
H335 H 0.66025 0.8651 0.28845 0.0
Tb336 Tb 0.16698 0.80079 0.38747 0.0
C337 C 0.22724 0.78693 0.51421 0.0
C338 C 0.23989 0.81414 0.61061 0.0
C339 C 0.23643 0.77806 0.6198 0.0
C340 C 0.23197 0.80751 0.54325 0.0
C341 C 0.23002 0.77221 0.55196 0.0
C342 C 0.24148 0.79906 0.64903 0.0
C343 C 0.22379 0.74892 0.45175 0.0
N344 N 0.22193 0.78228 0.44815 0.0
C345 C 0.22183 0.76434 0.41648 0.0
C346 C 0.22743 0.75261 0.51998 0.0
Tb347 Tb 0.21779 0.80847 0.39594 0.0
N348 N 0.23012 0.82163 0.50474 0.0
C349 C 0.23769 0.84331 0.52975 0.0
C350 C 0.24633 0.83586 0.63709 0.0
C351 C 0.24553 0.85061 0.59617 0.0
H352 H 0.22022 0.76174 0.36355 0.0
H353 H 0.25117 0.86771 0.61557 0.0
H354 H 0.24712 0.8037 0.70102 0.0
H355 H 0.22292 0.73445 0.42614 0.0
H356 H 0.23834 0.85538 0.49896 0.0
H357 H 0.13424 0.74595 0.15881 0.0
H358 H 0.25244 0.84157 0.68852 0.0
H359 H 0.16371 0.84617 0.43099 0.0
H360 H 0.14675 0.75585 0.2761 0.0
H361 H 0.16032 0.87456 0.37587 0.0
H362 H 0.23838 0.76685 0.64959 0.0
H363 H 0.1333 0.77374 0.09246 0.0
H364 H 0.13855 0.81197 0.08837 0.0
H365 H 0.22937 0.74087 0.5472 0.0
H366 H 0.14651 0.84756 0.14755 0.0
N367 N 0.15486 0.78985 0.27753 0.0
C368 C 0.1474 0.76862 0.24838 0.0
C369 C 0.1392 0.77837 0.14427 0.0
C370 C 0.14552 0.79959 0.17496 0.0
C371 C 0.13978 0.76269 0.18149 0.0
C372 C 0.15313 0.8048 0.24264 0.0
H373 H 0.15445 0.87097 0.25484 0.0
N374 N 0.16223 0.82766 0.34205 0.0
C375 C 0.15976 0.86077 0.34699 0.0
C376 C 0.15737 0.8246 0.27592 0.0
C377 C 0.16189 0.84468 0.37794 0.0
C378 C 0.15648 0.85871 0.27875 0.0
C379 C 0.15448 0.84005 0.24239 0.0
O380 O 0.14076 0.80119 0.41746 0.0
O381 O 0.19255 0.80339 0.45718 0.0
O382 O 0.19595 0.77404 0.35406 0.0
O383 O 0.16457 0.7679 0.38651 0.0
O384 O 0.17043 0.80728 0.49587 0.0
O385 O 0.13964 0.77023 0.39679 0.0
O386 O 0.24382 0.80697 0.36975 0.0
O387 O 0.19197 0.80535 0.32604 0.0
O388 O 0.19004 0.83599 0.4249 0.0
O389 O 0.22011 0.84057 0.38684 0.0
O390 O 0.21473 0.80267 0.28735 0.0
O391 O 0.24541 0.83849 0.38595 0.0
C392 C 0.18664 0.80587 0.51431 0.0
C393 C 0.10709 0.76893 0.38532 0.0
C394 C 0.06962 0.74855 0.3985 0.0
C395 C 0.09099 0.75955 0.42569 0.0
C396 C 0.0647 0.74729 0.33041 0.0
C397 C 0.10171 0.76767 0.31777 0.0
C398 C 0.08063 0.75688 0.29058 0.0
C399 C 0.17644 0.76058 0.36424 0.0
C400 C 0.12929 0.77961 0.41458 0.0
C401 C 0.14853 0.83576 0.1742 0.0
C402 C 0.14394 0.81548 0.14055 0.0
C403 C 0.19834 0.8038 0.26892 0.0
C404 C 0.27755 0.83931 0.40009 0.0
C405 C 0.29328 0.85113 0.36074 0.0
C406 C 0.3147 0.86204 0.38638 0.0
C407 C 0.32009 0.861 0.45261 0.0
C408 C 0.2832 0.83834 0.46579 0.0
C409 C 0.30441 0.8492 0.49187 0.0
C410 C 0.20899 0.84877 0.40858 0.0
C411 C 0.25548 0.82852 0.37085 0.0
H412 H 0.09509 0.76048 0.47797 0.0
H413 H 0.04848 0.73916 0.30802 0.0
H414 H 0.11374 0.77495 0.286 0.0
H415 H 0.07661 0.75595 0.23833 0.0
H416 H 0.28877 0.85205 0.31016 0.0
H417 H 0.33641 0.86902 0.47382 0.0
H418 H 0.27131 0.82925 0.49677 0.0
H419 H 0.30873 0.84841 0.54265 0.0
Tb420 Tb 0.24172 0.2772 0.4026 0.0
C421 C 0.30477 0.37073 0.52192 0.0
C422 C 0.29385 0.39272 0.4627 0.0
C423 C 0.30972 0.40522 0.57642 0.0
C424 C 0.29516 0.37336 0.46563 0.0
C425 C 0.31298 0.38715 0.57691 0.0
C426 C 0.30016 0.40801 0.51931 0.0
C427 C 0.33032 0.36897 0.62361 0.0
N428 N 0.30822 0.35345 0.51983 0.0
C429 C 0.32196 0.35318 0.56786 0.0
C430 C 0.32537 0.38569 0.62895 0.0
Tb431 Tb 0.29212 0.32768 0.42817 0.0
N432 N 0.28975 0.35852 0.41138 0.0
C433 C 0.28629 0.36412 0.35103 0.0
C434 C 0.28773 0.39699 0.40196 0.0
C435 C 0.28467 0.38304 0.34562 0.0
H436 H 0.32589 0.34034 0.56464 0.0
H437 H 0.28099 0.3868 0.29792 0.0
H438 H 0.29885 0.42272 0.5183 0.0
H439 H 0.34056 0.3682 0.66246 0.0
H440 H 0.28404 0.35388 0.30657 0.0
H441 H 0.25016 0.21722 0.53569 0.0
H442 H 0.28654 0.41166 0.39756 0.0
H443 H 0.21148 0.26711 0.26154 0.0
H444 H 0.24961 0.25155 0.52359 0.0
H445 H 0.19606 0.23916 0.1639 0.0
H446 H 0.31558 0.41778 0.61864 0.0
H447 H 0.24208 0.19037 0.43825 0.0
H448 H 0.22916 0.17856 0.31764 0.0
H449 H 0.332 0.398 0.67199 0.0
H450 H 0.21411 0.18451 0.21535 0.0
N451 N 0.24214 0.24516 0.41939 0.0
C452 C 0.246 0.24017 0.48027 0.0
C453 C 0.24188 0.20555 0.43247 0.0
C454 C 0.23606 0.2097 0.37114 0.0
C455 C 0.24634 0.2206 0.48756 0.0
C456 C 0.23609 0.22975 0.3665 0.0
H457 H 0.20103 0.20676 0.15816 0.0
N458 N 0.22593 0.25136 0.31052 0.0
C459 C 0.20506 0.23729 0.20434 0.0
C460 C 0.22762 0.23298 0.30962 0.0
C461 C 0.21386 0.25313 0.26005 0.0
C462 C 0.20798 0.21909 0.20113 0.0
C463 C 0.21892 0.21644 0.25489 0.0
O464 O 0.21221 0.2749 0.39485 0.0
O465 O 0.25844 0.31374 0.41908 0.0
O466 O 0.28179 0.32273 0.52841 0.0
O467 O 0.25237 0.28659 0.51141 0.0
O468 O 0.23248 0.29733 0.34927 0.0
O469 O 0.22078 0.26043 0.47044 0.0
O470 O 0.31165 0.32137 0.37289 0.0
O471 O 0.27551 0.29153 0.41681 0.0
O472 O 0.25483 0.28099 0.30655 0.0
O473 O 0.27955 0.31921 0.32065 0.0
O474 O 0.30204 0.30852 0.48476 0.0
O475 O 0.32187 0.35452 0.41372 0.0
C476 C 0.24667 0.31667 0.37772 0.0
C477 C 0.18441 0.24363 0.43222 0.0
C478 C 0.14673 0.22696 0.43993 0.0
C479 C 0.16763 0.2452 0.45392 0.0
C480 C 0.143 0.20715 0.40472 0.0
C481 C 0.1802 0.2236 0.39768 0.0
C482 C 0.15962 0.20549 0.38415 0.0
C483 C 0.26672 0.30481 0.55149 0.0
C484 C 0.20602 0.26324 0.44347 0.0
C485 C 0.22041 0.19728 0.25718 0.0
C486 C 0.229 0.1939 0.31537 0.0
C487 C 0.28738 0.28889 0.4588 0.0
C488 C 0.34847 0.34615 0.39948 0.0
C489 C 0.36475 0.35865 0.36169 0.0
C490 C 0.38507 0.36197 0.37781 0.0
C491 C 0.38882 0.35299 0.43299 0.0
C492 C 0.3528 0.3374 0.45398 0.0
C493 C 0.37284 0.34089 0.47066 0.0
C494 C 0.26755 0.29987 0.28172 0.0
C495 C 0.32702 0.34201 0.38108 0.0
H496 H 0.17079 0.26071 0.48025 0.0
H497 H 0.1272 0.19278 0.39366 0.0
H498 H 0.19279 0.22199 0.38091 0.0
H499 H 0.1565 0.19009 0.35736 0.0
H500 H 0.3615 0.36533 0.31919 0.0
H501 H 0.40424 0.35547 0.44745 0.0
H502 H 0.34073 0.32776 0.48366 0.0
H503 H 0.37601 0.33409 0.51293 0.0
Tb504 Tb 0.39604 0.13104 0.55642 0.0
C505 C 0.31944 0.10092 0.69729 0.0
C506 C 0.3144 0.13237 0.70909 0.0
C507 C 0.2842 0.09455 0.69768 0.0
C508 C 0.32769 0.12362 0.70376 0.0
C509 C 0.29766 0.08604 0.69549 0.0
C510 C 0.29257 0.1177 0.70449 0.0
C511 C 0.30439 0.05572 0.69503 0.0
N512 N 0.33299 0.09345 0.69579 0.0
C513 C 0.32588 0.07119 0.69746 0.0
C514 C 0.29017 0.06315 0.69321 0.0
Tb515 Tb 0.36778 0.11982 0.69464 0.0
N516 N 0.34885 0.13714 0.70824 0.0
C517 C 0.35783 0.15972 0.72353 0.0
C518 C 0.32351 0.15553 0.72071 0.0
C519 C 0.34535 0.16923 0.72899 0.0
H520 H 0.33674 0.06526 0.69804 0.0
H521 H 0.35261 0.18717 0.73918 0.0
H522 H 0.2821 0.1241 0.70777 0.0
H523 H 0.29882 0.03809 0.69433 0.0
H524 H 0.37458 0.17076 0.72958 0.0
H525 H 0.40726 0.06014 0.51296 0.0
H526 H 0.31389 0.16294 0.72489 0.0
H527 H 0.42939 0.1844 0.53696 0.0
H528 H 0.38679 0.07819 0.5087 0.0
H529 H 0.46773 0.20946 0.54423 0.0
H530 H 0.26739 0.08341 0.69575 0.0
H531 H 0.44583 0.0825 0.54196 0.0
H532 H 0.4786 0.1203 0.56478 0.0
H533 H 0.27354 0.05116 0.69156 0.0
H534 H 0.49523 0.16117 0.57209 0.0
N535 N 0.41288 0.11114 0.54327 0.0
C536 C 0.40334 0.08858 0.5249 0.0
C537 C 0.43681 0.09071 0.54172 0.0
C538 C 0.44676 0.11394 0.55345 0.0
C539 C 0.41506 0.07805 0.52556 0.0
C540 C 0.43425 0.12379 0.55301 0.0
H541 H 0.49129 0.19452 0.56243 0.0
N542 N 0.4311 0.15546 0.55283 0.0
C543 C 0.46119 0.19189 0.54875 0.0
C544 C 0.44367 0.14674 0.55773 0.0
C545 C 0.43943 0.17758 0.54457 0.0
C546 C 0.47443 0.1834 0.55919 0.0
C547 C 0.46571 0.16049 0.56232 0.0
O548 O 0.37188 0.12072 0.47778 0.0
O549 O 0.37202 0.13381 0.60192 0.0
O550 O 0.34662 0.09756 0.60796 0.0
O551 O 0.37081 0.09541 0.54914 0.0
O552 O 0.39373 0.16094 0.56171 0.0
O553 O 0.40414 0.13841 0.46174 0.0
O554 O 0.38146 0.13875 0.78745 0.0
O555 O 0.39329 0.1202 0.65123 0.0
O556 O 0.41752 0.15592 0.63927 0.0
O557 O 0.39483 0.15442 0.71306 0.0
O558 O 0.37605 0.09355 0.69784 0.0
O559 O 0.36546 0.1028 0.77684 0.0
C560 C 0.37704 0.15341 0.58986 0.0
C561 C 0.38207 0.14969 0.4099 0.0
C562 C 0.39666 0.18469 0.36099 0.0
C563 C 0.39861 0.16718 0.38344 0.0
C564 C 0.37794 0.18466 0.3655 0.0
C565 C 0.36335 0.14985 0.41321 0.0
C566 C 0.36142 0.16734 0.39166 0.0
C567 C 0.35155 0.08658 0.56567 0.0
C568 C 0.38503 0.13238 0.43839 0.0
C569 C 0.47824 0.15085 0.56732 0.0
C570 C 0.46878 0.12759 0.5631 0.0
C571 C 0.39248 0.10294 0.66864 0.0
C572 C 0.39813 0.12234 0.84506 0.0
C573 C 0.41542 0.14284 0.87461 0.0
C574 C 0.43428 0.14434 0.90015 0.0
C575 C 0.43592 0.1252 0.894 0.0
C576 C 0.39992 0.10321 0.84185 0.0
C577 C 0.41879 0.10477 0.86521 0.0
C578 C 0.41356 0.16407 0.69243 0.0
C579 C 0.37884 0.12122 0.81421 0.0
H580 H 0.41295 0.16702 0.3794 0.0
H581 H 0.37606 0.19794 0.34833 0.0
H582 H 0.35031 0.13669 0.43351 0.0
H583 H 0.34705 0.16745 0.39516 0.0
H584 H 0.41395 0.15748 0.87945 0.0
H585 H 0.45029 0.12594 0.91293 0.0
H586 H 0.3869 0.08706 0.82008 0.0
H587 H 0.42009 0.09004 0.86133 0.0
Tb588 Tb 0.94188 0.18318 0.75698 0.0
C589 C 0.89826 0.23254 0.66829 0.0
C590 C 0.86072 0.20658 0.65766 0.0
C591 C 0.87469 0.24628 0.68559 0.0
C592 C 0.88139 0.21081 0.65788 0.0
C593 C 0.89507 0.25057 0.68079 0.0
C594 C 0.85753 0.22432 0.67375 0.0
C595 C 0.93193 0.2758 0.67453 0.0
N596 N 0.91764 0.23609 0.6613 0.0
C597 C 0.93427 0.2574 0.66115 0.0
C598 C 0.91232 0.27237 0.68538 0.0
Tb599 Tb 0.91965 0.20468 0.64142 0.0
N600 N 0.88506 0.19404 0.64243 0.0
C601 C 0.86856 0.17314 0.61888 0.0
C602 C 0.84386 0.18484 0.63829 0.0
C603 C 0.84782 0.16816 0.61753 0.0
H604 H 0.94952 0.26021 0.65305 0.0
H605 H 0.83489 0.15144 0.60023 0.0
H606 H 0.84179 0.22132 0.67495 0.0
H607 H 0.94526 0.29259 0.6764 0.0
H608 H 0.87103 0.16005 0.60109 0.0
H609 H 0.02645 0.23432 0.76757 0.0
H610 H 0.82777 0.18093 0.63705 0.0
H611 H 0.91066 0.12816 0.75494 0.0
H612 H 0.99084 0.22726 0.77379 0.0
H613 H 0.91352 0.09472 0.7409 0.0
H614 H 0.87194 0.25989 0.69587 0.0
H615 H 0.0319 0.20282 0.74168 0.0
H616 H 0.01653 0.16138 0.72027 0.0
H617 H 0.91051 0.28665 0.69515 0.0
H618 H 0.98576 0.12334 0.71286 0.0
N619 N 0.97575 0.19197 0.74927 0.0
C620 C 0.9928 0.21326 0.76217 0.0
C621 C 0.01613 0.19958 0.74416 0.0
C622 C 0.99882 0.17775 0.73459 0.0
C623 C 0.01312 0.21738 0.75889 0.0
C624 C 0.97862 0.17445 0.73806 0.0
H625 H 0.94736 0.09833 0.7214 0.0
N626 N 0.94242 0.15076 0.74066 0.0
C627 C 0.92707 0.11103 0.73826 0.0
C628 C 0.96137 0.15311 0.73375 0.0
C629 C 0.92554 0.13012 0.74615 0.0
C630 C 0.94618 0.11313 0.72716 0.0
C631 C 0.96374 0.13438 0.72596 0.0
O632 O 0.92961 0.1712 0.84363 0.0
O633 O 0.91692 0.19004 0.73133 0.0
O634 O 0.93044 0.22629 0.73572 0.0
O635 O 0.95576 0.21947 0.78312 0.0
O636 O 0.90878 0.16133 0.77188 0.0
O637 O 0.96231 0.1959 0.84635 0.0
O638 O 0.91787 0.21993 0.55774 0.0
O639 O 0.94504 0.19941 0.66922 0.0
O640 O 0.93144 0.16131 0.66465 0.0
O641 O 0.90535 0.16777 0.62088 0.0
O642 O 0.95253 0.22685 0.6239 0.0
O643 O 0.91378 0.18723 0.54823 0.0
C644 C 0.9016 0.17321 0.74964 0.0
C645 C 0.95324 0.16599 0.91119 0.0
C646 C 0.94065 0.13195 0.96433 0.0
C647 C 0.93729 0.14805 0.93781 0.0
C648 C 0.96052 0.13425 0.96581 0.0
C649 C 0.97302 0.16796 0.91236 0.0
C650 C 0.97659 0.15217 0.9397 0.0
C651 C 0.94732 0.23213 0.77791 0.0
C652 C 0.94812 0.18107 0.87775 0.0
C653 C 0.98365 0.13752 0.71946 0.0
C654 C 0.00117 0.15917 0.72371 0.0
C655 C 0.96018 0.21567 0.64852 0.0
C656 C 0.89064 0.19214 0.47757 0.0
C657 C 0.88317 0.17239 0.43556 0.0
C658 C 0.86221 0.16011 0.40478 0.0
C659 C 0.84897 0.16858 0.41495 0.0
C660 C 0.87732 0.2006 0.48559 0.0
C661 C 0.85661 0.18882 0.45441 0.0
C662 C 0.91416 0.15526 0.62429 0.0
C663 C 0.91119 0.20167 0.51864 0.0
H664 H 0.92209 0.1466 0.93787 0.0
H665 H 0.96355 0.12219 0.98677 0.0
H666 H 0.98561 0.18146 0.89155 0.0
H667 H 0.99184 0.15377 0.94035 0.0
H668 H 0.89386 0.16652 0.4279 0.0
H669 H 0.83269 0.15956 0.39295 0.0
H670 H 0.88262 0.21585 0.51754 0.0
H671 H 0.84631 0.19519 0.46195 0.0
Tb672 Tb 0.85041 0.62226 0.78469 0.0
C673 C 0.9231 0.71253 0.7998 0.0
C674 C 0.95413 0.70949 0.8093 0.0
C675 C 0.95351 0.73766 0.74809 0.0
C676 C 0.93331 0.70183 0.8222 0.0
C677 C 0.9337 0.73148 0.76616 0.0
C678 C 0.96371 0.72665 0.7696 0.0
C679 C 0.90696 0.74011 0.78446 0.0
N680 N 0.90404 0.70635 0.81858 0.0
C681 C 0.89699 0.72112 0.81691 0.0
C682 C 0.92495 0.7448 0.75656 0.0
Tb683 Tb 0.88918 0.67501 0.87303 0.0
N684 N 0.92378 0.6856 0.86206 0.0
C685 C 0.93574 0.67895 0.89721 0.0
C686 C 0.96517 0.70047 0.83917 0.0
C687 C 0.9561 0.68555 0.88455 0.0
H688 H 0.88286 0.71759 0.8373 0.0
H689 H 0.96503 0.6796 0.91143 0.0
H690 H 0.97945 0.7323 0.7581 0.0
H691 H 0.90061 0.75094 0.78041 0.0
H692 H 0.93052 0.66933 0.93748 0.0
H693 H 0.78677 0.64019 0.758 0.0
H694 H 0.9811 0.70585 0.8303 0.0
H695 H 0.85716 0.59257 0.90353 0.0
H696 H 0.82335 0.65091 0.76987 0.0
H697 H 0.83502 0.5629 0.9641 0.0
H698 H 0.9616 0.75178 0.72082 0.0
H699 H 0.76021 0.6042 0.79083 0.0
H700 H 0.75273 0.57084 0.84703 0.0
H701 H 0.93268 0.75953 0.73141 0.0
H702 H 0.76623 0.55059 0.90733 0.0
N703 N 0.81834 0.61958 0.79569 0.0
C704 C 0.81225 0.63419 0.77736 0.0
C705 C 0.77637 0.60831 0.7924 0.0
C706 C 0.78292 0.59464 0.81882 0.0
C707 C 0.79127 0.62855 0.77357 0.0
C708 C 0.80425 0.60086 0.82012 0.0
H709 H 0.79692 0.54829 0.95392 0.0
N710 N 0.83288 0.59762 0.85983 0.0
C711 C 0.82826 0.57033 0.93364 0.0
C712 C 0.81186 0.58964 0.85442 0.0
C713 C 0.84105 0.58796 0.89937 0.0
C714 C 0.80677 0.56198 0.9273 0.0
C715 C 0.7983 0.57168 0.88776 0.0
O716 O 0.84638 0.59047 0.76779 0.0
O717 O 0.88304 0.64901 0.79842 0.0
O718 O 0.87297 0.6789 0.78323 0.0
O719 O 0.84751 0.64488 0.72188 0.0
O720 O 0.86986 0.63445 0.70451 0.0
O721 O 0.83288 0.60205 0.69558 0.0
O722 O 0.87819 0.69327 0.92417 0.0
O723 O 0.85615 0.6482 0.86035 0.0
O724 O 0.87584 0.61933 0.83821 0.0
O725 O 0.89542 0.65062 0.91636 0.0
O726 O 0.8725 0.65787 0.95369 0.0
O727 O 0.90987 0.69983 0.94838 0.0
C728 C 0.88695 0.64953 0.7399 0.0
C729 C 0.84107 0.57448 0.66027 0.0
C730 C 0.86544 0.57505 0.58715 0.0
C731 C 0.85923 0.58629 0.63037 0.0
C732 C 0.85312 0.55165 0.57412 0.0
C733 C 0.82897 0.55113 0.64683 0.0
C734 C 0.83498 0.53979 0.60391 0.0
C735 C 0.85849 0.66706 0.73156 0.0
C736 C 0.83553 0.58572 0.7105 0.0
C737 C 0.77684 0.56446 0.8826 0.0
C738 C 0.76914 0.57591 0.84805 0.0
C739 C 0.85434 0.64498 0.91991 0.0
C740 C 0.89436 0.7075 1.03404 0.0
C741 C 0.9032 0.69965 0.08019 0.0
C742 C 0.90332 0.70417 0.14757 0.0
C743 C 0.89423 0.71646 0.16846 0.0
C744 C 0.88525 0.71962 0.05562 0.0
C745 C 0.88515 0.72401 0.12257 0.0
C746 C 0.88996 0.63019 0.89133 0.0
C747 C 0.89581 0.70461 0.9638 0.0
H748 H 0.86845 0.60423 0.63986 0.0
H749 H 0.85751 0.54254 0.54108 0.0
H750 H 0.81505 0.54165 0.67036 0.0
H751 H 0.8256 0.52176 0.59394 0.0
H752 H 0.9104 0.69041 0.06387 0.0
H753 H 0.89387 0.71991 0.22013 0.0
H754 H 0.87847 0.72594 1.02071 0.0
H755 H 0.87812 0.73339 0.13895 0.0
C756 C 0.09781 0.50339 0.93103 0.0
C757 C 0.07926 0.4903 0.95934 0.0
C758 C 0.09772 0.50353 0.86178 0.0
C759 C 0.06034 0.48433 0.69786 0.0
H760 H 0.11136 0.50173 0.62129 0.0
C761 C 0.06211 0.4911 0.41138 0.0
C762 C 0.07727 0.48931 0.37873 0.0
C763 C 0.06242 0.49146 0.48077 0.0
C764 C 0.09671 0.49652 0.64065 0.0
H765 H 0.04594 0.46668 0.93272 0.0
H766 H 0.04574 0.46652 0.81479 0.0
H767 H 0.11171 0.5013 0.73901 0.0
H768 H 0.10472 0.48631 0.39753 0.0
H769 H 0.10501 0.48635 0.51575 0.0
H770 H 0.04518 0.47883 0.59938 0.0
C771 C 0.06056 0.47731 0.84548 0.0
C772 C 0.097 0.49661 0.70994 0.0
C773 C 0.06066 0.47731 0.91455 0.0
C774 C 0.09269 0.48781 0.41933 0.0
C775 C 0.09294 0.48802 0.48856 0.0
C776 C 0.06002 0.48412 0.62856 0.0
C777 C 0.07906 0.49047 0.81662 0.0
C778 C 0.07882 0.4905 0.74095 0.0
C779 C 0.07784 0.48991 0.52174 0.0
C780 C 0.07819 0.4902 0.59753 0.0
H781 H 0.11252 0.51396 0.96256 0.0
H782 H 0.11247 0.51433 0.84404 0.0
H783 H 0.04584 0.47977 0.71737 0.0
H784 H 0.04992 0.4924 0.38325 0.0
H785 H 0.05053 0.4933 0.50212 0.0
C786 C 0.61531 0.51973 0.86064 0.0
C787 C 0.6141 0.50198 0.89329 0.0
C788 C 0.61607 0.52002 0.7918 0.0
C789 C 0.62247 0.48985 0.6388 0.0
H790 H 0.60677 0.52672 0.54662 0.0
C791 C 0.62978 0.49661 0.35378 0.0
C792 C 0.6178 0.50326 0.31502 0.0
C793 C 0.6297 0.49657 0.42304 0.0
C794 C 0.61104 0.51597 0.57028 0.0
H795 H 0.61261 0.47037 0.87509 0.0
H796 H 0.61325 0.47044 0.75713 0.0
H797 H 0.60515 0.5258 0.66315 0.0
H798 H 0.59596 0.51481 0.32275 0.0
H799 H 0.59535 0.51429 0.43996 0.0
H800 H 0.62759 0.47938 0.54527 0.0
C801 C 0.61416 0.48467 0.78433 0.0
C802 C 0.61043 0.51573 0.63913 0.0
C803 C 0.61359 0.4845 0.85323 0.0
C804 C 0.60572 0.5098 0.34933 0.0
C805 C 0.60547 0.50959 0.41817 0.0
C806 C 0.62291 0.48995 0.56977 0.0
C807 C 0.61547 0.50247 0.7512 0.0
C808 C 0.61614 0.50269 0.67585 0.0
C809 C 0.6175 0.50305 0.45758 0.0
C810 C 0.61719 0.503 0.53309 0.0
H811 H 0.6159 0.5337 0.88851 0.0
H812 H 0.61746 0.53443 0.77092 0.0
H813 H 0.6274 0.47968 0.66295 0.0
H814 H 0.63956 0.49165 0.33072 0.0
H815 H 0.6396 0.49169 0.44939 0.0
C816 C 0.59445 0.07001 0.66712 0.0
C817 C 0.58542 0.04995 0.69672 0.0
C818 C 0.59389 0.07016 0.59789 0.0
C819 C 0.56842 0.03195 0.43272 0.0
H820 H 0.60921 0.08445 0.36106 0.0
C821 C 0.57314 0.03199 0.14548 0.0
C822 C 0.58033 0.05196 0.11584 0.0
C823 C 0.57365 0.0317 0.21469 0.0
C824 C 0.59741 0.06959 0.37934 0.0
H825 H 0.56993 0.01419 0.67201 0.0
H826 H 0.56894 0.01424 0.55335 0.0
H827 H 0.61067 0.08395 0.47929 0.0
H828 H 0.59236 0.08718 0.14065 0.0
H829 H 0.59378 0.08695 0.2594 0.0
H830 H 0.55534 0.01756 0.33243 0.0
C831 C 0.57592 0.03016 0.58342 0.0
C832 C 0.59822 0.06928 0.44864 0.0
C833 C 0.57644 0.03006 0.6528 0.0
C834 C 0.58751 0.07153 0.15977 0.0
C835 C 0.58819 0.07131 0.22912 0.0
C836 C 0.56769 0.03223 0.36339 0.0
C837 C 0.58449 0.05024 0.55354 0.0
C838 C 0.58373 0.05047 0.47775 0.0
C839 C 0.58135 0.05138 0.25886 0.0
C840 C 0.58213 0.05107 0.33445 0.0
H841 H 0.60206 0.08593 0.69744 0.0
H842 H 0.60069 0.08621 0.57942 0.0
H843 H 0.55654 0.01709 0.45073 0.0
H844 H 0.56705 0.01629 0.11524 0.0
H845 H 0.56824 0.01582 0.23349 0.0
C846 C 0.7552 0.87623 0.5699 0.0
C847 C 0.77389 0.88634 0.54018 0.0
C848 C 0.75545 0.87684 0.6394 0.0
C849 C 0.79171 0.88985 0.80187 0.0
H850 H 0.7458 0.88823 0.88148 0.0
C851 C 0.79552 0.90155 0.09294 0.0
C852 C 0.77691 0.89245 0.12302 0.0
C853 C 0.79516 0.90084 1.02343 0.0
C854 C 0.7588 0.88842 0.86107 0.0
H855 H 0.80774 0.90443 0.56534 0.0
H856 H 0.80827 0.90564 0.68371 0.0
H857 H 0.74507 0.88662 0.7629 0.0
H858 H 0.74307 0.87552 0.099 0.0
H859 H 0.74235 0.87403 0.98021 0.0
H860 H 0.80541 0.89154 0.89986 0.0
C861 C 0.79312 0.89711 0.65358 0.0
C862 C 0.75836 0.88749 0.79152 0.0
C863 C 0.79283 0.89658 0.58421 0.0
C864 C 0.75792 0.88284 0.07946 0.0
C865 C 0.75753 0.88209 1.00999 0.0
C866 C 0.79212 0.89073 0.8714 0.0
C867 C 0.77444 0.88738 0.68362 0.0
C868 C 0.77482 0.8882 0.75955 0.0
C869 C 0.77614 0.89101 0.9795 0.0
C870 C 0.77569 0.89006 0.90346 0.0
H871 H 0.74016 0.8675 0.53933 0.0
H872 H 0.7405 0.86858 0.65824 0.0
H873 H 0.8047 0.89007 0.78136 0.0
H874 H 0.81059 0.90956 0.12328 0.0
H875 H 0.81009 0.90843 1.00442 0.0
C876 C 0.19024 0.78821 0.62297 0.0
C877 C 0.19298 0.8069 0.59096 0.0
C878 C 0.1907 0.7878 0.69372 0.0
C879 C 0.19406 0.82265 0.86149 0.0
H880 H 0.18932 0.7721 0.94118 0.0
C881 C 0.19439 0.82113 0.16012 0.0
C882 C 0.19179 0.80253 0.19231 0.0
C883 C 0.19388 0.82149 0.08936 0.0
C884 C 0.19061 0.78666 0.9217 0.0
H885 H 0.1966 0.8392 0.61631 0.0
H886 H 0.198 0.83895 0.73478 0.0
H887 H 0.19015 0.77299 0.82372 0.0
H888 H 0.18843 0.77034 0.16722 0.0
H889 H 0.18696 0.77049 1.04868 0.0
H890 H 0.19453 0.83631 0.95944 0.0
C891 C 0.19595 0.82434 0.70633 0.0
C892 C 0.19112 0.78718 0.85142 0.0
C893 C 0.19547 0.82469 0.63602 0.0
C894 C 0.18941 0.78477 0.14738 0.0
C895 C 0.18889 0.78506 0.07703 0.0
C896 C 0.19356 0.82213 0.93176 0.0
C897 C 0.19332 0.80579 0.73906 0.0
C898 C 0.19288 0.8052 0.81749 0.0
C899 C 0.19138 0.80354 1.04415 0.0
C900 C 0.1918 0.80411 0.9657 0.0
H901 H 0.18702 0.77331 0.59291 0.0
H902 H 0.18836 0.77271 0.71234 0.0
H903 H 0.19535 0.83721 0.84202 0.0
H904 H 0.19753 0.83603 0.19009 0.0
H905 H 0.1961 0.83653 0.07064 0.0
C906 C 0.27912 0.3238 0.67212 0.0
C907 C 0.26654 0.30444 0.6265 0.0
C908 C 0.27923 0.32324 0.7413 0.0
C909 C 0.24987 0.28572 0.87309 0.0
H910 H 0.29818 0.3309 0.99172 0.0
C911 C 0.25635 0.2802 0.16158 0.0
C912 C 0.26767 0.29993 0.20658 0.0
C913 C 0.25614 0.28059 0.09228 0.0
C914 C 0.28429 0.31813 0.96015 0.0
H915 H 0.24384 0.26907 0.62227 0.0
H916 H 0.24421 0.26793 0.74032 0.0
H917 H 0.29794 0.33191 0.87389 0.0
H918 H 0.2882 0.33574 0.20946 0.0
H919 H 0.28783 0.33647 0.09128 0.0
H920 H 0.23633 0.27187 0.95965 0.0
C921 C 0.25401 0.28392 0.72329 0.0
C922 C 0.28413 0.31873 0.89101 0.0
C923 C 0.25388 0.28452 0.65418 0.0
C924 C 0.27909 0.32001 0.17815 0.0
C925 C 0.27899 0.32041 0.10903 0.0
C926 C 0.25007 0.28507 0.94226 0.0
C927 C 0.26672 0.30326 0.76934 0.0
C928 C 0.2669 0.30257 0.84501 0.0
C929 C 0.26744 0.30073 0.06369 0.0
C930 C 0.26727 0.30128 0.98813 0.0
H931 H 0.28885 0.33966 0.65441 0.0
H932 H 0.28905 0.33884 0.77269 0.0
H933 H 0.23593 0.27297 0.84172 0.0
H934 H 0.2477 0.26422 0.17987 0.0
H935 H 0.24726 0.26481 0.06112 0.0
C936 C 0.43469 0.21186 0.35347 0.0
C937 C 0.41342 0.20162 0.32724 0.0
C938 C 0.45052 0.22393 0.31497 0.0
C939 C 0.4572 0.23682 0.13934 0.0
H940 H 0.49343 0.21252 0.16185 0.0
C941 C 0.45856 0.16337 1.00378 0.0
C942 C 0.45086 0.16497 0.94126 0.0
C943 C 0.46907 0.18206 1.05065 0.0
C944 C 0.48341 0.21944 0.15445 0.0
H945 H 0.39202 0.19762 0.24281 0.0
H946 H 0.41901 0.21734 0.17497 0.0
H947 H 0.48009 0.22049 0.25574 0.0
H948 H 0.45124 0.18791 0.87493 0.0
H949 H 0.47036 0.22091 0.95619 0.0
H950 H 0.45787 0.23249 1.03685 0.0
C951 C 0.42401 0.21696 0.2254 0.0
C952 C 0.47594 0.22444 0.20902 0.0
C953 C 0.4083 0.20535 0.26426 0.0
C954 C 0.45649 0.18618 0.92357 0.0
C955 C 0.46737 0.20506 0.97033 0.0
C956 C 0.46391 0.23087 0.08444 0.0
C957 C 0.44535 0.2254 0.24884 0.0
C958 C 0.46083 0.23083 0.20088 0.0
C959 C 0.47223 0.20291 1.03603 0.0
C960 C 0.47507 0.21964 0.09086 0.0
H961 H 0.43903 0.20959 0.40262 0.0
H962 H 0.46671 0.2308 0.33589 0.0
H963 H 0.44695 0.24345 0.13181 0.0
H964 H 0.45456 0.14726 1.0189 0.0
H965 H 0.47245 0.17929 0.10004 0.0
C966 C 0.8637 0.12583 0.3716 0.0
C967 C 0.8548 0.13908 0.36059 0.0
C968 C 0.86113 0.10967 0.32267 0.0
C969 C 0.85971 0.08003 0.20951 0.0
H970 H 0.86348 0.10723 1.04932 0.0
C971 C 0.90288 0.10244 0.96067 0.0
C972 C 0.92348 0.11384 0.99386 0.0
C973 C 0.88579 0.09082 0.99488 0.0
C974 C 0.86198 0.09881 0.09273 0.0
H975 H 0.83296 0.14269 0.29341 0.0
H976 H 0.82693 0.11322 0.21078 0.0
H977 H 0.84669 0.11421 0.13384 0.0
H978 H 0.94256 0.11947 0.08614 0.0
H979 H 0.91275 0.0994 0.14621 0.0
H980 H 0.87758 0.06697 0.16957 0.0
C981 C 0.83734 0.1165 0.25528 0.0
C982 C 0.85217 0.1028 0.14195 0.0
C983 C 0.84054 0.13328 0.30346 0.0
C984 C 0.92682 0.11089 0.05953 0.0
C985 C 0.9097 0.09927 0.09383 0.0
C986 C 0.87006 0.07652 0.16061 0.0
C987 C 0.84898 0.10578 0.26188 0.0
C988 C 0.8522 0.09481 0.20303 0.0
C989 C 0.88905 0.09051 0.06281 0.0
C990 C 0.87236 0.08703 0.10345 0.0
H991 H 0.87392 0.12894 0.41634 0.0
H992 H 0.87028 0.10183 0.33112 0.0
H993 H 0.85917 0.07259 0.25437 0.0
H994 H 0.89996 0.10414 0.90957 0.0
H995 H 0.87004 0.08394 0.96957 0.0
C996 C 0.88241 0.58308 0.48456 0.0
C997 C 0.88383 0.58819 0.55243 0.0
C998 C 0.89731 0.59839 0.44884 0.0
C999 C 0.93063 0.63414 0.38028 0.0
H1000 H 0.9261 0.68618 0.42163 0.0
C1001 C 0.92554 0.70918 0.25287 0.0
C1002 C 0.91248 0.69558 0.19568 0.0
C1003 C 0.93296 0.70043 0.30005 0.0
C1004 C 0.92826 0.67226 0.40978 0.0
H1005 H 0.90351 0.61186 0.63739 0.0
H1006 H 0.92915 0.63878 0.57438 0.0
H1007 H 0.92072 0.66105 0.50299 0.0
H1008 H 0.89752 0.66249 0.14181 0.0
H1009 H 0.90978 0.64705 0.22432 0.0
H1010 H 0.93691 0.64474 0.28535 0.0
C1011 C 0.91649 0.6231 0.54897 0.0
C1012 C 0.92519 0.65778 0.45682 0.0
C1013 C 0.90169 0.60774 0.58481 0.0
C1014 C 0.90769 0.6734 0.18523 0.0
C1015 C 0.91494 0.66462 0.23245 0.0
C1016 C 0.93392 0.64877 0.33333 0.0
C1017 C 0.91384 0.61911 0.48033 0.0
C1018 C 0.92484 0.63777 0.44086 0.0
C1019 C 0.92727 0.67786 0.29119 0.0
C1020 C 0.9312 0.66707 0.34602 0.0
H1021 H 0.86885 0.5682 0.45811 0.0
H1022 H 0.89468 0.59486 0.39588 0.0
H1023 H 0.9309 0.61907 0.36727 0.0
H1024 H 0.92977 0.72648 0.26148 0.0
H1025 H 0.94264 0.71117 0.3443 0.0
C1026 C 0.24204 0.34723 0.4321 0.0
C1027 C 0.24265 0.33537 0.37559 0.0
C1028 C 0.23423 0.36179 0.42681 0.0
C1029 C 0.2004 0.37276 0.30708 0.0
H1030 H 0.22142 0.42721 0.42403 0.0
C1031 C 0.1637 0.42823 0.27548 0.0
C1032 C 0.17746 0.45155 0.28618 0.0
C1033 C 0.17049 0.41365 0.29414 0.0
C1034 C 0.21541 0.41217 0.39033 0.0
H1035 H 0.23584 0.32961 0.26979 0.0
H1036 H 0.22341 0.35544 0.26017 0.0
H1037 H 0.23674 0.40397 0.43949 0.0
H1038 H 0.20885 0.47755 0.32977 0.0
H1039 H 0.22081 0.45254 0.35902 0.0
H1040 H 0.17985 0.38133 0.2558 0.0
C1041 C 0.22826 0.35331 0.3088 0.0
C1042 C 0.22407 0.3986 0.39991 0.0
C1043 C 0.23572 0.33868 0.31417 0.0
C1044 C 0.19785 0.45974 0.31895 0.0
C1045 C 0.20468 0.44525 0.33691 0.0
C1046 C 0.19193 0.3864 0.29707 0.0
C1047 C 0.22678 0.36468 0.36492 0.0
C1048 C 0.21693 0.37881 0.35779 0.0
C1049 C 0.19129 0.42191 0.32383 0.0
C1050 C 0.1994 0.40651 0.33798 0.0
H1051 H 0.24678 0.34457 0.48019 0.0
H1052 H 0.23331 0.37011 0.47134 0.0
H1053 H 0.19394 0.35741 0.2744 0.0
H1054 H 0.1479 0.42119 0.25058 0.0
H1055 H 0.15941 0.39585 0.2844 0.0
C1056 C 0.65649 0.65305 0.1248 0.0
C1057 C 0.6399 0.64067 0.16081 0.0
C1058 C 0.6705 0.67591 0.14373 0.0
C1059 C 0.67534 0.72487 0.24445 0.0
H1060 H 0.73336 0.7529 0.21169 0.0
C1061 C 0.74793 0.81764 0.21442 0.0
C1062 C 0.74983 0.83025 0.27296 0.0
C1063 C 0.73478 0.79445 0.20589 0.0
C1064 C 0.71717 0.74529 0.22102 0.0
H1065 H 0.62555 0.6423 0.24656 0.0
H1066 H 0.6503 0.68197 0.28084 0.0
H1067 H 0.71056 0.71247 0.18888 0.0
H1068 H 0.74028 0.82852 0.36988 0.0
H1069 H 0.71654 0.78767 0.35421 0.0
H1070 H 0.68227 0.75792 0.27741 0.0
C1071 C 0.65217 0.67428 0.23675 0.0
C1072 C 0.70403 0.7221 0.2076 0.0
C1073 C 0.63803 0.65149 0.21735 0.0
C1074 C 0.73856 0.81919 0.32354 0.0
C1075 C 0.72513 0.79588 0.31469 0.0
C1076 C 0.6886 0.74808 0.25866 0.0
C1077 C 0.66843 0.68693 0.19968 0.0
C1078 C 0.68281 0.71155 0.21807 0.0
C1079 C 0.72326 0.78329 0.25587 0.0
C1080 C 0.70956 0.75855 0.24606 0.0
H1081 H 0.65818 0.64524 0.08058 0.0
H1082 H 0.68255 0.68505 0.11318 0.0
H1083 H 0.65905 0.71749 0.25237 0.0
H1084 H 0.75671 0.82579 0.17511 0.0
H1085 H 0.73353 0.78522 0.15991 0.0
C1086 C 0.43865 0.97292 1.01223 0.0
C1087 C 0.4539 0.9674 1.00047 0.0
C1088 C 0.42432 0.96204 0.05617 0.0
C1089 C 0.39989 0.91004 0.13473 0.0
H1090 H 0.38368 0.94267 0.25109 0.0
C1091 C 0.32913 0.86535 0.27882 0.0
C1092 C 0.33127 0.87432 0.34391 0.0
C1093 C 0.34452 0.87691 0.23854 0.0
C1094 C 0.38816 0.93333 0.2193 0.0
H1095 H 0.46599 0.94606 1.02599 0.0
H1096 H 0.44121 0.92734 0.10332 0.0
H1097 H 0.41009 0.96268 0.1793 0.0
H1098 H 0.35132 0.90263 0.41742 0.0
H1099 H 0.37835 0.92266 0.34738 0.0
H1100 H 0.37816 0.88073 0.17518 0.0
C1101 C 0.44021 0.93995 0.07807 0.0
C1102 C 0.40313 0.94477 0.1776 0.0
C1103 C 0.45458 0.95087 1.03426 0.0
C1104 C 0.34926 0.89513 0.36774 0.0
C1105 C 0.36464 0.90674 0.32735 0.0
C1106 C 0.38489 0.8986 0.17627 0.0
C1107 C 0.42483 0.94532 0.08936 0.0
C1108 C 0.40916 0.93326 0.13467 0.0
C1109 C 0.36247 0.89776 0.26222 0.0
C1110 C 0.37877 0.91007 0.21894 0.0
H1111 H 0.43783 0.98574 0.98761 0.0
H1112 H 0.41258 0.96647 0.0632 0.0
H1113 H 0.40399 0.90059 0.10186 0.0
H1114 H 0.31561 0.84925 0.25904 0.0
H1115 H 0.34221 0.86959 0.18847 0.0
C1116 C 0.53713 0.06649 0.7725 0.0
C1117 C 0.54457 0.06737 0.83814 0.0
C1118 C 0.52271 0.07315 0.75635 0.0
C1119 C 0.49566 0.10182 0.81913 0.0
H1120 H 0.45252 0.06248 0.67608 0.0
C1121 C 0.43117 0.11877 0.70431 0.0
C1122 C 0.4108 0.10017 0.68547 0.0
C1123 C 0.44806 0.11594 0.72491 0.0
C1124 C 0.46429 0.07358 0.71645 0.0
H1125 H 0.54264 0.07604 0.93879 0.0
H1126 H 0.51714 0.08777 0.91074 0.0
H1127 H 0.48091 0.05622 0.70993 0.0
H1128 H 0.39204 0.06414 0.67664 0.0
H1129 H 0.42133 0.05906 0.71196 0.0
H1130 H 0.47851 0.11884 0.82619 0.0
C1131 C 0.52292 0.08234 0.87146 0.0
C1132 C 0.48086 0.07018 0.73545 0.0
C1133 C 0.53765 0.07577 0.88771 0.0
C1134 C 0.40764 0.07875 0.68929 0.0
C1135 C 0.42449 0.07588 0.70946 0.0
C1136 C 0.47901 0.10527 0.79993 0.0
C1137 C 0.51471 0.0804 0.80541 0.0
C1138 C 0.49692 0.08428 0.78682 0.0
C1139 C 0.44501 0.09442 0.72754 0.0
C1140 C 0.46303 0.09115 0.74826 0.0
H1141 H 0.54199 0.05983 0.73327 0.0
H1142 H 0.51732 0.07194 0.705 0.0
H1143 H 0.50769 0.11308 0.85871 0.0
H1144 H 0.43406 0.13554 0.70396 0.0
H1145 H 0.46356 0.13063 0.7381 0.0
C1146 C 0.94668 0.2654 0.82943 0.0
C1147 C 0.95754 0.25409 0.81975 0.0
C1148 C 0.95662 0.28648 0.86667 0.0
C1149 C 0.00385 0.32531 0.98863 0.0
H1150 H 0.99173 0.37009 0.93451 0.0
C1151 C 0.04404 0.42736 1.03202 0.0
C1152 C 0.05127 0.43154 0.09939 0.0
C1153 C 0.03027 0.40549 1.00173 0.0
C1154 C 0.99542 0.35786 0.95023 0.0
H1155 H 0.98745 0.25618 0.84258 0.0
H1156 H 0.00485 0.29286 0.90619 0.0
H1157 H 0.97308 0.33278 0.8738 0.0
H1158 H 0.05113 0.41597 0.18681 0.0
H1159 H 0.02654 0.37781 0.13507 0.0
H1160 H 0.02685 0.35059 0.06307 0.0
C1161 C 0.9885 0.28538 0.8861 0.0
C1162 C 0.98448 0.33627 0.91578 0.0
C1163 C 0.97852 0.26428 0.84917 0.0
C1164 C 0.04493 0.41331 0.13551 0.0
C1165 C 0.03115 0.3914 0.10538 0.0
C1166 C 0.01486 0.3469 1.02276 0.0
C1167 C 0.97776 0.29689 0.89536 0.0
C1168 C 0.98868 0.31969 0.93398 0.0
C1169 C 0.02387 0.3871 1.03768 0.0
C1170 C 0.01099 0.36361 1.00378 0.0
H1171 H 0.9304 0.25792 0.80843 0.0
H1172 H 0.94763 0.2945 0.87341 0.0
H1173 H 0.00734 0.31303 1.00517 0.0
H1174 H 0.04957 0.44093 1.00216 0.0
H1175 H 0.02553 0.403 0.94935 0.0
C1176 C 0.8195 0.64105 0.93412 0.0
C1177 C 0.8346 0.63524 0.95049 0.0
C1178 C 0.80009 0.6304 0.95838 0.0
C1179 C 0.76585 0.57962 1.04104 0.0
H1180 H 0.73154 0.60656 1.04654 0.0
C1181 C 0.68671 0.5433 0.15574 0.0
C1182 C 0.66956 0.53966 0.11163 0.0
C1183 C 0.70725 0.555 0.13905 0.0
C1184 C 0.74095 0.59881 1.04517 0.0
H1185 H 0.84292 0.61691 1.01478 0.0
H1186 H 0.80949 0.59882 0.05947 0.0
H1187 H 0.76694 0.62796 1.0173 0.0
H1188 H 0.66046 0.54657 1.01756 0.0
H1189 H 0.69638 0.56761 0.98926 0.0
H1190 H 0.73977 0.55073 0.07176 0.0
C1191 C 0.81172 0.61025 1.02365 0.0
C1192 C 0.7613 0.61102 1.02775 0.0
C1193 C 0.83104 0.62075 0.99846 0.0
C1194 C 0.67338 0.54872 0.05176 0.0
C1195 C 0.69391 0.56083 1.03576 0.0
C1196 C 0.74565 0.56761 0.05998 0.0
C1197 C 0.79556 0.61429 1.00232 0.0
C1198 C 0.7741 0.60159 1.02454 0.0
C1199 C 0.71108 0.564 0.07898 0.0
C1200 C 0.73289 0.57699 0.06157 0.0
H1201 H 0.82255 0.65358 0.90144 0.0
H1202 H 0.78846 0.63438 0.94055 0.0
H1203 H 0.77475 0.57135 1.03802 0.0
H1204 H 0.68419 0.53687 0.20272 0.0
H1205 H 0.72019 0.55734 0.17352 0.0
C1206 C 0.90072 0.60159 0.88159 0.0
C1207 C 0.90141 0.61952 0.91897 0.0
C1208 C 0.91168 0.59161 0.9057 0.0
C1209 C 0.93671 0.58443 0.05865 0.0
H1210 H 0.96188 0.5641 0.93551 0.0
C1211 C 0.96589 0.51703 1.03517 0.0
C1212 C 0.97772 0.52148 0.09687 0.0
C1213 C 0.95915 0.53136 1.01519 0.0
C1214 C 0.95487 0.56957 0.97059 0.0
H1215 H 0.91385 0.64053 1.01234 0.0
H1216 H 0.93333 0.62331 0.05419 0.0
H1217 H 0.94515 0.58441 0.89866 0.0
H1218 H 0.99213 0.54485 0.18543 0.0
H1219 H 0.98029 0.57006 0.1505 0.0
H1220 H 0.94642 0.56938 0.13048 0.0
C1221 C 0.9242 0.61693 1.00605 0.0
C1222 C 0.94518 0.58119 0.94938 0.0
C1223 C 0.91316 0.62696 0.98181 0.0
C1224 C 0.98316 0.54104 0.13746 0.0
C1225 C 0.97618 0.55534 0.1177 0.0
C1226 C 0.94651 0.57284 0.07998 0.0
C1227 C 0.92374 0.5992 0.96805 0.0
C1228 C 0.93556 0.58841 0.99267 0.0
C1229 C 0.9639 0.55055 0.05646 0.0
C1230 C 0.95536 0.56487 1.03589 0.0
H1231 H 0.8918 0.59527 0.8331 0.0
H1232 H 0.91049 0.57771 0.87541 0.0
H1233 H 0.92938 0.58956 0.09341 0.0
H1234 H 0.96151 0.50215 1.0026 0.0
H1235 H 0.94958 0.52696 0.96804 0.0
C1236 C 0.56903 0.34025 0.95124 0.0
C1237 C 0.56526 0.35598 0.9831 0.0
C1238 C 0.55237 0.31984 0.91971 0.0
C1239 C 0.49564 0.28009 0.9166 0.0
H1240 H 0.50026 0.25691 0.74711 0.0
C1241 C 0.42617 0.19912 0.76875 0.0
C1242 C 0.43071 0.18556 0.72865 0.0
C1243 C 0.44229 0.21994 0.80007 0.0
C1244 C 0.49876 0.26286 0.79491 0.0
H1245 H 0.54092 0.36252 1.00669 0.0
H1246 H 0.51172 0.32678 0.95137 0.0
H1247 H 0.52864 0.29307 0.80016 0.0
H1248 H 0.45592 0.18271 0.69314 0.0
H1249 H 0.48405 0.21853 0.74921 0.0
H1250 H 0.46587 0.24993 0.91187 0.0
C1251 C 0.52764 0.33027 0.95112 0.0
C1252 C 0.51507 0.28372 0.82522 0.0
C1253 C 0.54437 0.35083 0.98226 0.0
C1254 C 0.45183 0.19297 0.72243 0.0
C1255 C 0.46799 0.21363 0.75448 0.0
C1256 C 0.47935 0.25916 0.88642 0.0
C1257 C 0.53145 0.31453 0.91947 0.0
C1258 C 0.51377 0.29257 0.88657 0.0
C1259 C 0.46347 0.22762 0.79309 0.0
C1260 C 0.48072 0.25011 0.82529 0.0
H1261 H 0.58494 0.34377 0.95038 0.0
H1262 H 0.55587 0.30803 0.89635 0.0
H1263 H 0.49423 0.28629 0.9642 0.0
H1264 H 0.41011 0.19395 0.77487 0.0
H1265 H 0.43803 0.23018 0.82859 0.0
C1266 C 0.87748 0.18605 0.78538 0.0
C1267 C 0.88046 0.16903 0.7591 0.0
C1268 C 0.85733 0.18131 0.79658 0.0
C1269 C 0.80351 0.13365 0.81288 0.0
H1270 H 0.78683 0.17693 0.78327 0.0
C1271 C 0.71833 0.11248 0.83213 0.0
C1272 C 0.71664 0.12869 0.87022 0.0
C1273 C 0.73761 0.11766 0.81101 0.0
C1274 C 0.79124 0.16466 0.79195 0.0
H1275 H 0.86512 0.13361 0.72758 0.0
H1276 H 0.83002 0.12541 0.74445 0.0
H1277 H 0.82201 0.18548 0.76514 0.0
H1278 H 0.73349 0.16315 0.91401 0.0
H1279 H 0.76688 0.17238 0.87612 0.0
H1280 H 0.77275 0.11285 0.83959 0.0
C1281 C 0.84303 0.1424 0.75713 0.0
C1282 C 0.81152 0.16962 0.78189 0.0
C1283 C 0.86315 0.14711 0.74677 0.0
C1284 C 0.73426 0.15045 0.88371 0.0
C1285 C 0.75343 0.1557 0.86211 0.0
C1286 C 0.78322 0.12864 0.82244 0.0
C1287 C 0.83972 0.15942 0.782 0.0
C1288 C 0.81803 0.15422 0.79249 0.0
C1289 C 0.75558 0.13921 0.82722 0.0
C1290 C 0.7768 0.1441 0.81248 0.0
H1291 H 0.89072 0.20297 0.7974 0.0
H1292 H 0.85562 0.19482 0.81706 0.0
H1293 H 0.80791 0.12147 0.82295 0.0
H1294 H 0.70512 0.09548 0.82209 0.0
H1295 H 0.7386 0.1046 0.78361 0.0
C1296 C 0.6207 0.03312 1.04494 0.0
C1297 C 0.61638 0.03367 0.97773 0.0
C1298 C 0.62889 0.0202 0.06636 0.0
C1299 C 0.6601 0.99562 1.02584 0.0
H1300 H 0.63107 0.95557 0.15252 0.0
C1301 C 0.68517 0.93524 0.12858 0.0
C1302 C 0.68178 0.93046 0.1932 0.0
C1303 C 0.67808 0.94818 0.09879 0.0
C1304 C 0.63966 0.9669 0.11806 0.0
H1305 H 0.61904 0.02293 0.88015 0.0
H1306 H 0.63389 0.0004 0.91786 0.0
H1307 H 0.61714 0.97724 0.10622 0.0
H1308 H 0.66949 0.93648 0.27856 0.0
H1309 H 0.65806 0.95976 0.2284 0.0
H1310 H 0.68305 0.98584 1.0393 0.0
C1311 C 0.63028 0.00948 0.95376 0.0
C1312 C 0.63151 0.9792 0.09106 0.0
C1313 C 0.62154 0.02206 0.93214 0.0
C1314 C 0.67213 0.93974 0.22845 0.0
C1315 C 0.66535 0.95289 0.19924 0.0
C1316 C 0.66847 0.98349 0.05363 0.0
C1317 C 0.63368 0.00813 1.02116 0.0
C1318 C 0.64174 0.99391 1.04531 0.0
C1319 C 0.66764 0.9568 0.13333 0.0
C1320 C 0.65852 0.96919 0.10098 0.0
H1321 H 0.61751 0.04255 0.08106 0.0
H1322 H 0.63167 0.01982 0.11856 0.0
H1323 H 0.66837 0.00691 0.99085 0.0
H1324 H 0.69242 0.92812 0.10016 0.0
H1325 H 0.68008 0.95068 1.04798 0.0
C1326 C 0.17527 0.72871 0.29712 0.0
C1327 C 0.16724 0.73614 0.34571 0.0
C1328 C 0.16698 0.70587 0.27906 0.0
C1329 C 0.13899 0.65071 0.33718 0.0
H1330 H 0.12542 0.62808 0.15249 0.0
C1331 C 0.09673 0.5555 0.24767 0.0
C1332 C 0.10047 0.54859 0.18746 0.0
C1333 C 0.10553 0.57829 0.26901 0.0
C1334 C 0.12948 0.63403 0.20434 0.0
H1335 H 0.14411 0.7252 0.41336 0.0
H1336 H 0.12987 0.6851 0.3827 0.0
H1337 H 0.13904 0.66749 0.18564 0.0
H1338 H 0.11593 0.55996 0.10171 0.0
H1339 H 0.13237 0.5997 0.14005 0.0
H1340 H 0.13011 0.6175 0.35622 0.0
C1341 C 0.14259 0.69711 0.3585 0.0
C1342 C 0.13716 0.65672 0.22333 0.0
C1343 C 0.15065 0.72006 0.37581 0.0
C1344 C 0.11319 0.56489 0.14899 0.0
C1345 C 0.12232 0.5877 0.17074 0.0
C1346 C 0.13163 0.62803 0.31821 0.0
C1347 C 0.15061 0.68974 0.30964 0.0
C1348 C 0.14199 0.66538 0.28995 0.0
C1349 C 0.11832 0.59484 0.23058 0.0
C1350 C 0.1267 0.61925 0.25136 0.0
H1351 H 0.18789 0.7406 0.27235 0.0
H1352 H 0.17361 0.70083 0.24155 0.0
H1353 H 0.1428 0.65688 0.38892 0.0
H1354 H 0.08638 0.5432 0.27723 0.0
H1355 H 0.10161 0.5828 0.31457 0.0
C1356 C 0.55742 0.47397 0.20427 0.0
C1357 C 0.56077 0.46947 0.14051 0.0
C1358 C 0.53702 0.46475 0.22112 0.0
C1359 C 0.48397 0.41499 0.1737 0.0
H1360 H 0.46773 0.44472 0.30043 0.0
C1361 C 0.41541 0.36595 0.32231 0.0
C1362 C 0.40255 0.37443 0.33794 0.0
C1363 C 0.43311 0.3783 0.2908 0.0
C1364 C 0.47186 0.4362 0.26438 0.0
H1365 H 0.54537 0.45045 1.04564 0.0
H1366 H 0.50964 0.43459 0.07414 0.0
H1367 H 0.50142 0.46592 0.25845 0.0
H1368 H 0.39806 0.4025 0.3309 0.0
H1369 H 0.42906 0.42418 0.27536 0.0
H1370 H 0.45457 0.38528 0.17978 0.0
C1371 C 0.52277 0.44573 0.11103 0.0
C1372 C 0.49132 0.44833 0.24078 0.0
C1373 C 0.54322 0.4551 0.09423 0.0
C1374 C 0.40756 0.39542 0.31932 0.0
C1375 C 0.42546 0.40793 0.28811 0.0
C1376 C 0.46459 0.40288 0.19741 0.0
C1377 C 0.51937 0.45005 0.17516 0.0
C1378 C 0.49781 0.43782 0.19581 0.0
C1379 C 0.43861 0.39962 0.27396 0.0
C1380 C 0.45838 0.41317 0.24399 0.0
H1381 H 0.57063 0.484 0.24186 0.0
H1382 H 0.53517 0.46815 0.27131 0.0
H1383 H 0.4884 0.40618 0.13971 0.0
H1384 H 0.41195 0.34977 0.33539 0.0
H1385 H 0.44287 0.37136 0.28152 0.0
C1386 C 0.83351 0.67334 0.65779 0.0
C1387 C 0.85412 0.67992 0.68416 0.0
C1388 C 0.82944 0.68824 0.62627 0.0
C1389 C 0.82477 0.72876 0.61503 0.0
H1390 H 0.86318 0.77288 0.51235 0.0
C1391 C 0.82742 0.81186 0.58964 0.0
C1392 C 0.83159 0.82117 0.53012 0.0
C1393 C 0.82848 0.79282 0.59945 0.0
C1394 C 0.85211 0.76055 0.54028 0.0
H1395 H 0.88675 0.70519 0.68547 0.0
H1396 H 0.8799 0.73152 0.63322 0.0
H1397 H 0.86797 0.74218 0.53946 0.0
H1398 H 0.83988 0.81732 0.43382 0.0
H1399 H 0.84144 0.78387 0.4506 0.0
H1400 H 0.80891 0.7471 0.61588 0.0
C1401 C 0.86668 0.71529 0.63879 0.0
C1402 C 0.855 0.74302 0.55648 0.0
C1403 C 0.87066 0.7004 0.67028 0.0
C1404 C 0.83644 0.81058 0.48014 0.0
C1405 C 0.83756 0.79151 0.49005 0.0
C1406 C 0.82189 0.74627 0.59888 0.0
C1407 C 0.84593 0.70982 0.61886 0.0
C1408 C 0.84158 0.72707 0.59507 0.0
C1409 C 0.83372 0.78243 0.55006 0.0
C1410 C 0.83574 0.76268 0.5623 0.0
H1411 H 0.82038 0.65717 0.66397 0.0
H1412 H 0.81329 0.68304 0.60925 0.0
H1413 H 0.81421 0.71701 0.64533 0.0
H1414 H 0.82336 0.81934 0.629 0.0
H1415 H 0.82565 0.78656 0.64659 0.0
C1416 C 0.34152 0.04645 0.54349 0.0
C1417 C 0.33568 0.06266 0.54334 0.0
C1418 C 0.32633 0.02362 0.52887 0.0
C1419 C 0.27487 0.98361 0.43889 0.0
H1420 H 0.27234 0.9428 0.56202 0.0
C1421 C 0.23327 0.88677 0.37721 0.0
C1422 C 0.21957 0.87356 0.42036 0.0
C1423 C 0.24542 0.91009 0.39147 0.0
C1424 C 0.27277 0.954 0.52734 0.0
H1425 H 0.30928 0.06756 0.52804 0.0
H1426 H 0.28279 0.02765 0.49943 0.0
H1427 H 0.29805 0.98297 0.58759 0.0
H1428 H 0.20785 0.87457 0.51238 0.0
H1429 H 0.22974 0.91546 0.53861 0.0
H1430 H 0.25019 0.9545 0.37739 0.0
C1431 C 0.29914 0.03267 0.51129 0.0
C1432 C 0.28757 0.97697 0.54177 0.0
C1433 C 0.31429 0.05549 0.52749 0.0
C1434 C 0.21805 0.88431 0.47778 0.0
C1435 C 0.2307 0.90767 0.49301 0.0
C1436 C 0.26042 0.96056 0.4237 0.0
C1437 C 0.30495 0.01643 0.51253 0.0
C1438 C 0.28883 0.99206 0.4977 0.0
C1439 C 0.24466 0.92082 0.45021 0.0
C1440 C 0.25919 0.94546 0.46775 0.0
H1441 H 0.35774 0.05133 0.55745 0.0
H1442 H 0.33131 0.01154 0.53033 0.0
H1443 H 0.27549 0.99479 0.40387 0.0
H1444 H 0.23485 0.87897 0.33273 0.0
H1445 H 0.25608 0.9197 0.35769 0.0
C1446 C 0.97924 0.19748 0.60477 0.0
C1447 C 0.97924 0.21683 0.62724 0.0
C1448 C 0.99742 0.19893 0.58486 0.0
C1449 C 0.05571 0.23862 0.59449 0.0
H1450 H 0.05094 0.19506 0.45823 0.0
C1451 C 0.12883 0.23573 0.52613 0.0
C1452 C 0.1286 0.22824 0.46102 0.0
C1453 C 0.11093 0.23488 0.54673 0.0
C1454 C 0.05271 0.20762 0.49579 0.0
H1455 H 0.99765 0.25294 0.6412 0.0
H1456 H 0.02917 0.25566 0.605 0.0
H1457 H 0.01939 0.19269 0.49056 0.0
H1458 H 0.1097 0.21507 0.36577 0.0
H1459 H 0.07898 0.21439 0.40048 0.0
H1460 H 0.08908 0.25411 0.59768 0.0
C1461 C 0.01555 0.23922 0.6055 0.0
C1462 C 0.03444 0.206 0.5153 0.0
C1463 C 0.9974 0.23772 0.62578 0.0
C1464 C 0.11031 0.22066 0.41654 0.0
C1465 C 0.09257 0.2201 0.43677 0.0
C1466 C 0.07401 0.24039 0.57444 0.0
C1467 C 0.01598 0.21985 0.58542 0.0
C1468 C 0.03559 0.22149 0.56492 0.0
C1469 C 0.09239 0.22679 0.50251 0.0
C1470 C 0.07284 0.22495 0.52457 0.0
H1471 H 0.96527 0.18117 0.60331 0.0
H1472 H 0.99699 0.18356 0.57037 0.0
H1473 H 0.05741 0.25068 0.63367 0.0
H1474 H 0.14261 0.24149 0.56174 0.0
H1475 H 0.11151 0.23997 0.59787 0.0
C1476 C 0.3415 0.15063 0.56666 0.0
C1477 C 0.36358 0.16342 0.58077 0.0
C1478 C 0.32991 0.16095 0.55013 0.0
C1479 C 0.3348 0.20935 0.47395 0.0
H1480 H 0.29113 0.20595 0.57128 0.0
C1481 C 0.2962 0.26625 0.52845 0.0
C1482 C 0.29012 0.26941 0.46547 0.0
C1483 C 0.30165 0.25006 0.53735 0.0
C1484 C 0.30317 0.20692 0.54317 0.0
H1485 H 0.39064 0.19688 0.58678 0.0
H1486 H 0.37068 0.21452 0.55653 0.0
H1487 H 0.30712 0.18358 0.59703 0.0
H1488 H 0.28587 0.25857 0.36189 0.0
H1489 H 0.29602 0.23043 0.37718 0.0
H1490 H 0.33111 0.23286 0.42067 0.0
C1491 C 0.36223 0.19669 0.55937 0.0
C1492 C 0.31224 0.194 0.55775 0.0
C1493 C 0.37366 0.18656 0.57719 0.0
C1494 C 0.28994 0.25612 0.41109 0.0
C1495 C 0.29593 0.24016 0.41993 0.0
C1496 C 0.32544 0.2219 0.45849 0.0
C1497 C 0.34022 0.1841 0.54511 0.0
C1498 C 0.32854 0.19546 0.52439 0.0
C1499 C 0.30194 0.23698 0.48332 0.0
C1500 C 0.30983 0.22129 0.49387 0.0
H1501 H 0.33329 0.13269 0.56684 0.0
H1502 H 0.31296 0.15075 0.5392 0.0
H1503 H 0.34726 0.21081 0.44711 0.0
H1504 H 0.29692 0.27657 0.57118 0.0
H1505 H 0.30648 0.24839 0.58667 0.0
C1506 C 0.80532 0.95834 0.4532 0.0
C1507 C 0.80281 0.94787 0.39004 0.0
C1508 C 0.81995 0.98105 0.47022 0.0
C1509 C 0.84571 0.03438 0.40686 0.0
H1510 H 0.88307 0.05396 0.57087 0.0
C1511 C 0.88304 0.12292 0.55214 0.0
C1512 C 0.90372 0.13295 0.58421 0.0
C1513 C 0.87275 0.1011 0.51958 0.0
C1514 C 0.87294 0.04885 0.52456 0.0
H1515 H 0.8126 0.95318 0.29353 0.0
H1516 H 0.83824 0.99352 0.32311 0.0
H1517 H 0.86202 0.01422 0.5303 0.0
H1518 H 0.93026 0.12827 0.60247 0.0
H1519 H 0.91223 0.09024 0.54722 0.0
H1520 H 0.85611 0.06902 0.40241 0.0
C1521 C 0.82922 0.9838 0.3599 0.0
C1522 C 0.8608 0.02606 0.50152 0.0
C1523 C 0.81478 0.96077 0.34317 0.0
C1524 C 0.91415 0.12095 0.58007 0.0
C1525 C 0.90383 0.09911 0.54812 0.0
C1526 C 0.85768 0.05723 0.43043 0.0
C1527 C 0.83199 0.99412 0.42383 0.0
C1528 C 0.84681 0.01851 0.443 0.0
C1529 C 0.88286 0.08874 0.51839 0.0
C1530 C 0.87124 0.06472 0.49007 0.0
H1531 H 0.79587 0.94885 0.48966 0.0
H1532 H 0.82145 0.98855 0.51944 0.0
H1533 H 0.83496 0.02903 0.36182 0.0
H1534 H 0.87453 0.13163 0.55339 0.0
H1535 H 0.85658 0.09362 0.49733 0.0
C1536 C 0.9232 0.65711 0.73115 0.0
C1537 C 0.90728 0.66174 0.71426 0.0
C1538 C 0.9415 0.66666 0.70054 0.0
C1539 C 0.97307 0.71348 0.60478 0.0
H1540 H 0.99684 0.67775 0.55261 0.0
C1541 C 0.05266 0.75039 0.49798 0.0
C1542 C 0.05234 0.73835 0.44025 0.0
C1543 C 0.03565 0.74126 0.53442 0.0
C1544 C 0.9904 0.68796 0.56688 0.0
H1545 H 0.89716 0.67845 0.64907 0.0
H1546 H 0.92933 0.69587 0.59733 0.0
H1547 H 0.96608 0.6616 0.61074 0.0
H1548 H 0.03417 0.70698 0.37684 0.0
H1549 H 0.00471 0.69094 0.44089 0.0
H1550 H 0.9976 0.7399 0.56123 0.0
C1551 C 0.92806 0.68536 0.63524 0.0
C1552 C 0.97279 0.67873 0.60057 0.0
C1553 C 0.90965 0.67547 0.66494 0.0
C1554 C 0.03486 0.71675 0.42085 0.0
C1555 C 0.01803 0.7075 0.45777 0.0
C1556 C 0.99092 0.72283 0.57214 0.0
C1557 C 0.94427 0.68109 0.65249 0.0
C1558 C 0.96368 0.69125 0.6193 0.0
C1559 C 0.01809 0.71972 0.51463 0.0
C1560 C 0.99968 0.71011 0.55216 0.0
H1561 H 0.92135 0.64586 0.76733 0.0
H1562 H 0.95358 0.66293 0.71511 0.0
H1563 H 0.96668 0.72374 0.61895 0.0
H1564 H 0.06582 0.76711 0.514 0.0
H1565 H 0.03624 0.75105 0.57822 0.0
loop_
_geom_bond_atom_site_label_1
_geom_bond_atom_site_label_2
_geom_bond_distance
_geom_bond_site_symmetry_2
_ccdc_geom_bond_type
Tb0 N31 2.660 . S
Tb0 N38 2.600 . S
Tb0 O44 2.546 . S
Tb0 O45 2.610 . S
Tb0 O47 2.320 . S
Tb0 O48 2.552 . S
Tb0 O49 2.413 . S
Tb0 O51 2.362 . S
Tb0 O52 2.421 . S
Tb0 C64 2.833 . S
C1 C4 1.432 . S
C1 C5 1.414 . S
C1 N8 1.359 . S
C2 C4 1.417 . S
C2 C6 1.432 . S
C2 C14 1.410 . S
C3 C5 1.444 . S
C3 C6 1.317 . S
C3 H26 0.929 . S
C4 C1 1.432 . S
C4 C2 1.417 . S
C4 N12 1.360 . S
C5 C1 1.414 . S
C5 C3 1.444 . S
C5 C10 1.385 . S
C6 C2 1.432 . S
C6 C3 1.317 . S
C6 H18 0.930 . S
C7 C9 1.392 . S
C7 C10 1.370 . S
C7 H19 0.931 . S
N8 C1 1.359 . S
N8 C9 1.327 . S
N8 Tb11 2.600 1_655 S
C9 C7 1.392 . S
C9 N8 1.327 . S
C9 H16 0.930 . S
C10 C5 1.385 . S
C10 C7 1.370 . S
C10 H29 0.930 . S
Tb11 N8 2.600 1_455 S
Tb11 N12 2.660 1_455 S
Tb11 O45 2.362 . S
Tb11 O46 2.421 . S
Tb11 O50 2.546 1_455 S
Tb11 O51 2.610 . S
Tb11 O53 2.320 . S
Tb11 O54 2.552 . S
Tb11 O55 2.413 1_455 S
Tb11 C75 2.833 1_455 S
N12 C4 1.360 . S
N12 Tb11 2.660 1_655 S
N12 C13 1.305 . S
C13 N12 1.305 . S
C13 C15 1.407 . S
C13 H20 0.930 . S
C14 C2 1.410 . S
C14 C15 1.345 . S
C14 H22 0.930 . S
C15 C13 1.407 . S
C15 C14 1.345 . S
C15 H17 0.930 1_554 S
H16 C9 0.930 . S
H17 C15 0.930 1_556 S
H18 C6 0.930 . S
H19 C7 0.931 . S
H20 C13 0.930 . S
H21 C35 0.930 . S
H22 C14 0.930 . S
H23 C41 0.930 . S
H24 C32 0.930 . S
H25 C39 0.931 . S
H26 C3 0.929 . S
H27 C33 0.930 . S
H28 C66 0.930 . S
H29 C10 0.930 . S
H30 C65 0.929 . S
N31 Tb0 2.660 . S
N31 C32 1.305 . S
N31 C36 1.360 . S
C32 H24 0.930 . S
C32 N31 1.305 . S
C32 C35 1.407 . S
C33 H27 0.930 . S
C33 C34 1.410 . S
C33 C35 1.345 . S
C34 C33 1.410 . S
C34 C36 1.417 . S
C34 C66 1.432 . S
C35 H21 0.930 . S
C35 C32 1.407 . S
C35 C33 1.345 . S
C36 N31 1.360 . S
C36 C34 1.417 . S
C36 C40 1.432 . S
H37 C42 0.930 . S
N38 Tb0 2.600 . S
N38 C40 1.359 . S
N38 C41 1.327 . S
C39 H25 0.931 . S
C39 C41 1.392 . S
C39 C42 1.370 . S
C40 C36 1.432 . S
C40 N38 1.359 . S
C40 C43 1.414 . S
C41 H23 0.930 . S
C41 N38 1.327 . S
C41 C39 1.392 . S
C42 H37 0.930 . S
C42 C39 1.370 . S
C42 C43 1.385 . S
C43 C40 1.414 . S
C43 C42 1.385 . S
C43 C65 1.444 . S
O44 Tb0 2.546 . S
O44 C64 1.251 . S
O45 Tb0 2.610 . S
O45 Tb11 2.362 . S
O45 C56 1.283 . S
O46 Tb11 2.421 . S
O46 C63 1.262 . S
O47 Tb0 2.320 . S
O47 C63 1.260 . S
O48 Tb0 2.552 . S
O48 C56 1.243 . S
O49 Tb0 2.413 . S
O49 C64 1.256 . S
O50 Tb11 2.546 1_655 S
O50 C75 1.251 . S
O51 Tb0 2.362 . S
O51 Tb11 2.610 . S
O51 C67 1.283 . S
O52 Tb0 2.421 . S
O52 C74 1.262 . S
O53 Tb11 2.320 . S
O53 C74 1.260 . S
O54 Tb11 2.552 . S
O54 C67 1.243 . S
O55 Tb11 2.413 1_655 S
O55 C75 1.256 . S
C56 O45 1.283 . S
C56 O48 1.243 . S
C57 C59 1.382 . S
C57 C61 1.393 . S
C57 C64 1.500 . S
C58 C59 1.400 . S
C58 C60 1.384 . S
C59 C57 1.382 . S
C59 C58 1.400 . S
C59 H76 0.930 . S
C60 C58 1.384 . S
C60 C62 1.392 . S
C60 H77 0.931 . S
C61 C57 1.393 . S
C61 C62 1.401 . S
C61 H78 0.930 . S
C62 C60 1.392 . S
C62 C61 1.401 . S
C62 H79 0.930 . S
C63 O46 1.262 . S
C63 O47 1.260 . S
C64 Tb0 2.833 . S
C64 O44 1.251 . S
C64 O49 1.256 . S
C64 C57 1.500 . S
C65 H30 0.929 . S
C65 C43 1.444 . S
C65 C66 1.317 . S
C66 H28 0.930 . S
C66 C34 1.432 . S
C66 C65 1.317 . S
C67 O51 1.283 . S
C67 O54 1.243 . S
C68 C69 1.382 . S
C68 C72 1.393 . S
C68 C75 1.500 . S
C69 C68 1.382 . S
C69 C70 1.400 . S
C69 H80 0.930 . S
C70 C69 1.400 . S
C70 C71 1.384 . S
C71 C70 1.384 . S
C71 C73 1.392 . S
C71 H81 0.931 . S
C72 C68 1.393 . S
C72 C73 1.401 . S
C72 H82 0.930 . S
C73 C71 1.392 . S
C73 C72 1.401 . S
C73 H83 0.930 . S
C74 O52 1.262 . S
C74 O53 1.260 . S
C75 Tb11 2.833 1_655 S
C75 O50 1.251 . S
C75 O55 1.256 . S
C75 C68 1.500 . S
H76 C59 0.930 . S
H77 C60 0.931 . S
H78 C61 0.930 . S
H79 C62 0.930 . S
H80 C69 0.930 . S
H81 C71 0.931 . S
H82 C72 0.930 . S
H83 C73 0.930 . S
Tb84 N115 2.660 . S
Tb84 N122 2.600 . S
Tb84 O128 2.546 . S
Tb84 O129 2.610 . S
Tb84 O131 2.320 . S
Tb84 O132 2.552 . S
Tb84 O133 2.413 . S
Tb84 O135 2.362 . S
Tb84 O136 2.421 . S
Tb84 C148 2.833 . S
C85 C88 1.432 . S
C85 C89 1.414 . S
C85 N92 1.359 . S
C86 C88 1.417 . S
C86 C90 1.432 . S
C86 C98 1.410 . S
C87 C89 1.444 . S
C87 C90 1.317 . S
C87 H110 0.929 . S
C88 C85 1.432 . S
C88 C86 1.417 . S
C88 N96 1.360 . S
C89 C85 1.414 . S
C89 C87 1.444 . S
C89 C94 1.385 . S
C90 C86 1.432 . S
C90 C87 1.317 . S
C90 H102 0.930 . S
C91 C93 1.392 . S
C91 C94 1.370 . S
C91 H103 0.931 . S
N92 C85 1.359 . S
N92 C93 1.327 . S
N92 Tb95 2.600 . S
C93 C91 1.392 . S
C93 N92 1.327 . S
C93 H100 0.930 . S
C94 C89 1.385 . S
C94 C91 1.370 . S
C94 H113 0.930 . S
Tb95 N92 2.600 . S
Tb95 N96 2.660 . S
Tb95 O129 2.362 . S
Tb95 O130 2.421 . S
Tb95 O134 2.546 . S
Tb95 O135 2.610 . S
Tb95 O137 2.320 . S
Tb95 O138 2.552 . S
Tb95 O139 2.413 . S
Tb95 C159 2.833 . S
N96 C88 1.360 . S
N96 Tb95 2.660 . S
N96 C97 1.305 . S
C97 N96 1.305 . S
C97 C99 1.407 1_554 S
C97 H104 0.930 1_554 S
C98 C86 1.410 . S
C98 C99 1.345 1_554 S
C98 H106 0.930 1_554 S
C99 C97 1.407 1_556 S
C99 C98 1.345 1_556 S
C99 H101 0.930 . S
H100 C93 0.930 . S
H101 C99 0.930 . S
H102 C90 0.930 . S
H103 C91 0.931 . S
H104 C97 0.930 1_556 S
H105 C119 0.930 . S
H106 C98 0.930 1_556 S
H107 C125 0.930 1_556 S
H108 C116 0.930 . S
H109 C123 0.931 . S
H110 C87 0.929 . S
H111 C117 0.930 . S
H112 C150 0.930 . S
H113 C94 0.930 . S
H114 C149 0.929 . S
N115 Tb84 2.660 . S
N115 C116 1.305 . S
N115 C120 1.360 . S
C116 H108 0.930 . S
C116 N115 1.305 . S
C116 C119 1.407 . S
C117 H111 0.930 . S
C117 C118 1.410 . S
C117 C119 1.345 . S
C118 C117 1.410 . S
C118 C120 1.417 . S
C118 C150 1.432 . S
C119 H105 0.930 . S
C119 C116 1.407 . S
C119 C117 1.345 . S
C120 N115 1.360 . S
C120 C118 1.417 . S
C120 C124 1.432 . S
H121 C126 0.930 1_556 S
N122 Tb84 2.600 . S
N122 C124 1.359 . S
N122 C125 1.327 . S
C123 H109 0.931 . S
C123 C125 1.392 1_556 S
C123 C126 1.370 1_556 S
C124 C120 1.432 . S
C124 N122 1.359 . S
C124 C127 1.414 . S
C125 H107 0.930 1_554 S
C125 N122 1.327 . S
C125 C123 1.392 1_554 S
C126 H121 0.930 1_554 S
C126 C123 1.370 1_554 S
C126 C127 1.385 . S
C127 C124 1.414 . S
C127 C126 1.385 . S
C127 C149 1.444 . S
O128 Tb84 2.546 . S
O128 C148 1.251 . S
O129 Tb84 2.610 . S
O129 Tb95 2.362 . S
O129 C140 1.283 . S
O130 Tb95 2.421 . S
O130 C147 1.262 . S
O131 Tb84 2.320 . S
O131 C147 1.260 . S
O132 Tb84 2.552 . S
O132 C140 1.243 . S
O133 Tb84 2.413 . S
O133 C148 1.256 . S
O134 Tb95 2.546 . S
O134 C159 1.251 . S
O135 Tb84 2.362 . S
O135 Tb95 2.610 . S
O135 C151 1.283 . S
O136 Tb84 2.421 . S
O136 C158 1.263 . S
O137 Tb95 2.320 . S
O137 C158 1.261 . S
O138 Tb95 2.552 . S
O138 C151 1.243 . S
O139 Tb95 2.413 . S
O139 C159 1.256 . S
C140 O129 1.283 . S
C140 O132 1.243 . S
C141 C143 1.382 . S
C141 C145 1.393 . S
C141 C148 1.500 . S
C142 C143 1.400 . S
C142 C144 1.384 . S
C143 C141 1.382 . S
C143 C142 1.400 . S
C143 H160 0.930 . S
C144 C142 1.384 . S
C144 C146 1.392 . S
C144 H161 0.931 . S
C145 C141 1.393 . S
C145 C146 1.401 . S
C145 H162 0.930 . S
C146 C144 1.392 . S
C146 C145 1.401 . S
C146 H163 0.930 . S
C147 O130 1.262 . S
C147 O131 1.260 . S
C148 Tb84 2.833 . S
C148 O128 1.251 . S
C148 O133 1.256 . S
C148 C141 1.500 . S
C149 H114 0.929 . S
C149 C127 1.444 . S
C149 C150 1.317 . S
C150 H112 0.930 . S
C150 C118 1.432 . S
C150 C149 1.317 . S
C151 O135 1.283 . S
C151 O138 1.243 . S
C152 C153 1.382 . S
C152 C156 1.393 . S
C152 C159 1.500 . S
C153 C152 1.382 . S
C153 C154 1.400 . S
C153 H164 0.930 1_554 S
C154 C153 1.400 . S
C154 C155 1.384 . S
C155 C154 1.384 . S
C155 C157 1.392 . S
C155 H165 0.931 . S
C156 C152 1.393 . S
C156 C157 1.401 . S
C156 H166 0.930 . S
C157 C155 1.392 . S
C157 C156 1.401 . S
C157 H167 0.930 . S
C158 O136 1.263 . S
C158 O137 1.261 . S
C159 Tb95 2.833 . S
C159 O134 1.251 . S
C159 O139 1.256 . S
C159 C152 1.500 . S
H160 C143 0.930 . S
H161 C144 0.931 . S
H162 C145 0.930 . S
H163 C146 0.930 . S
H164 C153 0.930 1_556 S
H165 C155 0.931 . S
H166 C156 0.930 . S
H167 C157 0.930 . S
Tb168 N199 2.660 1_556 S
Tb168 N206 2.600 . S
Tb168 O212 2.546 . S
Tb168 O213 2.610 . S
Tb168 O215 2.320 1_556 S
Tb168 O216 2.552 . S
Tb168 O217 2.413 1_556 S
Tb168 O219 2.362 1_556 S
Tb168 O220 2.421 . S
Tb168 C232 2.833 . S
C169 C172 1.432 1_554 S
C169 C173 1.414 . S
C169 N176 1.359 . S
C170 C172 1.417 . S
C170 C174 1.432 . S
C170 C182 1.410 . S
C171 C173 1.444 . S
C171 C174 1.317 1_554 S
C171 H194 0.929 . S
C172 C169 1.432 1_556 S
C172 C170 1.417 . S
C172 N180 1.360 . S
C173 C169 1.414 . S
C173 C171 1.444 . S
C173 C178 1.385 . S
C174 C170 1.432 . S
C174 C171 1.317 1_556 S
C174 H186 0.930 . S
C175 C177 1.392 . S
C175 C178 1.370 . S
C175 H187 0.931 . S
N176 C169 1.359 . S
N176 C177 1.327 . S
N176 Tb179 2.600 . S
C177 C175 1.392 . S
C177 N176 1.327 . S
C177 H184 0.930 . S
C178 C173 1.385 . S
C178 C175 1.370 . S
C178 H197 0.930 . S
Tb179 N176 2.600 . S
Tb179 N180 2.660 1_554 S
Tb179 O213 2.362 1_554 S
Tb179 O214 2.421 . S
Tb179 O218 2.546 . S
Tb179 O219 2.610 . S
Tb179 O221 2.320 1_554 S
Tb179 O222 2.552 . S
Tb179 O223 2.413 1_554 S
Tb179 C243 2.833 . S
N180 C172 1.360 . S
N180 Tb179 2.660 1_556 S
N180 C181 1.305 . S
C181 N180 1.305 . S
C181 C183 1.407 . S
C181 H188 0.930 . S
C182 C170 1.410 . S
C182 C183 1.345 . S
C182 H190 0.930 . S
C183 C181 1.407 . S
C183 C182 1.345 . S
C183 H185 0.930 . S
H184 C177 0.930 . S
H185 C183 0.930 . S
H186 C174 0.930 . S
H187 C175 0.931 . S
H188 C181 0.930 . S
H189 C203 0.930 . S
H190 C182 0.930 . S
H191 C209 0.930 . S
H192 C200 0.930 . S
H193 C207 0.931 . S
H194 C171 0.929 . S
H195 C201 0.959 . S
H196 C234 0.930 . S
H197 C178 0.930 . S
H198 C233 0.929 . S
N199 Tb168 2.660 1_554 S
N199 C200 1.305 . S
N199 C204 1.360 . S
C200 H192 0.930 . S
C200 N199 1.305 . S
C200 C203 1.407 . S
C201 H195 0.959 . S
C201 C202 1.411 . S
C201 C203 1.315 1_565 S
C202 C201 1.411 . S
C202 C204 1.417 1_565 S
C202 C234 1.432 . S
C203 H189 0.930 . S
C203 C200 1.407 . S
C203 C201 1.315 1_545 S
C204 N199 1.360 . S
C204 C202 1.417 1_545 S
C204 C208 1.432 1_554 S
H205 C210 0.930 . S
N206 Tb168 2.600 . S
N206 C208 1.387 . S
N206 C209 1.327 . S
C207 H193 0.931 . S
C207 C209 1.392 1_565 S
C207 C210 1.370 . S
C208 C204 1.432 1_556 S
C208 N206 1.387 . S
C208 C211 1.386 1_545 S
C209 H191 0.930 . S
C209 N206 1.327 . S
C209 C207 1.392 1_545 S
C210 H205 0.930 . S
C210 C207 1.370 . S
C210 C211 1.385 . S
C211 C208 1.386 1_565 S
C211 C210 1.385 . S
C211 C233 1.444 . S
O212 Tb168 2.546 . S
O212 C232 1.251 . S
O213 Tb168 2.610 . S
O213 Tb179 2.362 1_556 S
O213 C224 1.283 . S
O214 Tb179 2.421 . S
O214 C231 1.262 . S
O215 Tb168 2.320 1_554 S
O215 C231 1.260 . S
O216 Tb168 2.552 . S
O216 C224 1.243 . S
O217 Tb168 2.413 1_554 S
O217 C232 1.256 1_554 S
O218 Tb179 2.546 . S
O218 C243 1.251 . S
O219 Tb168 2.362 1_554 S
O219 Tb179 2.610 . S
O219 C235 1.283 . S
O220 Tb168 2.421 . S
O220 C242 1.262 . S
O221 Tb179 2.320 1_556 S
O221 C242 1.260 . S
O222 Tb179 2.552 . S
O222 C235 1.243 . S
O223 Tb179 2.413 1_556 S
O223 C243 1.256 1_556 S
C224 O213 1.283 . S
C224 O216 1.243 . S
C225 C227 1.382 1_556 S
C225 C229 1.393 1_545 S
C225 C232 1.500 . S
C226 C227 1.400 . S
C226 C228 1.384 1_545 S
C227 C225 1.382 1_554 S
C227 C226 1.400 . S
C227 H244 0.930 . S
C228 C226 1.384 1_565 S
C228 C230 1.392 1_554 S
C228 H245 0.931 . S
C229 C225 1.393 1_565 S
C229 C230 1.401 . S
C229 H246 0.930 . S
C230 C228 1.392 1_556 S
C230 C229 1.401 . S
C230 H247 0.930 . S
C231 O214 1.262 . S
C231 O215 1.260 . S
C232 Tb168 2.833 . S
C232 O212 1.251 . S
C232 O217 1.256 1_556 S
C232 C225 1.500 . S
C233 H198 0.929 . S
C233 C211 1.444 . S
C233 C234 1.317 1_556 S
C234 H196 0.930 . S
C234 C202 1.432 . S
C234 C233 1.317 1_554 S
C235 O219 1.283 . S
C235 O222 1.243 . S
C236 C237 1.382 1_554 S
C236 C240 1.393 . S
C236 C243 1.500 . S
C237 C236 1.382 1_556 S
C237 C238 1.400 . S
C237 H248 0.930 . S
C238 C237 1.400 . S
C238 C239 1.384 . S
C239 C238 1.384 . S
C239 C241 1.392 1_556 S
C239 H249 0.931 . S
C240 C236 1.393 . S
C240 C241 1.401 . S
C240 H250 0.930 . S
C241 C239 1.392 1_554 S
C241 C240 1.401 . S
C241 H251 0.930 . S
C242 O220 1.262 . S
C242 O221 1.260 . S
C243 Tb179 2.833 . S
C243 O218 1.251 . S
C243 O223 1.256 1_554 S
C243 C236 1.500 . S
H244 C227 0.930 . S
H245 C228 0.931 . S
H246 C229 0.930 . S
H247 C230 0.930 . S
H248 C237 0.930 . S
H249 C239 0.931 . S
H250 C240 0.930 . S
H251 C241 0.930 . S
Tb252 N283 2.660 . S
Tb252 N290 2.600 . S
Tb252 O296 2.546 . S
Tb252 O297 2.610 . S
Tb252 O299 2.320 . S
Tb252 O300 2.552 . S
Tb252 O301 2.413 . S
Tb252 O303 2.362 . S
Tb252 O304 2.421 . S
Tb252 C316 2.833 . S
C253 C256 1.432 . S
C253 C257 1.414 . S
C253 N260 1.359 . S
C254 C256 1.417 . S
C254 C258 1.432 . S
C254 C266 1.410 . S
C255 C257 1.444 . S
C255 C258 1.317 . S
C255 H278 0.929 . S
C256 C253 1.432 . S
C256 C254 1.417 . S
C256 N264 1.360 . S
C257 C253 1.414 . S
C257 C255 1.444 . S
C257 C262 1.385 . S
C258 C254 1.432 . S
C258 C255 1.317 . S
C258 H270 0.930 . S
C259 C261 1.392 . S
C259 C262 1.370 . S
C259 H271 0.931 . S
N260 C253 1.359 . S
N260 C261 1.327 . S
N260 Tb263 2.600 . S
C261 C259 1.392 . S
C261 N260 1.327 . S
C261 H268 0.930 . S
C262 C257 1.385 . S
C262 C259 1.370 . S
C262 H281 0.930 . S
Tb263 N260 2.600 . S
Tb263 N264 2.660 . S
Tb263 O297 2.362 . S
Tb263 O298 2.421 . S
Tb263 O302 2.546 . S
Tb263 O303 2.610 . S
Tb263 O305 2.320 . S
Tb263 O306 2.552 . S
Tb263 O307 2.413 . S
Tb263 C327 2.833 . S
N264 C256 1.360 . S
N264 Tb263 2.660 . S
N264 C265 1.305 . S
C265 N264 1.305 . S
C265 C267 1.407 . S
C265 H272 0.930 . S
C266 C254 1.410 . S
C266 C267 1.345 . S
C266 H274 0.930 . S
C267 C265 1.407 . S
C267 C266 1.345 . S
C267 H269 0.930 . S
H268 C261 0.930 . S
H269 C267 0.930 . S
H270 C258 0.930 . S
H271 C259 0.931 . S
H272 C265 0.930 . S
H273 C287 0.930 . S
H274 C266 0.930 . S
H275 C293 0.930 . S
H276 C284 0.930 . S
H277 C291 0.931 . S
H278 C255 0.929 . S
H279 C285 0.930 . S
H280 C318 0.950 . S
H281 C262 0.930 . S
H282 C317 0.929 . S
N283 Tb252 2.660 . S
N283 C284 1.305 . S
N283 C288 1.360 . S
C284 H276 0.930 . S
C284 N283 1.305 . S
C284 C287 1.407 . S
C285 H279 0.930 . S
C285 C286 1.410 . S
C285 C287 1.345 . S
C286 C285 1.410 . S
C286 C288 1.417 . S
C286 C318 1.432 . S
C287 H273 0.930 . S
C287 C284 1.407 . S
C287 C285 1.345 . S
C288 N283 1.360 . S
C288 C286 1.417 . S
C288 C292 1.432 . S
H289 C294 0.930 . S
N290 Tb252 2.600 . S
N290 C292 1.359 . S
N290 C293 1.327 . S
C291 H277 0.931 . S
C291 C293 1.392 . S
C291 C294 1.370 . S
C292 C288 1.432 . S
C292 N290 1.359 . S
C292 C295 1.414 . S
C293 H275 0.930 . S
C293 N290 1.327 . S
C293 C291 1.392 . S
C294 H289 0.930 . S
C294 C291 1.370 . S
C294 C295 1.385 . S
C295 C292 1.414 . S
C295 C294 1.385 . S
C295 C317 1.444 . S
O296 Tb252 2.546 . S
O296 C316 1.251 . S
O297 Tb252 2.610 . S
O297 Tb263 2.362 . S
O297 C308 1.283 . S
O298 Tb263 2.421 . S
O298 C315 1.262 . S
O299 Tb252 2.320 . S
O299 C315 1.260 . S
O300 Tb252 2.552 . S
O300 C308 1.243 . S
O301 Tb252 2.413 . S
O301 C316 1.256 . S
O302 Tb263 2.546 . S
O302 C327 1.251 . S
O303 Tb252 2.362 . S
O303 Tb263 2.610 . S
O303 C319 1.283 . S
O304 Tb252 2.421 . S
O304 C326 1.262 . S
O305 Tb263 2.320 . S
O305 C326 1.260 . S
O306 Tb263 2.552 . S
O306 C319 1.243 . S
O307 Tb263 2.413 . S
O307 C327 1.256 . S
C308 O297 1.283 . S
C308 O300 1.243 . S
C309 C311 1.382 . S
C309 C313 1.393 . S
C309 C316 1.500 . S
C310 C311 1.400 . S
C310 C312 1.384 . S
C311 C309 1.382 . S
C311 C310 1.400 . S
C311 H328 0.930 . S
C312 C310 1.384 . S
C312 C314 1.392 . S
C312 H329 0.931 . S
C313 C309 1.393 . S
C313 C314 1.401 . S
C313 H330 0.930 . S
C314 C312 1.392 . S
C314 C313 1.401 . S
C314 H331 0.930 . S
C315 O298 1.262 . S
C315 O299 1.260 . S
C316 Tb252 2.833 . S
C316 O296 1.251 . S
C316 O301 1.256 . S
C316 C309 1.500 . S
C317 H282 0.929 . S
C317 C295 1.444 . S
C317 C318 1.317 . S
C318 H280 0.950 . S
C318 C286 1.432 . S
C318 C317 1.317 . S
C319 O303 1.283 . S
C319 O306 1.243 . S
C320 C321 1.382 . S
C320 C324 1.393 . S
C320 C327 1.500 . S
C321 C320 1.382 . S
C321 C322 1.400 . S
C321 H332 0.930 . S
C322 C321 1.400 . S
C322 C323 1.384 . S
C323 C322 1.384 . S
C323 C325 1.392 . S
C323 H333 0.931 . S
C324 C320 1.393 . S
C324 C325 1.401 . S
C324 H334 0.930 . S
C325 C323 1.392 . S
C325 C324 1.401 . S
C325 H335 0.930 . S
C326 O304 1.262 . S
C326 O305 1.260 . S
C327 Tb263 2.833 . S
C327 O302 1.251 . S
C327 O307 1.256 . S
C327 C320 1.500 . S
H328 C311 0.930 . S
H329 C312 0.931 . S
H330 C313 0.930 . S
H331 C314 0.930 . S
H332 C321 0.930 . S
H333 C323 0.931 . S
H334 C324 0.930 . S
H335 C325 0.930 . S
Tb336 N367 2.660 . S
Tb336 N374 2.600 . S
Tb336 O380 2.546 . S
Tb336 O381 2.610 . S
Tb336 O383 2.320 . S
Tb336 O384 2.552 . S
Tb336 O385 2.413 . S
Tb336 O387 2.362 . S
Tb336 O388 2.421 . S
Tb336 C400 2.833 . S
C337 C340 1.432 . S
C337 C341 1.414 . S
C337 N344 1.359 . S
C338 C340 1.417 . S
C338 C342 1.432 . S
C338 C350 1.410 . S
C339 C341 1.444 . S
C339 C342 1.317 . S
C339 H362 0.929 . S
C340 C337 1.432 . S
C340 C338 1.417 . S
C340 N348 1.360 . S
C341 C337 1.414 . S
C341 C339 1.444 . S
C341 C346 1.385 . S
C342 C338 1.432 . S
C342 C339 1.317 . S
C342 H354 0.930 . S
C343 C345 1.392 . S
C343 C346 1.370 . S
C343 H355 0.931 . S
N344 C337 1.359 . S
N344 C345 1.327 . S
N344 Tb347 2.600 . S
C345 C343 1.392 . S
C345 N344 1.327 . S
C345 H352 0.930 . S
C346 C341 1.385 . S
C346 C343 1.370 . S
C346 H365 0.930 . S
Tb347 N344 2.600 . S
Tb347 N348 2.660 . S
Tb347 O381 2.362 . S
Tb347 O382 2.421 . S
Tb347 O386 2.546 . S
Tb347 O387 2.610 . S
Tb347 O389 2.320 . S
Tb347 O390 2.552 . S
Tb347 O391 2.413 . S
Tb347 C411 2.833 . S
N348 C340 1.360 . S
N348 Tb347 2.660 . S
N348 C349 1.305 . S
C349 N348 1.305 . S
C349 C351 1.407 . S
C349 H356 0.930 . S
C350 C338 1.410 . S
C350 C351 1.345 . S
C350 H358 0.930 . S
C351 C349 1.407 . S
C351 C350 1.345 . S
C351 H353 0.930 . S
H352 C345 0.930 . S
H353 C351 0.930 . S
H354 C342 0.930 . S
H355 C343 0.931 . S
H356 C349 0.930 . S
H357 C371 0.930 . S
H358 C350 0.930 . S
H359 C377 0.930 . S
H360 C368 0.930 . S
H361 C375 0.931 . S
H362 C339 0.929 . S
H363 C369 0.930 1_556 S
H364 C402 0.930 1_556 S
H365 C346 0.930 . S
H366 C401 0.929 . S
N367 Tb336 2.660 . S
N367 C368 1.305 . S
N367 C372 1.360 . S
C368 H360 0.930 . S
C368 N367 1.305 . S
C368 C371 1.407 . S
C369 H363 0.930 1_554 S
C369 C370 1.410 . S
C369 C371 1.345 . S
C370 C369 1.410 . S
C370 C372 1.417 . S
C370 C402 1.432 . S
C371 H357 0.930 . S
C371 C368 1.407 . S
C371 C369 1.345 . S
C372 N367 1.360 . S
C372 C370 1.417 . S
C372 C376 1.432 . S
H373 C378 0.930 . S
N374 Tb336 2.600 . S
N374 C376 1.359 . S
N374 C377 1.327 . S
C375 H361 0.931 . S
C375 C377 1.392 . S
C375 C378 1.370 . S
C376 C372 1.432 . S
C376 N374 1.359 . S
C376 C379 1.414 . S
C377 H359 0.930 . S
C377 N374 1.327 . S
C377 C375 1.392 . S
C378 H373 0.930 . S
C378 C375 1.370 . S
C378 C379 1.385 . S
C379 C376 1.414 . S
C379 C378 1.385 . S
C379 C401 1.444 . S
O380 Tb336 2.546 . S
O380 C400 1.251 . S
O381 Tb336 2.610 . S
O381 Tb347 2.362 . S
O381 C392 1.283 . S
O382 Tb347 2.421 . S
O382 C399 1.262 . S
O383 Tb336 2.320 . S
O383 C399 1.260 . S
O384 Tb336 2.552 . S
O384 C392 1.243 . S
O385 Tb336 2.413 . S
O385 C400 1.256 . S
O386 Tb347 2.546 . S
O386 C411 1.251 . S
O387 Tb336 2.362 . S
O387 Tb347 2.610 . S
O387 C403 1.283 . S
O388 Tb336 2.421 . S
O388 C410 1.262 . S
O389 Tb347 2.320 . S
O389 C410 1.260 . S
O390 Tb347 2.552 . S
O390 C403 1.243 . S
O391 Tb347 2.413 . S
O391 C411 1.256 . S
C392 O381 1.283 . S
C392 O384 1.243 . S
C393 C395 1.382 . S
C393 C397 1.393 . S
C393 C400 1.500 . S
C394 C395 1.400 . S
C394 C396 1.384 . S
C395 C393 1.382 . S
C395 C394 1.400 . S
C395 H412 0.930 . S
C396 C394 1.384 . S
C396 C398 1.392 . S
C396 H413 0.931 . S
C397 C393 1.393 . S
C397 C398 1.401 . S
C397 H414 0.930 . S
C398 C396 1.392 . S
C398 C397 1.401 . S
C398 H415 0.930 . S
C399 O382 1.262 . S
C399 O383 1.260 . S
C400 Tb336 2.833 . S
C400 O380 1.251 . S
C400 O385 1.256 . S
C400 C393 1.500 . S
C401 H366 0.929 . S
C401 C379 1.444 . S
C401 C402 1.317 . S
C402 H364 0.930 1_554 S
C402 C370 1.432 . S
C402 C401 1.317 . S
C403 O387 1.283 . S
C403 O390 1.243 . S
C404 C405 1.382 . S
C404 C408 1.393 . S
C404 C411 1.500 . S
C405 C404 1.382 . S
C405 C406 1.400 . S
C405 H416 0.930 . S
C406 C405 1.400 . S
C406 C407 1.384 . S
C407 C406 1.384 . S
C407 C409 1.392 . S
C407 H417 0.931 . S
C408 C404 1.393 . S
C408 C409 1.401 . S
C408 H418 0.930 . S
C409 C407 1.392 . S
C409 C408 1.401 . S
C409 H419 0.930 . S
C410 O388 1.262 . S
C410 O389 1.260 . S
C411 Tb347 2.833 . S
C411 O386 1.251 . S
C411 O391 1.256 . S
C411 C404 1.500 . S
H412 C395 0.930 . S
H413 C396 0.931 . S
H414 C397 0.930 . S
H415 C398 0.930 . S
H416 C405 0.930 . S
H417 C407 0.931 . S
H418 C408 0.930 . S
H419 C409 0.930 . S
Tb420 N451 2.660 . S
Tb420 N458 2.600 . S
Tb420 O464 2.546 . S
Tb420 O465 2.610 . S
Tb420 O467 2.320 . S
Tb420 O468 2.552 . S
Tb420 O469 2.413 . S
Tb420 O471 2.362 . S
Tb420 O472 2.421 . S
Tb420 C484 2.833 . S
C421 C424 1.432 . S
C421 C425 1.414 . S
C421 N428 1.359 . S
C422 C424 1.417 . S
C422 C426 1.432 . S
C422 C434 1.410 . S
C423 C425 1.444 . S
C423 C426 1.317 . S
C423 H446 0.929 . S
C424 C421 1.432 . S
C424 C422 1.417 . S
C424 N432 1.360 . S
C425 C421 1.414 . S
C425 C423 1.444 . S
C425 C430 1.385 . S
C426 C422 1.432 . S
C426 C423 1.317 . S
C426 H438 0.930 . S
C427 C429 1.392 . S
C427 C430 1.370 . S
C427 H439 0.931 . S
N428 C421 1.359 . S
N428 C429 1.327 . S
N428 Tb431 2.600 . S
C429 C427 1.392 . S
C429 N428 1.327 . S
C429 H436 0.930 . S
C430 C425 1.385 . S
C430 C427 1.370 . S
C430 H449 0.930 . S
Tb431 N428 2.600 . S
Tb431 N432 2.660 . S
Tb431 O465 2.362 . S
Tb431 O466 2.421 . S
Tb431 O470 2.546 . S
Tb431 O471 2.610 . S
Tb431 O473 2.320 . S
Tb431 O474 2.552 . S
Tb431 O475 2.413 . S
Tb431 C495 2.833 . S
N432 C424 1.360 . S
N432 Tb431 2.660 . S
N432 C433 1.305 . S
C433 N432 1.305 . S
C433 C435 1.407 . S
C433 H440 0.930 . S
C434 C422 1.410 . S
C434 C435 1.345 . S
C434 H442 0.930 . S
C435 C433 1.407 . S
C435 C434 1.345 . S
C435 H437 0.930 . S
H436 C429 0.930 . S
H437 C435 0.930 . S
H438 C426 0.930 . S
H439 C427 0.931 . S
H440 C433 0.930 . S
H441 C455 0.930 . S
H442 C434 0.930 . S
H443 C461 0.930 . S
H444 C452 0.930 . S
H445 C459 0.931 1_556 S
H446 C423 0.929 . S
H447 C453 0.930 . S
H448 C486 0.930 . S
H449 C430 0.930 . S
H450 C485 0.929 . S
N451 Tb420 2.660 . S
N451 C452 1.305 . S
N451 C456 1.360 . S
C452 H444 0.930 . S
C452 N451 1.305 . S
C452 C455 1.407 . S
C453 H447 0.930 . S
C453 C454 1.410 . S
C453 C455 1.345 . S
C454 C453 1.410 . S
C454 C456 1.417 . S
C454 C486 1.432 . S
C455 H441 0.930 . S
C455 C452 1.407 . S
C455 C453 1.345 . S
C456 N451 1.360 . S
C456 C454 1.417 . S
C456 C460 1.432 . S
H457 C462 0.930 . S
N458 Tb420 2.600 . S
N458 C460 1.359 . S
N458 C461 1.327 . S
C459 H445 0.931 1_554 S
C459 C461 1.392 . S
C459 C462 1.370 . S
C460 C456 1.432 . S
C460 N458 1.359 . S
C460 C463 1.414 . S
C461 H443 0.930 . S
C461 N458 1.327 . S
C461 C459 1.392 . S
C462 H457 0.930 . S
C462 C459 1.370 . S
C462 C463 1.385 . S
C463 C460 1.414 . S
C463 C462 1.385 . S
C463 C485 1.444 . S
O464 Tb420 2.546 . S
O464 C484 1.251 . S
O465 Tb420 2.610 . S
O465 Tb431 2.362 . S
O465 C476 1.283 . S
O466 Tb431 2.421 . S
O466 C483 1.262 . S
O467 Tb420 2.320 . S
O467 C483 1.260 . S
O468 Tb420 2.552 . S
O468 C476 1.243 . S
O469 Tb420 2.413 . S
O469 C484 1.256 . S
O470 Tb431 2.546 . S
O470 C495 1.251 . S
O471 Tb420 2.362 . S
O471 Tb431 2.610 . S
O471 C487 1.283 . S
O472 Tb420 2.421 . S
O472 C494 1.262 . S
O473 Tb431 2.320 . S
O473 C494 1.260 . S
O474 Tb431 2.552 . S
O474 C487 1.243 . S
O475 Tb431 2.413 . S
O475 C495 1.256 . S
C476 O465 1.283 . S
C476 O468 1.243 . S
C477 C479 1.382 . S
C477 C481 1.393 . S
C477 C484 1.500 . S
C478 C479 1.400 . S
C478 C480 1.384 . S
C479 C477 1.382 . S
C479 C478 1.400 . S
C479 H496 0.930 . S
C480 C478 1.384 . S
C480 C482 1.392 . S
C480 H497 0.931 . S
C481 C477 1.393 . S
C481 C482 1.401 . S
C481 H498 0.930 . S
C482 C480 1.392 . S
C482 C481 1.401 . S
C482 H499 0.930 . S
C483 O466 1.262 . S
C483 O467 1.260 . S
C484 Tb420 2.833 . S
C484 O464 1.251 . S
C484 O469 1.256 . S
C484 C477 1.500 . S
C485 H450 0.929 . S
C485 C463 1.444 . S
C485 C486 1.317 . S
C486 H448 0.930 . S
C486 C454 1.432 . S
C486 C485 1.317 . S
C487 O471 1.283 . S
C487 O474 1.243 . S
C488 C489 1.382 . S
C488 C492 1.393 . S
C488 C495 1.500 . S
C489 C488 1.382 . S
C489 C490 1.400 . S
C489 H500 0.930 . S
C490 C489 1.400 . S
C490 C491 1.384 . S
C491 C490 1.384 . S
C491 C493 1.392 . S
C491 H501 0.931 . S
C492 C488 1.393 . S
C492 C493 1.401 . S
C492 H502 0.930 . S
C493 C491 1.392 . S
C493 C492 1.401 . S
C493 H503 0.930 . S
C494 O472 1.262 . S
C494 O473 1.260 . S
C495 Tb431 2.833 . S
C495 O470 1.251 . S
C495 O475 1.256 . S
C495 C488 1.500 . S
H496 C479 0.930 . S
H497 C480 0.931 . S
H498 C481 0.930 . S
H499 C482 0.930 . S
H500 C489 0.930 . S
H501 C491 0.931 . S
H502 C492 0.930 . S
H503 C493 0.930 . S
Tb504 N535 2.660 . S
Tb504 N542 2.600 . S
Tb504 O548 2.546 . S
Tb504 O549 2.610 . S
Tb504 O551 2.320 . S
Tb504 O552 2.552 . S
Tb504 O553 2.413 . S
Tb504 O555 2.362 . S
Tb504 O556 2.421 . S
Tb504 C568 2.833 . S
C505 C508 1.432 . S
C505 C509 1.414 . S
C505 N512 1.359 . S
C506 C508 1.417 . S
C506 C510 1.432 . S
C506 C518 1.410 . S
C507 C509 1.444 . S
C507 C510 1.317 . S
C507 H530 0.929 . S
C508 C505 1.432 . S
C508 C506 1.417 . S
C508 N516 1.360 . S
C509 C505 1.414 . S
C509 C507 1.444 . S
C509 C514 1.385 . S
C510 C506 1.432 . S
C510 C507 1.317 . S
C510 H522 0.930 . S
C511 C513 1.392 . S
C511 C514 1.370 . S
C511 H523 0.931 . S
N512 C505 1.359 . S
N512 C513 1.327 . S
N512 Tb515 2.600 . S
C513 C511 1.392 . S
C513 N512 1.327 . S
C513 H520 0.930 . S
C514 C509 1.385 . S
C514 C511 1.370 . S
C514 H533 0.930 . S
Tb515 N512 2.600 . S
Tb515 N516 2.660 . S
Tb515 O549 2.362 . S
Tb515 O550 2.421 . S
Tb515 O554 2.546 . S
Tb515 O555 2.610 . S
Tb515 O557 2.320 . S
Tb515 O558 2.552 . S
Tb515 O559 2.413 . S
Tb515 C579 2.833 . S
N516 C508 1.360 . S
N516 Tb515 2.660 . S
N516 C517 1.305 . S
C517 N516 1.305 . S
C517 C519 1.407 . S
C517 H524 0.930 . S
C518 C506 1.410 . S
C518 C519 1.345 . S
C518 H526 0.930 . S
C519 C517 1.407 . S
C519 C518 1.345 . S
C519 H521 0.930 . S
H520 C513 0.930 . S
H521 C519 0.930 . S
H522 C510 0.930 . S
H523 C511 0.931 . S
H524 C517 0.930 . S
H525 C539 0.930 . S
H526 C518 0.930 . S
H527 C545 0.930 . S
H528 C536 0.930 . S
H529 C543 0.931 . S
H530 C507 0.929 . S
H531 C537 0.930 . S
H532 C570 0.930 . S
H533 C514 0.930 . S
H534 C569 0.929 . S
N535 Tb504 2.660 . S
N535 C536 1.305 . S
N535 C540 1.360 . S
C536 H528 0.930 . S
C536 N535 1.305 . S
C536 C539 1.407 . S
C537 H531 0.930 . S
C537 C538 1.410 . S
C537 C539 1.345 . S
C538 C537 1.410 . S
C538 C540 1.417 . S
C538 C570 1.432 . S
C539 H525 0.930 . S
C539 C536 1.407 . S
C539 C537 1.345 . S
C540 N535 1.360 . S
C540 C538 1.417 . S
C540 C544 1.432 . S
H541 C546 0.930 . S
N542 Tb504 2.600 . S
N542 C544 1.359 . S
N542 C545 1.327 . S
C543 H529 0.931 . S
C543 C545 1.392 . S
C543 C546 1.370 . S
C544 C540 1.432 . S
C544 N542 1.359 . S
C544 C547 1.414 . S
C545 H527 0.930 . S
C545 N542 1.327 . S
C545 C543 1.392 . S
C546 H541 0.930 . S
C546 C543 1.370 . S
C546 C547 1.385 . S
C547 C544 1.414 . S
C547 C546 1.385 . S
C547 C569 1.444 . S
O548 Tb504 2.546 . S
O548 C568 1.251 . S
O549 Tb504 2.610 . S
O549 Tb515 2.362 . S
O549 C560 1.283 . S
O550 Tb515 2.421 . S
O550 C567 1.262 . S
O551 Tb504 2.320 . S
O551 C567 1.260 . S
O552 Tb504 2.552 . S
O552 C560 1.243 . S
O553 Tb504 2.413 . S
O553 C568 1.256 . S
O554 Tb515 2.546 . S
O554 C579 1.251 . S
O555 Tb504 2.362 . S
O555 Tb515 2.610 . S
O555 C571 1.283 . S
O556 Tb504 2.421 . S
O556 C578 1.262 . S
O557 Tb515 2.320 . S
O557 C578 1.260 . S
O558 Tb515 2.552 . S
O558 C571 1.243 . S
O559 Tb515 2.413 . S
O559 C579 1.256 . S
C560 O549 1.283 . S
C560 O552 1.243 . S
C561 C563 1.382 . S
C561 C565 1.393 . S
C561 C568 1.500 . S
C562 C563 1.400 . S
C562 C564 1.384 . S
C563 C561 1.382 . S
C563 C562 1.400 . S
C563 H580 0.930 . S
C564 C562 1.384 . S
C564 C566 1.392 . S
C564 H581 0.931 . S
C565 C561 1.393 . S
C565 C566 1.401 . S
C565 H582 0.930 . S
C566 C564 1.392 . S
C566 C565 1.401 . S
C566 H583 0.930 . S
C567 O550 1.262 . S
C567 O551 1.260 . S
C568 Tb504 2.833 . S
C568 O548 1.251 . S
C568 O553 1.256 . S
C568 C561 1.500 . S
C569 H534 0.929 . S
C569 C547 1.444 . S
C569 C570 1.317 . S
C570 H532 0.930 . S
C570 C538 1.432 . S
C570 C569 1.317 . S
C571 O555 1.283 . S
C571 O558 1.243 . S
C572 C573 1.382 . S
C572 C576 1.393 . S
C572 C579 1.500 . S
C573 C572 1.382 . S
C573 C574 1.400 . S
C573 H584 0.930 . S
C574 C573 1.400 . S
C574 C575 1.384 . S
C575 C574 1.384 . S
C575 C577 1.392 . S
C575 H585 0.931 . S
C576 C572 1.393 . S
C576 C577 1.401 . S
C576 H586 0.930 . S
C577 C575 1.392 . S
C577 C576 1.401 . S
C577 H587 0.930 . S
C578 O556 1.262 . S
C578 O557 1.260 . S
C579 Tb515 2.833 . S
C579 O554 1.251 . S
C579 O559 1.256 . S
C579 C572 1.500 . S
H580 C563 0.930 . S
H581 C564 0.931 . S
H582 C565 0.930 . S
H583 C566 0.930 . S
H584 C573 0.930 . S
H585 C575 0.931 . S
H586 C576 0.930 . S
H587 C577 0.930 . S
Tb588 N619 2.660 . S
Tb588 N626 2.600 . S
Tb588 O632 2.546 . S
Tb588 O633 2.610 . S
Tb588 O635 2.320 . S
Tb588 O636 2.552 . S
Tb588 O637 2.413 . S
Tb588 O639 2.362 . S
Tb588 O640 2.421 . S
Tb588 C652 2.833 . S
C589 C592 1.432 . S
C589 C593 1.414 . S
C589 N596 1.359 . S
C590 C592 1.417 . S
C590 C594 1.432 . S
C590 C602 1.410 . S
C591 C593 1.444 . S
C591 C594 1.317 . S
C591 H614 0.929 . S
C592 C589 1.432 . S
C592 C590 1.417 . S
C592 N600 1.360 . S
C593 C589 1.414 . S
C593 C591 1.444 . S
C593 C598 1.385 . S
C594 C590 1.432 . S
C594 C591 1.317 . S
C594 H606 0.930 . S
C595 C597 1.392 . S
C595 C598 1.370 . S
C595 H607 0.931 . S
N596 C589 1.359 . S
N596 C597 1.327 . S
N596 Tb599 2.600 . S
C597 C595 1.392 . S
C597 N596 1.327 . S
C597 H604 0.930 . S
C598 C593 1.385 . S
C598 C595 1.370 . S
C598 H617 0.930 . S
Tb599 N596 2.600 . S
Tb599 N600 2.660 . S
Tb599 O633 2.362 . S
Tb599 O634 2.421 . S
Tb599 O638 2.546 . S
Tb599 O639 2.610 . S
Tb599 O641 2.320 . S
Tb599 O642 2.552 . S
Tb599 O643 2.413 . S
Tb599 C663 2.833 . S
N600 C592 1.360 . S
N600 Tb599 2.660 . S
N600 C601 1.305 . S
C601 N600 1.305 . S
C601 C603 1.407 . S
C601 H608 0.930 . S
C602 C590 1.410 . S
C602 C603 1.345 . S
C602 H610 0.930 . S
C603 C601 1.407 . S
C603 C602 1.345 . S
C603 H605 0.930 . S
H604 C597 0.930 . S
H605 C603 0.930 . S
H606 C594 0.930 . S
H607 C595 0.931 . S
H608 C601 0.930 . S
H609 C623 0.930 . S
H610 C602 0.930 . S
H611 C629 0.930 . S
H612 C620 0.930 . S
H613 C627 0.931 . S
H614 C591 0.929 . S
H615 C621 0.930 . S
H616 C654 0.930 . S
H617 C598 0.930 . S
H618 C653 0.929 . S
N619 Tb588 2.660 . S
N619 C620 1.305 . S
N619 C624 1.360 . S
C620 H612 0.930 . S
C620 N619 1.305 . S
C620 C623 1.407 1_655 S
C621 H615 0.930 . S
C621 C622 1.410 . S
C621 C623 1.345 . S
C622 C621 1.410 . S
C622 C624 1.417 1_455 S
C622 C654 1.432 . S
C623 H609 0.930 . S
C623 C620 1.407 1_455 S
C623 C621 1.345 . S
C624 N619 1.360 . S
C624 C622 1.417 1_655 S
C624 C628 1.432 . S
H625 C630 0.930 . S
N626 Tb588 2.600 . S
N626 C628 1.359 . S
N626 C629 1.327 . S
C627 H613 0.931 . S
C627 C629 1.392 . S
C627 C630 1.370 . S
C628 C624 1.432 . S
C628 N626 1.359 . S
C628 C631 1.414 . S
C629 H611 0.930 . S
C629 N626 1.327 . S
C629 C627 1.392 . S
C630 H625 0.930 . S
C630 C627 1.370 . S
C630 C631 1.385 . S
C631 C628 1.414 . S
C631 C630 1.385 . S
C631 C653 1.444 1_655 S
O632 Tb588 2.546 . S
O632 C652 1.251 . S
O633 Tb588 2.610 . S
O633 Tb599 2.362 . S
O633 C644 1.283 . S
O634 Tb599 2.421 . S
O634 C651 1.262 . S
O635 Tb588 2.320 . S
O635 C651 1.260 . S
O636 Tb588 2.552 . S
O636 C644 1.243 . S
O637 Tb588 2.413 . S
O637 C652 1.256 . S
O638 Tb599 2.546 . S
O638 C663 1.251 . S
O639 Tb588 2.362 . S
O639 Tb599 2.610 . S
O639 C655 1.283 . S
O640 Tb588 2.421 . S
O640 C662 1.262 . S
O641 Tb599 2.320 . S
O641 C662 1.260 . S
O642 Tb599 2.552 . S
O642 C655 1.243 . S
O643 Tb599 2.413 . S
O643 C663 1.256 . S
C644 O633 1.283 . S
C644 O636 1.243 . S
C645 C647 1.382 . S
C645 C649 1.393 . S
C645 C652 1.500 . S
C646 C647 1.400 1_554 S
C646 C648 1.384 . S
C647 C645 1.382 . S
C647 C646 1.400 1_556 S
C647 H664 0.930 . S
C648 C646 1.384 . S
C648 C650 1.403 . S
C648 H665 0.931 . S
C649 C645 1.393 . S
C649 C650 1.381 1_556 S
C649 H666 0.930 . S
C650 C648 1.403 . S
C650 C649 1.381 1_554 S
C650 H667 0.939 . S
C651 O634 1.262 . S
C651 O635 1.260 . S
C652 Tb588 2.833 . S
C652 O632 1.251 . S
C652 O637 1.256 . S
C652 C645 1.500 . S
C653 H618 0.929 . S
C653 C631 1.444 1_455 S
C653 C654 1.317 . S
C654 H616 0.930 . S
C654 C622 1.432 . S
C654 C653 1.317 . S
C655 O639 1.283 . S
C655 O642 1.243 . S
C656 C657 1.382 . S
C656 C660 1.393 . S
C656 C663 1.500 . S
C657 C656 1.382 . S
C657 C658 1.400 . S
C657 H668 0.930 . S
C658 C657 1.400 . S
C658 C659 1.384 . S
C659 C658 1.384 . S
C659 C661 1.392 . S
C659 H669 0.931 . S
C660 C656 1.393 . S
C660 C661 1.401 . S
C660 H670 0.930 . S
C661 C659 1.392 . S
C661 C660 1.401 . S
C661 H671 0.930 . S
C662 O640 1.262 . S
C662 O641 1.260 . S
C663 Tb599 2.833 . S
C663 O638 1.251 . S
C663 O643 1.256 . S
C663 C656 1.500 . S
H664 C647 0.930 . S
H665 C648 0.931 . S
H666 C649 0.930 . S
H667 C650 0.939 . S
H668 C657 0.930 . S
H669 C659 0.931 . S
H670 C660 0.930 . S
H671 C661 0.930 . S
Tb672 N703 2.660 . S
Tb672 N710 2.600 . S
Tb672 O716 2.546 . S
Tb672 O717 2.610 . S
Tb672 O719 2.320 . S
Tb672 O720 2.552 . S
Tb672 O721 2.413 . S
Tb672 O723 2.362 . S
Tb672 O724 2.421 . S
Tb672 C736 2.833 . S
C673 C676 1.432 . S
C673 C677 1.414 . S
C673 N680 1.359 . S
C674 C676 1.417 . S
C674 C678 1.432 . S
C674 C686 1.410 . S
C675 C677 1.444 . S
C675 C678 1.317 . S
C675 H698 0.929 . S
C676 C673 1.432 . S
C676 C674 1.417 . S
C676 N684 1.360 . S
C677 C673 1.414 . S
C677 C675 1.444 . S
C677 C682 1.385 . S
C678 C674 1.432 . S
C678 C675 1.317 . S
C678 H690 0.926 . S
C679 C681 1.392 . S
C679 C682 1.370 . S
C679 H691 0.931 . S
N680 C673 1.359 . S
N680 C681 1.327 . S
N680 Tb683 2.600 . S
C681 C679 1.392 . S
C681 N680 1.327 . S
C681 H688 0.930 . S
C682 C677 1.385 . S
C682 C679 1.370 . S
C682 H701 0.930 . S
Tb683 N680 2.600 . S
Tb683 N684 2.660 . S
Tb683 O717 2.362 . S
Tb683 O718 2.421 . S
Tb683 O722 2.546 . S
Tb683 O723 2.610 . S
Tb683 O725 2.320 . S
Tb683 O726 2.552 . S
Tb683 O727 2.413 . S
Tb683 C747 2.819 1_556 S
N684 C676 1.360 . S
N684 Tb683 2.660 . S
N684 C685 1.305 . S
C685 N684 1.305 . S
C685 C687 1.407 . S
C685 H692 0.930 . S
C686 C674 1.410 . S
C686 C687 1.345 . S
C686 H694 0.930 . S
C687 C685 1.407 . S
C687 C686 1.345 . S
C687 H689 0.930 . S
H688 C681 0.930 . S
H689 C687 0.930 . S
H690 C678 0.926 . S
H691 C679 0.931 . S
H692 C685 0.930 . S
H693 C707 0.930 . S
H694 C686 0.930 . S
H695 C713 0.930 . S
H696 C704 0.930 . S
H697 C711 0.931 . S
H698 C675 0.929 . S
H699 C705 0.930 . S
H700 C738 0.930 . S
H701 C682 0.930 . S
H702 C737 0.929 . S
N703 Tb672 2.660 . S
N703 C704 1.305 . S
N703 C708 1.360 . S
C704 H696 0.930 . S
C704 N703 1.305 . S
C704 C707 1.407 . S
C705 H699 0.930 . S
C705 C706 1.410 . S
C705 C707 1.345 . S
C706 C705 1.410 . S
C706 C708 1.417 . S
C706 C738 1.432 . S
C707 H693 0.930 . S
C707 C704 1.407 . S
C707 C705 1.345 . S
C708 N703 1.360 . S
C708 C706 1.417 . S
C708 C712 1.432 . S
H709 C714 0.930 . S
N710 Tb672 2.600 . S
N710 C712 1.359 . S
N710 C713 1.327 . S
C711 H697 0.931 . S
C711 C713 1.392 . S
C711 C714 1.370 . S
C712 C708 1.432 . S
C712 N710 1.359 . S
C712 C715 1.414 . S
C713 H695 0.930 . S
C713 N710 1.327 . S
C713 C711 1.392 . S
C714 H709 0.930 . S
C714 C711 1.370 . S
C714 C715 1.385 . S
C715 C712 1.414 . S
C715 C714 1.385 . S
C715 C737 1.444 . S
O716 Tb672 2.546 . S
O716 C736 1.251 . S
O717 Tb672 2.610 . S
O717 Tb683 2.362 . S
O717 C728 1.283 . S
O718 Tb683 2.421 . S
O718 C735 1.262 . S
O719 Tb672 2.320 . S
O719 C735 1.260 . S
O720 Tb672 2.552 . S
O720 C728 1.243 . S
O721 Tb672 2.413 . S
O721 C736 1.256 . S
O722 Tb683 2.546 . S
O722 C747 1.242 1_556 S
O723 Tb672 2.362 . S
O723 Tb683 2.610 . S
O723 C739 1.283 . S
O724 Tb672 2.421 . S
O724 C746 1.262 . S
O725 Tb683 2.320 . S
O725 C746 1.260 . S
O726 Tb683 2.552 . S
O726 C739 1.243 . S
O727 Tb683 2.413 . S
O727 C747 1.252 1_556 S
C728 O717 1.283 . S
C728 O720 1.243 . S
C729 C731 1.382 . S
C729 C733 1.393 . S
C729 C736 1.500 . S
C730 C731 1.400 . S
C730 C732 1.384 . S
C731 C729 1.382 . S
C731 C730 1.400 . S
C731 H748 0.930 . S
C732 C730 1.384 . S
C732 C734 1.392 . S
C732 H749 0.931 . S
C733 C729 1.393 . S
C733 C734 1.401 . S
C733 H750 0.930 . S
C734 C732 1.392 . S
C734 C733 1.401 . S
C734 H751 0.930 . S
C735 O718 1.262 . S
C735 O719 1.260 . S
C736 Tb672 2.833 . S
C736 O716 1.251 . S
C736 O721 1.256 . S
C736 C729 1.500 . S
C737 H702 0.929 . S
C737 C715 1.444 . S
C737 C738 1.317 . S
C738 H700 0.930 . S
C738 C706 1.432 . S
C738 C737 1.317 . S
C739 O723 1.283 . S
C739 O726 1.243 . S
C740 C741 1.382 . S
C740 C744 1.393 . S
C740 C747 1.514 . S
C741 C740 1.382 . S
C741 C742 1.400 . S
C741 H752 0.930 . S
C742 C741 1.400 . S
C742 C743 1.384 . S
C743 C742 1.384 . S
C743 C745 1.392 . S
C743 H753 0.931 . S
C744 C740 1.393 . S
C744 C745 1.401 . S
C744 H754 0.930 . S
C745 C743 1.392 . S
C745 C744 1.401 . S
C745 H755 0.930 . S
C746 O724 1.262 . S
C746 O725 1.260 . S
C747 Tb683 2.819 1_554 S
C747 O722 1.242 1_554 S
C747 O727 1.252 1_554 S
C747 C740 1.514 . S
H748 C731 0.930 . S
H749 C732 0.931 . S
H750 C733 0.930 . S
H751 C734 0.930 . S
H752 C741 0.930 . S
H753 C743 0.931 . S
H754 C744 0.930 . S
H755 C745 0.930 . S
C756 C757 1.349 . S
C756 C758 1.327 . S
C756 H781 0.950 . S
C757 C756 1.349 . S
C757 C773 1.349 . S
C758 C756 1.327 . S
C758 C777 1.429 . S
C758 H782 0.950 . S
C759 C776 1.574 . S
C759 C778 1.368 . S
C759 H783 0.949 . S
H760 C764 0.949 . S
C761 C762 1.349 . S
C761 C763 1.327 . S
C761 H784 0.947 1_455 S
C762 C761 1.349 . S
C762 C774 1.349 . S
C763 C761 1.327 . S
C763 C779 1.429 . S
C763 H785 0.951 . S
C764 H760 0.949 . S
C764 C772 1.574 . S
C764 C780 1.368 . S
H765 C773 0.950 . S
H766 C771 0.950 . S
H767 C772 0.949 . S
H768 C774 0.950 . S
H769 C775 0.950 . S
H770 C776 0.972 . S
C771 H766 0.950 . S
C771 C773 1.327 . S
C771 C777 1.429 . S
C772 C764 1.574 . S
C772 H767 0.949 . S
C772 C778 1.368 . S
C773 C757 1.349 . S
C773 H765 0.950 . S
C773 C771 1.327 . S
C774 C762 1.349 . S
C774 H768 0.950 . S
C774 C775 1.327 . S
C775 H769 0.950 . S
C775 C774 1.327 . S
C775 C779 1.429 . S
C776 C759 1.574 . S
C776 H770 0.972 . S
C776 C780 1.368 . S
C777 C758 1.429 . S
C777 C771 1.429 . S
C777 C778 1.523 . S
C778 C759 1.368 . S
C778 C772 1.368 . S
C778 C777 1.523 . S
C779 C763 1.429 . S
C779 C775 1.429 . S
C779 C780 1.523 . S
C780 C764 1.368 . S
C780 C776 1.368 . S
C780 C779 1.523 . S
H781 C756 0.950 . S
H782 C758 0.950 . S
H783 C759 0.949 . S
H784 C761 0.947 1_655 S
H785 C763 0.951 . S
C786 C787 1.349 . S
C786 C788 1.327 . S
C786 H811 0.950 . S
C787 C786 1.349 . S
C787 C803 1.349 . S
C788 C786 1.327 . S
C788 C807 1.429 . S
C788 H812 0.950 . S
C789 C806 1.574 . S
C789 C808 1.368 . S
C789 H813 0.949 . S
H790 C794 0.949 . S
C791 C792 1.349 . S
C791 C793 1.327 . S
C791 H814 0.950 . S
C792 C791 1.349 . S
C792 C804 1.349 . S
C793 C791 1.327 . S
C793 C809 1.429 . S
C793 H815 0.950 . S
C794 H790 0.949 . S
C794 C802 1.574 . S
C794 C810 1.368 . S
H795 C803 0.950 . S
H796 C801 0.950 . S
H797 C802 0.949 . S
H798 C804 0.950 . S
H799 C805 0.950 . S
H800 C806 0.949 . S
C801 H796 0.950 . S
C801 C803 1.327 . S
C801 C807 1.429 . S
C802 C794 1.574 . S
C802 H797 0.949 . S
C802 C808 1.368 . S
C803 C787 1.349 . S
C803 H795 0.950 . S
C803 C801 1.327 . S
C804 C792 1.349 . S
C804 H798 0.950 . S
C804 C805 1.327 . S
C805 H799 0.950 . S
C805 C804 1.327 . S
C805 C809 1.429 . S
C806 C789 1.574 . S
C806 H800 0.949 . S
C806 C810 1.368 . S
C807 C788 1.429 . S
C807 C801 1.429 . S
C807 C808 1.523 . S
C808 C789 1.368 . S
C808 C802 1.368 . S
C808 C807 1.523 . S
C809 C793 1.429 . S
C809 C805 1.429 . S
C809 C810 1.523 . S
C810 C794 1.368 . S
C810 C806 1.368 . S
C810 C809 1.523 . S
H811 C786 0.950 . S
H812 C788 0.950 . S
H813 C789 0.949 . S
H814 C791 0.950 . S
H815 C793 0.950 . S
C816 C817 1.349 . S
C816 C818 1.327 . S
C816 H841 0.950 . S
C817 C816 1.349 . S
C817 C833 1.349 . S
C818 C816 1.327 . S
C818 C837 1.429 . S
C818 H842 0.950 . S
C819 C836 1.574 . S
C819 C838 1.368 . S
C819 H843 0.949 . S
H820 C824 0.949 . S
C821 C822 1.349 . S
C821 C823 1.327 . S
C821 H844 0.950 . S
C822 C821 1.349 . S
C822 C834 1.349 . S
C823 C821 1.327 . S
C823 C839 1.429 . S
C823 H845 0.950 . S
C824 H820 0.949 . S
C824 C832 1.574 . S
C824 C840 1.368 . S
H825 C833 0.950 . S
H826 C831 0.950 . S
H827 C832 0.949 . S
H828 C834 0.950 . S
H829 C835 0.950 . S
H830 C836 0.949 . S
C831 H826 0.950 . S
C831 C833 1.327 . S
C831 C837 1.429 . S
C832 C824 1.574 . S
C832 H827 0.949 . S
C832 C838 1.368 . S
C833 C817 1.349 . S
C833 H825 0.950 . S
C833 C831 1.327 . S
C834 C822 1.349 . S
C834 H828 0.950 . S
C834 C835 1.327 . S
C835 H829 0.950 . S
C835 C834 1.327 . S
C835 C839 1.429 . S
C836 C819 1.574 . S
C836 H830 0.949 . S
C836 C840 1.368 . S
C837 C818 1.429 . S
C837 C831 1.429 . S
C837 C838 1.523 . S
C838 C819 1.368 . S
C838 C832 1.368 . S
C838 C837 1.523 . S
C839 C823 1.429 . S
C839 C835 1.429 . S
C839 C840 1.523 . S
C840 C824 1.368 . S
C840 C836 1.368 . S
C840 C839 1.523 . S
H841 C816 0.950 . S
H842 C818 0.950 . S
H843 C819 0.949 . S
H844 C821 0.950 . S
H845 C823 0.950 . S
C846 C847 1.349 . S
C846 C848 1.327 . S
C846 H871 0.950 . S
C847 C846 1.349 . S
C847 C863 1.349 . S
C848 C846 1.327 . S
C848 C867 1.429 . S
C848 H872 0.950 . S
C849 C866 1.574 . S
C849 C868 1.368 . S
C849 H873 0.949 . S
H850 C854 0.949 . S
C851 C852 1.349 1_556 S
C851 C853 1.327 . S
C851 H874 0.950 1_556 S
C852 C851 1.349 1_554 S
C852 C864 1.349 1_554 S
C853 C851 1.327 . S
C853 C869 1.429 . S
C853 H875 0.950 . S
C854 H850 0.949 . S
C854 C862 1.574 . S
C854 C870 1.368 . S
H855 C863 0.950 . S
H856 C861 0.950 . S
H857 C862 0.949 . S
H858 C864 0.950 1_554 S
H859 C865 0.950 . S
H860 C866 0.949 . S
C861 H856 0.950 . S
C861 C863 1.327 . S
C861 C867 1.429 . S
C862 C854 1.574 . S
C862 H857 0.949 . S
C862 C868 1.368 . S
C863 C847 1.349 . S
C863 H855 0.950 . S
C863 C861 1.327 . S
C864 C852 1.349 1_556 S
C864 H858 0.950 1_556 S
C864 C865 1.327 . S
C865 H859 0.950 . S
C865 C864 1.327 . S
C865 C869 1.429 . S
C866 C849 1.574 . S
C866 H860 0.949 . S
C866 C870 1.368 . S
C867 C848 1.429 . S
C867 C861 1.429 . S
C867 C868 1.523 . S
C868 C849 1.368 . S
C868 C862 1.368 . S
C868 C867 1.523 . S
C869 C853 1.429 . S
C869 C865 1.429 . S
C869 C870 1.523 . S
C870 C854 1.368 . S
C870 C866 1.368 . S
C870 C869 1.523 . S
H871 C846 0.950 . S
H872 C848 0.950 . S
H873 C849 0.949 . S
H874 C851 0.950 1_554 S
H875 C853 0.950 . S
C876 C877 1.349 . S
C876 C878 1.327 . S
C876 H901 0.950 . S
C877 C876 1.349 . S
C877 C893 1.349 . S
C878 C876 1.327 . S
C878 C897 1.429 . S
C878 H902 0.950 . S
C879 C896 1.574 . S
C879 C898 1.368 . S
C879 H903 0.949 . S
H880 C884 0.949 . S
C881 C882 1.349 . S
C881 C883 1.327 . S
C881 H904 0.950 . S
C882 C881 1.349 . S
C882 C894 1.349 . S
C883 C881 1.327 . S
C883 C899 1.429 . S
C883 H905 0.950 . S
C884 H880 0.949 . S
C884 C892 1.574 . S
C884 C900 1.368 . S
H885 C893 0.950 . S
H886 C891 0.950 . S
H887 C892 0.949 . S
H888 C894 0.950 . S
H889 C895 0.950 . S
H890 C896 0.949 . S
C891 H886 0.950 . S
C891 C893 1.327 . S
C891 C897 1.429 . S
C892 C884 1.574 . S
C892 H887 0.949 . S
C892 C898 1.368 . S
C893 C877 1.349 . S
C893 H885 0.950 . S
C893 C891 1.327 . S
C894 C882 1.349 . S
C894 H888 0.950 . S
C894 C895 1.327 . S
C895 H889 0.950 . S
C895 C894 1.327 . S
C895 C899 1.429 . S
C896 C879 1.574 . S
C896 H890 0.949 . S
C896 C900 1.368 . S
C897 C878 1.429 . S
C897 C891 1.429 . S
C897 C898 1.523 . S
C898 C879 1.368 . S
C898 C892 1.368 . S
C898 C897 1.523 . S
C899 C883 1.429 . S
C899 C895 1.429 . S
C899 C900 1.523 . S
C900 C884 1.368 . S
C900 C896 1.368 . S
C900 C899 1.523 . S
H901 C876 0.950 . S
H902 C878 0.950 . S
H903 C879 0.949 . S
H904 C881 0.950 . S
H905 C883 0.950 . S
C906 C907 1.349 . S
C906 C908 1.327 . S
C906 H931 0.950 . S
C907 C906 1.349 . S
C907 C923 1.349 . S
C908 C906 1.327 . S
C908 C927 1.429 . S
C908 H932 0.950 . S
C909 C926 1.574 . S
C909 C928 1.368 . S
C909 H933 0.949 . S
H910 C914 0.949 . S
C911 C912 1.349 . S
C911 C913 1.327 . S
C911 H934 0.950 . S
C912 C911 1.349 . S
C912 C924 1.349 . S
C913 C911 1.327 . S
C913 C929 1.429 . S
C913 H935 0.950 . S
C914 H910 0.949 . S
C914 C922 1.574 . S
C914 C930 1.368 . S
H915 C923 0.950 . S
H916 C921 0.950 . S
H917 C922 0.949 . S
H918 C924 0.950 . S
H919 C925 0.950 . S
H920 C926 0.949 . S
C921 H916 0.950 . S
C921 C923 1.327 . S
C921 C927 1.429 . S
C922 C914 1.574 . S
C922 H917 0.949 . S
C922 C928 1.368 . S
C923 C907 1.349 . S
C923 H915 0.950 . S
C923 C921 1.327 . S
C924 C912 1.349 . S
C924 H918 0.950 . S
C924 C925 1.327 . S
C925 H919 0.950 . S
C925 C924 1.327 . S
C925 C929 1.429 . S
C926 C909 1.574 . S
C926 H920 0.949 . S
C926 C930 1.368 . S
C927 C908 1.429 . S
C927 C921 1.429 . S
C927 C928 1.523 . S
C928 C909 1.368 . S
C928 C922 1.368 . S
C928 C927 1.523 . S
C929 C913 1.429 . S
C929 C925 1.429 . S
C929 C930 1.523 . S
C930 C914 1.368 . S
C930 C926 1.368 . S
C930 C929 1.523 . S
H931 C906 0.950 . S
H932 C908 0.950 . S
H933 C909 0.949 . S
H934 C911 0.950 . S
H935 C913 0.950 . S
C936 C937 1.349 . S
C936 C938 1.327 . S
C936 H961 0.950 . S
C937 C936 1.349 . S
C937 C953 1.349 . S
C938 C936 1.327 . S
C938 C957 1.429 . S
C938 H962 0.950 . S
C939 C956 1.574 1_554 S
C939 C958 1.368 . S
C939 H963 0.949 . S
H940 C944 0.949 . S
C941 C942 1.349 . S
C941 C943 1.327 . S
C941 H964 0.950 . S
C942 C941 1.349 . S
C942 C954 1.349 . S
C943 C941 1.327 . S
C943 C959 1.429 . S
C943 H965 0.950 . S
C944 H940 0.949 . S
C944 C952 1.574 . S
C944 C960 1.368 1_554 S
H945 C953 0.950 . S
H946 C951 0.950 . S
H947 C952 0.949 . S
H948 C954 0.950 . S
H949 C955 0.950 . S
H950 C956 0.949 . S
C951 H946 0.950 . S
C951 C953 1.327 . S
C951 C957 1.429 . S
C952 C944 1.574 . S
C952 H947 0.949 . S
C952 C958 1.368 . S
C953 C937 1.349 . S
C953 H945 0.950 . S
C953 C951 1.327 . S
C954 C942 1.349 . S
C954 H948 0.950 . S
C954 C955 1.327 . S
C955 H949 0.950 . S
C955 C954 1.327 . S
C955 C959 1.429 . S
C956 C939 1.574 1_556 S
C956 H950 0.949 . S
C956 C960 1.368 . S
C957 C938 1.429 . S
C957 C951 1.429 . S
C957 C958 1.523 . S
C958 C939 1.368 . S
C958 C952 1.368 . S
C958 C957 1.523 . S
C959 C943 1.429 . S
C959 C955 1.429 . S
C959 C960 1.523 . S
C960 C944 1.368 1_556 S
C960 C956 1.368 . S
C960 C959 1.523 . S
H961 C936 0.950 . S
H962 C938 0.950 . S
H963 C939 0.949 . S
H964 C941 0.950 . S
H965 C943 0.950 . S
C966 C967 1.349 . S
C966 C968 1.327 . S
C966 H991 0.950 . S
C967 C966 1.349 . S
C967 C983 1.349 . S
C968 C966 1.327 . S
C968 C987 1.429 . S
C968 H992 0.950 . S
C969 C986 1.574 . S
C969 C988 1.368 . S
C969 H993 0.949 . S
H970 C974 0.949 . S
C971 C972 1.349 . S
C971 C973 1.327 1_556 S
C971 H994 0.950 . S
C972 C971 1.349 . S
C972 C984 1.349 . S
C973 C971 1.327 1_554 S
C973 C989 1.429 . S
C973 H995 0.950 . S
C974 H970 0.949 . S
C974 C982 1.574 . S
C974 C990 1.368 . S
H975 C983 0.950 . S
H976 C981 0.950 . S
H977 C982 0.949 . S
H978 C984 0.950 . S
H979 C985 0.950 . S
H980 C986 0.949 . S
C981 H976 0.950 . S
C981 C983 1.327 . S
C981 C987 1.429 . S
C982 C974 1.574 . S
C982 H977 0.949 . S
C982 C988 1.368 . S
C983 C967 1.349 . S
C983 H975 0.950 . S
C983 C981 1.327 . S
C984 C972 1.349 . S
C984 H978 0.950 . S
C984 C985 1.327 1_556 S
C985 H979 0.950 . S
C985 C984 1.327 1_554 S
C985 C989 1.429 . S
C986 C969 1.574 . S
C986 H980 0.949 . S
C986 C990 1.368 . S
C987 C968 1.429 . S
C987 C981 1.429 . S
C987 C988 1.523 . S
C988 C969 1.368 . S
C988 C982 1.368 . S
C988 C987 1.523 . S
C989 C973 1.429 . S
C989 C985 1.429 . S
C989 C990 1.523 . S
C990 C974 1.368 . S
C990 C986 1.368 . S
C990 C989 1.523 . S
H991 C966 0.950 . S
H992 C968 0.950 . S
H993 C969 0.949 . S
H994 C971 0.950 . S
H995 C973 0.950 . S
C996 C997 1.349 . S
C996 C998 1.327 . S
C996 H1021 0.950 . S
C997 C996 1.349 . S
C997 C1013 1.349 . S
C998 C996 1.327 . S
C998 C1017 1.429 . S
C998 H1022 0.950 . S
C999 C1016 1.574 . S
C999 C1018 1.368 . S
C999 H1023 0.949 . S
H1000 C1004 0.949 . S
C1001 C1002 1.349 . S
C1001 C1003 1.327 . S
C1001 H1024 0.950 . S
C1002 C1001 1.349 . S
C1002 C1014 1.349 . S
C1003 C1001 1.327 . S
C1003 C1019 1.429 . S
C1003 H1025 0.950 . S
C1004 H1000 0.949 . S
C1004 C1012 1.574 . S
C1004 C1020 1.368 . S
H1005 C1013 0.950 . S
H1006 C1011 0.950 . S
H1007 C1012 0.949 . S
H1008 C1014 0.950 . S
H1009 C1015 0.950 . S
H1010 C1016 0.949 . S
C1011 H1006 0.950 . S
C1011 C1013 1.327 . S
C1011 C1017 1.429 . S
C1012 C1004 1.574 . S
C1012 H1007 0.949 . S
C1012 C1018 1.368 . S
C1013 C997 1.349 . S
C1013 H1005 0.950 . S
C1013 C1011 1.327 . S
C1014 C1002 1.349 . S
C1014 H1008 0.950 . S
C1014 C1015 1.327 . S
C1015 H1009 0.950 . S
C1015 C1014 1.327 . S
C1015 C1019 1.429 . S
C1016 C999 1.574 . S
C1016 H1010 0.949 . S
C1016 C1020 1.368 . S
C1017 C998 1.429 . S
C1017 C1011 1.429 . S
C1017 C1018 1.523 . S
C1018 C999 1.368 . S
C1018 C1012 1.368 . S
C1018 C1017 1.523 . S
C1019 C1003 1.429 . S
C1019 C1015 1.429 . S
C1019 C1020 1.523 . S
C1020 C1004 1.368 . S
C1020 C1016 1.368 . S
C1020 C1019 1.523 . S
H1021 C996 0.950 . S
H1022 C998 0.950 . S
H1023 C999 0.949 . S
H1024 C1001 0.950 . S
H1025 C1003 0.950 . S
C1026 C1027 1.349 . S
C1026 C1028 1.327 . S
C1026 H1051 0.950 . S
C1027 C1026 1.349 . S
C1027 C1043 1.349 . S
C1028 C1026 1.327 . S
C1028 C1047 1.429 . S
C1028 H1052 0.950 . S
C1029 C1046 1.574 . S
C1029 C1048 1.368 . S
C1029 H1053 0.949 . S
H1030 C1034 0.949 . S
C1031 C1032 1.349 . S
C1031 C1033 1.327 . S
C1031 H1054 0.950 . S
C1032 C1031 1.349 . S
C1032 C1044 1.349 . S
C1033 C1031 1.327 . S
C1033 C1049 1.429 . S
C1033 H1055 0.950 . S
C1034 H1030 0.949 . S
C1034 C1042 1.574 . S
C1034 C1050 1.368 . S
H1035 C1043 0.950 . S
H1036 C1041 0.950 . S
H1037 C1042 0.949 . S
H1038 C1044 0.950 . S
H1039 C1045 0.950 . S
H1040 C1046 0.949 . S
C1041 H1036 0.950 . S
C1041 C1043 1.327 . S
C1041 C1047 1.429 . S
C1042 C1034 1.574 . S
C1042 H1037 0.949 . S
C1042 C1048 1.368 . S
C1043 C1027 1.349 . S
C1043 H1035 0.950 . S
C1043 C1041 1.327 . S
C1044 C1032 1.349 . S
C1044 H1038 0.950 . S
C1044 C1045 1.327 . S
C1045 H1039 0.950 . S
C1045 C1044 1.327 . S
C1045 C1049 1.429 . S
C1046 C1029 1.574 . S
C1046 H1040 0.949 . S
C1046 C1050 1.368 . S
C1047 C1028 1.429 . S
C1047 C1041 1.429 . S
C1047 C1048 1.523 . S
C1048 C1029 1.368 . S
C1048 C1042 1.368 . S
C1048 C1047 1.523 . S
C1049 C1033 1.429 . S
C1049 C1045 1.429 . S
C1049 C1050 1.523 . S
C1050 C1034 1.368 . S
C1050 C1046 1.368 . S
C1050 C1049 1.523 . S
H1051 C1026 0.950 . S
H1052 C1028 0.950 . S
H1053 C1029 0.949 . S
H1054 C1031 0.950 . S
H1055 C1033 0.950 . S
C1056 C1057 1.349 . S
C1056 C1058 1.327 . S
C1056 H1081 0.950 . S
C1057 C1056 1.349 . S
C1057 C1073 1.349 . S
C1058 C1056 1.327 . S
C1058 C1077 1.429 . S
C1058 H1082 0.950 . S
C1059 C1076 1.574 . S
C1059 C1078 1.368 . S
C1059 H1083 0.949 . S
H1060 C1064 0.949 . S
C1061 C1062 1.349 . S
C1061 C1063 1.327 . S
C1061 H1084 0.950 . S
C1062 C1061 1.349 . S
C1062 C1074 1.349 . S
C1063 C1061 1.327 . S
C1063 C1079 1.429 . S
C1063 H1085 0.950 . S
C1064 H1060 0.949 . S
C1064 C1072 1.574 . S
C1064 C1080 1.368 . S
H1065 C1073 0.950 . S
H1066 C1071 0.950 . S
H1067 C1072 0.949 . S
H1068 C1074 0.950 . S
H1069 C1075 0.950 . S
H1070 C1076 0.949 . S
C1071 H1066 0.950 . S
C1071 C1073 1.327 . S
C1071 C1077 1.429 . S
C1072 C1064 1.574 . S
C1072 H1067 0.949 . S
C1072 C1078 1.368 . S
C1073 C1057 1.349 . S
C1073 H1065 0.950 . S
C1073 C1071 1.327 . S
C1074 C1062 1.349 . S
C1074 H1068 0.950 . S
C1074 C1075 1.327 . S
C1075 H1069 0.950 . S
C1075 C1074 1.327 . S
C1075 C1079 1.429 . S
C1076 C1059 1.574 . S
C1076 H1070 0.949 . S
C1076 C1080 1.368 . S
C1077 C1058 1.429 . S
C1077 C1071 1.429 . S
C1077 C1078 1.523 . S
C1078 C1059 1.368 . S
C1078 C1072 1.368 . S
C1078 C1077 1.523 . S
C1079 C1063 1.429 . S
C1079 C1075 1.429 . S
C1079 C1080 1.523 . S
C1080 C1064 1.368 . S
C1080 C1076 1.368 . S
C1080 C1079 1.523 . S
H1081 C1056 0.950 . S
H1082 C1058 0.950 . S
H1083 C1059 0.949 . S
H1084 C1061 0.950 . S
H1085 C1063 0.950 . S
C1086 C1087 1.349 . S
C1086 C1088 1.327 1_545 S
C1086 H1111 0.950 . S
C1087 C1086 1.349 . S
C1087 C1103 1.349 1_545 S
C1088 C1086 1.327 1_565 S
C1088 C1107 1.429 . S
C1088 H1112 0.950 1_565 S
C1089 C1106 1.574 . S
C1089 C1108 1.368 . S
C1089 H1113 0.949 . S
H1090 C1094 0.949 . S
C1091 C1092 1.349 . S
C1091 C1093 1.327 . S
C1091 H1114 0.950 . S
C1092 C1091 1.349 . S
C1092 C1104 1.349 . S
C1093 C1091 1.327 . S
C1093 C1109 1.429 . S
C1093 H1115 0.950 . S
C1094 H1090 0.949 . S
C1094 C1102 1.574 . S
C1094 C1110 1.368 . S
H1095 C1103 0.950 . S
H1096 C1101 0.950 . S
H1097 C1102 0.949 . S
H1098 C1104 0.950 . S
H1099 C1105 0.950 . S
H1100 C1106 0.949 . S
C1101 H1096 0.950 . S
C1101 C1103 1.327 . S
C1101 C1107 1.429 . S
C1102 C1094 1.574 . S
C1102 H1097 0.949 . S
C1102 C1108 1.368 . S
C1103 C1087 1.349 1_565 S
C1103 H1095 0.950 . S
C1103 C1101 1.327 . S
C1104 C1092 1.349 . S
C1104 H1098 0.950 . S
C1104 C1105 1.327 . S
C1105 H1099 0.950 . S
C1105 C1104 1.327 . S
C1105 C1109 1.429 . S
C1106 C1089 1.574 . S
C1106 H1100 0.949 . S
C1106 C1110 1.368 . S
C1107 C1088 1.429 . S
C1107 C1101 1.429 . S
C1107 C1108 1.523 . S
C1108 C1089 1.368 . S
C1108 C1102 1.368 . S
C1108 C1107 1.523 . S
C1109 C1093 1.429 . S
C1109 C1105 1.429 . S
C1109 C1110 1.523 . S
C1110 C1094 1.368 . S
C1110 C1106 1.368 . S
C1110 C1109 1.523 . S
H1111 C1086 0.950 . S
H1112 C1088 0.950 1_545 S
H1113 C1089 0.949 . S
H1114 C1091 0.950 . S
H1115 C1093 0.950 . S
C1116 C1117 1.349 . S
C1116 C1118 1.327 . S
C1116 H1141 0.950 . S
C1117 C1116 1.349 . S
C1117 C1133 1.349 . S
C1118 C1116 1.327 . S
C1118 C1137 1.429 . S
C1118 H1142 0.950 . S
C1119 C1136 1.574 . S
C1119 C1138 1.368 . S
C1119 H1143 0.949 . S
H1120 C1124 0.949 . S
C1121 C1122 1.349 . S
C1121 C1123 1.327 . S
C1121 H1144 0.950 . S
C1122 C1121 1.349 . S
C1122 C1134 1.349 . S
C1123 C1121 1.327 . S
C1123 C1139 1.429 . S
C1123 H1145 0.950 . S
C1124 H1120 0.949 . S
C1124 C1132 1.574 . S
C1124 C1140 1.368 . S
H1125 C1133 0.950 . S
H1126 C1131 0.950 . S
H1127 C1132 0.949 . S
H1128 C1134 0.950 . S
H1129 C1135 0.950 . S
H1130 C1136 0.949 . S
C1131 H1126 0.950 . S
C1131 C1133 1.327 . S
C1131 C1137 1.429 . S
C1132 C1124 1.574 . S
C1132 H1127 0.949 . S
C1132 C1138 1.368 . S
C1133 C1117 1.349 . S
C1133 H1125 0.950 . S
C1133 C1131 1.327 . S
C1134 C1122 1.349 . S
C1134 H1128 0.950 . S
C1134 C1135 1.327 . S
C1135 H1129 0.950 . S
C1135 C1134 1.327 . S
C1135 C1139 1.429 . S
C1136 C1119 1.574 . S
C1136 H1130 0.949 . S
C1136 C1140 1.368 . S
C1137 C1118 1.429 . S
C1137 C1131 1.429 . S
C1137 C1138 1.523 . S
C1138 C1119 1.368 . S
C1138 C1132 1.368 . S
C1138 C1137 1.523 . S
C1139 C1123 1.429 . S
C1139 C1135 1.429 . S
C1139 C1140 1.523 . S
C1140 C1124 1.368 . S
C1140 C1136 1.368 . S
C1140 C1139 1.523 . S
H1141 C1116 0.950 . S
H1142 C1118 0.950 . S
H1143 C1119 0.949 . S
H1144 C1121 0.950 . S
H1145 C1123 0.950 . S
C1146 C1147 1.349 . S
C1146 C1148 1.327 . S
C1146 H1171 0.950 . S
C1147 C1146 1.349 . S
C1147 C1163 1.349 . S
C1148 C1146 1.327 . S
C1148 C1167 1.429 . S
C1148 H1172 0.950 . S
C1149 C1166 1.573 . S
C1149 C1168 1.368 . S
C1149 H1173 0.949 1_655 S
H1150 C1154 0.949 1_554 S
C1151 C1152 1.349 . S
C1151 C1153 1.327 . S
C1151 H1174 0.950 . S
C1152 C1151 1.349 . S
C1152 C1164 1.349 1_455 S
C1153 C1151 1.327 . S
C1153 C1169 1.429 1_455 S
C1153 H1175 0.950 . S
C1154 H1150 0.949 1_556 S
C1154 C1162 1.574 . S
C1154 C1170 1.368 1_556 S
H1155 C1163 0.950 . S
H1156 C1161 0.950 . S
H1157 C1162 0.949 . S
H1158 C1164 0.950 . S
H1159 C1165 0.950 . S
H1160 C1166 0.948 1_455 S
C1161 H1156 0.950 . S
C1161 C1163 1.327 . S
C1161 C1167 1.429 . S
C1162 C1154 1.574 . S
C1162 H1157 0.949 . S
C1162 C1168 1.368 . S
C1163 C1147 1.349 . S
C1163 H1155 0.950 . S
C1163 C1161 1.327 . S
C1164 C1152 1.349 1_655 S
C1164 H1158 0.950 . S
C1164 C1165 1.327 . S
C1165 H1159 0.950 . S
C1165 C1164 1.327 . S
C1165 C1169 1.429 . S
C1166 C1149 1.573 . S
C1166 H1160 0.948 1_655 S
C1166 C1170 1.370 1_556 S
C1167 C1148 1.429 . S
C1167 C1161 1.429 . S
C1167 C1168 1.523 . S
C1168 C1149 1.368 . S
C1168 C1162 1.368 . S
C1168 C1167 1.523 . S
C1169 C1153 1.429 1_655 S
C1169 C1165 1.429 . S
C1169 C1170 1.523 . S
C1170 C1154 1.368 1_554 S
C1170 C1166 1.370 1_554 S
C1170 C1169 1.523 . S
H1171 C1146 0.950 . S
H1172 C1148 0.950 . S
H1173 C1149 0.949 1_455 S
H1174 C1151 0.950 . S
H1175 C1153 0.950 . S
C1176 C1177 1.349 . S
C1176 C1178 1.327 . S
C1176 H1201 0.950 . S
C1177 C1176 1.349 . S
C1177 C1193 1.349 . S
C1178 C1176 1.327 . S
C1178 C1197 1.429 . S
C1178 H1202 0.950 . S
C1179 C1196 1.574 . S
C1179 C1198 1.368 1_554 S
C1179 H1203 0.949 . S
H1180 C1184 0.949 . S
C1181 C1182 1.349 . S
C1181 C1183 1.327 . S
C1181 H1204 0.950 . S
C1182 C1181 1.349 . S
C1182 C1194 1.349 . S
C1183 C1181 1.327 . S
C1183 C1199 1.429 . S
C1183 H1205 0.950 . S
C1184 H1180 0.949 . S
C1184 C1192 1.574 . S
C1184 C1200 1.368 1_556 S
H1185 C1193 0.950 . S
H1186 C1191 0.950 . S
H1187 C1192 0.949 . S
H1188 C1194 0.950 . S
H1189 C1195 0.950 . S
H1190 C1196 0.949 . S
C1191 H1186 0.950 . S
C1191 C1193 1.327 . S
C1191 C1197 1.429 . S
C1192 C1184 1.574 . S
C1192 H1187 0.949 . S
C1192 C1198 1.368 . S
C1193 C1177 1.349 . S
C1193 H1185 0.950 . S
C1193 C1191 1.327 . S
C1194 C1182 1.349 . S
C1194 H1188 0.950 . S
C1194 C1195 1.327 . S
C1195 H1189 0.950 . S
C1195 C1194 1.327 . S
C1195 C1199 1.429 . S
C1196 C1179 1.574 . S
C1196 H1190 0.949 . S
C1196 C1200 1.368 . S
C1197 C1178 1.429 . S
C1197 C1191 1.429 . S
C1197 C1198 1.523 . S
C1198 C1179 1.368 1_556 S
C1198 C1192 1.368 . S
C1198 C1197 1.523 . S
C1199 C1183 1.429 . S
C1199 C1195 1.429 . S
C1199 C1200 1.523 . S
C1200 C1184 1.368 1_554 S
C1200 C1196 1.368 . S
C1200 C1199 1.523 . S
H1201 C1176 0.950 . S
H1202 C1178 0.950 . S
H1203 C1179 0.949 . S
H1204 C1181 0.950 . S
H1205 C1183 0.950 . S
C1206 C1207 1.349 . S
C1206 C1208 1.327 . S
C1206 H1231 0.950 . S
C1207 C1206 1.349 . S
C1207 C1223 1.349 . S
C1208 C1206 1.327 . S
C1208 C1227 1.429 . S
C1208 H1232 0.950 . S
C1209 C1226 1.574 . S
C1209 C1228 1.368 . S
C1209 H1233 0.949 . S
H1210 C1214 0.949 . S
C1211 C1212 1.349 . S
C1211 C1213 1.327 . S
C1211 H1234 0.950 . S
C1212 C1211 1.349 . S
C1212 C1224 1.349 . S
C1213 C1211 1.327 . S
C1213 C1229 1.429 . S
C1213 H1235 0.950 . S
C1214 H1210 0.949 . S
C1214 C1222 1.574 . S
C1214 C1230 1.368 . S
H1215 C1223 0.950 . S
H1216 C1221 0.950 . S
H1217 C1222 0.949 . S
H1218 C1224 0.950 . S
H1219 C1225 0.950 . S
H1220 C1226 0.949 1_554 S
C1221 H1216 0.950 . S
C1221 C1223 1.327 . S
C1221 C1227 1.429 . S
C1222 C1214 1.574 . S
C1222 H1217 0.949 . S
C1222 C1228 1.368 . S
C1223 C1207 1.349 . S
C1223 H1215 0.950 . S
C1223 C1221 1.327 . S
C1224 C1212 1.349 . S
C1224 H1218 0.950 . S
C1224 C1225 1.327 . S
C1225 H1219 0.950 . S
C1225 C1224 1.327 . S
C1225 C1229 1.429 . S
C1226 C1209 1.574 . S
C1226 H1220 0.949 1_556 S
C1226 C1230 1.368 . S
C1227 C1208 1.429 . S
C1227 C1221 1.429 . S
C1227 C1228 1.523 . S
C1228 C1209 1.368 . S
C1228 C1222 1.368 . S
C1228 C1227 1.523 . S
C1229 C1213 1.429 . S
C1229 C1225 1.429 . S
C1229 C1230 1.523 1_554 S
C1230 C1214 1.368 . S
C1230 C1226 1.368 . S
C1230 C1229 1.523 1_556 S
H1231 C1206 0.950 . S
H1232 C1208 0.950 . S
H1233 C1209 0.949 . S
H1234 C1211 0.950 . S
H1235 C1213 0.950 . S
C1236 C1237 1.349 . S
C1236 C1238 1.327 . S
C1236 H1261 0.950 . S
C1237 C1236 1.349 . S
C1237 C1253 1.349 . S
C1238 C1236 1.327 . S
C1238 C1257 1.429 . S
C1238 H1262 0.950 . S
C1239 C1256 1.574 . S
C1239 C1258 1.368 . S
C1239 H1263 0.949 . S
H1240 C1244 0.949 . S
C1241 C1242 1.349 . S
C1241 C1243 1.327 . S
C1241 H1264 0.950 . S
C1242 C1241 1.349 . S
C1242 C1254 1.349 . S
C1243 C1241 1.327 . S
C1243 C1259 1.429 . S
C1243 H1265 0.950 . S
C1244 H1240 0.949 . S
C1244 C1252 1.574 . S
C1244 C1260 1.368 . S
H1245 C1253 0.950 1_554 S
H1246 C1251 0.950 . S
H1247 C1252 0.949 . S
H1248 C1254 0.950 . S
H1249 C1255 0.950 . S
H1250 C1256 0.949 . S
C1251 H1246 0.950 . S
C1251 C1253 1.327 . S
C1251 C1257 1.429 . S
C1252 C1244 1.574 . S
C1252 H1247 0.949 . S
C1252 C1258 1.368 . S
C1253 C1237 1.349 . S
C1253 H1245 0.950 1_556 S
C1253 C1251 1.327 . S
C1254 C1242 1.349 . S
C1254 H1248 0.950 . S
C1254 C1255 1.327 . S
C1255 H1249 0.950 . S
C1255 C1254 1.327 . S
C1255 C1259 1.429 . S
C1256 C1239 1.574 . S
C1256 H1250 0.949 . S
C1256 C1260 1.368 . S
C1257 C1238 1.429 . S
C1257 C1251 1.429 . S
C1257 C1258 1.523 . S
C1258 C1239 1.368 . S
C1258 C1252 1.368 . S
C1258 C1257 1.523 . S
C1259 C1243 1.429 . S
C1259 C1255 1.429 . S
C1259 C1260 1.523 . S
C1260 C1244 1.368 . S
C1260 C1256 1.368 . S
C1260 C1259 1.523 . S
H1261 C1236 0.950 . S
H1262 C1238 0.950 . S
H1263 C1239 0.949 . S
H1264 C1241 0.950 . S
H1265 C1243 0.950 . S
C1266 C1267 1.349 . S
C1266 C1268 1.327 . S
C1266 H1291 0.950 . S
C1267 C1266 1.349 . S
C1267 C1283 1.349 . S
C1268 C1266 1.327 . S
C1268 C1287 1.429 . S
C1268 H1292 0.950 . S
C1269 C1286 1.574 . S
C1269 C1288 1.368 . S
C1269 H1293 0.949 . S
H1270 C1274 0.949 . S
C1271 C1272 1.349 . S
C1271 C1273 1.327 . S
C1271 H1294 0.950 . S
C1272 C1271 1.349 . S
C1272 C1284 1.349 . S
C1273 C1271 1.327 . S
C1273 C1289 1.429 . S
C1273 H1295 0.950 . S
C1274 H1270 0.949 . S
C1274 C1282 1.574 . S
C1274 C1290 1.368 . S
H1275 C1283 0.950 . S
H1276 C1281 0.950 . S
H1277 C1282 0.949 . S
H1278 C1284 0.950 . S
H1279 C1285 0.950 . S
H1280 C1286 0.949 . S
C1281 H1276 0.950 . S
C1281 C1283 1.327 . S
C1281 C1287 1.429 . S
C1282 C1274 1.574 . S
C1282 H1277 0.949 . S
C1282 C1288 1.368 . S
C1283 C1267 1.349 . S
C1283 H1275 0.950 . S
C1283 C1281 1.327 . S
C1284 C1272 1.349 . S
C1284 H1278 0.950 . S
C1284 C1285 1.327 . S
C1285 H1279 0.950 . S
C1285 C1284 1.327 . S
C1285 C1289 1.429 . S
C1286 C1269 1.574 . S
C1286 H1280 0.949 . S
C1286 C1290 1.368 . S
C1287 C1268 1.429 . S
C1287 C1281 1.429 . S
C1287 C1288 1.523 . S
C1288 C1269 1.368 . S
C1288 C1282 1.368 . S
C1288 C1287 1.523 . S
C1289 C1273 1.429 . S
C1289 C1285 1.429 . S
C1289 C1290 1.523 . S
C1290 C1274 1.368 . S
C1290 C1286 1.368 . S
C1290 C1289 1.523 . S
H1291 C1266 0.950 . S
H1292 C1268 0.950 . S
H1293 C1269 0.949 . S
H1294 C1271 0.950 . S
H1295 C1273 0.950 . S
C1296 C1297 1.349 . S
C1296 C1298 1.327 . S
C1296 H1321 0.950 . S
C1297 C1296 1.349 . S
C1297 C1313 1.349 1_554 S
C1298 C1296 1.327 . S
C1298 C1317 1.429 . S
C1298 H1322 0.950 . S
C1299 C1316 1.574 . S
C1299 C1318 1.368 . S
C1299 H1323 0.949 1_554 S
H1300 C1304 0.949 1_565 S
C1301 C1302 1.349 . S
C1301 C1303 1.327 . S
C1301 H1324 0.950 . S
C1302 C1301 1.349 . S
C1302 C1314 1.349 . S
C1303 C1301 1.327 . S
C1303 C1319 1.429 . S
C1303 H1325 0.950 1_565 S
C1304 H1300 0.949 1_545 S
C1304 C1312 1.574 . S
C1304 C1320 1.368 . S
H1305 C1313 0.950 . S
H1306 C1311 0.950 . S
H1307 C1312 0.949 . S
H1308 C1314 0.950 . S
H1309 C1315 0.950 . S
H1310 C1316 0.949 . S
C1311 H1306 0.950 . S
C1311 C1313 1.327 . S
C1311 C1317 1.429 1_556 S
C1312 C1304 1.574 . S
C1312 H1307 0.949 . S
C1312 C1318 1.368 . S
C1313 C1297 1.349 1_556 S
C1313 H1305 0.950 . S
C1313 C1311 1.327 . S
C1314 C1302 1.349 . S
C1314 H1308 0.950 . S
C1314 C1315 1.327 . S
C1315 H1309 0.950 . S
C1315 C1314 1.327 . S
C1315 C1319 1.429 . S
C1316 C1299 1.574 . S
C1316 H1310 0.949 . S
C1316 C1320 1.368 . S
C1317 C1298 1.429 . S
C1317 C1311 1.429 1_554 S
C1317 C1318 1.523 . S
C1318 C1299 1.368 . S
C1318 C1312 1.368 . S
C1318 C1317 1.523 . S
C1319 C1303 1.429 . S
C1319 C1315 1.429 . S
C1319 C1320 1.523 1_565 S
C1320 C1304 1.368 . S
C1320 C1316 1.368 . S
C1320 C1319 1.523 1_545 S
H1321 C1296 0.950 . S
H1322 C1298 0.950 . S
H1323 C1299 0.949 1_556 S
H1324 C1301 0.950 . S
H1325 C1303 0.950 1_545 S
C1326 C1327 1.349 . S
C1326 C1328 1.327 . S
C1326 H1351 0.950 . S
C1327 C1326 1.349 . S
C1327 C1343 1.349 . S
C1328 C1326 1.327 . S
C1328 C1347 1.429 . S
C1328 H1352 0.950 . S
C1329 C1346 1.574 . S
C1329 C1348 1.368 . S
C1329 H1353 0.949 . S
H1330 C1334 0.949 . S
C1331 C1332 1.349 . S
C1331 C1333 1.327 . S
C1331 H1354 0.950 . S
C1332 C1331 1.349 . S
C1332 C1344 1.349 . S
C1333 C1331 1.327 . S
C1333 C1349 1.429 . S
C1333 H1355 0.950 . S
C1334 H1330 0.949 . S
C1334 C1342 1.574 . S
C1334 C1350 1.368 . S
H1335 C1343 0.950 . S
H1336 C1341 0.950 . S
H1337 C1342 0.949 . S
H1338 C1344 0.950 . S
H1339 C1345 0.950 . S
H1340 C1346 0.949 . S
C1341 H1336 0.950 . S
C1341 C1343 1.327 . S
C1341 C1347 1.429 . S
C1342 C1334 1.574 . S
C1342 H1337 0.949 . S
C1342 C1348 1.368 . S
C1343 C1327 1.349 . S
C1343 H1335 0.950 . S
C1343 C1341 1.327 . S
C1344 C1332 1.349 . S
C1344 H1338 0.950 . S
C1344 C1345 1.327 . S
C1345 H1339 0.950 . S
C1345 C1344 1.327 . S
C1345 C1349 1.429 . S
C1346 C1329 1.574 . S
C1346 H1340 0.949 . S
C1346 C1350 1.368 . S
C1347 C1328 1.429 . S
C1347 C1341 1.429 . S
C1347 C1348 1.523 . S
C1348 C1329 1.368 . S
C1348 C1342 1.368 . S
C1348 C1347 1.523 . S
C1349 C1333 1.429 . S
C1349 C1345 1.429 . S
C1349 C1350 1.523 . S
C1350 C1334 1.368 . S
C1350 C1346 1.368 . S
C1350 C1349 1.523 . S
H1351 C1326 0.950 . S
H1352 C1328 0.950 . S
H1353 C1329 0.949 . S
H1354 C1331 0.950 . S
H1355 C1333 0.950 . S
C1356 C1357 1.349 . S
C1356 C1358 1.327 . S
C1356 H1381 0.950 . S
C1357 C1356 1.349 . S
C1357 C1373 1.349 . S
C1358 C1356 1.327 . S
C1358 C1377 1.429 . S
C1358 H1382 0.950 . S
C1359 C1376 1.574 . S
C1359 C1378 1.368 . S
C1359 H1383 0.949 . S
H1360 C1364 0.949 . S
C1361 C1362 1.349 . S
C1361 C1363 1.327 . S
C1361 H1384 0.950 . S
C1362 C1361 1.349 . S
C1362 C1374 1.349 . S
C1363 C1361 1.327 . S
C1363 C1379 1.429 . S
C1363 H1385 0.950 . S
C1364 H1360 0.949 . S
C1364 C1372 1.574 . S
C1364 C1380 1.368 . S
H1365 C1373 0.950 . S
H1366 C1371 0.950 . S
H1367 C1372 0.949 . S
H1368 C1374 0.950 . S
H1369 C1375 0.950 . S
H1370 C1376 0.949 . S
C1371 H1366 0.950 . S
C1371 C1373 1.327 . S
C1371 C1377 1.429 . S
C1372 C1364 1.574 . S
C1372 H1367 0.949 . S
C1372 C1378 1.368 . S
C1373 C1357 1.349 . S
C1373 H1365 0.950 . S
C1373 C1371 1.327 . S
C1374 C1362 1.349 . S
C1374 H1368 0.950 . S
C1374 C1375 1.327 . S
C1375 H1369 0.950 . S
C1375 C1374 1.327 . S
C1375 C1379 1.429 . S
C1376 C1359 1.574 . S
C1376 H1370 0.949 . S
C1376 C1380 1.368 . S
C1377 C1358 1.429 . S
C1377 C1371 1.429 . S
C1377 C1378 1.523 . S
C1378 C1359 1.368 . S
C1378 C1372 1.368 . S
C1378 C1377 1.523 . S
C1379 C1363 1.429 . S
C1379 C1375 1.429 . S
C1379 C1380 1.523 . S
C1380 C1364 1.368 . S
C1380 C1376 1.368 . S
C1380 C1379 1.523 . S
H1381 C1356 0.950 . S
H1382 C1358 0.950 . S
H1383 C1359 0.949 . S
H1384 C1361 0.950 . S
H1385 C1363 0.950 . S
C1386 C1387 1.349 . S
C1386 C1388 1.327 . S
C1386 H1411 0.950 . S
C1387 C1386 1.349 . S
C1387 C1403 1.349 . S
C1388 C1386 1.327 . S
C1388 C1407 1.429 . S
C1388 H1412 0.950 . S
C1389 C1406 1.574 . S
C1389 C1408 1.368 . S
C1389 H1413 0.949 . S
H1390 C1394 0.949 . S
C1391 C1392 1.349 . S
C1391 C1393 1.327 . S
C1391 H1414 0.950 . S
C1392 C1391 1.349 . S
C1392 C1404 1.349 . S
C1393 C1391 1.327 . S
C1393 C1409 1.429 . S
C1393 H1415 0.950 . S
C1394 H1390 0.949 . S
C1394 C1402 1.574 . S
C1394 C1410 1.368 . S
H1395 C1403 0.950 . S
H1396 C1401 0.950 . S
H1397 C1402 0.949 . S
H1398 C1404 0.950 . S
H1399 C1405 0.950 . S
H1400 C1406 0.949 . S
C1401 H1396 0.950 . S
C1401 C1403 1.327 . S
C1401 C1407 1.429 . S
C1402 C1394 1.574 . S
C1402 H1397 0.949 . S
C1402 C1408 1.368 . S
C1403 C1387 1.349 . S
C1403 H1395 0.950 . S
C1403 C1401 1.327 . S
C1404 C1392 1.349 . S
C1404 H1398 0.950 . S
C1404 C1405 1.327 . S
C1405 H1399 0.950 . S
C1405 C1404 1.327 . S
C1405 C1409 1.429 . S
C1406 C1389 1.574 . S
C1406 H1400 0.949 . S
C1406 C1410 1.368 . S
C1407 C1388 1.429 . S
C1407 C1401 1.429 . S
C1407 C1408 1.523 . S
C1408 C1389 1.368 . S
C1408 C1402 1.368 . S
C1408 C1407 1.523 . S
C1409 C1393 1.429 . S
C1409 C1405 1.429 . S
C1409 C1410 1.523 . S
C1410 C1394 1.368 . S
C1410 C1406 1.368 . S
C1410 C1409 1.523 . S
H1411 C1386 0.950 . S
H1412 C1388 0.950 . S
H1413 C1389 0.949 . S
H1414 C1391 0.950 . S
H1415 C1393 0.950 . S
C1416 C1417 1.349 . S
C1416 C1418 1.327 . S
C1416 H1441 0.950 . S
C1417 C1416 1.349 . S
C1417 C1433 1.349 . S
C1418 C1416 1.327 . S
C1418 C1437 1.429 . S
C1418 H1442 0.950 . S
C1419 C1436 1.574 . S
C1419 C1438 1.368 . S
C1419 H1443 0.947 1_565 S
H1420 C1424 0.949 . S
C1421 C1422 1.349 . S
C1421 C1423 1.327 . S
C1421 H1444 0.950 . S
C1422 C1421 1.349 . S
C1422 C1434 1.349 . S
C1423 C1421 1.327 . S
C1423 C1439 1.429 . S
C1423 H1445 0.950 . S
C1424 H1420 0.949 . S
C1424 C1432 1.574 . S
C1424 C1440 1.368 . S
H1425 C1433 0.950 . S
H1426 C1431 0.950 . S
H1427 C1432 0.949 . S
H1428 C1434 0.950 . S
H1429 C1435 0.950 . S
H1430 C1436 0.949 . S
C1431 H1426 0.950 . S
C1431 C1433 1.327 . S
C1431 C1437 1.429 . S
C1432 C1424 1.574 . S
C1432 H1427 0.949 . S
C1432 C1438 1.368 . S
C1433 C1417 1.349 . S
C1433 H1425 0.950 . S
C1433 C1431 1.327 . S
C1434 C1422 1.349 . S
C1434 H1428 0.950 . S
C1434 C1435 1.327 . S
C1435 H1429 0.950 . S
C1435 C1434 1.327 . S
C1435 C1439 1.429 . S
C1436 C1419 1.574 . S
C1436 H1430 0.949 . S
C1436 C1440 1.368 . S
C1437 C1418 1.429 . S
C1437 C1431 1.429 . S
C1437 C1438 1.523 1_545 S
C1438 C1419 1.368 . S
C1438 C1432 1.368 . S
C1438 C1437 1.523 1_565 S
C1439 C1423 1.429 . S
C1439 C1435 1.429 . S
C1439 C1440 1.523 . S
C1440 C1424 1.368 . S
C1440 C1436 1.368 . S
C1440 C1439 1.523 . S
H1441 C1416 0.950 . S
H1442 C1418 0.950 . S
H1443 C1419 0.947 1_545 S
H1444 C1421 0.950 . S
H1445 C1423 0.950 . S
C1446 C1447 1.349 . S
C1446 C1448 1.327 . S
C1446 H1471 0.950 . S
C1447 C1446 1.349 . S
C1447 C1463 1.340 1_655 S
C1448 C1446 1.327 . S
C1448 C1467 1.429 1_655 S
C1448 H1472 0.950 . S
C1449 C1466 1.574 . S
C1449 C1468 1.368 . S
C1449 H1473 0.949 . S
H1450 C1454 0.949 . S
C1451 C1452 1.349 . S
C1451 C1453 1.327 . S
C1451 H1474 0.950 . S
C1452 C1451 1.349 . S
C1452 C1464 1.349 . S
C1453 C1451 1.327 . S
C1453 C1469 1.429 . S
C1453 H1475 0.950 . S
C1454 H1450 0.949 . S
C1454 C1462 1.574 . S
C1454 C1470 1.368 . S
H1455 C1463 0.950 . S
H1456 C1461 0.950 . S
H1457 C1462 0.949 . S
H1458 C1464 0.950 . S
H1459 C1465 0.950 . S
H1460 C1466 0.949 . S
C1461 H1456 0.950 . S
C1461 C1463 1.336 . S
C1461 C1467 1.429 . S
C1462 C1454 1.574 . S
C1462 H1457 0.949 . S
C1462 C1468 1.368 . S
C1463 C1447 1.340 1_455 S
C1463 H1455 0.950 . S
C1463 C1461 1.336 . S
C1464 C1452 1.349 . S
C1464 H1458 0.950 . S
C1464 C1465 1.327 . S
C1465 H1459 0.950 . S
C1465 C1464 1.327 . S
C1465 C1469 1.429 . S
C1466 C1449 1.574 . S
C1466 H1460 0.949 . S
C1466 C1470 1.368 . S
C1467 C1448 1.429 1_455 S
C1467 C1461 1.429 . S
C1467 C1468 1.523 . S
C1468 C1449 1.368 . S
C1468 C1462 1.368 . S
C1468 C1467 1.523 . S
C1469 C1453 1.429 . S
C1469 C1465 1.429 . S
C1469 C1470 1.523 . S
C1470 C1454 1.368 . S
C1470 C1466 1.368 . S
C1470 C1469 1.523 . S
H1471 C1446 0.950 . S
H1472 C1448 0.950 . S
H1473 C1449 0.949 . S
H1474 C1451 0.950 . S
H1475 C1453 0.950 . S
C1476 C1477 1.349 . S
C1476 C1478 1.327 . S
C1476 H1501 0.950 . S
C1477 C1476 1.349 . S
C1477 C1493 1.349 . S
C1478 C1476 1.327 . S
C1478 C1497 1.429 . S
C1478 H1502 0.950 . S
C1479 C1496 1.574 . S
C1479 C1498 1.368 . S
C1479 H1503 0.949 . S
H1480 C1484 0.949 . S
C1481 C1482 1.349 . S
C1481 C1483 1.327 . S
C1481 H1504 0.950 . S
C1482 C1481 1.349 . S
C1482 C1494 1.349 . S
C1483 C1481 1.327 . S
C1483 C1499 1.429 . S
C1483 H1505 0.950 . S
C1484 H1480 0.949 . S
C1484 C1492 1.574 . S
C1484 C1500 1.368 . S
H1485 C1493 0.950 . S
H1486 C1491 0.950 . S
H1487 C1492 0.949 . S
H1488 C1494 0.950 . S
H1489 C1495 0.950 . S
H1490 C1496 0.949 . S
C1491 H1486 0.950 . S
C1491 C1493 1.327 . S
C1491 C1497 1.429 . S
C1492 C1484 1.574 . S
C1492 H1487 0.949 . S
C1492 C1498 1.368 . S
C1493 C1477 1.349 . S
C1493 H1485 0.950 . S
C1493 C1491 1.327 . S
C1494 C1482 1.349 . S
C1494 H1488 0.950 . S
C1494 C1495 1.327 . S
C1495 H1489 0.950 . S
C1495 C1494 1.327 . S
C1495 C1499 1.429 . S
C1496 C1479 1.574 . S
C1496 H1490 0.949 . S
C1496 C1500 1.368 . S
C1497 C1478 1.429 . S
C1497 C1491 1.429 . S
C1497 C1498 1.523 . S
C1498 C1479 1.368 . S
C1498 C1492 1.368 . S
C1498 C1497 1.523 . S
C1499 C1483 1.429 . S
C1499 C1495 1.429 . S
C1499 C1500 1.523 . S
C1500 C1484 1.368 . S
C1500 C1496 1.368 . S
C1500 C1499 1.523 . S
H1501 C1476 0.950 . S
H1502 C1478 0.950 . S
H1503 C1479 0.949 . S
H1504 C1481 0.950 . S
H1505 C1483 0.950 . S
C1506 C1507 1.349 . S
C1506 C1508 1.327 . S
C1506 H1531 0.950 . S
C1507 C1506 1.349 . S
C1507 C1523 1.349 . S
C1508 C1506 1.327 . S
C1508 C1527 1.429 1_565 S
C1508 H1532 0.950 . S
C1509 C1526 1.574 . S
C1509 C1528 1.368 . S
C1509 H1533 0.949 . S
H1510 C1514 0.949 . S
C1511 C1512 1.349 . S
C1511 C1513 1.327 . S
C1511 H1534 0.950 . S
C1512 C1511 1.349 . S
C1512 C1524 1.349 . S
C1513 C1511 1.327 . S
C1513 C1529 1.429 . S
C1513 H1535 0.950 . S
C1514 H1510 0.949 . S
C1514 C1522 1.574 . S
C1514 C1530 1.368 . S
H1515 C1523 0.950 . S
H1516 C1521 0.941 1_545 S
H1517 C1522 0.949 . S
H1518 C1524 0.950 . S
H1519 C1525 0.950 . S
H1520 C1526 0.949 . S
C1521 H1516 0.941 1_565 S
C1521 C1523 1.334 . S
C1521 C1527 1.429 1_565 S
C1522 C1514 1.574 . S
C1522 H1517 0.949 . S
C1522 C1528 1.368 . S
C1523 C1507 1.349 . S
C1523 H1515 0.950 . S
C1523 C1521 1.334 . S
C1524 C1512 1.349 . S
C1524 H1518 0.950 . S
C1524 C1525 1.327 . S
C1525 H1519 0.950 . S
C1525 C1524 1.327 . S
C1525 C1529 1.429 . S
C1526 C1509 1.574 . S
C1526 H1520 0.949 . S
C1526 C1530 1.368 . S
C1527 C1508 1.429 1_545 S
C1527 C1521 1.429 1_545 S
C1527 C1528 1.523 . S
C1528 C1509 1.368 . S
C1528 C1522 1.368 . S
C1528 C1527 1.523 . S
C1529 C1513 1.429 . S
C1529 C1525 1.429 . S
C1529 C1530 1.523 . S
C1530 C1514 1.368 . S
C1530 C1526 1.368 . S
C1530 C1529 1.523 . S
H1531 C1506 0.950 . S
H1532 C1508 0.950 . S
H1533 C1509 0.949 . S
H1534 C1511 0.950 . S
H1535 C1513 0.950 . S
C1536 C1537 1.349 . S
C1536 C1538 1.327 . S
C1536 H1561 0.950 . S
C1537 C1536 1.349 . S
C1537 C1553 1.349 . S
C1538 C1536 1.327 . S
C1538 C1557 1.429 . S
C1538 H1562 0.950 . S
C1539 C1556 1.574 . S
C1539 C1558 1.368 . S
C1539 H1563 0.949 . S
H1540 C1544 0.949 . S
C1541 C1542 1.349 . S
C1541 C1543 1.327 . S
C1541 H1564 0.950 . S
C1542 C1541 1.349 . S
C1542 C1554 1.349 . S
C1543 C1541 1.327 . S
C1543 C1559 1.429 . S
C1543 H1565 0.950 . S
C1544 H1540 0.949 . S
C1544 C1552 1.574 . S
C1544 C1560 1.368 . S
H1545 C1553 0.950 . S
H1546 C1551 0.950 . S
H1547 C1552 0.949 . S
H1548 C1554 0.950 . S
H1549 C1555 0.950 . S
H1550 C1556 0.949 1_455 S
C1551 H1546 0.950 . S
C1551 C1553 1.327 . S
C1551 C1557 1.429 . S
C1552 C1544 1.574 . S
C1552 H1547 0.949 . S
C1552 C1558 1.368 . S
C1553 C1537 1.349 . S
C1553 H1545 0.950 . S
C1553 C1551 1.327 . S
C1554 C1542 1.349 . S
C1554 H1548 0.950 . S
C1554 C1555 1.327 . S
C1555 H1549 0.950 . S
C1555 C1554 1.327 . S
C1555 C1559 1.429 . S
C1556 C1539 1.574 . S
C1556 H1550 0.949 1_655 S
C1556 C1560 1.368 . S
C1557 C1538 1.429 . S
C1557 C1551 1.429 . S
C1557 C1558 1.523 . S
C1558 C1539 1.368 . S
C1558 C1552 1.368 . S
C1558 C1557 1.523 . S
C1559 C1543 1.429 . S
C1559 C1555 1.429 . S
C1559 C1560 1.523 1_455 S
C1560 C1544 1.368 . S
C1560 C1556 1.368 . S
C1560 C1559 1.523 1_655 S
H1561 C1536 0.950 . S
H1562 C1538 0.950 . S
H1563 C1539 0.949 . S
H1564 C1541 0.950 . S
H1565 C1543 0.950 . S
C757 C74 3.180 1_556 S
C762 C63 3.180 . S
C787 C158 3.231 1_556 S
C792 C147 3.235 . S
C817 C242 3.218 . S
C822 C231 3.218 . S
C847 C315 3.149 . S
C852 C326 3.149 . S
C877 C392 3.289 . S
C882 C403 3.289 1_556 S
C907 C483 3.152 . S
C912 C494 3.152 1_556 S
C937 C562 2.502 . S
C942 C574 2.502 . S
C967 C658 2.299 . S
C972 C646 2.299 1_556 S
C997 C730 2.012 . S
C1002 C742 2.012 . S
C1027 C476 2.070 . S
C1032 C58 1.774 . S
C1057 C142 1.589 . S
C1062 C308 1.899 . S
C1087 C226 1.310 . S
C1092 C406 1.396 . S
C1117 C224 1.880 . S
C1122 C571 2.071 . S
C1147 C651 1.642 . S
C1152 C56 1.458 . S
C1177 C739 1.728 . S
C1182 C140 1.592 . S
C1207 C746 0.882 . S
C1212 C70 0.866 . S
C1237 C154 1.253 1_556 S
C1242 C578 1.288 . S
C1267 C644 1.368 . S
C1272 C238 1.358 . S
C1297 C235 1.981 . S
C1302 C322 1.735 . S
C1327 C399 2.576 . S
C1332 C67 2.509 . S
C1357 C151 2.172 . S
C1362 C490 1.941 . S
C1387 C735 1.346 . S
C1392 C310 1.316 . S
C1417 C567 1.520 . S
C1422 C410 1.449 . S
C1447 C655 1.585 . S
C1452 C478 1.633 . S
C1477 C560 1.906 . S
C1482 C487 1.853 . S
C1507 C319 1.157 . S
C1512 C662 1.248 . S
C1537 C728 1.292 . S
C1542 C394 1.312 . S
