# Generated by pormake.
# Topology wir, (6)-cn, num edge types: 1
# Building blocks:
#     Node 0, Type 0, BuildingBlock: KUMBOL_clean_sbu_1, # of connection points: 6
#     Node 1, Type 0, BuildingBlock: KUMBOL_clean_sbu_1, # of connection points: 6
#     Node 2, Type 0, BuildingBlock: KUMBOL_clean_sbu_1, # of connection points: 6
#     Node 3, Type 0, BuildingBlock: KUMBOL_clean_sbu_1, # of connection points: 6
#     Node 4, Type 0, BuildingBlock: KUMBOL_clean_sbu_1, # of connection points: 6
#     Node 5, Type 0, BuildingBlock: KUMBOL_clean_sbu_1, # of connection points: 6
#     Node 6, Type 0, BuildingBlock: KUMBOL_clean_sbu_1, # of connection points: 6
#     Node 7, Type 0, BuildingBlock: KUMBOL_clean_sbu_1, # of connection points: 6
#     Node 8, Type 0, BuildingBlock: KUMBOL_clean_sbu_1, # of connection points: 6
#     Node 9, Type 0, BuildingBlock: KUMBOL_clean_sbu_1, # of connection points: 6
#     Node 10, Type 0, BuildingBlock: KUMBOL_clean_sbu_1, # of connection points: 6
#     Node 11, Type 0, BuildingBlock: KUMBOL_clean_sbu_1, # of connection points: 6
#     Node 12, Type 0, BuildingBlock: KUMBOL_clean_sbu_1, # of connection points: 6
#     Node 13, Type 0, BuildingBlock: KUMBOL_clean_sbu_1, # of connection points: 6
#     Node 14, Type 0, BuildingBlock: KUMBOL_clean_sbu_1, # of connection points: 6
#     Node 15, Type 0, BuildingBlock: KUMBOL_clean_sbu_1, # of connection points: 6
#     Node 16, Type 0, BuildingBlock: KUMBOL_clean_sbu_1, # of connection points: 6
#     Node 17, Type 0, BuildingBlock: KUMBOL_clean_sbu_1, # of connection points: 6
#     Node 18, Type 0, BuildingBlock: KUMBOL_clean_sbu_1, # of connection points: 6
#     Node 19, Type 0, BuildingBlock: KUMBOL_clean_sbu_1, # of connection points: 6
#     Node 20, Type 0, BuildingBlock: KUMBOL_clean_sbu_1, # of connection points: 6
#     Node 21, Type 0, BuildingBlock: KUMBOL_clean_sbu_1, # of connection points: 6
#     Node 22, Type 0, BuildingBlock: KUMBOL_clean_sbu_1, # of connection points: 6
#     Node 23, Type 0, BuildingBlock: KUMBOL_clean_sbu_1, # of connection points: 6
#     Node 24, Type 0, BuildingBlock: KUMBOL_clean_sbu_1, # of connection points: 6
#     Node 25, Type 0, BuildingBlock: KUMBOL_clean_sbu_1, # of connection points: 6
#     Node 26, Type 0, BuildingBlock: KUMBOL_clean_sbu_1, # of connection points: 6
#     Node 27, Type 0, BuildingBlock: KUMBOL_clean_sbu_1, # of connection points: 6
#     Node 28, Type 0, BuildingBlock: KUMBOL_clean_sbu_1, # of connection points: 6
#     Node 29, Type 0, BuildingBlock: KUMBOL_clean_sbu_1, # of connection points: 6
#     Node 30, Type 0, BuildingBlock: KUMBOL_clean_sbu_1, # of connection points: 6
#     Node 31, Type 0, BuildingBlock: KUMBOL_clean_sbu_1, # of connection points: 6
#     Edge 32, Type (0, 0), BuildingBlock: UVAHIK_clean_linker_0, # of connection points: 2
#     Edge 33, Type (0, 0), BuildingBlock: UVAHIK_clean_linker_0, # of connection points: 2
#     Edge 34, Type (0, 0), BuildingBlock: UVAHIK_clean_linker_0, # of connection points: 2
#     Edge 35, Type (0, 0), BuildingBlock: UVAHIK_clean_linker_0, # of connection points: 2
#     Edge 36, Type (0, 0), BuildingBlock: UVAHIK_clean_linker_0, # of connection points: 2
#     Edge 37, Type (0, 0), BuildingBlock: UVAHIK_clean_linker_0, # of connection points: 2
#     Edge 38, Type (0, 0), BuildingBlock: UVAHIK_clean_linker_0, # of connection points: 2
#     Edge 39, Type (0, 0), BuildingBlock: UVAHIK_clean_linker_0, # of connection points: 2
#     Edge 40, Type (0, 0), BuildingBlock: UVAHIK_clean_linker_0, # of connection points: 2
#     Edge 41, Type (0, 0), BuildingBlock: UVAHIK_clean_linker_0, # of connection points: 2
#     Edge 42, Type (0, 0), BuildingBlock: UVAHIK_clean_linker_0, # of connection points: 2
#     Edge 43, Type (0, 0), BuildingBlock: UVAHIK_clean_linker_0, # of connection points: 2
#     Edge 44, Type (0, 0), BuildingBlock: UVAHIK_clean_linker_0, # of connection points: 2
#     Edge 45, Type (0, 0), BuildingBlock: UVAHIK_clean_linker_0, # of connection points: 2
#     Edge 46, Type (0, 0), BuildingBlock: UVAHIK_clean_linker_0, # of connection points: 2
#     Edge 47, Type (0, 0), BuildingBlock: UVAHIK_clean_linker_0, # of connection points: 2
#     Edge 48, Type (0, 0), BuildingBlock: UVAHIK_clean_linker_0, # of connection points: 2
#     Edge 49, Type (0, 0), BuildingBlock: UVAHIK_clean_linker_0, # of connection points: 2
#     Edge 50, Type (0, 0), BuildingBlock: UVAHIK_clean_linker_0, # of connection points: 2
#     Edge 51, Type (0, 0), BuildingBlock: UVAHIK_clean_linker_0, # of connection points: 2
#     Edge 52, Type (0, 0), BuildingBlock: UVAHIK_clean_linker_0, # of connection points: 2
#     Edge 53, Type (0, 0), BuildingBlock: UVAHIK_clean_linker_0, # of connection points: 2
#     Edge 54, Type (0, 0), BuildingBlock: UVAHIK_clean_linker_0, # of connection points: 2
#     Edge 55, Type (0, 0), BuildingBlock: UVAHIK_clean_linker_0, # of connection points: 2
#     Edge 56, Type (0, 0), BuildingBlock: UVAHIK_clean_linker_0, # of connection points: 2
#     Edge 57, Type (0, 0), BuildingBlock: UVAHIK_clean_linker_0, # of connection points: 2
#     Edge 58, Type (0, 0), BuildingBlock: UVAHIK_clean_linker_0, # of connection points: 2
#     Edge 59, Type (0, 0), BuildingBlock: UVAHIK_clean_linker_0, # of connection points: 2
#     Edge 60, Type (0, 0), BuildingBlock: UVAHIK_clean_linker_0, # of connection points: 2
#     Edge 61, Type (0, 0), BuildingBlock: UVAHIK_clean_linker_0, # of connection points: 2
#     Edge 62, Type (0, 0), BuildingBlock: UVAHIK_clean_linker_0, # of connection points: 2
#     Edge 63, Type (0, 0), BuildingBlock: UVAHIK_clean_linker_0, # of connection points: 2
#     Edge 64, Type (0, 0), BuildingBlock: UVAHIK_clean_linker_0, # of connection points: 2
#     Edge 65, Type (0, 0), BuildingBlock: UVAHIK_clean_linker_0, # of connection points: 2
#     Edge 66, Type (0, 0), BuildingBlock: UVAHIK_clean_linker_0, # of connection points: 2
#     Edge 67, Type (0, 0), BuildingBlock: UVAHIK_clean_linker_0, # of connection points: 2
#     Edge 68, Type (0, 0), BuildingBlock: UVAHIK_clean_linker_0, # of connection points: 2
#     Edge 69, Type (0, 0), BuildingBlock: UVAHIK_clean_linker_0, # of connection points: 2
#     Edge 70, Type (0, 0), BuildingBlock: UVAHIK_clean_linker_0, # of connection points: 2
#     Edge 71, Type (0, 0), BuildingBlock: UVAHIK_clean_linker_0, # of connection points: 2
#     Edge 72, Type (0, 0), BuildingBlock: UVAHIK_clean_linker_0, # of connection points: 2
#     Edge 73, Type (0, 0), BuildingBlock: UVAHIK_clean_linker_0, # of connection points: 2
#     Edge 74, Type (0, 0), BuildingBlock: UVAHIK_clean_linker_0, # of connection points: 2
#     Edge 75, Type (0, 0), BuildingBlock: UVAHIK_clean_linker_0, # of connection points: 2
#     Edge 76, Type (0, 0), BuildingBlock: UVAHIK_clean_linker_0, # of connection points: 2
#     Edge 77, Type (0, 0), BuildingBlock: UVAHIK_clean_linker_0, # of connection points: 2
#     Edge 78, Type (0, 0), BuildingBlock: UVAHIK_clean_linker_0, # of connection points: 2
#     Edge 79, Type (0, 0), BuildingBlock: UVAHIK_clean_linker_0, # of connection points: 2
#     Edge 80, Type (0, 0), BuildingBlock: UVAHIK_clean_linker_0, # of connection points: 2
#     Edge 81, Type (0, 0), BuildingBlock: UVAHIK_clean_linker_0, # of connection points: 2
#     Edge 82, Type (0, 0), BuildingBlock: UVAHIK_clean_linker_0, # of connection points: 2
#     Edge 83, Type (0, 0), BuildingBlock: UVAHIK_clean_linker_0, # of connection points: 2
#     Edge 84, Type (0, 0), BuildingBlock: UVAHIK_clean_linker_0, # of connection points: 2
#     Edge 85, Type (0, 0), BuildingBlock: UVAHIK_clean_linker_0, # of connection points: 2
#     Edge 86, Type (0, 0), BuildingBlock: UVAHIK_clean_linker_0, # of connection points: 2
#     Edge 87, Type (0, 0), BuildingBlock: UVAHIK_clean_linker_0, # of connection points: 2
#     Edge 88, Type (0, 0), BuildingBlock: UVAHIK_clean_linker_0, # of connection points: 2
#     Edge 89, Type (0, 0), BuildingBlock: UVAHIK_clean_linker_0, # of connection points: 2
#     Edge 90, Type (0, 0), BuildingBlock: UVAHIK_clean_linker_0, # of connection points: 2
#     Edge 91, Type (0, 0), BuildingBlock: UVAHIK_clean_linker_0, # of connection points: 2
#     Edge 92, Type (0, 0), BuildingBlock: UVAHIK_clean_linker_0, # of connection points: 2
#     Edge 93, Type (0, 0), BuildingBlock: UVAHIK_clean_linker_0, # of connection points: 2
#     Edge 94, Type (0, 0), BuildingBlock: UVAHIK_clean_linker_0, # of connection points: 2
#     Edge 95, Type (0, 0), BuildingBlock: UVAHIK_clean_linker_0, # of connection points: 2
#     Edge 96, Type (0, 0), BuildingBlock: UVAHIK_clean_linker_0, # of connection points: 2
#     Edge 97, Type (0, 0), BuildingBlock: UVAHIK_clean_linker_0, # of connection points: 2
#     Edge 98, Type (0, 0), BuildingBlock: UVAHIK_clean_linker_0, # of connection points: 2
#     Edge 99, Type (0, 0), BuildingBlock: UVAHIK_clean_linker_0, # of connection points: 2
#     Edge 100, Type (0, 0), BuildingBlock: UVAHIK_clean_linker_0, # of connection points: 2
#     Edge 101, Type (0, 0), BuildingBlock: UVAHIK_clean_linker_0, # of connection points: 2
#     Edge 102, Type (0, 0), BuildingBlock: UVAHIK_clean_linker_0, # of connection points: 2
#     Edge 103, Type (0, 0), BuildingBlock: UVAHIK_clean_linker_0, # of connection points: 2
#     Edge 104, Type (0, 0), BuildingBlock: UVAHIK_clean_linker_0, # of connection points: 2
#     Edge 105, Type (0, 0), BuildingBlock: UVAHIK_clean_linker_0, # of connection points: 2
#     Edge 106, Type (0, 0), BuildingBlock: UVAHIK_clean_linker_0, # of connection points: 2
#     Edge 107, Type (0, 0), BuildingBlock: UVAHIK_clean_linker_0, # of connection points: 2
#     Edge 108, Type (0, 0), BuildingBlock: UVAHIK_clean_linker_0, # of connection points: 2
#     Edge 109, Type (0, 0), BuildingBlock: UVAHIK_clean_linker_0, # of connection points: 2
#     Edge 110, Type (0, 0), BuildingBlock: UVAHIK_clean_linker_0, # of connection points: 2
#     Edge 111, Type (0, 0), BuildingBlock: UVAHIK_clean_linker_0, # of connection points: 2
#     Edge 112, Type (0, 0), BuildingBlock: UVAHIK_clean_linker_0, # of connection points: 2
#     Edge 113, Type (0, 0), BuildingBlock: UVAHIK_clean_linker_0, # of connection points: 2
#     Edge 114, Type (0, 0), BuildingBlock: UVAHIK_clean_linker_0, # of connection points: 2
#     Edge 115, Type (0, 0), BuildingBlock: UVAHIK_clean_linker_0, # of connection points: 2
#     Edge 116, Type (0, 0), BuildingBlock: UVAHIK_clean_linker_0, # of connection points: 2
#     Edge 117, Type (0, 0), BuildingBlock: UVAHIK_clean_linker_0, # of connection points: 2
#     Edge 118, Type (0, 0), BuildingBlock: UVAHIK_clean_linker_0, # of connection points: 2
#     Edge 119, Type (0, 0), BuildingBlock: UVAHIK_clean_linker_0, # of connection points: 2
#     Edge 120, Type (0, 0), BuildingBlock: UVAHIK_clean_linker_0, # of connection points: 2
#     Edge 121, Type (0, 0), BuildingBlock: UVAHIK_clean_linker_0, # of connection points: 2
#     Edge 122, Type (0, 0), BuildingBlock: UVAHIK_clean_linker_0, # of connection points: 2
#     Edge 123, Type (0, 0), BuildingBlock: UVAHIK_clean_linker_0, # of connection points: 2
#     Edge 124, Type (0, 0), BuildingBlock: UVAHIK_clean_linker_0, # of connection points: 2
#     Edge 125, Type (0, 0), BuildingBlock: UVAHIK_clean_linker_0, # of connection points: 2
#     Edge 126, Type (0, 0), BuildingBlock: UVAHIK_clean_linker_0, # of connection points: 2
#     Edge 127, Type (0, 0), BuildingBlock: UVAHIK_clean_linker_0, # of connection points: 2
# Relax obj value: 0.287
# Max RMSD: 0.187
# Mean RMSD: 0.187
data_MOF--net-wir--node1-KUMBOL_clean_sbu_1--edge1-UVAHIK_clean_linker_0
_symmetry_space_group_name_H-M    P1
_symmetry_Int_Tables_number       1
_symmetry_cell_setting            triclinic
loop_
_symmetry_equiv_pos_as_xyz
'x, y, z'
_cell_length_a     52.473724
_cell_length_b     52.66325
_cell_length_c     121.80524
_cell_angle_alpha  89.987022
_cell_angle_beta   89.97637
_cell_angle_gamma 89.924232
loop_
_atom_site_label
_atom_site_type_symbol
_atom_site_fract_x
_atom_site_fract_y
_atom_site_fract_z
_atom_type_partial_charge
C0 C 0.28241 0.27216 0.36458 0.0
C1 C 0.26396 0.31022 0.35664 0.0
C2 C 0.2611 0.28672 0.36208 0.0
C3 C 0.28843 0.31893 0.3539 0.0
C4 C 0.30696 0.28055 0.36158 0.0
C5 C 0.30986 0.30412 0.35634 0.0
N6 N 0.27894 0.24904 0.36934 0.0
C7 C 0.29925 0.23349 0.37138 0.0
C8 C 0.32784 0.26476 0.36372 0.0
C9 C 0.32394 0.2411 0.36859 0.0
Gd10 Gd 0.21105 0.17756 0.36006 0.0
Gd11 Gd 0.23707 0.2393 0.37476 0.0
N12 N 0.23758 0.27751 0.36462 0.0
C13 C 0.24214 0.32422 0.35403 0.0
C14 C 0.21625 0.29128 0.36213 0.0
C15 C 0.2182 0.31468 0.35678 0.0
H16 H 0.19758 0.28496 0.36447 0.0
H17 H 0.20121 0.32551 0.35489 0.0
H18 H 0.21454 0.12866 0.37772 0.0
H19 H 0.29668 0.21518 0.37514 0.0
H20 H 0.1929 0.08808 0.38121 0.0
H21 H 0.24355 0.34239 0.3499 0.0
H22 H 0.29096 0.33696 0.34975 0.0
H23 H 0.18602 0.19992 0.33658 0.0
H24 H 0.34699 0.27053 0.36152 0.0
H25 H 0.33996 0.2287 0.37022 0.0
H26 H 0.12982 0.08277 0.35278 0.0
H27 H 0.32859 0.31092 0.35402 0.0
H28 H 0.12739 0.14943 0.326 0.0
H29 H 0.15258 0.18863 0.32338 0.0
N30 N 0.1801 0.16757 0.34675 0.0
C31 C 0.16658 0.14594 0.34827 0.0
C32 C 0.17535 0.18276 0.3379 0.0
C33 C 0.1421 0.15433 0.33187 0.0
C34 C 0.15629 0.17644 0.33036 0.0
C35 C 0.14723 0.13867 0.34087 0.0
H36 H 0.1189 0.11007 0.33706 0.0
N37 N 0.19166 0.13819 0.36388 0.0
C38 C 0.1726 0.13071 0.35711 0.0
C39 C 0.16694 0.09223 0.36764 0.0
C40 C 0.15962 0.10759 0.35881 0.0
C41 C 0.19925 0.12297 0.37237 0.0
C42 C 0.18694 0.0999 0.37441 0.0
O43 O 0.25115 0.23453 0.35701 0.0
O44 O 0.21664 0.21463 0.34939 0.0
O45 O 0.25124 0.17942 0.35592 0.0
O46 O 0.22647 0.15038 0.34862 0.0
O47 O 0.19261 0.24383 0.37084 0.0
O48 O 0.17882 0.20959 0.35996 0.0
O49 O 0.19056 0.17543 0.37647 0.0
O50 O 0.21602 0.20549 0.37461 0.0
O51 O 0.21926 0.26401 0.3867 0.0
O52 O 0.25613 0.24738 0.39021 0.0
O53 O 0.24045 0.16569 0.37461 0.0
O54 O 0.25695 0.20267 0.3827 0.0
C55 C 0.23736 0.22924 0.34824 0.0
C56 C 0.17408 0.23198 0.36501 0.0
C57 C 0.26128 0.16416 0.33808 0.0
C58 C 0.29293 0.15028 0.32469 0.0
C59 C 0.26151 0.18232 0.31979 0.0
C60 C 0.25032 0.17996 0.33013 0.0
C61 C 0.2827 0.16756 0.31705 0.0
C62 C 0.28264 0.14946 0.33536 0.0
C63 C 0.24918 0.16068 0.34883 0.0
C64 C 0.14007 0.1004 0.35159 0.0
C65 C 0.13387 0.11593 0.34264 0.0
H66 H 0.15746 0.07432 0.36923 0.0
C67 C 0.19949 0.19525 0.38111 0.0
C68 C 0.25635 0.17698 0.38193 0.0
C69 C 0.24903 0.2892 0.3963 0.0
C70 C 0.2499 0.33528 0.39359 0.0
C71 C 0.27067 0.31583 0.40949 0.0
C72 C 0.2629 0.29182 0.40603 0.0
C73 C 0.26386 0.33741 0.40348 0.0
C74 C 0.24378 0.31072 0.38989 0.0
C75 C 0.2392 0.26415 0.39308 0.0
H76 H 0.25306 0.19474 0.31372 0.0
H77 H 0.23277 0.1899 0.33183 0.0
H78 H 0.28996 0.16848 0.30874 0.0
H79 H 0.29038 0.13639 0.34138 0.0
H80 H 0.28116 0.31783 0.41709 0.0
H81 H 0.26739 0.27537 0.41101 0.0
H82 H 0.26867 0.35565 0.40696 0.0
H83 H 0.234 0.30818 0.38222 0.0
C84 C 0.06433 1.02789 0.60839 0.0
C85 C 1.02729 1.0059 0.60116 0.0
C86 C 0.0504 1.00553 0.6071 0.0
C87 C 1.01876 1.02862 0.59636 0.0
C88 C 0.05552 0.0508 0.60372 0.0
C89 C 1.0328 0.05099 0.59766 0.0
N90 N 0.08697 1.02705 0.6139 0.0
C91 C 0.10068 0.04872 0.61566 0.0
C92 C 0.06994 0.07287 0.60521 0.0
C93 C 0.09249 0.07185 0.61126 0.0
Gd94 Gd 0.15837 0.95885 0.60634 0.0
Gd95 Gd 0.09809 0.98727 0.62125 0.0
N96 N 0.0591 0.98363 0.61179 0.0
C97 C 1.01312 0.98351 0.60036 0.0
C98 C 0.04447 0.96218 0.61157 0.0
C99 C 1.02158 0.96168 0.60571 0.0
H100 H 0.04967 0.9455 0.61614 0.0
H101 H 1.01025 0.94453 0.60548 0.0
H102 H 0.21243 0.96738 0.62032 0.0
H103 H 0.11808 0.04833 0.62034 0.0
H104 H 0.25228 0.9441 0.62425 0.0
H105 H 0.99528 0.98306 0.59588 0.0
H106 H 1.00115 1.02915 0.59173 0.0
H107 H 0.13082 0.9284 0.5852 0.0
H108 H 0.06378 0.09082 0.60175 0.0
H109 H 0.1036 0.08889 0.61254 0.0
H110 H 0.24555 0.86826 0.60254 0.0
H111 H 1.02587 0.06838 0.59395 0.0
H112 H 0.1738 0.86119 0.57836 0.0
H113 H 0.13696 0.88918 0.5745 0.0
N114 N 0.16365 0.92269 0.59516 0.0
C115 C 0.18432 0.90793 0.59717 0.0
C116 C 0.14707 0.91651 0.58693 0.0
C117 C 0.17118 0.87841 0.5831 0.0
C118 C 0.15042 0.8942 0.58087 0.0
C119 C 0.18866 0.88536 0.59122 0.0
H120 H 0.21416 0.85335 0.58897 0.0
N121 N 0.1975 0.93868 0.60989 0.0
C122 C 0.20186 0.91623 0.60479 0.0
C123 C 0.24251 0.91232 0.61394 0.0
C124 C 0.22441 0.90232 0.60671 0.0
C125 C 0.21558 0.94909 0.61657 0.0
C126 C 0.23819 0.93596 0.61881 0.0
O127 O 0.10752 1.0028 0.6041 0.0
O128 O 0.12015 0.96567 0.5966 0.0
O129 O 0.16019 0.99709 0.59967 0.0
O130 O 0.18554 0.96755 0.5935 0.0
O131 O 0.09314 0.94165 0.6185 0.0
O132 O 0.12668 0.92619 0.60752 0.0
O133 O 0.16512 0.94704 0.62401 0.0
O134 O 0.12835 0.96059 0.62118 0.0
O135 O 0.06502 0.99182 0.63149 0.0
O136 O 0.10221 0.99613 0.63871 0.0
O137 O 0.1704 0.98983 0.6202 0.0
O138 O 0.13428 1.00953 0.62771 0.0
C139 C 0.10835 0.98795 0.59541 0.0
C140 C 0.10444 0.92213 0.61286 0.0
C141 C 0.17153 0.99836 0.58089 0.0
C142 C 0.18107 1.02482 0.56495 0.0
C143 C 0.14784 0.99278 0.56396 0.0
C144 C 0.15323 0.98533 0.57469 0.0
C145 C 0.16152 1.0125 0.55912 0.0
C146 C 0.1855 1.01802 0.57598 0.0
C147 C 0.17709 0.99071 0.59225 0.0
C148 C 0.22844 0.87933 0.60112 0.0
C149 C 0.21058 0.87084 0.5934 0.0
H150 H 0.26009 0.90224 0.61564 0.0
C151 C 0.14354 0.95141 0.62854 0.0
C152 C 0.15984 1.00733 0.62706 0.0
C153 C 0.06933 0.97928 0.64982 0.0
C154 C 0.04133 0.9463 0.65678 0.0
C155 C 0.06603 0.97218 0.66943 0.0
C156 C 0.07604 0.98586 0.66058 0.0
C157 C 0.04847 0.95268 0.66757 0.0
C158 C 0.05284 0.95886 0.648 0.0
C159 C 0.07786 0.99467 0.6405 0.0
H160 H 0.13342 0.98285 0.55929 0.0
H161 H 0.14321 0.96932 0.57812 0.0
H162 H 0.15733 1.01758 0.55069 0.0
H163 H 0.20063 1.02705 0.5806 0.0
H164 H 0.07125 0.97724 0.67774 0.0
H165 H 0.08887 1.00156 0.66213 0.0
H166 H 1.03975 0.94338 0.67455 0.0
H167 H 0.04793 0.95338 0.63968 0.0
C168 C 0.29076 0.79077 0.86577 0.0
C169 C 0.30913 0.75369 0.85695 0.0
C170 C 0.31212 0.77701 0.86252 0.0
C171 C 0.28459 0.74425 0.85489 0.0
C172 C 0.26608 0.78162 0.86344 0.0
C173 C 0.26313 0.75819 0.85811 0.0
N174 N 0.29416 0.81379 0.87063 0.0
C175 C 0.27368 0.82848 0.87341 0.0
C176 C 0.24506 0.79654 0.86635 0.0
C177 C 0.2489 0.82009 0.87131 0.0
Gd178 Gd 0.36121 0.88636 0.85938 0.0
Gd179 Gd 0.33644 0.82476 0.8748 0.0
N180 N 0.3357 0.78696 0.86436 0.0
C181 C 0.3309 0.74063 0.85348 0.0
C182 C 0.35698 0.77421 0.86092 0.0
C183 C 0.35489 0.75096 0.85546 0.0
H184 H 0.3758 0.78122 0.86251 0.0
H185 H 0.37185 0.74094 0.85285 0.0
H186 H 0.35604 0.93715 0.87577 0.0
H187 H 0.27614 0.84665 0.87729 0.0
H188 H 0.37814 0.97769 0.87905 0.0
H189 H 0.32939 0.72264 0.84922 0.0
H190 H 0.28199 0.72634 0.85066 0.0
H191 H 0.38829 0.86127 0.83677 0.0
H192 H 0.22581 0.79017 0.86469 0.0
H193 H 0.23274 0.83181 0.87354 0.0
H194 H 0.4451 0.97871 0.85218 0.0
H195 H 0.24432 0.75083 0.85631 0.0
H196 H 0.44923 0.90956 0.82665 0.0
H197 H 0.42345 0.87072 0.82412 0.0
N198 N 0.39374 0.8944 0.84651 0.0
C199 C 0.40758 0.91587 0.84798 0.0
C200 C 0.39913 0.87836 0.83801 0.0
C201 C 0.43374 0.90551 0.83227 0.0
C202 C 0.4192 0.88361 0.8308 0.0
C203 C 0.42793 0.92207 0.84089 0.0
H204 H 0.45733 0.9497 0.83723 0.0
N205 N 0.38077 0.92572 0.86284 0.0
C206 C 0.40084 0.93208 0.8564 0.0
C207 C 0.40589 0.97153 0.86629 0.0
C208 C 0.41405 0.95511 0.85797 0.0
C209 C 0.37227 0.94199 0.87077 0.0
C210 C 0.38479 0.965 0.87267 0.0
O211 O 0.32125 0.8286 0.85712 0.0
O212 O 0.35463 0.8492 0.84889 0.0
O213 O 0.34792 0.91469 0.84796 0.0
O214 O 0.32167 0.8856 0.85407 0.0
O215 O 0.38054 0.82041 0.87061 0.0
O216 O 0.39403 0.85475 0.85974 0.0
O217 O 0.38112 0.89011 0.87579 0.0
O218 O 0.3567 0.85906 0.87432 0.0
O219 O 0.35798 0.80356 0.8868 0.0
O220 O 0.31849 0.81267 0.89008 0.0
O221 O 0.33136 0.89814 0.87381 0.0
O222 O 0.31663 0.8614 0.88274 0.0
C223 C 0.33395 0.83441 0.84809 0.0
C224 C 0.39896 0.83242 0.86482 0.0
C225 C 0.31554 0.90173 0.83603 0.0
C226 C 0.28896 0.91779 0.82109 0.0
C227 C 0.32006 0.88428 0.81773 0.0
C228 C 0.32788 0.8855 0.82865 0.0
C229 C 0.30087 0.90038 0.81393 0.0
C230 C 0.2959 0.9176 0.83228 0.0
C231 C 0.32517 0.90467 0.84727 0.0
C232 C 0.43464 0.96117 0.85108 0.0
C233 C 0.44158 0.94467 0.84256 0.0
H234 H 0.41552 0.9894 0.86775 0.0
C235 C 0.3731 0.87015 0.88063 0.0
C236 C 0.31634 0.887 0.88152 0.0
C237 C 0.33322 0.77214 0.89545 0.0
C238 C 0.3436 0.72727 0.89256 0.0
C239 C 0.31418 0.74019 0.9071 0.0
C240 C 0.31733 0.76562 0.90423 0.0
C241 C 0.32749 0.72119 0.90149 0.0
C242 C 0.34527 0.75287 0.88938 0.0
C243 C 0.3381 0.79901 0.89289 0.0
H244 H 0.32971 0.87166 0.81208 0.0
H245 H 0.34407 0.87441 0.83124 0.0
H246 H 0.29654 0.90014 0.80525 0.0
H247 H 0.28694 0.9306 0.838 0.0
H248 H 0.30209 0.73522 0.91398 0.0
H249 H 0.30769 0.7802 0.90894 0.0
H250 H 0.32585 0.70199 0.90454 0.0
H251 H 0.35672 0.75809 0.88239 0.0
C252 C 0.52707 0.05462 0.11315 0.0
C253 C 0.55878 0.07117 0.10049 0.0
C254 C 0.53874 0.0752 0.10802 0.0
C255 C 0.56723 0.04637 0.09834 0.0
C256 C 0.53561 1.02969 0.111 0.0
C257 C 0.55574 1.0257 0.1036 0.0
N258 N 0.50699 0.05892 0.12 0.0
C259 C 0.49581 1.03926 0.1255 0.0
C260 C 0.52362 1.00943 0.11633 0.0
C261 C 0.50378 1.01427 0.12367 0.0
Gd262 Gd 0.43395 0.12926 0.10821 0.0
Gd263 Gd 0.49601 0.10172 0.12273 0.0
N264 N 0.52973 0.09902 0.11003 0.0
C265 C 0.56948 0.09218 0.09519 0.0
C266 C 0.54026 0.11958 0.10493 0.0
C267 C 0.56019 0.11646 0.09743 0.0
H268 H 0.5334 0.13849 0.10648 0.0
H269 H 0.56834 0.13281 0.09335 0.0
H270 H 0.38227 0.12144 0.12396 0.0
H271 H 0.48104 0.04253 0.13147 0.0
H272 H 0.34252 0.1444 0.12836 0.0
H273 H 0.58483 0.08984 0.08932 0.0
H274 H 0.58259 0.04294 0.09257 0.0
H275 H 0.45944 0.15914 0.08654 0.0
H276 H 0.52967 0.99003 0.11492 0.0
H277 H 0.49471 0.99875 0.12799 0.0
H278 H 0.345 0.21805 0.10511 0.0
H279 H 0.56248 1.00668 0.10184 0.0
H280 H 0.41417 0.22479 0.07952 0.0
H281 H 0.45148 0.19756 0.07548 0.0
N282 N 0.42711 0.1646 0.09681 0.0
C283 C 0.40631 0.17904 0.09903 0.0
C284 C 0.44302 0.17075 0.08835 0.0
C285 C 0.41759 0.20795 0.08441 0.0
C286 C 0.43862 0.19258 0.08208 0.0
C287 C 0.40095 0.20112 0.0929 0.0
H288 H 0.37459 0.23245 0.09071 0.0
N289 N 0.39516 0.14915 0.11254 0.0
C290 C 0.38977 0.17103 0.10715 0.0
C291 C 0.35027 0.17516 0.11719 0.0
C292 C 0.36724 0.18473 0.10935 0.0
C293 C 0.37825 0.13921 0.1199 0.0
C294 C 0.3557 0.15217 0.12241 0.0
O295 O 0.48704 0.08547 0.10561 0.0
O296 O 0.47134 0.12174 0.09798 0.0
O297 O 0.43132 0.0909 0.10175 0.0
O298 O 0.40581 0.12065 0.0958 0.0
O299 O 0.50077 0.14648 0.11938 0.0
O300 O 0.46623 0.16133 0.10883 0.0
O301 O 0.4301 0.14542 0.12546 0.0
O302 O 0.46316 0.12444 0.12229 0.0
O303 O 0.5314 0.10956 0.13094 0.0
O304 O 0.49951 0.09539 0.14038 0.0
O305 O 0.42279 0.0977 0.12192 0.0
O306 O 0.45946 0.08146 0.13053 0.0
C307 C 0.48347 0.09958 0.09675 0.0
C308 C 0.4888 0.16555 0.11387 0.0
C309 C 0.41823 0.08928 0.08316 0.0
C310 C 0.40638 0.06304 0.06745 0.0
C311 C 0.44045 0.09406 0.06582 0.0
C312 C 0.43628 0.10173 0.07663 0.0
C313 C 0.42578 0.0747 0.06127 0.0
C314 C 0.40319 0.07005 0.07855 0.0
C315 C 0.41384 0.09732 0.09457 0.0
C316 C 0.36213 0.20716 0.10349 0.0
C317 C 0.37897 0.21535 0.09529 0.0
H318 H 0.33274 0.18511 0.11912 0.0
C319 C 0.45114 0.13773 0.12955 0.0
C320 C 0.43375 0.08187 0.12937 0.0
C321 C 0.52765 0.12445 0.14903 0.0
C322 C 0.54635 0.1654 0.15388 0.0
C323 C 0.53395 0.1353 0.16814 0.0
C324 C 0.52589 0.11812 0.16017 0.0
C325 C 0.54462 0.15849 0.16505 0.0
C326 C 0.53692 0.14848 0.14597 0.0
C327 C 0.52233 0.10505 0.14067 0.0
H328 H 0.45467 0.10355 0.06087 0.0
H329 H 0.44698 0.11754 0.07984 0.0
H330 H 0.42909 0.06941 0.0528 0.0
H331 H 0.3882 0.06156 0.08344 0.0
H332 H 0.53278 0.13025 0.17674 0.0
H333 H 0.51874 0.09971 0.16268 0.0
H334 H 0.55225 0.17057 0.17144 0.0
H335 H 0.5378 0.15357 0.13737 0.0
C336 C 0.2953 0.82922 0.22409 0.0
C337 C 0.28975 0.78403 0.22725 0.0
C338 C 0.28043 0.80755 0.22347 0.0
C339 C 0.31485 0.78236 0.23118 0.0
C340 C 0.31999 0.82789 0.22863 0.0
C341 C 0.32993 0.80426 0.23189 0.0
N342 N 0.28473 0.85186 0.22118 0.0
C343 C 0.2973 0.87398 0.22331 0.0
C344 C 0.3335 0.85046 0.23021 0.0
C345 C 0.32193 0.87362 0.2277 0.0
Gd346 Gd 0.21854 0.91077 0.22776 0.0
Gd347 Gd 0.24417 0.84934 0.2128 0.0
N348 N 0.2559 0.81009 0.22015 0.0
C349 C 0.27323 0.76315 0.22733 0.0
C350 C 0.23938 0.7902 0.22064 0.0
C351 C 0.24784 0.76632 0.22412 0.0
H352 H 0.21971 0.79285 0.21825 0.0
H353 H 0.23479 0.75043 0.22435 0.0
H354 H 0.21909 0.96368 0.21283 0.0
H355 H 0.28849 0.89202 0.22182 0.0
H356 H 0.19159 1.00131 0.20977 0.0
H357 H 0.27967 0.74471 0.23015 0.0
H358 H 0.32248 0.7644 0.23403 0.0
H359 H 0.19437 0.88019 0.24976 0.0
H360 H 0.35248 0.85028 0.23371 0.0
H361 H 0.33187 0.89126 0.22926 0.0
H362 H 0.12203 0.98957 0.23493 0.0
H363 H 0.34896 0.80285 0.23529 0.0
H364 H 0.12574 0.91816 0.25931 0.0
H365 H 0.15699 0.88348 0.26194 0.0
N366 N 0.18447 0.9127 0.24029 0.0
C367 C 0.1678 0.93216 0.23885 0.0
C368 C 0.18107 0.89559 0.24859 0.0
C369 C 0.14216 0.91686 0.25394 0.0
C370 C 0.1598 0.89729 0.25547 0.0
C371 C 0.14615 0.93476 0.24563 0.0
H372 H 0.11269 0.95758 0.2491 0.0
N373 N 0.19451 0.94755 0.22479 0.0
C374 C 0.17296 0.95013 0.23085 0.0
C375 C 0.16347 0.98968 0.22165 0.0
C376 C 0.15678 0.97125 0.22942 0.0
C377 C 0.20161 0.96577 0.21744 0.0
C378 C 0.1861 0.98702 0.21569 0.0
O379 O 0.2426 0.8397 0.23117 0.0
O380 O 0.23483 0.87874 0.23938 0.0
O381 O 0.2262 0.94251 0.23854 0.0
O382 O 0.25674 0.91615 0.23401 0.0
O383 O 0.20025 0.84304 0.21665 0.0
O384 O 0.18682 0.87778 0.22732 0.0
O385 O 0.19955 0.91427 0.21103 0.0
O386 O 0.22375 0.88336 0.21323 0.0
O387 O 0.2252 0.82746 0.20018 0.0
O388 O 0.2644 0.83892 0.19791 0.0
O389 O 0.24826 0.92314 0.21338 0.0
O390 O 0.26405 0.88629 0.20479 0.0
C391 C 0.24208 0.85436 0.23999 0.0
C392 C 0.18187 0.85524 0.22239 0.0
C393 C 0.25828 0.93486 0.2516 0.0
C394 C 0.28625 0.95075 0.266 0.0
C395 C 0.25483 0.91824 0.27012 0.0
C396 C 0.24633 0.91897 0.25927 0.0
C397 C 0.27475 0.93396 0.27348 0.0
C398 C 0.27813 0.95079 0.255 0.0
C399 C 0.24985 0.93551 0.24012 0.0
C400 C 0.1348 0.97356 0.23594 0.0
C401 C 0.12949 0.95534 0.24402 0.0
H402 H 0.15154 1.0062 0.22031 0.0
C403 C 0.20791 0.89402 0.20656 0.0
C404 C 0.26357 0.91206 0.20574 0.0
C405 C 0.25258 0.79932 0.1905 0.0
C406 C 0.2448 0.75344 0.1905 0.0
C407 C 0.27872 0.77171 0.17927 0.0
C408 C 0.27257 0.79596 0.18302 0.0
C409 C 0.2649 0.75065 0.18287 0.0
C410 C 0.23901 0.77807 0.19422 0.0
C411 C 0.24577 0.82505 0.19426 0.0
H412 H 0.24573 0.9057 0.27597 0.0
H413 H 0.23064 0.90694 0.25687 0.0
H414 H 0.28041 0.93374 0.28203 0.0
H415 H 0.28693 0.96355 0.24913 0.0
H416 H 0.294 0.76926 0.17338 0.0
H417 H 0.28327 0.81212 0.18002 0.0
H418 H 0.26966 0.73242 0.17935 0.0
H419 H 0.22376 0.78104 0.19996 0.0
C420 C 0.53161 1.03341 0.47546 0.0
C421 C 0.57118 1.01033 0.47802 0.0
C422 C 0.54561 1.01117 0.47444 0.0
C423 C 0.582 1.03174 0.48306 0.0
C424 C 0.54277 0.05529 0.48008 0.0
C425 C 0.56784 0.05418 0.48407 0.0
N426 N 0.50726 1.03383 0.47164 0.0
C427 C 0.49379 0.0561 0.47136 0.0
C428 C 0.52857 0.0778 0.48034 0.0
C429 C 0.50411 0.07827 0.47584 0.0
Gd430 Gd 0.43623 0.9685 0.4801 0.0
Gd431 Gd 0.49146 0.99528 0.46458 0.0
N432 N 0.53476 0.99089 0.46937 0.0
C433 C 0.58539 0.98827 0.47611 0.0
C434 C 0.54907 0.96996 0.46689 0.0
C435 C 0.57439 0.96816 0.47037 0.0
H436 H 0.5412 0.95473 0.46207 0.0
H437 H 0.58549 0.95136 0.46849 0.0
H438 H 0.3843 0.96828 0.46361 0.0
H439 H 0.47485 0.05671 0.46796 0.0
H440 H 0.34733 0.94159 0.45979 0.0
H441 H 0.60509 0.98689 0.47872 0.0
H442 H 0.60153 1.03135 0.48594 0.0
H443 H 0.4621 0.94418 0.50318 0.0
H444 H 0.53648 0.09501 0.48381 0.0
H445 H 0.49317 0.0957 0.47582 0.0
H446 H 0.35332 0.87409 0.48608 0.0
H447 H 0.57663 0.07073 0.48775 0.0
H448 H 0.42135 0.8774 0.51225 0.0
H449 H 0.45638 0.90785 0.51546 0.0
N450 N 0.43081 0.93479 0.49278 0.0
C451 C 0.41103 0.91873 0.49114 0.0
C452 C 0.44663 0.93133 0.50158 0.0
C453 C 0.42375 0.89345 0.50678 0.0
C454 C 0.4435 0.9106 0.50862 0.0
C455 C 0.40703 0.89752 0.49802 0.0
H456 H 0.38303 0.86485 0.50119 0.0
N457 N 0.39864 0.94492 0.47653 0.0
C458 C 0.39434 0.924 0.48275 0.0
C459 C 0.35624 0.91442 0.47241 0.0
C460 C 0.37315 0.9081 0.48084 0.0
C461 C 0.38172 0.95147 0.46847 0.0
C462 C 0.36046 0.93632 0.46626 0.0
O463 O 0.48579 1.01117 0.48203 0.0
O464 O 0.47388 0.97492 0.49001 0.0
O465 O 0.40674 0.98091 0.49133 0.0
O466 O 0.43555 1.00764 0.48577 0.0
O467 O 0.49969 0.95137 0.46977 0.0
O468 O 0.46614 0.93522 0.48003 0.0
O469 O 0.43605 0.96133 0.46191 0.0
O470 O 0.47813 0.95791 0.45818 0.0
O471 O 0.51935 1.00512 0.45214 0.0
O472 O 0.47922 1.00529 0.4481 0.0
O473 O 0.4213 0.99243 0.46471 0.0
O474 O 0.45437 1.01916 0.46064 0.0
C475 C 0.486 0.99684 0.49085 0.0
C476 C 0.48904 0.93176 0.47543 0.0
C477 C 0.41942 1.01256 0.50378 0.0
C478 C 0.40456 1.03848 0.51913 0.0
C479 C 0.44141 1.01088 0.52127 0.0
C480 C 0.43818 1.00207 0.51058 0.0
C481 C 0.4249 1.02916 0.52551 0.0
C482 C 0.40246 1.0306 0.5081 0.0
C483 C 0.41641 1.00361 0.49242 0.0
C484 C 0.3694 0.88658 0.48746 0.0
C485 C 0.38631 0.88131 0.49605 0.0
H486 H 0.33975 0.90272 0.47068 0.0
C487 C 0.45476 0.95013 0.45673 0.0
C488 C 0.42977 1.01324 0.45947 0.0
C489 C 0.50668 0.98589 0.43549 0.0
C490 C 0.52686 0.94639 0.4297 0.0
C491 C 0.4917 0.96394 0.41919 0.0
C492 C 0.49 0.98437 0.42651 0.0
C493 C 0.50989 0.94484 0.42082 0.0
C494 C 0.52522 0.96701 0.43689 0.0
C495 C 0.50242 1.0046 0.44431 0.0
H496 H 0.4563 1.00301 0.5264 0.0
H497 H 0.45006 0.98683 0.50767 0.0
H498 H 0.42748 1.03528 0.53392 0.0
H499 H 0.38689 1.03736 0.50303 0.0
H500 H 0.47867 0.96273 0.41232 0.0
H501 H 0.47525 0.99852 0.42535 0.0
H502 H 0.51094 0.92916 0.41509 0.0
H503 H 0.53808 0.96782 0.4438 0.0
C504 C 0.28955 0.25744 0.72269 0.0
C505 C 0.2926 0.3032 0.72466 0.0
C506 C 0.30358 0.27963 0.72186 0.0
C507 C 0.2669 0.30425 0.72785 0.0
C508 C 0.26418 0.25826 0.7265 0.0
C509 C 0.25272 0.28182 0.72878 0.0
N510 N 0.30153 0.23494 0.72074 0.0
C511 C 0.28967 0.21263 0.72326 0.0
C512 C 0.25145 0.23536 0.72839 0.0
C513 C 0.26442 0.21246 0.72694 0.0
Gd514 Gd 0.3688 0.17744 0.7284 0.0
Gd515 Gd 0.34306 0.23812 0.71331 0.0
N516 N 0.32867 0.2778 0.71931 0.0
C517 C 0.30807 0.32485 0.72457 0.0
C518 C 0.34405 0.29865 0.71949 0.0
C519 C 0.33397 0.32251 0.72207 0.0
H520 H 0.36409 0.2969 0.71758 0.0
H521 H 0.34616 0.33907 0.72213 0.0
H522 H 0.36659 0.12332 0.71441 0.0
H523 H 0.29951 0.19485 0.72259 0.0
H524 H 0.39287 0.08473 0.71176 0.0
H525 H 0.30036 0.34332 0.72667 0.0
H526 H 0.25805 0.3222 0.72995 0.0
H527 H 0.395 0.20906 0.74982 0.0
H528 H 0.23198 0.23516 0.73135 0.0
H529 H 0.25506 0.19465 0.72877 0.0
H530 H 0.46342 0.09634 0.73637 0.0
H531 H 0.23317 0.28282 0.73161 0.0
H532 H 0.46254 0.16977 0.75961 0.0
H533 H 0.43245 0.20558 0.76183 0.0
N534 N 0.40351 0.17552 0.74073 0.0
C535 C 0.41954 0.15543 0.73958 0.0
C536 C 0.4077 0.19314 0.74878 0.0
C537 C 0.44604 0.17115 0.7543 0.0
C538 C 0.42907 0.19134 0.7556 0.0
C539 C 0.44127 0.15272 0.74629 0.0
H540 H 0.47411 0.12918 0.74999 0.0
N541 N 0.39199 0.13976 0.72597 0.0
C542 C 0.41361 0.13699 0.73193 0.0
C543 C 0.42167 0.09644 0.72331 0.0
C544 C 0.42911 0.11527 0.73076 0.0
C545 C 0.38418 0.12115 0.71894 0.0
C546 C 0.39898 0.09932 0.71743 0.0
O547 O 0.33977 0.24687 0.73166 0.0
O548 O 0.35473 0.21036 0.74031 0.0
O549 O 0.3586 0.14503 0.7383 0.0
O550 O 0.33116 0.17573 0.73572 0.0
O551 O 0.38705 0.24448 0.7179 0.0
O552 O 0.40225 0.20868 0.72741 0.0
O553 O 0.38258 0.17107 0.71088 0.0
O554 O 0.36734 0.20651 0.71396 0.0
O555 O 0.36279 0.26338 0.70284 0.0
O556 O 0.32729 0.24662 0.69676 0.0
O557 O 0.33933 0.16573 0.71384 0.0
O558 O 0.32298 0.20205 0.70512 0.0
C559 C 0.34409 0.23363 0.74072 0.0
C560 C 0.40639 0.23185 0.72294 0.0
C561 C 0.32987 0.15321 0.75255 0.0
C562 C 0.30552 0.1332 0.76732 0.0
C563 C 0.34088 0.16172 0.77148 0.0
C564 C 0.34547 0.16505 0.76031 0.0
C565 C 0.32136 0.14568 0.77498 0.0
C566 C 0.30959 0.1379 0.75604 0.0
C567 C 0.33628 0.1544 0.74084 0.0
C568 C 0.45117 0.11282 0.7372 0.0
C569 C 0.45725 0.13151 0.74495 0.0
H570 H 0.43305 0.07947 0.72217 0.0
C571 C 0.37858 0.19283 0.7066 0.0
C572 C 0.32388 0.17643 0.70615 0.0
C573 C 0.34991 0.278 0.68525 0.0
C574 C 0.37327 0.31293 0.67698 0.0
C575 C 0.34464 0.28728 0.6659 0.0
C576 C 0.33855 0.27254 0.67512 0.0
C577 C 0.36215 0.30726 0.66678 0.0
C578 C 0.3668 0.29838 0.68611 0.0
C579 C 0.34623 0.26204 0.69496 0.0
H580 H 0.35314 0.17082 0.77744 0.0
H581 H 0.36157 0.17632 0.75773 0.0
H582 H 0.31962 0.14231 0.78371 0.0
H583 H 0.29766 0.12906 0.74989 0.0
H584 H 0.33609 0.28296 0.65804 0.0
H585 H 0.32555 0.2567 0.67428 0.0
H586 H 0.36695 0.31823 0.65955 0.0
H587 H 0.3759 0.30241 0.69392 0.0
C588 C 0.04815 1.03094 0.97859 0.0
C589 C 1.00926 0.0531 0.98355 0.0
C590 C 1.0335 0.05293 0.97851 0.0
C591 C 1.0005 1.0313 0.989 0.0
C592 C 1.03895 1.00871 0.98369 0.0
C593 C 1.01527 1.00914 0.98905 0.0
N594 N 0.07139 1.03123 0.97361 0.0
C595 C 0.08539 1.00941 0.97268 0.0
C596 C 0.05376 0.98661 0.98319 0.0
C597 C 0.07693 0.98691 0.97756 0.0
Gd598 Gd 0.14056 0.09848 0.9797 0.0
Gd599 Gd 0.08376 0.07008 0.96564 0.0
N600 N 0.04233 0.07368 0.97304 0.0
C601 C 0.9942 0.07494 0.98269 0.0
C602 C 1.02692 0.09436 0.97158 0.0
C603 C 1.00292 0.0955 0.97653 0.0
H604 H 1.03269 0.10985 0.9664 0.0
H605 H 0.991 0.1121 0.97545 0.0
H606 H 0.19423 0.09396 0.96464 0.0
H607 H 0.10334 1.00934 0.96838 0.0
H608 H 0.22899 0.12165 0.95839 0.0
H609 H 0.97549 0.07581 0.98644 0.0
H610 H 0.98204 1.03119 0.993 0.0
H611 H 0.11702 0.12609 1.00256 0.0
H612 H 0.04733 0.96916 0.98701 0.0
H613 H 0.08832 0.96981 0.97699 0.0
H614 H 0.21556 0.19952 0.97809 0.0
H615 H 1.00804 0.99233 0.99312 0.0
H616 H 0.15081 0.19948 1.0059 0.0
H617 H 0.12037 0.16684 1.01231 0.0
N618 N 0.14507 0.13539 0.99057 0.0
C619 C 0.16266 0.15259 0.98729 0.0
C620 C 0.13058 0.13994 0.99971 0.0
C621 C 0.14946 0.18154 1.00158 0.0
C622 C 0.13233 0.16314 1.00525 0.0
C623 C 0.16524 0.17623 0.99261 0.0
H624 H 0.18601 0.21179 0.99289 0.0
N625 N 0.17694 0.12213 0.97473 0.0
C626 C 0.17915 0.14573 0.97903 0.0
C627 C 0.21662 0.15363 0.96804 0.0
C628 C 0.19888 0.16225 0.97577 0.0
C629 C 0.19507 0.1131 0.96769 0.0
C630 C 0.21497 0.12877 0.96414 0.0
O631 O 0.09329 0.05534 0.98292 0.0
O632 O 0.10371 0.09258 0.99022 0.0
O633 O 0.14356 0.06096 0.98701 0.0
O634 O 0.17126 0.09021 0.99106 0.0
O635 O 0.07627 0.11475 0.96998 0.0
O636 O 0.11124 0.13199 0.97891 0.0
O637 O 0.13995 0.10261 0.96136 0.0
O638 O 0.09764 0.10619 0.95835 0.0
O639 O 0.05194 0.06088 0.95501 0.0
O640 O 0.09044 0.05756 0.94888 0.0
O641 O 0.15478 0.07189 0.96499 0.0
O642 O 0.12043 0.04724 0.96009 0.0
C643 C 0.09239 0.07037 0.99149 0.0
C644 C 0.08779 0.135 0.97487 0.0
C645 C 0.16084 0.06088 1.00493 0.0
C646 C 0.17835 0.03994 1.02115 0.0
C647 C 0.13878 0.06386 1.02239 0.0
C648 C 0.14098 0.0706 1.01137 0.0
C649 C 0.15723 0.04849 1.02726 0.0
C650 C 0.17962 0.04571 1.00986 0.0
C651 C 0.16281 0.06744 0.99323 0.0
C652 C 0.20074 0.18642 0.98058 0.0
C653 C 0.18393 0.1934 0.98901 0.0
H654 H 0.23207 0.16571 0.96531 0.0
C655 C 0.12093 0.11323 0.95619 0.0
C656 C 0.14543 0.05193 0.95939 0.0
C657 C 0.06024 0.07622 0.9374 0.0
C658 C 0.04682 0.11864 0.9318 0.0
C659 C 0.0557 0.08604 0.9181 0.0
C660 C 0.06152 0.06864 0.92641 0.0
C661 C 0.04815 0.11081 0.92075 0.0
C662 C 0.05371 0.10129 0.93999 0.0
C663 C 0.06637 0.05875 0.94637 0.0
H664 H 0.12307 0.07107 1.02724 0.0
H665 H 0.12738 0.08365 1.00793 0.0
H666 H 0.15536 0.04392 1.03589 0.0
H667 H 0.19576 0.03949 1.005 0.0
H668 H 0.05651 0.08016 0.90959 0.0
H669 H 0.06697 0.04941 0.92428 0.0
H670 H 0.04251 0.12341 0.91416 0.0
H671 H 0.05354 0.10713 0.94849 0.0
C672 C 0.90398 0.9251 0.74189 0.0
C673 C 0.90989 0.96508 0.73242 0.0
C674 C 0.89623 0.94233 0.73405 0.0
C675 C 0.93202 0.96971 0.73858 0.0
C676 C 0.92581 0.92991 0.74832 0.0
C677 C 0.93999 0.95214 0.74651 0.0
N678 N 0.88959 0.90407 0.74352 0.0
C679 C 0.89568 0.88729 0.75168 0.0
C680 C 0.93247 0.91246 0.75649 0.0
C681 C 0.91722 0.89114 0.75822 0.0
Gd682 Gd 0.82581 0.8384 0.71637 0.0
Gd683 Gd 0.85474 0.89804 0.7316 0.0
N684 N 0.87466 0.93734 0.72834 0.0
C685 C 0.90057 0.9827 0.72481 0.0
C686 C 0.86497 0.95487 0.72119 0.0
C687 C 0.87788 0.97766 0.71924 0.0
H688 H 0.84744 0.95124 0.71686 0.0
H689 H 0.87029 0.99133 0.71346 0.0
H690 H 0.86443 0.78935 0.72336 0.0
H691 H 0.88426 0.87064 0.7531 0.0
H692 H 0.86087 0.748 0.73247 0.0
H693 H 0.91049 1.0004 0.72331 0.0
H694 H 0.94287 0.98699 0.73739 0.0
H695 H 0.76782 0.86514 0.71842 0.0
H696 H 0.94911 0.91544 0.7616 0.0
H697 H 0.92207 0.87762 0.76458 0.0
H698 H 0.77222 0.74083 0.74149 0.0
H699 H 0.95688 0.9561 0.75132 0.0
H700 H 0.71741 0.81095 0.73295 0.0
H701 H 0.72481 0.85318 0.72467 0.0
N702 N 0.7847 0.83001 0.72307 0.0
C703 C 0.78095 0.80649 0.72742 0.0
C704 C 0.76489 0.84663 0.72197 0.0
C705 C 0.73633 0.81599 0.73014 0.0
C706 C 0.74045 0.8399 0.72551 0.0
C707 C 0.75671 0.799 0.73122 0.0
H708 H 0.73523 0.76904 0.73915 0.0
N709 N 0.82519 0.79881 0.72534 0.0
C710 C 0.8019 0.79062 0.72876 0.0
C711 C 0.82052 0.75144 0.7353 0.0
C712 C 0.79899 0.76679 0.7339 0.0
C713 C 0.84615 0.78364 0.7265 0.0
C714 C 0.84417 0.75989 0.73155 0.0
O715 O 0.87028 0.9038 0.71438 0.0
O716 O 0.85 0.8702 0.71691 0.0
O717 O 0.83537 0.80994 0.7043 0.0
O718 O 0.80518 0.83686 0.70097 0.0
O719 O 0.82394 0.91129 0.71783 0.0
O720 O 0.80705 0.8758 0.7088 0.0
O721 O 0.81248 0.84343 0.73423 0.0
O722 O 0.84871 0.86005 0.74163 0.0
O723 O 0.81577 0.89775 0.73766 0.0
O724 O 0.84349 0.92523 0.74391 0.0
O725 O 0.87102 0.83251 0.71926 0.0
O726 O 0.8867 0.86566 0.73033 0.0
C727 C 0.86307 0.88315 0.70986 0.0
C728 C 0.80807 0.90126 0.71017 0.0
C729 C 0.8298 0.82317 0.6859 0.0
C730 C 0.86403 0.81598 0.6728 0.0
C731 C 0.82901 0.84419 0.66814 0.0
C732 C 0.81797 0.83973 0.67841 0.0
C733 C 0.85212 0.8326 0.66536 0.0
C734 C 0.85213 0.81068 0.68281 0.0
C735 C 0.81956 0.81896 0.69699 0.0
C736 C 0.77479 0.75909 0.73754 0.0
C737 C 0.75371 0.77513 0.73619 0.0
H738 H 0.81908 0.73301 0.7392 0.0
C739 C 0.82737 0.84644 0.74286 0.0
C740 C 0.89052 0.84353 0.72492 0.0
C741 C 0.81203 0.91141 0.75616 0.0
C742 C 0.78653 0.92564 0.77178 0.0
C743 C 0.81838 0.89231 0.77404 0.0
C744 C 0.82522 0.89464 0.76304 0.0
C745 C 0.79938 0.90782 0.77844 0.0
C746 C 0.79241 0.92646 0.76048 0.0
C747 C 0.82057 0.9157 0.74484 0.0
H748 H 0.81999 0.85714 0.66244 0.0
H749 H 0.8004 0.84938 0.68052 0.0
H750 H 0.86092 0.83716 0.65757 0.0
H751 H 0.86056 0.79693 0.68835 0.0
H752 H 0.82865 0.87928 0.77931 0.0
H753 H 0.84126 0.88393 0.75999 0.0
H754 H 0.79591 0.90676 0.78718 0.0
H755 H 0.78264 0.93965 0.75511 0.0
C756 C 0.91711 0.16438 0.48613 0.0
C757 C 0.87943 0.17256 0.47524 0.0
C758 C 0.90029 0.15695 0.47806 0.0
C759 C 0.87643 0.19623 0.4804 0.0
C760 C 0.91369 0.18768 0.49165 0.0
C761 C 0.89354 0.20378 0.4886 0.0
N762 N 0.93615 0.14821 0.48892 0.0
C763 C 0.95171 0.15365 0.49761 0.0
C764 C 0.93026 0.19381 0.50024 0.0
C765 C 0.94919 0.17658 0.50331 0.0
Gd766 Gd 0.99769 0.08436 0.46332 0.0
Gd767 Gd 0.94056 0.1109 0.47832 0.0
N768 N 0.90358 0.1338 0.47341 0.0
C769 C 0.86187 0.16362 0.46752 0.0
C770 C 0.88584 0.12454 0.46625 0.0
C771 C 0.86495 0.13937 0.4631 0.0
H772 H 0.88773 0.10576 0.46285 0.0
H773 H 0.8512 0.13203 0.45729 0.0
H774 H 0.04697 0.12609 0.46747 0.0
H775 H 0.96664 0.14073 0.5 0.0
H776 H 0.08609 0.12809 0.47827 0.0
H777 H 0.84559 0.17502 0.46512 0.0
H778 H 0.86064 0.20857 0.47828 0.0
H779 H 0.97929 1.02292 0.46423 0.0
H780 H 0.92829 0.21153 0.50468 0.0
H781 H 0.9619 0.18096 0.51004 0.0
H782 H 0.09514 0.04463 0.49327 0.0
H783 H 0.89071 0.22185 0.49268 0.0
H784 H 1.03363 0.98178 0.48335 0.0
H785 H 0.99418 0.98278 0.47228 0.0
N786 N 1.00974 0.04491 0.47081 0.0
C787 C 1.03221 0.04454 0.47643 0.0
C788 C 0.99651 1.02294 0.46903 0.0
C789 C 1.02727 0.99954 0.47978 0.0
C790 C 1.00494 1.00005 0.47357 0.0
C791 C 1.04127 1.02188 0.48125 0.0
H792 H 0.07091 1.00503 0.49127 0.0
N793 N 1.03713 0.08856 0.47257 0.0
C794 C 0.04587 0.06706 0.47758 0.0
C795 C 0.08305 0.08963 0.48407 0.0
C796 C 0.06894 0.06717 0.48355 0.0
C797 C 0.05192 0.10994 0.47242 0.0
C798 C 0.07471 0.11095 0.47833 0.0
O799 O 0.93698 0.1132 0.46003 0.0
O800 O 0.97871 0.11833 0.45597 0.0
O801 O 1.03222 0.07867 0.4539 0.0
O802 O 0.99578 0.07118 0.4464 0.0
O803 O 0.92633 0.08081 0.46479 0.0
O804 O 0.96166 0.0613 0.45712 0.0
O805 O 0.98775 0.06852 0.48044 0.0
O806 O 0.97836 0.10545 0.48813 0.0
O807 O 0.93799 0.07426 0.48645 0.0
O808 O 0.91099 0.1042 0.49043 0.0
O809 O 1.00324 0.12922 0.46671 0.0
O810 O 0.9688 0.14518 0.47644 0.0
C811 C 0.95491 0.11844 0.45295 0.0
C812 C 0.93623 0.06299 0.45801 0.0
C813 C 1.02645 0.09234 0.43582 0.0
C814 C 1.04123 0.13411 0.42988 0.0
C815 C 1.02967 0.10176 0.41644 0.0
C816 C 1.02379 0.08481 0.42487 0.0
C817 C 1.03857 0.12613 0.41889 0.0
C818 C 1.03457 0.11711 0.43827 0.0
C819 C 1.01999 0.0749 0.44478 0.0
C820 C 0.07758 0.04478 0.48859 0.0
C821 C 0.06383 1.0222 0.48742 0.0
H822 H 0.10085 0.09045 0.48857 0.0
C823 C 0.98941 0.08307 0.48917 0.0
C824 C 0.99153 0.14898 0.47178 0.0
C825 C 0.92288 0.07637 0.50469 0.0
C826 C 0.90789 0.0563 0.52156 0.0
C827 C 0.94638 0.08196 0.52167 0.0
C828 C 0.94305 0.08727 0.51055 0.0
C829 C 0.92896 0.06652 0.52716 0.0
C830 C 0.90528 0.06095 0.51022 0.0
C831 C 0.91953 0.08163 0.49292 0.0
H832 H 1.02775 0.09587 0.40797 0.0
H833 H 1.01715 0.0659 0.42286 0.0
H834 H 0.04402 0.13835 0.41214 0.0
H835 H 1.0355 0.12317 0.44675 0.0
H836 H 0.96224 0.09019 0.52609 0.0
H837 H 0.9561 0.10005 0.50657 0.0
H838 H 0.93172 0.06297 0.53584 0.0
H839 H 0.88905 0.05346 0.50577 0.0
C840 C 0.66772 0.13947 0.24038 0.0
C841 C 0.66188 0.0997 0.23073 0.0
C842 C 0.67467 0.12304 0.23208 0.0
C843 C 0.64153 0.09352 0.23773 0.0
C844 C 0.64757 0.13321 0.24756 0.0
C845 C 0.63437 0.11026 0.24612 0.0
N846 N 0.68109 0.1613 0.2416 0.0
C847 C 0.67536 0.1777 0.24994 0.0
C848 C 0.64145 0.15008 0.25602 0.0
C849 C 0.65548 0.17239 0.25723 0.0
Gd850 Gd 0.73894 0.23011 0.21297 0.0
Gd851 Gd 0.71341 0.16942 0.22862 0.0
N852 N 0.69448 0.12956 0.22553 0.0
C853 C 0.67018 0.08313 0.22249 0.0
C854 C 0.70308 0.11318 0.21765 0.0
C855 C 0.69099 0.08985 0.21597 0.0
H856 H 0.71909 0.1181 0.21253 0.0
H857 H 0.69773 0.07706 0.20965 0.0
H858 H 0.69909 0.27778 0.22067 0.0
H859 H 0.68576 0.19512 0.25098 0.0
H860 H 0.70229 0.32055 0.22838 0.0
H861 H 0.66088 0.06502 0.22119 0.0
H862 H 0.6314 0.07573 0.23679 0.0
H863 H 0.79817 0.20559 0.21443 0.0
H864 H 0.6261 0.146 0.2617 0.0
H865 H 0.65097 0.18556 0.26378 0.0
H866 H 0.7918 0.33295 0.234 0.0
H867 H 0.61879 0.10516 0.25153 0.0
H868 H 0.84816 0.26382 0.2259 0.0
H869 H 0.84136 0.2201 0.21912 0.0
N870 N 0.78047 0.24079 0.21842 0.0
C871 C 0.78379 0.26491 0.22215 0.0
C872 C 0.80075 0.22474 0.21732 0.0
C873 C 0.8291 0.25762 0.22379 0.0
C874 C 0.82533 0.2329 0.21999 0.0
C875 C 0.8082 0.27392 0.22499 0.0
H876 H 0.82955 0.30591 0.23134 0.0
N877 N 0.73902 0.27035 0.2214 0.0
C878 C 0.76241 0.28005 0.22377 0.0
C879 C 0.74314 0.31936 0.2298 0.0
C880 C 0.76506 0.30474 0.22811 0.0
C881 C 0.71759 0.28466 0.22298 0.0
C882 C 0.71933 0.30926 0.22723 0.0
O883 O 0.69457 0.16519 0.21182 0.0
O884 O 0.71819 0.19652 0.21414 0.0
O885 O 0.72131 0.25283 0.20026 0.0
O886 O 0.758 0.23516 0.19729 0.0
O887 O 0.74352 0.15674 0.21449 0.0
O888 O 0.7593 0.19304 0.20561 0.0
O889 O 0.75275 0.2283 0.23091 0.0
O890 O 0.71967 0.20689 0.23912 0.0
O891 O 0.75304 0.17211 0.23369 0.0
O892 O 0.72816 0.14204 0.24008 0.0
O893 O 0.69427 0.2346 0.21685 0.0
O894 O 0.68051 0.20076 0.22798 0.0
C895 C 0.7033 0.18521 0.20729 0.0
C896 C 0.75903 0.16744 0.20686 0.0
C897 C 0.75123 0.27553 0.18957 0.0
C898 C 0.75211 0.32193 0.19011 0.0
C899 C 0.77362 0.29873 0.17541 0.0
C900 C 0.76558 0.27573 0.17989 0.0
C901 C 0.76659 0.32168 0.18033 0.0
C902 C 0.74572 0.2985 0.19489 0.0
C903 C 0.74117 0.25145 0.19383 0.0
C904 C 0.78942 0.31401 0.23069 0.0
C905 C 0.81092 0.29863 0.22915 0.0
H906 H 0.7444 0.33845 0.23307 0.0
C907 C 0.73977 0.22257 0.2399 0.0
C908 C 0.67564 0.22281 0.22269 0.0
C909 C 0.76047 0.15641 0.25174 0.0
C910 C 0.78814 0.14004 0.26631 0.0
C911 C 0.7545 0.1708 0.27041 0.0
C912 C 0.74698 0.17076 0.25946 0.0
C913 C 0.77452 0.15527 0.27388 0.0
C914 C 0.78152 0.14195 0.25509 0.0
C915 C 0.7505 0.15306 0.24059 0.0
H916 H 0.78449 0.29884 0.16786 0.0
H917 H 0.77024 0.25814 0.17573 0.0
H918 H 0.77159 0.33902 0.1761 0.0
H919 H 0.73549 0.298 0.20255 0.0
H920 H 0.74389 0.18187 0.27635 0.0
H921 H 0.73011 0.18115 0.25709 0.0
H922 H 0.77813 0.15444 0.2826 0.0
H923 H 0.7917 0.13129 0.2489 0.0
C924 C 0.66571 0.92425 0.98539 0.0
C925 C 0.70273 0.9157 0.97414 0.0
C926 C 0.68206 0.93142 0.97711 0.0
C927 C 0.70594 0.89213 0.97936 0.0
C928 C 0.66938 0.90108 0.99099 0.0
C929 C 0.68928 0.88483 0.98778 0.0
N930 N 0.64693 0.94057 0.98834 0.0
C931 C 0.63194 0.93547 0.99725 0.0
C932 C 0.65335 0.89526 0.99981 0.0
C933 C 0.63472 0.91268 1.00303 0.0
Gd934 Gd 0.58414 1.00356 0.96289 0.0
Gd935 Gd 0.64188 0.97752 0.97756 0.0
N936 N 0.67859 0.95448 0.97239 0.0
C937 C 0.71991 0.92445 0.96621 0.0
C938 C 0.69602 0.9636 0.96506 0.0
C939 C 0.7167 0.94865 0.96175 0.0
H940 H 0.69403 0.98236 0.96163 0.0
H941 H 0.73018 0.95586 0.9558 0.0
H942 H 0.53553 0.96186 0.96856 0.0
H943 H 0.61731 0.94859 0.99979 0.0
H944 H 0.49715 0.96079 0.97984 0.0
H945 H 0.73603 0.91295 0.96369 0.0
H946 H 0.72157 0.87969 0.97713 0.0
H947 H 0.6032 0.06486 0.96314 0.0
H948 H 0.65552 0.87765 1.00432 0.0
H949 H 0.62246 0.90856 1.00995 0.0
H950 H 0.48873 0.04547 0.99353 0.0
H951 H 0.6923 0.86686 0.99192 0.0
H952 H 0.54996 0.10739 0.98226 0.0
H953 H 0.58895 0.10549 0.97091 0.0
N954 N 0.57283 0.04344 0.97015 0.0
C955 C 0.55063 0.04426 0.97598 0.0
C956 C 0.58618 0.06519 0.96808 0.0
C957 C 0.55603 0.08939 0.97882 0.0
C958 C 0.57811 0.08838 0.97245 0.0
C959 C 0.54196 0.06724 0.98064 0.0
H960 H 0.51292 0.08484 0.99075 0.0
N961 N 0.54546 0.99997 0.97279 0.0
C962 C 0.53699 1.02186 0.97756 0.0
C963 C 0.50033 0.99978 0.98489 0.0
C964 C 0.51432 1.02221 0.98382 0.0
C965 C 0.53082 0.9785 0.97324 0.0
C966 C 0.50842 0.97796 0.97944 0.0
O967 O 0.64467 0.97465 0.95928 0.0
O968 O 0.6028 0.96968 0.95527 0.0
O969 O 0.54881 1.00797 0.95392 0.0
O970 O 0.5844 1.01702 0.94598 0.0
O971 O 0.65555 1.00753 0.96391 0.0
O972 O 0.61992 1.02618 0.95612 0.0
O973 O 0.59459 1.01961 0.97993 0.0
O974 O 0.60453 0.98284 0.98765 0.0
O975 O 0.64474 1.01436 0.98548 0.0
O976 O 0.672 0.98456 0.98936 0.0
O977 O 0.5789 0.95885 0.96636 0.0
O978 O 0.61347 0.94325 0.9761 0.0
C979 C 0.62664 0.9692 0.95229 0.0
C980 C 0.64538 1.02488 0.95699 0.0
C981 C 0.55383 0.99492 0.93564 0.0
C982 C 0.53725 0.95401 0.92943 0.0
C983 C 0.55262 0.98526 0.91622 0.0
C984 C 0.55839 1.00201 0.92474 0.0
C985 C 0.54192 0.96155 0.91851 0.0
C986 C 0.54386 0.97071 0.93794 0.0
C987 C 0.56027 1.01229 0.94466 0.0
C988 C 0.50599 0.04497 0.98865 0.0
C989 C 0.51972 0.06741 0.98704 0.0
H990 H 0.48284 0.99931 0.98962 0.0
C991 C 0.59343 1.00515 0.98871 0.0
C992 C 0.5907 0.9393 0.9715 0.0
C993 C 0.66114 1.01307 1.00351 0.0
C994 C 0.6777 1.03359 1.01999 0.0
C995 C 0.63843 1.00917 1.02077 0.0
C996 C 0.64106 1.00301 1.0097 0.0
C997 C 0.65654 1.02447 1.0259 0.0
C998 C 0.67951 1.02821 1.00868 0.0
C999 C 0.66362 1.00723 0.99176 0.0
H1000 H 0.55605 0.99084 0.9078 0.0
H1001 H 0.56643 1.02043 0.92284 0.0
H1002 H 0.53667 0.9495 0.91168 0.0
H1003 H 0.54125 0.96485 0.94639 0.0
H1004 H 0.62259 1.00165 1.02545 0.0
H1005 H 0.62758 0.99022 1.006 0.0
H1006 H 0.6543 1.02866 1.03455 0.0
H1007 H 0.69573 1.03484 1.00398 0.0
C1008 C 0.91773 0.16744 0.85282 0.0
C1009 C 0.92955 0.13515 0.86599 0.0
C1010 C 0.91277 0.15441 0.86237 0.0
C1011 C 0.95169 0.12977 0.85993 0.0
C1012 C 0.93963 0.16173 0.84654 0.0
C1013 C 0.95673 0.14305 0.85022 0.0
N1014 N 0.90072 0.18521 0.84948 0.0
C1015 C 0.90416 0.19743 0.83968 0.0
C1016 C 0.94352 0.17469 0.83667 0.0
C1017 C 0.92558 0.1925 0.83319 0.0
Gd1018 Gd 0.8357 0.25212 0.87204 0.0
Gd1019 Gd 0.8659 0.19409 0.86124 0.0
N1020 N 0.89109 0.15999 0.86793 0.0
C1021 C 0.9234 0.12162 0.87549 0.0
C1022 C 0.88475 0.14627 0.87708 0.0
C1023 C 0.9008 0.1271 0.88101 0.0
H1024 H 0.86746 0.14991 0.88153 0.0
H1025 H 0.89567 0.11655 0.88831 0.0
H1026 H 0.87594 0.30245 0.87262 0.0
H1027 H 0.89073 0.21134 0.83681 0.0
H1028 H 0.88016 0.34403 0.86366 0.0
H1029 H 0.93576 0.10671 0.87854 0.0
H1030 H 0.96484 0.11516 0.86262 0.0
H1031 H 0.77465 0.23466 0.86846 0.0
H1032 H 0.96008 0.17087 0.83161 0.0
H1033 H 0.92824 0.20248 0.82551 0.0
H1034 H 0.80232 0.35381 0.84349 0.0
H1035 H 0.9737 0.1385 0.84554 0.0
H1036 H 0.73805 0.29027 0.84827 0.0
H1037 H 0.73637 0.25015 0.8588 0.0
N1038 N 0.79801 0.26543 0.86326 0.0
C1039 C 0.79892 0.2882 0.85802 0.0
C1040 C 0.77563 0.25222 0.86393 0.0
C1041 C 0.75491 0.2836 0.85251 0.0
C1042 C 0.75389 0.26094 0.85845 0.0
C1043 C 0.7775 0.2977 0.85235 0.0
H1044 H 0.763 0.32858 0.84237 0.0
N1045 N 0.84076 0.2934 0.86482 0.0
C1046 C 0.82111 0.30239 0.85867 0.0
C1047 C 0.84425 0.34124 0.85519 0.0
C1048 C 0.8224 0.32649 0.85362 0.0
C1049 C 0.86134 0.30849 0.86696 0.0
C1050 C 0.86361 0.33236 0.86204 0.0
O1051 O 0.87008 0.19933 0.8796 0.0
O1052 O 0.87221 0.24234 0.87999 0.0
O1053 O 0.82316 0.28315 0.88243 0.0
O1054 O 0.82342 0.24481 0.88878 0.0
O1055 O 0.83979 0.18255 0.87632 0.0
O1056 O 0.81175 0.21577 0.87754 0.0
O1057 O 0.82199 0.24035 0.85501 0.0
O1058 O 0.85997 0.22793 0.84886 0.0
O1059 O 0.82742 0.19074 0.85486 0.0
O1060 O 0.85536 0.16087 0.85186 0.0
O1061 O 0.88077 0.25937 0.86761 0.0
O1062 O 0.89952 0.22298 0.86063 0.0
C1063 C 0.87666 0.22044 0.88447 0.0
C1064 C 0.81777 0.19177 0.88021 0.0
C1065 C 0.84135 0.27622 0.89989 0.0
C1066 C 0.88129 0.29736 0.90419 0.0
C1067 C 0.86469 0.26505 0.91643 0.0
C1068 C 0.84367 0.26168 0.90951 0.0
C1069 C 0.8838 0.28243 0.91367 0.0
C1070 C 0.85978 0.29466 0.89759 0.0
C1071 C 0.82328 0.26891 0.8912 0.0
C1072 C 0.80156 0.33547 0.84751 0.0
C1073 C 0.77915 0.32113 0.84689 0.0
H1074 H 0.84596 0.35985 0.85147 0.0
C1075 C 0.83776 0.23888 0.84672 0.0
C1076 C 0.90178 0.24727 0.86351 0.0
C1077 C 0.82421 0.16762 0.8383 0.0
C1078 C 0.79976 0.1448 0.82435 0.0
C1079 C 0.82922 0.1786 0.81914 0.0
C1080 C 0.83575 0.18223 0.8301 0.0
C1081 C 0.81173 0.1598 0.81624 0.0
C1082 C 0.80576 0.14958 0.83546 0.0
C1083 C 0.83249 0.16949 0.84977 0.0
H1084 H 0.86659 0.25359 0.92376 0.0
H1085 H 0.82987 0.24703 0.91141 0.0
H1086 H 0.90028 0.28442 0.91895 0.0
H1087 H 0.85822 0.30625 0.89029 0.0
H1088 H 0.83838 0.18981 0.81282 0.0
H1089 H 0.85013 0.19606 0.83214 0.0
H1090 H 0.80846 0.15658 0.80759 0.0
H1091 H 0.79668 0.13896 0.84198 0.0
C1092 C 0.67603 0.16646 0.59943 0.0
C1093 C 0.7149 0.1722 0.60986 0.0
C1094 C 0.69184 0.15921 0.60795 0.0
C1095 C 0.72133 0.19315 0.60328 0.0
C1096 C 0.68267 0.18707 0.59262 0.0
C1097 C 0.70522 0.20059 0.59468 0.0
N1098 N 0.65465 0.1527 0.59755 0.0
C1099 C 0.63927 0.15818 0.58883 0.0
C1100 C 0.66666 0.19317 0.58381 0.0
C1101 C 0.64494 0.17855 0.58188 0.0
Gd1102 Gd 0.58356 0.09623 0.62552 0.0
Gd1103 Gd 0.64571 0.11986 0.61002 0.0
N1104 N 0.68518 0.13874 0.61406 0.0
C1105 C 0.73105 0.16339 0.61818 0.0
C1106 C 0.70126 0.12952 0.62193 0.0
C1107 C 0.72428 0.14183 0.62418 0.0
H1108 H 0.69623 0.1129 0.62662 0.0
H1109 H 0.7368 0.13465 0.63052 0.0
H1110 H 0.53957 0.13509 0.61345 0.0
H1111 H 0.62243 0.1471 0.58723 0.0
H1112 H 0.49908 0.13098 0.60378 0.0
H1113 H 0.74895 0.17283 0.61991 0.0
H1114 H 0.73889 0.20347 0.60467 0.0
H1115 H 0.60607 1.0363 0.62792 0.0
H1116 H 0.67107 0.20887 0.57839 0.0
H1117 H 0.63257 0.18295 0.57503 0.0
H1118 H 0.48517 0.0413 0.6014 0.0
H1119 H 0.71059 0.21655 0.58957 0.0
H1120 H 0.54976 0.98574 0.61531 0.0
H1121 H 0.59153 0.99295 0.62413 0.0
N1122 N 0.57289 0.054 0.62133 0.0
C1123 C 0.54981 0.05044 0.61648 0.0
C1124 C 0.58782 1.03371 0.62407 0.0
C1125 C 0.55599 1.00496 0.61699 0.0
C1126 C 0.57962 1.00896 0.62194 0.0
C1127 C 0.54083 1.0258 0.61412 0.0
H1128 H 0.51008 1.00392 0.60697 0.0
N1129 N 0.54563 0.09518 0.61512 0.0
C1130 C 0.53582 0.07163 0.61326 0.0
C1131 C 0.49913 0.09015 0.6043 0.0
C1132 C 0.51242 0.06852 0.60771 0.0
C1133 C 0.53264 0.11632 0.61178 0.0
C1134 C 0.50931 0.11412 0.60633 0.0
O1135 O 0.64961 0.1398 0.62644 0.0
O1136 O 0.6184 0.11559 0.6249 0.0
O1137 O 0.56175 0.11805 0.63722 0.0
O1138 O 0.57108 0.07889 0.64085 0.0
O1139 O 0.65671 0.08885 0.62415 0.0
O1140 O 0.61999 0.0767 0.63388 0.0
O1141 O 0.58739 0.08107 0.60789 0.0
O1142 O 0.60788 0.11453 0.59979 0.0
O1143 O 0.64552 0.08094 0.60413 0.0
O1144 O 0.67395 0.10801 0.59817 0.0
O1145 O 0.57961 0.14018 0.62108 0.0
O1146 O 0.61432 0.15295 0.6102 0.0
C1147 C 0.62951 0.13183 0.63123 0.0
C1148 C 0.64554 0.07502 0.63227 0.0
C1149 C 0.53006 0.09341 0.64582 0.0
C1150 C 0.48504 0.10381 0.64296 0.0
C1151 C 0.49779 0.07292 0.65689 0.0
C1152 C 0.52337 0.07653 0.65421 0.0
C1153 C 0.47879 0.0867 0.65147 0.0
C1154 C 0.5108 0.10609 0.63996 0.0
C1155 C 0.55708 0.09843 0.64341 0.0
C1156 C 0.50314 0.044 0.60562 0.0
C1157 C 0.51731 1.02271 0.6088 0.0
H1158 H 0.48106 0.08855 0.60005 0.0
C1159 C 0.59289 0.09408 0.59893 0.0
C1160 C 0.59191 0.15827 0.61523 0.0
C1161 C 0.66132 0.07598 0.58596 0.0
C1162 C 0.67742 0.05124 0.57047 0.0
C1163 C 0.63922 0.07704 0.5685 0.0
C1164 C 0.64214 0.08582 0.57921 0.0
C1165 C 0.65656 0.05965 0.56416 0.0
C1166 C 0.67913 0.05891 0.58154 0.0
C1167 C 0.6644 0.08519 0.59727 0.0
H1168 H 0.49269 0.06004 0.66346 0.0
H1169 H 0.53792 0.06639 0.65876 0.0
H1170 H 0.45943 0.08458 0.65436 0.0
H1171 H 0.51609 0.11842 0.63328 0.0
H1172 H 0.62401 0.08438 0.5634 0.0
H1173 H 0.6299 0.10073 0.58216 0.0
H1174 H 0.65421 0.05362 0.55573 0.0
H1175 H 0.69509 0.0529 0.58656 0.0
C1176 C 0.66884 0.9271 0.34996 0.0
C1177 C 0.66313 0.96609 0.3602 0.0
C1178 C 0.67634 0.94318 0.35828 0.0
C1179 C 0.64169 0.9721 0.3538 0.0
C1180 C 0.6477 0.93329 0.34332 0.0
C1181 C 0.63397 0.95571 0.34538 0.0
N1182 N 0.68279 0.90583 0.34811 0.0
C1183 C 0.6769 0.89014 0.33955 0.0
C1184 C 0.64126 0.91697 0.3347 0.0
C1185 C 0.65603 0.89537 0.33277 0.0
Gd1186 Gd 0.7427 0.8346 0.37433 0.0
Gd1187 Gd 0.71662 0.89759 0.36035 0.0
N1188 N 0.69725 0.93689 0.36422 0.0
C1189 C 0.67217 0.98249 0.36836 0.0
C1190 C 0.70666 0.95319 0.37193 0.0
C1191 C 0.69417 0.97609 0.37418 0.0
H1192 H 0.72362 0.94843 0.37647 0.0
H1193 H 0.70154 0.98878 0.3804 0.0
H1194 H 0.70381 0.78891 0.36391 0.0
H1195 H 0.68792 0.87327 0.33796 0.0
H1196 H 0.7078 0.749 0.35385 0.0
H1197 H 0.66257 1.00028 0.37009 0.0
H1198 H 0.63119 0.98954 0.35519 0.0
H1199 H 0.80222 0.85909 0.37504 0.0
H1200 H 0.62515 0.92103 0.32942 0.0
H1201 H 0.65133 0.88271 0.32608 0.0
H1202 H 0.7976 0.73899 0.3482 0.0
H1203 H 0.61761 0.96073 0.3404 0.0
H1204 H 0.853 0.80498 0.36078 0.0
H1205 H 0.84559 0.84615 0.36999 0.0
N1206 N 0.78473 0.82553 0.36884 0.0
C1207 C 0.78843 0.80272 0.36382 0.0
C1208 C 0.80492 0.84104 0.37108 0.0
C1209 C 0.83379 0.81047 0.36304 0.0
C1210 C 0.82967 0.83376 0.36821 0.0
C1211 C 0.81306 0.7947 0.36071 0.0
H1212 H 0.83497 0.76503 0.35275 0.0
N1213 N 0.74366 0.79697 0.36383 0.0
C1214 C 0.76726 0.78815 0.36115 0.0
C1215 C 0.74867 0.75093 0.35276 0.0
C1216 C 0.77035 0.76502 0.35545 0.0
C1217 C 0.72249 0.78302 0.36135 0.0
C1218 C 0.72467 0.75995 0.35575 0.0
O1219 O 0.70084 0.90152 0.3777 0.0
O1220 O 0.71973 0.86748 0.37462 0.0
O1221 O 0.7245 0.80848 0.38539 0.0
O1222 O 0.76109 0.82418 0.3898 0.0
O1223 O 0.74687 0.90779 0.37464 0.0
O1224 O 0.76253 0.87056 0.38285 0.0
O1225 O 0.75751 0.84104 0.35684 0.0
O1226 O 0.72292 0.861 0.34936 0.0
O1227 O 0.75587 0.89707 0.35467 0.0
O1228 O 0.72934 0.9264 0.34902 0.0
O1229 O 0.69835 0.83052 0.36972 0.0
O1230 O 0.68319 0.86698 0.36073 0.0
C1231 C 0.7066 0.87993 0.38183 0.0
C1232 C 0.76244 0.89626 0.382 0.0
C1233 C 0.75272 0.78127 0.39471 0.0
C1234 C 0.74599 0.73531 0.39338 0.0
C1235 C 0.77597 0.75289 0.40671 0.0
C1236 C 0.77013 0.77748 0.40325 0.0
C1237 C 0.76364 0.73201 0.40202 0.0
C1238 C 0.74198 0.76009 0.38943 0.0
C1239 C 0.74389 0.80713 0.39199 0.0
C1240 C 0.7949 0.75672 0.35256 0.0
C1241 C 0.81618 0.77153 0.35517 0.0
H1242 H 0.75027 0.73304 0.34842 0.0
C1243 C 0.74388 0.8467 0.34809 0.0
C1244 C 0.67904 0.8436 0.3649 0.0
C1245 C 0.76112 0.9135 0.33669 0.0
C1246 C 0.78883 0.92798 0.32185 0.0
C1247 C 0.75578 0.89658 0.31835 0.0
C1248 C 0.74796 0.89807 0.32926 0.0
C1249 C 0.77596 0.91148 0.31463 0.0
C1250 C 0.78167 0.92821 0.33301 0.0
C1251 C 0.75203 0.91632 0.34802 0.0
H1252 H 0.78922 0.75005 0.41341 0.0
H1253 H 0.77875 0.79351 0.4074 0.0
H1254 H 0.76724 0.71357 0.4056 0.0
H1255 H 0.72948 0.76314 0.38253 0.0
H1256 H 0.74553 0.88457 0.31265 0.0
H1257 H 0.73129 0.88766 0.33183 0.0
H1258 H 0.78047 0.91103 0.30596 0.0
H1259 H 0.79138 0.94054 0.33877 0.0
C1260 C 0.90136 0.89853 0.09959 0.0
C1261 C 0.86062 0.89397 0.10872 0.0
C1262 C 0.88359 0.90728 0.10705 0.0
C1263 C 0.85643 0.87102 0.10313 0.0
C1264 C 0.89684 0.87607 0.09361 0.0
C1265 C 0.87453 0.86207 0.09559 0.0
N1266 N 0.92239 0.91283 0.09772 0.0
C1267 C 0.93913 0.9064 0.08958 0.0
C1268 C 0.91452 0.86876 0.0856 0.0
C1269 C 0.93563 0.88415 0.0835 0.0
Gd1270 Gd 0.98825 0.97388 0.12503 0.0
Gd1271 Gd 0.92783 0.94879 0.10894 0.0
N1272 N 0.88809 0.92969 0.11216 0.0
C1273 C 0.84225 0.90455 0.1157 0.0
C1274 C 0.86973 0.94076 0.11852 0.0
C1275 C 0.84671 0.92821 0.12051 0.0
H1276 H 0.87306 0.95909 0.12222 0.0
H1277 H 0.83241 0.93682 0.12573 0.0
H1278 H 1.02833 0.9337 0.11125 0.0
H1279 H 0.95559 0.91806 0.08795 0.0
H1280 H 0.06522 0.93677 0.09913 0.0
H1281 H 0.82434 0.89493 0.11721 0.0
H1282 H 0.839 0.86039 0.10437 0.0
H1283 H 0.97165 1.03485 0.13052 0.0
H1284 H 0.91177 0.85161 0.08083 0.0
H1285 H 0.94921 0.87889 0.07721 0.0
H1286 H 0.08061 1.02597 0.09576 0.0
H1287 H 0.87079 0.84465 0.09114 0.0
H1288 H 1.02437 0.08341 0.11415 0.0
H1289 H 0.9866 0.0776 0.126 0.0
N1290 N 1.0 1.01594 0.12097 0.0
C1291 C 1.02149 1.01871 0.11478 0.0
C1292 C 0.98783 1.03674 0.12516 0.0
C1293 C 1.01785 0.0644 0.11607 0.0
C1294 C 0.99644 0.0612 0.12271 0.0
C1295 C 1.03068 0.04308 0.11202 0.0
H1296 H 0.0594 0.06403 0.10301 0.0
N1297 N 1.02398 0.97376 0.11324 0.0
C1298 C 1.03366 0.99708 0.11074 0.0
C1299 C 0.06639 0.97758 0.09957 0.0
C1300 C 0.05504 0.99955 0.10378 0.0
C1301 C 1.03526 0.95227 0.10922 0.0
C1302 C 0.05648 0.95388 0.10232 0.0
O1303 O 0.91886 0.93667 0.12633 0.0
O1304 O 0.95647 0.94864 0.12462 0.0
O1305 O 1.02309 0.96818 0.13402 0.0
O1306 O 0.98974 0.98181 0.14263 0.0
O1307 O 0.91643 0.98101 0.12235 0.0
O1308 O 0.9521 0.99521 0.13218 0.0
O1309 O 0.98064 0.99112 0.1079 0.0
O1310 O 0.96654 0.95516 0.09975 0.0
O1311 O 0.92656 0.98687 0.10208 0.0
O1312 O 0.90129 0.95742 0.09586 0.0
O1313 O 0.99201 0.92889 0.12189 0.0
O1314 O 0.95884 0.91528 0.11032 0.0
C1315 C 0.93974 0.94016 0.13153 0.0
C1316 C 0.92682 0.99614 0.13022 0.0
C1317 C 1.01859 0.95543 0.15238 0.0
C1318 C 1.03564 0.91448 0.15836 0.0
C1319 C 1.02364 0.94684 0.17177 0.0
C1320 C 1.01661 0.96328 0.16332 0.0
C1321 C 1.03337 0.92278 0.16935 0.0
C1322 C 1.02736 0.93081 0.14997 0.0
C1323 C 1.01303 0.97348 0.1435 0.0
C1324 C 0.06423 1.02378 0.10109 0.0
C1325 C 0.05214 0.04546 0.10522 0.0
H1326 H 0.08279 0.97871 0.09418 0.0
C1327 C 0.97874 0.97723 0.0989 0.0
C1328 C 0.98062 0.9103 0.11588 0.0
C1329 C 0.91521 0.98829 0.0833 0.0
C1330 C 0.90468 1.01426 0.06734 0.0
C1331 C 0.93888 0.98314 0.06635 0.0
C1332 C 0.93386 0.97571 0.07713 0.0
C1333 C 0.92453 1.0024 0.06148 0.0
C1334 C 0.90059 1.00745 0.07839 0.0
C1335 C 0.90972 0.98056 0.09464 0.0
H1336 H 1.02222 0.95303 0.18022 0.0
H1337 H 1.00983 0.98217 0.16531 0.0
H1338 H 1.04008 0.91127 0.17611 0.0
H1339 H 1.02818 0.92462 0.14151 0.0
H1340 H 0.95353 0.97353 0.06166 0.0
H1341 H 0.94432 0.95999 0.0806 0.0
H1342 H 0.92847 1.00747 0.05303 0.0
H1343 H 0.88519 1.01606 0.08302 0.0
C1344 C 0.78267 0.76483 0.86749 0.0
C1345 C 0.76413 0.80428 0.86097 0.0
C1346 C 0.76133 0.77978 0.86549 0.0
C1347 C 0.7886 0.81363 0.85865 0.0
C1348 C 0.80721 0.77388 0.86487 0.0
C1349 C 0.81007 0.79846 0.86058 0.0
N1350 N 0.7792 0.74076 0.8713 0.0
C1351 C 0.79953 0.72488 0.87271 0.0
C1352 C 0.82811 0.75774 0.86639 0.0
C1353 C 0.82422 0.73311 0.87027 0.0
Gd1354 Gd 0.71344 0.67093 0.85961 0.0
Gd1355 Gd 0.73734 0.73021 0.87648 0.0
N1356 N 0.73783 0.76996 0.86759 0.0
C1357 C 0.74225 0.8186 0.85879 0.0
C1358 C 0.71642 0.78394 0.86547 0.0
C1359 C 0.71831 0.80835 0.86103 0.0
H1360 H 0.69778 0.77691 0.86746 0.0
H1361 H 0.70127 0.81937 0.85946 0.0
H1362 H 0.72298 0.61647 0.87316 0.0
H1363 H 0.79697 0.70581 0.87568 0.0
H1364 H 0.70183 0.57506 0.87566 0.0
H1365 H 0.74361 0.83753 0.85536 0.0
H1366 H 0.7911 0.83244 0.85521 0.0
H1367 H 0.6849 0.69815 0.83785 0.0
H1368 H 0.84726 0.76399 0.86447 0.0
H1369 H 0.84026 0.72043 0.8714 0.0
H1370 H 0.62979 0.57874 0.85139 0.0
H1371 H 0.82879 0.80578 0.85857 0.0
H1372 H 0.6221 0.6518 0.82811 0.0
H1373 H 0.64808 0.69061 0.82583 0.0
N1374 N 0.67983 0.66423 0.84711 0.0
C1375 C 0.66614 0.64259 0.8483 0.0
C1376 C 0.67384 0.68115 0.839 0.0
C1377 C 0.63824 0.65507 0.83347 0.0
C1378 C 0.65289 0.67696 0.83214 0.0
C1379 C 0.64497 0.63737 0.84154 0.0
H1380 H 0.61522 0.61019 0.8378 0.0
N1381 N 0.69525 0.63043 0.86193 0.0
C1382 C 0.67417 0.62506 0.85596 0.0
C1383 C 0.67138 0.58361 0.86438 0.0
C1384 C 0.66151 0.60159 0.85706 0.0
C1385 C 0.70566 0.61252 0.8687 0.0
C1386 C 0.69374 0.58901 0.87014 0.0
O1387 O 0.75219 0.72862 0.85865 0.0
O1388 O 0.71819 0.70984 0.85027 0.0
O1389 O 0.72689 0.64535 0.84706 0.0
O1390 O 0.75276 0.67351 0.85416 0.0
O1391 O 0.69275 0.7344 0.87248 0.0
O1392 O 0.67953 0.70138 0.86082 0.0
O1393 O 0.69885 0.6615 0.87666 0.0
O1394 O 0.71337 0.69795 0.87531 0.0
O1395 O 0.72 0.75504 0.88842 0.0
O1396 O 0.75509 0.73557 0.8925 0.0
O1397 O 0.74439 0.65847 0.87342 0.0
O1398 O 0.75758 0.69348 0.88381 0.0
C1399 C 0.73867 0.72483 0.84965 0.0
C1400 C 0.67437 0.7231 0.86634 0.0
C1401 C 0.76036 0.65967 0.8359 0.0
C1402 C 0.78835 0.64457 0.82131 0.0
C1403 C 0.75944 0.67994 0.81804 0.0
C1404 C 0.74977 0.67744 0.82867 0.0
C1405 C 0.77855 0.66353 0.81433 0.0
C1406 C 0.77981 0.64356 0.83225 0.0
C1407 C 0.74961 0.6555 0.84685 0.0
C1408 C 0.6399 0.59658 0.85061 0.0
C1409 C 0.63162 0.61447 0.84287 0.0
H1410 H 0.66224 0.56534 0.86546 0.0
C1411 C 0.70321 0.68188 0.88204 0.0
C1412 C 0.75878 0.66836 0.88164 0.0
C1413 C 0.7498 0.77749 0.89913 0.0
C1414 C 0.74998 0.82392 0.89825 0.0
C1415 C 0.7718 0.80158 0.91312 0.0
C1416 C 0.76407 0.77827 0.90882 0.0
C1417 C 0.76438 0.82425 0.90805 0.0
C1418 C 0.74421 0.8002 0.8936 0.0
C1419 C 0.73902 0.7533 0.89525 0.0
H1420 H 0.75129 0.69384 0.81251 0.0
H1421 H 0.7336 0.68873 0.83116 0.0
H1422 H 0.78451 0.66472 0.80584 0.0
H1423 H 0.78734 0.62929 0.8378 0.0
H1424 H 0.78259 0.80215 0.92069 0.0
H1425 H 0.76877 0.76093 0.91317 0.0
H1426 H 0.76903 0.84183 0.91216 0.0
H1427 H 0.73419 0.7993 0.88591 0.0
C1428 C 0.55092 0.54298 0.10904 0.0
C1429 C 0.51277 0.51879 0.1051 0.0
C1430 C 0.5373 0.52051 0.10979 0.0
C1431 C 0.50267 0.5396 0.09933 0.0
C1432 C 0.54037 0.56432 0.10371 0.0
C1433 C 0.5164 0.56234 0.09867 0.0
N1434 N 0.57446 0.54407 0.11367 0.0
C1435 C 0.58731 0.56662 0.11427 0.0
C1436 C 0.5541 0.5871 0.10373 0.0
C1437 C 0.57751 0.58833 0.10917 0.0
Gd1438 Gd 0.64574 0.47979 0.10767 0.0
Gd1439 Gd 0.58905 0.50704 0.1225 0.0
N1440 N 0.54739 0.50089 0.11562 0.0
C1441 C 0.49875 0.4965 0.10665 0.0
C1442 C 0.53292 0.47993 0.11784 0.0
C1443 C 0.50871 0.47718 0.11321 0.0
H1444 H 0.53955 0.46561 0.12348 0.0
H1445 H 0.49755 0.46034 0.11488 0.0
H1446 H 0.6987 0.48422 0.12324 0.0
H1447 H 0.60541 0.56764 0.11847 0.0
H1448 H 0.73492 0.45764 0.12873 0.0
H1449 H 0.47985 0.49444 0.10319 0.0
H1450 H 0.48396 0.53851 0.0956 0.0
H1451 H 0.62026 0.45079 0.08555 0.0
H1452 H 0.54662 0.60392 0.09975 0.0
H1453 H 0.58802 0.60599 0.10943 0.0
H1454 H 0.72554 0.38187 0.10725 0.0
H1455 H 0.50812 0.57842 0.09441 0.0
H1456 H 0.65827 0.37999 0.08067 0.0
H1457 H 0.6249 0.41086 0.07539 0.0
N1458 N 0.65053 0.44295 0.09673 0.0
C1459 C 0.66943 0.4266 0.09948 0.0
C1460 C 0.63504 0.43777 0.08798 0.0
C1461 C 0.65633 0.3976 0.08519 0.0
C1462 C 0.63753 0.41499 0.08218 0.0
C1463 C 0.67282 0.40343 0.09385 0.0
H1464 H 0.69562 0.36917 0.0927 0.0
N1465 N 0.68283 0.4567 0.11241 0.0
C1466 C 0.68614 0.4337 0.10762 0.0
C1467 C 0.72433 0.42647 0.11826 0.0
C1468 C 0.70688 0.41789 0.11043 0.0
C1469 C 0.70049 0.46559 0.1197 0.0
C1470 C 0.72125 0.45057 0.12282 0.0
O1471 O 0.59703 0.52126 0.10493 0.0
O1472 O 0.608 0.48426 0.09763 0.0
O1473 O 0.67511 0.48798 0.09566 0.0
O1474 O 0.64734 0.51703 0.10004 0.0
O1475 O 0.58328 0.4619 0.11943 0.0
O1476 O 0.61736 0.44579 0.10948 0.0
O1477 O 0.64874 0.47671 0.12596 0.0
O1478 O 0.60684 0.4733 0.13063 0.0
O1479 O 0.55835 0.51076 0.13441 0.0
O1480 O 0.594 0.53032 0.13698 0.0
O1481 O 0.6607 0.50859 0.12151 0.0
O1482 O 0.62561 0.52989 0.12821 0.0
C1483 C 0.59618 0.50621 0.09637 0.0
C1484 C 0.59481 0.44206 0.11429 0.0
C1485 C 0.66294 0.51683 0.08184 0.0
C1486 C 0.6779 0.53881 0.06541 0.0
C1487 C 0.63997 0.51239 0.06468 0.0
C1488 C 0.64331 0.50588 0.07567 0.0
C1489 C 0.65703 0.52889 0.05957 0.0
C1490 C 0.68032 0.53314 0.07668 0.0
C1491 C 0.66609 0.51058 0.09353 0.0
C1492 C 0.70985 0.39436 0.10515 0.0
C1493 C 0.69283 0.38713 0.09687 0.0
H1494 H 0.7405 0.41492 0.12065 0.0
C1495 C 0.63094 0.47129 0.1331 0.0
C1496 C 0.65096 0.52717 0.12788 0.0
C1497 C 0.57264 0.51682 0.1527 0.0
C1498 C 0.56959 0.48433 0.16691 0.0
C1499 C 0.57877 0.52823 0.17178 0.0
C1500 C 0.57764 0.53516 0.16074 0.0
C1501 C 0.57458 0.50306 0.17489 0.0
C1502 C 0.56918 0.49146 0.15578 0.0
C1503 C 0.572 0.52438 0.14111 0.0
H1504 H 0.62445 0.50419 0.06003 0.0
H1505 H 0.63075 0.49212 0.07932 0.0
H1506 H 0.65429 0.53328 0.05097 0.0
H1507 H 0.69633 0.54039 0.08134 0.0
H1508 H 0.58248 0.54249 0.17798 0.0
H1509 H 0.5807 0.55482 0.15847 0.0
H1510 H 0.57449 0.49854 0.18355 0.0
H1511 H 0.56603 0.47736 0.14946 0.0
C1512 C 0.78937 0.30114 0.36474 0.0
C1513 C 0.80699 0.26181 0.35763 0.0
C1514 C 0.81039 0.286 0.36239 0.0
C1515 C 0.78228 0.25294 0.35546 0.0
C1516 C 0.76457 0.29258 0.36226 0.0
C1517 C 0.76113 0.26829 0.35775 0.0
N1518 N 0.79333 0.32492 0.36876 0.0
C1519 C 0.77334 0.34104 0.37048 0.0
C1520 C 0.74398 0.30893 0.36413 0.0
C1521 C 0.74842 0.3333 0.3682 0.0
Gd1522 Gd 0.86163 0.39495 0.35782 0.0
Gd1523 Gd 0.83554 0.33463 0.3736 0.0
N1524 N 0.83414 0.29537 0.36432 0.0
C1525 C 0.82854 0.24735 0.35505 0.0
C1526 C 0.85522 0.28127 0.36179 0.0
C1527 C 0.85273 0.25716 0.35712 0.0
H1528 H 0.8741 0.28791 0.3636 0.0
H1529 H 0.86952 0.24602 0.35522 0.0
H1530 H 0.8586 0.44602 0.37415 0.0
H1531 H 0.77632 0.35992 0.37359 0.0
H1532 H 0.88145 0.48626 0.37701 0.0
H1533 H 0.82672 0.22865 0.35143 0.0
H1534 H 0.77933 0.23437 0.35185 0.0
H1535 H 0.88722 0.36898 0.335 0.0
H1536 H 0.72465 0.30305 0.36233 0.0
H1537 H 0.73262 0.34615 0.36958 0.0
H1538 H 0.94639 0.48601 0.34924 0.0
H1539 H 0.74221 0.26135 0.35585 0.0
H1540 H 0.94796 0.41632 0.32396 0.0
H1541 H 0.92161 0.37772 0.32193 0.0
N1542 N 0.89353 0.4023 0.34454 0.0
C1543 C 0.90772 0.42363 0.34573 0.0
C1544 C 0.89826 0.38598 0.33606 0.0
C1545 C 0.93278 0.41259 0.32977 0.0
C1546 C 0.91792 0.39082 0.32859 0.0
C1547 C 0.9277 0.42941 0.33839 0.0
H1548 H 0.95722 0.45656 0.33426 0.0
N1549 N 0.88209 0.43407 0.36088 0.0
C1550 C 0.90178 0.44007 0.35417 0.0
C1551 C 0.90812 0.47958 0.36388 0.0
C1552 C 0.91543 0.46294 0.35549 0.0
C1553 C 0.87446 0.45056 0.3689 0.0
C1554 C 0.88743 0.47342 0.37057 0.0
O1555 O 0.82142 0.33674 0.35569 0.0
O1556 O 0.85463 0.3576 0.34736 0.0
O1557 O 0.82203 0.39332 0.35256 0.0
O1558 O 0.84745 0.42363 0.34685 0.0
O1559 O 0.87984 0.32942 0.36954 0.0
O1560 O 0.89384 0.3629 0.35827 0.0
O1561 O 0.88202 0.39853 0.37418 0.0
O1562 O 0.85671 0.36826 0.37282 0.0
O1563 O 0.85427 0.31149 0.38585 0.0
O1564 O 0.81692 0.32719 0.38924 0.0
O1565 O 0.83264 0.40814 0.37237 0.0
O1566 O 0.81613 0.37204 0.38116 0.0
C1567 C 0.83438 0.34212 0.34667 0.0
C1568 C 0.89845 0.34082 0.36359 0.0
C1569 C 0.81526 0.41123 0.3348 0.0
C1570 C 0.79201 0.43226 0.31991 0.0
C1571 C 0.82058 0.39663 0.31611 0.0
C1572 C 0.82698 0.39516 0.32718 0.0
C1573 C 0.80366 0.41527 0.31244 0.0
C1574 C 0.79716 0.42898 0.33121 0.0
C1575 C 0.82496 0.41306 0.34606 0.0
C1576 C 0.93561 0.46861 0.34833 0.0
C1577 C 0.94176 0.45185 0.3398 0.0
H1578 H 0.9181 0.49733 0.36516 0.0
C1579 C 0.87331 0.37902 0.37913 0.0
C1580 C 0.81697 0.39767 0.38001 0.0
C1581 C 0.82556 0.2861 0.39595 0.0
C1582 C 0.82763 0.23978 0.39444 0.0
C1583 C 0.80428 0.26001 0.40946 0.0
C1584 C 0.81097 0.28395 0.40551 0.0
C1585 C 0.81291 0.23811 0.40414 0.0
C1586 C 0.83261 0.26411 0.3902 0.0
C1587 C 0.83444 0.3112 0.3923 0.0
H1588 H 0.82986 0.38421 0.31025 0.0
H1589 H 0.84186 0.3823 0.32972 0.0
H1590 H 0.801 0.41699 0.30368 0.0
H1591 H 0.7883 0.44106 0.3373 0.0
H1592 H 0.79324 0.2584 0.41694 0.0
H1593 H 0.80512 0.30073 0.41001 0.0
H1594 H 0.80886 0.22011 0.40801 0.0
H1595 H 0.84292 0.26618 0.38262 0.0
C1596 C 1.03678 0.54002 0.60538 0.0
C1597 C 0.07454 0.56235 0.5992 0.0
C1598 C 0.05155 0.56188 0.60521 0.0
C1599 C 0.08183 0.54101 0.59303 0.0
C1600 C 0.04461 0.51818 0.59959 0.0
C1601 C 0.06695 0.51896 0.59325 0.0
N1602 N 1.0148 0.54003 0.61132 0.0
C1603 C 1.00096 0.51824 0.61257 0.0
C1604 C 1.02984 0.49614 0.6004 0.0
C1605 C 1.0081 0.4961 0.60702 0.0
Gd1606 Gd 0.9464 0.60947 0.60929 0.0
Gd1607 Gd 1.0046 0.57806 0.62044 0.0
N1608 N 0.0442 0.58213 0.61141 0.0
C1609 C 0.08997 0.58394 0.59984 0.0
C1610 C 0.06019 0.6024 0.6127 0.0
C1611 C 0.08297 0.60384 0.60678 0.0
H1612 H 0.05594 0.61726 0.6185 0.0
H1613 H 0.09533 0.62013 0.60772 0.0
H1614 H 0.90104 0.61005 0.62916 0.0
H1615 H 0.98414 0.51805 0.61766 0.0
H1616 H 0.86861 0.63885 0.63643 0.0
H1617 H 0.10777 0.58501 0.59536 0.0
H1618 H 0.09929 0.54114 0.58828 0.0
H1619 H 0.9652 0.63566 0.58546 0.0
H1620 H 1.03524 0.47898 0.59607 0.0
H1621 H 0.99681 0.47902 0.60784 0.0
H1622 H 0.87147 0.71095 0.61243 0.0
H1623 H 0.07309 0.50248 0.58862 0.0
H1624 H 0.9279 0.70715 0.58154 0.0
H1625 H 0.95821 0.67465 0.57485 0.0
N1626 N 0.93918 0.64557 0.5982 0.0
C1627 C 0.92203 0.66289 0.60183 0.0
C1628 C 0.95175 0.64939 0.5885 0.0
C1629 C 0.93085 0.68994 0.58625 0.0
C1630 C 0.94792 0.67163 0.58244 0.0
C1631 C 0.91746 0.68562 0.596 0.0
H1632 H 0.89577 0.72067 0.59566 0.0
N1633 N 0.91281 0.6349 0.61628 0.0
C1634 C 0.90843 0.65741 0.6112 0.0
C1635 C 0.87555 0.66784 0.62435 0.0
C1636 C 0.88977 0.67453 0.61509 0.0
C1637 C 0.89832 0.62801 0.62513 0.0
C1638 C 0.87973 0.64438 0.62934 0.0
O1639 O 0.99082 0.56496 0.60362 0.0
O1640 O 0.98134 0.60345 0.59751 0.0
O1641 O 0.94093 0.57205 0.60222 0.0
O1642 O 0.91364 0.60224 0.59888 0.0
O1643 O 1.01191 0.62347 0.61682 0.0
O1644 O 0.97613 0.64221 0.60911 0.0
O1645 O 0.95101 0.61356 0.62769 0.0
O1646 O 0.99422 0.61356 0.62869 0.0
O1647 O 1.03857 0.56733 0.62943 0.0
O1648 O 1.00158 0.56304 0.637 0.0
O1649 O 0.93339 0.58187 0.62365 0.0
O1650 O 0.96798 0.5562 0.6272 0.0
C1651 C 0.99124 0.58087 0.59539 0.0
C1652 C 1.00009 0.64447 0.61256 0.0
C1653 C 0.921 0.5722 0.58485 0.0
C1654 C 0.90155 0.54992 0.5694 0.0
C1655 C 0.9409 0.57358 0.56688 0.0
C1656 C 0.94003 0.58127 0.57781 0.0
C1657 C 0.92193 0.55784 0.5627 0.0
C1658 C 0.90161 0.55673 0.58061 0.0
C1659 C 0.92098 0.57913 0.59656 0.0
C1660 C 0.88561 0.69752 0.60952 0.0
C1661 C 0.89943 0.70305 0.59998 0.0
H1662 H 0.86108 0.68046 0.62761 0.0
C1663 C 0.97217 0.61999 0.63265 0.0
C1664 C 0.94311 0.56131 0.62866 0.0
C1665 C 1.0347 0.57825 0.64795 0.0
C1666 C 0.04956 0.61862 0.65533 0.0
C1667 C 0.04257 0.58239 0.66743 0.0
C1668 C 1.03503 0.56764 0.65848 0.0
C1669 C 0.0499 0.60767 0.66589 0.0
C1670 C 0.04165 0.60371 0.64644 0.0
C1671 C 1.02613 0.56336 0.63851 0.0
H1672 H 0.95607 0.58021 0.56159 0.0
H1673 H 0.95416 0.59438 0.58072 0.0
H1674 H 0.9229 0.55237 0.55414 0.0
H1675 H 0.88616 0.55088 0.58594 0.0
H1676 H 0.04296 0.57415 0.67557 0.0
H1677 H 1.02942 0.54808 0.65976 0.0
H1678 H 0.0564 0.61837 0.67294 0.0
H1679 H 1.04082 0.6119 0.6383 0.0
C1680 C 0.78673 0.29912 0.72537 0.0
C1681 C 0.76365 0.26235 0.73208 0.0
C1682 C 0.76415 0.28539 0.72615 0.0
C1683 C 0.78568 0.25389 0.73751 0.0
C1684 C 0.80911 0.29018 0.7305 0.0
C1685 C 0.80836 0.26772 0.7367 0.0
N1686 N 0.78676 0.32139 0.71966 0.0
C1687 C 0.80895 0.3345 0.71808 0.0
C1688 C 0.83164 0.30409 0.72928 0.0
C1689 C 0.83159 0.3262 0.72295 0.0
Gd1690 Gd 0.72115 0.39177 0.72511 0.0
Gd1691 Gd 0.74769 0.3333 0.71163 0.0
N1692 N 0.74309 0.29389 0.72072 0.0
C1693 C 0.74121 0.24806 0.73214 0.0
C1694 C 0.72183 0.27894 0.7201 0.0
C1695 C 0.72038 0.25618 0.72596 0.0
H1696 H 0.70617 0.28387 0.71482 0.0
H1697 H 0.70333 0.24468 0.72554 0.0
H1698 H 0.72402 0.44107 0.70742 0.0
H1699 H 0.80927 0.35158 0.71321 0.0
H1700 H 0.6968 0.47605 0.70111 0.0
H1701 H 0.74008 0.23028 0.73659 0.0
H1702 H 0.78553 0.23636 0.74217 0.0
H1703 H 0.69471 0.37129 0.7486 0.0
H1704 H 0.8492 0.29782 0.73309 0.0
H1705 H 0.849 0.33688 0.72184 0.0
H1706 H 0.62297 0.4713 0.72428 0.0
H1707 H 0.8253 0.26073 0.7408 0.0
H1708 H 0.62394 0.40994 0.75337 0.0
H1709 H 0.65557 0.37791 0.75931 0.0
N1710 N 0.68537 0.39887 0.73644 0.0
C1711 C 0.66864 0.41706 0.73328 0.0
C1712 C 0.68118 0.38531 0.74585 0.0
C1713 C 0.64111 0.40705 0.74858 0.0
C1714 C 0.65894 0.389 0.75198 0.0
C1715 C 0.646 0.42162 0.73922 0.0
H1716 H 0.61175 0.4446 0.74016 0.0
N1717 N 0.69747 0.42759 0.71931 0.0
C1718 C 0.6749 0.43193 0.72439 0.0
C1719 C 0.66658 0.46773 0.71251 0.0
C1720 C 0.65876 0.452 0.72112 0.0
C1721 C 0.70568 0.44364 0.71123 0.0
C1722 C 0.6903 0.46369 0.70763 0.0
O1723 O 0.76311 0.34428 0.72867 0.0
O1724 O 0.72607 0.3556 0.73596 0.0
O1725 O 0.75904 0.39439 0.73211 0.0
O1726 O 0.73014 0.42256 0.73626 0.0
O1727 O 0.70275 0.32784 0.71554 0.0
O1728 O 0.6868 0.36321 0.72456 0.0
O1729 O 0.71816 0.39211 0.70678 0.0
O1730 O 0.71291 0.35002 0.70395 0.0
O1731 O 0.75463 0.2989 0.70235 0.0
O1732 O 0.76092 0.33533 0.69471 0.0
O1733 O 0.75043 0.40466 0.71108 0.0
O1734 O 0.77139 0.36867 0.70505 0.0
C1735 C 0.74823 0.3442 0.73733 0.0
C1736 C 0.68298 0.33995 0.72049 0.0
C1737 C 0.76148 0.4135 0.74958 0.0
C1738 C 0.78673 0.43216 0.76429 0.0
C1739 C 0.761 0.39462 0.76773 0.0
C1740 C 0.75227 0.39518 0.75691 0.0
C1741 C 0.77817 0.41299 0.77143 0.0
C1742 C 0.77866 0.43191 0.75328 0.0
C1743 C 0.75318 0.41414 0.7381 0.0
C1744 C 0.63571 0.45611 0.72672 0.0
C1745 C 0.62933 0.44092 0.73576 0.0
H1746 H 0.65476 0.48335 0.70975 0.0
C1747 C 0.71226 0.37325 0.70033 0.0
C1748 C 0.7691 0.39406 0.70498 0.0
C1749 C 0.74095 0.30389 0.68423 0.0
C1750 C 0.69905 0.28922 0.67831 0.0
C1751 C 0.73217 0.29877 0.66487 0.0
C1752 C 0.74897 0.30528 0.6733 0.0
C1753 C 0.70747 0.29058 0.66733 0.0
C1754 C 0.71592 0.29642 0.68667 0.0
C1755 C 0.75812 0.31105 0.69319 0.0
H1756 H 0.754 0.38027 0.77333 0.0
H1757 H 0.73822 0.38154 0.75429 0.0
H1758 H 0.78387 0.41283 0.77998 0.0
H1759 H 0.78539 0.44633 0.74763 0.0
H1760 H 0.73842 0.2997 0.65641 0.0
H1761 H 0.76812 0.31139 0.67129 0.0
H1762 H 0.69531 0.28471 0.66063 0.0
H1763 H 0.70952 0.29646 0.69512 0.0
C1764 C 1.02105 0.52045 0.97598 0.0
C1765 C 0.05905 0.5019 0.984 0.0
C1766 C 1.03586 0.49923 0.97826 0.0
C1767 C 0.06708 0.5261 0.98738 0.0
C1768 C 1.02883 0.54472 0.97952 0.0
C1769 C 0.05201 0.54744 0.98515 0.0
N1770 N 0.99825 0.51709 0.97085 0.0
C1771 C 0.98266 0.53731 0.96879 0.0
C1772 C 1.01287 0.56549 0.97747 0.0
C1773 C 0.98968 0.56175 0.9721 0.0
Gd1774 Gd 0.92709 0.44863 0.97854 0.0
Gd1775 Gd 0.98957 0.47578 0.96457 0.0
N1776 N 1.02735 0.47596 0.97505 0.0
C1777 C 0.0735 0.48017 0.98621 0.0
C1778 C 0.04168 0.45477 0.97704 0.0
C1779 C 0.06479 0.45653 0.98269 0.0
H1780 H 1.036 0.43643 0.97405 0.0
H1781 H 0.07605 0.43965 0.9842 0.0
H1782 H 0.87529 0.45848 0.96308 0.0
H1783 H 0.96474 0.5348 0.96463 0.0
H1784 H 0.835 0.43679 0.95858 0.0
H1785 H 0.09145 0.48144 0.99056 0.0
H1786 H 0.08485 0.52848 0.99178 0.0
H1787 H 0.95155 0.41745 1.00015 0.0
H1788 H 1.01818 0.58444 0.98006 0.0
H1789 H 0.97721 0.5777 0.97048 0.0
H1790 H 0.83583 0.36216 0.98125 0.0
H1791 H 0.05832 0.56595 0.98791 0.0
H1792 H 0.90482 0.35276 1.00676 0.0
H1793 H 0.94267 0.37897 1.01098 0.0
N1794 N 0.91924 0.41309 0.98976 0.0
C1795 C 0.89812 0.39926 0.98749 0.0
C1796 C 0.9349 0.40632 0.99823 0.0
C1797 C 0.90865 0.36965 1.00195 0.0
C1798 C 0.92999 0.38443 1.00438 0.0
C1799 C 0.89222 0.37715 0.99351 0.0
H1800 H 0.8651 0.34647 0.99553 0.0
N1801 N 0.88768 0.42991 0.97423 0.0
C1802 C 0.88177 0.40799 0.97946 0.0
C1803 C 0.84209 0.40534 0.96948 0.0
C1804 C 0.85888 0.395 0.97721 0.0
C1805 C 0.87093 0.44063 0.967 0.0
C1806 C 0.84805 0.4284 0.96443 0.0
O1807 O 0.98179 0.49029 0.98194 0.0
O1808 O 0.9646 0.45422 0.98906 0.0
O1809 O 0.92647 0.48694 0.98513 0.0
O1810 O 0.89917 0.45864 0.99088 0.0
O1811 O 0.99401 0.43091 0.96833 0.0
O1812 O 0.95821 0.41552 0.97782 0.0
O1813 O 0.92245 0.43563 0.96074 0.0
O1814 O 0.95745 0.45192 0.96451 0.0
O1815 O 1.0188 0.46216 0.95358 0.0
O1816 O 0.99573 0.49444 0.94881 0.0
O1817 O 0.91653 0.48046 0.96496 0.0
O1818 O 0.95333 0.49533 0.95611 0.0
C1819 C 0.97795 0.4756 0.99052 0.0
C1820 C 0.98139 0.4115 0.97332 0.0
C1821 C 0.91291 0.4892 1.00363 0.0
C1822 C 0.90211 0.51622 1.01925 0.0
C1823 C 0.93458 0.48348 1.02104 0.0
C1824 C 0.93019 0.47587 1.01025 0.0
C1825 C 0.92085 0.50367 1.02551 0.0
C1826 C 0.89877 0.50923 1.00817 0.0
C1827 C 0.90845 0.48146 0.9922 0.0
C1828 C 0.85324 0.37251 0.98292 0.0
C1829 C 0.86989 0.36359 0.99105 0.0
H1830 H 0.8243 0.39596 0.96751 0.0
C1831 C 0.94446 0.44097 0.95687 0.0
C1832 C 0.92766 0.49567 0.95736 0.0
C1833 C 1.03954 0.49543 0.9442 0.0
C1834 C 0.08579 0.50002 0.9463 0.0
C1835 C 0.0626 0.52395 0.93225 0.0
C1836 C 1.03981 0.51249 0.93541 0.0
C1837 C 0.08546 0.5174 0.93744 0.0
C1838 C 0.06216 0.49079 0.95004 0.0
C1839 C 1.01616 0.48117 0.94683 0.0
H1840 H 0.94825 0.47334 1.02605 0.0
H1841 H 0.94015 0.45949 1.0071 0.0
H1842 H 0.92433 0.50891 1.03397 0.0
H1843 H 0.8843 0.51841 1.00321 0.0
H1844 H 0.06278 0.53701 0.92539 0.0
H1845 H 1.02253 0.51661 0.93088 0.0
H1846 H 0.10273 0.52519 0.934 0.0
H1847 H 0.06125 0.47882 0.95719 0.0
C1848 C 0.79474 0.78527 0.22395 0.0
C1849 C 0.81196 0.82256 0.23298 0.0
C1850 C 0.81562 0.79976 0.2271 0.0
C1851 C 0.78714 0.83082 0.23542 0.0
C1852 C 0.76983 0.79315 0.22668 0.0
C1853 C 0.76614 0.81616 0.23228 0.0
N1854 N 0.79896 0.76269 0.21881 0.0
C1855 C 0.77906 0.74719 0.21616 0.0
C1856 C 0.74938 0.77741 0.22389 0.0
C1857 C 0.75404 0.75428 0.21868 0.0
Gd1858 Gd 0.86868 0.69226 0.22668 0.0
Gd1859 Gd 0.84126 0.75503 0.21332 0.0
N1860 N 0.83947 0.79105 0.22478 0.0
C1861 C 0.83336 0.83627 0.23635 0.0
C1862 C 0.86039 0.80456 0.22798 0.0
C1863 C 0.85765 0.82715 0.23389 0.0
H1864 H 0.87934 0.79854 0.22587 0.0
H1865 H 0.87433 0.83775 0.23639 0.0
H1866 H 0.86194 0.64166 0.21043 0.0
H1867 H 0.78215 0.72935 0.21207 0.0
H1868 H 0.88492 0.60206 0.20599 0.0
H1869 H 0.83135 0.85388 0.24087 0.0
H1870 H 0.784 0.84836 0.23987 0.0
H1871 H 0.89763 0.71636 0.24906 0.0
H1872 H 0.72996 0.7828 0.22585 0.0
H1873 H 0.73834 0.74192 0.21655 0.0
H1874 H 0.95693 0.60263 0.23032 0.0
H1875 H 0.74713 0.82258 0.23437 0.0
H1876 H 0.96235 0.67026 0.25656 0.0
H1877 H 0.93512 0.70752 0.26051 0.0
N1878 N 0.90337 0.68456 0.23853 0.0
C1879 C 0.91785 0.6638 0.23637 0.0
C1880 C 0.90914 0.69996 0.24721 0.0
C1881 C 0.94587 0.67406 0.25146 0.0
C1882 C 0.93051 0.69507 0.25373 0.0
C1883 C 0.9395 0.65796 0.24276 0.0
H1884 H 0.97051 0.63129 0.24517 0.0
N1885 N 0.88889 0.65366 0.22236 0.0
C1886 C 0.91034 0.64781 0.22801 0.0
C1887 C 0.91495 0.6089 0.21768 0.0
C1888 C 0.92406 0.62533 0.22581 0.0
C1889 C 0.87938 0.63727 0.21471 0.0
C1890 C 0.89237 0.61481 0.21217 0.0
O1891 O 0.82652 0.74728 0.2307 0.0
O1892 O 0.8618 0.72829 0.23797 0.0
O1893 O 0.82989 0.69128 0.23293 0.0
O1894 O 0.8576 0.66236 0.2378 0.0
O1895 O 0.88597 0.75964 0.21726 0.0
O1896 O 0.90161 0.72353 0.22638 0.0
O1897 O 0.88349 0.68894 0.20914 0.0
O1898 O 0.86509 0.72293 0.21264 0.0
O1899 O 0.85769 0.78433 0.20312 0.0
O1900 O 0.82292 0.766 0.19798 0.0
O1901 O 0.83798 0.6822 0.21251 0.0
O1902 O 0.82223 0.71937 0.20428 0.0
C1903 C 0.8405 0.74198 0.23939 0.0
C1904 C 0.90548 0.7469 0.22213 0.0
C1905 C 0.82654 0.67346 0.25076 0.0
C1906 C 0.8016 0.65621 0.26597 0.0
C1907 C 0.8325 0.68992 0.26915 0.0
C1908 C 0.83921 0.68955 0.25809 0.0
C1909 C 0.81397 0.67329 0.27311 0.0
C1910 C 0.80757 0.65705 0.25469 0.0
C1911 C 0.83475 0.6717 0.23926 0.0
C1912 C 0.94604 0.61973 0.23193 0.0
C1913 C 0.95376 0.63603 0.24039 0.0
H1914 H 0.92492 0.59144 0.21574 0.0
C1915 C 0.87755 0.71067 0.20519 0.0
C1916 C 0.82244 0.69367 0.20511 0.0
C1917 C 0.82442 0.81111 0.19759 0.0
C1918 C 0.82773 0.85591 0.20265 0.0
C1919 C 0.78615 0.83642 0.20045 0.0
C1920 C 0.79769 0.81321 0.19787 0.0
C1921 C 0.80104 0.85768 0.2029 0.0
C1922 C 0.83914 0.83276 0.19972 0.0
C1923 C 0.83727 0.78609 0.1971 0.0
H1924 H 0.84238 0.70244 0.27476 0.0
H1925 H 0.85474 0.70132 0.25531 0.0
H1926 H 0.8104 0.67302 0.28186 0.0
H1927 H 0.7982 0.64433 0.24898 0.0
H1928 H 0.76558 0.8378 0.20076 0.0
H1929 H 0.7857 0.79681 0.19646 0.0
H1930 H 0.79177 0.87539 0.20503 0.0
H1931 H 0.85974 0.83139 0.19934 0.0
C1932 C 0.55408 0.54943 0.47255 0.0
C1933 C 0.51646 0.5698 0.48009 0.0
C1934 C 0.54039 0.5714 0.47482 0.0
C1935 C 0.50637 0.54594 0.48281 0.0
C1936 C 0.54416 0.52545 0.47543 0.0
C1937 C 0.52015 0.52382 0.48047 0.0
N1938 N 0.57772 0.55165 0.46805 0.0
C1939 C 0.59204 0.53053 0.46593 0.0
C1940 C 0.55883 0.5038 0.47332 0.0
C1941 C 0.58287 0.50638 0.46856 0.0
Gd1942 Gd 0.64988 0.61768 0.47869 0.0
Gd1943 Gd 0.58975 0.59269 0.46245 0.0
N1944 N 0.55072 0.5943 0.47214 0.0
C1945 C 0.50339 0.59223 0.48252 0.0
C1946 C 0.53761 0.6162 0.47428 0.0
C1947 C 0.514 0.6155 0.47959 0.0
H1948 H 0.5447 0.6344 0.4718 0.0
H1949 H 0.50381 0.63296 0.48127 0.0
H1950 H 0.70487 0.60752 0.46558 0.0
H1951 H 0.61054 0.53203 0.46217 0.0
H1952 H 0.74557 0.62972 0.4622 0.0
H1953 H 0.485 0.59179 0.48657 0.0
H1954 H 0.48798 0.54439 0.4868 0.0
H1955 H 0.62169 0.64874 0.49957 0.0
H1956 H 0.55185 0.48505 0.47539 0.0
H1957 H 0.59435 0.48973 0.46688 0.0
H1958 H 0.73884 0.70599 0.48364 0.0
H1959 H 0.51221 0.50556 0.4827 0.0
H1960 H 0.66564 0.71491 0.5069 0.0
H1961 H 0.62801 0.68778 0.51034 0.0
N1962 N 0.65518 0.65372 0.48994 0.0
C1963 C 0.6763 0.66796 0.48818 0.0
C1964 C 0.63828 0.66025 0.49801 0.0
C1965 C 0.66294 0.69777 0.50212 0.0
C1966 C 0.64173 0.68247 0.50412 0.0
C1967 C 0.68077 0.69041 0.49419 0.0
H1968 H 0.70684 0.72175 0.49677 0.0
N1969 N 0.68974 0.63681 0.47566 0.0
C1970 C 0.6942 0.6592 0.48079 0.0
C1971 C 0.73568 0.66192 0.47225 0.0
C1972 C 0.71722 0.67247 0.4792 0.0
C1973 C 0.70815 0.6258 0.46932 0.0
C1974 C 0.73123 0.63831 0.4674 0.0
O1975 O 0.5945 0.57658 0.47987 0.0
O1976 O 0.6108 0.61189 0.48792 0.0
O1977 O 0.64978 0.57992 0.48591 0.0
O1978 O 0.6768 0.60845 0.49153 0.0
O1979 O 0.58611 0.63776 0.46566 0.0
O1980 O 0.61915 0.65128 0.47729 0.0
O1981 O 0.65893 0.62959 0.46121 0.0
O1982 O 0.62159 0.61741 0.46298 0.0
O1983 O 0.56147 0.6055 0.45074 0.0
O1984 O 0.58743 0.57536 0.44628 0.0
O1985 O 0.66195 0.58599 0.4651 0.0
O1986 O 0.62619 0.57132 0.45551 0.0
C1987 C 0.59731 0.59049 0.48878 0.0
C1988 C 0.59738 0.6563 0.47175 0.0
C1989 C 0.66188 0.57945 0.50466 0.0
C1990 C 0.67317 0.55663 0.52142 0.0
C1991 C 0.63802 0.58673 0.52143 0.0
C1992 C 0.64291 0.5925 0.51046 0.0
C1993 C 0.65288 0.56876 0.52687 0.0
C1994 C 0.67711 0.56163 0.51017 0.0
C1995 C 0.66728 0.58586 0.49314 0.0
C1996 C 0.72137 0.69539 0.48482 0.0
C1997 C 0.70315 0.70436 0.4923 0.0
H1998 H 0.75362 0.67151 0.47081 0.0
C1999 C 0.63809 0.62583 0.456 0.0
C2000 C 0.65154 0.57066 0.45731 0.0
C2001 C 0.54366 0.56901 0.44256 0.0
C2002 C 0.4981 0.56132 0.44505 0.0
C2003 C 0.52638 0.52645 0.44038 0.0
C2004 C 0.54718 0.54304 0.4403 0.0
C2005 C 0.50193 0.53546 0.44278 0.0
C2006 C 0.51898 0.57794 0.44467 0.0
C2007 C 0.5656 0.5862 0.44427 0.0
H2008 H 0.62313 0.59671 0.52582 0.0
H2009 H 0.63218 0.60742 0.50656 0.0
H2010 H 0.64905 0.56501 0.53546 0.0
H2011 H 0.69283 0.55278 0.50584 0.0
H2012 H 0.52928 0.50647 0.4387 0.0
H2013 H 0.56602 0.53543 0.43874 0.0
H2014 H 0.4861 0.52229 0.4429 0.0
H2015 H 0.51603 0.59803 0.44613 0.0
C2016 C 0.41322 0.40378 0.23363 0.0
C2017 C 0.42293 0.43793 0.22105 0.0
C2018 C 0.40655 0.41852 0.22476 0.0
C2019 C 0.4468 0.4412 0.22608 0.0
C2020 C 0.43657 0.40776 0.23909 0.0
C2021 C 0.45361 0.42612 0.23509 0.0
N2022 N 0.39614 0.38649 0.2373 0.0
C2023 C 0.40056 0.37356 0.24685 0.0
C2024 C 0.44174 0.39366 0.24857 0.0
C2025 C 0.42348 0.37674 0.25255 0.0
Gd2026 Gd 0.3326 0.32101 0.2133 0.0
Gd2027 Gd 0.3598 0.37938 0.2263 0.0
N2028 N 0.38326 0.41496 0.22023 0.0
C2029 C 0.41447 0.45398 0.21266 0.0
C2030 C 0.37436 0.43149 0.21247 0.0
C2031 C 0.38988 0.45103 0.2085 0.0
H2032 H 0.35548 0.42957 0.20912 0.0
H2033 H 0.38289 0.46373 0.20219 0.0
H2034 H 0.37229 0.27035 0.21626 0.0
H2035 H 0.38681 0.36022 0.24997 0.0
H2036 H 0.37287 0.22968 0.22603 0.0
H2037 H 0.42645 0.46914 0.20958 0.0
H2038 H 0.45979 0.45579 0.22326 0.0
H2039 H 0.2722 0.34268 0.21532 0.0
H2040 H 0.45945 0.39613 0.25301 0.0
H2041 H 0.42707 0.36606 0.25998 0.0
H2042 H 0.28933 0.22288 0.24159 0.0
H2043 H 0.47178 0.42927 0.2391 0.0
H2044 H 0.22896 0.28856 0.23365 0.0
H2045 H 0.23147 0.32898 0.22339 0.0
N2046 N 0.29291 0.3105 0.22108 0.0
C2047 C 0.29169 0.28763 0.22629 0.0
C2048 C 0.27147 0.32497 0.21974 0.0
C2049 C 0.24694 0.29439 0.23008 0.0
C2050 C 0.24829 0.31726 0.22431 0.0
C2051 C 0.26872 0.2792 0.23108 0.0
H2052 H 0.25077 0.24932 0.24055 0.0
N2053 N 0.33514 0.28076 0.22172 0.0
C2054 C 0.31353 0.27269 0.22685 0.0
C2055 C 0.33463 0.23374 0.2322 0.0
C2056 C 0.31279 0.24899 0.23227 0.0
C2057 C 0.35597 0.26521 0.22111 0.0
C2058 C 0.35619 0.24175 0.22647 0.0
O2059 O 0.36425 0.37609 0.20798 0.0
O2060 O 0.36913 0.33383 0.20594 0.0
O2061 O 0.32425 0.28756 0.20359 0.0
O2062 O 0.32056 0.32482 0.19631 0.0
O2063 O 0.33135 0.39237 0.21217 0.0
O2064 O 0.31044 0.35658 0.20613 0.0
O2065 O 0.31736 0.33189 0.23042 0.0
O2066 O 0.35397 0.34453 0.23789 0.0
O2067 O 0.32204 0.38226 0.23353 0.0
O2068 O 0.35059 0.41156 0.23653 0.0
O2069 O 0.37722 0.31436 0.21813 0.0
O2070 O 0.39382 0.35041 0.22639 0.0
C2071 C 0.3758 0.35689 0.20336 0.0
C2072 C 0.313 0.38188 0.20597 0.0
C2073 C 0.34073 0.29341 0.186 0.0
C2074 C 0.38384 0.27988 0.18142 0.0
C2075 C 0.35252 0.28736 0.16699 0.0
C2076 C 0.33423 0.29376 0.17487 0.0
C2077 C 0.37713 0.28024 0.17022 0.0
C2078 C 0.36562 0.28719 0.18916 0.0
C2079 C 0.32242 0.30051 0.19452 0.0
C2080 C 0.29016 0.24094 0.23734 0.0
C2081 C 0.26818 0.25596 0.23672 0.0
H2082 H 0.3348 0.21543 0.23626 0.0
C2083 C 0.33199 0.33269 0.23917 0.0
C2084 C 0.39723 0.32661 0.22289 0.0
C2085 C 0.32046 0.40445 0.25042 0.0
C2086 C 0.29964 0.42901 0.2649 0.0
C2087 C 0.32677 0.39274 0.26942 0.0
C2088 C 0.33182 0.38881 0.25831 0.0
C2089 C 0.31124 0.41292 0.27273 0.0
C2090 C 0.30373 0.42371 0.25369 0.0
C2091 C 0.32783 0.40303 0.23884 0.0
H2092 H 0.34751 0.28746 0.15837 0.0
H2093 H 0.31516 0.29898 0.1723 0.0
H2094 H 0.39053 0.27425 0.16397 0.0
H2095 H 0.37072 0.2877 0.19776 0.0
H2096 H 0.33576 0.38074 0.27551 0.0
H2097 H 0.34502 0.37408 0.25591 0.0
H2098 H 0.30931 0.41632 0.28144 0.0
H2099 H 0.29472 0.43504 0.24737 0.0
C2100 C 0.40332 0.67557 0.98735 0.0
C2101 C 0.36305 0.68072 0.9779 0.0
C2102 C 0.38602 0.66736 0.97961 0.0
C2103 C 0.35834 0.70314 0.98382 0.0
C2104 C 0.39833 0.69755 0.9936 0.0
C2105 C 0.37597 0.71156 0.99165 0.0
N2106 N 0.42442 0.66128 0.98914 0.0
C2107 C 0.44089 0.66739 0.99742 0.0
C2108 C 0.41564 0.70444 1.00181 0.0
C2109 C 0.4369 0.68914 1.00378 0.0
Gd2110 Gd 0.49207 0.60044 0.96212 0.0
Gd2111 Gd 0.4307 0.62609 0.97748 0.0
N2112 N 0.39103 0.64546 0.97418 0.0
C2113 C 0.34523 0.67076 0.97052 0.0
C2114 C 0.37325 0.63505 0.96735 0.0
C2115 C 0.35025 0.64766 0.96531 0.0
H2116 H 0.37696 0.61718 0.96333 0.0
H2117 H 0.33641 0.63953 0.95975 0.0
H2118 H 0.53627 0.64144 0.97252 0.0
H2119 H 0.45744 0.65586 0.99903 0.0
H2120 H 0.57686 0.63931 0.98222 0.0
H2121 H 0.32735 0.68043 0.96898 0.0
H2122 H 0.3409 0.71379 0.98257 0.0
H2123 H 0.47055 0.54015 0.96145 0.0
H2124 H 0.41253 0.7212 1.00679 0.0
H2125 H 0.45023 0.69408 1.01021 0.0
H2126 H 0.59145 0.55042 0.98768 0.0
H2127 H 0.37188 0.72859 0.99632 0.0
H2128 H 0.52746 0.49214 0.97553 0.0
H2129 H 0.48566 0.49756 0.96647 0.0
N2130 N 0.50335 0.55913 0.96766 0.0
C2131 C 0.52654 0.55652 0.97254 0.0
C2132 C 0.48878 0.5383 0.96542 0.0
C2133 C 0.52097 0.51101 0.97332 0.0
C2134 C 0.49732 0.51399 0.96824 0.0
C2135 C 0.53585 0.53239 0.97558 0.0
H2136 H 0.56692 0.51199 0.98332 0.0
N2137 N 0.5302 0.60135 0.97244 0.0
C2138 C 0.54024 0.57828 0.97509 0.0
C2139 C 0.57699 0.59853 0.98322 0.0
C2140 C 0.56379 0.5763 0.98062 0.0
C2141 C 0.54322 0.62309 0.97491 0.0
C2142 C 0.56665 0.622 0.98035 0.0
O2143 O 0.42341 0.63884 0.95992 0.0
O2144 O 0.4597 0.62442 0.96247 0.0
O2145 O 0.51843 0.61703 0.95061 0.0
O2146 O 0.49941 0.58194 0.9464 0.0
O2147 O 0.41929 0.59489 0.96366 0.0
O2148 O 0.4557 0.57973 0.95459 0.0
O2149 O 0.48686 0.58523 0.97967 0.0
O2150 O 0.46898 0.62033 0.98741 0.0
O2151 O 0.43087 0.58775 0.98406 0.0
O2152 O 0.40309 0.61559 0.98985 0.0
O2153 O 0.49558 0.64531 0.96548 0.0
O2154 O 0.46137 0.65957 0.97632 0.0
C2155 C 0.44474 0.63435 0.95521 0.0
C2156 C 0.43014 0.57945 0.95603 0.0
C2157 C 0.54263 0.5864 0.94115 0.0
C2158 C 0.58899 0.58605 0.94358 0.0
C2159 C 0.56905 0.5626 0.92854 0.0
C2160 C 0.54502 0.57098 0.93186 0.0
C2161 C 0.59089 0.57046 0.93417 0.0
C2162 C 0.56445 0.59252 0.94729 0.0
C2163 C 0.51776 0.59759 0.94402 0.0
C2164 C 0.57337 0.55227 0.98345 0.0
C2165 C 0.55943 0.53038 0.98095 0.0
H2166 H 0.59517 0.59779 0.98742 0.0
C2167 C 0.48289 0.59918 0.9885 0.0
C2168 C 0.48364 0.66418 0.97112 0.0
C2169 C 0.41682 0.58484 1.0025 0.0
C2170 C 0.40382 0.55936 1.01829 0.0
C2171 C 0.43912 0.58904 1.01983 0.0
C2172 C 0.43524 0.59676 1.00901 0.0
C2173 C 0.42369 0.57031 1.02444 0.0
C2174 C 0.40101 0.5663 1.00717 0.0
C2175 C 0.41263 0.59284 0.99109 0.0
H2176 H 0.57087 0.5509 0.92128 0.0
H2177 H 0.52841 0.56583 0.92708 0.0
H2178 H 0.60912 0.56517 0.93073 0.0
H2179 H 0.5622 0.60341 0.95471 0.0
H2180 H 0.45367 0.59806 1.02476 0.0
H2181 H 0.44631 0.61229 1.00578 0.0
H2182 H 0.42676 0.56503 1.03293 0.0
H2183 H 0.3857 0.55837 1.00229 0.0
C2184 C 0.16035 0.6489 0.73935 0.0
C2185 C 0.1537 0.61032 0.72893 0.0
C2186 C 0.16666 0.63345 0.73062 0.0
C2187 C 0.13384 0.60336 0.73605 0.0
C2188 C 0.14068 0.64185 0.74664 0.0
C2189 C 0.12732 0.61911 0.74488 0.0
N2190 N 0.17387 0.67054 0.74087 0.0
C2191 C 0.16875 0.68598 0.74962 0.0
C2192 C 0.13521 0.65773 0.75554 0.0
C2193 C 0.14937 0.67986 0.75704 0.0
Gd2194 Gd 0.23065 0.74215 0.71311 0.0
Gd2195 Gd 0.20538 0.68004 0.72771 0.0
N2196 N 0.18602 0.64069 0.72395 0.0
C2197 C 0.16133 0.59473 0.72023 0.0
C2198 C 0.19394 0.62526 0.7156 0.0
C2199 C 0.18165 0.60218 0.71357 0.0
H2200 H 0.20951 0.63079 0.71036 0.0
H2201 H 0.18786 0.59017 0.70687 0.0
H2202 H 0.19113 0.78721 0.72392 0.0
H2203 H 0.1793 0.70321 0.75091 0.0
H2204 H 0.19483 0.828 0.73327 0.0
H2205 H 0.15187 0.57681 0.71865 0.0
H2206 H 0.12359 0.58572 0.73486 0.0
H2207 H 0.29053 0.71843 0.71239 0.0
H2208 H 0.12024 0.65301 0.76132 0.0
H2209 H 0.14536 0.69226 0.76392 0.0
H2210 H 0.2847 0.8407 0.73729 0.0
H2211 H 0.11211 0.61341 0.75038 0.0
H2212 H 0.34085 0.77469 0.72521 0.0
H2213 H 0.33386 0.73256 0.71681 0.0
N2214 N 0.27267 0.75227 0.71814 0.0
C2215 C 0.27611 0.77552 0.72279 0.0
C2216 C 0.29305 0.73688 0.71602 0.0
C2217 C 0.32166 0.76866 0.72323 0.0
C2218 C 0.31778 0.74483 0.71852 0.0
C2219 C 0.30071 0.78426 0.72551 0.0
H2220 H 0.32238 0.81502 0.73272 0.0
N2221 N 0.2312 0.78034 0.72324 0.0
C2222 C 0.25476 0.78989 0.72547 0.0
C2223 C 0.23581 0.82728 0.73362 0.0
C2224 C 0.25765 0.81351 0.73079 0.0
C2225 C 0.20986 0.79383 0.72598 0.0
C2226 C 0.21184 0.81737 0.7312 0.0
O2227 O 0.18519 0.67767 0.71127 0.0
O2228 O 0.21014 0.7081 0.71325 0.0
O2229 O 0.21102 0.7655 0.70123 0.0
O2230 O 0.24936 0.75251 0.6978 0.0
O2231 O 0.23496 0.66861 0.7131 0.0
O2232 O 0.25092 0.7058 0.70497 0.0
O2233 O 0.24526 0.73777 0.73081 0.0
O2234 O 0.21185 0.71652 0.73873 0.0
O2235 O 0.2202 0.65174 0.73877 0.0
O2236 O 0.24536 0.68147 0.73229 0.0
O2237 O 0.18617 0.74643 0.71723 0.0
O2238 O 0.17248 0.71159 0.72774 0.0
C2239 C 0.19377 0.69776 0.70672 0.0
C2240 C 0.2507 0.68007 0.70575 0.0
C2241 C 0.23878 0.79425 0.6924 0.0
C2242 C 0.23251 0.84004 0.6947 0.0
C2243 C 0.26234 0.82361 0.681 0.0
C2244 C 0.25631 0.79877 0.68397 0.0
C2245 C 0.25027 0.84408 0.68615 0.0
C2246 C 0.22793 0.81489 0.69802 0.0
C2247 C 0.23115 0.76806 0.69507 0.0
C2248 C 0.28215 0.82256 0.73324 0.0
C2249 C 0.30362 0.80796 0.73062 0.0
H2250 H 0.23724 0.84553 0.73768 0.0
C2251 C 0.23239 0.73148 0.73973 0.0
C2252 C 0.16756 0.73419 0.72287 0.0
C2253 C 0.25396 0.66471 0.75002 0.0
C2254 C 0.28382 0.64919 0.76387 0.0
C2255 C 0.2516 0.68069 0.76864 0.0
C2256 C 0.24203 0.67976 0.75798 0.0
C2257 C 0.27224 0.66543 0.77162 0.0
C2258 C 0.275 0.64972 0.75294 0.0
C2259 C 0.24289 0.6621 0.73903 0.0
H2260 H 0.27571 0.82703 0.6744 0.0
H2261 H 0.26509 0.7831 0.67961 0.0
H2262 H 0.25418 0.86286 0.683 0.0
H2263 H 0.21516 0.81118 0.70476 0.0
H2264 H 0.24231 0.69242 0.77475 0.0
H2265 H 0.2249 0.69018 0.75603 0.0
H2266 H 0.27806 0.66535 0.78014 0.0
H2267 H 0.28369 0.63763 0.74679 0.0
C2268 C 0.17454 0.41154 0.4827 0.0
C2269 C 0.21203 0.40572 0.47141 0.0
C2270 C 0.19052 0.42012 0.47453 0.0
C2271 C 0.21651 0.38205 0.47637 0.0
C2272 C 0.17944 0.38826 0.48803 0.0
C2273 C 0.20023 0.37333 0.48468 0.0
N2274 N 0.15488 0.42662 0.4858 0.0
C2275 C 0.14006 0.4201 0.4946 0.0
C2276 C 0.16367 0.38101 0.49674 0.0
C2277 C 0.14405 0.39714 0.50011 0.0
Gd2278 Gd 0.08938 0.48901 0.46097 0.0
Gd2279 Gd 0.14801 0.46404 0.47555 0.0
N2280 N 0.18581 0.44323 0.47007 0.0
C2281 C 0.22875 0.41586 0.46361 0.0
C2282 C 0.20275 0.45372 0.46285 0.0
C2283 C 0.22422 0.44011 0.45941 0.0
H2284 H 0.19978 0.47254 0.45961 0.0
H2285 H 0.23732 0.44838 0.45356 0.0
H2286 H 1.04109 0.44781 0.4675 0.0
H2287 H 0.12457 0.43216 0.49717 0.0
H2288 H 1.00293 0.44762 0.47896 0.0
H2289 H 0.24548 0.40541 0.46099 0.0
H2290 H 0.23282 0.37063 0.47403 0.0
H2291 H 0.11009 0.54993 0.46129 0.0
H2292 H 0.16678 0.36326 0.50105 0.0
H2293 H 0.13192 0.39187 0.50693 0.0
H2294 H 0.99558 0.53302 0.49194 0.0
H2295 H 0.20421 0.3553 0.48861 0.0
H2296 H 0.05774 0.59365 0.48034 0.0
H2297 H 0.09668 0.59086 0.469 0.0
N2298 N 0.07921 0.52917 0.46828 0.0
C2299 C 0.05705 0.53049 0.47412 0.0
C2300 C 0.09305 0.55063 0.4662 0.0
C2301 C 0.06341 0.57552 0.47691 0.0
C2302 C 0.08547 0.574 0.47055 0.0
C2303 C 0.04889 0.55367 0.47877 0.0
H2304 H 1.02033 0.57194 0.48891 0.0
N2305 N 0.05115 0.48616 0.47119 0.0
C2306 C 0.04306 0.50833 0.47585 0.0
C2307 C 1.00644 0.48689 0.48356 0.0
C2308 C 1.02059 0.50915 0.48223 0.0
C2309 C 1.03649 0.46477 0.47199 0.0
C2310 C 1.01426 0.46471 0.4783 0.0
O2311 O 0.15089 0.46138 0.45725 0.0
O2312 O 0.10909 0.45527 0.45382 0.0
O2313 O 0.05353 0.4926 0.45234 0.0
O2314 O 0.08848 0.50222 0.44402 0.0
O2315 O 0.1605 0.49568 0.46235 0.0
O2316 O 0.12462 0.51119 0.45352 0.0
O2317 O 0.10015 0.50478 0.478 0.0
O2318 O 0.11058 0.46805 0.48562 0.0
O2319 O 0.15001 0.50096 0.48346 0.0
O2320 O 0.17692 0.47128 0.48789 0.0
O2321 O 0.08438 0.44436 0.46468 0.0
O2322 O 0.11972 0.42944 0.47415 0.0
C2323 C 0.13257 0.45599 0.4504 0.0
C2324 C 0.14997 0.51164 0.45491 0.0
C2325 C 0.05748 0.47994 0.43399 0.0
C2326 C 1.04059 0.43908 0.42789 0.0
C2327 C 0.05436 0.47084 0.41457 0.0
C2328 C 0.06085 0.48739 0.42306 0.0
C2329 C 0.04404 0.447 0.41693 0.0
C2330 C 0.04805 0.45556 0.43635 0.0
C2331 C 0.06434 0.49721 0.44297 0.0
C2332 C 1.0127 0.53214 0.48697 0.0
C2333 C 1.02675 0.55433 0.48522 0.0
H2334 H 0.98911 0.48678 0.4884 0.0
C2335 C 0.09912 0.49015 0.48672 0.0
C2336 C 0.0967 0.42508 0.46981 0.0
C2337 C 0.16417 0.49969 0.50182 0.0
C2338 C 0.17614 0.52325 0.51828 0.0
C2339 C 0.14106 0.49315 0.51884 0.0
C2340 C 0.14533 0.48704 0.50785 0.0
C2341 C 0.15625 0.51123 0.52403 0.0
C2342 C 0.17962 0.5177 0.50706 0.0
C2343 C 0.16817 0.49391 0.49013 0.0
H2344 H 0.05685 0.4767 0.40612 0.0
H2345 H 0.06849 0.50595 0.42111 0.0
H2346 H 1.03806 0.4352 0.41013 0.0
H2347 H 0.04646 0.44946 0.44481 0.0
H2348 H 0.1262 0.48356 0.52339 0.0
H2349 H 0.13395 0.47244 0.50409 0.0
H2350 H 0.15277 0.51541 0.5326 0.0
H2351 H 0.19493 0.52657 0.50248 0.0
C2352 C 0.41533 0.66303 0.34915 0.0
C2353 C 0.42229 0.62493 0.35983 0.0
C2354 C 0.40737 0.64637 0.35714 0.0
C2355 C 0.4459 0.62126 0.35463 0.0
C2356 C 0.43855 0.65896 0.34357 0.0
C2357 C 0.45403 0.63827 0.34651 0.0
N2358 N 0.3997 0.68254 0.34645 0.0
C2359 C 0.40564 0.69806 0.33781 0.0
C2360 C 0.4452 0.67544 0.33504 0.0
C2361 C 0.42851 0.69491 0.33207 0.0
Gd2362 Gd 0.3373 0.74464 0.37286 0.0
Gd2363 Gd 0.36287 0.68847 0.35734 0.0
N2364 N 0.38431 0.65036 0.36185 0.0
C2365 C 0.4127 0.60749 0.36744 0.0
C2366 C 0.37434 0.63268 0.36886 0.0
C2367 C 0.38847 0.61124 0.37187 0.0
H2368 H 0.35555 0.635 0.37228 0.0
H2369 H 0.3806 0.59758 0.37757 0.0
H2370 H 0.37858 0.79416 0.36988 0.0
H2371 H 0.39312 0.71328 0.33541 0.0
H2372 H 0.37996 0.83523 0.36049 0.0
H2373 H 0.42356 0.5908 0.36973 0.0
H2374 H 0.45773 0.60504 0.35664 0.0
H2375 H 0.27789 0.72301 0.36932 0.0
H2376 H 0.46287 0.67299 0.33055 0.0
H2377 H 0.43326 0.70754 0.32536 0.0
H2378 H 0.29641 0.84501 0.34524 0.0
H2379 H 0.47203 0.63494 0.34238 0.0
H2380 H 0.23535 0.77909 0.35162 0.0
H2381 H 0.23739 0.73758 0.36108 0.0
N2382 N 0.29862 0.75575 0.36435 0.0
C2383 C 0.29756 0.77927 0.35972 0.0
C2384 C 0.27716 0.74116 0.36521 0.0
C2385 C 0.25312 0.77288 0.35528 0.0
C2386 C 0.25422 0.74937 0.36057 0.0
C2387 C 0.27491 0.78818 0.35481 0.0
H2388 H 0.25756 0.81899 0.34568 0.0
N2389 N 0.34104 0.78498 0.3645 0.0
C2390 C 0.31956 0.79395 0.35952 0.0
C2391 C 0.34149 0.8326 0.35449 0.0
C2392 C 0.3193 0.81793 0.35434 0.0
C2393 C 0.3623 0.7999 0.36513 0.0
C2394 C 0.36297 0.82364 0.36001 0.0
O2395 O 0.36678 0.68396 0.37543 0.0
O2396 O 0.37007 0.72503 0.38127 0.0
O2397 O 0.33824 0.77608 0.38446 0.0
O2398 O 0.3114 0.74544 0.38664 0.0
O2399 O 0.33225 0.67383 0.37061 0.0
O2400 O 0.31655 0.70847 0.38002 0.0
O2401 O 0.32328 0.73721 0.35514 0.0
O2402 O 0.35989 0.72628 0.3475 0.0
O2403 O 0.35383 0.66033 0.34503 0.0
O2404 O 0.32526 0.6883 0.34988 0.0
O2405 O 0.3823 0.75003 0.36995 0.0
O2406 O 0.39735 0.71647 0.35942 0.0
C2407 C 0.37217 0.70063 0.38301 0.0
C2408 C 0.31643 0.68339 0.37832 0.0
C2409 C 0.32744 0.76342 0.40257 0.0
C2410 C 0.3584 0.75812 0.41732 0.0
C2411 C 0.3129 0.75892 0.42134 0.0
C2412 C 0.30755 0.76229 0.41023 0.0
C2413 C 0.3381 0.75705 0.4249 0.0
C2414 C 0.35271 0.76076 0.4061 0.0
C2415 C 0.3213 0.76573 0.39088 0.0
C2416 C 0.29688 0.82668 0.34929 0.0
C2417 C 0.27473 0.8119 0.34956 0.0
H2418 H 0.34204 0.85109 0.3506 0.0
C2419 C 0.33818 0.73858 0.3465 0.0
C2420 C 0.4017 0.73846 0.36458 0.0
C2421 C 0.32428 0.67305 0.33163 0.0
C2422 C 0.30159 0.65683 0.31562 0.0
C2423 C 0.33103 0.69239 0.31383 0.0
C2424 C 0.33672 0.69085 0.32499 0.0
C2425 C 0.31384 0.67534 0.30912 0.0
C2426 C 0.30635 0.6566 0.327 0.0
C2427 C 0.33119 0.66979 0.3432 0.0
H2428 H 0.29748 0.75821 0.42724 0.0
H2429 H 0.28789 0.76386 0.40759 0.0
H2430 H 0.34156 0.75574 0.43364 0.0
H2431 H 0.36787 0.761 0.40007 0.0
H2432 H 0.34069 0.7062 0.30874 0.0
H2433 H 0.35115 0.70316 0.32837 0.0
H2434 H 0.31116 0.67603 0.30032 0.0
H2435 H 0.29683 0.64302 0.33227 0.0
C2436 C 0.16279 0.64929 0.10171 0.0
C2437 C 0.19961 0.65706 0.11317 0.0
C2438 C 0.17888 0.64167 0.11002 0.0
C2439 C 0.20316 0.68075 0.10809 0.0
C2440 C 0.16681 0.67257 0.09626 0.0
C2441 C 0.18677 0.6885 0.09964 0.0
N2442 N 0.14395 0.63328 0.09858 0.0
C2443 C 0.12923 0.63879 0.08963 0.0
C2444 C 0.15105 0.67883 0.08739 0.0
C2445 C 0.13235 0.66172 0.08399 0.0
Gd2446 Gd 0.08058 0.5702 0.12384 0.0
Gd2447 Gd 0.13835 0.59606 0.10907 0.0
N2448 N 0.17509 0.6185 0.11459 0.0
C2449 C 0.21653 0.64787 0.1211 0.0
C2450 C 0.1923 0.60894 0.12194 0.0
C2451 C 0.21301 0.62357 0.12541 0.0
H2452 H 0.19005 0.59011 0.12527 0.0
H2453 H 0.2263 0.61604 0.13138 0.0
H2454 H 1.0314 0.61104 0.11819 0.0
H2455 H 0.11454 0.62588 0.08699 0.0
H2456 H 0.99245 0.6112 0.10723 0.0
H2457 H 0.23269 0.6591 0.12375 0.0
H2458 H 0.21884 0.69294 0.11045 0.0
H2459 H 0.10161 0.50957 0.12326 0.0
H2460 H 0.15349 0.69654 0.08299 0.0
H2461 H 0.1203 0.66619 0.07705 0.0
H2462 H 0.98515 0.52601 0.09397 0.0
H2463 H 0.19005 0.70655 0.09561 0.0
H2464 H 0.04851 0.46558 0.10474 0.0
H2465 H 0.08806 0.46851 0.11567 0.0
N2466 N 0.07021 0.53011 0.11659 0.0
C2467 C 0.04776 0.52872 0.11099 0.0
C2468 C 0.0843 0.50872 0.11853 0.0
C2469 C 0.05425 0.48373 0.10812 0.0
C2470 C 0.07665 0.48532 0.11425 0.0
C2471 C 1.03947 0.50552 0.10643 0.0
H2472 H 1.01042 0.4872 0.0966 0.0
N2473 N 0.04162 0.5729 0.11416 0.0
C2474 C 1.03347 0.55079 0.10951 0.0
C2475 C 0.9961 0.57209 0.10238 0.0
C2476 C 1.01058 0.54992 0.10342 0.0
C2477 C 1.02667 0.59417 0.11368 0.0
C2478 C 1.00402 0.59419 0.10765 0.0
O2479 O 0.14104 0.59901 0.1274 0.0
O2480 O 0.09908 0.60446 0.13094 0.0
O2481 O 0.04558 0.56618 0.13311 0.0
O2482 O 0.08136 0.55614 0.14064 0.0
O2483 O 0.15189 0.56493 0.12224 0.0
O2484 O 0.11643 0.54862 0.13107 0.0
O2485 O 0.0911 0.55428 0.1068 0.0
O2486 O 0.10092 0.59104 0.09906 0.0
O2487 O 0.16842 0.58959 0.09717 0.0
O2488 O 0.14127 0.55961 0.10082 0.0
O2489 O 0.07497 0.6149 0.12015 0.0
O2490 O 0.10972 0.63038 0.11047 0.0
C2491 C 0.12268 0.60485 0.13417 0.0
C2492 C 0.14176 0.54875 0.12966 0.0
C2493 C 0.05233 0.57945 0.15131 0.0
C2494 C 1.0365 0.62061 0.1574 0.0
C2495 C 0.06013 0.59365 0.16997 0.0
C2496 C 0.06273 0.57524 0.16177 0.0
C2497 C 0.04721 0.61635 0.1678 0.0
C2498 C 1.03911 0.60215 0.14924 0.0
C2499 C 0.05747 0.56165 0.14225 0.0
C2500 C 1.00259 0.52693 0.09872 0.0
C2501 C 1.01694 0.50481 0.10024 0.0
H2502 H 0.97843 0.57216 0.09778 0.0
C2503 C 0.08974 0.56878 0.09805 0.0
C2504 C 0.08682 0.63442 0.11498 0.0
C2505 C 0.15752 0.56184 0.08276 0.0
C2506 C 0.17427 0.5427 0.06599 0.0
C2507 C 0.13451 0.56645 0.06561 0.0
C2508 C 0.13713 0.57189 0.07675 0.0
C2509 C 0.15289 0.55186 0.06024 0.0
C2510 C 0.17614 0.54737 0.07735 0.0
C2511 C 0.16008 0.56705 0.09457 0.0
H2512 H 0.06834 0.59042 0.178 0.0
H2513 H 0.07329 0.55802 0.16351 0.0
H2514 H 0.0452 0.63035 0.17426 0.0
H2515 H 1.03122 0.60591 0.14117 0.0
H2516 H 0.11845 0.57398 0.06107 0.0
H2517 H 0.12339 0.58413 0.08063 0.0
H2518 H 0.15065 0.54823 0.05154 0.0
H2519 H 0.19255 0.5407 0.08193 0.0
C2520 C 0.17068 0.43416 0.84396 0.0
C2521 C 0.16589 0.47611 0.85183 0.0
C2522 C 0.1786 0.45253 0.85125 0.0
C2523 C 0.1444 0.48045 0.84521 0.0
C2524 C 0.14956 0.43865 0.83705 0.0
C2525 C 0.13623 0.46173 0.83784 0.0
N2526 N 0.1843 0.41231 0.8433 0.0
C2527 C 0.17816 0.39437 0.83564 0.0
C2528 C 0.1428 0.42002 0.82942 0.0
C2529 C 0.15729 0.39786 0.82866 0.0
Gd2530 Gd 0.24166 0.34866 0.87378 0.0
Gd2531 Gd 0.21795 0.40714 0.856 0.0
N2532 N 0.19955 0.44778 0.85741 0.0
C2533 C 0.17555 0.49482 0.85884 0.0
C2534 C 0.20968 0.46632 0.86392 0.0
C2535 C 0.19771 0.48997 0.86483 0.0
H2536 H 0.22684 0.46277 0.86854 0.0
H2537 H 0.20561 0.50444 0.87013 0.0
H2538 H 0.2006 0.29964 0.87132 0.0
H2539 H 0.18894 0.37706 0.83493 0.0
H2540 H 0.20107 0.25549 0.86488 0.0
H2541 H 0.16636 0.51319 0.85952 0.0
H2542 H 0.13427 0.49837 0.84559 0.0
H2543 H 0.30124 0.37043 0.87014 0.0
H2544 H 0.12669 0.42271 0.82397 0.0
H2545 H 0.15239 0.38342 0.82271 0.0
H2546 H 0.28804 0.24062 0.8546 0.0
H2547 H 0.11988 0.46546 0.83265 0.0
H2548 H 0.34736 0.30919 0.85834 0.0
H2549 H 0.3431 0.35387 0.86433 0.0
N2550 N 0.28191 0.33548 0.86746 0.0
C2551 C 0.28397 0.31068 0.86445 0.0
C2552 C 0.30284 0.35088 0.86761 0.0
C2553 C 0.32895 0.31629 0.86096 0.0
C2554 C 0.3266 0.34155 0.8643 0.0
C2555 C 0.30749 0.30052 0.86096 0.0
H2556 H 0.32667 0.26702 0.85473 0.0
N2557 N 0.23962 0.30641 0.86757 0.0
C2558 C 0.26209 0.29588 0.86431 0.0
C2559 C 0.24101 0.25589 0.86084 0.0
C2560 C 0.26333 0.27039 0.86077 0.0
C2561 C 0.21802 0.29203 0.86803 0.0
C2562 C 0.21831 0.26673 0.86455 0.0
O2563 O 0.20261 0.41774 0.87268 0.0
O2564 O 0.21814 0.38133 0.87206 0.0
O2565 O 0.22662 0.32804 0.88787 0.0
O2566 O 0.26361 0.34597 0.88871 0.0
O2567 O 0.24792 0.42065 0.87011 0.0
O2568 O 0.2633 0.38552 0.87986 0.0
O2569 O 0.2564 0.34861 0.85582 0.0
O2570 O 0.22345 0.36809 0.84688 0.0
O2571 O 0.23192 0.4327 0.84361 0.0
O2572 O 0.2573 0.40377 0.85051 0.0
O2573 O 0.19696 0.34432 0.86982 0.0
O2574 O 0.1839 0.37686 0.8578 0.0
C2575 C 0.20697 0.39781 0.87835 0.0
C2576 C 0.26334 0.41074 0.878 0.0
C2577 C 0.24043 0.34327 0.90531 0.0
C2578 C 0.21612 0.33895 0.92225 0.0
C2579 C 0.24934 0.37076 0.92091 0.0
C2580 C 0.25433 0.36326 0.9101 0.0
C2581 C 0.23038 0.3586 0.927 0.0
C2582 C 0.22155 0.33114 0.91148 0.0
C2583 C 0.24591 0.33409 0.8941 0.0
C2584 C 0.28675 0.26015 0.85735 0.0
C2585 C 0.30877 0.27516 0.85745 0.0
H2586 H 0.24118 0.23625 0.8582 0.0
C2587 C 0.24382 0.35286 0.84659 0.0
C2588 C 0.17856 0.35554 0.8636 0.0
C2589 C 0.26391 0.4172 0.83206 0.0
C2590 C 0.29066 0.43258 0.81693 0.0
C2591 C 0.25748 0.40072 0.81377 0.0
C2592 C 0.25036 0.40184 0.82477 0.0
C2593 C 0.27703 0.41621 0.80982 0.0
C2594 C 0.28455 0.43158 0.82825 0.0
C2595 C 0.25431 0.42182 0.84319 0.0
H2596 H 0.26008 0.38615 0.92453 0.0
H2597 H 0.26909 0.37305 0.90556 0.0
H2598 H 0.22651 0.36481 0.93532 0.0
H2599 H 0.21104 0.31546 0.90791 0.0
H2600 H 0.24688 0.3888 0.80816 0.0
H2601 H 0.23376 0.3915 0.8275 0.0
H2602 H 0.2802 0.41592 0.80108 0.0
H2603 H 0.29468 0.44285 0.83421 0.0
C2604 C 0.40138 0.42079 0.5963 0.0
C2605 C 0.36198 0.41359 0.60618 0.0
C2606 C 0.38446 0.4277 0.60445 0.0
C2607 C 0.35724 0.39195 0.59976 0.0
C2608 C 0.39647 0.39942 0.58965 0.0
C2609 C 0.37447 0.38487 0.59151 0.0
N2610 N 0.42222 0.43549 0.59463 0.0
C2611 C 0.43872 0.43018 0.58627 0.0
C2612 C 0.41362 0.39357 0.58122 0.0
C2613 C 0.43477 0.40912 0.57949 0.0
Gd2614 Gd 0.48902 0.49771 0.62221 0.0
Gd2615 Gd 0.42833 0.46956 0.60686 0.0
N2616 N 0.38954 0.4488 0.61042 0.0
C2617 C 0.34475 0.42192 0.61418 0.0
C2618 C 0.37246 0.45744 0.61802 0.0
C2619 C 0.34994 0.44406 0.62007 0.0
H2620 H 0.37627 0.47445 0.62263 0.0
H2621 H 0.33661 0.45084 0.62619 0.0
H2622 H 0.53543 0.45739 0.61275 0.0
H2623 H 0.45521 0.44187 0.58484 0.0
H2624 H 0.57631 0.46026 0.60339 0.0
H2625 H 0.32726 0.41163 0.61576 0.0
H2626 H 0.34015 0.38078 0.601 0.0
H2627 H 0.4664 0.55746 0.62269 0.0
H2628 H 0.41056 0.37731 0.57593 0.0
H2629 H 0.44805 0.40489 0.57294 0.0
H2630 H 0.58862 0.54925 0.59743 0.0
H2631 H 0.37043 0.36832 0.58652 0.0
H2632 H 0.52269 0.60638 0.6088 0.0
H2633 H 0.48067 0.60028 0.61759 0.0
N2634 N 0.49994 0.53911 0.61684 0.0
C2635 C 0.52322 0.54206 0.61209 0.0
C2636 C 0.48475 0.55965 0.61885 0.0
C2637 C 0.51657 0.58744 0.61106 0.0
C2638 C 0.4928 0.58406 0.61598 0.0
C2639 C 0.53206 0.56632 0.609 0.0
H2640 H 0.56292 0.58721 0.60138 0.0
N2641 N 0.52806 0.49731 0.61248 0.0
C2642 C 0.5376 0.52055 0.60978 0.0
C2643 C 0.57529 0.50097 0.60208 0.0
C2644 C 0.56135 0.52294 0.60443 0.0
C2645 C 0.54184 0.47585 0.61027 0.0
C2646 C 0.5655 0.47736 0.60504 0.0
O2647 O 0.42473 0.45221 0.6239 0.0
O2648 O 0.45557 0.47657 0.62127 0.0
O2649 O 0.51073 0.47938 0.63501 0.0
O2650 O 0.49736 0.51788 0.6374 0.0
O2651 O 0.41486 0.50001 0.62079 0.0
O2652 O 0.45109 0.51762 0.62922 0.0
O2653 O 0.48476 0.5116 0.60448 0.0
O2654 O 0.46658 0.47626 0.59687 0.0
O2655 O 0.42782 0.50831 0.60076 0.0
O2656 O 0.40052 0.4803 0.59463 0.0
O2657 O 0.49428 0.453 0.61882 0.0
O2658 O 0.46068 0.43781 0.60787 0.0
C2659 C 0.44471 0.46166 0.62824 0.0
C2660 C 0.42533 0.51638 0.62815 0.0
C2661 C 0.53802 0.50745 0.64437 0.0
C2662 C 0.58413 0.50147 0.64286 0.0
C2663 C 0.56599 0.52733 0.65758 0.0
C2664 C 0.54145 0.52237 0.65375 0.0
C2665 C 0.58715 0.51658 0.65235 0.0
C2666 C 0.55939 0.49837 0.63866 0.0
C2667 C 0.51225 0.49991 0.64094 0.0
C2668 C 0.57041 0.5471 0.60152 0.0
C2669 C 0.5558 0.56872 0.60379 0.0
H2670 H 0.59364 0.50203 0.59803 0.0
C2671 C 0.48058 0.49741 0.59575 0.0
C2672 C 0.4829 0.43381 0.6132 0.0
C2673 C 0.41376 0.51196 0.58231 0.0
C2674 C 0.39992 0.53723 0.56658 0.0
C2675 C 0.43677 0.5094 0.56508 0.0
C2676 C 0.43284 0.50104 0.5758 0.0
C2677 C 0.42063 0.52758 0.56051 0.0
C2678 C 0.39715 0.52986 0.57765 0.0
C2679 C 0.40969 0.50329 0.59365 0.0
H2680 H 0.56859 0.53863 0.66492 0.0
H2681 H 0.52517 0.52974 0.65821 0.0
H2682 H 0.60558 0.51928 0.65613 0.0
H2683 H 0.55649 0.4878 0.6312 0.0
H2684 H 0.45186 0.50119 0.56017 0.0
H2685 H 0.44434 0.48574 0.57894 0.0
H2686 H 0.42375 0.5333 0.55208 0.0
H2687 H 0.38127 0.53682 0.58249 0.0
C2688 C 0.2156 0.3564 0.3821 0.0
C2689 C 0.23843 0.35827 0.3882 0.0
C2690 C 0.20046 0.37774 0.38026 0.0
C2691 C 0.19202 0.44418 0.39139 0.0
H2692 H 0.13342 0.41089 0.40428 0.0
C2693 C 0.1191 0.44823 0.43096 0.0
C2694 C 0.13814 0.45471 0.43854 0.0
C2695 C 0.12462 0.44706 0.41974 0.0
C2696 C 0.14905 0.42105 0.4005 0.0
H2697 H 0.26591 0.38561 0.39443 0.0
H2698 H 0.23822 0.4218 0.39261 0.0
H2699 H 0.15792 0.38905 0.39075 0.0
H2700 H 0.17755 0.46652 0.44027 0.0
H2701 H 0.18757 0.46314 0.42097 0.0
H2702 H 0.18388 0.47543 0.40209 0.0
C2703 C 0.23183 0.40396 0.38918 0.0
C2704 C 0.16337 0.40839 0.3926 0.0
C2705 C 0.24758 0.38279 0.39056 0.0
C2706 C 0.16252 0.46101 0.43467 0.0
C2707 C 0.16811 0.45964 0.42351 0.0
C2708 C 0.17762 0.4569 0.39935 0.0
C2709 C 0.20696 0.40111 0.38502 0.0
C2710 C 0.18647 0.41877 0.38875 0.0
C2711 C 0.14944 0.45199 0.41592 0.0
C2712 C 0.15742 0.44441 0.40469 0.0
H2713 H 0.20763 0.33839 0.37965 0.0
H2714 H 0.18209 0.37514 0.37636 0.0
H2715 H 0.20898 0.45328 0.38822 0.0
H2716 H 0.10013 0.44338 0.4337 0.0
H2717 H 0.10972 0.44129 0.41413 0.0
C2718 C 1.01584 0.90724 0.66082 0.0
C2719 C 1.01958 0.92926 0.65459 0.0
C2720 C 0.99309 0.89376 0.65992 0.0
C2721 C 0.92829 0.91131 0.65679 0.0
H2722 H 0.92054 0.84174 0.6661 0.0
C2723 C 0.85657 0.88918 0.68985 0.0
C2724 C 0.86867 0.8764 0.6985 0.0
C2725 C 0.86688 0.88834 0.67927 0.0
C2726 C 0.92174 0.86103 0.66326 0.0
H2727 H 1.00331 0.95334 0.64186 0.0
H2728 H 0.96382 0.92969 0.64029 0.0
H2729 H 0.95706 0.85337 0.65516 0.0
H2730 H 0.90061 0.85264 0.70298 0.0
H2731 H 0.91933 0.85228 0.68494 0.0
H2732 H 0.89451 0.91958 0.66579 0.0
C2733 C 0.97842 0.92285 0.64585 0.0
C2734 C 0.94285 0.86772 0.65699 0.0
C2735 C 1.00111 0.93633 0.64676 0.0
C2736 C 0.89041 0.86188 0.69639 0.0
C2737 C 0.90108 0.86159 0.68595 0.0
C2738 C 0.90711 0.90457 0.66304 0.0
C2739 C 0.97371 0.90219 0.65279 0.0
C2740 C 0.94741 0.89329 0.65458 0.0
C2741 C 0.88986 0.87531 0.6773 0.0
C2742 C 0.90486 0.87975 0.66716 0.0
H2743 H 1.02993 0.90115 0.66677 0.0
H2744 H 0.98991 0.87802 0.66548 0.0
H2745 H 0.9312 0.93124 0.65498 0.0
H2746 H 0.84011 0.90105 0.69137 0.0
H2747 H 0.85771 0.8991 0.6728 0.0
C2748 C 0.38518 0.71492 0.88339 0.0
C2749 C 0.36125 0.7078 0.88773 0.0
C2750 C 0.40459 0.69704 0.88213 0.0
C2751 C 0.42092 0.63112 0.89236 0.0
H2752 H 0.4671 0.67203 0.9097 0.0
C2753 C 0.46993 0.63848 0.93788 0.0
C2754 C 0.44736 0.63169 0.94326 0.0
C2755 C 0.47143 0.63738 0.92642 0.0
C2756 C 0.45515 0.65988 0.90471 0.0
H2757 H 0.33768 0.67499 0.89144 0.0
H2758 H 0.37195 0.64473 0.89062 0.0
H2759 H 0.44569 0.69081 0.89443 0.0
H2760 H 0.40871 0.61827 0.94107 0.0
H2761 H 0.41098 0.61665 0.92123 0.0
H2762 H 0.42872 0.60096 0.90368 0.0
C2763 C 0.37602 0.66401 0.88812 0.0
C2764 C 0.4426 0.67075 0.89581 0.0
C2765 C 0.35626 0.6817 0.88893 0.0
C2766 C 0.42649 0.62327 0.9371 0.0
C2767 C 0.42799 0.62194 0.92571 0.0
C2768 C 0.43339 0.62027 0.90136 0.0
C2769 C 0.40108 0.67198 0.88577 0.0
C2770 C 0.42307 0.65736 0.89036 0.0
C2771 C 0.4502 0.62972 0.92019 0.0
C2772 C 0.44843 0.63548 0.90829 0.0
H2773 H 0.3902 0.73452 0.88195 0.0
H2774 H 0.42323 0.70364 0.87959 0.0
H2775 H 0.40721 0.61973 0.88792 0.0
H2776 H 0.4858 0.64608 0.94247 0.0
H2777 H 0.48866 0.64388 0.9224 0.0
C2778 C 0.67 0.20505 0.19585 0.0
C2779 C 0.69489 0.19582 0.19678 0.0
C2780 C 0.66218 0.21718 0.18627 0.0
C2781 C 0.66806 0.21088 0.15796 0.0
H2782 H 0.61931 0.26613 0.15905 0.0
C2783 C 0.57765 0.18721 0.14136 0.0
C2784 C 0.56129 0.18821 0.15053 0.0
C2785 C 0.59765 0.20454 0.1403 0.0
C2786 C 0.63312 0.25089 0.15843 0.0
H2787 H 0.73096 0.19084 0.18839 0.0
H2788 H 0.71675 0.21095 0.17127 0.0
H2789 H 0.65306 0.26363 0.17275 0.0
H2790 H 0.54993 0.21167 0.16433 0.0
H2791 H 0.58501 0.24043 0.16296 0.0
H2792 H 0.64651 0.19591 0.14477 0.0
C2793 C 0.70375 0.20987 0.17816 0.0
C2794 C 0.65254 0.24959 0.16625 0.0
C2795 C 0.71176 0.19822 0.1879 0.0
C2796 C 0.56276 0.20945 0.15746 0.0
C2797 C 0.58295 0.22645 0.15652 0.0
C2798 C 0.64836 0.21189 0.15029 0.0
C2799 C 0.67893 0.21964 0.17731 0.0
C2800 C 0.66844 0.22815 0.16669 0.0
C2801 C 0.6022 0.22249 0.14862 0.0
C2802 C 0.62883 0.23017 0.15136 0.0
H2803 H 0.65659 0.20302 0.20255 0.0
H2804 H 0.64262 0.22367 0.18569 0.0
H2805 H 0.68046 0.19441 0.15798 0.0
H2806 H 0.57696 0.17155 0.13562 0.0
H2807 H 0.61134 0.20172 0.13376 0.0
C2808 C 0.23767 0.70616 0.19268 0.0
C2809 C 0.2287 0.73124 0.19387 0.0
C2810 C 0.22084 0.68568 0.1932 0.0
C2811 C 0.15356 0.67934 0.18621 0.0
H2812 H 0.1745 0.60915 0.18318 0.0
C2813 C 0.10967 0.62106 0.15258 0.0
C2814 C 0.12857 0.61106 0.14567 0.0
C2815 C 0.11552 0.62787 0.16335 0.0
C2816 C 0.16816 0.62862 0.18412 0.0
H2817 H 0.19502 0.7532 0.19868 0.0
H2818 H 0.16728 0.71776 0.20078 0.0
H2819 H 0.19779 0.6371 0.19561 0.0
H2820 H 0.16795 0.59864 0.14478 0.0
H2821 H 0.17853 0.61168 0.16333 0.0
H2822 H 0.12513 0.67158 0.1743 0.0
C2823 C 0.18691 0.71408 0.19852 0.0
C2824 C 0.18154 0.64466 0.19121 0.0
C2825 C 0.20332 0.73467 0.19745 0.0
C2826 C 0.1531 0.60677 0.14986 0.0
C2827 C 0.15901 0.61374 0.1606 0.0
C2828 C 0.14017 0.66334 0.17924 0.0
C2829 C 0.19479 0.68969 0.19535 0.0
C2830 C 0.17562 0.67072 0.19166 0.0
C2831 C 0.14047 0.62509 0.16736 0.0
C2832 C 0.14852 0.63836 0.17749 0.0
H2833 H 0.25735 0.70222 0.19068 0.0
H2834 H 0.22801 0.66714 0.19092 0.0
H2835 H 0.14813 0.69916 0.18623 0.0
H2836 H 0.09057 0.62445 0.14957 0.0
H2837 H 0.10081 0.63645 0.16837 0.0
C2838 C 0.69955 0.88999 0.40152 0.0
C2839 C 0.69995 0.87196 0.39306 0.0
C2840 C 0.68703 0.88467 0.41139 0.0
C2841 C 0.62971 0.85032 0.41734 0.0
H2842 H 0.6339 0.8909 0.44375 0.0
C2843 C 0.54166 0.90108 0.43103 0.0
C2844 C 0.54696 0.92717 0.4315 0.0
C2845 C 0.56137 0.88335 0.43221 0.0
C2846 C 0.63244 0.87906 0.43651 0.0
H2847 H 0.68763 0.83422 0.38853 0.0
H2848 H 0.6685 0.82399 0.40585 0.0
H2849 H 0.67296 0.87829 0.43432 0.0
H2850 H 0.57651 0.95522 0.43419 0.0
H2851 H 0.61064 0.92485 0.43585 0.0
H2852 H 0.58947 0.85333 0.4187 0.0
C2853 C 0.67769 0.84228 0.40493 0.0
C2854 C 0.65483 0.87183 0.43113 0.0
C2855 C 0.68946 0.84792 0.39498 0.0
C2856 C 0.57187 0.9352 0.43379 0.0
C2857 C 0.59145 0.91764 0.43491 0.0
C2858 C 0.60743 0.85774 0.42264 0.0
C2859 C 0.67466 0.86119 0.41292 0.0
C2860 C 0.65351 0.85929 0.42097 0.0
C2861 C 0.58669 0.89151 0.43375 0.0
C2862 C 0.60856 0.87425 0.43167 0.0
H2863 H 0.70725 0.90883 0.4002 0.0
H2864 H 0.68489 0.89988 0.4173 0.0
H2865 H 0.62779 0.84043 0.40959 0.0
H2866 H 0.52244 0.89444 0.42955 0.0
H2867 H 0.55698 0.86335 0.43141 0.0
C2868 C 0.46257 0.42901 0.64045 0.0
C2869 C 0.45538 0.45425 0.63884 0.0
C2870 C 0.47175 0.42118 0.6506 0.0
C2871 C 0.45235 0.43323 0.67733 0.0
H2872 H 0.48465 0.36717 0.67839 0.0
C2873 C 0.39255 0.34883 0.68753 0.0
C2874 C 0.39297 0.33269 0.67831 0.0
C2875 C 0.41234 0.36593 0.68939 0.0
C2876 C 0.47588 0.38581 0.67854 0.0
H2877 H 0.45274 0.49149 0.64631 0.0
H2878 H 0.46809 0.47764 0.66427 0.0
H2879 H 0.50466 0.40143 0.66814 0.0
H2880 H 0.41467 0.32122 0.66403 0.0
H2881 H 0.44853 0.352 0.66688 0.0
H2882 H 0.42188 0.41691 0.68642 0.0
C2883 C 0.46739 0.46406 0.6576 0.0
C2884 C 0.48747 0.40552 0.67275 0.0
C2885 C 0.45838 0.47192 0.64735 0.0
C2886 C 0.41365 0.33377 0.67107 0.0
C2887 C 0.4334 0.35091 0.67291 0.0
C2888 C 0.44077 0.41359 0.68313 0.0
C2889 C 0.47331 0.43839 0.65944 0.0
C2890 C 0.47363 0.4279 0.67071 0.0
C2891 C 0.43287 0.36734 0.68205 0.0
C2892 C 0.45086 0.38893 0.68244 0.0
H2893 H 0.4604 0.41514 0.63395 0.0
H2894 H 0.47548 0.40111 0.65173 0.0
H2895 H 0.44173 0.45073 0.67634 0.0
H2896 H 0.37678 0.34831 0.69327 0.0
H2897 H 0.41125 0.37853 0.69641 0.0
C2898 C 1.01974 0.14531 0.9443 0.0
C2899 C 1.03546 0.14354 0.93494 0.0
C2900 C 1.00406 0.16631 0.94588 0.0
C2901 C 0.97818 0.22376 0.93188 0.0
H2902 H 0.92009 0.17921 0.92842 0.0
C2903 C 0.91366 0.2338 0.89547 0.0
C2904 C 0.89103 0.21994 0.8947 0.0
C2905 C 0.92771 0.23354 0.90515 0.0
C2906 C 0.9354 0.19263 0.92961 0.0
H2907 H 0.05019 0.16457 0.92101 0.0
H2908 H 1.02113 0.20022 0.92322 0.0
H2909 H 0.95579 0.16519 0.93885 0.0
H2910 H 0.86358 0.19716 0.90349 0.0
H2911 H 0.88698 0.1981 0.92077 0.0
H2912 H 0.9577 0.2511 0.92239 0.0
C2913 C 1.02131 0.18559 0.92947 0.0
C2914 C 0.95621 0.18443 0.9357 0.0
C2915 C 1.03753 0.1648 0.92803 0.0
C2916 C 0.88158 0.20719 0.90389 0.0
C2917 C 0.89508 0.20779 0.91376 0.0
C2918 C 0.9569 0.23238 0.92605 0.0
C2919 C 1.00294 0.18541 0.93789 0.0
C2920 C 0.97862 0.19896 0.93606 0.0
C2921 C 0.91888 0.22019 0.91444 0.0
C2922 C 0.93628 0.21589 0.92395 0.0
H2923 H 1.01739 0.1295 0.94986 0.0
H2924 H 0.99041 0.16595 0.95256 0.0
H2925 H 0.99504 0.23558 0.93227 0.0
H2926 H 0.92098 0.24412 0.88844 0.0
H2927 H 0.94603 0.24291 0.90507 0.0
C2928 C 0.90659 0.80048 0.67913 0.0
C2929 C 0.88903 0.80422 0.67051 0.0
C2930 C 0.92878 0.78667 0.67742 0.0
C2931 C 0.96697 0.75259 0.65672 0.0
H2932 H 0.9532 0.69391 0.6751 0.0
C2933 C 0.94994 0.64636 0.64678 0.0
C2934 C 0.97215 0.63992 0.64105 0.0
C2935 C 0.94993 0.66735 0.65376 0.0
C2936 C 0.95782 0.7103 0.6701 0.0
H2937 H 0.88211 0.79813 0.65316 0.0
H2938 H 0.92071 0.77342 0.65023 0.0
H2939 H 0.93696 0.73538 0.68047 0.0
H2940 H 1.01206 0.64973 0.63845 0.0
H2941 H 1.01155 0.68648 0.65032 0.0
H2942 H 0.98591 0.72697 0.64587 0.0
C2943 C 0.91743 0.78169 0.65826 0.0
C2944 C 0.94876 0.73405 0.67319 0.0
C2945 C 0.89517 0.79558 0.65995 0.0
C2946 C 0.99461 0.65398 0.64282 0.0
C2947 C 0.99449 0.67503 0.64964 0.0
C2948 C 0.97631 0.72887 0.6537 0.0
C2949 C 0.93374 0.77617 0.66711 0.0
C2950 C 0.9517 0.75492 0.6661 0.0
C2951 C 0.97204 0.68221 0.65495 0.0
C2952 C 0.9702 0.70737 0.66001 0.0
H2953 H 0.90285 0.80748 0.68732 0.0
H2954 H 0.94117 0.78272 0.68433 0.0
H2955 H 0.96956 0.76853 0.65121 0.0
H2956 H 0.93248 0.63577 0.64559 0.0
H2957 H 0.93223 0.67293 0.65766 0.0
C2958 C 0.05019 0.17989 0.42546 0.0
C2959 C 0.05289 0.15914 0.4326 0.0
C2960 C 0.06612 0.20095 0.42643 0.0
C2961 C 0.13229 0.20627 0.4345 0.0
H2962 H 0.12477 0.26124 0.41366 0.0
C2963 C 0.20239 0.21459 0.39983 0.0
C2964 C 0.18787 0.20748 0.39067 0.0
C2965 C 0.19033 0.22451 0.40916 0.0
C2966 C 0.12748 0.24656 0.41979 0.0
H2967 H 0.07158 0.14647 0.4476 0.0
H2968 H 0.09802 0.18369 0.44963 0.0
H2969 H 0.08907 0.24989 0.42548 0.0
H2970 H 0.15 0.20586 0.38372 0.0
H2971 H 0.12903 0.22353 0.39975 0.0
H2972 H 0.16989 0.20158 0.42817 0.0
C2973 C 0.08456 0.18314 0.4429 0.0
C2974 C 0.10693 0.23983 0.42648 0.0
C2975 C 0.0691 0.16175 0.44176 0.0
C2976 C 0.16152 0.21141 0.3907 0.0
C2977 C 0.14961 0.2219 0.39982 0.0
C2978 C 0.15289 0.21327 0.42794 0.0
C2979 C 0.08491 0.20192 0.4347 0.0
C2980 C 0.10821 0.21759 0.43288 0.0
C2981 C 0.16372 0.22787 0.40928 0.0
C2982 C 0.14957 0.23146 0.41966 0.0
H2983 H 1.03702 0.17917 0.41862 0.0
H2984 H 0.0653 0.21505 0.41998 0.0
H2985 H 0.13453 0.18948 0.43953 0.0
H2986 H 0.22276 0.21135 0.39996 0.0
H2987 H 0.20153 0.22847 0.41643 0.0
C2988 C 0.621 0.45236 0.15141 0.0
C2989 C 0.63843 0.46407 0.14431 0.0
C2990 C 0.62841 0.44528 0.16197 0.0
C2991 C 0.68311 0.44858 0.18191 0.0
H2992 H 0.66307 0.37897 0.18719 0.0
C2993 C 0.75057 0.36982 0.19141 0.0
C2994 C 0.74036 0.34601 0.19427 0.0
C2995 C 0.73536 0.39159 0.1918 0.0
C2996 C 0.66852 0.39866 0.18622 0.0
H2997 H 0.67696 0.47858 0.14282 0.0
H2998 H 0.69025 0.4652 0.16096 0.0
H2999 H 0.6395 0.40388 0.17431 0.0
H3000 H 0.70759 0.32807 0.20222 0.0
H3001 H 0.68257 0.36594 0.20365 0.0
H3002 H 0.71374 0.44215 0.19321 0.0
C3003 C 0.67062 0.46205 0.15859 0.0
C3004 C 0.65483 0.41311 0.17871 0.0
C3005 C 0.66317 0.46926 0.14806 0.0
C3006 C 0.71646 0.34556 0.19961 0.0
C3007 C 0.70172 0.36748 0.20038 0.0
C3008 C 0.69703 0.43397 0.1894 0.0
C3009 C 0.65348 0.44955 0.16563 0.0
C3010 C 0.66296 0.43766 0.17591 0.0
C3011 C 0.70993 0.39003 0.1954 0.0
C3012 C 0.69084 0.4083 0.19107 0.0
H3013 H 0.60186 0.44796 0.1487 0.0
H3014 H 0.61474 0.43563 0.16712 0.0
H3015 H 0.6893 0.4678 0.18024 0.0
H3016 H 0.76948 0.37143 0.18793 0.0
H3017 H 0.7427 0.40882 0.18813 0.0
C3018 C 0.372 0.85497 0.9001 0.0
C3019 C 0.38544 0.85926 0.89032 0.0
C3020 C 0.38534 0.8494 0.90978 0.0
C3021 C 0.45052 0.83674 0.92085 0.0
H3022 H 0.43976 0.90007 0.93629 0.0
C3023 C 0.52676 0.90854 0.92505 0.0
C3024 C 0.5237 0.9298 0.93188 0.0
C3025 C 0.5101 0.88798 0.92584 0.0
C3026 C 0.44302 0.88179 0.93248 0.0
H3027 H 0.42262 0.8596 0.88266 0.0
H3028 H 0.44567 0.84896 0.89923 0.0
H3029 H 0.40524 0.88161 0.92602 0.0
H3030 H 0.50275 0.94438 0.94596 0.0
H3031 H 0.47464 0.90813 0.94762 0.0
H3032 H 0.48902 0.8381 0.92659 0.0
C3033 C 0.42505 0.84968 0.8996 0.0
C3034 C 0.42296 0.8711 0.92656 0.0
C3035 C 0.41189 0.85599 0.89009 0.0
C3036 C 0.50565 0.92855 0.94044 0.0
C3037 C 0.48928 0.90776 0.94135 0.0
C3038 C 0.47056 0.84729 0.92688 0.0
C3039 C 0.41212 0.84751 0.90966 0.0
C3040 C 0.42733 0.84992 0.91984 0.0
C3041 C 0.49016 0.88803 0.93359 0.0
C3042 C 0.46767 0.87126 0.93183 0.0
H3043 H 0.35155 0.85767 0.90041 0.0
H3044 H 0.37498 0.84814 0.91746 0.0
H3045 H 0.45418 0.82003 0.91591 0.0
H3046 H 0.54108 0.90836 0.91864 0.0
H3047 H 0.51161 0.8732 0.9197 0.0
C3048 C 0.92623 0.30958 0.89969 0.0
C3049 C 0.90057 0.31629 0.90106 0.0
C3050 C 0.94433 0.32825 0.89729 0.0
C3051 C 0.94963 0.4 0.89618 0.0
H3052 H 0.99304 0.38444 0.92089 0.0
C3053 C 0.93396 0.44194 0.93688 0.0
C3054 C 0.95196 0.439 0.94526 0.0
C3055 C 0.94061 0.43652 0.926 0.0
C3056 C 0.98169 0.38966 0.91383 0.0
H3057 H 0.8731 0.34684 0.89995 0.0
H3058 H 0.90419 0.37942 0.89657 0.0
H3059 H 0.98123 0.35133 0.90866 0.0
H3060 H 0.99069 0.4279 0.94879 0.0
H3061 H 1.00315 0.42135 0.93 0.0
H3062 H 0.9478 0.43804 0.90236 0.0
C3063 C 0.91091 0.36001 0.89696 0.0
C3064 C 0.97485 0.37031 0.90665 0.0
C3065 C 0.89293 0.34136 0.89914 0.0
C3066 C 0.97691 0.43203 0.94254 0.0
C3067 C 0.98387 0.42759 0.93169 0.0
C3068 C 0.95613 0.41939 0.90349 0.0
C3069 C 0.93709 0.35402 0.89662 0.0
C3070 C 0.95588 0.37463 0.89872 0.0
C3071 C 0.96544 0.42813 0.92336 0.0
C3072 C 0.96977 0.41356 0.91309 0.0
H3073 H 0.93232 0.29008 0.90072 0.0
H3074 H 0.96416 0.32271 0.89671 0.0
H3075 H 0.93647 0.40431 0.88959 0.0
H3076 H 0.91449 0.44722 0.93879 0.0
H3077 H 0.92568 0.43683 0.91987 0.0
C3078 C 0.47245 0.14625 0.63482 0.0
C3079 C 0.46549 0.12169 0.63838 0.0
C3080 C 0.45419 0.16538 0.63383 0.0
C3081 C 0.38685 0.17905 0.64318 0.0
H3082 H 0.42521 0.22185 0.66301 0.0
C3083 C 0.38806 0.21979 0.69028 0.0
C3084 C 0.37816 0.19736 0.69471 0.0
C3085 C 0.38902 0.22326 0.67891 0.0
C3086 C 0.41372 0.21088 0.65736 0.0
H3087 H 0.43287 0.09705 0.64101 0.0
H3088 H 0.40177 0.13068 0.64062 0.0
H3089 H 0.44619 0.20336 0.64761 0.0
H3090 H 0.3623 0.1605 0.69089 0.0
H3091 H 0.36474 0.16583 0.67119 0.0
H3092 H 0.35488 0.18505 0.6538 0.0
C3093 C 0.42123 0.13542 0.63852 0.0
C3094 C 0.42592 0.20005 0.64836 0.0
C3095 C 0.43935 0.11602 0.63907 0.0
C3096 C 0.36933 0.17833 0.68766 0.0
C3097 C 0.37041 0.18162 0.67633 0.0
C3098 C 0.37459 0.18994 0.65223 0.0
C3099 C 0.42885 0.16082 0.63696 0.0
C3100 C 0.41338 0.18166 0.64192 0.0
C3101 C 0.38092 0.20384 0.67177 0.0
C3102 C 0.38875 0.20363 0.66005 0.0
H3103 H 0.49213 0.15183 0.63385 0.0
H3104 H 0.46058 0.18445 0.63196 0.0
H3105 H 0.3762 0.16614 0.63801 0.0
H3106 H 0.39626 0.23409 0.69558 0.0
H3107 H 0.3974 0.24053 0.67571 0.0
C3108 C 0.73597 0.68844 0.39159 0.0
C3109 C 0.72911 0.71392 0.3897 0.0
C3110 C 0.71752 0.66932 0.39144 0.0
C3111 C 0.65012 0.66973 0.39863 0.0
H3112 H 0.66699 0.5995 0.40455 0.0
C3113 C 0.61546 0.62806 0.43794 0.0
C3114 C 0.63737 0.62241 0.44404 0.0
C3115 C 0.61654 0.62847 0.42644 0.0
C3116 C 0.66154 0.6189 0.40275 0.0
H3117 H 0.69769 0.73778 0.38391 0.0
H3118 H 0.66697 0.70444 0.38267 0.0
H3119 H 0.69026 0.62252 0.39037 0.0
H3120 H 0.67698 0.61092 0.44309 0.0
H3121 H 0.67901 0.61164 0.42329 0.0
H3122 H 0.62296 0.66688 0.41154 0.0
C3123 C 0.68619 0.69951 0.38512 0.0
C3124 C 0.67503 0.63218 0.39467 0.0
C3125 C 0.7043 0.71881 0.3857 0.0
C3126 C 0.65979 0.61541 0.43856 0.0
C3127 C 0.6608 0.61543 0.42716 0.0
C3128 C 0.63661 0.65644 0.40661 0.0
C3129 C 0.6919 0.67509 0.38903 0.0
C3130 C 0.67115 0.65844 0.39331 0.0
C3131 C 0.63959 0.62317 0.42095 0.0
C3132 C 0.64396 0.63171 0.4095 0.0
H3133 H 0.75514 0.68335 0.39402 0.0
H3134 H 0.72307 0.65066 0.39429 0.0
H3135 H 0.64604 0.68978 0.3978 0.0
H3136 H 0.5981 0.63387 0.44203 0.0
H3137 H 0.5999 0.63459 0.42189 0.0
C3138 C 0.21102 0.87473 0.18783 0.0
C3139 C 0.19641 0.88183 0.19698 0.0
C3140 C 0.19952 0.86203 0.17902 0.0
C3141 C 0.1418 0.82668 0.17104 0.0
H3142 H 0.13459 0.87651 0.14794 0.0
C3143 C 0.05115 0.87069 0.16332 0.0
C3144 C 0.04982 0.89064 0.15568 0.0
C3145 C 0.07086 0.85294 0.16275 0.0
C3146 C 0.1365 0.86153 0.15396 0.0
H3147 H 0.15872 0.88206 0.20417 0.0
H3148 H 0.13879 0.85942 0.18903 0.0
H3149 H 0.17207 0.87692 0.15926 0.0
H3150 H 0.06483 0.90368 0.13997 0.0
H3151 H 0.09751 0.87172 0.13859 0.0
H3152 H 0.10543 0.81231 0.16623 0.0
C3153 C 0.1591 0.86308 0.18867 0.0
C3154 C 0.1583 0.86186 0.16049 0.0
C3155 C 0.17036 0.87633 0.19725 0.0
C3156 C 0.06543 0.88924 0.14627 0.0
C3157 C 0.0846 0.87091 0.14551 0.0
C3158 C 0.12019 0.82597 0.16434 0.0
C3159 C 0.1735 0.85587 0.17945 0.0
C3160 C 0.15968 0.84628 0.16978 0.0
C3161 C 0.08937 0.85447 0.15437 0.0
C3162 C 0.11588 0.84548 0.15665 0.0
H3163 H 0.23113 0.87919 0.18746 0.0
H3164 H 0.21078 0.85729 0.17185 0.0
H3165 H 0.14288 0.814 0.17803 0.0
H3166 H 1.03845 0.87008 0.17032 0.0
H3167 H 0.07305 0.84016 0.16963 0.0
C3168 C 0.65862 0.96839 0.93721 0.0
C3169 C 0.6335 0.96427 0.94075 0.0
C3170 C 0.66577 0.96279 0.92649 0.0
C3171 C 0.64888 0.91673 0.90593 0.0
H3172 H 0.71068 0.94335 0.89282 0.0
C3173 C 0.71408 0.84632 0.88831 0.0
C3174 C 0.73765 0.84759 0.8939 0.0
C3175 C 0.69904 0.8679 0.88698 0.0
C3176 C 0.69321 0.93579 0.89624 0.0
H3177 H 0.59568 0.95289 0.93558 0.0
H3178 H 0.60815 0.94312 0.91672 0.0
H3179 H 0.68499 0.97038 0.90478 0.0
H3180 H 0.76567 0.87404 0.90036 0.0
H3181 H 0.73834 0.91088 0.89917 0.0
H3182 H 0.65778 0.88168 0.89829 0.0
C3183 C 0.6224 0.95041 0.92232 0.0
C3184 C 0.67849 0.95126 0.90309 0.0
C3185 C 0.61526 0.95593 0.93313 0.0
C3186 C 0.74708 0.87178 0.89665 0.0
C3187 C 0.73155 0.89324 0.89569 0.0
C3188 C 0.6635 0.90133 0.8991 0.0
C3189 C 0.64796 0.953 0.91899 0.0
C3190 C 0.65732 0.94117 0.90869 0.0
C3191 C 0.70653 0.89107 0.89162 0.0
C3192 C 0.68691 0.91004 0.89488 0.0
H3193 H 0.67305 0.97536 0.9428 0.0
H3194 H 0.6857 0.96468 0.92432 0.0
H3195 H 0.63266 0.90827 0.91003 0.0
H3196 H 0.7057 0.82851 0.88583 0.0
H3197 H 0.6803 0.86577 0.88337 0.0
C3198 C 0.41117 0.38502 0.19715 0.0
C3199 C 0.40134 0.36053 0.19852 0.0
C3200 C 0.43689 0.38851 0.19486 0.0
C3201 C 0.4939 0.38882 0.19814 0.0
H3202 H 0.52121 0.36861 0.16989 0.0
C3203 C 0.57239 0.44702 0.17988 0.0
C3204 C 0.56256 0.45806 0.17023 0.0
C3205 C 0.56233 0.42427 0.18389 0.0
C3206 C 0.5142 0.37381 0.17795 0.0
H3207 H 0.41034 0.32024 0.19745 0.0
H3208 H 0.45526 0.32651 0.19296 0.0
H3209 H 0.48137 0.34986 0.17645 0.0
H3210 H 0.53567 0.45248 0.15685 0.0
H3211 H 0.51865 0.41328 0.16371 0.0
H3212 H 0.52512 0.41448 0.19926 0.0
C3213 C 0.44309 0.34294 0.1941 0.0
C3214 C 0.49146 0.36309 0.18169 0.0
C3215 C 0.41734 0.33946 0.19657 0.0
C3216 C 0.54412 0.44463 0.16421 0.0
C3217 C 0.53432 0.42187 0.16815 0.0
C3218 C 0.51661 0.39944 0.19444 0.0
C3219 C 0.45315 0.36752 0.1936 0.0
C3220 C 0.48036 0.37193 0.19143 0.0
C3221 C 0.54238 0.41211 0.17829 0.0
C3222 C 0.52589 0.39346 0.18393 0.0
H3223 H 0.3992 0.40152 0.19814 0.0
H3224 H 0.44414 0.4077 0.19412 0.0
H3225 H 0.48576 0.39552 0.20579 0.0
H3226 H 0.58722 0.45636 0.18454 0.0
H3227 H 0.56906 0.41701 0.19169 0.0
C3228 C 0.96646 0.12916 0.43355 0.0
C3229 C 0.94831 0.12103 0.44125 0.0
C3230 C 0.95999 0.13145 0.42247 0.0
C3231 C 0.9064 0.12093 0.40252 0.0
H3232 H 0.92266 0.19003 0.39442 0.0
C3233 C 0.83297 0.19218 0.39262 0.0
C3234 C 0.84097 0.21687 0.38984 0.0
C3235 C 0.84992 0.17177 0.3919 0.0
C3236 C 0.91823 0.17037 0.39614 0.0
H3237 H 0.90945 0.10778 0.44331 0.0
H3238 H 0.89777 0.11301 0.42424 0.0
H3239 H 0.94825 0.16887 0.40783 0.0
H3240 H 0.87147 0.23752 0.38142 0.0
H3241 H 0.89925 0.20191 0.37932 0.0
H3242 H 0.87498 0.12341 0.39137 0.0
C3243 C 0.91727 0.11691 0.42659 0.0
C3244 C 0.93313 0.15812 0.40396 0.0
C3245 C 0.92381 0.11445 0.43761 0.0
C3246 C 0.86427 0.21937 0.38411 0.0
C3247 C 0.88069 0.19873 0.38296 0.0
C3248 C 0.89143 0.13322 0.39464 0.0
C3249 C 0.93508 0.126 0.41891 0.0
C3250 C 0.92607 0.13412 0.4079 0.0
C3251 C 0.8749 0.17549 0.38801 0.0
C3252 C 0.89587 0.15889 0.3921 0.0
H3253 H 0.9854 0.13447 0.43613 0.0
H3254 H 0.97421 0.13841 0.41677 0.0
H3255 H 0.9011 0.10198 0.40511 0.0
H3256 H 0.81449 0.18878 0.39626 0.0
H3257 H 0.84421 0.15394 0.39557 0.0
C3258 C 0.05494 0.66375 0.66146 0.0
C3259 C 0.05889 0.64493 0.65349 0.0
C3260 C 0.06782 0.68683 0.66081 0.0
C3261 C 0.13114 0.70214 0.65253 0.0
H3262 H 0.11562 0.75623 0.67298 0.0
C3263 C 0.19683 0.71683 0.68796 0.0
C3264 C 0.18222 0.70972 0.69709 0.0
C3265 C 0.18479 0.72572 0.67843 0.0
C3266 C 0.1205 0.74182 0.66699 0.0
H3267 H 0.07688 0.63705 0.63776 0.0
H3268 H 0.09898 0.67743 0.63658 0.0
H3269 H 0.08215 0.73974 0.6611 0.0
H3270 H 0.1442 0.70737 0.70385 0.0
H3271 H 0.1232 0.7229 0.68746 0.0
H3272 H 0.16862 0.70217 0.65924 0.0
C3273 C 0.08631 0.67415 0.64346 0.0
C3274 C 0.10129 0.73228 0.66021 0.0
C3275 C 0.07356 0.65094 0.64416 0.0
C3276 C 0.15577 0.71287 0.69687 0.0
C3277 C 0.14383 0.72218 0.68752 0.0
C3278 C 0.15032 0.71172 0.65927 0.0
C3279 C 0.085 0.69161 0.65216 0.0
C3280 C 0.10579 0.71032 0.65393 0.0
C3281 C 0.15805 0.72783 0.67804 0.0
C3282 C 0.14427 0.72949 0.66745 0.0
H3283 H 0.04293 0.66018 0.66853 0.0
H3284 H 0.06612 0.69976 0.66768 0.0
H3285 H 0.13562 0.68564 0.64758 0.0
H3286 H 0.2173 0.71426 0.68798 0.0
H3287 H 0.19617 0.72962 0.67121 0.0
C3288 C 0.61083 0.1305 0.65014 0.0
C3289 C 0.61798 0.14423 0.64076 0.0
C3290 C 0.60167 0.14333 0.65942 0.0
C3291 C 0.58226 0.20732 0.66954 0.0
H3292 H 0.63995 0.19901 0.68896 0.0
C3293 C 0.65295 0.28143 0.67387 0.0
C3294 C 0.67357 0.27856 0.6811 0.0
C3295 C 0.63118 0.2665 0.67508 0.0
C3296 C 0.62301 0.20164 0.68402 0.0
H3297 H 0.62041 0.18151 0.63339 0.0
H3298 H 0.60411 0.20381 0.64934 0.0
H3299 H 0.62593 0.16368 0.67808 0.0
H3300 H 0.68552 0.26069 0.69639 0.0
H3301 H 0.64716 0.23589 0.69876 0.0
H3302 H 0.58084 0.24603 0.67479 0.0
C3303 C 0.6051 0.18327 0.64962 0.0
C3304 C 0.6149 0.18107 0.67774 0.0
C3305 C 0.61482 0.17059 0.64054 0.0
C3306 C 0.67031 0.26324 0.69049 0.0
C3307 C 0.64826 0.24876 0.69184 0.0
C3308 C 0.59016 0.22786 0.67594 0.0
C3309 C 0.59914 0.16993 0.65929 0.0
C3310 C 0.5965 0.18469 0.66955 0.0
C3311 C 0.62941 0.24857 0.68365 0.0
C3312 C 0.61262 0.22599 0.6822 0.0
H3313 H 0.61337 0.11011 0.65046 0.0
H3314 H 0.59768 0.13269 0.66683 0.0
H3315 H 0.56742 0.2103 0.66349 0.0
H3316 H 0.65425 0.29393 0.66684 0.0
H3317 H 0.61709 0.26733 0.66861 0.0
C3318 C 0.19417 0.38015 0.89641 0.0
C3319 C 0.20711 0.39852 0.89034 0.0
C3320 C 0.18967 0.38408 0.90759 0.0
C3321 C 0.16597 0.40558 0.92793 0.0
H3322 H 0.20478 0.4555 0.94427 0.0
C3323 C 0.11017 0.46362 0.95511 0.0
C3324 C 0.11029 0.4879 0.95011 0.0
C3325 C 0.13154 0.44796 0.95458 0.0
C3326 C 0.19396 0.44112 0.93996 0.0
H3327 H 0.22541 0.43532 0.89097 0.0
H3328 H 0.21903 0.4415 0.91039 0.0
H3329 H 0.22451 0.43348 0.92881 0.0
H3330 H 0.1361 0.5169 0.94384 0.0
H3331 H 0.17207 0.48872 0.9418 0.0
H3332 H 0.13524 0.41358 0.93868 0.0
C3333 C 0.21259 0.42384 0.90681 0.0
C3334 C 0.2051 0.42872 0.931 0.0
C3335 C 0.21633 0.42031 0.89561 0.0
C3336 C 0.13412 0.49768 0.94682 0.0
C3337 C 0.15527 0.48163 0.94596 0.0
C3338 C 0.15511 0.41748 0.93697 0.0
C3339 C 0.19866 0.40603 0.91295 0.0
C3340 C 0.19048 0.41237 0.92434 0.0
C3341 C 0.15314 0.45584 0.94876 0.0
C3342 C 0.16827 0.4368 0.94257 0.0
H3343 H 0.18621 0.36358 0.89242 0.0
H3344 H 0.17852 0.37023 0.91195 0.0
H3345 H 0.15392 0.39311 0.92316 0.0
H3346 H 0.09314 0.455 0.95836 0.0
H3347 H 0.12981 0.42846 0.95733 0.0
C3348 C 0.96036 0.93346 0.14974 0.0
C3349 C 0.94027 0.94321 0.14349 0.0
C3350 C 0.95925 0.93423 0.16122 0.0
C3351 C 0.91904 0.95906 0.18447 0.0
H3352 H 0.92569 0.88992 0.19483 0.0
C3353 C 0.8396 0.90104 0.19913 0.0
C3354 C 0.84421 0.87821 0.20471 0.0
C3355 C 0.85906 0.91889 0.198 0.0
C3356 C 0.92435 0.90965 0.19239 0.0
H3357 H 0.90276 0.96036 0.14416 0.0
H3358 H 0.901 0.96254 0.16392 0.0
H3359 H 0.94941 0.9032 0.17892 0.0
H3360 H 0.87096 0.85813 0.21514 0.0
H3361 H 0.90505 0.88916 0.21305 0.0
H3362 H 0.8914 0.96432 0.19722 0.0
C3363 C 0.91818 0.95512 0.16018 0.0
C3364 C 0.93808 0.91732 0.18317 0.0
C3365 C 0.91906 0.95372 0.1488 0.0
C3366 C 0.86717 0.87532 0.21055 0.0
C3367 C 0.88664 0.89315 0.20941 0.0
C3368 C 0.90503 0.95128 0.19362 0.0
C3369 C 0.93803 0.94499 0.16658 0.0
C3370 C 0.93364 0.94131 0.17852 0.0
C3371 C 0.88343 0.91405 0.20239 0.0
C3372 C 0.90584 0.9258 0.197 0.0
H3373 H 0.97616 0.92407 0.14572 0.0
H3374 H 0.97444 0.92551 0.1659 0.0
H3375 H 0.91605 0.97806 0.1813 0.0
H3376 H 0.82204 0.90387 0.19462 0.0
H3377 H 0.85587 0.9348 0.19253 0.0
C3378 C 0.46915 0.59179 0.45463 0.0
C3379 C 0.47238 0.57197 0.44701 0.0
C3380 C 0.44823 0.60803 0.45386 0.0
C3381 C 0.38991 0.62323 0.43815 0.0
H3382 H 0.43046 0.67905 0.42698 0.0
C3383 C 0.36858 0.66688 0.39711 0.0
C3384 C 0.37724 0.69114 0.39417 0.0
C3385 C 0.37297 0.65733 0.40757 0.0
C3386 C 0.41833 0.66433 0.43029 0.0
H3387 H 0.45423 0.5509 0.4339 0.0
H3388 H 0.41751 0.57896 0.43265 0.0
H3389 H 0.44859 0.65045 0.44031 0.0
H3390 H 0.39707 0.72462 0.39989 0.0
H3391 H 0.4051 0.70779 0.41824 0.0
H3392 H 0.35983 0.63671 0.42788 0.0
C3393 C 0.43123 0.58218 0.43915 0.0
C3394 C 0.42883 0.64783 0.438 0.0
C3395 C 0.45235 0.56611 0.43983 0.0
C3396 C 0.39 0.70593 0.40198 0.0
C3397 C 0.39452 0.69628 0.41251 0.0
C3398 C 0.37911 0.64019 0.43066 0.0
C3399 C 0.43009 0.60435 0.44557 0.0
C3400 C 0.41537 0.62614 0.44137 0.0
C3401 C 0.38618 0.67177 0.41543 0.0
C3402 C 0.39395 0.65968 0.42596 0.0
H3403 H 0.48407 0.59631 0.46044 0.0
H3404 H 0.44763 0.62488 0.45896 0.0
H3405 H 0.37911 0.60676 0.44073 0.0
H3406 H 0.35844 0.65504 0.39132 0.0
H3407 H 0.3669 0.63809 0.40927 0.0
C3408 C 0.40966 0.25358 0.19454 0.0
C3409 C 0.40861 0.26925 0.18517 0.0
C3410 C 0.43089 0.23833 0.19651 0.0
C3411 C 0.48858 0.21407 0.18152 0.0
H3412 H 0.44373 0.15606 0.17884 0.0
C3413 C 0.47143 0.16939 0.14151 0.0
C3414 C 0.46093 0.14519 0.14031 0.0
C3415 C 0.4787 0.17811 0.15181 0.0
C3416 C 0.45717 0.1715 0.17974 0.0
H3417 H 0.4309 0.2848 0.1718 0.0
H3418 H 0.46693 0.25696 0.17465 0.0
H3419 H 0.43349 0.18906 0.19163 0.0
H3420 H 0.44985 0.11078 0.14874 0.0
H3421 H 0.46261 0.12597 0.16694 0.0
H3422 H 0.51024 0.19777 0.16854 0.0
C3423 C 0.45166 0.25639 0.18062 0.0
C3424 C 0.45131 0.19068 0.18721 0.0
C3425 C 0.43064 0.27205 0.17878 0.0
C3426 C 0.45826 0.12944 0.14951 0.0
C3427 C 0.4655 0.13818 0.15989 0.0
C3428 C 0.49432 0.19495 0.17399 0.0
C3429 C 0.45093 0.23765 0.18889 0.0
C3430 C 0.46518 0.21359 0.18709 0.0
C3431 C 0.47526 0.1629 0.1612 0.0
C3432 C 0.47709 0.17495 0.1722 0.0
H3433 H 0.39323 0.25104 0.19979 0.0
H3434 H 0.43013 0.22477 0.2032 0.0
H3435 H 0.50036 0.23095 0.18164 0.0
H3436 H 0.47304 0.18206 0.13455 0.0
H3437 H 0.48539 0.19749 0.15243 0.0
C3438 C 0.61001 0.62275 0.95355 0.0
C3439 C 0.61208 0.59884 0.94834 0.0
C3440 C 0.63124 0.6384 0.95471 0.0
C3441 C 0.69816 0.64507 0.94373 0.0
H3442 H 0.66457 0.6995 0.92796 0.0
C3443 C 0.69947 0.70375 0.90021 0.0
C3444 C 0.70554 0.68214 0.89406 0.0
C3445 C 0.69981 0.70278 0.9117 0.0
C3446 C 0.67486 0.68515 0.93253 0.0
H3447 H 0.63973 0.57069 0.94293 0.0
H3448 H 0.6758 0.59888 0.94368 0.0
H3449 H 0.64243 0.67837 0.94243 0.0
H3450 H 0.71741 0.64278 0.8949 0.0
H3451 H 0.71715 0.64062 0.9147 0.0
H3452 H 0.72989 0.65084 0.93296 0.0
C3453 C 0.65783 0.60569 0.94691 0.0
C3454 C 0.66199 0.67278 0.94097 0.0
C3455 C 0.63676 0.58959 0.94616 0.0
C3456 C 0.71272 0.65979 0.89949 0.0
C3457 C 0.71305 0.65874 0.91089 0.0
C3458 C 0.71114 0.65759 0.93528 0.0
C3459 C 0.65476 0.63115 0.95021 0.0
C3460 C 0.67246 0.65087 0.94586 0.0
C3461 C 0.70568 0.67993 0.91718 0.0
C3462 C 0.69849 0.67594 0.92886 0.0
H3463 H 0.59186 0.63095 0.95577 0.0
H3464 H 0.62845 0.65742 0.95788 0.0
H3465 H 0.70729 0.62906 0.94769 0.0
H3466 H 0.69287 0.7208 0.89618 0.0
H3467 H 0.69397 0.71944 0.91626 0.0
C3468 C 0.22365 0.88679 0.69753 0.0
C3469 C 0.21614 0.86132 0.69887 0.0
C3470 C 0.20545 0.90617 0.69749 0.0
C3471 C 0.14111 0.904 0.6872 0.0
H3472 H 0.15838 0.97394 0.68099 0.0
C3473 C 0.11823 0.94247 0.6453 0.0
C3474 C 0.14006 0.95273 0.64044 0.0
C3475 C 0.11666 0.94026 0.65671 0.0
C3476 C 0.15301 0.9545 0.68272 0.0
H3477 H 0.18405 0.83769 0.70407 0.0
H3478 H 0.15357 0.87147 0.7049 0.0
H3479 H 0.17705 0.95292 0.69691 0.0
H3480 H 0.17715 0.96919 0.64345 0.0
H3481 H 0.17454 0.96567 0.66325 0.0
H3482 H 0.11916 0.90448 0.67259 0.0
C3483 C 0.17315 0.87621 0.70298 0.0
C3484 C 0.16366 0.94247 0.69188 0.0
C3485 C 0.19105 0.85665 0.70257 0.0
C3486 C 0.15988 0.96167 0.64708 0.0
C3487 C 0.15819 0.95986 0.65846 0.0
C3488 C 0.13064 0.91591 0.67807 0.0
C3489 C 0.1795 0.90051 0.69913 0.0
C3490 C 0.1598 0.91633 0.69356 0.0
C3491 C 0.13687 0.94843 0.66344 0.0
C3492 C 0.13846 0.94049 0.67514 0.0
H3493 H 0.24311 0.89165 0.6955 0.0
H3494 H 0.21149 0.92484 0.69486 0.0
H3495 H 0.13708 0.88399 0.68823 0.0
H3496 H 0.10292 0.93507 0.64028 0.0
H3497 H 0.10001 0.93125 0.66021 0.0
C3498 C 1.02847 0.39412 0.42329 0.0
C3499 C 1.02706 0.41492 0.43048 0.0
C3500 C 1.011 0.37427 0.42411 0.0
C3501 C 0.94436 0.37256 0.43191 0.0
H3502 H 0.94905 0.31545 0.41202 0.0
C3503 C 0.87141 0.36147 0.39822 0.0
C3504 C 0.88537 0.36757 0.38877 0.0
C3505 C 0.88407 0.35261 0.40761 0.0
C3506 C 0.94713 0.33078 0.4179 0.0
H3507 H 1.00869 0.4288 0.44536 0.0
H3508 H 0.97946 0.39362 0.4471 0.0
H3509 H 0.9856 0.32655 0.42339 0.0
H3510 H 0.92286 0.36864 0.3814 0.0
H3511 H 0.94478 0.35256 0.39749 0.0
H3512 H 0.90668 0.37802 0.42576 0.0
C3513 C 0.99321 0.39324 0.44048 0.0
C3514 C 0.96817 0.33737 0.42432 0.0
C3515 C 1.01029 0.41343 0.4395 0.0
C3516 C 0.91174 0.36372 0.38859 0.0
C3517 C 0.9242 0.3542 0.39776 0.0
C3518 C 0.92326 0.36573 0.42563 0.0
C3519 C 0.99192 0.37453 0.43227 0.0
C3520 C 0.96789 0.36007 0.43042 0.0
C3521 C 0.91067 0.34924 0.40748 0.0
C3522 C 0.92551 0.34653 0.41772 0.0
H3523 H 0.04191 0.39396 0.41654 0.0
H3524 H 1.01104 0.36017 0.41765 0.0
H3525 H 0.94296 0.38987 0.43666 0.0
H3526 H 0.85104 0.36471 0.39852 0.0
H3527 H 0.87333 0.34944 0.41509 0.0
C3528 C 0.44058 0.90657 0.46091 0.0
C3529 C 0.45188 0.92344 0.45352 0.0
C3530 C 0.44255 0.88053 0.45941 0.0
C3531 C 0.47019 0.83083 0.44025 0.0
H3532 H 0.41115 0.7944 0.45094 0.0
C3533 C 0.4026 0.77589 0.41595 0.0
C3534 C 0.38519 0.75973 0.42128 0.0
C3535 C 0.4248 0.78353 0.42125 0.0
C3536 C 0.42835 0.80375 0.44813 0.0
H3537 H 0.47408 0.92651 0.43864 0.0
H3538 H 0.47436 0.88103 0.43495 0.0
H3539 H 0.41956 0.83564 0.4578 0.0
H3540 H 0.38026 0.73476 0.43531 0.0
H3541 H 0.41847 0.74924 0.44479 0.0
H3542 H 0.47618 0.79937 0.42934 0.0
C3543 C 0.46542 0.88759 0.44243 0.0
C3544 C 0.43329 0.82792 0.45209 0.0
C3545 C 0.46466 0.91379 0.44433 0.0
C3546 C 0.39255 0.74831 0.43124 0.0
C3547 C 0.41476 0.75609 0.43656 0.0
C3548 C 0.46462 0.80679 0.43598 0.0
C3549 C 0.45451 0.87044 0.45002 0.0
C3550 C 0.45336 0.84257 0.44774 0.0
C3551 C 0.42967 0.77563 0.43205 0.0
C3552 C 0.44263 0.79383 0.43939 0.0
H3553 H 0.43179 0.91337 0.46832 0.0
H3554 H 0.43498 0.86853 0.46582 0.0
H3555 H 0.48669 0.84073 0.4371 0.0
H3556 H 0.39795 0.78501 0.40825 0.0
H3557 H 0.43598 0.79848 0.41749 0.0
C3558 C 0.88175 0.70018 0.18547 0.0
C3559 C 0.88237 0.7185 0.1938 0.0
C3560 C 0.89349 0.70493 0.17539 0.0
C3561 C 0.95238 0.73301 0.16964 0.0
H3562 H 0.94346 0.69613 0.14244 0.0
C3563 C 1.03089 0.66788 0.1571 0.0
C3564 C 1.02123 0.64351 0.15512 0.0
C3565 C 1.01516 0.68917 0.15586 0.0
C3566 C 0.94638 0.70667 0.14997 0.0
H3567 H 0.89415 0.75677 0.19779 0.0
H3568 H 0.9142 0.76519 0.1803 0.0
H3569 H 0.90632 0.71355 0.15186 0.0
H3570 H 0.98855 0.62213 0.14953 0.0
H3571 H 0.96076 0.65844 0.14808 0.0
H3572 H 0.99155 0.72337 0.16878 0.0
C3573 C 0.90431 0.74733 0.18145 0.0
C3574 C 0.92508 0.7169 0.15527 0.0
C3575 C 0.89253 0.74255 0.19151 0.0
C3576 C 0.99632 0.64079 0.15119 0.0
C3577 C 0.98048 0.66186 0.15019 0.0
C3578 C 0.9735 0.72225 0.16451 0.0
C3579 C 0.90646 0.72795 0.1736 0.0
C3580 C 0.92775 0.72822 0.16563 0.0
C3581 C 0.98929 0.68629 0.15297 0.0
C3582 C 0.97036 0.70681 0.15519 0.0
H3583 H 0.87402 0.68146 0.18705 0.0
H3584 H 0.89496 0.68947 0.16956 0.0
H3585 H 0.95518 0.74189 0.17757 0.0
H3586 H 0.05036 0.67038 0.15986 0.0
H3587 H 1.02292 0.70769 0.15776 0.0
C3588 C 0.17202 0.32176 0.92345 0.0
C3589 C 0.19582 0.32591 0.9284 0.0
C3590 C 0.1547 0.30496 0.92811 0.0
C3591 C 0.13863 0.25163 0.93177 0.0
H3592 H 0.13938 0.22671 0.96171 0.0
C3593 C 0.14848 0.15007 0.95122 0.0
C3594 C 0.12439 0.1386 0.9513 0.0
C3595 C 0.15081 0.1759 0.94906 0.0
C3596 C 0.13871 0.23377 0.95336 0.0
H3597 H 0.21949 0.3174 0.94246 0.0
H3598 H 0.19008 0.28661 0.95026 0.0
H3599 H 0.15221 0.27056 0.95795 0.0
H3600 H 0.08403 0.14483 0.94816 0.0
H3601 H 0.08848 0.18979 0.94382 0.0
H3602 H 0.12571 0.21453 0.92723 0.0
C3603 C 0.1842 0.29701 0.94302 0.0
C3604 C 0.14613 0.25869 0.95118 0.0
C3605 C 0.20121 0.31451 0.93853 0.0
C3606 C 0.10291 0.15303 0.94821 0.0
C3607 C 0.1053 0.17879 0.94585 0.0
C3608 C 0.13083 0.22693 0.93398 0.0
C3609 C 0.16134 0.29108 0.93753 0.0
C3610 C 0.14733 0.26751 0.9403 0.0
C3611 C 0.12915 0.19042 0.94663 0.0
C3612 C 0.13189 0.21764 0.9447 0.0
H3613 H 0.16735 0.33017 0.91561 0.0
H3614 H 0.13695 0.30141 0.92385 0.0
H3615 H 0.13966 0.25746 0.92325 0.0
H3616 H 0.1654 0.13938 0.95323 0.0
H3617 H 0.16948 0.18465 0.9494 0.0
C3618 C 0.63121 0.49239 0.64068 0.0
C3619 C 0.60574 0.48585 0.63845 0.0
C3620 C 0.65049 0.47415 0.63992 0.0
C3621 C 0.64917 0.40683 0.64551 0.0
H3622 H 0.72075 0.41981 0.6507 0.0
C3623 C 0.71549 0.40148 0.68403 0.0
C3624 C 0.70782 0.37825 0.68859 0.0
C3625 C 0.71077 0.40684 0.67303 0.0
C3626 C 0.70085 0.41566 0.64918 0.0
H3627 H 0.58207 0.45587 0.63134 0.0
H3628 H 0.6157 0.42556 0.62924 0.0
H3629 H 0.69738 0.44617 0.63765 0.0
H3630 H 0.69014 0.34204 0.68516 0.0
H3631 H 0.68241 0.35103 0.66578 0.0
H3632 H 0.6518 0.378 0.65766 0.0
C3633 C 0.62049 0.44426 0.63231 0.0
C3634 C 0.68748 0.43075 0.64169 0.0
C3635 C 0.60105 0.4621 0.63344 0.0
C3636 C 0.69644 0.35997 0.68181 0.0
C3637 C 0.69191 0.36522 0.67073 0.0
C3638 C 0.66247 0.39187 0.65299 0.0
C3639 C 0.64478 0.44919 0.6366 0.0
C3640 C 0.66101 0.42781 0.64047 0.0
C3641 C 0.69832 0.38906 0.6663 0.0
C3642 C 0.6879 0.39751 0.65557 0.0
H3643 H 0.63611 0.51092 0.64388 0.0
H3644 H 0.66914 0.479 0.64307 0.0
H3645 H 0.62886 0.4037 0.64482 0.0
H3646 H 0.72469 0.41584 0.689 0.0
H3647 H 0.71557 0.42558 0.67002 0.0
C3648 C 0.13916 0.26808 0.3688 0.0
C3649 C 0.14585 0.2436 0.36462 0.0
C3650 C 0.11344 0.27827 0.36858 0.0
C3651 C 1.04093 0.26033 0.36419 0.0
H3652 H 1.02934 0.33284 0.36379 0.0
C3653 C 0.9332 0.30491 0.36794 0.0
C3654 C 0.92666 0.32914 0.36345 0.0
C3655 C 0.95892 0.29471 0.36798 0.0
C3656 C 1.03159 0.31242 0.36388 0.0
H3657 H 0.12746 0.21127 0.35703 0.0
H3658 H 0.08385 0.22827 0.35684 0.0
H3659 H 0.07288 0.3159 0.36407 0.0
H3660 H 0.94533 0.36104 0.35564 0.0
H3661 H 0.98894 0.34404 0.3559 0.0
H3662 H 0.99963 0.25685 0.36415 0.0
C3663 C 0.09864 0.24011 0.36029 0.0
C3664 C 0.05737 0.3024 0.36412 0.0
C3665 C 0.12442 0.23011 0.36034 0.0
C3666 C 0.94824 0.34239 0.35916 0.0
C3667 C 0.97402 0.3324 0.35938 0.0
C3668 C 1.01514 0.27036 0.36416 0.0
C3669 C 0.0919 0.26472 0.36436 0.0
C3670 C 0.0633 0.27586 0.36423 0.0
C3671 C 0.98061 0.30802 0.36376 0.0
C3672 C 1.00921 0.29689 0.36393 0.0
H3673 H 0.15399 0.27973 0.37235 0.0
H3674 H 0.11047 0.29702 0.37197 0.0
H3675 H 0.04318 0.23991 0.36434 0.0
H3676 H 0.91823 0.29347 0.37152 0.0
H3677 H 0.96176 0.27616 0.3716 0.0
C3678 C 0.99772 0.69445 0.60964 0.0
C3679 C 1.0122 0.67253 0.61275 0.0
C3680 C 1.00739 0.72022 0.60992 0.0
C3681 C 0.06965 0.76233 0.61273 0.0
H3682 H 1.02251 0.81865 0.61472 0.0
C3683 C 0.10668 0.87248 0.60854 0.0
C3684 C 0.09314 0.89372 0.61301 0.0
C3685 C 0.09731 0.84655 0.60873 0.0
C3686 C 1.03649 0.80359 0.61417 0.0
H3687 H 0.04998 0.66377 0.61884 0.0
H3688 H 0.06672 0.70752 0.61909 0.0
H3689 H 1.00677 0.77488 0.6147 0.0
H3690 H 0.05745 0.90109 0.62137 0.0
H3691 H 1.0412 0.85726 0.62145 0.0
H3692 H 0.09935 0.79108 0.61209 0.0
C3693 C 0.04733 0.70481 0.61632 0.0
C3694 C 1.02714 0.7776 0.61407 0.0
C3695 C 1.03747 0.67891 0.61618 0.0
C3696 C 0.06917 0.88651 0.61766 0.0
C3697 C 0.05958 0.86055 0.6177 0.0
C3698 C 0.07897 0.78834 0.61263 0.0
C3699 C 1.0327 0.72677 0.61322 0.0
C3700 C 0.04324 0.75563 0.61337 0.0
C3701 C 0.07325 0.83924 0.61327 0.0
C3702 C 0.06287 0.81031 0.61337 0.0
H3703 H 0.97824 0.69181 0.60695 0.0
H3704 H 0.99464 0.7352 0.60732 0.0
H3705 H 0.0836 0.74725 0.61212 0.0
H3706 H 0.12514 0.87579 0.60483 0.0
H3707 H 0.10924 0.83208 0.60507 0.0
C3708 C 0.44891 0.83446 0.86063 0.0
C3709 C 0.42722 0.82088 0.8646 0.0
C3710 C 0.47468 0.82442 0.86084 0.0
C3711 C 0.51553 0.76192 0.8649 0.0
H3712 H 0.57339 0.80724 0.86597 0.0
C3713 C 0.62488 0.72168 0.86127 0.0
C3714 C 0.64612 0.73467 0.866 0.0
C3715 C 0.59913 0.73176 0.86116 0.0
C3716 C 0.55784 0.79379 0.86569 0.0
H3717 H 0.41854 0.78456 0.87206 0.0
H3718 H 0.46202 0.76722 0.87212 0.0
H3719 H 0.5299 0.82434 0.86564 0.0
H3720 H 0.65396 0.77008 0.87438 0.0
H3721 H 0.61052 0.78752 0.87392 0.0
H3722 H 0.54347 0.73138 0.86479 0.0
C3723 C 0.45931 0.78606 0.86877 0.0
C3724 C 0.5321 0.80392 0.86542 0.0
C3725 C 0.43362 0.79629 0.86874 0.0
C3726 C 0.63928 0.75878 0.87052 0.0
C3727 C 0.6136 0.76908 0.87023 0.0
C3728 C 0.54128 0.7518 0.86496 0.0
C3729 C 0.48112 0.79969 0.86488 0.0
C3730 C 0.50969 0.78847 0.86506 0.0
C3731 C 0.59225 0.75599 0.8656 0.0
C3732 C 0.56369 0.76724 0.86541 0.0
H3733 H 0.44609 0.85339 0.85738 0.0
H3734 H 0.48972 0.83632 0.85763 0.0
H3735 H 0.49999 0.74847 0.86456 0.0
H3736 H 0.62805 0.70319 0.85763 0.0
H3737 H 0.58447 0.72031 0.85737 0.0
C3738 C 0.52479 0.20045 0.11811 0.0
C3739 C 0.50031 0.19379 0.11384 0.0
C3740 C 0.53471 0.22624 0.1182 0.0
C3741 C 0.51579 0.29872 0.11405 0.0
H3742 H 0.58831 0.31124 0.11497 0.0
C3743 C 0.55837 0.4071 0.11821 0.0
C3744 C 0.58327 0.41378 0.11441 0.0
C3745 C 0.54849 0.38129 0.11814 0.0
C3746 C 0.56786 0.30876 0.11468 0.0
H3747 H 0.46774 0.21234 0.1064 0.0
H3748 H 0.48429 0.25587 0.10666 0.0
H3749 H 0.57202 0.26764 0.1149 0.0
H3750 H 0.61655 0.39512 0.10761 0.0
H3751 H 0.60012 0.35158 0.1077 0.0
H3752 H 0.51163 0.33984 0.11397 0.0
C3753 C 0.49633 0.24109 0.11 0.0
C3754 C 0.5582 0.2829 0.11471 0.0
C3755 C 0.48659 0.21531 0.10978 0.0
C3756 C 0.5974 0.39219 0.11066 0.0
C3757 C 0.58771 0.36639 0.11076 0.0
C3758 C 0.52544 0.32458 0.11421 0.0
C3759 C 0.5209 0.24786 0.11418 0.0
C3760 C 0.53168 0.27658 0.11433 0.0
C3761 C 0.56273 0.35963 0.11446 0.0
C3762 C 0.55196 0.3309 0.11446 0.0
H3763 H 0.53668 0.18552 0.12144 0.0
H3764 H 0.55346 0.22913 0.12166 0.0
H3765 H 0.49534 0.29625 0.11384 0.0
H3766 H 0.54607 0.42196 0.12127 0.0
H3767 H 0.52936 0.37839 0.12121 0.0
C3768 C 0.93993 0.78389 0.21898 0.0
C3769 C 0.93369 0.75866 0.22239 0.0
C3770 C 0.96568 0.7941 0.21911 0.0
C3771 C 1.03879 0.77551 0.22213 0.0
H3772 H 0.05045 0.84791 0.22337 0.0
C3773 C 0.14681 0.81943 0.21849 0.0
C3774 C 0.15351 0.84384 0.22273 0.0
C3775 C 0.12102 0.80941 0.21853 0.0
C3776 C 0.04822 0.82751 0.22304 0.0
H3777 H 0.95294 0.72517 0.22856 0.0
H3778 H 0.99642 0.74222 0.22862 0.0
H3779 H 1.00691 0.83112 0.22327 0.0
H3780 H 0.13498 0.8762 0.23028 0.0
H3781 H 0.0913 0.85944 0.23024 0.0
H3782 H 0.08007 0.77189 0.2218 0.0
C3783 C 0.98133 0.75462 0.22582 0.0
C3784 C 1.02239 0.81756 0.22291 0.0
C3785 C 0.95559 0.74456 0.22584 0.0
C3786 C 0.13198 0.8574 0.22693 0.0
C3787 C 0.10613 0.84753 0.22684 0.0
C3788 C 0.06461 0.78547 0.2221 0.0
C3789 C 0.98769 0.77992 0.22248 0.0
C3790 C 1.01637 0.79105 0.2225 0.0
C3791 C 0.09935 0.823 0.22266 0.0
C3792 C 0.07064 0.81197 0.2226 0.0
H3793 H 0.9247 0.79612 0.21615 0.0
H3794 H 0.96824 0.81344 0.21633 0.0
H3795 H 1.03658 0.75512 0.22173 0.0
H3796 H 0.16173 0.8077 0.21502 0.0
H3797 H 0.11814 0.79073 0.21507 0.0
C3798 C 0.52542 0.89736 0.47071 0.0
C3799 C 0.50107 0.9037 0.47523 0.0
C3800 C 0.53554 0.87165 0.47033 0.0
C3801 C 0.51736 0.79901 0.47327 0.0
H3802 H 0.59006 0.787 0.4736 0.0
C3803 C 0.56169 0.69168 0.46765 0.0
C3804 C 0.58594 0.6846 0.47205 0.0
C3805 C 0.55156 0.71738 0.46803 0.0
C3806 C 0.56958 0.78936 0.47352 0.0
H3807 H 0.46897 0.88458 0.48276 0.0
H3808 H 0.48572 0.84111 0.48185 0.0
H3809 H 0.57329 0.83049 0.47414 0.0
H3810 H 0.61785 0.70236 0.4803 0.0
H3811 H 0.60104 0.74587 0.48073 0.0
H3812 H 0.51365 0.7579 0.47247 0.0
C3813 C 0.49755 0.85617 0.47862 0.0
C3814 C 0.55966 0.81512 0.47376 0.0
C3815 C 0.4877 0.88189 0.47921 0.0
C3816 C 0.59924 0.70566 0.47675 0.0
C3817 C 0.58933 0.73142 0.47696 0.0
C3818 C 0.52729 0.77326 0.47281 0.0
C3819 C 0.52203 0.84979 0.47422 0.0
C3820 C 0.53306 0.82121 0.47373 0.0
C3821 C 0.56495 0.73854 0.47266 0.0
C3822 C 0.55389 0.76715 0.47299 0.0
H3823 H 0.53706 0.91239 0.46738 0.0
H3824 H 0.55419 0.86899 0.46672 0.0
H3825 H 0.49688 0.8014 0.47312 0.0
H3826 H 0.55013 0.67717 0.46382 0.0
H3827 H 0.53298 0.72063 0.46445 0.0
C3828 C 0.64791 0.30374 0.71654 0.0
C3829 C 0.65472 0.32817 0.72075 0.0
C3830 C 0.62213 0.2936 0.71681 0.0
C3831 C 0.54955 0.31163 0.7221 0.0
H3832 H 0.53763 0.23926 0.7211 0.0
C3833 C 0.44098 0.26841 0.71929 0.0
C3834 C 0.43471 0.2434 0.72298 0.0
C3835 C 0.46678 0.27845 0.7191 0.0
C3836 C 0.53994 0.25965 0.72143 0.0
H3837 H 0.63631 0.36035 0.72851 0.0
H3838 H 0.59281 0.34345 0.72885 0.0
H3839 H 0.58121 0.25594 0.72059 0.0
H3840 H 0.45402 0.21006 0.72927 0.0
H3841 H 0.49766 0.22682 0.72878 0.0
H3842 H 0.50829 0.31536 0.72281 0.0
C3843 C 0.6075 0.33162 0.72528 0.0
C3844 C 0.56579 0.26955 0.72105 0.0
C3845 C 0.63328 0.34159 0.72513 0.0
C3846 C 0.45667 0.22931 0.72636 0.0
C3847 C 0.4825 0.23919 0.72601 0.0
C3848 C 0.5237 0.30175 0.72229 0.0
C3849 C 0.60061 0.30709 0.72117 0.0
C3850 C 0.5719 0.29604 0.72143 0.0
C3851 C 0.48886 0.26428 0.72238 0.0
C3852 C 0.51759 0.27526 0.72203 0.0
H3853 H 0.66261 0.29211 0.71289 0.0
H3854 H 0.61914 0.27493 0.71335 0.0
H3855 H 0.55183 0.33203 0.72235 0.0
H3856 H 0.4257 0.28061 0.71648 0.0
H3857 H 0.46933 0.29763 0.71612 0.0
C3858 C 0.09051 0.18505 0.97756 0.0
C3859 C 0.07598 0.16314 0.97459 0.0
C3860 C 0.08077 0.21081 0.97718 0.0
C3861 C 1.01803 0.25234 0.97402 0.0
H3862 H 0.06458 0.30912 0.97274 0.0
C3863 C 0.9789 0.36179 0.97743 0.0
C3864 C 0.99289 0.38324 0.97348 0.0
C3865 C 0.98864 0.33599 0.97739 0.0
C3866 C 0.05076 0.29392 0.97308 0.0
H3867 H 1.03817 0.15428 0.96862 0.0
H3868 H 1.02137 0.19788 0.96816 0.0
H3869 H 0.08087 0.26556 0.97285 0.0
H3870 H 1.02976 0.3913 0.9663 0.0
H3871 H 0.04652 0.34766 0.96641 0.0
H3872 H 0.98792 0.28072 0.97429 0.0
C3873 C 1.04079 0.19526 0.97091 0.0
C3874 C 0.06043 0.26806 0.97323 0.0
C3875 C 0.0507 0.16944 0.97115 0.0
C3876 C 1.01766 0.37646 0.96954 0.0
C3877 C 1.02754 0.35064 0.96963 0.0
C3878 C 1.00837 0.27822 0.97402 0.0
C3879 C 0.05537 0.21724 0.97392 0.0
C3880 C 0.04456 0.24596 0.9737 0.0
C3881 C 1.01347 0.32908 0.97351 0.0
C3882 C 1.02424 0.30033 0.97353 0.0
H3883 H 0.11005 0.18242 0.98017 0.0
H3884 H 0.09353 0.22585 0.97967 0.0
H3885 H 1.00423 0.23714 0.97444 0.0
H3886 H 0.95985 0.36485 0.98058 0.0
H3887 H 0.97635 0.3213 0.98062 0.0
C3888 C 0.11751 0.73185 0.72721 0.0
C3889 C 0.13912 0.74569 0.72327 0.0
C3890 C 0.09162 0.74179 0.72727 0.0
C3891 C 0.04999 0.80439 0.72403 0.0
H3892 H 0.99224 0.75888 0.72339 0.0
C3893 C 0.94059 0.84457 0.72902 0.0
C3894 C 0.91879 0.83158 0.72475 0.0
C3895 C 0.96637 0.83447 0.72872 0.0
C3896 C 1.00773 0.77241 0.72356 0.0
H3897 H 0.14726 0.7825 0.71615 0.0
H3898 H 0.10366 0.79964 0.71655 0.0
H3899 H 1.03585 0.74197 0.72319 0.0
H3900 H 0.9102 0.79603 0.71662 0.0
H3901 H 0.95376 0.77855 0.71637 0.0
H3902 H 1.0219 0.83481 0.72457 0.0
C3903 C 0.10654 0.78062 0.71967 0.0
C3904 C 1.0336 0.76238 0.72352 0.0
C3905 C 0.13236 0.7705 0.71943 0.0
C3906 C 0.92527 0.80737 0.72018 0.0
C3907 C 0.95105 0.79705 0.72004 0.0
C3908 C 1.02413 0.8144 0.72429 0.0
C3909 C 0.08483 0.76673 0.72355 0.0
C3910 C 0.05605 0.77786 0.7237 0.0
C3911 C 0.97293 0.81015 0.72426 0.0
C3912 C 1.00167 0.79894 0.72402 0.0
H3913 H 0.12048 0.71276 0.73026 0.0
H3914 H 0.07677 0.72961 0.73044 0.0
H3915 H 0.06547 0.81792 0.72425 0.0
H3916 H 0.93784 0.86314 0.73265 0.0
H3917 H 0.98134 0.84602 0.73221 0.0
C3918 C 1.02716 0.18386 0.46688 0.0
C3919 C 1.00298 0.1772 0.47146 0.0
C3920 C 1.03704 0.20963 0.46667 0.0
C3921 C 1.01823 0.28195 0.47069 0.0
H3922 H 0.09077 0.2945 0.46987 0.0
C3923 C 0.06086 0.3899 0.46583 0.0
C3924 C 0.08545 0.39678 0.46992 0.0
C3925 C 0.05104 0.36412 0.466 0.0
C3926 C 0.07032 0.29198 0.47013 0.0
H3927 H 0.97085 0.19576 0.47927 0.0
H3928 H 0.9873 0.23928 0.47876 0.0
H3929 H 0.0745 0.25087 0.47012 0.0
H3930 H 0.11835 0.37862 0.47726 0.0
H3931 H 0.10198 0.33502 0.47737 0.0
H3932 H 1.01404 0.32305 0.47054 0.0
C3933 C 0.99915 0.22448 0.4753 0.0
C3934 C 0.06069 0.26614 0.4702 0.0
C3935 C 0.98947 0.19872 0.47566 0.0
C3936 C 0.09942 0.37547 0.47402 0.0
C3937 C 0.08978 0.34967 0.47403 0.0
C3938 C 1.02785 0.30778 0.47041 0.0
C3939 C 1.02345 0.23121 0.47084 0.0
C3940 C 1.03418 0.25986 0.47056 0.0
C3941 C 0.06507 0.34273 0.47007 0.0
C3942 C 0.05437 0.31407 0.47019 0.0
H3943 H 1.03879 0.16903 0.46334 0.0
H3944 H 0.05556 0.21257 0.46298 0.0
H3945 H 0.99778 0.27944 0.47088 0.0
H3946 H 0.04885 0.40459 0.46239 0.0
H3947 H 1.03218 0.361 0.46267 0.0
C3948 C 0.6398 0.25764 0.21801 0.0
C3949 C 0.64712 0.23395 0.22281 0.0
C3950 C 0.61381 0.26726 0.21801 0.0
C3951 C 0.54158 0.24851 0.22354 0.0
H3952 H 0.52828 0.32039 0.22066 0.0
C3953 C 0.4321 0.28962 0.21991 0.0
C3954 C 0.42558 0.31506 0.22291 0.0
C3955 C 0.45807 0.2799 0.21984 0.0
C3956 C 0.53096 0.30013 0.22152 0.0
H3957 H 0.62944 0.20238 0.23129 0.0
H3958 H 0.5855 0.21839 0.23115 0.0
H3959 H 0.57214 0.30445 0.2207 0.0
H3960 H 0.44467 0.34963 0.22792 0.0
H3961 H 0.48842 0.33341 0.22767 0.0
H3962 H 0.50038 0.24417 0.22426 0.0
C3963 C 0.59996 0.23006 0.22734 0.0
C3964 C 0.55699 0.29065 0.22146 0.0
C3965 C 0.62598 0.22064 0.22748 0.0
C3966 C 0.44747 0.32996 0.22563 0.0
C3967 C 0.47339 0.32039 0.22541 0.0
C3968 C 0.51553 0.25794 0.22343 0.0
C3969 C 0.59256 0.25388 0.22263 0.0
C3970 C 0.56362 0.26438 0.22254 0.0
C3971 C 0.48002 0.29484 0.22257 0.0
C3972 C 0.50892 0.28425 0.22248 0.0
H3973 H 0.65435 0.26911 0.21414 0.0
H3974 H 0.61043 0.28541 0.21411 0.0
H3975 H 0.54427 0.22822 0.22431 0.0
H3976 H 0.41697 0.27681 0.21758 0.0
H3977 H 0.46084 0.26033 0.21742 0.0
C3978 C 0.55495 0.90452 0.9668 0.0
C3979 C 0.5791 0.91117 0.97141 0.0
C3980 C 0.54485 0.87885 0.9668 0.0
C3981 C 0.56297 0.80664 0.97148 0.0
H3982 H 0.49033 0.79465 0.97061 0.0
C3983 C 0.51958 0.69905 0.96708 0.0
C3984 C 0.49497 0.69241 0.9712 0.0
C3985 C 0.52957 0.72475 0.96716 0.0
C3986 C 0.51079 0.79703 0.97088 0.0
H3987 H 0.61092 0.89274 0.97949 0.0
H3988 H 0.59408 0.84934 0.97932 0.0
H3989 H 0.50696 0.83816 0.97056 0.0
H3990 H 0.46224 0.71081 0.97859 0.0
H3991 H 0.47887 0.75437 0.9785 0.0
H3992 H 0.56682 0.76552 0.97164 0.0
C3993 C 0.58245 0.86408 0.97569 0.0
C3994 C 0.52063 0.82278 0.97078 0.0
C3995 C 0.59235 0.88976 0.97584 0.0
C3996 C 0.48116 0.71383 0.9753 0.0
C3997 C 0.49095 0.73958 0.97519 0.0
C3998 C 0.55314 0.7809 0.97137 0.0
C3999 C 0.55817 0.85737 0.97121 0.0
C4000 C 0.5472 0.82884 0.97114 0.0
C4001 C 0.51567 0.74628 0.97116 0.0
C4002 C 0.52657 0.77484 0.97113 0.0
H4003 H 0.54354 0.91928 0.96307 0.0
H4004 H 0.52638 0.87588 0.96307 0.0
H4005 H 0.58343 0.80899 0.97169 0.0
H4006 H 0.53151 0.68419 0.96372 0.0
H4007 H 0.54844 0.7277 0.96383 0.0
C4008 C 0.1426 0.32126 0.86875 0.0
C4009 C 0.15001 0.34441 0.86351 0.0
C4010 C 0.11673 0.3114 0.8687 0.0
C4011 C 0.04451 0.32855 0.86228 0.0
H4012 H 1.0324 0.25671 0.86606 0.0
C4013 C 0.93561 0.28544 0.86626 0.0
C4014 C 0.92976 0.25973 0.86343 0.0
C4015 C 0.96136 0.29577 0.86626 0.0
C4016 C 1.03474 0.27695 0.86494 0.0
H4017 H 0.13249 0.37473 0.85413 0.0
H4018 H 0.08864 0.35837 0.85423 0.0
H4019 H 0.07595 0.27332 0.86603 0.0
H4020 H 0.94982 0.22557 0.85851 0.0
H4021 H 0.99309 0.24282 0.85865 0.0
H4022 H 1.00321 0.33218 0.86133 0.0
C4023 C 0.10303 0.3473 0.85843 0.0
C4024 C 0.06059 0.28683 0.86501 0.0
C4025 C 0.12899 0.35694 0.85832 0.0
C4026 C 0.95207 0.24534 0.86073 0.0
C4027 C 0.97774 0.25553 0.86088 0.0
C4028 C 1.0186 0.31872 0.86241 0.0
C4029 C 0.09561 0.32398 0.86358 0.0
C4030 C 0.06681 0.3131 0.86362 0.0
C4031 C 0.98373 0.28126 0.86361 0.0
C4032 C 1.01242 0.29239 0.86367 0.0
H4033 H 0.15696 0.31038 0.87304 0.0
H4034 H 0.11333 0.2937 0.87295 0.0
H4035 H 0.04689 0.34881 0.86124 0.0
H4036 H 0.92016 0.29796 0.86853 0.0
H4037 H 0.96364 0.31547 0.86857 0.0
C4038 C 0.51923 0.39926 0.61768 0.0
C4039 C 0.4948 0.40568 0.61327 0.0
C4040 C 0.52955 0.3736 0.61777 0.0
C4041 C 0.51182 0.30094 0.61382 0.0
H4042 H 0.58455 0.28923 0.61436 0.0
C4043 C 0.55585 0.19342 0.61876 0.0
C4044 C 0.58053 0.18658 0.61474 0.0
C4045 C 0.54575 0.21912 0.61849 0.0
C4046 C 0.56406 0.2915 0.61419 0.0
H4047 H 0.46277 0.38677 0.6056 0.0
H4048 H 0.47992 0.34341 0.60596 0.0
H4049 H 0.56761 0.33268 0.61414 0.0
H4050 H 0.61333 0.2048 0.60737 0.0
H4051 H 0.5965 0.2484 0.60712 0.0
H4052 H 0.50824 0.25979 0.61402 0.0
C4053 C 0.49164 0.35833 0.60936 0.0
C4054 C 0.55402 0.31725 0.61414 0.0
C4055 C 0.48154 0.38401 0.6091 0.0
C4056 C 0.59432 0.20792 0.61056 0.0
C4057 C 0.58441 0.2337 0.61048 0.0
C4058 C 0.52184 0.27521 0.61408 0.0
C4059 C 0.51619 0.35184 0.61367 0.0
C4060 C 0.5274 0.32326 0.61388 0.0
C4061 C 0.55958 0.24058 0.61439 0.0
C4062 C 0.54846 0.26919 0.61422 0.0
H4063 H 0.53076 0.41427 0.62115 0.0
H4064 H 0.54825 0.37089 0.62132 0.0
H4065 H 0.49133 0.30319 0.61371 0.0
H4066 H 0.54392 0.17869 0.62221 0.0
H4067 H 0.52682 0.22212 0.62177 0.0
C4068 C 0.6441 0.80719 0.36818 0.0
C4069 C 0.65069 0.83224 0.36467 0.0
C4070 C 0.61823 0.79735 0.36812 0.0
C4071 C 0.54545 0.81689 0.36531 0.0
H4072 H 0.53291 0.74467 0.36376 0.0
C4073 C 0.43711 0.77372 0.36925 0.0
C4074 C 0.43013 0.74971 0.36468 0.0
C4075 C 0.46299 0.78356 0.3692 0.0
C4076 C 0.5354 0.76503 0.36418 0.0
H4077 H 0.63191 0.86592 0.3584 0.0
H4078 H 0.58816 0.8495 0.35846 0.0
H4079 H 0.57664 0.76093 0.36376 0.0
H4080 H 0.44827 0.71789 0.35654 0.0
H4081 H 0.49201 0.73423 0.35664 0.0
H4082 H 0.50421 0.82097 0.36584 0.0
C4083 C 0.60311 0.83694 0.36129 0.0
C4084 C 0.56133 0.77466 0.36426 0.0
C4085 C 0.62899 0.84662 0.36119 0.0
C4086 C 0.45148 0.73634 0.3602 0.0
C4087 C 0.47737 0.74598 0.3603 0.0
C4088 C 0.51953 0.80724 0.36541 0.0
C4089 C 0.59643 0.8118 0.36472 0.0
C4090 C 0.56765 0.80107 0.36477 0.0
C4091 C 0.48442 0.77011 0.36477 0.0
C4092 C 0.5132 0.78084 0.36479 0.0
H4093 H 0.65914 0.79481 0.37108 0.0
H4094 H 0.61539 0.77812 0.37098 0.0
H4095 H 0.54795 0.83724 0.3658 0.0
H4096 H 0.42242 0.78529 0.37296 0.0
H4097 H 0.46613 0.80196 0.3729 0.0
C4098 C 0.9785 0.8608 0.11135 0.0
C4099 C 0.99192 0.88202 0.11582 0.0
C4100 C 0.98826 0.83502 0.11145 0.0
C4101 C 0.04997 0.79319 0.11597 0.0
H4102 H 1.00356 0.73621 0.11557 0.0
C4103 C 0.08895 0.68413 0.11099 0.0
C4104 C 0.07534 0.66265 0.11512 0.0
C4105 C 0.07919 0.7099 0.11124 0.0
C4106 C 1.0173 0.7515 0.11569 0.0
H4107 H 1.02775 0.88988 0.12395 0.0
H4108 H 0.04464 0.84625 0.12389 0.0
H4109 H 0.98709 0.77982 0.11564 0.0
H4110 H 1.03927 0.65452 0.12304 0.0
H4111 H 1.02236 0.69808 0.12319 0.0
H4112 H 0.08018 0.76488 0.11586 0.0
C4113 C 1.0261 0.84939 0.12024 0.0
C4114 C 1.00756 0.77732 0.11566 0.0
C4115 C 1.01613 0.87514 0.12032 0.0
C4116 C 0.05098 0.66934 0.11954 0.0
C4117 C 1.04102 0.6951 0.11963 0.0
C4118 C 0.05971 0.76738 0.11578 0.0
C4119 C 1.01258 0.82806 0.11585 0.0
C4120 C 1.02342 0.79943 0.11584 0.0
C4121 C 0.0547 0.71664 0.11551 0.0
C4122 C 0.04385 0.74527 0.11568 0.0
H4123 H 0.95991 0.864 0.10776 0.0
H4124 H 0.9765 0.8204 0.10782 0.0
H4125 H 0.06371 0.80849 0.11605 0.0
H4126 H 0.10771 0.68113 0.10751 0.0
H4127 H 0.09111 0.72469 0.10784 0.0
C4128 C 0.2713 0.24938 0.33538 0.0
C4129 C 0.2461 0.24027 0.33695 0.0
C4130 C 0.28018 0.25918 0.32513 0.0
C4131 C 0.26249 0.2663 0.29412 0.0
H4132 H 0.32229 0.30918 0.29344 0.0
C4133 C 0.29661 0.31604 0.25233 0.0
C4134 C 0.32249 0.32257 0.2505 0.0
C4135 C 0.28757 0.30621 0.26257 0.0
C4136 C 0.30569 0.29703 0.29325 0.0
H4137 H 0.21067 0.23553 0.32812 0.0
H4138 H 0.22563 0.2526 0.31054 0.0
H4139 H 0.30658 0.29285 0.31085 0.0
H4140 H 0.35874 0.32374 0.25893 0.0
H4141 H 0.34336 0.30712 0.27655 0.0
H4142 H 0.26156 0.27074 0.2765 0.0
C4143 C 0.23909 0.25182 0.31724 0.0
C4144 C 0.29642 0.28737 0.30351 0.0
C4145 C 0.23021 0.24192 0.32755 0.0
C4146 C 0.33872 0.31912 0.25969 0.0
C4147 C 0.32965 0.30949 0.27 0.0
C4148 C 0.2717 0.27607 0.28387 0.0
C4149 C 0.26448 0.26079 0.31563 0.0
C4150 C 0.27448 0.27157 0.30435 0.0
C4151 C 0.30374 0.30253 0.2718 0.0
C4152 C 0.29367 0.29179 0.28305 0.0
H4153 H 0.28466 0.24857 0.34214 0.0
H4154 H 0.29986 0.26512 0.3247 0.0
H4155 H 0.24592 0.25413 0.2939 0.0
H4156 H 0.28293 0.31891 0.24582 0.0
H4157 H 0.26747 0.30197 0.26324 0.0
C4158 C 1.00955 0.09 0.50865 0.0
C4159 C 1.00157 0.07346 0.50012 0.0
C4160 C 1.02073 0.08089 0.51866 0.0
C4161 C 0.0493 1.0204 0.53267 0.0
H4162 H 0.04645 0.06138 0.55896 0.0
C4163 C 0.08862 0.98026 0.57583 0.0
C4164 C 0.0961 0.99697 0.58438 0.0
C4165 C 0.07729 0.98914 0.5658 0.0
C4166 C 0.04799 0.04942 0.55178 0.0
H4167 H 0.9993 1.03346 0.49627 0.0
H4168 H 1.0186 1.01782 0.51323 0.0
H4169 H 1.02762 0.07698 0.542 0.0
H4170 H 0.09711 1.03702 0.58828 0.0
H4171 H 0.07789 0.05223 0.57129 0.0
H4172 H 0.06969 0.99284 0.54245 0.0
C4173 C 1.01671 1.03815 0.51225 0.0
C4174 C 1.03687 0.05863 0.54178 0.0
C4175 C 1.00543 0.04726 0.50229 0.0
C4176 C 0.09152 1.02306 0.58222 0.0
C4177 C 0.08022 1.03195 0.57224 0.0
C4178 C 0.06045 1.01119 0.54267 0.0
C4179 C 1.0248 0.05459 0.52084 0.0
C4180 C 1.03708 0.04449 0.53183 0.0
C4181 C 0.07264 1.01538 0.56362 0.0
C4182 C 0.06026 1.02535 0.55263 0.0
H4183 H 1.00723 0.11028 0.50758 0.0
H4184 H 1.02653 0.09486 0.52466 0.0
H4185 H 0.05077 1.00845 0.52548 0.0
H4186 H 0.09145 0.96004 0.5769 0.0
H4187 H 0.07191 0.97507 0.55977 0.0
C4188 C 0.29933 0.81325 0.83579 0.0
C4189 C 0.32426 0.82345 0.83689 0.0
C4190 C 0.28966 0.80348 0.82564 0.0
C4191 C 0.3033 0.79964 0.79416 0.0
H4192 H 0.24712 0.75215 0.79428 0.0
C4193 C 0.26673 0.75249 0.75218 0.0
C4194 C 0.24191 0.74206 0.75102 0.0
C4195 C 0.27631 0.76212 0.76236 0.0
C4196 C 0.26263 0.76561 0.79386 0.0
H4197 H 0.35841 0.82986 0.82732 0.0
H4198 H 0.34199 0.81322 0.80991 0.0
H4199 H 0.26402 0.76829 0.81153 0.0
H4200 H 0.20795 0.73477 0.76059 0.0
H4201 H 0.2242 0.75128 0.77807 0.0
H4202 H 0.30189 0.79702 0.7765 0.0
C4203 C 0.32935 0.81308 0.81692 0.0
C4204 C 0.2726 0.77514 0.80403 0.0
C4205 C 0.33906 0.82279 0.82713 0.0
C4206 C 0.22717 0.74217 0.76081 0.0
C4207 C 0.2368 0.75178 0.77105 0.0
C4208 C 0.29331 0.79013 0.78399 0.0
C4209 C 0.30422 0.8031 0.81578 0.0
C4210 C 0.29335 0.79253 0.80459 0.0
C4211 C 0.26179 0.76213 0.77222 0.0
C4212 C 0.27259 0.7727 0.78343 0.0
H4213 H 0.2868 0.81308 0.84285 0.0
H4214 H 0.27027 0.79658 0.82558 0.0
H4215 H 0.3188 0.81311 0.79374 0.0
H4216 H 0.27927 0.75296 0.74513 0.0
H4217 H 0.29563 0.76922 0.76243 0.0
C4218 C 0.50003 0.10717 0.07665 0.0
C4219 C 0.49505 0.09063 0.08559 0.0
C4220 C 0.51055 0.09836 0.06644 0.0
C4221 C 0.54153 1.03904 0.05228 0.0
H4222 H 0.53302 0.07856 1.02577 0.0
C4223 C 0.57496 0.99824 1.00847 0.0
C4224 C 0.58191 1.01479 0.99978 0.0
C4225 C 0.5647 1.0073 1.01867 0.0
C4226 C 0.53606 0.06705 1.03301 0.0
H4227 H 0.49847 0.05108 0.09018 0.0
H4228 H 0.51597 1.03594 0.07284 0.0
H4229 H 0.51565 0.094 1.04308 0.0
H4230 H 0.58314 0.05477 0.99578 0.0
H4231 H 0.56523 0.07032 1.01306 0.0
H4232 H 0.56181 1.01203 1.04217 0.0
C4233 C 0.51208 0.05603 0.07355 0.0
C4234 C 0.52584 0.07615 1.04321 0.0
C4235 C 0.50165 0.06485 0.08372 0.0
C4236 C 0.57782 0.04096 1.00194 0.0
C4237 C 0.56738 0.05002 1.01208 0.0
C4238 C 0.55164 1.0299 1.04207 0.0
C4239 C 0.51687 0.07239 0.06448 0.0
C4240 C 0.52818 0.06251 0.05326 0.0
C4241 C 0.56049 1.03355 1.02086 0.0
C4242 C 0.54931 0.04356 1.03205 0.0
H4243 H 0.49578 0.12719 0.07751 0.0
H4244 H 0.5139 0.11232 0.0601 0.0
H4245 H 0.54473 1.0275 0.05949 0.0
H4246 H 0.57749 0.97798 1.00742 0.0
H4247 H 0.55974 0.99335 1.02482 0.0
C4248 C 0.30243 0.75315 0.33302 0.0
C4249 C 0.32874 0.75028 0.33544 0.0
C4250 C 0.2934 0.7639 0.32293 0.0
C4251 C 0.31362 0.80381 0.29766 0.0
H4252 H 0.24912 0.78203 0.2855 0.0
C4253 C 0.26686 0.8562 0.25859 0.0
C4254 C 0.25115 0.84274 0.25112 0.0
C4255 C 0.27623 0.84518 0.26857 0.0
C4256 C 0.26727 0.78856 0.28861 0.0
H4257 H 0.36585 0.7572 0.32831 0.0
H4258 H 0.35046 0.776 0.31104 0.0
H4259 H 0.26497 0.76317 0.30254 0.0
H4260 H 0.23452 0.80558 0.24874 0.0
H4261 H 0.25007 0.78673 0.26594 0.0
H4262 H 0.31585 0.82929 0.28375 0.0
C4263 C 0.33646 0.76997 0.31702 0.0
C4264 C 0.27646 0.77767 0.29866 0.0
C4265 C 0.34549 0.75887 0.32707 0.0
C4266 C 0.2459 0.81726 0.25417 0.0
C4267 C 0.25496 0.80629 0.26423 0.0
C4268 C 0.30423 0.81499 0.2877 0.0
C4269 C 0.31006 0.77283 0.31457 0.0
C4270 C 0.30002 0.78483 0.30355 0.0
C4271 C 0.27051 0.81984 0.27181 0.0
C4272 C 0.28075 0.80772 0.28277 0.0
H4273 H 0.2885 0.74671 0.33894 0.0
H4274 H 0.27301 0.76552 0.32181 0.0
H4275 H 0.33165 0.81051 0.30084 0.0
H4276 H 0.2728 0.87524 0.25652 0.0
H4277 H 0.28801 0.85686 0.27382 0.0
C4278 C 0.57265 0.05978 0.5863 0.0
C4279 C 0.58134 0.08507 0.58777 0.0
C4280 C 0.56266 0.05067 0.57611 0.0
C4281 C 0.55402 0.06823 0.54512 0.0
H4282 H 0.51321 1.00712 0.54459 0.0
C4283 C 0.50381 1.03252 0.50357 0.0
C4284 C 0.49771 1.00657 0.50187 0.0
C4285 C 0.51391 0.04189 0.51371 0.0
C4286 C 0.52478 1.0241 0.54436 0.0
H4287 H 0.58473 0.12051 0.57892 0.0
H4288 H 0.56725 0.10521 0.56148 0.0
H4289 H 0.52955 1.02319 0.56192 0.0
H4290 H 0.4986 0.97042 0.5103 0.0
H4291 H 0.51586 0.9863 0.52769 0.0
H4292 H 0.54896 0.06916 0.52752 0.0
C4293 C 0.56865 0.0918 0.56817 0.0
C4294 C 0.53445 1.03359 0.55457 0.0
C4295 C 0.57878 0.10088 0.57839 0.0
C4296 C 0.50262 0.9905 0.51099 0.0
C4297 C 0.5126 0.99987 0.52118 0.0
C4298 C 0.54424 0.05879 0.53491 0.0
C4299 C 0.56033 0.06626 0.5666 0.0
C4300 C 0.54951 0.05601 0.55537 0.0
C4301 C 0.51856 1.02595 0.52293 0.0
C4302 C 0.52929 1.03633 0.53413 0.0
H4303 H 0.57397 0.04655 0.59308 0.0
H4304 H 0.55714 1.03093 0.57573 0.0
H4305 H 0.5656 0.08518 0.54484 0.0
H4306 H 0.50032 0.046 0.49704 0.0
H4307 H 0.51757 0.06204 0.51433 0.0
C4308 C 0.32016 0.26826 0.75216 0.0
C4309 C 0.33503 0.24566 0.75188 0.0
C4310 C 0.31058 0.27921 0.76211 0.0
C4311 C 0.31468 0.27556 0.79418 0.0
H4312 H 0.25769 0.32211 0.79286 0.0
C4313 C 0.27844 0.32981 0.83479 0.0
C4314 C 0.25354 0.34027 0.83568 0.0
C4315 C 0.28795 0.3184 0.82491 0.0
C4316 C 0.27352 0.30907 0.79364 0.0
H4317 H 0.35148 0.21808 0.76296 0.0
H4318 H 0.33483 0.23634 0.78 0.0
H4319 H 0.27387 0.3027 0.77614 0.0
H4320 H 0.21945 0.34569 0.82598 0.0
H4321 H 0.23554 0.32626 0.80906 0.0
H4322 H 0.31397 0.28154 0.81171 0.0
C4323 C 0.33038 0.24599 0.77241 0.0
C4324 C 0.28331 0.29785 0.78374 0.0
C4325 C 0.33997 0.23501 0.76239 0.0
C4326 C 0.23873 0.33838 0.82596 0.0
C4327 C 0.24827 0.32704 0.81602 0.0
C4328 C 0.30492 0.28682 0.80407 0.0
C4329 C 0.31516 0.26849 0.77266 0.0
C4330 C 0.30433 0.28066 0.78359 0.0
C4331 C 0.2733 0.31656 0.81511 0.0
C4332 C 0.28395 0.30407 0.80421 0.0
H4333 H 0.31561 0.27777 0.74455 0.0
H4334 H 0.29966 0.29655 0.76141 0.0
H4335 H 0.33082 0.26289 0.79493 0.0
H4336 H 0.29107 0.33075 0.84179 0.0
H4337 H 0.30732 0.31138 0.82502 0.0
C4338 C 0.07421 0.07806 1.01129 0.0
C4339 C 0.08073 0.06128 1.00261 0.0
C4340 C 0.06366 0.0693 1.02149 0.0
C4341 C 1.03373 1.01004 1.03574 0.0
H4342 H 0.04189 0.04956 0.06224 0.0
C4343 C 0.99705 0.96992 0.07913 0.0
C4344 C 0.99115 0.98645 0.08796 0.0
C4345 C 1.00795 0.97878 0.06903 0.0
C4346 C 1.03888 1.03806 0.05501 0.0
H4347 H 0.08113 1.02126 0.99868 0.0
H4348 H 0.06285 1.00624 1.01593 0.0
H4349 H 0.05962 0.06485 0.04499 0.0
H4350 H 0.99342 1.02609 0.09252 0.0
H4351 H 1.01177 0.04136 0.07532 0.0
H4352 H 1.0129 0.98331 0.04571 0.0
C4353 C 0.06541 1.02649 1.01494 0.0
C4354 C 0.04934 0.04707 0.04485 0.0
C4355 C 0.07607 1.03525 1.00481 0.0
C4356 C 0.99735 1.01233 0.08614 0.0
C4357 C 1.00821 1.02122 0.07606 0.0
C4358 C 1.02322 1.00106 0.04588 0.0
C4359 C 0.0588 0.04316 1.02368 0.0
C4360 C 0.0472 1.03339 1.03483 0.0
C4361 C 1.0138 1.00483 0.06707 0.0
C4362 C 1.0254 1.01469 0.05593 0.0
H4363 H 0.07724 0.09824 1.01022 0.0
H4364 H 0.05899 0.08339 1.02762 0.0
H4365 H 1.03076 0.99855 1.02849 0.0
H4366 H 0.99314 0.94983 0.07998 0.0
H4367 H 1.01197 0.96482 0.06276 0.0
C4368 C 0.7313 0.74041 0.82935 0.0
C4369 C 0.74724 0.73785 0.8387 0.0
C4370 C 0.73985 0.75193 0.81931 0.0
C4371 C 0.79588 0.79101 0.80634 0.0
H4372 H 0.76125 0.77646 0.77906 0.0
C4373 C 0.83573 0.83066 0.76311 0.0
C4374 C 0.81916 0.83419 0.75403 0.0
C4375 C 0.82742 0.81932 0.77325 0.0
C4376 C 0.77131 0.7813 0.78652 0.0
H4377 H 0.78551 0.74663 0.84412 0.0
H4378 H 0.80016 0.76611 0.8271 0.0
H4379 H 0.74651 0.75722 0.79607 0.0
H4380 H 0.77991 0.82791 0.74929 0.0
H4381 H 0.76583 0.80844 0.76636 0.0
H4382 H 0.82078 0.815 0.79673 0.0
C4383 C 0.78069 0.75946 0.82738 0.0
C4384 C 0.76261 0.76995 0.79655 0.0
C4385 C 0.77214 0.74795 0.83738 0.0
C4386 C 0.79385 0.82552 0.75575 0.0
C4387 C 0.78559 0.81408 0.76579 0.0
C4388 C 0.80463 0.80231 0.7963 0.0
C4389 C 0.76494 0.76185 0.81791 0.0
C4390 C 0.77451 0.77436 0.80688 0.0
C4391 C 0.80201 0.81052 0.77495 0.0
C4392 C 0.79265 0.79794 0.78599 0.0
H4393 H 0.71194 0.73341 0.82974 0.0
H4394 H 0.72633 0.75322 0.81264 0.0
H4395 H 0.80597 0.79587 0.81378 0.0
H4396 H 0.85539 0.83666 0.76243 0.0
H4397 H 0.84133 0.81717 0.77973 0.0
C4398 C 0.80136 0.31755 0.33465 0.0
C4399 C 0.82539 0.32985 0.33556 0.0
C4400 C 0.7924 0.30624 0.32467 0.0
C4401 C 0.80618 0.30043 0.29316 0.0
H4402 H 0.75308 0.24961 0.2942 0.0
C4403 C 0.77268 0.24697 0.252 0.0
C4404 C 0.74867 0.23467 0.25105 0.0
C4405 C 0.7816 0.2582 0.262 0.0
C4406 C 0.76773 0.26394 0.2935 0.0
H4407 H 0.85857 0.33859 0.32572 0.0
H4408 H 0.84336 0.3194 0.3086 0.0
H4409 H 0.7688 0.26857 0.31111 0.0
H4410 H 0.71547 0.22574 0.26085 0.0
H4411 H 0.73061 0.24485 0.27802 0.0
H4412 H 0.80511 0.29582 0.27556 0.0
C4413 C 0.83089 0.31863 0.31566 0.0
C4414 C 0.77703 0.27516 0.30349 0.0
C4415 C 0.83992 0.32988 0.32571 0.0
C4416 C 0.73411 0.23451 0.26089 0.0
C4417 C 0.74309 0.24569 0.27096 0.0
C4418 C 0.79689 0.28921 0.28318 0.0
C4419 C 0.80674 0.30632 0.31474 0.0
C4420 C 0.79663 0.29388 0.30374 0.0
C4421 C 0.76722 0.25805 0.27192 0.0
C4422 C 0.77729 0.27048 0.28293 0.0
H4423 H 0.78896 0.31683 0.34174 0.0
H4424 H 0.77368 0.29771 0.3248 0.0
H4425 H 0.82083 0.31476 0.29246 0.0
H4426 H 0.78512 0.24775 0.24493 0.0
H4427 H 0.80032 0.26673 0.26189 0.0
C4428 C 0.74043 0.32755 0.75731 0.0
C4429 C 0.75733 0.33331 0.74857 0.0
C4430 C 0.74912 0.31751 0.7676 0.0
C4431 C 0.80815 0.28767 0.78218 0.0
H4432 H 0.76833 0.29809 0.8085 0.0
C4433 C 0.84667 0.25312 0.82637 0.0
C4434 C 0.82956 0.24883 0.83519 0.0
C4435 C 0.83839 0.26307 0.81597 0.0
C4436 C 0.7799 0.29441 0.80133 0.0
H4437 H 0.79751 0.33316 0.74464 0.0
H4438 H 0.81241 0.31566 0.76206 0.0
H4439 H 0.75348 0.31502 0.79106 0.0
H4440 H 0.78944 0.25127 0.83911 0.0
H4441 H 0.77529 0.26816 0.82157 0.0
H4442 H 0.83457 0.26701 0.79245 0.0
C4443 C 0.79212 0.31839 0.76104 0.0
C4444 C 0.77114 0.30441 0.79106 0.0
C4445 C 0.78343 0.32857 0.75081 0.0
C4446 C 0.80371 0.25468 0.83288 0.0
C4447 C 0.79545 0.26461 0.82257 0.0
C4448 C 0.8169 0.27759 0.79245 0.0
C4449 C 0.7753 0.31247 0.76983 0.0
C4450 C 0.78492 0.30142 0.78109 0.0
C4451 C 0.81244 0.26935 0.81371 0.0
C4452 C 0.80308 0.28053 0.80242 0.0
H4453 H 0.72021 0.33072 0.7562 0.0
H4454 H 0.73492 0.31335 0.77378 0.0
H4455 H 0.81972 0.28413 0.77498 0.0
H4456 H 0.86672 0.24908 0.82751 0.0
H4457 H 0.85272 0.26621 0.80974 0.0
C4458 C 0.77812 0.82663 0.33534 0.0
C4459 C 0.75297 0.83612 0.33675 0.0
C4460 C 0.78728 0.81669 0.32516 0.0
C4461 C 0.77155 0.81085 0.29399 0.0
H4462 H 0.82888 0.76456 0.29391 0.0
C4463 C 0.80627 0.76175 0.25222 0.0
C4464 C 0.83146 0.75242 0.25076 0.0
C4465 C 0.79716 0.77169 0.26241 0.0
C4466 C 0.81303 0.77767 0.29354 0.0
H4467 H 0.71799 0.84154 0.32765 0.0
H4468 H 0.73356 0.82451 0.31012 0.0
H4469 H 0.81263 0.78123 0.31119 0.0
H4470 H 0.86657 0.74721 0.2598 0.0
H4471 H 0.85105 0.76416 0.27737 0.0
H4472 H 0.77194 0.80729 0.27635 0.0
C4473 C 0.74669 0.82496 0.31695 0.0
C4474 C 0.80344 0.78752 0.30372 0.0
C4475 C 0.73748 0.83487 0.32722 0.0
C4476 C 0.84704 0.75375 0.26027 0.0
C4477 C 0.83786 0.76363 0.27055 0.0
C4478 C 0.78113 0.801 0.28381 0.0
C4479 C 0.77198 0.81545 0.31554 0.0
C4480 C 0.78233 0.80451 0.30435 0.0
C4481 C 0.81255 0.77304 0.27199 0.0
C4482 C 0.80224 0.78401 0.28319 0.0
H4483 H 0.79123 0.82715 0.34219 0.0
H4484 H 0.80687 0.81033 0.32487 0.0
H4485 H 0.7557 0.82397 0.29363 0.0
H4486 H 0.79309 0.76115 0.2454 0.0
H4487 H 0.77755 0.77796 0.26273 0.0
C4488 C 0.58 0.54138 0.08299 0.0
C4489 C 0.58445 0.51529 0.08523 0.0
C4490 C 0.56924 0.55021 0.07288 0.0
C4491 C 0.55295 0.52992 1.04297 0.0
H4492 H 0.51612 0.59355 1.0422 0.0
C4493 C 0.50249 0.56486 1.00137 0.0
C4494 C 0.4948 0.59042 0.99965 0.0
C4495 C 0.51314 0.55607 1.01151 0.0
C4496 C 0.52653 0.57584 1.04199 0.0
H4497 H 0.58043 0.47835 0.07768 0.0
H4498 H 0.56211 0.49334 0.06028 0.0
H4499 H 0.53407 0.57821 0.0594 0.0
H4500 H 0.49379 0.62661 1.00802 0.0
H4501 H 0.51235 0.61184 1.02535 0.0
H4502 H 0.54572 0.52756 1.02559 0.0
C4503 C 0.56699 0.5074 0.0664 0.0
C4504 C 0.5371 0.56679 0.05214 0.0
C4505 C 0.57759 0.49856 0.07658 0.0
C4506 C 0.49892 0.60676 1.00874 0.0
C4507 C 0.50971 0.59799 1.01891 0.0
C4508 C 0.54252 0.53902 1.03281 0.0
C4509 C 0.56234 0.53359 0.06417 0.0
C4510 C 0.5507 0.54346 0.05303 0.0
C4511 C 0.51716 0.57223 1.02072 0.0
C4512 C 0.52883 0.56234 1.0319 0.0
H4513 H 0.58532 0.55535 0.08906 0.0
H4514 H 0.56684 0.57048 0.07187 0.0
H4515 H 0.56334 0.51217 1.04282 0.0
H4516 H 0.49991 0.55119 0.99483 0.0
H4517 H 0.51785 0.53613 1.01206 0.0
C4518 C 1.0046 0.54655 0.58123 0.0
C4519 C 1.0018 0.57256 0.58398 0.0
C4520 C 1.01482 0.5382 0.57098 0.0
C4521 C 1.03322 0.56057 0.54162 0.0
H4522 H 0.06531 0.49451 0.53988 0.0
C4523 C 0.08421 0.52569 0.50015 0.0
C4524 C 0.0877 0.49954 0.49781 0.0
C4525 C 0.07388 0.53454 0.51034 0.0
C4526 C 0.0562 0.51294 0.53996 0.0
H4527 H 1.00766 0.61002 0.57716 0.0
H4528 H 1.02522 0.59585 0.55947 0.0
H4529 H 0.04805 0.50946 0.55725 0.0
H4530 H 0.08226 0.46249 0.50508 0.0
H4531 H 0.06438 0.47744 0.5225 0.0
H4532 H 0.04141 0.56403 0.52431 0.0
C4533 C 1.01951 0.58148 0.56532 0.0
C4534 C 0.04604 0.52175 0.55019 0.0
C4535 C 1.00936 0.58983 0.57566 0.0
C4536 C 0.08019 0.48275 0.50631 0.0
C4537 C 0.06988 0.49157 0.51652 0.0
C4538 C 0.04337 0.55173 0.53137 0.0
C4539 C 1.02278 0.55531 0.56264 0.0
C4540 C 1.03411 0.54587 0.55141 0.0
C4541 C 0.06636 0.51782 0.51893 0.0
C4542 C 0.05522 0.52756 0.53015 0.0
H4543 H 0.9985 0.53227 0.58705 0.0
H4544 H 1.016 0.51795 0.56959 0.0
H4545 H 1.02418 0.57903 0.54174 0.0
H4546 H 0.08994 0.53964 0.49412 0.0
H4547 H 0.07229 0.55484 0.51148 0.0
C4548 C 0.07084 0.57571 0.0784 0.0
C4549 C 0.07803 0.55916 0.08706 0.0
C4550 C 0.06032 0.56664 0.06828 0.0
C4551 C 1.03105 0.50708 0.05422 0.0
H4552 H 1.03995 0.54611 1.02762 0.0
C4553 C 0.99406 0.46728 1.01067 0.0
C4554 C 0.98928 0.484 1.00177 0.0
C4555 C 1.00472 0.47588 1.02088 0.0
C4556 C 1.03665 0.53474 1.03487 0.0
H4557 H 0.07951 0.51919 0.09108 0.0
H4558 H 0.06107 0.50361 0.07392 0.0
H4559 H 0.05746 0.56154 0.04483 0.0
H4560 H 0.99263 0.52367 0.99735 0.0
H4561 H 1.01035 0.53837 1.01463 0.0
H4562 H 1.01012 0.48032 0.04428 0.0
C4563 C 0.06323 0.52391 0.07489 0.0
C4564 C 0.04702 0.54385 0.045 0.0
C4565 C 0.07395 0.53299 0.08495 0.0
C4566 C 0.99592 0.50972 1.00372 0.0
C4567 C 1.00644 0.51831 1.01387 0.0
C4568 C 1.02056 0.498 0.04408 0.0
C4569 C 0.05608 0.54038 0.06616 0.0
C4570 C 0.04461 0.53038 0.05506 0.0
C4571 C 1.0113 0.50177 1.02286 0.0
C4572 C 1.02293 0.5115 1.03401 0.0
H4573 H 0.07338 0.59597 0.07944 0.0
H4574 H 0.05516 0.58056 0.06214 0.0
H4575 H 1.02799 0.49574 0.0615 0.0
H4576 H 0.98963 0.44732 1.00975 0.0
H4577 H 1.00802 0.46184 1.0272 0.0
C4578 C 0.501 0.53133 0.583 0.0
C4579 C 0.49275 0.50593 0.58462 0.0
C4580 C 0.51195 0.54005 0.57293 0.0
C4581 C 0.52378 0.52151 0.54233 0.0
H4582 H 0.56548 0.58204 0.54226 0.0
C4583 C 0.57727 0.55584 0.50134 0.0
C4584 C 0.58481 0.58147 0.49976 0.0
C4585 C 0.56619 0.54688 0.51136 0.0
C4586 C 0.55368 0.56524 0.54188 0.0
H4587 H 0.49105 0.46991 0.57613 0.0
H4588 H 0.51001 0.48465 0.55883 0.0
H4589 H 0.54739 0.56648 0.55937 0.0
H4590 H 0.58488 0.61763 0.50817 0.0
H4591 H 0.56585 0.60246 0.52536 0.0
H4592 H 0.53021 0.52025 0.52483 0.0
C4593 C 0.50761 0.49837 0.56536 0.0
C4594 C 0.543 0.55605 0.55197 0.0
C4595 C 0.4966 0.48964 0.57549 0.0
C4596 C 0.57999 0.59772 0.50881 0.0
C4597 C 0.56893 0.58876 0.51888 0.0
C4598 C 0.5345 0.53068 0.53224 0.0
C4599 C 0.51565 0.52397 0.56369 0.0
C4600 C 0.52758 0.53385 0.55259 0.0
C4601 C 0.56172 0.56295 0.52056 0.0
C4602 C 0.54986 0.55292 0.53162 0.0
H4603 H 0.49864 0.54497 0.58957 0.0
H4604 H 0.51712 0.55988 0.57243 0.0
H4605 H 0.512 0.5047 0.54195 0.0
H4606 H 0.58032 0.54226 0.4948 0.0
H4607 H 0.56155 0.52692 0.51189 0.0
C4608 C 0.29278 0.17035 0.3972 0.0
C4609 C 0.27407 0.15998 0.38992 0.0
C4610 C 0.3089 0.15512 0.40438 0.0
C4611 C 0.32072 0.08499 0.41603 0.0
H4612 H 0.38139 0.11391 0.42888 0.0
C4613 C 0.38585 1.02356 0.44883 0.0
C4614 C 0.41153 1.03007 0.45163 0.0
C4615 C 0.36974 1.03867 0.44158 0.0
C4616 C 0.36469 0.10482 0.42549 0.0
H4617 H 0.25954 0.12298 0.38538 0.0
H4618 H 0.28646 0.09725 0.39756 0.0
H4619 H 0.35449 0.13937 0.41674 0.0
H4620 H 0.43862 0.05991 0.44802 0.0
H4621 H 0.41148 0.08554 0.43591 0.0
H4622 H 0.33091 0.05045 0.42481 0.0
C4623 C 0.28896 0.11761 0.39783 0.0
C4624 C 0.34856 0.12005 0.41831 0.0
C4625 C 0.27301 0.13285 0.39057 0.0
C4626 C 0.41945 0.05323 0.4465 0.0
C4627 C 0.40328 0.06846 0.43933 0.0
C4628 C 0.33672 0.06983 0.4233 0.0
C4629 C 0.30782 0.12793 0.40511 0.0
C4630 C 0.32574 0.11095 0.41316 0.0
C4631 C 0.37757 0.06197 0.43646 0.0
C4632 C 0.35961 0.0789 0.4284 0.0
H4633 H 0.2952 0.19076 0.39738 0.0
H4634 H 0.32228 0.16516 0.40954 0.0
H4635 H 0.30391 0.07598 0.4127 0.0
H4636 H 0.37789 1.00635 0.45224 0.0
H4637 H 0.35063 1.03184 0.4401 0.0
C4638 C 0.30975 0.13183 0.69713 0.0
C4639 C 0.30707 0.15882 0.69804 0.0
C4640 C 0.29479 0.1161 0.68969 0.0
C4641 C 0.23451 0.11578 0.66962 0.0
H4642 H 0.25806 0.04904 0.66114 0.0
C4643 C 0.16747 0.04559 0.64127 0.0
C4644 C 0.17732 1.02483 0.63495 0.0
C4645 C 0.1828 0.06131 0.64855 0.0
C4646 C 0.2506 0.06758 0.66322 0.0
H4647 H 0.28428 0.18874 0.69079 0.0
H4648 H 0.25872 0.16225 0.67838 0.0
H4649 H 0.28352 0.07538 0.67357 0.0
H4650 H 0.21349 1.00589 0.63243 0.0
H4651 H 0.23939 1.03214 0.64485 0.0
H4652 H 0.20151 0.10792 0.65935 0.0
C4653 C 0.27265 0.15273 0.68347 0.0
C4654 C 0.26567 0.08318 0.67068 0.0
C4655 C 0.28786 0.16849 0.6908 0.0
C4656 C 0.20406 1.02119 0.63674 0.0
C4657 C 0.21935 1.0367 0.64416 0.0
C4658 C 0.21927 0.10003 0.66229 0.0
C4659 C 0.27535 0.12569 0.68249 0.0
C4660 C 0.25848 0.10817 0.67425 0.0
C4661 C 0.20955 0.05766 0.65044 0.0
C4662 C 0.22653 0.07512 0.65866 0.0
H4663 H 0.32384 0.1225 0.70222 0.0
H4664 H 0.29851 0.0959 0.68973 0.0
H4665 H 0.22696 0.13424 0.67175 0.0
H4666 H 0.14737 0.04998 0.6406 0.0
H4667 H 0.17314 0.07642 0.6529 0.0
C4668 C 0.15488 1.01217 0.94617 0.0
C4669 C 0.16331 1.03488 0.9515 0.0
C4670 C 0.17081 0.99679 0.93898 0.0
C4671 C 0.23726 0.99465 0.92297 0.0
H4672 H 0.21905 0.92515 0.91656 0.0
C4673 C 0.29944 0.93129 0.88987 0.0
C4674 C 0.2988 0.90412 0.88951 0.0
C4675 C 0.28371 0.94663 0.89717 0.0
C4676 C 0.22508 0.94445 0.91809 0.0
H4677 H 0.19757 0.05767 0.95242 0.0
H4678 H 0.22441 1.03196 0.9402 0.0
H4679 H 0.19246 0.95083 0.92878 0.0
H4680 H 0.2787 0.87339 0.89753 0.0
H4681 H 0.25191 0.89919 0.90974 0.0
H4682 H 0.26982 0.9883 0.91224 0.0
C4683 C 0.20508 1.0256 0.94156 0.0
C4684 C 0.20914 0.9598 0.92531 0.0
C4685 C 0.18922 0.04081 0.94886 0.0
C4686 C 0.28074 0.89382 0.89712 0.0
C4687 C 0.2648 0.90915 0.90432 0.0
C4688 C 0.25303 0.9794 0.91565 0.0
C4689 C 0.19674 1.00273 0.93625 0.0
C4690 C 0.21443 0.98569 0.92816 0.0
C4691 C 0.26549 0.93638 0.90476 0.0
C4692 C 0.24783 0.95345 0.91285 0.0
H4693 H 0.13549 1.00595 0.94757 0.0
H4694 H 0.16226 0.98006 0.93539 0.0
H4695 H 0.24317 1.01402 0.92443 0.0
H4696 H 0.31241 0.9411 0.88442 0.0
H4697 H 0.28582 0.96702 0.89668 0.0
C4698 C 0.28912 0.95477 0.20051 0.0
C4699 C 0.28112 0.9295 0.19784 0.0
C4700 C 0.30525 0.97039 0.19347 0.0
C4701 C 0.3311 0.97963 0.16319 0.0
H4702 H 0.37969 1.02659 0.17567 0.0
C4703 C 0.39054 0.05691 0.13464 0.0
C4704 C 0.41615 0.06426 0.13719 0.0
C4705 C 0.37484 0.04078 0.14165 0.0
C4706 C 0.36636 1.01378 0.17178 0.0
H4707 H 0.28555 0.90277 0.18446 0.0
H4708 H 0.31183 0.9296 0.17233 0.0
H4709 H 0.35267 1.00029 0.18766 0.0
H4710 H 0.4434 0.05868 0.15033 0.0
H4711 H 0.41647 1.03244 0.16242 0.0
H4712 H 0.34417 0.99376 0.14731 0.0
C4713 C 0.30599 0.9375 0.18013 0.0
C4714 C 0.35028 0.99827 0.17888 0.0
C4715 C 0.29051 0.92158 0.18732 0.0
C4716 C 0.42431 0.05424 0.14756 0.0
C4717 C 0.40835 1.03877 0.15472 0.0
C4718 C 0.34663 0.99571 0.15609 0.0
C4719 C 0.31435 0.96265 0.18287 0.0
C4720 C 0.33195 0.98022 0.17496 0.0
C4721 C 0.38285 1.03105 0.1521 0.0
C4722 C 0.36523 1.01347 0.16001 0.0
H4723 H 0.28311 0.96268 0.20829 0.0
H4724 H 0.31027 0.98913 0.19638 0.0
H4725 H 0.31784 0.96675 0.15929 0.0
H4726 H 0.3824 0.06345 0.12698 0.0
H4727 H 0.35582 1.03628 0.13884 0.0
C4728 C 0.78167 0.91164 0.69177 0.0
C4729 C 0.79138 0.91947 0.70223 0.0
C4730 C 0.76699 0.92797 0.68445 0.0
C4731 C 0.72596 0.99105 0.68264 0.0
H4732 H 0.73081 0.98358 0.65113 0.0
C4733 C 0.65445 0.04912 0.65095 0.0
C4734 C 0.66256 0.0573 0.64029 0.0
C4735 C 0.66977 1.03335 0.65827 0.0
C4736 C 0.72875 0.98641 0.65988 0.0
H4737 H 0.79104 0.95313 0.71243 0.0
H4738 H 0.76519 0.98043 0.70029 0.0
H4739 H 0.75593 0.95608 0.66338 0.0
H4740 H 0.69543 0.05282 0.6297 0.0
H4741 H 0.7209 1.02523 0.64186 0.0
H4742 H 0.69816 1.02083 0.67914 0.0
C4743 C 0.76929 0.96133 0.69753 0.0
C4744 C 0.74355 0.97003 0.66715 0.0
C4745 C 0.78464 0.94521 0.70471 0.0
C4746 C 0.68741 0.04781 0.6376 0.0
C4747 C 0.70243 1.03143 0.64479 0.0
C4748 C 0.71059 1.00693 0.67538 0.0
C4749 C 0.75983 0.95361 0.68699 0.0
C4750 C 0.74308 0.97163 0.67891 0.0
C4751 C 0.69448 1.0235 0.65553 0.0
C4752 C 0.71133 1.00557 0.66362 0.0
H4753 H 0.78574 0.8925 0.68904 0.0
H4754 H 0.76081 0.92003 0.67671 0.0
H4755 H 0.72394 0.99392 0.69139 0.0
H4756 H 0.63591 0.05522 0.65384 0.0
H4757 H 0.66173 1.0285 0.66617 0.0
C4758 C 0.92717 1.02457 0.44398 0.0
C4759 C 0.91812 0.04558 0.45037 0.0
C4760 C 0.91101 1.00894 0.437 0.0
C4761 C 0.84193 1.00365 0.42342 0.0
H4762 H 0.86329 0.93622 0.4149 0.0
C4763 C 0.77861 0.94035 0.39075 0.0
C4764 C 0.78029 0.91326 0.38993 0.0
C4765 C 0.7946 0.95575 0.3979 0.0
C4766 C 0.85637 0.95492 0.41705 0.0
H4767 H 0.88241 0.06502 0.45339 0.0
H4768 H 0.85517 1.039 0.44147 0.0
H4769 H 0.89039 0.96229 0.42676 0.0
H4770 H 0.80274 0.88278 0.39695 0.0
H4771 H 0.83008 0.90876 0.40889 0.0
H4772 H 0.80801 0.99636 0.41364 0.0
C4773 C 0.87519 1.03417 0.44186 0.0
C4774 C 0.87257 0.9705 0.42405 0.0
C4775 C 0.8913 0.04955 0.44897 0.0
C4776 C 0.79977 0.90313 0.39692 0.0
C4777 C 0.81603 0.91857 0.40397 0.0
C4778 C 0.8259 0.98821 0.41629 0.0
C4779 C 0.88416 1.01296 0.43552 0.0
C4780 C 0.86618 0.99567 0.42765 0.0
C4781 C 0.81424 0.94571 0.40486 0.0
C4782 C 0.83221 0.96298 0.41275 0.0
H4783 H 0.94725 1.01992 0.44438 0.0
H4784 H 0.92005 0.9936 0.43256 0.0
H4785 H 0.83508 1.02241 0.42552 0.0
H4786 H 0.76459 0.95008 0.38578 0.0
H4787 H 0.79155 0.97606 0.39778 0.0
C4788 C 0.91664 1.02217 0.14866 0.0
C4789 C 0.90911 1.01384 0.13795 0.0
C4790 C 0.9008 1.03769 0.15584 0.0
C4791 C 0.84124 0.0838 0.157 0.0
H4792 H 0.84502 0.07632 0.18854 0.0
C4793 C 0.78624 0.1578 0.18857 0.0
C4794 C 0.77631 0.14973 0.19897 0.0
C4795 C 0.80142 0.14172 0.18134 0.0
C4796 C 0.84328 0.07917 0.17978 0.0
H4797 H 0.8766 1.01758 0.12713 0.0
H4798 H 0.85022 0.04492 0.13906 0.0
H4799 H 0.87151 0.0497 0.17647 0.0
H4800 H 0.77684 0.11602 0.20915 0.0
H4801 H 0.80345 0.08918 0.19715 0.0
H4802 H 0.8136 0.11382 0.16033 0.0
C4803 C 0.86867 1.03904 0.14212 0.0
C4804 C 0.85906 0.06347 0.17262 0.0
C4805 C 0.88422 1.02284 0.13506 0.0
C4806 C 0.78337 0.12408 0.20147 0.0
C4807 C 0.79917 0.10824 0.19438 0.0
C4808 C 0.826 0.10001 0.16417 0.0
C4809 C 0.87609 0.04715 0.15291 0.0
C4810 C 0.85872 0.06484 0.16086 0.0
C4811 C 0.80884 0.11616 0.1839 0.0
C4812 C 0.82608 0.0984 0.17593 0.0
H4813 H 0.9351 1.01629 0.15171 0.0
H4814 H 0.90843 0.04266 0.16381 0.0
H4815 H 0.83947 0.08661 0.14824 0.0
H4816 H 0.78199 0.1769 0.18585 0.0
H4817 H 0.80776 0.14978 0.17364 0.0
C4818 C 0.69041 0.04009 0.9486 0.0
C4819 C 0.66324 0.04227 0.94923 0.0
C4820 C 0.70638 0.05554 0.94144 0.0
C4821 C 0.7061 0.11479 0.9207 0.0
H4822 H 0.77634 0.09637 0.91552 0.0
C4823 C 0.77559 0.18281 0.89227 0.0
C4824 C 0.7998 0.17477 0.88809 0.0
C4825 C 0.75952 0.16734 0.8994 0.0
C4826 C 0.75681 0.10241 0.91664 0.0
H4827 H 0.63327 0.06468 0.94177 0.0
H4828 H 0.66006 0.09087 0.92977 0.0
H4829 H 0.7496 0.07032 0.92744 0.0
H4830 H 0.82433 0.14176 0.88911 0.0
H4831 H 0.7975 0.11576 0.90113 0.0
H4832 H 0.71331 0.14687 0.90989 0.0
C4833 C 0.6696 0.07706 0.93489 0.0
C4834 C 0.7409 0.08694 0.92382 0.0
C4835 C 0.65364 0.06147 0.942 0.0
C4836 C 0.80638 0.14978 0.89179 0.0
C4837 C 0.79044 0.13439 0.89896 0.0
C4838 C 0.72206 0.13036 0.91359 0.0
C4839 C 0.69685 0.07492 0.9342 0.0
C4840 C 0.71465 0.09225 0.92623 0.0
C4841 C 0.7661 0.14229 0.90315 0.0
C4842 C 0.74829 0.125 0.91114 0.0
H4843 H 0.69973 1.02609 0.95372 0.0
H4844 H 0.72669 0.05217 0.94173 0.0
H4845 H 0.68663 0.12094 0.9219 0.0
H4846 H 0.76873 0.20148 0.89001 0.0
H4847 H 0.74167 0.17554 0.90206 0.0
C4848 C 0.78539 0.6257 0.8862 0.0
C4849 C 0.77607 0.65022 0.88935 0.0
C4850 C 0.80136 0.60972 0.89317 0.0
C4851 C 0.82491 0.59813 0.92373 0.0
H4852 H 0.87518 0.55299 0.91112 0.0
C4853 C 0.88467 0.52095 0.9521 0.0
C4854 C 0.91023 0.5134 0.94953 0.0
C4855 C 0.86906 0.53721 0.94511 0.0
C4856 C 0.86139 0.56528 0.91505 0.0
H4857 H 0.77772 0.67506 0.9035 0.0
H4858 H 0.80378 0.64766 0.91544 0.0
H4859 H 0.84834 0.57969 0.89922 0.0
H4860 H 0.9375 0.51873 0.93638 0.0
H4861 H 0.91078 0.54534 0.92434 0.0
H4862 H 0.83743 0.58319 0.93954 0.0
C4863 C 0.79919 0.64065 0.90733 0.0
C4864 C 0.84539 0.58102 0.90799 0.0
C4865 C 0.78385 0.65692 0.90025 0.0
C4866 C 0.91846 0.52335 0.93916 0.0
C4867 C 0.90259 0.53902 0.93202 0.0
C4868 C 0.84041 0.58188 0.93077 0.0
C4869 C 0.80896 0.6163 0.90413 0.0
C4870 C 0.82645 0.59842 0.91197 0.0
C4871 C 0.87713 0.54695 0.93466 0.0
C4872 C 0.8596 0.56475 0.92681 0.0
H4873 H 0.78057 0.61871 0.8781 0.0
H4874 H 0.80749 0.59162 0.88989 0.0
H4875 H 0.81115 0.61045 0.92766 0.0
H4876 H 0.8765 0.51446 0.95976 0.0
H4877 H 0.85006 0.54182 0.94793 0.0
C4878 C 0.65988 0.566 0.14171 0.0
C4879 C 0.66892 0.54448 0.13565 0.0
C4880 C 0.67583 0.58157 0.14881 0.0
C4881 C 0.74405 0.5861 0.16329 0.0
H4882 H 0.72305 0.65399 0.17128 0.0
C4883 C 0.80652 0.64953 0.19627 0.0
C4884 C 0.80485 0.67664 0.19707 0.0
C4885 C 0.79076 0.63413 0.18902 0.0
C4886 C 0.72988 0.63516 0.16929 0.0
H4887 H 0.70436 0.52404 0.13337 0.0
H4888 H 0.73124 0.54999 0.14546 0.0
H4889 H 0.69637 0.62798 0.15922 0.0
H4890 H 0.78269 0.70711 0.18988 0.0
H4891 H 0.75579 0.68115 0.17776 0.0
H4892 H 0.77747 0.5932 0.17342 0.0
C4893 C 0.71139 0.55529 0.14473 0.0
C4894 C 0.71391 0.61961 0.16217 0.0
C4895 C 0.69549 0.53993 0.1375 0.0
C4896 C 0.78564 0.68676 0.18994 0.0
C4897 C 0.76963 0.67132 0.18279 0.0
C4898 C 0.75985 0.60152 0.17053 0.0
C4899 C 0.70244 0.57701 0.15074 0.0
C4900 C 0.72017 0.59427 0.15875 0.0
C4901 C 0.77139 0.64417 0.18191 0.0
C4902 C 0.75367 0.62692 0.17389 0.0
H4903 H 0.63996 0.57112 0.14096 0.0
H4904 H 0.66678 0.59732 0.15297 0.0
H4905 H 0.75079 0.56721 0.16136 0.0
H4906 H 0.82035 0.6398 0.20134 0.0
H4907 H 0.79378 0.61382 0.18917 0.0
C4908 C 0.78012 0.40636 0.39498 0.0
C4909 C 0.8 0.41559 0.38797 0.0
C4910 C 0.76472 0.42246 0.40213 0.0
C4911 C 0.75879 0.49179 0.41518 0.0
H4912 H 0.69225 0.4698 0.42487 0.0
C4913 C 0.69628 0.55447 0.44873 0.0
C4914 C 0.6691 0.55275 0.44959 0.0
C4915 C 0.71171 0.53862 0.44146 0.0
C4916 C 0.71071 0.4769 0.42239 0.0
H4917 H 0.81755 0.45162 0.38396 0.0
H4918 H 0.79206 0.47872 0.3962 0.0
H4919 H 0.71796 0.44277 0.41277 0.0
H4920 H 0.63853 0.53062 0.44246 0.0
H4921 H 0.6645 0.50349 0.43046 0.0
H4922 H 0.75166 0.52578 0.42493 0.0
C4923 C 0.78797 0.4586 0.3962 0.0
C4924 C 0.72608 0.46074 0.41526 0.0
C4925 C 0.80306 0.44255 0.38891 0.0
C4926 C 0.65895 0.5335 0.44252 0.0
C4927 C 0.67439 0.51736 0.43542 0.0
C4928 C 0.74361 0.50776 0.42248 0.0
C4929 C 0.76791 0.44944 0.40317 0.0
C4930 C 0.75089 0.46737 0.41122 0.0
C4931 C 0.70158 0.51912 0.43446 0.0
C4932 C 0.71869 0.50123 0.42644 0.0
H4933 H 0.77613 0.38619 0.39494 0.0
H4934 H 0.75024 0.41329 0.40705 0.0
H4935 H 0.77731 0.49883 0.41275 0.0
H4936 H 0.70599 0.56851 0.45366 0.0
H4937 H 0.73209 0.54167 0.4415 0.0
C4938 C 0.80812 0.40152 0.69093 0.0
C4939 C 0.78718 0.41129 0.6972 0.0
C4940 C 0.82437 0.41698 0.68388 0.0
C4941 C 0.83332 0.48652 0.67092 0.0
H4942 H 0.89717 0.45999 0.66003 0.0
C4943 C 0.89931 0.54952 0.63902 0.0
C4944 C 0.92538 0.54385 0.6365 0.0
C4945 C 0.88326 0.53405 0.64615 0.0
C4946 C 0.87955 0.46843 0.66285 0.0
H4947 H 0.76872 0.44751 0.69998 0.0
H4948 H 0.79587 0.47358 0.68807 0.0
H4949 H 0.87012 0.43411 0.67193 0.0
H4950 H 0.95321 0.51489 0.64047 0.0
H4951 H 0.92619 0.48862 0.65241 0.0
H4952 H 0.84273 0.52084 0.66184 0.0
C4953 C 0.80014 0.45352 0.68853 0.0
C4954 C 0.86333 0.45292 0.6699 0.0
C4955 C 0.78403 0.43808 0.69564 0.0
C4956 C 0.93375 0.52101 0.64179 0.0
C4957 C 0.91764 0.5054 0.64886 0.0
C4958 C 0.84944 0.50195 0.66379 0.0
C4959 C 0.82125 0.44384 0.68227 0.0
C4960 C 0.83933 0.46112 0.67435 0.0
C4961 C 0.8915 0.5111 0.65145 0.0
C4962 C 0.87348 0.49379 0.65938 0.0
H4963 H 0.81222 0.3814 0.69145 0.0
H4964 H 0.83953 0.40734 0.67954 0.0
H4965 H 0.81562 0.4949 0.67367 0.0
H4966 H 0.8909 0.56636 0.63544 0.0
H4967 H 0.86385 0.54034 0.64737 0.0
C4968 C 0.28295 0.38984 0.18845 0.0
C4969 C 0.29537 0.39915 0.19811 0.0
C4970 C 0.26742 0.40553 0.18122 0.0
C4971 C 0.22807 0.46904 0.17906 0.0
H4972 H 0.22863 0.45864 0.14762 0.0
C4973 C 0.15227 0.52311 0.14813 0.0
C4974 C 0.15968 0.53154 0.13741 0.0
C4975 C 0.16846 0.50797 0.1553 0.0
C4976 C 0.22779 0.46224 0.15636 0.0
H4977 H 0.29894 0.43451 0.20704 0.0
H4978 H 0.27158 0.46078 0.19511 0.0
H4979 H 0.25512 0.43197 0.15971 0.0
H4980 H 0.1922 0.52849 0.12655 0.0
H4981 H 0.21915 0.50169 0.13847 0.0
H4982 H 0.20001 0.49867 0.17575 0.0
C4983 C 0.27422 0.44104 0.1929 0.0
C4984 C 0.24338 0.4464 0.16351 0.0
C4985 C 0.29042 0.42556 0.19994 0.0
C4986 C 0.18472 0.52309 0.1345 0.0
C4987 C 0.20059 0.50723 0.14153 0.0
C4988 C 0.21185 0.48432 0.17194 0.0
C4989 C 0.26209 0.43186 0.18314 0.0
C4990 C 0.24446 0.44916 0.17521 0.0
C4991 C 0.19333 0.49906 0.15232 0.0
C4992 C 0.21107 0.48183 0.16023 0.0
H4993 H 0.2855 0.37006 0.18629 0.0
H4994 H 0.25911 0.39658 0.17407 0.0
H4995 H 0.22731 0.47271 0.18779 0.0
H4996 H 0.13367 0.52859 0.15116 0.0
H4997 H 0.16101 0.50284 0.16328 0.0
C4998 C 0.42272 0.54269 0.94103 0.0
C4999 C 0.4127 0.56203 0.9481 0.0
C5000 C 0.40718 0.52701 0.9338 0.0
C5001 C 0.33821 0.5194 0.92046 0.0
H5002 H 0.36234 0.45362 0.91095 0.0
C5003 C 0.2784 0.45573 0.88649 0.0
C5004 C 0.28066 0.42867 0.88576 0.0
C5005 C 0.29363 0.47148 0.89384 0.0
C5006 C 0.35467 0.47185 0.91337 0.0
H5007 H 0.37598 0.57849 0.95203 0.0
H5008 H 0.34977 0.55249 0.93966 0.0
H5009 H 0.38838 0.47987 0.92319 0.0
H5010 H 0.30306 0.39869 0.8932 0.0
H5011 H 0.32918 0.4252 0.90535 0.0
H5012 H 0.30464 0.51151 0.9105 0.0
C5013 C 0.37009 0.549 0.93971 0.0
C5014 C 0.37022 0.48752 0.92059 0.0
C5015 C 0.38559 0.56435 0.9471 0.0
C5016 C 0.2998 0.41898 0.89304 0.0
C5017 C 0.31533 0.43473 0.90022 0.0
C5018 C 0.32286 0.50392 0.91307 0.0
C5019 C 0.38004 0.52941 0.93272 0.0
C5020 C 0.36278 0.51208 0.92457 0.0
C5021 C 0.31301 0.4618 0.90105 0.0
C5022 C 0.33021 0.47925 0.90918 0.0
H5023 H 0.44308 0.53936 0.94108 0.0
H5024 H 0.41691 0.51298 0.92885 0.0
H5025 H 0.33061 0.53768 0.92285 0.0
H5026 H 0.26437 0.46509 0.88139 0.0
H5027 H 0.29021 0.49173 0.8937 0.0
C5028 C 0.38022 0.53026 0.63702 0.0
C5029 C 0.40725 0.53346 0.63603 0.0
C5030 C 0.36405 0.54531 0.64429 0.0
C5031 C 0.36172 0.60701 0.66341 0.0
H5032 H 0.29614 0.58162 0.67275 0.0
C5033 C 0.28848 0.67348 0.69097 0.0
C5034 C 0.26863 0.66319 0.69772 0.0
C5035 C 0.30483 0.6583 0.68382 0.0
C5036 C 0.31431 0.58962 0.67041 0.0
H5037 H 0.43664 0.55749 0.64292 0.0
H5038 H 0.40936 0.58328 0.65499 0.0
H5039 H 0.32333 0.55619 0.6606 0.0
H5040 H 0.25234 0.62632 0.70127 0.0
H5041 H 0.27944 0.60078 0.68905 0.0
H5042 H 0.35257 0.64057 0.67311 0.0
C5043 C 0.4002 0.56875 0.65012 0.0
C5044 C 0.33043 0.57455 0.66312 0.0
C5045 C 0.41642 0.55342 0.64298 0.0
C5046 C 0.26668 0.63618 0.69653 0.0
C5047 C 0.28275 0.62105 0.68924 0.0
C5048 C 0.34541 0.62226 0.67055 0.0
C5049 C 0.37315 0.56545 0.65121 0.0
C5050 C 0.35506 0.58237 0.65926 0.0
C5051 C 0.30278 0.63127 0.68253 0.0
C5052 C 0.32087 0.61435 0.67448 0.0
H5053 H 0.37117 0.51568 0.63214 0.0
H5054 H 0.34389 0.5411 0.64433 0.0
H5055 H 0.37984 0.61506 0.66102 0.0
H5056 H 0.2917 0.69377 0.69122 0.0
H5057 H 0.31917 0.66826 0.67912 0.0
C5058 C 0.19279 0.53726 0.44974 0.0
C5059 C 0.16746 0.52921 0.4471 0.0
C5060 C 0.20827 0.55342 0.44266 0.0
C5061 C 0.21636 0.57955 0.41236 0.0
H5062 H 0.26419 0.62751 0.42468 0.0
C5063 C 0.29174 0.63998 0.38334 0.0
C5064 C 0.2995 0.66524 0.38612 0.0
C5065 C 0.27606 0.62401 0.39042 0.0
C5066 C 0.25111 0.61437 0.42083 0.0
H5067 H 0.14051 0.5333 0.43375 0.0
H5068 H 0.16704 0.55967 0.42159 0.0
H5069 H 0.23835 0.60032 0.43676 0.0
H5070 H 0.29546 0.69148 0.3997 0.0
H5071 H 0.26992 0.66414 0.41184 0.0
H5072 H 0.22967 0.59306 0.39643 0.0
C5073 C 0.17511 0.55393 0.42938 0.0
C5074 C 0.23589 0.59818 0.42799 0.0
C5075 C 0.15936 0.53842 0.43659 0.0
C5076 C 0.29054 0.67273 0.39675 0.0
C5077 C 0.27552 0.65651 0.40395 0.0
C5078 C 0.23211 0.59522 0.4052 0.0
C5079 C 0.20028 0.56243 0.43208 0.0
C5080 C 0.21758 0.58009 0.42413 0.0
C5081 C 0.26729 0.6314 0.40112 0.0
C5082 C 0.25014 0.61359 0.40907 0.0
H5083 H 0.20084 0.53128 0.4575 0.0
H5084 H 0.22709 0.55853 0.44552 0.0
H5085 H 0.20323 0.56646 0.40852 0.0
H5086 H 0.29757 0.63239 0.37547 0.0
H5087 H 0.27112 0.60529 0.38745 0.0
C5088 C 0.33054 0.13587 0.31341 0.0
C5089 C 0.31105 0.13039 0.32097 0.0
C5090 C 0.34368 0.11618 0.30813 0.0
C5091 C 0.34726 0.04472 0.30651 0.0
H5092 H 0.34493 0.05795 0.27525 0.0
C5093 C 0.324 0.96365 0.27739 0.0
C5094 C 0.30452 0.97008 0.26999 0.0
C5095 C 0.33826 0.98267 0.28254 0.0
C5096 C 0.34573 0.05385 0.28396 0.0
H5097 H 0.29136 0.09998 0.32946 0.0
H5098 H 0.31349 0.06612 0.32027 0.0
H5099 H 0.34561 0.09323 0.28797 0.0
H5100 H 0.2856 1.00122 0.2617 0.0
H5101 H 0.30946 1.03416 0.27084 0.0
H5102 H 0.34413 1.00546 0.30255 0.0
C5103 C 0.31936 0.08538 0.31849 0.0
C5104 C 0.34659 0.07419 0.2913 0.0
C5105 C 0.30645 0.10496 0.32379 0.0
C5106 C 0.30066 0.99568 0.26729 0.0
C5107 C 0.31459 1.01464 0.27253 0.0
C5108 C 0.34571 1.0244 0.29918 0.0
C5109 C 0.33735 0.09065 0.31022 0.0
C5110 C 0.34555 0.06988 0.30269 0.0
C5111 C 0.33298 1.00848 0.28053 0.0
C5112 C 0.34312 1.02882 0.28783 0.0
H5113 H 0.33478 0.15533 0.31119 0.0
H5114 H 0.35781 0.12099 0.30199 0.0
H5115 H 0.34753 0.04065 0.31522 0.0
H5116 H 0.32758 0.94398 0.27949 0.0
H5117 H 0.35263 0.97712 0.28846 0.0
C5118 C 0.20757 1.03597 0.54862 0.0
C5119 C 0.19879 0.04228 0.55917 0.0
C5120 C 0.22729 0.04962 0.54377 0.0
C5121 C 0.28382 0.08403 0.55246 0.0
H5122 H 0.29621 0.08137 0.52111 0.0
C5123 C 0.37548 0.04709 0.53494 0.0
C5124 C 0.38392 0.05362 0.52436 0.0
C5125 C 0.35373 0.05822 0.53937 0.0
C5126 C 0.29312 0.08303 0.52987 0.0
H5127 H 0.20241 0.06929 0.57251 0.0
H5128 H 0.23707 0.09329 0.56399 0.0
H5129 H 0.25277 0.07961 0.52796 0.0
H5130 H 0.37704 0.07848 0.51046 0.0
H5131 H 0.3386 0.09785 0.51821 0.0
H5132 H 0.32421 0.08681 0.55438 0.0
C5133 C 0.22887 0.07747 0.55956 0.0
C5134 C 0.26816 0.08167 0.53381 0.0
C5135 C 0.20907 0.0637 0.56445 0.0
C5136 C 0.37081 0.07272 0.51857 0.0
C5137 C 0.34886 0.08388 0.52302 0.0
C5138 C 0.30873 0.08577 0.54851 0.0
C5139 C 0.23881 0.07001 0.54932 0.0
C5140 C 0.2634 0.08027 0.54516 0.0
C5141 C 0.33966 0.07618 0.53334 0.0
C5142 C 0.31377 0.0834 0.53722 0.0
H5143 H 0.20042 1.01938 0.54438 0.0
H5144 H 0.23467 0.04289 0.53599 0.0
H5145 H 0.28097 0.08323 0.56125 0.0
H5146 H 0.38469 1.03213 0.53958 0.0
H5147 H 0.347 0.05131 0.54722 0.0
C5148 C 0.28135 0.09225 0.76442 0.0
C5149 C 0.28698 0.1134 0.77108 0.0
C5150 C 0.26785 0.07159 0.76862 0.0
C5151 C 0.23801 0.04603 0.7947 0.0
H5152 H 0.2696 0.98395 0.78432 0.0
C5153 C 0.27422 0.96319 0.82067 0.0
C5154 C 0.27239 0.93828 0.81654 0.0
C5155 C 0.26358 0.98356 0.81494 0.0
C5156 C 0.26004 1.00097 0.78718 0.0
H5157 H 0.27951 0.13025 0.78705 0.0
H5158 H 0.25881 0.09344 0.79467 0.0
H5159 H 0.27462 1.02241 0.77386 0.0
H5160 H 0.25505 0.91514 0.80381 0.0
H5161 H 0.23775 0.95102 0.7935 0.0
H5162 H 0.22603 1.02437 0.80873 0.0
C5163 C 0.26416 0.09286 0.7861 0.0
C5164 C 0.2628 1.02325 0.78113 0.0
C5165 C 0.27677 0.11397 0.78177 0.0
C5166 C 0.25754 0.9341 0.80707 0.0
C5167 C 0.24735 0.95457 0.80122 0.0
C5168 C 0.23585 1.02376 0.80091 0.0
C5169 C 0.26052 0.07086 0.77973 0.0
C5170 C 0.25267 0.0464 0.78499 0.0
C5171 C 0.25124 0.97953 0.80488 0.0
C5172 C 0.24758 1.00126 0.79735 0.0
H5173 H 0.28859 0.09068 0.75614 0.0
H5174 H 0.26445 0.0556 0.76324 0.0
H5175 H 0.22917 0.06315 0.79781 0.0
H5176 H 0.28565 0.96741 0.82783 0.0
H5177 H 0.2671 1.00266 0.81787 0.0
C5178 C 0.2083 1.03672 1.03704 0.0
C5179 C 0.20021 1.02755 1.02678 0.0
C5180 C 0.2307 1.02779 1.0418 0.0
C5181 C 0.29256 1.00379 1.03335 0.0
H5182 H 0.30407 1.00772 0.06474 0.0
C5183 C 0.37855 0.05216 0.0515 0.0
C5184 C 0.38767 0.04601 0.06201 0.0
C5185 C 0.35834 1.03878 0.0469 0.0
C5186 C 0.30136 1.00583 0.05597 0.0
H5187 H 0.20853 1.0005 1.01384 0.0
H5188 H 0.24804 0.98499 1.02216 0.0
H5189 H 0.26093 1.00296 0.0578 0.0
H5190 H 0.38385 1.01966 0.0756 0.0
H5191 H 0.34818 0.99628 0.06756 0.0
H5192 H 0.33293 1.0074 1.03151 0.0
C5193 C 0.23702 0.99929 1.02645 0.0
C5194 C 0.27654 1.00341 0.05198 0.0
C5195 C 0.21446 1.00824 1.02167 0.0
C5196 C 0.37699 1.02514 0.06756 0.0
C5197 C 0.35663 1.0117 0.06294 0.0
C5198 C 0.31741 1.00595 1.03734 0.0
C5199 C 0.24572 1.00946 1.03644 0.0
C5200 C 0.27176 1.004 1.04062 0.0
C5201 C 0.34659 1.01888 0.05269 0.0
C5202 C 0.32192 1.00863 0.04866 0.0
H5203 H 0.19815 0.05193 1.04113 0.0
H5204 H 0.23703 1.03653 0.04937 0.0
H5205 H 0.28964 1.00417 1.02455 0.0
H5206 H 0.38594 0.06837 0.04705 0.0
H5207 H 0.35085 0.04526 1.0391 0.0
C5208 C 0.75675 0.94073 0.78673 0.0
C5209 C 0.77009 0.94554 0.7769 0.0
C5210 C 0.74674 0.96077 0.79291 0.0
C5211 C 0.76086 1.00811 0.80635 0.0
H5212 H 0.72356 0.06797 0.79713 0.0
C5213 C 0.7812 0.10127 0.82795 0.0
C5214 C 0.78304 0.12293 0.82119 0.0
C5215 C 0.76867 0.07947 0.82433 0.0
C5216 C 0.73424 0.05153 0.79983 0.0
H5217 H 0.78077 0.97539 0.76541 0.0
H5218 H 0.76232 1.00973 0.77591 0.0
H5219 H 0.72024 1.02882 0.78648 0.0
H5220 H 0.77021 0.13893 0.80568 0.0
H5221 H 0.75135 0.10035 0.79891 0.0
H5222 H 0.77741 1.03076 0.81882 0.0
C5223 C 0.75992 0.99047 0.77887 0.0
C5224 C 0.73195 1.02902 0.7938 0.0
C5225 C 0.77049 0.97059 0.77282 0.0
C5226 C 0.7704 0.12248 0.81099 0.0
C5227 C 0.75882 0.10028 0.80719 0.0
C5228 C 0.76377 1.03069 0.81217 0.0
C5229 C 0.74916 0.98588 0.78921 0.0
C5230 C 0.74588 1.00739 0.79684 0.0
C5231 C 0.75863 0.07809 0.81364 0.0
C5232 C 0.75125 0.05306 0.80878 0.0
H5233 H 0.75528 0.92166 0.78999 0.0
H5234 H 0.73843 0.95683 0.80087 0.0
H5235 H 0.77214 0.99178 0.80875 0.0
H5236 H 0.79051 0.10033 0.83585 0.0
H5237 H 0.76803 0.0633 0.8298 0.0
C5238 C 0.70666 0.04453 0.55451 0.0
C5239 C 0.6989 1.03747 0.56513 0.0
C5240 C 0.72891 1.0347 0.54996 0.0
C5241 C 0.79121 1.01299 0.55881 0.0
H5242 H 0.80132 1.00879 0.52733 0.0
C5243 C 0.87907 0.05255 0.53782 0.0
C5244 C 0.88754 0.04285 0.52771 0.0
C5245 C 0.858 0.04203 0.54308 0.0
C5246 C 0.79899 1.00923 0.53616 0.0
H5247 H 0.70776 1.0131 0.57899 0.0
H5248 H 0.74711 0.99616 0.57103 0.0
H5249 H 0.75847 1.00626 0.53482 0.0
H5250 H 0.88152 1.01341 0.51555 0.0
H5251 H 0.84454 0.99491 0.52479 0.0
H5252 H 0.83169 1.01663 0.56012 0.0
C5253 C 0.73586 1.00948 0.56629 0.0
C5254 C 0.77434 1.00806 0.54044 0.0
C5255 C 0.71338 1.01926 0.57086 0.0
C5256 C 0.87518 1.02154 0.52325 0.0
C5257 C 0.85406 1.01093 0.52855 0.0
C5258 C 0.81589 1.01395 0.55452 0.0
C5259 C 0.74419 1.01762 0.5559 0.0
C5260 C 0.77008 1.01139 0.55175 0.0
C5261 C 0.84483 1.02147 0.5384 0.0
C5262 C 0.81993 1.01353 0.54311 0.0
H5263 H 0.69643 0.05888 0.54991 0.0
H5264 H 0.73496 0.04186 0.54204 0.0
H5265 H 0.78866 1.01555 0.56756 0.0
H5266 H 0.88787 0.06919 0.5414 0.0
H5267 H 0.85118 0.05105 0.55052 0.0
C5268 C 0.82219 0.94157 0.30817 0.0
C5269 C 0.80704 0.94711 0.31741 0.0
C5270 C 0.83426 0.96107 0.30238 0.0
C5271 C 0.82581 1.00743 0.28788 0.0
H5272 H 0.85975 0.06805 0.29836 0.0
C5273 C 0.81112 0.09796 0.26398 0.0
C5274 C 0.80638 0.11996 0.27028 0.0
C5275 C 0.82358 0.07703 0.26851 0.0
C5276 C 0.85007 0.05139 0.29528 0.0
H5277 H 0.79513 0.97738 0.32843 0.0
H5278 H 0.81677 1.01097 0.31853 0.0
H5279 H 0.85943 1.02981 0.30971 0.0
H5280 H 0.81535 0.13779 0.28594 0.0
H5281 H 0.83361 0.10055 0.29419 0.0
H5282 H 0.81371 1.02892 0.27416 0.0
C5283 C 0.81915 0.99158 0.31574 0.0
C5284 C 0.85024 1.02939 0.30175 0.0
C5285 C 0.80671 0.97219 0.32142 0.0
C5286 C 0.81692 0.12095 0.28092 0.0
C5287 C 0.82825 0.0995 0.28563 0.0
C5288 C 0.82499 1.02947 0.28158 0.0
C5289 C 0.83187 0.98637 0.30586 0.0
C5290 C 0.83743 1.00749 0.29823 0.0
C5291 C 0.83053 0.07672 0.27965 0.0
C5292 C 0.83631 0.05215 0.28533 0.0
H5293 H 0.82351 0.92239 0.30503 0.0
H5294 H 0.84413 0.95659 0.29481 0.0
H5295 H 0.81542 0.99093 0.28504 0.0
H5296 H 0.80393 0.09579 0.25574 0.0
H5297 H 0.82626 0.06048 0.26337 0.0
C5298 C 0.87773 1.02484 0.05105 0.0
C5299 C 0.88636 1.03125 0.06161 0.0
C5300 C 0.8574 1.03785 0.0463 0.0
C5301 C 0.79952 0.0695 0.05521 0.0
H5302 H 0.78789 0.07094 1.02379 0.0
C5303 C 0.70717 1.03707 1.03603 0.0
C5304 C 0.69905 0.04633 1.0258 0.0
C5305 C 0.72933 0.04629 1.04089 0.0
C5306 C 0.79078 0.07136 1.03259 0.0
H5307 H 0.88182 0.05786 0.07506 0.0
H5308 H 0.846 0.08058 0.06675 0.0
H5309 H 0.83124 0.06854 1.03078 0.0
H5310 H 0.7069 0.07394 1.01302 0.0
H5311 H 0.74597 0.08993 1.0215 0.0
H5312 H 0.75902 0.07149 0.05701 0.0
C5313 C 0.85484 0.06521 0.06223 0.0
C5314 C 0.81566 0.06969 1.0366 0.0
C5315 C 0.87529 0.05216 0.06699 0.0
C5316 C 0.7129 0.06609 1.02082 0.0
C5317 C 0.7352 0.07531 1.02569 0.0
C5318 C 0.77466 0.07138 0.05121 0.0
C5319 C 0.84511 0.05761 0.05199 0.0
C5320 C 0.82018 0.06718 0.04792 0.0
C5321 C 0.74403 0.065 1.03564 0.0
C5322 C 0.76995 0.07076 1.03985 0.0
H5323 H 0.88549 1.00863 0.04672 0.0
H5324 H 0.85019 1.03112 1.0385 0.0
H5325 H 0.80224 0.06768 0.06399 0.0
H5326 H 0.69729 1.02157 1.04003 0.0
H5327 H 0.73577 1.03749 0.04843 0.0
C5328 C 0.82298 0.62814 0.80878 0.0
C5329 C 0.80426 0.62367 0.81681 0.0
C5330 C 0.83487 0.60778 0.80342 0.0
C5331 C 0.83892 0.53648 0.80338 0.0
H5332 H 0.83425 0.54496 0.77186 0.0
C5333 C 0.82198 0.45 0.77598 0.0
C5334 C 0.80188 0.45377 0.76853 0.0
C5335 C 0.83405 0.47079 0.78089 0.0
C5336 C 0.83577 0.54223 0.78065 0.0
H5337 H 0.78409 0.59423 0.82576 0.0
H5338 H 0.80431 0.55926 0.81651 0.0
H5339 H 0.8342 0.58213 0.78361 0.0
H5340 H 0.7792 0.48221 0.76014 0.0
H5341 H 0.79948 0.51812 0.76881 0.0
H5342 H 0.83756 0.49658 0.8005 0.0
C5343 C 0.81053 0.57827 0.81446 0.0
C5344 C 0.83616 0.56364 0.78741 0.0
C5345 C 0.79877 0.59849 0.81979 0.0
C5346 C 0.79488 0.47866 0.76572 0.0
C5347 C 0.80671 0.49935 0.77068 0.0
C5348 C 0.83801 0.51508 0.79663 0.0
C5349 C 0.82817 0.58258 0.80597 0.0
C5350 C 0.83609 0.56094 0.79889 0.0
C5351 C 0.82603 0.49574 0.77854 0.0
C5352 C 0.8348 0.51771 0.78523 0.0
H5353 H 0.82785 0.64735 0.8064 0.0
H5354 H 0.8486 0.61178 0.79701 0.0
H5355 H 0.83976 0.53376 0.81218 0.0
H5356 H 0.82798 0.43098 0.77818 0.0
H5357 H 0.84909 0.46729 0.78678 0.0
C5358 C 0.87476 0.52873 1.03516 0.0
C5359 C 0.88409 0.53418 1.02461 0.0
C5360 C 0.85491 0.5429 1.03965 0.0
C5361 C 0.79869 0.57631 1.03018 0.0
H5362 H 0.78653 0.57897 0.06155 0.0
C5363 C 0.70668 0.54373 0.04921 0.0
C5364 C 0.69857 0.55248 0.05953 0.0
C5365 C 0.72851 0.55359 0.04431 0.0
C5366 C 0.78955 0.57912 0.05276 0.0
H5367 H 0.88116 0.56021 1.01086 0.0
H5368 H 0.84602 0.58488 1.01869 0.0
H5369 H 0.82991 0.57564 0.05472 0.0
H5370 H 0.70598 0.57998 0.07239 0.0
H5371 H 0.74449 0.59712 0.06383 0.0
H5372 H 0.75827 0.57891 1.02824 0.0
C5373 C 0.85405 0.56942 1.02342 0.0
C5374 C 0.81447 0.57691 0.04884 0.0
C5375 C 0.87409 0.55523 1.01893 0.0
C5376 C 0.71199 0.57251 0.06452 0.0
C5377 C 0.73397 0.58239 0.05961 0.0
C5378 C 0.77379 0.57878 1.03409 0.0
C5379 C 0.84372 0.56288 1.0337 0.0
C5380 C 0.81914 0.57373 1.03755 0.0
C5381 C 0.74291 0.57245 0.0496 0.0
C5382 C 0.76885 0.57846 0.04544 0.0
H5383 H 0.88159 0.51244 1.03972 0.0
H5384 H 0.84716 0.53691 0.04747 0.0
H5385 H 0.80154 0.57406 1.02143 0.0
H5386 H 0.69715 0.52806 0.04519 0.0
H5387 H 0.73503 0.54505 1.03672 0.0
C5388 C 0.76727 0.4558 0.30514 0.0
C5389 C 0.77758 0.45508 0.31583 0.0
C5390 C 0.75913 0.47871 0.30049 0.0
C5391 C 0.77037 0.54796 0.30481 0.0
H5392 H 0.73263 0.553 0.27755 0.0
C5393 C 0.77069 0.63979 0.28016 0.0
C5394 C 0.78506 0.63574 0.27054 0.0
C5395 C 0.75989 0.61932 0.28579 0.0
C5396 C 0.74284 0.55189 0.28527 0.0
H5397 H 0.78382 0.47848 0.33038 0.0
H5398 H 0.76683 0.51676 0.32284 0.0
H5399 H 0.73063 0.51381 0.28828 0.0
H5400 H 0.7971 0.60694 0.25883 0.0
H5401 H 0.77738 0.57167 0.26843 0.0
H5402 H 0.78235 0.58608 0.30177 0.0
C5403 C 0.76708 0.50008 0.31766 0.0
C5404 C 0.74203 0.52935 0.29137 0.0
C5405 C 0.77634 0.47751 0.32214 0.0
C5406 C 0.78604 0.61104 0.26612 0.0
C5407 C 0.77475 0.59069 0.27163 0.0
C5408 C 0.77052 0.57059 0.2989 0.0
C5409 C 0.75997 0.50147 0.30655 0.0
C5410 C 0.7566 0.52669 0.30104 0.0
C5411 C 0.76262 0.59453 0.28175 0.0
C5412 C 0.75749 0.57248 0.28891 0.0
H5413 H 0.76645 0.43895 0.30009 0.0
H5414 H 0.7536 0.47858 0.29194 0.0
H5415 H 0.78245 0.54692 0.31199 0.0
H5416 H 0.76886 0.6586 0.28366 0.0
H5417 H 0.75051 0.62268 0.29358 0.0
C5418 C 0.70375 0.51986 0.52321 0.0
C5419 C 0.69202 0.54146 0.52775 0.0
C5420 C 0.72425 0.5082 0.52857 0.0
C5421 C 0.76251 0.50978 0.55458 0.0
H5422 H 0.81983 0.50429 0.53466 0.0
C5423 C 0.86565 0.51802 0.57026 0.0
C5424 C 0.87928 0.53673 0.56446 0.0
C5425 C 0.84315 0.50785 0.56591 0.0
C5426 C 0.80399 0.50544 0.54034 0.0
H5427 H 0.69196 0.56699 0.54175 0.0
H5428 H 0.72737 0.54698 0.55097 0.0
H5429 H 0.77682 0.50575 0.52731 0.0
H5430 H 0.88 0.55901 0.54945 0.0
H5431 H 0.84138 0.54132 0.54194 0.0
H5432 H 0.78992 0.51193 0.56753 0.0
C5433 C 0.7206 0.53856 0.54341 0.0
C5434 C 0.77925 0.50598 0.53614 0.0
C5435 C 0.7002 0.55015 0.53807 0.0
C5436 C 0.87044 0.54424 0.55406 0.0
C5437 C 0.84818 0.53402 0.54972 0.0
C5438 C 0.78728 0.50946 0.55878 0.0
C5439 C 0.73343 0.51795 0.53857 0.0
C5440 C 0.75832 0.50965 0.54317 0.0
C5441 C 0.83397 0.51608 0.55566 0.0
C5442 C 0.80831 0.50878 0.55164 0.0
H5443 H 0.69761 0.51247 0.51535 0.0
H5444 H 0.73352 0.49215 0.52469 0.0
H5445 H 0.74673 0.51197 0.56024 0.0
H5446 H 0.87211 0.51155 0.57822 0.0
H5447 H 0.83266 0.49397 0.57066 0.0
C5448 C 0.27323 0.64018 0.30046 0.0
C5449 C 0.28636 0.63616 0.31041 0.0
C5450 C 0.26305 0.61968 0.29464 0.0
C5451 C 0.27461 0.56997 0.28212 0.0
H5452 H 0.23412 0.51381 0.29299 0.0
C5453 C 0.28482 0.47402 0.26144 0.0
C5454 C 0.28566 0.45255 0.26835 0.0
C5455 C 0.27482 0.49701 0.26511 0.0
C5456 C 0.24565 0.5292 0.28984 0.0
H5457 H 0.2973 0.60716 0.32228 0.0
H5458 H 0.27847 0.57211 0.3124 0.0
H5459 H 0.23414 0.55418 0.30287 0.0
H5460 H 0.27395 0.4386 0.28439 0.0
H5461 H 0.25955 0.47915 0.29119 0.0
H5462 H 0.28863 0.54496 0.2699 0.0
C5463 C 0.27625 0.59111 0.30913 0.0
C5464 C 0.2453 0.5524 0.29543 0.0
C5465 C 0.28701 0.6114 0.3148 0.0
C5466 C 0.27477 0.45469 0.27889 0.0
C5467 C 0.26578 0.47807 0.28274 0.0
C5468 C 0.27556 0.54669 0.27672 0.0
C5469 C 0.2651 0.59493 0.29881 0.0
C5470 C 0.26032 0.57272 0.29175 0.0
C5471 C 0.2665 0.49982 0.27601 0.0
C5472 C 0.26171 0.52565 0.28068 0.0
H5473 H 0.27168 0.65898 0.29694 0.0
H5474 H 0.25453 0.62298 0.28666 0.0
H5475 H 0.28671 0.58526 0.27925 0.0
H5476 H 0.29302 0.47383 0.2533 0.0
H5477 H 0.27477 0.51291 0.25948 0.0
C5478 C 0.37555 0.54984 1.0343 0.0
C5479 C 0.38429 0.54329 1.02376 0.0
C5480 C 0.35457 0.53763 1.03888 0.0
C5481 C 0.29563 0.50849 1.02985 0.0
H5482 H 0.28455 0.50498 0.06129 0.0
C5483 C 0.2037 0.54059 0.04987 0.0
C5484 C 0.1957 0.53053 0.05998 0.0
C5485 C 0.2258 0.53169 0.04481 0.0
C5486 C 0.28726 0.50517 0.05247 0.0
H5487 H 0.37891 0.51729 1.01014 0.0
H5488 H 0.34183 0.49609 1.01814 0.0
H5489 H 0.3278 0.50681 0.05416 0.0
H5490 H 0.20372 0.50196 0.07233 0.0
H5491 H 0.24261 0.48645 0.06349 0.0
H5492 H 0.25505 0.50767 1.02819 0.0
C5493 C 0.35122 0.51091 1.02279 0.0
C5494 C 0.31209 0.5065 0.04839 0.0
C5495 C 0.37238 0.52311 1.01819 0.0
C5496 C 0.20963 0.51039 0.06463 0.0
C5497 C 0.23184 0.50146 0.05956 0.0
C5498 C 0.2708 0.50698 1.03393 0.0
C5499 C 0.34164 0.51856 1.03305 0.0
C5500 C 0.31647 0.50966 1.03708 0.0
C5501 C 0.24053 0.51249 0.04973 0.0
C5502 C 0.26631 0.50678 0.04532 0.0
H5503 H 0.38386 0.56555 1.03877 0.0
H5504 H 0.34747 0.54441 0.0467 0.0
H5505 H 0.29827 0.51085 1.0211 0.0
H5506 H 0.19373 0.55639 0.04613 0.0
H5507 H 0.23213 0.54103 1.03738 0.0
C5508 C 0.30105 0.60469 0.76324 0.0
C5509 C 0.3023 0.62945 0.76758 0.0
C5510 C 0.31404 0.5847 0.76827 0.0
C5511 C 0.3254 0.5664 0.79567 0.0
H5512 H 0.3561 0.50617 0.78302 0.0
C5513 C 0.3151 0.47417 0.8188 0.0
C5514 C 0.30828 0.45277 0.81244 0.0
C5515 C 0.32667 0.49529 0.81403 0.0
C5516 C 0.34737 0.52273 0.7867 0.0
H5517 H 0.32081 0.65291 0.77987 0.0
H5518 H 0.34246 0.61762 0.78898 0.0
H5519 H 0.35421 0.54538 0.77232 0.0
H5520 H 0.31331 0.4363 0.79613 0.0
H5521 H 0.32995 0.47385 0.78771 0.0
H5522 H 0.31583 0.54391 0.80947 0.0
C5523 C 0.33143 0.61389 0.78164 0.0
C5524 C 0.34663 0.54527 0.7806 0.0
C5525 C 0.31878 0.63401 0.77649 0.0
C5526 C 0.3162 0.45258 0.80135 0.0
C5527 C 0.32669 0.47424 0.79648 0.0
C5528 C 0.32553 0.54386 0.80164 0.0
C5529 C 0.32826 0.58892 0.77785 0.0
C5530 C 0.33492 0.56706 0.78492 0.0
C5531 C 0.33082 0.49644 0.80265 0.0
C5532 C 0.33569 0.52136 0.79712 0.0
H5533 H 0.28843 0.60021 0.75649 0.0
H5534 H 0.31103 0.56559 0.76525 0.0
H5535 H 0.31588 0.58281 0.79914 0.0
H5536 H 0.3104 0.47586 0.82738 0.0
H5537 H 0.33093 0.51135 0.81925 0.0
C5538 C 0.20533 0.56118 0.51927 0.0
C5539 C 0.19471 0.5395 0.52422 0.0
C5540 C 0.22537 0.57419 0.52434 0.0
C5541 C 0.26372 0.57688 0.55028 0.0
H5542 H 0.32073 0.58351 0.53026 0.0
C5543 C 0.36571 0.57104 0.56651 0.0
C5544 C 0.37951 0.55199 0.56099 0.0
C5545 C 0.34377 0.58156 0.56179 0.0
C5546 C 0.30496 0.58208 0.53597 0.0
H5547 H 0.19618 0.51516 0.53858 0.0
H5548 H 0.23085 0.53749 0.54731 0.0
H5549 H 0.27785 0.57936 0.52296 0.0
H5550 H 0.38159 0.53009 0.5459 0.0
H5551 H 0.34397 0.5483 0.53776 0.0
H5552 H 0.29112 0.57698 0.56324 0.0
C5553 C 0.22352 0.54494 0.53965 0.0
C5554 C 0.28028 0.57998 0.53178 0.0
C5555 C 0.20358 0.532 0.5346 0.0
C5556 C 0.37184 0.54501 0.55035 0.0
C5557 C 0.35012 0.55556 0.54564 0.0
C5558 C 0.28844 0.57871 0.55445 0.0
C5559 C 0.23518 0.56575 0.53445 0.0
C5560 C 0.25957 0.57579 0.53888 0.0
C5561 C 0.33531 0.57332 0.55143 0.0
C5562 C 0.30944 0.57974 0.5473 0.0
H5563 H 0.19861 0.56769 0.51134 0.0
H5564 H 0.23375 0.59033 0.52018 0.0
H5565 H 0.24807 0.57438 0.55597 0.0
H5566 H 0.37134 0.57718 0.57464 0.0
H5567 H 0.33291 0.59542 0.56641 0.0
loop_
_geom_bond_atom_site_label_1
_geom_bond_atom_site_label_2
_geom_bond_distance
_geom_bond_site_symmetry_2
_ccdc_geom_bond_type
C0 C2 1.422 . S
C0 C4 1.415 . S
C0 N6 1.369 . S
C1 C2 1.421 . S
C1 C3 1.417 . S
C1 C13 1.422 . S
C2 C0 1.422 . S
C2 C1 1.421 . S
C2 N12 1.359 . S
C3 C1 1.417 . S
C3 C5 1.329 . S
C3 H22 0.930 . S
C4 C0 1.415 . S
C4 C5 1.437 . S
C4 C8 1.413 . S
C5 C3 1.329 . S
C5 C4 1.437 . S
C5 H27 0.929 . S
N6 C0 1.369 . S
N6 C7 1.338 . S
N6 Gd11 2.622 . S
C7 N6 1.338 . S
C7 C9 1.378 . S
C7 H19 0.929 . S
C8 C4 1.413 . S
C8 C9 1.348 . S
C8 H24 0.931 . S
C9 C7 1.378 . S
C9 C8 1.348 . S
C9 H25 0.930 . S
Gd10 N30 2.622 . S
Gd10 N37 2.570 . S
Gd10 O44 2.353 . S
Gd10 O45 2.468 . S
Gd10 O46 2.427 . S
Gd10 O48 2.388 . S
Gd10 O49 2.386 . S
Gd10 O53 2.307 . S
Gd10 C63 2.805 . S
Gd11 N6 2.622 . S
Gd11 N12 2.570 . S
Gd11 O43 2.386 . S
Gd11 O47 2.307 . S
Gd11 O50 2.353 . S
Gd11 O51 2.468 . S
Gd11 O52 2.427 . S
Gd11 O54 2.388 . S
Gd11 C75 2.805 . S
N12 C2 1.359 . S
N12 Gd11 2.570 . S
N12 C14 1.343 . S
C13 C1 1.422 . S
C13 C15 1.321 . S
C13 H21 0.931 . S
C14 N12 1.343 . S
C14 C15 1.390 . S
C14 H16 0.931 . S
C15 C13 1.321 . S
C15 C14 1.390 . S
C15 H17 0.930 . S
H16 C14 0.931 . S
H17 C15 0.930 . S
H18 C41 0.931 . S
H19 C7 0.929 . S
H20 C42 0.930 . S
H21 C13 0.931 . S
H22 C3 0.930 . S
H23 C32 0.929 . S
H24 C8 0.931 . S
H25 C9 0.930 . S
H26 C64 0.930 . S
H27 C5 0.929 . S
H28 C33 0.931 . S
H29 C34 0.930 . S
N30 Gd10 2.622 . S
N30 C31 1.369 . S
N30 C32 1.338 . S
C31 N30 1.369 . S
C31 C35 1.415 . S
C31 C38 1.422 . S
C32 H23 0.929 . S
C32 N30 1.338 . S
C32 C34 1.378 . S
C33 H28 0.931 . S
C33 C34 1.348 . S
C33 C35 1.413 . S
C34 H29 0.930 . S
C34 C32 1.378 . S
C34 C33 1.348 . S
C35 C31 1.415 . S
C35 C33 1.413 . S
C35 C65 1.437 . S
H36 C65 0.929 . S
N37 Gd10 2.570 . S
N37 C38 1.359 . S
N37 C41 1.343 . S
C38 C31 1.422 . S
C38 N37 1.359 . S
C38 C40 1.421 . S
C39 C40 1.422 . S
C39 C42 1.321 . S
C39 H66 0.931 . S
C40 C38 1.421 . S
C40 C39 1.422 . S
C40 C64 1.417 . S
C41 H18 0.931 . S
C41 N37 1.343 . S
C41 C42 1.390 . S
C42 H20 0.930 . S
C42 C39 1.321 . S
C42 C41 1.390 . S
O43 Gd11 2.386 . S
O43 C55 1.265 . S
O44 Gd10 2.353 . S
O44 C55 1.242 . S
O45 Gd10 2.468 . S
O45 C63 1.263 . S
O46 Gd10 2.427 . S
O46 C63 1.252 . S
O47 Gd11 2.307 . S
O47 C56 1.261 . S
O48 Gd10 2.388 . S
O48 C56 1.252 . S
O49 Gd10 2.386 . S
O49 C67 1.265 . S
O50 Gd11 2.353 . S
O50 C67 1.242 . S
O51 Gd11 2.468 . S
O51 C75 1.263 . S
O52 Gd11 2.427 . S
O52 C75 1.252 . S
O53 Gd10 2.307 . S
O53 C68 1.261 . S
O54 Gd11 2.388 . S
O54 C68 1.252 . S
C55 O43 1.265 . S
C55 O44 1.242 . S
C56 O47 1.261 . S
C56 O48 1.252 . S
C57 C60 1.394 . S
C57 C62 1.370 . S
C57 C63 1.500 . S
C58 C61 1.383 . S
C58 C62 1.395 . S
C59 C60 1.396 . S
C59 C61 1.365 . S
C59 H76 0.929 . S
C60 C57 1.394 . S
C60 C59 1.396 . S
C60 H77 0.930 . S
C61 C58 1.383 . S
C61 C59 1.365 . S
C61 H78 0.931 . S
C62 C57 1.370 . S
C62 C58 1.395 . S
C62 H79 0.930 . S
C63 Gd10 2.805 . S
C63 O45 1.263 . S
C63 O46 1.252 . S
C63 C57 1.500 . S
C64 H26 0.930 . S
C64 C40 1.417 . S
C64 C65 1.329 . S
C65 C35 1.437 . S
C65 H36 0.929 . S
C65 C64 1.329 . S
H66 C39 0.931 . S
C67 O49 1.265 . S
C67 O50 1.242 . S
C68 O53 1.261 . S
C68 O54 1.252 . S
C69 C72 1.394 . S
C69 C74 1.370 . S
C69 C75 1.500 . S
C70 C73 1.383 . S
C70 C74 1.395 . S
C71 C72 1.396 . S
C71 C73 1.365 . S
C71 H80 0.929 . S
C72 C69 1.394 . S
C72 C71 1.396 . S
C72 H81 0.930 . S
C73 C70 1.383 . S
C73 C71 1.365 . S
C73 H82 0.931 . S
C74 C69 1.370 . S
C74 C70 1.395 . S
C74 H83 0.930 . S
C75 Gd11 2.805 . S
C75 O51 1.263 . S
C75 O52 1.252 . S
C75 C69 1.500 . S
H76 C59 0.929 . S
H77 C60 0.930 . S
H78 C61 0.931 . S
H79 C62 0.930 . S
H80 C71 0.929 . S
H81 C72 0.930 . S
H82 C73 0.931 . S
H83 C74 0.930 . S
C84 C86 1.459 . S
C84 C88 1.367 1_565 S
C84 N90 1.382 1_655 S
C85 C86 1.421 . S
C85 C87 1.417 1_565 S
C85 C97 1.422 . S
C86 C84 1.459 . S
C86 C85 1.421 . S
C86 N96 1.359 . S
C87 C85 1.417 1_545 S
C87 C89 1.329 . S
C87 H106 0.930 . S
C88 C84 1.367 1_545 S
C88 C89 1.437 . S
C88 C92 1.413 1_655 S
C89 C87 1.329 . S
C89 C88 1.437 . S
C89 H111 0.929 . S
N90 C84 1.382 1_455 S
N90 C91 1.338 1_565 S
N90 Gd95 2.622 . S
C91 N90 1.338 1_545 S
C91 C93 1.378 . S
C91 H103 0.929 . S
C92 C88 1.413 1_455 S
C92 C93 1.348 . S
C92 H108 0.930 1_455 S
C93 C91 1.378 . S
C93 C92 1.348 . S
C93 H109 0.930 . S
Gd94 N114 2.622 . S
Gd94 N121 2.570 . S
Gd94 O128 2.353 . S
Gd94 O129 2.468 . S
Gd94 O130 2.427 . S
Gd94 O132 2.388 . S
Gd94 O133 2.386 . S
Gd94 O137 2.307 . S
Gd94 C147 2.805 . S
Gd95 N90 2.622 . S
Gd95 N96 2.570 1_455 S
Gd95 O127 2.386 . S
Gd95 O131 2.307 . S
Gd95 O134 2.353 . S
Gd95 O135 2.468 . S
Gd95 O136 2.427 . S
Gd95 O138 2.388 . S
Gd95 C159 2.805 . S
N96 C86 1.359 . S
N96 Gd95 2.570 1_655 S
N96 C98 1.343 . S
C97 C85 1.422 . S
C97 C99 1.321 . S
C97 H105 0.931 . S
C98 N96 1.343 . S
C98 C99 1.390 . S
C98 H100 0.931 . S
C99 C97 1.321 . S
C99 C98 1.390 . S
C99 H101 0.930 . S
H100 C98 0.931 . S
H101 C99 0.930 . S
H102 C125 0.931 . S
H103 C91 0.929 . S
H104 C126 0.930 . S
H105 C97 0.931 . S
H106 C87 0.930 . S
H107 C116 0.929 . S
H108 C92 0.930 1_655 S
H109 C93 0.930 . S
H110 C148 0.930 . S
H111 C89 0.929 . S
H112 C117 0.931 . S
H113 C118 0.930 . S
N114 Gd94 2.622 . S
N114 C115 1.369 . S
N114 C116 1.338 . S
C115 N114 1.369 . S
C115 C119 1.415 . S
C115 C122 1.422 . S
C116 H107 0.929 . S
C116 N114 1.338 . S
C116 C118 1.378 . S
C117 H112 0.931 . S
C117 C118 1.348 . S
C117 C119 1.413 . S
C118 H113 0.930 . S
C118 C116 1.378 . S
C118 C117 1.348 . S
C119 C115 1.415 . S
C119 C117 1.413 . S
C119 C149 1.437 . S
H120 C149 0.929 . S
N121 Gd94 2.570 . S
N121 C122 1.359 . S
N121 C125 1.343 . S
C122 C115 1.422 . S
C122 N121 1.359 . S
C122 C124 1.421 . S
C123 C124 1.422 . S
C123 C126 1.321 . S
C123 H150 0.931 . S
C124 C122 1.421 . S
C124 C123 1.422 . S
C124 C148 1.417 . S
C125 H102 0.931 . S
C125 N121 1.343 . S
C125 C126 1.390 . S
C126 H104 0.930 . S
C126 C123 1.321 . S
C126 C125 1.390 . S
O127 Gd95 2.386 . S
O127 C139 1.265 . S
O128 Gd94 2.353 . S
O128 C139 1.242 . S
O129 Gd94 2.468 . S
O129 C147 1.263 . S
O130 Gd94 2.427 . S
O130 C147 1.252 . S
O131 Gd95 2.307 . S
O131 C140 1.261 . S
O132 Gd94 2.388 . S
O132 C140 1.252 . S
O133 Gd94 2.386 . S
O133 C151 1.265 . S
O134 Gd95 2.353 . S
O134 C151 1.242 . S
O135 Gd95 2.468 . S
O135 C159 1.263 . S
O136 Gd95 2.427 . S
O136 C159 1.252 . S
O137 Gd94 2.307 . S
O137 C152 1.261 . S
O138 Gd95 2.388 . S
O138 C152 1.252 . S
C139 O127 1.265 . S
C139 O128 1.242 . S
C140 O131 1.261 . S
C140 O132 1.252 . S
C141 C144 1.394 . S
C141 C146 1.370 . S
C141 C147 1.500 . S
C142 C145 1.383 . S
C142 C146 1.395 . S
C143 C144 1.396 . S
C143 C145 1.365 . S
C143 H160 0.929 . S
C144 C141 1.394 . S
C144 C143 1.396 . S
C144 H161 0.930 . S
C145 C142 1.383 . S
C145 C143 1.365 . S
C145 H162 0.931 . S
C146 C141 1.370 . S
C146 C142 1.395 . S
C146 H163 0.930 . S
C147 Gd94 2.805 . S
C147 O129 1.263 . S
C147 O130 1.252 . S
C147 C141 1.500 . S
C148 H110 0.930 . S
C148 C124 1.417 . S
C148 C149 1.329 . S
C149 C119 1.437 . S
C149 H120 0.929 . S
C149 C148 1.329 . S
H150 C123 0.931 . S
C151 O133 1.265 . S
C151 O134 1.242 . S
C152 O137 1.261 . S
C152 O138 1.252 . S
C153 C156 1.394 . S
C153 C158 1.370 . S
C153 C159 1.500 1_655 S
C154 C157 1.383 . S
C154 C158 1.395 . S
C155 C156 1.396 . S
C155 C157 1.365 . S
C155 H164 0.929 . S
C156 C153 1.394 . S
C156 C155 1.396 . S
C156 H165 0.930 . S
C157 C154 1.383 . S
C157 C155 1.365 . S
C157 H166 0.931 . S
C158 C153 1.370 . S
C158 C154 1.395 . S
C158 H167 0.930 . S
C159 Gd95 2.805 . S
C159 O135 1.263 . S
C159 O136 1.252 . S
C159 C153 1.500 1_455 S
H160 C143 0.929 . S
H161 C144 0.930 . S
H162 C145 0.931 . S
H163 C146 0.930 . S
H164 C155 0.929 . S
H165 C156 0.930 . S
H166 C157 0.931 . S
H167 C158 0.930 . S
C168 C170 1.422 . S
C168 C172 1.415 . S
C168 N174 1.369 . S
C169 C170 1.421 . S
C169 C171 1.417 . S
C169 C181 1.422 . S
C170 C168 1.422 . S
C170 C169 1.421 . S
C170 N180 1.359 . S
C171 C169 1.417 . S
C171 C173 1.329 . S
C171 H190 0.930 . S
C172 C168 1.415 . S
C172 C173 1.437 . S
C172 C176 1.413 . S
C173 C171 1.329 . S
C173 C172 1.437 . S
C173 H195 0.929 . S
N174 C168 1.369 . S
N174 C175 1.338 . S
N174 Gd179 2.622 . S
C175 N174 1.338 . S
C175 C177 1.378 . S
C175 H187 0.929 . S
C176 C172 1.413 . S
C176 C177 1.348 . S
C176 H192 0.931 . S
C177 C175 1.378 . S
C177 C176 1.348 . S
C177 H193 0.930 . S
Gd178 N198 2.622 . S
Gd178 N205 2.570 . S
Gd178 O212 2.353 . S
Gd178 O213 2.468 . S
Gd178 O214 2.427 . S
Gd178 O216 2.388 . S
Gd178 O217 2.386 . S
Gd178 O221 2.307 . S
Gd178 C231 2.805 . S
Gd179 N174 2.622 . S
Gd179 N180 2.570 . S
Gd179 O211 2.386 . S
Gd179 O215 2.307 . S
Gd179 O218 2.353 . S
Gd179 O219 2.468 . S
Gd179 O220 2.427 . S
Gd179 O222 2.388 . S
Gd179 C243 2.805 . S
N180 C170 1.359 . S
N180 Gd179 2.570 . S
N180 C182 1.343 . S
C181 C169 1.422 . S
C181 C183 1.321 . S
C181 H189 0.931 . S
C182 N180 1.343 . S
C182 C183 1.390 . S
C182 H184 0.931 . S
C183 C181 1.321 . S
C183 C182 1.390 . S
C183 H185 0.930 . S
H184 C182 0.931 . S
H185 C183 0.930 . S
H186 C209 0.931 . S
H187 C175 0.929 . S
H188 C210 0.930 . S
H189 C181 0.931 . S
H190 C171 0.930 . S
H191 C200 0.929 . S
H192 C176 0.931 . S
H193 C177 0.930 . S
H194 C232 0.930 . S
H195 C173 0.929 . S
H196 C201 0.931 . S
H197 C202 0.930 . S
N198 Gd178 2.622 . S
N198 C199 1.369 . S
N198 C200 1.338 . S
C199 N198 1.369 . S
C199 C203 1.415 . S
C199 C206 1.422 . S
C200 H191 0.929 . S
C200 N198 1.338 . S
C200 C202 1.378 . S
C201 H196 0.931 . S
C201 C202 1.348 . S
C201 C203 1.413 . S
C202 H197 0.930 . S
C202 C200 1.378 . S
C202 C201 1.348 . S
C203 C199 1.415 . S
C203 C201 1.413 . S
C203 C233 1.437 . S
H204 C233 0.929 . S
N205 Gd178 2.570 . S
N205 C206 1.359 . S
N205 C209 1.343 . S
C206 C199 1.422 . S
C206 N205 1.359 . S
C206 C208 1.421 . S
C207 C208 1.422 . S
C207 C210 1.321 . S
C207 H234 0.931 . S
C208 C206 1.421 . S
C208 C207 1.422 . S
C208 C232 1.417 . S
C209 H186 0.931 . S
C209 N205 1.343 . S
C209 C210 1.390 . S
C210 H188 0.930 . S
C210 C207 1.321 . S
C210 C209 1.390 . S
O211 Gd179 2.386 . S
O211 C223 1.265 . S
O212 Gd178 2.353 . S
O212 C223 1.242 . S
O213 Gd178 2.468 . S
O213 C231 1.263 . S
O214 Gd178 2.427 . S
O214 C231 1.252 . S
O215 Gd179 2.307 . S
O215 C224 1.261 . S
O216 Gd178 2.388 . S
O216 C224 1.252 . S
O217 Gd178 2.386 . S
O217 C235 1.265 . S
O218 Gd179 2.353 . S
O218 C235 1.242 . S
O219 Gd179 2.468 . S
O219 C243 1.263 . S
O220 Gd179 2.427 . S
O220 C243 1.252 . S
O221 Gd178 2.307 . S
O221 C236 1.261 . S
O222 Gd179 2.388 . S
O222 C236 1.252 . S
C223 O211 1.265 . S
C223 O212 1.242 . S
C224 O215 1.261 . S
C224 O216 1.252 . S
C225 C228 1.394 . S
C225 C230 1.370 . S
C225 C231 1.500 . S
C226 C229 1.383 . S
C226 C230 1.395 . S
C227 C228 1.396 . S
C227 C229 1.365 . S
C227 H244 0.929 . S
C228 C225 1.394 . S
C228 C227 1.396 . S
C228 H245 0.930 . S
C229 C226 1.383 . S
C229 C227 1.365 . S
C229 H246 0.931 . S
C230 C225 1.370 . S
C230 C226 1.395 . S
C230 H247 0.930 . S
C231 Gd178 2.805 . S
C231 O213 1.263 . S
C231 O214 1.252 . S
C231 C225 1.500 . S
C232 H194 0.930 . S
C232 C208 1.417 . S
C232 C233 1.329 . S
C233 C203 1.437 . S
C233 H204 0.929 . S
C233 C232 1.329 . S
H234 C207 0.931 . S
C235 O217 1.265 . S
C235 O218 1.242 . S
C236 O221 1.261 . S
C236 O222 1.252 . S
C237 C240 1.394 . S
C237 C242 1.370 . S
C237 C243 1.500 . S
C238 C241 1.383 . S
C238 C242 1.395 . S
C239 C240 1.396 . S
C239 C241 1.365 . S
C239 H248 0.929 . S
C240 C237 1.394 . S
C240 C239 1.396 . S
C240 H249 0.930 . S
C241 C238 1.383 . S
C241 C239 1.365 . S
C241 H250 0.931 . S
C242 C237 1.370 . S
C242 C238 1.395 . S
C242 H251 0.930 . S
C243 Gd179 2.805 . S
C243 O219 1.263 . S
C243 O220 1.252 . S
C243 C237 1.500 . S
H244 C227 0.929 . S
H245 C228 0.930 . S
H246 C229 0.931 . S
H247 C230 0.930 . S
H248 C239 0.929 . S
H249 C240 0.930 . S
H250 C241 0.931 . S
H251 C242 0.930 . S
C252 C254 1.459 . S
C252 C256 1.367 1_545 S
C252 N258 1.382 . S
C253 C254 1.421 . S
C253 C255 1.417 1_545 S
C253 C265 1.422 . S
C254 C252 1.459 . S
C254 C253 1.421 . S
C254 N264 1.359 . S
C255 C253 1.417 1_565 S
C255 C257 1.329 . S
C255 H274 0.930 . S
C256 C252 1.367 1_565 S
C256 C257 1.437 . S
C256 C260 1.413 . S
C257 C255 1.329 . S
C257 C256 1.437 . S
C257 H279 0.929 . S
N258 C252 1.382 . S
N258 C259 1.338 1_545 S
N258 Gd263 2.622 . S
C259 N258 1.338 1_565 S
C259 C261 1.378 . S
C259 H271 0.929 . S
C260 C256 1.413 . S
C260 C261 1.348 . S
C260 H276 0.931 . S
C261 C259 1.378 . S
C261 C260 1.348 . S
C261 H277 0.930 . S
Gd262 N282 2.622 . S
Gd262 N289 2.570 . S
Gd262 O296 2.353 . S
Gd262 O297 2.468 . S
Gd262 O298 2.427 . S
Gd262 O300 2.388 . S
Gd262 O301 2.386 . S
Gd262 O305 2.307 . S
Gd262 C315 2.805 . S
Gd263 N258 2.622 . S
Gd263 N264 2.570 . S
Gd263 O295 2.386 . S
Gd263 O299 2.307 . S
Gd263 O302 2.353 . S
Gd263 O303 2.468 . S
Gd263 O304 2.427 . S
Gd263 O306 2.388 . S
Gd263 C327 2.805 . S
N264 C254 1.359 . S
N264 Gd263 2.570 . S
N264 C266 1.343 . S
C265 C253 1.422 . S
C265 C267 1.321 . S
C265 H273 0.931 . S
C266 N264 1.343 . S
C266 C267 1.390 . S
C266 H268 0.931 . S
C267 C265 1.321 . S
C267 C266 1.390 . S
C267 H269 0.930 . S
H268 C266 0.931 . S
H269 C267 0.930 . S
H270 C293 0.931 . S
H271 C259 0.929 . S
H272 C294 0.930 . S
H273 C265 0.931 . S
H274 C255 0.930 . S
H275 C284 0.929 . S
H276 C260 0.931 . S
H277 C261 0.930 . S
H278 C316 0.930 . S
H279 C257 0.929 . S
H280 C285 0.931 . S
H281 C286 0.930 . S
N282 Gd262 2.622 . S
N282 C283 1.369 . S
N282 C284 1.338 . S
C283 N282 1.369 . S
C283 C287 1.415 . S
C283 C290 1.422 . S
C284 H275 0.929 . S
C284 N282 1.338 . S
C284 C286 1.378 . S
C285 H280 0.931 . S
C285 C286 1.348 . S
C285 C287 1.413 . S
C286 H281 0.930 . S
C286 C284 1.378 . S
C286 C285 1.348 . S
C287 C283 1.415 . S
C287 C285 1.413 . S
C287 C317 1.437 . S
H288 C317 0.929 . S
N289 Gd262 2.570 . S
N289 C290 1.359 . S
N289 C293 1.343 . S
C290 C283 1.422 . S
C290 N289 1.359 . S
C290 C292 1.421 . S
C291 C292 1.422 . S
C291 C294 1.321 . S
C291 H318 0.931 . S
C292 C290 1.421 . S
C292 C291 1.422 . S
C292 C316 1.417 . S
C293 H270 0.931 . S
C293 N289 1.343 . S
C293 C294 1.390 . S
C294 H272 0.930 . S
C294 C291 1.321 . S
C294 C293 1.390 . S
O295 Gd263 2.386 . S
O295 C307 1.265 . S
O296 Gd262 2.353 . S
O296 C307 1.242 . S
O297 Gd262 2.468 . S
O297 C315 1.263 . S
O298 Gd262 2.427 . S
O298 C315 1.252 . S
O299 Gd263 2.307 . S
O299 C308 1.261 . S
O300 Gd262 2.388 . S
O300 C308 1.252 . S
O301 Gd262 2.386 . S
O301 C319 1.265 . S
O302 Gd263 2.353 . S
O302 C319 1.242 . S
O303 Gd263 2.468 . S
O303 C327 1.263 . S
O304 Gd263 2.427 . S
O304 C327 1.252 . S
O305 Gd262 2.307 . S
O305 C320 1.261 . S
O306 Gd263 2.388 . S
O306 C320 1.252 . S
C307 O295 1.265 . S
C307 O296 1.242 . S
C308 O299 1.261 . S
C308 O300 1.252 . S
C309 C312 1.394 . S
C309 C314 1.370 . S
C309 C315 1.500 . S
C310 C313 1.383 . S
C310 C314 1.395 . S
C311 C312 1.396 . S
C311 C313 1.365 . S
C311 H328 0.929 . S
C312 C309 1.394 . S
C312 C311 1.396 . S
C312 H329 0.930 . S
C313 C310 1.383 . S
C313 C311 1.365 . S
C313 H330 0.931 . S
C314 C309 1.370 . S
C314 C310 1.395 . S
C314 H331 0.930 . S
C315 Gd262 2.805 . S
C315 O297 1.263 . S
C315 O298 1.252 . S
C315 C309 1.500 . S
C316 H278 0.930 . S
C316 C292 1.417 . S
C316 C317 1.329 . S
C317 C287 1.437 . S
C317 H288 0.929 . S
C317 C316 1.329 . S
H318 C291 0.931 . S
C319 O301 1.265 . S
C319 O302 1.242 . S
C320 O305 1.261 . S
C320 O306 1.252 . S
C321 C324 1.394 . S
C321 C326 1.370 . S
C321 C327 1.500 . S
C322 C325 1.383 . S
C322 C326 1.395 . S
C323 C324 1.396 . S
C323 C325 1.365 . S
C323 H332 0.929 . S
C324 C321 1.394 . S
C324 C323 1.396 . S
C324 H333 0.930 . S
C325 C322 1.383 . S
C325 C323 1.365 . S
C325 H334 0.931 . S
C326 C321 1.370 . S
C326 C322 1.395 . S
C326 H335 0.930 . S
C327 Gd263 2.805 . S
C327 O303 1.263 . S
C327 O304 1.252 . S
C327 C321 1.500 . S
H328 C311 0.929 . S
H329 C312 0.930 . S
H330 C313 0.931 . S
H331 C314 0.930 . S
H332 C323 0.929 . S
H333 C324 0.930 . S
H334 C325 0.931 . S
H335 C326 0.930 . S
C336 C338 1.422 . S
C336 C340 1.415 . S
C336 N342 1.369 . S
C337 C338 1.421 . S
C337 C339 1.417 . S
C337 C349 1.422 . S
C338 C336 1.422 . S
C338 C337 1.421 . S
C338 N348 1.359 . S
C339 C337 1.417 . S
C339 C341 1.329 . S
C339 H358 0.930 . S
C340 C336 1.415 . S
C340 C341 1.437 . S
C340 C344 1.413 . S
C341 C339 1.329 . S
C341 C340 1.437 . S
C341 H363 0.929 . S
N342 C336 1.369 . S
N342 C343 1.338 . S
N342 Gd347 2.622 . S
C343 N342 1.338 . S
C343 C345 1.378 . S
C343 H355 0.929 . S
C344 C340 1.413 . S
C344 C345 1.348 . S
C344 H360 0.931 . S
C345 C343 1.378 . S
C345 C344 1.348 . S
C345 H361 0.930 . S
Gd346 N366 2.622 . S
Gd346 N373 2.570 . S
Gd346 O380 2.353 . S
Gd346 O381 2.468 . S
Gd346 O382 2.427 . S
Gd346 O384 2.388 . S
Gd346 O385 2.386 . S
Gd346 O389 2.307 . S
Gd346 C399 2.805 . S
Gd347 N342 2.622 . S
Gd347 N348 2.570 . S
Gd347 O379 2.386 . S
Gd347 O383 2.307 . S
Gd347 O386 2.353 . S
Gd347 O387 2.468 . S
Gd347 O388 2.427 . S
Gd347 O390 2.388 . S
Gd347 C411 2.805 . S
N348 C338 1.359 . S
N348 Gd347 2.570 . S
N348 C350 1.343 . S
C349 C337 1.422 . S
C349 C351 1.321 . S
C349 H357 0.931 . S
C350 N348 1.343 . S
C350 C351 1.390 . S
C350 H352 0.931 . S
C351 C349 1.321 . S
C351 C350 1.390 . S
C351 H353 0.930 . S
H352 C350 0.931 . S
H353 C351 0.930 . S
H354 C377 0.931 . S
H355 C343 0.929 . S
H356 C378 0.930 . S
H357 C349 0.931 . S
H358 C339 0.930 . S
H359 C368 0.929 . S
H360 C344 0.931 . S
H361 C345 0.930 . S
H362 C400 0.930 . S
H363 C341 0.929 . S
H364 C369 0.931 . S
H365 C370 0.930 . S
N366 Gd346 2.622 . S
N366 C367 1.369 . S
N366 C368 1.338 . S
C367 N366 1.369 . S
C367 C371 1.415 . S
C367 C374 1.422 . S
C368 H359 0.929 . S
C368 N366 1.338 . S
C368 C370 1.378 . S
C369 H364 0.931 . S
C369 C370 1.348 . S
C369 C371 1.413 . S
C370 H365 0.930 . S
C370 C368 1.378 . S
C370 C369 1.348 . S
C371 C367 1.415 . S
C371 C369 1.413 . S
C371 C401 1.437 . S
H372 C401 0.929 . S
N373 Gd346 2.570 . S
N373 C374 1.359 . S
N373 C377 1.343 . S
C374 C367 1.422 . S
C374 N373 1.359 . S
C374 C376 1.421 . S
C375 C376 1.422 . S
C375 C378 1.321 . S
C375 H402 0.931 . S
C376 C374 1.421 . S
C376 C375 1.422 . S
C376 C400 1.417 . S
C377 H354 0.931 . S
C377 N373 1.343 . S
C377 C378 1.390 . S
C378 H356 0.930 . S
C378 C375 1.321 . S
C378 C377 1.390 . S
O379 Gd347 2.386 . S
O379 C391 1.265 . S
O380 Gd346 2.353 . S
O380 C391 1.242 . S
O381 Gd346 2.468 . S
O381 C399 1.263 . S
O382 Gd346 2.427 . S
O382 C399 1.252 . S
O383 Gd347 2.307 . S
O383 C392 1.261 . S
O384 Gd346 2.388 . S
O384 C392 1.252 . S
O385 Gd346 2.386 . S
O385 C403 1.265 . S
O386 Gd347 2.353 . S
O386 C403 1.242 . S
O387 Gd347 2.468 . S
O387 C411 1.263 . S
O388 Gd347 2.427 . S
O388 C411 1.252 . S
O389 Gd346 2.307 . S
O389 C404 1.261 . S
O390 Gd347 2.388 . S
O390 C404 1.252 . S
C391 O379 1.265 . S
C391 O380 1.242 . S
C392 O383 1.261 . S
C392 O384 1.252 . S
C393 C396 1.394 . S
C393 C398 1.370 . S
C393 C399 1.500 . S
C394 C397 1.383 . S
C394 C398 1.395 . S
C395 C396 1.396 . S
C395 C397 1.365 . S
C395 H412 0.929 . S
C396 C393 1.394 . S
C396 C395 1.396 . S
C396 H413 0.930 . S
C397 C394 1.383 . S
C397 C395 1.365 . S
C397 H414 0.931 . S
C398 C393 1.370 . S
C398 C394 1.395 . S
C398 H415 0.930 . S
C399 Gd346 2.805 . S
C399 O381 1.263 . S
C399 O382 1.252 . S
C399 C393 1.500 . S
C400 H362 0.930 . S
C400 C376 1.417 . S
C400 C401 1.329 . S
C401 C371 1.437 . S
C401 H372 0.929 . S
C401 C400 1.329 . S
H402 C375 0.931 . S
C403 O385 1.265 . S
C403 O386 1.242 . S
C404 O389 1.261 . S
C404 O390 1.252 . S
C405 C408 1.394 . S
C405 C410 1.370 . S
C405 C411 1.500 . S
C406 C409 1.383 . S
C406 C410 1.395 . S
C407 C408 1.396 . S
C407 C409 1.365 . S
C407 H416 0.929 . S
C408 C405 1.394 . S
C408 C407 1.396 . S
C408 H417 0.930 . S
C409 C406 1.383 . S
C409 C407 1.365 . S
C409 H418 0.931 . S
C410 C405 1.370 . S
C410 C406 1.395 . S
C410 H419 0.930 . S
C411 Gd347 2.805 . S
C411 O387 1.263 . S
C411 O388 1.252 . S
C411 C405 1.500 . S
H412 C395 0.929 . S
H413 C396 0.930 . S
H414 C397 0.931 . S
H415 C398 0.930 . S
H416 C407 0.929 . S
H417 C408 0.930 . S
H418 C409 0.931 . S
H419 C410 0.930 . S
C420 C422 1.459 . S
C420 C424 1.367 1_565 S
C420 N426 1.382 . S
C421 C422 1.421 . S
C421 C423 1.417 1_565 S
C421 C433 1.422 . S
C422 C420 1.459 . S
C422 C421 1.421 . S
C422 N432 1.359 . S
C423 C421 1.417 1_545 S
C423 C425 1.329 . S
C423 H442 0.930 . S
C424 C420 1.367 1_545 S
C424 C425 1.437 . S
C424 C428 1.413 . S
C425 C423 1.329 . S
C425 C424 1.437 . S
C425 H447 0.929 . S
N426 C420 1.382 . S
N426 C427 1.338 1_565 S
N426 Gd431 2.622 . S
C427 N426 1.338 1_545 S
C427 C429 1.378 . S
C427 H439 0.929 . S
C428 C424 1.413 . S
C428 C429 1.348 . S
C428 H444 0.931 . S
C429 C427 1.378 . S
C429 C428 1.348 . S
C429 H445 0.930 . S
Gd430 N450 2.622 . S
Gd430 N457 2.570 . S
Gd430 O464 2.353 . S
Gd430 O465 2.468 . S
Gd430 O466 2.427 . S
Gd430 O468 2.388 . S
Gd430 O469 2.386 . S
Gd430 O473 2.307 . S
Gd430 C483 2.805 . S
Gd431 N426 2.622 . S
Gd431 N432 2.570 . S
Gd431 O463 2.386 . S
Gd431 O467 2.307 . S
Gd431 O470 2.353 . S
Gd431 O471 2.468 . S
Gd431 O472 2.427 . S
Gd431 O474 2.388 . S
Gd431 C495 2.805 . S
N432 C422 1.359 . S
N432 Gd431 2.570 . S
N432 C434 1.343 . S
C433 C421 1.422 . S
C433 C435 1.321 . S
C433 H441 0.931 . S
C434 N432 1.343 . S
C434 C435 1.390 . S
C434 H436 0.931 . S
C435 C433 1.321 . S
C435 C434 1.390 . S
C435 H437 0.930 . S
H436 C434 0.931 . S
H437 C435 0.930 . S
H438 C461 0.931 . S
H439 C427 0.929 . S
H440 C462 0.930 . S
H441 C433 0.931 . S
H442 C423 0.930 . S
H443 C452 0.929 . S
H444 C428 0.931 . S
H445 C429 0.930 . S
H446 C484 0.930 . S
H447 C425 0.929 . S
H448 C453 0.931 . S
H449 C454 0.930 . S
N450 Gd430 2.622 . S
N450 C451 1.369 . S
N450 C452 1.338 . S
C451 N450 1.369 . S
C451 C455 1.415 . S
C451 C458 1.422 . S
C452 H443 0.929 . S
C452 N450 1.338 . S
C452 C454 1.378 . S
C453 H448 0.931 . S
C453 C454 1.348 . S
C453 C455 1.413 . S
C454 H449 0.930 . S
C454 C452 1.378 . S
C454 C453 1.348 . S
C455 C451 1.415 . S
C455 C453 1.413 . S
C455 C485 1.437 . S
H456 C485 0.929 . S
N457 Gd430 2.570 . S
N457 C458 1.359 . S
N457 C461 1.343 . S
C458 C451 1.422 . S
C458 N457 1.359 . S
C458 C460 1.421 . S
C459 C460 1.422 . S
C459 C462 1.321 . S
C459 H486 0.931 . S
C460 C458 1.421 . S
C460 C459 1.422 . S
C460 C484 1.417 . S
C461 H438 0.931 . S
C461 N457 1.343 . S
C461 C462 1.390 . S
C462 H440 0.930 . S
C462 C459 1.321 . S
C462 C461 1.390 . S
O463 Gd431 2.386 . S
O463 C475 1.265 . S
O464 Gd430 2.353 . S
O464 C475 1.242 . S
O465 Gd430 2.468 . S
O465 C483 1.263 . S
O466 Gd430 2.427 . S
O466 C483 1.252 . S
O467 Gd431 2.307 . S
O467 C476 1.261 . S
O468 Gd430 2.388 . S
O468 C476 1.252 . S
O469 Gd430 2.386 . S
O469 C487 1.265 . S
O470 Gd431 2.353 . S
O470 C487 1.242 . S
O471 Gd431 2.468 . S
O471 C495 1.263 . S
O472 Gd431 2.427 . S
O472 C495 1.252 . S
O473 Gd430 2.307 . S
O473 C488 1.261 . S
O474 Gd431 2.388 . S
O474 C488 1.252 . S
C475 O463 1.265 . S
C475 O464 1.242 . S
C476 O467 1.261 . S
C476 O468 1.252 . S
C477 C480 1.394 . S
C477 C482 1.370 . S
C477 C483 1.500 . S
C478 C481 1.383 . S
C478 C482 1.395 . S
C479 C480 1.396 . S
C479 C481 1.365 . S
C479 H496 0.929 . S
C480 C477 1.394 . S
C480 C479 1.396 . S
C480 H497 0.930 . S
C481 C478 1.383 . S
C481 C479 1.365 . S
C481 H498 0.931 . S
C482 C477 1.370 . S
C482 C478 1.395 . S
C482 H499 0.930 . S
C483 Gd430 2.805 . S
C483 O465 1.263 . S
C483 O466 1.252 . S
C483 C477 1.500 . S
C484 H446 0.930 . S
C484 C460 1.417 . S
C484 C485 1.329 . S
C485 C455 1.437 . S
C485 H456 0.929 . S
C485 C484 1.329 . S
H486 C459 0.931 . S
C487 O469 1.265 . S
C487 O470 1.242 . S
C488 O473 1.261 . S
C488 O474 1.252 . S
C489 C492 1.394 . S
C489 C494 1.370 . S
C489 C495 1.500 . S
C490 C493 1.383 . S
C490 C494 1.395 . S
C491 C492 1.396 . S
C491 C493 1.365 . S
C491 H500 0.929 . S
C492 C489 1.394 . S
C492 C491 1.396 . S
C492 H501 0.930 . S
C493 C490 1.383 . S
C493 C491 1.365 . S
C493 H502 0.931 . S
C494 C489 1.370 . S
C494 C490 1.395 . S
C494 H503 0.930 . S
C495 Gd431 2.805 . S
C495 O471 1.263 . S
C495 O472 1.252 . S
C495 C489 1.500 . S
H496 C479 0.929 . S
H497 C480 0.930 . S
H498 C481 0.931 . S
H499 C482 0.930 . S
H500 C491 0.929 . S
H501 C492 0.930 . S
H502 C493 0.931 . S
H503 C494 0.930 . S
C504 C506 1.422 . S
C504 C508 1.415 . S
C504 N510 1.369 . S
C505 C506 1.421 . S
C505 C507 1.417 . S
C505 C517 1.422 . S
C506 C504 1.422 . S
C506 C505 1.421 . S
C506 N516 1.359 . S
C507 C505 1.417 . S
C507 C509 1.329 . S
C507 H526 0.930 . S
C508 C504 1.415 . S
C508 C509 1.437 . S
C508 C512 1.413 . S
C509 C507 1.329 . S
C509 C508 1.437 . S
C509 H531 0.929 . S
N510 C504 1.369 . S
N510 C511 1.338 . S
N510 Gd515 2.622 . S
C511 N510 1.338 . S
C511 C513 1.378 . S
C511 H523 0.929 . S
C512 C508 1.413 . S
C512 C513 1.348 . S
C512 H528 0.931 . S
C513 C511 1.378 . S
C513 C512 1.348 . S
C513 H529 0.930 . S
Gd514 N534 2.622 . S
Gd514 N541 2.570 . S
Gd514 O548 2.353 . S
Gd514 O549 2.468 . S
Gd514 O550 2.427 . S
Gd514 O552 2.388 . S
Gd514 O553 2.386 . S
Gd514 O557 2.307 . S
Gd514 C567 2.805 . S
Gd515 N510 2.622 . S
Gd515 N516 2.570 . S
Gd515 O547 2.386 . S
Gd515 O551 2.307 . S
Gd515 O554 2.353 . S
Gd515 O555 2.468 . S
Gd515 O556 2.427 . S
Gd515 O558 2.388 . S
Gd515 C579 2.805 . S
N516 C506 1.359 . S
N516 Gd515 2.570 . S
N516 C518 1.343 . S
C517 C505 1.422 . S
C517 C519 1.321 . S
C517 H525 0.931 . S
C518 N516 1.343 . S
C518 C519 1.390 . S
C518 H520 0.931 . S
C519 C517 1.321 . S
C519 C518 1.390 . S
C519 H521 0.930 . S
H520 C518 0.931 . S
H521 C519 0.930 . S
H522 C545 0.931 . S
H523 C511 0.929 . S
H524 C546 0.930 . S
H525 C517 0.931 . S
H526 C507 0.930 . S
H527 C536 0.929 . S
H528 C512 0.931 . S
H529 C513 0.930 . S
H530 C568 0.930 . S
H531 C509 0.929 . S
H532 C537 0.931 . S
H533 C538 0.930 . S
N534 Gd514 2.622 . S
N534 C535 1.369 . S
N534 C536 1.338 . S
C535 N534 1.369 . S
C535 C539 1.415 . S
C535 C542 1.422 . S
C536 H527 0.929 . S
C536 N534 1.338 . S
C536 C538 1.378 . S
C537 H532 0.931 . S
C537 C538 1.348 . S
C537 C539 1.413 . S
C538 H533 0.930 . S
C538 C536 1.378 . S
C538 C537 1.348 . S
C539 C535 1.415 . S
C539 C537 1.413 . S
C539 C569 1.437 . S
H540 C569 0.929 . S
N541 Gd514 2.570 . S
N541 C542 1.359 . S
N541 C545 1.343 . S
C542 C535 1.422 . S
C542 N541 1.359 . S
C542 C544 1.421 . S
C543 C544 1.422 . S
C543 C546 1.321 . S
C543 H570 0.931 . S
C544 C542 1.421 . S
C544 C543 1.422 . S
C544 C568 1.417 . S
C545 H522 0.931 . S
C545 N541 1.343 . S
C545 C546 1.390 . S
C546 H524 0.930 . S
C546 C543 1.321 . S
C546 C545 1.390 . S
O547 Gd515 2.386 . S
O547 C559 1.265 . S
O548 Gd514 2.353 . S
O548 C559 1.242 . S
O549 Gd514 2.468 . S
O549 C567 1.263 . S
O550 Gd514 2.427 . S
O550 C567 1.252 . S
O551 Gd515 2.307 . S
O551 C560 1.261 . S
O552 Gd514 2.388 . S
O552 C560 1.252 . S
O553 Gd514 2.386 . S
O553 C571 1.265 . S
O554 Gd515 2.353 . S
O554 C571 1.242 . S
O555 Gd515 2.468 . S
O555 C579 1.263 . S
O556 Gd515 2.427 . S
O556 C579 1.252 . S
O557 Gd514 2.307 . S
O557 C572 1.261 . S
O558 Gd515 2.388 . S
O558 C572 1.252 . S
C559 O547 1.265 . S
C559 O548 1.242 . S
C560 O551 1.261 . S
C560 O552 1.252 . S
C561 C564 1.394 . S
C561 C566 1.370 . S
C561 C567 1.500 . S
C562 C565 1.383 . S
C562 C566 1.395 . S
C563 C564 1.396 . S
C563 C565 1.365 . S
C563 H580 0.929 . S
C564 C561 1.394 . S
C564 C563 1.396 . S
C564 H581 0.930 . S
C565 C562 1.383 . S
C565 C563 1.365 . S
C565 H582 0.931 . S
C566 C561 1.370 . S
C566 C562 1.395 . S
C566 H583 0.930 . S
C567 Gd514 2.805 . S
C567 O549 1.263 . S
C567 O550 1.252 . S
C567 C561 1.500 . S
C568 H530 0.930 . S
C568 C544 1.417 . S
C568 C569 1.329 . S
C569 C539 1.437 . S
C569 H540 0.929 . S
C569 C568 1.329 . S
H570 C543 0.931 . S
C571 O553 1.265 . S
C571 O554 1.242 . S
C572 O557 1.261 . S
C572 O558 1.252 . S
C573 C576 1.394 . S
C573 C578 1.370 . S
C573 C579 1.500 . S
C574 C577 1.383 . S
C574 C578 1.395 . S
C575 C576 1.396 . S
C575 C577 1.365 . S
C575 H584 0.929 . S
C576 C573 1.394 . S
C576 C575 1.396 . S
C576 H585 0.930 . S
C577 C574 1.383 . S
C577 C575 1.365 . S
C577 H586 0.931 . S
C578 C573 1.370 . S
C578 C574 1.395 . S
C578 H587 0.930 . S
C579 Gd515 2.805 . S
C579 O555 1.263 . S
C579 O556 1.252 . S
C579 C573 1.500 . S
H580 C563 0.929 . S
H581 C564 0.930 . S
H582 C565 0.931 . S
H583 C566 0.930 . S
H584 C575 0.929 . S
H585 C576 0.930 . S
H586 C577 0.931 . S
H587 C578 0.930 . S
C588 C590 1.459 . S
C588 C592 1.367 1_545 S
C588 N594 1.382 1_655 S
C589 C590 1.421 . S
C589 C591 1.417 1_545 S
C589 C601 1.422 . S
C590 C588 1.459 . S
C590 C589 1.421 . S
C590 N600 1.359 . S
C591 C589 1.417 1_565 S
C591 C593 1.329 . S
C591 H610 0.930 . S
C592 C588 1.367 1_565 S
C592 C593 1.437 . S
C592 C596 1.413 1_655 S
C593 C591 1.329 . S
C593 C592 1.437 . S
C593 H615 0.929 . S
N594 C588 1.382 1_455 S
N594 C595 1.338 1_545 S
N594 Gd599 2.622 . S
C595 N594 1.338 1_565 S
C595 C597 1.378 . S
C595 H607 0.929 . S
C596 C592 1.413 1_455 S
C596 C597 1.348 . S
C596 H612 0.930 1_455 S
C597 C595 1.378 . S
C597 C596 1.348 . S
C597 H613 0.930 . S
Gd598 N618 2.622 . S
Gd598 N625 2.570 . S
Gd598 O632 2.353 . S
Gd598 O633 2.468 . S
Gd598 O634 2.427 . S
Gd598 O636 2.388 . S
Gd598 O637 2.386 . S
Gd598 O641 2.307 . S
Gd598 C651 2.805 . S
Gd599 N594 2.622 . S
Gd599 N600 2.570 1_455 S
Gd599 O631 2.386 . S
Gd599 O635 2.307 . S
Gd599 O638 2.353 . S
Gd599 O639 2.468 . S
Gd599 O640 2.427 . S
Gd599 O642 2.388 . S
Gd599 C663 2.805 . S
N600 C590 1.359 . S
N600 Gd599 2.570 1_655 S
N600 C602 1.343 . S
C601 C589 1.422 . S
C601 C603 1.321 . S
C601 H609 0.931 . S
C602 N600 1.343 . S
C602 C603 1.390 . S
C602 H604 0.931 . S
C603 C601 1.321 . S
C603 C602 1.390 . S
C603 H605 0.930 . S
H604 C602 0.931 . S
H605 C603 0.930 . S
H606 C629 0.931 . S
H607 C595 0.929 . S
H608 C630 0.930 . S
H609 C601 0.931 . S
H610 C591 0.930 . S
H611 C620 0.929 . S
H612 C596 0.930 1_655 S
H613 C597 0.930 . S
H614 C652 0.930 . S
H615 C593 0.929 . S
H616 C621 0.931 . S
H617 C622 0.930 . S
N618 Gd598 2.622 . S
N618 C619 1.369 . S
N618 C620 1.338 . S
C619 N618 1.369 . S
C619 C623 1.415 . S
C619 C626 1.422 . S
C620 H611 0.929 . S
C620 N618 1.338 . S
C620 C622 1.378 . S
C621 H616 0.931 . S
C621 C622 1.348 . S
C621 C623 1.413 . S
C622 H617 0.930 . S
C622 C620 1.378 . S
C622 C621 1.348 . S
C623 C619 1.415 . S
C623 C621 1.413 . S
C623 C653 1.437 . S
H624 C653 0.929 . S
N625 Gd598 2.570 . S
N625 C626 1.359 . S
N625 C629 1.343 . S
C626 C619 1.422 . S
C626 N625 1.359 . S
C626 C628 1.421 . S
C627 C628 1.422 . S
C627 C630 1.321 . S
C627 H654 0.931 . S
C628 C626 1.421 . S
C628 C627 1.422 . S
C628 C652 1.417 . S
C629 H606 0.931 . S
C629 N625 1.343 . S
C629 C630 1.390 . S
C630 H608 0.930 . S
C630 C627 1.321 . S
C630 C629 1.390 . S
O631 Gd599 2.386 . S
O631 C643 1.265 . S
O632 Gd598 2.353 . S
O632 C643 1.242 . S
O633 Gd598 2.468 . S
O633 C651 1.263 . S
O634 Gd598 2.427 . S
O634 C651 1.252 . S
O635 Gd599 2.307 . S
O635 C644 1.261 . S
O636 Gd598 2.388 . S
O636 C644 1.252 . S
O637 Gd598 2.386 . S
O637 C655 1.265 . S
O638 Gd599 2.353 . S
O638 C655 1.242 . S
O639 Gd599 2.468 . S
O639 C663 1.263 . S
O640 Gd599 2.427 . S
O640 C663 1.252 . S
O641 Gd598 2.307 . S
O641 C656 1.261 . S
O642 Gd599 2.388 . S
O642 C656 1.252 . S
C643 O631 1.265 . S
C643 O632 1.242 . S
C644 O635 1.261 . S
C644 O636 1.252 . S
C645 C648 1.394 . S
C645 C650 1.370 . S
C645 C651 1.500 . S
C646 C649 1.383 . S
C646 C650 1.395 . S
C647 C648 1.396 . S
C647 C649 1.365 . S
C647 H664 0.929 . S
C648 C645 1.394 . S
C648 C647 1.396 . S
C648 H665 0.930 . S
C649 C646 1.383 . S
C649 C647 1.365 . S
C649 H666 0.931 . S
C650 C645 1.370 . S
C650 C646 1.395 . S
C650 H667 0.930 . S
C651 Gd598 2.805 . S
C651 O633 1.263 . S
C651 O634 1.252 . S
C651 C645 1.500 . S
C652 H614 0.930 . S
C652 C628 1.417 . S
C652 C653 1.329 . S
C653 C623 1.437 . S
C653 H624 0.929 . S
C653 C652 1.329 . S
H654 C627 0.931 . S
C655 O637 1.265 . S
C655 O638 1.242 . S
C656 O641 1.261 . S
C656 O642 1.252 . S
C657 C660 1.394 . S
C657 C662 1.370 . S
C657 C663 1.500 1_655 S
C658 C661 1.383 . S
C658 C662 1.395 . S
C659 C660 1.396 . S
C659 C661 1.365 . S
C659 H668 0.929 . S
C660 C657 1.394 . S
C660 C659 1.396 . S
C660 H669 0.930 . S
C661 C658 1.383 . S
C661 C659 1.365 . S
C661 H670 0.931 . S
C662 C657 1.370 . S
C662 C658 1.395 . S
C662 H671 0.930 . S
C663 Gd599 2.805 . S
C663 O639 1.263 . S
C663 O640 1.252 . S
C663 C657 1.500 1_455 S
H664 C647 0.929 . S
H665 C648 0.930 . S
H666 C649 0.931 . S
H667 C650 0.930 . S
H668 C659 0.929 . S
H669 C660 0.930 . S
H670 C661 0.931 . S
H671 C662 0.930 . S
C672 C674 1.422 . S
C672 C676 1.415 . S
C672 N678 1.369 . S
C673 C674 1.421 . S
C673 C675 1.417 . S
C673 C685 1.422 . S
C674 C672 1.422 . S
C674 C673 1.421 . S
C674 N684 1.359 . S
C675 C673 1.417 . S
C675 C677 1.329 . S
C675 H694 0.930 . S
C676 C672 1.415 . S
C676 C677 1.437 . S
C676 C680 1.413 . S
C677 C675 1.329 . S
C677 C676 1.437 . S
C677 H699 0.929 . S
N678 C672 1.369 . S
N678 C679 1.338 . S
N678 Gd683 2.622 . S
C679 N678 1.338 . S
C679 C681 1.378 . S
C679 H691 0.929 . S
C680 C676 1.413 . S
C680 C681 1.348 . S
C680 H696 0.931 . S
C681 C679 1.378 . S
C681 C680 1.348 . S
C681 H697 0.930 . S
Gd682 N702 2.622 . S
Gd682 N709 2.570 . S
Gd682 O716 2.353 . S
Gd682 O717 2.468 . S
Gd682 O718 2.427 . S
Gd682 O720 2.388 . S
Gd682 O721 2.386 . S
Gd682 O725 2.307 . S
Gd682 C735 2.805 . S
Gd683 N678 2.622 . S
Gd683 N684 2.570 . S
Gd683 O715 2.386 . S
Gd683 O719 2.307 . S
Gd683 O722 2.353 . S
Gd683 O723 2.468 . S
Gd683 O724 2.427 . S
Gd683 O726 2.388 . S
Gd683 C747 2.805 . S
N684 C674 1.359 . S
N684 Gd683 2.570 . S
N684 C686 1.343 . S
C685 C673 1.422 . S
C685 C687 1.321 . S
C685 H693 0.931 . S
C686 N684 1.343 . S
C686 C687 1.390 . S
C686 H688 0.931 . S
C687 C685 1.321 . S
C687 C686 1.390 . S
C687 H689 0.930 . S
H688 C686 0.931 . S
H689 C687 0.930 . S
H690 C713 0.931 . S
H691 C679 0.929 . S
H692 C714 0.930 . S
H693 C685 0.931 . S
H694 C675 0.930 . S
H695 C704 0.929 . S
H696 C680 0.931 . S
H697 C681 0.930 . S
H698 C736 0.930 . S
H699 C677 0.929 . S
H700 C705 0.931 . S
H701 C706 0.930 . S
N702 Gd682 2.622 . S
N702 C703 1.369 . S
N702 C704 1.338 . S
C703 N702 1.369 . S
C703 C707 1.415 . S
C703 C710 1.422 . S
C704 H695 0.929 . S
C704 N702 1.338 . S
C704 C706 1.378 . S
C705 H700 0.931 . S
C705 C706 1.348 . S
C705 C707 1.413 . S
C706 H701 0.930 . S
C706 C704 1.378 . S
C706 C705 1.348 . S
C707 C703 1.415 . S
C707 C705 1.413 . S
C707 C737 1.437 . S
H708 C737 0.929 . S
N709 Gd682 2.570 . S
N709 C710 1.359 . S
N709 C713 1.343 . S
C710 C703 1.422 . S
C710 N709 1.359 . S
C710 C712 1.421 . S
C711 C712 1.422 . S
C711 C714 1.321 . S
C711 H738 0.931 . S
C712 C710 1.421 . S
C712 C711 1.422 . S
C712 C736 1.417 . S
C713 H690 0.931 . S
C713 N709 1.343 . S
C713 C714 1.390 . S
C714 H692 0.930 . S
C714 C711 1.321 . S
C714 C713 1.390 . S
O715 Gd683 2.386 . S
O715 C727 1.265 . S
O716 Gd682 2.353 . S
O716 C727 1.242 . S
O717 Gd682 2.468 . S
O717 C735 1.263 . S
O718 Gd682 2.427 . S
O718 C735 1.252 . S
O719 Gd683 2.307 . S
O719 C728 1.261 . S
O720 Gd682 2.388 . S
O720 C728 1.252 . S
O721 Gd682 2.386 . S
O721 C739 1.265 . S
O722 Gd683 2.353 . S
O722 C739 1.242 . S
O723 Gd683 2.468 . S
O723 C747 1.263 . S
O724 Gd683 2.427 . S
O724 C747 1.252 . S
O725 Gd682 2.307 . S
O725 C740 1.261 . S
O726 Gd683 2.388 . S
O726 C740 1.252 . S
C727 O715 1.265 . S
C727 O716 1.242 . S
C728 O719 1.261 . S
C728 O720 1.252 . S
C729 C732 1.394 . S
C729 C734 1.370 . S
C729 C735 1.500 . S
C730 C733 1.383 . S
C730 C734 1.395 . S
C731 C732 1.396 . S
C731 C733 1.365 . S
C731 H748 0.929 . S
C732 C729 1.394 . S
C732 C731 1.396 . S
C732 H749 0.930 . S
C733 C730 1.383 . S
C733 C731 1.365 . S
C733 H750 0.931 . S
C734 C729 1.370 . S
C734 C730 1.395 . S
C734 H751 0.930 . S
C735 Gd682 2.805 . S
C735 O717 1.263 . S
C735 O718 1.252 . S
C735 C729 1.500 . S
C736 H698 0.930 . S
C736 C712 1.417 . S
C736 C737 1.329 . S
C737 C707 1.437 . S
C737 H708 0.929 . S
C737 C736 1.329 . S
H738 C711 0.931 . S
C739 O721 1.265 . S
C739 O722 1.242 . S
C740 O725 1.261 . S
C740 O726 1.252 . S
C741 C744 1.394 . S
C741 C746 1.370 . S
C741 C747 1.500 . S
C742 C745 1.383 . S
C742 C746 1.395 . S
C743 C744 1.396 . S
C743 C745 1.365 . S
C743 H752 0.929 . S
C744 C741 1.394 . S
C744 C743 1.396 . S
C744 H753 0.930 . S
C745 C742 1.383 . S
C745 C743 1.365 . S
C745 H754 0.931 . S
C746 C741 1.370 . S
C746 C742 1.395 . S
C746 H755 0.930 . S
C747 Gd683 2.805 . S
C747 O723 1.263 . S
C747 O724 1.252 . S
C747 C741 1.500 . S
H748 C731 0.929 . S
H749 C732 0.930 . S
H750 C733 0.931 . S
H751 C734 0.930 . S
H752 C743 0.929 . S
H753 C744 0.930 . S
H754 C745 0.931 . S
H755 C746 0.930 . S
C756 C758 1.422 . S
C756 C760 1.415 . S
C756 N762 1.369 . S
C757 C758 1.421 . S
C757 C759 1.417 . S
C757 C769 1.422 . S
C758 C756 1.422 . S
C758 C757 1.421 . S
C758 N768 1.359 . S
C759 C757 1.417 . S
C759 C761 1.329 . S
C759 H778 0.930 . S
C760 C756 1.415 . S
C760 C761 1.437 . S
C760 C764 1.413 . S
C761 C759 1.329 . S
C761 C760 1.437 . S
C761 H783 0.929 . S
N762 C756 1.369 . S
N762 C763 1.338 . S
N762 Gd767 2.622 . S
C763 N762 1.338 . S
C763 C765 1.378 . S
C763 H775 0.929 . S
C764 C760 1.413 . S
C764 C765 1.348 . S
C764 H780 0.931 . S
C765 C763 1.378 . S
C765 C764 1.348 . S
C765 H781 0.930 . S
Gd766 N786 2.622 . S
Gd766 N793 2.570 1_655 S
Gd766 O800 2.353 . S
Gd766 O801 2.468 . S
Gd766 O802 2.427 . S
Gd766 O804 2.388 . S
Gd766 O805 2.386 . S
Gd766 O809 2.307 . S
Gd766 C819 2.805 . S
Gd767 N762 2.622 . S
Gd767 N768 2.570 . S
Gd767 O799 2.386 . S
Gd767 O803 2.307 . S
Gd767 O806 2.353 . S
Gd767 O807 2.468 . S
Gd767 O808 2.427 . S
Gd767 O810 2.388 . S
Gd767 C831 2.805 . S
N768 C758 1.359 . S
N768 Gd767 2.570 . S
N768 C770 1.343 . S
C769 C757 1.422 . S
C769 C771 1.321 . S
C769 H777 0.931 . S
C770 N768 1.343 . S
C770 C771 1.390 . S
C770 H772 0.931 . S
C771 C769 1.321 . S
C771 C770 1.390 . S
C771 H773 0.930 . S
H772 C770 0.931 . S
H773 C771 0.930 . S
H774 C797 0.931 . S
H775 C763 0.929 . S
H776 C798 0.930 . S
H777 C769 0.931 . S
H778 C759 0.930 . S
H779 C788 0.929 . S
H780 C764 0.931 . S
H781 C765 0.930 . S
H782 C820 0.930 . S
H783 C761 0.929 . S
H784 C789 0.930 1_455 S
H785 C790 0.930 . S
N786 Gd766 2.622 . S
N786 C787 1.382 1_655 S
N786 C788 1.338 1_545 S
C787 N786 1.382 1_455 S
C787 C791 1.367 1_545 S
C787 C794 1.459 . S
C788 H779 0.929 . S
C788 N786 1.338 1_565 S
C788 C790 1.378 . S
C789 H784 0.930 1_655 S
C789 C790 1.348 . S
C789 C791 1.413 1_655 S
C790 H785 0.930 . S
C790 C788 1.378 . S
C790 C789 1.348 . S
C791 C787 1.367 1_565 S
C791 C789 1.413 1_455 S
C791 C821 1.437 . S
H792 C821 0.929 . S
N793 Gd766 2.570 1_455 S
N793 C794 1.359 . S
N793 C797 1.343 . S
C794 C787 1.459 . S
C794 N793 1.359 . S
C794 C796 1.421 . S
C795 C796 1.422 . S
C795 C798 1.321 . S
C795 H822 0.931 . S
C796 C794 1.421 . S
C796 C795 1.422 . S
C796 C820 1.417 1_545 S
C797 H774 0.931 . S
C797 N793 1.343 . S
C797 C798 1.390 . S
C798 H776 0.930 . S
C798 C795 1.321 . S
C798 C797 1.390 . S
O799 Gd767 2.386 . S
O799 C811 1.265 . S
O800 Gd766 2.353 . S
O800 C811 1.242 . S
O801 Gd766 2.468 . S
O801 C819 1.263 . S
O802 Gd766 2.427 . S
O802 C819 1.252 . S
O803 Gd767 2.307 . S
O803 C812 1.261 . S
O804 Gd766 2.388 . S
O804 C812 1.252 . S
O805 Gd766 2.386 . S
O805 C823 1.265 . S
O806 Gd767 2.353 . S
O806 C823 1.242 . S
O807 Gd767 2.468 . S
O807 C831 1.263 . S
O808 Gd767 2.427 . S
O808 C831 1.252 . S
O809 Gd766 2.307 . S
O809 C824 1.261 . S
O810 Gd767 2.388 . S
O810 C824 1.252 . S
C811 O799 1.265 . S
C811 O800 1.242 . S
C812 O803 1.261 . S
C812 O804 1.252 . S
C813 C816 1.394 . S
C813 C818 1.370 . S
C813 C819 1.500 1_455 S
C814 C817 1.383 . S
C814 C818 1.395 . S
C815 C816 1.396 . S
C815 C817 1.365 . S
C815 H832 0.929 . S
C816 C813 1.394 . S
C816 C815 1.396 . S
C816 H833 0.930 . S
C817 C814 1.383 . S
C817 C815 1.365 . S
C817 H834 0.931 . S
C818 C813 1.370 . S
C818 C814 1.395 . S
C818 H835 0.930 . S
C819 Gd766 2.805 . S
C819 O801 1.263 . S
C819 O802 1.252 . S
C819 C813 1.500 1_655 S
C820 H782 0.930 . S
C820 C796 1.417 1_565 S
C820 C821 1.329 . S
C821 C791 1.437 . S
C821 H792 0.929 . S
C821 C820 1.329 . S
H822 C795 0.931 . S
C823 O805 1.265 . S
C823 O806 1.242 . S
C824 O809 1.261 . S
C824 O810 1.252 . S
C825 C828 1.394 . S
C825 C830 1.370 . S
C825 C831 1.500 . S
C826 C829 1.383 . S
C826 C830 1.395 . S
C827 C828 1.396 . S
C827 C829 1.365 . S
C827 H836 0.929 . S
C828 C825 1.394 . S
C828 C827 1.396 . S
C828 H837 0.930 . S
C829 C826 1.383 . S
C829 C827 1.365 . S
C829 H838 0.931 . S
C830 C825 1.370 . S
C830 C826 1.395 . S
C830 H839 0.930 . S
C831 Gd767 2.805 . S
C831 O807 1.263 . S
C831 O808 1.252 . S
C831 C825 1.500 . S
H832 C815 0.929 . S
H833 C816 0.930 . S
H834 C817 0.931 . S
H835 C818 0.930 . S
H836 C827 0.929 . S
H837 C828 0.930 . S
H838 C829 0.931 . S
H839 C830 0.930 . S
C840 C842 1.422 . S
C840 C844 1.415 . S
C840 N846 1.369 . S
C841 C842 1.421 . S
C841 C843 1.417 . S
C841 C853 1.422 . S
C842 C840 1.422 . S
C842 C841 1.421 . S
C842 N852 1.359 . S
C843 C841 1.417 . S
C843 C845 1.329 . S
C843 H862 0.930 . S
C844 C840 1.415 . S
C844 C845 1.437 . S
C844 C848 1.413 . S
C845 C843 1.329 . S
C845 C844 1.437 . S
C845 H867 0.929 . S
N846 C840 1.369 . S
N846 C847 1.338 . S
N846 Gd851 2.622 . S
C847 N846 1.338 . S
C847 C849 1.378 . S
C847 H859 0.929 . S
C848 C844 1.413 . S
C848 C849 1.348 . S
C848 H864 0.931 . S
C849 C847 1.378 . S
C849 C848 1.348 . S
C849 H865 0.930 . S
Gd850 N870 2.622 . S
Gd850 N877 2.570 . S
Gd850 O884 2.353 . S
Gd850 O885 2.468 . S
Gd850 O886 2.427 . S
Gd850 O888 2.388 . S
Gd850 O889 2.386 . S
Gd850 O893 2.307 . S
Gd850 C903 2.805 . S
Gd851 N846 2.622 . S
Gd851 N852 2.570 . S
Gd851 O883 2.386 . S
Gd851 O887 2.307 . S
Gd851 O890 2.353 . S
Gd851 O891 2.468 . S
Gd851 O892 2.427 . S
Gd851 O894 2.388 . S
Gd851 C915 2.805 . S
N852 C842 1.359 . S
N852 Gd851 2.570 . S
N852 C854 1.343 . S
C853 C841 1.422 . S
C853 C855 1.321 . S
C853 H861 0.931 . S
C854 N852 1.343 . S
C854 C855 1.390 . S
C854 H856 0.931 . S
C855 C853 1.321 . S
C855 C854 1.390 . S
C855 H857 0.930 . S
H856 C854 0.931 . S
H857 C855 0.930 . S
H858 C881 0.931 . S
H859 C847 0.929 . S
H860 C882 0.930 . S
H861 C853 0.931 . S
H862 C843 0.930 . S
H863 C872 0.929 . S
H864 C848 0.931 . S
H865 C849 0.930 . S
H866 C904 0.930 . S
H867 C845 0.929 . S
H868 C873 0.931 . S
H869 C874 0.930 . S
N870 Gd850 2.622 . S
N870 C871 1.369 . S
N870 C872 1.338 . S
C871 N870 1.369 . S
C871 C875 1.415 . S
C871 C878 1.422 . S
C872 H863 0.929 . S
C872 N870 1.338 . S
C872 C874 1.378 . S
C873 H868 0.931 . S
C873 C874 1.348 . S
C873 C875 1.413 . S
C874 H869 0.930 . S
C874 C872 1.378 . S
C874 C873 1.348 . S
C875 C871 1.415 . S
C875 C873 1.413 . S
C875 C905 1.437 . S
H876 C905 0.929 . S
N877 Gd850 2.570 . S
N877 C878 1.359 . S
N877 C881 1.343 . S
C878 C871 1.422 . S
C878 N877 1.359 . S
C878 C880 1.421 . S
C879 C880 1.422 . S
C879 C882 1.321 . S
C879 H906 0.931 . S
C880 C878 1.421 . S
C880 C879 1.422 . S
C880 C904 1.417 . S
C881 H858 0.931 . S
C881 N877 1.343 . S
C881 C882 1.390 . S
C882 H860 0.930 . S
C882 C879 1.321 . S
C882 C881 1.390 . S
O883 Gd851 2.386 . S
O883 C895 1.265 . S
O884 Gd850 2.353 . S
O884 C895 1.242 . S
O885 Gd850 2.468 . S
O885 C903 1.263 . S
O886 Gd850 2.427 . S
O886 C903 1.252 . S
O887 Gd851 2.307 . S
O887 C896 1.261 . S
O888 Gd850 2.388 . S
O888 C896 1.252 . S
O889 Gd850 2.386 . S
O889 C907 1.265 . S
O890 Gd851 2.353 . S
O890 C907 1.242 . S
O891 Gd851 2.468 . S
O891 C915 1.263 . S
O892 Gd851 2.427 . S
O892 C915 1.252 . S
O893 Gd850 2.307 . S
O893 C908 1.261 . S
O894 Gd851 2.388 . S
O894 C908 1.252 . S
C895 O883 1.265 . S
C895 O884 1.242 . S
C896 O887 1.261 . S
C896 O888 1.252 . S
C897 C900 1.394 . S
C897 C902 1.370 . S
C897 C903 1.500 . S
C898 C901 1.383 . S
C898 C902 1.395 . S
C899 C900 1.396 . S
C899 C901 1.365 . S
C899 H916 0.929 . S
C900 C897 1.394 . S
C900 C899 1.396 . S
C900 H917 0.930 . S
C901 C898 1.383 . S
C901 C899 1.365 . S
C901 H918 0.931 . S
C902 C897 1.370 . S
C902 C898 1.395 . S
C902 H919 0.930 . S
C903 Gd850 2.805 . S
C903 O885 1.263 . S
C903 O886 1.252 . S
C903 C897 1.500 . S
C904 H866 0.930 . S
C904 C880 1.417 . S
C904 C905 1.329 . S
C905 C875 1.437 . S
C905 H876 0.929 . S
C905 C904 1.329 . S
H906 C879 0.931 . S
C907 O889 1.265 . S
C907 O890 1.242 . S
C908 O893 1.261 . S
C908 O894 1.252 . S
C909 C912 1.394 . S
C909 C914 1.370 . S
C909 C915 1.500 . S
C910 C913 1.383 . S
C910 C914 1.395 . S
C911 C912 1.396 . S
C911 C913 1.365 . S
C911 H920 0.929 . S
C912 C909 1.394 . S
C912 C911 1.396 . S
C912 H921 0.930 . S
C913 C910 1.383 . S
C913 C911 1.365 . S
C913 H922 0.931 . S
C914 C909 1.370 . S
C914 C910 1.395 . S
C914 H923 0.930 . S
C915 Gd851 2.805 . S
C915 O891 1.263 . S
C915 O892 1.252 . S
C915 C909 1.500 . S
H916 C899 0.929 . S
H917 C900 0.930 . S
H918 C901 0.931 . S
H919 C902 0.930 . S
H920 C911 0.929 . S
H921 C912 0.930 . S
H922 C913 0.931 . S
H923 C914 0.930 . S
C924 C926 1.422 . S
C924 C928 1.415 . S
C924 N930 1.369 . S
C925 C926 1.421 . S
C925 C927 1.417 . S
C925 C937 1.422 . S
C926 C924 1.422 . S
C926 C925 1.421 . S
C926 N936 1.359 . S
C927 C925 1.417 . S
C927 C929 1.329 . S
C927 H946 0.930 . S
C928 C924 1.415 . S
C928 C929 1.437 . S
C928 C932 1.413 . S
C929 C927 1.329 . S
C929 C928 1.437 . S
C929 H951 0.929 . S
N930 C924 1.369 . S
N930 C931 1.338 . S
N930 Gd935 2.622 . S
C931 N930 1.338 . S
C931 C933 1.378 . S
C931 H943 0.929 . S
C932 C928 1.413 . S
C932 C933 1.348 . S
C932 H948 0.931 . S
C933 C931 1.378 . S
C933 C932 1.348 . S
C933 H949 0.930 . S
Gd934 N954 2.622 . S
Gd934 N961 2.570 . S
Gd934 O968 2.353 . S
Gd934 O969 2.468 . S
Gd934 O970 2.427 . S
Gd934 O972 2.388 . S
Gd934 O973 2.386 . S
Gd934 O977 2.307 . S
Gd934 C987 2.805 . S
Gd935 N930 2.622 . S
Gd935 N936 2.570 . S
Gd935 O967 2.386 . S
Gd935 O971 2.307 . S
Gd935 O974 2.353 . S
Gd935 O975 2.468 . S
Gd935 O976 2.427 . S
Gd935 O978 2.388 . S
Gd935 C999 2.805 . S
N936 C926 1.359 . S
N936 Gd935 2.570 . S
N936 C938 1.343 . S
C937 C925 1.422 . S
C937 C939 1.321 . S
C937 H945 0.931 . S
C938 N936 1.343 . S
C938 C939 1.390 . S
C938 H940 0.931 . S
C939 C937 1.321 . S
C939 C938 1.390 . S
C939 H941 0.930 . S
H940 C938 0.931 . S
H941 C939 0.930 . S
H942 C965 0.931 . S
H943 C931 0.929 . S
H944 C966 0.930 . S
H945 C937 0.931 . S
H946 C927 0.930 . S
H947 C956 0.929 . S
H948 C932 0.931 . S
H949 C933 0.930 . S
H950 C988 0.930 . S
H951 C929 0.929 . S
H952 C957 0.931 . S
H953 C958 0.930 . S
N954 Gd934 2.622 . S
N954 C955 1.382 . S
N954 C956 1.338 1_565 S
C955 N954 1.382 . S
C955 C959 1.367 1_565 S
C955 C962 1.459 . S
C956 H947 0.929 . S
C956 N954 1.338 1_545 S
C956 C958 1.378 . S
C957 H952 0.931 . S
C957 C958 1.348 . S
C957 C959 1.413 . S
C958 H953 0.930 . S
C958 C956 1.378 . S
C958 C957 1.348 . S
C959 C955 1.367 1_545 S
C959 C957 1.413 . S
C959 C989 1.437 . S
H960 C989 0.929 . S
N961 Gd934 2.570 . S
N961 C962 1.359 . S
N961 C965 1.343 . S
C962 C955 1.459 . S
C962 N961 1.359 . S
C962 C964 1.421 . S
C963 C964 1.422 . S
C963 C966 1.321 . S
C963 H990 0.931 . S
C964 C962 1.421 . S
C964 C963 1.422 . S
C964 C988 1.417 1_565 S
C965 H942 0.931 . S
C965 N961 1.343 . S
C965 C966 1.390 . S
C966 H944 0.930 . S
C966 C963 1.321 . S
C966 C965 1.390 . S
O967 Gd935 2.386 . S
O967 C979 1.265 . S
O968 Gd934 2.353 . S
O968 C979 1.242 . S
O969 Gd934 2.468 . S
O969 C987 1.263 . S
O970 Gd934 2.427 . S
O970 C987 1.252 . S
O971 Gd935 2.307 . S
O971 C980 1.261 . S
O972 Gd934 2.388 . S
O972 C980 1.252 . S
O973 Gd934 2.386 . S
O973 C991 1.265 . S
O974 Gd935 2.353 . S
O974 C991 1.242 . S
O975 Gd935 2.468 . S
O975 C999 1.263 . S
O976 Gd935 2.427 . S
O976 C999 1.252 . S
O977 Gd934 2.307 . S
O977 C992 1.261 . S
O978 Gd935 2.388 . S
O978 C992 1.252 . S
C979 O967 1.265 . S
C979 O968 1.242 . S
C980 O971 1.261 . S
C980 O972 1.252 . S
C981 C984 1.394 . S
C981 C986 1.370 . S
C981 C987 1.500 . S
C982 C985 1.383 . S
C982 C986 1.395 . S
C983 C984 1.396 . S
C983 C985 1.365 . S
C983 H1000 0.929 . S
C984 C981 1.394 . S
C984 C983 1.396 . S
C984 H1001 0.930 . S
C985 C982 1.383 . S
C985 C983 1.365 . S
C985 H1002 0.931 . S
C986 C981 1.370 . S
C986 C982 1.395 . S
C986 H1003 0.930 . S
C987 Gd934 2.805 . S
C987 O969 1.263 . S
C987 O970 1.252 . S
C987 C981 1.500 . S
C988 H950 0.930 . S
C988 C964 1.417 1_545 S
C988 C989 1.329 . S
C989 C959 1.437 . S
C989 H960 0.929 . S
C989 C988 1.329 . S
H990 C963 0.931 . S
C991 O973 1.265 . S
C991 O974 1.242 . S
C992 O977 1.261 . S
C992 O978 1.252 . S
C993 C996 1.394 . S
C993 C998 1.370 . S
C993 C999 1.500 . S
C994 C997 1.383 . S
C994 C998 1.395 . S
C995 C996 1.396 . S
C995 C997 1.365 . S
C995 H1004 0.929 . S
C996 C993 1.394 . S
C996 C995 1.396 . S
C996 H1005 0.930 . S
C997 C994 1.383 . S
C997 C995 1.365 . S
C997 H1006 0.931 . S
C998 C993 1.370 . S
C998 C994 1.395 . S
C998 H1007 0.930 . S
C999 Gd935 2.805 . S
C999 O975 1.263 . S
C999 O976 1.252 . S
C999 C993 1.500 . S
H1000 C983 0.929 . S
H1001 C984 0.930 . S
H1002 C985 0.931 . S
H1003 C986 0.930 . S
H1004 C995 0.929 . S
H1005 C996 0.930 . S
H1006 C997 0.931 . S
H1007 C998 0.930 . S
C1008 C1010 1.422 . S
C1008 C1012 1.415 . S
C1008 N1014 1.369 . S
C1009 C1010 1.421 . S
C1009 C1011 1.417 . S
C1009 C1021 1.422 . S
C1010 C1008 1.422 . S
C1010 C1009 1.421 . S
C1010 N1020 1.359 . S
C1011 C1009 1.417 . S
C1011 C1013 1.329 . S
C1011 H1030 0.930 . S
C1012 C1008 1.415 . S
C1012 C1013 1.437 . S
C1012 C1016 1.413 . S
C1013 C1011 1.329 . S
C1013 C1012 1.437 . S
C1013 H1035 0.929 . S
N1014 C1008 1.369 . S
N1014 C1015 1.338 . S
N1014 Gd1019 2.622 . S
C1015 N1014 1.338 . S
C1015 C1017 1.378 . S
C1015 H1027 0.929 . S
C1016 C1012 1.413 . S
C1016 C1017 1.348 . S
C1016 H1032 0.931 . S
C1017 C1015 1.378 . S
C1017 C1016 1.348 . S
C1017 H1033 0.930 . S
Gd1018 N1038 2.622 . S
Gd1018 N1045 2.570 . S
Gd1018 O1052 2.353 . S
Gd1018 O1053 2.468 . S
Gd1018 O1054 2.427 . S
Gd1018 O1056 2.388 . S
Gd1018 O1057 2.386 . S
Gd1018 O1061 2.307 . S
Gd1018 C1071 2.805 . S
Gd1019 N1014 2.622 . S
Gd1019 N1020 2.570 . S
Gd1019 O1051 2.386 . S
Gd1019 O1055 2.307 . S
Gd1019 O1058 2.353 . S
Gd1019 O1059 2.468 . S
Gd1019 O1060 2.427 . S
Gd1019 O1062 2.388 . S
Gd1019 C1083 2.805 . S
N1020 C1010 1.359 . S
N1020 Gd1019 2.570 . S
N1020 C1022 1.343 . S
C1021 C1009 1.422 . S
C1021 C1023 1.321 . S
C1021 H1029 0.931 . S
C1022 N1020 1.343 . S
C1022 C1023 1.390 . S
C1022 H1024 0.931 . S
C1023 C1021 1.321 . S
C1023 C1022 1.390 . S
C1023 H1025 0.930 . S
H1024 C1022 0.931 . S
H1025 C1023 0.930 . S
H1026 C1049 0.931 . S
H1027 C1015 0.929 . S
H1028 C1050 0.930 . S
H1029 C1021 0.931 . S
H1030 C1011 0.930 . S
H1031 C1040 0.929 . S
H1032 C1016 0.931 . S
H1033 C1017 0.930 . S
H1034 C1072 0.930 . S
H1035 C1013 0.929 . S
H1036 C1041 0.931 . S
H1037 C1042 0.930 . S
N1038 Gd1018 2.622 . S
N1038 C1039 1.369 . S
N1038 C1040 1.338 . S
C1039 N1038 1.369 . S
C1039 C1043 1.415 . S
C1039 C1046 1.422 . S
C1040 H1031 0.929 . S
C1040 N1038 1.338 . S
C1040 C1042 1.378 . S
C1041 H1036 0.931 . S
C1041 C1042 1.348 . S
C1041 C1043 1.413 . S
C1042 H1037 0.930 . S
C1042 C1040 1.378 . S
C1042 C1041 1.348 . S
C1043 C1039 1.415 . S
C1043 C1041 1.413 . S
C1043 C1073 1.437 . S
H1044 C1073 0.929 . S
N1045 Gd1018 2.570 . S
N1045 C1046 1.359 . S
N1045 C1049 1.343 . S
C1046 C1039 1.422 . S
C1046 N1045 1.359 . S
C1046 C1048 1.421 . S
C1047 C1048 1.422 . S
C1047 C1050 1.321 . S
C1047 H1074 0.931 . S
C1048 C1046 1.421 . S
C1048 C1047 1.422 . S
C1048 C1072 1.417 . S
C1049 H1026 0.931 . S
C1049 N1045 1.343 . S
C1049 C1050 1.390 . S
C1050 H1028 0.930 . S
C1050 C1047 1.321 . S
C1050 C1049 1.390 . S
O1051 Gd1019 2.386 . S
O1051 C1063 1.265 . S
O1052 Gd1018 2.353 . S
O1052 C1063 1.242 . S
O1053 Gd1018 2.468 . S
O1053 C1071 1.263 . S
O1054 Gd1018 2.427 . S
O1054 C1071 1.252 . S
O1055 Gd1019 2.307 . S
O1055 C1064 1.261 . S
O1056 Gd1018 2.388 . S
O1056 C1064 1.252 . S
O1057 Gd1018 2.386 . S
O1057 C1075 1.265 . S
O1058 Gd1019 2.353 . S
O1058 C1075 1.242 . S
O1059 Gd1019 2.468 . S
O1059 C1083 1.263 . S
O1060 Gd1019 2.427 . S
O1060 C1083 1.252 . S
O1061 Gd1018 2.307 . S
O1061 C1076 1.261 . S
O1062 Gd1019 2.388 . S
O1062 C1076 1.252 . S
C1063 O1051 1.265 . S
C1063 O1052 1.242 . S
C1064 O1055 1.261 . S
C1064 O1056 1.252 . S
C1065 C1068 1.394 . S
C1065 C1070 1.370 . S
C1065 C1071 1.500 . S
C1066 C1069 1.383 . S
C1066 C1070 1.395 . S
C1067 C1068 1.396 . S
C1067 C1069 1.365 . S
C1067 H1084 0.929 . S
C1068 C1065 1.394 . S
C1068 C1067 1.396 . S
C1068 H1085 0.930 . S
C1069 C1066 1.383 . S
C1069 C1067 1.365 . S
C1069 H1086 0.931 . S
C1070 C1065 1.370 . S
C1070 C1066 1.395 . S
C1070 H1087 0.930 . S
C1071 Gd1018 2.805 . S
C1071 O1053 1.263 . S
C1071 O1054 1.252 . S
C1071 C1065 1.500 . S
C1072 H1034 0.930 . S
C1072 C1048 1.417 . S
C1072 C1073 1.329 . S
C1073 C1043 1.437 . S
C1073 H1044 0.929 . S
C1073 C1072 1.329 . S
H1074 C1047 0.931 . S
C1075 O1057 1.265 . S
C1075 O1058 1.242 . S
C1076 O1061 1.261 . S
C1076 O1062 1.252 . S
C1077 C1080 1.394 . S
C1077 C1082 1.370 . S
C1077 C1083 1.500 . S
C1078 C1081 1.383 . S
C1078 C1082 1.395 . S
C1079 C1080 1.396 . S
C1079 C1081 1.365 . S
C1079 H1088 0.929 . S
C1080 C1077 1.394 . S
C1080 C1079 1.396 . S
C1080 H1089 0.930 . S
C1081 C1078 1.383 . S
C1081 C1079 1.365 . S
C1081 H1090 0.931 . S
C1082 C1077 1.370 . S
C1082 C1078 1.395 . S
C1082 H1091 0.930 . S
C1083 Gd1019 2.805 . S
C1083 O1059 1.263 . S
C1083 O1060 1.252 . S
C1083 C1077 1.500 . S
H1084 C1067 0.929 . S
H1085 C1068 0.930 . S
H1086 C1069 0.931 . S
H1087 C1070 0.930 . S
H1088 C1079 0.929 . S
H1089 C1080 0.930 . S
H1090 C1081 0.931 . S
H1091 C1082 0.930 . S
C1092 C1094 1.422 . S
C1092 C1096 1.415 . S
C1092 N1098 1.369 . S
C1093 C1094 1.421 . S
C1093 C1095 1.417 . S
C1093 C1105 1.422 . S
C1094 C1092 1.422 . S
C1094 C1093 1.421 . S
C1094 N1104 1.359 . S
C1095 C1093 1.417 . S
C1095 C1097 1.329 . S
C1095 H1114 0.930 . S
C1096 C1092 1.415 . S
C1096 C1097 1.437 . S
C1096 C1100 1.413 . S
C1097 C1095 1.329 . S
C1097 C1096 1.437 . S
C1097 H1119 0.929 . S
N1098 C1092 1.369 . S
N1098 C1099 1.338 . S
N1098 Gd1103 2.622 . S
C1099 N1098 1.338 . S
C1099 C1101 1.378 . S
C1099 H1111 0.929 . S
C1100 C1096 1.413 . S
C1100 C1101 1.348 . S
C1100 H1116 0.931 . S
C1101 C1099 1.378 . S
C1101 C1100 1.348 . S
C1101 H1117 0.930 . S
Gd1102 N1122 2.622 . S
Gd1102 N1129 2.570 . S
Gd1102 O1136 2.353 . S
Gd1102 O1137 2.468 . S
Gd1102 O1138 2.427 . S
Gd1102 O1140 2.388 . S
Gd1102 O1141 2.386 . S
Gd1102 O1145 2.307 . S
Gd1102 C1155 2.805 . S
Gd1103 N1098 2.622 . S
Gd1103 N1104 2.570 . S
Gd1103 O1135 2.386 . S
Gd1103 O1139 2.307 . S
Gd1103 O1142 2.353 . S
Gd1103 O1143 2.468 . S
Gd1103 O1144 2.427 . S
Gd1103 O1146 2.388 . S
Gd1103 C1167 2.805 . S
N1104 C1094 1.359 . S
N1104 Gd1103 2.570 . S
N1104 C1106 1.343 . S
C1105 C1093 1.422 . S
C1105 C1107 1.321 . S
C1105 H1113 0.931 . S
C1106 N1104 1.343 . S
C1106 C1107 1.390 . S
C1106 H1108 0.931 . S
C1107 C1105 1.321 . S
C1107 C1106 1.390 . S
C1107 H1109 0.930 . S
H1108 C1106 0.931 . S
H1109 C1107 0.930 . S
H1110 C1133 0.931 . S
H1111 C1099 0.929 . S
H1112 C1134 0.930 . S
H1113 C1105 0.931 . S
H1114 C1095 0.930 . S
H1115 C1124 0.929 . S
H1116 C1100 0.931 . S
H1117 C1101 0.930 . S
H1118 C1156 0.930 . S
H1119 C1097 0.929 . S
H1120 C1125 0.931 . S
H1121 C1126 0.930 . S
N1122 Gd1102 2.622 . S
N1122 C1123 1.382 . S
N1122 C1124 1.338 1_545 S
C1123 N1122 1.382 . S
C1123 C1127 1.367 1_545 S
C1123 C1130 1.459 . S
C1124 H1115 0.929 . S
C1124 N1122 1.338 1_565 S
C1124 C1126 1.378 . S
C1125 H1120 0.931 . S
C1125 C1126 1.348 . S
C1125 C1127 1.413 . S
C1126 H1121 0.930 . S
C1126 C1124 1.378 . S
C1126 C1125 1.348 . S
C1127 C1123 1.367 1_565 S
C1127 C1125 1.413 . S
C1127 C1157 1.437 . S
H1128 C1157 0.929 . S
N1129 Gd1102 2.570 . S
N1129 C1130 1.359 . S
N1129 C1133 1.343 . S
C1130 C1123 1.459 . S
C1130 N1129 1.359 . S
C1130 C1132 1.421 . S
C1131 C1132 1.422 . S
C1131 C1134 1.321 . S
C1131 H1158 0.931 . S
C1132 C1130 1.421 . S
C1132 C1131 1.422 . S
C1132 C1156 1.417 1_545 S
C1133 H1110 0.931 . S
C1133 N1129 1.343 . S
C1133 C1134 1.390 . S
C1134 H1112 0.930 . S
C1134 C1131 1.321 . S
C1134 C1133 1.390 . S
O1135 Gd1103 2.386 . S
O1135 C1147 1.265 . S
O1136 Gd1102 2.353 . S
O1136 C1147 1.242 . S
O1137 Gd1102 2.468 . S
O1137 C1155 1.263 . S
O1138 Gd1102 2.427 . S
O1138 C1155 1.252 . S
O1139 Gd1103 2.307 . S
O1139 C1148 1.261 . S
O1140 Gd1102 2.388 . S
O1140 C1148 1.252 . S
O1141 Gd1102 2.386 . S
O1141 C1159 1.265 . S
O1142 Gd1103 2.353 . S
O1142 C1159 1.242 . S
O1143 Gd1103 2.468 . S
O1143 C1167 1.263 . S
O1144 Gd1103 2.427 . S
O1144 C1167 1.252 . S
O1145 Gd1102 2.307 . S
O1145 C1160 1.261 . S
O1146 Gd1103 2.388 . S
O1146 C1160 1.252 . S
C1147 O1135 1.265 . S
C1147 O1136 1.242 . S
C1148 O1139 1.261 . S
C1148 O1140 1.252 . S
C1149 C1152 1.394 . S
C1149 C1154 1.370 . S
C1149 C1155 1.500 . S
C1150 C1153 1.383 . S
C1150 C1154 1.395 . S
C1151 C1152 1.396 . S
C1151 C1153 1.365 . S
C1151 H1168 0.929 . S
C1152 C1149 1.394 . S
C1152 C1151 1.396 . S
C1152 H1169 0.930 . S
C1153 C1150 1.383 . S
C1153 C1151 1.365 . S
C1153 H1170 0.931 . S
C1154 C1149 1.370 . S
C1154 C1150 1.395 . S
C1154 H1171 0.930 . S
C1155 Gd1102 2.805 . S
C1155 O1137 1.263 . S
C1155 O1138 1.252 . S
C1155 C1149 1.500 . S
C1156 H1118 0.930 . S
C1156 C1132 1.417 1_565 S
C1156 C1157 1.329 . S
C1157 C1127 1.437 . S
C1157 H1128 0.929 . S
C1157 C1156 1.329 . S
H1158 C1131 0.931 . S
C1159 O1141 1.265 . S
C1159 O1142 1.242 . S
C1160 O1145 1.261 . S
C1160 O1146 1.252 . S
C1161 C1164 1.394 . S
C1161 C1166 1.370 . S
C1161 C1167 1.500 . S
C1162 C1165 1.383 . S
C1162 C1166 1.395 . S
C1163 C1164 1.396 . S
C1163 C1165 1.365 . S
C1163 H1172 0.929 . S
C1164 C1161 1.394 . S
C1164 C1163 1.396 . S
C1164 H1173 0.930 . S
C1165 C1162 1.383 . S
C1165 C1163 1.365 . S
C1165 H1174 0.931 . S
C1166 C1161 1.370 . S
C1166 C1162 1.395 . S
C1166 H1175 0.930 . S
C1167 Gd1103 2.805 . S
C1167 O1143 1.263 . S
C1167 O1144 1.252 . S
C1167 C1161 1.500 . S
H1168 C1151 0.929 . S
H1169 C1152 0.930 . S
H1170 C1153 0.931 . S
H1171 C1154 0.930 . S
H1172 C1163 0.929 . S
H1173 C1164 0.930 . S
H1174 C1165 0.931 . S
H1175 C1166 0.930 . S
C1176 C1178 1.422 . S
C1176 C1180 1.415 . S
C1176 N1182 1.369 . S
C1177 C1178 1.421 . S
C1177 C1179 1.417 . S
C1177 C1189 1.422 . S
C1178 C1176 1.422 . S
C1178 C1177 1.421 . S
C1178 N1188 1.359 . S
C1179 C1177 1.417 . S
C1179 C1181 1.329 . S
C1179 H1198 0.930 . S
C1180 C1176 1.415 . S
C1180 C1181 1.437 . S
C1180 C1184 1.413 . S
C1181 C1179 1.329 . S
C1181 C1180 1.437 . S
C1181 H1203 0.929 . S
N1182 C1176 1.369 . S
N1182 C1183 1.338 . S
N1182 Gd1187 2.622 . S
C1183 N1182 1.338 . S
C1183 C1185 1.378 . S
C1183 H1195 0.929 . S
C1184 C1180 1.413 . S
C1184 C1185 1.348 . S
C1184 H1200 0.931 . S
C1185 C1183 1.378 . S
C1185 C1184 1.348 . S
C1185 H1201 0.930 . S
Gd1186 N1206 2.622 . S
Gd1186 N1213 2.570 . S
Gd1186 O1220 2.353 . S
Gd1186 O1221 2.468 . S
Gd1186 O1222 2.427 . S
Gd1186 O1224 2.388 . S
Gd1186 O1225 2.386 . S
Gd1186 O1229 2.307 . S
Gd1186 C1239 2.805 . S
Gd1187 N1182 2.622 . S
Gd1187 N1188 2.570 . S
Gd1187 O1219 2.386 . S
Gd1187 O1223 2.307 . S
Gd1187 O1226 2.353 . S
Gd1187 O1227 2.468 . S
Gd1187 O1228 2.427 . S
Gd1187 O1230 2.388 . S
Gd1187 C1251 2.805 . S
N1188 C1178 1.359 . S
N1188 Gd1187 2.570 . S
N1188 C1190 1.343 . S
C1189 C1177 1.422 . S
C1189 C1191 1.321 . S
C1189 H1197 0.931 . S
C1190 N1188 1.343 . S
C1190 C1191 1.390 . S
C1190 H1192 0.931 . S
C1191 C1189 1.321 . S
C1191 C1190 1.390 . S
C1191 H1193 0.930 . S
H1192 C1190 0.931 . S
H1193 C1191 0.930 . S
H1194 C1217 0.931 . S
H1195 C1183 0.929 . S
H1196 C1218 0.930 . S
H1197 C1189 0.931 . S
H1198 C1179 0.930 . S
H1199 C1208 0.929 . S
H1200 C1184 0.931 . S
H1201 C1185 0.930 . S
H1202 C1240 0.930 . S
H1203 C1181 0.929 . S
H1204 C1209 0.931 . S
H1205 C1210 0.930 . S
N1206 Gd1186 2.622 . S
N1206 C1207 1.369 . S
N1206 C1208 1.338 . S
C1207 N1206 1.369 . S
C1207 C1211 1.415 . S
C1207 C1214 1.422 . S
C1208 H1199 0.929 . S
C1208 N1206 1.338 . S
C1208 C1210 1.378 . S
C1209 H1204 0.931 . S
C1209 C1210 1.348 . S
C1209 C1211 1.413 . S
C1210 H1205 0.930 . S
C1210 C1208 1.378 . S
C1210 C1209 1.348 . S
C1211 C1207 1.415 . S
C1211 C1209 1.413 . S
C1211 C1241 1.437 . S
H1212 C1241 0.929 . S
N1213 Gd1186 2.570 . S
N1213 C1214 1.359 . S
N1213 C1217 1.343 . S
C1214 C1207 1.422 . S
C1214 N1213 1.359 . S
C1214 C1216 1.421 . S
C1215 C1216 1.422 . S
C1215 C1218 1.321 . S
C1215 H1242 0.931 . S
C1216 C1214 1.421 . S
C1216 C1215 1.422 . S
C1216 C1240 1.417 . S
C1217 H1194 0.931 . S
C1217 N1213 1.343 . S
C1217 C1218 1.390 . S
C1218 H1196 0.930 . S
C1218 C1215 1.321 . S
C1218 C1217 1.390 . S
O1219 Gd1187 2.386 . S
O1219 C1231 1.265 . S
O1220 Gd1186 2.353 . S
O1220 C1231 1.242 . S
O1221 Gd1186 2.468 . S
O1221 C1239 1.263 . S
O1222 Gd1186 2.427 . S
O1222 C1239 1.252 . S
O1223 Gd1187 2.307 . S
O1223 C1232 1.261 . S
O1224 Gd1186 2.388 . S
O1224 C1232 1.252 . S
O1225 Gd1186 2.386 . S
O1225 C1243 1.265 . S
O1226 Gd1187 2.353 . S
O1226 C1243 1.242 . S
O1227 Gd1187 2.468 . S
O1227 C1251 1.263 . S
O1228 Gd1187 2.427 . S
O1228 C1251 1.252 . S
O1229 Gd1186 2.307 . S
O1229 C1244 1.261 . S
O1230 Gd1187 2.388 . S
O1230 C1244 1.252 . S
C1231 O1219 1.265 . S
C1231 O1220 1.242 . S
C1232 O1223 1.261 . S
C1232 O1224 1.252 . S
C1233 C1236 1.394 . S
C1233 C1238 1.370 . S
C1233 C1239 1.500 . S
C1234 C1237 1.383 . S
C1234 C1238 1.395 . S
C1235 C1236 1.396 . S
C1235 C1237 1.365 . S
C1235 H1252 0.929 . S
C1236 C1233 1.394 . S
C1236 C1235 1.396 . S
C1236 H1253 0.930 . S
C1237 C1234 1.383 . S
C1237 C1235 1.365 . S
C1237 H1254 0.931 . S
C1238 C1233 1.370 . S
C1238 C1234 1.395 . S
C1238 H1255 0.930 . S
C1239 Gd1186 2.805 . S
C1239 O1221 1.263 . S
C1239 O1222 1.252 . S
C1239 C1233 1.500 . S
C1240 H1202 0.930 . S
C1240 C1216 1.417 . S
C1240 C1241 1.329 . S
C1241 C1211 1.437 . S
C1241 H1212 0.929 . S
C1241 C1240 1.329 . S
H1242 C1215 0.931 . S
C1243 O1225 1.265 . S
C1243 O1226 1.242 . S
C1244 O1229 1.261 . S
C1244 O1230 1.252 . S
C1245 C1248 1.394 . S
C1245 C1250 1.370 . S
C1245 C1251 1.500 . S
C1246 C1249 1.383 . S
C1246 C1250 1.395 . S
C1247 C1248 1.396 . S
C1247 C1249 1.365 . S
C1247 H1256 0.929 . S
C1248 C1245 1.394 . S
C1248 C1247 1.396 . S
C1248 H1257 0.930 . S
C1249 C1246 1.383 . S
C1249 C1247 1.365 . S
C1249 H1258 0.931 . S
C1250 C1245 1.370 . S
C1250 C1246 1.395 . S
C1250 H1259 0.930 . S
C1251 Gd1187 2.805 . S
C1251 O1227 1.263 . S
C1251 O1228 1.252 . S
C1251 C1245 1.500 . S
H1252 C1235 0.929 . S
H1253 C1236 0.930 . S
H1254 C1237 0.931 . S
H1255 C1238 0.930 . S
H1256 C1247 0.929 . S
H1257 C1248 0.930 . S
H1258 C1249 0.931 . S
H1259 C1250 0.930 . S
C1260 C1262 1.422 . S
C1260 C1264 1.415 . S
C1260 N1266 1.369 . S
C1261 C1262 1.421 . S
C1261 C1263 1.417 . S
C1261 C1273 1.422 . S
C1262 C1260 1.422 . S
C1262 C1261 1.421 . S
C1262 N1272 1.359 . S
C1263 C1261 1.417 . S
C1263 C1265 1.329 . S
C1263 H1282 0.930 . S
C1264 C1260 1.415 . S
C1264 C1265 1.437 . S
C1264 C1268 1.413 . S
C1265 C1263 1.329 . S
C1265 C1264 1.437 . S
C1265 H1287 0.929 . S
N1266 C1260 1.369 . S
N1266 C1267 1.338 . S
N1266 Gd1271 2.622 . S
C1267 N1266 1.338 . S
C1267 C1269 1.378 . S
C1267 H1279 0.929 . S
C1268 C1264 1.413 . S
C1268 C1269 1.348 . S
C1268 H1284 0.931 . S
C1269 C1267 1.378 . S
C1269 C1268 1.348 . S
C1269 H1285 0.930 . S
Gd1270 N1290 2.622 . S
Gd1270 N1297 2.570 1_655 S
Gd1270 O1304 2.353 . S
Gd1270 O1305 2.468 . S
Gd1270 O1306 2.427 . S
Gd1270 O1308 2.388 . S
Gd1270 O1309 2.386 . S
Gd1270 O1313 2.307 . S
Gd1270 C1323 2.805 . S
Gd1271 N1266 2.622 . S
Gd1271 N1272 2.570 . S
Gd1271 O1303 2.386 . S
Gd1271 O1307 2.307 . S
Gd1271 O1310 2.353 . S
Gd1271 O1311 2.468 . S
Gd1271 O1312 2.427 . S
Gd1271 O1314 2.388 . S
Gd1271 C1335 2.805 . S
N1272 C1262 1.359 . S
N1272 Gd1271 2.570 . S
N1272 C1274 1.343 . S
C1273 C1261 1.422 . S
C1273 C1275 1.321 . S
C1273 H1281 0.931 . S
C1274 N1272 1.343 . S
C1274 C1275 1.390 . S
C1274 H1276 0.931 . S
C1275 C1273 1.321 . S
C1275 C1274 1.390 . S
C1275 H1277 0.930 . S
H1276 C1274 0.931 . S
H1277 C1275 0.930 . S
H1278 C1301 0.931 . S
H1279 C1267 0.929 . S
H1280 C1302 0.930 . S
H1281 C1273 0.931 . S
H1282 C1263 0.930 . S
H1283 C1292 0.929 . S
H1284 C1268 0.931 . S
H1285 C1269 0.930 . S
H1286 C1324 0.930 . S
H1287 C1265 0.929 . S
H1288 C1293 0.930 1_455 S
H1289 C1294 0.930 . S
N1290 Gd1270 2.622 . S
N1290 C1291 1.382 1_655 S
N1290 C1292 1.338 1_565 S
C1291 N1290 1.382 1_455 S
C1291 C1295 1.367 1_565 S
C1291 C1298 1.459 . S
C1292 H1283 0.929 . S
C1292 N1290 1.338 1_545 S
C1292 C1294 1.378 . S
C1293 H1288 0.930 1_655 S
C1293 C1294 1.348 . S
C1293 C1295 1.413 1_655 S
C1294 H1289 0.930 . S
C1294 C1292 1.378 . S
C1294 C1293 1.348 . S
C1295 C1291 1.367 1_545 S
C1295 C1293 1.413 1_455 S
C1295 C1325 1.437 . S
H1296 C1325 0.929 . S
N1297 Gd1270 2.570 1_455 S
N1297 C1298 1.359 . S
N1297 C1301 1.343 . S
C1298 C1291 1.459 . S
C1298 N1297 1.359 . S
C1298 C1300 1.421 . S
C1299 C1300 1.422 . S
C1299 C1302 1.321 . S
C1299 H1326 0.931 . S
C1300 C1298 1.421 . S
C1300 C1299 1.422 . S
C1300 C1324 1.417 1_565 S
C1301 H1278 0.931 . S
C1301 N1297 1.343 . S
C1301 C1302 1.390 . S
C1302 H1280 0.930 . S
C1302 C1299 1.321 . S
C1302 C1301 1.390 . S
O1303 Gd1271 2.386 . S
O1303 C1315 1.265 . S
O1304 Gd1270 2.353 . S
O1304 C1315 1.242 . S
O1305 Gd1270 2.468 . S
O1305 C1323 1.263 . S
O1306 Gd1270 2.427 . S
O1306 C1323 1.252 . S
O1307 Gd1271 2.307 . S
O1307 C1316 1.261 . S
O1308 Gd1270 2.388 . S
O1308 C1316 1.252 . S
O1309 Gd1270 2.386 . S
O1309 C1327 1.265 . S
O1310 Gd1271 2.353 . S
O1310 C1327 1.242 . S
O1311 Gd1271 2.468 . S
O1311 C1335 1.263 . S
O1312 Gd1271 2.427 . S
O1312 C1335 1.252 . S
O1313 Gd1270 2.307 . S
O1313 C1328 1.261 . S
O1314 Gd1271 2.388 . S
O1314 C1328 1.252 . S
C1315 O1303 1.265 . S
C1315 O1304 1.242 . S
C1316 O1307 1.261 . S
C1316 O1308 1.252 . S
C1317 C1320 1.394 . S
C1317 C1322 1.370 . S
C1317 C1323 1.500 1_455 S
C1318 C1321 1.383 . S
C1318 C1322 1.395 . S
C1319 C1320 1.396 . S
C1319 C1321 1.365 . S
C1319 H1336 0.929 . S
C1320 C1317 1.394 . S
C1320 C1319 1.396 . S
C1320 H1337 0.930 . S
C1321 C1318 1.383 . S
C1321 C1319 1.365 . S
C1321 H1338 0.931 . S
C1322 C1317 1.370 . S
C1322 C1318 1.395 . S
C1322 H1339 0.930 . S
C1323 Gd1270 2.805 . S
C1323 O1305 1.263 . S
C1323 O1306 1.252 . S
C1323 C1317 1.500 1_655 S
C1324 H1286 0.930 . S
C1324 C1300 1.417 1_545 S
C1324 C1325 1.329 . S
C1325 C1295 1.437 . S
C1325 H1296 0.929 . S
C1325 C1324 1.329 . S
H1326 C1299 0.931 . S
C1327 O1309 1.265 . S
C1327 O1310 1.242 . S
C1328 O1313 1.261 . S
C1328 O1314 1.252 . S
C1329 C1332 1.394 . S
C1329 C1334 1.370 . S
C1329 C1335 1.500 . S
C1330 C1333 1.383 . S
C1330 C1334 1.395 . S
C1331 C1332 1.396 . S
C1331 C1333 1.365 . S
C1331 H1340 0.929 . S
C1332 C1329 1.394 . S
C1332 C1331 1.396 . S
C1332 H1341 0.930 . S
C1333 C1330 1.383 . S
C1333 C1331 1.365 . S
C1333 H1342 0.931 . S
C1334 C1329 1.370 . S
C1334 C1330 1.395 . S
C1334 H1343 0.930 . S
C1335 Gd1271 2.805 . S
C1335 O1311 1.263 . S
C1335 O1312 1.252 . S
C1335 C1329 1.500 . S
H1336 C1319 0.929 . S
H1337 C1320 0.930 . S
H1338 C1321 0.931 . S
H1339 C1322 0.930 . S
H1340 C1331 0.929 . S
H1341 C1332 0.930 . S
H1342 C1333 0.931 . S
H1343 C1334 0.930 . S
C1344 C1346 1.422 . S
C1344 C1348 1.415 . S
C1344 N1350 1.369 . S
C1345 C1346 1.421 . S
C1345 C1347 1.417 . S
C1345 C1357 1.422 . S
C1346 C1344 1.422 . S
C1346 C1345 1.421 . S
C1346 N1356 1.359 . S
C1347 C1345 1.417 . S
C1347 C1349 1.329 . S
C1347 H1366 0.930 . S
C1348 C1344 1.415 . S
C1348 C1349 1.437 . S
C1348 C1352 1.413 . S
C1349 C1347 1.329 . S
C1349 C1348 1.437 . S
C1349 H1371 0.929 . S
N1350 C1344 1.369 . S
N1350 C1351 1.338 . S
N1350 Gd1355 2.622 . S
C1351 N1350 1.338 . S
C1351 C1353 1.378 . S
C1351 H1363 0.929 . S
C1352 C1348 1.413 . S
C1352 C1353 1.348 . S
C1352 H1368 0.931 . S
C1353 C1351 1.378 . S
C1353 C1352 1.348 . S
C1353 H1369 0.930 . S
Gd1354 N1374 2.622 . S
Gd1354 N1381 2.570 . S
Gd1354 O1388 2.353 . S
Gd1354 O1389 2.468 . S
Gd1354 O1390 2.427 . S
Gd1354 O1392 2.388 . S
Gd1354 O1393 2.386 . S
Gd1354 O1397 2.307 . S
Gd1354 C1407 2.805 . S
Gd1355 N1350 2.622 . S
Gd1355 N1356 2.570 . S
Gd1355 O1387 2.386 . S
Gd1355 O1391 2.307 . S
Gd1355 O1394 2.353 . S
Gd1355 O1395 2.468 . S
Gd1355 O1396 2.427 . S
Gd1355 O1398 2.388 . S
Gd1355 C1419 2.805 . S
N1356 C1346 1.359 . S
N1356 Gd1355 2.570 . S
N1356 C1358 1.343 . S
C1357 C1345 1.422 . S
C1357 C1359 1.321 . S
C1357 H1365 0.931 . S
C1358 N1356 1.343 . S
C1358 C1359 1.390 . S
C1358 H1360 0.931 . S
C1359 C1357 1.321 . S
C1359 C1358 1.390 . S
C1359 H1361 0.930 . S
H1360 C1358 0.931 . S
H1361 C1359 0.930 . S
H1362 C1385 0.931 . S
H1363 C1351 0.929 . S
H1364 C1386 0.930 . S
H1365 C1357 0.931 . S
H1366 C1347 0.930 . S
H1367 C1376 0.929 . S
H1368 C1352 0.931 . S
H1369 C1353 0.930 . S
H1370 C1408 0.930 . S
H1371 C1349 0.929 . S
H1372 C1377 0.931 . S
H1373 C1378 0.930 . S
N1374 Gd1354 2.622 . S
N1374 C1375 1.369 . S
N1374 C1376 1.338 . S
C1375 N1374 1.369 . S
C1375 C1379 1.415 . S
C1375 C1382 1.422 . S
C1376 H1367 0.929 . S
C1376 N1374 1.338 . S
C1376 C1378 1.378 . S
C1377 H1372 0.931 . S
C1377 C1378 1.348 . S
C1377 C1379 1.413 . S
C1378 H1373 0.930 . S
C1378 C1376 1.378 . S
C1378 C1377 1.348 . S
C1379 C1375 1.415 . S
C1379 C1377 1.413 . S
C1379 C1409 1.437 . S
H1380 C1409 0.929 . S
N1381 Gd1354 2.570 . S
N1381 C1382 1.359 . S
N1381 C1385 1.343 . S
C1382 C1375 1.422 . S
C1382 N1381 1.359 . S
C1382 C1384 1.421 . S
C1383 C1384 1.422 . S
C1383 C1386 1.321 . S
C1383 H1410 0.931 . S
C1384 C1382 1.421 . S
C1384 C1383 1.422 . S
C1384 C1408 1.417 . S
C1385 H1362 0.931 . S
C1385 N1381 1.343 . S
C1385 C1386 1.390 . S
C1386 H1364 0.930 . S
C1386 C1383 1.321 . S
C1386 C1385 1.390 . S
O1387 Gd1355 2.386 . S
O1387 C1399 1.265 . S
O1388 Gd1354 2.353 . S
O1388 C1399 1.242 . S
O1389 Gd1354 2.468 . S
O1389 C1407 1.263 . S
O1390 Gd1354 2.427 . S
O1390 C1407 1.252 . S
O1391 Gd1355 2.307 . S
O1391 C1400 1.261 . S
O1392 Gd1354 2.388 . S
O1392 C1400 1.252 . S
O1393 Gd1354 2.386 . S
O1393 C1411 1.265 . S
O1394 Gd1355 2.353 . S
O1394 C1411 1.242 . S
O1395 Gd1355 2.468 . S
O1395 C1419 1.263 . S
O1396 Gd1355 2.427 . S
O1396 C1419 1.252 . S
O1397 Gd1354 2.307 . S
O1397 C1412 1.261 . S
O1398 Gd1355 2.388 . S
O1398 C1412 1.252 . S
C1399 O1387 1.265 . S
C1399 O1388 1.242 . S
C1400 O1391 1.261 . S
C1400 O1392 1.252 . S
C1401 C1404 1.394 . S
C1401 C1406 1.370 . S
C1401 C1407 1.500 . S
C1402 C1405 1.383 . S
C1402 C1406 1.395 . S
C1403 C1404 1.396 . S
C1403 C1405 1.365 . S
C1403 H1420 0.929 . S
C1404 C1401 1.394 . S
C1404 C1403 1.396 . S
C1404 H1421 0.930 . S
C1405 C1402 1.383 . S
C1405 C1403 1.365 . S
C1405 H1422 0.931 . S
C1406 C1401 1.370 . S
C1406 C1402 1.395 . S
C1406 H1423 0.930 . S
C1407 Gd1354 2.805 . S
C1407 O1389 1.263 . S
C1407 O1390 1.252 . S
C1407 C1401 1.500 . S
C1408 H1370 0.930 . S
C1408 C1384 1.417 . S
C1408 C1409 1.329 . S
C1409 C1379 1.437 . S
C1409 H1380 0.929 . S
C1409 C1408 1.329 . S
H1410 C1383 0.931 . S
C1411 O1393 1.265 . S
C1411 O1394 1.242 . S
C1412 O1397 1.261 . S
C1412 O1398 1.252 . S
C1413 C1416 1.394 . S
C1413 C1418 1.370 . S
C1413 C1419 1.500 . S
C1414 C1417 1.383 . S
C1414 C1418 1.395 . S
C1415 C1416 1.396 . S
C1415 C1417 1.365 . S
C1415 H1424 0.929 . S
C1416 C1413 1.394 . S
C1416 C1415 1.396 . S
C1416 H1425 0.930 . S
C1417 C1414 1.383 . S
C1417 C1415 1.365 . S
C1417 H1426 0.931 . S
C1418 C1413 1.370 . S
C1418 C1414 1.395 . S
C1418 H1427 0.930 . S
C1419 Gd1355 2.805 . S
C1419 O1395 1.263 . S
C1419 O1396 1.252 . S
C1419 C1413 1.500 . S
H1420 C1403 0.929 . S
H1421 C1404 0.930 . S
H1422 C1405 0.931 . S
H1423 C1406 0.930 . S
H1424 C1415 0.929 . S
H1425 C1416 0.930 . S
H1426 C1417 0.931 . S
H1427 C1418 0.930 . S
C1428 C1430 1.422 . S
C1428 C1432 1.415 . S
C1428 N1434 1.369 . S
C1429 C1430 1.421 . S
C1429 C1431 1.417 . S
C1429 C1441 1.422 . S
C1430 C1428 1.422 . S
C1430 C1429 1.421 . S
C1430 N1440 1.359 . S
C1431 C1429 1.417 . S
C1431 C1433 1.329 . S
C1431 H1450 0.930 . S
C1432 C1428 1.415 . S
C1432 C1433 1.437 . S
C1432 C1436 1.413 . S
C1433 C1431 1.329 . S
C1433 C1432 1.437 . S
C1433 H1455 0.929 . S
N1434 C1428 1.369 . S
N1434 C1435 1.338 . S
N1434 Gd1439 2.622 . S
C1435 N1434 1.338 . S
C1435 C1437 1.378 . S
C1435 H1447 0.929 . S
C1436 C1432 1.413 . S
C1436 C1437 1.348 . S
C1436 H1452 0.931 . S
C1437 C1435 1.378 . S
C1437 C1436 1.348 . S
C1437 H1453 0.930 . S
Gd1438 N1458 2.622 . S
Gd1438 N1465 2.570 . S
Gd1438 O1472 2.353 . S
Gd1438 O1473 2.468 . S
Gd1438 O1474 2.427 . S
Gd1438 O1476 2.388 . S
Gd1438 O1477 2.386 . S
Gd1438 O1481 2.307 . S
Gd1438 C1491 2.805 . S
Gd1439 N1434 2.622 . S
Gd1439 N1440 2.570 . S
Gd1439 O1471 2.386 . S
Gd1439 O1475 2.307 . S
Gd1439 O1478 2.353 . S
Gd1439 O1479 2.468 . S
Gd1439 O1480 2.427 . S
Gd1439 O1482 2.388 . S
Gd1439 C1503 2.805 . S
N1440 C1430 1.359 . S
N1440 Gd1439 2.570 . S
N1440 C1442 1.343 . S
C1441 C1429 1.422 . S
C1441 C1443 1.321 . S
C1441 H1449 0.931 . S
C1442 N1440 1.343 . S
C1442 C1443 1.390 . S
C1442 H1444 0.931 . S
C1443 C1441 1.321 . S
C1443 C1442 1.390 . S
C1443 H1445 0.930 . S
H1444 C1442 0.931 . S
H1445 C1443 0.930 . S
H1446 C1469 0.931 . S
H1447 C1435 0.929 . S
H1448 C1470 0.930 . S
H1449 C1441 0.931 . S
H1450 C1431 0.930 . S
H1451 C1460 0.929 . S
H1452 C1436 0.931 . S
H1453 C1437 0.930 . S
H1454 C1492 0.930 . S
H1455 C1433 0.929 . S
H1456 C1461 0.931 . S
H1457 C1462 0.930 . S
N1458 Gd1438 2.622 . S
N1458 C1459 1.369 . S
N1458 C1460 1.338 . S
C1459 N1458 1.369 . S
C1459 C1463 1.415 . S
C1459 C1466 1.422 . S
C1460 H1451 0.929 . S
C1460 N1458 1.338 . S
C1460 C1462 1.378 . S
C1461 H1456 0.931 . S
C1461 C1462 1.348 . S
C1461 C1463 1.413 . S
C1462 H1457 0.930 . S
C1462 C1460 1.378 . S
C1462 C1461 1.348 . S
C1463 C1459 1.415 . S
C1463 C1461 1.413 . S
C1463 C1493 1.437 . S
H1464 C1493 0.929 . S
N1465 Gd1438 2.570 . S
N1465 C1466 1.359 . S
N1465 C1469 1.343 . S
C1466 C1459 1.422 . S
C1466 N1465 1.359 . S
C1466 C1468 1.421 . S
C1467 C1468 1.422 . S
C1467 C1470 1.321 . S
C1467 H1494 0.931 . S
C1468 C1466 1.421 . S
C1468 C1467 1.422 . S
C1468 C1492 1.417 . S
C1469 H1446 0.931 . S
C1469 N1465 1.343 . S
C1469 C1470 1.390 . S
C1470 H1448 0.930 . S
C1470 C1467 1.321 . S
C1470 C1469 1.390 . S
O1471 Gd1439 2.386 . S
O1471 C1483 1.265 . S
O1472 Gd1438 2.353 . S
O1472 C1483 1.242 . S
O1473 Gd1438 2.468 . S
O1473 C1491 1.263 . S
O1474 Gd1438 2.427 . S
O1474 C1491 1.252 . S
O1475 Gd1439 2.307 . S
O1475 C1484 1.261 . S
O1476 Gd1438 2.388 . S
O1476 C1484 1.252 . S
O1477 Gd1438 2.386 . S
O1477 C1495 1.265 . S
O1478 Gd1439 2.353 . S
O1478 C1495 1.242 . S
O1479 Gd1439 2.468 . S
O1479 C1503 1.263 . S
O1480 Gd1439 2.427 . S
O1480 C1503 1.252 . S
O1481 Gd1438 2.307 . S
O1481 C1496 1.261 . S
O1482 Gd1439 2.388 . S
O1482 C1496 1.252 . S
C1483 O1471 1.265 . S
C1483 O1472 1.242 . S
C1484 O1475 1.261 . S
C1484 O1476 1.252 . S
C1485 C1488 1.394 . S
C1485 C1490 1.370 . S
C1485 C1491 1.500 . S
C1486 C1489 1.383 . S
C1486 C1490 1.395 . S
C1487 C1488 1.396 . S
C1487 C1489 1.365 . S
C1487 H1504 0.929 . S
C1488 C1485 1.394 . S
C1488 C1487 1.396 . S
C1488 H1505 0.930 . S
C1489 C1486 1.383 . S
C1489 C1487 1.365 . S
C1489 H1506 0.931 . S
C1490 C1485 1.370 . S
C1490 C1486 1.395 . S
C1490 H1507 0.930 . S
C1491 Gd1438 2.805 . S
C1491 O1473 1.263 . S
C1491 O1474 1.252 . S
C1491 C1485 1.500 . S
C1492 H1454 0.930 . S
C1492 C1468 1.417 . S
C1492 C1493 1.329 . S
C1493 C1463 1.437 . S
C1493 H1464 0.929 . S
C1493 C1492 1.329 . S
H1494 C1467 0.931 . S
C1495 O1477 1.265 . S
C1495 O1478 1.242 . S
C1496 O1481 1.261 . S
C1496 O1482 1.252 . S
C1497 C1500 1.394 . S
C1497 C1502 1.370 . S
C1497 C1503 1.500 . S
C1498 C1501 1.383 . S
C1498 C1502 1.395 . S
C1499 C1500 1.396 . S
C1499 C1501 1.365 . S
C1499 H1508 0.929 . S
C1500 C1497 1.394 . S
C1500 C1499 1.396 . S
C1500 H1509 0.930 . S
C1501 C1498 1.383 . S
C1501 C1499 1.365 . S
C1501 H1510 0.931 . S
C1502 C1497 1.370 . S
C1502 C1498 1.395 . S
C1502 H1511 0.930 . S
C1503 Gd1439 2.805 . S
C1503 O1479 1.263 . S
C1503 O1480 1.252 . S
C1503 C1497 1.500 . S
H1504 C1487 0.929 . S
H1505 C1488 0.930 . S
H1506 C1489 0.931 . S
H1507 C1490 0.930 . S
H1508 C1499 0.929 . S
H1509 C1500 0.930 . S
H1510 C1501 0.931 . S
H1511 C1502 0.930 . S
C1512 C1514 1.422 . S
C1512 C1516 1.415 . S
C1512 N1518 1.369 . S
C1513 C1514 1.421 . S
C1513 C1515 1.417 . S
C1513 C1525 1.422 . S
C1514 C1512 1.422 . S
C1514 C1513 1.421 . S
C1514 N1524 1.359 . S
C1515 C1513 1.417 . S
C1515 C1517 1.329 . S
C1515 H1534 0.930 . S
C1516 C1512 1.415 . S
C1516 C1517 1.437 . S
C1516 C1520 1.413 . S
C1517 C1515 1.329 . S
C1517 C1516 1.437 . S
C1517 H1539 0.929 . S
N1518 C1512 1.369 . S
N1518 C1519 1.338 . S
N1518 Gd1523 2.622 . S
C1519 N1518 1.338 . S
C1519 C1521 1.378 . S
C1519 H1531 0.929 . S
C1520 C1516 1.413 . S
C1520 C1521 1.348 . S
C1520 H1536 0.931 . S
C1521 C1519 1.378 . S
C1521 C1520 1.348 . S
C1521 H1537 0.930 . S
Gd1522 N1542 2.622 . S
Gd1522 N1549 2.570 . S
Gd1522 O1556 2.353 . S
Gd1522 O1557 2.468 . S
Gd1522 O1558 2.427 . S
Gd1522 O1560 2.388 . S
Gd1522 O1561 2.386 . S
Gd1522 O1565 2.307 . S
Gd1522 C1575 2.805 . S
Gd1523 N1518 2.622 . S
Gd1523 N1524 2.570 . S
Gd1523 O1555 2.386 . S
Gd1523 O1559 2.307 . S
Gd1523 O1562 2.353 . S
Gd1523 O1563 2.468 . S
Gd1523 O1564 2.427 . S
Gd1523 O1566 2.388 . S
Gd1523 C1587 2.805 . S
N1524 C1514 1.359 . S
N1524 Gd1523 2.570 . S
N1524 C1526 1.343 . S
C1525 C1513 1.422 . S
C1525 C1527 1.321 . S
C1525 H1533 0.931 . S
C1526 N1524 1.343 . S
C1526 C1527 1.390 . S
C1526 H1528 0.931 . S
C1527 C1525 1.321 . S
C1527 C1526 1.390 . S
C1527 H1529 0.930 . S
H1528 C1526 0.931 . S
H1529 C1527 0.930 . S
H1530 C1553 0.931 . S
H1531 C1519 0.929 . S
H1532 C1554 0.930 . S
H1533 C1525 0.931 . S
H1534 C1515 0.930 . S
H1535 C1544 0.929 . S
H1536 C1520 0.931 . S
H1537 C1521 0.930 . S
H1538 C1576 0.930 . S
H1539 C1517 0.929 . S
H1540 C1545 0.931 . S
H1541 C1546 0.930 . S
N1542 Gd1522 2.622 . S
N1542 C1543 1.369 . S
N1542 C1544 1.338 . S
C1543 N1542 1.369 . S
C1543 C1547 1.415 . S
C1543 C1550 1.422 . S
C1544 H1535 0.929 . S
C1544 N1542 1.338 . S
C1544 C1546 1.378 . S
C1545 H1540 0.931 . S
C1545 C1546 1.348 . S
C1545 C1547 1.413 . S
C1546 H1541 0.930 . S
C1546 C1544 1.378 . S
C1546 C1545 1.348 . S
C1547 C1543 1.415 . S
C1547 C1545 1.413 . S
C1547 C1577 1.437 . S
H1548 C1577 0.929 . S
N1549 Gd1522 2.570 . S
N1549 C1550 1.359 . S
N1549 C1553 1.343 . S
C1550 C1543 1.422 . S
C1550 N1549 1.359 . S
C1550 C1552 1.421 . S
C1551 C1552 1.422 . S
C1551 C1554 1.321 . S
C1551 H1578 0.931 . S
C1552 C1550 1.421 . S
C1552 C1551 1.422 . S
C1552 C1576 1.417 . S
C1553 H1530 0.931 . S
C1553 N1549 1.343 . S
C1553 C1554 1.390 . S
C1554 H1532 0.930 . S
C1554 C1551 1.321 . S
C1554 C1553 1.390 . S
O1555 Gd1523 2.386 . S
O1555 C1567 1.265 . S
O1556 Gd1522 2.353 . S
O1556 C1567 1.242 . S
O1557 Gd1522 2.468 . S
O1557 C1575 1.263 . S
O1558 Gd1522 2.427 . S
O1558 C1575 1.252 . S
O1559 Gd1523 2.307 . S
O1559 C1568 1.261 . S
O1560 Gd1522 2.388 . S
O1560 C1568 1.252 . S
O1561 Gd1522 2.386 . S
O1561 C1579 1.265 . S
O1562 Gd1523 2.353 . S
O1562 C1579 1.242 . S
O1563 Gd1523 2.468 . S
O1563 C1587 1.263 . S
O1564 Gd1523 2.427 . S
O1564 C1587 1.252 . S
O1565 Gd1522 2.307 . S
O1565 C1580 1.261 . S
O1566 Gd1523 2.388 . S
O1566 C1580 1.252 . S
C1567 O1555 1.265 . S
C1567 O1556 1.242 . S
C1568 O1559 1.261 . S
C1568 O1560 1.252 . S
C1569 C1572 1.394 . S
C1569 C1574 1.370 . S
C1569 C1575 1.500 . S
C1570 C1573 1.383 . S
C1570 C1574 1.395 . S
C1571 C1572 1.396 . S
C1571 C1573 1.365 . S
C1571 H1588 0.929 . S
C1572 C1569 1.394 . S
C1572 C1571 1.396 . S
C1572 H1589 0.930 . S
C1573 C1570 1.383 . S
C1573 C1571 1.365 . S
C1573 H1590 0.931 . S
C1574 C1569 1.370 . S
C1574 C1570 1.395 . S
C1574 H1591 0.930 . S
C1575 Gd1522 2.805 . S
C1575 O1557 1.263 . S
C1575 O1558 1.252 . S
C1575 C1569 1.500 . S
C1576 H1538 0.930 . S
C1576 C1552 1.417 . S
C1576 C1577 1.329 . S
C1577 C1547 1.437 . S
C1577 H1548 0.929 . S
C1577 C1576 1.329 . S
H1578 C1551 0.931 . S
C1579 O1561 1.265 . S
C1579 O1562 1.242 . S
C1580 O1565 1.261 . S
C1580 O1566 1.252 . S
C1581 C1584 1.394 . S
C1581 C1586 1.370 . S
C1581 C1587 1.500 . S
C1582 C1585 1.383 . S
C1582 C1586 1.395 . S
C1583 C1584 1.396 . S
C1583 C1585 1.365 . S
C1583 H1592 0.929 . S
C1584 C1581 1.394 . S
C1584 C1583 1.396 . S
C1584 H1593 0.930 . S
C1585 C1582 1.383 . S
C1585 C1583 1.365 . S
C1585 H1594 0.931 . S
C1586 C1581 1.370 . S
C1586 C1582 1.395 . S
C1586 H1595 0.930 . S
C1587 Gd1523 2.805 . S
C1587 O1563 1.263 . S
C1587 O1564 1.252 . S
C1587 C1581 1.500 . S
H1588 C1571 0.929 . S
H1589 C1572 0.930 . S
H1590 C1573 0.931 . S
H1591 C1574 0.930 . S
H1592 C1583 0.929 . S
H1593 C1584 0.930 . S
H1594 C1585 0.931 . S
H1595 C1586 0.930 . S
C1596 C1598 1.422 . S
C1596 C1600 1.415 . S
C1596 N1602 1.369 1_455 S
C1597 C1598 1.421 . S
C1597 C1599 1.417 . S
C1597 C1609 1.422 . S
C1598 C1596 1.422 . S
C1598 C1597 1.421 . S
C1598 N1608 1.359 . S
C1599 C1597 1.417 . S
C1599 C1601 1.329 . S
C1599 H1618 0.930 . S
C1600 C1596 1.415 . S
C1600 C1601 1.437 . S
C1600 C1604 1.413 1_455 S
C1601 C1599 1.329 . S
C1601 C1600 1.437 . S
C1601 H1623 0.929 . S
N1602 C1596 1.369 1_655 S
N1602 C1603 1.338 . S
N1602 Gd1607 2.622 . S
C1603 N1602 1.338 . S
C1603 C1605 1.378 . S
C1603 H1615 0.929 . S
C1604 C1600 1.413 1_655 S
C1604 C1605 1.348 . S
C1604 H1620 0.930 1_655 S
C1605 C1603 1.378 . S
C1605 C1604 1.348 . S
C1605 H1621 0.930 . S
Gd1606 N1626 2.622 . S
Gd1606 N1633 2.570 . S
Gd1606 O1640 2.353 . S
Gd1606 O1641 2.468 . S
Gd1606 O1642 2.427 . S
Gd1606 O1644 2.388 . S
Gd1606 O1645 2.386 . S
Gd1606 O1649 2.307 . S
Gd1606 C1659 2.805 . S
Gd1607 N1602 2.622 . S
Gd1607 N1608 2.570 1_655 S
Gd1607 O1639 2.386 . S
Gd1607 O1643 2.307 . S
Gd1607 O1646 2.353 . S
Gd1607 O1647 2.468 . S
Gd1607 O1648 2.427 . S
Gd1607 O1650 2.388 . S
Gd1607 C1671 2.805 . S
N1608 C1598 1.359 . S
N1608 Gd1607 2.570 1_455 S
N1608 C1610 1.343 . S
C1609 C1597 1.422 . S
C1609 C1611 1.321 . S
C1609 H1617 0.931 . S
C1610 N1608 1.343 . S
C1610 C1611 1.390 . S
C1610 H1612 0.931 . S
C1611 C1609 1.321 . S
C1611 C1610 1.390 . S
C1611 H1613 0.930 . S
H1612 C1610 0.931 . S
H1613 C1611 0.930 . S
H1614 C1637 0.931 . S
H1615 C1603 0.929 . S
H1616 C1638 0.930 . S
H1617 C1609 0.931 . S
H1618 C1599 0.930 . S
H1619 C1628 0.929 . S
H1620 C1604 0.930 1_455 S
H1621 C1605 0.930 . S
H1622 C1660 0.930 . S
H1623 C1601 0.929 . S
H1624 C1629 0.931 . S
H1625 C1630 0.930 . S
N1626 Gd1606 2.622 . S
N1626 C1627 1.369 . S
N1626 C1628 1.338 . S
C1627 N1626 1.369 . S
C1627 C1631 1.415 . S
C1627 C1634 1.422 . S
C1628 H1619 0.929 . S
C1628 N1626 1.338 . S
C1628 C1630 1.378 . S
C1629 H1624 0.931 . S
C1629 C1630 1.348 . S
C1629 C1631 1.413 . S
C1630 H1625 0.930 . S
C1630 C1628 1.378 . S
C1630 C1629 1.348 . S
C1631 C1627 1.415 . S
C1631 C1629 1.413 . S
C1631 C1661 1.437 . S
H1632 C1661 0.929 . S
N1633 Gd1606 2.570 . S
N1633 C1634 1.359 . S
N1633 C1637 1.343 . S
C1634 C1627 1.422 . S
C1634 N1633 1.359 . S
C1634 C1636 1.421 . S
C1635 C1636 1.422 . S
C1635 C1638 1.321 . S
C1635 H1662 0.931 . S
C1636 C1634 1.421 . S
C1636 C1635 1.422 . S
C1636 C1660 1.417 . S
C1637 H1614 0.931 . S
C1637 N1633 1.343 . S
C1637 C1638 1.390 . S
C1638 H1616 0.930 . S
C1638 C1635 1.321 . S
C1638 C1637 1.390 . S
O1639 Gd1607 2.386 . S
O1639 C1651 1.265 . S
O1640 Gd1606 2.353 . S
O1640 C1651 1.242 . S
O1641 Gd1606 2.468 . S
O1641 C1659 1.263 . S
O1642 Gd1606 2.427 . S
O1642 C1659 1.252 . S
O1643 Gd1607 2.307 . S
O1643 C1652 1.261 . S
O1644 Gd1606 2.388 . S
O1644 C1652 1.252 . S
O1645 Gd1606 2.386 . S
O1645 C1663 1.265 . S
O1646 Gd1607 2.353 . S
O1646 C1663 1.242 . S
O1647 Gd1607 2.468 . S
O1647 C1671 1.263 . S
O1648 Gd1607 2.427 . S
O1648 C1671 1.252 . S
O1649 Gd1606 2.307 . S
O1649 C1664 1.261 . S
O1650 Gd1607 2.388 . S
O1650 C1664 1.252 . S
C1651 O1639 1.265 . S
C1651 O1640 1.242 . S
C1652 O1643 1.261 . S
C1652 O1644 1.252 . S
C1653 C1656 1.394 . S
C1653 C1658 1.370 . S
C1653 C1659 1.500 . S
C1654 C1657 1.383 . S
C1654 C1658 1.395 . S
C1655 C1656 1.396 . S
C1655 C1657 1.365 . S
C1655 H1672 0.929 . S
C1656 C1653 1.394 . S
C1656 C1655 1.396 . S
C1656 H1673 0.930 . S
C1657 C1654 1.383 . S
C1657 C1655 1.365 . S
C1657 H1674 0.931 . S
C1658 C1653 1.370 . S
C1658 C1654 1.395 . S
C1658 H1675 0.930 . S
C1659 Gd1606 2.805 . S
C1659 O1641 1.263 . S
C1659 O1642 1.252 . S
C1659 C1653 1.500 . S
C1660 H1622 0.930 . S
C1660 C1636 1.417 . S
C1660 C1661 1.329 . S
C1661 C1631 1.437 . S
C1661 H1632 0.929 . S
C1661 C1660 1.329 . S
H1662 C1635 0.931 . S
C1663 O1645 1.265 . S
C1663 O1646 1.242 . S
C1664 O1649 1.261 . S
C1664 O1650 1.252 . S
C1665 C1668 1.394 . S
C1665 C1670 1.370 . S
C1665 C1671 1.500 1_455 S
C1666 C1669 1.383 . S
C1666 C1670 1.395 . S
C1667 C1668 1.396 . S
C1667 C1669 1.365 . S
C1667 H1676 0.929 . S
C1668 C1665 1.394 . S
C1668 C1667 1.396 . S
C1668 H1677 0.930 . S
C1669 C1666 1.383 . S
C1669 C1667 1.365 . S
C1669 H1678 0.931 . S
C1670 C1665 1.370 . S
C1670 C1666 1.395 . S
C1670 H1679 0.930 . S
C1671 Gd1607 2.805 . S
C1671 O1647 1.263 . S
C1671 O1648 1.252 . S
C1671 C1665 1.500 1_655 S
H1672 C1655 0.929 . S
H1673 C1656 0.930 . S
H1674 C1657 0.931 . S
H1675 C1658 0.930 . S
H1676 C1667 0.929 . S
H1677 C1668 0.930 . S
H1678 C1669 0.931 . S
H1679 C1670 0.930 . S
C1680 C1682 1.422 . S
C1680 C1684 1.415 . S
C1680 N1686 1.369 . S
C1681 C1682 1.421 . S
C1681 C1683 1.417 . S
C1681 C1693 1.422 . S
C1682 C1680 1.422 . S
C1682 C1681 1.421 . S
C1682 N1692 1.359 . S
C1683 C1681 1.417 . S
C1683 C1685 1.329 . S
C1683 H1702 0.930 . S
C1684 C1680 1.415 . S
C1684 C1685 1.437 . S
C1684 C1688 1.413 . S
C1685 C1683 1.329 . S
C1685 C1684 1.437 . S
C1685 H1707 0.929 . S
N1686 C1680 1.369 . S
N1686 C1687 1.338 . S
N1686 Gd1691 2.622 . S
C1687 N1686 1.338 . S
C1687 C1689 1.378 . S
C1687 H1699 0.929 . S
C1688 C1684 1.413 . S
C1688 C1689 1.348 . S
C1688 H1704 0.931 . S
C1689 C1687 1.378 . S
C1689 C1688 1.348 . S
C1689 H1705 0.930 . S
Gd1690 N1710 2.622 . S
Gd1690 N1717 2.570 . S
Gd1690 O1724 2.353 . S
Gd1690 O1725 2.468 . S
Gd1690 O1726 2.427 . S
Gd1690 O1728 2.388 . S
Gd1690 O1729 2.386 . S
Gd1690 O1733 2.307 . S
Gd1690 C1743 2.805 . S
Gd1691 N1686 2.622 . S
Gd1691 N1692 2.570 . S
Gd1691 O1723 2.386 . S
Gd1691 O1727 2.307 . S
Gd1691 O1730 2.353 . S
Gd1691 O1731 2.468 . S
Gd1691 O1732 2.427 . S
Gd1691 O1734 2.388 . S
Gd1691 C1755 2.805 . S
N1692 C1682 1.359 . S
N1692 Gd1691 2.570 . S
N1692 C1694 1.343 . S
C1693 C1681 1.422 . S
C1693 C1695 1.321 . S
C1693 H1701 0.931 . S
C1694 N1692 1.343 . S
C1694 C1695 1.390 . S
C1694 H1696 0.931 . S
C1695 C1693 1.321 . S
C1695 C1694 1.390 . S
C1695 H1697 0.930 . S
H1696 C1694 0.931 . S
H1697 C1695 0.930 . S
H1698 C1721 0.931 . S
H1699 C1687 0.929 . S
H1700 C1722 0.930 . S
H1701 C1693 0.931 . S
H1702 C1683 0.930 . S
H1703 C1712 0.929 . S
H1704 C1688 0.931 . S
H1705 C1689 0.930 . S
H1706 C1744 0.930 . S
H1707 C1685 0.929 . S
H1708 C1713 0.931 . S
H1709 C1714 0.930 . S
N1710 Gd1690 2.622 . S
N1710 C1711 1.369 . S
N1710 C1712 1.338 . S
C1711 N1710 1.369 . S
C1711 C1715 1.415 . S
C1711 C1718 1.422 . S
C1712 H1703 0.929 . S
C1712 N1710 1.338 . S
C1712 C1714 1.378 . S
C1713 H1708 0.931 . S
C1713 C1714 1.348 . S
C1713 C1715 1.413 . S
C1714 H1709 0.930 . S
C1714 C1712 1.378 . S
C1714 C1713 1.348 . S
C1715 C1711 1.415 . S
C1715 C1713 1.413 . S
C1715 C1745 1.437 . S
H1716 C1745 0.929 . S
N1717 Gd1690 2.570 . S
N1717 C1718 1.359 . S
N1717 C1721 1.343 . S
C1718 C1711 1.422 . S
C1718 N1717 1.359 . S
C1718 C1720 1.421 . S
C1719 C1720 1.422 . S
C1719 C1722 1.321 . S
C1719 H1746 0.931 . S
C1720 C1718 1.421 . S
C1720 C1719 1.422 . S
C1720 C1744 1.417 . S
C1721 H1698 0.931 . S
C1721 N1717 1.343 . S
C1721 C1722 1.390 . S
C1722 H1700 0.930 . S
C1722 C1719 1.321 . S
C1722 C1721 1.390 . S
O1723 Gd1691 2.386 . S
O1723 C1735 1.265 . S
O1724 Gd1690 2.353 . S
O1724 C1735 1.242 . S
O1725 Gd1690 2.468 . S
O1725 C1743 1.263 . S
O1726 Gd1690 2.427 . S
O1726 C1743 1.252 . S
O1727 Gd1691 2.307 . S
O1727 C1736 1.261 . S
O1728 Gd1690 2.388 . S
O1728 C1736 1.252 . S
O1729 Gd1690 2.386 . S
O1729 C1747 1.265 . S
O1730 Gd1691 2.353 . S
O1730 C1747 1.242 . S
O1731 Gd1691 2.468 . S
O1731 C1755 1.263 . S
O1732 Gd1691 2.427 . S
O1732 C1755 1.252 . S
O1733 Gd1690 2.307 . S
O1733 C1748 1.261 . S
O1734 Gd1691 2.388 . S
O1734 C1748 1.252 . S
C1735 O1723 1.265 . S
C1735 O1724 1.242 . S
C1736 O1727 1.261 . S
C1736 O1728 1.252 . S
C1737 C1740 1.394 . S
C1737 C1742 1.370 . S
C1737 C1743 1.500 . S
C1738 C1741 1.383 . S
C1738 C1742 1.395 . S
C1739 C1740 1.396 . S
C1739 C1741 1.365 . S
C1739 H1756 0.929 . S
C1740 C1737 1.394 . S
C1740 C1739 1.396 . S
C1740 H1757 0.930 . S
C1741 C1738 1.383 . S
C1741 C1739 1.365 . S
C1741 H1758 0.931 . S
C1742 C1737 1.370 . S
C1742 C1738 1.395 . S
C1742 H1759 0.930 . S
C1743 Gd1690 2.805 . S
C1743 O1725 1.263 . S
C1743 O1726 1.252 . S
C1743 C1737 1.500 . S
C1744 H1706 0.930 . S
C1744 C1720 1.417 . S
C1744 C1745 1.329 . S
C1745 C1715 1.437 . S
C1745 H1716 0.929 . S
C1745 C1744 1.329 . S
H1746 C1719 0.931 . S
C1747 O1729 1.265 . S
C1747 O1730 1.242 . S
C1748 O1733 1.261 . S
C1748 O1734 1.252 . S
C1749 C1752 1.394 . S
C1749 C1754 1.370 . S
C1749 C1755 1.500 . S
C1750 C1753 1.383 . S
C1750 C1754 1.395 . S
C1751 C1752 1.396 . S
C1751 C1753 1.365 . S
C1751 H1760 0.929 . S
C1752 C1749 1.394 . S
C1752 C1751 1.396 . S
C1752 H1761 0.930 . S
C1753 C1750 1.383 . S
C1753 C1751 1.365 . S
C1753 H1762 0.931 . S
C1754 C1749 1.370 . S
C1754 C1750 1.395 . S
C1754 H1763 0.930 . S
C1755 Gd1691 2.805 . S
C1755 O1731 1.263 . S
C1755 O1732 1.252 . S
C1755 C1749 1.500 . S
H1756 C1739 0.929 . S
H1757 C1740 0.930 . S
H1758 C1741 0.931 . S
H1759 C1742 0.930 . S
H1760 C1751 0.929 . S
H1761 C1752 0.930 . S
H1762 C1753 0.931 . S
H1763 C1754 0.930 . S
C1764 C1766 1.422 . S
C1764 C1768 1.415 . S
C1764 N1770 1.369 1_455 S
C1765 C1766 1.421 . S
C1765 C1767 1.417 . S
C1765 C1777 1.422 . S
C1766 C1764 1.422 . S
C1766 C1765 1.421 . S
C1766 N1776 1.359 . S
C1767 C1765 1.417 . S
C1767 C1769 1.329 . S
C1767 H1786 0.930 . S
C1768 C1764 1.415 . S
C1768 C1769 1.437 . S
C1768 C1772 1.413 1_455 S
C1769 C1767 1.329 . S
C1769 C1768 1.437 . S
C1769 H1791 0.929 . S
N1770 C1764 1.369 1_655 S
N1770 C1771 1.338 . S
N1770 Gd1775 2.622 . S
C1771 N1770 1.338 . S
C1771 C1773 1.378 . S
C1771 H1783 0.929 . S
C1772 C1768 1.413 1_655 S
C1772 C1773 1.348 . S
C1772 H1788 0.930 1_655 S
C1773 C1771 1.378 . S
C1773 C1772 1.348 . S
C1773 H1789 0.930 . S
Gd1774 N1794 2.622 . S
Gd1774 N1801 2.570 . S
Gd1774 O1808 2.353 . S
Gd1774 O1809 2.468 . S
Gd1774 O1810 2.427 . S
Gd1774 O1812 2.388 . S
Gd1774 O1813 2.386 . S
Gd1774 O1817 2.307 . S
Gd1774 C1827 2.805 . S
Gd1775 N1770 2.622 . S
Gd1775 N1776 2.570 1_655 S
Gd1775 O1807 2.386 . S
Gd1775 O1811 2.307 . S
Gd1775 O1814 2.353 . S
Gd1775 O1815 2.468 . S
Gd1775 O1816 2.427 . S
Gd1775 O1818 2.388 . S
Gd1775 C1839 2.805 . S
N1776 C1766 1.359 . S
N1776 Gd1775 2.570 1_455 S
N1776 C1778 1.343 . S
C1777 C1765 1.422 . S
C1777 C1779 1.321 . S
C1777 H1785 0.931 . S
C1778 N1776 1.343 . S
C1778 C1779 1.390 . S
C1778 H1780 0.931 . S
C1779 C1777 1.321 . S
C1779 C1778 1.390 . S
C1779 H1781 0.930 . S
H1780 C1778 0.931 . S
H1781 C1779 0.930 . S
H1782 C1805 0.931 . S
H1783 C1771 0.929 . S
H1784 C1806 0.930 . S
H1785 C1777 0.931 . S
H1786 C1767 0.930 . S
H1787 C1796 0.929 . S
H1788 C1772 0.930 1_455 S
H1789 C1773 0.930 . S
H1790 C1828 0.930 . S
H1791 C1769 0.929 . S
H1792 C1797 0.931 . S
H1793 C1798 0.930 . S
N1794 Gd1774 2.622 . S
N1794 C1795 1.369 . S
N1794 C1796 1.338 . S
C1795 N1794 1.369 . S
C1795 C1799 1.415 . S
C1795 C1802 1.422 . S
C1796 H1787 0.929 . S
C1796 N1794 1.338 . S
C1796 C1798 1.378 . S
C1797 H1792 0.931 . S
C1797 C1798 1.348 . S
C1797 C1799 1.413 . S
C1798 H1793 0.930 . S
C1798 C1796 1.378 . S
C1798 C1797 1.348 . S
C1799 C1795 1.415 . S
C1799 C1797 1.413 . S
C1799 C1829 1.437 . S
H1800 C1829 0.929 . S
N1801 Gd1774 2.570 . S
N1801 C1802 1.359 . S
N1801 C1805 1.343 . S
C1802 C1795 1.422 . S
C1802 N1801 1.359 . S
C1802 C1804 1.421 . S
C1803 C1804 1.422 . S
C1803 C1806 1.321 . S
C1803 H1830 0.931 . S
C1804 C1802 1.421 . S
C1804 C1803 1.422 . S
C1804 C1828 1.417 . S
C1805 H1782 0.931 . S
C1805 N1801 1.343 . S
C1805 C1806 1.390 . S
C1806 H1784 0.930 . S
C1806 C1803 1.321 . S
C1806 C1805 1.390 . S
O1807 Gd1775 2.386 . S
O1807 C1819 1.265 . S
O1808 Gd1774 2.353 . S
O1808 C1819 1.242 . S
O1809 Gd1774 2.468 . S
O1809 C1827 1.263 . S
O1810 Gd1774 2.427 . S
O1810 C1827 1.252 . S
O1811 Gd1775 2.307 . S
O1811 C1820 1.261 . S
O1812 Gd1774 2.388 . S
O1812 C1820 1.252 . S
O1813 Gd1774 2.386 . S
O1813 C1831 1.265 . S
O1814 Gd1775 2.353 . S
O1814 C1831 1.242 . S
O1815 Gd1775 2.468 . S
O1815 C1839 1.263 . S
O1816 Gd1775 2.427 . S
O1816 C1839 1.252 . S
O1817 Gd1774 2.307 . S
O1817 C1832 1.261 . S
O1818 Gd1775 2.388 . S
O1818 C1832 1.252 . S
C1819 O1807 1.265 . S
C1819 O1808 1.242 . S
C1820 O1811 1.261 . S
C1820 O1812 1.252 . S
C1821 C1824 1.394 . S
C1821 C1826 1.370 . S
C1821 C1827 1.500 . S
C1822 C1825 1.383 . S
C1822 C1826 1.395 . S
C1823 C1824 1.396 . S
C1823 C1825 1.365 . S
C1823 H1840 0.929 . S
C1824 C1821 1.394 . S
C1824 C1823 1.396 . S
C1824 H1841 0.930 . S
C1825 C1822 1.383 . S
C1825 C1823 1.365 . S
C1825 H1842 0.931 . S
C1826 C1821 1.370 . S
C1826 C1822 1.395 . S
C1826 H1843 0.930 . S
C1827 Gd1774 2.805 . S
C1827 O1809 1.263 . S
C1827 O1810 1.252 . S
C1827 C1821 1.500 . S
C1828 H1790 0.930 . S
C1828 C1804 1.417 . S
C1828 C1829 1.329 . S
C1829 C1799 1.437 . S
C1829 H1800 0.929 . S
C1829 C1828 1.329 . S
H1830 C1803 0.931 . S
C1831 O1813 1.265 . S
C1831 O1814 1.242 . S
C1832 O1817 1.261 . S
C1832 O1818 1.252 . S
C1833 C1836 1.394 . S
C1833 C1838 1.370 . S
C1833 C1839 1.500 1_455 S
C1834 C1837 1.383 . S
C1834 C1838 1.395 . S
C1835 C1836 1.396 . S
C1835 C1837 1.365 . S
C1835 H1844 0.929 . S
C1836 C1833 1.394 . S
C1836 C1835 1.396 . S
C1836 H1845 0.930 . S
C1837 C1834 1.383 . S
C1837 C1835 1.365 . S
C1837 H1846 0.931 . S
C1838 C1833 1.370 . S
C1838 C1834 1.395 . S
C1838 H1847 0.930 . S
C1839 Gd1775 2.805 . S
C1839 O1815 1.263 . S
C1839 O1816 1.252 . S
C1839 C1833 1.500 1_655 S
H1840 C1823 0.929 . S
H1841 C1824 0.930 . S
H1842 C1825 0.931 . S
H1843 C1826 0.930 . S
H1844 C1835 0.929 . S
H1845 C1836 0.930 . S
H1846 C1837 0.931 . S
H1847 C1838 0.930 . S
C1848 C1850 1.422 . S
C1848 C1852 1.415 . S
C1848 N1854 1.369 . S
C1849 C1850 1.421 . S
C1849 C1851 1.417 . S
C1849 C1861 1.422 . S
C1850 C1848 1.422 . S
C1850 C1849 1.421 . S
C1850 N1860 1.359 . S
C1851 C1849 1.417 . S
C1851 C1853 1.329 . S
C1851 H1870 0.930 . S
C1852 C1848 1.415 . S
C1852 C1853 1.437 . S
C1852 C1856 1.413 . S
C1853 C1851 1.329 . S
C1853 C1852 1.437 . S
C1853 H1875 0.929 . S
N1854 C1848 1.369 . S
N1854 C1855 1.338 . S
N1854 Gd1859 2.622 . S
C1855 N1854 1.338 . S
C1855 C1857 1.378 . S
C1855 H1867 0.929 . S
C1856 C1852 1.413 . S
C1856 C1857 1.348 . S
C1856 H1872 0.931 . S
C1857 C1855 1.378 . S
C1857 C1856 1.348 . S
C1857 H1873 0.930 . S
Gd1858 N1878 2.622 . S
Gd1858 N1885 2.570 . S
Gd1858 O1892 2.353 . S
Gd1858 O1893 2.468 . S
Gd1858 O1894 2.427 . S
Gd1858 O1896 2.388 . S
Gd1858 O1897 2.386 . S
Gd1858 O1901 2.307 . S
Gd1858 C1911 2.805 . S
Gd1859 N1854 2.622 . S
Gd1859 N1860 2.570 . S
Gd1859 O1891 2.386 . S
Gd1859 O1895 2.307 . S
Gd1859 O1898 2.353 . S
Gd1859 O1899 2.468 . S
Gd1859 O1900 2.427 . S
Gd1859 O1902 2.388 . S
Gd1859 C1923 2.805 . S
N1860 C1850 1.359 . S
N1860 Gd1859 2.570 . S
N1860 C1862 1.343 . S
C1861 C1849 1.422 . S
C1861 C1863 1.321 . S
C1861 H1869 0.931 . S
C1862 N1860 1.343 . S
C1862 C1863 1.390 . S
C1862 H1864 0.931 . S
C1863 C1861 1.321 . S
C1863 C1862 1.390 . S
C1863 H1865 0.930 . S
H1864 C1862 0.931 . S
H1865 C1863 0.930 . S
H1866 C1889 0.931 . S
H1867 C1855 0.929 . S
H1868 C1890 0.930 . S
H1869 C1861 0.931 . S
H1870 C1851 0.930 . S
H1871 C1880 0.929 . S
H1872 C1856 0.931 . S
H1873 C1857 0.930 . S
H1874 C1912 0.930 . S
H1875 C1853 0.929 . S
H1876 C1881 0.931 . S
H1877 C1882 0.930 . S
N1878 Gd1858 2.622 . S
N1878 C1879 1.369 . S
N1878 C1880 1.338 . S
C1879 N1878 1.369 . S
C1879 C1883 1.415 . S
C1879 C1886 1.422 . S
C1880 H1871 0.929 . S
C1880 N1878 1.338 . S
C1880 C1882 1.378 . S
C1881 H1876 0.931 . S
C1881 C1882 1.348 . S
C1881 C1883 1.413 . S
C1882 H1877 0.930 . S
C1882 C1880 1.378 . S
C1882 C1881 1.348 . S
C1883 C1879 1.415 . S
C1883 C1881 1.413 . S
C1883 C1913 1.437 . S
H1884 C1913 0.929 . S
N1885 Gd1858 2.570 . S
N1885 C1886 1.359 . S
N1885 C1889 1.343 . S
C1886 C1879 1.422 . S
C1886 N1885 1.359 . S
C1886 C1888 1.421 . S
C1887 C1888 1.422 . S
C1887 C1890 1.321 . S
C1887 H1914 0.931 . S
C1888 C1886 1.421 . S
C1888 C1887 1.422 . S
C1888 C1912 1.417 . S
C1889 H1866 0.931 . S
C1889 N1885 1.343 . S
C1889 C1890 1.390 . S
C1890 H1868 0.930 . S
C1890 C1887 1.321 . S
C1890 C1889 1.390 . S
O1891 Gd1859 2.386 . S
O1891 C1903 1.265 . S
O1892 Gd1858 2.353 . S
O1892 C1903 1.242 . S
O1893 Gd1858 2.468 . S
O1893 C1911 1.263 . S
O1894 Gd1858 2.427 . S
O1894 C1911 1.252 . S
O1895 Gd1859 2.307 . S
O1895 C1904 1.261 . S
O1896 Gd1858 2.388 . S
O1896 C1904 1.252 . S
O1897 Gd1858 2.386 . S
O1897 C1915 1.265 . S
O1898 Gd1859 2.353 . S
O1898 C1915 1.242 . S
O1899 Gd1859 2.468 . S
O1899 C1923 1.263 . S
O1900 Gd1859 2.427 . S
O1900 C1923 1.252 . S
O1901 Gd1858 2.307 . S
O1901 C1916 1.261 . S
O1902 Gd1859 2.388 . S
O1902 C1916 1.252 . S
C1903 O1891 1.265 . S
C1903 O1892 1.242 . S
C1904 O1895 1.261 . S
C1904 O1896 1.252 . S
C1905 C1908 1.394 . S
C1905 C1910 1.370 . S
C1905 C1911 1.500 . S
C1906 C1909 1.383 . S
C1906 C1910 1.395 . S
C1907 C1908 1.396 . S
C1907 C1909 1.365 . S
C1907 H1924 0.929 . S
C1908 C1905 1.394 . S
C1908 C1907 1.396 . S
C1908 H1925 0.930 . S
C1909 C1906 1.383 . S
C1909 C1907 1.365 . S
C1909 H1926 0.931 . S
C1910 C1905 1.370 . S
C1910 C1906 1.395 . S
C1910 H1927 0.930 . S
C1911 Gd1858 2.805 . S
C1911 O1893 1.263 . S
C1911 O1894 1.252 . S
C1911 C1905 1.500 . S
C1912 H1874 0.930 . S
C1912 C1888 1.417 . S
C1912 C1913 1.329 . S
C1913 C1883 1.437 . S
C1913 H1884 0.929 . S
C1913 C1912 1.329 . S
H1914 C1887 0.931 . S
C1915 O1897 1.265 . S
C1915 O1898 1.242 . S
C1916 O1901 1.261 . S
C1916 O1902 1.252 . S
C1917 C1920 1.394 . S
C1917 C1922 1.370 . S
C1917 C1923 1.500 . S
C1918 C1921 1.383 . S
C1918 C1922 1.395 . S
C1919 C1920 1.396 . S
C1919 C1921 1.365 . S
C1919 H1928 0.929 . S
C1920 C1917 1.394 . S
C1920 C1919 1.396 . S
C1920 H1929 0.930 . S
C1921 C1918 1.383 . S
C1921 C1919 1.365 . S
C1921 H1930 0.931 . S
C1922 C1917 1.370 . S
C1922 C1918 1.395 . S
C1922 H1931 0.930 . S
C1923 Gd1859 2.805 . S
C1923 O1899 1.263 . S
C1923 O1900 1.252 . S
C1923 C1917 1.500 . S
H1924 C1907 0.929 . S
H1925 C1908 0.930 . S
H1926 C1909 0.931 . S
H1927 C1910 0.930 . S
H1928 C1919 0.929 . S
H1929 C1920 0.930 . S
H1930 C1921 0.931 . S
H1931 C1922 0.930 . S
C1932 C1934 1.422 . S
C1932 C1936 1.415 . S
C1932 N1938 1.369 . S
C1933 C1934 1.421 . S
C1933 C1935 1.417 . S
C1933 C1945 1.422 . S
C1934 C1932 1.422 . S
C1934 C1933 1.421 . S
C1934 N1944 1.359 . S
C1935 C1933 1.417 . S
C1935 C1937 1.329 . S
C1935 H1954 0.930 . S
C1936 C1932 1.415 . S
C1936 C1937 1.437 . S
C1936 C1940 1.413 . S
C1937 C1935 1.329 . S
C1937 C1936 1.437 . S
C1937 H1959 0.929 . S
N1938 C1932 1.369 . S
N1938 C1939 1.338 . S
N1938 Gd1943 2.622 . S
C1939 N1938 1.338 . S
C1939 C1941 1.378 . S
C1939 H1951 0.929 . S
C1940 C1936 1.413 . S
C1940 C1941 1.348 . S
C1940 H1956 0.931 . S
C1941 C1939 1.378 . S
C1941 C1940 1.348 . S
C1941 H1957 0.930 . S
Gd1942 N1962 2.622 . S
Gd1942 N1969 2.570 . S
Gd1942 O1976 2.353 . S
Gd1942 O1977 2.468 . S
Gd1942 O1978 2.427 . S
Gd1942 O1980 2.388 . S
Gd1942 O1981 2.386 . S
Gd1942 O1985 2.307 . S
Gd1942 C1995 2.805 . S
Gd1943 N1938 2.622 . S
Gd1943 N1944 2.570 . S
Gd1943 O1975 2.386 . S
Gd1943 O1979 2.307 . S
Gd1943 O1982 2.353 . S
Gd1943 O1983 2.468 . S
Gd1943 O1984 2.427 . S
Gd1943 O1986 2.388 . S
Gd1943 C2007 2.805 . S
N1944 C1934 1.359 . S
N1944 Gd1943 2.570 . S
N1944 C1946 1.343 . S
C1945 C1933 1.422 . S
C1945 C1947 1.321 . S
C1945 H1953 0.931 . S
C1946 N1944 1.343 . S
C1946 C1947 1.390 . S
C1946 H1948 0.931 . S
C1947 C1945 1.321 . S
C1947 C1946 1.390 . S
C1947 H1949 0.930 . S
H1948 C1946 0.931 . S
H1949 C1947 0.930 . S
H1950 C1973 0.931 . S
H1951 C1939 0.929 . S
H1952 C1974 0.930 . S
H1953 C1945 0.931 . S
H1954 C1935 0.930 . S
H1955 C1964 0.929 . S
H1956 C1940 0.931 . S
H1957 C1941 0.930 . S
H1958 C1996 0.930 . S
H1959 C1937 0.929 . S
H1960 C1965 0.931 . S
H1961 C1966 0.930 . S
N1962 Gd1942 2.622 . S
N1962 C1963 1.369 . S
N1962 C1964 1.338 . S
C1963 N1962 1.369 . S
C1963 C1967 1.415 . S
C1963 C1970 1.422 . S
C1964 H1955 0.929 . S
C1964 N1962 1.338 . S
C1964 C1966 1.378 . S
C1965 H1960 0.931 . S
C1965 C1966 1.348 . S
C1965 C1967 1.413 . S
C1966 H1961 0.930 . S
C1966 C1964 1.378 . S
C1966 C1965 1.348 . S
C1967 C1963 1.415 . S
C1967 C1965 1.413 . S
C1967 C1997 1.437 . S
H1968 C1997 0.929 . S
N1969 Gd1942 2.570 . S
N1969 C1970 1.359 . S
N1969 C1973 1.343 . S
C1970 C1963 1.422 . S
C1970 N1969 1.359 . S
C1970 C1972 1.421 . S
C1971 C1972 1.422 . S
C1971 C1974 1.321 . S
C1971 H1998 0.931 . S
C1972 C1970 1.421 . S
C1972 C1971 1.422 . S
C1972 C1996 1.417 . S
C1973 H1950 0.931 . S
C1973 N1969 1.343 . S
C1973 C1974 1.390 . S
C1974 H1952 0.930 . S
C1974 C1971 1.321 . S
C1974 C1973 1.390 . S
O1975 Gd1943 2.386 . S
O1975 C1987 1.265 . S
O1976 Gd1942 2.353 . S
O1976 C1987 1.242 . S
O1977 Gd1942 2.468 . S
O1977 C1995 1.263 . S
O1978 Gd1942 2.427 . S
O1978 C1995 1.252 . S
O1979 Gd1943 2.307 . S
O1979 C1988 1.261 . S
O1980 Gd1942 2.388 . S
O1980 C1988 1.252 . S
O1981 Gd1942 2.386 . S
O1981 C1999 1.265 . S
O1982 Gd1943 2.353 . S
O1982 C1999 1.242 . S
O1983 Gd1943 2.468 . S
O1983 C2007 1.263 . S
O1984 Gd1943 2.427 . S
O1984 C2007 1.252 . S
O1985 Gd1942 2.307 . S
O1985 C2000 1.261 . S
O1986 Gd1943 2.388 . S
O1986 C2000 1.252 . S
C1987 O1975 1.265 . S
C1987 O1976 1.242 . S
C1988 O1979 1.261 . S
C1988 O1980 1.252 . S
C1989 C1992 1.394 . S
C1989 C1994 1.370 . S
C1989 C1995 1.500 . S
C1990 C1993 1.383 . S
C1990 C1994 1.395 . S
C1991 C1992 1.396 . S
C1991 C1993 1.365 . S
C1991 H2008 0.929 . S
C1992 C1989 1.394 . S
C1992 C1991 1.396 . S
C1992 H2009 0.930 . S
C1993 C1990 1.383 . S
C1993 C1991 1.365 . S
C1993 H2010 0.931 . S
C1994 C1989 1.370 . S
C1994 C1990 1.395 . S
C1994 H2011 0.930 . S
C1995 Gd1942 2.805 . S
C1995 O1977 1.263 . S
C1995 O1978 1.252 . S
C1995 C1989 1.500 . S
C1996 H1958 0.930 . S
C1996 C1972 1.417 . S
C1996 C1997 1.329 . S
C1997 C1967 1.437 . S
C1997 H1968 0.929 . S
C1997 C1996 1.329 . S
H1998 C1971 0.931 . S
C1999 O1981 1.265 . S
C1999 O1982 1.242 . S
C2000 O1985 1.261 . S
C2000 O1986 1.252 . S
C2001 C2004 1.394 . S
C2001 C2006 1.370 . S
C2001 C2007 1.500 . S
C2002 C2005 1.383 . S
C2002 C2006 1.395 . S
C2003 C2004 1.396 . S
C2003 C2005 1.365 . S
C2003 H2012 0.929 . S
C2004 C2001 1.394 . S
C2004 C2003 1.396 . S
C2004 H2013 0.930 . S
C2005 C2002 1.383 . S
C2005 C2003 1.365 . S
C2005 H2014 0.931 . S
C2006 C2001 1.370 . S
C2006 C2002 1.395 . S
C2006 H2015 0.930 . S
C2007 Gd1943 2.805 . S
C2007 O1983 1.263 . S
C2007 O1984 1.252 . S
C2007 C2001 1.500 . S
H2008 C1991 0.929 . S
H2009 C1992 0.930 . S
H2010 C1993 0.931 . S
H2011 C1994 0.930 . S
H2012 C2003 0.929 . S
H2013 C2004 0.930 . S
H2014 C2005 0.931 . S
H2015 C2006 0.930 . S
C2016 C2018 1.422 . S
C2016 C2020 1.415 . S
C2016 N2022 1.369 . S
C2017 C2018 1.421 . S
C2017 C2019 1.417 . S
C2017 C2029 1.422 . S
C2018 C2016 1.422 . S
C2018 C2017 1.421 . S
C2018 N2028 1.359 . S
C2019 C2017 1.417 . S
C2019 C2021 1.329 . S
C2019 H2038 0.930 . S
C2020 C2016 1.415 . S
C2020 C2021 1.437 . S
C2020 C2024 1.413 . S
C2021 C2019 1.329 . S
C2021 C2020 1.437 . S
C2021 H2043 0.929 . S
N2022 C2016 1.369 . S
N2022 C2023 1.338 . S
N2022 Gd2027 2.622 . S
C2023 N2022 1.338 . S
C2023 C2025 1.378 . S
C2023 H2035 0.929 . S
C2024 C2020 1.413 . S
C2024 C2025 1.348 . S
C2024 H2040 0.931 . S
C2025 C2023 1.378 . S
C2025 C2024 1.348 . S
C2025 H2041 0.930 . S
Gd2026 N2046 2.622 . S
Gd2026 N2053 2.570 . S
Gd2026 O2060 2.353 . S
Gd2026 O2061 2.468 . S
Gd2026 O2062 2.427 . S
Gd2026 O2064 2.388 . S
Gd2026 O2065 2.386 . S
Gd2026 O2069 2.307 . S
Gd2026 C2079 2.805 . S
Gd2027 N2022 2.622 . S
Gd2027 N2028 2.570 . S
Gd2027 O2059 2.386 . S
Gd2027 O2063 2.307 . S
Gd2027 O2066 2.353 . S
Gd2027 O2067 2.468 . S
Gd2027 O2068 2.427 . S
Gd2027 O2070 2.388 . S
Gd2027 C2091 2.805 . S
N2028 C2018 1.359 . S
N2028 Gd2027 2.570 . S
N2028 C2030 1.343 . S
C2029 C2017 1.422 . S
C2029 C2031 1.321 . S
C2029 H2037 0.931 . S
C2030 N2028 1.343 . S
C2030 C2031 1.390 . S
C2030 H2032 0.931 . S
C2031 C2029 1.321 . S
C2031 C2030 1.390 . S
C2031 H2033 0.930 . S
H2032 C2030 0.931 . S
H2033 C2031 0.930 . S
H2034 C2057 0.931 . S
H2035 C2023 0.929 . S
H2036 C2058 0.930 . S
H2037 C2029 0.931 . S
H2038 C2019 0.930 . S
H2039 C2048 0.929 . S
H2040 C2024 0.931 . S
H2041 C2025 0.930 . S
H2042 C2080 0.930 . S
H2043 C2021 0.929 . S
H2044 C2049 0.931 . S
H2045 C2050 0.930 . S
N2046 Gd2026 2.622 . S
N2046 C2047 1.369 . S
N2046 C2048 1.338 . S
C2047 N2046 1.369 . S
C2047 C2051 1.415 . S
C2047 C2054 1.422 . S
C2048 H2039 0.929 . S
C2048 N2046 1.338 . S
C2048 C2050 1.378 . S
C2049 H2044 0.931 . S
C2049 C2050 1.348 . S
C2049 C2051 1.413 . S
C2050 H2045 0.930 . S
C2050 C2048 1.378 . S
C2050 C2049 1.348 . S
C2051 C2047 1.415 . S
C2051 C2049 1.413 . S
C2051 C2081 1.437 . S
H2052 C2081 0.929 . S
N2053 Gd2026 2.570 . S
N2053 C2054 1.359 . S
N2053 C2057 1.343 . S
C2054 C2047 1.422 . S
C2054 N2053 1.359 . S
C2054 C2056 1.421 . S
C2055 C2056 1.422 . S
C2055 C2058 1.321 . S
C2055 H2082 0.931 . S
C2056 C2054 1.421 . S
C2056 C2055 1.422 . S
C2056 C2080 1.417 . S
C2057 H2034 0.931 . S
C2057 N2053 1.343 . S
C2057 C2058 1.390 . S
C2058 H2036 0.930 . S
C2058 C2055 1.321 . S
C2058 C2057 1.390 . S
O2059 Gd2027 2.386 . S
O2059 C2071 1.265 . S
O2060 Gd2026 2.353 . S
O2060 C2071 1.242 . S
O2061 Gd2026 2.468 . S
O2061 C2079 1.263 . S
O2062 Gd2026 2.427 . S
O2062 C2079 1.252 . S
O2063 Gd2027 2.307 . S
O2063 C2072 1.261 . S
O2064 Gd2026 2.388 . S
O2064 C2072 1.252 . S
O2065 Gd2026 2.386 . S
O2065 C2083 1.265 . S
O2066 Gd2027 2.353 . S
O2066 C2083 1.242 . S
O2067 Gd2027 2.468 . S
O2067 C2091 1.263 . S
O2068 Gd2027 2.427 . S
O2068 C2091 1.252 . S
O2069 Gd2026 2.307 . S
O2069 C2084 1.261 . S
O2070 Gd2027 2.388 . S
O2070 C2084 1.252 . S
C2071 O2059 1.265 . S
C2071 O2060 1.242 . S
C2072 O2063 1.261 . S
C2072 O2064 1.252 . S
C2073 C2076 1.394 . S
C2073 C2078 1.370 . S
C2073 C2079 1.500 . S
C2074 C2077 1.383 . S
C2074 C2078 1.395 . S
C2075 C2076 1.396 . S
C2075 C2077 1.365 . S
C2075 H2092 0.929 . S
C2076 C2073 1.394 . S
C2076 C2075 1.396 . S
C2076 H2093 0.930 . S
C2077 C2074 1.383 . S
C2077 C2075 1.365 . S
C2077 H2094 0.931 . S
C2078 C2073 1.370 . S
C2078 C2074 1.395 . S
C2078 H2095 0.930 . S
C2079 Gd2026 2.805 . S
C2079 O2061 1.263 . S
C2079 O2062 1.252 . S
C2079 C2073 1.500 . S
C2080 H2042 0.930 . S
C2080 C2056 1.417 . S
C2080 C2081 1.329 . S
C2081 C2051 1.437 . S
C2081 H2052 0.929 . S
C2081 C2080 1.329 . S
H2082 C2055 0.931 . S
C2083 O2065 1.265 . S
C2083 O2066 1.242 . S
C2084 O2069 1.261 . S
C2084 O2070 1.252 . S
C2085 C2088 1.394 . S
C2085 C2090 1.370 . S
C2085 C2091 1.500 . S
C2086 C2089 1.383 . S
C2086 C2090 1.395 . S
C2087 C2088 1.396 . S
C2087 C2089 1.365 . S
C2087 H2096 0.929 . S
C2088 C2085 1.394 . S
C2088 C2087 1.396 . S
C2088 H2097 0.930 . S
C2089 C2086 1.383 . S
C2089 C2087 1.365 . S
C2089 H2098 0.931 . S
C2090 C2085 1.370 . S
C2090 C2086 1.395 . S
C2090 H2099 0.930 . S
C2091 Gd2027 2.805 . S
C2091 O2067 1.263 . S
C2091 O2068 1.252 . S
C2091 C2085 1.500 . S
H2092 C2075 0.929 . S
H2093 C2076 0.930 . S
H2094 C2077 0.931 . S
H2095 C2078 0.930 . S
H2096 C2087 0.929 . S
H2097 C2088 0.930 . S
H2098 C2089 0.931 . S
H2099 C2090 0.930 . S
C2100 C2102 1.422 . S
C2100 C2104 1.415 . S
C2100 N2106 1.369 . S
C2101 C2102 1.421 . S
C2101 C2103 1.417 . S
C2101 C2113 1.422 . S
C2102 C2100 1.422 . S
C2102 C2101 1.421 . S
C2102 N2112 1.359 . S
C2103 C2101 1.417 . S
C2103 C2105 1.329 . S
C2103 H2122 0.930 . S
C2104 C2100 1.415 . S
C2104 C2105 1.437 . S
C2104 C2108 1.413 . S
C2105 C2103 1.329 . S
C2105 C2104 1.437 . S
C2105 H2127 0.929 . S
N2106 C2100 1.369 . S
N2106 C2107 1.338 . S
N2106 Gd2111 2.622 . S
C2107 N2106 1.338 . S
C2107 C2109 1.378 . S
C2107 H2119 0.929 . S
C2108 C2104 1.413 . S
C2108 C2109 1.348 . S
C2108 H2124 0.931 . S
C2109 C2107 1.378 . S
C2109 C2108 1.348 . S
C2109 H2125 0.930 . S
Gd2110 N2130 2.622 . S
Gd2110 N2137 2.570 . S
Gd2110 O2144 2.353 . S
Gd2110 O2145 2.468 . S
Gd2110 O2146 2.427 . S
Gd2110 O2148 2.388 . S
Gd2110 O2149 2.386 . S
Gd2110 O2153 2.307 . S
Gd2110 C2163 2.805 . S
Gd2111 N2106 2.622 . S
Gd2111 N2112 2.570 . S
Gd2111 O2143 2.386 . S
Gd2111 O2147 2.307 . S
Gd2111 O2150 2.353 . S
Gd2111 O2151 2.468 . S
Gd2111 O2152 2.427 . S
Gd2111 O2154 2.388 . S
Gd2111 C2175 2.805 . S
N2112 C2102 1.359 . S
N2112 Gd2111 2.570 . S
N2112 C2114 1.343 . S
C2113 C2101 1.422 . S
C2113 C2115 1.321 . S
C2113 H2121 0.931 . S
C2114 N2112 1.343 . S
C2114 C2115 1.390 . S
C2114 H2116 0.931 . S
C2115 C2113 1.321 . S
C2115 C2114 1.390 . S
C2115 H2117 0.930 . S
H2116 C2114 0.931 . S
H2117 C2115 0.930 . S
H2118 C2141 0.931 . S
H2119 C2107 0.929 . S
H2120 C2142 0.930 . S
H2121 C2113 0.931 . S
H2122 C2103 0.930 . S
H2123 C2132 0.929 . S
H2124 C2108 0.931 . S
H2125 C2109 0.930 . S
H2126 C2164 0.930 . S
H2127 C2105 0.929 . S
H2128 C2133 0.931 . S
H2129 C2134 0.930 . S
N2130 Gd2110 2.622 . S
N2130 C2131 1.369 . S
N2130 C2132 1.338 . S
C2131 N2130 1.369 . S
C2131 C2135 1.415 . S
C2131 C2138 1.422 . S
C2132 H2123 0.929 . S
C2132 N2130 1.338 . S
C2132 C2134 1.378 . S
C2133 H2128 0.931 . S
C2133 C2134 1.348 . S
C2133 C2135 1.413 . S
C2134 H2129 0.930 . S
C2134 C2132 1.378 . S
C2134 C2133 1.348 . S
C2135 C2131 1.415 . S
C2135 C2133 1.413 . S
C2135 C2165 1.437 . S
H2136 C2165 0.929 . S
N2137 Gd2110 2.570 . S
N2137 C2138 1.359 . S
N2137 C2141 1.343 . S
C2138 C2131 1.422 . S
C2138 N2137 1.359 . S
C2138 C2140 1.421 . S
C2139 C2140 1.422 . S
C2139 C2142 1.321 . S
C2139 H2166 0.931 . S
C2140 C2138 1.421 . S
C2140 C2139 1.422 . S
C2140 C2164 1.417 . S
C2141 H2118 0.931 . S
C2141 N2137 1.343 . S
C2141 C2142 1.390 . S
C2142 H2120 0.930 . S
C2142 C2139 1.321 . S
C2142 C2141 1.390 . S
O2143 Gd2111 2.386 . S
O2143 C2155 1.265 . S
O2144 Gd2110 2.353 . S
O2144 C2155 1.242 . S
O2145 Gd2110 2.468 . S
O2145 C2163 1.263 . S
O2146 Gd2110 2.427 . S
O2146 C2163 1.252 . S
O2147 Gd2111 2.307 . S
O2147 C2156 1.261 . S
O2148 Gd2110 2.388 . S
O2148 C2156 1.252 . S
O2149 Gd2110 2.386 . S
O2149 C2167 1.265 . S
O2150 Gd2111 2.353 . S
O2150 C2167 1.242 . S
O2151 Gd2111 2.468 . S
O2151 C2175 1.263 . S
O2152 Gd2111 2.427 . S
O2152 C2175 1.252 . S
O2153 Gd2110 2.307 . S
O2153 C2168 1.261 . S
O2154 Gd2111 2.388 . S
O2154 C2168 1.252 . S
C2155 O2143 1.265 . S
C2155 O2144 1.242 . S
C2156 O2147 1.261 . S
C2156 O2148 1.252 . S
C2157 C2160 1.394 . S
C2157 C2162 1.370 . S
C2157 C2163 1.500 . S
C2158 C2161 1.383 . S
C2158 C2162 1.395 . S
C2159 C2160 1.396 . S
C2159 C2161 1.365 . S
C2159 H2176 0.929 . S
C2160 C2157 1.394 . S
C2160 C2159 1.396 . S
C2160 H2177 0.930 . S
C2161 C2158 1.383 . S
C2161 C2159 1.365 . S
C2161 H2178 0.931 . S
C2162 C2157 1.370 . S
C2162 C2158 1.395 . S
C2162 H2179 0.930 . S
C2163 Gd2110 2.805 . S
C2163 O2145 1.263 . S
C2163 O2146 1.252 . S
C2163 C2157 1.500 . S
C2164 H2126 0.930 . S
C2164 C2140 1.417 . S
C2164 C2165 1.329 . S
C2165 C2135 1.437 . S
C2165 H2136 0.929 . S
C2165 C2164 1.329 . S
H2166 C2139 0.931 . S
C2167 O2149 1.265 . S
C2167 O2150 1.242 . S
C2168 O2153 1.261 . S
C2168 O2154 1.252 . S
C2169 C2172 1.394 . S
C2169 C2174 1.370 . S
C2169 C2175 1.500 . S
C2170 C2173 1.383 . S
C2170 C2174 1.395 . S
C2171 C2172 1.396 . S
C2171 C2173 1.365 . S
C2171 H2180 0.929 . S
C2172 C2169 1.394 . S
C2172 C2171 1.396 . S
C2172 H2181 0.930 . S
C2173 C2170 1.383 . S
C2173 C2171 1.365 . S
C2173 H2182 0.931 . S
C2174 C2169 1.370 . S
C2174 C2170 1.395 . S
C2174 H2183 0.930 . S
C2175 Gd2111 2.805 . S
C2175 O2151 1.263 . S
C2175 O2152 1.252 . S
C2175 C2169 1.500 . S
H2176 C2159 0.929 . S
H2177 C2160 0.930 . S
H2178 C2161 0.931 . S
H2179 C2162 0.930 . S
H2180 C2171 0.929 . S
H2181 C2172 0.930 . S
H2182 C2173 0.931 . S
H2183 C2174 0.930 . S
C2184 C2186 1.422 . S
C2184 C2188 1.415 . S
C2184 N2190 1.369 . S
C2185 C2186 1.421 . S
C2185 C2187 1.417 . S
C2185 C2197 1.422 . S
C2186 C2184 1.422 . S
C2186 C2185 1.421 . S
C2186 N2196 1.359 . S
C2187 C2185 1.417 . S
C2187 C2189 1.329 . S
C2187 H2206 0.930 . S
C2188 C2184 1.415 . S
C2188 C2189 1.437 . S
C2188 C2192 1.413 . S
C2189 C2187 1.329 . S
C2189 C2188 1.437 . S
C2189 H2211 0.929 . S
N2190 C2184 1.369 . S
N2190 C2191 1.338 . S
N2190 Gd2195 2.622 . S
C2191 N2190 1.338 . S
C2191 C2193 1.378 . S
C2191 H2203 0.929 . S
C2192 C2188 1.413 . S
C2192 C2193 1.348 . S
C2192 H2208 0.931 . S
C2193 C2191 1.378 . S
C2193 C2192 1.348 . S
C2193 H2209 0.930 . S
Gd2194 N2214 2.622 . S
Gd2194 N2221 2.570 . S
Gd2194 O2228 2.353 . S
Gd2194 O2229 2.468 . S
Gd2194 O2230 2.427 . S
Gd2194 O2232 2.388 . S
Gd2194 O2233 2.386 . S
Gd2194 O2237 2.307 . S
Gd2194 C2247 2.805 . S
Gd2195 N2190 2.622 . S
Gd2195 N2196 2.570 . S
Gd2195 O2227 2.386 . S
Gd2195 O2231 2.307 . S
Gd2195 O2234 2.353 . S
Gd2195 O2235 2.468 . S
Gd2195 O2236 2.427 . S
Gd2195 O2238 2.388 . S
Gd2195 C2259 2.805 . S
N2196 C2186 1.359 . S
N2196 Gd2195 2.570 . S
N2196 C2198 1.343 . S
C2197 C2185 1.422 . S
C2197 C2199 1.321 . S
C2197 H2205 0.931 . S
C2198 N2196 1.343 . S
C2198 C2199 1.390 . S
C2198 H2200 0.931 . S
C2199 C2197 1.321 . S
C2199 C2198 1.390 . S
C2199 H2201 0.930 . S
H2200 C2198 0.931 . S
H2201 C2199 0.930 . S
H2202 C2225 0.931 . S
H2203 C2191 0.929 . S
H2204 C2226 0.930 . S
H2205 C2197 0.931 . S
H2206 C2187 0.930 . S
H2207 C2216 0.929 . S
H2208 C2192 0.931 . S
H2209 C2193 0.930 . S
H2210 C2248 0.930 . S
H2211 C2189 0.929 . S
H2212 C2217 0.931 . S
H2213 C2218 0.930 . S
N2214 Gd2194 2.622 . S
N2214 C2215 1.369 . S
N2214 C2216 1.338 . S
C2215 N2214 1.369 . S
C2215 C2219 1.415 . S
C2215 C2222 1.422 . S
C2216 H2207 0.929 . S
C2216 N2214 1.338 . S
C2216 C2218 1.378 . S
C2217 H2212 0.931 . S
C2217 C2218 1.348 . S
C2217 C2219 1.413 . S
C2218 H2213 0.930 . S
C2218 C2216 1.378 . S
C2218 C2217 1.348 . S
C2219 C2215 1.415 . S
C2219 C2217 1.413 . S
C2219 C2249 1.437 . S
H2220 C2249 0.929 . S
N2221 Gd2194 2.570 . S
N2221 C2222 1.359 . S
N2221 C2225 1.343 . S
C2222 C2215 1.422 . S
C2222 N2221 1.359 . S
C2222 C2224 1.421 . S
C2223 C2224 1.422 . S
C2223 C2226 1.321 . S
C2223 H2250 0.931 . S
C2224 C2222 1.421 . S
C2224 C2223 1.422 . S
C2224 C2248 1.417 . S
C2225 H2202 0.931 . S
C2225 N2221 1.343 . S
C2225 C2226 1.390 . S
C2226 H2204 0.930 . S
C2226 C2223 1.321 . S
C2226 C2225 1.390 . S
O2227 Gd2195 2.386 . S
O2227 C2239 1.265 . S
O2228 Gd2194 2.353 . S
O2228 C2239 1.242 . S
O2229 Gd2194 2.468 . S
O2229 C2247 1.263 . S
O2230 Gd2194 2.427 . S
O2230 C2247 1.252 . S
O2231 Gd2195 2.307 . S
O2231 C2240 1.261 . S
O2232 Gd2194 2.388 . S
O2232 C2240 1.252 . S
O2233 Gd2194 2.386 . S
O2233 C2251 1.265 . S
O2234 Gd2195 2.353 . S
O2234 C2251 1.242 . S
O2235 Gd2195 2.468 . S
O2235 C2259 1.263 . S
O2236 Gd2195 2.427 . S
O2236 C2259 1.252 . S
O2237 Gd2194 2.307 . S
O2237 C2252 1.261 . S
O2238 Gd2195 2.388 . S
O2238 C2252 1.252 . S
C2239 O2227 1.265 . S
C2239 O2228 1.242 . S
C2240 O2231 1.261 . S
C2240 O2232 1.252 . S
C2241 C2244 1.394 . S
C2241 C2246 1.370 . S
C2241 C2247 1.500 . S
C2242 C2245 1.383 . S
C2242 C2246 1.395 . S
C2243 C2244 1.396 . S
C2243 C2245 1.365 . S
C2243 H2260 0.929 . S
C2244 C2241 1.394 . S
C2244 C2243 1.396 . S
C2244 H2261 0.930 . S
C2245 C2242 1.383 . S
C2245 C2243 1.365 . S
C2245 H2262 0.931 . S
C2246 C2241 1.370 . S
C2246 C2242 1.395 . S
C2246 H2263 0.930 . S
C2247 Gd2194 2.805 . S
C2247 O2229 1.263 . S
C2247 O2230 1.252 . S
C2247 C2241 1.500 . S
C2248 H2210 0.930 . S
C2248 C2224 1.417 . S
C2248 C2249 1.329 . S
C2249 C2219 1.437 . S
C2249 H2220 0.929 . S
C2249 C2248 1.329 . S
H2250 C2223 0.931 . S
C2251 O2233 1.265 . S
C2251 O2234 1.242 . S
C2252 O2237 1.261 . S
C2252 O2238 1.252 . S
C2253 C2256 1.394 . S
C2253 C2258 1.370 . S
C2253 C2259 1.500 . S
C2254 C2257 1.383 . S
C2254 C2258 1.395 . S
C2255 C2256 1.396 . S
C2255 C2257 1.365 . S
C2255 H2264 0.929 . S
C2256 C2253 1.394 . S
C2256 C2255 1.396 . S
C2256 H2265 0.930 . S
C2257 C2254 1.383 . S
C2257 C2255 1.365 . S
C2257 H2266 0.931 . S
C2258 C2253 1.370 . S
C2258 C2254 1.395 . S
C2258 H2267 0.930 . S
C2259 Gd2195 2.805 . S
C2259 O2235 1.263 . S
C2259 O2236 1.252 . S
C2259 C2253 1.500 . S
H2260 C2243 0.929 . S
H2261 C2244 0.930 . S
H2262 C2245 0.931 . S
H2263 C2246 0.930 . S
H2264 C2255 0.929 . S
H2265 C2256 0.930 . S
H2266 C2257 0.931 . S
H2267 C2258 0.930 . S
C2268 C2270 1.422 . S
C2268 C2272 1.415 . S
C2268 N2274 1.369 . S
C2269 C2270 1.421 . S
C2269 C2271 1.417 . S
C2269 C2281 1.422 . S
C2270 C2268 1.422 . S
C2270 C2269 1.421 . S
C2270 N2280 1.359 . S
C2271 C2269 1.417 . S
C2271 C2273 1.329 . S
C2271 H2290 0.930 . S
C2272 C2268 1.415 . S
C2272 C2273 1.437 . S
C2272 C2276 1.413 . S
C2273 C2271 1.329 . S
C2273 C2272 1.437 . S
C2273 H2295 0.929 . S
N2274 C2268 1.369 . S
N2274 C2275 1.338 . S
N2274 Gd2279 2.622 . S
C2275 N2274 1.338 . S
C2275 C2277 1.378 . S
C2275 H2287 0.929 . S
C2276 C2272 1.413 . S
C2276 C2277 1.348 . S
C2276 H2292 0.931 . S
C2277 C2275 1.378 . S
C2277 C2276 1.348 . S
C2277 H2293 0.930 . S
Gd2278 N2298 2.622 . S
Gd2278 N2305 2.570 1_455 S
Gd2278 O2312 2.353 . S
Gd2278 O2313 2.468 . S
Gd2278 O2314 2.427 . S
Gd2278 O2316 2.388 . S
Gd2278 O2317 2.386 . S
Gd2278 O2321 2.307 . S
Gd2278 C2331 2.805 . S
Gd2279 N2274 2.622 . S
Gd2279 N2280 2.570 . S
Gd2279 O2311 2.386 . S
Gd2279 O2315 2.307 . S
Gd2279 O2318 2.353 . S
Gd2279 O2319 2.468 . S
Gd2279 O2320 2.427 . S
Gd2279 O2322 2.388 . S
Gd2279 C2343 2.805 . S
N2280 C2270 1.359 . S
N2280 Gd2279 2.570 . S
N2280 C2282 1.343 . S
C2281 C2269 1.422 . S
C2281 C2283 1.321 . S
C2281 H2289 0.931 . S
C2282 N2280 1.343 . S
C2282 C2283 1.390 . S
C2282 H2284 0.931 . S
C2283 C2281 1.321 . S
C2283 C2282 1.390 . S
C2283 H2285 0.930 . S
H2284 C2282 0.931 . S
H2285 C2283 0.930 . S
H2286 C2309 0.931 . S
H2287 C2275 0.929 . S
H2288 C2310 0.930 . S
H2289 C2281 0.931 . S
H2290 C2271 0.930 . S
H2291 C2300 0.929 . S
H2292 C2276 0.931 . S
H2293 C2277 0.930 . S
H2294 C2332 0.930 . S
H2295 C2273 0.929 . S
H2296 C2301 0.930 1_655 S
H2297 C2302 0.930 . S
N2298 Gd2278 2.622 . S
N2298 C2299 1.369 1_455 S
N2298 C2300 1.338 . S
C2299 N2298 1.369 1_655 S
C2299 C2303 1.415 . S
C2299 C2306 1.422 . S
C2300 H2291 0.929 . S
C2300 N2298 1.338 . S
C2300 C2302 1.378 . S
C2301 H2296 0.930 1_455 S
C2301 C2302 1.348 . S
C2301 C2303 1.413 1_455 S
C2302 H2297 0.930 . S
C2302 C2300 1.378 . S
C2302 C2301 1.348 . S
C2303 C2299 1.415 . S
C2303 C2301 1.413 1_655 S
C2303 C2333 1.437 . S
H2304 C2333 0.929 . S
N2305 Gd2278 2.570 1_655 S
N2305 C2306 1.359 . S
N2305 C2309 1.343 . S
C2306 C2299 1.422 . S
C2306 N2305 1.359 . S
C2306 C2308 1.421 . S
C2307 C2308 1.422 . S
C2307 C2310 1.321 . S
C2307 H2334 0.931 . S
C2308 C2306 1.421 . S
C2308 C2307 1.422 . S
C2308 C2332 1.417 . S
C2309 H2286 0.931 . S
C2309 N2305 1.343 . S
C2309 C2310 1.390 . S
C2310 H2288 0.930 . S
C2310 C2307 1.321 . S
C2310 C2309 1.390 . S
O2311 Gd2279 2.386 . S
O2311 C2323 1.265 . S
O2312 Gd2278 2.353 . S
O2312 C2323 1.242 . S
O2313 Gd2278 2.468 . S
O2313 C2331 1.263 . S
O2314 Gd2278 2.427 . S
O2314 C2331 1.252 . S
O2315 Gd2279 2.307 . S
O2315 C2324 1.261 . S
O2316 Gd2278 2.388 . S
O2316 C2324 1.252 . S
O2317 Gd2278 2.386 . S
O2317 C2335 1.265 . S
O2318 Gd2279 2.353 . S
O2318 C2335 1.242 . S
O2319 Gd2279 2.468 . S
O2319 C2343 1.263 . S
O2320 Gd2279 2.427 . S
O2320 C2343 1.252 . S
O2321 Gd2278 2.307 . S
O2321 C2336 1.261 . S
O2322 Gd2279 2.388 . S
O2322 C2336 1.252 . S
C2323 O2311 1.265 . S
C2323 O2312 1.242 . S
C2324 O2315 1.261 . S
C2324 O2316 1.252 . S
C2325 C2328 1.394 . S
C2325 C2330 1.370 . S
C2325 C2331 1.500 1_655 S
C2326 C2329 1.383 . S
C2326 C2330 1.395 . S
C2327 C2328 1.396 . S
C2327 C2329 1.365 . S
C2327 H2344 0.929 . S
C2328 C2325 1.394 . S
C2328 C2327 1.396 . S
C2328 H2345 0.930 . S
C2329 C2326 1.383 . S
C2329 C2327 1.365 . S
C2329 H2346 0.931 . S
C2330 C2325 1.370 . S
C2330 C2326 1.395 . S
C2330 H2347 0.930 . S
C2331 Gd2278 2.805 . S
C2331 O2313 1.263 . S
C2331 O2314 1.252 . S
C2331 C2325 1.500 1_455 S
C2332 H2294 0.930 . S
C2332 C2308 1.417 . S
C2332 C2333 1.329 . S
C2333 C2303 1.437 . S
C2333 H2304 0.929 . S
C2333 C2332 1.329 . S
H2334 C2307 0.931 . S
C2335 O2317 1.265 . S
C2335 O2318 1.242 . S
C2336 O2321 1.261 . S
C2336 O2322 1.252 . S
C2337 C2340 1.394 . S
C2337 C2342 1.370 . S
C2337 C2343 1.500 . S
C2338 C2341 1.383 . S
C2338 C2342 1.395 . S
C2339 C2340 1.396 . S
C2339 C2341 1.365 . S
C2339 H2348 0.929 . S
C2340 C2337 1.394 . S
C2340 C2339 1.396 . S
C2340 H2349 0.930 . S
C2341 C2338 1.383 . S
C2341 C2339 1.365 . S
C2341 H2350 0.931 . S
C2342 C2337 1.370 . S
C2342 C2338 1.395 . S
C2342 H2351 0.930 . S
C2343 Gd2279 2.805 . S
C2343 O2319 1.263 . S
C2343 O2320 1.252 . S
C2343 C2337 1.500 . S
H2344 C2327 0.929 . S
H2345 C2328 0.930 . S
H2346 C2329 0.931 . S
H2347 C2330 0.930 . S
H2348 C2339 0.929 . S
H2349 C2340 0.930 . S
H2350 C2341 0.931 . S
H2351 C2342 0.930 . S
C2352 C2354 1.422 . S
C2352 C2356 1.415 . S
C2352 N2358 1.369 . S
C2353 C2354 1.421 . S
C2353 C2355 1.417 . S
C2353 C2365 1.422 . S
C2354 C2352 1.422 . S
C2354 C2353 1.421 . S
C2354 N2364 1.359 . S
C2355 C2353 1.417 . S
C2355 C2357 1.329 . S
C2355 H2374 0.930 . S
C2356 C2352 1.415 . S
C2356 C2357 1.437 . S
C2356 C2360 1.413 . S
C2357 C2355 1.329 . S
C2357 C2356 1.437 . S
C2357 H2379 0.929 . S
N2358 C2352 1.369 . S
N2358 C2359 1.338 . S
N2358 Gd2363 2.622 . S
C2359 N2358 1.338 . S
C2359 C2361 1.378 . S
C2359 H2371 0.929 . S
C2360 C2356 1.413 . S
C2360 C2361 1.348 . S
C2360 H2376 0.931 . S
C2361 C2359 1.378 . S
C2361 C2360 1.348 . S
C2361 H2377 0.930 . S
Gd2362 N2382 2.622 . S
Gd2362 N2389 2.570 . S
Gd2362 O2396 2.353 . S
Gd2362 O2397 2.468 . S
Gd2362 O2398 2.427 . S
Gd2362 O2400 2.388 . S
Gd2362 O2401 2.386 . S
Gd2362 O2405 2.307 . S
Gd2362 C2415 2.805 . S
Gd2363 N2358 2.622 . S
Gd2363 N2364 2.570 . S
Gd2363 O2395 2.386 . S
Gd2363 O2399 2.307 . S
Gd2363 O2402 2.353 . S
Gd2363 O2403 2.468 . S
Gd2363 O2404 2.427 . S
Gd2363 O2406 2.388 . S
Gd2363 C2427 2.805 . S
N2364 C2354 1.359 . S
N2364 Gd2363 2.570 . S
N2364 C2366 1.343 . S
C2365 C2353 1.422 . S
C2365 C2367 1.321 . S
C2365 H2373 0.931 . S
C2366 N2364 1.343 . S
C2366 C2367 1.390 . S
C2366 H2368 0.931 . S
C2367 C2365 1.321 . S
C2367 C2366 1.390 . S
C2367 H2369 0.930 . S
H2368 C2366 0.931 . S
H2369 C2367 0.930 . S
H2370 C2393 0.931 . S
H2371 C2359 0.929 . S
H2372 C2394 0.930 . S
H2373 C2365 0.931 . S
H2374 C2355 0.930 . S
H2375 C2384 0.929 . S
H2376 C2360 0.931 . S
H2377 C2361 0.930 . S
H2378 C2416 0.930 . S
H2379 C2357 0.929 . S
H2380 C2385 0.931 . S
H2381 C2386 0.930 . S
N2382 Gd2362 2.622 . S
N2382 C2383 1.369 . S
N2382 C2384 1.338 . S
C2383 N2382 1.369 . S
C2383 C2387 1.415 . S
C2383 C2390 1.422 . S
C2384 H2375 0.929 . S
C2384 N2382 1.338 . S
C2384 C2386 1.378 . S
C2385 H2380 0.931 . S
C2385 C2386 1.348 . S
C2385 C2387 1.413 . S
C2386 H2381 0.930 . S
C2386 C2384 1.378 . S
C2386 C2385 1.348 . S
C2387 C2383 1.415 . S
C2387 C2385 1.413 . S
C2387 C2417 1.437 . S
H2388 C2417 0.929 . S
N2389 Gd2362 2.570 . S
N2389 C2390 1.359 . S
N2389 C2393 1.343 . S
C2390 C2383 1.422 . S
C2390 N2389 1.359 . S
C2390 C2392 1.421 . S
C2391 C2392 1.422 . S
C2391 C2394 1.321 . S
C2391 H2418 0.931 . S
C2392 C2390 1.421 . S
C2392 C2391 1.422 . S
C2392 C2416 1.417 . S
C2393 H2370 0.931 . S
C2393 N2389 1.343 . S
C2393 C2394 1.390 . S
C2394 H2372 0.930 . S
C2394 C2391 1.321 . S
C2394 C2393 1.390 . S
O2395 Gd2363 2.386 . S
O2395 C2407 1.265 . S
O2396 Gd2362 2.353 . S
O2396 C2407 1.242 . S
O2397 Gd2362 2.468 . S
O2397 C2415 1.263 . S
O2398 Gd2362 2.427 . S
O2398 C2415 1.252 . S
O2399 Gd2363 2.307 . S
O2399 C2408 1.261 . S
O2400 Gd2362 2.388 . S
O2400 C2408 1.252 . S
O2401 Gd2362 2.386 . S
O2401 C2419 1.265 . S
O2402 Gd2363 2.353 . S
O2402 C2419 1.242 . S
O2403 Gd2363 2.468 . S
O2403 C2427 1.263 . S
O2404 Gd2363 2.427 . S
O2404 C2427 1.252 . S
O2405 Gd2362 2.307 . S
O2405 C2420 1.261 . S
O2406 Gd2363 2.388 . S
O2406 C2420 1.252 . S
C2407 O2395 1.265 . S
C2407 O2396 1.242 . S
C2408 O2399 1.261 . S
C2408 O2400 1.252 . S
C2409 C2412 1.394 . S
C2409 C2414 1.370 . S
C2409 C2415 1.500 . S
C2410 C2413 1.383 . S
C2410 C2414 1.395 . S
C2411 C2412 1.396 . S
C2411 C2413 1.365 . S
C2411 H2428 0.929 . S
C2412 C2409 1.394 . S
C2412 C2411 1.396 . S
C2412 H2429 0.930 . S
C2413 C2410 1.383 . S
C2413 C2411 1.365 . S
C2413 H2430 0.931 . S
C2414 C2409 1.370 . S
C2414 C2410 1.395 . S
C2414 H2431 0.930 . S
C2415 Gd2362 2.805 . S
C2415 O2397 1.263 . S
C2415 O2398 1.252 . S
C2415 C2409 1.500 . S
C2416 H2378 0.930 . S
C2416 C2392 1.417 . S
C2416 C2417 1.329 . S
C2417 C2387 1.437 . S
C2417 H2388 0.929 . S
C2417 C2416 1.329 . S
H2418 C2391 0.931 . S
C2419 O2401 1.265 . S
C2419 O2402 1.242 . S
C2420 O2405 1.261 . S
C2420 O2406 1.252 . S
C2421 C2424 1.394 . S
C2421 C2426 1.370 . S
C2421 C2427 1.500 . S
C2422 C2425 1.383 . S
C2422 C2426 1.395 . S
C2423 C2424 1.396 . S
C2423 C2425 1.365 . S
C2423 H2432 0.929 . S
C2424 C2421 1.394 . S
C2424 C2423 1.396 . S
C2424 H2433 0.930 . S
C2425 C2422 1.383 . S
C2425 C2423 1.365 . S
C2425 H2434 0.931 . S
C2426 C2421 1.370 . S
C2426 C2422 1.395 . S
C2426 H2435 0.930 . S
C2427 Gd2363 2.805 . S
C2427 O2403 1.263 . S
C2427 O2404 1.252 . S
C2427 C2421 1.500 . S
H2428 C2411 0.929 . S
H2429 C2412 0.930 . S
H2430 C2413 0.931 . S
H2431 C2414 0.930 . S
H2432 C2423 0.929 . S
H2433 C2424 0.930 . S
H2434 C2425 0.931 . S
H2435 C2426 0.930 . S
C2436 C2438 1.422 . S
C2436 C2440 1.415 . S
C2436 N2442 1.369 . S
C2437 C2438 1.421 . S
C2437 C2439 1.417 . S
C2437 C2449 1.422 . S
C2438 C2436 1.422 . S
C2438 C2437 1.421 . S
C2438 N2448 1.359 . S
C2439 C2437 1.417 . S
C2439 C2441 1.329 . S
C2439 H2458 0.930 . S
C2440 C2436 1.415 . S
C2440 C2441 1.437 . S
C2440 C2444 1.413 . S
C2441 C2439 1.329 . S
C2441 C2440 1.437 . S
C2441 H2463 0.929 . S
N2442 C2436 1.369 . S
N2442 C2443 1.338 . S
N2442 Gd2447 2.622 . S
C2443 N2442 1.338 . S
C2443 C2445 1.378 . S
C2443 H2455 0.929 . S
C2444 C2440 1.413 . S
C2444 C2445 1.348 . S
C2444 H2460 0.931 . S
C2445 C2443 1.378 . S
C2445 C2444 1.348 . S
C2445 H2461 0.930 . S
Gd2446 N2466 2.622 . S
Gd2446 N2473 2.570 1_455 S
Gd2446 O2480 2.353 . S
Gd2446 O2481 2.468 . S
Gd2446 O2482 2.427 . S
Gd2446 O2484 2.388 . S
Gd2446 O2485 2.386 . S
Gd2446 O2489 2.307 . S
Gd2446 C2499 2.805 . S
Gd2447 N2442 2.622 . S
Gd2447 N2448 2.570 . S
Gd2447 O2479 2.386 . S
Gd2447 O2483 2.307 . S
Gd2447 O2486 2.353 . S
Gd2447 O2487 2.468 . S
Gd2447 O2488 2.427 . S
Gd2447 O2490 2.388 . S
Gd2447 C2511 2.805 . S
N2448 C2438 1.359 . S
N2448 Gd2447 2.570 . S
N2448 C2450 1.343 . S
C2449 C2437 1.422 . S
C2449 C2451 1.321 . S
C2449 H2457 0.931 . S
C2450 N2448 1.343 . S
C2450 C2451 1.390 . S
C2450 H2452 0.931 . S
C2451 C2449 1.321 . S
C2451 C2450 1.390 . S
C2451 H2453 0.930 . S
H2452 C2450 0.931 . S
H2453 C2451 0.930 . S
H2454 C2477 0.931 . S
H2455 C2443 0.929 . S
H2456 C2478 0.930 . S
H2457 C2449 0.931 . S
H2458 C2439 0.930 . S
H2459 C2468 0.929 . S
H2460 C2444 0.931 . S
H2461 C2445 0.930 . S
H2462 C2500 0.930 . S
H2463 C2441 0.929 . S
H2464 C2469 0.930 1_655 S
H2465 C2470 0.930 . S
N2466 Gd2446 2.622 . S
N2466 C2467 1.369 1_455 S
N2466 C2468 1.338 . S
C2467 N2466 1.369 1_655 S
C2467 C2471 1.415 . S
C2467 C2474 1.422 . S
C2468 H2459 0.929 . S
C2468 N2466 1.338 . S
C2468 C2470 1.378 . S
C2469 H2464 0.930 1_455 S
C2469 C2470 1.348 . S
C2469 C2471 1.413 1_455 S
C2470 H2465 0.930 . S
C2470 C2468 1.378 . S
C2470 C2469 1.348 . S
C2471 C2467 1.415 . S
C2471 C2469 1.413 1_655 S
C2471 C2501 1.437 . S
H2472 C2501 0.929 . S
N2473 Gd2446 2.570 1_655 S
N2473 C2474 1.359 . S
N2473 C2477 1.343 . S
C2474 C2467 1.422 . S
C2474 N2473 1.359 . S
C2474 C2476 1.421 . S
C2475 C2476 1.422 . S
C2475 C2478 1.321 . S
C2475 H2502 0.931 . S
C2476 C2474 1.421 . S
C2476 C2475 1.422 . S
C2476 C2500 1.417 . S
C2477 H2454 0.931 . S
C2477 N2473 1.343 . S
C2477 C2478 1.390 . S
C2478 H2456 0.930 . S
C2478 C2475 1.321 . S
C2478 C2477 1.390 . S
O2479 Gd2447 2.386 . S
O2479 C2491 1.265 . S
O2480 Gd2446 2.353 . S
O2480 C2491 1.242 . S
O2481 Gd2446 2.468 . S
O2481 C2499 1.263 . S
O2482 Gd2446 2.427 . S
O2482 C2499 1.252 . S
O2483 Gd2447 2.307 . S
O2483 C2492 1.261 . S
O2484 Gd2446 2.388 . S
O2484 C2492 1.252 . S
O2485 Gd2446 2.386 . S
O2485 C2503 1.265 . S
O2486 Gd2447 2.353 . S
O2486 C2503 1.242 . S
O2487 Gd2447 2.468 . S
O2487 C2511 1.263 . S
O2488 Gd2447 2.427 . S
O2488 C2511 1.252 . S
O2489 Gd2446 2.307 . S
O2489 C2504 1.261 . S
O2490 Gd2447 2.388 . S
O2490 C2504 1.252 . S
C2491 O2479 1.265 . S
C2491 O2480 1.242 . S
C2492 O2483 1.261 . S
C2492 O2484 1.252 . S
C2493 C2496 1.394 . S
C2493 C2498 1.370 . S
C2493 C2499 1.500 1_655 S
C2494 C2497 1.383 . S
C2494 C2498 1.395 . S
C2495 C2496 1.396 . S
C2495 C2497 1.365 . S
C2495 H2512 0.929 . S
C2496 C2493 1.394 . S
C2496 C2495 1.396 . S
C2496 H2513 0.930 . S
C2497 C2494 1.383 . S
C2497 C2495 1.365 . S
C2497 H2514 0.931 . S
C2498 C2493 1.370 . S
C2498 C2494 1.395 . S
C2498 H2515 0.930 . S
C2499 Gd2446 2.805 . S
C2499 O2481 1.263 . S
C2499 O2482 1.252 . S
C2499 C2493 1.500 1_455 S
C2500 H2462 0.930 . S
C2500 C2476 1.417 . S
C2500 C2501 1.329 . S
C2501 C2471 1.437 . S
C2501 H2472 0.929 . S
C2501 C2500 1.329 . S
H2502 C2475 0.931 . S
C2503 O2485 1.265 . S
C2503 O2486 1.242 . S
C2504 O2489 1.261 . S
C2504 O2490 1.252 . S
C2505 C2508 1.394 . S
C2505 C2510 1.370 . S
C2505 C2511 1.500 . S
C2506 C2509 1.383 . S
C2506 C2510 1.395 . S
C2507 C2508 1.396 . S
C2507 C2509 1.365 . S
C2507 H2516 0.929 . S
C2508 C2505 1.394 . S
C2508 C2507 1.396 . S
C2508 H2517 0.930 . S
C2509 C2506 1.383 . S
C2509 C2507 1.365 . S
C2509 H2518 0.931 . S
C2510 C2505 1.370 . S
C2510 C2506 1.395 . S
C2510 H2519 0.930 . S
C2511 Gd2447 2.805 . S
C2511 O2487 1.263 . S
C2511 O2488 1.252 . S
C2511 C2505 1.500 . S
H2512 C2495 0.929 . S
H2513 C2496 0.930 . S
H2514 C2497 0.931 . S
H2515 C2498 0.930 . S
H2516 C2507 0.929 . S
H2517 C2508 0.930 . S
H2518 C2509 0.931 . S
H2519 C2510 0.930 . S
C2520 C2522 1.422 . S
C2520 C2524 1.415 . S
C2520 N2526 1.369 . S
C2521 C2522 1.421 . S
C2521 C2523 1.417 . S
C2521 C2533 1.422 . S
C2522 C2520 1.422 . S
C2522 C2521 1.421 . S
C2522 N2532 1.359 . S
C2523 C2521 1.417 . S
C2523 C2525 1.329 . S
C2523 H2542 0.930 . S
C2524 C2520 1.415 . S
C2524 C2525 1.437 . S
C2524 C2528 1.413 . S
C2525 C2523 1.329 . S
C2525 C2524 1.437 . S
C2525 H2547 0.929 . S
N2526 C2520 1.369 . S
N2526 C2527 1.338 . S
N2526 Gd2531 2.622 . S
C2527 N2526 1.338 . S
C2527 C2529 1.378 . S
C2527 H2539 0.929 . S
C2528 C2524 1.413 . S
C2528 C2529 1.348 . S
C2528 H2544 0.931 . S
C2529 C2527 1.378 . S
C2529 C2528 1.348 . S
C2529 H2545 0.930 . S
Gd2530 N2550 2.622 . S
Gd2530 N2557 2.570 . S
Gd2530 O2564 2.353 . S
Gd2530 O2565 2.468 . S
Gd2530 O2566 2.427 . S
Gd2530 O2568 2.388 . S
Gd2530 O2569 2.386 . S
Gd2530 O2573 2.307 . S
Gd2530 C2583 2.805 . S
Gd2531 N2526 2.622 . S
Gd2531 N2532 2.570 . S
Gd2531 O2563 2.386 . S
Gd2531 O2567 2.307 . S
Gd2531 O2570 2.353 . S
Gd2531 O2571 2.468 . S
Gd2531 O2572 2.427 . S
Gd2531 O2574 2.388 . S
Gd2531 C2595 2.805 . S
N2532 C2522 1.359 . S
N2532 Gd2531 2.570 . S
N2532 C2534 1.343 . S
C2533 C2521 1.422 . S
C2533 C2535 1.321 . S
C2533 H2541 0.931 . S
C2534 N2532 1.343 . S
C2534 C2535 1.390 . S
C2534 H2536 0.931 . S
C2535 C2533 1.321 . S
C2535 C2534 1.390 . S
C2535 H2537 0.930 . S
H2536 C2534 0.931 . S
H2537 C2535 0.930 . S
H2538 C2561 0.931 . S
H2539 C2527 0.929 . S
H2540 C2562 0.930 . S
H2541 C2533 0.931 . S
H2542 C2523 0.930 . S
H2543 C2552 0.929 . S
H2544 C2528 0.931 . S
H2545 C2529 0.930 . S
H2546 C2584 0.930 . S
H2547 C2525 0.929 . S
H2548 C2553 0.931 . S
H2549 C2554 0.930 . S
N2550 Gd2530 2.622 . S
N2550 C2551 1.369 . S
N2550 C2552 1.338 . S
C2551 N2550 1.369 . S
C2551 C2555 1.415 . S
C2551 C2558 1.422 . S
C2552 H2543 0.929 . S
C2552 N2550 1.338 . S
C2552 C2554 1.378 . S
C2553 H2548 0.931 . S
C2553 C2554 1.348 . S
C2553 C2555 1.413 . S
C2554 H2549 0.930 . S
C2554 C2552 1.378 . S
C2554 C2553 1.348 . S
C2555 C2551 1.415 . S
C2555 C2553 1.413 . S
C2555 C2585 1.437 . S
H2556 C2585 0.929 . S
N2557 Gd2530 2.570 . S
N2557 C2558 1.359 . S
N2557 C2561 1.343 . S
C2558 C2551 1.422 . S
C2558 N2557 1.359 . S
C2558 C2560 1.421 . S
C2559 C2560 1.422 . S
C2559 C2562 1.321 . S
C2559 H2586 0.931 . S
C2560 C2558 1.421 . S
C2560 C2559 1.422 . S
C2560 C2584 1.417 . S
C2561 H2538 0.931 . S
C2561 N2557 1.343 . S
C2561 C2562 1.390 . S
C2562 H2540 0.930 . S
C2562 C2559 1.321 . S
C2562 C2561 1.390 . S
O2563 Gd2531 2.386 . S
O2563 C2575 1.265 . S
O2564 Gd2530 2.353 . S
O2564 C2575 1.242 . S
O2565 Gd2530 2.468 . S
O2565 C2583 1.263 . S
O2566 Gd2530 2.427 . S
O2566 C2583 1.252 . S
O2567 Gd2531 2.307 . S
O2567 C2576 1.261 . S
O2568 Gd2530 2.388 . S
O2568 C2576 1.252 . S
O2569 Gd2530 2.386 . S
O2569 C2587 1.265 . S
O2570 Gd2531 2.353 . S
O2570 C2587 1.242 . S
O2571 Gd2531 2.468 . S
O2571 C2595 1.263 . S
O2572 Gd2531 2.427 . S
O2572 C2595 1.252 . S
O2573 Gd2530 2.307 . S
O2573 C2588 1.261 . S
O2574 Gd2531 2.388 . S
O2574 C2588 1.252 . S
C2575 O2563 1.265 . S
C2575 O2564 1.242 . S
C2576 O2567 1.261 . S
C2576 O2568 1.252 . S
C2577 C2580 1.394 . S
C2577 C2582 1.370 . S
C2577 C2583 1.500 . S
C2578 C2581 1.383 . S
C2578 C2582 1.395 . S
C2579 C2580 1.396 . S
C2579 C2581 1.365 . S
C2579 H2596 0.929 . S
C2580 C2577 1.394 . S
C2580 C2579 1.396 . S
C2580 H2597 0.930 . S
C2581 C2578 1.383 . S
C2581 C2579 1.365 . S
C2581 H2598 0.931 . S
C2582 C2577 1.370 . S
C2582 C2578 1.395 . S
C2582 H2599 0.930 . S
C2583 Gd2530 2.805 . S
C2583 O2565 1.263 . S
C2583 O2566 1.252 . S
C2583 C2577 1.500 . S
C2584 H2546 0.930 . S
C2584 C2560 1.417 . S
C2584 C2585 1.329 . S
C2585 C2555 1.437 . S
C2585 H2556 0.929 . S
C2585 C2584 1.329 . S
H2586 C2559 0.931 . S
C2587 O2569 1.265 . S
C2587 O2570 1.242 . S
C2588 O2573 1.261 . S
C2588 O2574 1.252 . S
C2589 C2592 1.394 . S
C2589 C2594 1.370 . S
C2589 C2595 1.500 . S
C2590 C2593 1.383 . S
C2590 C2594 1.395 . S
C2591 C2592 1.396 . S
C2591 C2593 1.365 . S
C2591 H2600 0.929 . S
C2592 C2589 1.394 . S
C2592 C2591 1.396 . S
C2592 H2601 0.930 . S
C2593 C2590 1.383 . S
C2593 C2591 1.365 . S
C2593 H2602 0.931 . S
C2594 C2589 1.370 . S
C2594 C2590 1.395 . S
C2594 H2603 0.930 . S
C2595 Gd2531 2.805 . S
C2595 O2571 1.263 . S
C2595 O2572 1.252 . S
C2595 C2589 1.500 . S
H2596 C2579 0.929 . S
H2597 C2580 0.930 . S
H2598 C2581 0.931 . S
H2599 C2582 0.930 . S
H2600 C2591 0.929 . S
H2601 C2592 0.930 . S
H2602 C2593 0.931 . S
H2603 C2594 0.930 . S
C2604 C2606 1.422 . S
C2604 C2608 1.415 . S
C2604 N2610 1.369 . S
C2605 C2606 1.421 . S
C2605 C2607 1.417 . S
C2605 C2617 1.422 . S
C2606 C2604 1.422 . S
C2606 C2605 1.421 . S
C2606 N2616 1.359 . S
C2607 C2605 1.417 . S
C2607 C2609 1.329 . S
C2607 H2626 0.930 . S
C2608 C2604 1.415 . S
C2608 C2609 1.437 . S
C2608 C2612 1.413 . S
C2609 C2607 1.329 . S
C2609 C2608 1.437 . S
C2609 H2631 0.929 . S
N2610 C2604 1.369 . S
N2610 C2611 1.338 . S
N2610 Gd2615 2.622 . S
C2611 N2610 1.338 . S
C2611 C2613 1.378 . S
C2611 H2623 0.929 . S
C2612 C2608 1.413 . S
C2612 C2613 1.348 . S
C2612 H2628 0.931 . S
C2613 C2611 1.378 . S
C2613 C2612 1.348 . S
C2613 H2629 0.930 . S
Gd2614 N2634 2.622 . S
Gd2614 N2641 2.570 . S
Gd2614 O2648 2.353 . S
Gd2614 O2649 2.468 . S
Gd2614 O2650 2.427 . S
Gd2614 O2652 2.388 . S
Gd2614 O2653 2.386 . S
Gd2614 O2657 2.307 . S
Gd2614 C2667 2.805 . S
Gd2615 N2610 2.622 . S
Gd2615 N2616 2.570 . S
Gd2615 O2647 2.386 . S
Gd2615 O2651 2.307 . S
Gd2615 O2654 2.353 . S
Gd2615 O2655 2.468 . S
Gd2615 O2656 2.427 . S
Gd2615 O2658 2.388 . S
Gd2615 C2679 2.805 . S
N2616 C2606 1.359 . S
N2616 Gd2615 2.570 . S
N2616 C2618 1.343 . S
C2617 C2605 1.422 . S
C2617 C2619 1.321 . S
C2617 H2625 0.931 . S
C2618 N2616 1.343 . S
C2618 C2619 1.390 . S
C2618 H2620 0.931 . S
C2619 C2617 1.321 . S
C2619 C2618 1.390 . S
C2619 H2621 0.930 . S
H2620 C2618 0.931 . S
H2621 C2619 0.930 . S
H2622 C2645 0.931 . S
H2623 C2611 0.929 . S
H2624 C2646 0.930 . S
H2625 C2617 0.931 . S
H2626 C2607 0.930 . S
H2627 C2636 0.929 . S
H2628 C2612 0.931 . S
H2629 C2613 0.930 . S
H2630 C2668 0.930 . S
H2631 C2609 0.929 . S
H2632 C2637 0.931 . S
H2633 C2638 0.930 . S
N2634 Gd2614 2.622 . S
N2634 C2635 1.369 . S
N2634 C2636 1.338 . S
C2635 N2634 1.369 . S
C2635 C2639 1.415 . S
C2635 C2642 1.422 . S
C2636 H2627 0.929 . S
C2636 N2634 1.338 . S
C2636 C2638 1.378 . S
C2637 H2632 0.931 . S
C2637 C2638 1.348 . S
C2637 C2639 1.413 . S
C2638 H2633 0.930 . S
C2638 C2636 1.378 . S
C2638 C2637 1.348 . S
C2639 C2635 1.415 . S
C2639 C2637 1.413 . S
C2639 C2669 1.437 . S
H2640 C2669 0.929 . S
N2641 Gd2614 2.570 . S
N2641 C2642 1.359 . S
N2641 C2645 1.343 . S
C2642 C2635 1.422 . S
C2642 N2641 1.359 . S
C2642 C2644 1.421 . S
C2643 C2644 1.422 . S
C2643 C2646 1.321 . S
C2643 H2670 0.931 . S
C2644 C2642 1.421 . S
C2644 C2643 1.422 . S
C2644 C2668 1.417 . S
C2645 H2622 0.931 . S
C2645 N2641 1.343 . S
C2645 C2646 1.390 . S
C2646 H2624 0.930 . S
C2646 C2643 1.321 . S
C2646 C2645 1.390 . S
O2647 Gd2615 2.386 . S
O2647 C2659 1.265 . S
O2648 Gd2614 2.353 . S
O2648 C2659 1.242 . S
O2649 Gd2614 2.468 . S
O2649 C2667 1.263 . S
O2650 Gd2614 2.427 . S
O2650 C2667 1.252 . S
O2651 Gd2615 2.307 . S
O2651 C2660 1.261 . S
O2652 Gd2614 2.388 . S
O2652 C2660 1.252 . S
O2653 Gd2614 2.386 . S
O2653 C2671 1.265 . S
O2654 Gd2615 2.353 . S
O2654 C2671 1.242 . S
O2655 Gd2615 2.468 . S
O2655 C2679 1.263 . S
O2656 Gd2615 2.427 . S
O2656 C2679 1.252 . S
O2657 Gd2614 2.307 . S
O2657 C2672 1.261 . S
O2658 Gd2615 2.388 . S
O2658 C2672 1.252 . S
C2659 O2647 1.265 . S
C2659 O2648 1.242 . S
C2660 O2651 1.261 . S
C2660 O2652 1.252 . S
C2661 C2664 1.394 . S
C2661 C2666 1.370 . S
C2661 C2667 1.500 . S
C2662 C2665 1.383 . S
C2662 C2666 1.395 . S
C2663 C2664 1.396 . S
C2663 C2665 1.365 . S
C2663 H2680 0.929 . S
C2664 C2661 1.394 . S
C2664 C2663 1.396 . S
C2664 H2681 0.930 . S
C2665 C2662 1.383 . S
C2665 C2663 1.365 . S
C2665 H2682 0.931 . S
C2666 C2661 1.370 . S
C2666 C2662 1.395 . S
C2666 H2683 0.930 . S
C2667 Gd2614 2.805 . S
C2667 O2649 1.263 . S
C2667 O2650 1.252 . S
C2667 C2661 1.500 . S
C2668 H2630 0.930 . S
C2668 C2644 1.417 . S
C2668 C2669 1.329 . S
C2669 C2639 1.437 . S
C2669 H2640 0.929 . S
C2669 C2668 1.329 . S
H2670 C2643 0.931 . S
C2671 O2653 1.265 . S
C2671 O2654 1.242 . S
C2672 O2657 1.261 . S
C2672 O2658 1.252 . S
C2673 C2676 1.394 . S
C2673 C2678 1.370 . S
C2673 C2679 1.500 . S
C2674 C2677 1.383 . S
C2674 C2678 1.395 . S
C2675 C2676 1.396 . S
C2675 C2677 1.365 . S
C2675 H2684 0.929 . S
C2676 C2673 1.394 . S
C2676 C2675 1.396 . S
C2676 H2685 0.930 . S
C2677 C2674 1.383 . S
C2677 C2675 1.365 . S
C2677 H2686 0.931 . S
C2678 C2673 1.370 . S
C2678 C2674 1.395 . S
C2678 H2687 0.930 . S
C2679 Gd2615 2.805 . S
C2679 O2655 1.263 . S
C2679 O2656 1.252 . S
C2679 C2673 1.500 . S
H2680 C2663 0.929 . S
H2681 C2664 0.930 . S
H2682 C2665 0.931 . S
H2683 C2666 0.930 . S
H2684 C2675 0.929 . S
H2685 C2676 0.930 . S
H2686 C2677 0.931 . S
H2687 C2678 0.930 . S
C2688 C2689 1.349 . S
C2688 C2690 1.327 . S
C2688 H2713 0.950 . S
C2689 C2688 1.349 . S
C2689 C2705 1.349 . S
C2690 C2688 1.327 . S
C2690 C2709 1.429 . S
C2690 H2714 0.950 . S
C2691 C2708 1.574 . S
C2691 C2710 1.368 . S
C2691 H2715 0.949 . S
H2692 C2696 0.949 . S
C2693 C2694 1.349 . S
C2693 C2695 1.327 . S
C2693 H2716 0.950 . S
C2694 C2693 1.349 . S
C2694 C2706 1.349 . S
C2695 C2693 1.327 . S
C2695 C2711 1.429 . S
C2695 H2717 0.950 . S
C2696 H2692 0.949 . S
C2696 C2704 1.574 . S
C2696 C2712 1.368 . S
H2697 C2705 0.950 . S
H2698 C2703 0.950 . S
H2699 C2704 0.949 . S
H2700 C2706 0.950 . S
H2701 C2707 0.950 . S
H2702 C2708 0.949 . S
C2703 H2698 0.950 . S
C2703 C2705 1.327 . S
C2703 C2709 1.429 . S
C2704 C2696 1.574 . S
C2704 H2699 0.949 . S
C2704 C2710 1.368 . S
C2705 C2689 1.349 . S
C2705 H2697 0.950 . S
C2705 C2703 1.327 . S
C2706 C2694 1.349 . S
C2706 H2700 0.950 . S
C2706 C2707 1.327 . S
C2707 H2701 0.950 . S
C2707 C2706 1.327 . S
C2707 C2711 1.429 . S
C2708 C2691 1.574 . S
C2708 H2702 0.949 . S
C2708 C2712 1.368 . S
C2709 C2690 1.429 . S
C2709 C2703 1.429 . S
C2709 C2710 1.523 . S
C2710 C2691 1.368 . S
C2710 C2704 1.368 . S
C2710 C2709 1.523 . S
C2711 C2695 1.429 . S
C2711 C2707 1.429 . S
C2711 C2712 1.523 . S
C2712 C2696 1.368 . S
C2712 C2708 1.368 . S
C2712 C2711 1.523 . S
H2713 C2688 0.950 . S
H2714 C2690 0.950 . S
H2715 C2691 0.949 . S
H2716 C2693 0.950 . S
H2717 C2695 0.950 . S
C2718 C2719 1.349 . S
C2718 C2720 1.327 . S
C2718 H2743 0.950 . S
C2719 C2718 1.349 . S
C2719 C2735 1.349 . S
C2720 C2718 1.327 . S
C2720 C2739 1.429 . S
C2720 H2744 0.950 . S
C2721 C2738 1.574 . S
C2721 C2740 1.368 . S
C2721 H2745 0.949 . S
H2722 C2726 0.949 . S
C2723 C2724 1.349 . S
C2723 C2725 1.327 . S
C2723 H2746 0.950 . S
C2724 C2723 1.349 . S
C2724 C2736 1.349 . S
C2725 C2723 1.327 . S
C2725 C2741 1.429 . S
C2725 H2747 0.950 . S
C2726 H2722 0.949 . S
C2726 C2734 1.574 . S
C2726 C2742 1.368 . S
H2727 C2735 0.950 . S
H2728 C2733 0.950 . S
H2729 C2734 0.949 . S
H2730 C2736 0.950 . S
H2731 C2737 0.950 . S
H2732 C2738 0.949 . S
C2733 H2728 0.950 . S
C2733 C2735 1.327 . S
C2733 C2739 1.429 . S
C2734 C2726 1.574 . S
C2734 H2729 0.949 . S
C2734 C2740 1.368 . S
C2735 C2719 1.349 . S
C2735 H2727 0.950 . S
C2735 C2733 1.327 . S
C2736 C2724 1.349 . S
C2736 H2730 0.950 . S
C2736 C2737 1.327 . S
C2737 H2731 0.950 . S
C2737 C2736 1.327 . S
C2737 C2741 1.429 . S
C2738 C2721 1.574 . S
C2738 H2732 0.949 . S
C2738 C2742 1.368 . S
C2739 C2720 1.429 . S
C2739 C2733 1.429 . S
C2739 C2740 1.523 . S
C2740 C2721 1.368 . S
C2740 C2734 1.368 . S
C2740 C2739 1.523 . S
C2741 C2725 1.429 . S
C2741 C2737 1.429 . S
C2741 C2742 1.523 . S
C2742 C2726 1.368 . S
C2742 C2738 1.368 . S
C2742 C2741 1.523 . S
H2743 C2718 0.950 . S
H2744 C2720 0.950 . S
H2745 C2721 0.949 . S
H2746 C2723 0.950 . S
H2747 C2725 0.950 . S
C2748 C2749 1.349 . S
C2748 C2750 1.327 . S
C2748 H2773 0.950 . S
C2749 C2748 1.349 . S
C2749 C2765 1.349 . S
C2750 C2748 1.327 . S
C2750 C2769 1.429 . S
C2750 H2774 0.950 . S
C2751 C2768 1.574 . S
C2751 C2770 1.368 . S
C2751 H2775 0.949 . S
H2752 C2756 0.949 . S
C2753 C2754 1.349 . S
C2753 C2755 1.327 . S
C2753 H2776 0.950 . S
C2754 C2753 1.349 . S
C2754 C2766 1.349 . S
C2755 C2753 1.327 . S
C2755 C2771 1.429 . S
C2755 H2777 0.950 . S
C2756 H2752 0.949 . S
C2756 C2764 1.574 . S
C2756 C2772 1.368 . S
H2757 C2765 0.950 . S
H2758 C2763 0.950 . S
H2759 C2764 0.949 . S
H2760 C2766 0.950 . S
H2761 C2767 0.950 . S
H2762 C2768 0.949 . S
C2763 H2758 0.950 . S
C2763 C2765 1.327 . S
C2763 C2769 1.429 . S
C2764 C2756 1.574 . S
C2764 H2759 0.949 . S
C2764 C2770 1.368 . S
C2765 C2749 1.349 . S
C2765 H2757 0.950 . S
C2765 C2763 1.327 . S
C2766 C2754 1.349 . S
C2766 H2760 0.950 . S
C2766 C2767 1.327 . S
C2767 H2761 0.950 . S
C2767 C2766 1.327 . S
C2767 C2771 1.429 . S
C2768 C2751 1.574 . S
C2768 H2762 0.949 . S
C2768 C2772 1.368 . S
C2769 C2750 1.429 . S
C2769 C2763 1.429 . S
C2769 C2770 1.523 . S
C2770 C2751 1.368 . S
C2770 C2764 1.368 . S
C2770 C2769 1.523 . S
C2771 C2755 1.429 . S
C2771 C2767 1.429 . S
C2771 C2772 1.523 . S
C2772 C2756 1.368 . S
C2772 C2768 1.368 . S
C2772 C2771 1.523 . S
H2773 C2748 0.950 . S
H2774 C2750 0.950 . S
H2775 C2751 0.949 . S
H2776 C2753 0.950 . S
H2777 C2755 0.950 . S
C2778 C2779 1.349 . S
C2778 C2780 1.327 . S
C2778 H2803 0.950 . S
C2779 C2778 1.349 . S
C2779 C2795 1.349 . S
C2780 C2778 1.327 . S
C2780 C2799 1.429 . S
C2780 H2804 0.950 . S
C2781 C2798 1.574 . S
C2781 C2800 1.368 . S
C2781 H2805 0.949 . S
H2782 C2786 0.949 . S
C2783 C2784 1.349 . S
C2783 C2785 1.327 . S
C2783 H2806 0.950 . S
C2784 C2783 1.349 . S
C2784 C2796 1.349 . S
C2785 C2783 1.327 . S
C2785 C2801 1.429 . S
C2785 H2807 0.950 . S
C2786 H2782 0.949 . S
C2786 C2794 1.574 . S
C2786 C2802 1.368 . S
H2787 C2795 0.950 . S
H2788 C2793 0.950 . S
H2789 C2794 0.949 . S
H2790 C2796 0.950 . S
H2791 C2797 0.950 . S
H2792 C2798 0.949 . S
C2793 H2788 0.950 . S
C2793 C2795 1.327 . S
C2793 C2799 1.429 . S
C2794 C2786 1.574 . S
C2794 H2789 0.949 . S
C2794 C2800 1.368 . S
C2795 C2779 1.349 . S
C2795 H2787 0.950 . S
C2795 C2793 1.327 . S
C2796 C2784 1.349 . S
C2796 H2790 0.950 . S
C2796 C2797 1.327 . S
C2797 H2791 0.950 . S
C2797 C2796 1.327 . S
C2797 C2801 1.429 . S
C2798 C2781 1.574 . S
C2798 H2792 0.949 . S
C2798 C2802 1.368 . S
C2799 C2780 1.429 . S
C2799 C2793 1.429 . S
C2799 C2800 1.523 . S
C2800 C2781 1.368 . S
C2800 C2794 1.368 . S
C2800 C2799 1.523 . S
C2801 C2785 1.429 . S
C2801 C2797 1.429 . S
C2801 C2802 1.523 . S
C2802 C2786 1.368 . S
C2802 C2798 1.368 . S
C2802 C2801 1.523 . S
H2803 C2778 0.950 . S
H2804 C2780 0.950 . S
H2805 C2781 0.949 . S
H2806 C2783 0.950 . S
H2807 C2785 0.950 . S
C2808 C2809 1.349 . S
C2808 C2810 1.327 . S
C2808 H2833 0.950 . S
C2809 C2808 1.349 . S
C2809 C2825 1.349 . S
C2810 C2808 1.327 . S
C2810 C2829 1.429 . S
C2810 H2834 0.950 . S
C2811 C2828 1.574 . S
C2811 C2830 1.368 . S
C2811 H2835 0.949 . S
H2812 C2816 0.949 . S
C2813 C2814 1.349 . S
C2813 C2815 1.327 . S
C2813 H2836 0.950 . S
C2814 C2813 1.349 . S
C2814 C2826 1.349 . S
C2815 C2813 1.327 . S
C2815 C2831 1.429 . S
C2815 H2837 0.950 . S
C2816 H2812 0.949 . S
C2816 C2824 1.574 . S
C2816 C2832 1.368 . S
H2817 C2825 0.950 . S
H2818 C2823 0.950 . S
H2819 C2824 0.949 . S
H2820 C2826 0.950 . S
H2821 C2827 0.950 . S
H2822 C2828 0.949 . S
C2823 H2818 0.950 . S
C2823 C2825 1.327 . S
C2823 C2829 1.429 . S
C2824 C2816 1.574 . S
C2824 H2819 0.949 . S
C2824 C2830 1.368 . S
C2825 C2809 1.349 . S
C2825 H2817 0.950 . S
C2825 C2823 1.327 . S
C2826 C2814 1.349 . S
C2826 H2820 0.950 . S
C2826 C2827 1.327 . S
C2827 H2821 0.950 . S
C2827 C2826 1.327 . S
C2827 C2831 1.429 . S
C2828 C2811 1.574 . S
C2828 H2822 0.949 . S
C2828 C2832 1.368 . S
C2829 C2810 1.429 . S
C2829 C2823 1.429 . S
C2829 C2830 1.523 . S
C2830 C2811 1.368 . S
C2830 C2824 1.368 . S
C2830 C2829 1.523 . S
C2831 C2815 1.429 . S
C2831 C2827 1.429 . S
C2831 C2832 1.523 . S
C2832 C2816 1.368 . S
C2832 C2828 1.368 . S
C2832 C2831 1.523 . S
H2833 C2808 0.950 . S
H2834 C2810 0.950 . S
H2835 C2811 0.949 . S
H2836 C2813 0.950 . S
H2837 C2815 0.950 . S
C2838 C2839 1.349 . S
C2838 C2840 1.327 . S
C2838 H2863 0.950 . S
C2839 C2838 1.349 . S
C2839 C2855 1.349 . S
C2840 C2838 1.327 . S
C2840 C2859 1.429 . S
C2840 H2864 0.950 . S
C2841 C2858 1.574 . S
C2841 C2860 1.368 . S
C2841 H2865 0.949 . S
H2842 C2846 0.949 . S
C2843 C2844 1.349 . S
C2843 C2845 1.327 . S
C2843 H2866 0.950 . S
C2844 C2843 1.349 . S
C2844 C2856 1.349 . S
C2845 C2843 1.327 . S
C2845 C2861 1.429 . S
C2845 H2867 0.950 . S
C2846 H2842 0.949 . S
C2846 C2854 1.574 . S
C2846 C2862 1.368 . S
H2847 C2855 0.950 . S
H2848 C2853 0.950 . S
H2849 C2854 0.949 . S
H2850 C2856 0.950 . S
H2851 C2857 0.950 . S
H2852 C2858 0.949 . S
C2853 H2848 0.950 . S
C2853 C2855 1.327 . S
C2853 C2859 1.429 . S
C2854 C2846 1.574 . S
C2854 H2849 0.949 . S
C2854 C2860 1.368 . S
C2855 C2839 1.349 . S
C2855 H2847 0.950 . S
C2855 C2853 1.327 . S
C2856 C2844 1.349 . S
C2856 H2850 0.950 . S
C2856 C2857 1.327 . S
C2857 H2851 0.950 . S
C2857 C2856 1.327 . S
C2857 C2861 1.429 . S
C2858 C2841 1.574 . S
C2858 H2852 0.949 . S
C2858 C2862 1.368 . S
C2859 C2840 1.429 . S
C2859 C2853 1.429 . S
C2859 C2860 1.523 . S
C2860 C2841 1.368 . S
C2860 C2854 1.368 . S
C2860 C2859 1.523 . S
C2861 C2845 1.429 . S
C2861 C2857 1.429 . S
C2861 C2862 1.523 . S
C2862 C2846 1.368 . S
C2862 C2858 1.368 . S
C2862 C2861 1.523 . S
H2863 C2838 0.950 . S
H2864 C2840 0.950 . S
H2865 C2841 0.949 . S
H2866 C2843 0.950 . S
H2867 C2845 0.950 . S
C2868 C2869 1.349 . S
C2868 C2870 1.327 . S
C2868 H2893 0.950 . S
C2869 C2868 1.349 . S
C2869 C2885 1.349 . S
C2870 C2868 1.327 . S
C2870 C2889 1.429 . S
C2870 H2894 0.950 . S
C2871 C2888 1.574 . S
C2871 C2890 1.368 . S
C2871 H2895 0.949 . S
H2872 C2876 0.949 . S
C2873 C2874 1.349 . S
C2873 C2875 1.327 . S
C2873 H2896 0.950 . S
C2874 C2873 1.349 . S
C2874 C2886 1.349 . S
C2875 C2873 1.327 . S
C2875 C2891 1.429 . S
C2875 H2897 0.950 . S
C2876 H2872 0.949 . S
C2876 C2884 1.574 . S
C2876 C2892 1.368 . S
H2877 C2885 0.950 . S
H2878 C2883 0.950 . S
H2879 C2884 0.949 . S
H2880 C2886 0.950 . S
H2881 C2887 0.950 . S
H2882 C2888 0.949 . S
C2883 H2878 0.950 . S
C2883 C2885 1.327 . S
C2883 C2889 1.429 . S
C2884 C2876 1.574 . S
C2884 H2879 0.949 . S
C2884 C2890 1.368 . S
C2885 C2869 1.349 . S
C2885 H2877 0.950 . S
C2885 C2883 1.327 . S
C2886 C2874 1.349 . S
C2886 H2880 0.950 . S
C2886 C2887 1.327 . S
C2887 H2881 0.950 . S
C2887 C2886 1.327 . S
C2887 C2891 1.429 . S
C2888 C2871 1.574 . S
C2888 H2882 0.949 . S
C2888 C2892 1.368 . S
C2889 C2870 1.429 . S
C2889 C2883 1.429 . S
C2889 C2890 1.523 . S
C2890 C2871 1.368 . S
C2890 C2884 1.368 . S
C2890 C2889 1.523 . S
C2891 C2875 1.429 . S
C2891 C2887 1.429 . S
C2891 C2892 1.523 . S
C2892 C2876 1.368 . S
C2892 C2888 1.368 . S
C2892 C2891 1.523 . S
H2893 C2868 0.950 . S
H2894 C2870 0.950 . S
H2895 C2871 0.949 . S
H2896 C2873 0.950 . S
H2897 C2875 0.950 . S
C2898 C2899 1.349 . S
C2898 C2900 1.327 . S
C2898 H2923 0.950 . S
C2899 C2898 1.349 . S
C2899 C2915 1.349 . S
C2900 C2898 1.327 . S
C2900 C2919 1.429 . S
C2900 H2924 0.950 . S
C2901 C2918 1.574 . S
C2901 C2920 1.368 . S
C2901 H2925 0.949 . S
H2902 C2906 0.949 . S
C2903 C2904 1.349 . S
C2903 C2905 1.327 . S
C2903 H2926 0.950 . S
C2904 C2903 1.349 . S
C2904 C2916 1.349 . S
C2905 C2903 1.327 . S
C2905 C2921 1.429 . S
C2905 H2927 0.950 . S
C2906 H2902 0.949 . S
C2906 C2914 1.574 . S
C2906 C2922 1.368 . S
H2907 C2915 0.950 . S
H2908 C2913 0.950 . S
H2909 C2914 0.949 . S
H2910 C2916 0.950 . S
H2911 C2917 0.950 . S
H2912 C2918 0.949 . S
C2913 H2908 0.950 . S
C2913 C2915 1.327 . S
C2913 C2919 1.429 . S
C2914 C2906 1.574 . S
C2914 H2909 0.949 . S
C2914 C2920 1.368 . S
C2915 C2899 1.349 . S
C2915 H2907 0.950 . S
C2915 C2913 1.327 . S
C2916 C2904 1.349 . S
C2916 H2910 0.950 . S
C2916 C2917 1.327 . S
C2917 H2911 0.950 . S
C2917 C2916 1.327 . S
C2917 C2921 1.429 . S
C2918 C2901 1.574 . S
C2918 H2912 0.949 . S
C2918 C2922 1.368 . S
C2919 C2900 1.429 . S
C2919 C2913 1.429 . S
C2919 C2920 1.523 . S
C2920 C2901 1.368 . S
C2920 C2914 1.368 . S
C2920 C2919 1.523 . S
C2921 C2905 1.429 . S
C2921 C2917 1.429 . S
C2921 C2922 1.523 . S
C2922 C2906 1.368 . S
C2922 C2918 1.368 . S
C2922 C2921 1.523 . S
H2923 C2898 0.950 . S
H2924 C2900 0.950 . S
H2925 C2901 0.949 . S
H2926 C2903 0.950 . S
H2927 C2905 0.950 . S
C2928 C2929 1.349 . S
C2928 C2930 1.327 . S
C2928 H2953 0.950 . S
C2929 C2928 1.349 . S
C2929 C2945 1.349 . S
C2930 C2928 1.327 . S
C2930 C2949 1.429 . S
C2930 H2954 0.950 . S
C2931 C2948 1.574 . S
C2931 C2950 1.368 . S
C2931 H2955 0.949 . S
H2932 C2936 0.949 . S
C2933 C2934 1.349 . S
C2933 C2935 1.327 . S
C2933 H2956 0.950 . S
C2934 C2933 1.349 . S
C2934 C2946 1.349 . S
C2935 C2933 1.327 . S
C2935 C2951 1.429 . S
C2935 H2957 0.950 . S
C2936 H2932 0.949 . S
C2936 C2944 1.574 . S
C2936 C2952 1.368 . S
H2937 C2945 0.950 . S
H2938 C2943 0.950 . S
H2939 C2944 0.949 . S
H2940 C2946 0.950 . S
H2941 C2947 0.950 . S
H2942 C2948 0.949 . S
C2943 H2938 0.950 . S
C2943 C2945 1.327 . S
C2943 C2949 1.429 . S
C2944 C2936 1.574 . S
C2944 H2939 0.949 . S
C2944 C2950 1.368 . S
C2945 C2929 1.349 . S
C2945 H2937 0.950 . S
C2945 C2943 1.327 . S
C2946 C2934 1.349 . S
C2946 H2940 0.950 . S
C2946 C2947 1.327 . S
C2947 H2941 0.950 . S
C2947 C2946 1.327 . S
C2947 C2951 1.429 . S
C2948 C2931 1.574 . S
C2948 H2942 0.949 . S
C2948 C2952 1.368 . S
C2949 C2930 1.429 . S
C2949 C2943 1.429 . S
C2949 C2950 1.523 . S
C2950 C2931 1.368 . S
C2950 C2944 1.368 . S
C2950 C2949 1.523 . S
C2951 C2935 1.429 . S
C2951 C2947 1.429 . S
C2951 C2952 1.523 . S
C2952 C2936 1.368 . S
C2952 C2948 1.368 . S
C2952 C2951 1.523 . S
H2953 C2928 0.950 . S
H2954 C2930 0.950 . S
H2955 C2931 0.949 . S
H2956 C2933 0.950 . S
H2957 C2935 0.950 . S
C2958 C2959 1.349 . S
C2958 C2960 1.327 . S
C2958 H2983 0.950 . S
C2959 C2958 1.349 . S
C2959 C2975 1.349 . S
C2960 C2958 1.327 . S
C2960 C2979 1.429 . S
C2960 H2984 0.950 . S
C2961 C2978 1.574 . S
C2961 C2980 1.368 . S
C2961 H2985 0.949 . S
H2962 C2966 0.949 . S
C2963 C2964 1.349 . S
C2963 C2965 1.327 . S
C2963 H2986 0.950 . S
C2964 C2963 1.349 . S
C2964 C2976 1.349 . S
C2965 C2963 1.327 . S
C2965 C2981 1.429 . S
C2965 H2987 0.950 . S
C2966 H2962 0.949 . S
C2966 C2974 1.574 . S
C2966 C2982 1.368 . S
H2967 C2975 0.950 . S
H2968 C2973 0.950 . S
H2969 C2974 0.949 . S
H2970 C2976 0.950 . S
H2971 C2977 0.950 . S
H2972 C2978 0.949 . S
C2973 H2968 0.950 . S
C2973 C2975 1.327 . S
C2973 C2979 1.429 . S
C2974 C2966 1.574 . S
C2974 H2969 0.949 . S
C2974 C2980 1.368 . S
C2975 C2959 1.349 . S
C2975 H2967 0.950 . S
C2975 C2973 1.327 . S
C2976 C2964 1.349 . S
C2976 H2970 0.950 . S
C2976 C2977 1.327 . S
C2977 H2971 0.950 . S
C2977 C2976 1.327 . S
C2977 C2981 1.429 . S
C2978 C2961 1.574 . S
C2978 H2972 0.949 . S
C2978 C2982 1.368 . S
C2979 C2960 1.429 . S
C2979 C2973 1.429 . S
C2979 C2980 1.523 . S
C2980 C2961 1.368 . S
C2980 C2974 1.368 . S
C2980 C2979 1.523 . S
C2981 C2965 1.429 . S
C2981 C2977 1.429 . S
C2981 C2982 1.523 . S
C2982 C2966 1.368 . S
C2982 C2978 1.368 . S
C2982 C2981 1.523 . S
H2983 C2958 0.950 . S
H2984 C2960 0.950 . S
H2985 C2961 0.949 . S
H2986 C2963 0.950 . S
H2987 C2965 0.950 . S
C2988 C2989 1.349 . S
C2988 C2990 1.327 . S
C2988 H3013 0.950 . S
C2989 C2988 1.349 . S
C2989 C3005 1.349 . S
C2990 C2988 1.327 . S
C2990 C3009 1.429 . S
C2990 H3014 0.950 . S
C2991 C3008 1.574 . S
C2991 C3010 1.368 . S
C2991 H3015 0.949 . S
H2992 C2996 0.949 . S
C2993 C2994 1.349 . S
C2993 C2995 1.327 . S
C2993 H3016 0.950 . S
C2994 C2993 1.349 . S
C2994 C3006 1.349 . S
C2995 C2993 1.327 . S
C2995 C3011 1.429 . S
C2995 H3017 0.950 . S
C2996 H2992 0.949 . S
C2996 C3004 1.574 . S
C2996 C3012 1.368 . S
H2997 C3005 0.950 . S
H2998 C3003 0.950 . S
H2999 C3004 0.949 . S
H3000 C3006 0.950 . S
H3001 C3007 0.950 . S
H3002 C3008 0.949 . S
C3003 H2998 0.950 . S
C3003 C3005 1.327 . S
C3003 C3009 1.429 . S
C3004 C2996 1.574 . S
C3004 H2999 0.949 . S
C3004 C3010 1.368 . S
C3005 C2989 1.349 . S
C3005 H2997 0.950 . S
C3005 C3003 1.327 . S
C3006 C2994 1.349 . S
C3006 H3000 0.950 . S
C3006 C3007 1.327 . S
C3007 H3001 0.950 . S
C3007 C3006 1.327 . S
C3007 C3011 1.429 . S
C3008 C2991 1.574 . S
C3008 H3002 0.949 . S
C3008 C3012 1.368 . S
C3009 C2990 1.429 . S
C3009 C3003 1.429 . S
C3009 C3010 1.523 . S
C3010 C2991 1.368 . S
C3010 C3004 1.368 . S
C3010 C3009 1.523 . S
C3011 C2995 1.429 . S
C3011 C3007 1.429 . S
C3011 C3012 1.523 . S
C3012 C2996 1.368 . S
C3012 C3008 1.368 . S
C3012 C3011 1.523 . S
H3013 C2988 0.950 . S
H3014 C2990 0.950 . S
H3015 C2991 0.949 . S
H3016 C2993 0.950 . S
H3017 C2995 0.950 . S
C3018 C3019 1.349 . S
C3018 C3020 1.327 . S
C3018 H3043 0.950 . S
C3019 C3018 1.349 . S
C3019 C3035 1.349 . S
C3020 C3018 1.327 . S
C3020 C3039 1.429 . S
C3020 H3044 0.950 . S
C3021 C3038 1.574 . S
C3021 C3040 1.368 . S
C3021 H3045 0.949 . S
H3022 C3026 0.949 . S
C3023 C3024 1.349 . S
C3023 C3025 1.327 . S
C3023 H3046 0.950 . S
C3024 C3023 1.349 . S
C3024 C3036 1.349 . S
C3025 C3023 1.327 . S
C3025 C3041 1.429 . S
C3025 H3047 0.950 . S
C3026 H3022 0.949 . S
C3026 C3034 1.574 . S
C3026 C3042 1.368 . S
H3027 C3035 0.950 . S
H3028 C3033 0.950 . S
H3029 C3034 0.949 . S
H3030 C3036 0.950 . S
H3031 C3037 0.950 . S
H3032 C3038 0.949 . S
C3033 H3028 0.950 . S
C3033 C3035 1.327 . S
C3033 C3039 1.429 . S
C3034 C3026 1.574 . S
C3034 H3029 0.949 . S
C3034 C3040 1.368 . S
C3035 C3019 1.349 . S
C3035 H3027 0.950 . S
C3035 C3033 1.327 . S
C3036 C3024 1.349 . S
C3036 H3030 0.950 . S
C3036 C3037 1.327 . S
C3037 H3031 0.950 . S
C3037 C3036 1.327 . S
C3037 C3041 1.429 . S
C3038 C3021 1.574 . S
C3038 H3032 0.949 . S
C3038 C3042 1.368 . S
C3039 C3020 1.429 . S
C3039 C3033 1.429 . S
C3039 C3040 1.523 . S
C3040 C3021 1.368 . S
C3040 C3034 1.368 . S
C3040 C3039 1.523 . S
C3041 C3025 1.429 . S
C3041 C3037 1.429 . S
C3041 C3042 1.523 . S
C3042 C3026 1.368 . S
C3042 C3038 1.368 . S
C3042 C3041 1.523 . S
H3043 C3018 0.950 . S
H3044 C3020 0.950 . S
H3045 C3021 0.949 . S
H3046 C3023 0.950 . S
H3047 C3025 0.950 . S
C3048 C3049 1.349 . S
C3048 C3050 1.327 . S
C3048 H3073 0.950 . S
C3049 C3048 1.349 . S
C3049 C3065 1.349 . S
C3050 C3048 1.327 . S
C3050 C3069 1.429 . S
C3050 H3074 0.950 . S
C3051 C3068 1.574 . S
C3051 C3070 1.368 . S
C3051 H3075 0.949 . S
H3052 C3056 0.949 . S
C3053 C3054 1.349 . S
C3053 C3055 1.327 . S
C3053 H3076 0.950 . S
C3054 C3053 1.349 . S
C3054 C3066 1.349 . S
C3055 C3053 1.327 . S
C3055 C3071 1.429 . S
C3055 H3077 0.950 . S
C3056 H3052 0.949 . S
C3056 C3064 1.574 . S
C3056 C3072 1.368 . S
H3057 C3065 0.950 . S
H3058 C3063 0.950 . S
H3059 C3064 0.949 . S
H3060 C3066 0.950 . S
H3061 C3067 0.950 . S
H3062 C3068 0.949 . S
C3063 H3058 0.950 . S
C3063 C3065 1.327 . S
C3063 C3069 1.429 . S
C3064 C3056 1.574 . S
C3064 H3059 0.949 . S
C3064 C3070 1.368 . S
C3065 C3049 1.349 . S
C3065 H3057 0.950 . S
C3065 C3063 1.327 . S
C3066 C3054 1.349 . S
C3066 H3060 0.950 . S
C3066 C3067 1.327 . S
C3067 H3061 0.950 . S
C3067 C3066 1.327 . S
C3067 C3071 1.429 . S
C3068 C3051 1.574 . S
C3068 H3062 0.949 . S
C3068 C3072 1.368 . S
C3069 C3050 1.429 . S
C3069 C3063 1.429 . S
C3069 C3070 1.523 . S
C3070 C3051 1.368 . S
C3070 C3064 1.368 . S
C3070 C3069 1.523 . S
C3071 C3055 1.429 . S
C3071 C3067 1.429 . S
C3071 C3072 1.523 . S
C3072 C3056 1.368 . S
C3072 C3068 1.368 . S
C3072 C3071 1.523 . S
H3073 C3048 0.950 . S
H3074 C3050 0.950 . S
H3075 C3051 0.949 . S
H3076 C3053 0.950 . S
H3077 C3055 0.950 . S
C3078 C3079 1.349 . S
C3078 C3080 1.327 . S
C3078 H3103 0.950 . S
C3079 C3078 1.349 . S
C3079 C3095 1.349 . S
C3080 C3078 1.327 . S
C3080 C3099 1.429 . S
C3080 H3104 0.950 . S
C3081 C3098 1.574 . S
C3081 C3100 1.368 . S
C3081 H3105 0.949 . S
H3082 C3086 0.949 . S
C3083 C3084 1.349 . S
C3083 C3085 1.327 . S
C3083 H3106 0.950 . S
C3084 C3083 1.349 . S
C3084 C3096 1.349 . S
C3085 C3083 1.327 . S
C3085 C3101 1.429 . S
C3085 H3107 0.950 . S
C3086 H3082 0.949 . S
C3086 C3094 1.574 . S
C3086 C3102 1.368 . S
H3087 C3095 0.950 . S
H3088 C3093 0.950 . S
H3089 C3094 0.949 . S
H3090 C3096 0.950 . S
H3091 C3097 0.950 . S
H3092 C3098 0.949 . S
C3093 H3088 0.950 . S
C3093 C3095 1.327 . S
C3093 C3099 1.429 . S
C3094 C3086 1.574 . S
C3094 H3089 0.949 . S
C3094 C3100 1.368 . S
C3095 C3079 1.349 . S
C3095 H3087 0.950 . S
C3095 C3093 1.327 . S
C3096 C3084 1.349 . S
C3096 H3090 0.950 . S
C3096 C3097 1.327 . S
C3097 H3091 0.950 . S
C3097 C3096 1.327 . S
C3097 C3101 1.429 . S
C3098 C3081 1.574 . S
C3098 H3092 0.949 . S
C3098 C3102 1.368 . S
C3099 C3080 1.429 . S
C3099 C3093 1.429 . S
C3099 C3100 1.523 . S
C3100 C3081 1.368 . S
C3100 C3094 1.368 . S
C3100 C3099 1.523 . S
C3101 C3085 1.429 . S
C3101 C3097 1.429 . S
C3101 C3102 1.523 . S
C3102 C3086 1.368 . S
C3102 C3098 1.368 . S
C3102 C3101 1.523 . S
H3103 C3078 0.950 . S
H3104 C3080 0.950 . S
H3105 C3081 0.949 . S
H3106 C3083 0.950 . S
H3107 C3085 0.950 . S
C3108 C3109 1.349 . S
C3108 C3110 1.327 . S
C3108 H3133 0.950 . S
C3109 C3108 1.349 . S
C3109 C3125 1.349 . S
C3110 C3108 1.327 . S
C3110 C3129 1.429 . S
C3110 H3134 0.950 . S
C3111 C3128 1.574 . S
C3111 C3130 1.368 . S
C3111 H3135 0.949 . S
H3112 C3116 0.949 . S
C3113 C3114 1.349 . S
C3113 C3115 1.327 . S
C3113 H3136 0.950 . S
C3114 C3113 1.349 . S
C3114 C3126 1.349 . S
C3115 C3113 1.327 . S
C3115 C3131 1.429 . S
C3115 H3137 0.950 . S
C3116 H3112 0.949 . S
C3116 C3124 1.574 . S
C3116 C3132 1.368 . S
H3117 C3125 0.950 . S
H3118 C3123 0.950 . S
H3119 C3124 0.949 . S
H3120 C3126 0.950 . S
H3121 C3127 0.950 . S
H3122 C3128 0.949 . S
C3123 H3118 0.950 . S
C3123 C3125 1.327 . S
C3123 C3129 1.429 . S
C3124 C3116 1.574 . S
C3124 H3119 0.949 . S
C3124 C3130 1.368 . S
C3125 C3109 1.349 . S
C3125 H3117 0.950 . S
C3125 C3123 1.327 . S
C3126 C3114 1.349 . S
C3126 H3120 0.950 . S
C3126 C3127 1.327 . S
C3127 H3121 0.950 . S
C3127 C3126 1.327 . S
C3127 C3131 1.429 . S
C3128 C3111 1.574 . S
C3128 H3122 0.949 . S
C3128 C3132 1.368 . S
C3129 C3110 1.429 . S
C3129 C3123 1.429 . S
C3129 C3130 1.523 . S
C3130 C3111 1.368 . S
C3130 C3124 1.368 . S
C3130 C3129 1.523 . S
C3131 C3115 1.429 . S
C3131 C3127 1.429 . S
C3131 C3132 1.523 . S
C3132 C3116 1.368 . S
C3132 C3128 1.368 . S
C3132 C3131 1.523 . S
H3133 C3108 0.950 . S
H3134 C3110 0.950 . S
H3135 C3111 0.949 . S
H3136 C3113 0.950 . S
H3137 C3115 0.950 . S
C3138 C3139 1.349 . S
C3138 C3140 1.327 . S
C3138 H3163 0.950 . S
C3139 C3138 1.349 . S
C3139 C3155 1.349 . S
C3140 C3138 1.327 . S
C3140 C3159 1.429 . S
C3140 H3164 0.950 . S
C3141 C3158 1.574 . S
C3141 C3160 1.368 . S
C3141 H3165 0.949 . S
H3142 C3146 0.949 . S
C3143 C3144 1.349 . S
C3143 C3145 1.327 . S
C3143 H3166 0.950 . S
C3144 C3143 1.349 . S
C3144 C3156 1.349 . S
C3145 C3143 1.327 . S
C3145 C3161 1.429 . S
C3145 H3167 0.950 . S
C3146 H3142 0.949 . S
C3146 C3154 1.574 . S
C3146 C3162 1.368 . S
H3147 C3155 0.950 . S
H3148 C3153 0.950 . S
H3149 C3154 0.949 . S
H3150 C3156 0.950 . S
H3151 C3157 0.950 . S
H3152 C3158 0.949 . S
C3153 H3148 0.950 . S
C3153 C3155 1.327 . S
C3153 C3159 1.429 . S
C3154 C3146 1.574 . S
C3154 H3149 0.949 . S
C3154 C3160 1.368 . S
C3155 C3139 1.349 . S
C3155 H3147 0.950 . S
C3155 C3153 1.327 . S
C3156 C3144 1.349 . S
C3156 H3150 0.950 . S
C3156 C3157 1.327 . S
C3157 H3151 0.950 . S
C3157 C3156 1.327 . S
C3157 C3161 1.429 . S
C3158 C3141 1.574 . S
C3158 H3152 0.949 . S
C3158 C3162 1.368 . S
C3159 C3140 1.429 . S
C3159 C3153 1.429 . S
C3159 C3160 1.523 . S
C3160 C3141 1.368 . S
C3160 C3154 1.368 . S
C3160 C3159 1.523 . S
C3161 C3145 1.429 . S
C3161 C3157 1.429 . S
C3161 C3162 1.523 . S
C3162 C3146 1.368 . S
C3162 C3158 1.368 . S
C3162 C3161 1.523 . S
H3163 C3138 0.950 . S
H3164 C3140 0.950 . S
H3165 C3141 0.949 . S
H3166 C3143 0.950 . S
H3167 C3145 0.950 . S
C3168 C3169 1.349 . S
C3168 C3170 1.327 . S
C3168 H3193 0.950 . S
C3169 C3168 1.349 . S
C3169 C3185 1.349 . S
C3170 C3168 1.327 . S
C3170 C3189 1.429 . S
C3170 H3194 0.950 . S
C3171 C3188 1.574 . S
C3171 C3190 1.368 . S
C3171 H3195 0.949 . S
H3172 C3176 0.949 . S
C3173 C3174 1.349 . S
C3173 C3175 1.327 . S
C3173 H3196 0.950 . S
C3174 C3173 1.349 . S
C3174 C3186 1.349 . S
C3175 C3173 1.327 . S
C3175 C3191 1.429 . S
C3175 H3197 0.950 . S
C3176 H3172 0.949 . S
C3176 C3184 1.574 . S
C3176 C3192 1.368 . S
H3177 C3185 0.950 . S
H3178 C3183 0.950 . S
H3179 C3184 0.949 . S
H3180 C3186 0.950 . S
H3181 C3187 0.950 . S
H3182 C3188 0.949 . S
C3183 H3178 0.950 . S
C3183 C3185 1.327 . S
C3183 C3189 1.429 . S
C3184 C3176 1.574 . S
C3184 H3179 0.949 . S
C3184 C3190 1.368 . S
C3185 C3169 1.349 . S
C3185 H3177 0.950 . S
C3185 C3183 1.327 . S
C3186 C3174 1.349 . S
C3186 H3180 0.950 . S
C3186 C3187 1.327 . S
C3187 H3181 0.950 . S
C3187 C3186 1.327 . S
C3187 C3191 1.429 . S
C3188 C3171 1.574 . S
C3188 H3182 0.949 . S
C3188 C3192 1.368 . S
C3189 C3170 1.429 . S
C3189 C3183 1.429 . S
C3189 C3190 1.523 . S
C3190 C3171 1.368 . S
C3190 C3184 1.368 . S
C3190 C3189 1.523 . S
C3191 C3175 1.429 . S
C3191 C3187 1.429 . S
C3191 C3192 1.523 . S
C3192 C3176 1.368 . S
C3192 C3188 1.368 . S
C3192 C3191 1.523 . S
H3193 C3168 0.950 . S
H3194 C3170 0.950 . S
H3195 C3171 0.949 . S
H3196 C3173 0.950 . S
H3197 C3175 0.950 . S
C3198 C3199 1.349 . S
C3198 C3200 1.327 . S
C3198 H3223 0.950 . S
C3199 C3198 1.349 . S
C3199 C3215 1.349 . S
C3200 C3198 1.327 . S
C3200 C3219 1.429 . S
C3200 H3224 0.950 . S
C3201 C3218 1.574 . S
C3201 C3220 1.368 . S
C3201 H3225 0.949 . S
H3202 C3206 0.949 . S
C3203 C3204 1.349 . S
C3203 C3205 1.327 . S
C3203 H3226 0.950 . S
C3204 C3203 1.349 . S
C3204 C3216 1.349 . S
C3205 C3203 1.327 . S
C3205 C3221 1.429 . S
C3205 H3227 0.950 . S
C3206 H3202 0.949 . S
C3206 C3214 1.574 . S
C3206 C3222 1.368 . S
H3207 C3215 0.950 . S
H3208 C3213 0.950 . S
H3209 C3214 0.949 . S
H3210 C3216 0.950 . S
H3211 C3217 0.950 . S
H3212 C3218 0.949 . S
C3213 H3208 0.950 . S
C3213 C3215 1.327 . S
C3213 C3219 1.429 . S
C3214 C3206 1.574 . S
C3214 H3209 0.949 . S
C3214 C3220 1.368 . S
C3215 C3199 1.349 . S
C3215 H3207 0.950 . S
C3215 C3213 1.327 . S
C3216 C3204 1.349 . S
C3216 H3210 0.950 . S
C3216 C3217 1.327 . S
C3217 H3211 0.950 . S
C3217 C3216 1.327 . S
C3217 C3221 1.429 . S
C3218 C3201 1.574 . S
C3218 H3212 0.949 . S
C3218 C3222 1.368 . S
C3219 C3200 1.429 . S
C3219 C3213 1.429 . S
C3219 C3220 1.523 . S
C3220 C3201 1.368 . S
C3220 C3214 1.368 . S
C3220 C3219 1.523 . S
C3221 C3205 1.429 . S
C3221 C3217 1.429 . S
C3221 C3222 1.523 . S
C3222 C3206 1.368 . S
C3222 C3218 1.368 . S
C3222 C3221 1.523 . S
H3223 C3198 0.950 . S
H3224 C3200 0.950 . S
H3225 C3201 0.949 . S
H3226 C3203 0.950 . S
H3227 C3205 0.950 . S
C3228 C3229 1.349 . S
C3228 C3230 1.327 . S
C3228 H3253 0.950 . S
C3229 C3228 1.349 . S
C3229 C3245 1.349 . S
C3230 C3228 1.327 . S
C3230 C3249 1.429 . S
C3230 H3254 0.950 . S
C3231 C3248 1.574 . S
C3231 C3250 1.368 . S
C3231 H3255 0.949 . S
H3232 C3236 0.949 . S
C3233 C3234 1.349 . S
C3233 C3235 1.327 . S
C3233 H3256 0.950 . S
C3234 C3233 1.349 . S
C3234 C3246 1.349 . S
C3235 C3233 1.327 . S
C3235 C3251 1.429 . S
C3235 H3257 0.950 . S
C3236 H3232 0.949 . S
C3236 C3244 1.574 . S
C3236 C3252 1.368 . S
H3237 C3245 0.950 . S
H3238 C3243 0.950 . S
H3239 C3244 0.949 . S
H3240 C3246 0.950 . S
H3241 C3247 0.950 . S
H3242 C3248 0.949 . S
C3243 H3238 0.950 . S
C3243 C3245 1.327 . S
C3243 C3249 1.429 . S
C3244 C3236 1.574 . S
C3244 H3239 0.949 . S
C3244 C3250 1.368 . S
C3245 C3229 1.349 . S
C3245 H3237 0.950 . S
C3245 C3243 1.327 . S
C3246 C3234 1.349 . S
C3246 H3240 0.950 . S
C3246 C3247 1.327 . S
C3247 H3241 0.950 . S
C3247 C3246 1.327 . S
C3247 C3251 1.429 . S
C3248 C3231 1.574 . S
C3248 H3242 0.949 . S
C3248 C3252 1.368 . S
C3249 C3230 1.429 . S
C3249 C3243 1.429 . S
C3249 C3250 1.523 . S
C3250 C3231 1.368 . S
C3250 C3244 1.368 . S
C3250 C3249 1.523 . S
C3251 C3235 1.429 . S
C3251 C3247 1.429 . S
C3251 C3252 1.523 . S
C3252 C3236 1.368 . S
C3252 C3248 1.368 . S
C3252 C3251 1.523 . S
H3253 C3228 0.950 . S
H3254 C3230 0.950 . S
H3255 C3231 0.949 . S
H3256 C3233 0.950 . S
H3257 C3235 0.950 . S
C3258 C3259 1.349 . S
C3258 C3260 1.327 . S
C3258 H3283 0.950 . S
C3259 C3258 1.349 . S
C3259 C3275 1.349 . S
C3260 C3258 1.327 . S
C3260 C3279 1.429 . S
C3260 H3284 0.950 . S
C3261 C3278 1.574 . S
C3261 C3280 1.368 . S
C3261 H3285 0.949 . S
H3262 C3266 0.949 . S
C3263 C3264 1.349 . S
C3263 C3265 1.327 . S
C3263 H3286 0.950 . S
C3264 C3263 1.349 . S
C3264 C3276 1.349 . S
C3265 C3263 1.327 . S
C3265 C3281 1.429 . S
C3265 H3287 0.950 . S
C3266 H3262 0.949 . S
C3266 C3274 1.574 . S
C3266 C3282 1.368 . S
H3267 C3275 0.950 . S
H3268 C3273 0.950 . S
H3269 C3274 0.949 . S
H3270 C3276 0.950 . S
H3271 C3277 0.950 . S
H3272 C3278 0.949 . S
C3273 H3268 0.950 . S
C3273 C3275 1.327 . S
C3273 C3279 1.429 . S
C3274 C3266 1.574 . S
C3274 H3269 0.949 . S
C3274 C3280 1.368 . S
C3275 C3259 1.349 . S
C3275 H3267 0.950 . S
C3275 C3273 1.327 . S
C3276 C3264 1.349 . S
C3276 H3270 0.950 . S
C3276 C3277 1.327 . S
C3277 H3271 0.950 . S
C3277 C3276 1.327 . S
C3277 C3281 1.429 . S
C3278 C3261 1.574 . S
C3278 H3272 0.949 . S
C3278 C3282 1.368 . S
C3279 C3260 1.429 . S
C3279 C3273 1.429 . S
C3279 C3280 1.523 . S
C3280 C3261 1.368 . S
C3280 C3274 1.368 . S
C3280 C3279 1.523 . S
C3281 C3265 1.429 . S
C3281 C3277 1.429 . S
C3281 C3282 1.523 . S
C3282 C3266 1.368 . S
C3282 C3278 1.368 . S
C3282 C3281 1.523 . S
H3283 C3258 0.950 . S
H3284 C3260 0.950 . S
H3285 C3261 0.949 . S
H3286 C3263 0.950 . S
H3287 C3265 0.950 . S
C3288 C3289 1.349 . S
C3288 C3290 1.327 . S
C3288 H3313 0.950 . S
C3289 C3288 1.349 . S
C3289 C3305 1.349 . S
C3290 C3288 1.327 . S
C3290 C3309 1.429 . S
C3290 H3314 0.950 . S
C3291 C3308 1.574 . S
C3291 C3310 1.368 . S
C3291 H3315 0.949 . S
H3292 C3296 0.949 . S
C3293 C3294 1.349 . S
C3293 C3295 1.327 . S
C3293 H3316 0.950 . S
C3294 C3293 1.349 . S
C3294 C3306 1.349 . S
C3295 C3293 1.327 . S
C3295 C3311 1.429 . S
C3295 H3317 0.950 . S
C3296 H3292 0.949 . S
C3296 C3304 1.574 . S
C3296 C3312 1.368 . S
H3297 C3305 0.950 . S
H3298 C3303 0.950 . S
H3299 C3304 0.949 . S
H3300 C3306 0.950 . S
H3301 C3307 0.950 . S
H3302 C3308 0.949 . S
C3303 H3298 0.950 . S
C3303 C3305 1.327 . S
C3303 C3309 1.429 . S
C3304 C3296 1.574 . S
C3304 H3299 0.949 . S
C3304 C3310 1.368 . S
C3305 C3289 1.349 . S
C3305 H3297 0.950 . S
C3305 C3303 1.327 . S
C3306 C3294 1.349 . S
C3306 H3300 0.950 . S
C3306 C3307 1.327 . S
C3307 H3301 0.950 . S
C3307 C3306 1.327 . S
C3307 C3311 1.429 . S
C3308 C3291 1.574 . S
C3308 H3302 0.949 . S
C3308 C3312 1.368 . S
C3309 C3290 1.429 . S
C3309 C3303 1.429 . S
C3309 C3310 1.523 . S
C3310 C3291 1.368 . S
C3310 C3304 1.368 . S
C3310 C3309 1.523 . S
C3311 C3295 1.429 . S
C3311 C3307 1.429 . S
C3311 C3312 1.523 . S
C3312 C3296 1.368 . S
C3312 C3308 1.368 . S
C3312 C3311 1.523 . S
H3313 C3288 0.950 . S
H3314 C3290 0.950 . S
H3315 C3291 0.949 . S
H3316 C3293 0.950 . S
H3317 C3295 0.950 . S
C3318 C3319 1.349 . S
C3318 C3320 1.327 . S
C3318 H3343 0.950 . S
C3319 C3318 1.349 . S
C3319 C3335 1.349 . S
C3320 C3318 1.327 . S
C3320 C3339 1.429 . S
C3320 H3344 0.950 . S
C3321 C3338 1.574 . S
C3321 C3340 1.368 . S
C3321 H3345 0.949 . S
H3322 C3326 0.949 . S
C3323 C3324 1.349 . S
C3323 C3325 1.327 . S
C3323 H3346 0.950 . S
C3324 C3323 1.349 . S
C3324 C3336 1.349 . S
C3325 C3323 1.327 . S
C3325 C3341 1.429 . S
C3325 H3347 0.950 . S
C3326 H3322 0.949 . S
C3326 C3334 1.574 . S
C3326 C3342 1.368 . S
H3327 C3335 0.950 . S
H3328 C3333 0.950 . S
H3329 C3334 0.949 . S
H3330 C3336 0.950 . S
H3331 C3337 0.950 . S
H3332 C3338 0.949 . S
C3333 H3328 0.950 . S
C3333 C3335 1.327 . S
C3333 C3339 1.429 . S
C3334 C3326 1.574 . S
C3334 H3329 0.949 . S
C3334 C3340 1.368 . S
C3335 C3319 1.349 . S
C3335 H3327 0.950 . S
C3335 C3333 1.327 . S
C3336 C3324 1.349 . S
C3336 H3330 0.950 . S
C3336 C3337 1.327 . S
C3337 H3331 0.950 . S
C3337 C3336 1.327 . S
C3337 C3341 1.429 . S
C3338 C3321 1.574 . S
C3338 H3332 0.949 . S
C3338 C3342 1.368 . S
C3339 C3320 1.429 . S
C3339 C3333 1.429 . S
C3339 C3340 1.523 . S
C3340 C3321 1.368 . S
C3340 C3334 1.368 . S
C3340 C3339 1.523 . S
C3341 C3325 1.429 . S
C3341 C3337 1.429 . S
C3341 C3342 1.523 . S
C3342 C3326 1.368 . S
C3342 C3338 1.368 . S
C3342 C3341 1.523 . S
H3343 C3318 0.950 . S
H3344 C3320 0.950 . S
H3345 C3321 0.949 . S
H3346 C3323 0.950 . S
H3347 C3325 0.950 . S
C3348 C3349 1.349 . S
C3348 C3350 1.327 . S
C3348 H3373 0.950 . S
C3349 C3348 1.349 . S
C3349 C3365 1.349 . S
C3350 C3348 1.327 . S
C3350 C3369 1.429 . S
C3350 H3374 0.950 . S
C3351 C3368 1.574 . S
C3351 C3370 1.368 . S
C3351 H3375 0.949 . S
H3352 C3356 0.949 . S
C3353 C3354 1.349 . S
C3353 C3355 1.327 . S
C3353 H3376 0.950 . S
C3354 C3353 1.349 . S
C3354 C3366 1.349 . S
C3355 C3353 1.327 . S
C3355 C3371 1.429 . S
C3355 H3377 0.950 . S
C3356 H3352 0.949 . S
C3356 C3364 1.574 . S
C3356 C3372 1.368 . S
H3357 C3365 0.950 . S
H3358 C3363 0.950 . S
H3359 C3364 0.949 . S
H3360 C3366 0.950 . S
H3361 C3367 0.950 . S
H3362 C3368 0.949 . S
C3363 H3358 0.950 . S
C3363 C3365 1.327 . S
C3363 C3369 1.429 . S
C3364 C3356 1.574 . S
C3364 H3359 0.949 . S
C3364 C3370 1.368 . S
C3365 C3349 1.349 . S
C3365 H3357 0.950 . S
C3365 C3363 1.327 . S
C3366 C3354 1.349 . S
C3366 H3360 0.950 . S
C3366 C3367 1.327 . S
C3367 H3361 0.950 . S
C3367 C3366 1.327 . S
C3367 C3371 1.429 . S
C3368 C3351 1.574 . S
C3368 H3362 0.949 . S
C3368 C3372 1.368 . S
C3369 C3350 1.429 . S
C3369 C3363 1.429 . S
C3369 C3370 1.523 . S
C3370 C3351 1.368 . S
C3370 C3364 1.368 . S
C3370 C3369 1.523 . S
C3371 C3355 1.429 . S
C3371 C3367 1.429 . S
C3371 C3372 1.523 . S
C3372 C3356 1.368 . S
C3372 C3368 1.368 . S
C3372 C3371 1.523 . S
H3373 C3348 0.950 . S
H3374 C3350 0.950 . S
H3375 C3351 0.949 . S
H3376 C3353 0.950 . S
H3377 C3355 0.950 . S
C3378 C3379 1.349 . S
C3378 C3380 1.327 . S
C3378 H3403 0.950 . S
C3379 C3378 1.349 . S
C3379 C3395 1.349 . S
C3380 C3378 1.327 . S
C3380 C3399 1.429 . S
C3380 H3404 0.950 . S
C3381 C3398 1.574 . S
C3381 C3400 1.368 . S
C3381 H3405 0.949 . S
H3382 C3386 0.949 . S
C3383 C3384 1.349 . S
C3383 C3385 1.327 . S
C3383 H3406 0.950 . S
C3384 C3383 1.349 . S
C3384 C3396 1.349 . S
C3385 C3383 1.327 . S
C3385 C3401 1.429 . S
C3385 H3407 0.950 . S
C3386 H3382 0.949 . S
C3386 C3394 1.574 . S
C3386 C3402 1.368 . S
H3387 C3395 0.950 . S
H3388 C3393 0.950 . S
H3389 C3394 0.949 . S
H3390 C3396 0.950 . S
H3391 C3397 0.950 . S
H3392 C3398 0.949 . S
C3393 H3388 0.950 . S
C3393 C3395 1.327 . S
C3393 C3399 1.429 . S
C3394 C3386 1.574 . S
C3394 H3389 0.949 . S
C3394 C3400 1.368 . S
C3395 C3379 1.349 . S
C3395 H3387 0.950 . S
C3395 C3393 1.327 . S
C3396 C3384 1.349 . S
C3396 H3390 0.950 . S
C3396 C3397 1.327 . S
C3397 H3391 0.950 . S
C3397 C3396 1.327 . S
C3397 C3401 1.429 . S
C3398 C3381 1.574 . S
C3398 H3392 0.949 . S
C3398 C3402 1.368 . S
C3399 C3380 1.429 . S
C3399 C3393 1.429 . S
C3399 C3400 1.523 . S
C3400 C3381 1.368 . S
C3400 C3394 1.368 . S
C3400 C3399 1.523 . S
C3401 C3385 1.429 . S
C3401 C3397 1.429 . S
C3401 C3402 1.523 . S
C3402 C3386 1.368 . S
C3402 C3398 1.368 . S
C3402 C3401 1.523 . S
H3403 C3378 0.950 . S
H3404 C3380 0.950 . S
H3405 C3381 0.949 . S
H3406 C3383 0.950 . S
H3407 C3385 0.950 . S
C3408 C3409 1.349 . S
C3408 C3410 1.327 . S
C3408 H3433 0.950 . S
C3409 C3408 1.349 . S
C3409 C3425 1.349 . S
C3410 C3408 1.327 . S
C3410 C3429 1.429 . S
C3410 H3434 0.950 . S
C3411 C3428 1.574 . S
C3411 C3430 1.368 . S
C3411 H3435 0.949 . S
H3412 C3416 0.949 . S
C3413 C3414 1.349 . S
C3413 C3415 1.327 . S
C3413 H3436 0.950 . S
C3414 C3413 1.349 . S
C3414 C3426 1.349 . S
C3415 C3413 1.327 . S
C3415 C3431 1.429 . S
C3415 H3437 0.950 . S
C3416 H3412 0.949 . S
C3416 C3424 1.574 . S
C3416 C3432 1.368 . S
H3417 C3425 0.950 . S
H3418 C3423 0.950 . S
H3419 C3424 0.949 . S
H3420 C3426 0.950 . S
H3421 C3427 0.950 . S
H3422 C3428 0.949 . S
C3423 H3418 0.950 . S
C3423 C3425 1.327 . S
C3423 C3429 1.429 . S
C3424 C3416 1.574 . S
C3424 H3419 0.949 . S
C3424 C3430 1.368 . S
C3425 C3409 1.349 . S
C3425 H3417 0.950 . S
C3425 C3423 1.327 . S
C3426 C3414 1.349 . S
C3426 H3420 0.950 . S
C3426 C3427 1.327 . S
C3427 H3421 0.950 . S
C3427 C3426 1.327 . S
C3427 C3431 1.429 . S
C3428 C3411 1.574 . S
C3428 H3422 0.949 . S
C3428 C3432 1.368 . S
C3429 C3410 1.429 . S
C3429 C3423 1.429 . S
C3429 C3430 1.523 . S
C3430 C3411 1.368 . S
C3430 C3424 1.368 . S
C3430 C3429 1.523 . S
C3431 C3415 1.429 . S
C3431 C3427 1.429 . S
C3431 C3432 1.523 . S
C3432 C3416 1.368 . S
C3432 C3428 1.368 . S
C3432 C3431 1.523 . S
H3433 C3408 0.950 . S
H3434 C3410 0.950 . S
H3435 C3411 0.949 . S
H3436 C3413 0.950 . S
H3437 C3415 0.950 . S
C3438 C3439 1.349 . S
C3438 C3440 1.327 . S
C3438 H3463 0.950 . S
C3439 C3438 1.349 . S
C3439 C3455 1.349 . S
C3440 C3438 1.327 . S
C3440 C3459 1.429 . S
C3440 H3464 0.950 . S
C3441 C3458 1.574 . S
C3441 C3460 1.368 . S
C3441 H3465 0.949 . S
H3442 C3446 0.949 . S
C3443 C3444 1.349 . S
C3443 C3445 1.327 . S
C3443 H3466 0.950 . S
C3444 C3443 1.349 . S
C3444 C3456 1.349 . S
C3445 C3443 1.327 . S
C3445 C3461 1.429 . S
C3445 H3467 0.950 . S
C3446 H3442 0.949 . S
C3446 C3454 1.574 . S
C3446 C3462 1.368 . S
H3447 C3455 0.950 . S
H3448 C3453 0.950 . S
H3449 C3454 0.949 . S
H3450 C3456 0.950 . S
H3451 C3457 0.950 . S
H3452 C3458 0.949 . S
C3453 H3448 0.950 . S
C3453 C3455 1.327 . S
C3453 C3459 1.429 . S
C3454 C3446 1.574 . S
C3454 H3449 0.949 . S
C3454 C3460 1.368 . S
C3455 C3439 1.349 . S
C3455 H3447 0.950 . S
C3455 C3453 1.327 . S
C3456 C3444 1.349 . S
C3456 H3450 0.950 . S
C3456 C3457 1.327 . S
C3457 H3451 0.950 . S
C3457 C3456 1.327 . S
C3457 C3461 1.429 . S
C3458 C3441 1.574 . S
C3458 H3452 0.949 . S
C3458 C3462 1.368 . S
C3459 C3440 1.429 . S
C3459 C3453 1.429 . S
C3459 C3460 1.523 . S
C3460 C3441 1.368 . S
C3460 C3454 1.368 . S
C3460 C3459 1.523 . S
C3461 C3445 1.429 . S
C3461 C3457 1.429 . S
C3461 C3462 1.523 . S
C3462 C3446 1.368 . S
C3462 C3458 1.368 . S
C3462 C3461 1.523 . S
H3463 C3438 0.950 . S
H3464 C3440 0.950 . S
H3465 C3441 0.949 . S
H3466 C3443 0.950 . S
H3467 C3445 0.950 . S
C3468 C3469 1.349 . S
C3468 C3470 1.327 . S
C3468 H3493 0.950 . S
C3469 C3468 1.349 . S
C3469 C3485 1.349 . S
C3470 C3468 1.327 . S
C3470 C3489 1.429 . S
C3470 H3494 0.950 . S
C3471 C3488 1.574 . S
C3471 C3490 1.368 . S
C3471 H3495 0.949 . S
H3472 C3476 0.949 . S
C3473 C3474 1.349 . S
C3473 C3475 1.327 . S
C3473 H3496 0.950 . S
C3474 C3473 1.349 . S
C3474 C3486 1.349 . S
C3475 C3473 1.327 . S
C3475 C3491 1.429 . S
C3475 H3497 0.950 . S
C3476 H3472 0.949 . S
C3476 C3484 1.574 . S
C3476 C3492 1.368 . S
H3477 C3485 0.950 . S
H3478 C3483 0.950 . S
H3479 C3484 0.949 . S
H3480 C3486 0.950 . S
H3481 C3487 0.950 . S
H3482 C3488 0.949 . S
C3483 H3478 0.950 . S
C3483 C3485 1.327 . S
C3483 C3489 1.429 . S
C3484 C3476 1.574 . S
C3484 H3479 0.949 . S
C3484 C3490 1.368 . S
C3485 C3469 1.349 . S
C3485 H3477 0.950 . S
C3485 C3483 1.327 . S
C3486 C3474 1.349 . S
C3486 H3480 0.950 . S
C3486 C3487 1.327 . S
C3487 H3481 0.950 . S
C3487 C3486 1.327 . S
C3487 C3491 1.429 . S
C3488 C3471 1.574 . S
C3488 H3482 0.949 . S
C3488 C3492 1.368 . S
C3489 C3470 1.429 . S
C3489 C3483 1.429 . S
C3489 C3490 1.523 . S
C3490 C3471 1.368 . S
C3490 C3484 1.368 . S
C3490 C3489 1.523 . S
C3491 C3475 1.429 . S
C3491 C3487 1.429 . S
C3491 C3492 1.523 . S
C3492 C3476 1.368 . S
C3492 C3488 1.368 . S
C3492 C3491 1.523 . S
H3493 C3468 0.950 . S
H3494 C3470 0.950 . S
H3495 C3471 0.949 . S
H3496 C3473 0.950 . S
H3497 C3475 0.950 . S
C3498 C3499 1.349 . S
C3498 C3500 1.327 . S
C3498 H3523 0.950 . S
C3499 C3498 1.349 . S
C3499 C3515 1.349 . S
C3500 C3498 1.327 . S
C3500 C3519 1.429 . S
C3500 H3524 0.950 . S
C3501 C3518 1.574 . S
C3501 C3520 1.368 . S
C3501 H3525 0.949 . S
H3502 C3506 0.949 . S
C3503 C3504 1.349 . S
C3503 C3505 1.327 . S
C3503 H3526 0.950 . S
C3504 C3503 1.349 . S
C3504 C3516 1.349 . S
C3505 C3503 1.327 . S
C3505 C3521 1.429 . S
C3505 H3527 0.950 . S
C3506 H3502 0.949 . S
C3506 C3514 1.574 . S
C3506 C3522 1.368 . S
H3507 C3515 0.950 . S
H3508 C3513 0.950 . S
H3509 C3514 0.949 . S
H3510 C3516 0.950 . S
H3511 C3517 0.950 . S
H3512 C3518 0.949 . S
C3513 H3508 0.950 . S
C3513 C3515 1.327 . S
C3513 C3519 1.429 . S
C3514 C3506 1.574 . S
C3514 H3509 0.949 . S
C3514 C3520 1.368 . S
C3515 C3499 1.349 . S
C3515 H3507 0.950 . S
C3515 C3513 1.327 . S
C3516 C3504 1.349 . S
C3516 H3510 0.950 . S
C3516 C3517 1.327 . S
C3517 H3511 0.950 . S
C3517 C3516 1.327 . S
C3517 C3521 1.429 . S
C3518 C3501 1.574 . S
C3518 H3512 0.949 . S
C3518 C3522 1.368 . S
C3519 C3500 1.429 . S
C3519 C3513 1.429 . S
C3519 C3520 1.523 . S
C3520 C3501 1.368 . S
C3520 C3514 1.368 . S
C3520 C3519 1.523 . S
C3521 C3505 1.429 . S
C3521 C3517 1.429 . S
C3521 C3522 1.523 . S
C3522 C3506 1.368 . S
C3522 C3518 1.368 . S
C3522 C3521 1.523 . S
H3523 C3498 0.950 . S
H3524 C3500 0.950 . S
H3525 C3501 0.949 . S
H3526 C3503 0.950 . S
H3527 C3505 0.950 . S
C3528 C3529 1.349 . S
C3528 C3530 1.327 . S
C3528 H3553 0.950 . S
C3529 C3528 1.349 . S
C3529 C3545 1.349 . S
C3530 C3528 1.327 . S
C3530 C3549 1.429 . S
C3530 H3554 0.950 . S
C3531 C3548 1.574 . S
C3531 C3550 1.368 . S
C3531 H3555 0.949 . S
H3532 C3536 0.949 . S
C3533 C3534 1.349 . S
C3533 C3535 1.327 . S
C3533 H3556 0.950 . S
C3534 C3533 1.349 . S
C3534 C3546 1.349 . S
C3535 C3533 1.327 . S
C3535 C3551 1.429 . S
C3535 H3557 0.950 . S
C3536 H3532 0.949 . S
C3536 C3544 1.574 . S
C3536 C3552 1.368 . S
H3537 C3545 0.950 . S
H3538 C3543 0.950 . S
H3539 C3544 0.949 . S
H3540 C3546 0.950 . S
H3541 C3547 0.950 . S
H3542 C3548 0.949 . S
C3543 H3538 0.950 . S
C3543 C3545 1.327 . S
C3543 C3549 1.429 . S
C3544 C3536 1.574 . S
C3544 H3539 0.949 . S
C3544 C3550 1.368 . S
C3545 C3529 1.349 . S
C3545 H3537 0.950 . S
C3545 C3543 1.327 . S
C3546 C3534 1.349 . S
C3546 H3540 0.950 . S
C3546 C3547 1.327 . S
C3547 H3541 0.950 . S
C3547 C3546 1.327 . S
C3547 C3551 1.429 . S
C3548 C3531 1.574 . S
C3548 H3542 0.949 . S
C3548 C3552 1.368 . S
C3549 C3530 1.429 . S
C3549 C3543 1.429 . S
C3549 C3550 1.523 . S
C3550 C3531 1.368 . S
C3550 C3544 1.368 . S
C3550 C3549 1.523 . S
C3551 C3535 1.429 . S
C3551 C3547 1.429 . S
C3551 C3552 1.523 . S
C3552 C3536 1.368 . S
C3552 C3548 1.368 . S
C3552 C3551 1.523 . S
H3553 C3528 0.950 . S
H3554 C3530 0.950 . S
H3555 C3531 0.949 . S
H3556 C3533 0.950 . S
H3557 C3535 0.950 . S
C3558 C3559 1.349 . S
C3558 C3560 1.327 . S
C3558 H3583 0.950 . S
C3559 C3558 1.349 . S
C3559 C3575 1.349 . S
C3560 C3558 1.327 . S
C3560 C3579 1.429 . S
C3560 H3584 0.950 . S
C3561 C3578 1.574 . S
C3561 C3580 1.368 . S
C3561 H3585 0.949 . S
H3562 C3566 0.949 . S
C3563 C3564 1.349 . S
C3563 C3565 1.327 . S
C3563 H3586 0.950 . S
C3564 C3563 1.349 . S
C3564 C3576 1.349 . S
C3565 C3563 1.327 . S
C3565 C3581 1.429 . S
C3565 H3587 0.950 . S
C3566 H3562 0.949 . S
C3566 C3574 1.574 . S
C3566 C3582 1.368 . S
H3567 C3575 0.950 . S
H3568 C3573 0.950 . S
H3569 C3574 0.949 . S
H3570 C3576 0.950 . S
H3571 C3577 0.950 . S
H3572 C3578 0.949 . S
C3573 H3568 0.950 . S
C3573 C3575 1.327 . S
C3573 C3579 1.429 . S
C3574 C3566 1.574 . S
C3574 H3569 0.949 . S
C3574 C3580 1.368 . S
C3575 C3559 1.349 . S
C3575 H3567 0.950 . S
C3575 C3573 1.327 . S
C3576 C3564 1.349 . S
C3576 H3570 0.950 . S
C3576 C3577 1.327 . S
C3577 H3571 0.950 . S
C3577 C3576 1.327 . S
C3577 C3581 1.429 . S
C3578 C3561 1.574 . S
C3578 H3572 0.949 . S
C3578 C3582 1.368 . S
C3579 C3560 1.429 . S
C3579 C3573 1.429 . S
C3579 C3580 1.523 . S
C3580 C3561 1.368 . S
C3580 C3574 1.368 . S
C3580 C3579 1.523 . S
C3581 C3565 1.429 . S
C3581 C3577 1.429 . S
C3581 C3582 1.523 . S
C3582 C3566 1.368 . S
C3582 C3578 1.368 . S
C3582 C3581 1.523 . S
H3583 C3558 0.950 . S
H3584 C3560 0.950 . S
H3585 C3561 0.949 . S
H3586 C3563 0.950 . S
H3587 C3565 0.950 . S
C3588 C3589 1.349 . S
C3588 C3590 1.327 . S
C3588 H3613 0.950 . S
C3589 C3588 1.349 . S
C3589 C3605 1.349 . S
C3590 C3588 1.327 . S
C3590 C3609 1.429 . S
C3590 H3614 0.950 . S
C3591 C3608 1.574 . S
C3591 C3610 1.368 . S
C3591 H3615 0.949 . S
H3592 C3596 0.949 . S
C3593 C3594 1.349 . S
C3593 C3595 1.327 . S
C3593 H3616 0.950 . S
C3594 C3593 1.349 . S
C3594 C3606 1.349 . S
C3595 C3593 1.327 . S
C3595 C3611 1.429 . S
C3595 H3617 0.950 . S
C3596 H3592 0.949 . S
C3596 C3604 1.574 . S
C3596 C3612 1.368 . S
H3597 C3605 0.950 . S
H3598 C3603 0.950 . S
H3599 C3604 0.949 . S
H3600 C3606 0.950 . S
H3601 C3607 0.950 . S
H3602 C3608 0.949 . S
C3603 H3598 0.950 . S
C3603 C3605 1.327 . S
C3603 C3609 1.429 . S
C3604 C3596 1.574 . S
C3604 H3599 0.949 . S
C3604 C3610 1.368 . S
C3605 C3589 1.349 . S
C3605 H3597 0.950 . S
C3605 C3603 1.327 . S
C3606 C3594 1.349 . S
C3606 H3600 0.950 . S
C3606 C3607 1.327 . S
C3607 H3601 0.950 . S
C3607 C3606 1.327 . S
C3607 C3611 1.429 . S
C3608 C3591 1.574 . S
C3608 H3602 0.949 . S
C3608 C3612 1.368 . S
C3609 C3590 1.429 . S
C3609 C3603 1.429 . S
C3609 C3610 1.523 . S
C3610 C3591 1.368 . S
C3610 C3604 1.368 . S
C3610 C3609 1.523 . S
C3611 C3595 1.429 . S
C3611 C3607 1.429 . S
C3611 C3612 1.523 . S
C3612 C3596 1.368 . S
C3612 C3608 1.368 . S
C3612 C3611 1.523 . S
H3613 C3588 0.950 . S
H3614 C3590 0.950 . S
H3615 C3591 0.949 . S
H3616 C3593 0.950 . S
H3617 C3595 0.950 . S
C3618 C3619 1.349 . S
C3618 C3620 1.327 . S
C3618 H3643 0.950 . S
C3619 C3618 1.349 . S
C3619 C3635 1.349 . S
C3620 C3618 1.327 . S
C3620 C3639 1.429 . S
C3620 H3644 0.950 . S
C3621 C3638 1.574 . S
C3621 C3640 1.368 . S
C3621 H3645 0.949 . S
H3622 C3626 0.949 . S
C3623 C3624 1.349 . S
C3623 C3625 1.327 . S
C3623 H3646 0.950 . S
C3624 C3623 1.349 . S
C3624 C3636 1.349 . S
C3625 C3623 1.327 . S
C3625 C3641 1.429 . S
C3625 H3647 0.950 . S
C3626 H3622 0.949 . S
C3626 C3634 1.574 . S
C3626 C3642 1.368 . S
H3627 C3635 0.950 . S
H3628 C3633 0.950 . S
H3629 C3634 0.949 . S
H3630 C3636 0.950 . S
H3631 C3637 0.950 . S
H3632 C3638 0.949 . S
C3633 H3628 0.950 . S
C3633 C3635 1.327 . S
C3633 C3639 1.429 . S
C3634 C3626 1.574 . S
C3634 H3629 0.949 . S
C3634 C3640 1.368 . S
C3635 C3619 1.349 . S
C3635 H3627 0.950 . S
C3635 C3633 1.327 . S
C3636 C3624 1.349 . S
C3636 H3630 0.950 . S
C3636 C3637 1.327 . S
C3637 H3631 0.950 . S
C3637 C3636 1.327 . S
C3637 C3641 1.429 . S
C3638 C3621 1.574 . S
C3638 H3632 0.949 . S
C3638 C3642 1.368 . S
C3639 C3620 1.429 . S
C3639 C3633 1.429 . S
C3639 C3640 1.523 . S
C3640 C3621 1.368 . S
C3640 C3634 1.368 . S
C3640 C3639 1.523 . S
C3641 C3625 1.429 . S
C3641 C3637 1.429 . S
C3641 C3642 1.523 . S
C3642 C3626 1.368 . S
C3642 C3638 1.368 . S
C3642 C3641 1.523 . S
H3643 C3618 0.950 . S
H3644 C3620 0.950 . S
H3645 C3621 0.949 . S
H3646 C3623 0.950 . S
H3647 C3625 0.950 . S
C3648 C3649 1.349 . S
C3648 C3650 1.327 . S
C3648 H3673 0.950 . S
C3649 C3648 1.349 . S
C3649 C3665 1.349 . S
C3650 C3648 1.327 . S
C3650 C3669 1.429 . S
C3650 H3674 0.950 . S
C3651 C3668 1.574 1_455 S
C3651 C3670 1.368 . S
C3651 H3675 0.949 . S
H3652 C3656 0.949 . S
C3653 C3654 1.349 . S
C3653 C3655 1.327 . S
C3653 H3676 0.950 . S
C3654 C3653 1.349 . S
C3654 C3666 1.349 . S
C3655 C3653 1.327 . S
C3655 C3671 1.429 . S
C3655 H3677 0.950 . S
C3656 H3652 0.949 . S
C3656 C3664 1.574 1_655 S
C3656 C3672 1.368 . S
H3657 C3665 0.950 . S
H3658 C3663 0.950 . S
H3659 C3664 0.949 . S
H3660 C3666 0.950 . S
H3661 C3667 0.950 . S
H3662 C3668 0.949 . S
C3663 H3658 0.950 . S
C3663 C3665 1.327 . S
C3663 C3669 1.429 . S
C3664 C3656 1.574 1_455 S
C3664 H3659 0.949 . S
C3664 C3670 1.368 . S
C3665 C3649 1.349 . S
C3665 H3657 0.950 . S
C3665 C3663 1.327 . S
C3666 C3654 1.349 . S
C3666 H3660 0.950 . S
C3666 C3667 1.327 . S
C3667 H3661 0.950 . S
C3667 C3666 1.327 . S
C3667 C3671 1.429 . S
C3668 C3651 1.574 1_655 S
C3668 H3662 0.949 . S
C3668 C3672 1.368 . S
C3669 C3650 1.429 . S
C3669 C3663 1.429 . S
C3669 C3670 1.523 . S
C3670 C3651 1.368 . S
C3670 C3664 1.368 . S
C3670 C3669 1.523 . S
C3671 C3655 1.429 . S
C3671 C3667 1.429 . S
C3671 C3672 1.523 . S
C3672 C3656 1.368 . S
C3672 C3668 1.368 . S
C3672 C3671 1.523 . S
H3673 C3648 0.950 . S
H3674 C3650 0.950 . S
H3675 C3651 0.949 . S
H3676 C3653 0.950 . S
H3677 C3655 0.950 . S
C3678 C3679 1.349 . S
C3678 C3680 1.327 . S
C3678 H3703 0.950 . S
C3679 C3678 1.349 . S
C3679 C3695 1.349 . S
C3680 C3678 1.327 . S
C3680 C3699 1.429 . S
C3680 H3704 0.950 . S
C3681 C3698 1.574 . S
C3681 C3700 1.368 1_455 S
C3681 H3705 0.949 . S
H3682 C3686 0.949 . S
C3683 C3684 1.349 . S
C3683 C3685 1.327 . S
C3683 H3706 0.950 . S
C3684 C3683 1.349 . S
C3684 C3696 1.349 . S
C3685 C3683 1.327 . S
C3685 C3701 1.429 . S
C3685 H3707 0.950 . S
C3686 H3682 0.949 . S
C3686 C3694 1.574 . S
C3686 C3702 1.368 1_655 S
H3687 C3695 0.950 1_455 S
H3688 C3693 0.936 1_455 S
H3689 C3694 0.949 . S
H3690 C3696 0.950 1_655 S
H3691 C3697 0.936 1_655 S
H3692 C3698 0.949 . S
C3693 H3688 0.936 1_655 S
C3693 C3695 1.332 . S
C3693 C3699 1.438 . S
C3694 C3686 1.574 . S
C3694 H3689 0.949 . S
C3694 C3700 1.368 . S
C3695 C3679 1.349 . S
C3695 H3687 0.950 1_655 S
C3695 C3693 1.332 . S
C3696 C3684 1.349 . S
C3696 H3690 0.950 1_455 S
C3696 C3697 1.332 . S
C3697 H3691 0.936 1_455 S
C3697 C3696 1.332 . S
C3697 C3701 1.438 . S
C3698 C3681 1.574 . S
C3698 H3692 0.949 . S
C3698 C3702 1.368 . S
C3699 C3680 1.429 . S
C3699 C3693 1.438 . S
C3699 C3700 1.523 . S
C3700 C3681 1.368 1_655 S
C3700 C3694 1.368 . S
C3700 C3699 1.523 . S
C3701 C3685 1.429 . S
C3701 C3697 1.438 . S
C3701 C3702 1.523 . S
C3702 C3686 1.368 1_455 S
C3702 C3698 1.368 . S
C3702 C3701 1.523 . S
H3703 C3678 0.950 . S
H3704 C3680 0.950 . S
H3705 C3681 0.949 . S
H3706 C3683 0.950 . S
H3707 C3685 0.950 . S
C3708 C3709 1.349 . S
C3708 C3710 1.327 . S
C3708 H3733 0.950 . S
C3709 C3708 1.349 . S
C3709 C3725 1.349 . S
C3710 C3708 1.327 . S
C3710 C3729 1.429 . S
C3710 H3734 0.950 . S
C3711 C3728 1.574 . S
C3711 C3730 1.368 . S
C3711 H3735 0.949 . S
H3712 C3716 0.949 . S
C3713 C3714 1.349 . S
C3713 C3715 1.327 . S
C3713 H3736 0.950 . S
C3714 C3713 1.349 . S
C3714 C3726 1.349 . S
C3715 C3713 1.327 . S
C3715 C3731 1.429 . S
C3715 H3737 0.950 . S
C3716 H3712 0.949 . S
C3716 C3724 1.574 . S
C3716 C3732 1.368 . S
H3717 C3725 0.950 . S
H3718 C3723 0.950 . S
H3719 C3724 0.949 . S
H3720 C3726 0.950 . S
H3721 C3727 0.950 . S
H3722 C3728 0.949 . S
C3723 H3718 0.950 . S
C3723 C3725 1.327 . S
C3723 C3729 1.429 . S
C3724 C3716 1.574 . S
C3724 H3719 0.949 . S
C3724 C3730 1.368 . S
C3725 C3709 1.349 . S
C3725 H3717 0.950 . S
C3725 C3723 1.327 . S
C3726 C3714 1.349 . S
C3726 H3720 0.950 . S
C3726 C3727 1.327 . S
C3727 H3721 0.950 . S
C3727 C3726 1.327 . S
C3727 C3731 1.429 . S
C3728 C3711 1.574 . S
C3728 H3722 0.949 . S
C3728 C3732 1.368 . S
C3729 C3710 1.429 . S
C3729 C3723 1.429 . S
C3729 C3730 1.523 . S
C3730 C3711 1.368 . S
C3730 C3724 1.368 . S
C3730 C3729 1.523 . S
C3731 C3715 1.429 . S
C3731 C3727 1.429 . S
C3731 C3732 1.523 . S
C3732 C3716 1.368 . S
C3732 C3728 1.368 . S
C3732 C3731 1.523 . S
H3733 C3708 0.950 . S
H3734 C3710 0.950 . S
H3735 C3711 0.949 . S
H3736 C3713 0.950 . S
H3737 C3715 0.950 . S
C3738 C3739 1.349 . S
C3738 C3740 1.327 . S
C3738 H3763 0.950 . S
C3739 C3738 1.349 . S
C3739 C3755 1.349 . S
C3740 C3738 1.327 . S
C3740 C3759 1.429 . S
C3740 H3764 0.950 . S
C3741 C3758 1.574 . S
C3741 C3760 1.368 . S
C3741 H3765 0.949 . S
H3742 C3746 0.949 . S
C3743 C3744 1.349 . S
C3743 C3745 1.327 . S
C3743 H3766 0.950 . S
C3744 C3743 1.349 . S
C3744 C3756 1.349 . S
C3745 C3743 1.327 . S
C3745 C3761 1.429 . S
C3745 H3767 0.950 . S
C3746 H3742 0.949 . S
C3746 C3754 1.574 . S
C3746 C3762 1.368 . S
H3747 C3755 0.950 . S
H3748 C3753 0.950 . S
H3749 C3754 0.949 . S
H3750 C3756 0.950 . S
H3751 C3757 0.950 . S
H3752 C3758 0.949 . S
C3753 H3748 0.950 . S
C3753 C3755 1.327 . S
C3753 C3759 1.429 . S
C3754 C3746 1.574 . S
C3754 H3749 0.949 . S
C3754 C3760 1.368 . S
C3755 C3739 1.349 . S
C3755 H3747 0.950 . S
C3755 C3753 1.327 . S
C3756 C3744 1.349 . S
C3756 H3750 0.950 . S
C3756 C3757 1.327 . S
C3757 H3751 0.950 . S
C3757 C3756 1.327 . S
C3757 C3761 1.429 . S
C3758 C3741 1.574 . S
C3758 H3752 0.949 . S
C3758 C3762 1.368 . S
C3759 C3740 1.429 . S
C3759 C3753 1.429 . S
C3759 C3760 1.523 . S
C3760 C3741 1.368 . S
C3760 C3754 1.368 . S
C3760 C3759 1.523 . S
C3761 C3745 1.429 . S
C3761 C3757 1.429 . S
C3761 C3762 1.523 . S
C3762 C3746 1.368 . S
C3762 C3758 1.368 . S
C3762 C3761 1.523 . S
H3763 C3738 0.950 . S
H3764 C3740 0.950 . S
H3765 C3741 0.949 . S
H3766 C3743 0.950 . S
H3767 C3745 0.950 . S
C3768 C3769 1.349 . S
C3768 C3770 1.327 . S
C3768 H3793 0.950 . S
C3769 C3768 1.349 . S
C3769 C3785 1.349 . S
C3770 C3768 1.327 . S
C3770 C3789 1.429 . S
C3770 H3794 0.950 . S
C3771 C3788 1.574 1_655 S
C3771 C3790 1.368 . S
C3771 H3795 0.949 . S
H3772 C3776 0.949 . S
C3773 C3774 1.349 . S
C3773 C3775 1.327 . S
C3773 H3796 0.950 . S
C3774 C3773 1.349 . S
C3774 C3786 1.349 . S
C3775 C3773 1.327 . S
C3775 C3791 1.429 . S
C3775 H3797 0.950 . S
C3776 H3772 0.949 . S
C3776 C3784 1.574 1_455 S
C3776 C3792 1.368 . S
H3777 C3785 0.950 . S
H3778 C3783 0.950 . S
H3779 C3784 0.949 . S
H3780 C3786 0.950 . S
H3781 C3787 0.950 . S
H3782 C3788 0.949 . S
C3783 H3778 0.950 . S
C3783 C3785 1.327 . S
C3783 C3789 1.429 . S
C3784 C3776 1.574 1_655 S
C3784 H3779 0.949 . S
C3784 C3790 1.368 . S
C3785 C3769 1.349 . S
C3785 H3777 0.950 . S
C3785 C3783 1.327 . S
C3786 C3774 1.349 . S
C3786 H3780 0.950 . S
C3786 C3787 1.327 . S
C3787 H3781 0.950 . S
C3787 C3786 1.327 . S
C3787 C3791 1.429 . S
C3788 C3771 1.574 1_455 S
C3788 H3782 0.949 . S
C3788 C3792 1.368 . S
C3789 C3770 1.429 . S
C3789 C3783 1.429 . S
C3789 C3790 1.523 . S
C3790 C3771 1.368 . S
C3790 C3784 1.368 . S
C3790 C3789 1.523 . S
C3791 C3775 1.429 . S
C3791 C3787 1.429 . S
C3791 C3792 1.523 . S
C3792 C3776 1.368 . S
C3792 C3788 1.368 . S
C3792 C3791 1.523 . S
H3793 C3768 0.950 . S
H3794 C3770 0.950 . S
H3795 C3771 0.949 . S
H3796 C3773 0.950 . S
H3797 C3775 0.950 . S
C3798 C3799 1.349 . S
C3798 C3800 1.327 . S
C3798 H3823 0.950 . S
C3799 C3798 1.349 . S
C3799 C3815 1.349 . S
C3800 C3798 1.327 . S
C3800 C3819 1.429 . S
C3800 H3824 0.950 . S
C3801 C3818 1.574 . S
C3801 C3820 1.368 . S
C3801 H3825 0.949 . S
H3802 C3806 0.949 . S
C3803 C3804 1.349 . S
C3803 C3805 1.327 . S
C3803 H3826 0.950 . S
C3804 C3803 1.349 . S
C3804 C3816 1.349 . S
C3805 C3803 1.327 . S
C3805 C3821 1.429 . S
C3805 H3827 0.950 . S
C3806 H3802 0.949 . S
C3806 C3814 1.574 . S
C3806 C3822 1.368 . S
H3807 C3815 0.950 . S
H3808 C3813 0.950 . S
H3809 C3814 0.949 . S
H3810 C3816 0.950 . S
H3811 C3817 0.950 . S
H3812 C3818 0.949 . S
C3813 H3808 0.950 . S
C3813 C3815 1.327 . S
C3813 C3819 1.429 . S
C3814 C3806 1.574 . S
C3814 H3809 0.949 . S
C3814 C3820 1.368 . S
C3815 C3799 1.349 . S
C3815 H3807 0.950 . S
C3815 C3813 1.327 . S
C3816 C3804 1.349 . S
C3816 H3810 0.950 . S
C3816 C3817 1.327 . S
C3817 H3811 0.950 . S
C3817 C3816 1.327 . S
C3817 C3821 1.429 . S
C3818 C3801 1.574 . S
C3818 H3812 0.949 . S
C3818 C3822 1.368 . S
C3819 C3800 1.429 . S
C3819 C3813 1.429 . S
C3819 C3820 1.523 . S
C3820 C3801 1.368 . S
C3820 C3814 1.368 . S
C3820 C3819 1.523 . S
C3821 C3805 1.429 . S
C3821 C3817 1.429 . S
C3821 C3822 1.523 . S
C3822 C3806 1.368 . S
C3822 C3818 1.368 . S
C3822 C3821 1.523 . S
H3823 C3798 0.950 . S
H3824 C3800 0.950 . S
H3825 C3801 0.949 . S
H3826 C3803 0.950 . S
H3827 C3805 0.950 . S
C3828 C3829 1.349 . S
C3828 C3830 1.327 . S
C3828 H3853 0.950 . S
C3829 C3828 1.349 . S
C3829 C3845 1.349 . S
C3830 C3828 1.327 . S
C3830 C3849 1.429 . S
C3830 H3854 0.950 . S
C3831 C3848 1.574 . S
C3831 C3850 1.368 . S
C3831 H3855 0.949 . S
H3832 C3836 0.949 . S
C3833 C3834 1.349 . S
C3833 C3835 1.327 . S
C3833 H3856 0.950 . S
C3834 C3833 1.349 . S
C3834 C3846 1.349 . S
C3835 C3833 1.327 . S
C3835 C3851 1.429 . S
C3835 H3857 0.950 . S
C3836 H3832 0.949 . S
C3836 C3844 1.574 . S
C3836 C3852 1.368 . S
H3837 C3845 0.950 . S
H3838 C3843 0.950 . S
H3839 C3844 0.949 . S
H3840 C3846 0.950 . S
H3841 C3847 0.950 . S
H3842 C3848 0.949 . S
C3843 H3838 0.950 . S
C3843 C3845 1.327 . S
C3843 C3849 1.429 . S
C3844 C3836 1.574 . S
C3844 H3839 0.949 . S
C3844 C3850 1.368 . S
C3845 C3829 1.349 . S
C3845 H3837 0.950 . S
C3845 C3843 1.327 . S
C3846 C3834 1.349 . S
C3846 H3840 0.950 . S
C3846 C3847 1.327 . S
C3847 H3841 0.950 . S
C3847 C3846 1.327 . S
C3847 C3851 1.429 . S
C3848 C3831 1.574 . S
C3848 H3842 0.949 . S
C3848 C3852 1.368 . S
C3849 C3830 1.429 . S
C3849 C3843 1.429 . S
C3849 C3850 1.523 . S
C3850 C3831 1.368 . S
C3850 C3844 1.368 . S
C3850 C3849 1.523 . S
C3851 C3835 1.429 . S
C3851 C3847 1.429 . S
C3851 C3852 1.523 . S
C3852 C3836 1.368 . S
C3852 C3848 1.368 . S
C3852 C3851 1.523 . S
H3853 C3828 0.950 . S
H3854 C3830 0.950 . S
H3855 C3831 0.949 . S
H3856 C3833 0.950 . S
H3857 C3835 0.950 . S
C3858 C3859 1.349 . S
C3858 C3860 1.327 . S
C3858 H3883 0.950 . S
C3859 C3858 1.349 . S
C3859 C3875 1.349 . S
C3860 C3858 1.327 . S
C3860 C3879 1.429 . S
C3860 H3884 0.950 . S
C3861 C3878 1.574 . S
C3861 C3880 1.368 1_655 S
C3861 H3885 0.949 . S
H3862 C3866 0.949 . S
C3863 C3864 1.349 . S
C3863 C3865 1.327 . S
C3863 H3886 0.950 . S
C3864 C3863 1.349 . S
C3864 C3876 1.349 . S
C3865 C3863 1.327 . S
C3865 C3881 1.429 . S
C3865 H3887 0.950 . S
C3866 H3862 0.949 . S
C3866 C3874 1.574 . S
C3866 C3882 1.368 1_455 S
H3867 C3875 0.950 1_655 S
H3868 C3873 0.936 1_655 S
H3869 C3874 0.949 . S
H3870 C3876 0.950 1_455 S
H3871 C3877 0.936 1_455 S
H3872 C3878 0.949 . S
C3873 H3868 0.936 1_455 S
C3873 C3875 1.332 . S
C3873 C3879 1.438 . S
C3874 C3866 1.574 . S
C3874 H3869 0.949 . S
C3874 C3880 1.368 . S
C3875 C3859 1.349 . S
C3875 H3867 0.950 1_455 S
C3875 C3873 1.332 . S
C3876 C3864 1.349 . S
C3876 H3870 0.950 1_655 S
C3876 C3877 1.332 . S
C3877 H3871 0.936 1_655 S
C3877 C3876 1.332 . S
C3877 C3881 1.438 . S
C3878 C3861 1.574 . S
C3878 H3872 0.949 . S
C3878 C3882 1.368 . S
C3879 C3860 1.429 . S
C3879 C3873 1.438 . S
C3879 C3880 1.523 . S
C3880 C3861 1.368 1_455 S
C3880 C3874 1.368 . S
C3880 C3879 1.523 . S
C3881 C3865 1.429 . S
C3881 C3877 1.438 . S
C3881 C3882 1.523 . S
C3882 C3866 1.368 1_655 S
C3882 C3878 1.368 . S
C3882 C3881 1.523 . S
H3883 C3858 0.950 . S
H3884 C3860 0.950 . S
H3885 C3861 0.949 . S
H3886 C3863 0.950 . S
H3887 C3865 0.950 . S
C3888 C3889 1.349 . S
C3888 C3890 1.327 . S
C3888 H3913 0.950 . S
C3889 C3888 1.349 . S
C3889 C3905 1.349 . S
C3890 C3888 1.327 . S
C3890 C3909 1.429 . S
C3890 H3914 0.950 . S
C3891 C3908 1.574 1_455 S
C3891 C3910 1.368 . S
C3891 H3915 0.949 . S
H3892 C3896 0.949 . S
C3893 C3894 1.349 . S
C3893 C3895 1.327 . S
C3893 H3916 0.950 . S
C3894 C3893 1.349 . S
C3894 C3906 1.349 . S
C3895 C3893 1.327 . S
C3895 C3911 1.429 . S
C3895 H3917 0.950 . S
C3896 H3892 0.949 . S
C3896 C3904 1.574 1_655 S
C3896 C3912 1.368 . S
H3897 C3905 0.950 . S
H3898 C3903 0.950 . S
H3899 C3904 0.949 . S
H3900 C3906 0.950 . S
H3901 C3907 0.950 . S
H3902 C3908 0.949 . S
C3903 H3898 0.950 . S
C3903 C3905 1.327 . S
C3903 C3909 1.429 . S
C3904 C3896 1.574 1_455 S
C3904 H3899 0.949 . S
C3904 C3910 1.368 . S
C3905 C3889 1.349 . S
C3905 H3897 0.950 . S
C3905 C3903 1.327 . S
C3906 C3894 1.349 . S
C3906 H3900 0.950 . S
C3906 C3907 1.327 . S
C3907 H3901 0.950 . S
C3907 C3906 1.327 . S
C3907 C3911 1.429 . S
C3908 C3891 1.574 1_655 S
C3908 H3902 0.949 . S
C3908 C3912 1.368 . S
C3909 C3890 1.429 . S
C3909 C3903 1.429 . S
C3909 C3910 1.523 . S
C3910 C3891 1.368 . S
C3910 C3904 1.368 . S
C3910 C3909 1.523 . S
C3911 C3895 1.429 . S
C3911 C3907 1.429 . S
C3911 C3912 1.523 . S
C3912 C3896 1.368 . S
C3912 C3908 1.368 . S
C3912 C3911 1.523 . S
H3913 C3888 0.950 . S
H3914 C3890 0.950 . S
H3915 C3891 0.949 . S
H3916 C3893 0.950 . S
H3917 C3895 0.950 . S
C3918 C3919 1.349 . S
C3918 C3920 1.332 . S
C3918 H3943 0.950 1_655 S
C3919 C3918 1.349 . S
C3919 C3935 1.349 . S
C3920 C3918 1.332 . S
C3920 C3939 1.438 . S
C3920 H3944 0.936 1_655 S
C3921 C3938 1.574 . S
C3921 C3940 1.368 . S
C3921 H3945 0.949 . S
H3922 C3926 0.949 . S
C3923 C3924 1.349 . S
C3923 C3925 1.332 . S
C3923 H3946 0.950 1_455 S
C3924 C3923 1.349 . S
C3924 C3936 1.349 . S
C3925 C3923 1.332 . S
C3925 C3941 1.438 . S
C3925 H3947 0.936 1_455 S
C3926 H3922 0.949 . S
C3926 C3934 1.574 . S
C3926 C3942 1.368 . S
H3927 C3935 0.950 . S
H3928 C3933 0.950 . S
H3929 C3934 0.949 . S
H3930 C3936 0.950 . S
H3931 C3937 0.950 . S
H3932 C3938 0.949 . S
C3933 H3928 0.950 . S
C3933 C3935 1.327 . S
C3933 C3939 1.429 . S
C3934 C3926 1.574 . S
C3934 H3929 0.949 . S
C3934 C3940 1.368 1_455 S
C3935 C3919 1.349 . S
C3935 H3927 0.950 . S
C3935 C3933 1.327 . S
C3936 C3924 1.349 . S
C3936 H3930 0.950 . S
C3936 C3937 1.327 . S
C3937 H3931 0.950 . S
C3937 C3936 1.327 . S
C3937 C3941 1.429 . S
C3938 C3921 1.574 . S
C3938 H3932 0.949 . S
C3938 C3942 1.368 1_655 S
C3939 C3920 1.438 . S
C3939 C3933 1.429 . S
C3939 C3940 1.523 . S
C3940 C3921 1.368 . S
C3940 C3934 1.368 1_655 S
C3940 C3939 1.523 . S
C3941 C3925 1.438 . S
C3941 C3937 1.429 . S
C3941 C3942 1.523 . S
C3942 C3926 1.368 . S
C3942 C3938 1.368 1_455 S
C3942 C3941 1.523 . S
H3943 C3918 0.950 1_455 S
H3944 C3920 0.936 1_455 S
H3945 C3921 0.949 . S
H3946 C3923 0.950 1_655 S
H3947 C3925 0.936 1_655 S
C3948 C3949 1.349 . S
C3948 C3950 1.327 . S
C3948 H3973 0.950 . S
C3949 C3948 1.349 . S
C3949 C3965 1.349 . S
C3950 C3948 1.327 . S
C3950 C3969 1.429 . S
C3950 H3974 0.950 . S
C3951 C3968 1.574 . S
C3951 C3970 1.368 . S
C3951 H3975 0.949 . S
H3952 C3956 0.949 . S
C3953 C3954 1.349 . S
C3953 C3955 1.327 . S
C3953 H3976 0.950 . S
C3954 C3953 1.349 . S
C3954 C3966 1.349 . S
C3955 C3953 1.327 . S
C3955 C3971 1.429 . S
C3955 H3977 0.950 . S
C3956 H3952 0.949 . S
C3956 C3964 1.574 . S
C3956 C3972 1.368 . S
H3957 C3965 0.950 . S
H3958 C3963 0.950 . S
H3959 C3964 0.949 . S
H3960 C3966 0.950 . S
H3961 C3967 0.950 . S
H3962 C3968 0.949 . S
C3963 H3958 0.950 . S
C3963 C3965 1.327 . S
C3963 C3969 1.429 . S
C3964 C3956 1.574 . S
C3964 H3959 0.949 . S
C3964 C3970 1.368 . S
C3965 C3949 1.349 . S
C3965 H3957 0.950 . S
C3965 C3963 1.327 . S
C3966 C3954 1.349 . S
C3966 H3960 0.950 . S
C3966 C3967 1.327 . S
C3967 H3961 0.950 . S
C3967 C3966 1.327 . S
C3967 C3971 1.429 . S
C3968 C3951 1.574 . S
C3968 H3962 0.949 . S
C3968 C3972 1.368 . S
C3969 C3950 1.429 . S
C3969 C3963 1.429 . S
C3969 C3970 1.523 . S
C3970 C3951 1.368 . S
C3970 C3964 1.368 . S
C3970 C3969 1.523 . S
C3971 C3955 1.429 . S
C3971 C3967 1.429 . S
C3971 C3972 1.523 . S
C3972 C3956 1.368 . S
C3972 C3968 1.368 . S
C3972 C3971 1.523 . S
H3973 C3948 0.950 . S
H3974 C3950 0.950 . S
H3975 C3951 0.949 . S
H3976 C3953 0.950 . S
H3977 C3955 0.950 . S
C3978 C3979 1.349 . S
C3978 C3980 1.327 . S
C3978 H4003 0.950 . S
C3979 C3978 1.349 . S
C3979 C3995 1.349 . S
C3980 C3978 1.327 . S
C3980 C3999 1.429 . S
C3980 H4004 0.950 . S
C3981 C3998 1.574 . S
C3981 C4000 1.368 . S
C3981 H4005 0.949 . S
H3982 C3986 0.949 . S
C3983 C3984 1.349 . S
C3983 C3985 1.327 . S
C3983 H4006 0.950 . S
C3984 C3983 1.349 . S
C3984 C3996 1.349 . S
C3985 C3983 1.327 . S
C3985 C4001 1.429 . S
C3985 H4007 0.950 . S
C3986 H3982 0.949 . S
C3986 C3994 1.574 . S
C3986 C4002 1.368 . S
H3987 C3995 0.950 . S
H3988 C3993 0.950 . S
H3989 C3994 0.949 . S
H3990 C3996 0.950 . S
H3991 C3997 0.950 . S
H3992 C3998 0.949 . S
C3993 H3988 0.950 . S
C3993 C3995 1.327 . S
C3993 C3999 1.429 . S
C3994 C3986 1.574 . S
C3994 H3989 0.949 . S
C3994 C4000 1.368 . S
C3995 C3979 1.349 . S
C3995 H3987 0.950 . S
C3995 C3993 1.327 . S
C3996 C3984 1.349 . S
C3996 H3990 0.950 . S
C3996 C3997 1.327 . S
C3997 H3991 0.950 . S
C3997 C3996 1.327 . S
C3997 C4001 1.429 . S
C3998 C3981 1.574 . S
C3998 H3992 0.949 . S
C3998 C4002 1.368 . S
C3999 C3980 1.429 . S
C3999 C3993 1.429 . S
C3999 C4000 1.523 . S
C4000 C3981 1.368 . S
C4000 C3994 1.368 . S
C4000 C3999 1.523 . S
C4001 C3985 1.429 . S
C4001 C3997 1.429 . S
C4001 C4002 1.523 . S
C4002 C3986 1.368 . S
C4002 C3998 1.368 . S
C4002 C4001 1.523 . S
H4003 C3978 0.950 . S
H4004 C3980 0.950 . S
H4005 C3981 0.949 . S
H4006 C3983 0.950 . S
H4007 C3985 0.950 . S
C4008 C4009 1.349 . S
C4008 C4010 1.327 . S
C4008 H4033 0.950 . S
C4009 C4008 1.349 . S
C4009 C4025 1.349 . S
C4010 C4008 1.327 . S
C4010 C4029 1.429 . S
C4010 H4034 0.950 . S
C4011 C4028 1.574 1_455 S
C4011 C4030 1.368 . S
C4011 H4035 0.949 . S
H4012 C4016 0.949 . S
C4013 C4014 1.349 . S
C4013 C4015 1.327 . S
C4013 H4036 0.950 . S
C4014 C4013 1.349 . S
C4014 C4026 1.349 . S
C4015 C4013 1.327 . S
C4015 C4031 1.429 . S
C4015 H4037 0.950 . S
C4016 H4012 0.949 . S
C4016 C4024 1.574 1_655 S
C4016 C4032 1.368 . S
H4017 C4025 0.950 . S
H4018 C4023 0.950 . S
H4019 C4024 0.949 . S
H4020 C4026 0.950 . S
H4021 C4027 0.950 . S
H4022 C4028 0.949 . S
C4023 H4018 0.950 . S
C4023 C4025 1.327 . S
C4023 C4029 1.429 . S
C4024 C4016 1.574 1_455 S
C4024 H4019 0.949 . S
C4024 C4030 1.368 . S
C4025 C4009 1.349 . S
C4025 H4017 0.950 . S
C4025 C4023 1.327 . S
C4026 C4014 1.349 . S
C4026 H4020 0.950 . S
C4026 C4027 1.327 . S
C4027 H4021 0.950 . S
C4027 C4026 1.327 . S
C4027 C4031 1.429 . S
C4028 C4011 1.574 1_655 S
C4028 H4022 0.949 . S
C4028 C4032 1.368 . S
C4029 C4010 1.429 . S
C4029 C4023 1.429 . S
C4029 C4030 1.523 . S
C4030 C4011 1.368 . S
C4030 C4024 1.368 . S
C4030 C4029 1.523 . S
C4031 C4015 1.429 . S
C4031 C4027 1.429 . S
C4031 C4032 1.523 . S
C4032 C4016 1.368 . S
C4032 C4028 1.368 . S
C4032 C4031 1.523 . S
H4033 C4008 0.950 . S
H4034 C4010 0.950 . S
H4035 C4011 0.949 . S
H4036 C4013 0.950 . S
H4037 C4015 0.950 . S
C4038 C4039 1.349 . S
C4038 C4040 1.327 . S
C4038 H4063 0.950 . S
C4039 C4038 1.349 . S
C4039 C4055 1.349 . S
C4040 C4038 1.327 . S
C4040 C4059 1.429 . S
C4040 H4064 0.950 . S
C4041 C4058 1.574 . S
C4041 C4060 1.368 . S
C4041 H4065 0.949 . S
H4042 C4046 0.949 . S
C4043 C4044 1.349 . S
C4043 C4045 1.327 . S
C4043 H4066 0.950 . S
C4044 C4043 1.349 . S
C4044 C4056 1.349 . S
C4045 C4043 1.327 . S
C4045 C4061 1.429 . S
C4045 H4067 0.950 . S
C4046 H4042 0.949 . S
C4046 C4054 1.574 . S
C4046 C4062 1.368 . S
H4047 C4055 0.950 . S
H4048 C4053 0.950 . S
H4049 C4054 0.949 . S
H4050 C4056 0.950 . S
H4051 C4057 0.950 . S
H4052 C4058 0.949 . S
C4053 H4048 0.950 . S
C4053 C4055 1.327 . S
C4053 C4059 1.429 . S
C4054 C4046 1.574 . S
C4054 H4049 0.949 . S
C4054 C4060 1.368 . S
C4055 C4039 1.349 . S
C4055 H4047 0.950 . S
C4055 C4053 1.327 . S
C4056 C4044 1.349 . S
C4056 H4050 0.950 . S
C4056 C4057 1.327 . S
C4057 H4051 0.950 . S
C4057 C4056 1.327 . S
C4057 C4061 1.429 . S
C4058 C4041 1.574 . S
C4058 H4052 0.949 . S
C4058 C4062 1.368 . S
C4059 C4040 1.429 . S
C4059 C4053 1.429 . S
C4059 C4060 1.523 . S
C4060 C4041 1.368 . S
C4060 C4054 1.368 . S
C4060 C4059 1.523 . S
C4061 C4045 1.429 . S
C4061 C4057 1.429 . S
C4061 C4062 1.523 . S
C4062 C4046 1.368 . S
C4062 C4058 1.368 . S
C4062 C4061 1.523 . S
H4063 C4038 0.950 . S
H4064 C4040 0.950 . S
H4065 C4041 0.949 . S
H4066 C4043 0.950 . S
H4067 C4045 0.950 . S
C4068 C4069 1.349 . S
C4068 C4070 1.327 . S
C4068 H4093 0.950 . S
C4069 C4068 1.349 . S
C4069 C4085 1.349 . S
C4070 C4068 1.327 . S
C4070 C4089 1.429 . S
C4070 H4094 0.950 . S
C4071 C4088 1.574 . S
C4071 C4090 1.368 . S
C4071 H4095 0.949 . S
H4072 C4076 0.949 . S
C4073 C4074 1.349 . S
C4073 C4075 1.327 . S
C4073 H4096 0.950 . S
C4074 C4073 1.349 . S
C4074 C4086 1.349 . S
C4075 C4073 1.327 . S
C4075 C4091 1.429 . S
C4075 H4097 0.950 . S
C4076 H4072 0.949 . S
C4076 C4084 1.574 . S
C4076 C4092 1.368 . S
H4077 C4085 0.950 . S
H4078 C4083 0.950 . S
H4079 C4084 0.949 . S
H4080 C4086 0.950 . S
H4081 C4087 0.950 . S
H4082 C4088 0.949 . S
C4083 H4078 0.950 . S
C4083 C4085 1.327 . S
C4083 C4089 1.429 . S
C4084 C4076 1.574 . S
C4084 H4079 0.949 . S
C4084 C4090 1.368 . S
C4085 C4069 1.349 . S
C4085 H4077 0.950 . S
C4085 C4083 1.327 . S
C4086 C4074 1.349 . S
C4086 H4080 0.950 . S
C4086 C4087 1.327 . S
C4087 H4081 0.950 . S
C4087 C4086 1.327 . S
C4087 C4091 1.429 . S
C4088 C4071 1.574 . S
C4088 H4082 0.949 . S
C4088 C4092 1.368 . S
C4089 C4070 1.429 . S
C4089 C4083 1.429 . S
C4089 C4090 1.523 . S
C4090 C4071 1.368 . S
C4090 C4084 1.368 . S
C4090 C4089 1.523 . S
C4091 C4075 1.429 . S
C4091 C4087 1.429 . S
C4091 C4092 1.523 . S
C4092 C4076 1.368 . S
C4092 C4088 1.368 . S
C4092 C4091 1.523 . S
H4093 C4068 0.950 . S
H4094 C4070 0.950 . S
H4095 C4071 0.949 . S
H4096 C4073 0.950 . S
H4097 C4075 0.950 . S
C4098 C4099 1.349 . S
C4098 C4100 1.327 . S
C4098 H4123 0.950 . S
C4099 C4098 1.349 . S
C4099 C4115 1.349 . S
C4100 C4098 1.327 . S
C4100 C4119 1.429 . S
C4100 H4124 0.950 . S
C4101 C4118 1.574 . S
C4101 C4120 1.368 1_455 S
C4101 H4125 0.949 . S
H4102 C4106 0.949 . S
C4103 C4104 1.349 . S
C4103 C4105 1.327 . S
C4103 H4126 0.950 . S
C4104 C4103 1.349 . S
C4104 C4116 1.349 . S
C4105 C4103 1.327 . S
C4105 C4121 1.429 . S
C4105 H4127 0.950 . S
C4106 H4102 0.949 . S
C4106 C4114 1.574 . S
C4106 C4122 1.368 1_655 S
H4107 C4115 0.950 1_455 S
H4108 C4113 0.936 1_455 S
H4109 C4114 0.949 . S
H4110 C4116 0.950 1_655 S
H4111 C4117 0.936 1_655 S
H4112 C4118 0.949 . S
C4113 H4108 0.936 1_655 S
C4113 C4115 1.332 . S
C4113 C4119 1.438 . S
C4114 C4106 1.574 . S
C4114 H4109 0.949 . S
C4114 C4120 1.368 . S
C4115 C4099 1.349 . S
C4115 H4107 0.950 1_655 S
C4115 C4113 1.332 . S
C4116 C4104 1.349 . S
C4116 H4110 0.950 1_455 S
C4116 C4117 1.332 . S
C4117 H4111 0.936 1_455 S
C4117 C4116 1.332 . S
C4117 C4121 1.438 . S
C4118 C4101 1.574 . S
C4118 H4112 0.949 . S
C4118 C4122 1.368 . S
C4119 C4100 1.429 . S
C4119 C4113 1.438 . S
C4119 C4120 1.523 . S
C4120 C4101 1.368 1_655 S
C4120 C4114 1.368 . S
C4120 C4119 1.523 . S
C4121 C4105 1.429 . S
C4121 C4117 1.438 . S
C4121 C4122 1.523 . S
C4122 C4106 1.368 1_455 S
C4122 C4118 1.368 . S
C4122 C4121 1.523 . S
H4123 C4098 0.950 . S
H4124 C4100 0.950 . S
H4125 C4101 0.949 . S
H4126 C4103 0.950 . S
H4127 C4105 0.950 . S
C4128 C4129 1.349 . S
C4128 C4130 1.327 . S
C4128 H4153 0.950 . S
C4129 C4128 1.349 . S
C4129 C4145 1.349 . S
C4130 C4128 1.327 . S
C4130 C4149 1.429 . S
C4130 H4154 0.950 . S
C4131 C4148 1.574 . S
C4131 C4150 1.368 . S
C4131 H4155 0.949 . S
H4132 C4136 0.949 . S
C4133 C4134 1.349 . S
C4133 C4135 1.327 . S
C4133 H4156 0.950 . S
C4134 C4133 1.349 . S
C4134 C4146 1.349 . S
C4135 C4133 1.327 . S
C4135 C4151 1.429 . S
C4135 H4157 0.950 . S
C4136 H4132 0.949 . S
C4136 C4144 1.574 . S
C4136 C4152 1.368 . S
H4137 C4145 0.950 . S
H4138 C4143 0.950 . S
H4139 C4144 0.949 . S
H4140 C4146 0.950 . S
H4141 C4147 0.950 . S
H4142 C4148 0.949 . S
C4143 H4138 0.950 . S
C4143 C4145 1.327 . S
C4143 C4149 1.429 . S
C4144 C4136 1.574 . S
C4144 H4139 0.949 . S
C4144 C4150 1.368 . S
C4145 C4129 1.349 . S
C4145 H4137 0.950 . S
C4145 C4143 1.327 . S
C4146 C4134 1.349 . S
C4146 H4140 0.950 . S
C4146 C4147 1.327 . S
C4147 H4141 0.950 . S
C4147 C4146 1.327 . S
C4147 C4151 1.429 . S
C4148 C4131 1.574 . S
C4148 H4142 0.949 . S
C4148 C4152 1.368 . S
C4149 C4130 1.429 . S
C4149 C4143 1.429 . S
C4149 C4150 1.523 . S
C4150 C4131 1.368 . S
C4150 C4144 1.368 . S
C4150 C4149 1.523 . S
C4151 C4135 1.429 . S
C4151 C4147 1.429 . S
C4151 C4152 1.523 . S
C4152 C4136 1.368 . S
C4152 C4148 1.368 . S
C4152 C4151 1.523 . S
H4153 C4128 0.950 . S
H4154 C4130 0.950 . S
H4155 C4131 0.949 . S
H4156 C4133 0.950 . S
H4157 C4135 0.950 . S
C4158 C4159 1.349 . S
C4158 C4160 1.327 . S
C4158 H4183 0.950 . S
C4159 C4158 1.349 . S
C4159 C4175 1.349 . S
C4160 C4158 1.327 . S
C4160 C4179 1.429 . S
C4160 H4184 0.950 . S
C4161 C4178 1.574 . S
C4161 C4180 1.368 1_465 S
C4161 H4185 0.949 . S
H4162 C4166 0.949 . S
C4163 C4164 1.349 . S
C4163 C4165 1.327 . S
C4163 H4186 0.950 . S
C4164 C4163 1.349 . S
C4164 C4176 1.349 . S
C4165 C4163 1.327 . S
C4165 C4181 1.429 . S
C4165 H4187 0.950 . S
C4166 H4162 0.949 . S
C4166 C4174 1.574 . S
C4166 C4182 1.368 1_645 S
H4167 C4175 0.950 . S
H4168 C4173 0.950 1_465 S
H4169 C4174 0.949 . S
H4170 C4176 0.950 . S
H4171 C4177 0.950 1_645 S
H4172 C4178 0.949 . S
C4173 H4168 0.950 1_645 S
C4173 C4175 1.327 . S
C4173 C4179 1.429 . S
C4174 C4166 1.574 . S
C4174 H4169 0.949 . S
C4174 C4180 1.368 . S
C4175 C4159 1.349 . S
C4175 H4167 0.950 . S
C4175 C4173 1.327 . S
C4176 C4164 1.349 . S
C4176 H4170 0.950 . S
C4176 C4177 1.327 . S
C4177 H4171 0.950 1_465 S
C4177 C4176 1.327 . S
C4177 C4181 1.429 . S
C4178 C4161 1.574 . S
C4178 H4172 0.949 . S
C4178 C4182 1.368 . S
C4179 C4160 1.429 . S
C4179 C4173 1.429 . S
C4179 C4180 1.523 . S
C4180 C4161 1.368 1_645 S
C4180 C4174 1.368 . S
C4180 C4179 1.523 . S
C4181 C4165 1.429 . S
C4181 C4177 1.429 . S
C4181 C4182 1.523 . S
C4182 C4166 1.368 1_465 S
C4182 C4178 1.368 . S
C4182 C4181 1.523 . S
H4183 C4158 0.950 . S
H4184 C4160 0.950 . S
H4185 C4161 0.949 . S
H4186 C4163 0.950 . S
H4187 C4165 0.950 . S
C4188 C4189 1.349 . S
C4188 C4190 1.327 . S
C4188 H4213 0.950 . S
C4189 C4188 1.349 . S
C4189 C4205 1.349 . S
C4190 C4188 1.327 . S
C4190 C4209 1.429 . S
C4190 H4214 0.950 . S
C4191 C4208 1.574 . S
C4191 C4210 1.368 . S
C4191 H4215 0.949 . S
H4192 C4196 0.949 . S
C4193 C4194 1.349 . S
C4193 C4195 1.327 . S
C4193 H4216 0.950 . S
C4194 C4193 1.349 . S
C4194 C4206 1.349 . S
C4195 C4193 1.327 . S
C4195 C4211 1.429 . S
C4195 H4217 0.950 . S
C4196 H4192 0.949 . S
C4196 C4204 1.574 . S
C4196 C4212 1.368 . S
H4197 C4205 0.950 . S
H4198 C4203 0.950 . S
H4199 C4204 0.949 . S
H4200 C4206 0.950 . S
H4201 C4207 0.950 . S
H4202 C4208 0.949 . S
C4203 H4198 0.950 . S
C4203 C4205 1.327 . S
C4203 C4209 1.429 . S
C4204 C4196 1.574 . S
C4204 H4199 0.949 . S
C4204 C4210 1.368 . S
C4205 C4189 1.349 . S
C4205 H4197 0.950 . S
C4205 C4203 1.327 . S
C4206 C4194 1.349 . S
C4206 H4200 0.950 . S
C4206 C4207 1.327 . S
C4207 H4201 0.950 . S
C4207 C4206 1.327 . S
C4207 C4211 1.429 . S
C4208 C4191 1.574 . S
C4208 H4202 0.949 . S
C4208 C4212 1.368 . S
C4209 C4190 1.429 . S
C4209 C4203 1.429 . S
C4209 C4210 1.523 . S
C4210 C4191 1.368 . S
C4210 C4204 1.368 . S
C4210 C4209 1.523 . S
C4211 C4195 1.429 . S
C4211 C4207 1.429 . S
C4211 C4212 1.523 . S
C4212 C4196 1.368 . S
C4212 C4208 1.368 . S
C4212 C4211 1.523 . S
H4213 C4188 0.950 . S
H4214 C4190 0.950 . S
H4215 C4191 0.949 . S
H4216 C4193 0.950 . S
H4217 C4195 0.950 . S
C4218 C4219 1.349 . S
C4218 C4220 1.327 . S
C4218 H4243 0.950 . S
C4219 C4218 1.349 . S
C4219 C4235 1.349 . S
C4220 C4218 1.327 . S
C4220 C4239 1.429 . S
C4220 H4244 0.950 . S
C4221 C4238 1.574 1_554 S
C4221 C4240 1.368 1_565 S
C4221 H4245 0.949 . S
H4222 C4226 0.949 . S
C4223 C4224 1.349 . S
C4223 C4225 1.327 . S
C4223 H4246 0.950 . S
C4224 C4223 1.349 . S
C4224 C4236 1.349 . S
C4225 C4223 1.327 . S
C4225 C4241 1.429 . S
C4225 H4247 0.950 . S
C4226 H4222 0.949 . S
C4226 C4234 1.574 1_556 S
C4226 C4242 1.368 1_545 S
H4227 C4235 0.950 1_565 S
H4228 C4233 0.950 . S
H4229 C4234 0.949 . S
H4230 C4236 0.950 1_545 S
H4231 C4237 0.950 . S
H4232 C4238 0.949 . S
C4233 H4228 0.950 . S
C4233 C4235 1.327 1_565 S
C4233 C4239 1.429 1_565 S
C4234 C4226 1.574 1_554 S
C4234 H4229 0.949 . S
C4234 C4240 1.368 . S
C4235 C4219 1.349 . S
C4235 H4227 0.950 1_545 S
C4235 C4233 1.327 1_545 S
C4236 C4224 1.349 . S
C4236 H4230 0.950 1_565 S
C4236 C4237 1.327 1_565 S
C4237 H4231 0.950 . S
C4237 C4236 1.327 1_545 S
C4237 C4241 1.429 1_545 S
C4238 C4221 1.574 1_556 S
C4238 H4232 0.949 . S
C4238 C4242 1.368 . S
C4239 C4220 1.429 . S
C4239 C4233 1.429 1_545 S
C4239 C4240 1.523 . S
C4240 C4221 1.368 1_545 S
C4240 C4234 1.368 . S
C4240 C4239 1.523 . S
C4241 C4225 1.429 . S
C4241 C4237 1.429 1_565 S
C4241 C4242 1.523 . S
C4242 C4226 1.368 1_565 S
C4242 C4238 1.368 . S
C4242 C4241 1.523 . S
H4243 C4218 0.950 . S
H4244 C4220 0.950 . S
H4245 C4221 0.949 . S
H4246 C4223 0.950 . S
H4247 C4225 0.950 . S
C4248 C4249 1.349 . S
C4248 C4250 1.327 . S
C4248 H4273 0.950 . S
C4249 C4248 1.349 . S
C4249 C4265 1.349 . S
C4250 C4248 1.327 . S
C4250 C4269 1.429 . S
C4250 H4274 0.950 . S
C4251 C4268 1.574 . S
C4251 C4270 1.368 . S
C4251 H4275 0.949 . S
H4252 C4256 0.949 . S
C4253 C4254 1.349 . S
C4253 C4255 1.327 . S
C4253 H4276 0.950 . S
C4254 C4253 1.349 . S
C4254 C4266 1.349 . S
C4255 C4253 1.327 . S
C4255 C4271 1.429 . S
C4255 H4277 0.950 . S
C4256 H4252 0.949 . S
C4256 C4264 1.574 . S
C4256 C4272 1.368 . S
H4257 C4265 0.950 . S
H4258 C4263 0.950 . S
H4259 C4264 0.949 . S
H4260 C4266 0.950 . S
H4261 C4267 0.950 . S
H4262 C4268 0.949 . S
C4263 H4258 0.950 . S
C4263 C4265 1.327 . S
C4263 C4269 1.429 . S
C4264 C4256 1.574 . S
C4264 H4259 0.949 . S
C4264 C4270 1.368 . S
C4265 C4249 1.349 . S
C4265 H4257 0.950 . S
C4265 C4263 1.327 . S
C4266 C4254 1.349 . S
C4266 H4260 0.950 . S
C4266 C4267 1.327 . S
C4267 H4261 0.950 . S
C4267 C4266 1.327 . S
C4267 C4271 1.429 . S
C4268 C4251 1.574 . S
C4268 H4262 0.949 . S
C4268 C4272 1.368 . S
C4269 C4250 1.429 . S
C4269 C4263 1.429 . S
C4269 C4270 1.523 . S
C4270 C4251 1.368 . S
C4270 C4264 1.368 . S
C4270 C4269 1.523 . S
C4271 C4255 1.429 . S
C4271 C4267 1.429 . S
C4271 C4272 1.523 . S
C4272 C4256 1.368 . S
C4272 C4268 1.368 . S
C4272 C4271 1.523 . S
H4273 C4248 0.950 . S
H4274 C4250 0.950 . S
H4275 C4251 0.949 . S
H4276 C4253 0.950 . S
H4277 C4255 0.950 . S
C4278 C4279 1.349 . S
C4278 C4280 1.327 . S
C4278 H4303 0.950 . S
C4279 C4278 1.349 . S
C4279 C4295 1.349 . S
C4280 C4278 1.327 . S
C4280 C4299 1.429 . S
C4280 H4304 0.950 1_545 S
C4281 C4298 1.574 . S
C4281 C4300 1.368 . S
C4281 H4305 0.949 . S
H4282 C4286 0.949 . S
C4283 C4284 1.349 . S
C4283 C4285 1.327 . S
C4283 H4306 0.950 . S
C4284 C4283 1.349 . S
C4284 C4296 1.349 . S
C4285 C4283 1.327 . S
C4285 C4301 1.429 . S
C4285 H4307 0.950 1_565 S
C4286 H4282 0.949 . S
C4286 C4294 1.574 . S
C4286 C4302 1.368 . S
H4287 C4295 0.950 . S
H4288 C4293 0.950 . S
H4289 C4294 0.949 . S
H4290 C4296 0.950 . S
H4291 C4297 0.950 . S
H4292 C4298 0.949 . S
C4293 H4288 0.950 . S
C4293 C4295 1.327 . S
C4293 C4299 1.429 . S
C4294 C4286 1.574 . S
C4294 H4289 0.949 . S
C4294 C4300 1.368 1_565 S
C4295 C4279 1.349 . S
C4295 H4287 0.950 . S
C4295 C4293 1.327 . S
C4296 C4284 1.349 . S
C4296 H4290 0.950 . S
C4296 C4297 1.327 . S
C4297 H4291 0.950 . S
C4297 C4296 1.327 . S
C4297 C4301 1.429 . S
C4298 C4281 1.574 . S
C4298 H4292 0.949 . S
C4298 C4302 1.368 1_545 S
C4299 C4280 1.429 . S
C4299 C4293 1.429 . S
C4299 C4300 1.523 . S
C4300 C4281 1.368 . S
C4300 C4294 1.368 1_545 S
C4300 C4299 1.523 . S
C4301 C4285 1.429 . S
C4301 C4297 1.429 . S
C4301 C4302 1.523 . S
C4302 C4286 1.368 . S
C4302 C4298 1.368 1_565 S
C4302 C4301 1.523 . S
H4303 C4278 0.950 . S
H4304 C4280 0.950 1_565 S
H4305 C4281 0.949 . S
H4306 C4283 0.950 . S
H4307 C4285 0.950 1_545 S
C4308 C4309 1.349 . S
C4308 C4310 1.327 . S
C4308 H4333 0.950 . S
C4309 C4308 1.349 . S
C4309 C4325 1.349 . S
C4310 C4308 1.327 . S
C4310 C4329 1.429 . S
C4310 H4334 0.950 . S
C4311 C4328 1.574 . S
C4311 C4330 1.368 . S
C4311 H4335 0.949 . S
H4312 C4316 0.949 . S
C4313 C4314 1.349 . S
C4313 C4315 1.327 . S
C4313 H4336 0.950 . S
C4314 C4313 1.349 . S
C4314 C4326 1.349 . S
C4315 C4313 1.327 . S
C4315 C4331 1.429 . S
C4315 H4337 0.950 . S
C4316 H4312 0.949 . S
C4316 C4324 1.574 . S
C4316 C4332 1.368 . S
H4317 C4325 0.950 . S
H4318 C4323 0.950 . S
H4319 C4324 0.949 . S
H4320 C4326 0.950 . S
H4321 C4327 0.950 . S
H4322 C4328 0.949 . S
C4323 H4318 0.950 . S
C4323 C4325 1.327 . S
C4323 C4329 1.429 . S
C4324 C4316 1.574 . S
C4324 H4319 0.949 . S
C4324 C4330 1.368 . S
C4325 C4309 1.349 . S
C4325 H4317 0.950 . S
C4325 C4323 1.327 . S
C4326 C4314 1.349 . S
C4326 H4320 0.950 . S
C4326 C4327 1.327 . S
C4327 H4321 0.950 . S
C4327 C4326 1.327 . S
C4327 C4331 1.429 . S
C4328 C4311 1.574 . S
C4328 H4322 0.949 . S
C4328 C4332 1.368 . S
C4329 C4310 1.429 . S
C4329 C4323 1.429 . S
C4329 C4330 1.523 . S
C4330 C4311 1.368 . S
C4330 C4324 1.368 . S
C4330 C4329 1.523 . S
C4331 C4315 1.429 . S
C4331 C4327 1.429 . S
C4331 C4332 1.523 . S
C4332 C4316 1.368 . S
C4332 C4328 1.368 . S
C4332 C4331 1.523 . S
H4333 C4308 0.950 . S
H4334 C4310 0.950 . S
H4335 C4311 0.949 . S
H4336 C4313 0.950 . S
H4337 C4315 0.950 . S
C4338 C4339 1.349 . S
C4338 C4340 1.327 . S
C4338 H4363 0.950 . S
C4339 C4338 1.349 . S
C4339 C4355 1.349 . S
C4340 C4338 1.327 . S
C4340 C4359 1.429 . S
C4340 H4364 0.950 1_455 S
C4341 C4358 1.574 1_556 S
C4341 C4360 1.368 1_565 S
C4341 H4365 0.949 . S
H4342 C4346 0.949 . S
C4343 C4344 1.349 . S
C4343 C4345 1.327 . S
C4343 H4366 0.950 . S
C4344 C4343 1.349 . S
C4344 C4356 1.349 . S
C4345 C4343 1.327 . S
C4345 C4361 1.429 . S
C4345 H4367 0.950 1_655 S
C4346 H4342 0.949 . S
C4346 C4354 1.574 1_554 S
C4346 C4362 1.368 1_545 S
H4347 C4355 0.950 1_565 S
H4348 C4353 0.950 1_565 S
H4349 C4354 0.949 . S
H4350 C4356 0.950 1_545 S
H4351 C4357 0.950 1_545 S
H4352 C4358 0.949 . S
C4353 H4348 0.950 1_545 S
C4353 C4355 1.327 . S
C4353 C4359 1.429 . S
C4354 C4346 1.574 1_556 S
C4354 H4349 0.949 . S
C4354 C4360 1.368 1_655 S
C4355 C4339 1.349 . S
C4355 H4347 0.950 1_545 S
C4355 C4353 1.327 . S
C4356 C4344 1.349 . S
C4356 H4350 0.950 1_565 S
C4356 C4357 1.327 . S
C4357 H4351 0.950 1_565 S
C4357 C4356 1.327 . S
C4357 C4361 1.429 . S
C4358 C4341 1.574 1_554 S
C4358 H4352 0.949 . S
C4358 C4362 1.368 1_455 S
C4359 C4340 1.429 . S
C4359 C4353 1.429 . S
C4359 C4360 1.523 . S
C4360 C4341 1.368 1_545 S
C4360 C4354 1.368 1_455 S
C4360 C4359 1.523 . S
C4361 C4345 1.429 . S
C4361 C4357 1.429 . S
C4361 C4362 1.523 . S
C4362 C4346 1.368 1_565 S
C4362 C4358 1.368 1_655 S
C4362 C4361 1.523 . S
H4363 C4338 0.950 . S
H4364 C4340 0.950 1_655 S
H4365 C4341 0.949 . S
H4366 C4343 0.950 . S
H4367 C4345 0.950 1_455 S
C4368 C4369 1.349 . S
C4368 C4370 1.327 . S
C4368 H4393 0.950 . S
C4369 C4368 1.349 . S
C4369 C4385 1.349 . S
C4370 C4368 1.327 . S
C4370 C4389 1.429 . S
C4370 H4394 0.950 . S
C4371 C4388 1.574 . S
C4371 C4390 1.368 . S
C4371 H4395 0.949 . S
H4372 C4376 0.949 . S
C4373 C4374 1.349 . S
C4373 C4375 1.327 . S
C4373 H4396 0.950 . S
C4374 C4373 1.349 . S
C4374 C4386 1.349 . S
C4375 C4373 1.327 . S
C4375 C4391 1.429 . S
C4375 H4397 0.950 . S
C4376 H4372 0.949 . S
C4376 C4384 1.574 . S
C4376 C4392 1.368 . S
H4377 C4385 0.950 . S
H4378 C4383 0.950 . S
H4379 C4384 0.949 . S
H4380 C4386 0.950 . S
H4381 C4387 0.950 . S
H4382 C4388 0.949 . S
C4383 H4378 0.950 . S
C4383 C4385 1.327 . S
C4383 C4389 1.429 . S
C4384 C4376 1.574 . S
C4384 H4379 0.949 . S
C4384 C4390 1.368 . S
C4385 C4369 1.349 . S
C4385 H4377 0.950 . S
C4385 C4383 1.327 . S
C4386 C4374 1.349 . S
C4386 H4380 0.950 . S
C4386 C4387 1.327 . S
C4387 H4381 0.950 . S
C4387 C4386 1.327 . S
C4387 C4391 1.429 . S
C4388 C4371 1.574 . S
C4388 H4382 0.949 . S
C4388 C4392 1.368 . S
C4389 C4370 1.429 . S
C4389 C4383 1.429 . S
C4389 C4390 1.523 . S
C4390 C4371 1.368 . S
C4390 C4384 1.368 . S
C4390 C4389 1.523 . S
C4391 C4375 1.429 . S
C4391 C4387 1.429 . S
C4391 C4392 1.523 . S
C4392 C4376 1.368 . S
C4392 C4388 1.368 . S
C4392 C4391 1.523 . S
H4393 C4368 0.950 . S
H4394 C4370 0.950 . S
H4395 C4371 0.949 . S
H4396 C4373 0.950 . S
H4397 C4375 0.950 . S
C4398 C4399 1.349 . S
C4398 C4400 1.327 . S
C4398 H4423 0.950 . S
C4399 C4398 1.349 . S
C4399 C4415 1.349 . S
C4400 C4398 1.327 . S
C4400 C4419 1.429 . S
C4400 H4424 0.950 . S
C4401 C4418 1.574 . S
C4401 C4420 1.368 . S
C4401 H4425 0.949 . S
H4402 C4406 0.949 . S
C4403 C4404 1.349 . S
C4403 C4405 1.327 . S
C4403 H4426 0.950 . S
C4404 C4403 1.349 . S
C4404 C4416 1.349 . S
C4405 C4403 1.327 . S
C4405 C4421 1.429 . S
C4405 H4427 0.950 . S
C4406 H4402 0.949 . S
C4406 C4414 1.574 . S
C4406 C4422 1.368 . S
H4407 C4415 0.950 . S
H4408 C4413 0.950 . S
H4409 C4414 0.949 . S
H4410 C4416 0.950 . S
H4411 C4417 0.950 . S
H4412 C4418 0.949 . S
C4413 H4408 0.950 . S
C4413 C4415 1.327 . S
C4413 C4419 1.429 . S
C4414 C4406 1.574 . S
C4414 H4409 0.949 . S
C4414 C4420 1.368 . S
C4415 C4399 1.349 . S
C4415 H4407 0.950 . S
C4415 C4413 1.327 . S
C4416 C4404 1.349 . S
C4416 H4410 0.950 . S
C4416 C4417 1.327 . S
C4417 H4411 0.950 . S
C4417 C4416 1.327 . S
C4417 C4421 1.429 . S
C4418 C4401 1.574 . S
C4418 H4412 0.949 . S
C4418 C4422 1.368 . S
C4419 C4400 1.429 . S
C4419 C4413 1.429 . S
C4419 C4420 1.523 . S
C4420 C4401 1.368 . S
C4420 C4414 1.368 . S
C4420 C4419 1.523 . S
C4421 C4405 1.429 . S
C4421 C4417 1.429 . S
C4421 C4422 1.523 . S
C4422 C4406 1.368 . S
C4422 C4418 1.368 . S
C4422 C4421 1.523 . S
H4423 C4398 0.950 . S
H4424 C4400 0.950 . S
H4425 C4401 0.949 . S
H4426 C4403 0.950 . S
H4427 C4405 0.950 . S
C4428 C4429 1.349 . S
C4428 C4430 1.327 . S
C4428 H4453 0.950 . S
C4429 C4428 1.349 . S
C4429 C4445 1.349 . S
C4430 C4428 1.327 . S
C4430 C4449 1.429 . S
C4430 H4454 0.950 . S
C4431 C4448 1.574 . S
C4431 C4450 1.368 . S
C4431 H4455 0.949 . S
H4432 C4436 0.949 . S
C4433 C4434 1.349 . S
C4433 C4435 1.327 . S
C4433 H4456 0.950 . S
C4434 C4433 1.349 . S
C4434 C4446 1.349 . S
C4435 C4433 1.327 . S
C4435 C4451 1.429 . S
C4435 H4457 0.950 . S
C4436 H4432 0.949 . S
C4436 C4444 1.574 . S
C4436 C4452 1.368 . S
H4437 C4445 0.950 . S
H4438 C4443 0.950 . S
H4439 C4444 0.949 . S
H4440 C4446 0.950 . S
H4441 C4447 0.950 . S
H4442 C4448 0.949 . S
C4443 H4438 0.950 . S
C4443 C4445 1.327 . S
C4443 C4449 1.429 . S
C4444 C4436 1.574 . S
C4444 H4439 0.949 . S
C4444 C4450 1.368 . S
C4445 C4429 1.349 . S
C4445 H4437 0.950 . S
C4445 C4443 1.327 . S
C4446 C4434 1.349 . S
C4446 H4440 0.950 . S
C4446 C4447 1.327 . S
C4447 H4441 0.950 . S
C4447 C4446 1.327 . S
C4447 C4451 1.429 . S
C4448 C4431 1.574 . S
C4448 H4442 0.949 . S
C4448 C4452 1.368 . S
C4449 C4430 1.429 . S
C4449 C4443 1.429 . S
C4449 C4450 1.523 . S
C4450 C4431 1.368 . S
C4450 C4444 1.368 . S
C4450 C4449 1.523 . S
C4451 C4435 1.429 . S
C4451 C4447 1.429 . S
C4451 C4452 1.523 . S
C4452 C4436 1.368 . S
C4452 C4448 1.368 . S
C4452 C4451 1.523 . S
H4453 C4428 0.950 . S
H4454 C4430 0.950 . S
H4455 C4431 0.949 . S
H4456 C4433 0.950 . S
H4457 C4435 0.950 . S
C4458 C4459 1.349 . S
C4458 C4460 1.327 . S
C4458 H4483 0.950 . S
C4459 C4458 1.349 . S
C4459 C4475 1.349 . S
C4460 C4458 1.327 . S
C4460 C4479 1.429 . S
C4460 H4484 0.950 . S
C4461 C4478 1.574 . S
C4461 C4480 1.368 . S
C4461 H4485 0.949 . S
H4462 C4466 0.949 . S
C4463 C4464 1.349 . S
C4463 C4465 1.327 . S
C4463 H4486 0.950 . S
C4464 C4463 1.349 . S
C4464 C4476 1.349 . S
C4465 C4463 1.327 . S
C4465 C4481 1.429 . S
C4465 H4487 0.950 . S
C4466 H4462 0.949 . S
C4466 C4474 1.574 . S
C4466 C4482 1.368 . S
H4467 C4475 0.950 . S
H4468 C4473 0.950 . S
H4469 C4474 0.949 . S
H4470 C4476 0.950 . S
H4471 C4477 0.950 . S
H4472 C4478 0.949 . S
C4473 H4468 0.950 . S
C4473 C4475 1.327 . S
C4473 C4479 1.429 . S
C4474 C4466 1.574 . S
C4474 H4469 0.949 . S
C4474 C4480 1.368 . S
C4475 C4459 1.349 . S
C4475 H4467 0.950 . S
C4475 C4473 1.327 . S
C4476 C4464 1.349 . S
C4476 H4470 0.950 . S
C4476 C4477 1.327 . S
C4477 H4471 0.950 . S
C4477 C4476 1.327 . S
C4477 C4481 1.429 . S
C4478 C4461 1.574 . S
C4478 H4472 0.949 . S
C4478 C4482 1.368 . S
C4479 C4460 1.429 . S
C4479 C4473 1.429 . S
C4479 C4480 1.523 . S
C4480 C4461 1.368 . S
C4480 C4474 1.368 . S
C4480 C4479 1.523 . S
C4481 C4465 1.429 . S
C4481 C4477 1.429 . S
C4481 C4482 1.523 . S
C4482 C4466 1.368 . S
C4482 C4478 1.368 . S
C4482 C4481 1.523 . S
H4483 C4458 0.950 . S
H4484 C4460 0.950 . S
H4485 C4461 0.949 . S
H4486 C4463 0.950 . S
H4487 C4465 0.950 . S
C4488 C4489 1.349 . S
C4488 C4490 1.327 . S
C4488 H4513 0.950 . S
C4489 C4488 1.349 . S
C4489 C4505 1.349 . S
C4490 C4488 1.327 . S
C4490 C4509 1.429 . S
C4490 H4514 0.950 . S
C4491 C4508 1.574 1_554 S
C4491 C4510 1.368 . S
C4491 H4515 0.949 . S
H4492 C4496 0.949 . S
C4493 C4494 1.349 . S
C4493 C4495 1.327 . S
C4493 H4516 0.950 . S
C4494 C4493 1.349 . S
C4494 C4506 1.349 . S
C4495 C4493 1.327 . S
C4495 C4511 1.429 . S
C4495 H4517 0.950 . S
C4496 H4492 0.949 . S
C4496 C4504 1.574 1_556 S
C4496 C4512 1.368 . S
H4497 C4505 0.950 . S
H4498 C4503 0.950 . S
H4499 C4504 0.949 . S
H4500 C4506 0.950 . S
H4501 C4507 0.950 . S
H4502 C4508 0.949 . S
C4503 H4498 0.950 . S
C4503 C4505 1.327 . S
C4503 C4509 1.429 . S
C4504 C4496 1.574 1_554 S
C4504 H4499 0.949 . S
C4504 C4510 1.368 . S
C4505 C4489 1.349 . S
C4505 H4497 0.950 . S
C4505 C4503 1.327 . S
C4506 C4494 1.349 . S
C4506 H4500 0.950 . S
C4506 C4507 1.327 . S
C4507 H4501 0.950 . S
C4507 C4506 1.327 . S
C4507 C4511 1.429 . S
C4508 C4491 1.574 1_556 S
C4508 H4502 0.949 . S
C4508 C4512 1.368 . S
C4509 C4490 1.429 . S
C4509 C4503 1.429 . S
C4509 C4510 1.523 . S
C4510 C4491 1.368 . S
C4510 C4504 1.368 . S
C4510 C4509 1.523 . S
C4511 C4495 1.429 . S
C4511 C4507 1.429 . S
C4511 C4512 1.523 . S
C4512 C4496 1.368 . S
C4512 C4508 1.368 . S
C4512 C4511 1.523 . S
H4513 C4488 0.950 . S
H4514 C4490 0.950 . S
H4515 C4491 0.949 . S
H4516 C4493 0.950 . S
H4517 C4495 0.950 . S
C4518 C4519 1.349 . S
C4518 C4520 1.327 . S
C4518 H4543 0.950 . S
C4519 C4518 1.349 . S
C4519 C4535 1.349 . S
C4520 C4518 1.327 . S
C4520 C4539 1.429 . S
C4520 H4544 0.950 . S
C4521 C4538 1.574 . S
C4521 C4540 1.368 1_455 S
C4521 H4545 0.949 . S
H4522 C4526 0.949 . S
C4523 C4524 1.349 . S
C4523 C4525 1.327 . S
C4523 H4546 0.950 . S
C4524 C4523 1.349 . S
C4524 C4536 1.349 . S
C4525 C4523 1.327 . S
C4525 C4541 1.429 . S
C4525 H4547 0.950 . S
C4526 H4522 0.949 . S
C4526 C4534 1.574 . S
C4526 C4542 1.368 1_655 S
H4527 C4535 0.950 . S
H4528 C4533 0.950 1_455 S
H4529 C4534 0.949 . S
H4530 C4536 0.950 . S
H4531 C4537 0.950 1_655 S
H4532 C4538 0.949 . S
C4533 H4528 0.950 1_655 S
C4533 C4535 1.327 . S
C4533 C4539 1.429 . S
C4534 C4526 1.574 . S
C4534 H4529 0.949 . S
C4534 C4540 1.368 . S
C4535 C4519 1.349 . S
C4535 H4527 0.950 . S
C4535 C4533 1.327 . S
C4536 C4524 1.349 . S
C4536 H4530 0.950 . S
C4536 C4537 1.327 . S
C4537 H4531 0.950 1_455 S
C4537 C4536 1.327 . S
C4537 C4541 1.429 . S
C4538 C4521 1.574 . S
C4538 H4532 0.949 . S
C4538 C4542 1.368 . S
C4539 C4520 1.429 . S
C4539 C4533 1.429 . S
C4539 C4540 1.523 . S
C4540 C4521 1.368 1_655 S
C4540 C4534 1.368 . S
C4540 C4539 1.523 . S
C4541 C4525 1.429 . S
C4541 C4537 1.429 . S
C4541 C4542 1.523 . S
C4542 C4526 1.368 1_455 S
C4542 C4538 1.368 . S
C4542 C4541 1.523 . S
H4543 C4518 0.950 . S
H4544 C4520 0.950 . S
H4545 C4521 0.949 . S
H4546 C4523 0.950 . S
H4547 C4525 0.950 . S
C4548 C4549 1.349 . S
C4548 C4550 1.327 . S
C4548 H4573 0.950 . S
C4549 C4548 1.349 . S
C4549 C4565 1.349 . S
C4550 C4548 1.327 . S
C4550 C4569 1.429 . S
C4550 H4574 0.950 . S
C4551 C4568 1.574 1_554 S
C4551 C4570 1.368 1_655 S
C4551 H4575 0.949 . S
H4552 C4556 0.949 . S
C4553 C4554 1.349 . S
C4553 C4555 1.327 . S
C4553 H4576 0.950 . S
C4554 C4553 1.349 . S
C4554 C4566 1.349 . S
C4555 C4553 1.327 . S
C4555 C4571 1.429 . S
C4555 H4577 0.950 . S
C4556 H4552 0.949 . S
C4556 C4564 1.574 1_556 S
C4556 C4572 1.368 1_455 S
H4557 C4565 0.950 . S
H4558 C4563 0.950 . S
H4559 C4564 0.949 . S
H4560 C4566 0.950 . S
H4561 C4567 0.950 . S
H4562 C4568 0.949 . S
C4563 H4558 0.950 . S
C4563 C4565 1.327 . S
C4563 C4569 1.429 . S
C4564 C4556 1.574 1_554 S
C4564 H4559 0.949 . S
C4564 C4570 1.368 . S
C4565 C4549 1.349 . S
C4565 H4557 0.950 . S
C4565 C4563 1.327 . S
C4566 C4554 1.349 . S
C4566 H4560 0.950 . S
C4566 C4567 1.327 . S
C4567 H4561 0.950 . S
C4567 C4566 1.327 . S
C4567 C4571 1.429 . S
C4568 C4551 1.574 1_556 S
C4568 H4562 0.949 . S
C4568 C4572 1.368 . S
C4569 C4550 1.429 . S
C4569 C4563 1.429 . S
C4569 C4570 1.523 . S
C4570 C4551 1.368 1_455 S
C4570 C4564 1.368 . S
C4570 C4569 1.523 . S
C4571 C4555 1.429 . S
C4571 C4567 1.429 . S
C4571 C4572 1.523 . S
C4572 C4556 1.368 1_655 S
C4572 C4568 1.368 . S
C4572 C4571 1.523 . S
H4573 C4548 0.950 . S
H4574 C4550 0.950 . S
H4575 C4551 0.949 . S
H4576 C4553 0.950 . S
H4577 C4555 0.950 . S
C4578 C4579 1.349 . S
C4578 C4580 1.327 . S
C4578 H4603 0.950 . S
C4579 C4578 1.349 . S
C4579 C4595 1.349 . S
C4580 C4578 1.327 . S
C4580 C4599 1.429 . S
C4580 H4604 0.950 . S
C4581 C4598 1.574 . S
C4581 C4600 1.368 . S
C4581 H4605 0.949 . S
H4582 C4586 0.949 . S
C4583 C4584 1.349 . S
C4583 C4585 1.327 . S
C4583 H4606 0.950 . S
C4584 C4583 1.349 . S
C4584 C4596 1.349 . S
C4585 C4583 1.327 . S
C4585 C4601 1.429 . S
C4585 H4607 0.950 . S
C4586 H4582 0.949 . S
C4586 C4594 1.574 . S
C4586 C4602 1.368 . S
H4587 C4595 0.950 . S
H4588 C4593 0.950 . S
H4589 C4594 0.949 . S
H4590 C4596 0.950 . S
H4591 C4597 0.950 . S
H4592 C4598 0.949 . S
C4593 H4588 0.950 . S
C4593 C4595 1.327 . S
C4593 C4599 1.429 . S
C4594 C4586 1.574 . S
C4594 H4589 0.949 . S
C4594 C4600 1.368 . S
C4595 C4579 1.349 . S
C4595 H4587 0.950 . S
C4595 C4593 1.327 . S
C4596 C4584 1.349 . S
C4596 H4590 0.950 . S
C4596 C4597 1.327 . S
C4597 H4591 0.950 . S
C4597 C4596 1.327 . S
C4597 C4601 1.429 . S
C4598 C4581 1.574 . S
C4598 H4592 0.949 . S
C4598 C4602 1.368 . S
C4599 C4580 1.429 . S
C4599 C4593 1.429 . S
C4599 C4600 1.523 . S
C4600 C4581 1.368 . S
C4600 C4594 1.368 . S
C4600 C4599 1.523 . S
C4601 C4585 1.429 . S
C4601 C4597 1.429 . S
C4601 C4602 1.523 . S
C4602 C4586 1.368 . S
C4602 C4598 1.368 . S
C4602 C4601 1.523 . S
H4603 C4578 0.950 . S
H4604 C4580 0.950 . S
H4605 C4581 0.949 . S
H4606 C4583 0.950 . S
H4607 C4585 0.950 . S
C4608 C4609 1.349 . S
C4608 C4610 1.327 . S
C4608 H4633 0.950 . S
C4609 C4608 1.349 . S
C4609 C4625 1.349 . S
C4610 C4608 1.327 . S
C4610 C4629 1.429 . S
C4610 H4634 0.950 . S
C4611 C4628 1.574 . S
C4611 C4630 1.368 . S
C4611 H4635 0.949 . S
H4612 C4616 0.949 . S
C4613 C4614 1.349 . S
C4613 C4615 1.327 . S
C4613 H4636 0.950 1_545 S
C4614 C4613 1.349 . S
C4614 C4626 1.349 . S
C4615 C4613 1.327 . S
C4615 C4631 1.429 . S
C4615 H4637 0.950 . S
C4616 H4612 0.949 . S
C4616 C4624 1.574 . S
C4616 C4632 1.368 . S
H4617 C4625 0.950 . S
H4618 C4623 0.950 . S
H4619 C4624 0.949 . S
H4620 C4626 0.950 . S
H4621 C4627 0.950 . S
H4622 C4628 0.949 . S
C4623 H4618 0.950 . S
C4623 C4625 1.327 . S
C4623 C4629 1.429 . S
C4624 C4616 1.574 . S
C4624 H4619 0.949 . S
C4624 C4630 1.368 . S
C4625 C4609 1.349 . S
C4625 H4617 0.950 . S
C4625 C4623 1.327 . S
C4626 C4614 1.349 . S
C4626 H4620 0.950 . S
C4626 C4627 1.327 . S
C4627 H4621 0.950 . S
C4627 C4626 1.327 . S
C4627 C4631 1.429 . S
C4628 C4611 1.574 . S
C4628 H4622 0.949 . S
C4628 C4632 1.368 . S
C4629 C4610 1.429 . S
C4629 C4623 1.429 . S
C4629 C4630 1.523 . S
C4630 C4611 1.368 . S
C4630 C4624 1.368 . S
C4630 C4629 1.523 . S
C4631 C4615 1.429 . S
C4631 C4627 1.429 . S
C4631 C4632 1.523 . S
C4632 C4616 1.368 . S
C4632 C4628 1.368 . S
C4632 C4631 1.523 . S
H4633 C4608 0.950 . S
H4634 C4610 0.950 . S
H4635 C4611 0.949 . S
H4636 C4613 0.950 1_565 S
H4637 C4615 0.950 . S
C4638 C4639 1.349 . S
C4638 C4640 1.327 . S
C4638 H4663 0.950 . S
C4639 C4638 1.349 . S
C4639 C4655 1.349 . S
C4640 C4638 1.327 . S
C4640 C4659 1.429 . S
C4640 H4664 0.950 . S
C4641 C4658 1.574 . S
C4641 C4660 1.368 . S
C4641 H4665 0.949 . S
H4642 C4646 0.949 . S
C4643 C4644 1.349 . S
C4643 C4645 1.327 . S
C4643 H4666 0.950 . S
C4644 C4643 1.349 . S
C4644 C4656 1.349 . S
C4645 C4643 1.327 . S
C4645 C4661 1.429 . S
C4645 H4667 0.950 . S
C4646 H4642 0.949 . S
C4646 C4654 1.574 . S
C4646 C4662 1.368 . S
H4647 C4655 0.950 . S
H4648 C4653 0.950 . S
H4649 C4654 0.949 . S
H4650 C4656 0.950 1_565 S
H4651 C4657 0.950 . S
H4652 C4658 0.949 . S
C4653 H4648 0.950 . S
C4653 C4655 1.327 . S
C4653 C4659 1.429 . S
C4654 C4646 1.574 . S
C4654 H4649 0.949 . S
C4654 C4660 1.368 . S
C4655 C4639 1.349 . S
C4655 H4647 0.950 . S
C4655 C4653 1.327 . S
C4656 C4644 1.349 . S
C4656 H4650 0.950 1_545 S
C4656 C4657 1.327 . S
C4657 H4651 0.950 . S
C4657 C4656 1.327 . S
C4657 C4661 1.429 . S
C4658 C4641 1.574 . S
C4658 H4652 0.949 . S
C4658 C4662 1.368 . S
C4659 C4640 1.429 . S
C4659 C4653 1.429 . S
C4659 C4660 1.523 . S
C4660 C4641 1.368 . S
C4660 C4654 1.368 . S
C4660 C4659 1.523 . S
C4661 C4645 1.429 . S
C4661 C4657 1.429 . S
C4661 C4662 1.523 . S
C4662 C4646 1.368 . S
C4662 C4658 1.368 . S
C4662 C4661 1.523 . S
H4663 C4638 0.950 . S
H4664 C4640 0.950 . S
H4665 C4641 0.949 . S
H4666 C4643 0.950 . S
H4667 C4645 0.950 . S
C4668 C4669 1.349 . S
C4668 C4670 1.327 . S
C4668 H4693 0.950 . S
C4669 C4668 1.349 . S
C4669 C4685 1.349 . S
C4670 C4668 1.327 . S
C4670 C4689 1.429 . S
C4670 H4694 0.950 . S
C4671 C4688 1.574 . S
C4671 C4690 1.368 . S
C4671 H4695 0.949 . S
H4672 C4676 0.949 . S
C4673 C4674 1.349 . S
C4673 C4675 1.327 . S
C4673 H4696 0.950 . S
C4674 C4673 1.349 . S
C4674 C4686 1.349 . S
C4675 C4673 1.327 . S
C4675 C4691 1.429 . S
C4675 H4697 0.950 . S
C4676 H4672 0.949 . S
C4676 C4684 1.574 . S
C4676 C4692 1.368 . S
H4677 C4685 0.950 1_545 S
H4678 C4683 0.950 . S
H4679 C4684 0.949 . S
H4680 C4686 0.950 . S
H4681 C4687 0.950 . S
H4682 C4688 0.949 . S
C4683 H4678 0.950 . S
C4683 C4685 1.327 . S
C4683 C4689 1.429 . S
C4684 C4676 1.574 . S
C4684 H4679 0.949 . S
C4684 C4690 1.368 . S
C4685 C4669 1.349 . S
C4685 H4677 0.950 1_565 S
C4685 C4683 1.327 . S
C4686 C4674 1.349 . S
C4686 H4680 0.950 . S
C4686 C4687 1.327 . S
C4687 H4681 0.950 . S
C4687 C4686 1.327 . S
C4687 C4691 1.429 . S
C4688 C4671 1.574 . S
C4688 H4682 0.949 . S
C4688 C4692 1.368 . S
C4689 C4670 1.429 . S
C4689 C4683 1.429 . S
C4689 C4690 1.523 . S
C4690 C4671 1.368 . S
C4690 C4684 1.368 . S
C4690 C4689 1.523 . S
C4691 C4675 1.429 . S
C4691 C4687 1.429 . S
C4691 C4692 1.523 . S
C4692 C4676 1.368 . S
C4692 C4688 1.368 . S
C4692 C4691 1.523 . S
H4693 C4668 0.950 . S
H4694 C4670 0.950 . S
H4695 C4671 0.949 . S
H4696 C4673 0.950 . S
H4697 C4675 0.950 . S
C4698 C4699 1.349 . S
C4698 C4700 1.327 . S
C4698 H4723 0.950 . S
C4699 C4698 1.349 . S
C4699 C4715 1.349 . S
C4700 C4698 1.327 . S
C4700 C4719 1.429 . S
C4700 H4724 0.950 . S
C4701 C4718 1.574 . S
C4701 C4720 1.368 . S
C4701 H4725 0.949 . S
H4702 C4706 0.949 . S
C4703 C4704 1.349 . S
C4703 C4705 1.327 . S
C4703 H4726 0.950 . S
C4704 C4703 1.349 . S
C4704 C4716 1.349 . S
C4705 C4703 1.327 . S
C4705 C4721 1.429 . S
C4705 H4727 0.950 . S
C4706 H4702 0.949 . S
C4706 C4714 1.574 . S
C4706 C4722 1.368 . S
H4707 C4715 0.950 . S
H4708 C4713 0.950 . S
H4709 C4714 0.949 . S
H4710 C4716 0.950 . S
H4711 C4717 0.950 . S
H4712 C4718 0.949 . S
C4713 H4708 0.950 . S
C4713 C4715 1.327 . S
C4713 C4719 1.429 . S
C4714 C4706 1.574 . S
C4714 H4709 0.949 . S
C4714 C4720 1.368 . S
C4715 C4699 1.349 . S
C4715 H4707 0.950 . S
C4715 C4713 1.327 . S
C4716 C4704 1.349 . S
C4716 H4710 0.950 . S
C4716 C4717 1.327 . S
C4717 H4711 0.950 . S
C4717 C4716 1.327 . S
C4717 C4721 1.429 . S
C4718 C4701 1.574 . S
C4718 H4712 0.949 . S
C4718 C4722 1.368 . S
C4719 C4700 1.429 . S
C4719 C4713 1.429 . S
C4719 C4720 1.523 . S
C4720 C4701 1.368 . S
C4720 C4714 1.368 . S
C4720 C4719 1.523 . S
C4721 C4705 1.429 . S
C4721 C4717 1.429 . S
C4721 C4722 1.523 . S
C4722 C4706 1.368 . S
C4722 C4718 1.368 . S
C4722 C4721 1.523 . S
H4723 C4698 0.950 . S
H4724 C4700 0.950 . S
H4725 C4701 0.949 . S
H4726 C4703 0.950 . S
H4727 C4705 0.950 . S
C4728 C4729 1.349 . S
C4728 C4730 1.327 . S
C4728 H4753 0.950 . S
C4729 C4728 1.349 . S
C4729 C4745 1.349 . S
C4730 C4728 1.327 . S
C4730 C4749 1.429 . S
C4730 H4754 0.950 . S
C4731 C4748 1.574 . S
C4731 C4750 1.368 . S
C4731 H4755 0.949 . S
H4732 C4736 0.949 . S
C4733 C4734 1.349 . S
C4733 C4735 1.327 . S
C4733 H4756 0.950 1_565 S
C4734 C4733 1.349 . S
C4734 C4746 1.349 . S
C4735 C4733 1.327 . S
C4735 C4751 1.429 . S
C4735 H4757 0.950 . S
C4736 H4732 0.949 . S
C4736 C4744 1.574 . S
C4736 C4752 1.368 . S
H4737 C4745 0.950 . S
H4738 C4743 0.950 . S
H4739 C4744 0.949 . S
H4740 C4746 0.950 . S
H4741 C4747 0.950 . S
H4742 C4748 0.949 . S
C4743 H4738 0.950 . S
C4743 C4745 1.327 . S
C4743 C4749 1.429 . S
C4744 C4736 1.574 . S
C4744 H4739 0.949 . S
C4744 C4750 1.368 . S
C4745 C4729 1.349 . S
C4745 H4737 0.950 . S
C4745 C4743 1.327 . S
C4746 C4734 1.349 . S
C4746 H4740 0.950 . S
C4746 C4747 1.327 . S
C4747 H4741 0.950 . S
C4747 C4746 1.327 . S
C4747 C4751 1.429 . S
C4748 C4731 1.574 . S
C4748 H4742 0.949 . S
C4748 C4752 1.368 . S
C4749 C4730 1.429 . S
C4749 C4743 1.429 . S
C4749 C4750 1.523 . S
C4750 C4731 1.368 . S
C4750 C4744 1.368 . S
C4750 C4749 1.523 . S
C4751 C4735 1.429 . S
C4751 C4747 1.429 . S
C4751 C4752 1.523 . S
C4752 C4736 1.368 . S
C4752 C4748 1.368 . S
C4752 C4751 1.523 . S
H4753 C4728 0.950 . S
H4754 C4730 0.950 . S
H4755 C4731 0.949 . S
H4756 C4733 0.950 1_545 S
H4757 C4735 0.950 . S
C4758 C4759 1.349 . S
C4758 C4760 1.327 . S
C4758 H4783 0.950 . S
C4759 C4758 1.349 . S
C4759 C4775 1.349 . S
C4760 C4758 1.327 . S
C4760 C4779 1.429 . S
C4760 H4784 0.950 . S
C4761 C4778 1.574 . S
C4761 C4780 1.368 . S
C4761 H4785 0.949 . S
H4762 C4766 0.949 . S
C4763 C4764 1.349 . S
C4763 C4765 1.327 . S
C4763 H4786 0.950 . S
C4764 C4763 1.349 . S
C4764 C4776 1.349 . S
C4765 C4763 1.327 . S
C4765 C4781 1.429 . S
C4765 H4787 0.950 . S
C4766 H4762 0.949 . S
C4766 C4774 1.574 . S
C4766 C4782 1.368 . S
H4767 C4775 0.950 1_545 S
H4768 C4773 0.950 . S
H4769 C4774 0.949 . S
H4770 C4776 0.950 . S
H4771 C4777 0.950 . S
H4772 C4778 0.949 . S
C4773 H4768 0.950 . S
C4773 C4775 1.327 . S
C4773 C4779 1.429 . S
C4774 C4766 1.574 . S
C4774 H4769 0.949 . S
C4774 C4780 1.368 . S
C4775 C4759 1.349 . S
C4775 H4767 0.950 1_565 S
C4775 C4773 1.327 . S
C4776 C4764 1.349 . S
C4776 H4770 0.950 . S
C4776 C4777 1.327 . S
C4777 H4771 0.950 . S
C4777 C4776 1.327 . S
C4777 C4781 1.429 . S
C4778 C4761 1.574 . S
C4778 H4772 0.949 . S
C4778 C4782 1.368 . S
C4779 C4760 1.429 . S
C4779 C4773 1.429 . S
C4779 C4780 1.523 . S
C4780 C4761 1.368 . S
C4780 C4774 1.368 . S
C4780 C4779 1.523 . S
C4781 C4765 1.429 . S
C4781 C4777 1.429 . S
C4781 C4782 1.523 . S
C4782 C4766 1.368 . S
C4782 C4778 1.368 . S
C4782 C4781 1.523 . S
H4783 C4758 0.950 . S
H4784 C4760 0.950 . S
H4785 C4761 0.949 . S
H4786 C4763 0.950 . S
H4787 C4765 0.950 . S
C4788 C4789 1.349 . S
C4788 C4790 1.327 . S
C4788 H4813 0.950 . S
C4789 C4788 1.349 . S
C4789 C4805 1.349 . S
C4790 C4788 1.327 . S
C4790 C4809 1.429 . S
C4790 H4814 0.950 . S
C4791 C4808 1.574 . S
C4791 C4810 1.368 . S
C4791 H4815 0.949 . S
H4792 C4796 0.949 . S
C4793 C4794 1.349 . S
C4793 C4795 1.327 . S
C4793 H4816 0.950 . S
C4794 C4793 1.349 . S
C4794 C4806 1.349 . S
C4795 C4793 1.327 . S
C4795 C4811 1.429 . S
C4795 H4817 0.950 . S
C4796 H4792 0.949 . S
C4796 C4804 1.574 . S
C4796 C4812 1.368 . S
H4797 C4805 0.950 . S
H4798 C4803 0.950 . S
H4799 C4804 0.949 . S
H4800 C4806 0.950 . S
H4801 C4807 0.950 . S
H4802 C4808 0.949 . S
C4803 H4798 0.950 . S
C4803 C4805 1.327 . S
C4803 C4809 1.429 . S
C4804 C4796 1.574 . S
C4804 H4799 0.949 . S
C4804 C4810 1.368 . S
C4805 C4789 1.349 . S
C4805 H4797 0.950 . S
C4805 C4803 1.327 . S
C4806 C4794 1.349 . S
C4806 H4800 0.950 . S
C4806 C4807 1.327 . S
C4807 H4801 0.950 . S
C4807 C4806 1.327 . S
C4807 C4811 1.429 . S
C4808 C4791 1.574 . S
C4808 H4802 0.949 . S
C4808 C4812 1.368 . S
C4809 C4790 1.429 . S
C4809 C4803 1.429 . S
C4809 C4810 1.523 . S
C4810 C4791 1.368 . S
C4810 C4804 1.368 . S
C4810 C4809 1.523 . S
C4811 C4795 1.429 . S
C4811 C4807 1.429 . S
C4811 C4812 1.523 . S
C4812 C4796 1.368 . S
C4812 C4808 1.368 . S
C4812 C4811 1.523 . S
H4813 C4788 0.950 . S
H4814 C4790 0.950 . S
H4815 C4791 0.949 . S
H4816 C4793 0.950 . S
H4817 C4795 0.950 . S
C4818 C4819 1.349 . S
C4818 C4820 1.327 . S
C4818 H4843 0.950 1_545 S
C4819 C4818 1.349 . S
C4819 C4835 1.349 . S
C4820 C4818 1.327 . S
C4820 C4839 1.429 . S
C4820 H4844 0.950 . S
C4821 C4838 1.574 . S
C4821 C4840 1.368 . S
C4821 H4845 0.949 . S
H4822 C4826 0.949 . S
C4823 C4824 1.349 . S
C4823 C4825 1.327 . S
C4823 H4846 0.950 . S
C4824 C4823 1.349 . S
C4824 C4836 1.349 . S
C4825 C4823 1.327 . S
C4825 C4841 1.429 . S
C4825 H4847 0.950 . S
C4826 H4822 0.949 . S
C4826 C4834 1.574 . S
C4826 C4842 1.368 . S
H4827 C4835 0.950 . S
H4828 C4833 0.950 . S
H4829 C4834 0.949 . S
H4830 C4836 0.950 . S
H4831 C4837 0.950 . S
H4832 C4838 0.949 . S
C4833 H4828 0.950 . S
C4833 C4835 1.327 . S
C4833 C4839 1.429 . S
C4834 C4826 1.574 . S
C4834 H4829 0.949 . S
C4834 C4840 1.368 . S
C4835 C4819 1.349 . S
C4835 H4827 0.950 . S
C4835 C4833 1.327 . S
C4836 C4824 1.349 . S
C4836 H4830 0.950 . S
C4836 C4837 1.327 . S
C4837 H4831 0.950 . S
C4837 C4836 1.327 . S
C4837 C4841 1.429 . S
C4838 C4821 1.574 . S
C4838 H4832 0.949 . S
C4838 C4842 1.368 . S
C4839 C4820 1.429 . S
C4839 C4833 1.429 . S
C4839 C4840 1.523 . S
C4840 C4821 1.368 . S
C4840 C4834 1.368 . S
C4840 C4839 1.523 . S
C4841 C4825 1.429 . S
C4841 C4837 1.429 . S
C4841 C4842 1.523 . S
C4842 C4826 1.368 . S
C4842 C4838 1.368 . S
C4842 C4841 1.523 . S
H4843 C4818 0.950 1_565 S
H4844 C4820 0.950 . S
H4845 C4821 0.949 . S
H4846 C4823 0.950 . S
H4847 C4825 0.950 . S
C4848 C4849 1.349 . S
C4848 C4850 1.327 . S
C4848 H4873 0.950 . S
C4849 C4848 1.349 . S
C4849 C4865 1.349 . S
C4850 C4848 1.327 . S
C4850 C4869 1.429 . S
C4850 H4874 0.950 . S
C4851 C4868 1.574 . S
C4851 C4870 1.368 . S
C4851 H4875 0.949 . S
H4852 C4856 0.949 . S
C4853 C4854 1.349 . S
C4853 C4855 1.327 . S
C4853 H4876 0.950 . S
C4854 C4853 1.349 . S
C4854 C4866 1.349 . S
C4855 C4853 1.327 . S
C4855 C4871 1.429 . S
C4855 H4877 0.950 . S
C4856 H4852 0.949 . S
C4856 C4864 1.574 . S
C4856 C4872 1.368 . S
H4857 C4865 0.950 . S
H4858 C4863 0.950 . S
H4859 C4864 0.949 . S
H4860 C4866 0.950 . S
H4861 C4867 0.950 . S
H4862 C4868 0.949 . S
C4863 H4858 0.950 . S
C4863 C4865 1.327 . S
C4863 C4869 1.429 . S
C4864 C4856 1.574 . S
C4864 H4859 0.949 . S
C4864 C4870 1.368 . S
C4865 C4849 1.349 . S
C4865 H4857 0.950 . S
C4865 C4863 1.327 . S
C4866 C4854 1.349 . S
C4866 H4860 0.950 . S
C4866 C4867 1.327 . S
C4867 H4861 0.950 . S
C4867 C4866 1.327 . S
C4867 C4871 1.429 . S
C4868 C4851 1.574 . S
C4868 H4862 0.949 . S
C4868 C4872 1.368 . S
C4869 C4850 1.429 . S
C4869 C4863 1.429 . S
C4869 C4870 1.523 . S
C4870 C4851 1.368 . S
C4870 C4864 1.368 . S
C4870 C4869 1.523 . S
C4871 C4855 1.429 . S
C4871 C4867 1.429 . S
C4871 C4872 1.523 . S
C4872 C4856 1.368 . S
C4872 C4868 1.368 . S
C4872 C4871 1.523 . S
H4873 C4848 0.950 . S
H4874 C4850 0.950 . S
H4875 C4851 0.949 . S
H4876 C4853 0.950 . S
H4877 C4855 0.950 . S
C4878 C4879 1.349 . S
C4878 C4880 1.327 . S
C4878 H4903 0.950 . S
C4879 C4878 1.349 . S
C4879 C4895 1.349 . S
C4880 C4878 1.327 . S
C4880 C4899 1.429 . S
C4880 H4904 0.950 . S
C4881 C4898 1.574 . S
C4881 C4900 1.368 . S
C4881 H4905 0.949 . S
H4882 C4886 0.949 . S
C4883 C4884 1.349 . S
C4883 C4885 1.327 . S
C4883 H4906 0.950 . S
C4884 C4883 1.349 . S
C4884 C4896 1.349 . S
C4885 C4883 1.327 . S
C4885 C4901 1.429 . S
C4885 H4907 0.950 . S
C4886 H4882 0.949 . S
C4886 C4894 1.574 . S
C4886 C4902 1.368 . S
H4887 C4895 0.950 . S
H4888 C4893 0.950 . S
H4889 C4894 0.949 . S
H4890 C4896 0.950 . S
H4891 C4897 0.950 . S
H4892 C4898 0.949 . S
C4893 H4888 0.950 . S
C4893 C4895 1.327 . S
C4893 C4899 1.429 . S
C4894 C4886 1.574 . S
C4894 H4889 0.949 . S
C4894 C4900 1.368 . S
C4895 C4879 1.349 . S
C4895 H4887 0.950 . S
C4895 C4893 1.327 . S
C4896 C4884 1.349 . S
C4896 H4890 0.950 . S
C4896 C4897 1.327 . S
C4897 H4891 0.950 . S
C4897 C4896 1.327 . S
C4897 C4901 1.429 . S
C4898 C4881 1.574 . S
C4898 H4892 0.949 . S
C4898 C4902 1.368 . S
C4899 C4880 1.429 . S
C4899 C4893 1.429 . S
C4899 C4900 1.523 . S
C4900 C4881 1.368 . S
C4900 C4894 1.368 . S
C4900 C4899 1.523 . S
C4901 C4885 1.429 . S
C4901 C4897 1.429 . S
C4901 C4902 1.523 . S
C4902 C4886 1.368 . S
C4902 C4898 1.368 . S
C4902 C4901 1.523 . S
H4903 C4878 0.950 . S
H4904 C4880 0.950 . S
H4905 C4881 0.949 . S
H4906 C4883 0.950 . S
H4907 C4885 0.950 . S
C4908 C4909 1.349 . S
C4908 C4910 1.327 . S
C4908 H4933 0.950 . S
C4909 C4908 1.349 . S
C4909 C4925 1.349 . S
C4910 C4908 1.327 . S
C4910 C4929 1.429 . S
C4910 H4934 0.950 . S
C4911 C4928 1.574 . S
C4911 C4930 1.368 . S
C4911 H4935 0.949 . S
H4912 C4916 0.949 . S
C4913 C4914 1.349 . S
C4913 C4915 1.327 . S
C4913 H4936 0.950 . S
C4914 C4913 1.349 . S
C4914 C4926 1.349 . S
C4915 C4913 1.327 . S
C4915 C4931 1.429 . S
C4915 H4937 0.950 . S
C4916 H4912 0.949 . S
C4916 C4924 1.574 . S
C4916 C4932 1.368 . S
H4917 C4925 0.950 . S
H4918 C4923 0.950 . S
H4919 C4924 0.949 . S
H4920 C4926 0.950 . S
H4921 C4927 0.950 . S
H4922 C4928 0.949 . S
C4923 H4918 0.950 . S
C4923 C4925 1.327 . S
C4923 C4929 1.429 . S
C4924 C4916 1.574 . S
C4924 H4919 0.949 . S
C4924 C4930 1.368 . S
C4925 C4909 1.349 . S
C4925 H4917 0.950 . S
C4925 C4923 1.327 . S
C4926 C4914 1.349 . S
C4926 H4920 0.950 . S
C4926 C4927 1.327 . S
C4927 H4921 0.950 . S
C4927 C4926 1.327 . S
C4927 C4931 1.429 . S
C4928 C4911 1.574 . S
C4928 H4922 0.949 . S
C4928 C4932 1.368 . S
C4929 C4910 1.429 . S
C4929 C4923 1.429 . S
C4929 C4930 1.523 . S
C4930 C4911 1.368 . S
C4930 C4924 1.368 . S
C4930 C4929 1.523 . S
C4931 C4915 1.429 . S
C4931 C4927 1.429 . S
C4931 C4932 1.523 . S
C4932 C4916 1.368 . S
C4932 C4928 1.368 . S
C4932 C4931 1.523 . S
H4933 C4908 0.950 . S
H4934 C4910 0.950 . S
H4935 C4911 0.949 . S
H4936 C4913 0.950 . S
H4937 C4915 0.950 . S
C4938 C4939 1.349 . S
C4938 C4940 1.327 . S
C4938 H4963 0.950 . S
C4939 C4938 1.349 . S
C4939 C4955 1.349 . S
C4940 C4938 1.327 . S
C4940 C4959 1.429 . S
C4940 H4964 0.950 . S
C4941 C4958 1.574 . S
C4941 C4960 1.368 . S
C4941 H4965 0.949 . S
H4942 C4946 0.949 . S
C4943 C4944 1.349 . S
C4943 C4945 1.327 . S
C4943 H4966 0.950 . S
C4944 C4943 1.349 . S
C4944 C4956 1.349 . S
C4945 C4943 1.327 . S
C4945 C4961 1.429 . S
C4945 H4967 0.950 . S
C4946 H4942 0.949 . S
C4946 C4954 1.574 . S
C4946 C4962 1.368 . S
H4947 C4955 0.950 . S
H4948 C4953 0.950 . S
H4949 C4954 0.949 . S
H4950 C4956 0.950 . S
H4951 C4957 0.950 . S
H4952 C4958 0.949 . S
C4953 H4948 0.950 . S
C4953 C4955 1.327 . S
C4953 C4959 1.429 . S
C4954 C4946 1.574 . S
C4954 H4949 0.949 . S
C4954 C4960 1.368 . S
C4955 C4939 1.349 . S
C4955 H4947 0.950 . S
C4955 C4953 1.327 . S
C4956 C4944 1.349 . S
C4956 H4950 0.950 . S
C4956 C4957 1.327 . S
C4957 H4951 0.950 . S
C4957 C4956 1.327 . S
C4957 C4961 1.429 . S
C4958 C4941 1.574 . S
C4958 H4952 0.949 . S
C4958 C4962 1.368 . S
C4959 C4940 1.429 . S
C4959 C4953 1.429 . S
C4959 C4960 1.523 . S
C4960 C4941 1.368 . S
C4960 C4954 1.368 . S
C4960 C4959 1.523 . S
C4961 C4945 1.429 . S
C4961 C4957 1.429 . S
C4961 C4962 1.523 . S
C4962 C4946 1.368 . S
C4962 C4958 1.368 . S
C4962 C4961 1.523 . S
H4963 C4938 0.950 . S
H4964 C4940 0.950 . S
H4965 C4941 0.949 . S
H4966 C4943 0.950 . S
H4967 C4945 0.950 . S
C4968 C4969 1.349 . S
C4968 C4970 1.327 . S
C4968 H4993 0.950 . S
C4969 C4968 1.349 . S
C4969 C4985 1.349 . S
C4970 C4968 1.327 . S
C4970 C4989 1.429 . S
C4970 H4994 0.950 . S
C4971 C4988 1.574 . S
C4971 C4990 1.368 . S
C4971 H4995 0.949 . S
H4972 C4976 0.949 . S
C4973 C4974 1.349 . S
C4973 C4975 1.327 . S
C4973 H4996 0.950 . S
C4974 C4973 1.349 . S
C4974 C4986 1.349 . S
C4975 C4973 1.327 . S
C4975 C4991 1.429 . S
C4975 H4997 0.950 . S
C4976 H4972 0.949 . S
C4976 C4984 1.574 . S
C4976 C4992 1.368 . S
H4977 C4985 0.950 . S
H4978 C4983 0.950 . S
H4979 C4984 0.949 . S
H4980 C4986 0.950 . S
H4981 C4987 0.950 . S
H4982 C4988 0.949 . S
C4983 H4978 0.950 . S
C4983 C4985 1.327 . S
C4983 C4989 1.429 . S
C4984 C4976 1.574 . S
C4984 H4979 0.949 . S
C4984 C4990 1.368 . S
C4985 C4969 1.349 . S
C4985 H4977 0.950 . S
C4985 C4983 1.327 . S
C4986 C4974 1.349 . S
C4986 H4980 0.950 . S
C4986 C4987 1.327 . S
C4987 H4981 0.950 . S
C4987 C4986 1.327 . S
C4987 C4991 1.429 . S
C4988 C4971 1.574 . S
C4988 H4982 0.949 . S
C4988 C4992 1.368 . S
C4989 C4970 1.429 . S
C4989 C4983 1.429 . S
C4989 C4990 1.523 . S
C4990 C4971 1.368 . S
C4990 C4984 1.368 . S
C4990 C4989 1.523 . S
C4991 C4975 1.429 . S
C4991 C4987 1.429 . S
C4991 C4992 1.523 . S
C4992 C4976 1.368 . S
C4992 C4988 1.368 . S
C4992 C4991 1.523 . S
H4993 C4968 0.950 . S
H4994 C4970 0.950 . S
H4995 C4971 0.949 . S
H4996 C4973 0.950 . S
H4997 C4975 0.950 . S
C4998 C4999 1.349 . S
C4998 C5000 1.327 . S
C4998 H5023 0.950 . S
C4999 C4998 1.349 . S
C4999 C5015 1.349 . S
C5000 C4998 1.327 . S
C5000 C5019 1.429 . S
C5000 H5024 0.950 . S
C5001 C5018 1.574 . S
C5001 C5020 1.368 . S
C5001 H5025 0.949 . S
H5002 C5006 0.949 . S
C5003 C5004 1.349 . S
C5003 C5005 1.327 . S
C5003 H5026 0.950 . S
C5004 C5003 1.349 . S
C5004 C5016 1.349 . S
C5005 C5003 1.327 . S
C5005 C5021 1.429 . S
C5005 H5027 0.950 . S
C5006 H5002 0.949 . S
C5006 C5014 1.574 . S
C5006 C5022 1.368 . S
H5007 C5015 0.950 . S
H5008 C5013 0.950 . S
H5009 C5014 0.949 . S
H5010 C5016 0.950 . S
H5011 C5017 0.950 . S
H5012 C5018 0.949 . S
C5013 H5008 0.950 . S
C5013 C5015 1.327 . S
C5013 C5019 1.429 . S
C5014 C5006 1.574 . S
C5014 H5009 0.949 . S
C5014 C5020 1.368 . S
C5015 C4999 1.349 . S
C5015 H5007 0.950 . S
C5015 C5013 1.327 . S
C5016 C5004 1.349 . S
C5016 H5010 0.950 . S
C5016 C5017 1.327 . S
C5017 H5011 0.950 . S
C5017 C5016 1.327 . S
C5017 C5021 1.429 . S
C5018 C5001 1.574 . S
C5018 H5012 0.949 . S
C5018 C5022 1.368 . S
C5019 C5000 1.429 . S
C5019 C5013 1.429 . S
C5019 C5020 1.523 . S
C5020 C5001 1.368 . S
C5020 C5014 1.368 . S
C5020 C5019 1.523 . S
C5021 C5005 1.429 . S
C5021 C5017 1.429 . S
C5021 C5022 1.523 . S
C5022 C5006 1.368 . S
C5022 C5018 1.368 . S
C5022 C5021 1.523 . S
H5023 C4998 0.950 . S
H5024 C5000 0.950 . S
H5025 C5001 0.949 . S
H5026 C5003 0.950 . S
H5027 C5005 0.950 . S
C5028 C5029 1.349 . S
C5028 C5030 1.327 . S
C5028 H5053 0.950 . S
C5029 C5028 1.349 . S
C5029 C5045 1.349 . S
C5030 C5028 1.327 . S
C5030 C5049 1.429 . S
C5030 H5054 0.950 . S
C5031 C5048 1.574 . S
C5031 C5050 1.368 . S
C5031 H5055 0.949 . S
H5032 C5036 0.949 . S
C5033 C5034 1.349 . S
C5033 C5035 1.327 . S
C5033 H5056 0.950 . S
C5034 C5033 1.349 . S
C5034 C5046 1.349 . S
C5035 C5033 1.327 . S
C5035 C5051 1.429 . S
C5035 H5057 0.950 . S
C5036 H5032 0.949 . S
C5036 C5044 1.574 . S
C5036 C5052 1.368 . S
H5037 C5045 0.950 . S
H5038 C5043 0.950 . S
H5039 C5044 0.949 . S
H5040 C5046 0.950 . S
H5041 C5047 0.950 . S
H5042 C5048 0.949 . S
C5043 H5038 0.950 . S
C5043 C5045 1.327 . S
C5043 C5049 1.429 . S
C5044 C5036 1.574 . S
C5044 H5039 0.949 . S
C5044 C5050 1.368 . S
C5045 C5029 1.349 . S
C5045 H5037 0.950 . S
C5045 C5043 1.327 . S
C5046 C5034 1.349 . S
C5046 H5040 0.950 . S
C5046 C5047 1.327 . S
C5047 H5041 0.950 . S
C5047 C5046 1.327 . S
C5047 C5051 1.429 . S
C5048 C5031 1.574 . S
C5048 H5042 0.949 . S
C5048 C5052 1.368 . S
C5049 C5030 1.429 . S
C5049 C5043 1.429 . S
C5049 C5050 1.523 . S
C5050 C5031 1.368 . S
C5050 C5044 1.368 . S
C5050 C5049 1.523 . S
C5051 C5035 1.429 . S
C5051 C5047 1.429 . S
C5051 C5052 1.523 . S
C5052 C5036 1.368 . S
C5052 C5048 1.368 . S
C5052 C5051 1.523 . S
H5053 C5028 0.950 . S
H5054 C5030 0.950 . S
H5055 C5031 0.949 . S
H5056 C5033 0.950 . S
H5057 C5035 0.950 . S
C5058 C5059 1.349 . S
C5058 C5060 1.327 . S
C5058 H5083 0.950 . S
C5059 C5058 1.349 . S
C5059 C5075 1.349 . S
C5060 C5058 1.327 . S
C5060 C5079 1.429 . S
C5060 H5084 0.950 . S
C5061 C5078 1.574 . S
C5061 C5080 1.368 . S
C5061 H5085 0.949 . S
H5062 C5066 0.949 . S
C5063 C5064 1.349 . S
C5063 C5065 1.327 . S
C5063 H5086 0.950 . S
C5064 C5063 1.349 . S
C5064 C5076 1.349 . S
C5065 C5063 1.327 . S
C5065 C5081 1.429 . S
C5065 H5087 0.950 . S
C5066 H5062 0.949 . S
C5066 C5074 1.574 . S
C5066 C5082 1.368 . S
H5067 C5075 0.950 . S
H5068 C5073 0.950 . S
H5069 C5074 0.949 . S
H5070 C5076 0.950 . S
H5071 C5077 0.950 . S
H5072 C5078 0.949 . S
C5073 H5068 0.950 . S
C5073 C5075 1.327 . S
C5073 C5079 1.429 . S
C5074 C5066 1.574 . S
C5074 H5069 0.949 . S
C5074 C5080 1.368 . S
C5075 C5059 1.349 . S
C5075 H5067 0.950 . S
C5075 C5073 1.327 . S
C5076 C5064 1.349 . S
C5076 H5070 0.950 . S
C5076 C5077 1.327 . S
C5077 H5071 0.950 . S
C5077 C5076 1.327 . S
C5077 C5081 1.429 . S
C5078 C5061 1.574 . S
C5078 H5072 0.949 . S
C5078 C5082 1.368 . S
C5079 C5060 1.429 . S
C5079 C5073 1.429 . S
C5079 C5080 1.523 . S
C5080 C5061 1.368 . S
C5080 C5074 1.368 . S
C5080 C5079 1.523 . S
C5081 C5065 1.429 . S
C5081 C5077 1.429 . S
C5081 C5082 1.523 . S
C5082 C5066 1.368 . S
C5082 C5078 1.368 . S
C5082 C5081 1.523 . S
H5083 C5058 0.950 . S
H5084 C5060 0.950 . S
H5085 C5061 0.949 . S
H5086 C5063 0.950 . S
H5087 C5065 0.950 . S
C5088 C5089 1.349 . S
C5088 C5090 1.327 . S
C5088 H5113 0.950 . S
C5089 C5088 1.349 . S
C5089 C5105 1.349 . S
C5090 C5088 1.327 . S
C5090 C5109 1.429 . S
C5090 H5114 0.950 . S
C5091 C5108 1.574 . S
C5091 C5110 1.368 1_565 S
C5091 H5115 0.949 . S
H5092 C5096 0.949 . S
C5093 C5094 1.349 . S
C5093 C5095 1.327 . S
C5093 H5116 0.950 . S
C5094 C5093 1.349 . S
C5094 C5106 1.349 . S
C5095 C5093 1.327 . S
C5095 C5111 1.429 . S
C5095 H5117 0.950 . S
C5096 H5092 0.949 . S
C5096 C5104 1.574 . S
C5096 C5112 1.368 1_545 S
H5097 C5105 0.950 . S
H5098 C5103 0.950 . S
H5099 C5104 0.949 . S
H5100 C5106 0.950 . S
H5101 C5107 0.950 . S
H5102 C5108 0.949 . S
C5103 H5098 0.950 . S
C5103 C5105 1.327 . S
C5103 C5109 1.429 . S
C5104 C5096 1.574 . S
C5104 H5099 0.949 . S
C5104 C5110 1.368 . S
C5105 C5089 1.349 . S
C5105 H5097 0.950 . S
C5105 C5103 1.327 . S
C5106 C5094 1.349 . S
C5106 H5100 0.950 . S
C5106 C5107 1.327 . S
C5107 H5101 0.950 . S
C5107 C5106 1.327 . S
C5107 C5111 1.429 . S
C5108 C5091 1.574 . S
C5108 H5102 0.949 . S
C5108 C5112 1.368 . S
C5109 C5090 1.429 . S
C5109 C5103 1.429 . S
C5109 C5110 1.523 . S
C5110 C5091 1.368 1_545 S
C5110 C5104 1.368 . S
C5110 C5109 1.523 . S
C5111 C5095 1.429 . S
C5111 C5107 1.429 . S
C5111 C5112 1.523 . S
C5112 C5096 1.368 1_565 S
C5112 C5108 1.368 . S
C5112 C5111 1.523 . S
H5113 C5088 0.950 . S
H5114 C5090 0.950 . S
H5115 C5091 0.949 . S
H5116 C5093 0.950 . S
H5117 C5095 0.950 . S
C5118 C5119 1.349 . S
C5118 C5120 1.327 . S
C5118 H5143 0.950 . S
C5119 C5118 1.349 . S
C5119 C5135 1.349 . S
C5120 C5118 1.327 . S
C5120 C5139 1.429 . S
C5120 H5144 0.950 . S
C5121 C5138 1.574 . S
C5121 C5140 1.368 . S
C5121 H5145 0.960 . S
H5122 C5126 0.949 . S
C5123 C5124 1.349 . S
C5123 C5125 1.327 . S
C5123 H5146 0.950 . S
C5124 C5123 1.349 . S
C5124 C5136 1.349 . S
C5125 C5123 1.327 . S
C5125 C5141 1.429 . S
C5125 H5147 0.969 . S
C5126 H5122 0.949 . S
C5126 C5134 1.574 . S
C5126 C5142 1.368 . S
H5127 C5135 0.950 . S
H5128 C5133 0.969 . S
H5129 C5134 0.949 . S
H5130 C5136 0.950 . S
H5131 C5137 0.950 . S
H5132 C5138 0.960 . S
C5133 H5128 0.969 . S
C5133 C5135 1.327 . S
C5133 C5139 1.429 . S
C5134 C5126 1.574 . S
C5134 H5129 0.949 . S
C5134 C5140 1.368 . S
C5135 C5119 1.349 . S
C5135 H5127 0.950 . S
C5135 C5133 1.327 . S
C5136 C5124 1.349 . S
C5136 H5130 0.950 . S
C5136 C5137 1.327 . S
C5137 H5131 0.950 . S
C5137 C5136 1.327 . S
C5137 C5141 1.429 . S
C5138 C5121 1.574 . S
C5138 H5132 0.960 . S
C5138 C5142 1.368 . S
C5139 C5120 1.429 . S
C5139 C5133 1.429 . S
C5139 C5140 1.523 . S
C5140 C5121 1.368 . S
C5140 C5134 1.368 . S
C5140 C5139 1.523 . S
C5141 C5125 1.429 . S
C5141 C5137 1.429 . S
C5141 C5142 1.523 . S
C5142 C5126 1.368 . S
C5142 C5138 1.368 . S
C5142 C5141 1.523 . S
H5143 C5118 0.950 . S
H5144 C5120 0.950 . S
H5145 C5121 0.960 . S
H5146 C5123 0.950 . S
H5147 C5125 0.969 . S
C5148 C5149 1.349 . S
C5148 C5150 1.327 . S
C5148 H5173 0.950 . S
C5149 C5148 1.349 . S
C5149 C5165 1.349 . S
C5150 C5148 1.327 . S
C5150 C5169 1.429 . S
C5150 H5174 0.950 . S
C5151 C5168 1.574 . S
C5151 C5170 1.368 . S
C5151 H5175 0.949 . S
H5152 C5156 0.949 . S
C5153 C5154 1.349 . S
C5153 C5155 1.327 . S
C5153 H5176 0.950 . S
C5154 C5153 1.349 . S
C5154 C5166 1.349 . S
C5155 C5153 1.327 . S
C5155 C5171 1.429 . S
C5155 H5177 0.950 . S
C5156 H5152 0.949 . S
C5156 C5164 1.574 . S
C5156 C5172 1.368 . S
H5157 C5165 0.950 . S
H5158 C5163 0.950 . S
H5159 C5164 0.949 . S
H5160 C5166 0.950 . S
H5161 C5167 0.950 . S
H5162 C5168 0.949 . S
C5163 H5158 0.950 . S
C5163 C5165 1.327 . S
C5163 C5169 1.429 . S
C5164 C5156 1.574 . S
C5164 H5159 0.949 . S
C5164 C5170 1.368 1_565 S
C5165 C5149 1.349 . S
C5165 H5157 0.950 . S
C5165 C5163 1.327 . S
C5166 C5154 1.349 . S
C5166 H5160 0.950 . S
C5166 C5167 1.327 . S
C5167 H5161 0.950 . S
C5167 C5166 1.327 . S
C5167 C5171 1.429 . S
C5168 C5151 1.574 . S
C5168 H5162 0.949 . S
C5168 C5172 1.368 1_545 S
C5169 C5150 1.429 . S
C5169 C5163 1.429 . S
C5169 C5170 1.523 . S
C5170 C5151 1.368 . S
C5170 C5164 1.368 1_545 S
C5170 C5169 1.523 . S
C5171 C5155 1.429 . S
C5171 C5167 1.429 . S
C5171 C5172 1.523 . S
C5172 C5156 1.368 . S
C5172 C5168 1.368 1_565 S
C5172 C5171 1.523 . S
H5173 C5148 0.950 . S
H5174 C5150 0.950 . S
H5175 C5151 0.949 . S
H5176 C5153 0.950 . S
H5177 C5155 0.950 . S
C5178 C5179 1.349 . S
C5178 C5180 1.327 . S
C5178 H5203 0.950 . S
C5179 C5178 1.349 . S
C5179 C5195 1.349 . S
C5180 C5178 1.327 . S
C5180 C5199 1.429 . S
C5180 H5204 0.950 . S
C5181 C5198 1.593 . S
C5181 C5200 1.368 . S
C5181 H5205 0.960 . S
H5182 C5186 0.949 . S
C5183 C5184 1.349 . S
C5183 C5185 1.327 . S
C5183 H5206 0.950 . S
C5184 C5183 1.349 . S
C5184 C5196 1.349 . S
C5185 C5183 1.327 . S
C5185 C5201 1.429 . S
C5185 H5207 0.969 . S
C5186 H5182 0.949 . S
C5186 C5194 1.593 . S
C5186 C5202 1.368 . S
H5187 C5195 0.950 . S
H5188 C5193 0.969 . S
H5189 C5194 0.949 . S
H5190 C5196 0.950 . S
H5191 C5197 0.950 . S
H5192 C5198 0.960 . S
C5193 H5188 0.969 . S
C5193 C5195 1.327 . S
C5193 C5199 1.429 . S
C5194 C5186 1.593 . S
C5194 H5189 0.949 . S
C5194 C5200 1.349 1_554 S
C5195 C5179 1.349 . S
C5195 H5187 0.950 . S
C5195 C5193 1.327 . S
C5196 C5184 1.349 . S
C5196 H5190 0.950 . S
C5196 C5197 1.327 . S
C5197 H5191 0.950 . S
C5197 C5196 1.327 . S
C5197 C5201 1.429 . S
C5198 C5181 1.593 . S
C5198 H5192 0.960 . S
C5198 C5202 1.349 1_556 S
C5199 C5180 1.429 . S
C5199 C5193 1.429 . S
C5199 C5200 1.523 . S
C5200 C5181 1.368 . S
C5200 C5194 1.349 1_556 S
C5200 C5199 1.523 . S
C5201 C5185 1.429 . S
C5201 C5197 1.429 . S
C5201 C5202 1.523 . S
C5202 C5186 1.368 . S
C5202 C5198 1.349 1_554 S
C5202 C5201 1.523 . S
H5203 C5178 0.950 . S
H5204 C5180 0.950 . S
H5205 C5181 0.960 . S
H5206 C5183 0.950 . S
H5207 C5185 0.969 . S
C5208 C5209 1.349 . S
C5208 C5210 1.327 . S
C5208 H5233 0.950 . S
C5209 C5208 1.349 . S
C5209 C5225 1.349 . S
C5210 C5208 1.327 . S
C5210 C5229 1.429 . S
C5210 H5234 0.950 . S
C5211 C5228 1.574 1_565 S
C5211 C5230 1.368 . S
C5211 H5235 0.949 . S
H5212 C5216 0.949 . S
C5213 C5214 1.349 . S
C5213 C5215 1.327 . S
C5213 H5236 0.950 . S
C5214 C5213 1.349 . S
C5214 C5226 1.349 . S
C5215 C5213 1.327 . S
C5215 C5231 1.429 . S
C5215 H5237 0.950 . S
C5216 H5212 0.949 . S
C5216 C5224 1.574 1_545 S
C5216 C5232 1.368 . S
H5217 C5225 0.950 . S
H5218 C5223 0.950 . S
H5219 C5224 0.949 . S
H5220 C5226 0.950 . S
H5221 C5227 0.950 . S
H5222 C5228 0.949 . S
C5223 H5218 0.950 . S
C5223 C5225 1.327 . S
C5223 C5229 1.429 . S
C5224 C5216 1.574 1_565 S
C5224 H5219 0.949 . S
C5224 C5230 1.368 . S
C5225 C5209 1.349 . S
C5225 H5217 0.950 . S
C5225 C5223 1.327 . S
C5226 C5214 1.349 . S
C5226 H5220 0.950 . S
C5226 C5227 1.327 . S
C5227 H5221 0.950 . S
C5227 C5226 1.327 . S
C5227 C5231 1.429 . S
C5228 C5211 1.574 1_545 S
C5228 H5222 0.949 . S
C5228 C5232 1.368 . S
C5229 C5210 1.429 . S
C5229 C5223 1.429 . S
C5229 C5230 1.523 . S
C5230 C5211 1.368 . S
C5230 C5224 1.368 . S
C5230 C5229 1.523 . S
C5231 C5215 1.429 . S
C5231 C5227 1.429 . S
C5231 C5232 1.523 . S
C5232 C5216 1.368 . S
C5232 C5228 1.368 . S
C5232 C5231 1.523 . S
H5233 C5208 0.950 . S
H5234 C5210 0.950 . S
H5235 C5211 0.949 . S
H5236 C5213 0.950 . S
H5237 C5215 0.950 . S
C5238 C5239 1.349 . S
C5238 C5240 1.327 . S
C5238 H5263 0.950 . S
C5239 C5238 1.349 . S
C5239 C5255 1.349 . S
C5240 C5238 1.327 . S
C5240 C5259 1.429 . S
C5240 H5264 0.969 . S
C5241 C5258 1.574 . S
C5241 C5260 1.368 . S
C5241 H5265 0.949 . S
H5242 C5246 0.960 . S
C5243 C5244 1.349 . S
C5243 C5245 1.327 . S
C5243 H5266 0.950 . S
C5244 C5243 1.349 . S
C5244 C5256 1.349 . S
C5245 C5243 1.327 . S
C5245 C5261 1.429 . S
C5245 H5267 0.950 . S
C5246 H5242 0.960 . S
C5246 C5254 1.574 . S
C5246 C5262 1.368 . S
H5247 C5255 0.950 . S
H5248 C5253 0.950 . S
H5249 C5254 0.960 . S
H5250 C5256 0.950 . S
H5251 C5257 0.969 . S
H5252 C5258 0.949 . S
C5253 H5248 0.950 . S
C5253 C5255 1.327 . S
C5253 C5259 1.429 . S
C5254 C5246 1.574 . S
C5254 H5249 0.960 . S
C5254 C5260 1.368 . S
C5255 C5239 1.349 . S
C5255 H5247 0.950 . S
C5255 C5253 1.327 . S
C5256 C5244 1.349 . S
C5256 H5250 0.950 . S
C5256 C5257 1.327 . S
C5257 H5251 0.969 . S
C5257 C5256 1.327 . S
C5257 C5261 1.429 . S
C5258 C5241 1.574 . S
C5258 H5252 0.949 . S
C5258 C5262 1.368 . S
C5259 C5240 1.429 . S
C5259 C5253 1.429 . S
C5259 C5260 1.523 . S
C5260 C5241 1.368 . S
C5260 C5254 1.368 . S
C5260 C5259 1.523 . S
C5261 C5245 1.429 . S
C5261 C5257 1.429 . S
C5261 C5262 1.523 . S
C5262 C5246 1.368 . S
C5262 C5258 1.368 . S
C5262 C5261 1.523 . S
H5263 C5238 0.950 . S
H5264 C5240 0.969 . S
H5265 C5241 0.949 . S
H5266 C5243 0.950 . S
H5267 C5245 0.950 . S
C5268 C5269 1.349 . S
C5268 C5270 1.327 . S
C5268 H5293 0.950 . S
C5269 C5268 1.349 . S
C5269 C5285 1.349 . S
C5270 C5268 1.327 . S
C5270 C5289 1.429 . S
C5270 H5294 0.950 . S
C5271 C5288 1.574 1_565 S
C5271 C5290 1.368 . S
C5271 H5295 0.949 . S
H5272 C5276 0.949 . S
C5273 C5274 1.349 . S
C5273 C5275 1.327 . S
C5273 H5296 0.950 . S
C5274 C5273 1.349 . S
C5274 C5286 1.349 . S
C5275 C5273 1.327 . S
C5275 C5291 1.429 . S
C5275 H5297 0.950 . S
C5276 H5272 0.949 . S
C5276 C5284 1.574 1_545 S
C5276 C5292 1.368 . S
H5277 C5285 0.950 . S
H5278 C5283 0.950 . S
H5279 C5284 0.949 . S
H5280 C5286 0.950 . S
H5281 C5287 0.950 . S
H5282 C5288 0.949 . S
C5283 H5278 0.950 . S
C5283 C5285 1.327 . S
C5283 C5289 1.429 . S
C5284 C5276 1.574 1_565 S
C5284 H5279 0.949 . S
C5284 C5290 1.368 . S
C5285 C5269 1.349 . S
C5285 H5277 0.950 . S
C5285 C5283 1.327 . S
C5286 C5274 1.349 . S
C5286 H5280 0.950 . S
C5286 C5287 1.327 . S
C5287 H5281 0.950 . S
C5287 C5286 1.327 . S
C5287 C5291 1.429 . S
C5288 C5271 1.574 1_545 S
C5288 H5282 0.949 . S
C5288 C5292 1.368 . S
C5289 C5270 1.429 . S
C5289 C5283 1.429 . S
C5289 C5290 1.523 . S
C5290 C5271 1.368 . S
C5290 C5284 1.368 . S
C5290 C5289 1.523 . S
C5291 C5275 1.429 . S
C5291 C5287 1.429 . S
C5291 C5292 1.523 . S
C5292 C5276 1.368 . S
C5292 C5288 1.368 . S
C5292 C5291 1.523 . S
H5293 C5268 0.950 . S
H5294 C5270 0.950 . S
H5295 C5271 0.949 . S
H5296 C5273 0.950 . S
H5297 C5275 0.950 . S
C5298 C5299 1.349 . S
C5298 C5300 1.327 . S
C5298 H5323 0.950 . S
C5299 C5298 1.349 . S
C5299 C5315 1.349 . S
C5300 C5298 1.327 . S
C5300 C5319 1.429 . S
C5300 H5324 0.969 . S
C5301 C5318 1.593 . S
C5301 C5320 1.368 . S
C5301 H5325 0.949 . S
H5302 C5306 0.960 . S
C5303 C5304 1.349 . S
C5303 C5305 1.327 . S
C5303 H5326 0.950 . S
C5304 C5303 1.349 . S
C5304 C5316 1.349 . S
C5305 C5303 1.327 . S
C5305 C5321 1.429 . S
C5305 H5327 0.950 . S
C5306 H5302 0.960 . S
C5306 C5314 1.593 . S
C5306 C5322 1.368 . S
H5307 C5315 0.950 . S
H5308 C5313 0.950 . S
H5309 C5314 0.960 . S
H5310 C5316 0.950 . S
H5311 C5317 0.969 . S
H5312 C5318 0.949 . S
C5313 H5308 0.950 . S
C5313 C5315 1.327 . S
C5313 C5319 1.429 . S
C5314 C5306 1.593 . S
C5314 H5309 0.960 . S
C5314 C5320 1.349 1_556 S
C5315 C5299 1.349 . S
C5315 H5307 0.950 . S
C5315 C5313 1.327 . S
C5316 C5304 1.349 . S
C5316 H5310 0.950 . S
C5316 C5317 1.327 . S
C5317 H5311 0.969 . S
C5317 C5316 1.327 . S
C5317 C5321 1.429 . S
C5318 C5301 1.593 . S
C5318 H5312 0.949 . S
C5318 C5322 1.349 1_554 S
C5319 C5300 1.429 . S
C5319 C5313 1.429 . S
C5319 C5320 1.523 . S
C5320 C5301 1.368 . S
C5320 C5314 1.349 1_554 S
C5320 C5319 1.523 . S
C5321 C5305 1.429 . S
C5321 C5317 1.429 . S
C5321 C5322 1.523 . S
C5322 C5306 1.368 . S
C5322 C5318 1.349 1_556 S
C5322 C5321 1.523 . S
H5323 C5298 0.950 . S
H5324 C5300 0.969 . S
H5325 C5301 0.949 . S
H5326 C5303 0.950 . S
H5327 C5305 0.950 . S
C5328 C5329 1.349 . S
C5328 C5330 1.327 . S
C5328 H5353 0.950 . S
C5329 C5328 1.349 . S
C5329 C5345 1.349 . S
C5330 C5328 1.327 . S
C5330 C5349 1.429 . S
C5330 H5354 0.950 . S
C5331 C5348 1.574 . S
C5331 C5350 1.368 . S
C5331 H5355 0.949 . S
H5332 C5336 0.949 . S
C5333 C5334 1.349 . S
C5333 C5335 1.327 . S
C5333 H5356 0.950 . S
C5334 C5333 1.349 . S
C5334 C5346 1.349 . S
C5335 C5333 1.327 . S
C5335 C5351 1.429 . S
C5335 H5357 0.950 . S
C5336 H5332 0.949 . S
C5336 C5344 1.574 . S
C5336 C5352 1.368 . S
H5337 C5345 0.950 . S
H5338 C5343 0.950 . S
H5339 C5344 0.949 . S
H5340 C5346 0.950 . S
H5341 C5347 0.950 . S
H5342 C5348 0.949 . S
C5343 H5338 0.950 . S
C5343 C5345 1.327 . S
C5343 C5349 1.429 . S
C5344 C5336 1.574 . S
C5344 H5339 0.949 . S
C5344 C5350 1.368 . S
C5345 C5329 1.349 . S
C5345 H5337 0.950 . S
C5345 C5343 1.327 . S
C5346 C5334 1.349 . S
C5346 H5340 0.950 . S
C5346 C5347 1.327 . S
C5347 H5341 0.950 . S
C5347 C5346 1.327 . S
C5347 C5351 1.429 . S
C5348 C5331 1.574 . S
C5348 H5342 0.949 . S
C5348 C5352 1.368 . S
C5349 C5330 1.429 . S
C5349 C5343 1.429 . S
C5349 C5350 1.523 . S
C5350 C5331 1.368 . S
C5350 C5344 1.368 . S
C5350 C5349 1.523 . S
C5351 C5335 1.429 . S
C5351 C5347 1.429 . S
C5351 C5352 1.523 . S
C5352 C5336 1.368 . S
C5352 C5348 1.368 . S
C5352 C5351 1.523 . S
H5353 C5328 0.950 . S
H5354 C5330 0.950 . S
H5355 C5331 0.949 . S
H5356 C5333 0.950 . S
H5357 C5335 0.950 . S
C5358 C5359 1.349 . S
C5358 C5360 1.327 . S
C5358 H5383 0.950 . S
C5359 C5358 1.349 . S
C5359 C5375 1.349 . S
C5360 C5358 1.327 . S
C5360 C5379 1.429 . S
C5360 H5384 0.950 . S
C5361 C5378 1.593 . S
C5361 C5380 1.368 . S
C5361 H5385 0.949 . S
H5362 C5366 0.949 . S
C5363 C5364 1.349 . S
C5363 C5365 1.327 . S
C5363 H5386 0.950 . S
C5364 C5363 1.349 . S
C5364 C5376 1.349 . S
C5365 C5363 1.327 . S
C5365 C5381 1.429 . S
C5365 H5387 0.950 . S
C5366 H5362 0.949 . S
C5366 C5374 1.593 . S
C5366 C5382 1.368 . S
H5367 C5375 0.950 . S
H5368 C5373 0.950 . S
H5369 C5374 0.949 . S
H5370 C5376 0.950 . S
H5371 C5377 0.950 . S
H5372 C5378 0.949 . S
C5373 H5368 0.950 . S
C5373 C5375 1.327 . S
C5373 C5379 1.429 . S
C5374 C5366 1.593 . S
C5374 H5369 0.949 . S
C5374 C5380 1.349 1_554 S
C5375 C5359 1.349 . S
C5375 H5367 0.950 . S
C5375 C5373 1.327 . S
C5376 C5364 1.349 . S
C5376 H5370 0.950 . S
C5376 C5377 1.327 . S
C5377 H5371 0.950 . S
C5377 C5376 1.327 . S
C5377 C5381 1.429 . S
C5378 C5361 1.593 . S
C5378 H5372 0.949 . S
C5378 C5382 1.349 1_556 S
C5379 C5360 1.429 . S
C5379 C5373 1.429 . S
C5379 C5380 1.523 . S
C5380 C5361 1.368 . S
C5380 C5374 1.349 1_556 S
C5380 C5379 1.523 . S
C5381 C5365 1.429 . S
C5381 C5377 1.429 . S
C5381 C5382 1.523 . S
C5382 C5366 1.368 . S
C5382 C5378 1.349 1_554 S
C5382 C5381 1.523 . S
H5383 C5358 0.950 . S
H5384 C5360 0.950 . S
H5385 C5361 0.949 . S
H5386 C5363 0.950 . S
H5387 C5365 0.950 . S
C5388 C5389 1.349 . S
C5388 C5390 1.327 . S
C5388 H5413 0.950 . S
C5389 C5388 1.349 . S
C5389 C5405 1.349 . S
C5390 C5388 1.327 . S
C5390 C5409 1.429 . S
C5390 H5414 0.950 . S
C5391 C5408 1.574 . S
C5391 C5410 1.368 . S
C5391 H5415 0.949 . S
H5392 C5396 0.949 . S
C5393 C5394 1.349 . S
C5393 C5395 1.327 . S
C5393 H5416 0.950 . S
C5394 C5393 1.349 . S
C5394 C5406 1.349 . S
C5395 C5393 1.327 . S
C5395 C5411 1.429 . S
C5395 H5417 0.950 . S
C5396 H5392 0.949 . S
C5396 C5404 1.574 . S
C5396 C5412 1.368 . S
H5397 C5405 0.950 . S
H5398 C5403 0.950 . S
H5399 C5404 0.949 . S
H5400 C5406 0.950 . S
H5401 C5407 0.950 . S
H5402 C5408 0.949 . S
C5403 H5398 0.950 . S
C5403 C5405 1.327 . S
C5403 C5409 1.429 . S
C5404 C5396 1.574 . S
C5404 H5399 0.949 . S
C5404 C5410 1.368 . S
C5405 C5389 1.349 . S
C5405 H5397 0.950 . S
C5405 C5403 1.327 . S
C5406 C5394 1.349 . S
C5406 H5400 0.950 . S
C5406 C5407 1.327 . S
C5407 H5401 0.950 . S
C5407 C5406 1.327 . S
C5407 C5411 1.429 . S
C5408 C5391 1.574 . S
C5408 H5402 0.949 . S
C5408 C5412 1.368 . S
C5409 C5390 1.429 . S
C5409 C5403 1.429 . S
C5409 C5410 1.523 . S
C5410 C5391 1.368 . S
C5410 C5404 1.368 . S
C5410 C5409 1.523 . S
C5411 C5395 1.429 . S
C5411 C5407 1.429 . S
C5411 C5412 1.523 . S
C5412 C5396 1.368 . S
C5412 C5408 1.368 . S
C5412 C5411 1.523 . S
H5413 C5388 0.950 . S
H5414 C5390 0.950 . S
H5415 C5391 0.949 . S
H5416 C5393 0.950 . S
H5417 C5395 0.950 . S
C5418 C5419 1.349 . S
C5418 C5420 1.327 . S
C5418 H5443 0.950 . S
C5419 C5418 1.349 . S
C5419 C5435 1.349 . S
C5420 C5418 1.327 . S
C5420 C5439 1.429 . S
C5420 H5444 0.950 . S
C5421 C5438 1.574 . S
C5421 C5440 1.368 . S
C5421 H5445 0.949 . S
H5422 C5426 0.949 . S
C5423 C5424 1.349 . S
C5423 C5425 1.327 . S
C5423 H5446 0.950 . S
C5424 C5423 1.349 . S
C5424 C5436 1.349 . S
C5425 C5423 1.327 . S
C5425 C5441 1.429 . S
C5425 H5447 0.950 . S
C5426 H5422 0.949 . S
C5426 C5434 1.574 . S
C5426 C5442 1.368 . S
H5427 C5435 0.950 . S
H5428 C5433 0.950 . S
H5429 C5434 0.949 . S
H5430 C5436 0.950 . S
H5431 C5437 0.950 . S
H5432 C5438 0.949 . S
C5433 H5428 0.950 . S
C5433 C5435 1.327 . S
C5433 C5439 1.429 . S
C5434 C5426 1.574 . S
C5434 H5429 0.949 . S
C5434 C5440 1.368 . S
C5435 C5419 1.349 . S
C5435 H5427 0.950 . S
C5435 C5433 1.327 . S
C5436 C5424 1.349 . S
C5436 H5430 0.950 . S
C5436 C5437 1.327 . S
C5437 H5431 0.950 . S
C5437 C5436 1.327 . S
C5437 C5441 1.429 . S
C5438 C5421 1.574 . S
C5438 H5432 0.949 . S
C5438 C5442 1.368 . S
C5439 C5420 1.429 . S
C5439 C5433 1.429 . S
C5439 C5440 1.523 . S
C5440 C5421 1.368 . S
C5440 C5434 1.368 . S
C5440 C5439 1.523 . S
C5441 C5425 1.429 . S
C5441 C5437 1.429 . S
C5441 C5442 1.523 . S
C5442 C5426 1.368 . S
C5442 C5438 1.368 . S
C5442 C5441 1.523 . S
H5443 C5418 0.950 . S
H5444 C5420 0.950 . S
H5445 C5421 0.949 . S
H5446 C5423 0.950 . S
H5447 C5425 0.950 . S
C5448 C5449 1.349 . S
C5448 C5450 1.327 . S
C5448 H5473 0.950 . S
C5449 C5448 1.349 . S
C5449 C5465 1.349 . S
C5450 C5448 1.327 . S
C5450 C5469 1.429 . S
C5450 H5474 0.950 . S
C5451 C5468 1.574 . S
C5451 C5470 1.368 . S
C5451 H5475 0.949 . S
H5452 C5456 0.949 . S
C5453 C5454 1.349 . S
C5453 C5455 1.327 . S
C5453 H5476 0.950 . S
C5454 C5453 1.349 . S
C5454 C5466 1.349 . S
C5455 C5453 1.327 . S
C5455 C5471 1.429 . S
C5455 H5477 0.950 . S
C5456 H5452 0.949 . S
C5456 C5464 1.574 . S
C5456 C5472 1.368 . S
H5457 C5465 0.950 . S
H5458 C5463 0.950 . S
H5459 C5464 0.949 . S
H5460 C5466 0.950 . S
H5461 C5467 0.950 . S
H5462 C5468 0.949 . S
C5463 H5458 0.950 . S
C5463 C5465 1.327 . S
C5463 C5469 1.429 . S
C5464 C5456 1.574 . S
C5464 H5459 0.949 . S
C5464 C5470 1.368 . S
C5465 C5449 1.349 . S
C5465 H5457 0.950 . S
C5465 C5463 1.327 . S
C5466 C5454 1.349 . S
C5466 H5460 0.950 . S
C5466 C5467 1.327 . S
C5467 H5461 0.950 . S
C5467 C5466 1.327 . S
C5467 C5471 1.429 . S
C5468 C5451 1.574 . S
C5468 H5462 0.949 . S
C5468 C5472 1.368 . S
C5469 C5450 1.429 . S
C5469 C5463 1.429 . S
C5469 C5470 1.523 . S
C5470 C5451 1.368 . S
C5470 C5464 1.368 . S
C5470 C5469 1.523 . S
C5471 C5455 1.429 . S
C5471 C5467 1.429 . S
C5471 C5472 1.523 . S
C5472 C5456 1.368 . S
C5472 C5468 1.368 . S
C5472 C5471 1.523 . S
H5473 C5448 0.950 . S
H5474 C5450 0.950 . S
H5475 C5451 0.949 . S
H5476 C5453 0.950 . S
H5477 C5455 0.950 . S
C5478 C5479 1.349 . S
C5478 C5480 1.327 . S
C5478 H5503 0.950 . S
C5479 C5478 1.349 . S
C5479 C5495 1.349 . S
C5480 C5478 1.327 . S
C5480 C5499 1.429 . S
C5480 H5504 0.950 . S
C5481 C5498 1.593 . S
C5481 C5500 1.368 . S
C5481 H5505 0.949 . S
H5482 C5486 0.949 . S
C5483 C5484 1.349 . S
C5483 C5485 1.327 . S
C5483 H5506 0.950 . S
C5484 C5483 1.349 . S
C5484 C5496 1.349 . S
C5485 C5483 1.327 . S
C5485 C5501 1.429 . S
C5485 H5507 0.950 . S
C5486 H5482 0.949 . S
C5486 C5494 1.593 . S
C5486 C5502 1.368 . S
H5487 C5495 0.950 . S
H5488 C5493 0.950 . S
H5489 C5494 0.949 . S
H5490 C5496 0.950 . S
H5491 C5497 0.950 . S
H5492 C5498 0.949 . S
C5493 H5488 0.950 . S
C5493 C5495 1.327 . S
C5493 C5499 1.429 . S
C5494 C5486 1.593 . S
C5494 H5489 0.949 . S
C5494 C5500 1.349 1_554 S
C5495 C5479 1.349 . S
C5495 H5487 0.950 . S
C5495 C5493 1.327 . S
C5496 C5484 1.349 . S
C5496 H5490 0.950 . S
C5496 C5497 1.327 . S
C5497 H5491 0.950 . S
C5497 C5496 1.327 . S
C5497 C5501 1.429 . S
C5498 C5481 1.593 . S
C5498 H5492 0.949 . S
C5498 C5502 1.349 1_556 S
C5499 C5480 1.429 . S
C5499 C5493 1.429 . S
C5499 C5500 1.523 . S
C5500 C5481 1.368 . S
C5500 C5494 1.349 1_556 S
C5500 C5499 1.523 . S
C5501 C5485 1.429 . S
C5501 C5497 1.429 . S
C5501 C5502 1.523 . S
C5502 C5486 1.368 . S
C5502 C5498 1.349 1_554 S
C5502 C5501 1.523 . S
H5503 C5478 0.950 . S
H5504 C5480 0.950 . S
H5505 C5481 0.949 . S
H5506 C5483 0.950 . S
H5507 C5485 0.950 . S
C5508 C5509 1.349 . S
C5508 C5510 1.327 . S
C5508 H5533 0.950 . S
C5509 C5508 1.349 . S
C5509 C5525 1.349 . S
C5510 C5508 1.327 . S
C5510 C5529 1.429 . S
C5510 H5534 0.950 . S
C5511 C5528 1.574 . S
C5511 C5530 1.368 . S
C5511 H5535 0.949 . S
H5512 C5516 0.949 . S
C5513 C5514 1.349 . S
C5513 C5515 1.327 . S
C5513 H5536 0.950 . S
C5514 C5513 1.349 . S
C5514 C5526 1.349 . S
C5515 C5513 1.327 . S
C5515 C5531 1.429 . S
C5515 H5537 0.950 . S
C5516 H5512 0.949 . S
C5516 C5524 1.574 . S
C5516 C5532 1.368 . S
H5517 C5525 0.950 . S
H5518 C5523 0.950 . S
H5519 C5524 0.949 . S
H5520 C5526 0.950 . S
H5521 C5527 0.950 . S
H5522 C5528 0.949 . S
C5523 H5518 0.950 . S
C5523 C5525 1.327 . S
C5523 C5529 1.429 . S
C5524 C5516 1.574 . S
C5524 H5519 0.949 . S
C5524 C5530 1.368 . S
C5525 C5509 1.349 . S
C5525 H5517 0.950 . S
C5525 C5523 1.327 . S
C5526 C5514 1.349 . S
C5526 H5520 0.950 . S
C5526 C5527 1.327 . S
C5527 H5521 0.950 . S
C5527 C5526 1.327 . S
C5527 C5531 1.429 . S
C5528 C5511 1.574 . S
C5528 H5522 0.949 . S
C5528 C5532 1.368 . S
C5529 C5510 1.429 . S
C5529 C5523 1.429 . S
C5529 C5530 1.523 . S
C5530 C5511 1.368 . S
C5530 C5524 1.368 . S
C5530 C5529 1.523 . S
C5531 C5515 1.429 . S
C5531 C5527 1.429 . S
C5531 C5532 1.523 . S
C5532 C5516 1.368 . S
C5532 C5528 1.368 . S
C5532 C5531 1.523 . S
H5533 C5508 0.950 . S
H5534 C5510 0.950 . S
H5535 C5511 0.949 . S
H5536 C5513 0.950 . S
H5537 C5515 0.950 . S
C5538 C5539 1.349 . S
C5538 C5540 1.327 . S
C5538 H5563 0.950 . S
C5539 C5538 1.349 . S
C5539 C5555 1.349 . S
C5540 C5538 1.327 . S
C5540 C5559 1.429 . S
C5540 H5564 0.950 . S
C5541 C5558 1.574 . S
C5541 C5560 1.368 . S
C5541 H5565 0.949 . S
H5542 C5546 0.949 . S
C5543 C5544 1.349 . S
C5543 C5545 1.327 . S
C5543 H5566 0.950 . S
C5544 C5543 1.349 . S
C5544 C5556 1.349 . S
C5545 C5543 1.327 . S
C5545 C5561 1.429 . S
C5545 H5567 0.950 . S
C5546 H5542 0.949 . S
C5546 C5554 1.574 . S
C5546 C5562 1.368 . S
H5547 C5555 0.950 . S
H5548 C5553 0.950 . S
H5549 C5554 0.949 . S
H5550 C5556 0.950 . S
H5551 C5557 0.950 . S
H5552 C5558 0.949 . S
C5553 H5548 0.950 . S
C5553 C5555 1.327 . S
C5553 C5559 1.429 . S
C5554 C5546 1.574 . S
C5554 H5549 0.949 . S
C5554 C5560 1.368 . S
C5555 C5539 1.349 . S
C5555 H5547 0.950 . S
C5555 C5553 1.327 . S
C5556 C5544 1.349 . S
C5556 H5550 0.950 . S
C5556 C5557 1.327 . S
C5557 H5551 0.950 . S
C5557 C5556 1.327 . S
C5557 C5561 1.429 . S
C5558 C5541 1.574 . S
C5558 H5552 0.949 . S
C5558 C5562 1.368 . S
C5559 C5540 1.429 . S
C5559 C5553 1.429 . S
C5559 C5560 1.523 . S
C5560 C5541 1.368 . S
C5560 C5554 1.368 . S
C5560 C5559 1.523 . S
C5561 C5545 1.429 . S
C5561 C5557 1.429 . S
C5561 C5562 1.523 . S
C5562 C5546 1.368 . S
C5562 C5558 1.368 . S
C5562 C5561 1.523 . S
H5563 C5538 0.950 . S
H5564 C5540 0.950 . S
H5565 C5541 0.949 . S
H5566 C5543 0.950 . S
H5567 C5545 0.950 . S
C2689 C70 0.704 . S
C2694 C2323 0.502 . S
C2719 C154 0.704 . S
C2724 C727 0.502 . S
C2749 C238 0.704 . S
C2754 C2155 0.502 . S
C2779 C895 0.502 . S
C2784 C322 0.704 . S
C2809 C406 0.704 . S
C2814 C2491 0.502 . S
C2839 C1231 0.502 . S
C2844 C490 0.704 . S
C2869 C2659 0.502 . S
C2874 C574 0.704 . S
C2899 C658 0.704 . S
C2904 C1063 0.502 . S
C2929 C730 0.704 . S
C2934 C1663 0.502 . S
C2959 C814 0.704 . S
C2964 C67 0.502 . S
C2989 C1495 0.502 . S
C2994 C898 0.704 . S
C3019 C235 0.502 . S
C3024 C982 0.704 . S
C3049 C1066 0.704 . S
C3054 C1831 0.502 . S
C3079 C1150 0.704 . S
C3084 C571 0.502 . S
C3109 C1234 0.704 . S
C3114 C1999 0.502 . S
C3139 C403 0.502 . S
C3144 C1318 0.704 . S
C3169 C979 0.502 . S
C3174 C1414 0.704 . S
C3199 C2071 0.502 . S
C3204 C1498 0.704 . S
C3229 C811 0.502 . S
C3234 C1582 0.704 . S
C3259 C1666 0.705 . S
C3264 C2239 0.502 . S
C3289 C1147 0.502 . S
C3294 C1750 0.704 . S
C3319 C2575 0.502 . S
C3324 C1834 0.705 . S
C3349 C1315 0.502 . S
C3354 C1918 0.704 . S
C3379 C2002 0.704 . S
C3384 C2407 0.502 . S
C3409 C2074 0.704 . S
C3414 C319 0.502 . S
C3439 C2158 0.704 . S
C3444 C1411 0.502 . S
C3469 C2242 0.704 . S
C3474 C151 0.502 . S
C3499 C2326 0.705 . S
C3504 C1579 0.502 . S
C3529 C487 0.502 . S
C3534 C2410 0.704 . S
C3559 C1915 0.502 . S
C3564 C2494 0.705 . S
C3589 C2578 0.704 . S
C3594 C655 0.502 . S
C3619 C2662 0.704 . S
C3624 C1747 0.502 . S
C3649 C56 3.047 . S
C3654 C1568 3.047 . S
C3679 C1652 3.047 . S
C3684 C140 3.047 . S
C3709 C224 3.046 . S
C3714 C1400 3.046 . S
C3739 C308 3.047 . S
C3744 C1484 3.047 . S
C3769 C1904 3.047 . S
C3774 C392 3.047 . S
C3799 C476 3.047 . S
C3804 C1988 3.047 . S
C3829 C1736 3.046 . S
C3834 C560 3.046 . S
C3859 C644 3.047 . S
C3864 C1820 3.047 . S
C3889 C2252 3.047 . S
C3894 C740 3.047 . S
C3919 C824 3.047 . S
C3924 C2336 3.047 . S
C3949 C908 3.046 . S
C3954 C2084 3.046 . S
C3979 C992 3.047 . S
C3984 C2168 3.047 . S
C4009 C2588 3.047 . S
C4014 C1076 3.047 . S
C4039 C2672 3.047 . S
C4044 C1160 3.047 . S
C4069 C1244 3.046 . S
C4074 C2420 3.046 . S
C4099 C1328 3.047 . S
C4104 C2504 3.047 . S
C4129 C55 2.656 . S
C4134 C2083 2.656 . S
C4159 C823 2.656 . S
C4164 C139 2.656 . S
C4189 C223 2.657 . S
C4194 C2251 2.657 . S
C4219 C307 2.656 . S
C4224 C991 2.656 . S
C4249 C2419 2.656 . S
C4254 C391 2.656 . S
C4279 C1159 2.656 . S
C4284 C475 2.656 . S
C4309 C559 2.657 . S
C4314 C2587 2.657 . S
C4339 C643 2.656 . S
C4344 C1327 2.656 . S
C4369 C1399 2.656 . S
C4374 C739 2.656 . S
C4399 C1567 2.657 . S
C4404 C907 2.657 . S
C4429 C1735 2.656 . S
C4434 C1075 2.656 . S
C4459 C1243 2.657 . S
C4464 C1903 2.657 . S
C4489 C1483 2.657 . S
C4494 C2167 2.657 . S
C4519 C1651 2.657 . S
C4524 C2335 2.657 . S
C4549 C2503 2.657 . S
C4554 C1819 2.657 . S
C4579 C2671 2.657 . S
C4584 C1987 2.657 . S
C4609 C68 4.324 . S
C4614 C488 4.324 1_545 S
C4639 C572 4.325 . S
C4644 C152 4.325 1_545 S
C4669 C656 4.325 1_565 S
C4674 C236 4.325 . S
C4699 C404 4.324 . S
C4704 C320 4.324 1_565 S
C4729 C728 4.324 . S
C4734 C1148 4.324 1_565 S
C4759 C812 4.325 1_565 S
C4764 C1232 4.325 . S
C4789 C1316 4.325 1_545 S
C4794 C896 4.325 . S
C4819 C980 4.324 1_545 S
C4824 C1064 4.324 . S
C4849 C1412 4.325 . S
C4854 C1832 4.325 . S
C4879 C1496 4.325 . S
C4884 C1916 4.325 . S
C4909 C1580 4.325 . S
C4914 C2000 4.325 . S
C4939 C1748 4.325 . S
C4944 C1664 4.325 . S
C4969 C2072 4.325 . S
C4974 C2492 4.325 . S
C4999 C2156 4.325 . S
C5004 C2576 4.325 . S
C5029 C2660 4.325 . S
C5034 C2240 4.325 . S
C5059 C2324 4.325 . S
C5064 C2408 4.325 . S
C5089 C58 1.090 . S
C5094 C394 1.090 . S
C5119 C142 1.090 . S
C5124 C478 1.090 . S
C5149 C562 1.090 . S
C5154 C226 1.090 . S
C5179 C646 1.090 . S
C5184 C310 1.090 . S
C5209 C742 1.090 . S
C5214 C1078 1.090 . S
C5239 C1162 1.090 . S
C5244 C826 1.090 . S
C5269 C1246 1.090 . S
C5274 C910 1.090 . S
C5299 C1330 1.090 . S
C5304 C994 1.090 . S
C5329 C1402 1.090 . S
C5334 C1738 1.090 . S
C5359 C1822 1.090 . S
C5364 C1486 1.090 . S
C5389 C1570 1.090 . S
C5394 C1906 1.090 . S
C5419 C1990 1.090 . S
C5424 C1654 1.090 . S
C5449 C2422 1.090 . S
C5454 C2086 1.090 . S
C5479 C2170 1.090 . S
C5484 C2506 1.090 . S
C5509 C2254 1.090 . S
C5514 C2590 1.090 . S
C5539 C2338 1.090 . S
C5544 C2674 1.090 . S
