# Generated by pormake.
# Topology soh, (5)-cn, num edge types: 1
# Building blocks:
#     Node 0, Type 0, BuildingBlock: BEQFEK_clean_sbu_0, # of connection points: 5
#     Node 1, Type 0, BuildingBlock: BEQFEK_clean_sbu_0, # of connection points: 5
#     Node 2, Type 0, BuildingBlock: BEQFEK_clean_sbu_0, # of connection points: 5
#     Node 3, Type 0, BuildingBlock: BEQFEK_clean_sbu_0, # of connection points: 5
#     Node 4, Type 0, BuildingBlock: BEQFEK_clean_sbu_0, # of connection points: 5
#     Node 5, Type 0, BuildingBlock: BEQFEK_clean_sbu_0, # of connection points: 5
#     Node 6, Type 0, BuildingBlock: BEQFEK_clean_sbu_0, # of connection points: 5
#     Node 7, Type 0, BuildingBlock: BEQFEK_clean_sbu_0, # of connection points: 5
#     Node 8, Type 0, BuildingBlock: BEQFEK_clean_sbu_0, # of connection points: 5
#     Node 9, Type 0, BuildingBlock: BEQFEK_clean_sbu_0, # of connection points: 5
#     Node 10, Type 0, BuildingBlock: BEQFEK_clean_sbu_0, # of connection points: 5
#     Node 11, Type 0, BuildingBlock: BEQFEK_clean_sbu_0, # of connection points: 5
#     Node 12, Type 0, BuildingBlock: BEQFEK_clean_sbu_0, # of connection points: 5
#     Node 13, Type 0, BuildingBlock: BEQFEK_clean_sbu_0, # of connection points: 5
#     Node 14, Type 0, BuildingBlock: BEQFEK_clean_sbu_0, # of connection points: 5
#     Node 15, Type 0, BuildingBlock: BEQFEK_clean_sbu_0, # of connection points: 5
#     Node 16, Type 0, BuildingBlock: BEQFEK_clean_sbu_0, # of connection points: 5
#     Node 17, Type 0, BuildingBlock: BEQFEK_clean_sbu_0, # of connection points: 5
#     Node 18, Type 0, BuildingBlock: BEQFEK_clean_sbu_0, # of connection points: 5
#     Node 19, Type 0, BuildingBlock: BEQFEK_clean_sbu_0, # of connection points: 5
#     Node 20, Type 0, BuildingBlock: BEQFEK_clean_sbu_0, # of connection points: 5
#     Node 21, Type 0, BuildingBlock: BEQFEK_clean_sbu_0, # of connection points: 5
#     Node 22, Type 0, BuildingBlock: BEQFEK_clean_sbu_0, # of connection points: 5
#     Node 23, Type 0, BuildingBlock: BEQFEK_clean_sbu_0, # of connection points: 5
#     Node 24, Type 0, BuildingBlock: BEQFEK_clean_sbu_0, # of connection points: 5
#     Node 25, Type 0, BuildingBlock: BEQFEK_clean_sbu_0, # of connection points: 5
#     Node 26, Type 0, BuildingBlock: BEQFEK_clean_sbu_0, # of connection points: 5
#     Node 27, Type 0, BuildingBlock: BEQFEK_clean_sbu_0, # of connection points: 5
#     Node 28, Type 0, BuildingBlock: BEQFEK_clean_sbu_0, # of connection points: 5
#     Node 29, Type 0, BuildingBlock: BEQFEK_clean_sbu_0, # of connection points: 5
#     Node 30, Type 0, BuildingBlock: BEQFEK_clean_sbu_0, # of connection points: 5
#     Node 31, Type 0, BuildingBlock: BEQFEK_clean_sbu_0, # of connection points: 5
#     Edge 32, Type (0, 0), None
#     Edge 33, Type (0, 0), None
#     Edge 34, Type (0, 0), None
#     Edge 35, Type (0, 0), None
#     Edge 36, Type (0, 0), None
#     Edge 37, Type (0, 0), None
#     Edge 38, Type (0, 0), None
#     Edge 39, Type (0, 0), None
#     Edge 40, Type (0, 0), None
#     Edge 41, Type (0, 0), None
#     Edge 42, Type (0, 0), None
#     Edge 43, Type (0, 0), None
#     Edge 44, Type (0, 0), None
#     Edge 45, Type (0, 0), None
#     Edge 46, Type (0, 0), None
#     Edge 47, Type (0, 0), None
#     Edge 48, Type (0, 0), None
#     Edge 49, Type (0, 0), None
#     Edge 50, Type (0, 0), None
#     Edge 51, Type (0, 0), None
#     Edge 52, Type (0, 0), None
#     Edge 53, Type (0, 0), None
#     Edge 54, Type (0, 0), None
#     Edge 55, Type (0, 0), None
#     Edge 56, Type (0, 0), None
#     Edge 57, Type (0, 0), None
#     Edge 58, Type (0, 0), None
#     Edge 59, Type (0, 0), None
#     Edge 60, Type (0, 0), None
#     Edge 61, Type (0, 0), None
#     Edge 62, Type (0, 0), None
#     Edge 63, Type (0, 0), None
#     Edge 64, Type (0, 0), None
#     Edge 65, Type (0, 0), None
#     Edge 66, Type (0, 0), None
#     Edge 67, Type (0, 0), None
#     Edge 68, Type (0, 0), None
#     Edge 69, Type (0, 0), None
#     Edge 70, Type (0, 0), None
#     Edge 71, Type (0, 0), None
#     Edge 72, Type (0, 0), None
#     Edge 73, Type (0, 0), None
#     Edge 74, Type (0, 0), None
#     Edge 75, Type (0, 0), None
#     Edge 76, Type (0, 0), None
#     Edge 77, Type (0, 0), None
#     Edge 78, Type (0, 0), None
#     Edge 79, Type (0, 0), None
#     Edge 80, Type (0, 0), None
#     Edge 81, Type (0, 0), None
#     Edge 82, Type (0, 0), None
#     Edge 83, Type (0, 0), None
#     Edge 84, Type (0, 0), None
#     Edge 85, Type (0, 0), None
#     Edge 86, Type (0, 0), None
#     Edge 87, Type (0, 0), None
#     Edge 88, Type (0, 0), None
#     Edge 89, Type (0, 0), None
#     Edge 90, Type (0, 0), None
#     Edge 91, Type (0, 0), None
#     Edge 92, Type (0, 0), None
#     Edge 93, Type (0, 0), None
#     Edge 94, Type (0, 0), None
#     Edge 95, Type (0, 0), None
#     Edge 96, Type (0, 0), None
#     Edge 97, Type (0, 0), None
#     Edge 98, Type (0, 0), None
#     Edge 99, Type (0, 0), None
#     Edge 100, Type (0, 0), None
#     Edge 101, Type (0, 0), None
#     Edge 102, Type (0, 0), None
#     Edge 103, Type (0, 0), None
#     Edge 104, Type (0, 0), None
#     Edge 105, Type (0, 0), None
#     Edge 106, Type (0, 0), None
#     Edge 107, Type (0, 0), None
#     Edge 108, Type (0, 0), None
#     Edge 109, Type (0, 0), None
#     Edge 110, Type (0, 0), None
#     Edge 111, Type (0, 0), None
# Relax obj value: 0.746
# Max RMSD: 0.223
# Mean RMSD: 0.223
data_MOF--net-soh--node1-BEQFEK_clean_sbu_0--edge1-none
_symmetry_space_group_name_H-M    P1
_symmetry_Int_Tables_number       1
_symmetry_cell_setting            triclinic
loop_
_symmetry_equiv_pos_as_xyz
'x, y, z'
_cell_length_a     34.364576
_cell_length_b     19.946658
_cell_length_c     23.952523
_cell_angle_alpha  90.000123
_cell_angle_beta   90.008798
_cell_angle_gamma 89.995947
loop_
_atom_site_label
_atom_site_type_symbol
_atom_site_fract_x
_atom_site_fract_y
_atom_site_fract_z
_atom_type_partial_charge
Co0 Co 0.29446 0.34536 0.22149 0.0
Co1 Co 0.25446 0.44636 0.28353 0.0
C2 C 0.346 0.43145 0.2754 0.0
O3 O 0.34341 0.37888 0.24688 0.0
O4 O 0.31498 0.46356 0.28899 0.0
C5 C 0.33588 0.23305 0.19709 0.0
O6 O 0.36662 0.26886 0.2083 0.0
C7 C 0.24644 0.48414 0.39057 0.0
C8 C 0.18288 0.47581 0.39434 0.0
C9 C 0.21619 0.46557 0.42541 0.0
N10 N 0.23167 0.49667 0.33993 0.0
N11 N 0.19341 0.49534 0.34308 0.0
C12 C 0.28756 0.50083 0.40525 0.0
H13 H 0.29903 0.53876 0.3759 0.0
H14 H 0.30637 0.45614 0.40074 0.0
H15 H 0.28915 0.52197 0.44798 0.0
C16 C 0.27047 0.26179 0.32474 0.0
N17 N 0.2675 0.31406 0.28792 0.0
N18 N 0.23836 0.3519 0.30225 0.0
C19 C 0.21891 0.31978 0.34458 0.0
C20 C 0.23865 0.26121 0.36101 0.0
C21 C 0.30602 0.21972 0.33249 0.0
H22 H 0.29971 0.16746 0.31978 0.0
H23 H 0.33097 0.24042 0.30893 0.0
H24 H 0.31389 0.21808 0.37744 0.0
O25 O 0.27092 0.41412 0.16049 0.0
O26 O 0.23656 0.4858 0.20983 0.0
H27 H 0.16059 0.28355 0.34977 0.0
H28 H 0.17401 0.34098 0.40283 0.0
C29 C 0.17698 0.33058 0.35774 0.0
H30 H 0.16417 0.37062 0.33148 0.0
H31 H 0.17494 0.49531 0.30851 0.0
O32 O 0.30358 0.26096 0.18736 0.0
C33 C 0.2493 0.46693 0.16249 0.0
Co34 Co 0.93591 1.04979 0.22142 0.0
Co35 Co 0.97587 0.94883 0.28366 0.0
C36 C 0.88437 0.9638 0.27555 0.0
O37 O 0.88699 1.01617 0.24677 0.0
O38 O 0.91536 0.93171 0.28931 0.0
C39 C 0.89445 0.16211 0.19714 0.0
O40 O 0.86374 0.12638 0.20869 0.0
C41 C 0.98403 0.91102 0.39069 0.0
C42 C 0.04759 0.91945 0.39433 0.0
C43 C 0.01431 0.92961 0.42547 0.0
N44 N -0.00126 0.89855 0.34002 0.0
N45 N 0.037 0.89993 0.34308 0.0
C46 C 0.94296 0.89413 0.4055 0.0
H47 H 0.93154 0.85599 0.37627 0.0
H48 H 0.92405 0.93869 0.40092 0.0
H49 H 0.94145 0.87318 0.44831 0.0
C50 C 0.95985 0.13344 0.32468 0.0
N51 N 0.96285 0.08116 0.28787 0.0
N52 N -0.00802 1.04333 0.30226 0.0
C53 C 0.01141 0.07549 0.34461 0.0
C54 C -0.00834 0.13406 0.36097 0.0
C55 C 0.92427 0.17543 0.33244 0.0
H56 H 0.93052 0.22769 0.31967 0.0
H57 H 0.89931 0.15462 0.30895 0.0
H58 H 0.91644 0.17711 0.3774 0.0
O59 O 0.95952 0.98111 0.16047 0.0
O60 O -0.00633 0.90927 0.20996 0.0
H61 H 0.06972 0.11179 0.34988 0.0
H62 H 0.0563 1.05433 0.4029 0.0
C63 C 0.05334 1.06474 0.35781 0.0
H64 H 0.06618 1.02473 0.33155 0.0
H65 H 0.05543 0.89999 0.30848 0.0
O66 O 0.92671 0.13412 0.18723 0.0
C67 C 0.98105 0.9282 0.16257 0.0
Co68 Co 0.29449 1.04976 0.18365 0.0
Co69 Co 0.25452 0.94883 0.1214 0.0
C70 C 0.34602 0.96376 0.12952 0.0
O71 O 0.34339 1.01612 0.1583 0.0
O72 O 0.31502 0.93168 0.11576 0.0
C73 C 0.33595 0.16207 0.20792 0.0
O74 O 0.36665 0.12636 0.19629 0.0
C75 C 0.24636 0.91102 1.01438 0.0
C76 C 0.1828 0.91947 1.01073 0.0
C77 C 0.21608 0.92963 0.9796 0.0
N78 N 0.23165 0.89855 1.06505 0.0
N79 N 0.19339 0.89994 1.06198 0.0
C80 C 0.28743 0.89411 0.99957 0.0
H81 H 0.29885 0.85597 1.0288 0.0
H82 H 0.30634 0.93866 1.00417 0.0
H83 H 0.28894 0.87318 0.95676 0.0
C84 C 0.27056 0.13342 0.08038 0.0
N85 N 0.26755 0.08115 0.1172 0.0
N86 N 0.23841 1.04333 0.1028 0.0
C87 C 0.21899 0.0755 1.06046 0.0
C88 C 0.23875 0.13407 1.04409 0.0
C89 C 0.30615 0.17538 1.07262 0.0
H90 H 0.2999 0.22765 0.08538 0.0
H91 H 0.3311 0.15456 0.0961 0.0
H92 H 0.31397 0.17706 1.02765 0.0
O93 O 0.27088 0.98109 0.2446 0.0
O94 O 0.23672 0.90927 0.19511 0.0
H95 H 0.16068 0.11182 1.05518 0.0
H96 H 0.1741 1.05436 1.00215 0.0
C97 C 0.17705 1.06476 1.04724 0.0
H98 H 0.16421 1.02476 1.0735 0.0
H99 H 0.17495 0.90001 0.09658 0.0
O100 O 0.3037 0.13409 0.21785 0.0
C101 C 0.24935 0.92819 0.2425 0.0
Co102 Co 0.93595 0.34538 0.18356 0.0
Co103 Co 0.97598 0.44636 0.12153 0.0
C104 C 0.88443 0.43151 0.12964 0.0
O105 O 0.88701 0.37894 0.15815 0.0
O106 O 0.91546 0.46362 0.11606 0.0
C107 C 0.89449 0.23309 0.20793 0.0
O108 O 0.86378 0.26888 0.19655 0.0
C109 C 0.984 0.48414 1.01448 0.0
C110 C 0.04755 0.4758 1.0107 0.0
C111 C 0.01424 0.46557 0.97963 0.0
N112 N -0.00123 0.49665 1.06512 0.0
N113 N 0.03702 0.49532 1.06197 0.0
C114 C 0.94288 0.50085 0.99981 0.0
H115 H 0.9314 0.53879 1.02916 0.0
H116 H 0.92406 0.45617 1.00432 0.0
H117 H 0.94128 0.52199 0.95708 0.0
C118 C 0.95995 0.26178 0.08032 0.0
N119 N 0.96292 0.31405 0.11714 0.0
N120 N -0.00794 0.35189 0.10281 0.0
C121 C 0.01151 0.31976 1.06048 0.0
C122 C -0.00822 0.26118 1.04405 0.0
C123 C 0.9244 0.21971 1.07256 0.0
H124 H 0.93071 0.16746 0.0853 0.0
H125 H 0.89945 0.24044 0.09609 0.0
H126 H 0.91655 0.21805 1.02761 0.0
O127 O 0.9595 0.41413 0.24457 0.0
O128 O -0.00612 0.48578 0.19524 0.0
H129 H 0.06984 0.28354 1.05526 0.0
H130 H 0.0564 0.34097 1.00222 0.0
C131 C 0.05344 0.33057 1.04731 0.0
H132 H 0.06625 0.3706 1.07357 0.0
H133 H 0.0555 0.49528 0.09653 0.0
O134 O 0.92679 0.261 0.2177 0.0
C135 C 0.98113 0.46692 0.24257 0.0
Co136 Co 0.68597 0.79989 0.93353 0.0
Co137 Co 0.72602 0.69892 0.8715 0.0
C138 C 0.63447 0.71373 0.87961 0.0
O139 O 0.63705 0.7663 0.90813 0.0
O140 O 0.6655 0.68164 0.86601 0.0
C141 C 0.6445 0.91219 0.95782 0.0
O142 O 0.61379 0.87639 0.94642 0.0
C143 C 0.73406 0.66117 0.76445 0.0
C144 C 0.79761 0.66958 0.76067 0.0
C145 C 0.76429 0.67979 0.72961 0.0
N146 N 0.74884 0.64865 0.81509 0.0
N147 N 0.78709 0.65003 0.81193 0.0
C148 C 0.69295 0.64442 0.74978 0.0
H149 H 0.68149 0.60646 0.77911 0.0
H150 H 0.67411 0.68908 0.75429 0.0
H151 H 0.69136 0.6233 0.70703 0.0
C152 C 0.70995 0.88347 0.83027 0.0
N153 N 0.71293 0.83122 0.8671 0.0
N154 N 0.74209 0.7934 0.85279 0.0
C155 C 0.76154 0.82554 0.81046 0.0
C156 C 0.74178 0.88409 0.79402 0.0
C157 C 0.67438 0.9255 0.82248 0.0
H158 H 0.68066 0.97776 0.83524 0.0
H159 H 0.64943 0.90474 0.84599 0.0
H160 H 0.66655 0.92717 0.77752 0.0
O161 O 0.70953 0.73115 0.99453 0.0
O162 O 0.74392 0.6595 0.94521 0.0
H163 H 0.81985 0.86183 0.80533 0.0
H164 H 0.80647 0.80441 0.75224 0.0
C165 C 0.80348 0.81478 0.79733 0.0
H166 H 0.8163 0.77475 0.8236 0.0
H167 H 0.80557 0.65007 0.8465 0.0
O168 O 0.67679 0.88426 0.96766 0.0
C169 C 0.73117 0.67836 0.99254 0.0
Co170 Co 0.04453 0.09546 0.93359 0.0
Co171 Co 0.00451 0.19641 0.87144 0.0
C172 C 0.09603 0.18147 0.8795 0.0
O173 O 0.09344 0.12905 0.90821 0.0
O174 O 0.06503 0.21356 0.86581 0.0
C175 C 0.08596 0.98313 0.95786 0.0
O176 O 0.11668 1.01885 0.94633 0.0
C177 C -0.00363 0.23421 0.76441 0.0
C178 C 0.93281 0.22575 0.76075 0.0
C179 C 0.96609 0.21559 0.72962 0.0
N180 N 0.98164 0.24669 0.81508 0.0
N181 N 0.94339 0.24529 0.812 0.0
C182 C 0.03744 0.25109 0.74962 0.0
H183 H 0.04886 0.28922 0.77885 0.0
H184 H 0.05634 0.20653 0.7542 0.0
H185 H 0.03895 0.27204 0.70681 0.0
C186 C 0.02058 1.01184 0.83035 0.0
N187 N 0.01758 1.0641 0.86717 0.0
N188 N 0.98842 0.10191 0.85282 0.0
C189 C 0.96898 1.06973 0.81049 0.0
C190 C 0.98875 1.01118 0.79409 0.0
C191 C 0.05617 0.96988 0.82255 0.0
H192 H 0.04994 0.91761 0.83531 0.0
H193 H 0.08112 0.9907 0.84604 0.0
H194 H 0.06398 0.96823 0.77759 0.0
O195 O 0.02095 0.16414 0.99456 0.0
O196 O 0.98671 0.23594 0.94516 0.0
H197 H 0.91068 1.03342 0.80524 0.0
H198 H 0.92408 0.09088 0.7522 0.0
C199 C 0.92704 0.08047 0.7973 0.0
H200 H 0.91421 0.12049 0.82355 0.0
H201 H 0.92495 0.24523 0.8466 0.0
O202 O 0.05371 1.01113 0.96778 0.0
C203 C -0.00061 0.21702 0.99252 0.0
Co204 Co 0.6859 0.09548 0.97138 0.0
Co205 Co 0.72585 0.19644 1.03361 0.0
C206 C 0.63435 0.18145 1.0255 0.0
O207 O 0.63698 0.12907 0.99674 0.0
O208 O 0.66534 0.21354 1.03925 0.0
C209 C 0.64447 0.98317 0.94702 0.0
O210 O 0.61375 1.01889 0.95853 0.0
C211 C 0.73399 0.23426 0.14063 0.0
C212 C 0.79756 0.22584 0.14427 0.0
C213 C 0.76428 0.21566 0.17541 0.0
N214 N 0.74871 0.24675 0.08996 0.0
N215 N 0.78696 0.24537 0.09303 0.0
C216 C 0.69293 0.25116 0.15544 0.0
H217 H 0.6815 0.28929 0.1262 0.0
H218 H 0.67402 0.20659 0.15086 0.0
H219 H 0.69141 0.2721 0.19825 0.0
C220 C 0.70985 1.01184 1.07463 0.0
N221 N 0.71285 1.06412 1.03782 0.0
N222 N 0.74198 0.10195 1.05222 0.0
C223 C 0.7614 1.0698 0.09458 0.0
C224 C 0.74165 1.01122 0.11094 0.0
C225 C 0.67427 0.96984 0.08236 0.0
H226 H 0.68055 0.91758 1.06962 0.0
H227 H 0.64933 0.99062 1.05884 0.0
H228 H 0.66642 0.96817 0.12732 0.0
O229 O 0.7095 0.16418 0.91042 0.0
O230 O 0.74365 0.23601 0.95991 0.0
H231 H 0.81971 1.03349 0.09986 0.0
H232 H 0.80629 0.09095 0.15288 0.0
C233 C 0.80333 0.08054 0.10779 0.0
H234 H 0.81617 0.12055 0.08153 0.0
H235 H 0.8054 0.24532 1.05842 0.0
O236 O 0.67673 1.01114 0.93718 0.0
C237 C 0.73103 0.21709 0.91252 0.0
Co238 Co 0.04444 0.79989 0.97145 0.0
Co239 Co 0.00446 0.69889 1.03355 0.0
C240 C 0.09599 0.71378 1.0254 0.0
O241 O 0.09339 0.76631 0.99683 0.0
O242 O 0.06498 0.68168 1.03905 0.0
C243 C 0.0859 0.91215 0.94704 0.0
O244 O 0.11662 0.87634 0.95838 0.0
C245 C -0.00357 0.66111 0.14062 0.0
C246 C 0.93287 0.66943 0.14437 0.0
C247 C 0.96617 0.67965 0.17546 0.0
N248 N 0.98166 0.64861 0.08996 0.0
N249 N 0.94341 0.64993 0.0931 0.0
C250 C 0.03754 0.6444 0.15529 0.0
H251 H 0.04902 0.60648 0.12594 0.0
H252 H 0.05636 0.68909 0.1508 0.0
H253 H 0.03913 0.62325 0.19802 0.0
C254 C 0.02047 0.88346 1.07473 0.0
N255 N 0.01748 0.83121 1.03789 0.0
N256 N 0.98836 0.79335 1.05224 0.0
C257 C 0.96893 0.82544 0.09463 0.0
C258 C 0.9887 0.88396 0.11109 0.0
C259 C 0.05601 0.92558 0.08243 0.0
H260 H 0.04966 0.97781 1.06968 0.0
H261 H 0.08095 0.90487 1.05888 0.0
H262 H 0.06388 0.92727 0.12738 0.0
O263 O 0.02087 0.73115 0.91047 0.0
O264 O 0.98657 0.65942 0.95985 0.0
H265 H 0.91062 0.86173 0.09982 0.0
H266 H 0.92402 0.80428 0.15287 0.0
C267 C 0.92699 0.81468 0.10778 0.0
H268 H 0.91417 0.77466 0.08152 0.0
H269 H 0.92493 0.64999 1.05854 0.0
O270 O 0.0536 0.88426 0.9373 0.0
C271 C -0.00073 0.67831 0.91249 0.0
Co272 Co 0.29443 0.84545 0.72137 0.0
Co273 Co 0.2543 0.94621 0.78354 0.0
C274 C 0.34585 0.93151 0.77551 0.0
O275 O 0.34329 0.87914 0.74675 0.0
O276 O 0.31482 0.96351 0.78925 0.0
C277 C 0.33594 0.73316 0.69722 0.0
O278 O 0.36663 0.76892 0.70886 0.0
C279 C 0.24617 0.98357 0.89053 0.0
C280 C 0.18266 0.97423 0.89417 0.0
C281 C 0.216 0.96411 0.92518 0.0
N282 N 0.23137 0.99635 0.83995 0.0
N283 N 0.19312 0.99447 0.84307 0.0
C284 C 0.28716 1.00095 0.90542 0.0
H285 H 0.29844 1.03926 0.87625 0.0
H286 H 0.30625 0.95663 0.90084 0.0
H287 H 0.28855 1.02185 0.94825 0.0
C288 C 0.27062 0.76192 0.82474 0.0
N289 N 0.26751 0.81405 0.78781 0.0
N290 N 0.23822 0.85163 0.80198 0.0
C291 C 0.21881 0.81941 0.84431 0.0
C292 C 0.23874 0.76109 0.8609 0.0
C293 C 0.30628 0.72018 0.83262 0.0
H294 H 0.30015 0.66784 0.81994 0.0
H295 H 0.3312 0.74106 0.80911 0.0
H296 H 0.31409 0.71867 0.8776 0.0
O297 O 0.27083 0.91417 0.66043 0.0
O298 O 0.23652 0.98583 0.70987 0.0
H299 H 0.16064 0.78227 0.84843 0.0
H300 H 0.1734 0.83937 0.90208 0.0
C301 C 0.17673 0.82946 0.85696 0.0
H302 H 0.16389 0.86956 0.83079 0.0
H303 H 0.17465 0.99462 0.80849 0.0
O304 O 0.3037 0.76111 0.68719 0.0
C305 C 0.24923 0.96701 0.66251 0.0
Co306 Co 0.93598 0.54992 0.72133 0.0
Co307 Co 0.97609 0.44911 0.78345 0.0
C308 C 0.88452 0.46384 0.77532 0.0
O309 O 0.88707 0.51633 0.74669 0.0
O310 O 0.91556 0.43182 0.789 0.0
C311 C 0.89452 0.66219 0.69698 0.0
O312 O 0.86381 0.62638 0.70831 0.0
C313 C 0.98413 0.41176 0.89048 0.0
C314 C 0.04766 0.42086 0.89426 0.0
C315 C 0.0143 0.43107 0.92521 0.0
N316 N -0.00104 0.39897 0.83992 0.0
N317 N 0.03721 0.40072 0.84312 0.0
C318 C 0.9431 0.39461 0.90523 0.0
H319 H 0.93173 0.35652 0.87592 0.0
H320 H 0.92411 0.43908 0.90074 0.0
H321 H 0.94163 0.3735 0.94798 0.0
C322 C 0.95982 0.6334 0.82473 0.0
N323 N 0.96291 0.58128 0.78778 0.0
N324 N -0.00782 0.54365 0.80196 0.0
C325 C 0.01158 0.57579 0.84435 0.0
C326 C -0.00835 0.63409 0.86099 0.0
C327 C 0.92419 0.67526 0.83252 0.0
H328 H 0.93041 0.72758 0.81989 0.0
H329 H 0.89929 0.65449 0.8089 0.0
H330 H 0.91632 0.67676 0.87746 0.0
O331 O 0.95954 0.48113 0.66039 0.0
O332 O -0.00605 0.40955 0.70978 0.0
H333 H 0.06977 0.61284 0.84857 0.0
H334 H 0.05695 0.55574 0.90217 0.0
C335 C 0.05365 0.56567 0.85705 0.0
H336 H 0.06648 0.52556 0.83089 0.0
H337 H 0.0557 0.40056 0.80858 0.0
O338 O 0.9268 0.63429 0.68714 0.0
C339 C 0.98117 0.42834 0.66243 0.0
Co340 Co 0.29444 0.54992 0.68372 0.0
Co341 Co 0.25431 0.44911 0.6216 0.0
C342 C 0.34589 0.46383 0.62971 0.0
O343 O 0.34334 0.51632 0.65833 0.0
O344 O 0.31485 0.43181 0.61605 0.0
C345 C 0.33592 0.66219 0.70806 0.0
O346 O 0.36662 0.6264 0.6966 0.0
C347 C 0.24629 0.41176 0.51457 0.0
C348 C 0.18276 0.42084 0.51077 0.0
C349 C 0.21613 0.43106 0.47983 0.0
N350 N 0.23145 0.39897 0.56512 0.0
N351 N 0.19321 0.40071 0.56192 0.0
C352 C 0.28732 0.39458 0.49983 0.0
H353 H 0.29868 0.35648 0.52914 0.0
H354 H 0.30632 0.43904 0.50432 0.0
H355 H 0.28879 0.37347 0.45708 0.0
C356 C 0.27056 0.63346 0.58037 0.0
N357 N 0.2675 0.5813 0.61728 0.0
N358 N 0.23823 0.54367 0.60308 0.0
C359 C 0.21881 0.57586 0.56075 0.0
C360 C 0.23868 0.63423 0.54418 0.0
C361 C 0.30618 0.67531 0.57255 0.0
H362 H 0.29997 0.72764 0.58518 0.0
H363 H 0.3311 0.65453 0.59615 0.0
H364 H 0.31404 0.6768 0.5276 0.0
O365 O 0.27089 0.48112 0.74465 0.0
O366 O 0.23646 0.40956 0.69527 0.0
H367 H 0.16059 0.61278 0.55644 0.0
H368 H 0.17349 0.55569 0.50287 0.0
C369 C 0.17675 0.56564 0.54799 0.0
H370 H 0.16393 0.52552 0.57414 0.0
H371 H 0.17471 0.40055 0.59645 0.0
O372 O 0.30363 0.63428 0.71791 0.0
C373 C 0.24924 0.42834 0.74261 0.0
Co374 Co 0.93598 0.84542 0.68368 0.0
Co375 Co 0.97612 0.94619 0.62155 0.0
C376 C 0.88457 0.93149 0.62954 0.0
O377 O 0.88712 0.87909 0.65828 0.0
O378 O 0.9156 0.96349 0.61584 0.0
C379 C 0.89448 0.73315 0.70787 0.0
O380 O 0.86379 0.76891 0.69621 0.0
C381 C 0.98424 0.98354 0.51456 0.0
C382 C 0.04775 0.97421 0.51089 0.0
C383 C 0.0144 0.96409 0.47989 0.0
N384 N -0.00095 0.99631 0.56513 0.0
N385 N 0.0373 0.99443 0.562 0.0
C386 C 0.94325 1.00094 0.49968 0.0
H387 H 0.93197 1.03925 0.52886 0.0
H388 H 0.92416 0.95661 0.50426 0.0
H389 H 0.94185 1.02184 0.45685 0.0
C390 C 0.95981 0.7619 0.58034 0.0
N391 N 0.96291 0.81403 0.61727 0.0
N392 N -0.0078 0.8516 0.60311 0.0
C393 C 0.01162 0.81936 0.56079 0.0
C394 C -0.00831 0.76105 0.54419 0.0
C395 C 0.92414 0.72017 0.57244 0.0
H396 H 0.93027 0.66783 0.5851 0.0
H397 H 0.89922 0.74105 0.59596 0.0
H398 H 0.91632 0.7187 0.52747 0.0
O399 O 0.95956 0.91414 0.74462 0.0
O400 O -0.0061 0.9858 0.69524 0.0
H401 H 0.06979 0.78225 0.55663 0.0
H402 H 0.057 0.83934 0.503 0.0
C403 C 0.05369 0.82943 0.54812 0.0
H404 H 0.06653 0.86954 0.57428 0.0
H405 H 0.05578 0.99459 0.59657 0.0
O406 O 0.92672 0.7611 0.71788 0.0
C407 C 0.98115 0.96697 0.74259 0.0
Co408 Co 0.686 0.29985 0.43366 0.0
Co409 Co 0.72611 0.19907 0.37148 0.0
C410 C 0.63456 0.21379 0.37953 0.0
O411 O 0.63713 0.26617 0.40829 0.0
O412 O 0.66559 0.18179 0.36579 0.0
C413 C 0.64449 0.41213 0.45783 0.0
O414 O 0.6138 0.37636 0.44624 0.0
C415 C 0.73421 0.16171 0.26448 0.0
C416 C 0.79773 0.17103 0.2608 0.0
C417 C 0.76437 0.18116 0.22982 0.0
N418 N 0.74903 0.14893 0.31505 0.0
N419 N 0.78728 0.15079 0.31191 0.0
C420 C 0.69322 0.14434 0.24962 0.0
H421 H 0.68194 0.10603 0.2788 0.0
H422 H 0.67413 0.18867 0.2542 0.0
H423 H 0.69182 0.12344 0.20679 0.0
C424 C 0.70982 0.38338 0.3303 0.0
N425 N 0.71292 0.33124 0.36722 0.0
N426 N 0.7422 0.29364 0.35304 0.0
C427 C 0.76161 0.32586 0.31071 0.0
C428 C 0.74169 0.3842 0.29413 0.0
C429 C 0.67416 0.42514 0.32242 0.0
H430 H 0.68031 0.47747 0.3351 0.0
H431 H 0.64924 0.40427 0.34595 0.0
H432 H 0.66634 0.42664 0.27745 0.0
O433 O 0.7096 0.23112 0.49459 0.0
O434 O 0.7439 0.15945 0.44515 0.0
H435 H 0.81979 0.36296 0.30656 0.0
H436 H 0.80701 0.30588 0.25292 0.0
C437 C 0.80369 0.31578 0.29804 0.0
H438 H 0.81653 0.27567 0.3242 0.0
H439 H 0.80576 0.15063 0.34647 0.0
O440 O 0.67674 0.38419 0.46784 0.0
C441 C 0.73119 0.17828 0.49251 0.0
Co442 Co 0.04447 0.59532 0.43369 0.0
Co443 Co 0.00428 0.69612 0.37167 0.0
C444 C 0.09588 0.68145 0.37973 0.0
O445 O 0.09336 0.6289 0.40828 0.0
O446 O 0.06482 0.71347 0.36613 0.0
C447 C 0.08593 0.48304 0.45801 0.0
O448 O 0.11664 0.51884 0.44663 0.0
C449 C -0.00375 0.73346 0.26464 0.0
C450 C 0.93273 0.72433 0.26083 0.0
C451 C 0.9661 0.71413 0.22989 0.0
N452 N 0.98141 0.74625 0.31519 0.0
N453 N 0.94316 0.74448 0.31198 0.0
C454 C 0.03729 0.75061 0.2499 0.0
H455 H 0.04865 0.7887 0.27921 0.0
H456 H 0.05628 0.70614 0.25439 0.0
H457 H 0.03876 0.77173 0.20716 0.0
C458 C 0.0206 0.51185 0.33031 0.0
N459 N 0.01752 0.56396 0.36727 0.0
N460 N 0.98822 0.60156 0.35312 0.0
C461 C 0.96881 0.5694 0.31076 0.0
C462 C 0.98875 0.51113 0.29409 0.0
C463 C 0.05624 0.47002 0.32249 0.0
H464 H 0.05004 0.41769 0.33512 0.0
H465 H 0.08115 0.49081 0.34609 0.0
H466 H 0.0641 0.46854 0.27753 0.0
O467 O 0.02094 0.6641 0.49464 0.0
O468 O 0.98642 0.73564 0.44536 0.0
H469 H 0.91063 0.53235 0.30656 0.0
H470 H 0.92343 0.58945 0.25294 0.0
C471 C 0.92674 0.57952 0.29806 0.0
H472 H 0.91391 0.61963 0.32422 0.0
H473 H 0.92466 0.74464 0.34651 0.0
O474 O 0.05365 0.51096 0.46787 0.0
C475 C -0.00073 0.71686 0.49267 0.0
Co476 Co 0.68596 0.59538 0.47131 0.0
Co477 Co 0.72609 0.69618 0.53343 0.0
C478 C 0.63451 0.68146 0.52533 0.0
O479 O 0.63706 0.62899 0.49669 0.0
O480 O 0.66555 0.71348 0.53901 0.0
C481 C 0.64451 0.4831 0.44698 0.0
O482 O 0.6138 0.51888 0.45843 0.0
C483 C 0.73415 0.73355 0.64046 0.0
C484 C 0.79768 0.72448 0.64421 0.0
C485 C 0.76433 0.71428 0.67519 0.0
N486 N 0.74896 0.74632 0.58989 0.0
N487 N 0.78721 0.74459 0.59306 0.0
C488 C 0.69312 0.7507 0.65523 0.0
H489 H 0.68175 0.7888 0.62593 0.0
H490 H 0.67413 0.70624 0.65074 0.0
H491 H 0.69166 0.77181 0.69798 0.0
C492 C 0.70983 0.51184 0.57467 0.0
N493 N 0.7129 0.564 0.53775 0.0
N494 N 0.74217 0.60163 0.55195 0.0
C495 C 0.76159 0.56943 0.59429 0.0
C496 C 0.7417 0.51107 0.61086 0.0
C497 C 0.6742 0.47001 0.58249 0.0
H498 H 0.6804 0.41768 0.56986 0.0
H499 H 0.64929 0.4908 0.5589 0.0
H500 H 0.66635 0.46853 0.62745 0.0
O501 O 0.70952 0.66417 0.41038 0.0
O502 O 0.74393 0.73573 0.45976 0.0
H503 H 0.8198 0.53249 0.59862 0.0
H504 H 0.8069 0.58961 0.65217 0.0
C505 C 0.80364 0.57964 0.60705 0.0
H506 H 0.81647 0.61975 0.58089 0.0
H507 H 0.8057 0.74473 0.55851 0.0
O508 O 0.67678 0.51102 0.43712 0.0
C509 C 0.73115 0.71696 0.41241 0.0
Co510 Co 0.04442 0.29984 0.47134 0.0
Co511 Co 0.00431 0.19906 0.53353 0.0
C512 C 0.09585 0.21379 0.52551 0.0
O513 O 0.09328 0.26614 0.49673 0.0
O514 O 0.06483 0.18179 0.53927 0.0
C515 C 0.08596 0.41208 0.44714 0.0
O516 O 0.11664 0.37631 0.45882 0.0
C517 C -0.00382 0.1617 0.64053 0.0
C518 C 0.93267 0.17102 0.64418 0.0
C519 C 0.96601 0.18113 0.67519 0.0
N520 N 0.98138 0.14894 0.58995 0.0
N521 N 0.94313 0.15081 0.59307 0.0
C522 C 0.03717 0.1443 0.65541 0.0
H523 H 0.04846 0.106 0.62623 0.0
H524 H 0.05626 0.18863 0.65085 0.0
H525 H 0.03856 0.12339 0.69824 0.0
C526 C 0.02061 0.38334 0.57472 0.0
N527 N 0.0175 0.33124 0.53777 0.0
N528 N 0.98821 0.29364 0.55194 0.0
C529 C 0.96883 0.32582 0.59432 0.0
C530 C 0.98878 0.38408 0.61096 0.0
C531 C 0.05627 0.42512 0.58256 0.0
H532 H 0.0501 0.47745 0.56988 0.0
H533 H 0.08118 0.40426 0.55903 0.0
H534 H 0.0641 0.42665 0.62753 0.0
O535 O 0.02082 0.23115 0.41041 0.0
O536 O 0.98655 0.15941 0.45983 0.0
H537 H 0.91066 0.36301 0.59844 0.0
H538 H 0.92341 0.3059 0.65208 0.0
C539 C 0.92674 0.3158 0.60696 0.0
H540 H 0.91389 0.27572 0.5808 0.0
H541 H 0.92466 0.15067 0.5585 0.0
O542 O 0.0537 0.38415 0.43714 0.0
C543 C -0.00075 0.17828 0.41247 0.0
Co544 Co 0.79446 0.34537 0.72146 0.0
Co545 Co 0.75443 0.44639 0.78347 0.0
C546 C 0.84597 0.4315 0.77538 0.0
O547 O 0.84339 0.37893 0.74687 0.0
O548 O 0.81496 0.46363 0.78896 0.0
C549 C 0.83592 0.23309 0.69709 0.0
O550 O 0.86664 0.26891 0.70838 0.0
C551 C 0.7464 0.48418 0.89052 0.0
C552 C 0.68284 0.4758 0.8943 0.0
C553 C 0.71616 0.4656 0.92538 0.0
N554 N 0.73162 0.49667 0.83988 0.0
N555 N 0.69337 0.49532 0.84303 0.0
C556 C 0.78751 0.50091 0.90519 0.0
H557 H 0.79898 0.53884 0.87584 0.0
H558 H 0.80634 0.45624 0.9007 0.0
H559 H 0.7891 0.52206 0.94793 0.0
C560 C 0.77047 0.26183 0.82473 0.0
N561 N 0.76749 0.31407 0.78788 0.0
N562 N 0.73835 0.35192 0.80219 0.0
C563 C 0.71891 0.31983 0.84456 0.0
C564 C 0.73868 0.26132 0.86105 0.0
C565 C 0.80601 0.21974 0.83246 0.0
H566 H 0.79969 0.16749 0.81972 0.0
H567 H 0.83097 0.24045 0.80892 0.0
H568 H 0.81387 0.21806 0.87741 0.0
O569 O 0.77091 0.41409 0.66045 0.0
O570 O 0.73654 0.48582 0.70974 0.0
H571 H 0.6606 0.28353 0.8497 0.0
H572 H 0.67397 0.34098 0.90277 0.0
C573 C 0.67696 0.33058 0.85768 0.0
H574 H 0.66414 0.3706 0.83141 0.0
H575 H 0.67489 0.49526 0.80847 0.0
O576 O 0.80362 0.26099 0.68732 0.0
C577 C 0.7493 0.46691 0.66242 0.0
Co578 Co 0.43589 1.0498 0.72139 0.0
Co579 Co 0.4759 0.94893 0.78363 0.0
C580 C 0.38439 0.96384 0.77554 0.0
O581 O 0.38698 1.01619 0.74674 0.0
O582 O 0.41539 0.93177 0.78931 0.0
C583 C 0.39447 0.16214 0.69714 0.0
O584 O 0.36375 0.12642 0.70867 0.0
C585 C 0.48406 0.91129 0.89067 0.0
C586 C 0.54761 0.91998 0.89429 0.0
C587 C 0.51432 0.93012 0.9254 0.0
N588 N 0.4988 0.89872 0.84002 0.0
N589 N 0.53705 0.90025 0.84309 0.0
C590 C 0.44302 0.89428 0.90549 0.0
H591 H 0.43162 0.85611 0.87628 0.0
H592 H 0.42407 0.93878 0.90092 0.0
H593 H 0.44154 0.87334 0.94831 0.0
C594 C 0.45978 0.1334 0.82469 0.0
N595 N 0.46282 0.08118 0.78784 0.0
N596 N 0.49201 1.04344 0.80216 0.0
C597 C 0.51143 0.07562 0.8445 0.0
C598 C 0.49161 0.13411 0.86094 0.0
C599 C 0.42416 0.1753 0.83249 0.0
H600 H 0.43037 0.22759 0.81975 0.0
H601 H 0.39922 0.15446 0.80899 0.0
H602 H 0.41634 0.17693 0.87745 0.0
O603 O 0.4595 0.9811 0.66045 0.0
O604 O 0.49369 0.90932 0.70994 0.0
H605 H 0.56969 0.11221 0.84942 0.0
H606 H 0.55648 1.05486 0.90264 0.0
C607 C 0.55341 1.06511 0.85754 0.0
H608 H 0.56625 1.02507 0.83131 0.0
H609 H 0.55549 0.90026 0.80849 0.0
O610 O 0.42671 0.13414 0.6872 0.0
C611 C 0.48104 0.92821 0.66255 0.0
Co612 Co 0.79452 1.04983 0.68359 0.0
Co613 Co 0.75452 0.94888 0.62141 0.0
C614 C 0.84603 0.96382 0.62948 0.0
O615 O 0.84343 1.01622 0.6582 0.0
O616 O 0.81503 0.93171 0.61577 0.0
C617 C 0.83597 0.16212 0.70792 0.0
O618 O 0.86669 0.12639 0.69634 0.0
C619 C 0.74635 0.91108 0.51437 0.0
C620 C 0.68279 0.91956 0.51074 0.0
C621 C 0.71607 0.9297 0.4796 0.0
N622 N 0.73163 0.89862 0.56505 0.0
N623 N 0.69338 0.90003 0.56198 0.0
C624 C 0.78742 0.8942 0.49957 0.0
H625 H 0.79884 0.85607 0.52881 0.0
H626 H 0.80632 0.93876 0.50416 0.0
H627 H 0.78893 0.87325 0.45676 0.0
C628 C 0.77059 0.13343 0.58032 0.0
N629 N 0.76757 0.08119 0.61716 0.0
N630 N 0.73842 1.04339 0.6028 0.0
C631 C 0.71901 0.07552 0.56042 0.0
C632 C 0.73881 0.13401 0.54397 0.0
C633 C 0.80617 0.17542 0.57258 0.0
H634 H 0.79991 0.22768 0.58535 0.0
H635 H 0.83112 0.15462 0.59609 0.0
H636 H 0.81401 0.1771 0.52763 0.0
O637 O 0.77095 0.98114 0.74454 0.0
O638 O 0.73672 0.90934 0.69513 0.0
H639 H 0.66072 0.11194 0.55522 0.0
H640 H 0.67407 1.05447 0.50217 0.0
C641 C 0.67706 1.06486 0.54726 0.0
H642 H 0.66421 1.02487 0.57352 0.0
H643 H 0.67494 0.9001 0.59659 0.0
O644 O 0.80372 0.13414 0.7178 0.0
C645 C 0.7494 0.92826 0.7425 0.0
Co646 Co 0.43597 0.34539 0.68359 0.0
Co647 Co 0.47596 0.44641 0.6215 0.0
C648 C 0.38444 0.43149 0.62964 0.0
O649 O 0.38703 0.37895 0.6582 0.0
O650 O 0.41544 0.46362 0.61602 0.0
C651 C 0.39452 0.23311 0.70798 0.0
O652 O 0.3638 0.26893 0.69666 0.0
C653 C 0.48399 0.4842 0.51446 0.0
C654 C 0.54756 0.4759 0.5107 0.0
C655 C 0.51425 0.46567 0.47962 0.0
N656 N 0.49876 0.49671 0.56511 0.0
N657 N 0.53701 0.4954 0.56197 0.0
C658 C 0.44288 0.50092 0.49977 0.0
H659 H 0.4314 0.53886 0.52911 0.0
H660 H 0.42406 0.45624 0.50428 0.0
H661 H 0.44129 0.52205 0.45703 0.0
C662 C 0.45996 0.2618 0.58033 0.0
N663 N 0.46293 0.31408 0.61715 0.0
N664 N 0.49206 0.35194 0.60279 0.0
C665 C 0.5115 0.31981 0.56045 0.0
C666 C 0.49178 0.26122 0.54405 0.0
C667 C 0.42441 0.21974 0.57259 0.0
H668 H 0.43073 0.16747 0.58529 0.0
H669 H 0.39946 0.24044 0.59615 0.0
H670 H 0.41654 0.21811 0.52764 0.0
O671 O 0.45953 0.41415 0.74458 0.0
O672 O 0.49385 0.48585 0.69521 0.0
H673 H 0.56983 0.28361 0.5552 0.0
H674 H 0.55638 0.34106 0.50217 0.0
C675 C 0.55343 0.33064 0.54726 0.0
H676 H 0.56624 0.37066 0.57353 0.0
H677 H 0.55548 0.49535 0.59654 0.0
O678 O 0.42682 0.26101 0.71774 0.0
C679 C 0.48113 0.46698 0.74256 0.0
Co680 Co 0.18593 0.79993 0.43358 0.0
Co681 Co 0.22596 0.69891 0.37158 0.0
C682 C 0.13442 0.71381 0.37967 0.0
O683 O 0.13699 0.76639 0.40818 0.0
O684 O 0.16543 0.68169 0.36609 0.0
C685 C 0.14449 0.91222 0.45796 0.0
O686 O 0.11376 0.8764 0.44672 0.0
C687 C 0.23399 0.66115 0.26452 0.0
C688 C 0.29755 0.66952 0.26076 0.0
C689 C 0.26424 0.67974 0.22968 0.0
N690 N 0.24876 0.64864 0.31516 0.0
N691 N 0.28702 0.64998 0.31202 0.0
C692 C 0.19288 0.64446 0.24984 0.0
H693 H 0.1814 0.60653 0.27919 0.0
H694 H 0.17406 0.68914 0.25433 0.0
H695 H 0.19129 0.6233 0.20711 0.0
C696 C 0.20991 0.88345 0.3303 0.0
N697 N 0.21289 0.83122 0.36716 0.0
N698 N 0.24205 0.79338 0.35286 0.0
C699 C 0.26148 0.82546 0.31048 0.0
C700 C 0.24169 0.88396 0.29398 0.0
C701 C 0.17436 0.92553 0.32257 0.0
H702 H 0.18068 0.97778 0.33529 0.0
H703 H 0.14941 0.90483 0.34613 0.0
H704 H 0.16649 0.92719 0.27762 0.0
O705 O 0.20947 0.7312 0.49459 0.0
O706 O 0.24385 0.65948 0.4453 0.0
H707 H 0.31978 0.86181 0.30538 0.0
H708 H 0.30643 0.80437 0.25229 0.0
C709 C 0.30343 0.81475 0.29738 0.0
H710 H 0.31625 0.77473 0.32365 0.0
H711 H 0.30549 0.65002 0.34659 0.0
O712 O 0.17679 0.88432 0.46772 0.0
C713 C 0.23109 0.67838 0.49262 0.0
Co714 Co 0.54451 0.09547 0.43359 0.0
Co715 Co 0.50451 0.19644 0.37143 0.0
C716 C 0.59602 0.18148 0.37949 0.0
O717 O 0.59342 0.12907 0.40821 0.0
O718 O 0.56502 0.21359 0.36579 0.0
C719 C 0.58594 0.98314 0.45787 0.0
O720 O 0.61666 1.01887 0.44636 0.0
C721 C 0.49635 0.2343 0.2644 0.0
C722 C 0.43279 0.22587 0.26076 0.0
C723 C 0.46607 0.21573 0.22961 0.0
N724 N 0.48163 0.24674 0.31509 0.0
N725 N 0.44337 0.24535 0.31202 0.0
C726 C 0.53741 0.25122 0.24962 0.0
H727 H 0.54883 0.28933 0.27887 0.0
H728 H 0.55633 0.20667 0.25417 0.0
H729 H 0.53892 0.27221 0.20682 0.0
C730 C 0.52056 1.01185 0.33035 0.0
N731 N 0.51756 1.06412 0.36716 0.0
N732 N 0.48841 0.10194 0.35279 0.0
C733 C 0.46898 1.06978 0.31045 0.0
C734 C 0.48874 1.0112 0.29408 0.0
C735 C 0.55615 0.96989 0.32257 0.0
H736 H 0.54991 0.91762 0.33532 0.0
H737 H 0.5811 0.99069 0.34606 0.0
H738 H 0.56397 0.96823 0.27761 0.0
O739 O 0.52094 0.16415 0.49456 0.0
O740 O 0.48672 0.23598 0.44516 0.0
H741 H 0.41067 1.0335 0.30513 0.0
H742 H 0.42411 0.091 0.25214 0.0
C743 C 0.42705 0.08055 0.29723 0.0
H744 H 0.41421 0.12054 0.32351 0.0
H745 H 0.42494 0.24526 0.34662 0.0
O746 O 0.55369 1.01114 0.46778 0.0
C747 C 0.49939 0.21705 0.49252 0.0
Co748 Co 0.18591 0.09547 0.47143 0.0
Co749 Co 0.2259 0.19641 0.53363 0.0
C750 C 0.1344 0.18148 0.52556 0.0
O751 O 0.137 0.1291 0.49681 0.0
O752 O 0.16539 0.21358 0.5393 0.0
C753 C 0.14443 0.98319 0.44713 0.0
O754 O 0.11373 1.01891 0.45874 0.0
C755 C 0.23408 0.23419 0.64067 0.0
C756 C 0.29764 0.22568 0.6443 0.0
C757 C 0.26435 0.21555 0.67544 0.0
N758 N 0.24879 0.24666 0.58999 0.0
N759 N 0.28705 0.24523 0.59306 0.0
C760 C 0.19301 0.25112 0.65547 0.0
H761 H 0.1816 0.28926 0.62624 0.0
H762 H 0.1741 0.20657 0.65089 0.0
H763 H 0.19151 0.27206 0.69828 0.0
C764 C 0.20983 1.01186 0.5747 0.0
N765 N 0.21286 1.06409 0.53786 0.0
N766 N 0.24201 0.1019 0.55222 0.0
C767 C 0.26142 1.06976 0.5946 0.0
C768 C 0.24161 1.01128 0.61105 0.0
C769 C 0.17425 0.96989 0.58245 0.0
H770 H 0.1805 0.91763 0.56969 0.0
H771 H 0.1493 0.9907 0.55895 0.0
H772 H 0.16641 0.96821 0.62741 0.0
O773 O 0.2095 0.16414 0.41047 0.0
O774 O 0.24369 0.23597 0.4599 0.0
H775 H 0.3197 1.03332 0.59976 0.0
H776 H 0.30637 0.09078 0.65284 0.0
C777 C 0.30337 0.08041 0.60775 0.0
H778 H 0.31622 0.1204 0.58149 0.0
H779 H 0.30548 0.24517 0.55845 0.0
O780 O 0.17669 1.01116 0.43722 0.0
C781 C 0.23103 0.21704 0.41253 0.0
Co782 Co 0.54443 0.7999 0.47145 0.0
Co783 Co 0.50444 0.6989 0.53355 0.0
C784 C 0.59597 0.7138 0.5254 0.0
O785 O 0.59337 0.76633 0.49683 0.0
O786 O 0.56496 0.68168 0.53904 0.0
C787 C 0.58589 0.91217 0.44705 0.0
O788 O 0.61661 0.87636 0.4584 0.0
C789 C 0.49642 0.66119 0.64062 0.0
C790 C 0.43286 0.66958 0.64439 0.0
C791 C 0.46618 0.67981 0.67546 0.0
N792 N 0.48164 0.64865 0.58998 0.0
N793 N 0.44339 0.65001 0.59314 0.0
C794 C 0.53754 0.6445 0.6553 0.0
H795 H 0.54901 0.60654 0.62597 0.0
H796 H 0.55635 0.68918 0.65077 0.0
H797 H 0.53913 0.62339 0.69804 0.0
C798 C 0.52047 0.88345 0.57474 0.0
N799 N 0.51748 0.83122 0.53789 0.0
N800 N 0.48834 0.79337 0.55222 0.0
C801 C 0.46891 0.82546 0.5946 0.0
C802 C 0.48869 0.88397 0.61108 0.0
C803 C 0.55601 0.92555 0.58244 0.0
H804 H 0.54968 0.97779 0.56969 0.0
H805 H 0.58096 0.90483 0.55889 0.0
H806 H 0.56389 0.92724 0.62739 0.0
O807 O 0.52086 0.73114 0.41047 0.0
O808 O 0.48655 0.65944 0.45985 0.0
H809 H 0.41061 0.86183 0.59968 0.0
H810 H 0.42395 0.80443 0.65281 0.0
C811 C 0.42696 0.81477 0.60771 0.0
H812 H 0.41414 0.77473 0.58146 0.0
H813 H 0.42491 0.65003 0.55858 0.0
O814 O 0.55359 0.88427 0.4373 0.0
C815 C 0.49926 0.67831 0.4125 0.0
Co816 Co 0.79441 0.84544 0.22133 0.0
Co817 Co 0.75429 0.94624 0.2835 0.0
C818 C 0.84582 0.9315 0.2755 0.0
O819 O 0.84326 0.87914 0.24671 0.0
O820 O 0.81481 0.96352 0.28924 0.0
C821 C 0.83595 0.73318 0.19719 0.0
O822 O 0.86663 0.76896 0.20882 0.0
C823 C 0.74615 0.9836 0.3905 0.0
C824 C 0.68263 0.97427 0.39415 0.0
C825 C 0.71598 0.96416 0.42516 0.0
N826 N 0.73134 0.99636 0.33992 0.0
N827 N 0.6931 0.99448 0.34304 0.0
C828 C 0.78713 1.00099 0.40538 0.0
H829 H 0.79842 1.0393 0.3762 0.0
H830 H 0.80623 0.95667 0.40082 0.0
H831 H 0.78852 1.02191 0.44821 0.0
C832 C 0.7706 0.76196 0.32472 0.0
N833 N 0.76748 0.81406 0.28776 0.0
N834 N 0.73819 0.85166 0.30192 0.0
C835 C 0.7188 0.81948 0.34429 0.0
C836 C 0.73876 0.76122 0.36094 0.0
C837 C 0.80626 0.7202 0.33259 0.0
H838 H 0.80011 0.66787 0.3199 0.0
H839 H 0.83118 0.74108 0.30906 0.0
H840 H 0.81408 0.71868 0.37755 0.0
O841 O 0.77081 0.91414 0.16039 0.0
O842 O 0.73653 0.98588 0.2098 0.0
H843 H 0.66064 0.78228 0.34839 0.0
H844 H 0.67338 0.8394 0.40204 0.0
C845 C 0.67672 0.82949 0.35692 0.0
H846 H 0.66386 0.86958 0.33075 0.0
H847 H 0.67462 0.99462 0.30847 0.0
O848 O 0.80369 0.76112 0.18715 0.0
C849 C 0.74924 0.967 0.16244 0.0
Co850 Co 0.43596 0.5499 0.22134 0.0
Co851 Co 0.47611 0.44912 0.28344 0.0
C852 C 0.38454 0.4638 0.27534 0.0
O853 O 0.38707 0.51629 0.24671 0.0
O854 O 0.41558 0.43178 0.28901 0.0
C855 C 0.3945 0.6622 0.19706 0.0
O856 O 0.36379 0.62642 0.20851 0.0
C857 C 0.48417 0.4118 0.39047 0.0
C858 C 0.54769 0.42098 0.39425 0.0
C859 C 0.51432 0.43117 0.4252 0.0
N860 N 0.499 0.39901 0.33992 0.0
N861 N 0.53725 0.4008 0.34311 0.0
C862 C 0.44314 0.39464 0.40523 0.0
H863 H 0.43178 0.35652 0.37593 0.0
H864 H 0.42414 0.43909 0.40073 0.0
H865 H 0.44168 0.37354 0.44798 0.0
C866 C 0.4598 0.63338 0.32475 0.0
N867 N 0.46289 0.58127 0.28779 0.0
N868 N 0.49218 0.54367 0.30195 0.0
C869 C 0.51158 0.57582 0.34433 0.0
C870 C 0.49164 0.63409 0.36099 0.0
C871 C 0.42416 0.67523 0.33255 0.0
H872 H 0.43036 0.72754 0.31986 0.0
H873 H 0.39925 0.65441 0.30898 0.0
H874 H 0.41632 0.67677 0.37751 0.0
O875 O 0.45952 0.48113 0.1604 0.0
O876 O 0.49397 0.40958 0.20977 0.0
H877 H 0.56976 0.61294 0.34847 0.0
H878 H 0.557 0.55585 0.40211 0.0
C879 C 0.55366 0.56576 0.35699 0.0
H880 H 0.5665 0.52565 0.33083 0.0
H881 H 0.55574 0.40065 0.30858 0.0
O882 O 0.42677 0.63426 0.18717 0.0
C883 C 0.48118 0.42836 0.16243 0.0
Co884 Co 0.79446 0.54996 0.18369 0.0
Co885 Co 0.75432 0.44916 0.1216 0.0
C886 C 0.84589 0.46387 0.12969 0.0
O887 O 0.84336 0.51637 0.15831 0.0
O888 O 0.81485 0.43184 0.11604 0.0
C889 C 0.83592 0.66222 0.20807 0.0
O890 O 0.86663 0.62643 0.19667 0.0
C891 C 0.74627 0.41183 1.01455 0.0
C892 C 0.68275 0.42092 1.01077 0.0
C893 C 0.71611 0.43113 0.97981 0.0
N894 N 0.73144 0.39905 1.06511 0.0
N895 N 0.6932 0.4008 1.06192 0.0
C896 C 0.78731 0.3947 0.99981 0.0
H897 H 0.79868 0.35662 1.02912 0.0
H898 H 0.80629 0.43918 1.00429 0.0
H899 H 0.78878 0.37358 0.95706 0.0
C900 C 0.77062 0.63344 0.08031 0.0
N901 N 0.76752 0.58133 0.11726 0.0
N902 N 0.73825 0.54372 0.10309 0.0
C903 C 0.71885 0.57587 1.06071 0.0
C904 C 0.73878 0.63415 1.04405 0.0
C905 C 0.80625 0.67528 1.07251 0.0
H906 H 0.80003 0.72761 0.08513 0.0
H907 H 0.83115 0.6545 0.09614 0.0
H908 H 0.81413 0.67676 1.02757 0.0
O909 O 0.77092 0.48118 0.24462 0.0
O910 O 0.73647 0.4096 0.19529 0.0
H911 H 0.66066 0.61292 1.05646 0.0
H912 H 0.67349 0.55582 1.00286 0.0
C913 C 0.67678 0.56575 1.04798 0.0
H914 H 0.66394 0.52564 1.07413 0.0
H915 H 0.6747 0.40064 0.09645 0.0
O916 O 0.80364 0.63431 0.21789 0.0
C917 C 0.74927 0.4284 0.24262 0.0
Co918 Co 0.43602 0.84542 0.18365 0.0
Co919 Co 0.47609 0.94631 0.12151 0.0
C920 C 0.38457 0.93147 0.12953 0.0
O921 O 0.38715 0.87905 0.15824 0.0
O922 O 0.41557 0.96355 0.11584 0.0
C923 C 0.39449 0.73317 0.20791 0.0
O924 O 0.3638 0.76894 0.19631 0.0
C925 C 0.48418 0.98383 1.01452 0.0
C926 C 0.54771 0.97478 1.01083 0.0
C927 C 0.51437 0.96461 0.97982 0.0
N928 N 0.49898 0.99653 1.06512 0.0
N929 N 0.53723 0.99481 1.06198 0.0
C930 C 0.44317 1.00108 0.99968 0.0
H931 H 0.43185 1.03934 1.02889 0.0
H932 H 0.42413 0.95669 1.00426 0.0
H933 H 0.44173 1.022 0.95686 0.0
C934 C 0.45991 0.76187 0.08036 0.0
N935 N 0.46297 0.81406 0.11724 0.0
N936 N 0.49219 0.85175 0.10299 0.0
C937 C 0.51162 0.81955 1.06066 0.0
C938 C 0.49177 0.76112 1.04415 0.0
C939 C 0.42429 0.72002 1.07252 0.0
H940 H 0.43049 0.6677 0.08519 0.0
H941 H 0.39936 0.74083 0.09605 0.0
H942 H 0.41645 0.71848 1.02755 0.0
O943 O 0.45958 0.91414 0.2446 0.0
O944 O 0.49387 0.98588 0.19522 0.0
H945 H 0.56985 0.78273 1.05616 0.0
H946 H 0.55685 0.83994 1.00272 0.0
C947 C 0.55365 0.82986 1.04783 0.0
H948 H 0.56648 0.86995 1.07403 0.0
H949 H 0.55571 0.99492 0.09655 0.0
O950 O 0.42676 0.76109 0.21784 0.0
C951 C 0.48115 0.967 0.24256 0.0
Co952 Co 0.18599 0.29985 0.93369 0.0
Co953 Co 0.22612 0.19905 0.87154 0.0
C954 C 0.13458 0.2138 0.87954 0.0
O955 O 0.13713 0.26617 0.9083 0.0
O956 O 0.1656 0.18177 0.86581 0.0
C957 C 0.14447 0.41212 0.95787 0.0
O958 O 0.11378 0.37635 0.94625 0.0
C959 C 0.23426 0.16168 0.76453 0.0
C960 C 0.29778 0.17098 0.76089 0.0
C961 C 0.26443 0.18109 0.72987 0.0
N962 N 0.24906 0.14893 0.81512 0.0
N963 N 0.28731 0.15079 0.812 0.0
C964 C 0.19327 0.14431 0.74965 0.0
H965 H 0.18198 0.10601 0.77884 0.0
H966 H 0.17418 0.18865 0.75423 0.0
H967 H 0.19187 0.1234 0.70683 0.0
C968 C 0.2098 0.38334 0.83032 0.0
N969 N 0.21292 0.33123 0.86727 0.0
N970 N 0.24221 0.29364 0.8531 0.0
C971 C 0.2616 0.32582 0.81074 0.0
C972 C 0.24164 0.38408 0.79409 0.0
C973 C 0.17414 0.42511 0.82246 0.0
H974 H 0.1803 0.47744 0.83515 0.0
H975 H 0.14923 0.40424 0.84599 0.0
H976 H 0.16632 0.42664 0.77749 0.0
O977 O 0.20958 0.23114 0.99463 0.0
O978 O 0.24389 0.15942 0.94524 0.0
H979 H 0.31976 0.36299 0.80659 0.0
H980 H 0.307 0.30586 0.75296 0.0
C981 C 0.30368 0.31579 0.79808 0.0
H982 H 0.31653 0.2757 0.82425 0.0
H983 H 0.30578 0.15066 0.84658 0.0
O984 O 0.17672 0.38417 0.96788 0.0
C985 C 0.23116 0.17828 0.99259 0.0
Co986 Co 0.54449 0.59534 0.93368 0.0
Co987 Co 0.50436 0.69619 0.87161 0.0
C988 C 0.59593 0.68138 0.87965 0.0
O989 O 0.59339 0.62889 0.90827 0.0
O990 O 0.5649 0.71344 0.86602 0.0
C991 C 0.58592 0.48305 0.95803 0.0
O992 O 0.61664 0.51885 0.94671 0.0
C993 C 0.4963 0.73361 0.7646 0.0
C994 C 0.43277 0.72451 0.76084 0.0
C995 C 0.46613 0.71432 0.72987 0.0
N996 N 0.48148 0.74637 0.81517 0.0
N997 N 0.44323 0.74463 0.81199 0.0
C998 C 0.53733 0.75082 0.74983 0.0
H999 H 0.54867 0.78893 0.77913 0.0
H1000 H 0.55634 0.70637 0.75431 0.0
H1001 H 0.53877 0.77192 0.70707 0.0
C1002 C 0.5206 0.51188 0.83031 0.0
N1003 N 0.51753 0.564 0.86725 0.0
N1004 N 0.48826 0.60165 0.85307 0.0
C1005 C 0.46885 0.56951 0.8107 0.0
C1006 C 0.48876 0.5112 0.79406 0.0
C1007 C 0.55622 0.47001 0.8225 0.0
H1008 H 0.55 0.41768 0.83512 0.0
H1009 H 0.58113 0.49077 0.84612 0.0
H1010 H 0.56409 0.46853 0.77755 0.0
O1011 O 0.52096 0.66412 0.99463 0.0
O1012 O 0.48655 0.73576 0.9453 0.0
H1013 H 0.41065 0.53251 0.80644 0.0
H1014 H 0.42349 0.58964 0.75287 0.0
C1015 C 0.42678 0.57967 0.79799 0.0
H1016 H 0.41395 0.61977 0.82416 0.0
H1017 H 0.42475 0.74477 0.84654 0.0
O1018 O 0.55364 0.51097 0.96785 0.0
C1019 C 0.49934 0.71693 0.99263 0.0
Co1020 Co 0.18597 0.59534 0.97136 0.0
Co1021 Co 0.22611 0.69616 1.03344 0.0
C1022 C 0.13454 0.68144 1.02535 0.0
O1023 O 0.13708 0.62894 0.99675 0.0
O1024 O 0.16558 0.71349 1.039 0.0
C1025 C 0.1445 0.48308 0.947 0.0
O1026 O 0.11379 0.51888 0.95844 0.0
C1027 C 0.23415 0.73351 0.14049 0.0
C1028 C 0.29767 0.72442 0.1443 0.0
C1029 C 0.26431 0.71422 0.17525 0.0
N1030 N 0.24898 0.74628 0.08994 0.0
N1031 N 0.28723 0.74454 0.09315 0.0
C1032 C 0.1931 0.75065 0.15522 0.0
H1033 H 0.18174 0.78873 0.1259 0.0
H1034 H 0.17412 0.70617 0.15073 0.0
H1035 H 0.19163 0.77178 0.19797 0.0
C1036 C 0.20984 0.51185 1.07473 0.0
N1037 N 0.21292 0.56397 1.03779 0.0
N1038 N 0.24219 0.60161 1.05197 0.0
C1039 C 0.2616 0.56945 0.09434 0.0
C1040 C 0.24168 0.51115 0.11098 0.0
C1041 C 0.17422 0.46999 0.08252 0.0
H1042 H 0.18044 0.41767 1.06988 0.0
H1043 H 0.14931 0.49077 1.05892 0.0
H1044 H 0.16635 0.46848 0.12747 0.0
O1045 O 0.20952 0.66411 0.91042 0.0
O1046 O 0.24396 0.7357 0.95975 0.0
H1047 H 0.3198 0.53244 0.09861 0.0
H1048 H 0.30695 0.58956 0.1522 0.0
C1049 C 0.30366 0.57961 0.10708 0.0
H1050 H 0.31649 0.61972 0.08092 0.0
H1051 H 0.30573 0.74469 1.05862 0.0
O1052 O 0.17678 0.51099 0.93717 0.0
C1053 C 0.23116 0.71689 0.91242 0.0
Co1054 Co 0.5444 0.29986 0.97132 0.0
Co1055 Co 0.50426 0.1991 1.03349 0.0
C1056 C 0.59581 0.21376 1.02545 0.0
O1057 O 0.59325 0.26614 0.9967 0.0
O1058 O 0.56478 0.18175 1.03919 0.0
C1059 C 0.58595 0.41209 0.94715 0.0
O1060 O 0.61663 0.37632 0.95884 0.0
C1061 C 0.49614 0.16181 0.14051 0.0
C1062 C 0.43263 0.17116 0.14418 0.0
C1063 C 0.46598 0.18128 0.17518 0.0
N1064 N 0.48133 0.14903 0.08994 0.0
N1065 N 0.44308 0.15092 0.09307 0.0
C1066 C 0.53714 0.14451 0.15537 0.0
H1067 H 0.54845 0.10623 0.12618 0.0
H1068 H 0.5562 0.18887 0.1508 0.0
H1069 H 0.53856 0.12358 0.19819 0.0
C1070 C 0.52062 0.38335 1.07472 0.0
N1071 N 0.51749 0.33126 1.03775 0.0
N1072 N 0.48819 0.29369 1.0519 0.0
C1073 C 0.46881 0.32587 0.09428 0.0
C1074 C 0.48878 0.3841 0.11095 0.0
C1075 C 0.55628 0.4251 0.08257 0.0
H1076 H 0.55013 0.47743 1.06988 0.0
H1077 H 0.58119 0.40421 1.05904 0.0
H1078 H 0.56411 0.42662 0.12754 0.0
O1079 O 0.5208 0.23115 0.9104 0.0
O1080 O 0.48647 0.15948 0.95979 0.0
H1081 H 0.41065 0.36313 0.09833 0.0
H1082 H 0.42336 0.30605 0.15202 0.0
C1083 C 0.42671 0.31591 0.1069 0.0
H1084 H 0.41386 0.27581 0.08074 0.0
H1085 H 0.4246 0.15076 1.05851 0.0
O1086 O 0.5537 0.38416 0.93712 0.0
C1087 C 0.4992 0.17832 0.91244 0.0
loop_
_geom_bond_atom_site_label_1
_geom_bond_atom_site_label_2
_geom_bond_distance
_geom_bond_site_symmetry_2
_ccdc_geom_bond_type
Co0 O3 1.970 . S
Co0 N17 1.989 . S
Co0 O25 1.967 . S
Co0 O32 1.920 . S
Co1 O4 1.966 . S
Co1 N10 2.022 . S
Co1 N18 1.993 . S
Co1 O26 1.941 . S
C2 O3 1.258 . S
C2 O4 1.263 . S
O3 Co0 1.970 . S
O3 C2 1.258 . S
O4 Co1 1.966 . S
O4 C2 1.263 . S
C5 O6 1.235 . S
C5 O32 1.289 . S
O6 C5 1.235 . S
C7 C9 1.400 . S
C7 N10 1.351 . S
C7 C12 1.501 . S
C8 C9 1.387 . S
C8 N11 1.341 . S
C9 C7 1.400 . S
C9 C8 1.387 . S
N10 Co1 2.022 . S
N10 C7 1.351 . S
N10 N11 1.365 . S
N11 C8 1.341 . S
N11 N10 1.365 . S
N11 H31 0.862 . S
C12 C7 1.501 . S
C12 H13 0.961 . S
C12 H14 0.961 . S
C12 H15 0.960 . S
H13 C12 0.961 . S
H14 C12 0.961 . S
H15 C12 0.960 . S
C16 N17 1.342 . S
C16 C20 1.401 . S
C16 C21 1.499 . S
N17 Co0 1.989 . S
N17 C16 1.342 . S
N17 N18 1.388 . S
N18 Co1 1.993 . S
N18 N17 1.388 . S
N18 C19 1.346 . S
C19 N18 1.346 . S
C19 C20 1.396 . S
C19 C29 1.510 . S
C20 C16 1.401 . S
C20 C19 1.396 . S
C21 C16 1.499 . S
C21 H22 0.959 . S
C21 H23 0.960 . S
C21 H24 0.961 . S
H22 C21 0.959 . S
H23 C21 0.960 . S
H24 C21 0.961 . S
O25 Co0 1.967 . S
O25 C33 1.258 . S
O26 Co1 1.941 . S
O26 C33 1.266 . S
H27 C29 0.959 . S
H28 C29 0.961 . S
C29 C19 1.510 . S
C29 H27 0.959 . S
C29 H28 0.961 . S
C29 H30 0.960 . S
H30 C29 0.960 . S
H31 N11 0.862 . S
O32 Co0 1.920 . S
O32 C5 1.289 . S
C33 O25 1.258 . S
C33 O26 1.266 . S
Co34 O37 1.970 1_545 S
Co34 N51 1.989 . S
Co34 O59 1.967 1_545 S
Co34 O66 1.920 . S
Co35 O38 1.966 . S
Co35 N44 2.022 . S
Co35 N52 1.993 . S
Co35 O60 1.941 . S
C36 O37 1.258 . S
C36 O38 1.263 . S
O37 Co34 1.970 1_565 S
O37 C36 1.258 . S
O38 Co35 1.966 . S
O38 C36 1.263 . S
C39 O40 1.235 . S
C39 O66 1.289 . S
O40 C39 1.235 . S
C41 C43 1.400 . S
C41 N44 1.351 . S
C41 C46 1.501 . S
C42 C43 1.387 1_455 S
C42 N45 1.341 . S
C43 C41 1.400 . S
C43 C42 1.387 1_655 S
N44 Co35 2.022 . S
N44 C41 1.351 . S
N44 N45 1.365 1_655 S
N45 C42 1.341 . S
N45 N44 1.365 1_455 S
N45 H65 0.862 . S
C46 C41 1.501 . S
C46 H47 0.961 . S
C46 H48 0.961 . S
C46 H49 0.960 . S
H47 C46 0.961 . S
H48 C46 0.961 . S
H49 C46 0.960 . S
C50 N51 1.342 . S
C50 C54 1.401 1_655 S
C50 C55 1.499 . S
N51 Co34 1.989 . S
N51 C50 1.342 . S
N51 N52 1.388 1_545 S
N52 Co35 1.993 . S
N52 N51 1.388 1_565 S
N52 C53 1.346 1_565 S
C53 N52 1.346 1_545 S
C53 C54 1.396 1_655 S
C53 C63 1.510 1_645 S
C54 C50 1.401 1_455 S
C54 C53 1.396 1_455 S
C55 C50 1.499 . S
C55 H56 0.959 . S
C55 H57 0.960 . S
C55 H58 0.961 1_655 S
H56 C55 0.959 . S
H57 C55 0.960 . S
H58 C55 0.961 1_455 S
O59 Co34 1.967 1_565 S
O59 C67 1.258 . S
O60 Co35 1.941 . S
O60 C67 1.266 . S
H61 C63 0.959 . S
H62 C63 0.961 1_645 S
C63 C53 1.510 1_465 S
C63 H61 0.959 . S
C63 H62 0.961 1_465 S
C63 H64 0.960 1_455 S
H64 C63 0.960 1_655 S
H65 N45 0.862 . S
O66 Co34 1.920 . S
O66 C39 1.289 . S
C67 O59 1.258 . S
C67 O60 1.266 . S
Co68 O71 1.970 1_545 S
Co68 N85 1.989 . S
Co68 O93 1.967 1_545 S
Co68 O100 1.920 . S
Co69 O72 1.966 . S
Co69 N78 2.022 1_554 S
Co69 N86 1.993 1_554 S
Co69 O94 1.941 . S
C70 O71 1.258 . S
C70 O72 1.263 . S
O71 Co68 1.970 1_565 S
O71 C70 1.258 . S
O72 Co69 1.966 . S
O72 C70 1.263 . S
C73 O74 1.235 . S
C73 O100 1.289 . S
O74 C73 1.235 . S
C75 C77 1.400 . S
C75 N78 1.351 . S
C75 C80 1.501 . S
C76 C77 1.387 . S
C76 N79 1.341 . S
C77 C75 1.400 . S
C77 C76 1.387 . S
N78 Co69 2.022 1_556 S
N78 C75 1.351 . S
N78 N79 1.365 . S
N79 C76 1.341 . S
N79 N78 1.365 . S
N79 H99 0.862 . S
C80 C75 1.501 . S
C80 H81 0.961 . S
C80 H82 0.961 . S
C80 H83 0.960 . S
H81 C80 0.961 . S
H82 C80 0.961 . S
H83 C80 0.960 . S
C84 N85 1.342 . S
C84 C88 1.401 1_554 S
C84 C89 1.499 . S
N85 Co68 1.989 . S
N85 C84 1.342 . S
N85 N86 1.388 1_544 S
N86 Co69 1.993 1_556 S
N86 N85 1.388 1_566 S
N86 C87 1.346 1_565 S
C87 N86 1.346 1_545 S
C87 C88 1.396 . S
C87 C97 1.510 1_545 S
C88 C84 1.401 1_556 S
C88 C87 1.396 . S
C89 C84 1.499 . S
C89 H90 0.959 . S
C89 H91 0.960 . S
C89 H92 0.961 . S
H90 C89 0.959 . S
H91 C89 0.960 . S
H92 C89 0.961 . S
O93 Co68 1.967 1_565 S
O93 C101 1.258 . S
O94 Co69 1.941 . S
O94 C101 1.266 . S
H95 C97 0.959 . S
H96 C97 0.961 1_545 S
C97 C87 1.510 1_565 S
C97 H95 0.959 . S
C97 H96 0.961 1_565 S
C97 H98 0.960 . S
H98 C97 0.960 . S
H99 N79 0.862 . S
O100 Co68 1.920 . S
O100 C73 1.289 . S
C101 O93 1.258 . S
C101 O94 1.266 . S
Co102 O105 1.970 . S
Co102 N119 1.989 . S
Co102 O127 1.967 . S
Co102 O134 1.920 . S
Co103 O106 1.966 . S
Co103 N112 2.022 1_554 S
Co103 N120 1.993 1_554 S
Co103 O128 1.941 . S
C104 O105 1.258 . S
C104 O106 1.263 . S
O105 Co102 1.970 . S
O105 C104 1.258 . S
O106 Co103 1.966 . S
O106 C104 1.263 . S
C107 O108 1.235 . S
C107 O134 1.289 . S
O108 C107 1.235 . S
C109 C111 1.400 . S
C109 N112 1.351 . S
C109 C114 1.501 . S
C110 C111 1.387 1_455 S
C110 N113 1.341 . S
C111 C109 1.400 . S
C111 C110 1.387 1_655 S
N112 Co103 2.022 1_556 S
N112 C109 1.351 . S
N112 N113 1.365 1_655 S
N113 C110 1.341 . S
N113 N112 1.365 1_455 S
N113 H133 0.862 . S
C114 C109 1.501 . S
C114 H115 0.961 . S
C114 H116 0.961 . S
C114 H117 0.960 . S
H115 C114 0.961 . S
H116 C114 0.961 . S
H117 C114 0.960 . S
C118 N119 1.342 . S
C118 C122 1.401 1_654 S
C118 C123 1.499 . S
N119 Co102 1.989 . S
N119 C118 1.342 . S
N119 N120 1.388 1_554 S
N120 Co103 1.993 1_556 S
N120 N119 1.388 1_556 S
N120 C121 1.346 . S
C121 N120 1.346 . S
C121 C122 1.396 1_655 S
C121 C131 1.510 1_655 S
C122 C118 1.401 1_456 S
C122 C121 1.396 1_455 S
C123 C118 1.499 . S
C123 H124 0.959 . S
C123 H125 0.960 . S
C123 H126 0.961 1_655 S
H124 C123 0.959 . S
H125 C123 0.960 . S
H126 C123 0.961 1_455 S
O127 Co102 1.967 . S
O127 C135 1.258 . S
O128 Co103 1.941 . S
O128 C135 1.266 . S
H129 C131 0.959 . S
H130 C131 0.961 1_655 S
C131 C121 1.510 1_455 S
C131 H129 0.959 . S
C131 H130 0.961 1_455 S
C131 H132 0.960 1_455 S
H132 C131 0.960 1_655 S
H133 N113 0.862 . S
O134 Co102 1.920 . S
O134 C107 1.289 . S
C135 O127 1.258 . S
C135 O128 1.266 . S
Co136 O139 1.970 . S
Co136 N153 1.989 . S
Co136 O161 1.967 . S
Co136 O168 1.920 . S
Co137 O140 1.966 . S
Co137 N146 2.022 . S
Co137 N154 1.993 . S
Co137 O162 1.941 . S
C138 O139 1.258 . S
C138 O140 1.263 . S
O139 Co136 1.970 . S
O139 C138 1.258 . S
O140 Co137 1.966 . S
O140 C138 1.263 . S
C141 O142 1.235 . S
C141 O168 1.289 . S
O142 C141 1.235 . S
C143 C145 1.400 . S
C143 N146 1.351 . S
C143 C148 1.501 . S
C144 C145 1.387 . S
C144 N147 1.341 . S
C145 C143 1.400 . S
C145 C144 1.387 . S
N146 Co137 2.022 . S
N146 C143 1.351 . S
N146 N147 1.365 . S
N147 C144 1.341 . S
N147 N146 1.365 . S
N147 H167 0.862 . S
C148 C143 1.501 . S
C148 H149 0.961 . S
C148 H150 0.961 . S
C148 H151 0.960 . S
H149 C148 0.961 . S
H150 C148 0.961 . S
H151 C148 0.960 . S
C152 N153 1.342 . S
C152 C156 1.401 . S
C152 C157 1.499 . S
N153 Co136 1.989 . S
N153 C152 1.342 . S
N153 N154 1.388 . S
N154 Co137 1.993 . S
N154 N153 1.388 . S
N154 C155 1.346 . S
C155 N154 1.346 . S
C155 C156 1.396 . S
C155 C165 1.510 . S
C156 C152 1.401 . S
C156 C155 1.396 . S
C157 C152 1.499 . S
C157 H158 0.959 . S
C157 H159 0.960 . S
C157 H160 0.961 . S
H158 C157 0.959 . S
H159 C157 0.960 . S
H160 C157 0.961 . S
O161 Co136 1.967 . S
O161 C169 1.258 . S
O162 Co137 1.941 . S
O162 C169 1.266 . S
H163 C165 0.959 . S
H164 C165 0.961 . S
C165 C155 1.510 . S
C165 H163 0.959 . S
C165 H164 0.961 . S
C165 H166 0.960 . S
H166 C165 0.960 . S
H167 N147 0.862 . S
O168 Co136 1.920 . S
O168 C141 1.289 . S
C169 O161 1.258 . S
C169 O162 1.266 . S
Co170 O173 1.970 1_565 S
Co170 N187 1.989 . S
Co170 O195 1.967 1_565 S
Co170 O202 1.920 . S
Co171 O174 1.966 . S
Co171 N180 2.022 . S
Co171 N188 1.993 . S
Co171 O196 1.941 . S
C172 O173 1.258 . S
C172 O174 1.263 . S
O173 Co170 1.970 1_545 S
O173 C172 1.258 . S
O174 Co171 1.966 . S
O174 C172 1.263 . S
C175 O176 1.235 . S
C175 O202 1.289 . S
O176 C175 1.235 . S
C177 C179 1.400 . S
C177 N180 1.351 . S
C177 C182 1.501 . S
C178 C179 1.387 1_655 S
C178 N181 1.341 . S
C179 C177 1.400 . S
C179 C178 1.387 1_455 S
N180 Co171 2.022 . S
N180 C177 1.351 . S
N180 N181 1.365 1_455 S
N181 C178 1.341 . S
N181 N180 1.365 1_655 S
N181 H201 0.862 . S
C182 C177 1.501 . S
C182 H183 0.961 . S
C182 H184 0.961 . S
C182 H185 0.960 . S
H183 C182 0.961 . S
H184 C182 0.961 . S
H185 C182 0.960 . S
C186 N187 1.342 . S
C186 C190 1.401 1_455 S
C186 C191 1.499 . S
N187 Co170 1.989 . S
N187 C186 1.342 . S
N187 N188 1.388 1_565 S
N188 Co171 1.993 . S
N188 N187 1.388 1_545 S
N188 C189 1.346 1_545 S
C189 N188 1.346 1_565 S
C189 C190 1.396 1_455 S
C189 C199 1.510 1_465 S
C190 C186 1.401 1_655 S
C190 C189 1.396 1_655 S
C191 C186 1.499 . S
C191 H192 0.959 . S
C191 H193 0.960 . S
C191 H194 0.961 1_455 S
H192 C191 0.959 . S
H193 C191 0.960 . S
H194 C191 0.961 1_655 S
O195 Co170 1.967 1_545 S
O195 C203 1.258 . S
O196 Co171 1.941 . S
O196 C203 1.266 . S
H197 C199 0.959 . S
H198 C199 0.961 1_465 S
C199 C189 1.510 1_645 S
C199 H197 0.959 . S
C199 H198 0.961 1_645 S
C199 H200 0.960 1_655 S
H200 C199 0.960 1_455 S
H201 N181 0.862 . S
O202 Co170 1.920 . S
O202 C175 1.289 . S
C203 O195 1.258 . S
C203 O196 1.266 . S
Co204 O207 1.970 1_565 S
Co204 N221 1.989 . S
Co204 O229 1.967 1_565 S
Co204 O236 1.920 . S
Co205 O208 1.966 . S
Co205 N214 2.022 1_556 S
Co205 N222 1.993 1_556 S
Co205 O230 1.941 . S
C206 O207 1.258 . S
C206 O208 1.263 . S
O207 Co204 1.970 1_545 S
O207 C206 1.258 . S
O208 Co205 1.966 . S
O208 C206 1.263 . S
C209 O210 1.235 . S
C209 O236 1.289 . S
O210 C209 1.235 . S
C211 C213 1.400 . S
C211 N214 1.351 . S
C211 C216 1.501 . S
C212 C213 1.387 . S
C212 N215 1.341 . S
C213 C211 1.400 . S
C213 C212 1.387 . S
N214 Co205 2.022 1_554 S
N214 C211 1.351 . S
N214 N215 1.365 . S
N215 C212 1.341 . S
N215 N214 1.365 . S
N215 H235 0.862 . S
C216 C211 1.501 . S
C216 H217 0.961 . S
C216 H218 0.961 . S
C216 H219 0.960 . S
H217 C216 0.961 . S
H218 C216 0.961 . S
H219 C216 0.960 . S
C220 N221 1.342 . S
C220 C224 1.401 1_556 S
C220 C225 1.499 . S
N221 Co204 1.989 . S
N221 C220 1.342 . S
N221 N222 1.388 1_566 S
N222 Co205 1.993 1_554 S
N222 N221 1.388 1_544 S
N222 C223 1.346 1_545 S
C223 N222 1.346 1_565 S
C223 C224 1.396 . S
C223 C233 1.510 1_565 S
C224 C220 1.401 1_554 S
C224 C223 1.396 . S
C225 C220 1.499 . S
C225 H226 0.959 . S
C225 H227 0.960 . S
C225 H228 0.961 . S
H226 C225 0.959 . S
H227 C225 0.960 . S
H228 C225 0.961 . S
O229 Co204 1.967 1_545 S
O229 C237 1.258 . S
O230 Co205 1.941 . S
O230 C237 1.266 . S
H231 C233 0.959 . S
H232 C233 0.961 1_565 S
C233 C223 1.510 1_545 S
C233 H231 0.959 . S
C233 H232 0.961 1_545 S
C233 H234 0.960 . S
H234 C233 0.960 . S
H235 N215 0.862 . S
O236 Co204 1.920 . S
O236 C209 1.289 . S
C237 O229 1.258 . S
C237 O230 1.266 . S
Co238 O241 1.970 . S
Co238 N255 1.989 . S
Co238 O263 1.967 . S
Co238 O270 1.920 . S
Co239 O242 1.966 . S
Co239 N248 2.022 1_556 S
Co239 N256 1.993 1_556 S
Co239 O264 1.941 . S
C240 O241 1.258 . S
C240 O242 1.263 . S
O241 Co238 1.970 . S
O241 C240 1.258 . S
O242 Co239 1.966 . S
O242 C240 1.263 . S
C243 O244 1.235 . S
C243 O270 1.289 . S
O244 C243 1.235 . S
C245 C247 1.400 . S
C245 N248 1.351 . S
C245 C250 1.501 . S
C246 C247 1.387 1_655 S
C246 N249 1.341 . S
C247 C245 1.400 . S
C247 C246 1.387 1_455 S
N248 Co239 2.022 1_554 S
N248 C245 1.351 . S
N248 N249 1.365 1_455 S
N249 C246 1.341 . S
N249 N248 1.365 1_655 S
N249 H269 0.862 . S
C250 C245 1.501 . S
C250 H251 0.961 . S
C250 H252 0.961 . S
C250 H253 0.960 . S
H251 C250 0.961 . S
H252 C250 0.961 . S
H253 C250 0.960 . S
C254 N255 1.342 . S
C254 C258 1.401 1_456 S
C254 C259 1.499 . S
N255 Co238 1.989 . S
N255 C254 1.342 . S
N255 N256 1.388 1_556 S
N256 Co239 1.993 1_554 S
N256 N255 1.388 1_554 S
N256 C257 1.346 . S
C257 N256 1.346 . S
C257 C258 1.396 1_455 S
C257 C267 1.510 1_455 S
C258 C254 1.401 1_654 S
C258 C257 1.396 1_655 S
C259 C254 1.499 . S
C259 H260 0.959 . S
C259 H261 0.960 . S
C259 H262 0.961 1_455 S
H260 C259 0.959 . S
H261 C259 0.960 . S
H262 C259 0.961 1_655 S
O263 Co238 1.967 . S
O263 C271 1.258 . S
O264 Co239 1.941 . S
O264 C271 1.266 . S
H265 C267 0.959 . S
H266 C267 0.961 1_455 S
C267 C257 1.510 1_655 S
C267 H265 0.959 . S
C267 H266 0.961 1_655 S
C267 H268 0.960 1_655 S
H268 C267 0.960 1_455 S
H269 N249 0.862 . S
O270 Co238 1.920 . S
O270 C243 1.289 . S
C271 O263 1.258 . S
C271 O264 1.266 . S
Co272 O275 1.970 . S
Co272 N289 1.989 . S
Co272 O297 1.967 . S
Co272 O304 1.920 . S
Co273 O276 1.966 . S
Co273 N282 2.022 . S
Co273 N290 1.993 . S
Co273 O298 1.941 . S
C274 O275 1.258 . S
C274 O276 1.263 . S
O275 Co272 1.970 . S
O275 C274 1.258 . S
O276 Co273 1.966 . S
O276 C274 1.263 . S
C277 O278 1.235 . S
C277 O304 1.289 . S
O278 C277 1.235 . S
C279 C281 1.400 . S
C279 N282 1.351 . S
C279 C284 1.501 . S
C280 C281 1.387 . S
C280 N283 1.341 . S
C281 C279 1.400 . S
C281 C280 1.387 . S
N282 Co273 2.022 . S
N282 C279 1.351 . S
N282 N283 1.365 . S
N283 C280 1.341 . S
N283 N282 1.365 . S
N283 H303 0.862 . S
C284 C279 1.501 . S
C284 H285 0.961 . S
C284 H286 0.961 . S
C284 H287 0.960 . S
H285 C284 0.961 . S
H286 C284 0.961 . S
H287 C284 0.960 . S
C288 N289 1.342 . S
C288 C292 1.401 . S
C288 C293 1.499 . S
N289 Co272 1.989 . S
N289 C288 1.342 . S
N289 N290 1.388 . S
N290 Co273 1.993 . S
N290 N289 1.388 . S
N290 C291 1.346 . S
C291 N290 1.346 . S
C291 C292 1.396 . S
C291 C301 1.510 . S
C292 C288 1.401 . S
C292 C291 1.396 . S
C293 C288 1.499 . S
C293 H294 0.959 . S
C293 H295 0.960 . S
C293 H296 0.961 . S
H294 C293 0.959 . S
H295 C293 0.960 . S
H296 C293 0.961 . S
O297 Co272 1.967 . S
O297 C305 1.258 . S
O298 Co273 1.941 . S
O298 C305 1.266 . S
H299 C301 0.959 . S
H300 C301 0.961 . S
C301 C291 1.510 . S
C301 H299 0.959 . S
C301 H300 0.961 . S
C301 H302 0.960 . S
H302 C301 0.960 . S
H303 N283 0.862 . S
O304 Co272 1.920 . S
O304 C277 1.289 . S
C305 O297 1.258 . S
C305 O298 1.266 . S
Co306 O309 1.970 . S
Co306 N323 1.989 . S
Co306 O331 1.967 . S
Co306 O338 1.920 . S
Co307 O310 1.966 . S
Co307 N316 2.022 . S
Co307 N324 1.993 . S
Co307 O332 1.941 . S
C308 O309 1.258 . S
C308 O310 1.263 . S
O309 Co306 1.970 . S
O309 C308 1.258 . S
O310 Co307 1.966 . S
O310 C308 1.263 . S
C311 O312 1.235 . S
C311 O338 1.289 . S
O312 C311 1.235 . S
C313 C315 1.400 . S
C313 N316 1.351 . S
C313 C318 1.501 . S
C314 C315 1.387 1_455 S
C314 N317 1.341 . S
C315 C313 1.400 . S
C315 C314 1.387 1_655 S
N316 Co307 2.022 . S
N316 C313 1.351 . S
N316 N317 1.365 1_655 S
N317 C314 1.341 . S
N317 N316 1.365 1_455 S
N317 H337 0.862 . S
C318 C313 1.501 . S
C318 H319 0.961 . S
C318 H320 0.961 . S
C318 H321 0.960 . S
H319 C318 0.961 . S
H320 C318 0.961 . S
H321 C318 0.960 . S
C322 N323 1.342 . S
C322 C326 1.401 1_655 S
C322 C327 1.499 . S
N323 Co306 1.989 . S
N323 C322 1.342 . S
N323 N324 1.388 . S
N324 Co307 1.993 . S
N324 N323 1.388 . S
N324 C325 1.346 . S
C325 N324 1.346 . S
C325 C326 1.396 1_655 S
C325 C335 1.510 1_655 S
C326 C322 1.401 1_455 S
C326 C325 1.396 1_455 S
C327 C322 1.499 . S
C327 H328 0.959 . S
C327 H329 0.960 . S
C327 H330 0.961 1_655 S
H328 C327 0.959 . S
H329 C327 0.960 . S
H330 C327 0.961 1_455 S
O331 Co306 1.967 . S
O331 C339 1.258 . S
O332 Co307 1.941 . S
O332 C339 1.266 . S
H333 C335 0.959 . S
H334 C335 0.961 1_655 S
C335 C325 1.510 1_455 S
C335 H333 0.959 . S
C335 H334 0.961 1_455 S
C335 H336 0.960 1_455 S
H336 C335 0.960 1_655 S
H337 N317 0.862 . S
O338 Co306 1.920 . S
O338 C311 1.289 . S
C339 O331 1.258 . S
C339 O332 1.266 . S
Co340 O343 1.970 . S
Co340 N357 1.989 . S
Co340 O365 1.967 . S
Co340 O372 1.920 . S
Co341 O344 1.966 . S
Co341 N350 2.022 . S
Co341 N358 1.993 . S
Co341 O366 1.941 . S
C342 O343 1.258 . S
C342 O344 1.263 . S
O343 Co340 1.970 . S
O343 C342 1.258 . S
O344 Co341 1.966 . S
O344 C342 1.263 . S
C345 O346 1.235 . S
C345 O372 1.289 . S
O346 C345 1.235 . S
C347 C349 1.400 . S
C347 N350 1.351 . S
C347 C352 1.501 . S
C348 C349 1.387 . S
C348 N351 1.341 . S
C349 C347 1.400 . S
C349 C348 1.387 . S
N350 Co341 2.022 . S
N350 C347 1.351 . S
N350 N351 1.365 . S
N351 C348 1.341 . S
N351 N350 1.365 . S
N351 H371 0.862 . S
C352 C347 1.501 . S
C352 H353 0.961 . S
C352 H354 0.961 . S
C352 H355 0.960 . S
H353 C352 0.961 . S
H354 C352 0.961 . S
H355 C352 0.960 . S
C356 N357 1.342 . S
C356 C360 1.401 . S
C356 C361 1.499 . S
N357 Co340 1.989 . S
N357 C356 1.342 . S
N357 N358 1.388 . S
N358 Co341 1.993 . S
N358 N357 1.388 . S
N358 C359 1.346 . S
C359 N358 1.346 . S
C359 C360 1.396 . S
C359 C369 1.510 . S
C360 C356 1.401 . S
C360 C359 1.396 . S
C361 C356 1.499 . S
C361 H362 0.959 . S
C361 H363 0.960 . S
C361 H364 0.961 . S
H362 C361 0.959 . S
H363 C361 0.960 . S
H364 C361 0.961 . S
O365 Co340 1.967 . S
O365 C373 1.258 . S
O366 Co341 1.941 . S
O366 C373 1.266 . S
H367 C369 0.959 . S
H368 C369 0.961 . S
C369 C359 1.510 . S
C369 H367 0.959 . S
C369 H368 0.961 . S
C369 H370 0.960 . S
H370 C369 0.960 . S
H371 N351 0.862 . S
O372 Co340 1.920 . S
O372 C345 1.289 . S
C373 O365 1.258 . S
C373 O366 1.266 . S
Co374 O377 1.970 . S
Co374 N391 1.989 . S
Co374 O399 1.967 . S
Co374 O406 1.920 . S
Co375 O378 1.966 . S
Co375 N384 2.022 . S
Co375 N392 1.993 . S
Co375 O400 1.941 . S
C376 O377 1.258 . S
C376 O378 1.263 . S
O377 Co374 1.970 . S
O377 C376 1.258 . S
O378 Co375 1.966 . S
O378 C376 1.263 . S
C379 O380 1.235 . S
C379 O406 1.289 . S
O380 C379 1.235 . S
C381 C383 1.400 . S
C381 N384 1.351 . S
C381 C386 1.501 . S
C382 C383 1.387 1_455 S
C382 N385 1.341 . S
C383 C381 1.400 . S
C383 C382 1.387 1_655 S
N384 Co375 2.022 . S
N384 C381 1.351 . S
N384 N385 1.365 1_655 S
N385 C382 1.341 . S
N385 N384 1.365 1_455 S
N385 H405 0.862 . S
C386 C381 1.501 . S
C386 H387 0.961 . S
C386 H388 0.961 . S
C386 H389 0.960 . S
H387 C386 0.961 . S
H388 C386 0.961 . S
H389 C386 0.960 . S
C390 N391 1.342 . S
C390 C394 1.401 1_655 S
C390 C395 1.499 . S
N391 Co374 1.989 . S
N391 C390 1.342 . S
N391 N392 1.388 . S
N392 Co375 1.993 . S
N392 N391 1.388 . S
N392 C393 1.346 . S
C393 N392 1.346 . S
C393 C394 1.396 1_655 S
C393 C403 1.510 1_655 S
C394 C390 1.401 1_455 S
C394 C393 1.396 1_455 S
C395 C390 1.499 . S
C395 H396 0.959 . S
C395 H397 0.960 . S
C395 H398 0.961 1_655 S
H396 C395 0.959 . S
H397 C395 0.960 . S
H398 C395 0.961 1_455 S
O399 Co374 1.967 . S
O399 C407 1.258 . S
O400 Co375 1.941 . S
O400 C407 1.266 . S
H401 C403 0.959 . S
H402 C403 0.961 1_655 S
C403 C393 1.510 1_455 S
C403 H401 0.959 . S
C403 H402 0.961 1_455 S
C403 H404 0.960 1_455 S
H404 C403 0.960 1_655 S
H405 N385 0.862 . S
O406 Co374 1.920 . S
O406 C379 1.289 . S
C407 O399 1.258 . S
C407 O400 1.266 . S
Co408 O411 1.970 . S
Co408 N425 1.989 . S
Co408 O433 1.967 . S
Co408 O440 1.920 . S
Co409 O412 1.966 . S
Co409 N418 2.022 . S
Co409 N426 1.993 . S
Co409 O434 1.941 . S
C410 O411 1.258 . S
C410 O412 1.263 . S
O411 Co408 1.970 . S
O411 C410 1.258 . S
O412 Co409 1.966 . S
O412 C410 1.263 . S
C413 O414 1.235 . S
C413 O440 1.289 . S
O414 C413 1.235 . S
C415 C417 1.400 . S
C415 N418 1.351 . S
C415 C420 1.501 . S
C416 C417 1.387 . S
C416 N419 1.341 . S
C417 C415 1.400 . S
C417 C416 1.387 . S
N418 Co409 2.022 . S
N418 C415 1.351 . S
N418 N419 1.365 . S
N419 C416 1.341 . S
N419 N418 1.365 . S
N419 H439 0.862 . S
C420 C415 1.501 . S
C420 H421 0.961 . S
C420 H422 0.961 . S
C420 H423 0.960 . S
H421 C420 0.961 . S
H422 C420 0.961 . S
H423 C420 0.960 . S
C424 N425 1.342 . S
C424 C428 1.401 . S
C424 C429 1.499 . S
N425 Co408 1.989 . S
N425 C424 1.342 . S
N425 N426 1.388 . S
N426 Co409 1.993 . S
N426 N425 1.388 . S
N426 C427 1.346 . S
C427 N426 1.346 . S
C427 C428 1.396 . S
C427 C437 1.510 . S
C428 C424 1.401 . S
C428 C427 1.396 . S
C429 C424 1.499 . S
C429 H430 0.959 . S
C429 H431 0.960 . S
C429 H432 0.961 . S
H430 C429 0.959 . S
H431 C429 0.960 . S
H432 C429 0.961 . S
O433 Co408 1.967 . S
O433 C441 1.258 . S
O434 Co409 1.941 . S
O434 C441 1.266 . S
H435 C437 0.959 . S
H436 C437 0.961 . S
C437 C427 1.510 . S
C437 H435 0.959 . S
C437 H436 0.961 . S
C437 H438 0.960 . S
H438 C437 0.960 . S
H439 N419 0.862 . S
O440 Co408 1.920 . S
O440 C413 1.289 . S
C441 O433 1.258 . S
C441 O434 1.266 . S
Co442 O445 1.970 . S
Co442 N459 1.989 . S
Co442 O467 1.967 . S
Co442 O474 1.920 . S
Co443 O446 1.966 . S
Co443 N452 2.022 . S
Co443 N460 1.993 . S
Co443 O468 1.941 . S
C444 O445 1.258 . S
C444 O446 1.263 . S
O445 Co442 1.970 . S
O445 C444 1.258 . S
O446 Co443 1.966 . S
O446 C444 1.263 . S
C447 O448 1.235 . S
C447 O474 1.289 . S
O448 C447 1.235 . S
C449 C451 1.400 . S
C449 N452 1.351 . S
C449 C454 1.501 . S
C450 C451 1.387 1_655 S
C450 N453 1.341 . S
C451 C449 1.400 . S
C451 C450 1.387 1_455 S
N452 Co443 2.022 . S
N452 C449 1.351 . S
N452 N453 1.365 1_455 S
N453 C450 1.341 . S
N453 N452 1.365 1_655 S
N453 H473 0.862 . S
C454 C449 1.501 . S
C454 H455 0.961 . S
C454 H456 0.961 . S
C454 H457 0.960 . S
H455 C454 0.961 . S
H456 C454 0.961 . S
H457 C454 0.960 . S
C458 N459 1.342 . S
C458 C462 1.401 1_455 S
C458 C463 1.499 . S
N459 Co442 1.989 . S
N459 C458 1.342 . S
N459 N460 1.388 . S
N460 Co443 1.993 . S
N460 N459 1.388 . S
N460 C461 1.346 . S
C461 N460 1.346 . S
C461 C462 1.396 1_455 S
C461 C471 1.510 1_455 S
C462 C458 1.401 1_655 S
C462 C461 1.396 1_655 S
C463 C458 1.499 . S
C463 H464 0.959 . S
C463 H465 0.960 . S
C463 H466 0.961 1_455 S
H464 C463 0.959 . S
H465 C463 0.960 . S
H466 C463 0.961 1_655 S
O467 Co442 1.967 . S
O467 C475 1.258 . S
O468 Co443 1.941 . S
O468 C475 1.266 . S
H469 C471 0.959 . S
H470 C471 0.961 1_455 S
C471 C461 1.510 1_655 S
C471 H469 0.959 . S
C471 H470 0.961 1_655 S
C471 H472 0.960 1_655 S
H472 C471 0.960 1_455 S
H473 N453 0.862 . S
O474 Co442 1.920 . S
O474 C447 1.289 . S
C475 O467 1.258 . S
C475 O468 1.266 . S
Co476 O479 1.970 . S
Co476 N493 1.989 . S
Co476 O501 1.967 . S
Co476 O508 1.920 . S
Co477 O480 1.966 . S
Co477 N486 2.022 . S
Co477 N494 1.993 . S
Co477 O502 1.941 . S
C478 O479 1.258 . S
C478 O480 1.263 . S
O479 Co476 1.970 . S
O479 C478 1.258 . S
O480 Co477 1.966 . S
O480 C478 1.263 . S
C481 O482 1.235 . S
C481 O508 1.289 . S
O482 C481 1.235 . S
C483 C485 1.400 . S
C483 N486 1.351 . S
C483 C488 1.501 . S
C484 C485 1.387 . S
C484 N487 1.341 . S
C485 C483 1.400 . S
C485 C484 1.387 . S
N486 Co477 2.022 . S
N486 C483 1.351 . S
N486 N487 1.365 . S
N487 C484 1.341 . S
N487 N486 1.365 . S
N487 H507 0.862 . S
C488 C483 1.501 . S
C488 H489 0.961 . S
C488 H490 0.961 . S
C488 H491 0.960 . S
H489 C488 0.961 . S
H490 C488 0.961 . S
H491 C488 0.960 . S
C492 N493 1.342 . S
C492 C496 1.401 . S
C492 C497 1.499 . S
N493 Co476 1.989 . S
N493 C492 1.342 . S
N493 N494 1.388 . S
N494 Co477 1.993 . S
N494 N493 1.388 . S
N494 C495 1.346 . S
C495 N494 1.346 . S
C495 C496 1.396 . S
C495 C505 1.510 . S
C496 C492 1.401 . S
C496 C495 1.396 . S
C497 C492 1.499 . S
C497 H498 0.959 . S
C497 H499 0.960 . S
C497 H500 0.961 . S
H498 C497 0.959 . S
H499 C497 0.960 . S
H500 C497 0.961 . S
O501 Co476 1.967 . S
O501 C509 1.258 . S
O502 Co477 1.941 . S
O502 C509 1.266 . S
H503 C505 0.959 . S
H504 C505 0.961 . S
C505 C495 1.510 . S
C505 H503 0.959 . S
C505 H504 0.961 . S
C505 H506 0.960 . S
H506 C505 0.960 . S
H507 N487 0.862 . S
O508 Co476 1.920 . S
O508 C481 1.289 . S
C509 O501 1.258 . S
C509 O502 1.266 . S
Co510 O513 1.970 . S
Co510 N527 1.989 . S
Co510 O535 1.967 . S
Co510 O542 1.920 . S
Co511 O514 1.966 . S
Co511 N520 2.022 . S
Co511 N528 1.993 . S
Co511 O536 1.941 . S
C512 O513 1.258 . S
C512 O514 1.263 . S
O513 Co510 1.970 . S
O513 C512 1.258 . S
O514 Co511 1.966 . S
O514 C512 1.263 . S
C515 O516 1.235 . S
C515 O542 1.289 . S
O516 C515 1.235 . S
C517 C519 1.400 . S
C517 N520 1.351 . S
C517 C522 1.501 . S
C518 C519 1.387 1_655 S
C518 N521 1.341 . S
C519 C517 1.400 . S
C519 C518 1.387 1_455 S
N520 Co511 2.022 . S
N520 C517 1.351 . S
N520 N521 1.365 1_455 S
N521 C518 1.341 . S
N521 N520 1.365 1_655 S
N521 H541 0.862 . S
C522 C517 1.501 . S
C522 H523 0.961 . S
C522 H524 0.961 . S
C522 H525 0.960 . S
H523 C522 0.961 . S
H524 C522 0.961 . S
H525 C522 0.960 . S
C526 N527 1.342 . S
C526 C530 1.401 1_455 S
C526 C531 1.499 . S
N527 Co510 1.989 . S
N527 C526 1.342 . S
N527 N528 1.388 . S
N528 Co511 1.993 . S
N528 N527 1.388 . S
N528 C529 1.346 . S
C529 N528 1.346 . S
C529 C530 1.396 1_455 S
C529 C539 1.510 1_455 S
C530 C526 1.401 1_655 S
C530 C529 1.396 1_655 S
C531 C526 1.499 . S
C531 H532 0.959 . S
C531 H533 0.960 . S
C531 H534 0.961 1_455 S
H532 C531 0.959 . S
H533 C531 0.960 . S
H534 C531 0.961 1_655 S
O535 Co510 1.967 . S
O535 C543 1.258 . S
O536 Co511 1.941 . S
O536 C543 1.266 . S
H537 C539 0.959 . S
H538 C539 0.961 1_455 S
C539 C529 1.510 1_655 S
C539 H537 0.959 . S
C539 H538 0.961 1_655 S
C539 H540 0.960 1_655 S
H540 C539 0.960 1_455 S
H541 N521 0.862 . S
O542 Co510 1.920 . S
O542 C515 1.289 . S
C543 O535 1.258 . S
C543 O536 1.266 . S
Co544 O547 1.970 . S
Co544 N561 1.989 . S
Co544 O569 1.967 . S
Co544 O576 1.920 . S
Co545 O548 1.966 . S
Co545 N554 2.022 . S
Co545 N562 1.993 . S
Co545 O570 1.941 . S
C546 O547 1.258 . S
C546 O548 1.263 . S
O547 Co544 1.970 . S
O547 C546 1.258 . S
O548 Co545 1.966 . S
O548 C546 1.263 . S
C549 O550 1.235 . S
C549 O576 1.289 . S
O550 C549 1.235 . S
C551 C553 1.400 . S
C551 N554 1.351 . S
C551 C556 1.501 . S
C552 C553 1.387 . S
C552 N555 1.341 . S
C553 C551 1.400 . S
C553 C552 1.387 . S
N554 Co545 2.022 . S
N554 C551 1.351 . S
N554 N555 1.365 . S
N555 C552 1.341 . S
N555 N554 1.365 . S
N555 H575 0.862 . S
C556 C551 1.501 . S
C556 H557 0.961 . S
C556 H558 0.961 . S
C556 H559 0.960 . S
H557 C556 0.961 . S
H558 C556 0.961 . S
H559 C556 0.960 . S
C560 N561 1.342 . S
C560 C564 1.401 . S
C560 C565 1.499 . S
N561 Co544 1.989 . S
N561 C560 1.342 . S
N561 N562 1.388 . S
N562 Co545 1.993 . S
N562 N561 1.388 . S
N562 C563 1.346 . S
C563 N562 1.346 . S
C563 C564 1.396 . S
C563 C573 1.510 . S
C564 C560 1.401 . S
C564 C563 1.396 . S
C565 C560 1.499 . S
C565 H566 0.959 . S
C565 H567 0.960 . S
C565 H568 0.961 . S
H566 C565 0.959 . S
H567 C565 0.960 . S
H568 C565 0.961 . S
O569 Co544 1.967 . S
O569 C577 1.258 . S
O570 Co545 1.941 . S
O570 C577 1.266 . S
H571 C573 0.959 . S
H572 C573 0.961 . S
C573 C563 1.510 . S
C573 H571 0.959 . S
C573 H572 0.961 . S
C573 H574 0.960 . S
H574 C573 0.960 . S
H575 N555 0.862 . S
O576 Co544 1.920 . S
O576 C549 1.289 . S
C577 O569 1.258 . S
C577 O570 1.266 . S
Co578 O581 1.970 1_545 S
Co578 N595 1.989 . S
Co578 O603 1.967 1_545 S
Co578 O610 1.920 . S
Co579 O582 1.966 . S
Co579 N588 2.022 . S
Co579 N596 1.993 . S
Co579 O604 1.941 . S
C580 O581 1.258 . S
C580 O582 1.263 . S
O581 Co578 1.970 1_565 S
O581 C580 1.258 . S
O582 Co579 1.966 . S
O582 C580 1.263 . S
C583 O584 1.235 . S
C583 O610 1.289 . S
O584 C583 1.235 . S
C585 C587 1.400 . S
C585 N588 1.351 . S
C585 C590 1.501 . S
C586 C587 1.387 . S
C586 N589 1.341 . S
C587 C585 1.400 . S
C587 C586 1.387 . S
N588 Co579 2.022 . S
N588 C585 1.351 . S
N588 N589 1.365 . S
N589 C586 1.341 . S
N589 N588 1.365 . S
N589 H609 0.862 . S
C590 C585 1.501 . S
C590 H591 0.961 . S
C590 H592 0.961 . S
C590 H593 0.960 . S
H591 C590 0.961 . S
H592 C590 0.961 . S
H593 C590 0.960 . S
C594 N595 1.342 . S
C594 C598 1.401 . S
C594 C599 1.499 . S
N595 Co578 1.989 . S
N595 C594 1.342 . S
N595 N596 1.388 1_545 S
N596 Co579 1.993 . S
N596 N595 1.388 1_565 S
N596 C597 1.346 1_565 S
C597 N596 1.346 1_545 S
C597 C598 1.396 . S
C597 C607 1.510 1_545 S
C598 C594 1.401 . S
C598 C597 1.396 . S
C599 C594 1.499 . S
C599 H600 0.959 . S
C599 H601 0.960 . S
C599 H602 0.961 . S
H600 C599 0.959 . S
H601 C599 0.960 . S
H602 C599 0.961 . S
O603 Co578 1.967 1_565 S
O603 C611 1.258 . S
O604 Co579 1.941 . S
O604 C611 1.266 . S
H605 C607 0.959 . S
H606 C607 0.961 1_545 S
C607 C597 1.510 1_565 S
C607 H605 0.959 . S
C607 H606 0.961 1_565 S
C607 H608 0.960 . S
H608 C607 0.960 . S
H609 N589 0.862 . S
O610 Co578 1.920 . S
O610 C583 1.289 . S
C611 O603 1.258 . S
C611 O604 1.266 . S
Co612 O615 1.970 1_545 S
Co612 N629 1.989 . S
Co612 O637 1.967 1_545 S
Co612 O644 1.920 . S
Co613 O616 1.966 . S
Co613 N622 2.022 . S
Co613 N630 1.993 . S
Co613 O638 1.941 . S
C614 O615 1.258 . S
C614 O616 1.263 . S
O615 Co612 1.970 1_565 S
O615 C614 1.258 . S
O616 Co613 1.966 . S
O616 C614 1.263 . S
C617 O618 1.235 . S
C617 O644 1.289 . S
O618 C617 1.235 . S
C619 C621 1.400 . S
C619 N622 1.351 . S
C619 C624 1.501 . S
C620 C621 1.387 . S
C620 N623 1.341 . S
C621 C619 1.400 . S
C621 C620 1.387 . S
N622 Co613 2.022 . S
N622 C619 1.351 . S
N622 N623 1.365 . S
N623 C620 1.341 . S
N623 N622 1.365 . S
N623 H643 0.862 . S
C624 C619 1.501 . S
C624 H625 0.961 . S
C624 H626 0.961 . S
C624 H627 0.960 . S
H625 C624 0.961 . S
H626 C624 0.961 . S
H627 C624 0.960 . S
C628 N629 1.342 . S
C628 C632 1.401 . S
C628 C633 1.499 . S
N629 Co612 1.989 . S
N629 C628 1.342 . S
N629 N630 1.388 1_545 S
N630 Co613 1.993 . S
N630 N629 1.388 1_565 S
N630 C631 1.346 1_565 S
C631 N630 1.346 1_545 S
C631 C632 1.396 . S
C631 C641 1.510 1_545 S
C632 C628 1.401 . S
C632 C631 1.396 . S
C633 C628 1.499 . S
C633 H634 0.959 . S
C633 H635 0.960 . S
C633 H636 0.961 . S
H634 C633 0.959 . S
H635 C633 0.960 . S
H636 C633 0.961 . S
O637 Co612 1.967 1_565 S
O637 C645 1.258 . S
O638 Co613 1.941 . S
O638 C645 1.266 . S
H639 C641 0.959 . S
H640 C641 0.961 1_545 S
C641 C631 1.510 1_565 S
C641 H639 0.959 . S
C641 H640 0.961 1_565 S
C641 H642 0.960 . S
H642 C641 0.960 . S
H643 N623 0.862 . S
O644 Co612 1.920 . S
O644 C617 1.289 . S
C645 O637 1.258 . S
C645 O638 1.266 . S
Co646 O649 1.970 . S
Co646 N663 1.989 . S
Co646 O671 1.967 . S
Co646 O678 1.920 . S
Co647 O650 1.966 . S
Co647 N656 2.022 . S
Co647 N664 1.993 . S
Co647 O672 1.941 . S
C648 O649 1.258 . S
C648 O650 1.263 . S
O649 Co646 1.970 . S
O649 C648 1.258 . S
O650 Co647 1.966 . S
O650 C648 1.263 . S
C651 O652 1.235 . S
C651 O678 1.289 . S
O652 C651 1.235 . S
C653 C655 1.400 . S
C653 N656 1.351 . S
C653 C658 1.501 . S
C654 C655 1.387 . S
C654 N657 1.341 . S
C655 C653 1.400 . S
C655 C654 1.387 . S
N656 Co647 2.022 . S
N656 C653 1.351 . S
N656 N657 1.365 . S
N657 C654 1.341 . S
N657 N656 1.365 . S
N657 H677 0.862 . S
C658 C653 1.501 . S
C658 H659 0.961 . S
C658 H660 0.961 . S
C658 H661 0.960 . S
H659 C658 0.961 . S
H660 C658 0.961 . S
H661 C658 0.960 . S
C662 N663 1.342 . S
C662 C666 1.401 . S
C662 C667 1.499 . S
N663 Co646 1.989 . S
N663 C662 1.342 . S
N663 N664 1.388 . S
N664 Co647 1.993 . S
N664 N663 1.388 . S
N664 C665 1.346 . S
C665 N664 1.346 . S
C665 C666 1.396 . S
C665 C675 1.510 . S
C666 C662 1.401 . S
C666 C665 1.396 . S
C667 C662 1.499 . S
C667 H668 0.959 . S
C667 H669 0.960 . S
C667 H670 0.961 . S
H668 C667 0.959 . S
H669 C667 0.960 . S
H670 C667 0.961 . S
O671 Co646 1.967 . S
O671 C679 1.258 . S
O672 Co647 1.941 . S
O672 C679 1.266 . S
H673 C675 0.959 . S
H674 C675 0.961 . S
C675 C665 1.510 . S
C675 H673 0.959 . S
C675 H674 0.961 . S
C675 H676 0.960 . S
H676 C675 0.960 . S
H677 N657 0.862 . S
O678 Co646 1.920 . S
O678 C651 1.289 . S
C679 O671 1.258 . S
C679 O672 1.266 . S
Co680 O683 1.970 . S
Co680 N697 1.989 . S
Co680 O705 1.967 . S
Co680 O712 1.920 . S
Co681 O684 1.966 . S
Co681 N690 2.022 . S
Co681 N698 1.993 . S
Co681 O706 1.941 . S
C682 O683 1.258 . S
C682 O684 1.263 . S
O683 Co680 1.970 . S
O683 C682 1.258 . S
O684 Co681 1.966 . S
O684 C682 1.263 . S
C685 O686 1.235 . S
C685 O712 1.289 . S
O686 C685 1.235 . S
C687 C689 1.400 . S
C687 N690 1.351 . S
C687 C692 1.501 . S
C688 C689 1.387 . S
C688 N691 1.341 . S
C689 C687 1.400 . S
C689 C688 1.387 . S
N690 Co681 2.022 . S
N690 C687 1.351 . S
N690 N691 1.365 . S
N691 C688 1.341 . S
N691 N690 1.365 . S
N691 H711 0.862 . S
C692 C687 1.501 . S
C692 H693 0.961 . S
C692 H694 0.961 . S
C692 H695 0.960 . S
H693 C692 0.961 . S
H694 C692 0.961 . S
H695 C692 0.960 . S
C696 N697 1.342 . S
C696 C700 1.401 . S
C696 C701 1.499 . S
N697 Co680 1.989 . S
N697 C696 1.342 . S
N697 N698 1.388 . S
N698 Co681 1.993 . S
N698 N697 1.388 . S
N698 C699 1.346 . S
C699 N698 1.346 . S
C699 C700 1.396 . S
C699 C709 1.510 . S
C700 C696 1.401 . S
C700 C699 1.396 . S
C701 C696 1.499 . S
C701 H702 0.959 . S
C701 H703 0.960 . S
C701 H704 0.961 . S
H702 C701 0.959 . S
H703 C701 0.960 . S
H704 C701 0.961 . S
O705 Co680 1.967 . S
O705 C713 1.258 . S
O706 Co681 1.941 . S
O706 C713 1.266 . S
H707 C709 0.959 . S
H708 C709 0.961 . S
C709 C699 1.510 . S
C709 H707 0.959 . S
C709 H708 0.961 . S
C709 H710 0.960 . S
H710 C709 0.960 . S
H711 N691 0.862 . S
O712 Co680 1.920 . S
O712 C685 1.289 . S
C713 O705 1.258 . S
C713 O706 1.266 . S
Co714 O717 1.970 1_565 S
Co714 N731 1.989 . S
Co714 O739 1.967 1_565 S
Co714 O746 1.920 . S
Co715 O718 1.966 . S
Co715 N724 2.022 . S
Co715 N732 1.993 . S
Co715 O740 1.941 . S
C716 O717 1.258 . S
C716 O718 1.263 . S
O717 Co714 1.970 1_545 S
O717 C716 1.258 . S
O718 Co715 1.966 . S
O718 C716 1.263 . S
C719 O720 1.235 . S
C719 O746 1.289 . S
O720 C719 1.235 . S
C721 C723 1.400 . S
C721 N724 1.351 . S
C721 C726 1.501 . S
C722 C723 1.387 . S
C722 N725 1.341 . S
C723 C721 1.400 . S
C723 C722 1.387 . S
N724 Co715 2.022 . S
N724 C721 1.351 . S
N724 N725 1.365 . S
N725 C722 1.341 . S
N725 N724 1.365 . S
N725 H745 0.862 . S
C726 C721 1.501 . S
C726 H727 0.961 . S
C726 H728 0.961 . S
C726 H729 0.960 . S
H727 C726 0.961 . S
H728 C726 0.961 . S
H729 C726 0.960 . S
C730 N731 1.342 . S
C730 C734 1.401 . S
C730 C735 1.499 . S
N731 Co714 1.989 . S
N731 C730 1.342 . S
N731 N732 1.388 1_565 S
N732 Co715 1.993 . S
N732 N731 1.388 1_545 S
N732 C733 1.346 1_545 S
C733 N732 1.346 1_565 S
C733 C734 1.396 . S
C733 C743 1.510 1_565 S
C734 C730 1.401 . S
C734 C733 1.396 . S
C735 C730 1.499 . S
C735 H736 0.959 . S
C735 H737 0.960 . S
C735 H738 0.961 . S
H736 C735 0.959 . S
H737 C735 0.960 . S
H738 C735 0.961 . S
O739 Co714 1.967 1_545 S
O739 C747 1.258 . S
O740 Co715 1.941 . S
O740 C747 1.266 . S
H741 C743 0.959 . S
H742 C743 0.961 1_565 S
C743 C733 1.510 1_545 S
C743 H741 0.959 . S
C743 H742 0.961 1_545 S
C743 H744 0.960 . S
H744 C743 0.960 . S
H745 N725 0.862 . S
O746 Co714 1.920 . S
O746 C719 1.289 . S
C747 O739 1.258 . S
C747 O740 1.266 . S
Co748 O751 1.970 1_565 S
Co748 N765 1.989 . S
Co748 O773 1.967 1_565 S
Co748 O780 1.920 . S
Co749 O752 1.966 . S
Co749 N758 2.022 . S
Co749 N766 1.993 . S
Co749 O774 1.941 . S
C750 O751 1.258 . S
C750 O752 1.263 . S
O751 Co748 1.970 1_545 S
O751 C750 1.258 . S
O752 Co749 1.966 . S
O752 C750 1.263 . S
C753 O754 1.235 . S
C753 O780 1.289 . S
O754 C753 1.235 . S
C755 C757 1.400 . S
C755 N758 1.351 . S
C755 C760 1.501 . S
C756 C757 1.387 . S
C756 N759 1.341 . S
C757 C755 1.400 . S
C757 C756 1.387 . S
N758 Co749 2.022 . S
N758 C755 1.351 . S
N758 N759 1.365 . S
N759 C756 1.341 . S
N759 N758 1.365 . S
N759 H779 0.862 . S
C760 C755 1.501 . S
C760 H761 0.961 . S
C760 H762 0.961 . S
C760 H763 0.960 . S
H761 C760 0.961 . S
H762 C760 0.961 . S
H763 C760 0.960 . S
C764 N765 1.342 . S
C764 C768 1.401 . S
C764 C769 1.499 . S
N765 Co748 1.989 . S
N765 C764 1.342 . S
N765 N766 1.388 1_565 S
N766 Co749 1.993 . S
N766 N765 1.388 1_545 S
N766 C767 1.346 1_545 S
C767 N766 1.346 1_565 S
C767 C768 1.396 . S
C767 C777 1.510 1_565 S
C768 C764 1.401 . S
C768 C767 1.396 . S
C769 C764 1.499 . S
C769 H770 0.959 . S
C769 H771 0.960 . S
C769 H772 0.961 . S
H770 C769 0.959 . S
H771 C769 0.960 . S
H772 C769 0.961 . S
O773 Co748 1.967 1_545 S
O773 C781 1.258 . S
O774 Co749 1.941 . S
O774 C781 1.266 . S
H775 C777 0.959 . S
H776 C777 0.961 1_565 S
C777 C767 1.510 1_545 S
C777 H775 0.959 . S
C777 H776 0.961 1_545 S
C777 H778 0.960 . S
H778 C777 0.960 . S
H779 N759 0.862 . S
O780 Co748 1.920 . S
O780 C753 1.289 . S
C781 O773 1.258 . S
C781 O774 1.266 . S
Co782 O785 1.970 . S
Co782 N799 1.989 . S
Co782 O807 1.967 . S
Co782 O814 1.920 . S
Co783 O786 1.966 . S
Co783 N792 2.022 . S
Co783 N800 1.993 . S
Co783 O808 1.941 . S
C784 O785 1.258 . S
C784 O786 1.263 . S
O785 Co782 1.970 . S
O785 C784 1.258 . S
O786 Co783 1.966 . S
O786 C784 1.263 . S
C787 O788 1.235 . S
C787 O814 1.289 . S
O788 C787 1.235 . S
C789 C791 1.400 . S
C789 N792 1.351 . S
C789 C794 1.501 . S
C790 C791 1.387 . S
C790 N793 1.341 . S
C791 C789 1.400 . S
C791 C790 1.387 . S
N792 Co783 2.022 . S
N792 C789 1.351 . S
N792 N793 1.365 . S
N793 C790 1.341 . S
N793 N792 1.365 . S
N793 H813 0.862 . S
C794 C789 1.501 . S
C794 H795 0.961 . S
C794 H796 0.961 . S
C794 H797 0.960 . S
H795 C794 0.961 . S
H796 C794 0.961 . S
H797 C794 0.960 . S
C798 N799 1.342 . S
C798 C802 1.401 . S
C798 C803 1.499 . S
N799 Co782 1.989 . S
N799 C798 1.342 . S
N799 N800 1.388 . S
N800 Co783 1.993 . S
N800 N799 1.388 . S
N800 C801 1.346 . S
C801 N800 1.346 . S
C801 C802 1.396 . S
C801 C811 1.510 . S
C802 C798 1.401 . S
C802 C801 1.396 . S
C803 C798 1.499 . S
C803 H804 0.959 . S
C803 H805 0.960 . S
C803 H806 0.961 . S
H804 C803 0.959 . S
H805 C803 0.960 . S
H806 C803 0.961 . S
O807 Co782 1.967 . S
O807 C815 1.258 . S
O808 Co783 1.941 . S
O808 C815 1.266 . S
H809 C811 0.959 . S
H810 C811 0.961 . S
C811 C801 1.510 . S
C811 H809 0.959 . S
C811 H810 0.961 . S
C811 H812 0.960 . S
H812 C811 0.960 . S
H813 N793 0.862 . S
O814 Co782 1.920 . S
O814 C787 1.289 . S
C815 O807 1.258 . S
C815 O808 1.266 . S
Co816 O819 1.970 . S
Co816 N833 1.989 . S
Co816 O841 1.967 . S
Co816 O848 1.920 . S
Co817 O820 1.966 . S
Co817 N826 2.022 . S
Co817 N834 1.993 . S
Co817 O842 1.941 . S
C818 O819 1.258 . S
C818 O820 1.263 . S
O819 Co816 1.970 . S
O819 C818 1.258 . S
O820 Co817 1.966 . S
O820 C818 1.263 . S
C821 O822 1.235 . S
C821 O848 1.289 . S
O822 C821 1.235 . S
C823 C825 1.400 . S
C823 N826 1.351 . S
C823 C828 1.501 . S
C824 C825 1.387 . S
C824 N827 1.341 . S
C825 C823 1.400 . S
C825 C824 1.387 . S
N826 Co817 2.022 . S
N826 C823 1.351 . S
N826 N827 1.365 . S
N827 C824 1.341 . S
N827 N826 1.365 . S
N827 H847 0.862 . S
C828 C823 1.501 . S
C828 H829 0.961 . S
C828 H830 0.961 . S
C828 H831 0.960 . S
H829 C828 0.961 . S
H830 C828 0.961 . S
H831 C828 0.960 . S
C832 N833 1.342 . S
C832 C836 1.401 . S
C832 C837 1.499 . S
N833 Co816 1.989 . S
N833 C832 1.342 . S
N833 N834 1.388 . S
N834 Co817 1.993 . S
N834 N833 1.388 . S
N834 C835 1.346 . S
C835 N834 1.346 . S
C835 C836 1.396 . S
C835 C845 1.510 . S
C836 C832 1.401 . S
C836 C835 1.396 . S
C837 C832 1.499 . S
C837 H838 0.959 . S
C837 H839 0.960 . S
C837 H840 0.961 . S
H838 C837 0.959 . S
H839 C837 0.960 . S
H840 C837 0.961 . S
O841 Co816 1.967 . S
O841 C849 1.258 . S
O842 Co817 1.941 . S
O842 C849 1.266 . S
H843 C845 0.959 . S
H844 C845 0.961 . S
C845 C835 1.510 . S
C845 H843 0.959 . S
C845 H844 0.961 . S
C845 H846 0.960 . S
H846 C845 0.960 . S
H847 N827 0.862 . S
O848 Co816 1.920 . S
O848 C821 1.289 . S
C849 O841 1.258 . S
C849 O842 1.266 . S
Co850 O853 1.970 . S
Co850 N867 1.989 . S
Co850 O875 1.967 . S
Co850 O882 1.920 . S
Co851 O854 1.966 . S
Co851 N860 2.022 . S
Co851 N868 1.993 . S
Co851 O876 1.941 . S
C852 O853 1.258 . S
C852 O854 1.263 . S
O853 Co850 1.970 . S
O853 C852 1.258 . S
O854 Co851 1.966 . S
O854 C852 1.263 . S
C855 O856 1.235 . S
C855 O882 1.289 . S
O856 C855 1.235 . S
C857 C859 1.400 . S
C857 N860 1.351 . S
C857 C862 1.501 . S
C858 C859 1.387 . S
C858 N861 1.341 . S
C859 C857 1.400 . S
C859 C858 1.387 . S
N860 Co851 2.022 . S
N860 C857 1.351 . S
N860 N861 1.365 . S
N861 C858 1.341 . S
N861 N860 1.365 . S
N861 H881 0.862 . S
C862 C857 1.501 . S
C862 H863 0.961 . S
C862 H864 0.961 . S
C862 H865 0.960 . S
H863 C862 0.961 . S
H864 C862 0.961 . S
H865 C862 0.960 . S
C866 N867 1.342 . S
C866 C870 1.401 . S
C866 C871 1.499 . S
N867 Co850 1.989 . S
N867 C866 1.342 . S
N867 N868 1.388 . S
N868 Co851 1.993 . S
N868 N867 1.388 . S
N868 C869 1.346 . S
C869 N868 1.346 . S
C869 C870 1.396 . S
C869 C879 1.510 . S
C870 C866 1.401 . S
C870 C869 1.396 . S
C871 C866 1.499 . S
C871 H872 0.959 . S
C871 H873 0.960 . S
C871 H874 0.961 . S
H872 C871 0.959 . S
H873 C871 0.960 . S
H874 C871 0.961 . S
O875 Co850 1.967 . S
O875 C883 1.258 . S
O876 Co851 1.941 . S
O876 C883 1.266 . S
H877 C879 0.959 . S
H878 C879 0.961 . S
C879 C869 1.510 . S
C879 H877 0.959 . S
C879 H878 0.961 . S
C879 H880 0.960 . S
H880 C879 0.960 . S
H881 N861 0.862 . S
O882 Co850 1.920 . S
O882 C855 1.289 . S
C883 O875 1.258 . S
C883 O876 1.266 . S
Co884 O887 1.970 . S
Co884 N901 1.989 . S
Co884 O909 1.967 . S
Co884 O916 1.920 . S
Co885 O888 1.966 . S
Co885 N894 2.022 1_554 S
Co885 N902 1.993 1_554 S
Co885 O910 1.941 . S
C886 O887 1.258 . S
C886 O888 1.263 . S
O887 Co884 1.970 . S
O887 C886 1.258 . S
O888 Co885 1.966 . S
O888 C886 1.263 . S
C889 O890 1.235 . S
C889 O916 1.289 . S
O890 C889 1.235 . S
C891 C893 1.400 . S
C891 N894 1.351 . S
C891 C896 1.501 . S
C892 C893 1.387 . S
C892 N895 1.341 . S
C893 C891 1.400 . S
C893 C892 1.387 . S
N894 Co885 2.022 1_556 S
N894 C891 1.351 . S
N894 N895 1.365 . S
N895 C892 1.341 . S
N895 N894 1.365 . S
N895 H915 0.862 . S
C896 C891 1.501 . S
C896 H897 0.961 . S
C896 H898 0.961 . S
C896 H899 0.960 . S
H897 C896 0.961 . S
H898 C896 0.961 . S
H899 C896 0.960 . S
C900 N901 1.342 . S
C900 C904 1.401 1_554 S
C900 C905 1.499 . S
N901 Co884 1.989 . S
N901 C900 1.342 . S
N901 N902 1.388 1_554 S
N902 Co885 1.993 1_556 S
N902 N901 1.388 1_556 S
N902 C903 1.346 . S
C903 N902 1.346 . S
C903 C904 1.396 . S
C903 C913 1.510 . S
C904 C900 1.401 1_556 S
C904 C903 1.396 . S
C905 C900 1.499 . S
C905 H906 0.959 . S
C905 H907 0.960 . S
C905 H908 0.961 . S
H906 C905 0.959 . S
H907 C905 0.960 . S
H908 C905 0.961 . S
O909 Co884 1.967 . S
O909 C917 1.258 . S
O910 Co885 1.941 . S
O910 C917 1.266 . S
H911 C913 0.959 . S
H912 C913 0.961 . S
C913 C903 1.510 . S
C913 H911 0.959 . S
C913 H912 0.961 . S
C913 H914 0.960 . S
H914 C913 0.960 . S
H915 N895 0.862 . S
O916 Co884 1.920 . S
O916 C889 1.289 . S
C917 O909 1.258 . S
C917 O910 1.266 . S
Co918 O921 1.970 . S
Co918 N935 1.989 . S
Co918 O943 1.967 . S
Co918 O950 1.920 . S
Co919 O922 1.966 . S
Co919 N928 2.022 1_554 S
Co919 N936 1.993 1_554 S
Co919 O944 1.941 . S
C920 O921 1.258 . S
C920 O922 1.263 . S
O921 Co918 1.970 . S
O921 C920 1.258 . S
O922 Co919 1.966 . S
O922 C920 1.263 . S
C923 O924 1.235 . S
C923 O950 1.289 . S
O924 C923 1.235 . S
C925 C927 1.400 . S
C925 N928 1.351 . S
C925 C930 1.501 . S
C926 C927 1.387 . S
C926 N929 1.341 . S
C927 C925 1.400 . S
C927 C926 1.387 . S
N928 Co919 2.022 1_556 S
N928 C925 1.351 . S
N928 N929 1.365 . S
N929 C926 1.341 . S
N929 N928 1.365 . S
N929 H949 0.862 . S
C930 C925 1.501 . S
C930 H931 0.961 . S
C930 H932 0.961 . S
C930 H933 0.960 . S
H931 C930 0.961 . S
H932 C930 0.961 . S
H933 C930 0.960 . S
C934 N935 1.342 . S
C934 C938 1.401 1_554 S
C934 C939 1.499 . S
N935 Co918 1.989 . S
N935 C934 1.342 . S
N935 N936 1.388 1_554 S
N936 Co919 1.993 1_556 S
N936 N935 1.388 1_556 S
N936 C937 1.346 . S
C937 N936 1.346 . S
C937 C938 1.396 . S
C937 C947 1.510 . S
C938 C934 1.401 1_556 S
C938 C937 1.396 . S
C939 C934 1.499 . S
C939 H940 0.959 . S
C939 H941 0.960 . S
C939 H942 0.961 . S
H940 C939 0.959 . S
H941 C939 0.960 . S
H942 C939 0.961 . S
O943 Co918 1.967 . S
O943 C951 1.258 . S
O944 Co919 1.941 . S
O944 C951 1.266 . S
H945 C947 0.959 . S
H946 C947 0.961 . S
C947 C937 1.510 . S
C947 H945 0.959 . S
C947 H946 0.961 . S
C947 H948 0.960 . S
H948 C947 0.960 . S
H949 N929 0.862 . S
O950 Co918 1.920 . S
O950 C923 1.289 . S
C951 O943 1.258 . S
C951 O944 1.266 . S
Co952 O955 1.970 . S
Co952 N969 1.989 . S
Co952 O977 1.967 . S
Co952 O984 1.920 . S
Co953 O956 1.966 . S
Co953 N962 2.022 . S
Co953 N970 1.993 . S
Co953 O978 1.941 . S
C954 O955 1.258 . S
C954 O956 1.263 . S
O955 Co952 1.970 . S
O955 C954 1.258 . S
O956 Co953 1.966 . S
O956 C954 1.263 . S
C957 O958 1.235 . S
C957 O984 1.289 . S
O958 C957 1.235 . S
C959 C961 1.400 . S
C959 N962 1.351 . S
C959 C964 1.501 . S
C960 C961 1.387 . S
C960 N963 1.341 . S
C961 C959 1.400 . S
C961 C960 1.387 . S
N962 Co953 2.022 . S
N962 C959 1.351 . S
N962 N963 1.365 . S
N963 C960 1.341 . S
N963 N962 1.365 . S
N963 H983 0.862 . S
C964 C959 1.501 . S
C964 H965 0.961 . S
C964 H966 0.961 . S
C964 H967 0.960 . S
H965 C964 0.961 . S
H966 C964 0.961 . S
H967 C964 0.960 . S
C968 N969 1.342 . S
C968 C972 1.401 . S
C968 C973 1.499 . S
N969 Co952 1.989 . S
N969 C968 1.342 . S
N969 N970 1.388 . S
N970 Co953 1.993 . S
N970 N969 1.388 . S
N970 C971 1.346 . S
C971 N970 1.346 . S
C971 C972 1.396 . S
C971 C981 1.510 . S
C972 C968 1.401 . S
C972 C971 1.396 . S
C973 C968 1.499 . S
C973 H974 0.959 . S
C973 H975 0.960 . S
C973 H976 0.961 . S
H974 C973 0.959 . S
H975 C973 0.960 . S
H976 C973 0.961 . S
O977 Co952 1.967 . S
O977 C985 1.258 . S
O978 Co953 1.941 . S
O978 C985 1.266 . S
H979 C981 0.959 . S
H980 C981 0.961 . S
C981 C971 1.510 . S
C981 H979 0.959 . S
C981 H980 0.961 . S
C981 H982 0.960 . S
H982 C981 0.960 . S
H983 N963 0.862 . S
O984 Co952 1.920 . S
O984 C957 1.289 . S
C985 O977 1.258 . S
C985 O978 1.266 . S
Co986 O989 1.970 . S
Co986 N1003 1.989 . S
Co986 O1011 1.967 . S
Co986 O1018 1.920 . S
Co987 O990 1.966 . S
Co987 N996 2.022 . S
Co987 N1004 1.993 . S
Co987 O1012 1.941 . S
C988 O989 1.258 . S
C988 O990 1.263 . S
O989 Co986 1.970 . S
O989 C988 1.258 . S
O990 Co987 1.966 . S
O990 C988 1.263 . S
C991 O992 1.235 . S
C991 O1018 1.289 . S
O992 C991 1.235 . S
C993 C995 1.400 . S
C993 N996 1.351 . S
C993 C998 1.501 . S
C994 C995 1.387 . S
C994 N997 1.341 . S
C995 C993 1.400 . S
C995 C994 1.387 . S
N996 Co987 2.022 . S
N996 C993 1.351 . S
N996 N997 1.365 . S
N997 C994 1.341 . S
N997 N996 1.365 . S
N997 H1017 0.862 . S
C998 C993 1.501 . S
C998 H999 0.961 . S
C998 H1000 0.961 . S
C998 H1001 0.960 . S
H999 C998 0.961 . S
H1000 C998 0.961 . S
H1001 C998 0.960 . S
C1002 N1003 1.342 . S
C1002 C1006 1.401 . S
C1002 C1007 1.499 . S
N1003 Co986 1.989 . S
N1003 C1002 1.342 . S
N1003 N1004 1.388 . S
N1004 Co987 1.993 . S
N1004 N1003 1.388 . S
N1004 C1005 1.346 . S
C1005 N1004 1.346 . S
C1005 C1006 1.396 . S
C1005 C1015 1.510 . S
C1006 C1002 1.401 . S
C1006 C1005 1.396 . S
C1007 C1002 1.499 . S
C1007 H1008 0.959 . S
C1007 H1009 0.960 . S
C1007 H1010 0.961 . S
H1008 C1007 0.959 . S
H1009 C1007 0.960 . S
H1010 C1007 0.961 . S
O1011 Co986 1.967 . S
O1011 C1019 1.258 . S
O1012 Co987 1.941 . S
O1012 C1019 1.266 . S
H1013 C1015 0.959 . S
H1014 C1015 0.961 . S
C1015 C1005 1.510 . S
C1015 H1013 0.959 . S
C1015 H1014 0.961 . S
C1015 H1016 0.960 . S
H1016 C1015 0.960 . S
H1017 N997 0.862 . S
O1018 Co986 1.920 . S
O1018 C991 1.289 . S
C1019 O1011 1.258 . S
C1019 O1012 1.266 . S
Co1020 O1023 1.970 . S
Co1020 N1037 1.989 . S
Co1020 O1045 1.967 . S
Co1020 O1052 1.920 . S
Co1021 O1024 1.966 . S
Co1021 N1030 2.022 1_556 S
Co1021 N1038 1.993 1_556 S
Co1021 O1046 1.941 . S
C1022 O1023 1.258 . S
C1022 O1024 1.263 . S
O1023 Co1020 1.970 . S
O1023 C1022 1.258 . S
O1024 Co1021 1.966 . S
O1024 C1022 1.263 . S
C1025 O1026 1.235 . S
C1025 O1052 1.289 . S
O1026 C1025 1.235 . S
C1027 C1029 1.400 . S
C1027 N1030 1.351 . S
C1027 C1032 1.501 . S
C1028 C1029 1.387 . S
C1028 N1031 1.341 . S
C1029 C1027 1.400 . S
C1029 C1028 1.387 . S
N1030 Co1021 2.022 1_554 S
N1030 C1027 1.351 . S
N1030 N1031 1.365 . S
N1031 C1028 1.341 . S
N1031 N1030 1.365 . S
N1031 H1051 0.862 . S
C1032 C1027 1.501 . S
C1032 H1033 0.961 . S
C1032 H1034 0.961 . S
C1032 H1035 0.960 . S
H1033 C1032 0.961 . S
H1034 C1032 0.961 . S
H1035 C1032 0.960 . S
C1036 N1037 1.342 . S
C1036 C1040 1.401 1_556 S
C1036 C1041 1.499 . S
N1037 Co1020 1.989 . S
N1037 C1036 1.342 . S
N1037 N1038 1.388 1_556 S
N1038 Co1021 1.993 1_554 S
N1038 N1037 1.388 1_554 S
N1038 C1039 1.346 . S
C1039 N1038 1.346 . S
C1039 C1040 1.396 . S
C1039 C1049 1.510 . S
C1040 C1036 1.401 1_554 S
C1040 C1039 1.396 . S
C1041 C1036 1.499 . S
C1041 H1042 0.959 . S
C1041 H1043 0.960 . S
C1041 H1044 0.961 . S
H1042 C1041 0.959 . S
H1043 C1041 0.960 . S
H1044 C1041 0.961 . S
O1045 Co1020 1.967 . S
O1045 C1053 1.258 . S
O1046 Co1021 1.941 . S
O1046 C1053 1.266 . S
H1047 C1049 0.959 . S
H1048 C1049 0.961 . S
C1049 C1039 1.510 . S
C1049 H1047 0.959 . S
C1049 H1048 0.961 . S
C1049 H1050 0.960 . S
H1050 C1049 0.960 . S
H1051 N1031 0.862 . S
O1052 Co1020 1.920 . S
O1052 C1025 1.289 . S
C1053 O1045 1.258 . S
C1053 O1046 1.266 . S
Co1054 O1057 1.970 . S
Co1054 N1071 1.989 . S
Co1054 O1079 1.967 . S
Co1054 O1086 1.920 . S
Co1055 O1058 1.966 . S
Co1055 N1064 2.022 1_556 S
Co1055 N1072 1.993 1_556 S
Co1055 O1080 1.941 . S
C1056 O1057 1.258 . S
C1056 O1058 1.263 . S
O1057 Co1054 1.970 . S
O1057 C1056 1.258 . S
O1058 Co1055 1.966 . S
O1058 C1056 1.263 . S
C1059 O1060 1.235 . S
C1059 O1086 1.289 . S
O1060 C1059 1.235 . S
C1061 C1063 1.400 . S
C1061 N1064 1.351 . S
C1061 C1066 1.501 . S
C1062 C1063 1.387 . S
C1062 N1065 1.341 . S
C1063 C1061 1.400 . S
C1063 C1062 1.387 . S
N1064 Co1055 2.022 1_554 S
N1064 C1061 1.351 . S
N1064 N1065 1.365 . S
N1065 C1062 1.341 . S
N1065 N1064 1.365 . S
N1065 H1085 0.862 . S
C1066 C1061 1.501 . S
C1066 H1067 0.961 . S
C1066 H1068 0.961 . S
C1066 H1069 0.960 . S
H1067 C1066 0.961 . S
H1068 C1066 0.961 . S
H1069 C1066 0.960 . S
C1070 N1071 1.342 . S
C1070 C1074 1.401 1_556 S
C1070 C1075 1.499 . S
N1071 Co1054 1.989 . S
N1071 C1070 1.342 . S
N1071 N1072 1.388 1_556 S
N1072 Co1055 1.993 1_554 S
N1072 N1071 1.388 1_554 S
N1072 C1073 1.346 . S
C1073 N1072 1.346 . S
C1073 C1074 1.396 . S
C1073 C1083 1.510 . S
C1074 C1070 1.401 1_554 S
C1074 C1073 1.396 . S
C1075 C1070 1.499 . S
C1075 H1076 0.959 . S
C1075 H1077 0.960 . S
C1075 H1078 0.961 . S
H1076 C1075 0.959 . S
H1077 C1075 0.960 . S
H1078 C1075 0.961 . S
O1079 Co1054 1.967 . S
O1079 C1087 1.258 . S
O1080 Co1055 1.941 . S
O1080 C1087 1.266 . S
H1081 C1083 0.959 . S
H1082 C1083 0.961 . S
C1083 C1073 1.510 . S
C1083 H1081 0.959 . S
C1083 H1082 0.961 . S
C1083 H1084 0.960 . S
H1084 C1083 0.960 . S
H1085 N1065 0.862 . S
O1086 Co1054 1.920 . S
O1086 C1059 1.289 . S
C1087 O1079 1.258 . S
C1087 O1080 1.266 . S
C9 C349 2.102 . S
C383 C43 2.102 . S
C281 C77 2.102 . S
C111 C315 2.102 . S
C145 C485 2.102 . S
C179 C519 2.102 . S
C417 C213 2.102 . S
C451 C247 2.102 . S
C893 C553 2.102 . S
C927 C587 2.102 . S
C621 C825 2.102 . S
C859 C655 2.102 . S
C689 C1029 2.102 . S
C1063 C723 2.102 . S
C757 C961 2.102 . S
C791 C995 2.102 . S
C2 C852 2.576 . S
C36 C818 2.576 . S
C70 C920 2.577 . S
C104 C886 2.577 . S
C138 C988 2.576 . S
C172 C954 2.576 . S
C1056 C206 2.577 . S
C240 C1022 2.577 . S
C580 C274 2.576 . S
C308 C546 2.576 . S
C342 C648 2.577 . S
C614 C376 2.577 . S
C716 C410 2.576 . S
C682 C444 2.576 . S
C478 C784 2.577 . S
C750 C512 2.577 . S
C73 C5 1.087 . S
C39 C107 1.087 . S
C209 C141 1.087 . S
C175 C243 1.087 . S
C277 C345 1.087 . S
C311 C379 1.087 . S
C481 C413 1.087 . S
C515 C447 1.087 . S
C617 C549 1.087 . S
C583 C651 1.087 . S
C685 C753 1.087 . S
C719 C787 1.087 . S
C889 C821 1.087 . S
C855 C923 1.087 . S
C957 C1025 1.087 . S
C1059 C991 1.087 . S
C781 C20 3.502 . S
C543 C54 3.502 . S
C88 C985 3.502 . S
C203 C122 3.502 . S
C156 C645 3.502 . S
C190 C407 3.502 . S
C849 C224 3.502 . S
C258 C67 3.502 . S
C292 C1053 3.502 . S
C271 C326 3.502 . S
C360 C713 3.502 . S
C394 C475 3.502 . S
C917 C428 3.502 . S
C462 C135 3.502 . S
C577 C496 3.502 . S
C339 C530 3.502 . S
C237 C564 3.502 . S
C598 C1087 3.502 . S
C632 C441 3.502 . S
C666 C747 3.502 . S
C700 C101 3.502 . S
C734 C951 3.502 . S
C305 C768 3.502 . S
C611 C802 3.502 . S
C509 C836 3.502 . S
C870 C815 3.502 . S
C169 C904 3.502 . S
C1019 C938 3.502 . S
C972 C373 3.502 . S
C1006 C679 3.502 . S
C33 C1040 3.502 . S
C1074 C883 3.502 . S
