# Generated by pormake.
# Topology sow, (4)-cn, num edge types: 1
# Building blocks:
#     Node 0, Type 0, BuildingBlock: CEKHIL_clean_sbu_0, # of connection points: 4
#     Node 1, Type 0, BuildingBlock: CEKHIL_clean_sbu_0, # of connection points: 4
#     Node 2, Type 0, BuildingBlock: CEKHIL_clean_sbu_0, # of connection points: 4
#     Node 3, Type 0, BuildingBlock: CEKHIL_clean_sbu_0, # of connection points: 4
#     Node 4, Type 0, BuildingBlock: CEKHIL_clean_sbu_0, # of connection points: 4
#     Node 5, Type 0, BuildingBlock: CEKHIL_clean_sbu_0, # of connection points: 4
#     Node 6, Type 0, BuildingBlock: CEKHIL_clean_sbu_0, # of connection points: 4
#     Node 7, Type 0, BuildingBlock: CEKHIL_clean_sbu_0, # of connection points: 4
#     Edge 8, Type (0, 0), BuildingBlock: FUNLAD_clean_linker_1, # of connection points: 2
#     Edge 9, Type (0, 0), BuildingBlock: FUNLAD_clean_linker_1, # of connection points: 2
#     Edge 10, Type (0, 0), BuildingBlock: FUNLAD_clean_linker_1, # of connection points: 2
#     Edge 11, Type (0, 0), BuildingBlock: FUNLAD_clean_linker_1, # of connection points: 2
#     Edge 12, Type (0, 0), BuildingBlock: FUNLAD_clean_linker_1, # of connection points: 2
#     Edge 13, Type (0, 0), BuildingBlock: FUNLAD_clean_linker_1, # of connection points: 2
#     Edge 14, Type (0, 0), BuildingBlock: FUNLAD_clean_linker_1, # of connection points: 2
#     Edge 15, Type (0, 0), BuildingBlock: FUNLAD_clean_linker_1, # of connection points: 2
#     Edge 16, Type (0, 0), BuildingBlock: FUNLAD_clean_linker_1, # of connection points: 2
#     Edge 17, Type (0, 0), BuildingBlock: FUNLAD_clean_linker_1, # of connection points: 2
#     Edge 18, Type (0, 0), BuildingBlock: FUNLAD_clean_linker_1, # of connection points: 2
#     Edge 19, Type (0, 0), BuildingBlock: FUNLAD_clean_linker_1, # of connection points: 2
#     Edge 20, Type (0, 0), BuildingBlock: FUNLAD_clean_linker_1, # of connection points: 2
#     Edge 21, Type (0, 0), BuildingBlock: FUNLAD_clean_linker_1, # of connection points: 2
#     Edge 22, Type (0, 0), BuildingBlock: FUNLAD_clean_linker_1, # of connection points: 2
#     Edge 23, Type (0, 0), BuildingBlock: FUNLAD_clean_linker_1, # of connection points: 2
# Relax obj value: 0.165
# Max RMSD: 0.206
# Mean RMSD: 0.206
data_MOF--net-sow--node1-CEKHIL_clean_sbu_0--edge1-FUNLAD_clean_linker_1
_symmetry_space_group_name_H-M    P1
_symmetry_Int_Tables_number       1
_symmetry_cell_setting            triclinic
loop_
_symmetry_equiv_pos_as_xyz
'x, y, z'
_cell_length_a     40.251931
_cell_length_b     23.134203
_cell_length_c     24.35907
_cell_angle_alpha  90.057541
_cell_angle_beta   90.237527
_cell_angle_gamma 89.838582
loop_
_atom_site_label
_atom_site_type_symbol
_atom_site_fract_x
_atom_site_fract_y
_atom_site_fract_z
_atom_type_partial_charge
Co0 Co 0.14525 0.18534 0.05001 0.0
O1 O 0.18097 0.1659 0.0013 0.0
O2 O 0.16494 0.25527 0.02205 0.0
C3 C 0.10731 0.12458 0.01466 0.0
O4 O 0.10883 0.22172 0.09695 0.0
Co5 Co 0.11852 0.09207 0.1302 0.0
O6 O 0.08291 0.14981 0.1416 0.0
C7 C 0.18018 0.15358 0.15797 0.0
C8 C 0.18435 0.2211 0.9943 0.0
C9 C 0.08526 0.20268 0.12748 0.0
O10 O 0.17701 0.1845 0.11442 0.0
O11 O 0.16041 0.11249 0.17061 0.0
O12 O 0.11299 0.17393 0.99146 0.0
O13 O 0.12739 0.11036 0.05412 0.0
Co14 Co 0.3558 0.33477 0.54962 0.0
O15 O 0.31923 0.35463 0.5019 0.0
O16 O 0.33947 0.26612 0.51343 0.0
C17 C 0.39022 0.40609 0.52375 0.0
O18 O 0.39351 0.29727 0.59332 0.0
Co19 Co 0.38109 0.41961 0.64032 0.0
O20 O 0.41918 0.36528 0.64395 0.0
C21 C 0.31992 0.35168 0.65827 0.0
C22 C 0.31828 0.30017 0.48919 0.0
C23 C 0.41737 0.31406 0.62479 0.0
O24 O 0.32403 0.32413 0.61282 0.0
O25 O 0.33863 0.3931 0.67438 0.0
O26 O 0.38787 0.35942 0.49423 0.0
O27 O 0.36963 0.41044 0.56384 0.0
Co28 Co 0.64119 0.28663 0.97336 0.0
O29 O 0.67372 0.29094 0.03116 0.0
O30 O 0.65602 0.20951 0.99319 0.0
C31 C 0.60395 0.34821 0.01025 0.0
O32 O 0.6066 0.26636 0.91481 0.0
Co33 Co 0.62557 0.39758 0.90511 0.0
O34 O 0.58612 0.35141 0.88436 0.0
C35 C 0.68369 0.32657 0.87606 0.0
C36 C 0.67449 0.2349 0.02988 0.0
C37 C 0.58517 0.29652 0.88765 0.0
O38 O 0.67674 0.29114 0.91504 0.0
O39 O 0.66739 0.37322 0.86697 0.0
O40 O 0.60557 0.29505 0.02689 0.0
O41 O 0.62757 0.36423 0.9778 0.0
Co42 Co 0.86037 0.1841 0.47157 0.0
O43 O 0.82837 0.17498 0.52916 0.0
O44 O 0.842 0.25875 0.49154 0.0
C45 C 0.90045 0.12844 0.50891 0.0
O46 O 0.8937 0.20936 0.41328 0.0
Co47 Co 0.88122 0.07619 0.40319 0.0
O48 O 0.91853 0.12772 0.3835 0.0
C49 C 0.81957 0.1379 0.37411 0.0
C50 C 0.82501 0.23073 0.52818 0.0
C51 C 0.91668 0.18257 0.38665 0.0
O52 O 0.82497 0.17423 0.41317 0.0
O53 O 0.83814 0.09396 0.36481 0.0
O54 O 0.89636 0.18131 0.52524 0.0
O55 O 0.87771 0.10874 0.47616 0.0
Co56 Co 0.85233 0.83184 0.94083 0.0
O57 O 0.82311 0.84103 0.00204 0.0
O58 O 0.83298 0.75794 0.95949 0.0
C59 C 0.89506 0.88165 0.97595 0.0
O60 O 0.88268 0.80646 0.87827 0.0
Co61 Co 0.87251 0.94136 0.87502 0.0
O62 O 0.90384 0.88705 0.83986 0.0
C63 C 0.80855 0.88603 0.8509 0.0
C64 C 0.81832 0.78572 0.9991 0.0
C65 C 0.90237 0.83235 0.84478 0.0
O66 O 0.81475 0.84763 0.88766 0.0
O67 O 0.82776 0.92862 0.84068 0.0
O68 O 0.89026 0.82836 0.99006 0.0
O69 O 0.8717 0.90545 0.94691 0.0
Co70 Co 0.64547 0.69144 0.45537 0.0
O71 O 0.68186 0.67957 0.50566 0.0
O72 O 0.65718 0.76389 0.48991 0.0
C73 C 0.61415 0.61604 0.4818 0.0
O74 O 0.60699 0.72045 0.40819 0.0
Co75 Co 0.62778 0.598 0.36703 0.0
O76 O 0.58751 0.64661 0.35728 0.0
C77 C 0.68494 0.67575 0.34994 0.0
C78 C 0.67949 0.73433 0.51663 0.0
C79 C 0.58561 0.69849 0.37487 0.0
O80 O 0.67752 0.70528 0.39308 0.0
O81 O 0.6699 0.62935 0.33568 0.0
O82 O 0.61363 0.66383 0.5099 0.0
O83 O 0.63606 0.6133 0.44356 0.0
Co84 Co 0.35678 0.66995 0.03702 0.0
O85 O 0.32129 0.6617 0.98443 0.0
O86 O 0.33826 0.74504 0.01943 0.0
C87 C 0.39394 0.61275 0.99374 0.0
O88 O 0.39371 0.69522 0.08945 0.0
Co89 Co 0.38283 0.56226 0.10158 0.0
O90 O 0.4207 0.61446 0.11623 0.0
C91 C 0.32392 0.62559 0.14207 0.0
C92 C 0.3191 0.71767 0.98512 0.0
C93 C 0.4183 0.66921 0.11286 0.0
O94 O 0.32518 0.66109 0.10129 0.0
O95 O 0.34382 0.58291 0.14831 0.0
O96 O 0.3893 0.6656 0.9778 0.0
O97 O 0.37325 0.59417 0.03012 0.0
Co98 Co 0.14432 0.79418 0.53106 0.0
O99 O 0.17685 0.80442 0.47401 0.0
O100 O 0.15808 0.71979 0.50286 0.0
C101 C 0.10678 0.85922 0.5004 0.0
O102 O 0.11022 0.76684 0.58684 0.0
Co103 Co 0.12796 0.89694 0.6098 0.0
O104 O 0.0922 0.84438 0.63428 0.0
C105 C 0.18773 0.82609 0.63033 0.0
C106 C 0.17651 0.74857 0.46886 0.0
C107 C 0.09094 0.79073 0.62228 0.0
O108 O 0.18009 0.79257 0.58992 0.0
O109 O 0.17159 0.87224 0.64203 0.0
O110 O 0.10844 0.80816 0.47872 0.0
O111 O 0.13046 0.87195 0.53434 0.0
H112 H 0.27145 0.31149 0.67733 0.0
C113 C 0.29272 0.33387 0.69478 0.0
H114 H 0.31629 0.36505 0.7663 0.0
H115 H 0.20203 0.39346 0.93187 0.0
H116 H 0.21978 0.49245 0.91885 0.0
H117 H 0.25872 0.51779 0.84482 0.0
H118 H 0.28054 0.44414 0.78396 0.0
C119 C 0.29476 0.34297 0.74928 0.0
C120 C 0.26781 0.32777 0.78829 0.0
C121 C 0.2543 0.37179 0.82228 0.0
C122 C 0.23108 0.3575 0.86393 0.0
C123 C 0.21923 0.40194 0.89889 0.0
C124 C 0.22925 0.45903 0.89193 0.0
C125 C 0.25121 0.47328 0.85033 0.0
C126 C 0.26367 0.43043 0.81582 0.0
H127 H 0.23105 0.21967 0.94809 0.0
C128 C 0.20775 0.24284 0.95339 0.0
H129 H 0.17494 0.30566 0.92152 0.0
H130 H 0.29158 0.23047 0.73578 0.0
H131 H 0.26879 0.13407 0.74136 0.0
H132 H 0.22142 0.11318 0.80209 0.0
H133 H 0.19772 0.18831 0.85942 0.0
C134 C 0.19873 0.28379 0.91724 0.0
C135 C 0.22055 0.29953 0.8703 0.0
C136 C 0.23177 0.25648 0.83301 0.0
C137 C 0.25683 0.26982 0.79413 0.0
C138 C 0.27073 0.22414 0.76285 0.0
C139 C 0.25812 0.16824 0.7661 0.0
C140 C 0.23163 0.15639 0.80055 0.0
C141 C 0.21851 0.1998 0.8337 0.0
H142 H 0.22904 0.19015 0.18018 0.0
C143 C 0.20725 0.16849 0.19635 0.0
H144 H 0.18195 0.14045 0.26703 0.0
H145 H 0.29657 0.12679 0.43885 0.0
H146 H 0.27878 0.02708 0.43304 0.0
H147 H 0.2394 0.99568 0.36122 0.0
H148 H 0.21705 0.06411 0.29547 0.0
C149 C 0.20398 0.16142 0.25088 0.0
C150 C 0.22992 0.18031 0.29099 0.0
C151 C 0.24363 0.13937 0.32814 0.0
C152 C 0.26722 0.15712 0.36845 0.0
C153 C 0.27924 0.11566 0.40653 0.0
C154 C 0.26916 0.05817 0.40379 0.0
C155 C 0.24694 0.04051 0.36344 0.0
C156 C 0.23422 0.08039 0.32602 0.0
H157 H 0.27152 0.30323 0.44226 0.0
C158 C 0.29441 0.27893 0.44803 0.0
H159 H 0.32468 0.21074 0.41995 0.0
H160 H 0.20432 0.27344 0.23423 0.0
H161 H 0.22665 0.37043 0.23285 0.0
H162 H 0.2752 0.39614 0.28991 0.0
H163 H 0.30041 0.3257 0.35077 0.0
C164 C 0.30151 0.23435 0.41457 0.0
C165 C 0.27808 0.21541 0.3703 0.0
C166 C 0.26604 0.25543 0.33063 0.0
C167 C 0.24044 0.23887 0.29341 0.0
C168 C 0.22567 0.28204 0.25994 0.0
C169 C 0.23799 0.33824 0.25922 0.0
C170 C 0.26513 0.35284 0.29163 0.0
C171 C 0.27911 0.31211 0.32693 0.0
H172 H 0.77705 0.18919 0.34344 0.0
C173 C 0.79265 0.15187 0.33476 0.0
H174 H 0.80569 0.08892 0.27534 0.0
H175 H 0.6682 0.13764 0.14715 0.0
H176 H 0.65296 0.04993 0.19484 0.0
H177 H 0.69053 0.00632 0.26359 0.0
H178 H 0.74347 0.05095 0.28568 0.0
C179 C 0.79009 0.12576 0.28551 0.0
C180 C 0.76844 0.14994 0.24136 0.0
C181 C 0.73821 0.12232 0.22733 0.0
C182 C 0.71702 0.14657 0.18631 0.0
C183 C 0.68595 0.12001 0.17603 0.0
C184 C 0.67672 0.06982 0.20355 0.0
C185 C 0.69784 0.04532 0.24236 0.0
C186 C 0.72816 0.07128 0.25454 0.0
H187 H 0.70136 0.15737 0.06046 0.0
C188 C 0.69477 0.20188 0.0697 0.0
H189 H 0.69737 0.27071 0.12616 0.0
H190 H 0.82605 0.21148 0.25535 0.0
H191 H 0.84179 0.29858 0.207 0.0
H192 H 0.80606 0.339 0.13416 0.0
H193 H 0.75395 0.29342 0.10997 0.0
C194 C 0.70429 0.22617 0.11748 0.0
C195 C 0.72682 0.19733 0.15789 0.0
C196 C 0.75758 0.22401 0.17104 0.0
C197 C 0.77836 0.2004 0.21279 0.0
C198 C 0.80898 0.22794 0.2247 0.0
C199 C 0.81852 0.27774 0.19693 0.0
C200 C 0.79835 0.30061 0.156 0.0
C201 C 0.76835 0.27411 0.1428 0.0
H202 H 0.72374 0.26981 0.84512 0.0
C203 C 0.70959 0.3089 0.83653 0.0
H204 H 0.69873 0.37349 0.77748 0.0
H205 H 0.83411 0.31589 0.64995 0.0
H206 H 0.85253 0.39928 0.70172 0.0
H207 H 0.81678 0.44321 0.77248 0.0
H208 H 0.76245 0.40324 0.79238 0.0
C209 C 0.7129 0.33484 0.78742 0.0
C210 C 0.73392 0.30937 0.74342 0.0
C211 C 0.76502 0.33441 0.73076 0.0
C212 C 0.78519 0.31007 0.68871 0.0
C213 C 0.81708 0.33388 0.67961 0.0
C214 C 0.82814 0.38154 0.70947 0.0
C215 C 0.80804 0.40621 0.74939 0.0
C216 C 0.7769 0.38293 0.76029 0.0
H217 H 0.79761 0.30589 0.56216 0.0
C218 C 0.80415 0.26086 0.56896 0.0
H219 H 0.80141 0.18892 0.62184 0.0
H220 H 0.67472 0.25239 0.75553 0.0
H221 H 0.65621 0.16861 0.70419 0.0
H222 H 0.69056 0.12745 0.63022 0.0
H223 H 0.74383 0.16932 0.60754 0.0
C224 C 0.79476 0.23399 0.61537 0.0
C225 C 0.77358 0.26185 0.65801 0.0
C226 C 0.7423 0.23706 0.67057 0.0
C227 C 0.72243 0.26087 0.7132 0.0
C228 C 0.69112 0.2356 0.72425 0.0
C229 C 0.68005 0.18767 0.69484 0.0
C230 C 0.6994 0.16444 0.65323 0.0
C231 C 0.73006 0.18881 0.64084 0.0
H232 H 0.79225 0.71053 0.03491 0.0
C233 C 0.79882 0.75559 0.04124 0.0
H234 H 0.79739 0.82754 0.09467 0.0
H235 H 0.67378 0.75195 0.23259 0.0
H236 H 0.65094 0.83215 0.18091 0.0
H237 H 0.68303 0.87773 0.10663 0.0
H238 H 0.73803 0.84287 0.08332 0.0
C239 C 0.79091 0.78241 0.08845 0.0
C240 C 0.7718 0.7538 0.13274 0.0
C241 C 0.73987 0.77535 0.14639 0.0
C242 C 0.72157 0.74961 0.18966 0.0
C243 C 0.6892 0.77066 0.20106 0.0
C244 C 0.67566 0.81655 0.17146 0.0
C245 C 0.6937 0.84217 0.12963 0.0
C246 C 0.72534 0.82183 0.11685 0.0
H247 H 0.72113 0.74094 0.32143 0.0
C248 C 0.70985 0.69946 0.31187 0.0
H249 H 0.70504 0.6325 0.25294 0.0
H250 H 0.83397 0.70594 0.12137 0.0
H251 H 0.8566 0.6254 0.17295 0.0
H252 H 0.82407 0.57899 0.24624 0.0
H253 H 0.76875 0.61349 0.26875 0.0
C254 C 0.71584 0.67417 0.26311 0.0
C255 C 0.73553 0.70296 0.21976 0.0
C256 C 0.76744 0.68146 0.20625 0.0
C257 C 0.78585 0.70737 0.16313 0.0
C258 C 0.81835 0.68674 0.15233 0.0
C259 C 0.83178 0.64074 0.18197 0.0
C260 C 0.81349 0.61467 0.22329 0.0
C261 C 0.78174 0.63478 0.23566 0.0
H262 H 0.72445 0.73962 0.56773 0.0
C263 C 0.70074 0.7604 0.55914 0.0
H264 H 0.66627 0.8242 0.58334 0.0
H265 H 0.7829 0.77232 0.77846 0.0
H266 H 0.76281 0.67403 0.77852 0.0
H267 H 0.71615 0.645 0.71866 0.0
H268 H 0.69065 0.71383 0.65634 0.0
C269 C 0.69023 0.80405 0.59127 0.0
C270 C 0.7108 0.82549 0.63832 0.0
C271 C 0.72276 0.78646 0.6789 0.0
C272 C 0.74706 0.80482 0.71766 0.0
C273 C 0.76222 0.76252 0.75171 0.0
C274 C 0.75123 0.70549 0.75165 0.0
C275 C 0.72516 0.68904 0.71768 0.0
C276 C 0.71101 0.72884 0.68164 0.0
H277 H 0.75812 0.85422 0.83176 0.0
C278 C 0.77959 0.87632 0.81495 0.0
H279 H 0.80382 0.90515 0.74356 0.0
H280 H 0.69055 0.91307 0.57006 0.0
H281 H 0.70529 0.01429 0.57748 0.0
H282 H 0.7426 0.04832 0.65121 0.0
H283 H 0.76572 0.98122 0.7176 0.0
C284 C 0.78192 0.88437 0.7604 0.0
C285 C 0.75611 0.86414 0.72063 0.0
C286 C 0.74185 0.90418 0.68315 0.0
C287 C 0.71963 0.88474 0.64143 0.0
C288 C 0.70703 0.92544 0.60317 0.0
C289 C 0.71533 0.98376 0.60688 0.0
C290 C 0.73636 0.00292 0.64835 0.0
C291 C 0.74956 0.96384 0.68609 0.0
H292 H 0.29531 0.7955 0.94927 0.0
C293 C 0.29838 0.74906 0.94475 0.0
H294 H 0.29097 0.67642 0.89358 0.0
H295 H 0.17311 0.83666 0.78522 0.0
H296 H 0.14393 0.82124 0.87056 0.0
H297 H 0.17185 0.77477 0.94937 0.0
H298 H 0.22928 0.74354 0.94317 0.0
C299 C 0.28626 0.72221 0.89995 0.0
C300 C 0.27004 0.75444 0.85421 0.0
C301 C 0.23662 0.77313 0.8587 0.0
C302 C 0.2206 0.8001 0.81321 0.0
C303 C 0.18684 0.81685 0.81852 0.0
C304 C 0.16965 0.80796 0.86729 0.0
C305 C 0.18537 0.78181 0.91165 0.0
C306 C 0.2184 0.76426 0.90757 0.0
H307 H 0.2242 0.76344 0.66357 0.0
C308 C 0.21359 0.80625 0.66948 0.0
H309 H 0.20918 0.87789 0.72273 0.0
H310 H 0.3345 0.72478 0.83247 0.0
H311 H 0.36448 0.74264 0.74798 0.0
H312 H 0.33738 0.79255 0.67028 0.0
H313 H 0.28005 0.82435 0.67635 0.0
C314 C 0.22054 0.83586 0.71582 0.0
C315 C 0.23809 0.80854 0.76327 0.0
C316 C 0.27182 0.79125 0.75936 0.0
C317 C 0.28765 0.76351 0.80463 0.0
C318 C 0.32125 0.74602 0.79939 0.0
C319 C 0.33879 0.75618 0.7512 0.0
C320 C 0.32352 0.78421 0.70742 0.0
C321 C 0.2905 0.80187 0.7113 0.0
H322 H 0.30997 0.62149 0.22848 0.0
C323 C 0.30182 0.63783 0.1888 0.0
H324 H 0.26564 0.686 0.14631 0.0
H325 H 0.23296 0.63246 0.41603 0.0
H326 H 0.23828 0.5307 0.39413 0.0
H327 H 0.24758 0.49878 0.29871 0.0
H328 H 0.25385 0.56902 0.22543 0.0
C329 C 0.2738 0.66941 0.18582 0.0
C330 C 0.25573 0.6868 0.23713 0.0
C331 C 0.24786 0.64513 0.2779 0.0
C332 C 0.23835 0.6632 0.33149 0.0
C333 C 0.23667 0.621 0.37349 0.0
C334 C 0.2402 0.56238 0.36163 0.0
C335 C 0.24571 0.54443 0.30803 0.0
C336 C 0.24958 0.58515 0.26651 0.0
H337 H 0.18059 0.68174 0.40499 0.0
C338 C 0.19252 0.71999 0.42172 0.0
H339 H 0.2306 0.78106 0.41464 0.0
H340 H 0.26647 0.7788 0.16815 0.0
H341 H 0.25322 0.87894 0.18588 0.0
H342 H 0.22806 0.90874 0.27357 0.0
H343 H 0.21681 0.83875 0.34453 0.0
C344 C 0.21924 0.74276 0.39686 0.0
C345 C 0.23147 0.7225 0.342 0.0
C346 C 0.2361 0.7637 0.29935 0.0
C347 C 0.24918 0.74612 0.24761 0.0
C348 C 0.25571 0.78901 0.20754 0.0
C349 C 0.24826 0.84693 0.21717 0.0
C350 C 0.23418 0.86373 0.26657 0.0
C351 C 0.22807 0.8229 0.30721 0.0
H352 H 0.06337 0.28987 0.14223 0.0
C353 C 0.06054 0.24387 0.14976 0.0
H354 H 0.03248 0.17855 0.18814 0.0
H355 H 0.98296 0.32132 0.3852 0.0
H356 H 0.04106 0.33512 0.41132 0.0
H357 H 0.08599 0.31613 0.34489 0.0
H358 H 0.07324 0.28374 0.25207 0.0
C359 C 0.03564 0.22462 0.18139 0.0
C360 C 0.01141 0.26215 0.21009 0.0
C361 C 0.01939 0.28348 0.26298 0.0
C362 C 0.99362 0.29388 0.30141 0.0
C363 C 0.00196 0.31254 0.35494 0.0
C364 C 0.03504 0.32066 0.37021 0.0
C365 C 0.06034 0.30997 0.33277 0.0
C366 C 0.05275 0.29131 0.27974 0.0
H367 H 0.96495 0.19115 0.34757 0.0
C368 C 0.94204 0.21455 0.3562 0.0
H369 H 0.91264 0.28689 0.33426 0.0
H370 H 0.98836 0.23761 0.10772 0.0
H371 H 0.93022 0.22748 0.08062 0.0
H372 H 0.88538 0.24338 0.14779 0.0
H373 H 0.89827 0.27012 0.24239 0.0
C374 C 0.93642 0.26495 0.33048 0.0
C375 C 0.96025 0.28204 0.2869 0.0
C376 C 0.95208 0.27012 0.23146 0.0
C377 C 0.97785 0.26025 0.19291 0.0
C378 C 0.96941 0.2451 0.1384 0.0
C379 C 0.9363 0.23934 0.12246 0.0
C380 C 0.91103 0.24833 0.16034 0.0
C381 C 0.9187 0.26346 0.21436 0.0
H382 H 0.43813 0.2255 0.63433 0.0
C383 C 0.44207 0.27089 0.64375 0.0
H384 H 0.47195 0.33203 0.68497 0.0
H385 H 0.51149 0.16671 0.87641 0.0
H386 H 0.45249 0.16227 0.89915 0.0
H387 H 0.41003 0.19552 0.83279 0.0
H388 H 0.42603 0.23284 0.74353 0.0
C389 C 0.46749 0.2866 0.67636 0.0
C390 C 0.48961 0.24506 0.70526 0.0
C391 C 0.47947 0.22143 0.75616 0.0
C392 C 0.50383 0.20289 0.7947 0.0
C393 C 0.49358 0.18162 0.84624 0.0
C394 C 0.45999 0.1788 0.85955 0.0
C395 C 0.43609 0.19753 0.82216 0.0
C396 C 0.44558 0.21892 0.77108 0.0
H397 H 0.53637 0.29531 0.84926 0.0
C398 C 0.55825 0.26867 0.85687 0.0
H399 H 0.58482 0.19474 0.83099 0.0
H400 H 0.51592 0.27265 0.60607 0.0
H401 H 0.57485 0.27057 0.58194 0.0
H402 H 0.61704 0.2405 0.64957 0.0
H403 H 0.60094 0.21052 0.74153 0.0
C404 C 0.5619 0.21947 0.82829 0.0
C405 C 0.53796 0.20919 0.78259 0.0
C406 C 0.5477 0.22345 0.72856 0.0
C407 C 0.52339 0.24174 0.68981 0.0
C408 C 0.5337 0.25898 0.63694 0.0
C409 C 0.56723 0.25796 0.6227 0.0
C410 C 0.59106 0.24073 0.66081 0.0
C411 C 0.58156 0.22383 0.71334 0.0
H412 H 0.06652 0.70793 0.64449 0.0
C413 C 0.06676 0.75427 0.65178 0.0
H414 H 0.04671 0.82402 0.69662 0.0
H415 H 0.91213 0.69008 0.73726 0.0
H416 H 0.90682 0.67556 0.63825 0.0
H417 H 0.95463 0.69211 0.57711 0.0
H418 H 0.00784 0.72287 0.61411 0.0
C419 C 0.04572 0.77791 0.68817 0.0
C420 C 0.02221 0.74459 0.72246 0.0
C421 C 0.99193 0.72424 0.69983 0.0
C422 C 0.96427 0.71525 0.7348 0.0
C423 C 0.93366 0.69771 0.71175 0.0
C424 C 0.9304 0.68917 0.65535 0.0
C425 C 0.95735 0.69842 0.62094 0.0
C426 C 0.9878 0.71599 0.64268 0.0
H427 H 0.93568 0.82254 0.77515 0.0
C428 C 0.92504 0.79925 0.8097 0.0
H429 H 0.92914 0.72404 0.85876 0.0
H430 H 0.07922 0.76772 0.77917 0.0
H431 H 0.08475 0.77689 0.87851 0.0
H432 H 0.0364 0.76203 0.93888 0.0
H433 H 0.98225 0.73759 0.90033 0.0
C434 C 0.93712 0.74673 0.82211 0.0
C435 C 0.96701 0.7272 0.7916 0.0
C436 C 0.9986 0.73788 0.81495 0.0
C437 C 0.0263 0.74688 0.78019 0.0
C438 C 0.05734 0.76099 0.80408 0.0
C439 C 0.06084 0.76612 0.86084 0.0
C440 C 0.03361 0.75769 0.89485 0.0
C441 C 0.00273 0.74392 0.87235 0.0
H442 H 0.46707 0.67785 0.15074 0.0
C443 C 0.44468 0.70208 0.14033 0.0
H444 H 0.41758 0.77888 0.15518 0.0
H445 H 0.48923 0.74402 0.38692 0.0
H446 H 0.43076 0.75332 0.41266 0.0
H447 H 0.38785 0.77289 0.34257 0.0
H448 H 0.40285 0.78432 0.24639 0.0
C449 C 0.4407 0.75539 0.1612 0.0
C450 C 0.46513 0.77452 0.20341 0.0
C451 C 0.45606 0.77127 0.25936 0.0
C452 C 0.48076 0.75957 0.2997 0.0
C453 C 0.47112 0.75265 0.35497 0.0
C454 C 0.43785 0.7579 0.37011 0.0
C455 C 0.41364 0.76909 0.3306 0.0
C456 C 0.42248 0.77539 0.27567 0.0
H457 H 0.56031 0.7826 0.36033 0.0
C458 C 0.55942 0.73648 0.35197 0.0
H459 H 0.53557 0.66934 0.30848 0.0
H460 H 0.49064 0.79867 0.10306 0.0
H461 H 0.54946 0.79829 0.07831 0.0
H462 H 0.59256 0.77747 0.14809 0.0
H463 H 0.57728 0.75725 0.24284 0.0
C464 C 0.53654 0.71539 0.31716 0.0
C465 C 0.51421 0.75226 0.28365 0.0
C466 C 0.52381 0.76633 0.22948 0.0
C467 C 0.49911 0.77798 0.18927 0.0
C468 C 0.50885 0.78934 0.13472 0.0
C469 C 0.54233 0.78936 0.12025 0.0
C470 C 0.56661 0.7776 0.15955 0.0
C471 C 0.55757 0.76593 0.21363 0.0
H472 H 0.06386 0.10518 0.96336 0.0
C473 C 0.07751 0.09149 0.99974 0.0
H474 H 0.07719 0.03699 0.0693 0.0
H475 H 0.91863 0.02926 0.05002 0.0
H476 H 0.92568 0.09102 0.12994 0.0
H477 H 0.98147 0.12188 0.15974 0.0
H478 H 0.03051 0.09273 0.10892 0.0
C479 C 0.06512 0.0492 0.03104 0.0
C480 C 0.03212 0.02425 0.01726 0.0
C481 C 0.00376 0.04167 0.0475 0.0
C482 C 0.97164 0.02313 0.03088 0.0
C483 C 0.94364 0.04179 0.06123 0.0
C484 C 0.94732 0.07726 0.10709 0.0
C485 C 0.97874 0.09487 0.12373 0.0
C486 C 0.00669 0.07777 0.09424 0.0
H487 H 0.94467 0.88512 0.01305 0.0
C488 C 0.92677 0.90968 0.98887 0.0
H489 H 0.91756 0.98833 0.94711 0.0
H490 H 0.0816 0.97839 0.9538 0.0
H491 H 0.07458 0.91431 0.87546 0.0
H492 H 0.01869 0.88344 0.84572 0.0
H493 H 0.96954 0.91582 0.89443 0.0
C494 C 0.93489 0.96239 0.97098 0.0
C495 C 0.96806 0.98615 0.98491 0.0
C496 C 0.99642 0.96778 0.95524 0.0
C497 C 0.02855 0.98657 0.97166 0.0
C498 C 0.05656 0.9664 0.94225 0.0
C499 C 0.05289 0.92943 0.89741 0.0
C500 C 0.02143 0.91189 0.88076 0.0
C501 C 0.99344 0.93068 0.90917 0.0
H502 H 0.58639 0.54119 0.45109 0.0
C503 C 0.58686 0.57402 0.48307 0.0
H504 H 0.56121 0.61179 0.54925 0.0
H505 H 0.42003 0.54286 0.45741 0.0
H506 H 0.41777 0.64762 0.45606 0.0
H507 H 0.46727 0.70543 0.47977 0.0
H508 H 0.51932 0.65915 0.50281 0.0
C509 C 0.56148 0.57789 0.51834 0.0
C510 C 0.53103 0.54239 0.50998 0.0
C511 C 0.50062 0.57036 0.49674 0.0
C512 C 0.47185 0.53706 0.48468 0.0
C513 C 0.44224 0.56608 0.46912 0.0
C514 C 0.4407 0.6262 0.46759 0.0
C515 C 0.46857 0.65873 0.48062 0.0
C516 C 0.49833 0.63146 0.49428 0.0
H517 H 0.42059 0.47894 0.55171 0.0
C518 C 0.41844 0.44599 0.52003 0.0
H519 H 0.44114 0.40686 0.4515 0.0
H520 H 0.58435 0.47487 0.53929 0.0
H521 H 0.58685 0.37025 0.53825 0.0
H522 H 0.53746 0.31263 0.51331 0.0
H523 H 0.48527 0.35915 0.49142 0.0
C524 C 0.44242 0.44079 0.48231 0.0
C525 C 0.47328 0.47584 0.48733 0.0
C526 C 0.50381 0.44783 0.49943 0.0
C527 C 0.53257 0.48109 0.51181 0.0
C528 C 0.56218 0.45189 0.52702 0.0
C529 C 0.56385 0.39176 0.52725 0.0
C530 C 0.53605 0.35934 0.51355 0.0
C531 C 0.50621 0.38673 0.50064 0.0
H532 H 0.44155 0.60159 0.95042 0.0
C533 C 0.42516 0.58236 0.98064 0.0
H534 H 0.41922 0.51584 0.03904 0.0
H535 H 0.52921 0.35026 0.94335 0.0
H536 H 0.47969 0.3012 0.9118 0.0
H537 H 0.42456 0.34687 0.92115 0.0
H538 H 0.41884 0.44219 0.96171 0.0
C539 C 0.43544 0.53595 0.00913 0.0
C540 C 0.46903 0.51024 0.00122 0.0
C541 C 0.47194 0.45414 0.97835 0.0
C542 C 0.50371 0.42762 0.9735 0.0
C543 C 0.50581 0.37218 0.94896 0.0
C544 C 0.4775 0.34353 0.93045 0.0
C545 C 0.44648 0.36925 0.93569 0.0
C546 C 0.44357 0.42391 0.95924 0.0
H547 H 0.55505 0.36508 0.0471 0.0
C548 C 0.5734 0.38222 0.01888 0.0
H549 H 0.58391 0.44708 0.96053 0.0
H550 H 0.47254 0.61811 0.04819 0.0
H551 H 0.5221 0.66737 0.07901 0.0
H552 H 0.57721 0.62155 0.06996 0.0
H553 H 0.58285 0.52574 0.0304 0.0
C554 C 0.56587 0.42901 0.98871 0.0
C555 C 0.53256 0.45703 0.99233 0.0
C556 C 0.52973 0.51357 0.01425 0.0
C557 C 0.49794 0.54015 0.01903 0.0
C558 C 0.4959 0.59593 0.04289 0.0
C559 C 0.52425 0.62478 0.06089 0.0
C560 C 0.55526 0.59898 0.05582 0.0
C561 C 0.55812 0.544 0.03291 0.0
H562 H 0.05761 0.87855 0.46543 0.0
C563 C 0.07652 0.89443 0.49361 0.0
H564 H 0.08871 0.95903 0.55182 0.0
H565 H 0.97663 0.11968 0.43829 0.0
H566 H 0.02582 0.16184 0.39779 0.0
H567 H 0.08101 0.11762 0.41244 0.0
H568 H 0.08721 0.0308 0.46766 0.0
C569 C 0.07031 0.942 0.52339 0.0
C570 C 0.03753 0.97153 0.51874 0.0
C571 C 0.0344 0.02266 0.48721 0.0
C572 C 0.0026 0.04835 0.47916 0.0
C573 C 0.00014 0.09867 0.44629 0.0
C574 C 0.02821 0.12326 0.42267 0.0
C575 C 0.05927 0.09835 0.43089 0.0
C576 C 0.06248 0.04855 0.46264 0.0
H577 H 0.94954 0.11861 0.54785 0.0
C578 C 0.93193 0.09806 0.52011 0.0
H579 H 0.92339 0.02751 0.46676 0.0
H580 H 0.0354 0.87733 0.58651 0.0
H581 H 0.98649 0.83727 0.62987 0.0
H582 H 0.93119 0.88035 0.61434 0.0
H583 H 0.92459 0.96508 0.55647 0.0
C584 C 0.94062 0.04911 0.49435 0.0
C585 C 0.97404 0.02301 0.50319 0.0
C586 C 0.97731 0.97271 0.53586 0.0
C587 C 0.00913 0.94722 0.54407 0.0
C588 C 0.0118 0.89793 0.57823 0.0
C589 C 0.98391 0.87445 0.60336 0.0
C590 C 0.95278 0.89889 0.59477 0.0
C591 C 0.94935 0.94745 0.56144 0.0
loop_
_geom_bond_atom_site_label_1
_geom_bond_atom_site_label_2
_geom_bond_distance
_geom_bond_site_symmetry_2
_ccdc_geom_bond_type
Co0 O1 2.216 . S
Co0 O2 2.091 . S
Co0 O4 2.004 . S
Co0 O10 2.021 . S
Co0 O12 2.137 . S
Co0 O13 2.244 . S
O1 Co0 2.216 . S
O1 C8 1.247 1_554 S
O2 Co0 2.091 . S
O2 C8 1.261 1_554 S
C3 O12 1.247 . S
C3 O13 1.272 . S
O4 Co0 2.004 . S
O4 C9 1.259 . S
Co5 O6 2.061 . S
Co5 O11 2.052 . S
Co5 O13 2.135 . S
O6 Co5 2.061 . S
O6 C9 1.235 . S
C7 O10 1.238 . S
C7 O11 1.241 . S
C8 O1 1.247 1_556 S
C8 O2 1.261 1_556 S
C9 O4 1.259 . S
C9 O6 1.235 . S
O10 Co0 2.021 . S
O10 C7 1.238 . S
O11 Co5 2.052 . S
O11 C7 1.241 . S
O12 Co0 2.137 . S
O12 C3 1.247 . S
O13 Co0 2.244 . S
O13 C3 1.272 . S
O13 Co5 2.135 . S
Co14 O15 2.216 . S
Co14 O16 2.091 . S
Co14 O18 2.004 . S
Co14 O24 2.021 . S
Co14 O26 2.137 . S
Co14 O27 2.244 . S
O15 Co14 2.216 . S
O15 C22 1.247 . S
O16 Co14 2.091 . S
O16 C22 1.261 . S
C17 O26 1.247 . S
C17 O27 1.272 . S
O18 Co14 2.004 . S
O18 C23 1.259 . S
Co19 O20 2.061 . S
Co19 O25 2.052 . S
Co19 O27 2.135 . S
O20 Co19 2.061 . S
O20 C23 1.235 . S
C21 O24 1.238 . S
C21 O25 1.241 . S
C22 O15 1.247 . S
C22 O16 1.261 . S
C23 O18 1.259 . S
C23 O20 1.235 . S
O24 Co14 2.021 . S
O24 C21 1.238 . S
O25 Co19 2.052 . S
O25 C21 1.241 . S
O26 Co14 2.137 . S
O26 C17 1.247 . S
O27 Co14 2.244 . S
O27 C17 1.272 . S
O27 Co19 2.135 . S
Co28 O29 2.216 . S
Co28 O30 2.091 . S
Co28 O32 2.004 . S
Co28 O38 2.021 . S
Co28 O40 2.137 . S
Co28 O41 2.244 . S
O29 Co28 2.216 . S
O29 C36 1.247 1_556 S
O30 Co28 2.091 . S
O30 C36 1.261 1_556 S
C31 O40 1.247 . S
C31 O41 1.272 . S
O32 Co28 2.004 . S
O32 C37 1.259 . S
Co33 O34 2.061 . S
Co33 O39 2.052 . S
Co33 O41 2.135 . S
O34 Co33 2.061 . S
O34 C37 1.235 . S
C35 O38 1.238 . S
C35 O39 1.241 . S
C36 O29 1.247 1_554 S
C36 O30 1.261 1_554 S
C37 O32 1.259 . S
C37 O34 1.235 . S
O38 Co28 2.021 . S
O38 C35 1.238 . S
O39 Co33 2.052 . S
O39 C35 1.241 . S
O40 Co28 2.137 . S
O40 C31 1.247 . S
O41 Co28 2.244 . S
O41 C31 1.272 . S
O41 Co33 2.135 . S
Co42 O43 2.216 . S
Co42 O44 2.091 . S
Co42 O46 2.004 . S
Co42 O52 2.021 . S
Co42 O54 2.137 . S
Co42 O55 2.244 . S
O43 Co42 2.216 . S
O43 C50 1.247 . S
O44 Co42 2.091 . S
O44 C50 1.261 . S
C45 O54 1.247 . S
C45 O55 1.272 . S
O46 Co42 2.004 . S
O46 C51 1.259 . S
Co47 O48 2.061 . S
Co47 O53 2.052 . S
Co47 O55 2.135 . S
O48 Co47 2.061 . S
O48 C51 1.235 . S
C49 O52 1.238 . S
C49 O53 1.241 . S
C50 O43 1.247 . S
C50 O44 1.261 . S
C51 O46 1.259 . S
C51 O48 1.235 . S
O52 Co42 2.021 . S
O52 C49 1.238 . S
O53 Co47 2.052 . S
O53 C49 1.241 . S
O54 Co42 2.137 . S
O54 C45 1.247 . S
O55 Co42 2.244 . S
O55 C45 1.272 . S
O55 Co47 2.135 . S
Co56 O57 2.216 . S
Co56 O58 2.091 . S
Co56 O60 2.004 . S
Co56 O66 2.021 . S
Co56 O68 2.137 . S
Co56 O69 2.244 . S
O57 Co56 2.216 . S
O57 C64 1.247 1_556 S
O58 Co56 2.091 . S
O58 C64 1.261 1_556 S
C59 O68 1.247 . S
C59 O69 1.272 . S
O60 Co56 2.004 . S
O60 C65 1.259 . S
Co61 O62 2.061 . S
Co61 O67 2.052 . S
Co61 O69 2.135 . S
O62 Co61 2.061 . S
O62 C65 1.235 . S
C63 O66 1.238 . S
C63 O67 1.241 . S
C64 O57 1.247 1_554 S
C64 O58 1.261 1_554 S
C65 O60 1.259 . S
C65 O62 1.235 . S
O66 Co56 2.021 . S
O66 C63 1.238 . S
O67 Co61 2.052 . S
O67 C63 1.241 . S
O68 Co56 2.137 . S
O68 C59 1.247 . S
O69 Co56 2.244 . S
O69 C59 1.272 . S
O69 Co61 2.135 . S
Co70 O71 2.216 . S
Co70 O72 2.091 . S
Co70 O74 2.004 . S
Co70 O80 2.021 . S
Co70 O82 2.137 . S
Co70 O83 2.244 . S
O71 Co70 2.216 . S
O71 C78 1.247 . S
O72 Co70 2.091 . S
O72 C78 1.261 . S
C73 O82 1.247 . S
C73 O83 1.272 . S
O74 Co70 2.004 . S
O74 C79 1.259 . S
Co75 O76 2.061 . S
Co75 O81 2.052 . S
Co75 O83 2.135 . S
O76 Co75 2.061 . S
O76 C79 1.235 . S
C77 O80 1.238 . S
C77 O81 1.241 . S
C78 O71 1.247 . S
C78 O72 1.261 . S
C79 O74 1.259 . S
C79 O76 1.235 . S
O80 Co70 2.021 . S
O80 C77 1.238 . S
O81 Co75 2.052 . S
O81 C77 1.241 . S
O82 Co70 2.137 . S
O82 C73 1.247 . S
O83 Co70 2.244 . S
O83 C73 1.272 . S
O83 Co75 2.135 . S
Co84 O85 2.216 . S
Co84 O86 2.091 . S
Co84 O88 2.004 . S
Co84 O94 2.021 . S
Co84 O96 2.137 . S
Co84 O97 2.244 . S
O85 Co84 2.216 . S
O85 C92 1.247 1_554 S
O86 Co84 2.091 . S
O86 C92 1.261 1_554 S
C87 O96 1.247 . S
C87 O97 1.272 . S
O88 Co84 2.004 . S
O88 C93 1.259 . S
Co89 O90 2.061 . S
Co89 O95 2.052 . S
Co89 O97 2.135 . S
O90 Co89 2.061 . S
O90 C93 1.235 . S
C91 O94 1.238 . S
C91 O95 1.241 . S
C92 O85 1.247 1_556 S
C92 O86 1.261 1_556 S
C93 O88 1.259 . S
C93 O90 1.235 . S
O94 Co84 2.021 . S
O94 C91 1.238 . S
O95 Co89 2.052 . S
O95 C91 1.241 . S
O96 Co84 2.137 . S
O96 C87 1.247 . S
O97 Co84 2.244 . S
O97 C87 1.272 . S
O97 Co89 2.135 . S
Co98 O99 2.216 . S
Co98 O100 2.091 . S
Co98 O102 2.004 . S
Co98 O108 2.021 . S
Co98 O110 2.137 . S
Co98 O111 2.244 . S
O99 Co98 2.216 . S
O99 C106 1.247 . S
O100 Co98 2.091 . S
O100 C106 1.261 . S
C101 O110 1.247 . S
C101 O111 1.272 . S
O102 Co98 2.004 . S
O102 C107 1.259 . S
Co103 O104 2.061 . S
Co103 O109 2.052 . S
Co103 O111 2.135 . S
O104 Co103 2.061 . S
O104 C107 1.235 . S
C105 O108 1.238 . S
C105 O109 1.241 . S
C106 O99 1.247 . S
C106 O100 1.261 . S
C107 O102 1.259 . S
C107 O104 1.235 . S
O108 Co98 2.021 . S
O108 C105 1.238 . S
O109 Co103 2.052 . S
O109 C105 1.241 . S
O110 Co98 2.137 . S
O110 C101 1.247 . S
O111 Co98 2.244 . S
O111 C101 1.272 . S
O111 Co103 2.135 . S
H112 C113 0.951 . S
C113 H112 0.951 . S
C113 C119 1.265 . S
H114 C119 0.950 . S
H115 C123 0.949 . S
H116 C124 0.950 . S
H117 C125 0.951 . S
H118 C126 0.951 . S
C119 C113 1.265 . S
C119 H114 0.950 . S
C119 C120 1.478 . S
C120 C119 1.478 . S
C120 C121 1.397 . S
C120 C137 1.394 . S
C121 C120 1.397 . S
C121 C122 1.438 . S
C121 C126 1.429 . S
C122 C121 1.438 . S
C122 C123 1.428 . S
C122 C135 1.394 . S
C123 H115 0.949 . S
C123 C122 1.428 . S
C123 C124 1.345 . S
C124 H116 0.950 . S
C124 C123 1.345 . S
C124 C125 1.424 . S
C125 H117 0.951 . S
C125 C124 1.424 . S
C125 C126 1.347 . S
C126 H118 0.951 . S
C126 C121 1.429 . S
C126 C125 1.347 . S
H127 C128 0.951 . S
C128 H127 0.951 . S
C128 C134 1.265 . S
H129 C134 0.950 . S
H130 C138 0.949 . S
H131 C139 0.950 . S
H132 C140 0.951 . S
H133 C141 0.951 . S
C134 C128 1.265 . S
C134 H129 0.950 . S
C134 C135 1.478 . S
C135 C122 1.394 . S
C135 C134 1.478 . S
C135 C136 1.397 . S
C136 C135 1.397 . S
C136 C137 1.438 . S
C136 C141 1.429 . S
C137 C120 1.394 . S
C137 C136 1.438 . S
C137 C138 1.428 . S
C138 H130 0.949 . S
C138 C137 1.428 . S
C138 C139 1.345 . S
C139 H131 0.950 . S
C139 C138 1.345 . S
C139 C140 1.424 . S
C140 H132 0.951 . S
C140 C139 1.424 . S
C140 C141 1.347 . S
C141 H133 0.951 . S
C141 C136 1.429 . S
C141 C140 1.347 . S
H142 C143 0.951 . S
C143 H142 0.951 . S
C143 C149 1.265 . S
H144 C149 0.950 . S
H145 C153 0.949 . S
H146 C154 0.950 . S
H147 C155 0.951 . S
H148 C156 0.951 . S
C149 C143 1.265 . S
C149 H144 0.950 . S
C149 C150 1.478 . S
C150 C149 1.478 . S
C150 C151 1.397 . S
C150 C167 1.394 . S
C151 C150 1.397 . S
C151 C152 1.438 . S
C151 C156 1.429 . S
C152 C151 1.438 . S
C152 C153 1.428 . S
C152 C165 1.394 . S
C153 H145 0.949 . S
C153 C152 1.428 . S
C153 C154 1.345 . S
C154 H146 0.950 . S
C154 C153 1.345 . S
C154 C155 1.424 . S
C155 H147 0.951 . S
C155 C154 1.424 . S
C155 C156 1.347 . S
C156 H148 0.951 . S
C156 C151 1.429 . S
C156 C155 1.347 . S
H157 C158 0.951 . S
C158 H157 0.951 . S
C158 C164 1.265 . S
H159 C164 0.950 . S
H160 C168 0.949 . S
H161 C169 0.950 . S
H162 C170 0.951 . S
H163 C171 0.951 . S
C164 C158 1.265 . S
C164 H159 0.950 . S
C164 C165 1.478 . S
C165 C152 1.394 . S
C165 C164 1.478 . S
C165 C166 1.397 . S
C166 C165 1.397 . S
C166 C167 1.438 . S
C166 C171 1.429 . S
C167 C150 1.394 . S
C167 C166 1.438 . S
C167 C168 1.428 . S
C168 H160 0.949 . S
C168 C167 1.428 . S
C168 C169 1.345 . S
C169 H161 0.950 . S
C169 C168 1.345 . S
C169 C170 1.424 . S
C170 H162 0.951 . S
C170 C169 1.424 . S
C170 C171 1.347 . S
C171 H163 0.951 . S
C171 C166 1.429 . S
C171 C170 1.347 . S
H172 C173 0.951 . S
C173 H172 0.951 . S
C173 C179 1.265 . S
H174 C179 0.950 . S
H175 C183 0.949 . S
H176 C184 0.950 . S
H177 C185 0.951 . S
H178 C186 0.951 . S
C179 C173 1.265 . S
C179 H174 0.950 . S
C179 C180 1.478 . S
C180 C179 1.478 . S
C180 C181 1.397 . S
C180 C197 1.394 . S
C181 C180 1.397 . S
C181 C182 1.438 . S
C181 C186 1.429 . S
C182 C181 1.438 . S
C182 C183 1.428 . S
C182 C195 1.394 . S
C183 H175 0.949 . S
C183 C182 1.428 . S
C183 C184 1.345 . S
C184 H176 0.950 . S
C184 C183 1.345 . S
C184 C185 1.424 . S
C185 H177 0.951 . S
C185 C184 1.424 . S
C185 C186 1.347 . S
C186 H178 0.951 . S
C186 C181 1.429 . S
C186 C185 1.347 . S
H187 C188 0.951 . S
C188 H187 0.951 . S
C188 C194 1.265 . S
H189 C194 0.950 . S
H190 C198 0.949 . S
H191 C199 0.950 . S
H192 C200 0.951 . S
H193 C201 0.951 . S
C194 C188 1.265 . S
C194 H189 0.950 . S
C194 C195 1.478 . S
C195 C182 1.394 . S
C195 C194 1.478 . S
C195 C196 1.397 . S
C196 C195 1.397 . S
C196 C197 1.438 . S
C196 C201 1.429 . S
C197 C180 1.394 . S
C197 C196 1.438 . S
C197 C198 1.428 . S
C198 H190 0.949 . S
C198 C197 1.428 . S
C198 C199 1.345 . S
C199 H191 0.950 . S
C199 C198 1.345 . S
C199 C200 1.424 . S
C200 H192 0.951 . S
C200 C199 1.424 . S
C200 C201 1.347 . S
C201 H193 0.951 . S
C201 C196 1.429 . S
C201 C200 1.347 . S
H202 C203 0.951 . S
C203 H202 0.951 . S
C203 C209 1.265 . S
H204 C209 0.950 . S
H205 C213 0.949 . S
H206 C214 0.950 . S
H207 C215 0.951 . S
H208 C216 0.951 . S
C209 C203 1.265 . S
C209 H204 0.950 . S
C209 C210 1.478 . S
C210 C209 1.478 . S
C210 C211 1.397 . S
C210 C227 1.394 . S
C211 C210 1.397 . S
C211 C212 1.438 . S
C211 C216 1.429 . S
C212 C211 1.438 . S
C212 C213 1.428 . S
C212 C225 1.394 . S
C213 H205 0.949 . S
C213 C212 1.428 . S
C213 C214 1.345 . S
C214 H206 0.950 . S
C214 C213 1.345 . S
C214 C215 1.424 . S
C215 H207 0.951 . S
C215 C214 1.424 . S
C215 C216 1.347 . S
C216 H208 0.951 . S
C216 C211 1.429 . S
C216 C215 1.347 . S
H217 C218 0.951 . S
C218 H217 0.951 . S
C218 C224 1.265 . S
H219 C224 0.950 . S
H220 C228 0.949 . S
H221 C229 0.950 . S
H222 C230 0.951 . S
H223 C231 0.951 . S
C224 C218 1.265 . S
C224 H219 0.950 . S
C224 C225 1.478 . S
C225 C212 1.394 . S
C225 C224 1.478 . S
C225 C226 1.397 . S
C226 C225 1.397 . S
C226 C227 1.438 . S
C226 C231 1.429 . S
C227 C210 1.394 . S
C227 C226 1.438 . S
C227 C228 1.428 . S
C228 H220 0.949 . S
C228 C227 1.428 . S
C228 C229 1.345 . S
C229 H221 0.950 . S
C229 C228 1.345 . S
C229 C230 1.424 . S
C230 H222 0.951 . S
C230 C229 1.424 . S
C230 C231 1.347 . S
C231 H223 0.951 . S
C231 C226 1.429 . S
C231 C230 1.347 . S
H232 C233 0.951 . S
C233 H232 0.951 . S
C233 C239 1.265 . S
H234 C239 0.950 . S
H235 C243 0.949 . S
H236 C244 0.950 . S
H237 C245 0.951 . S
H238 C246 0.951 . S
C239 C233 1.265 . S
C239 H234 0.950 . S
C239 C240 1.478 . S
C240 C239 1.478 . S
C240 C241 1.397 . S
C240 C257 1.394 . S
C241 C240 1.397 . S
C241 C242 1.438 . S
C241 C246 1.429 . S
C242 C241 1.438 . S
C242 C243 1.428 . S
C242 C255 1.394 . S
C243 H235 0.949 . S
C243 C242 1.428 . S
C243 C244 1.345 . S
C244 H236 0.950 . S
C244 C243 1.345 . S
C244 C245 1.424 . S
C245 H237 0.951 . S
C245 C244 1.424 . S
C245 C246 1.347 . S
C246 H238 0.951 . S
C246 C241 1.429 . S
C246 C245 1.347 . S
H247 C248 0.951 . S
C248 H247 0.951 . S
C248 C254 1.265 . S
H249 C254 0.950 . S
H250 C258 0.949 . S
H251 C259 0.950 . S
H252 C260 0.951 . S
H253 C261 0.951 . S
C254 C248 1.265 . S
C254 H249 0.950 . S
C254 C255 1.478 . S
C255 C242 1.394 . S
C255 C254 1.478 . S
C255 C256 1.397 . S
C256 C255 1.397 . S
C256 C257 1.438 . S
C256 C261 1.429 . S
C257 C240 1.394 . S
C257 C256 1.438 . S
C257 C258 1.428 . S
C258 H250 0.949 . S
C258 C257 1.428 . S
C258 C259 1.345 . S
C259 H251 0.950 . S
C259 C258 1.345 . S
C259 C260 1.424 . S
C260 H252 0.951 . S
C260 C259 1.424 . S
C260 C261 1.347 . S
C261 H253 0.951 . S
C261 C256 1.429 . S
C261 C260 1.347 . S
H262 C263 0.951 . S
C263 H262 0.951 . S
C263 C269 1.265 . S
H264 C269 0.950 . S
H265 C273 0.949 . S
H266 C274 0.950 . S
H267 C275 0.951 . S
H268 C276 0.951 . S
C269 C263 1.265 . S
C269 H264 0.950 . S
C269 C270 1.478 . S
C270 C269 1.478 . S
C270 C271 1.397 . S
C270 C287 1.394 . S
C271 C270 1.397 . S
C271 C272 1.438 . S
C271 C276 1.429 . S
C272 C271 1.438 . S
C272 C273 1.428 . S
C272 C285 1.394 . S
C273 H265 0.949 . S
C273 C272 1.428 . S
C273 C274 1.345 . S
C274 H266 0.950 . S
C274 C273 1.345 . S
C274 C275 1.424 . S
C275 H267 0.951 . S
C275 C274 1.424 . S
C275 C276 1.347 . S
C276 H268 0.951 . S
C276 C271 1.429 . S
C276 C275 1.347 . S
H277 C278 0.951 . S
C278 H277 0.951 . S
C278 C284 1.265 . S
H279 C284 0.950 . S
H280 C288 0.949 . S
H281 C289 0.950 . S
H282 C290 0.951 . S
H283 C291 0.951 . S
C284 C278 1.265 . S
C284 H279 0.950 . S
C284 C285 1.478 . S
C285 C272 1.394 . S
C285 C284 1.478 . S
C285 C286 1.397 . S
C286 C285 1.397 . S
C286 C287 1.438 . S
C286 C291 1.429 . S
C287 C270 1.394 . S
C287 C286 1.438 . S
C287 C288 1.428 . S
C288 H280 0.949 . S
C288 C287 1.428 . S
C288 C289 1.345 . S
C289 H281 0.950 . S
C289 C288 1.345 . S
C289 C290 1.424 . S
C290 H282 0.951 . S
C290 C289 1.424 . S
C290 C291 1.347 . S
C291 H283 0.951 . S
C291 C286 1.429 . S
C291 C290 1.347 . S
H292 C293 0.951 . S
C293 H292 0.951 . S
C293 C299 1.265 . S
H294 C299 0.950 . S
H295 C303 0.949 . S
H296 C304 0.950 . S
H297 C305 0.951 . S
H298 C306 0.951 . S
C299 C293 1.265 . S
C299 H294 0.950 . S
C299 C300 1.478 . S
C300 C299 1.478 . S
C300 C301 1.397 . S
C300 C317 1.394 . S
C301 C300 1.397 . S
C301 C302 1.438 . S
C301 C306 1.429 . S
C302 C301 1.438 . S
C302 C303 1.428 . S
C302 C315 1.394 . S
C303 H295 0.949 . S
C303 C302 1.428 . S
C303 C304 1.345 . S
C304 H296 0.950 . S
C304 C303 1.345 . S
C304 C305 1.424 . S
C305 H297 0.951 . S
C305 C304 1.424 . S
C305 C306 1.347 . S
C306 H298 0.951 . S
C306 C301 1.429 . S
C306 C305 1.347 . S
H307 C308 0.951 . S
C308 H307 0.951 . S
C308 C314 1.265 . S
H309 C314 0.950 . S
H310 C318 0.949 . S
H311 C319 0.950 . S
H312 C320 0.951 . S
H313 C321 0.951 . S
C314 C308 1.265 . S
C314 H309 0.950 . S
C314 C315 1.478 . S
C315 C302 1.394 . S
C315 C314 1.478 . S
C315 C316 1.397 . S
C316 C315 1.397 . S
C316 C317 1.438 . S
C316 C321 1.429 . S
C317 C300 1.394 . S
C317 C316 1.438 . S
C317 C318 1.428 . S
C318 H310 0.949 . S
C318 C317 1.428 . S
C318 C319 1.345 . S
C319 H311 0.950 . S
C319 C318 1.345 . S
C319 C320 1.424 . S
C320 H312 0.951 . S
C320 C319 1.424 . S
C320 C321 1.347 . S
C321 H313 0.951 . S
C321 C316 1.429 . S
C321 C320 1.347 . S
H322 C323 0.951 . S
C323 H322 0.951 . S
C323 C329 1.265 . S
H324 C329 0.950 . S
H325 C333 0.949 . S
H326 C334 0.950 . S
H327 C335 0.951 . S
H328 C336 0.951 . S
C329 C323 1.265 . S
C329 H324 0.950 . S
C329 C330 1.478 . S
C330 C329 1.478 . S
C330 C331 1.397 . S
C330 C347 1.394 . S
C331 C330 1.397 . S
C331 C332 1.438 . S
C331 C336 1.429 . S
C332 C331 1.438 . S
C332 C333 1.428 . S
C332 C345 1.394 . S
C333 H325 0.949 . S
C333 C332 1.428 . S
C333 C334 1.345 . S
C334 H326 0.950 . S
C334 C333 1.345 . S
C334 C335 1.424 . S
C335 H327 0.951 . S
C335 C334 1.424 . S
C335 C336 1.347 . S
C336 H328 0.951 . S
C336 C331 1.429 . S
C336 C335 1.347 . S
H337 C338 0.951 . S
C338 H337 0.951 . S
C338 C344 1.265 . S
H339 C344 0.950 . S
H340 C348 0.949 . S
H341 C349 0.950 . S
H342 C350 0.951 . S
H343 C351 0.951 . S
C344 C338 1.265 . S
C344 H339 0.950 . S
C344 C345 1.478 . S
C345 C332 1.394 . S
C345 C344 1.478 . S
C345 C346 1.397 . S
C346 C345 1.397 . S
C346 C347 1.438 . S
C346 C351 1.429 . S
C347 C330 1.394 . S
C347 C346 1.438 . S
C347 C348 1.428 . S
C348 H340 0.949 . S
C348 C347 1.428 . S
C348 C349 1.345 . S
C349 H341 0.950 . S
C349 C348 1.345 . S
C349 C350 1.424 . S
C350 H342 0.951 . S
C350 C349 1.424 . S
C350 C351 1.347 . S
C351 H343 0.951 . S
C351 C346 1.429 . S
C351 C350 1.347 . S
H352 C353 0.951 . S
C353 H352 0.951 . S
C353 C359 1.265 . S
H354 C359 0.950 . S
H355 C363 0.949 . S
H356 C364 0.950 . S
H357 C365 0.951 . S
H358 C366 0.951 . S
C359 C353 1.265 . S
C359 H354 0.950 . S
C359 C360 1.478 . S
C360 C359 1.478 . S
C360 C361 1.397 . S
C360 C377 1.394 . S
C361 C360 1.397 . S
C361 C362 1.438 1_455 S
C361 C366 1.429 . S
C362 C361 1.438 1_655 S
C362 C363 1.428 . S
C362 C375 1.394 . S
C363 H355 0.949 . S
C363 C362 1.428 . S
C363 C364 1.345 1_655 S
C364 H356 0.950 . S
C364 C363 1.345 1_455 S
C364 C365 1.424 . S
C365 H357 0.951 . S
C365 C364 1.424 . S
C365 C366 1.347 . S
C366 H358 0.951 . S
C366 C361 1.429 . S
C366 C365 1.347 . S
H367 C368 0.951 . S
C368 H367 0.951 . S
C368 C374 1.265 . S
H369 C374 0.950 . S
H370 C378 0.949 . S
H371 C379 0.950 . S
H372 C380 0.951 . S
H373 C381 0.951 . S
C374 C368 1.265 . S
C374 H369 0.950 . S
C374 C375 1.478 . S
C375 C362 1.394 . S
C375 C374 1.478 . S
C375 C376 1.397 . S
C376 C375 1.397 . S
C376 C377 1.438 1_655 S
C376 C381 1.429 . S
C377 C360 1.394 . S
C377 C376 1.438 1_455 S
C377 C378 1.428 . S
C378 H370 0.949 . S
C378 C377 1.428 . S
C378 C379 1.345 1_455 S
C379 H371 0.950 . S
C379 C378 1.345 1_655 S
C379 C380 1.424 . S
C380 H372 0.951 . S
C380 C379 1.424 . S
C380 C381 1.347 . S
C381 H373 0.951 . S
C381 C376 1.429 . S
C381 C380 1.347 . S
H382 C383 0.951 . S
C383 H382 0.951 . S
C383 C389 1.265 . S
H384 C389 0.950 . S
H385 C393 0.949 . S
H386 C394 0.950 . S
H387 C395 0.951 . S
H388 C396 0.951 . S
C389 C383 1.265 . S
C389 H384 0.950 . S
C389 C390 1.478 . S
C390 C389 1.478 . S
C390 C391 1.397 . S
C390 C407 1.394 . S
C391 C390 1.397 . S
C391 C392 1.438 . S
C391 C396 1.429 . S
C392 C391 1.438 . S
C392 C393 1.428 . S
C392 C405 1.394 . S
C393 H385 0.949 . S
C393 C392 1.428 . S
C393 C394 1.345 . S
C394 H386 0.950 . S
C394 C393 1.345 . S
C394 C395 1.424 . S
C395 H387 0.951 . S
C395 C394 1.424 . S
C395 C396 1.347 . S
C396 H388 0.951 . S
C396 C391 1.429 . S
C396 C395 1.347 . S
H397 C398 0.951 . S
C398 H397 0.951 . S
C398 C404 1.265 . S
H399 C404 0.950 . S
H400 C408 0.949 . S
H401 C409 0.950 . S
H402 C410 0.951 . S
H403 C411 0.951 . S
C404 C398 1.265 . S
C404 H399 0.950 . S
C404 C405 1.478 . S
C405 C392 1.394 . S
C405 C404 1.478 . S
C405 C406 1.397 . S
C406 C405 1.397 . S
C406 C407 1.438 . S
C406 C411 1.429 . S
C407 C390 1.394 . S
C407 C406 1.438 . S
C407 C408 1.428 . S
C408 H400 0.949 . S
C408 C407 1.428 . S
C408 C409 1.345 . S
C409 H401 0.950 . S
C409 C408 1.345 . S
C409 C410 1.424 . S
C410 H402 0.951 . S
C410 C409 1.424 . S
C410 C411 1.347 . S
C411 H403 0.951 . S
C411 C406 1.429 . S
C411 C410 1.347 . S
H412 C413 0.951 . S
C413 H412 0.951 . S
C413 C419 1.265 . S
H414 C419 0.950 . S
H415 C423 0.949 . S
H416 C424 0.950 . S
H417 C425 0.951 . S
H418 C426 0.951 1_455 S
C419 C413 1.265 . S
C419 H414 0.950 . S
C419 C420 1.478 . S
C420 C419 1.478 . S
C420 C421 1.397 1_455 S
C420 C437 1.394 . S
C421 C420 1.397 1_655 S
C421 C422 1.438 . S
C421 C426 1.429 . S
C422 C421 1.438 . S
C422 C423 1.428 . S
C422 C435 1.394 . S
C423 H415 0.949 . S
C423 C422 1.428 . S
C423 C424 1.345 . S
C424 H416 0.950 . S
C424 C423 1.345 . S
C424 C425 1.424 . S
C425 H417 0.951 . S
C425 C424 1.424 . S
C425 C426 1.347 . S
C426 H418 0.951 1_655 S
C426 C421 1.429 . S
C426 C425 1.347 . S
H427 C428 0.951 . S
C428 H427 0.951 . S
C428 C434 1.265 . S
H429 C434 0.950 . S
H430 C438 0.949 . S
H431 C439 0.950 . S
H432 C440 0.951 . S
H433 C441 0.951 1_655 S
C434 C428 1.265 . S
C434 H429 0.950 . S
C434 C435 1.478 . S
C435 C422 1.394 . S
C435 C434 1.478 . S
C435 C436 1.397 1_655 S
C436 C435 1.397 1_455 S
C436 C437 1.438 . S
C436 C441 1.429 . S
C437 C420 1.394 . S
C437 C436 1.438 . S
C437 C438 1.428 . S
C438 H430 0.949 . S
C438 C437 1.428 . S
C438 C439 1.345 . S
C439 H431 0.950 . S
C439 C438 1.345 . S
C439 C440 1.424 . S
C440 H432 0.951 . S
C440 C439 1.424 . S
C440 C441 1.347 . S
C441 H433 0.951 1_455 S
C441 C436 1.429 . S
C441 C440 1.347 . S
H442 C443 0.951 . S
C443 H442 0.951 . S
C443 C449 1.265 . S
H444 C449 0.950 . S
H445 C453 0.949 . S
H446 C454 0.950 . S
H447 C455 0.951 . S
H448 C456 0.951 . S
C449 C443 1.265 . S
C449 H444 0.950 . S
C449 C450 1.478 . S
C450 C449 1.478 . S
C450 C451 1.397 . S
C450 C467 1.394 . S
C451 C450 1.397 . S
C451 C452 1.438 . S
C451 C456 1.429 . S
C452 C451 1.438 . S
C452 C453 1.428 . S
C452 C465 1.394 . S
C453 H445 0.949 . S
C453 C452 1.428 . S
C453 C454 1.345 . S
C454 H446 0.950 . S
C454 C453 1.345 . S
C454 C455 1.424 . S
C455 H447 0.951 . S
C455 C454 1.424 . S
C455 C456 1.347 . S
C456 H448 0.951 . S
C456 C451 1.429 . S
C456 C455 1.347 . S
H457 C458 0.951 . S
C458 H457 0.951 . S
C458 C464 1.265 . S
H459 C464 0.950 . S
H460 C468 0.949 . S
H461 C469 0.950 . S
H462 C470 0.951 . S
H463 C471 0.951 . S
C464 C458 1.265 . S
C464 H459 0.950 . S
C464 C465 1.478 . S
C465 C452 1.394 . S
C465 C464 1.478 . S
C465 C466 1.397 . S
C466 C465 1.397 . S
C466 C467 1.438 . S
C466 C471 1.429 . S
C467 C450 1.394 . S
C467 C466 1.438 . S
C467 C468 1.428 . S
C468 H460 0.949 . S
C468 C467 1.428 . S
C468 C469 1.345 . S
C469 H461 0.950 . S
C469 C468 1.345 . S
C469 C470 1.424 . S
C470 H462 0.951 . S
C470 C469 1.424 . S
C470 C471 1.347 . S
C471 H463 0.951 . S
C471 C466 1.429 . S
C471 C470 1.347 . S
H472 C473 0.951 . S
C473 H472 0.951 . S
C473 C479 1.265 . S
H474 C479 0.950 . S
H475 C483 0.949 . S
H476 C484 0.950 1_655 S
H477 C485 0.951 . S
H478 C486 0.951 . S
C479 C473 1.265 . S
C479 H474 0.950 . S
C479 C480 1.478 . S
C480 C479 1.478 . S
C480 C481 1.397 1_545 S
C480 C497 1.394 1_554 S
C481 C480 1.397 1_565 S
C481 C482 1.438 1_455 S
C481 C486 1.429 . S
C482 C481 1.438 1_655 S
C482 C483 1.428 . S
C482 C495 1.394 1_554 S
C483 H475 0.949 . S
C483 C482 1.428 . S
C483 C484 1.345 1_655 S
C484 H476 0.950 1_455 S
C484 C483 1.345 1_455 S
C484 C485 1.424 . S
C485 H477 0.951 . S
C485 C484 1.424 . S
C485 C486 1.347 . S
C486 H478 0.951 . S
C486 C481 1.429 . S
C486 C485 1.347 . S
H487 C488 0.951 . S
C488 H487 0.951 . S
C488 C494 1.265 . S
H489 C494 0.950 . S
H490 C498 0.949 . S
H491 C499 0.950 1_455 S
H492 C500 0.951 . S
H493 C501 0.951 . S
C494 C488 1.265 . S
C494 H489 0.950 . S
C494 C495 1.478 . S
C495 C482 1.394 1_556 S
C495 C494 1.478 . S
C495 C496 1.397 1_565 S
C496 C495 1.397 1_545 S
C496 C497 1.438 1_655 S
C496 C501 1.429 . S
C497 C480 1.394 1_556 S
C497 C496 1.438 1_455 S
C497 C498 1.428 . S
C498 H490 0.949 . S
C498 C497 1.428 . S
C498 C499 1.345 1_455 S
C499 H491 0.950 1_655 S
C499 C498 1.345 1_655 S
C499 C500 1.424 . S
C500 H492 0.951 . S
C500 C499 1.424 . S
C500 C501 1.347 . S
C501 H493 0.951 . S
C501 C496 1.429 . S
C501 C500 1.347 . S
H502 C503 0.951 . S
C503 H502 0.951 . S
C503 C509 1.265 . S
H504 C509 0.950 . S
H505 C513 0.949 . S
H506 C514 0.950 . S
H507 C515 0.951 . S
H508 C516 0.951 . S
C509 C503 1.265 . S
C509 H504 0.950 . S
C509 C510 1.478 . S
C510 C509 1.478 . S
C510 C511 1.397 . S
C510 C527 1.394 . S
C511 C510 1.397 . S
C511 C512 1.438 . S
C511 C516 1.429 . S
C512 C511 1.438 . S
C512 C513 1.428 . S
C512 C525 1.394 . S
C513 H505 0.949 . S
C513 C512 1.428 . S
C513 C514 1.345 . S
C514 H506 0.950 . S
C514 C513 1.345 . S
C514 C515 1.424 . S
C515 H507 0.951 . S
C515 C514 1.424 . S
C515 C516 1.347 . S
C516 H508 0.951 . S
C516 C511 1.429 . S
C516 C515 1.347 . S
H517 C518 0.951 . S
C518 H517 0.951 . S
C518 C524 1.265 . S
H519 C524 0.950 . S
H520 C528 0.949 . S
H521 C529 0.950 . S
H522 C530 0.951 . S
H523 C531 0.951 . S
C524 C518 1.265 . S
C524 H519 0.950 . S
C524 C525 1.478 . S
C525 C512 1.394 . S
C525 C524 1.478 . S
C525 C526 1.397 . S
C526 C525 1.397 . S
C526 C527 1.438 . S
C526 C531 1.429 . S
C527 C510 1.394 . S
C527 C526 1.438 . S
C527 C528 1.428 . S
C528 H520 0.949 . S
C528 C527 1.428 . S
C528 C529 1.345 . S
C529 H521 0.950 . S
C529 C528 1.345 . S
C529 C530 1.424 . S
C530 H522 0.951 . S
C530 C529 1.424 . S
C530 C531 1.347 . S
C531 H523 0.951 . S
C531 C526 1.429 . S
C531 C530 1.347 . S
H532 C533 0.952 1_556 S
C533 H532 0.952 1_554 S
C533 C539 1.265 . S
H534 C539 0.950 . S
H535 C543 0.949 . S
H536 C544 0.950 . S
H537 C545 0.951 . S
H538 C546 0.951 . S
C539 C533 1.265 . S
C539 H534 0.950 . S
C539 C540 1.478 . S
C540 C539 1.478 . S
C540 C541 1.397 1_554 S
C540 C557 1.394 . S
C541 C540 1.397 1_556 S
C541 C542 1.438 . S
C541 C546 1.429 . S
C542 C541 1.438 . S
C542 C543 1.428 . S
C542 C555 1.394 . S
C543 H535 0.949 . S
C543 C542 1.428 . S
C543 C544 1.345 . S
C544 H536 0.950 . S
C544 C543 1.345 . S
C544 C545 1.424 . S
C545 H537 0.951 . S
C545 C544 1.424 . S
C545 C546 1.347 . S
C546 H538 0.951 . S
C546 C541 1.429 . S
C546 C545 1.347 . S
H547 C548 0.952 1_554 S
C548 H547 0.952 1_556 S
C548 C554 1.265 . S
H549 C554 0.950 . S
H550 C558 0.949 . S
H551 C559 0.950 . S
H552 C560 0.951 . S
H553 C561 0.951 . S
C554 C548 1.265 . S
C554 H549 0.950 . S
C554 C555 1.478 . S
C555 C542 1.394 . S
C555 C554 1.478 . S
C555 C556 1.397 1_556 S
C556 C555 1.397 1_554 S
C556 C557 1.438 . S
C556 C561 1.429 . S
C557 C540 1.394 . S
C557 C556 1.438 . S
C557 C558 1.428 . S
C558 H550 0.949 . S
C558 C557 1.428 . S
C558 C559 1.345 . S
C559 H551 0.950 . S
C559 C558 1.345 . S
C559 C560 1.424 . S
C560 H552 0.951 . S
C560 C559 1.424 . S
C560 C561 1.347 . S
C561 H553 0.951 . S
C561 C556 1.429 . S
C561 C560 1.347 . S
H562 C563 0.951 . S
C563 H562 0.951 . S
C563 C569 1.265 . S
H564 C569 0.950 . S
H565 C573 0.949 1_655 S
H566 C574 0.950 . S
H567 C575 0.951 . S
H568 C576 0.951 . S
C569 C563 1.265 . S
C569 H564 0.950 . S
C569 C570 1.478 . S
C570 C569 1.478 . S
C570 C571 1.397 1_565 S
C570 C587 1.394 1_455 S
C571 C570 1.397 1_545 S
C571 C572 1.438 . S
C571 C576 1.429 . S
C572 C571 1.438 . S
C572 C573 1.428 . S
C572 C585 1.394 1_455 S
C573 H565 0.949 1_455 S
C573 C572 1.428 . S
C573 C574 1.345 . S
C574 H566 0.950 . S
C574 C573 1.345 . S
C574 C575 1.424 . S
C575 H567 0.951 . S
C575 C574 1.424 . S
C575 C576 1.347 . S
C576 H568 0.951 . S
C576 C571 1.429 . S
C576 C575 1.347 . S
H577 C578 0.951 . S
C578 H577 0.951 . S
C578 C584 1.265 . S
H579 C584 0.950 . S
H580 C588 0.949 1_455 S
H581 C589 0.950 . S
H582 C590 0.951 . S
H583 C591 0.951 . S
C584 C578 1.265 . S
C584 H579 0.950 . S
C584 C585 1.478 . S
C585 C572 1.394 1_655 S
C585 C584 1.478 . S
C585 C586 1.397 1_545 S
C586 C585 1.397 1_565 S
C586 C587 1.438 . S
C586 C591 1.429 . S
C587 C570 1.394 1_655 S
C587 C586 1.438 . S
C587 C588 1.428 . S
C588 H580 0.949 1_655 S
C588 C587 1.428 . S
C588 C589 1.345 . S
C589 H581 0.950 . S
C589 C588 1.345 . S
C589 C590 1.424 . S
C590 H582 0.951 . S
C590 C589 1.424 . S
C590 C591 1.347 . S
C591 H583 0.951 . S
C591 C586 1.429 . S
C591 C590 1.347 . S
C113 C21 1.652 . S
C128 C8 1.649 . S
C143 C7 1.654 . S
C158 C22 1.650 . S
C173 C49 1.653 . S
C188 C36 1.649 . S
C203 C35 1.653 . S
C218 C50 1.649 . S
C233 C64 1.664 . S
C248 C77 1.658 . S
C263 C78 1.649 . S
C278 C63 1.652 . S
C293 C92 1.645 . S
C308 C105 1.581 . S
C323 C91 1.598 . S
C338 C106 1.661 . S
C353 C9 0.634 . S
C368 C51 0.623 . S
C383 C23 0.619 . S
C398 C37 0.638 . S
C413 C107 0.535 . S
C428 C65 0.477 . S
C443 C93 0.626 . S
C458 C79 0.632 . S
C473 C3 1.525 . S
C488 C59 1.525 . S
C503 C73 1.569 . S
C518 C17 1.569 . S
C533 C87 1.535 . S
C548 C31 1.535 . S
C563 C101 1.535 . S
C578 C45 1.535 . S
