# Generated by pormake.
# Topology tzs, (4)-cn, num edge types: 1
# Building blocks:
#     Node 0, Type 0, BuildingBlock: CEKHIL_clean_sbu_0, # of connection points: 4
#     Node 1, Type 0, BuildingBlock: CEKHIL_clean_sbu_0, # of connection points: 4
#     Node 2, Type 0, BuildingBlock: CEKHIL_clean_sbu_0, # of connection points: 4
#     Node 3, Type 0, BuildingBlock: CEKHIL_clean_sbu_0, # of connection points: 4
#     Node 4, Type 0, BuildingBlock: CEKHIL_clean_sbu_0, # of connection points: 4
#     Node 5, Type 0, BuildingBlock: CEKHIL_clean_sbu_0, # of connection points: 4
#     Node 6, Type 0, BuildingBlock: CEKHIL_clean_sbu_0, # of connection points: 4
#     Node 7, Type 0, BuildingBlock: CEKHIL_clean_sbu_0, # of connection points: 4
#     Node 8, Type 0, BuildingBlock: CEKHIL_clean_sbu_0, # of connection points: 4
#     Node 9, Type 0, BuildingBlock: CEKHIL_clean_sbu_0, # of connection points: 4
#     Node 10, Type 0, BuildingBlock: CEKHIL_clean_sbu_0, # of connection points: 4
#     Node 11, Type 0, BuildingBlock: CEKHIL_clean_sbu_0, # of connection points: 4
#     Node 12, Type 0, BuildingBlock: CEKHIL_clean_sbu_0, # of connection points: 4
#     Node 13, Type 0, BuildingBlock: CEKHIL_clean_sbu_0, # of connection points: 4
#     Node 14, Type 0, BuildingBlock: CEKHIL_clean_sbu_0, # of connection points: 4
#     Node 15, Type 0, BuildingBlock: CEKHIL_clean_sbu_0, # of connection points: 4
#     Edge 16, Type (0, 0), BuildingBlock: EYOCIG_clean_linker_4, # of connection points: 2
#     Edge 17, Type (0, 0), BuildingBlock: EYOCIG_clean_linker_4, # of connection points: 2
#     Edge 18, Type (0, 0), BuildingBlock: EYOCIG_clean_linker_4, # of connection points: 2
#     Edge 19, Type (0, 0), BuildingBlock: EYOCIG_clean_linker_4, # of connection points: 2
#     Edge 20, Type (0, 0), BuildingBlock: EYOCIG_clean_linker_4, # of connection points: 2
#     Edge 21, Type (0, 0), BuildingBlock: EYOCIG_clean_linker_4, # of connection points: 2
#     Edge 22, Type (0, 0), BuildingBlock: EYOCIG_clean_linker_4, # of connection points: 2
#     Edge 23, Type (0, 0), BuildingBlock: EYOCIG_clean_linker_4, # of connection points: 2
#     Edge 24, Type (0, 0), BuildingBlock: EYOCIG_clean_linker_4, # of connection points: 2
#     Edge 25, Type (0, 0), BuildingBlock: EYOCIG_clean_linker_4, # of connection points: 2
#     Edge 26, Type (0, 0), BuildingBlock: EYOCIG_clean_linker_4, # of connection points: 2
#     Edge 27, Type (0, 0), BuildingBlock: EYOCIG_clean_linker_4, # of connection points: 2
#     Edge 28, Type (0, 0), BuildingBlock: EYOCIG_clean_linker_4, # of connection points: 2
#     Edge 29, Type (0, 0), BuildingBlock: EYOCIG_clean_linker_4, # of connection points: 2
#     Edge 30, Type (0, 0), BuildingBlock: EYOCIG_clean_linker_4, # of connection points: 2
#     Edge 31, Type (0, 0), BuildingBlock: EYOCIG_clean_linker_4, # of connection points: 2
#     Edge 32, Type (0, 0), BuildingBlock: EYOCIG_clean_linker_4, # of connection points: 2
#     Edge 33, Type (0, 0), BuildingBlock: EYOCIG_clean_linker_4, # of connection points: 2
#     Edge 34, Type (0, 0), BuildingBlock: EYOCIG_clean_linker_4, # of connection points: 2
#     Edge 35, Type (0, 0), BuildingBlock: EYOCIG_clean_linker_4, # of connection points: 2
#     Edge 36, Type (0, 0), BuildingBlock: EYOCIG_clean_linker_4, # of connection points: 2
#     Edge 37, Type (0, 0), BuildingBlock: EYOCIG_clean_linker_4, # of connection points: 2
#     Edge 38, Type (0, 0), BuildingBlock: EYOCIG_clean_linker_4, # of connection points: 2
#     Edge 39, Type (0, 0), BuildingBlock: EYOCIG_clean_linker_4, # of connection points: 2
#     Edge 40, Type (0, 0), BuildingBlock: EYOCIG_clean_linker_4, # of connection points: 2
#     Edge 41, Type (0, 0), BuildingBlock: EYOCIG_clean_linker_4, # of connection points: 2
#     Edge 42, Type (0, 0), BuildingBlock: EYOCIG_clean_linker_4, # of connection points: 2
#     Edge 43, Type (0, 0), BuildingBlock: EYOCIG_clean_linker_4, # of connection points: 2
#     Edge 44, Type (0, 0), BuildingBlock: EYOCIG_clean_linker_4, # of connection points: 2
#     Edge 45, Type (0, 0), BuildingBlock: EYOCIG_clean_linker_4, # of connection points: 2
#     Edge 46, Type (0, 0), BuildingBlock: EYOCIG_clean_linker_4, # of connection points: 2
#     Edge 47, Type (0, 0), BuildingBlock: EYOCIG_clean_linker_4, # of connection points: 2
# Relax obj value: 0.121
# Max RMSD: 0.118
# Mean RMSD: 0.118
data_MOF--net-tzs--node1-CEKHIL_clean_sbu_0--edge1-EYOCIG_clean_linker_4
_symmetry_space_group_name_H-M    P1
_symmetry_Int_Tables_number       1
_symmetry_cell_setting            triclinic
loop_
_symmetry_equiv_pos_as_xyz
'x, y, z'
_cell_length_a     37.930485
_cell_length_b     37.920643
_cell_length_c     30.717867
_cell_angle_alpha  90.000183
_cell_angle_beta   89.998454
_cell_angle_gamma 90.001587
loop_
_atom_site_label
_atom_site_type_symbol
_atom_site_fract_x
_atom_site_fract_y
_atom_site_fract_z
_atom_type_partial_charge
Co0 Co 0.14764 0.34819 0.20163 0.0
O1 O 0.1571 0.29801 0.20188 0.0
O2 O 0.19395 0.33926 0.22533 0.0
C3 C 0.09282 0.3442 0.22861 0.0
O4 O 0.14753 0.40182 0.21015 0.0
Co5 Co 0.08722 0.38329 0.14854 0.0
O6 O 0.09693 0.42523 0.18516 0.0
C7 C 0.14983 0.35418 0.10391 0.0
C8 C 0.18721 0.30607 0.21935 0.0
C9 C 0.12571 0.42763 0.20617 0.0
O10 O 0.16677 0.35158 0.14016 0.0
O11 O 0.11752 0.36347 0.10108 0.0
O12 O 0.11965 0.3433 0.25492 0.0
O13 O 0.09978 0.34528 0.18769 0.0
Co14 Co 0.66577 0.14725 0.20171 0.0
O15 O 0.71594 0.15674 0.20203 0.0
O16 O 0.67466 0.19354 0.2255 0.0
C17 C 0.66978 0.09238 0.2286 0.0
O18 O 0.61215 0.1471 0.21017 0.0
Co19 Co 0.63073 0.08683 0.14851 0.0
O20 O 0.58876 0.09651 0.18507 0.0
C21 C 0.65982 0.14952 0.10399 0.0
C22 C 0.70785 0.18683 0.21956 0.0
C23 C 0.58634 0.12528 0.20612 0.0
O24 O 0.66241 0.16644 0.14027 0.0
O25 O 0.65055 0.1172 0.10112 0.0
O26 O 0.67064 0.11919 0.25496 0.0
O27 O 0.66872 0.09939 0.18768 0.0
Co28 Co 0.86656 0.6654 0.20163 0.0
O29 O 0.85707 0.71558 0.20211 0.0
O30 O 0.82024 0.67423 0.22533 0.0
C31 C 0.92135 0.66935 0.22867 0.0
O32 O 0.8667 0.61175 0.20989 0.0
Co33 Co 0.92705 0.6305 0.14844 0.0
O34 O 0.91737 0.58846 0.18491 0.0
C35 C 0.86447 0.65975 0.10387 0.0
C36 C 0.82696 0.70744 0.21953 0.0
C37 C 0.88857 0.58597 0.20587 0.0
O38 O 0.84749 0.66221 0.14011 0.0
O39 O 0.89679 0.65048 0.10105 0.0
O40 O 0.89451 0.67014 0.25496 0.0
O41 O 0.91443 0.66839 0.18773 0.0
Co42 Co 0.34841 0.86626 0.20148 0.0
O43 O 0.29823 0.85688 0.20205 0.0
O44 O 0.33953 0.81989 0.22501 0.0
C45 C 0.34463 0.92101 0.22876 0.0
O46 O 0.40206 0.86628 0.20961 0.0
Co47 Co 0.38332 0.92682 0.14841 0.0
O48 O 0.42539 0.91698 0.18474 0.0
C49 C 0.35384 0.86441 0.10371 0.0
C50 C 0.30633 0.8267 0.21932 0.0
C51 C 0.42786 0.88811 0.20559 0.0
O52 O 0.35145 0.84734 0.13989 0.0
O53 O 0.36316 0.89673 0.10098 0.0
O54 O 0.34382 0.89409 0.25495 0.0
O55 O 0.3455 0.91418 0.18779 0.0
Co56 Co 0.14736 0.66542 0.30286 0.0
O57 O 0.1568 0.71561 0.30228 0.0
O58 O 0.19367 0.67425 0.27916 0.0
C59 C 0.09256 0.66928 0.27582 0.0
O60 O 0.14728 0.61176 0.29472 0.0
Co61 Co 0.08691 0.63052 0.35613 0.0
O62 O 0.09669 0.5884 0.31985 0.0
C63 C 0.14944 0.65995 0.40061 0.0
C64 C 0.18692 0.70747 0.2849 0.0
C65 C 0.12549 0.58594 0.29887 0.0
O66 O 0.16643 0.66233 0.36437 0.0
O67 O 0.11713 0.65067 0.40345 0.0
O68 O 0.1194 0.67006 0.24952 0.0
O69 O 0.09949 0.66838 0.31675 0.0
Co70 Co 0.34858 0.14714 0.30281 0.0
O71 O 0.29841 0.15657 0.30229 0.0
O72 O 0.33971 0.19339 0.27891 0.0
C73 C 0.34472 0.09224 0.27603 0.0
O74 O 0.40223 0.14704 0.29458 0.0
Co75 Co 0.38353 0.08685 0.35632 0.0
O76 O 0.42561 0.09652 0.31994 0.0
C77 C 0.35418 0.14955 0.40054 0.0
C78 C 0.30652 0.18666 0.28476 0.0
C79 C 0.42805 0.12526 0.29881 0.0
O80 O 0.35175 0.16641 0.36422 0.0
O81 O 0.36347 0.11723 0.40353 0.0
O82 O 0.34389 0.11901 0.24961 0.0
O83 O 0.34565 0.0993 0.31693 0.0
Co84 Co 0.86681 0.34822 0.303 0.0
O85 O 0.85735 0.29803 0.30257 0.0
O86 O 0.82049 0.33934 0.2793 0.0
C87 C 0.92162 0.34429 0.27597 0.0
O88 O 0.8669 0.40187 0.29466 0.0
Co89 Co 0.92725 0.38324 0.35614 0.0
O90 O 0.91751 0.42526 0.31968 0.0
C91 C 0.8647 0.35394 0.40074 0.0
C92 C 0.82723 0.30614 0.28515 0.0
C93 C 0.88871 0.42769 0.2987 0.0
O94 O 0.84773 0.35145 0.3645 0.0
O95 O 0.89701 0.36324 0.40355 0.0
O96 O 0.89477 0.34346 0.24967 0.0
O97 O 0.91468 0.34528 0.3169 0.0
Co98 Co 0.66552 0.86632 0.30291 0.0
O99 O 0.7157 0.85686 0.30264 0.0
O100 O 0.67444 0.81998 0.27931 0.0
C101 C 0.66952 0.92112 0.2758 0.0
O102 O 0.6119 0.8664 0.29442 0.0
Co103 Co 0.63041 0.92685 0.35583 0.0
O104 O 0.58847 0.91706 0.31927 0.0
C105 C 0.65956 0.86432 0.40064 0.0
C106 C 0.70762 0.82673 0.28522 0.0
C107 C 0.58608 0.88822 0.29834 0.0
O108 O 0.66216 0.84731 0.36444 0.0
O109 O 0.65026 0.89665 0.40336 0.0
O110 O 0.67039 0.89424 0.24955 0.0
O111 O 0.66844 0.91422 0.31674 0.0
Co112 Co 0.84819 0.64732 0.80287 0.0
O113 O 0.798 0.65675 0.8025 0.0
O114 O 0.83927 0.69363 0.77916 0.0
C115 C 0.84428 0.59248 0.77587 0.0
O116 O 0.90181 0.64726 0.79447 0.0
Co117 Co 0.88326 0.58689 0.85602 0.0
O118 O 0.92523 0.59665 0.81949 0.0
C119 C 0.85403 0.64949 0.90061 0.0
C120 C 0.80608 0.68687 0.78504 0.0
C121 C 0.92763 0.62545 0.7985 0.0
O122 O 0.85146 0.66644 0.86436 0.0
O123 O 0.86335 0.61718 0.90344 0.0
O124 O 0.8434 0.61932 0.74956 0.0
O125 O 0.84529 0.59944 0.8168 0.0
Co126 Co 0.36622 0.84848 0.80279 0.0
O127 O 0.35673 0.7983 0.80247 0.0
O128 O 0.31996 0.8396 0.77894 0.0
C129 C 0.42109 0.84447 0.776 0.0
O130 O 0.36637 0.90212 0.79433 0.0
Co131 Co 0.42655 0.88353 0.8561 0.0
O132 O 0.41693 0.92551 0.81952 0.0
C133 C 0.36386 0.85434 0.9005 0.0
C134 C 0.32666 0.8064 0.7849 0.0
C135 C 0.38819 0.92792 0.79841 0.0
O136 O 0.34697 0.85183 0.86421 0.0
O137 O 0.39618 0.86361 0.90342 0.0
O138 O 0.39432 0.84361 0.74959 0.0
O139 O 0.41405 0.84553 0.8169 0.0
Co140 Co 0.16586 0.3666 0.80283 0.0
O141 O 0.21605 0.35724 0.80234 0.0
O142 O 0.17479 0.32024 0.77926 0.0
C143 C 0.16965 0.42136 0.77561 0.0
O144 O 0.11221 0.36658 0.7946 0.0
Co145 Co 0.13084 0.42711 0.85588 0.0
O146 O 0.08882 0.41724 0.81949 0.0
C147 C 0.16021 0.36465 0.9006 0.0
C148 C 0.20798 0.32707 0.78502 0.0
C149 C 0.08639 0.38839 0.79861 0.0
O150 O 0.16273 0.34762 0.8644 0.0
O151 O 0.15087 0.39696 0.90335 0.0
O152 O 0.1705 0.39446 0.7494 0.0
O153 O 0.16873 0.41451 0.81657 0.0
Co154 Co 0.64747 0.16553 0.80291 0.0
O155 O 0.65701 0.2157 0.80241 0.0
O156 O 0.69387 0.1743 0.7794 0.0
C157 C 0.59276 0.16949 0.77562 0.0
O158 O 0.6473 0.11187 0.7947 0.0
Co159 Co 0.58681 0.13074 0.8559 0.0
O160 O 0.59654 0.08866 0.81951 0.0
C161 C 0.64931 0.15992 0.90068 0.0
C162 C 0.68716 0.20752 0.78513 0.0
C163 C 0.62539 0.08612 0.79867 0.0
O164 O 0.66637 0.16235 0.8645 0.0
O165 O 0.61697 0.15069 0.9034 0.0
O166 O 0.61968 0.17025 0.74944 0.0
O167 O 0.59957 0.16857 0.81659 0.0
Co168 Co 0.84866 0.36636 0.70172 0.0
O169 O 0.79849 0.3569 0.70212 0.0
O170 O 0.83978 0.32006 0.72547 0.0
C171 C 0.84471 0.42121 0.72867 0.0
O172 O 0.90229 0.36646 0.71008 0.0
Co173 Co 0.88368 0.42678 0.64852 0.0
O174 O 0.9257 0.41705 0.68498 0.0
C175 C 0.85443 0.36417 0.60398 0.0
C176 C 0.80659 0.32679 0.71959 0.0
C177 C 0.92811 0.38826 0.706 0.0
O178 O 0.85192 0.34722 0.64024 0.0
O179 O 0.86372 0.39649 0.60114 0.0
O180 O 0.84387 0.39438 0.755 0.0
O181 O 0.84572 0.41424 0.68775 0.0
Co182 Co 0.6471 0.84828 0.70179 0.0
O183 O 0.65657 0.7981 0.70218 0.0
O184 O 0.69345 0.83941 0.72539 0.0
C185 C 0.59233 0.84434 0.72892 0.0
O186 O 0.64701 0.90193 0.71013 0.0
Co187 Co 0.58657 0.88328 0.64877 0.0
O188 O 0.59635 0.9253 0.68522 0.0
C189 C 0.64909 0.85406 0.60403 0.0
C190 C 0.6867 0.8062 0.71956 0.0
C191 C 0.62518 0.92774 0.70614 0.0
O192 O 0.6661 0.85153 0.64024 0.0
O193 O 0.61677 0.86335 0.60128 0.0
O194 O 0.61921 0.8435 0.75517 0.0
O195 O 0.59922 0.84533 0.68798 0.0
Co196 Co 0.16529 0.64748 0.70142 0.0
O197 O 0.21546 0.65694 0.70184 0.0
O198 O 0.17417 0.69375 0.72527 0.0
C199 C 0.16924 0.59259 0.72825 0.0
O200 O 0.11166 0.64735 0.70978 0.0
Co201 Co 0.13029 0.58714 0.64806 0.0
O202 O 0.08826 0.59682 0.68452 0.0
C203 C 0.15956 0.64982 0.60371 0.0
C204 C 0.20736 0.68703 0.71936 0.0
C205 C 0.08584 0.62556 0.70563 0.0
O206 O 0.16203 0.66672 0.64001 0.0
O207 O 0.15029 0.6175 0.60078 0.0
O208 O 0.17008 0.61938 0.75464 0.0
O209 O 0.16823 0.59963 0.68734 0.0
Co210 Co 0.36674 0.16564 0.7013 0.0
O211 O 0.35736 0.21584 0.70177 0.0
O212 O 0.32049 0.17457 0.72514 0.0
C213 C 0.4216 0.16948 0.72816 0.0
O214 O 0.36677 0.11199 0.7096 0.0
Co215 Co 0.42703 0.13057 0.64794 0.0
O216 O 0.41727 0.08853 0.68437 0.0
C217 C 0.36443 0.15997 0.60358 0.0
C218 C 0.32727 0.20777 0.71928 0.0
C219 C 0.38852 0.08614 0.70544 0.0
O220 O 0.34753 0.16246 0.63987 0.0
O221 O 0.39672 0.15064 0.60065 0.0
O222 O 0.39481 0.17035 0.75454 0.0
O223 O 0.41459 0.16852 0.68725 0.0
C224 C 0.25794 0.23233 0.25916 0.0
C225 C 0.27978 0.2112 0.27102 0.0
C226 C 0.23287 0.25742 0.24475 0.0
C227 C 0.21175 0.27929 0.23298 0.0
C228 C 0.78154 0.25756 0.25959 0.0
C229 C 0.80268 0.27939 0.27144 0.0
C230 C 0.75645 0.23249 0.24513 0.0
C231 C 0.7346 0.21137 0.23328 0.0
C232 C 0.78129 0.75599 0.2452 0.0
C233 C 0.80241 0.73417 0.23331 0.0
C234 C 0.75622 0.78106 0.25969 0.0
C235 C 0.73438 0.80219 0.27153 0.0
C236 C 0.25772 0.78105 0.24486 0.0
C237 C 0.27958 0.80216 0.23303 0.0
C238 C 0.23262 0.756 0.25931 0.0
C239 C 0.21148 0.73419 0.27117 0.0
C240 C 0.73239 0.75761 0.74507 0.0
C241 C 0.71126 0.77946 0.73325 0.0
C242 C 0.75747 0.73253 0.75952 0.0
C243 C 0.77932 0.71141 0.77135 0.0
C244 C 0.25594 0.7327 0.74492 0.0
C245 C 0.23411 0.71158 0.73307 0.0
C246 C 0.28101 0.7578 0.75936 0.0
C247 C 0.30212 0.77965 0.7712 0.0
C248 C 0.2566 0.28145 0.75944 0.0
C249 C 0.23475 0.30255 0.77129 0.0
C250 C 0.28167 0.25638 0.74494 0.0
C251 C 0.30277 0.23454 0.73305 0.0
C252 C 0.73291 0.25605 0.75961 0.0
C253 C 0.71176 0.23422 0.77143 0.0
C254 C 0.758 0.28112 0.74516 0.0
C255 C 0.77984 0.30224 0.73331 0.0
C256 C 0.17289 0.34143 0.97925 0.0
C257 C 0.16831 0.34758 0.94112 0.0
C258 C 0.17319 0.3417 0.02528 0.0
C259 C 0.16699 0.34619 0.06341 0.0
C260 C 0.67253 0.17259 0.97934 0.0
C261 C 0.66636 0.168 0.94122 0.0
C262 C 0.67228 0.17291 0.02537 0.0
C263 C 0.6678 0.16672 0.06351 0.0
C264 C 0.84146 0.67279 0.97924 0.0
C265 C 0.84599 0.66663 0.9411 0.0
C266 C 0.84118 0.67246 0.02527 0.0
C267 C 0.84735 0.66785 0.06339 0.0
C268 C 0.3409 0.8413 0.02508 0.0
C269 C 0.34561 0.8474 0.0632 0.0
C270 C 0.34049 0.84167 0.97906 0.0
C271 C 0.34666 0.84625 0.94093 0.0
C272 C 0.17232 0.67322 0.52519 0.0
C273 C 0.1677 0.66702 0.5633 0.0
C274 C 0.17269 0.67285 0.47917 0.0
C275 C 0.16655 0.66816 0.44106 0.0
C276 C 0.34105 0.17273 0.52505 0.0
C277 C 0.34724 0.16812 0.56316 0.0
C278 C 0.34139 0.17303 0.47902 0.0
C279 C 0.34602 0.16679 0.44093 0.0
C280 C 0.84144 0.34121 0.47935 0.0
C281 C 0.8476 0.34582 0.44123 0.0
C282 C 0.84176 0.34087 0.52538 0.0
C283 C 0.84634 0.34703 0.56351 0.0
C284 C 0.67234 0.84144 0.52537 0.0
C285 C 0.66617 0.84601 0.56351 0.0
C286 C 0.67207 0.84112 0.47934 0.0
C287 C 0.66756 0.84725 0.44119 0.0
C288 C 0.13688 0.5238 0.26212 0.0
C289 C 0.13328 0.55274 0.27808 0.0
C290 C 0.13695 0.48968 0.24321 0.0
C291 C 0.13346 0.46076 0.22713 0.0
C292 C 0.52428 0.13654 0.24308 0.0
C293 C 0.5532 0.13302 0.22704 0.0
C294 C 0.49016 0.13652 0.26198 0.0
C295 C 0.46123 0.13299 0.27797 0.0
C296 C 0.87735 0.52388 0.2428 0.0
C297 C 0.88085 0.5528 0.22676 0.0
C298 C 0.87738 0.48976 0.26175 0.0
C299 C 0.88094 0.46084 0.2778 0.0
C300 C 0.52407 0.87681 0.26133 0.0
C301 C 0.55297 0.88039 0.27741 0.0
C302 C 0.48996 0.87678 0.2424 0.0
C303 C 0.46103 0.88032 0.22642 0.0
C304 C 0.84604 0.52533 0.75481 0.0
C305 C 0.84519 0.55663 0.76132 0.0
C306 C 0.84613 0.48838 0.7497 0.0
C307 C 0.84544 0.45707 0.7432 0.0
C308 C 0.52522 0.84595 0.75008 0.0
C309 C 0.55651 0.84517 0.74355 0.0
C310 C 0.48828 0.84598 0.75515 0.0
C311 C 0.45697 0.84524 0.76158 0.0
C312 C 0.16784 0.48846 0.75433 0.0
C313 C 0.16871 0.45718 0.76093 0.0
C314 C 0.16776 0.52541 0.74918 0.0
C315 C 0.16848 0.55671 0.74269 0.0
C316 C 0.48876 0.16785 0.74912 0.0
C317 C 0.45747 0.16864 0.74262 0.0
C318 C 0.52569 0.16786 0.75428 0.0
C319 C 0.55697 0.16864 0.76089 0.0
C320 C 0.63661 0.02397 0.76188 0.0
C321 C 0.63312 0.05292 0.77786 0.0
C322 C 0.63655 0.98983 0.743 0.0
C323 C 0.63298 0.96091 0.72699 0.0
C324 C 0.98967 0.63679 0.76153 0.0
C325 C 0.96077 0.63324 0.77758 0.0
C326 C 0.02378 0.63681 0.74258 0.0
C327 C 0.05269 0.63329 0.72654 0.0
C328 C 0.37712 0.02407 0.74237 0.0
C329 C 0.38072 0.05299 0.72633 0.0
C330 C 0.37704 0.98997 0.76134 0.0
C331 C 0.3805 0.96106 0.77743 0.0
C332 C 0.02431 0.37697 0.7618 0.0
C333 C 0.05324 0.38055 0.77778 0.0
C334 C 0.99018 0.37695 0.7429 0.0
C335 C 0.96126 0.38048 0.72688 0.0
C336 C 0.34637 0.02504 0.25517 0.0
C337 C 0.34558 0.05635 0.26162 0.0
C338 C 0.34636 0.9881 0.25005 0.0
C339 C 0.34554 0.95681 0.24347 0.0
C340 C 0.98875 0.34584 0.25485 0.0
C341 C 0.95746 0.34509 0.2614 0.0
C342 C 0.02569 0.34581 0.2497 0.0
C343 C 0.05698 0.34503 0.24316 0.0
C344 C 0.66809 0.98825 0.25464 0.0
C345 C 0.66879 0.95695 0.26118 0.0
C346 C 0.66815 0.0252 0.24954 0.0
C347 C 0.66894 0.05651 0.24308 0.0
C348 C 0.02542 0.66767 0.25478 0.0
C349 C 0.05672 0.66844 0.26126 0.0
C350 C 0.98848 0.66769 0.24972 0.0
C351 C 0.95719 0.66848 0.24323 0.0
loop_
_geom_bond_atom_site_label_1
_geom_bond_atom_site_label_2
_geom_bond_distance
_geom_bond_site_symmetry_2
_ccdc_geom_bond_type
Co0 O1 2.216 . S
Co0 O2 2.091 . S
Co0 O4 2.004 . S
Co0 O10 2.021 . S
Co0 O12 2.137 . S
Co0 O13 2.244 . S
O1 Co0 2.216 . S
O1 C8 1.247 . S
O2 Co0 2.091 . S
O2 C8 1.261 . S
C3 O12 1.247 . S
C3 O13 1.272 . S
O4 Co0 2.004 . S
O4 C9 1.259 . S
Co5 O6 2.061 . S
Co5 O11 2.052 . S
Co5 O13 2.135 . S
O6 Co5 2.061 . S
O6 C9 1.235 . S
C7 O10 1.238 . S
C7 O11 1.241 . S
C8 O1 1.247 . S
C8 O2 1.261 . S
C9 O4 1.259 . S
C9 O6 1.235 . S
O10 Co0 2.021 . S
O10 C7 1.238 . S
O11 Co5 2.052 . S
O11 C7 1.241 . S
O12 Co0 2.137 . S
O12 C3 1.247 . S
O13 Co0 2.244 . S
O13 C3 1.272 . S
O13 Co5 2.135 . S
Co14 O15 2.216 . S
Co14 O16 2.091 . S
Co14 O18 2.004 . S
Co14 O24 2.021 . S
Co14 O26 2.137 . S
Co14 O27 2.244 . S
O15 Co14 2.216 . S
O15 C22 1.247 . S
O16 Co14 2.091 . S
O16 C22 1.261 . S
C17 O26 1.247 . S
C17 O27 1.272 . S
O18 Co14 2.004 . S
O18 C23 1.259 . S
Co19 O20 2.061 . S
Co19 O25 2.052 . S
Co19 O27 2.135 . S
O20 Co19 2.061 . S
O20 C23 1.235 . S
C21 O24 1.238 . S
C21 O25 1.241 . S
C22 O15 1.247 . S
C22 O16 1.261 . S
C23 O18 1.259 . S
C23 O20 1.235 . S
O24 Co14 2.021 . S
O24 C21 1.238 . S
O25 Co19 2.052 . S
O25 C21 1.241 . S
O26 Co14 2.137 . S
O26 C17 1.247 . S
O27 Co14 2.244 . S
O27 C17 1.272 . S
O27 Co19 2.135 . S
Co28 O29 2.216 . S
Co28 O30 2.091 . S
Co28 O32 2.004 . S
Co28 O38 2.021 . S
Co28 O40 2.137 . S
Co28 O41 2.244 . S
O29 Co28 2.216 . S
O29 C36 1.247 . S
O30 Co28 2.091 . S
O30 C36 1.261 . S
C31 O40 1.247 . S
C31 O41 1.272 . S
O32 Co28 2.004 . S
O32 C37 1.259 . S
Co33 O34 2.061 . S
Co33 O39 2.052 . S
Co33 O41 2.135 . S
O34 Co33 2.061 . S
O34 C37 1.235 . S
C35 O38 1.238 . S
C35 O39 1.241 . S
C36 O29 1.247 . S
C36 O30 1.261 . S
C37 O32 1.259 . S
C37 O34 1.235 . S
O38 Co28 2.021 . S
O38 C35 1.238 . S
O39 Co33 2.052 . S
O39 C35 1.241 . S
O40 Co28 2.137 . S
O40 C31 1.247 . S
O41 Co28 2.244 . S
O41 C31 1.272 . S
O41 Co33 2.135 . S
Co42 O43 2.216 . S
Co42 O44 2.091 . S
Co42 O46 2.004 . S
Co42 O52 2.021 . S
Co42 O54 2.137 . S
Co42 O55 2.244 . S
O43 Co42 2.216 . S
O43 C50 1.247 . S
O44 Co42 2.091 . S
O44 C50 1.261 . S
C45 O54 1.247 . S
C45 O55 1.272 . S
O46 Co42 2.004 . S
O46 C51 1.259 . S
Co47 O48 2.061 . S
Co47 O53 2.052 . S
Co47 O55 2.135 . S
O48 Co47 2.061 . S
O48 C51 1.235 . S
C49 O52 1.238 . S
C49 O53 1.241 . S
C50 O43 1.247 . S
C50 O44 1.261 . S
C51 O46 1.259 . S
C51 O48 1.235 . S
O52 Co42 2.021 . S
O52 C49 1.238 . S
O53 Co47 2.052 . S
O53 C49 1.241 . S
O54 Co42 2.137 . S
O54 C45 1.247 . S
O55 Co42 2.244 . S
O55 C45 1.272 . S
O55 Co47 2.135 . S
Co56 O57 2.216 . S
Co56 O58 2.091 . S
Co56 O60 2.004 . S
Co56 O66 2.021 . S
Co56 O68 2.137 . S
Co56 O69 2.244 . S
O57 Co56 2.216 . S
O57 C64 1.247 . S
O58 Co56 2.091 . S
O58 C64 1.261 . S
C59 O68 1.247 . S
C59 O69 1.272 . S
O60 Co56 2.004 . S
O60 C65 1.259 . S
Co61 O62 2.061 . S
Co61 O67 2.052 . S
Co61 O69 2.135 . S
O62 Co61 2.061 . S
O62 C65 1.235 . S
C63 O66 1.238 . S
C63 O67 1.241 . S
C64 O57 1.247 . S
C64 O58 1.261 . S
C65 O60 1.259 . S
C65 O62 1.235 . S
O66 Co56 2.021 . S
O66 C63 1.238 . S
O67 Co61 2.052 . S
O67 C63 1.241 . S
O68 Co56 2.137 . S
O68 C59 1.247 . S
O69 Co56 2.244 . S
O69 C59 1.272 . S
O69 Co61 2.135 . S
Co70 O71 2.216 . S
Co70 O72 2.091 . S
Co70 O74 2.004 . S
Co70 O80 2.021 . S
Co70 O82 2.137 . S
Co70 O83 2.244 . S
O71 Co70 2.216 . S
O71 C78 1.247 . S
O72 Co70 2.091 . S
O72 C78 1.261 . S
C73 O82 1.247 . S
C73 O83 1.272 . S
O74 Co70 2.004 . S
O74 C79 1.259 . S
Co75 O76 2.061 . S
Co75 O81 2.052 . S
Co75 O83 2.135 . S
O76 Co75 2.061 . S
O76 C79 1.235 . S
C77 O80 1.238 . S
C77 O81 1.241 . S
C78 O71 1.247 . S
C78 O72 1.261 . S
C79 O74 1.259 . S
C79 O76 1.235 . S
O80 Co70 2.021 . S
O80 C77 1.238 . S
O81 Co75 2.052 . S
O81 C77 1.241 . S
O82 Co70 2.137 . S
O82 C73 1.247 . S
O83 Co70 2.244 . S
O83 C73 1.272 . S
O83 Co75 2.135 . S
Co84 O85 2.216 . S
Co84 O86 2.091 . S
Co84 O88 2.004 . S
Co84 O94 2.021 . S
Co84 O96 2.137 . S
Co84 O97 2.244 . S
O85 Co84 2.216 . S
O85 C92 1.247 . S
O86 Co84 2.091 . S
O86 C92 1.261 . S
C87 O96 1.247 . S
C87 O97 1.272 . S
O88 Co84 2.004 . S
O88 C93 1.259 . S
Co89 O90 2.061 . S
Co89 O95 2.052 . S
Co89 O97 2.135 . S
O90 Co89 2.061 . S
O90 C93 1.235 . S
C91 O94 1.238 . S
C91 O95 1.241 . S
C92 O85 1.247 . S
C92 O86 1.261 . S
C93 O88 1.259 . S
C93 O90 1.235 . S
O94 Co84 2.021 . S
O94 C91 1.238 . S
O95 Co89 2.052 . S
O95 C91 1.241 . S
O96 Co84 2.137 . S
O96 C87 1.247 . S
O97 Co84 2.244 . S
O97 C87 1.272 . S
O97 Co89 2.135 . S
Co98 O99 2.216 . S
Co98 O100 2.091 . S
Co98 O102 2.004 . S
Co98 O108 2.021 . S
Co98 O110 2.137 . S
Co98 O111 2.244 . S
O99 Co98 2.216 . S
O99 C106 1.247 . S
O100 Co98 2.091 . S
O100 C106 1.261 . S
C101 O110 1.247 . S
C101 O111 1.272 . S
O102 Co98 2.004 . S
O102 C107 1.259 . S
Co103 O104 2.061 . S
Co103 O109 2.052 . S
Co103 O111 2.135 . S
O104 Co103 2.061 . S
O104 C107 1.235 . S
C105 O108 1.238 . S
C105 O109 1.241 . S
C106 O99 1.247 . S
C106 O100 1.261 . S
C107 O102 1.259 . S
C107 O104 1.235 . S
O108 Co98 2.021 . S
O108 C105 1.238 . S
O109 Co103 2.052 . S
O109 C105 1.241 . S
O110 Co98 2.137 . S
O110 C101 1.247 . S
O111 Co98 2.244 . S
O111 C101 1.272 . S
O111 Co103 2.135 . S
Co112 O113 2.216 . S
Co112 O114 2.091 . S
Co112 O116 2.004 . S
Co112 O122 2.021 . S
Co112 O124 2.137 . S
Co112 O125 2.244 . S
O113 Co112 2.216 . S
O113 C120 1.247 . S
O114 Co112 2.091 . S
O114 C120 1.261 . S
C115 O124 1.247 . S
C115 O125 1.272 . S
O116 Co112 2.004 . S
O116 C121 1.259 . S
Co117 O118 2.061 . S
Co117 O123 2.052 . S
Co117 O125 2.135 . S
O118 Co117 2.061 . S
O118 C121 1.235 . S
C119 O122 1.238 . S
C119 O123 1.241 . S
C120 O113 1.247 . S
C120 O114 1.261 . S
C121 O116 1.259 . S
C121 O118 1.235 . S
O122 Co112 2.021 . S
O122 C119 1.238 . S
O123 Co117 2.052 . S
O123 C119 1.241 . S
O124 Co112 2.137 . S
O124 C115 1.247 . S
O125 Co112 2.244 . S
O125 C115 1.272 . S
O125 Co117 2.135 . S
Co126 O127 2.216 . S
Co126 O128 2.091 . S
Co126 O130 2.004 . S
Co126 O136 2.021 . S
Co126 O138 2.137 . S
Co126 O139 2.244 . S
O127 Co126 2.216 . S
O127 C134 1.247 . S
O128 Co126 2.091 . S
O128 C134 1.261 . S
C129 O138 1.247 . S
C129 O139 1.272 . S
O130 Co126 2.004 . S
O130 C135 1.259 . S
Co131 O132 2.061 . S
Co131 O137 2.052 . S
Co131 O139 2.135 . S
O132 Co131 2.061 . S
O132 C135 1.235 . S
C133 O136 1.238 . S
C133 O137 1.241 . S
C134 O127 1.247 . S
C134 O128 1.261 . S
C135 O130 1.259 . S
C135 O132 1.235 . S
O136 Co126 2.021 . S
O136 C133 1.238 . S
O137 Co131 2.052 . S
O137 C133 1.241 . S
O138 Co126 2.137 . S
O138 C129 1.247 . S
O139 Co126 2.244 . S
O139 C129 1.272 . S
O139 Co131 2.135 . S
Co140 O141 2.216 . S
Co140 O142 2.091 . S
Co140 O144 2.004 . S
Co140 O150 2.021 . S
Co140 O152 2.137 . S
Co140 O153 2.244 . S
O141 Co140 2.216 . S
O141 C148 1.247 . S
O142 Co140 2.091 . S
O142 C148 1.261 . S
C143 O152 1.247 . S
C143 O153 1.272 . S
O144 Co140 2.004 . S
O144 C149 1.259 . S
Co145 O146 2.061 . S
Co145 O151 2.052 . S
Co145 O153 2.135 . S
O146 Co145 2.061 . S
O146 C149 1.235 . S
C147 O150 1.238 . S
C147 O151 1.241 . S
C148 O141 1.247 . S
C148 O142 1.261 . S
C149 O144 1.259 . S
C149 O146 1.235 . S
O150 Co140 2.021 . S
O150 C147 1.238 . S
O151 Co145 2.052 . S
O151 C147 1.241 . S
O152 Co140 2.137 . S
O152 C143 1.247 . S
O153 Co140 2.244 . S
O153 C143 1.272 . S
O153 Co145 2.135 . S
Co154 O155 2.216 . S
Co154 O156 2.091 . S
Co154 O158 2.004 . S
Co154 O164 2.021 . S
Co154 O166 2.137 . S
Co154 O167 2.244 . S
O155 Co154 2.216 . S
O155 C162 1.247 . S
O156 Co154 2.091 . S
O156 C162 1.261 . S
C157 O166 1.247 . S
C157 O167 1.272 . S
O158 Co154 2.004 . S
O158 C163 1.259 . S
Co159 O160 2.061 . S
Co159 O165 2.052 . S
Co159 O167 2.135 . S
O160 Co159 2.061 . S
O160 C163 1.235 . S
C161 O164 1.238 . S
C161 O165 1.241 . S
C162 O155 1.247 . S
C162 O156 1.261 . S
C163 O158 1.259 . S
C163 O160 1.235 . S
O164 Co154 2.021 . S
O164 C161 1.238 . S
O165 Co159 2.052 . S
O165 C161 1.241 . S
O166 Co154 2.137 . S
O166 C157 1.247 . S
O167 Co154 2.244 . S
O167 C157 1.272 . S
O167 Co159 2.135 . S
Co168 O169 2.216 . S
Co168 O170 2.091 . S
Co168 O172 2.004 . S
Co168 O178 2.021 . S
Co168 O180 2.137 . S
Co168 O181 2.244 . S
O169 Co168 2.216 . S
O169 C176 1.247 . S
O170 Co168 2.091 . S
O170 C176 1.261 . S
C171 O180 1.247 . S
C171 O181 1.272 . S
O172 Co168 2.004 . S
O172 C177 1.259 . S
Co173 O174 2.061 . S
Co173 O179 2.052 . S
Co173 O181 2.135 . S
O174 Co173 2.061 . S
O174 C177 1.235 . S
C175 O178 1.238 . S
C175 O179 1.241 . S
C176 O169 1.247 . S
C176 O170 1.261 . S
C177 O172 1.259 . S
C177 O174 1.235 . S
O178 Co168 2.021 . S
O178 C175 1.238 . S
O179 Co173 2.052 . S
O179 C175 1.241 . S
O180 Co168 2.137 . S
O180 C171 1.247 . S
O181 Co168 2.244 . S
O181 C171 1.272 . S
O181 Co173 2.135 . S
Co182 O183 2.216 . S
Co182 O184 2.091 . S
Co182 O186 2.004 . S
Co182 O192 2.021 . S
Co182 O194 2.137 . S
Co182 O195 2.244 . S
O183 Co182 2.216 . S
O183 C190 1.247 . S
O184 Co182 2.091 . S
O184 C190 1.261 . S
C185 O194 1.247 . S
C185 O195 1.272 . S
O186 Co182 2.004 . S
O186 C191 1.259 . S
Co187 O188 2.061 . S
Co187 O193 2.052 . S
Co187 O195 2.135 . S
O188 Co187 2.061 . S
O188 C191 1.235 . S
C189 O192 1.238 . S
C189 O193 1.241 . S
C190 O183 1.247 . S
C190 O184 1.261 . S
C191 O186 1.259 . S
C191 O188 1.235 . S
O192 Co182 2.021 . S
O192 C189 1.238 . S
O193 Co187 2.052 . S
O193 C189 1.241 . S
O194 Co182 2.137 . S
O194 C185 1.247 . S
O195 Co182 2.244 . S
O195 C185 1.272 . S
O195 Co187 2.135 . S
Co196 O197 2.216 . S
Co196 O198 2.091 . S
Co196 O200 2.004 . S
Co196 O206 2.021 . S
Co196 O208 2.137 . S
Co196 O209 2.244 . S
O197 Co196 2.216 . S
O197 C204 1.247 . S
O198 Co196 2.091 . S
O198 C204 1.261 . S
C199 O208 1.247 . S
C199 O209 1.272 . S
O200 Co196 2.004 . S
O200 C205 1.259 . S
Co201 O202 2.061 . S
Co201 O207 2.052 . S
Co201 O209 2.135 . S
O202 Co201 2.061 . S
O202 C205 1.235 . S
C203 O206 1.238 . S
C203 O207 1.241 . S
C204 O197 1.247 . S
C204 O198 1.261 . S
C205 O200 1.259 . S
C205 O202 1.235 . S
O206 Co196 2.021 . S
O206 C203 1.238 . S
O207 Co201 2.052 . S
O207 C203 1.241 . S
O208 Co196 2.137 . S
O208 C199 1.247 . S
O209 Co196 2.244 . S
O209 C199 1.272 . S
O209 Co201 2.135 . S
Co210 O211 2.216 . S
Co210 O212 2.091 . S
Co210 O214 2.004 . S
Co210 O220 2.021 . S
Co210 O222 2.137 . S
Co210 O223 2.244 . S
O211 Co210 2.216 . S
O211 C218 1.247 . S
O212 Co210 2.091 . S
O212 C218 1.261 . S
C213 O222 1.247 . S
C213 O223 1.272 . S
O214 Co210 2.004 . S
O214 C219 1.259 . S
Co215 O216 2.061 . S
Co215 O221 2.052 . S
Co215 O223 2.135 . S
O216 Co215 2.061 . S
O216 C219 1.235 . S
C217 O220 1.238 . S
C217 O221 1.241 . S
C218 O211 1.247 . S
C218 O212 1.261 . S
C219 O214 1.259 . S
C219 O216 1.235 . S
O220 Co210 2.021 . S
O220 C217 1.238 . S
O221 Co215 2.052 . S
O221 C217 1.241 . S
O222 Co210 2.137 . S
O222 C213 1.247 . S
O223 Co210 2.244 . S
O223 C213 1.272 . S
O223 Co215 2.135 . S
C224 C225 1.170 . S
C224 C226 1.380 . S
C225 C224 1.170 . S
C226 C224 1.380 . S
C226 C227 1.170 . S
C227 C226 1.170 . S
C228 C229 1.170 . S
C228 C230 1.380 . S
C229 C228 1.170 . S
C230 C228 1.380 . S
C230 C231 1.170 . S
C231 C230 1.170 . S
C232 C233 1.170 . S
C232 C234 1.380 . S
C233 C232 1.170 . S
C234 C232 1.380 . S
C234 C235 1.170 . S
C235 C234 1.170 . S
C236 C237 1.170 . S
C236 C238 1.380 . S
C237 C236 1.170 . S
C238 C236 1.380 . S
C238 C239 1.170 . S
C239 C238 1.170 . S
C240 C241 1.170 . S
C240 C242 1.380 . S
C241 C240 1.170 . S
C242 C240 1.380 . S
C242 C243 1.170 . S
C243 C242 1.170 . S
C244 C245 1.170 . S
C244 C246 1.380 . S
C245 C244 1.170 . S
C246 C244 1.380 . S
C246 C247 1.170 . S
C247 C246 1.170 . S
C248 C249 1.170 . S
C248 C250 1.380 . S
C249 C248 1.170 . S
C250 C248 1.380 . S
C250 C251 1.170 . S
C251 C250 1.170 . S
C252 C253 1.170 . S
C252 C254 1.380 . S
C253 C252 1.170 . S
C254 C252 1.380 . S
C254 C255 1.170 . S
C255 C254 1.170 . S
C256 C257 1.170 . S
C256 C258 1.380 1_556 S
C257 C256 1.170 . S
C258 C256 1.380 1_554 S
C258 C259 1.170 . S
C259 C258 1.170 . S
C260 C261 1.170 . S
C260 C262 1.380 1_556 S
C261 C260 1.170 . S
C262 C260 1.380 1_554 S
C262 C263 1.170 . S
C263 C262 1.170 . S
C264 C265 1.170 . S
C264 C266 1.380 1_556 S
C265 C264 1.170 . S
C266 C264 1.380 1_554 S
C266 C267 1.170 . S
C267 C266 1.170 . S
C268 C269 1.170 . S
C268 C270 1.380 1_554 S
C269 C268 1.170 . S
C270 C268 1.380 1_556 S
C270 C271 1.170 . S
C271 C270 1.170 . S
C272 C273 1.170 . S
C272 C274 1.380 . S
C273 C272 1.170 . S
C274 C272 1.380 . S
C274 C275 1.170 . S
C275 C274 1.170 . S
C276 C277 1.170 . S
C276 C278 1.380 . S
C277 C276 1.170 . S
C278 C276 1.380 . S
C278 C279 1.170 . S
C279 C278 1.170 . S
C280 C281 1.170 . S
C280 C282 1.380 . S
C281 C280 1.170 . S
C282 C280 1.380 . S
C282 C283 1.170 . S
C283 C282 1.170 . S
C284 C285 1.170 . S
C284 C286 1.380 . S
C285 C284 1.170 . S
C286 C284 1.380 . S
C286 C287 1.170 . S
C287 C286 1.170 . S
C288 C289 1.170 . S
C288 C290 1.380 . S
C289 C288 1.170 . S
C290 C288 1.380 . S
C290 C291 1.170 . S
C291 C290 1.170 . S
C292 C293 1.170 . S
C292 C294 1.380 . S
C293 C292 1.170 . S
C294 C292 1.380 . S
C294 C295 1.170 . S
C295 C294 1.170 . S
C296 C297 1.170 . S
C296 C298 1.380 . S
C297 C296 1.170 . S
C298 C296 1.380 . S
C298 C299 1.170 . S
C299 C298 1.170 . S
C300 C301 1.170 . S
C300 C302 1.380 . S
C301 C300 1.170 . S
C302 C300 1.380 . S
C302 C303 1.170 . S
C303 C302 1.170 . S
C304 C305 1.170 . S
C304 C306 1.380 . S
C305 C304 1.170 . S
C306 C304 1.380 . S
C306 C307 1.170 . S
C307 C306 1.170 . S
C308 C309 1.170 . S
C308 C310 1.380 . S
C309 C308 1.170 . S
C310 C308 1.380 . S
C310 C311 1.170 . S
C311 C310 1.170 . S
C312 C313 1.170 . S
C312 C314 1.380 . S
C313 C312 1.170 . S
C314 C312 1.380 . S
C314 C315 1.170 . S
C315 C314 1.170 . S
C316 C317 1.170 . S
C316 C318 1.380 . S
C317 C316 1.170 . S
C318 C316 1.380 . S
C318 C319 1.170 . S
C319 C318 1.170 . S
C320 C321 1.170 . S
C320 C322 1.380 1_545 S
C321 C320 1.170 . S
C322 C320 1.380 1_565 S
C322 C323 1.170 . S
C323 C322 1.170 . S
C324 C325 1.170 . S
C324 C326 1.380 1_655 S
C325 C324 1.170 . S
C326 C324 1.380 1_455 S
C326 C327 1.170 . S
C327 C326 1.170 . S
C328 C329 1.170 . S
C328 C330 1.380 1_545 S
C329 C328 1.170 . S
C330 C328 1.380 1_565 S
C330 C331 1.170 . S
C331 C330 1.170 . S
C332 C333 1.170 . S
C332 C334 1.380 1_455 S
C333 C332 1.170 . S
C334 C332 1.380 1_655 S
C334 C335 1.170 . S
C335 C334 1.170 . S
C336 C337 1.170 . S
C336 C338 1.380 1_545 S
C337 C336 1.170 . S
C338 C336 1.380 1_565 S
C338 C339 1.170 . S
C339 C338 1.170 . S
C340 C341 1.170 . S
C340 C342 1.380 1_655 S
C341 C340 1.170 . S
C342 C340 1.380 1_455 S
C342 C343 1.170 . S
C343 C342 1.170 . S
C344 C345 1.170 . S
C344 C346 1.380 1_565 S
C345 C344 1.170 . S
C346 C344 1.380 1_545 S
C346 C347 1.170 . S
C347 C346 1.170 . S
C348 C349 1.170 . S
C348 C350 1.380 1_455 S
C349 C348 1.170 . S
C350 C348 1.380 1_655 S
C350 C351 1.170 . S
C351 C350 1.170 . S
C225 C78 1.449 . S
C227 C8 1.460 . S
C229 C92 1.462 . S
C231 C22 1.451 . S
C233 C36 1.444 . S
C235 C106 1.454 . S
C237 C50 1.445 . S
C239 C64 1.444 . S
C241 C190 1.457 . S
C243 C120 1.463 . S
C245 C204 1.461 . S
C247 C134 1.449 . S
C249 C148 1.460 . S
C251 C218 1.462 . S
C253 C162 1.444 . S
C255 C176 1.445 . S
C257 C147 1.483 . S
C259 C7 1.503 . S
C261 C161 1.468 . S
C263 C21 1.479 . S
C265 C119 1.498 . S
C267 C35 1.476 . S
C269 C49 1.484 . S
C271 C133 1.503 . S
C273 C203 1.496 . S
C275 C63 1.474 . S
C277 C217 1.468 . S
C279 C77 1.475 . S
C281 C91 1.469 . S
C283 C175 1.488 . S
C285 C189 1.470 . S
C287 C105 1.473 . S
C289 C65 1.795 . S
C291 C9 1.797 . S
C293 C23 1.788 . S
C295 C79 1.787 . S
C297 C37 1.787 . S
C299 C93 1.786 . S
C301 C107 1.803 . S
C303 C51 1.804 . S
C305 C115 1.115 . S
C307 C171 1.111 . S
C309 C185 1.116 . S
C311 C129 1.113 . S
C313 C143 1.116 . S
C315 C199 1.111 . S
C317 C213 1.105 . S
C319 C157 1.112 . S
C321 C163 1.787 . S
C323 C191 1.786 . S
C325 C121 1.793 . S
C327 C205 1.791 . S
C329 C219 1.788 . S
C331 C135 1.790 . S
C333 C149 1.804 . S
C335 C177 1.803 . S
C337 C73 1.099 . S
C339 C45 1.106 . S
C341 C87 1.105 . S
C343 C3 1.112 . S
C345 C101 1.116 . S
C347 C17 1.113 . S
C349 C59 1.115 . S
C351 C31 1.116 . S
