# Generated by pormake.
# Topology ukc, (4)-cn, num edge types: 1
# Building blocks:
#     Node 0, Type 0, BuildingBlock: QUQFOY_clean_sbu_3, # of connection points: 4
#     Node 1, Type 0, BuildingBlock: QUQFOY_clean_sbu_3, # of connection points: 4
#     Node 2, Type 0, BuildingBlock: QUQFOY_clean_sbu_3, # of connection points: 4
#     Node 3, Type 0, BuildingBlock: QUQFOY_clean_sbu_3, # of connection points: 4
#     Node 4, Type 0, BuildingBlock: QUQFOY_clean_sbu_3, # of connection points: 4
#     Node 5, Type 0, BuildingBlock: QUQFOY_clean_sbu_3, # of connection points: 4
#     Node 6, Type 0, BuildingBlock: QUQFOY_clean_sbu_3, # of connection points: 4
#     Node 7, Type 0, BuildingBlock: QUQFOY_clean_sbu_3, # of connection points: 4
#     Node 8, Type 0, BuildingBlock: QUQFOY_clean_sbu_3, # of connection points: 4
#     Node 9, Type 0, BuildingBlock: QUQFOY_clean_sbu_3, # of connection points: 4
#     Node 10, Type 0, BuildingBlock: QUQFOY_clean_sbu_3, # of connection points: 4
#     Node 11, Type 0, BuildingBlock: QUQFOY_clean_sbu_3, # of connection points: 4
#     Node 12, Type 0, BuildingBlock: QUQFOY_clean_sbu_3, # of connection points: 4
#     Node 13, Type 0, BuildingBlock: QUQFOY_clean_sbu_3, # of connection points: 4
#     Node 14, Type 0, BuildingBlock: QUQFOY_clean_sbu_3, # of connection points: 4
#     Node 15, Type 0, BuildingBlock: QUQFOY_clean_sbu_3, # of connection points: 4
#     Node 16, Type 0, BuildingBlock: QUQFOY_clean_sbu_3, # of connection points: 4
#     Node 17, Type 0, BuildingBlock: QUQFOY_clean_sbu_3, # of connection points: 4
#     Node 18, Type 0, BuildingBlock: QUQFOY_clean_sbu_3, # of connection points: 4
#     Node 19, Type 0, BuildingBlock: QUQFOY_clean_sbu_3, # of connection points: 4
#     Node 20, Type 0, BuildingBlock: QUQFOY_clean_sbu_3, # of connection points: 4
#     Node 21, Type 0, BuildingBlock: QUQFOY_clean_sbu_3, # of connection points: 4
#     Node 22, Type 0, BuildingBlock: QUQFOY_clean_sbu_3, # of connection points: 4
#     Node 23, Type 0, BuildingBlock: QUQFOY_clean_sbu_3, # of connection points: 4
#     Node 24, Type 0, BuildingBlock: QUQFOY_clean_sbu_3, # of connection points: 4
#     Node 25, Type 0, BuildingBlock: QUQFOY_clean_sbu_3, # of connection points: 4
#     Node 26, Type 0, BuildingBlock: QUQFOY_clean_sbu_3, # of connection points: 4
#     Node 27, Type 0, BuildingBlock: QUQFOY_clean_sbu_3, # of connection points: 4
#     Node 28, Type 0, BuildingBlock: QUQFOY_clean_sbu_3, # of connection points: 4
#     Node 29, Type 0, BuildingBlock: QUQFOY_clean_sbu_3, # of connection points: 4
#     Node 30, Type 0, BuildingBlock: QUQFOY_clean_sbu_3, # of connection points: 4
#     Node 31, Type 0, BuildingBlock: QUQFOY_clean_sbu_3, # of connection points: 4
#     Edge 32, Type (0, 0), BuildingBlock: ZUJKAS_clean_linker_0, # of connection points: 2
#     Edge 33, Type (0, 0), BuildingBlock: ZUJKAS_clean_linker_0, # of connection points: 2
#     Edge 34, Type (0, 0), BuildingBlock: ZUJKAS_clean_linker_0, # of connection points: 2
#     Edge 35, Type (0, 0), BuildingBlock: ZUJKAS_clean_linker_0, # of connection points: 2
#     Edge 36, Type (0, 0), BuildingBlock: ZUJKAS_clean_linker_0, # of connection points: 2
#     Edge 37, Type (0, 0), BuildingBlock: ZUJKAS_clean_linker_0, # of connection points: 2
#     Edge 38, Type (0, 0), BuildingBlock: ZUJKAS_clean_linker_0, # of connection points: 2
#     Edge 39, Type (0, 0), BuildingBlock: ZUJKAS_clean_linker_0, # of connection points: 2
#     Edge 40, Type (0, 0), BuildingBlock: ZUJKAS_clean_linker_0, # of connection points: 2
#     Edge 41, Type (0, 0), BuildingBlock: ZUJKAS_clean_linker_0, # of connection points: 2
#     Edge 42, Type (0, 0), BuildingBlock: ZUJKAS_clean_linker_0, # of connection points: 2
#     Edge 43, Type (0, 0), BuildingBlock: ZUJKAS_clean_linker_0, # of connection points: 2
#     Edge 44, Type (0, 0), BuildingBlock: ZUJKAS_clean_linker_0, # of connection points: 2
#     Edge 45, Type (0, 0), BuildingBlock: ZUJKAS_clean_linker_0, # of connection points: 2
#     Edge 46, Type (0, 0), BuildingBlock: ZUJKAS_clean_linker_0, # of connection points: 2
#     Edge 47, Type (0, 0), BuildingBlock: ZUJKAS_clean_linker_0, # of connection points: 2
#     Edge 48, Type (0, 0), BuildingBlock: ZUJKAS_clean_linker_0, # of connection points: 2
#     Edge 49, Type (0, 0), BuildingBlock: ZUJKAS_clean_linker_0, # of connection points: 2
#     Edge 50, Type (0, 0), BuildingBlock: ZUJKAS_clean_linker_0, # of connection points: 2
#     Edge 51, Type (0, 0), BuildingBlock: ZUJKAS_clean_linker_0, # of connection points: 2
#     Edge 52, Type (0, 0), BuildingBlock: ZUJKAS_clean_linker_0, # of connection points: 2
#     Edge 53, Type (0, 0), BuildingBlock: ZUJKAS_clean_linker_0, # of connection points: 2
#     Edge 54, Type (0, 0), BuildingBlock: ZUJKAS_clean_linker_0, # of connection points: 2
#     Edge 55, Type (0, 0), BuildingBlock: ZUJKAS_clean_linker_0, # of connection points: 2
#     Edge 56, Type (0, 0), BuildingBlock: ZUJKAS_clean_linker_0, # of connection points: 2
#     Edge 57, Type (0, 0), BuildingBlock: ZUJKAS_clean_linker_0, # of connection points: 2
#     Edge 58, Type (0, 0), BuildingBlock: ZUJKAS_clean_linker_0, # of connection points: 2
#     Edge 59, Type (0, 0), BuildingBlock: ZUJKAS_clean_linker_0, # of connection points: 2
#     Edge 60, Type (0, 0), BuildingBlock: ZUJKAS_clean_linker_0, # of connection points: 2
#     Edge 61, Type (0, 0), BuildingBlock: ZUJKAS_clean_linker_0, # of connection points: 2
#     Edge 62, Type (0, 0), BuildingBlock: ZUJKAS_clean_linker_0, # of connection points: 2
#     Edge 63, Type (0, 0), BuildingBlock: ZUJKAS_clean_linker_0, # of connection points: 2
#     Edge 64, Type (0, 0), BuildingBlock: ZUJKAS_clean_linker_0, # of connection points: 2
#     Edge 65, Type (0, 0), BuildingBlock: ZUJKAS_clean_linker_0, # of connection points: 2
#     Edge 66, Type (0, 0), BuildingBlock: ZUJKAS_clean_linker_0, # of connection points: 2
#     Edge 67, Type (0, 0), BuildingBlock: ZUJKAS_clean_linker_0, # of connection points: 2
#     Edge 68, Type (0, 0), BuildingBlock: ZUJKAS_clean_linker_0, # of connection points: 2
#     Edge 69, Type (0, 0), BuildingBlock: ZUJKAS_clean_linker_0, # of connection points: 2
#     Edge 70, Type (0, 0), BuildingBlock: ZUJKAS_clean_linker_0, # of connection points: 2
#     Edge 71, Type (0, 0), BuildingBlock: ZUJKAS_clean_linker_0, # of connection points: 2
#     Edge 72, Type (0, 0), BuildingBlock: ZUJKAS_clean_linker_0, # of connection points: 2
#     Edge 73, Type (0, 0), BuildingBlock: ZUJKAS_clean_linker_0, # of connection points: 2
#     Edge 74, Type (0, 0), BuildingBlock: ZUJKAS_clean_linker_0, # of connection points: 2
#     Edge 75, Type (0, 0), BuildingBlock: ZUJKAS_clean_linker_0, # of connection points: 2
#     Edge 76, Type (0, 0), BuildingBlock: ZUJKAS_clean_linker_0, # of connection points: 2
#     Edge 77, Type (0, 0), BuildingBlock: ZUJKAS_clean_linker_0, # of connection points: 2
#     Edge 78, Type (0, 0), BuildingBlock: ZUJKAS_clean_linker_0, # of connection points: 2
#     Edge 79, Type (0, 0), BuildingBlock: ZUJKAS_clean_linker_0, # of connection points: 2
#     Edge 80, Type (0, 0), BuildingBlock: ZUJKAS_clean_linker_0, # of connection points: 2
#     Edge 81, Type (0, 0), BuildingBlock: ZUJKAS_clean_linker_0, # of connection points: 2
#     Edge 82, Type (0, 0), BuildingBlock: ZUJKAS_clean_linker_0, # of connection points: 2
#     Edge 83, Type (0, 0), BuildingBlock: ZUJKAS_clean_linker_0, # of connection points: 2
#     Edge 84, Type (0, 0), BuildingBlock: ZUJKAS_clean_linker_0, # of connection points: 2
#     Edge 85, Type (0, 0), BuildingBlock: ZUJKAS_clean_linker_0, # of connection points: 2
#     Edge 86, Type (0, 0), BuildingBlock: ZUJKAS_clean_linker_0, # of connection points: 2
#     Edge 87, Type (0, 0), BuildingBlock: ZUJKAS_clean_linker_0, # of connection points: 2
#     Edge 88, Type (0, 0), BuildingBlock: ZUJKAS_clean_linker_0, # of connection points: 2
#     Edge 89, Type (0, 0), BuildingBlock: ZUJKAS_clean_linker_0, # of connection points: 2
#     Edge 90, Type (0, 0), BuildingBlock: ZUJKAS_clean_linker_0, # of connection points: 2
#     Edge 91, Type (0, 0), BuildingBlock: ZUJKAS_clean_linker_0, # of connection points: 2
#     Edge 92, Type (0, 0), BuildingBlock: ZUJKAS_clean_linker_0, # of connection points: 2
#     Edge 93, Type (0, 0), BuildingBlock: ZUJKAS_clean_linker_0, # of connection points: 2
#     Edge 94, Type (0, 0), BuildingBlock: ZUJKAS_clean_linker_0, # of connection points: 2
#     Edge 95, Type (0, 0), BuildingBlock: ZUJKAS_clean_linker_0, # of connection points: 2
# Relax obj value: 0.042
# Max RMSD: 0.062
# Mean RMSD: 0.062
data_MOF--net-ukc--node1-QUQFOY_clean_sbu_3--edge1-ZUJKAS_clean_linker_0
_symmetry_space_group_name_H-M    P1
_symmetry_Int_Tables_number       1
_symmetry_cell_setting            triclinic
loop_
_symmetry_equiv_pos_as_xyz
'x, y, z'
_cell_length_a     59.329281
_cell_length_b     59.396204
_cell_length_c     115.90682
_cell_angle_alpha  90.007781
_cell_angle_beta   89.999224
_cell_angle_gamma 90.031387
loop_
_atom_site_label
_atom_site_type_symbol
_atom_site_fract_x
_atom_site_fract_y
_atom_site_fract_z
_atom_type_partial_charge
C0 C 0.09169 0.39504 0.05896 0.0
O1 O 0.07162 0.40177 0.05735 0.0
Cd2 Cd 0.05366 0.40392 0.03897 0.0
O3 O 0.10372 0.388 0.0506 0.0
Cd4 Cd 0.09955 0.38186 0.02958 0.0
C5 C 0.05411 0.34758 0.03291 0.0
O6 O 0.08221 0.41798 0.02634 0.0
O7 O 0.08264 0.39615 0.01155 0.0
O8 O 0.13991 0.38915 0.02859 0.0
C9 C 0.07795 0.41528 0.01575 0.0
O10 O 0.04253 0.36522 0.03485 0.0
C11 C 0.14408 0.37339 0.02151 0.0
O12 O 0.07536 0.34879 0.03148 0.0
O13 O 0.12756 0.36126 0.01836 0.0
C14 C 0.84072 0.84125 0.30932 0.0
O15 O 0.83212 0.82173 0.30848 0.0
Cd16 Cd 0.83185 0.80015 0.29113 0.0
O17 O 0.84928 0.85095 0.30054 0.0
Cd18 Cd 0.85455 0.84428 0.27961 0.0
C19 C 0.88874 0.79981 0.28523 0.0
O20 O 0.81875 0.82609 0.27691 0.0
O21 O 0.84092 0.82434 0.26225 0.0
O22 O 0.84533 0.8836 0.27624 0.0
C23 C 0.82177 0.82 0.26658 0.0
O24 O 0.8712 0.7889 0.28825 0.0
C25 C 0.86275 0.88787 0.27027 0.0
O26 O 0.88739 0.82036 0.2822 0.0
O27 O 0.87656 0.87182 0.26871 0.0
C28 C 0.39995 0.58433 0.55903 0.0
O29 O 0.4191 0.57579 0.55684 0.0
Cd30 Cd 0.43682 0.57631 0.53834 0.0
O31 O 0.38842 0.59377 0.5511 0.0
Cd32 Cd 0.39124 0.60115 0.53008 0.0
C33 C 0.43812 0.63335 0.53354 0.0
O34 O 0.40741 0.56515 0.52553 0.0
O35 O 0.40755 0.58874 0.51148 0.0
O36 O 0.35099 0.59394 0.52812 0.0
C37 C 0.41174 0.56901 0.51504 0.0
O38 O 0.44916 0.61525 0.53521 0.0
C39 C 0.34675 0.61202 0.52269 0.0
O40 O 0.41684 0.63289 0.53216 0.0
O41 O 0.36319 0.62526 0.5209 0.0
C42 C 0.65182 0.14525 0.80941 0.0
O43 O 0.66082 0.16449 0.80812 0.0
Cd44 Cd 0.65811 0.18608 0.79095 0.0
O45 O 0.64153 0.13567 0.80107 0.0
Cd46 Cd 0.63398 0.14218 0.78017 0.0
C47 C 0.60043 0.18623 0.78699 0.0
O48 O 0.66976 0.1599 0.77651 0.0
O49 O 0.64623 0.16184 0.76245 0.0
O50 O 0.64179 0.10225 0.77769 0.0
C51 C 0.66585 0.16587 0.76624 0.0
O52 O 0.61823 0.19684 0.78986 0.0
C53 C 0.62541 0.09857 0.7709 0.0
O54 O 0.60134 0.16599 0.78342 0.0
O55 O 0.61267 0.11514 0.76859 0.0
C56 C 0.09354 0.59329 0.42334 0.0
O57 O 0.07357 0.58558 0.42361 0.0
Cd58 Cd 0.05076 0.58335 0.44054 0.0
O59 O 0.10297 0.60059 0.43249 0.0
Cd60 Cd 0.09399 0.60457 0.45326 0.0
C61 C 0.04952 0.63917 0.448 0.0
O62 O 0.0759 0.56835 0.45465 0.0
O63 O 0.07286 0.58897 0.46981 0.0
O64 O 0.13331 0.59617 0.45753 0.0
C65 C 0.06913 0.57024 0.46494 0.0
O66 O 0.03853 0.62189 0.44471 0.0
C67 C 0.13628 0.61305 0.46409 0.0
O68 O 0.07017 0.63759 0.45085 0.0
O69 O 0.11958 0.62611 0.46552 0.0
C70 C 0.64472 0.83749 0.67343 0.0
O71 O 0.65196 0.81743 0.67421 0.0
Cd72 Cd 0.65575 0.79668 0.69161 0.0
O73 O 0.63841 0.84841 0.68234 0.0
Cd74 Cd 0.63509 0.84215 0.70351 0.0
C75 C 0.59988 0.79753 0.69941 0.0
O76 O 0.67115 0.82395 0.70454 0.0
O77 O 0.65262 0.82387 0.72045 0.0
O78 O 0.64207 0.88249 0.7052 0.0
C79 C 0.67051 0.81875 0.7151 0.0
O80 O 0.61677 0.78636 0.6958 0.0
C81 C 0.62725 0.88576 0.71292 0.0
O82 O 0.60184 0.81807 0.70238 0.0
O83 O 0.61596 0.86876 0.71619 0.0
C84 C 0.39556 0.3975 0.92134 0.0
O85 O 0.41519 0.40603 0.92103 0.0
Cd86 Cd 0.44003 0.40767 0.93715 0.0
O87 O 0.38752 0.38973 0.93074 0.0
Cd88 Cd 0.398 0.38624 0.95139 0.0
C89 C 0.44126 0.35146 0.94444 0.0
O90 O 0.41665 0.42227 0.95217 0.0
O91 O 0.41992 0.40211 0.96748 0.0
O92 O 0.35841 0.39392 0.9551 0.0
C93 C 0.42411 0.42046 0.96234 0.0
O94 O 0.45138 0.36846 0.94019 0.0
C95 C 0.35605 0.37863 0.96266 0.0
O96 O 0.42158 0.35325 0.9487 0.0
O97 O 0.37327 0.36676 0.96496 0.0
C98 C 0.84569 0.14365 0.17236 0.0
O99 O 0.83705 0.16321 0.17253 0.0
Cd100 Cd 0.83377 0.18601 0.18944 0.0
O101 O 0.85293 0.13457 0.1816 0.0
Cd102 Cd 0.85519 0.14336 0.20243 0.0
C103 C 0.88933 0.18822 0.19758 0.0
O104 O 0.81868 0.16112 0.20364 0.0
O105 O 0.83928 0.16451 0.21881 0.0
O106 O 0.84608 0.10427 0.20649 0.0
C107 C 0.82052 0.16806 0.2139 0.0
O108 O 0.872 0.19879 0.19401 0.0
C109 C 0.86281 0.10083 0.21309 0.0
O110 O 0.88802 0.1676 0.20049 0.0
O111 O 0.8762 0.11724 0.21467 0.0
C112 C 0.89645 0.58998 0.92401 0.0
O113 O 0.91583 0.58099 0.9246 0.0
Cd114 Cd 0.93887 0.57977 0.94134 0.0
O115 O 0.88721 0.59858 0.93292 0.0
Cd116 Cd 0.89552 0.60233 0.95391 0.0
C117 C 0.94013 0.63621 0.94811 0.0
O118 O 0.9133 0.56605 0.95555 0.0
O119 O 0.91594 0.58678 0.97068 0.0
O120 O 0.85561 0.59543 0.95746 0.0
C121 C 0.91995 0.56807 0.96585 0.0
O122 O 0.95057 0.61897 0.94435 0.0
C123 C 0.85339 0.61134 0.9647 0.0
O124 O 0.91992 0.63477 0.9517 0.0
O125 O 0.8707 0.62326 0.96674 0.0
C126 C 0.14787 0.14045 0.6717 0.0
O127 O 0.15603 0.1602 0.67116 0.0
Cd128 Cd 0.1573 0.18603 0.68686 0.0
O129 O 0.14001 0.1328 0.68116 0.0
Cd130 Cd 0.13581 0.14481 0.70155 0.0
C131 C 0.10114 0.18796 0.69404 0.0
O132 O 0.17172 0.16364 0.70232 0.0
O133 O 0.15104 0.1679 0.7174 0.0
O134 O 0.14449 0.10633 0.70716 0.0
C135 C 0.16959 0.17171 0.71235 0.0
O136 O 0.11814 0.19791 0.68969 0.0
C137 C 0.12735 0.10391 0.71361 0.0
O138 O 0.10296 0.16847 0.69849 0.0
O139 O 0.11409 0.1206 0.71444 0.0
C140 C 0.60056 0.40042 0.42389 0.0
O141 O 0.58105 0.40921 0.42409 0.0
Cd142 Cd 0.55734 0.41121 0.44073 0.0
O143 O 0.60921 0.3921 0.43301 0.0
Cd144 Cd 0.59957 0.38734 0.45365 0.0
C145 C 0.55428 0.35475 0.44696 0.0
O146 O 0.58207 0.42365 0.45562 0.0
O147 O 0.57793 0.40183 0.47026 0.0
O148 O 0.63885 0.39455 0.45845 0.0
C149 C 0.5745 0.42094 0.46572 0.0
O150 O 0.54404 0.37261 0.44387 0.0
C151 C 0.64125 0.37707 0.46463 0.0
O152 O 0.57478 0.35542 0.45019 0.0
O153 O 0.62422 0.36425 0.46564 0.0
C154 C 0.33862 0.84285 0.17456 0.0
O155 O 0.32923 0.82396 0.17636 0.0
Cd156 Cd 0.32821 0.80504 0.1945 0.0
O157 O 0.34825 0.85355 0.18273 0.0
Cd158 Cd 0.35459 0.84925 0.20376 0.0
C159 C 0.38507 0.80148 0.19977 0.0
O160 O 0.31773 0.83442 0.20742 0.0
O161 O 0.34012 0.83264 0.22194 0.0
O162 O 0.34944 0.88964 0.20602 0.0
C163 C 0.32053 0.8294 0.21791 0.0
O164 O 0.36665 0.79116 0.19775 0.0
C165 C 0.36733 0.89267 0.21184 0.0
O166 O 0.38528 0.82262 0.20153 0.0
O167 O 0.37948 0.87548 0.21374 0.0
C168 C 0.9014 0.40156 0.56065 0.0
O169 O 0.92074 0.40992 0.55869 0.0
Cd170 Cd 0.94001 0.40766 0.5407 0.0
O171 O 0.89045 0.39148 0.55271 0.0
Cd172 Cd 0.89454 0.38265 0.53186 0.0
C173 C 0.94042 0.3501 0.53714 0.0
O174 O 0.91144 0.41814 0.52731 0.0
O175 O 0.91224 0.39433 0.51338 0.0
O176 O 0.85449 0.39019 0.52947 0.0
C177 C 0.91646 0.41407 0.51694 0.0
O178 O 0.95157 0.36816 0.53878 0.0
C179 C 0.85027 0.37216 0.52399 0.0
O180 O 0.91934 0.35074 0.53511 0.0
O181 O 0.86665 0.35878 0.52234 0.0
C182 C 0.33701 0.14365 0.31042 0.0
O183 O 0.32845 0.16319 0.30969 0.0
Cd184 Cd 0.32782 0.18566 0.29257 0.0
O185 O 0.34599 0.1343 0.30165 0.0
Cd186 Cd 0.35265 0.14243 0.28101 0.0
C187 C 0.38472 0.18824 0.28747 0.0
O188 O 0.31658 0.15976 0.27794 0.0
O189 O 0.33943 0.16248 0.26362 0.0
O190 O 0.34625 0.10284 0.27669 0.0
C191 C 0.32003 0.1664 0.26773 0.0
O192 O 0.3667 0.19882 0.28999 0.0
C193 C 0.36441 0.10028 0.27103 0.0
O194 O 0.38414 0.16755 0.28465 0.0
O195 O 0.37717 0.11735 0.2701 0.0
C196 C 0.58801 0.58879 0.05892 0.0
O197 O 0.56909 0.57984 0.05661 0.0
Cd198 Cd 0.55222 0.5805 0.03792 0.0
O199 O 0.59949 0.5985 0.05106 0.0
Cd200 Cd 0.59734 0.60586 0.03005 0.0
C201 C 0.5505 0.63766 0.03339 0.0
O202 O 0.58207 0.56935 0.02533 0.0
O203 O 0.58226 0.59306 0.01133 0.0
O204 O 0.63798 0.60024 0.03004 0.0
C205 C 0.57832 0.57321 0.01478 0.0
O206 O 0.53965 0.61937 0.03487 0.0
C207 C 0.64221 0.61658 0.02332 0.0
O208 O 0.57181 0.63753 0.03215 0.0
O209 O 0.62556 0.62827 0.01993 0.0
C210 C 0.15558 0.84156 0.80777 0.0
O211 O 0.16394 0.82228 0.80572 0.0
Cd212 Cd 0.16123 0.80318 0.78766 0.0
O213 O 0.14542 0.85258 0.79989 0.0
Cd214 Cd 0.13616 0.84931 0.77908 0.0
C215 C 0.10346 0.8034 0.78426 0.0
O216 O 0.17104 0.83167 0.7741 0.0
O217 O 0.14683 0.8323 0.76033 0.0
O218 O 0.14424 0.88923 0.77681 0.0
C219 C 0.16642 0.82699 0.76374 0.0
O220 O 0.12146 0.79221 0.78604 0.0
C221 C 0.12577 0.89389 0.77181 0.0
O222 O 0.10423 0.8244 0.78209 0.0
O223 O 0.11198 0.87779 0.77032 0.0
C224 C 0.58508 0.89534 0.55959 0.0
O225 O 0.56465 0.90135 0.55851 0.0
Cd226 Cd 0.5451 0.90509 0.54067 0.0
O227 O 0.59684 0.88972 0.55084 0.0
Cd228 Cd 0.59084 0.88559 0.52974 0.0
C229 C 0.54655 0.84963 0.533 0.0
O230 O 0.57256 0.92162 0.52822 0.0
O231 O 0.57193 0.90204 0.51265 0.0
O232 O 0.63105 0.89349 0.52769 0.0
C233 C 0.5674 0.92044 0.51767 0.0
O234 O 0.53454 0.86664 0.53561 0.0
C235 C 0.6345 0.87835 0.52015 0.0
O236 O 0.56763 0.85172 0.53124 0.0
O237 O 0.61771 0.86637 0.51725 0.0
C238 C 0.33446 0.34083 0.80884 0.0
O239 O 0.32568 0.32165 0.80704 0.0
Cd240 Cd 0.32939 0.30136 0.78944 0.0
O241 O 0.34533 0.35099 0.8009 0.0
Cd242 Cd 0.35512 0.34613 0.78018 0.0
C243 C 0.38723 0.30053 0.78658 0.0
O244 O 0.31985 0.32893 0.77527 0.0
O245 O 0.34439 0.3286 0.76162 0.0
O246 O 0.34735 0.38595 0.77746 0.0
C247 C 0.32456 0.32402 0.76494 0.0
O248 O 0.36912 0.28992 0.78889 0.0
C249 C 0.36578 0.39033 0.77236 0.0
O250 O 0.38681 0.32109 0.7835 0.0
O251 O 0.3795 0.37412 0.77105 0.0
C252 C 0.89881 0.08609 0.05768 0.0
O253 O 0.91735 0.07663 0.05514 0.0
Cd254 Cd 0.93431 0.07837 0.03645 0.0
O255 O 0.8876 0.09673 0.05005 0.0
Cd256 Cd 0.88957 0.10534 0.02918 0.0
C257 C 0.93727 0.1358 0.03294 0.0
O258 O 0.90457 0.0694 0.02338 0.0
O259 O 0.90494 0.09483 0.01017 0.0
O260 O 0.84933 0.09842 0.02774 0.0
C261 C 0.90863 0.07456 0.013 0.0
O262 O 0.94766 0.11718 0.03416 0.0
C263 C 0.84479 0.11674 0.0226 0.0
O264 O 0.91596 0.13624 0.03169 0.0
O265 O 0.8611 0.13014 0.02079 0.0
C266 C 0.15456 0.64826 0.30995 0.0
O267 O 0.16298 0.66777 0.30867 0.0
Cd268 Cd 0.16166 0.68927 0.29135 0.0
O269 O 0.14488 0.63822 0.30157 0.0
Cd270 Cd 0.13742 0.64483 0.28074 0.0
C271 C 0.10436 0.69006 0.2867 0.0
O272 O 0.1731 0.66247 0.27724 0.0
O273 O 0.15001 0.66453 0.26302 0.0
O274 O 0.14495 0.6052 0.27699 0.0
C275 C 0.16949 0.66863 0.26698 0.0
O276 O 0.12219 0.701 0.28919 0.0
C277 C 0.12696 0.60181 0.27131 0.0
O278 O 0.10533 0.66935 0.28394 0.0
O279 O 0.11369 0.61841 0.27015 0.0
C280 C 0.59516 0.08629 0.92272 0.0
O281 O 0.57549 0.07786 0.92292 0.0
Cd282 Cd 0.55117 0.07826 0.93929 0.0
O283 O 0.60364 0.0952 0.93174 0.0
Cd284 Cd 0.59357 0.10125 0.9523 0.0
C285 C 0.54959 0.13498 0.94499 0.0
O286 O 0.57471 0.06563 0.95473 0.0
O287 O 0.57162 0.08843 0.96906 0.0
O288 O 0.63226 0.09289 0.95779 0.0
C289 C 0.56742 0.06923 0.96481 0.0
O290 O 0.53928 0.11758 0.94133 0.0
C291 C 0.63519 0.11095 0.96348 0.0
O292 O 0.56952 0.13362 0.94898 0.0
O293 O 0.61876 0.12462 0.96385 0.0
C294 C 0.14799 0.34183 0.17429 0.0
O295 O 0.15508 0.32186 0.17575 0.0
Cd296 Cd 0.15873 0.30311 0.19387 0.0
O297 O 0.14117 0.35367 0.18278 0.0
Cd298 Cd 0.13592 0.34865 0.20382 0.0
C299 C 0.10276 0.3021 0.20065 0.0
O300 O 0.17221 0.33163 0.20662 0.0
O301 O 0.15097 0.33135 0.22163 0.0
O302 O 0.14308 0.38872 0.20649 0.0
C303 C 0.16995 0.32684 0.21717 0.0
O304 O 0.12051 0.29085 0.19846 0.0
C305 C 0.12552 0.39228 0.21249 0.0
O306 O 0.10366 0.32333 0.20213 0.0
O307 O 0.11266 0.37556 0.21431 0.0
C308 C 0.89836 0.8989 0.42406 0.0
O309 O 0.91756 0.90794 0.42547 0.0
Cd310 Cd 0.93685 0.91021 0.44342 0.0
O311 O 0.88756 0.89059 0.43258 0.0
Cd312 Cd 0.89208 0.887 0.45383 0.0
C313 C 0.93805 0.85382 0.45021 0.0
O314 O 0.90803 0.92394 0.45587 0.0
O315 O 0.90982 0.90378 0.4712 0.0
O316 O 0.85148 0.8929 0.45493 0.0
C317 C 0.91324 0.92265 0.4664 0.0
O318 O 0.949 0.87156 0.44759 0.0
C319 C 0.84811 0.87797 0.46258 0.0
O320 O 0.91699 0.85467 0.45225 0.0
O321 O 0.86517 0.86693 0.466 0.0
C322 C 0.34236 0.64174 0.67328 0.0
O323 O 0.33275 0.66085 0.67333 0.0
Cd324 Cd 0.32826 0.68409 0.68994 0.0
O325 O 0.34991 0.63314 0.68259 0.0
Cd326 Cd 0.35133 0.64203 0.70352 0.0
C327 C 0.38355 0.68843 0.69848 0.0
O328 O 0.31428 0.6585 0.70415 0.0
O329 O 0.33333 0.66148 0.71986 0.0
O330 O 0.34484 0.60237 0.70768 0.0
C331 C 0.31506 0.66509 0.71451 0.0
O332 O 0.36637 0.6979 0.69403 0.0
C333 C 0.36179 0.60024 0.71429 0.0
O334 O 0.38259 0.66831 0.70221 0.0
O335 O 0.37394 0.61759 0.71584 0.0
C336 C 0.39566 0.09279 0.42483 0.0
O337 O 0.4151 0.08434 0.42635 0.0
Cd338 Cd 0.43577 0.08555 0.44397 0.0
O339 O 0.38535 0.10265 0.43306 0.0
Cd340 Cd 0.39137 0.11079 0.45385 0.0
C341 C 0.43748 0.14283 0.44819 0.0
O342 O 0.40805 0.07485 0.45775 0.0
O343 O 0.41004 0.09814 0.47188 0.0
O344 O 0.35138 0.10399 0.45694 0.0
C345 C 0.41377 0.07849 0.46807 0.0
O346 O 0.44826 0.12467 0.44625 0.0
C347 C 0.34802 0.12177 0.46277 0.0
O348 O 0.41649 0.14244 0.45045 0.0
O349 O 0.36482 0.13471 0.46427 0.0
C350 C 0.64248 0.64253 0.17424 0.0
O351 O 0.65105 0.6621 0.17482 0.0
Cd352 Cd 0.6533 0.6839 0.19211 0.0
O353 O 0.63481 0.6329 0.18325 0.0
Cd354 Cd 0.63138 0.64059 0.20416 0.0
C355 C 0.59719 0.68526 0.19917 0.0
O356 O 0.66775 0.65837 0.20619 0.0
O357 O 0.64615 0.66117 0.22103 0.0
O358 O 0.64013 0.60128 0.20793 0.0
C359 C 0.66526 0.66483 0.2165 0.0
O360 O 0.61467 0.69618 0.19609 0.0
C361 C 0.62315 0.59775 0.21435 0.0
O362 O 0.5985 0.66454 0.20187 0.0
O363 O 0.60979 0.61417 0.21592 0.0
C364 C 0.09146 0.89689 0.92045 0.0
O365 O 0.07188 0.90549 0.92005 0.0
Cd366 Cd 0.04753 0.90909 0.93629 0.0
O367 O 0.09974 0.89008 0.92998 0.0
Cd368 Cd 0.08987 0.88878 0.95075 0.0
C369 C 0.04587 0.85385 0.94522 0.0
O370 O 0.07159 0.92502 0.95069 0.0
O371 O 0.06885 0.90661 0.9666 0.0
O372 O 0.12967 0.89622 0.95404 0.0
C373 C 0.06452 0.92437 0.96097 0.0
O374 O 0.03573 0.87042 0.94057 0.0
C375 C 0.13202 0.88133 0.96181 0.0
O376 O 0.06573 0.85594 0.94922 0.0
O377 O 0.11469 0.8699 0.96445 0.0
C378 C 0.84158 0.34851 0.67437 0.0
O379 O 0.83193 0.32941 0.67439 0.0
Cd380 Cd 0.83029 0.30499 0.69068 0.0
O381 O 0.85053 0.35635 0.68353 0.0
Cd382 Cd 0.85497 0.34627 0.70418 0.0
C383 C 0.88686 0.30087 0.69696 0.0
O384 O 0.81831 0.32935 0.70589 0.0
O385 O 0.83961 0.32529 0.72076 0.0
O386 O 0.84826 0.38556 0.70887 0.0
C387 C 0.82063 0.32194 0.71604 0.0
O388 O 0.8691 0.29154 0.69304 0.0
C389 C 0.86579 0.38787 0.71505 0.0
O390 O 0.88631 0.32069 0.70112 0.0
O391 O 0.8784 0.37072 0.71615 0.0
C392 C 0.39313 0.89538 0.05884 0.0
O393 O 0.41246 0.90432 0.05769 0.0
Cd394 Cd 0.43229 0.90607 0.03979 0.0
O395 O 0.38286 0.88706 0.05017 0.0
Cd396 Cd 0.38812 0.88255 0.02914 0.0
C397 C 0.43383 0.84952 0.03344 0.0
O398 O 0.4047 0.91921 0.02641 0.0
O399 O 0.40622 0.89748 0.0116 0.0
O400 O 0.34785 0.88952 0.02777 0.0
C401 C 0.41003 0.9167 0.01593 0.0
O402 O 0.44459 0.8674 0.03602 0.0
C403 C 0.34405 0.87399 0.0205 0.0
O404 O 0.41283 0.85017 0.03123 0.0
O405 O 0.36076 0.86209 0.0174 0.0
C406 C 0.84173 0.6485 0.8092 0.0
O407 O 0.83293 0.66775 0.80766 0.0
Cd408 Cd 0.8331 0.68721 0.78963 0.0
O409 O 0.85107 0.63802 0.80088 0.0
Cd410 Cd 0.85823 0.64253 0.77995 0.0
C411 C 0.89024 0.68911 0.78468 0.0
O412 O 0.82212 0.65902 0.77603 0.0
O413 O 0.84511 0.65949 0.76169 0.0
O414 O 0.85123 0.60244 0.7776 0.0
C415 C 0.82561 0.66382 0.76556 0.0
O416 O 0.87215 0.69972 0.78703 0.0
C417 C 0.86931 0.59848 0.77209 0.0
O418 O 0.88981 0.66817 0.78235 0.0
O419 O 0.8824 0.61505 0.77035 0.0
C420 C 0.09238 0.08134 0.55972 0.0
O421 O 0.07271 0.07359 0.55798 0.0
Cd422 Cd 0.05171 0.07746 0.54057 0.0
O423 O 0.10286 0.09204 0.55182 0.0
Cd424 Cd 0.09693 0.10313 0.53136 0.0
C425 C 0.05138 0.13522 0.53819 0.0
O426 O 0.07922 0.06834 0.52641 0.0
O427 O 0.0777 0.09316 0.51299 0.0
O428 O 0.13678 0.09643 0.52759 0.0
C429 C 0.07329 0.07328 0.51627 0.0
O430 O 0.04015 0.11713 0.53961 0.0
C431 C 0.14015 0.11521 0.52264 0.0
O432 O 0.07233 0.13459 0.53585 0.0
O433 O 0.12345 0.12849 0.52191 0.0
C434 C 0.65317 0.338 0.31056 0.0
O435 O 0.66077 0.31826 0.30899 0.0
Cd436 Cd 0.65755 0.2979 0.29132 0.0
O437 O 0.64341 0.34862 0.30241 0.0
Cd438 Cd 0.63419 0.34286 0.28175 0.0
C439 C 0.60008 0.29865 0.28784 0.0
O440 O 0.66922 0.3246 0.27715 0.0
O441 O 0.64452 0.32348 0.26359 0.0
O442 O 0.64306 0.38229 0.27833 0.0
C443 C 0.6644 0.31912 0.26691 0.0
O444 O 0.61781 0.28704 0.28956 0.0
C445 C 0.6249 0.38668 0.27299 0.0
O446 O 0.60138 0.31956 0.28555 0.0
O447 O 0.61083 0.3707 0.2719 0.0
H448 H 0.93342 0.5282 0.95655 0.0
H449 H 0.96089 0.50174 0.96443 0.0
H450 H 0.9682 0.54331 -0.00529 0.0
H451 H 0.94085 0.57009 0.98684 0.0
H452 H 0.00936 0.53089 0.98381 0.0
H453 H 0.95356 0.45712 0.99135 0.0
H454 H 0.95198 0.46903 0.97713 0.0
H455 H 0.94275 0.48526 0.98933 0.0
C456 C 0.94067 0.5316 0.96495 0.0
C457 C 0.93501 0.55122 0.97109 0.0
C458 C 0.95628 0.51642 0.96944 0.0
C459 C 0.96635 0.52052 0.98017 0.0
C460 C 0.96049 0.53988 0.98642 0.0
H461 H 0.06492 0.45674 0.02311 0.0
H462 H 0.03932 0.48278 0.01347 0.0
C463 C 0.94486 0.5551 0.98193 0.0
C464 C 0.98381 0.50516 0.98462 0.0
H465 H 0.99278 0.45131 -0.00631 0.0
C466 C 0.00577 0.5135 0.98601 0.0
C467 C 0.979 0.48248 0.98735 0.0
C468 C 0.95552 0.47292 0.98632 0.0
C469 C 0.02317 0.49966 0.99006 0.0
C470 C 0.0183 0.47707 -0.00706 0.0
C471 C -0.00359 0.46865 0.99141 0.0
C472 C 0.03532 0.46219 -0.0018 0.0
C473 C 0.04663 0.50926 0.99113 0.0
C474 C 0.04143 0.44197 -0.0072 0.0
C475 C 0.05602 0.42697 -0.00169 0.0
C476 C 0.06447 0.43194 0.00935 0.0
C477 C 0.05871 0.45247 0.01459 0.0
C478 C 0.04419 0.46744 0.00908 0.0
H479 H 0.04888 0.5244 0.98562 0.0
H480 H 0.04963 0.51432 0.00022 0.0
H481 H 0.05954 0.49657 0.98872 0.0
H482 H 0.03461 0.43764 0.98442 0.0
H483 H 0.06015 0.41125 -0.00593 0.0
H484 H 0.70647 0.67658 0.20811 0.0
H485 H 0.73376 0.70237 0.21676 0.0
H486 H 0.68988 0.71157 0.24605 0.0
H487 H 0.66253 0.68554 0.23753 0.0
H488 H 0.72537 0.74758 0.22235 0.0
H489 H 0.75145 0.69813 0.26077 0.0
H490 H 0.73701 0.68561 0.24865 0.0
H491 H 0.72153 0.70151 0.25919 0.0
C492 C 0.70272 0.68388 0.21646 0.0
C493 C 0.68236 0.67906 0.22215 0.0
C494 C 0.71831 0.69862 0.22136 0.0
C495 C 0.71388 0.70867 0.23206 0.0
C496 C 0.69374 0.70365 0.23787 0.0
H497 H 0.78044 0.80745 0.27442 0.0
H498 H 0.75407 0.78119 0.26544 0.0
C499 C 0.67812 0.68887 0.23297 0.0
C500 C 0.72982 0.72531 0.23684 0.0
H501 H 0.7638 0.73611 0.2599 0.0
C502 C 0.7339 0.74506 0.23053 0.0
C503 C 0.74082 0.72188 0.2475 0.0
C504 C 0.73769 0.70056 0.25439 0.0
C505 C 0.74841 0.76178 0.23474 0.0
C506 C 0.75931 0.75841 0.24543 0.0
C507 C 0.75533 0.7386 0.25171 0.0
C508 C 0.77476 0.77532 0.25038 0.0
C509 C 0.75154 0.78313 0.22786 0.0
C510 C 0.79504 0.78076 0.24481 0.0
C511 C 0.81015 0.79583 0.2499 0.0
C512 C 0.80523 0.8055 0.26068 0.0
C513 C 0.78471 0.80026 0.26612 0.0
C514 C 0.76965 0.78525 0.26102 0.0
H515 H 0.73806 0.78534 0.2213 0.0
H516 H 0.7517 0.79809 0.23361 0.0
H517 H 0.76796 0.78243 0.22328 0.0
H518 H 0.79941 0.77296 0.23666 0.0
H519 H 0.82588 0.79949 0.24554 0.0
H520 H 0.56248 0.46174 0.45698 0.0
H521 H 0.53398 0.48755 0.46446 0.0
H522 H 0.5224 0.44325 0.49334 0.0
H523 H 0.55081 0.41713 0.48586 0.0
H524 H 0.48282 0.45687 0.48114 0.0
H525 H 0.53746 0.52952 0.49275 0.0
H526 H 0.54112 0.51888 0.47836 0.0
H527 H 0.54848 0.50153 0.49048 0.0
C528 C 0.55407 0.4576 0.465 0.0
C529 C 0.55885 0.43741 0.47084 0.0
C530 C 0.53786 0.4724 0.46927 0.0
C531 C 0.52629 0.46734 0.47948 0.0
C532 C 0.53126 0.44741 0.48545 0.0
H533 H 0.42293 0.52618 0.52092 0.0
H534 H 0.4491 0.50117 0.511 0.0
C535 C 0.54751 0.43258 0.48119 0.0
C536 C 0.50822 0.48233 0.48364 0.0
H537 H 0.49806 0.53514 0.49391 0.0
C538 C 0.48611 0.47398 0.48395 0.0
C539 C 0.51264 0.50466 0.48717 0.0
C540 C 0.53622 0.5142 0.48728 0.0
C541 C 0.46819 0.48744 0.48775 0.0
C542 C 0.47267 0.50965 0.49148 0.0
C543 C 0.49473 0.51812 0.49098 0.0
C544 C 0.45506 0.52388 0.49672 0.0
C545 C 0.44464 0.47784 0.48769 0.0
C546 C 0.44978 0.54495 0.49196 0.0
C547 C 0.43485 0.55937 0.49765 0.0
C548 C 0.42524 0.55297 0.50823 0.0
C549 C 0.43006 0.53157 0.51277 0.0
C550 C 0.4449 0.51719 0.50708 0.0
H551 H 0.4431 0.46356 0.48155 0.0
H552 H 0.44052 0.47147 0.49644 0.0
H553 H 0.43205 0.4909 0.48536 0.0
H554 H 0.4576 0.55041 0.48399 0.0
H555 H 0.43147 0.57578 0.49396 0.0
H556 H 0.77973 0.31053 0.70712 0.0
H557 H 0.75254 0.28373 0.715 0.0
H558 H 0.79552 0.27297 0.74449 0.0
H559 H 0.82299 0.29967 0.73663 0.0
H560 H 0.78066 0.23301 0.73298 0.0
H561 H 0.7099 0.29125 0.7429 0.0
H562 H 0.72116 0.29334 0.72855 0.0
H563 H 0.73842 0.30098 0.74067 0.0
C564 C 0.7833 0.30265 0.71535 0.0
C565 C 0.80349 0.30717 0.72127 0.0
C566 C 0.76771 0.28743 0.71984 0.0
C567 C 0.77199 0.2766 0.73035 0.0
C568 C 0.79195 0.28129 0.73638 0.0
H569 H 0.70818 0.17759 0.77291 0.0
H570 H 0.73404 0.20326 0.76319 0.0
C571 C 0.80756 0.29655 0.73189 0.0
C572 C 0.75616 0.25952 0.73478 0.0
H573 H 0.7027 0.25227 0.74492 0.0
C574 C 0.76362 0.23718 0.73562 0.0
C575 C 0.73393 0.26509 0.73808 0.0
C576 C 0.72535 0.28899 0.73761 0.0
C577 C 0.74936 0.22015 0.73969 0.0
C578 C 0.72725 0.22578 0.74319 0.0
C579 C 0.71967 0.24806 0.74218 0.0
C580 C 0.71214 0.20909 0.74857 0.0
C581 C 0.75799 0.19628 0.74015 0.0
C582 C 0.69118 0.20407 0.74359 0.0
C583 C 0.67627 0.18944 0.74915 0.0
C584 C 0.68209 0.17985 0.75983 0.0
C585 C 0.70325 0.18467 0.76468 0.0
C586 C 0.71811 0.19923 0.75911 0.0
H587 H 0.77245 0.19374 0.7342 0.0
H588 H 0.76385 0.19251 0.74903 0.0
H589 H 0.7445 0.18407 0.7379 0.0
H590 H 0.68628 0.21167 0.73547 0.0
H591 H 0.66005 0.18606 0.74523 0.0
H592 H 0.93643 0.40755 0.49585 0.0
H593 H 0.96287 0.43303 0.48608 0.0
H594 H 0.95436 0.48176 0.51332 0.0
H595 H 0.92817 0.45656 0.52313 0.0
H596 H 0.95702 0.48025 0.47898 0.0
H597 H 0.02335 0.46819 0.51224 0.0
H598 H -0.00016 0.44912 0.51057 0.0
H599 H -0.00391 0.47558 0.51783 0.0
C600 C 0.94006 0.42378 0.49969 0.0
C601 C 0.93045 0.42998 0.51031 0.0
C602 C 0.95514 0.43826 0.49412 0.0
C603 C 0.9608 0.45899 0.49914 0.0
C604 C 0.95047 0.4656 0.50946 0.0
H605 H 0.04773 0.57174 0.48582 0.0
H606 H 0.0216 0.5438 0.49375 0.0
C607 C 0.93546 0.45122 0.51501 0.0
C608 C 0.97786 0.4737 0.4938 0.0
H609 H 0.02917 0.49776 0.49875 0.0
C610 C 0.9729 0.48396 0.48321 0.0
C611 C -0.00151 0.47841 0.49941 0.0
C612 C 0.00493 0.46712 0.51059 0.0
C613 C 0.98782 0.49951 0.47825 0.0
C614 C 0.00829 0.5045 0.48396 0.0
C615 C 0.01339 0.49391 0.49444 0.0
C616 C 0.02453 0.52095 0.47929 0.0
C617 C 0.98123 0.511 0.46713 0.0
C618 C 0.03514 0.51699 0.46868 0.0
C619 C 0.05001 0.53287 0.46414 0.0
C620 C 0.0546 0.5529 0.47017 0.0
C621 C 0.04446 0.5565 0.48097 0.0
C622 C 0.02955 0.5406 0.4855 0.0
H623 H 0.96292 0.50929 0.46533 0.0
H624 H 0.98558 0.52918 0.4674 0.0
H625 H 0.99061 0.50322 0.45987 0.0
H626 H 0.03183 0.50168 0.4639 0.0
H627 H 0.0577 0.52955 0.45584 0.0
H628 H 0.67033 0.79917 0.73644 0.0
H629 H 0.69787 0.77237 0.74414 0.0
H630 H 0.73701 0.77811 0.71292 0.0
H631 H 0.70972 0.80493 0.70518 0.0
H632 H 0.70982 0.73038 0.73282 0.0
H633 H 0.78331 0.78718 0.73946 0.0
H634 H 0.75482 0.79757 0.73814 0.0
H635 H 0.77 0.78863 0.72555 0.0
C636 C 0.68494 0.79494 0.73128 0.0
C637 C 0.68788 0.80411 0.72021 0.0
C638 C 0.70059 0.77962 0.73567 0.0
C639 C 0.71946 0.77347 0.72911 0.0
C640 C 0.72268 0.78292 0.71816 0.0
H641 H 0.83053 0.6818 0.74396 0.0
H642 H 0.80417 0.70686 0.73393 0.0
C643 C 0.70703 0.79817 0.71375 0.0
C644 C 0.7352 0.75628 0.73346 0.0
H645 H 0.78931 0.74831 0.74247 0.0
C646 C 0.7272 0.73425 0.73495 0.0
C647 C 0.75788 0.76145 0.73607 0.0
C648 C 0.76707 0.78501 0.73482 0.0
C649 C 0.74135 0.71715 0.73904 0.0
C650 C 0.76389 0.72242 0.7419 0.0
C651 C 0.77201 0.74436 0.74021 0.0
C652 C 0.77894 0.70582 0.74741 0.0
C653 C 0.73208 0.69359 0.74018 0.0
C654 C 0.77335 0.69696 0.75824 0.0
C655 C 0.78827 0.6827 0.76395 0.0
C656 C 0.80915 0.67721 0.75896 0.0
C657 C 0.81454 0.68572 0.74799 0.0
C658 C 0.79955 0.70003 0.74227 0.0
H659 H 0.71726 0.69094 0.73448 0.0
H660 H 0.7451 0.68081 0.73806 0.0
H661 H 0.72655 0.69081 0.74921 0.0
H662 H 0.75772 0.70161 0.76244 0.0
H663 H 0.78367 0.67646 0.77241 0.0
H664 H 0.44574 0.41907 0.98312 0.0
H665 H 0.47335 0.44604 0.99056 0.0
H666 H 0.46568 0.48643 0.95989 0.0
H667 H 0.43794 0.45971 0.95241 0.0
H668 H 0.51462 0.45868 0.97924 0.0
H669 H 0.45755 0.53154 0.98681 0.0
H670 H 0.44721 0.50313 0.98509 0.0
H671 H 0.45612 0.51898 0.97272 0.0
C672 C 0.44977 0.4338 0.97801 0.0
C673 C 0.43967 0.43732 0.9672 0.0
C674 C 0.46556 0.44913 0.98226 0.0
C675 C 0.47135 0.46823 0.97579 0.0
C676 C 0.46115 0.47192 0.96506 0.0
H677 H 0.56195 0.57908 -0.00708 0.0
H678 H 0.53802 0.553 0.98203 0.0
C679 C 0.44537 0.45661 0.9608 0.0
C680 C 0.48863 0.48391 0.98015 0.0
H681 H 0.49638 0.53746 0.98996 0.0
C682 C 0.5107 0.47593 0.98157 0.0
C683 C 0.48338 0.5064 0.98306 0.0
C684 C 0.45976 0.51557 0.98194 0.0
C685 C 0.52773 0.48988 0.98593 0.0
C686 C 0.52236 0.5122 0.98913 0.0
C687 C 0.50041 0.52034 0.98745 0.0
C688 C 0.53875 0.52689 -0.00496 0.0
C689 C 0.5513 0.48062 0.98708 0.0
C690 C 0.54714 0.52069 0.00589 0.0
C691 C 0.56074 0.53548 0.0121 0.0
C692 C 0.56604 0.5568 0.00761 0.0
C693 C 0.55816 0.56274 -0.00341 0.0
C694 C 0.5445 0.54791 0.99037 0.0
H695 H 0.55413 0.46621 0.98114 0.0
H696 H 0.56412 0.49379 0.98527 0.0
H697 H 0.55385 0.47451 -0.00397 0.0
H698 H 0.5425 0.50472 0.00973 0.0
H699 H 0.56653 0.53044 0.02058 0.0
H700 H 0.77965 0.17917 0.20483 0.0
H701 H 0.75207 0.20566 0.21266 0.0
H702 H 0.79446 0.21648 0.24238 0.0
H703 H 0.82226 0.19009 0.23459 0.0
H704 H 0.7293 0.20483 0.23452 0.0
H705 H 0.78345 0.28035 0.22887 0.0
H706 H 0.78901 0.25398 0.22165 0.0
H707 H 0.79647 0.25754 0.23656 0.0
C708 C 0.78307 0.18711 0.21306 0.0
C709 C 0.80319 0.1827 0.21907 0.0
C710 C 0.76731 0.20221 0.2175 0.0
C711 C 0.77148 0.21323 0.22797 0.0
C712 C 0.7912 0.20839 0.23417 0.0
H713 H 0.7069 0.30648 0.27271 0.0
H714 H 0.73191 0.28127 0.26216 0.0
C715 C 0.80697 0.19323 0.22974 0.0
C716 C 0.75521 0.22986 0.23242 0.0
H717 H 0.74984 0.28519 0.23975 0.0
C718 C 0.73364 0.22245 0.23558 0.0
C719 C 0.76103 0.2528 0.23369 0.0
C720 C 0.78367 0.26176 0.22992 0.0
C721 C 0.71794 0.2373 0.24047 0.0
C722 C 0.72396 0.26015 0.24199 0.0
C723 C 0.74534 0.26764 0.23854 0.0
C724 C 0.70893 0.2762 0.24791 0.0
C725 C 0.69542 0.22827 0.24437 0.0
C726 C 0.68791 0.28203 0.24323 0.0
C727 C 0.67349 0.29645 0.24927 0.0
C728 C 0.67999 0.30525 0.26002 0.0
C729 C 0.70136 0.29989 0.26447 0.0
C730 C 0.71569 0.28552 0.25846 0.0
H731 H 0.69517 0.20957 0.24465 0.0
H732 H 0.69107 0.23482 0.25306 0.0
H733 H 0.68216 0.23388 0.23827 0.0
H734 H 0.6826 0.27528 0.23499 0.0
H735 H 0.65716 0.3004 0.24561 0.0
H736 H 0.28207 0.31109 0.77063 0.0
H737 H 0.25698 0.28645 0.75974 0.0
H738 H 0.30605 0.28221 0.73237 0.0
H739 H 0.33154 0.30676 0.74331 0.0
H740 H 0.23884 0.29113 0.73727 0.0
H741 H 0.29432 0.21599 0.74158 0.0
H742 H 0.29812 0.24098 0.75022 0.0
H743 H 0.30701 0.24071 0.73542 0.0
C744 C 0.28752 0.30503 0.76227 0.0
C745 C 0.30885 0.31066 0.75786 0.0
C746 C 0.27315 0.291 0.75606 0.0
C747 C 0.27985 0.28231 0.74536 0.0
C748 C 0.3008 0.2885 0.74072 0.0
H749 H 0.20981 0.18366 0.70279 0.0
H750 H 0.23693 0.21116 0.71014 0.0
C751 C 0.31525 0.30257 0.74694 0.0
C752 C 0.26496 0.26631 0.73932 0.0
H753 H 0.26004 0.21106 0.73167 0.0
C754 C 0.24348 0.27365 0.73596 0.0
C755 C 0.27118 0.24355 0.73767 0.0
C756 C 0.29383 0.23469 0.74147 0.0
C757 C 0.22787 0.25872 0.7311 0.0
C758 C 0.23387 0.23586 0.72974 0.0
C759 C 0.25556 0.22863 0.73279 0.0
C760 C 0.21764 0.21904 0.72545 0.0
C761 C 0.2051 0.26751 0.72745 0.0
C762 C 0.19812 0.21409 0.73179 0.0
C763 C 0.18262 0.19837 0.72765 0.0
C764 C 0.18649 0.18733 0.71712 0.0
C765 C 0.20634 0.19196 0.71092 0.0
C766 C 0.22183 0.20765 0.71509 0.0
H767 H 0.20525 0.28608 0.72631 0.0
H768 H 0.19957 0.25957 0.71925 0.0
H769 H 0.1925 0.26337 0.7342 0.0
H770 H 0.19487 0.22244 0.73993 0.0
H771 H 0.16753 0.19506 0.73263 0.0
H772 H 0.16307 0.69181 0.24683 0.0
H773 H 0.18834 0.7199 0.23831 0.0
H774 H 0.23692 0.70766 0.26527 0.0
H775 H 0.21176 0.67985 0.27391 0.0
H776 H 0.22616 0.75327 0.26211 0.0
H777 H 0.24791 0.71123 0.22072 0.0
H778 H 0.21826 0.71341 0.22367 0.0
H779 H 0.23574 0.69623 0.23276 0.0
C780 C 0.17927 0.69488 0.25084 0.0
C781 C 0.18543 0.68371 0.26104 0.0
C782 C 0.19369 0.71087 0.24595 0.0
C783 C 0.2145 0.71569 0.25115 0.0
C784 C 0.22091 0.70413 0.26116 0.0
H785 H 0.32506 0.80749 0.23856 0.0
H786 H 0.29821 0.78114 0.24725 0.0
C787 C 0.20653 0.68823 0.26605 0.0
C788 C 0.22917 0.73362 0.24655 0.0
H789 H 0.26034 0.74881 0.22312 0.0
C790 C 0.2337 0.75232 0.25359 0.0
C791 C 0.23886 0.73224 0.23545 0.0
C792 C 0.23515 0.71213 0.22772 0.0
C793 C 0.24757 0.76989 0.24975 0.0
C794 C 0.25734 0.76846 0.23867 0.0
C795 C 0.25273 0.74981 0.23162 0.0
C796 C 0.2726 0.78601 0.23418 0.0
C797 C 0.25137 0.78996 0.25749 0.0
C798 C 0.26698 0.79747 0.22402 0.0
C799 C 0.28227 0.81236 0.21902 0.0
C800 C 0.3035 0.81595 0.22408 0.0
C801 C 0.30878 0.80511 0.23451 0.0
C802 C 0.29345 0.79013 0.23949 0.0
H803 H 0.23836 0.79111 0.26436 0.0
H804 H 0.26807 0.78837 0.26173 0.0
H805 H 0.25128 0.80585 0.25245 0.0
H806 H 0.25094 0.79447 0.21981 0.0
H807 H 0.27769 0.82054 0.21101 0.0
H808 H 0.32499 0.18766 0.24695 0.0
H809 H 0.29962 0.21563 0.23841 0.0
H810 H 0.25365 0.20737 0.26692 0.0
H811 H 0.27886 0.1796 0.27555 0.0
H812 H 0.25273 0.2116 0.23232 0.0
H813 H 0.26788 0.27571 0.26639 0.0
H814 H 0.28614 0.25175 0.26428 0.0
H815 H 0.25965 0.24842 0.27159 0.0
C816 C 0.3094 0.1917 0.25135 0.0
C817 C 0.30399 0.18161 0.26196 0.0
C818 C 0.29499 0.20767 0.24648 0.0
C819 C 0.27506 0.2138 0.25218 0.0
C820 C 0.26921 0.20314 0.26254 0.0
H821 H 0.16632 0.30695 0.23839 0.0
H822 H 0.19247 0.27983 0.24703 0.0
C823 C 0.28357 0.1872 0.26741 0.0
C824 C 0.26039 0.23145 0.24735 0.0
H825 H 0.23906 0.28371 0.25283 0.0
C826 C 0.24979 0.22743 0.23675 0.0
C827 C 0.25665 0.25198 0.25322 0.0
C828 C 0.2683 0.25739 0.26446 0.0
C829 C 0.23512 0.24332 0.23192 0.0
C830 C 0.23139 0.26387 0.23779 0.0
C831 C 0.24201 0.2679 0.24839 0.0
C832 C 0.2165 0.2814 0.233 0.0
C833 C 0.22338 0.2378 0.22072 0.0
C834 C 0.22183 0.29171 0.22248 0.0
C835 C 0.20699 0.30712 0.21754 0.0
C836 C 0.18664 0.31256 0.22309 0.0
C837 C 0.18184 0.30301 0.23391 0.0
C838 C 0.19671 0.28752 0.23883 0.0
H839 H 0.22369 0.21945 0.21886 0.0
H840 H 0.20557 0.24353 0.22089 0.0
H841 H 0.23206 0.24659 0.21354 0.0
H842 H 0.23729 0.28753 0.218 0.0
H843 H 0.21124 0.31437 0.20925 0.0
H844 H 0.20804 0.81203 0.76973 0.0
H845 H 0.23083 0.78384 0.75984 0.0
H846 H 0.18102 0.77925 0.73285 0.0
H847 H 0.15798 0.80768 0.74269 0.0
H848 H 0.21372 0.73901 0.75469 0.0
H849 H 0.24311 0.78595 0.71587 0.0
H850 H 0.23335 0.8001 0.72873 0.0
H851 H 0.21349 0.78695 0.7192 0.0
C852 C 0.20203 0.80528 0.76161 0.0
C853 C 0.18117 0.81197 0.75701 0.0
C854 C 0.21506 0.78917 0.756 0.0
C855 C 0.20756 0.77958 0.74565 0.0
C856 C 0.18712 0.78669 0.74079 0.0
H857 H 0.27562 0.67751 0.70426 0.0
H858 H 0.24727 0.70358 0.71174 0.0
C859 C 0.17401 0.80287 0.74642 0.0
C860 C 0.22066 0.76115 0.74041 0.0
H861 H 0.25488 0.74827 0.71774 0.0
C862 C 0.22263 0.74093 0.74658 0.0
C863 C 0.23202 0.76378 0.7298 0.0
C864 C 0.2306 0.78538 0.72299 0.0
C865 C 0.23609 0.72329 0.74249 0.0
C866 C 0.24816 0.72621 0.73209 0.0
C867 C 0.24561 0.74617 0.72574 0.0
C868 C 0.26442 0.70925 0.72795 0.0
C869 C 0.23727 0.70172 0.74934 0.0
C870 C 0.28337 0.70381 0.73463 0.0
C871 C 0.29956 0.6889 0.73041 0.0
C872 C 0.29713 0.67937 0.71939 0.0
C873 C 0.27794 0.68458 0.71279 0.0
C874 C 0.26175 0.69948 0.71703 0.0
H875 H 0.22229 0.69964 0.755 0.0
H876 H 0.23854 0.68685 0.74357 0.0
H877 H 0.25244 0.7021 0.75494 0.0
H878 H 0.28593 0.71155 0.74299 0.0
H879 H 0.31422 0.68528 0.73567 0.0
H880 H 0.55555 0.96094 0.52676 0.0
H881 H 0.52915 0.98835 0.51876 0.0
H882 H 0.52062 0.94685 0.48854 0.0
H883 H 0.54699 0.91917 0.49651 0.0
H884 H 0.53036 0.01181 0.49694 0.0
H885 H 0.45589 0.95574 0.50188 0.0
H886 H 0.48222 0.95069 0.50926 0.0
H887 H 0.47939 0.94381 0.49424 0.0
C888 C 0.54818 0.95769 0.51838 0.0
C889 C 0.55316 0.93782 0.51229 0.0
C890 C 0.53313 0.97337 0.51383 0.0
C891 C 0.52275 0.96937 0.50318 0.0
C892 C 0.52826 0.94997 0.49688 0.0
H893 H 0.42555 0.0365 0.46104 0.0
H894 H 0.45163 0.01058 0.47038 0.0
C895 C 0.54339 0.93428 0.5014 0.0
C896 C 0.50582 0.98536 0.49879 0.0
H897 H 0.45006 0.9903 0.49215 0.0
C898 C 0.51277 0.00722 0.49593 0.0
C899 C 0.48294 0.9792 0.49758 0.0
C900 C 0.47453 0.95615 0.50098 0.0
C901 C 0.49745 0.02299 0.49153 0.0
C902 C 0.47458 0.01676 0.49022 0.0
C903 C 0.46761 -0.00502 0.49322 0.0
C904 C 0.45788 0.03217 0.48507 0.0
C905 C 0.50597 0.04592 0.48799 0.0
C906 C 0.45237 0.05264 0.49042 0.0
C907 C 0.43745 0.06758 0.48508 0.0
C908 C 0.42784 0.06214 0.47436 0.0
C909 C 0.43278 0.04123 0.46927 0.0
C910 C 0.44766 0.02638 0.47459 0.0
H911 H 0.52464 0.04632 0.48724 0.0
H912 H 0.49857 0.05109 0.4796 0.0
H913 H 0.50091 0.0585 0.49458 0.0
H914 H 0.4598 0.05716 0.49864 0.0
H915 H 0.43384 0.08352 0.48922 0.0
H916 H 0.05115 0.96302 0.95028 0.0
H917 H 0.0231 0.99017 0.95706 0.0
H918 H 0.01453 0.9518 0.98834 0.0
H919 H 0.0425 0.92451 0.98164 0.0
H920 H 0.97336 0.96346 0.97542 0.0
H921 H 0.02975 0.03659 0.98412 0.0
H922 H 0.03263 0.02274 0.97039 0.0
H923 H 0.04019 0.00807 0.98335 0.0
C924 C 0.04346 0.96048 0.95865 0.0
C925 C 0.04898 0.94164 0.96544 0.0
C926 C 0.02751 0.97602 0.96251 0.0
C927 C 0.01692 0.97295 0.9732 0.0
C928 C 0.02261 0.95438 0.98006 0.0
H929 H 0.91997 0.03111 0.0175 0.0
H930 H 0.9442 0.00666 0.00606 0.0
C931 C 0.03861 0.93887 0.97624 0.0
C932 C -0.00071 0.98864 0.9771 0.0
H933 H 0.99098 0.04169 0.98746 0.0
C934 C 0.97713 0.98062 0.978 0.0
C935 C 0.00434 0.01103 0.98028 0.0
C936 C 0.02802 0.02021 0.97958 0.0
C937 C 0.95984 -0.00565 0.98226 0.0
C938 C 0.96506 0.01644 0.98592 0.0
C939 C 0.98708 0.02472 0.98462 0.0
C940 C 0.94852 0.03051 -0.00789 0.0
C941 C 0.93621 0.98503 0.98288 0.0
C942 C 0.94305 0.05209 0.98808 0.0
C943 C 0.92928 0.06622 -0.00535 0.0
C944 C 0.92102 0.059 0.0054 0.0
C945 C 0.92605 0.03714 0.00924 0.0
C946 C 0.93976 0.02307 0.00268 0.0
H947 H 0.93362 0.97137 0.97647 0.0
H948 H 0.93333 0.9778 -0.00841 0.0
H949 H 0.92346 -0.00161 0.98138 0.0
H950 H 0.94982 0.05815 0.97997 0.0
H951 H 0.92569 0.083 0.99149 0.0
H952 H 0.54608 0.07415 0.98555 0.0
H953 H 0.5186 0.04852 -0.00575 0.0
H954 H 0.52652 0.00274 0.96565 0.0
H955 H 0.55379 0.02832 0.95682 0.0
H956 H 0.48125 0.01337 0.97115 0.0
H957 H 0.53031 0.98714 0.00973 0.0
H958 H 0.52804 0.01703 0.00768 0.0
H959 H 0.54324 0.00036 -0.00264 0.0
C960 C 0.54212 0.05853 0.98117 0.0
C961 C 0.55207 0.05322 0.97051 0.0
C962 C 0.52651 0.04389 0.98617 0.0
C963 C 0.52076 0.02371 0.98062 0.0
C964 C 0.53083 0.01825 0.97005 0.0
H965 H 0.42923 0.91353 -0.00545 0.0
H966 H 0.45498 0.94048 0.98552 0.0
C967 C 0.54642 0.03285 0.96505 0.0
C968 C 0.50358 0.00863 0.9856 0.0
H969 H 0.49217 0.97549 0.00888 0.0
C970 C 0.48361 0.00501 0.97938 0.0
C971 C 0.50681 -0.00214 -0.00367 0.0
C972 C 0.52832 0.00059 0.00314 0.0
C973 C 0.46655 0.99104 0.98371 0.0
C974 C 0.46981 0.98024 -0.00556 0.0
C975 C 0.48977 0.9839 0.00066 0.0
C976 C 0.45286 0.96483 -0.00063 0.0
C977 C 0.44506 0.98827 0.9769 0.0
C978 C 0.44326 0.96965 0.01014 0.0
C979 C 0.42869 0.95428 0.01534 0.0
C980 C 0.42361 0.93377 0.00987 0.0
C981 C 0.43279 0.92924 -0.00106 0.0
C982 C 0.44741 0.94464 -0.00625 0.0
H983 H 0.4429 0.00192 0.97044 0.0
H984 H 0.44556 0.97199 0.97221 0.0
H985 H 0.43015 0.9881 0.98269 0.0
H986 H 0.44735 0.98515 0.0146 0.0
H987 H 0.42185 0.95825 0.02376 0.0
H988 H 0.05106 0.0821 0.49601 0.0
H989 H 0.02215 0.05855 0.4868 0.0
H990 H 0.03167 0.00778 0.51293 0.0
H991 H 0.06035 0.03101 0.52217 0.0
H992 H 0.0252 0.01152 0.47887 0.0
H993 H 0.96323 0.02429 0.51418 0.0
H994 H 0.98722 0.04257 0.51205 0.0
H995 H 0.99077 0.01563 0.51886 0.0
C996 C 0.04712 0.06582 0.49971 0.0
C997 C 0.05777 0.05847 0.50987 0.0
C998 C 0.03062 0.05247 0.49447 0.0
C999 C 0.02456 0.03173 0.49936 0.0
C1000 C 0.03586 0.02397 0.50919 0.0
H1001 H 0.93491 0.92117 0.48723 0.0
H1002 H 0.961 0.94929 0.49504 0.0
C1003 C 0.0523 0.03722 0.51441 0.0
C1004 C 0.0063 0.01808 0.49434 0.0
H1005 H 0.9549 -0.00459 0.5006 0.0
C1006 C 0.00969 0.00816 0.48352 0.0
C1007 C 0.98619 0.01381 0.50051 0.0
C1008 C 0.98146 0.02477 0.51201 0.0
C1009 C 0.99377 0.99328 0.47886 0.0
C1010 C 0.97384 0.98865 0.48514 0.0
C1011 C 0.97025 -0.00101 0.49585 0.0
C1012 C 0.9568 0.97261 0.48085 0.0
C1013 C -0.00121 0.98198 0.46748 0.0
C1014 C 0.94534 0.97686 0.47052 0.0
C1015 C 0.93054 0.96086 0.46604 0.0
C1016 C 0.92685 0.94044 0.47188 0.0
C1017 C 0.9375 0.93672 0.48253 0.0
C1018 C 0.95239 0.95272 0.48698 0.0
H1019 H 0.0169 0.98333 0.46513 0.0
H1020 H 0.99406 0.9639 0.46774 0.0
H1021 H 0.98878 0.99019 0.46058 0.0
H1022 H 0.94818 0.99236 0.46581 0.0
H1023 H 0.92238 0.96429 0.45786 0.0
H1024 H 0.9205 0.17866 0.0323 0.0
H1025 H 0.94174 0.21393 0.03221 0.0
H1026 H 0.0041 0.17682 0.03357 0.0
H1027 H 0.98308 0.14137 0.03364 0.0
H1028 H 0.97432 0.22853 0.04949 0.0
H1029 H 0.01089 0.22045 0.00546 0.0
H1030 H 0.98662 0.20444 0.01008 0.0
H1031 H 0.01429 0.19662 0.01488 0.0
C1032 C 0.93874 0.17795 0.03255 0.0
C1033 C 0.9501 0.15717 0.03294 0.0
C1034 C 0.95081 0.19812 0.03251 0.0
C1035 C 0.97443 0.1979 0.03275 0.0
C1036 C 0.98586 0.17727 0.03321 0.0
H1037 H 0.07356 0.30589 0.03111 0.0
H1038 H 0.05462 0.26929 0.03138 0.0
C1039 C 0.97381 0.15706 0.03331 0.0
C1040 C 0.98704 0.21934 0.03275 0.0
H1041 H 0.02246 0.25174 0.01655 0.0
C1042 C 0.98485 0.23366 0.0423 0.0
C1043 C 0.00082 0.22579 0.02338 0.0
C1044 C 0.00326 0.21115 0.01281 0.0
C1045 C -0.00378 0.25434 0.04276 0.0
C1046 C 0.00968 0.26103 0.03328 0.0
C1047 C 0.01208 0.24655 0.02379 0.0
C1048 C 0.02106 0.28318 0.03297 0.0
C1049 C 0.99398 0.26865 0.05345 0.0
C1050 C 0.0084 0.30308 0.03354 0.0
C1051 C 0.01914 0.32399 0.03343 0.0
C1052 C 0.04275 0.3254 0.03262 0.0
C1053 C 0.05536 0.30541 0.03176 0.0
C1054 C 0.04458 0.28448 0.03192 0.0
H1055 H 0.98863 0.25851 0.06103 0.0
H1056 H 0.01013 0.27717 0.05556 0.0
H1057 H 0.981 0.28178 0.05196 0.0
H1058 H 0.99019 0.30244 0.03406 0.0
H1059 H 0.00889 0.33903 0.034 0.0
H1060 H 0.09494 0.73307 0.29381 0.0
H1061 H 0.05826 0.75192 0.29386 0.0
H1062 H 0.02712 0.69211 0.28007 0.0
H1063 H 0.06361 0.67309 0.27995 0.0
H1064 H 0.01626 0.73393 0.26838 0.0
H1065 H 0.00417 0.73786 0.31594 0.0
H1066 H 0.03076 0.74802 0.31059 0.0
H1067 H 0.02383 0.71873 0.3092 0.0
C1068 C 0.08029 0.72388 0.29082 0.0
C1069 C 0.08222 0.70154 0.2869 0.0
C1070 C 0.05935 0.73466 0.29091 0.0
C1071 C 0.04003 0.72329 0.28707 0.0
C1072 C 0.04187 0.70109 0.2831 0.0
H1073 H 0.8989 0.75772 0.29332 0.0
H1074 H 0.93578 0.73932 0.2936 0.0
C1075 C 0.06275 0.69026 0.28306 0.0
C1076 C 0.01791 0.73468 0.28693 0.0
H1077 H 0.97708 0.75649 0.30439 0.0
C1078 C 0.00767 0.7389 0.27624 0.0
C1079 C 0.00675 0.7409 0.29722 0.0
C1080 C 0.01678 0.73604 0.30892 0.0
C1081 C 0.98655 0.74941 0.27556 0.0
C1082 C 0.97556 0.75596 0.28584 0.0
C1083 C 0.98569 0.75154 0.29654 0.0
C1084 C 0.95337 0.76719 0.28565 0.0
C1085 C 0.97598 0.75317 0.26388 0.0
C1086 C 0.95119 0.789 0.28118 0.0
C1087 C 0.93019 0.7996 0.28103 0.0
C1088 C 0.91099 0.78854 0.28535 0.0
C1089 C 0.91331 0.76668 0.28988 0.0
C1090 C 0.93435 0.75616 0.29007 0.0
H1091 H 0.98446 0.7432 0.25702 0.0
H1092 H 0.95782 0.74864 0.26404 0.0
H1093 H 0.97731 0.77126 0.26158 0.0
H1094 H 0.96578 0.79786 0.27785 0.0
H1095 H 0.92902 0.81645 0.27751 0.0
H1096 H 0.41967 0.67547 0.53241 0.0
H1097 H 0.43945 0.71156 0.53195 0.0
H1098 H 0.50328 0.67706 0.53353 0.0
H1099 H 0.4837 0.64078 0.53399 0.0
H1100 H 0.47188 0.72747 0.54933 0.0
H1101 H 0.50781 0.72079 0.50509 0.0
H1102 H 0.48403 0.70412 0.50977 0.0
H1103 H 0.51193 0.69707 0.51452 0.0
C1104 C 0.43792 0.67549 0.53262 0.0
C1105 C 0.45011 0.65521 0.53321 0.0
C1106 C 0.44917 0.69614 0.53236 0.0
C1107 C 0.47277 0.69688 0.53259 0.0
C1108 C 0.48504 0.67675 0.5332 0.0
H1109 H 0.56739 0.80879 0.5304 0.0
H1110 H 0.54984 0.77151 0.53048 0.0
C1111 C 0.47381 0.65607 0.53351 0.0
C1112 C 0.48448 0.71883 0.5325 0.0
H1113 H 0.518 0.75273 0.51604 0.0
C1114 C 0.48197 0.73304 0.54207 0.0
C1115 C 0.49771 0.72586 0.52302 0.0
C1116 C 0.5005 0.71129 0.51246 0.0
C1117 C 0.49247 0.75418 0.54245 0.0
C1118 C 0.50533 0.76147 0.53287 0.0
C1119 C 0.50806 0.74711 0.52335 0.0
C1120 C 0.51585 0.78407 0.53251 0.0
C1121 C 0.49001 0.76832 0.5532 0.0
C1122 C 0.50248 0.80347 0.53337 0.0
C1123 C 0.51244 0.82477 0.53339 0.0
C1124 C 0.53596 0.82709 0.53241 0.0
C1125 C 0.54924 0.80761 0.5312 0.0
C1126 C 0.53926 0.78629 0.53124 0.0
H1127 H 0.48539 0.7579 0.5608 0.0
H1128 H 0.50585 0.77753 0.55517 0.0
H1129 H 0.47641 0.78087 0.55186 0.0
H1130 H 0.48432 0.80214 0.53406 0.0
H1131 H 0.50168 0.83941 0.53422 0.0
H1132 H 0.58771 0.21854 0.80235 0.0
H1133 H 0.55092 0.2369 0.80387 0.0
H1134 H 0.52742 0.19907 0.77441 0.0
H1135 H 0.56365 0.17965 0.77337 0.0
H1136 H 0.52988 0.26351 0.79069 0.0
H1137 H 0.47606 0.18824 0.79513 0.0
H1138 H 0.50635 0.18664 0.79585 0.0
H1139 H 0.49213 0.18663 0.78209 0.0
C1140 C 0.57457 0.21403 0.79628 0.0
C1141 C 0.57839 0.19756 0.78781 0.0
C1142 C 0.55357 0.22451 0.79715 0.0
C1143 C 0.53614 0.21903 0.78942 0.0
C1144 C 0.54022 0.20299 0.78076 0.0
H1145 H 0.42488 0.30799 0.77376 0.0
H1146 H 0.46088 0.28821 0.77492 0.0
C1147 C 0.56101 0.19205 0.78009 0.0
C1148 C 0.51409 0.23083 0.79011 0.0
H1149 H 0.45722 0.22232 0.78949 0.0
C1150 C 0.514 0.25446 0.79058 0.0
C1151 C 0.49329 0.21911 0.79023 0.0
C1152 C 0.49197 0.19376 0.79094 0.0
C1153 C 0.49378 0.26668 0.79086 0.0
C1154 C 0.47302 0.255 0.79004 0.0
C1155 C 0.4731 0.23136 0.7899 0.0
C1156 C 0.45105 0.2669 0.78924 0.0
C1157 C 0.49504 0.29192 0.79226 0.0
C1158 C 0.43307 0.26079 0.7965 0.0
C1159 C 0.4122 0.27153 0.79555 0.0
C1160 C 0.40907 0.28885 0.78746 0.0
C1161 C 0.42699 0.29493 0.78019 0.0
C1162 C 0.44764 0.28377 0.78093 0.0
H1163 H 0.51064 0.29699 0.79689 0.0
H1164 H 0.49551 0.29993 0.78362 0.0
H1165 H 0.48031 0.29856 0.79709 0.0
H1166 H 0.4352 0.24775 0.80294 0.0
H1167 H 0.39865 0.26656 0.80127 0.0
H1168 H 0.98345 0.84584 0.44887 0.0
H1169 H 0.00254 0.80928 0.4488 0.0
H1170 H 0.93851 0.77562 0.45216 0.0
H1171 H 0.91921 0.81199 0.4523 0.0
H1172 H -0.00295 0.77211 0.46708 0.0
H1173 H 0.97191 0.74914 0.4223 0.0
H1174 H 0.97294 0.77799 0.42724 0.0
H1175 H 0.9503 0.75996 0.4317 0.0
C1176 C 0.97341 0.83067 0.44962 0.0
C1177 C 0.94979 0.83184 0.45055 0.0
C1178 C 0.98435 0.80984 0.44959 0.0
C1179 C 0.97186 0.78988 0.45038 0.0
C1180 C 0.94836 0.79092 0.45146 0.0
H1181 H 0.00454 0.64818 0.44553 0.0
H1182 H 0.98593 0.68484 0.44656 0.0
C1183 C 0.9374 0.81172 0.45157 0.0
C1184 C 0.98336 0.76787 0.45004 0.0
H1185 H 0.99151 0.72171 0.43304 0.0
C1186 C -0.00405 0.76106 0.45965 0.0
C1187 C 0.98168 0.75358 0.44034 0.0
C1188 C 0.96861 0.76047 0.42974 0.0
C1189 C 0.0067 0.74002 0.45989 0.0
C1190 C 0.00523 0.72576 0.45013 0.0
C1191 C 0.99262 0.73266 0.44051 0.0
C1192 C 0.01661 0.70358 0.44969 0.0
C1193 C 0.019 0.73305 0.47072 0.0
C1194 C 0.04007 0.702 0.45098 0.0
C1195 C 0.05075 0.68107 0.45049 0.0
C1196 C 0.03818 0.66134 0.44853 0.0
C1197 C 0.01471 0.66303 0.44706 0.0
C1198 C 0.00404 0.68396 0.44765 0.0
H1199 H 0.01308 0.74267 0.47836 0.0
H1200 H 0.01676 0.7148 0.47246 0.0
H1201 H 0.03727 0.73644 0.46964 0.0
H1202 H 0.05018 0.71698 0.45226 0.0
H1203 H 0.06887 0.6804 0.45154 0.0
H1204 H 0.58481 0.76328 0.68589 0.0
H1205 H 0.54739 0.74617 0.68585 0.0
H1206 H 0.52756 0.78917 0.71412 0.0
H1207 H 0.56462 0.80727 0.71371 0.0
H1208 H 0.52621 0.72258 0.70073 0.0
H1209 H 0.47578 0.79956 0.69332 0.0
H1210 H 0.50608 0.79942 0.69223 0.0
H1211 H 0.49258 0.8018 0.70611 0.0
C1212 C 0.57242 0.76914 0.69206 0.0
C1213 C 0.57753 0.78668 0.69975 0.0
C1214 C 0.55103 0.75937 0.69204 0.0
C1215 C 0.53444 0.76667 0.69983 0.0
C1216 C 0.53977 0.78376 0.70776 0.0
H1217 H 0.41698 0.68313 0.71434 0.0
H1218 H 0.45316 0.70275 0.71512 0.0
C1219 C 0.56101 0.79395 0.70759 0.0
C1220 C 0.51186 0.75586 0.69981 0.0
H1221 H 0.4554 0.76672 0.69889 0.0
C1222 C 0.51074 0.73226 0.70025 0.0
C1223 C 0.49164 0.76842 0.69899 0.0
C1224 C 0.49156 0.79367 0.6975 0.0
C1225 C 0.49005 0.72087 0.69992 0.0
C1226 C 0.46979 0.73346 0.69971 0.0
C1227 C 0.4709 0.75706 0.69921 0.0
C1228 C 0.4473 0.7225 0.69969 0.0
C1229 C 0.49028 0.69546 0.69941 0.0
C1230 C 0.4314 0.72797 0.69115 0.0
C1231 C 0.41041 0.71731 0.69092 0.0
C1232 C 0.40511 0.70073 0.69912 0.0
C1233 C 0.42081 0.69559 0.7078 0.0
C1234 C 0.44156 0.70666 0.70819 0.0
H1235 H 0.50642 0.68904 0.69583 0.0
H1236 H 0.48849 0.68861 0.70827 0.0
H1237 H 0.47626 0.68889 0.69403 0.0
H1238 H 0.43538 0.74023 0.68454 0.0
H1239 H 0.3986 0.72157 0.68414 0.0
H1240 H 0.5574 0.17074 0.95911 0.0
H1241 H 0.53818 0.20708 0.95911 0.0
H1242 H 0.49799 0.18592 0.93001 0.0
H1243 H 0.51632 0.14904 0.9304 0.0
H1244 H 0.53679 0.2391 0.94423 0.0
H1245 H 0.44946 0.20863 0.95039 0.0
H1246 H 0.47351 0.19032 0.95175 0.0
H1247 H 0.4621 0.19681 0.93772 0.0
C1248 C 0.54435 0.1738 0.95276 0.0
C1249 C 0.53821 0.15704 0.94481 0.0
C1250 C 0.53339 0.19458 0.95276 0.0
C1251 C 0.5163 0.19913 0.94471 0.0
C1252 C 0.51056 0.18258 0.93656 0.0
H1253 H 0.47337 0.33632 0.9295 0.0
H1254 H 0.49145 0.29935 0.92932 0.0
C1255 C 0.52116 0.16158 0.93673 0.0
C1256 C 0.50506 0.22144 0.94469 0.0
H1257 H 0.45363 0.24713 0.94499 0.0
C1258 C 0.51859 0.24085 0.94448 0.0
C1259 C 0.48133 0.22377 0.9452 0.0
C1260 C 0.46578 0.20377 0.94641 0.0
C1261 C 0.50912 0.26246 0.94471 0.0
C1262 C 0.48537 0.26477 0.94464 0.0
C1263 C 0.47183 0.24538 0.94491 0.0
C1264 C 0.47416 0.2871 0.94454 0.0
C1265 C 0.52474 0.28249 0.9454 0.0
C1266 C 0.45768 0.29221 0.95284 0.0
C1267 C 0.44683 0.31306 0.95274 0.0
C1268 C 0.45251 0.32933 0.94444 0.0
C1269 C 0.46892 0.3242 0.93611 0.0
C1270 C 0.47939 0.30314 0.93605 0.0
H1271 H 0.54131 0.2778 0.94916 0.0
H1272 H 0.52787 0.28902 0.93658 0.0
H1273 H 0.51737 0.29621 0.9507 0.0
H1274 H 0.45328 0.28009 0.95945 0.0
H1275 H 0.43426 0.31658 0.95927 0.0
H1276 H 0.06079 0.32101 0.20189 0.0
H1277 H 0.02447 0.30164 0.20201 0.0
H1278 H 0.05849 0.23751 0.20094 0.0
H1279 H 0.0949 0.25672 0.20055 0.0
H1280 H 0.02464 0.2401 0.18527 0.0
H1281 H 0.99387 0.2683 0.22809 0.0
H1282 H 0.00164 0.29113 0.21876 0.0
H1283 H 0.02282 0.27164 0.22362 0.0
C1284 C 0.06057 0.30278 0.20178 0.0
C1285 C 0.08076 0.29041 0.20123 0.0
C1286 C 0.03978 0.29173 0.20192 0.0
C1287 C 0.0388 0.26813 0.20168 0.0
C1288 C 0.0589 0.25574 0.20119 0.0
H1289 H 0.9307 0.16984 0.20199 0.0
H1290 H 0.96701 0.18928 0.20295 0.0
C1291 C 0.07969 0.26676 0.20096 0.0
C1292 C 0.0168 0.25636 0.2014 0.0
H1293 H 0.96709 0.25007 0.21592 0.0
C1294 C 0.01213 0.24216 0.19201 0.0
C1295 C 0.00051 0.25909 0.21021 0.0
C1296 C 0.005 0.27319 0.2208 0.0
C1297 C 0.99143 0.23088 0.19111 0.0
C1298 C 0.97511 0.23384 0.19984 0.0
C1299 C 0.97971 0.24798 0.20923 0.0
C1300 C 0.95315 0.22221 0.19937 0.0
C1301 C 0.98697 0.21614 0.18075 0.0
C1302 C 0.93342 0.23443 0.19718 0.0
C1303 C 0.91265 0.2234 0.19658 0.0
C1304 C 0.91128 0.19998 0.19828 0.0
C1305 C 0.93114 0.18787 0.20063 0.0
C1306 C 0.9519 0.19891 0.20115 0.0
H1307 H -0.00024 0.21859 0.17386 0.0
H1308 H 0.98733 0.19821 0.18344 0.0
H1309 H 0.97 0.21967 0.17714 0.0
H1310 H 0.93413 0.25246 0.19583 0.0
H1311 H 0.89768 0.23323 0.1948 0.0
H1312 H 0.97408 0.65075 0.93409 0.0
H1313 H 0.99194 0.68785 0.93399 0.0
H1314 H 0.95037 0.70816 0.96273 0.0
H1315 H 0.93162 0.67153 0.96243 0.0
H1316 H 0.95152 0.74016 0.94785 0.0
H1317 H 0.03929 0.71192 0.95466 0.0
H1318 H 0.02744 0.69951 0.94194 0.0
H1319 H 0.01565 0.693 0.95589 0.0
C1320 C 0.96888 0.66311 0.94042 0.0
C1321 C 0.95154 0.65827 0.94829 0.0
C1322 C 0.97921 0.68425 0.94042 0.0
C1323 C 0.97289 0.70067 0.94853 0.0
C1324 C 0.9556 0.69577 0.95642 0.0
H1325 H 0.05323 0.82066 0.96098 0.0
H1326 H 0.03445 0.78411 0.96225 0.0
C1327 C 0.94491 0.67484 0.95625 0.0
C1328 C 0.98362 0.72324 0.94853 0.0
H1329 H 0.03448 0.75006 0.94857 0.0
C1330 C 0.96967 0.74232 0.94811 0.0
C1331 C 0.00729 0.72612 0.94908 0.0
C1332 C 0.02325 0.70654 0.95055 0.0
C1333 C 0.97868 0.76415 0.94808 0.0
C1334 C 0.00237 0.76698 0.94794 0.0
C1335 C 0.01632 0.74791 0.94852 0.0
C1336 C 0.01313 0.78951 0.94733 0.0
C1337 C 0.96264 0.78386 0.94849 0.0
C1338 C 0.00749 0.80471 0.9385 0.0
C1339 C 0.01782 0.82582 0.93794 0.0
C1340 C 0.03449 0.83182 0.94597 0.0
C1341 C 0.04046 0.81645 0.95466 0.0
C1342 C 0.02975 0.79556 0.95538 0.0
H1343 H 0.94627 0.77904 0.95244 0.0
H1344 H 0.96982 0.79812 0.95347 0.0
H1345 H 0.95915 0.78966 0.93957 0.0
H1346 H -0.00471 0.80017 0.93196 0.0
H1347 H 0.01314 0.83723 0.93105 0.0
H1348 H 0.89949 0.26753 0.6821 0.0
H1349 H 0.9358 0.24812 0.68131 0.0
H1350 H 0.95885 0.28648 0.71066 0.0
H1351 H 0.92305 0.30676 0.71108 0.0
H1352 H 0.99034 0.28505 0.69539 0.0
H1353 H 0.95817 0.19826 0.70092 0.0
H1354 H 0.94613 0.21168 0.68852 0.0
H1355 H 0.94043 0.22262 0.70273 0.0
C1356 C 0.91229 0.27171 0.68841 0.0
C1357 C 0.90846 0.28858 0.69668 0.0
C1358 C 0.93297 0.26049 0.68801 0.0
C1359 C 0.94992 0.26545 0.69609 0.0
C1360 C 0.94604 0.28229 0.70436 0.0
H1361 H 0.06631 0.18098 0.70893 0.0
H1362 H 0.03006 0.20043 0.70941 0.0
C1363 C 0.92557 0.29386 0.7046 0.0
C1364 C 0.972 0.25373 0.69572 0.0
H1365 H -0.00341 0.20182 0.69517 0.0
C1366 C 0.9917 0.26684 0.69542 0.0
C1367 C 0.97382 0.22997 0.69593 0.0
C1368 C 0.95351 0.21484 0.69717 0.0
C1369 C 0.01314 0.2569 0.6953 0.0
C1370 C 0.01493 0.23314 0.69495 0.0
C1371 C -0.00477 0.22003 0.69529 0.0
C1372 C 0.03703 0.22148 0.69457 0.0
C1373 C 0.03356 0.27204 0.69591 0.0
C1374 C 0.05296 0.22663 0.686 0.0
C1375 C 0.07391 0.21589 0.68587 0.0
C1376 C 0.07902 0.1993 0.69411 0.0
C1377 C 0.06282 0.19367 0.70246 0.0
C1378 C 0.04209 0.20477 0.70274 0.0
H1379 H 0.02936 0.2886 0.69983 0.0
H1380 H 0.04729 0.26424 0.70104 0.0
H1381 H 0.03988 0.27524 0.68706 0.0
H1382 H 0.04919 0.23889 0.67937 0.0
H1383 H 0.08597 0.22032 0.67923 0.0
H1384 H 0.57213 0.31271 0.44993 0.0
H1385 H 0.55217 0.27667 0.44975 0.0
H1386 H 0.48941 0.31115 0.44358 0.0
H1387 H 0.50918 0.34735 0.44368 0.0
H1388 H 0.49155 0.27685 0.46293 0.0
H1389 H 0.52193 0.24635 0.42025 0.0
H1390 H 0.54266 0.25784 0.42995 0.0
H1391 H 0.52137 0.27588 0.42402 0.0
C1392 C 0.55409 0.31267 0.44851 0.0
C1393 C 0.54225 0.33292 0.4468 0.0
C1394 C 0.54276 0.29207 0.44837 0.0
C1395 C 0.51942 0.29135 0.44656 0.0
C1396 C 0.50748 0.31145 0.44493 0.0
H1397 H 0.41914 0.18503 0.44882 0.0
H1398 H 0.43895 0.22105 0.44841 0.0
C1399 C 0.51881 0.33208 0.44498 0.0
C1400 C 0.50739 0.26961 0.44665 0.0
H1401 H 0.50024 0.22106 0.43137 0.0
C1402 C 0.49333 0.26464 0.45603 0.0
C1403 C 0.50999 0.25378 0.43766 0.0
C1404 C 0.52468 0.25865 0.42733 0.0
C1405 C 0.48197 0.24397 0.45674 0.0
C1406 C 0.48432 0.22818 0.44767 0.0
C1407 C 0.49844 0.2332 0.4383 0.0
C1408 C 0.47229 0.20633 0.44774 0.0
C1409 C 0.46805 0.23903 0.46735 0.0
C1410 C 0.48442 0.1861 0.4471 0.0
C1411 C 0.47313 0.16545 0.44717 0.0
C1412 C 0.44948 0.16467 0.44789 0.0
C1413 C 0.43737 0.18501 0.44838 0.0
C1414 C 0.44867 0.20563 0.44822 0.0
H1415 H 0.47321 0.2497 0.47477 0.0
H1416 H 0.45007 0.24266 0.46547 0.0
H1417 H 0.4695 0.22108 0.46991 0.0
H1418 H 0.50266 0.18629 0.44665 0.0
H1419 H 0.48297 0.15011 0.44677 0.0
H1420 H 0.39112 0.75577 0.19885 0.0
H1421 H 0.42681 0.73515 0.19944 0.0
H1422 H 0.46319 0.79791 0.20149 0.0
H1423 H 0.42772 0.81862 0.20117 0.0
H1424 H 0.46243 0.73681 0.18451 0.0
H1425 H 0.48983 0.76304 0.22821 0.0
H1426 H 0.46145 0.76729 0.22306 0.0
H1427 H 0.48357 0.78643 0.21896 0.0
C1428 C 0.40671 0.76519 0.19949 0.0
C1429 C 0.40656 0.78885 0.20005 0.0
C1430 C 0.42707 0.75337 0.19982 0.0
C1431 C 0.4476 0.76499 0.20073 0.0
C1432 C 0.44751 0.78859 0.2011 0.0
H1433 H 0.58851 0.73025 0.19666 0.0
H1434 H 0.55176 0.74894 0.19705 0.0
C1435 C 0.4272 0.80041 0.20084 0.0
C1436 C 0.46918 0.75251 0.20091 0.0
H1437 H 0.5176 0.74528 0.2164 0.0
C1438 C 0.4744 0.73849 0.19153 0.0
C1439 C 0.48474 0.75472 0.2101 0.0
C1440 C 0.47955 0.76851 0.22071 0.0
C1441 C 0.49506 0.72707 0.19096 0.0
C1442 C 0.51075 0.72969 0.20002 0.0
C1443 C 0.50549 0.74348 0.20945 0.0
C1444 C 0.53283 0.7183 0.19982 0.0
C1445 C 0.50024 0.71265 0.18057 0.0
C1446 C 0.53422 0.69495 0.20138 0.0
C1447 C 0.55516 0.68422 0.20123 0.0
C1448 C 0.57504 0.69669 0.19949 0.0
C1449 C 0.57353 0.72014 0.19798 0.0
C1450 C 0.55258 0.73086 0.19822 0.0
H1451 H 0.48786 0.7152 0.1735 0.0
H1452 H 0.5174 0.71641 0.17726 0.0
H1453 H 0.49985 0.69464 0.18313 0.0
H1454 H 0.51911 0.68506 0.20274 0.0
H1455 H 0.55571 0.66614 0.20242 0.0
H1456 H 0.98567 0.34212 0.53939 0.0
H1457 H 0.00471 0.30561 0.54008 0.0
H1458 H 0.94074 0.27179 0.53677 0.0
H1459 H 0.92147 0.30814 0.53608 0.0
H1460 H 0.97089 0.25536 0.55502 0.0
H1461 H 0.01178 0.26186 0.51195 0.0
H1462 H 0.01543 0.28557 0.52142 0.0
H1463 H 0.98787 0.27892 0.51602 0.0
C1464 C 0.97562 0.32694 0.53879 0.0
C1465 C 0.95204 0.32806 0.53763 0.0
C1466 C 0.98655 0.30611 0.53915 0.0
C1467 C 0.9741 0.2861 0.53836 0.0
C1468 C 0.95059 0.28711 0.53735 0.0
H1469 H 0.00611 0.14349 0.54016 0.0
H1470 H 0.98731 0.18009 0.54066 0.0
C1471 C 0.93965 0.3079 0.53693 0.0
C1472 C 0.9856 0.26406 0.53865 0.0
H1473 H 0.02145 0.23046 0.52341 0.0
C1474 C 0.98192 0.24983 0.54812 0.0
C1475 C -2e-05 0.25705 0.52963 0.0
C1476 C 0.00395 0.27152 0.51912 0.0
C1477 C 0.99259 0.2288 0.5489 0.0
C1478 C 0.00686 0.22169 0.53982 0.0
C1479 C 0.01052 0.23597 0.53036 0.0
C1480 C 0.01818 0.19948 0.53992 0.0
C1481 C 0.98888 0.21465 0.55955 0.0
C1482 C 0.04173 0.19824 0.53909 0.0
C1483 C 0.05251 0.17737 0.53866 0.0
C1484 C 0.03992 0.1573 0.53904 0.0
C1485 C 0.01632 0.1586 0.53994 0.0
C1486 C 0.00554 0.17951 0.5403 0.0
H1487 H 0.98292 0.22498 0.56693 0.0
H1488 H 0.97582 0.20177 0.55771 0.0
H1489 H 0.00459 0.20584 0.56213 0.0
H1490 H 0.05179 0.21346 0.53874 0.0
H1491 H 0.07071 0.177 0.53797 0.0
H1492 H 0.39244 0.23341 0.2903 0.0
H1493 H 0.42884 0.25282 0.29035 0.0
H1494 H 0.46291 0.18932 0.28575 0.0
H1495 H 0.42671 0.16985 0.28542 0.0
H1496 H 0.46513 0.24799 0.3048 0.0
H1497 H 0.48939 0.22682 0.25989 0.0
H1498 H 0.46113 0.22288 0.26529 0.0
H1499 H 0.48272 0.2025 0.26841 0.0
C1500 C 0.40768 0.22358 0.28926 0.0
C1501 C 0.40666 0.2001 0.28776 0.0
C1502 C 0.42845 0.23469 0.2893 0.0
C1503 C 0.44852 0.22255 0.28783 0.0
C1504 C 0.44758 0.19908 0.28659 0.0
H1505 H 0.59075 0.25363 0.28951 0.0
H1506 H 0.55362 0.23565 0.2899 0.0
C1507 C 0.42686 0.18797 0.28647 0.0
C1508 C 0.47051 0.23432 0.28781 0.0
H1509 H 0.51818 0.24237 0.27183 0.0
C1510 C 0.47667 0.24691 0.29756 0.0
C1511 C 0.48548 0.23292 0.27832 0.0
C1512 C 0.47928 0.22074 0.26734 0.0
C1513 C 0.49767 0.25771 0.2982 0.0
C1514 C 0.51275 0.25591 0.28882 0.0
C1515 C 0.50656 0.24351 0.27903 0.0
C1516 C 0.53505 0.26691 0.28895 0.0
C1517 C 0.50383 0.27061 0.30896 0.0
C1518 C 0.53675 0.2904 0.28822 0.0
C1519 C 0.5579 0.30073 0.28793 0.0
C1520 C 0.57769 0.28771 0.28838 0.0
C1521 C 0.57585 0.26415 0.28918 0.0
C1522 C 0.55469 0.25384 0.28939 0.0
H1523 H 0.492 0.26716 0.31618 0.0
H1524 H 0.5212 0.26631 0.31176 0.0
H1525 H 0.50339 0.28893 0.30708 0.0
H1526 H 0.52172 0.3007 0.28774 0.0
H1527 H 0.5587 0.3189 0.28731 0.0
H1528 H 0.41565 0.80748 0.0308 0.0
H1529 H 0.43544 0.7714 0.03094 0.0
H1530 H 0.4988 0.80596 0.03538 0.0
H1531 H 0.47917 0.84209 0.0355 0.0
H1532 H 0.46842 0.75553 0.01648 0.0
H1533 H 0.50022 0.76033 0.06144 0.0
H1534 H 0.47878 0.77905 0.05598 0.0
H1535 H 0.50801 0.7841 0.05275 0.0
C1536 C 0.4338 0.80743 0.03184 0.0
C1537 C 0.44582 0.82768 0.03322 0.0
C1538 C 0.44506 0.78679 0.03191 0.0
C1539 C 0.46851 0.78601 0.03338 0.0
C1540 C 0.48062 0.80618 0.03452 0.0
H1541 H 0.56838 0.6801 0.03275 0.0
H1542 H 0.54806 0.71589 0.0325 0.0
C1543 C 0.46937 0.82682 0.03452 0.0
C1544 C 0.48035 0.76408 0.03348 0.0
H1545 H 0.51484 0.73081 0.04976 0.0
C1546 C 0.47846 0.75005 0.02378 0.0
C1547 C 0.49339 0.75699 0.04304 0.0
C1548 C 0.49508 0.77079 0.05394 0.0
C1549 C 0.48964 0.72928 0.02329 0.0
C1550 C 0.50287 0.72235 0.03278 0.0
C1551 C 0.50472 0.7363 0.04249 0.0
C1552 C 0.51497 0.70065 0.03279 0.0
C1553 C 0.48761 0.71504 0.01256 0.0
C1554 C 0.50299 0.6803 0.03314 0.0
C1555 C 0.51452 0.65981 0.03334 0.0
C1556 C 0.53823 0.65934 0.03317 0.0
C1557 C 0.55013 0.67983 0.03284 0.0
C1558 C 0.53858 0.7003 0.03271 0.0
H1559 H 0.48043 0.72466 0.0052 0.0
H1560 H 0.50433 0.7083 0.00999 0.0
H1561 H 0.47636 0.70052 0.01435 0.0
H1562 H 0.48474 0.68031 0.03336 0.0
H1563 H 0.50484 0.64435 0.03361 0.0
H1564 H 0.89869 0.73217 0.79194 0.0
H1565 H 0.93488 0.75199 0.79191 0.0
H1566 H 0.96721 0.69346 0.77745 0.0
H1567 H 0.9312 0.67341 0.77745 0.0
H1568 H 0.97737 0.73603 0.80312 0.0
H1569 H 0.98324 0.74834 0.75561 0.0
H1570 H 0.95683 0.7429 0.76286 0.0
H1571 H 0.97646 0.72039 0.76049 0.0
C1572 C 0.91347 0.7235 0.78872 0.0
C1573 C 0.91204 0.70122 0.78467 0.0
C1574 C 0.93411 0.73485 0.78874 0.0
C1575 C 0.95356 0.7242 0.78459 0.0
C1576 C 0.95227 0.70198 0.78058 0.0
H1577 H 0.09453 0.76011 0.791 0.0
H1578 H 0.0579 0.74114 0.7914 0.0
C1579 C 0.93169 0.69056 0.78063 0.0
C1580 C 0.97532 0.73624 0.78458 0.0
H1581 H 0.015 0.7589 0.76671 0.0
C1582 C 0.98563 0.74108 0.79518 0.0
C1583 C 0.98584 0.74288 0.77418 0.0
C1584 C 0.97503 0.73856 0.76261 0.0
C1585 C 0.00649 0.75218 0.79565 0.0
C1586 C 0.01721 0.75844 0.78524 0.0
C1587 C 0.00673 0.7539 0.77465 0.0
C1588 C 0.03926 0.76996 0.78518 0.0
C1589 C 0.01686 0.75734 0.80723 0.0
C1590 C 0.04082 0.79233 0.78142 0.0
C1591 C 0.06166 0.80324 0.7812 0.0
C1592 C 0.08136 0.79187 0.78463 0.0
C1593 C 0.0797 0.76936 0.78832 0.0
C1594 C 0.05881 0.75852 0.7886 0.0
H1595 H 0.00459 0.75519 0.81439 0.0
H1596 H 0.03123 0.74577 0.80876 0.0
H1597 H 0.02345 0.77484 0.80743 0.0
H1598 H 0.02587 0.80136 0.7787 0.0
H1599 H 0.06233 0.82054 0.77827 0.0
H1600 H 0.34844 0.35522 0.98255 0.0
H1601 H 0.31282 0.35155 -0.00698 0.0
H1602 H 0.27914 0.39004 0.96656 0.0
H1603 H 0.31484 0.39451 0.95632 0.0
H1604 H 0.26855 0.40518 0.98715 0.0
H1605 H 0.25901 0.31238 0.98715 0.0
H1606 H 0.28516 0.32144 -0.00663 0.0
H1607 H 0.27962 0.32664 0.97833 0.0
C1608 C 0.33338 0.36271 0.97893 0.0
C1609 C 0.33438 0.37517 0.96863 0.0
C1610 C 0.31301 0.36046 0.98487 0.0
C1611 C 0.29323 0.3702 0.98048 0.0
C1612 C 0.29418 0.38233 0.9701 0.0
H1613 H 0.15577 0.34857 0.00264 0.0
H1614 H 0.19262 0.34705 -0.00678 0.0
C1615 C 0.31458 0.38488 0.96425 0.0
C1616 C 0.2718 0.36906 0.98702 0.0
H1617 H 0.23408 0.33292 -0.00063 0.0
C1618 C 0.26097 0.38936 0.98977 0.0
C1619 C 0.26182 0.3484 0.99035 0.0
C1620 C 0.27188 0.32598 0.98705 0.0
C1621 C 0.24046 0.38964 -0.00425 0.0
C1622 C 0.23089 0.36904 -0.00055 0.0
C1623 C 0.24163 0.3487 -0.00333 0.0
C1624 C 0.20923 0.36831 0.00579 0.0
C1625 C 0.22895 0.41199 -0.00229 0.0
C1626 C 0.20654 0.38015 0.01618 0.0
C1627 C 0.18544 0.38133 0.02148 0.0
C1628 C 0.1668 0.37027 0.0166 0.0
C1629 C 0.16983 0.35732 0.00658 0.0
C1630 C 0.19087 0.35641 0.00119 0.0
H1631 H 0.23508 0.42505 -0.00839 0.0
H1632 H 0.21039 0.41047 -0.00325 0.0
H1633 H 0.23266 0.41793 0.00659 0.0
H1634 H 0.22066 0.38891 0.02005 0.0
H1635 H 0.18366 0.3912 0.02929 0.0
H1636 H 0.83547 0.06402 0.2121 0.0
H1637 H 0.84013 0.02823 0.22218 0.0
H1638 H 0.90253 0.05193 0.23693 0.0
H1639 H 0.8978 0.08805 0.22702 0.0
H1640 H 0.8747 -0.00311 0.22094 0.0
H1641 H 0.86626 0.03207 0.26521 0.0
H1642 H 0.8589 0.04791 0.25248 0.0
H1643 H 0.88795 0.04451 0.25647 0.0
C1644 C 0.8502 0.06164 0.21748 0.0
C1645 C 0.86619 0.0789 0.21883 0.0
C1646 C 0.85286 0.04117 0.22321 0.0
C1647 C 0.87151 0.03758 0.23041 0.0
C1648 C 0.8878 0.05456 0.23158 0.0
H1649 H 0.899 0.90232 0.25768 0.0
H1650 H 0.90386 0.93899 0.24833 0.0
C1651 C 0.88512 0.07512 0.22587 0.0
C1652 C 0.87361 0.01602 0.2367 0.0
H1653 H 0.87284 0.99305 0.26369 0.0
C1654 C 0.87447 -0.00399 0.23029 0.0
C1655 C 0.87311 0.01502 0.24889 0.0
C1656 C 0.87132 0.03598 0.2562 0.0
C1657 C 0.87436 0.97493 0.23574 0.0
C1658 C 0.87381 0.97392 0.24792 0.0
C1659 C 0.87342 0.99394 0.25435 0.0
C1660 C 0.87185 0.95226 0.25414 0.0
C1661 C 0.87388 0.95395 0.22839 0.0
C1662 C 0.85261 0.94791 0.26081 0.0
C1663 C 0.84987 0.92712 0.26623 0.0
C1664 C 0.86636 0.91029 0.26507 0.0
C1665 C 0.88593 0.9149 0.25865 0.0
C1666 C 0.88869 0.93578 0.25326 0.0
H1667 H 0.86947 0.95772 0.21927 0.0
H1668 H 0.89078 0.94597 0.22848 0.0
H1669 H 0.86154 0.94159 0.23182 0.0
H1670 H 0.83945 0.96046 0.26162 0.0
H1671 H 0.83464 0.92411 0.27115 0.0
H1672 H 0.14738 0.64766 0.47858 0.0
H1673 H 0.18307 0.65334 0.4888 0.0
H1674 H 0.20959 0.59281 0.47337 0.0
H1675 H 0.17419 0.58718 0.46302 0.0
H1676 H 0.20308 0.62499 0.50462 0.0
H1677 H 0.2594 0.63852 0.46718 0.0
H1678 H 0.22908 0.64006 0.46606 0.0
H1679 H 0.24309 0.61319 0.4659 0.0
C1680 C 0.1609 0.63568 0.47729 0.0
C1681 C 0.15801 0.617 0.46997 0.0
C1682 C 0.18124 0.63894 0.48313 0.0
C1683 C 0.19906 0.62369 0.48169 0.0
C1684 C 0.19623 0.60506 0.47439 0.0
H1685 H 0.30925 0.5856 0.52425 0.0
H1686 H 0.27272 0.59179 0.5151 0.0
C1687 C 0.17593 0.60179 0.46854 0.0
C1688 C 0.22026 0.62648 0.48826 0.0
H1689 H 0.27735 0.62874 0.48505 0.0
C1690 C 0.21932 0.62613 0.50036 0.0
C1691 C 0.24137 0.62837 0.48268 0.0
C1692 C 0.24333 0.6303 0.46974 0.0
C1693 C 0.23905 0.62646 0.50702 0.0
C1694 C 0.26021 0.62675 0.50141 0.0
C1695 C 0.2611 0.62826 0.48934 0.0
C1696 C 0.28164 0.62414 0.50781 0.0
C1697 C 0.23704 0.62632 0.52 0.0
C1698 C 0.29887 0.64017 0.50664 0.0
C1699 C 0.31987 0.63658 0.51178 0.0
C1700 C 0.32401 0.61682 0.51811 0.0
C1701 C 0.30655 0.60104 0.51948 0.0
C1702 C 0.2856 0.60463 0.51432 0.0
H1703 H 0.22063 0.63338 0.52286 0.0
H1704 H 0.23803 0.6087 0.52314 0.0
H1705 H 0.25085 0.63612 0.52408 0.0
H1706 H 0.29619 0.65527 0.50158 0.0
H1707 H 0.333 0.64903 0.51057 0.0
H1708 H 0.64473 0.05872 0.77705 0.0
H1709 H 0.64195 0.02266 0.76699 0.0
H1710 H 0.59681 0.05237 0.7421 0.0
H1711 H 0.59889 0.08832 0.75237 0.0
H1712 H 0.58361 0.01043 0.74783 0.0
H1713 H 0.67463 0.01037 0.73721 0.0
H1714 H 0.66963 0.01196 0.75244 0.0
H1715 H 0.66063 0.03463 0.74321 0.0
C1716 C 0.63408 0.05752 0.76949 0.0
C1717 C 0.62221 0.07637 0.76542 0.0
C1718 C 0.63262 0.03696 0.76371 0.0
C1719 C 0.61966 0.03501 0.75362 0.0
C1720 C 0.60706 0.05356 0.74982 0.0
H1721 H 0.64209 0.92625 0.70483 0.0
H1722 H 0.63799 0.96313 0.71396 0.0
C1723 C 0.60826 0.07408 0.75569 0.0
C1724 C 0.61972 0.0138 0.7469 0.0
H1725 H 0.65471 0.97628 0.73369 0.0
C1726 C 0.59913 0.00299 0.74467 0.0
C1727 C 0.63993 0.00441 0.74256 0.0
C1728 C 0.66242 0.01606 0.74386 0.0
C1729 C 0.59826 0.98272 0.73845 0.0
C1730 C 0.61862 0.97272 0.73466 0.0
C1731 C 0.63913 0.98382 0.73669 0.0
C1732 C 0.61925 0.95067 0.72868 0.0
C1733 C 0.57554 0.97249 0.73585 0.0
C1734 C 0.60999 0.93142 0.73387 0.0
C1735 C 0.61202 0.91039 0.72857 0.0
C1736 C 0.6238 0.90818 0.71812 0.0
C1737 C 0.63297 0.92745 0.7129 0.0
C1738 C 0.63063 0.94852 0.71811 0.0
H1739 H 0.56203 0.98545 0.73589 0.0
H1740 H 0.57548 0.96392 0.72733 0.0
H1741 H 0.57138 0.95991 0.74259 0.0
H1742 H 0.60171 0.93252 0.74218 0.0
H1743 H 0.60496 0.89578 0.73285 0.0
H1744 H 0.68171 0.60092 0.03224 0.0
H1745 H 0.71938 0.6045 0.02389 0.0
H1746 H 0.69197 0.64388 -0.00408 0.0
H1747 H 0.6545 0.64117 0.0045 0.0
H1748 H 0.73206 0.58787 0.00424 0.0
H1749 H 0.74724 0.6796 0.0027 0.0
H1750 H 0.72455 0.66743 0.01099 0.0
H1751 H 0.72124 0.6724 -0.00426 0.0
C1752 C 0.68383 0.61074 0.02444 0.0
C1753 C 0.66521 0.62077 0.01901 0.0
C1754 C 0.70534 0.61277 0.01967 0.0
C1755 C 0.70858 0.62468 0.00934 0.0
C1756 C 0.69005 0.63515 0.00406 0.0
H1757 H 0.8121 0.59381 0.95957 0.0
H1758 H 0.77717 0.59818 0.97053 0.0
C1759 C 0.66859 0.63344 0.00893 0.0
C1760 C 0.73078 0.62411 0.00347 0.0
H1761 H 0.7702 0.65688 0.99011 0.0
C1762 C 0.74052 0.603 0.00129 0.0
C1763 C 0.74198 0.64384 -0.00027 0.0
C1764 C 0.73331 0.66709 0.00253 0.0
C1765 C 0.76081 0.60102 -0.0048 0.0
C1766 C 0.77125 0.62065 0.99081 0.0
C1767 C 0.76193 0.64182 -0.00671 0.0
C1768 C 0.79193 0.61946 0.98369 0.0
C1769 C 0.77095 0.57789 -0.00632 0.0
C1770 C 0.81149 0.63093 0.98712 0.0
C1771 C 0.83135 0.62882 0.98075 0.0
C1772 C 0.83198 0.6151 0.97087 0.0
C1773 C 0.81217 0.60426 0.96723 0.0
C1774 C 0.79226 0.60662 0.97352 0.0
H1775 H 0.76497 0.56605 0.00044 0.0
H1776 H 0.76578 0.57099 0.98519 0.0
H1777 H 0.78965 0.57852 -0.00601 0.0
H1778 H 0.81154 0.64106 -0.0051 0.0
H1779 H 0.84636 0.63741 0.98374 0.0
H1780 H 0.15289 0.93088 0.77318 0.0
H1781 H 0.14664 0.96772 0.76444 0.0
H1782 H 0.08189 0.94562 0.75184 0.0
H1783 H 0.08816 0.90849 0.76043 0.0
H1784 H 0.10787 0.96427 0.735 0.0
H1785 H 0.10634 0.02035 0.77309 0.0
H1786 H 0.13069 0.00245 0.773 0.0
H1787 H 0.10303 0.9902 0.77422 0.0
C1788 C 0.13717 0.93394 0.76869 0.0
C1789 C 0.12104 0.91677 0.76746 0.0
C1790 C 0.13354 0.95507 0.76378 0.0
C1791 C 0.11365 0.9595 0.75765 0.0
C1792 C 0.09728 0.94257 0.75662 0.0
H1793 H 0.09265 0.09426 0.72836 0.0
H1794 H 0.08614 0.05903 0.73886 0.0
C1795 C 0.1009 0.92138 0.76152 0.0
C1796 C 0.11105 0.98106 0.75141 0.0
H1797 H 0.1146 0.03801 0.75483 0.0
C1798 C 0.10896 0.98041 0.73935 0.0
C1799 C 0.11215 0.00209 0.75711 0.0
C1800 C 0.11293 0.00386 0.77008 0.0
C1801 C 0.1092 0.00022 0.73278 0.0
C1802 C 0.11199 0.02113 0.73843 0.0
C1803 C 0.11279 0.02189 0.75052 0.0
C1804 C 0.11548 0.04221 0.7319 0.0
C1805 C 0.10679 -0.00145 0.71985 0.0
C1806 C 0.13427 0.04443 0.72464 0.0
C1807 C 0.13804 0.06446 0.71866 0.0
C1808 C 0.12315 0.08268 0.71988 0.0
C1809 C 0.10439 0.08047 0.72722 0.0
C1810 C 0.10064 0.0604 0.73322 0.0
H1811 H 0.09809 0.98275 0.71728 0.0
H1812 H 0.09725 0.01309 0.71634 0.0
H1813 H 0.12379 -0.00153 0.71586 0.0
H1814 H 0.14618 0.03074 0.72371 0.0
H1815 H 0.15271 0.06567 0.71313 0.0
H1816 H 0.81286 0.39863 0.52556 0.0
H1817 H 0.77648 0.39279 0.51622 0.0
H1818 H 0.79993 0.32964 0.50232 0.0
H1819 H 0.83663 0.33553 0.5115 0.0
H1820 H 0.78143 0.35674 0.48591 0.0
H1821 H 0.72409 0.35112 0.52342 0.0
H1822 H 0.74164 0.37569 0.52405 0.0
H1823 H 0.75428 0.34817 0.52475 0.0
C1824 C 0.8102 0.38333 0.52066 0.0
C1825 C 0.82762 0.36755 0.51925 0.0
C1826 C 0.78932 0.37994 0.51539 0.0
C1827 C 0.7854 0.36062 0.50872 0.0
C1828 C 0.80259 0.34459 0.5075 0.0
H1829 H 0.65106 0.34122 0.47857 0.0
H1830 H 0.68641 0.33389 0.48883 0.0
C1831 C 0.82352 0.34798 0.51276 0.0
C1832 C 0.76406 0.35829 0.50222 0.0
H1833 H 0.70691 0.36077 0.50522 0.0
C1834 C 0.76513 0.35725 0.49014 0.0
C1835 C 0.74281 0.3586 0.50775 0.0
C1836 C 0.7406 0.35821 0.52071 0.0
C1837 C 0.74551 0.35776 0.48341 0.0
C1838 C 0.72435 0.35978 0.48892 0.0
C1839 C 0.7232 0.35954 0.50101 0.0
C1840 C 0.70336 0.36353 0.48231 0.0
C1841 C 0.74764 0.35641 0.47045 0.0
C1842 C 0.70119 0.3827 0.47533 0.0
C1843 C 0.68109 0.38692 0.46946 0.0
C1844 C 0.66273 0.37213 0.47055 0.0
C1845 C 0.66494 0.3529 0.47754 0.0
C1846 C 0.68509 0.34869 0.48341 0.0
H1847 H 0.76355 0.34794 0.46785 0.0
H1848 H 0.73322 0.34719 0.46659 0.0
H1849 H 0.74791 0.37371 0.46683 0.0
H1850 H 0.71492 0.39464 0.47458 0.0
H1851 H 0.67987 0.40193 0.4642 0.0
H1852 H 0.3397 0.06157 0.27122 0.0
H1853 H 0.34799 0.02641 0.26119 0.0
H1854 H 0.41011 0.05465 0.24835 0.0
H1855 H 0.40178 0.09013 0.25824 0.0
H1856 H 0.38489 0.03469 0.23138 0.0
H1857 H 0.39331 0.97717 0.26863 0.0
H1858 H 0.36758 0.99297 0.26921 0.0
H1859 H 0.39421 0.00743 0.27013 0.0
C1860 C 0.35525 0.06025 0.26637 0.0
C1861 C 0.3701 0.07861 0.26552 0.0
C1862 C 0.36004 0.04008 0.26071 0.0
C1863 C 0.37984 0.03782 0.2542 0.0
C1864 C 0.39482 0.05603 0.25341 0.0
H1865 H 0.40402 0.9039 0.22491 0.0
H1866 H 0.41161 0.94005 0.2343 0.0
C1867 C 0.39003 0.07626 0.25907 0.0
C1868 C 0.38394 0.01693 0.24759 0.0
H1869 H 0.3848 0.9598 0.25032 0.0
C1870 C 0.38528 0.01831 0.23552 0.0
C1871 C 0.38491 -0.00436 0.25301 0.0
C1872 C 0.38518 0.9932 0.26597 0.0
C1873 C 0.38608 -0.00116 0.22869 0.0
C1874 C 0.38509 0.97752 0.23409 0.0
C1875 C 0.38525 0.97617 0.24618 0.0
C1876 C 0.38199 0.95651 0.22743 0.0
C1877 C 0.38759 0.0013 0.21576 0.0
C1878 C 0.36288 0.95386 0.22043 0.0
C1879 C 0.35852 0.9333 0.21505 0.0
C1880 C 0.37308 0.91494 0.21668 0.0
C1881 C 0.39249 0.91775 0.22349 0.0
C1882 C 0.39686 0.93837 0.22886 0.0
H1883 H 0.39583 0.01742 0.21332 0.0
H1884 H 0.39714 0.98718 0.21183 0.0
H1885 H 0.37033 0.00138 0.21207 0.0
H1886 H 0.35088 0.96746 0.21944 0.0
H1887 H 0.34338 0.93163 0.2099 0.0
H1888 H 0.83768 0.85515 0.4823 0.0
H1889 H 0.80088 0.85246 0.49167 0.0
H1890 H 0.77084 0.88976 0.46367 0.0
H1891 H 0.80777 0.89325 0.45448 0.0
H1892 H 0.75865 0.90666 0.48369 0.0
H1893 H 0.74664 0.81429 0.48527 0.0
H1894 H 0.77257 0.82288 0.4919 0.0
H1895 H 0.76839 0.82733 0.47668 0.0
C1896 C 0.82317 0.86251 0.47807 0.0
C1897 C 0.82558 0.87443 0.46767 0.0
C1898 C 0.80211 0.86082 0.48339 0.0
C1899 C 0.78302 0.8706 0.47829 0.0
C1900 C 0.78533 0.88203 0.46775 0.0
H1901 H 0.64464 0.85325 0.50113 0.0
H1902 H 0.6808 0.85105 0.49107 0.0
C1903 C 0.80643 0.88399 0.4625 0.0
C1904 C 0.76101 0.87049 0.48434 0.0
H1905 H 0.7221 0.8363 0.49717 0.0
C1906 C 0.75058 0.89125 0.48655 0.0
C1907 C 0.75038 0.85037 0.48798 0.0
C1908 C 0.75996 0.82746 0.48523 0.0
C1909 C 0.72997 0.89251 0.49242 0.0
C1910 C 0.71986 0.87248 0.49653 0.0
C1911 C 0.73007 0.85166 0.49416 0.0
C1912 C 0.69839 0.8728 0.50305 0.0
C1913 C 0.71904 0.91528 0.49392 0.0
C1914 C 0.69644 0.88528 0.51329 0.0
C1915 C 0.67574 0.8868 0.51897 0.0
C1916 C 0.65674 0.8755 0.51463 0.0
C1917 C 0.65898 0.86219 0.50467 0.0
C1918 C 0.67962 0.86089 0.49892 0.0
H1919 H 0.72537 0.92762 0.48749 0.0
H1920 H 0.70043 0.91413 0.4931 0.0
H1921 H 0.72309 0.92189 0.50263 0.0
H1922 H 0.71087 0.89409 0.51681 0.0
H1923 H 0.67459 0.89698 0.52671 0.0
H1924 H 0.39681 0.59087 0.72886 0.0
H1925 H 0.40433 0.5554 0.73892 0.0
H1926 H 0.34553 0.52582 0.72312 0.0
H1927 H 0.33807 0.56099 0.71293 0.0
H1928 H 0.37695 0.53383 0.75453 0.0
H1929 H 0.39376 0.47851 0.71711 0.0
H1930 H 0.39381 0.50884 0.71602 0.0
H1931 H 0.36766 0.49347 0.71565 0.0
C1932 C 0.38561 0.57673 0.72745 0.0
C1933 C 0.36687 0.57869 0.72008 0.0
C1934 C 0.38994 0.55651 0.7332 0.0
C1935 C 0.37571 0.5379 0.73161 0.0
C1936 C 0.35703 0.53981 0.72425 0.0
H1937 H 0.3388 0.42739 0.77344 0.0
H1938 H 0.34506 0.46391 0.76437 0.0
C1939 C 0.35271 0.55998 0.71849 0.0
C1940 C 0.37944 0.51685 0.73815 0.0
H1941 H 0.38369 0.45997 0.73484 0.0
C1942 C 0.37879 0.5177 0.75024 0.0
C1943 C 0.38228 0.4959 0.73255 0.0
C1944 C 0.38467 0.49411 0.71962 0.0
C1945 C 0.37956 0.49796 0.75687 0.0
C1946 C 0.3806 0.47689 0.75122 0.0
C1947 C 0.38261 0.47614 0.73916 0.0
C1948 C 0.37793 0.4554 0.75753 0.0
C1949 C 0.37894 0.49986 0.76985 0.0
C1950 C 0.39421 0.43838 0.75656 0.0
C1951 C 0.39058 0.41736 0.76166 0.0
C1952 C 0.37053 0.41301 0.76773 0.0
C1953 C 0.35446 0.43024 0.76886 0.0
C1954 C 0.35809 0.4512 0.76376 0.0
H1955 H 0.38569 0.51634 0.77279 0.0
H1956 H 0.36121 0.49861 0.77283 0.0
H1957 H 0.38879 0.48618 0.77399 0.0
H1958 H 0.40955 0.44125 0.75171 0.0
H1959 H 0.40325 0.40439 0.76063 0.0
H1960 H 0.8076 0.09004 0.02444 0.0
H1961 H 0.77116 0.09534 0.01504 0.0
H1962 H 0.79357 0.15913 0.00146 0.0
H1963 H 0.83033 0.15381 0.01069 0.0
H1964 H 0.73826 0.12934 0.01607 0.0
H1965 H 0.77733 0.12245 0.97254 0.0
H1966 H 0.79231 0.11518 0.98556 0.0
H1967 H 0.78837 0.14421 0.98172 0.0
C1968 C 0.80472 0.10533 0.01956 0.0
C1969 C 0.82192 0.12139 0.01818 0.0
C1970 C 0.78387 0.10834 0.01422 0.0
C1971 C 0.77985 0.12743 0.00741 0.0
C1972 C 0.79653 0.14409 0.00652 0.0
H1973 H 0.64626 0.14818 0.97618 0.0
H1974 H 0.68131 0.15501 0.98679 0.0
C1975 C 0.81746 0.14107 0.01183 0.0
C1976 C 0.75869 0.12899 0.00073 0.0
H1977 H 0.73798 0.12653 0.97329 0.0
C1978 C 0.73813 0.12899 0.00672 0.0
C1979 C 0.7587 0.12827 0.98853 0.0
C1980 C 0.78031 0.12735 0.98167 0.0
C1981 C 0.71752 0.12775 0.00082 0.0
C1982 C 0.71756 0.1268 0.98863 0.0
C1983 C 0.73809 0.12739 0.98264 0.0
C1984 C 0.69662 0.12333 0.98195 0.0
C1985 C 0.69594 0.12645 0.00768 0.0
C1986 C 0.69394 0.10355 0.97549 0.0
C1987 C 0.67407 0.09966 0.96937 0.0
C1988 C 0.65653 0.11554 0.96959 0.0
C1989 C 0.65943 0.13557 0.9759 0.0
C1990 C 0.67937 0.13946 0.98201 0.0
H1991 H 0.69912 0.12297 0.01696 0.0
H1992 H 0.68689 0.14274 0.00703 0.0
H1993 H 0.68472 0.1131 0.00421 0.0
H1994 H 0.70712 0.09093 0.97532 0.0
H1995 H 0.67237 0.08409 0.96458 0.0
H1996 H 0.09042 0.59009 0.25823 0.0
H1997 H 0.08368 0.55417 0.24844 0.0
H1998 H 0.14608 0.52825 0.26215 0.0
H1999 H 0.1528 0.56388 0.27206 0.0
H2000 H 0.11063 0.53471 0.23186 0.0
H2001 H 0.10168 0.47782 0.26938 0.0
H2002 H 0.09981 0.50806 0.27065 0.0
H2003 H 0.12689 0.49445 0.27011 0.0
C2004 C 0.10256 0.57663 0.25927 0.0
C2005 C 0.12213 0.57978 0.26593 0.0
C2006 C 0.09869 0.55616 0.25367 0.0
C2007 C 0.11422 0.53847 0.25472 0.0
C2008 C 0.13363 0.54151 0.26145 0.0
H2009 H 0.15114 0.4303 0.21086 0.0
H2010 H 0.14484 0.46632 0.22048 0.0
C2011 C 0.13752 0.56194 0.26705 0.0
C2012 C 0.11103 0.51733 0.24818 0.0
H2013 H 0.11043 0.46024 0.25123 0.0
C2014 C 0.11023 0.51842 0.23609 0.0
C2015 C 0.11012 0.49615 0.25372 0.0
C2016 C 0.10942 0.49402 0.26669 0.0
C2017 C 0.10979 0.49879 0.22937 0.0
C2018 C 0.11058 0.4776 0.23491 0.0
C2019 C 0.11012 0.47653 0.247 0.0
C2020 C 0.1133 0.45638 0.22837 0.0
C2021 C 0.10874 0.50094 0.21641 0.0
C2022 C 0.0978 0.43874 0.22975 0.0
C2023 C 0.10146 0.41804 0.22434 0.0
C2024 C 0.12077 0.41461 0.21753 0.0
C2025 C 0.13605 0.43245 0.21601 0.0
C2026 C 0.1324 0.45311 0.22143 0.0
H2027 H 0.10099 0.51718 0.21378 0.0
H2028 H 0.12611 0.50047 0.21286 0.0
H2029 H 0.09896 0.48694 0.21251 0.0
H2030 H 0.08304 0.4409 0.23514 0.0
H2031 H 0.08939 0.4046 0.22568 0.0
H2032 H 0.17836 0.08969 0.5226 0.0
H2033 H 0.21391 0.09784 0.51285 0.0
H2034 H 0.18749 0.16159 0.50128 0.0
H2035 H 0.15167 0.15345 0.51091 0.0
H2036 H 0.2064 0.13667 0.48376 0.0
H2037 H 0.2647 0.14131 0.52095 0.0
H2038 H 0.24804 0.11609 0.52108 0.0
H2039 H 0.23446 0.14303 0.52255 0.0
C2040 C 0.18019 0.10558 0.51811 0.0
C2041 C 0.16222 0.12093 0.51752 0.0
C2042 C 0.20058 0.11028 0.51261 0.0
C2043 C 0.20343 0.13046 0.50649 0.0
C2044 C 0.18565 0.14599 0.50603 0.0
H2045 H 0.33657 0.15728 0.47661 0.0
H2046 H 0.30067 0.16335 0.48657 0.0
C2047 C 0.16522 0.14131 0.51153 0.0
C2048 C 0.22437 0.13443 0.49988 0.0
H2049 H 0.28164 0.13447 0.5024 0.0
C2050 C 0.22285 0.13656 0.48784 0.0
C2051 C 0.24578 0.13467 0.50524 0.0
C2052 C 0.24837 0.13389 0.51818 0.0
C2053 C 0.24226 0.13762 0.48096 0.0
C2054 C 0.26367 0.13614 0.48627 0.0
C2055 C 0.26518 0.13533 0.49834 0.0
C2056 C 0.2846 0.13374 0.47945 0.0
C2057 C 0.23966 0.13998 0.46807 0.0
C2058 C 0.28739 0.11511 0.47215 0.0
C2059 C 0.30781 0.1116 0.46646 0.0
C2060 C 0.32588 0.12657 0.46804 0.0
C2061 C 0.32293 0.14547 0.4752 0.0
C2062 C 0.30246 0.14896 0.4809 0.0
H2063 H 0.22336 0.14804 0.4658 0.0
H2064 H 0.2536 0.15008 0.46431 0.0
H2065 H 0.23994 0.12301 0.46407 0.0
H2066 H 0.27398 0.10288 0.47112 0.0
H2067 H 0.30958 0.09684 0.46105 0.0
H2068 H 0.58767 0.40091 0.26113 0.0
H2069 H 0.58229 0.43724 0.25152 0.0
H2070 H 0.64762 0.45903 0.26344 0.0
H2071 H 0.653 0.423 0.27321 0.0
H2072 H 0.61409 0.49184 0.26567 0.0
H2073 H 0.61545 0.45433 0.22168 0.0
H2074 H 0.59473 0.44297 0.23137 0.0
H2075 H 0.62417 0.4389 0.23432 0.0
C2076 C 0.60082 0.4135 0.26177 0.0
C2077 C 0.62084 0.40905 0.26785 0.0
C2078 C 0.59775 0.43418 0.25623 0.0
C2079 C 0.61472 0.45062 0.25663 0.0
C2080 C 0.63437 0.44649 0.263 0.0
H2081 H 0.65018 0.56072 0.2133 0.0
H2082 H 0.64549 0.52514 0.22358 0.0
C2083 C 0.63743 0.42589 0.26856 0.0
C2084 C 0.61247 0.47196 0.25016 0.0
H2085 H 0.61061 0.4936 0.22291 0.0
C2086 C 0.61313 0.49228 0.25632 0.0
C2087 C 0.61144 0.47236 0.23797 0.0
C2088 C 0.61158 0.45102 0.2309 0.0
C2089 C 0.61324 0.51308 0.2506 0.0
C2090 C 0.6123 0.51348 0.23841 0.0
C2091 C 0.61118 0.49317 0.23226 0.0
C2092 C 0.61422 0.53473 0.23184 0.0
C2093 C 0.61532 0.53439 0.25762 0.0
C2094 C 0.59795 0.55173 0.23292 0.0
C2095 C 0.60064 0.57215 0.22709 0.0
C2096 C 0.61956 0.57579 0.22003 0.0
C2097 C 0.63546 0.55846 0.2187 0.0
C2098 C 0.63279 0.53811 0.22455 0.0
H2099 H 0.62059 0.53092 0.26664 0.0
H2100 H 0.62771 0.54608 0.25365 0.0
H2101 H 0.59874 0.54302 0.25788 0.0
H2102 H 0.58329 0.54926 0.23834 0.0
H2103 H 0.58803 0.58515 0.22822 0.0
H2104 H 0.17322 0.8967 0.95504 0.0
H2105 H 0.20924 0.89176 0.96493 0.0
H2106 H 0.17601 0.85392 -0.00821 0.0
H2107 H 0.14004 0.85808 0.9817 0.0
H2108 H 0.22078 0.90684 0.98545 0.0
H2109 H 0.22904 0.81395 0.98535 0.0
H2110 H 0.20839 0.8285 0.9767 0.0
H2111 H 0.20316 0.82327 -0.00824 0.0
C2112 C 0.17363 0.88712 0.96299 0.0
C2113 C 0.15385 0.87774 0.9676 0.0
C2114 C 0.19422 0.8843 0.96863 0.0
C2115 C 0.19538 0.87219 0.97902 0.0
C2116 C 0.17563 0.86279 0.98363 0.0
H2117 H 0.30426 0.89161 0.02803 0.0
H2118 H 0.26761 0.88962 0.01845 0.0
C2119 C 0.15507 0.86534 0.97791 0.0
C2120 C 0.21702 0.87077 0.98535 0.0
H2121 H 0.25436 0.83414 -0.00241 0.0
C2122 C 0.22817 0.89093 0.98805 0.0
C2123 C 0.22677 0.84998 0.98862 0.0
C2124 C 0.21634 0.82769 0.98536 0.0
C2125 C 0.24872 0.89093 -0.006 0.0
C2126 C 0.25799 0.87022 -0.0023 0.0
C2127 C 0.24701 0.85001 -0.0051 0.0
C2128 C 0.27945 0.86927 0.00419 0.0
C2129 C 0.26052 0.91313 -0.00401 0.0
C2130 C 0.29791 0.85742 -0.00032 0.0
C2131 C 0.31878 0.85819 0.00525 0.0
C2132 C 0.3215 0.87093 0.01537 0.0
C2133 C 0.30272 0.8819 0.02015 0.0
C2134 C 0.28182 0.88089 0.01466 0.0
H2135 H 0.25463 0.92626 0.98986 0.0
H2136 H 0.2568 0.91913 0.00485 0.0
H2137 H 0.27906 0.91137 -0.00492 0.0
H2138 H 0.29638 0.84822 -0.00835 0.0
H2139 H 0.33296 0.84951 0.00139 0.0
H2140 H 0.84159 0.4268 0.71416 0.0
H2141 H 0.84943 0.46208 0.72417 0.0
H2142 H 0.90955 0.43319 0.73894 0.0
H2143 H 0.90167 0.39758 0.72904 0.0
H2144 H 0.88284 0.45484 0.755 0.0
H2145 H 0.89706 0.50962 0.7171 0.0
H2146 H 0.87106 0.49432 0.71605 0.0
H2147 H 0.89739 0.47926 0.71616 0.0
C2148 C 0.85658 0.42797 0.71946 0.0
C2149 C 0.87104 0.40942 0.7208 0.0
C2150 C 0.86112 0.4482 0.72511 0.0
C2151 C 0.88028 0.45035 0.73212 0.0
C2152 C 0.89478 0.43189 0.73348 0.0
H2153 H 0.90648 0.58513 0.75993 0.0
H2154 H 0.91334 0.5482 0.75121 0.0
C2155 C 0.89025 0.4116 0.72783 0.0
C2156 C 0.88427 0.47153 0.73851 0.0
H2157 H 0.8874 0.52839 0.73485 0.0
C2158 C 0.88423 0.47091 0.75061 0.0
C2159 C 0.88653 0.49241 0.73276 0.0
C2160 C 0.88826 0.49396 0.7198 0.0
C2161 C 0.88497 0.4908 0.75712 0.0
C2162 C 0.88533 0.51177 0.75135 0.0
C2163 C 0.88682 0.5123 0.73927 0.0
C2164 C 0.88242 0.53334 0.75756 0.0
C2165 C 0.88499 0.48916 0.77011 0.0
C2166 C 0.8628 0.53718 0.76402 0.0
C2167 C 0.85885 0.55818 0.76901 0.0
C2168 C 0.87437 0.57582 0.76753 0.0
C2169 C 0.89422 0.57185 0.76122 0.0
C2170 C 0.89817 0.55078 0.75625 0.0
H2171 H 0.89231 0.47293 0.77305 0.0
H2172 H 0.89466 0.50319 0.77407 0.0
H2173 H 0.86737 0.48997 0.7733 0.0
H2174 H 0.85014 0.52413 0.7649 0.0
H2175 H 0.84336 0.56074 0.77378 0.0
H2176 H 0.13534 0.40096 0.06577 0.0
H2177 H 0.15023 0.39874 0.08546 0.0
H2178 H 0.08338 0.38409 0.09818 0.0
H2179 H 0.06834 0.38784 0.07871 0.0
H2180 H 0.10332 0.41077 0.11237 0.0
H2181 H 0.16295 0.34172 0.10172 0.0
H2182 H 0.1683 0.36736 0.09405 0.0
H2183 H 0.14259 0.35201 0.09149 0.0
C2184 C 0.12389 0.3974 0.07282 0.0
C2185 C 0.10075 0.39441 0.07076 0.0
C2186 C 0.13241 0.39597 0.08404 0.0
C2187 C 0.11803 0.39069 0.09328 0.0
C2188 C 0.09484 0.38817 0.09121 0.0
H2189 H 0.14079 0.31842 0.15459 0.0
H2190 H 0.13605 0.33334 0.13517 0.0
C2191 C 0.08625 0.39025 0.08008 0.0
C2192 C 0.12683 0.38709 0.1051 0.0
H2193 H 0.16214 0.35397 0.12095 0.0
C2194 C 0.11624 0.3984 0.11426 0.0
C2195 C 0.14371 0.37092 0.10754 0.0
C2196 C 0.15491 0.35715 0.0982 0.0
C2197 C 0.12101 0.39306 0.12578 0.0
C2198 C 0.13775 0.37675 0.12822 0.0
C2199 C 0.14932 0.36646 0.11906 0.0
C2200 C 0.14172 0.36813 0.14004 0.0
C2201 C 0.10701 0.40392 0.13514 0.0
C2202 C 0.14675 0.38265 0.14926 0.0
C2203 C 0.14878 0.37416 0.16047 0.0
C2204 C 0.14662 0.35096 0.16252 0.0
C2205 C 0.1426 0.33637 0.15323 0.0
C2206 C 0.13995 0.3449 0.14212 0.0
H2207 H 0.0913 0.41149 0.13164 0.0
H2208 H 0.10228 0.39151 0.14188 0.0
H2209 H 0.1169 0.41759 0.13925 0.0
H2210 H 0.14892 0.40052 0.14782 0.0
H2211 H 0.1522 0.38569 0.1675 0.0
H2212 H 0.86369 0.87226 0.41654 0.0
H2213 H 0.85063 0.86755 0.39665 0.0
H2214 H 0.89787 0.91814 0.3853 0.0
H2215 H 0.91144 0.92254 0.40506 0.0
H2216 H 0.83272 0.8968 0.38013 0.0
H2217 H 0.91598 0.86311 0.36657 0.0
H2218 H 0.90845 0.8669 0.38152 0.0
H2219 H 0.91723 0.8906 0.37296 0.0
C2220 C 0.87118 0.88249 0.40982 0.0
C2221 C 0.88885 0.89749 0.41232 0.0
C2222 C 0.86367 0.87982 0.39848 0.0
C2223 C 0.87363 0.89218 0.38952 0.0
C2224 C 0.89036 0.90807 0.39208 0.0
H2225 H 0.86305 0.87998 0.31504 0.0
H2226 H 0.86857 0.89555 0.33437 0.0
C2227 C 0.89806 0.91057 0.40337 0.0
C2228 C 0.86742 0.88755 0.37741 0.0
H2229 H 0.88889 0.86844 0.35194 0.0
C2230 C 0.84497 0.89065 0.37394 0.0
C2231 C 0.88349 0.87943 0.36941 0.0
C2232 C 0.90758 0.87459 0.3728 0.0
C2233 C 0.83817 0.88589 0.3626 0.0
C2234 C 0.85424 0.87773 0.35465 0.0
C2235 C 0.87671 0.87493 0.35808 0.0
C2236 C 0.84804 0.87048 0.3429 0.0
C2237 C 0.81393 0.88961 0.35919 0.0
C2238 C 0.83447 0.8514 0.34136 0.0
C2239 C 0.83141 0.84235 0.33037 0.0
C2240 C 0.84192 0.85224 0.32074 0.0
C2241 C 0.85474 0.87194 0.32228 0.0
C2242 C 0.85789 0.8809 0.33329 0.0
H2243 H 0.80513 0.90101 0.36531 0.0
H2244 H 0.8128 0.89682 0.35037 0.0
H2245 H 0.80497 0.87321 0.35918 0.0
H2246 H 0.82708 0.84292 0.34872 0.0
H2247 H 0.82137 0.82721 0.32947 0.0
H2248 H 0.36626 0.60303 0.66925 0.0
H2249 H 0.37399 0.58548 0.65054 0.0
H2250 H 0.33353 0.63592 0.63363 0.0
H2251 H 0.32559 0.65353 0.65221 0.0
H2252 H 0.32757 0.58911 0.62555 0.0
H2253 H 0.41678 0.61852 0.62723 0.0
H2254 H 0.40645 0.60264 0.63934 0.0
H2255 H 0.39524 0.63012 0.63648 0.0
C2256 C 0.3588 0.61026 0.66157 0.0
C2257 C 0.34553 0.62984 0.6622 0.0
C2258 C 0.36326 0.60021 0.6509 0.0
C2259 C 0.35448 0.60959 0.64076 0.0
C2260 C 0.34045 0.6285 0.6414 0.0
H2261 H 0.36332 0.60649 0.56773 0.0
H2262 H 0.35133 0.60844 0.58785 0.0
C2263 C 0.33604 0.63858 0.65202 0.0
C2264 C 0.3611 0.60086 0.62934 0.0
H2265 H 0.40487 0.60059 0.61032 0.0
C2266 C 0.34452 0.59132 0.62223 0.0
C2267 C 0.38324 0.60379 0.62511 0.0
C2268 C 0.4015 0.61444 0.63237 0.0
C2269 C 0.34944 0.58502 0.61084 0.0
C2270 C 0.37134 0.58889 0.60644 0.0
C2271 C 0.38809 0.59765 0.61372 0.0
C2272 C 0.37699 0.5856 0.59413 0.0
C2273 C 0.33112 0.57443 0.60363 0.0
C2274 C 0.39556 0.57234 0.59101 0.0
C2275 C 0.40268 0.57148 0.57954 0.0
C2276 C 0.39136 0.5839 0.57099 0.0
C2277 C 0.37235 0.59665 0.5741 0.0
C2278 C 0.36534 0.59762 0.58558 0.0
H2279 H 0.31842 0.5658 0.60912 0.0
H2280 H 0.32228 0.58778 0.5987 0.0
H2281 H 0.33816 0.56206 0.59741 0.0
H2282 H 0.40486 0.56306 0.59749 0.0
H2283 H 0.41732 0.5614 0.57743 0.0
H2284 H 0.62548 0.11081 0.81741 0.0
H2285 H 0.62349 0.09667 0.83722 0.0
H2286 H 0.67807 0.14071 0.847 0.0
H2287 H 0.67979 0.15538 0.82733 0.0
H2288 H 0.65422 0.07685 0.85276 0.0
H2289 H 0.62607 0.1615 0.86741 0.0
H2290 H 0.62762 0.15393 0.85237 0.0
H2291 H 0.65281 0.16111 0.86017 0.0
C2292 C 0.63723 0.11729 0.82374 0.0
C2293 C 0.6525 0.13451 0.82088 0.0
C2294 C 0.63612 0.10915 0.83504 0.0
C2295 C 0.65033 0.11801 0.84358 0.0
C2296 C 0.66662 0.13405 0.84056 0.0
H2297 H 0.63514 0.1076 0.91819 0.0
H2298 H 0.6531 0.11251 0.89935 0.0
C2299 C 0.66758 0.14238 0.82933 0.0
C2300 C 0.6468 0.11185 0.85579 0.0
H2301 H 0.62967 0.13355 0.88158 0.0
C2302 C 0.64903 0.08923 0.8591 0.0
C2303 C 0.63998 0.1281 0.86401 0.0
C2304 C 0.63627 0.15249 0.86083 0.0
C2305 C 0.64432 0.08238 0.87044 0.0
C2306 C 0.63703 0.09856 0.87856 0.0
C2307 C 0.63548 0.12125 0.87533 0.0
C2308 C 0.6287 0.0923 0.89012 0.0
C2309 C 0.64698 0.05791 0.87361 0.0
C2310 C 0.60923 0.07907 0.89114 0.0
C2311 C 0.59886 0.07634 0.90185 0.0
C2312 C 0.60772 0.0869 0.91171 0.0
C2313 C 0.62785 0.09928 0.91075 0.0
C2314 C 0.63817 0.10206 0.90002 0.0
H2315 H 0.65893 0.0492 0.86773 0.0
H2316 H 0.65304 0.05603 0.88263 0.0
H2317 H 0.63039 0.04939 0.87289 0.0
H2318 H 0.60138 0.0718 0.88357 0.0
H2319 H 0.58343 0.06662 0.90229 0.0
H2320 H 0.18106 0.65992 0.32821 0.0
H2321 H 0.17901 0.64545 0.34789 0.0
H2322 H 0.12686 0.59898 0.33754 0.0
H2323 H 0.12926 0.61292 0.31776 0.0
H2324 H 0.14221 0.64986 0.36069 0.0
H2325 H 0.16415 0.5595 0.35836 0.0
H2326 H 0.17044 0.57895 0.34682 0.0
H2327 H 0.14271 0.56688 0.34813 0.0
C2328 C 0.16946 0.64631 0.33007 0.0
C2329 C 0.15517 0.63768 0.32146 0.0
C2330 C 0.16838 0.63801 0.34131 0.0
C2331 C 0.15296 0.62099 0.34416 0.0
C2332 C 0.13929 0.61172 0.33548 0.0
H2333 H 0.07906 0.5782 0.40235 0.0
H2334 H 0.09738 0.58337 0.38368 0.0
C2335 C 0.14053 0.61985 0.32419 0.0
C2336 C 0.14896 0.61521 0.35639 0.0
H2337 H 0.1426 0.57118 0.37503 0.0
C2338 C 0.14276 0.63271 0.36389 0.0
C2339 C 0.14961 0.59282 0.36052 0.0
C2340 C 0.15732 0.57351 0.35305 0.0
C2341 C 0.13612 0.62832 0.37525 0.0
C2342 C 0.13592 0.60585 0.37924 0.0
C2343 C 0.14281 0.58839 0.3719 0.0
C2344 C 0.12668 0.6002 0.39068 0.0
C2345 C 0.1283 0.64763 0.38273 0.0
C2346 C 0.13744 0.6075 0.40078 0.0
C2347 C 0.12698 0.60469 0.41147 0.0
C2348 C 0.1056 0.59452 0.4122 0.0
C2349 C 0.09542 0.58629 0.40209 0.0
C2350 C 0.1059 0.58909 0.39142 0.0
H2351 H 0.12609 0.66343 0.37772 0.0
H2352 H 0.11207 0.64342 0.38698 0.0
H2353 H 0.14096 0.65079 0.38958 0.0
H2354 H 0.1536 0.61595 0.40033 0.0
H2355 H 0.13537 0.61105 0.41911 0.0
H2356 H 0.64807 0.88208 0.66771 0.0
H2357 H 0.64469 0.89861 0.64838 0.0
H2358 H 0.63239 0.83251 0.63419 0.0
H2359 H 0.63714 0.81594 0.65324 0.0
H2360 H 0.65913 0.8546 0.62067 0.0
H2361 H 0.58723 0.91042 0.63204 0.0
H2362 H 0.61271 0.91594 0.63987 0.0
H2363 H 0.59808 0.88968 0.64192 0.0
C2364 C 0.6447 0.87117 0.66042 0.0
C2365 C 0.64277 0.84778 0.66193 0.0
C2366 C 0.64265 0.88062 0.64941 0.0
C2367 C 0.63787 0.86686 0.63986 0.0
C2368 C 0.63615 0.84348 0.64141 0.0
H2369 H 0.56325 0.88592 0.57951 0.0
H2370 H 0.57937 0.8823 0.59875 0.0
C2371 C 0.63879 0.83402 0.65231 0.0
C2372 C 0.63411 0.87636 0.62819 0.0
H2373 H 0.59878 0.91012 0.61274 0.0
C2374 C 0.64602 0.86686 0.61892 0.0
C2375 C 0.61706 0.89243 0.62595 0.0
C2376 C 0.60289 0.9026 0.63544 0.0
C2377 C 0.64026 0.87163 0.60746 0.0
C2378 C 0.62283 0.88729 0.60521 0.0
C2379 C 0.61208 0.89807 0.61449 0.0
C2380 C 0.61344 0.89061 0.59348 0.0
C2381 C 0.65183 0.8586 0.59796 0.0
C2382 C 0.62715 0.89666 0.5841 0.0
C2383 C 0.61804 0.89803 0.57299 0.0
C2384 C 0.59494 0.89416 0.57121 0.0
C2385 C 0.58111 0.88902 0.58067 0.0
C2386 C 0.59031 0.88704 0.59167 0.0
H2387 H 0.66076 0.84352 0.60132 0.0
H2388 H 0.63954 0.85297 0.59133 0.0
H2389 H 0.66452 0.86955 0.59373 0.0
H2390 H 0.64489 0.90017 0.58533 0.0
H2391 H 0.62895 0.90236 0.56584 0.0
H2392 H 0.30785 0.32722 0.82676 0.0
H2393 H 0.30842 0.34116 0.84658 0.0
H2394 H 0.35862 0.39041 0.83715 0.0
H2395 H 0.35776 0.37699 0.81727 0.0
H2396 H 0.34496 0.3384 0.85983 0.0
H2397 H 0.31834 0.42742 0.85774 0.0
H2398 H 0.31337 0.40787 0.84607 0.0
H2399 H 0.34032 0.42155 0.84757 0.0
C2400 C 0.3187 0.34131 0.82885 0.0
C2401 C 0.33291 0.3509 0.82047 0.0
C2402 C 0.31892 0.3493 0.84017 0.0
C2403 C 0.33334 0.36699 0.84331 0.0
C2404 C 0.34692 0.37714 0.83486 0.0
H2405 H 0.40694 0.41347 0.90005 0.0
H2406 H 0.38714 0.40724 0.88189 0.0
C2407 C 0.34658 0.36929 0.82351 0.0
C2408 C 0.33656 0.37271 0.85561 0.0
H2409 H 0.34111 0.41692 0.87427 0.0
C2410 C 0.3436 0.35548 0.86307 0.0
C2411 C 0.33479 0.395 0.8598 0.0
C2412 C 0.32606 0.41396 0.85239 0.0
C2413 C 0.35028 0.36014 0.8744 0.0
C2414 C 0.34962 0.38261 0.87839 0.0
C2415 C 0.3416 0.39972 0.87114 0.0
C2416 C 0.35954 0.38882 0.88961 0.0
C2417 C 0.35926 0.34122 0.88179 0.0
C2418 C 0.35019 0.38099 0.89997 0.0
C2419 C 0.36153 0.38442 0.91039 0.0
C2420 C 0.38236 0.39574 0.91057 0.0
C2421 C 0.39105 0.40451 0.90021 0.0
C2422 C 0.3797 0.40109 0.88983 0.0
H2423 H 0.3618 0.32547 0.87678 0.0
H2424 H 0.37556 0.34609 0.88579 0.0
H2425 H 0.34714 0.33764 0.88884 0.0
H2426 H 0.33449 0.37167 0.89995 0.0
H2427 H 0.35429 0.37762 0.91823 0.0
H2428 H 0.82749 0.15531 0.15157 0.0
H2429 H 0.83391 0.13732 0.13294 0.0
H2430 H 0.87562 0.08713 0.14924 0.0
H2431 H 0.86932 0.10501 0.168 0.0
H2432 H 0.89579 0.11097 0.13053 0.0
H2433 H 0.81176 0.07713 0.11879 0.0
H2434 H 0.81126 0.10575 0.12379 0.0
H2435 H 0.81963 0.08365 0.13348 0.0
C2436 C 0.83779 0.14027 0.15124 0.0
C2437 C 0.848 0.13165 0.16126 0.0
C2438 C 0.84126 0.1299 0.1406 0.0
C2439 C 0.85497 0.11076 0.13977 0.0
C2440 C 0.86479 0.10178 0.14976 0.0
H2441 H 0.91452 0.06027 0.07549 0.0
H2442 H 0.90317 0.06204 0.09575 0.0
C2443 C 0.8612 0.11204 0.16045 0.0
C2444 C 0.86097 0.10182 0.12831 0.0
H2445 H 0.83819 0.08182 0.10331 0.0
C2446 C 0.88334 0.10417 0.12462 0.0
C2447 C 0.84458 0.09311 0.12068 0.0
C2448 C 0.82049 0.08954 0.1244 0.0
C2449 C 0.88957 0.09926 0.11324 0.0
C2450 C 0.87302 0.09122 0.10546 0.0
C2451 C 0.85081 0.08798 0.10931 0.0
C2452 C 0.87807 0.08794 0.09309 0.0
C2453 C 0.91349 0.10397 0.10949 0.0
C2454 C 0.86694 0.10114 0.08484 0.0
C2455 C 0.87317 0.09999 0.07325 0.0
C2456 C 0.89073 0.08567 0.06973 0.0
C2457 C 0.90115 0.07171 0.07796 0.0
C2458 C 0.89474 0.07273 0.08953 0.0
H2459 H 0.92262 0.11472 0.11579 0.0
H2460 H 0.92277 0.08783 0.10872 0.0
H2461 H 0.91381 0.11244 0.10095 0.0
H2462 H 0.85396 0.11294 0.08742 0.0
H2463 H 0.86473 0.11088 0.06713 0.0
H2464 H 0.82433 0.6664 0.82905 0.0
H2465 H 0.82868 0.65197 0.84867 0.0
H2466 H 0.86405 0.594 0.83554 0.0
H2467 H 0.85998 0.60827 0.81587 0.0
H2468 H 0.81764 0.60768 0.85947 0.0
H2469 H 0.90908 0.62836 0.85729 0.0
H2470 H 0.88883 0.63971 0.84723 0.0
H2471 H 0.8983 0.61115 0.84578 0.0
C2472 C 0.83281 0.65044 0.8303 0.0
C2473 C 0.84211 0.63865 0.82091 0.0
C2474 C 0.83516 0.6422 0.84151 0.0
C2475 C 0.84686 0.6221 0.84349 0.0
C2476 C 0.85513 0.60967 0.83413 0.0
H2477 H 0.90617 0.56568 0.90475 0.0
H2478 H 0.89101 0.57099 0.88539 0.0
C2479 C 0.8528 0.61788 0.82291 0.0
C2480 C 0.85223 0.61522 0.85539 0.0
H2481 H 0.8961 0.61082 0.8742 0.0
C2482 C 0.83477 0.60826 0.86273 0.0
C2483 C 0.87458 0.61621 0.85955 0.0
C2484 C 0.89381 0.62442 0.85211 0.0
C2485 C 0.83921 0.60186 0.87417 0.0
C2486 C 0.86159 0.60289 0.87833 0.0
C2487 C 0.87898 0.60989 0.87095 0.0
C2488 C 0.86768 0.59725 0.89034 0.0
C2489 C 0.82004 0.59376 0.88164 0.0
C2490 C 0.85919 0.60995 0.89959 0.0
C2491 C 0.86775 0.60686 0.91071 0.0
C2492 C 0.88517 0.59129 0.91268 0.0
C2493 C 0.89291 0.57797 0.90348 0.0
C2494 C 0.88422 0.58091 0.89242 0.0
H2495 H 0.80544 0.58811 0.87638 0.0
H2496 H 0.82548 0.57967 0.88729 0.0
H2497 H 0.8143 0.6078 0.88724 0.0
H2498 H 0.84675 0.62297 0.89812 0.0
H2499 H 0.8615 0.61741 0.91763 0.0
H2500 H 0.12902 0.1035 0.56842 0.0
H2501 H 0.14264 0.10283 0.58827 0.0
H2502 H 0.09294 0.05251 0.59689 0.0
H2503 H 0.0788 0.0535 0.57711 0.0
H2504 H 0.09017 0.08796 0.61063 0.0
H2505 H 0.17933 0.06175 0.60847 0.0
H2506 H 0.17372 0.08423 0.59856 0.0
H2507 H 0.15996 0.05744 0.59664 0.0
C2508 C 0.12129 0.09195 0.57447 0.0
C2509 C 0.10267 0.07875 0.57124 0.0
C2510 C 0.12925 0.09141 0.5858 0.0
C2511 C 0.119 0.07738 0.59402 0.0
C2512 C 0.10116 0.06335 0.59066 0.0
H2513 H 0.1288 0.0987 0.66902 0.0
H2514 H 0.12349 0.07802 0.65094 0.0
C2515 C 0.09304 0.06404 0.57937 0.0
C2516 C 0.12461 0.07996 0.60638 0.0
H2517 H 0.16876 0.08442 0.62511 0.0
C2518 C 0.10726 0.08661 0.61388 0.0
C2519 C 0.14691 0.07818 0.61059 0.0
C2520 C 0.16598 0.06977 0.60315 0.0
C2521 C 0.11183 0.09307 0.62525 0.0
C2522 C 0.13433 0.09259 0.62925 0.0
C2523 C 0.15153 0.08478 0.62197 0.0
C2524 C 0.14048 0.10283 0.6404 0.0
C2525 C 0.09279 0.10179 0.63265 0.0
C2526 C 0.1525 0.12313 0.64044 0.0
C2527 C 0.15556 0.13497 0.6507 0.0
C2528 C 0.14666 0.12667 0.66111 0.0
C2529 C 0.13568 0.10566 0.66113 0.0
C2530 C 0.13262 0.09381 0.65083 0.0
H2531 H 0.07695 0.10407 0.62767 0.0
H2532 H 0.08942 0.08966 0.63973 0.0
H2533 H 0.09744 0.11816 0.63662 0.0
H2534 H 0.15866 0.13032 0.63245 0.0
H2535 H 0.16429 0.15097 0.65039 0.0
H2536 H 0.58763 0.41702 0.40293 0.0
H2537 H 0.60523 0.40994 0.38425 0.0
H2538 H 0.65855 0.37292 0.40093 0.0
H2539 H 0.64101 0.37973 0.41972 0.0
H2540 H 0.65121 0.41734 0.37514 0.0
H2541 H 0.6258 0.32728 0.3791 0.0
H2542 H 0.61409 0.34897 0.38821 0.0
H2543 H 0.64222 0.33898 0.39069 0.0
C2544 C 0.60325 0.40761 0.40268 0.0
C2545 C 0.61273 0.39862 0.4128 0.0
C2546 C 0.61334 0.4037 0.392 0.0
C2547 C 0.63299 0.39073 0.39126 0.0
C2548 C 0.64324 0.38281 0.40137 0.0
H2549 H 0.67876 0.32381 0.32874 0.0
H2550 H 0.67878 0.3387 0.34838 0.0
C2551 C 0.63318 0.38672 0.41208 0.0
C2552 C 0.64129 0.38369 0.37983 0.0
H2553 H 0.64243 0.33848 0.36175 0.0
C2554 C 0.6496 0.40006 0.37222 0.0
C2555 C 0.63911 0.36113 0.37611 0.0
C2556 C 0.6297 0.34302 0.38389 0.0
C2557 C 0.65545 0.39449 0.36084 0.0
C2558 C 0.65238 0.3721 0.35698 0.0
C2559 C 0.64482 0.35563 0.36474 0.0
C2560 C 0.65513 0.36551 0.34476 0.0
C2561 C 0.66473 0.41263 0.35307 0.0
C2562 C 0.64204 0.37584 0.33617 0.0
C2563 C 0.64208 0.36746 0.32492 0.0
C2564 C 0.65492 0.34834 0.32212 0.0
C2565 C 0.66855 0.33847 0.33065 0.0
C2566 C 0.66867 0.347 0.34186 0.0
H2567 H 0.67322 0.42606 0.35814 0.0
H2568 H 0.67692 0.40565 0.34674 0.0
H2569 H 0.65064 0.42053 0.34825 0.0
H2570 H 0.631 0.38976 0.33828 0.0
H2571 H 0.63134 0.37539 0.31856 0.0
H2572 H 0.40968 0.91205 0.07913 0.0
H2573 H 0.39439 0.90642 0.09849 0.0
H2574 H 0.33817 0.86981 0.08421 0.0
H2575 H 0.35332 0.8752 0.06478 0.0
H2576 H 0.34902 0.91629 0.10836 0.0
H2577 H 0.37193 0.82538 0.10654 0.0
H2578 H 0.38367 0.84585 0.09672 0.0
H2579 H 0.35525 0.83617 0.09482 0.0
C2580 C 0.39396 0.90298 0.08007 0.0
C2581 C 0.38287 0.89382 0.07043 0.0
C2582 C 0.38521 0.89989 0.09113 0.0
C2583 C 0.36533 0.88755 0.09271 0.0
C2584 C 0.35367 0.87922 0.08311 0.0
H2585 H 0.31427 0.82854 0.15598 0.0
H2586 H 0.31724 0.84162 0.13608 0.0
C2587 C 0.36237 0.88232 0.07203 0.0
C2588 C 0.35782 0.88196 0.10448 0.0
H2589 H 0.35518 0.83846 0.12358 0.0
C2590 C 0.35017 0.89928 0.11171 0.0
C2591 C 0.35941 0.85973 0.10873 0.0
C2592 C 0.36814 0.84067 0.10137 0.0
C2593 C 0.34408 0.89491 0.12319 0.0
C2594 C 0.34623 0.87276 0.12753 0.0
C2595 C 0.35348 0.85541 0.1202 0.0
C2596 C 0.34223 0.86716 0.13978 0.0
C2597 C 0.33533 0.91398 0.13052 0.0
C2598 C 0.35513 0.87739 0.14847 0.0
C2599 C 0.3534 0.87004 0.15988 0.0
C2600 C 0.33899 0.85209 0.16273 0.0
C2601 C 0.32565 0.8423 0.15405 0.0
C2602 C 0.32725 0.84979 0.14268 0.0
H2603 H 0.328 0.9276 0.12513 0.0
H2604 H 0.3223 0.90802 0.13669 0.0
H2605 H 0.34949 0.9213 0.13553 0.0
H2606 H 0.36721 0.89043 0.14638 0.0
H2607 H 0.36396 0.87785 0.16637 0.0
H2608 H 0.8662 0.38664 0.67015 0.0
H2609 H 0.87271 0.40464 0.65146 0.0
H2610 H 0.82813 0.3568 0.63523 0.0
H2611 H 0.82139 0.3388 0.6538 0.0
H2612 H 0.89184 0.38019 0.63332 0.0
H2613 H 0.8099 0.41669 0.62014 0.0
H2614 H 0.81649 0.40985 0.63495 0.0
H2615 H 0.80775 0.38814 0.6251 0.0
C2616 C 0.85742 0.38023 0.66264 0.0
C2617 C 0.84344 0.36116 0.66344 0.0
C2618 C 0.86112 0.39057 0.65199 0.0
C2619 C 0.85068 0.3822 0.64202 0.0
C2620 C 0.83596 0.36381 0.64287 0.0
H2621 H 0.86573 0.37802 0.56946 0.0
H2622 H 0.85292 0.37727 0.58951 0.0
C2623 C 0.83233 0.3534 0.65349 0.0
C2624 C 0.85749 0.39045 0.63053 0.0
H2625 H 0.8367 0.4098 0.60495 0.0
C2626 C 0.87993 0.38712 0.62717 0.0
C2627 C 0.8418 0.39926 0.62255 0.0
C2628 C 0.81768 0.4039 0.62589 0.0
C2629 C 0.8869 0.3912 0.61582 0.0
C2630 C 0.87105 0.39938 0.60772 0.0
C2631 C 0.84877 0.40353 0.6112 0.0
C2632 C 0.87701 0.40209 0.59543 0.0
C2633 C 0.91083 0.38549 0.61247 0.0
C2634 C 0.89429 0.41681 0.5921 0.0
C2635 C 0.90185 0.41706 0.58071 0.0
C2636 C 0.89198 0.40283 0.57242 0.0
C2637 C 0.87375 0.38909 0.57565 0.0
C2638 C 0.86636 0.38869 0.58708 0.0
H2639 H 0.91922 0.37471 0.61902 0.0
H2640 H 0.9113 0.37663 0.60403 0.0
H2641 H 0.92073 0.40126 0.61165 0.0
H2642 H 0.90237 0.42764 0.59839 0.0
H2643 H 0.9157 0.4281 0.57844 0.0
H2644 H 0.31968 0.15851 0.3309 0.0
H2645 H 0.32552 0.14219 0.35 0.0
H2646 H 0.36191 0.08682 0.3348 0.0
H2647 H 0.35635 0.10305 0.31562 0.0
H2648 H 0.31684 0.09705 0.36 0.0
H2649 H 0.40753 0.12054 0.35632 0.0
H2650 H 0.38629 0.13189 0.34682 0.0
H2651 H 0.39602 0.10353 0.34492 0.0
C2652 C 0.32867 0.1427 0.33157 0.0
C2653 C 0.33789 0.13227 0.32175 0.0
C2654 C 0.33187 0.13335 0.34249 0.0
C2655 C 0.34434 0.1135 0.34376 0.0
C2656 C 0.35241 0.1023 0.33395 0.0
H2657 H 0.40883 0.06693 0.40659 0.0
H2658 H 0.394 0.06771 0.38696 0.0
C2659 C 0.34922 0.11162 0.32301 0.0
C2660 C 0.35086 0.10595 0.3554 0.0
H2661 H 0.39571 0.10447 0.37372 0.0
C2662 C 0.3341 0.09841 0.36301 0.0
C2663 C 0.37338 0.10784 0.35923 0.0
C2664 C 0.39189 0.11652 0.35146 0.0
C2665 C 0.33932 0.09286 0.37448 0.0
C2666 C 0.36174 0.09544 0.3784 0.0
C2667 C 0.37854 0.10243 0.37067 0.0
C2668 C 0.36819 0.09242 0.39062 0.0
C2669 C 0.32081 0.08432 0.38225 0.0
C2670 C 0.35837 0.10585 0.39922 0.0
C2671 C 0.36673 0.10537 0.41048 0.0
C2672 C 0.3853 0.09172 0.41326 0.0
C2673 C 0.39462 0.07777 0.4047 0.0
C2674 C 0.38612 0.07812 0.39349 0.0
H2675 H 0.307 0.07641 0.3772 0.0
H2676 H 0.32734 0.07185 0.38856 0.0
H2677 H 0.31353 0.09869 0.3871 0.0
H2678 H 0.34489 0.11745 0.39713 0.0
H2679 H 0.35923 0.11636 0.41688 0.0
H2680 H 0.65965 0.6566 0.1536 0.0
H2681 H 0.65284 0.64024 0.13458 0.0
H2682 H 0.61384 0.58699 0.15009 0.0
H2683 H 0.62048 0.6032 0.16921 0.0
H2684 H 0.65999 0.59318 0.12559 0.0
H2685 H 0.5707 0.62223 0.12733 0.0
H2686 H 0.59215 0.63362 0.13671 0.0
H2687 H 0.58105 0.60599 0.13931 0.0
C2688 C 0.64982 0.64127 0.15301 0.0
C2689 C 0.64037 0.63135 0.16291 0.0
C2690 C 0.64606 0.63191 0.14214 0.0
C2691 C 0.63271 0.61259 0.14099 0.0
C2692 C 0.62407 0.60203 0.15086 0.0
H2693 H 0.57059 0.56579 0.0773 0.0
H2694 H 0.58298 0.56746 0.09738 0.0
C2695 C 0.62789 0.61132 0.16175 0.0
C2696 C 0.6264 0.60469 0.12938 0.0
H2697 H 0.58281 0.60496 0.11026 0.0
C2698 C 0.64308 0.5955 0.12223 0.0
C2699 C 0.60432 0.60776 0.12512 0.0
C2700 C 0.58596 0.61805 0.13245 0.0
C2701 C 0.63827 0.58953 0.11078 0.0
C2702 C 0.61638 0.59341 0.10637 0.0
C2703 C 0.59957 0.60198 0.11367 0.0
C2704 C 0.61074 0.5902 0.09406 0.0
C2705 C 0.65666 0.57918 0.10352 0.0
C2706 C 0.62233 0.60235 0.08554 0.0
C2707 C 0.61536 0.60137 0.07405 0.0
C2708 C 0.59645 0.58848 0.07091 0.0
C2709 C 0.58515 0.57596 0.07944 0.0
C2710 C 0.59224 0.57683 0.09091 0.0
H2711 H 0.66942 0.57058 0.10898 0.0
H2712 H 0.64969 0.56685 0.09726 0.0
H2713 H 0.66539 0.59267 0.09863 0.0
H2714 H 0.63627 0.61325 0.08783 0.0
H2715 H 0.62437 0.61129 0.0677 0.0
H2716 H 0.13323 0.87807 0.8164 0.0
H2717 H 0.13151 0.89028 0.83646 0.0
H2718 H 0.17875 0.8383 0.84598 0.0
H2719 H 0.18016 0.82557 0.82595 0.0
H2720 H 0.14144 0.83662 0.85869 0.0
H2721 H 0.17217 0.92442 0.85807 0.0
H2722 H 0.15054 0.92007 0.84751 0.0
H2723 H 0.17689 0.90521 0.84624 0.0
C2724 C 0.14359 0.86949 0.82271 0.0
C2725 C 0.15668 0.85073 0.8196 0.0
C2726 C 0.14276 0.87664 0.83417 0.0
C2727 C 0.15527 0.86542 0.84268 0.0
C2728 C 0.16908 0.84728 0.83952 0.0
H2729 H 0.13199 0.87552 0.91749 0.0
H2730 H 0.15181 0.86875 0.89928 0.0
C2731 C 0.16979 0.83999 0.82808 0.0
C2732 C 0.15157 0.87071 0.855 0.0
H2733 H 0.1478 0.9143 0.87408 0.0
C2734 C 0.14334 0.85349 0.86215 0.0
C2735 C 0.15407 0.89273 0.85947 0.0
C2736 C 0.16413 0.91159 0.85244 0.0
C2737 C 0.13621 0.85798 0.87343 0.0
C2738 C 0.13757 0.88023 0.87767 0.0
C2739 C 0.14676 0.89727 0.87074 0.0
C2740 C 0.12735 0.8864 0.88881 0.0
C2741 C 0.12608 0.83918 0.8805 0.0
C2742 C 0.10743 0.89904 0.88891 0.0
C2743 C 0.09605 0.90288 0.89923 0.0
C2744 C 0.10447 0.8942 0.90967 0.0
C2745 C 0.12498 0.88231 0.90959 0.0
C2746 C 0.13633 0.87842 0.89922 0.0
H2747 H 0.12355 0.82359 0.87537 0.0
H2748 H 0.13745 0.83519 0.88782 0.0
H2749 H 0.10959 0.84446 0.88415 0.0
H2750 H 0.10029 0.90528 0.88092 0.0
H2751 H 0.0804 0.91225 0.89899 0.0
loop_
_geom_bond_atom_site_label_1
_geom_bond_atom_site_label_2
_geom_bond_distance
_geom_bond_site_symmetry_2
_ccdc_geom_bond_type
C0 O1 1.306 . S
C0 O3 1.160 . S
O1 C0 1.306 . S
O1 Cd2 2.228 . S
Cd2 O1 2.228 . S
Cd2 O6 2.273 . S
Cd2 O10 2.277 . S
O3 C0 1.160 . S
O3 Cd4 2.203 . S
Cd4 O3 2.203 . S
Cd4 O6 2.411 . S
Cd4 O7 2.333 . S
Cd4 O8 2.352 . S
Cd4 O12 2.277 . S
Cd4 O13 2.356 . S
C5 O10 1.209 . S
C5 O12 1.226 . S
O6 Cd2 2.273 . S
O6 Cd4 2.411 . S
O6 C9 1.320 . S
O7 Cd4 2.333 . S
O7 C9 1.214 . S
O8 Cd4 2.352 . S
O8 C11 1.258 . S
C9 O6 1.320 . S
C9 O7 1.214 . S
O10 Cd2 2.277 . S
O10 C5 1.209 . S
C11 O8 1.258 . S
C11 O13 1.282 . S
O12 Cd4 2.277 . S
O12 C5 1.226 . S
O13 Cd4 2.356 . S
O13 C11 1.282 . S
C14 O15 1.306 . S
C14 O17 1.160 . S
O15 C14 1.306 . S
O15 Cd16 2.228 . S
Cd16 O15 2.228 . S
Cd16 O20 2.273 . S
Cd16 O24 2.277 . S
O17 C14 1.160 . S
O17 Cd18 2.203 . S
Cd18 O17 2.203 . S
Cd18 O20 2.411 . S
Cd18 O21 2.333 . S
Cd18 O22 2.352 . S
Cd18 O26 2.277 . S
Cd18 O27 2.356 . S
C19 O24 1.209 . S
C19 O26 1.226 . S
O20 Cd16 2.273 . S
O20 Cd18 2.411 . S
O20 C23 1.320 . S
O21 Cd18 2.333 . S
O21 C23 1.214 . S
O22 Cd18 2.352 . S
O22 C25 1.258 . S
C23 O20 1.320 . S
C23 O21 1.214 . S
O24 Cd16 2.277 . S
O24 C19 1.209 . S
C25 O22 1.258 . S
C25 O27 1.282 . S
O26 Cd18 2.277 . S
O26 C19 1.226 . S
O27 Cd18 2.356 . S
O27 C25 1.282 . S
C28 O29 1.306 . S
C28 O31 1.160 . S
O29 C28 1.306 . S
O29 Cd30 2.228 . S
Cd30 O29 2.228 . S
Cd30 O34 2.273 . S
Cd30 O38 2.277 . S
O31 C28 1.160 . S
O31 Cd32 2.203 . S
Cd32 O31 2.203 . S
Cd32 O34 2.411 . S
Cd32 O35 2.333 . S
Cd32 O36 2.352 . S
Cd32 O40 2.277 . S
Cd32 O41 2.356 . S
C33 O38 1.209 . S
C33 O40 1.226 . S
O34 Cd30 2.273 . S
O34 Cd32 2.411 . S
O34 C37 1.320 . S
O35 Cd32 2.333 . S
O35 C37 1.214 . S
O36 Cd32 2.352 . S
O36 C39 1.258 . S
C37 O34 1.320 . S
C37 O35 1.214 . S
O38 Cd30 2.277 . S
O38 C33 1.209 . S
C39 O36 1.258 . S
C39 O41 1.282 . S
O40 Cd32 2.277 . S
O40 C33 1.226 . S
O41 Cd32 2.356 . S
O41 C39 1.282 . S
C42 O43 1.306 . S
C42 O45 1.160 . S
O43 C42 1.306 . S
O43 Cd44 2.228 . S
Cd44 O43 2.228 . S
Cd44 O48 2.273 . S
Cd44 O52 2.277 . S
O45 C42 1.160 . S
O45 Cd46 2.203 . S
Cd46 O45 2.203 . S
Cd46 O48 2.411 . S
Cd46 O49 2.333 . S
Cd46 O50 2.352 . S
Cd46 O54 2.277 . S
Cd46 O55 2.356 . S
C47 O52 1.209 . S
C47 O54 1.226 . S
O48 Cd44 2.273 . S
O48 Cd46 2.411 . S
O48 C51 1.320 . S
O49 Cd46 2.333 . S
O49 C51 1.214 . S
O50 Cd46 2.352 . S
O50 C53 1.258 . S
C51 O48 1.320 . S
C51 O49 1.214 . S
O52 Cd44 2.277 . S
O52 C47 1.209 . S
C53 O50 1.258 . S
C53 O55 1.282 . S
O54 Cd46 2.277 . S
O54 C47 1.226 . S
O55 Cd46 2.356 . S
O55 C53 1.282 . S
C56 O57 1.306 . S
C56 O59 1.160 . S
O57 C56 1.306 . S
O57 Cd58 2.228 . S
Cd58 O57 2.228 . S
Cd58 O62 2.273 . S
Cd58 O66 2.277 . S
O59 C56 1.160 . S
O59 Cd60 2.203 . S
Cd60 O59 2.203 . S
Cd60 O62 2.411 . S
Cd60 O63 2.333 . S
Cd60 O64 2.352 . S
Cd60 O68 2.277 . S
Cd60 O69 2.356 . S
C61 O66 1.209 . S
C61 O68 1.226 . S
O62 Cd58 2.273 . S
O62 Cd60 2.411 . S
O62 C65 1.320 . S
O63 Cd60 2.333 . S
O63 C65 1.214 . S
O64 Cd60 2.352 . S
O64 C67 1.258 . S
C65 O62 1.320 . S
C65 O63 1.214 . S
O66 Cd58 2.277 . S
O66 C61 1.209 . S
C67 O64 1.258 . S
C67 O69 1.282 . S
O68 Cd60 2.277 . S
O68 C61 1.226 . S
O69 Cd60 2.356 . S
O69 C67 1.282 . S
C70 O71 1.306 . S
C70 O73 1.160 . S
O71 C70 1.306 . S
O71 Cd72 2.228 . S
Cd72 O71 2.228 . S
Cd72 O76 2.273 . S
Cd72 O80 2.277 . S
O73 C70 1.160 . S
O73 Cd74 2.203 . S
Cd74 O73 2.203 . S
Cd74 O76 2.411 . S
Cd74 O77 2.333 . S
Cd74 O78 2.352 . S
Cd74 O82 2.277 . S
Cd74 O83 2.356 . S
C75 O80 1.209 . S
C75 O82 1.226 . S
O76 Cd72 2.273 . S
O76 Cd74 2.411 . S
O76 C79 1.320 . S
O77 Cd74 2.333 . S
O77 C79 1.214 . S
O78 Cd74 2.352 . S
O78 C81 1.258 . S
C79 O76 1.320 . S
C79 O77 1.214 . S
O80 Cd72 2.277 . S
O80 C75 1.209 . S
C81 O78 1.258 . S
C81 O83 1.282 . S
O82 Cd74 2.277 . S
O82 C75 1.226 . S
O83 Cd74 2.356 . S
O83 C81 1.282 . S
C84 O85 1.306 . S
C84 O87 1.160 . S
O85 C84 1.306 . S
O85 Cd86 2.228 . S
Cd86 O85 2.228 . S
Cd86 O90 2.273 . S
Cd86 O94 2.277 . S
O87 C84 1.160 . S
O87 Cd88 2.203 . S
Cd88 O87 2.203 . S
Cd88 O90 2.411 . S
Cd88 O91 2.333 . S
Cd88 O92 2.352 . S
Cd88 O96 2.277 . S
Cd88 O97 2.356 . S
C89 O94 1.209 . S
C89 O96 1.226 . S
O90 Cd86 2.273 . S
O90 Cd88 2.411 . S
O90 C93 1.320 . S
O91 Cd88 2.333 . S
O91 C93 1.214 . S
O92 Cd88 2.352 . S
O92 C95 1.258 . S
C93 O90 1.320 . S
C93 O91 1.214 . S
O94 Cd86 2.277 . S
O94 C89 1.209 . S
C95 O92 1.258 . S
C95 O97 1.282 . S
O96 Cd88 2.277 . S
O96 C89 1.226 . S
O97 Cd88 2.356 . S
O97 C95 1.282 . S
C98 O99 1.306 . S
C98 O101 1.160 . S
O99 C98 1.306 . S
O99 Cd100 2.228 . S
Cd100 O99 2.228 . S
Cd100 O104 2.273 . S
Cd100 O108 2.277 . S
O101 C98 1.160 . S
O101 Cd102 2.203 . S
Cd102 O101 2.203 . S
Cd102 O104 2.411 . S
Cd102 O105 2.333 . S
Cd102 O106 2.352 . S
Cd102 O110 2.277 . S
Cd102 O111 2.356 . S
C103 O108 1.209 . S
C103 O110 1.226 . S
O104 Cd100 2.273 . S
O104 Cd102 2.411 . S
O104 C107 1.320 . S
O105 Cd102 2.333 . S
O105 C107 1.214 . S
O106 Cd102 2.352 . S
O106 C109 1.258 . S
C107 O104 1.320 . S
C107 O105 1.214 . S
O108 Cd100 2.277 . S
O108 C103 1.209 . S
C109 O106 1.258 . S
C109 O111 1.282 . S
O110 Cd102 2.277 . S
O110 C103 1.226 . S
O111 Cd102 2.356 . S
O111 C109 1.282 . S
C112 O113 1.306 . S
C112 O115 1.160 . S
O113 C112 1.306 . S
O113 Cd114 2.228 . S
Cd114 O113 2.228 . S
Cd114 O118 2.273 . S
Cd114 O122 2.277 . S
O115 C112 1.160 . S
O115 Cd116 2.203 . S
Cd116 O115 2.203 . S
Cd116 O118 2.411 . S
Cd116 O119 2.333 . S
Cd116 O120 2.352 . S
Cd116 O124 2.277 . S
Cd116 O125 2.356 . S
C117 O122 1.209 . S
C117 O124 1.226 . S
O118 Cd114 2.273 . S
O118 Cd116 2.411 . S
O118 C121 1.320 . S
O119 Cd116 2.333 . S
O119 C121 1.214 . S
O120 Cd116 2.352 . S
O120 C123 1.258 . S
C121 O118 1.320 . S
C121 O119 1.214 . S
O122 Cd114 2.277 . S
O122 C117 1.209 . S
C123 O120 1.258 . S
C123 O125 1.282 . S
O124 Cd116 2.277 . S
O124 C117 1.226 . S
O125 Cd116 2.356 . S
O125 C123 1.282 . S
C126 O127 1.306 . S
C126 O129 1.160 . S
O127 C126 1.306 . S
O127 Cd128 2.228 . S
Cd128 O127 2.228 . S
Cd128 O132 2.273 . S
Cd128 O136 2.277 . S
O129 C126 1.160 . S
O129 Cd130 2.203 . S
Cd130 O129 2.203 . S
Cd130 O132 2.411 . S
Cd130 O133 2.333 . S
Cd130 O134 2.352 . S
Cd130 O138 2.277 . S
Cd130 O139 2.356 . S
C131 O136 1.209 . S
C131 O138 1.226 . S
O132 Cd128 2.273 . S
O132 Cd130 2.411 . S
O132 C135 1.320 . S
O133 Cd130 2.333 . S
O133 C135 1.214 . S
O134 Cd130 2.352 . S
O134 C137 1.258 . S
C135 O132 1.320 . S
C135 O133 1.214 . S
O136 Cd128 2.277 . S
O136 C131 1.209 . S
C137 O134 1.258 . S
C137 O139 1.282 . S
O138 Cd130 2.277 . S
O138 C131 1.226 . S
O139 Cd130 2.356 . S
O139 C137 1.282 . S
C140 O141 1.306 . S
C140 O143 1.160 . S
O141 C140 1.306 . S
O141 Cd142 2.228 . S
Cd142 O141 2.228 . S
Cd142 O146 2.273 . S
Cd142 O150 2.277 . S
O143 C140 1.160 . S
O143 Cd144 2.203 . S
Cd144 O143 2.203 . S
Cd144 O146 2.411 . S
Cd144 O147 2.333 . S
Cd144 O148 2.352 . S
Cd144 O152 2.277 . S
Cd144 O153 2.356 . S
C145 O150 1.209 . S
C145 O152 1.226 . S
O146 Cd142 2.273 . S
O146 Cd144 2.411 . S
O146 C149 1.320 . S
O147 Cd144 2.333 . S
O147 C149 1.214 . S
O148 Cd144 2.352 . S
O148 C151 1.258 . S
C149 O146 1.320 . S
C149 O147 1.214 . S
O150 Cd142 2.277 . S
O150 C145 1.209 . S
C151 O148 1.258 . S
C151 O153 1.282 . S
O152 Cd144 2.277 . S
O152 C145 1.226 . S
O153 Cd144 2.356 . S
O153 C151 1.282 . S
C154 O155 1.306 . S
C154 O157 1.160 . S
O155 C154 1.306 . S
O155 Cd156 2.228 . S
Cd156 O155 2.228 . S
Cd156 O160 2.273 . S
Cd156 O164 2.277 . S
O157 C154 1.160 . S
O157 Cd158 2.203 . S
Cd158 O157 2.203 . S
Cd158 O160 2.411 . S
Cd158 O161 2.333 . S
Cd158 O162 2.352 . S
Cd158 O166 2.277 . S
Cd158 O167 2.356 . S
C159 O164 1.209 . S
C159 O166 1.226 . S
O160 Cd156 2.273 . S
O160 Cd158 2.411 . S
O160 C163 1.320 . S
O161 Cd158 2.333 . S
O161 C163 1.214 . S
O162 Cd158 2.352 . S
O162 C165 1.258 . S
C163 O160 1.320 . S
C163 O161 1.214 . S
O164 Cd156 2.277 . S
O164 C159 1.209 . S
C165 O162 1.258 . S
C165 O167 1.282 . S
O166 Cd158 2.277 . S
O166 C159 1.226 . S
O167 Cd158 2.356 . S
O167 C165 1.282 . S
C168 O169 1.306 . S
C168 O171 1.160 . S
O169 C168 1.306 . S
O169 Cd170 2.228 . S
Cd170 O169 2.228 . S
Cd170 O174 2.273 . S
Cd170 O178 2.277 . S
O171 C168 1.160 . S
O171 Cd172 2.203 . S
Cd172 O171 2.203 . S
Cd172 O174 2.411 . S
Cd172 O175 2.333 . S
Cd172 O176 2.352 . S
Cd172 O180 2.277 . S
Cd172 O181 2.356 . S
C173 O178 1.209 . S
C173 O180 1.226 . S
O174 Cd170 2.273 . S
O174 Cd172 2.411 . S
O174 C177 1.320 . S
O175 Cd172 2.333 . S
O175 C177 1.214 . S
O176 Cd172 2.352 . S
O176 C179 1.258 . S
C177 O174 1.320 . S
C177 O175 1.214 . S
O178 Cd170 2.277 . S
O178 C173 1.209 . S
C179 O176 1.258 . S
C179 O181 1.282 . S
O180 Cd172 2.277 . S
O180 C173 1.226 . S
O181 Cd172 2.356 . S
O181 C179 1.282 . S
C182 O183 1.306 . S
C182 O185 1.160 . S
O183 C182 1.306 . S
O183 Cd184 2.228 . S
Cd184 O183 2.228 . S
Cd184 O188 2.273 . S
Cd184 O192 2.277 . S
O185 C182 1.160 . S
O185 Cd186 2.203 . S
Cd186 O185 2.203 . S
Cd186 O188 2.411 . S
Cd186 O189 2.333 . S
Cd186 O190 2.352 . S
Cd186 O194 2.277 . S
Cd186 O195 2.356 . S
C187 O192 1.209 . S
C187 O194 1.226 . S
O188 Cd184 2.273 . S
O188 Cd186 2.411 . S
O188 C191 1.320 . S
O189 Cd186 2.333 . S
O189 C191 1.214 . S
O190 Cd186 2.352 . S
O190 C193 1.258 . S
C191 O188 1.320 . S
C191 O189 1.214 . S
O192 Cd184 2.277 . S
O192 C187 1.209 . S
C193 O190 1.258 . S
C193 O195 1.282 . S
O194 Cd186 2.277 . S
O194 C187 1.226 . S
O195 Cd186 2.356 . S
O195 C193 1.282 . S
C196 O197 1.306 . S
C196 O199 1.160 . S
O197 C196 1.306 . S
O197 Cd198 2.228 . S
Cd198 O197 2.228 . S
Cd198 O202 2.273 . S
Cd198 O206 2.277 . S
O199 C196 1.160 . S
O199 Cd200 2.203 . S
Cd200 O199 2.203 . S
Cd200 O202 2.411 . S
Cd200 O203 2.333 . S
Cd200 O204 2.352 . S
Cd200 O208 2.277 . S
Cd200 O209 2.356 . S
C201 O206 1.209 . S
C201 O208 1.226 . S
O202 Cd198 2.273 . S
O202 Cd200 2.411 . S
O202 C205 1.320 . S
O203 Cd200 2.333 . S
O203 C205 1.214 . S
O204 Cd200 2.352 . S
O204 C207 1.258 . S
C205 O202 1.320 . S
C205 O203 1.214 . S
O206 Cd198 2.277 . S
O206 C201 1.209 . S
C207 O204 1.258 . S
C207 O209 1.282 . S
O208 Cd200 2.277 . S
O208 C201 1.226 . S
O209 Cd200 2.356 . S
O209 C207 1.282 . S
C210 O211 1.306 . S
C210 O213 1.160 . S
O211 C210 1.306 . S
O211 Cd212 2.228 . S
Cd212 O211 2.228 . S
Cd212 O216 2.273 . S
Cd212 O220 2.277 . S
O213 C210 1.160 . S
O213 Cd214 2.203 . S
Cd214 O213 2.203 . S
Cd214 O216 2.411 . S
Cd214 O217 2.333 . S
Cd214 O218 2.352 . S
Cd214 O222 2.277 . S
Cd214 O223 2.356 . S
C215 O220 1.209 . S
C215 O222 1.226 . S
O216 Cd212 2.273 . S
O216 Cd214 2.411 . S
O216 C219 1.320 . S
O217 Cd214 2.333 . S
O217 C219 1.214 . S
O218 Cd214 2.352 . S
O218 C221 1.258 . S
C219 O216 1.320 . S
C219 O217 1.214 . S
O220 Cd212 2.277 . S
O220 C215 1.209 . S
C221 O218 1.258 . S
C221 O223 1.282 . S
O222 Cd214 2.277 . S
O222 C215 1.226 . S
O223 Cd214 2.356 . S
O223 C221 1.282 . S
C224 O225 1.306 . S
C224 O227 1.160 . S
O225 C224 1.306 . S
O225 Cd226 2.228 . S
Cd226 O225 2.228 . S
Cd226 O230 2.273 . S
Cd226 O234 2.277 . S
O227 C224 1.160 . S
O227 Cd228 2.203 . S
Cd228 O227 2.203 . S
Cd228 O230 2.411 . S
Cd228 O231 2.333 . S
Cd228 O232 2.352 . S
Cd228 O236 2.277 . S
Cd228 O237 2.356 . S
C229 O234 1.209 . S
C229 O236 1.226 . S
O230 Cd226 2.273 . S
O230 Cd228 2.411 . S
O230 C233 1.320 . S
O231 Cd228 2.333 . S
O231 C233 1.214 . S
O232 Cd228 2.352 . S
O232 C235 1.258 . S
C233 O230 1.320 . S
C233 O231 1.214 . S
O234 Cd226 2.277 . S
O234 C229 1.209 . S
C235 O232 1.258 . S
C235 O237 1.282 . S
O236 Cd228 2.277 . S
O236 C229 1.226 . S
O237 Cd228 2.356 . S
O237 C235 1.282 . S
C238 O239 1.306 . S
C238 O241 1.160 . S
O239 C238 1.306 . S
O239 Cd240 2.228 . S
Cd240 O239 2.228 . S
Cd240 O244 2.273 . S
Cd240 O248 2.277 . S
O241 C238 1.160 . S
O241 Cd242 2.203 . S
Cd242 O241 2.203 . S
Cd242 O244 2.411 . S
Cd242 O245 2.333 . S
Cd242 O246 2.352 . S
Cd242 O250 2.277 . S
Cd242 O251 2.356 . S
C243 O248 1.209 . S
C243 O250 1.226 . S
O244 Cd240 2.273 . S
O244 Cd242 2.411 . S
O244 C247 1.320 . S
O245 Cd242 2.333 . S
O245 C247 1.214 . S
O246 Cd242 2.352 . S
O246 C249 1.258 . S
C247 O244 1.320 . S
C247 O245 1.214 . S
O248 Cd240 2.277 . S
O248 C243 1.209 . S
C249 O246 1.258 . S
C249 O251 1.282 . S
O250 Cd242 2.277 . S
O250 C243 1.226 . S
O251 Cd242 2.356 . S
O251 C249 1.282 . S
C252 O253 1.306 . S
C252 O255 1.160 . S
O253 C252 1.306 . S
O253 Cd254 2.228 . S
Cd254 O253 2.228 . S
Cd254 O258 2.273 . S
Cd254 O262 2.277 . S
O255 C252 1.160 . S
O255 Cd256 2.203 . S
Cd256 O255 2.203 . S
Cd256 O258 2.411 . S
Cd256 O259 2.333 . S
Cd256 O260 2.352 . S
Cd256 O264 2.277 . S
Cd256 O265 2.356 . S
C257 O262 1.209 . S
C257 O264 1.226 . S
O258 Cd254 2.273 . S
O258 Cd256 2.411 . S
O258 C261 1.320 . S
O259 Cd256 2.333 . S
O259 C261 1.214 . S
O260 Cd256 2.352 . S
O260 C263 1.258 . S
C261 O258 1.320 . S
C261 O259 1.214 . S
O262 Cd254 2.277 . S
O262 C257 1.209 . S
C263 O260 1.258 . S
C263 O265 1.282 . S
O264 Cd256 2.277 . S
O264 C257 1.226 . S
O265 Cd256 2.356 . S
O265 C263 1.282 . S
C266 O267 1.306 . S
C266 O269 1.160 . S
O267 C266 1.306 . S
O267 Cd268 2.228 . S
Cd268 O267 2.228 . S
Cd268 O272 2.273 . S
Cd268 O276 2.277 . S
O269 C266 1.160 . S
O269 Cd270 2.203 . S
Cd270 O269 2.203 . S
Cd270 O272 2.411 . S
Cd270 O273 2.333 . S
Cd270 O274 2.352 . S
Cd270 O278 2.277 . S
Cd270 O279 2.356 . S
C271 O276 1.209 . S
C271 O278 1.226 . S
O272 Cd268 2.273 . S
O272 Cd270 2.411 . S
O272 C275 1.320 . S
O273 Cd270 2.333 . S
O273 C275 1.214 . S
O274 Cd270 2.352 . S
O274 C277 1.258 . S
C275 O272 1.320 . S
C275 O273 1.214 . S
O276 Cd268 2.277 . S
O276 C271 1.209 . S
C277 O274 1.258 . S
C277 O279 1.282 . S
O278 Cd270 2.277 . S
O278 C271 1.226 . S
O279 Cd270 2.356 . S
O279 C277 1.282 . S
C280 O281 1.306 . S
C280 O283 1.160 . S
O281 C280 1.306 . S
O281 Cd282 2.228 . S
Cd282 O281 2.228 . S
Cd282 O286 2.273 . S
Cd282 O290 2.277 . S
O283 C280 1.160 . S
O283 Cd284 2.203 . S
Cd284 O283 2.203 . S
Cd284 O286 2.411 . S
Cd284 O287 2.333 . S
Cd284 O288 2.352 . S
Cd284 O292 2.277 . S
Cd284 O293 2.356 . S
C285 O290 1.209 . S
C285 O292 1.226 . S
O286 Cd282 2.273 . S
O286 Cd284 2.411 . S
O286 C289 1.320 . S
O287 Cd284 2.333 . S
O287 C289 1.214 . S
O288 Cd284 2.352 . S
O288 C291 1.258 . S
C289 O286 1.320 . S
C289 O287 1.214 . S
O290 Cd282 2.277 . S
O290 C285 1.209 . S
C291 O288 1.258 . S
C291 O293 1.282 . S
O292 Cd284 2.277 . S
O292 C285 1.226 . S
O293 Cd284 2.356 . S
O293 C291 1.282 . S
C294 O295 1.306 . S
C294 O297 1.160 . S
O295 C294 1.306 . S
O295 Cd296 2.228 . S
Cd296 O295 2.228 . S
Cd296 O300 2.273 . S
Cd296 O304 2.277 . S
O297 C294 1.160 . S
O297 Cd298 2.203 . S
Cd298 O297 2.203 . S
Cd298 O300 2.411 . S
Cd298 O301 2.333 . S
Cd298 O302 2.352 . S
Cd298 O306 2.277 . S
Cd298 O307 2.356 . S
C299 O304 1.209 . S
C299 O306 1.226 . S
O300 Cd296 2.273 . S
O300 Cd298 2.411 . S
O300 C303 1.320 . S
O301 Cd298 2.333 . S
O301 C303 1.214 . S
O302 Cd298 2.352 . S
O302 C305 1.258 . S
C303 O300 1.320 . S
C303 O301 1.214 . S
O304 Cd296 2.277 . S
O304 C299 1.209 . S
C305 O302 1.258 . S
C305 O307 1.282 . S
O306 Cd298 2.277 . S
O306 C299 1.226 . S
O307 Cd298 2.356 . S
O307 C305 1.282 . S
C308 O309 1.306 . S
C308 O311 1.160 . S
O309 C308 1.306 . S
O309 Cd310 2.228 . S
Cd310 O309 2.228 . S
Cd310 O314 2.273 . S
Cd310 O318 2.277 . S
O311 C308 1.160 . S
O311 Cd312 2.203 . S
Cd312 O311 2.203 . S
Cd312 O314 2.411 . S
Cd312 O315 2.333 . S
Cd312 O316 2.352 . S
Cd312 O320 2.277 . S
Cd312 O321 2.356 . S
C313 O318 1.209 . S
C313 O320 1.226 . S
O314 Cd310 2.273 . S
O314 Cd312 2.411 . S
O314 C317 1.320 . S
O315 Cd312 2.333 . S
O315 C317 1.214 . S
O316 Cd312 2.352 . S
O316 C319 1.258 . S
C317 O314 1.320 . S
C317 O315 1.214 . S
O318 Cd310 2.277 . S
O318 C313 1.209 . S
C319 O316 1.258 . S
C319 O321 1.282 . S
O320 Cd312 2.277 . S
O320 C313 1.226 . S
O321 Cd312 2.356 . S
O321 C319 1.282 . S
C322 O323 1.306 . S
C322 O325 1.160 . S
O323 C322 1.306 . S
O323 Cd324 2.228 . S
Cd324 O323 2.228 . S
Cd324 O328 2.273 . S
Cd324 O332 2.277 . S
O325 C322 1.160 . S
O325 Cd326 2.203 . S
Cd326 O325 2.203 . S
Cd326 O328 2.411 . S
Cd326 O329 2.333 . S
Cd326 O330 2.352 . S
Cd326 O334 2.277 . S
Cd326 O335 2.356 . S
C327 O332 1.209 . S
C327 O334 1.226 . S
O328 Cd324 2.273 . S
O328 Cd326 2.411 . S
O328 C331 1.320 . S
O329 Cd326 2.333 . S
O329 C331 1.214 . S
O330 Cd326 2.352 . S
O330 C333 1.258 . S
C331 O328 1.320 . S
C331 O329 1.214 . S
O332 Cd324 2.277 . S
O332 C327 1.209 . S
C333 O330 1.258 . S
C333 O335 1.282 . S
O334 Cd326 2.277 . S
O334 C327 1.226 . S
O335 Cd326 2.356 . S
O335 C333 1.282 . S
C336 O337 1.306 . S
C336 O339 1.160 . S
O337 C336 1.306 . S
O337 Cd338 2.228 . S
Cd338 O337 2.228 . S
Cd338 O342 2.273 . S
Cd338 O346 2.277 . S
O339 C336 1.160 . S
O339 Cd340 2.203 . S
Cd340 O339 2.203 . S
Cd340 O342 2.411 . S
Cd340 O343 2.333 . S
Cd340 O344 2.352 . S
Cd340 O348 2.277 . S
Cd340 O349 2.356 . S
C341 O346 1.209 . S
C341 O348 1.226 . S
O342 Cd338 2.273 . S
O342 Cd340 2.411 . S
O342 C345 1.320 . S
O343 Cd340 2.333 . S
O343 C345 1.214 . S
O344 Cd340 2.352 . S
O344 C347 1.258 . S
C345 O342 1.320 . S
C345 O343 1.214 . S
O346 Cd338 2.277 . S
O346 C341 1.209 . S
C347 O344 1.258 . S
C347 O349 1.282 . S
O348 Cd340 2.277 . S
O348 C341 1.226 . S
O349 Cd340 2.356 . S
O349 C347 1.282 . S
C350 O351 1.306 . S
C350 O353 1.160 . S
O351 C350 1.306 . S
O351 Cd352 2.228 . S
Cd352 O351 2.228 . S
Cd352 O356 2.273 . S
Cd352 O360 2.277 . S
O353 C350 1.160 . S
O353 Cd354 2.203 . S
Cd354 O353 2.203 . S
Cd354 O356 2.411 . S
Cd354 O357 2.333 . S
Cd354 O358 2.352 . S
Cd354 O362 2.277 . S
Cd354 O363 2.356 . S
C355 O360 1.209 . S
C355 O362 1.226 . S
O356 Cd352 2.273 . S
O356 Cd354 2.411 . S
O356 C359 1.320 . S
O357 Cd354 2.333 . S
O357 C359 1.214 . S
O358 Cd354 2.352 . S
O358 C361 1.258 . S
C359 O356 1.320 . S
C359 O357 1.214 . S
O360 Cd352 2.277 . S
O360 C355 1.209 . S
C361 O358 1.258 . S
C361 O363 1.282 . S
O362 Cd354 2.277 . S
O362 C355 1.226 . S
O363 Cd354 2.356 . S
O363 C361 1.282 . S
C364 O365 1.306 . S
C364 O367 1.160 . S
O365 C364 1.306 . S
O365 Cd366 2.228 . S
Cd366 O365 2.228 . S
Cd366 O370 2.273 . S
Cd366 O374 2.277 . S
O367 C364 1.160 . S
O367 Cd368 2.203 . S
Cd368 O367 2.203 . S
Cd368 O370 2.411 . S
Cd368 O371 2.333 . S
Cd368 O372 2.352 . S
Cd368 O376 2.277 . S
Cd368 O377 2.356 . S
C369 O374 1.209 . S
C369 O376 1.226 . S
O370 Cd366 2.273 . S
O370 Cd368 2.411 . S
O370 C373 1.320 . S
O371 Cd368 2.333 . S
O371 C373 1.214 . S
O372 Cd368 2.352 . S
O372 C375 1.258 . S
C373 O370 1.320 . S
C373 O371 1.214 . S
O374 Cd366 2.277 . S
O374 C369 1.209 . S
C375 O372 1.258 . S
C375 O377 1.282 . S
O376 Cd368 2.277 . S
O376 C369 1.226 . S
O377 Cd368 2.356 . S
O377 C375 1.282 . S
C378 O379 1.306 . S
C378 O381 1.160 . S
O379 C378 1.306 . S
O379 Cd380 2.228 . S
Cd380 O379 2.228 . S
Cd380 O384 2.273 . S
Cd380 O388 2.277 . S
O381 C378 1.160 . S
O381 Cd382 2.203 . S
Cd382 O381 2.203 . S
Cd382 O384 2.411 . S
Cd382 O385 2.333 . S
Cd382 O386 2.352 . S
Cd382 O390 2.277 . S
Cd382 O391 2.356 . S
C383 O388 1.209 . S
C383 O390 1.226 . S
O384 Cd380 2.273 . S
O384 Cd382 2.411 . S
O384 C387 1.320 . S
O385 Cd382 2.333 . S
O385 C387 1.214 . S
O386 Cd382 2.352 . S
O386 C389 1.258 . S
C387 O384 1.320 . S
C387 O385 1.214 . S
O388 Cd380 2.277 . S
O388 C383 1.209 . S
C389 O386 1.258 . S
C389 O391 1.282 . S
O390 Cd382 2.277 . S
O390 C383 1.226 . S
O391 Cd382 2.356 . S
O391 C389 1.282 . S
C392 O393 1.306 . S
C392 O395 1.160 . S
O393 C392 1.306 . S
O393 Cd394 2.228 . S
Cd394 O393 2.228 . S
Cd394 O398 2.273 . S
Cd394 O402 2.277 . S
O395 C392 1.160 . S
O395 Cd396 2.203 . S
Cd396 O395 2.203 . S
Cd396 O398 2.411 . S
Cd396 O399 2.333 . S
Cd396 O400 2.352 . S
Cd396 O404 2.277 . S
Cd396 O405 2.356 . S
C397 O402 1.209 . S
C397 O404 1.226 . S
O398 Cd394 2.273 . S
O398 Cd396 2.411 . S
O398 C401 1.320 . S
O399 Cd396 2.333 . S
O399 C401 1.214 . S
O400 Cd396 2.352 . S
O400 C403 1.258 . S
C401 O398 1.320 . S
C401 O399 1.214 . S
O402 Cd394 2.277 . S
O402 C397 1.209 . S
C403 O400 1.258 . S
C403 O405 1.282 . S
O404 Cd396 2.277 . S
O404 C397 1.226 . S
O405 Cd396 2.356 . S
O405 C403 1.282 . S
C406 O407 1.306 . S
C406 O409 1.160 . S
O407 C406 1.306 . S
O407 Cd408 2.228 . S
Cd408 O407 2.228 . S
Cd408 O412 2.273 . S
Cd408 O416 2.277 . S
O409 C406 1.160 . S
O409 Cd410 2.203 . S
Cd410 O409 2.203 . S
Cd410 O412 2.411 . S
Cd410 O413 2.333 . S
Cd410 O414 2.352 . S
Cd410 O418 2.277 . S
Cd410 O419 2.356 . S
C411 O416 1.209 . S
C411 O418 1.226 . S
O412 Cd408 2.273 . S
O412 Cd410 2.411 . S
O412 C415 1.320 . S
O413 Cd410 2.333 . S
O413 C415 1.214 . S
O414 Cd410 2.352 . S
O414 C417 1.258 . S
C415 O412 1.320 . S
C415 O413 1.214 . S
O416 Cd408 2.277 . S
O416 C411 1.209 . S
C417 O414 1.258 . S
C417 O419 1.282 . S
O418 Cd410 2.277 . S
O418 C411 1.226 . S
O419 Cd410 2.356 . S
O419 C417 1.282 . S
C420 O421 1.306 . S
C420 O423 1.160 . S
O421 C420 1.306 . S
O421 Cd422 2.228 . S
Cd422 O421 2.228 . S
Cd422 O426 2.273 . S
Cd422 O430 2.277 . S
O423 C420 1.160 . S
O423 Cd424 2.203 . S
Cd424 O423 2.203 . S
Cd424 O426 2.411 . S
Cd424 O427 2.333 . S
Cd424 O428 2.352 . S
Cd424 O432 2.277 . S
Cd424 O433 2.356 . S
C425 O430 1.209 . S
C425 O432 1.226 . S
O426 Cd422 2.273 . S
O426 Cd424 2.411 . S
O426 C429 1.320 . S
O427 Cd424 2.333 . S
O427 C429 1.214 . S
O428 Cd424 2.352 . S
O428 C431 1.258 . S
C429 O426 1.320 . S
C429 O427 1.214 . S
O430 Cd422 2.277 . S
O430 C425 1.209 . S
C431 O428 1.258 . S
C431 O433 1.282 . S
O432 Cd424 2.277 . S
O432 C425 1.226 . S
O433 Cd424 2.356 . S
O433 C431 1.282 . S
C434 O435 1.306 . S
C434 O437 1.160 . S
O435 C434 1.306 . S
O435 Cd436 2.228 . S
Cd436 O435 2.228 . S
Cd436 O440 2.273 . S
Cd436 O444 2.277 . S
O437 C434 1.160 . S
O437 Cd438 2.203 . S
Cd438 O437 2.203 . S
Cd438 O440 2.411 . S
Cd438 O441 2.333 . S
Cd438 O442 2.352 . S
Cd438 O446 2.277 . S
Cd438 O447 2.356 . S
C439 O444 1.209 . S
C439 O446 1.226 . S
O440 Cd436 2.273 . S
O440 Cd438 2.411 . S
O440 C443 1.320 . S
O441 Cd438 2.333 . S
O441 C443 1.214 . S
O442 Cd438 2.352 . S
O442 C445 1.258 . S
C443 O440 1.320 . S
C443 O441 1.214 . S
O444 Cd436 2.277 . S
O444 C439 1.209 . S
C445 O442 1.258 . S
C445 O447 1.282 . S
O446 Cd438 2.277 . S
O446 C439 1.226 . S
O447 Cd438 2.356 . S
O447 C445 1.282 . S
H448 C456 0.929 . S
H449 C458 0.930 . S
H450 C460 0.930 . S
H451 C463 0.929 . S
H452 C466 0.930 . S
H453 C468 0.960 . S
H454 C468 0.960 . S
H455 C468 0.960 . S
C456 H448 0.929 . S
C456 C457 1.377 . S
C456 C458 1.384 . S
C457 C456 1.377 . S
C457 C463 1.390 . S
C458 H449 0.930 . S
C458 C456 1.384 . S
C458 C459 1.372 . S
C459 C458 1.372 . S
C459 C460 1.400 . S
C459 C464 1.490 . S
C460 H450 0.930 . S
C460 C459 1.400 . S
C460 C463 1.386 . S
H461 C477 0.930 . S
H462 C478 0.931 . S
C463 H451 0.929 . S
C463 C457 1.390 . S
C463 C460 1.386 . S
C464 C459 1.490 . S
C464 C466 1.369 1_656 S
C464 C467 1.403 . S
H465 C471 0.932 . S
C466 H452 0.930 . S
C466 C464 1.369 1_454 S
C466 C469 1.429 . S
C467 C464 1.403 . S
C467 C468 1.524 . S
C467 C471 1.411 . S
C468 H453 0.960 . S
C468 H454 0.960 . S
C468 H455 0.960 . S
C468 C467 1.524 . S
C469 C466 1.429 . S
C469 C470 1.392 . S
C469 C473 1.495 . S
C470 C469 1.392 . S
C470 C471 1.372 1_454 S
C470 C472 1.478 . S
C471 H465 0.932 . S
C471 C467 1.411 . S
C471 C470 1.372 1_656 S
C472 C470 1.478 . S
C472 C474 1.381 . S
C472 C478 1.383 . S
C473 C469 1.495 . S
C473 H479 0.959 . S
C473 H480 0.961 . S
C473 H481 0.960 . S
C474 C472 1.381 . S
C474 C475 1.394 . S
C474 H482 0.930 . S
C475 C474 1.394 . S
C475 C476 1.383 . S
C475 H483 0.929 . S
C476 C475 1.383 . S
C476 C477 1.377 . S
C477 H461 0.930 . S
C477 C476 1.377 . S
C477 C478 1.379 . S
C478 H462 0.931 . S
C478 C472 1.383 . S
C478 C477 1.379 . S
H479 C473 0.959 . S
H480 C473 0.961 . S
H481 C473 0.960 . S
H482 C474 0.930 . S
H483 C475 0.929 . S
H484 C492 0.929 . S
H485 C494 0.930 . S
H486 C496 0.930 . S
H487 C499 0.929 . S
H488 C502 0.930 . S
H489 C504 0.960 . S
H490 C504 0.960 . S
H491 C504 0.960 . S
C492 H484 0.929 . S
C492 C493 1.377 . S
C492 C494 1.384 . S
C493 C492 1.377 . S
C493 C499 1.390 . S
C494 H485 0.930 . S
C494 C492 1.384 . S
C494 C495 1.372 . S
C495 C494 1.372 . S
C495 C496 1.400 . S
C495 C500 1.490 . S
C496 H486 0.930 . S
C496 C495 1.400 . S
C496 C499 1.386 . S
H497 C513 0.930 . S
H498 C514 0.931 . S
C499 H487 0.929 . S
C499 C493 1.390 . S
C499 C496 1.386 . S
C500 C495 1.490 . S
C500 C502 1.395 . S
C500 C503 1.403 . S
H501 C507 0.930 . S
C502 H488 0.930 . S
C502 C500 1.395 . S
C502 C505 1.403 . S
C503 C500 1.403 . S
C503 C504 1.524 . S
C503 C507 1.400 . S
C504 H489 0.960 . S
C504 H490 0.960 . S
C504 H491 0.960 . S
C504 C503 1.524 . S
C505 C502 1.403 . S
C505 C506 1.392 . S
C505 C509 1.495 . S
C506 C505 1.392 . S
C506 C507 1.385 . S
C506 C508 1.478 . S
C507 H501 0.930 . S
C507 C503 1.400 . S
C507 C506 1.385 . S
C508 C506 1.478 . S
C508 C510 1.381 . S
C508 C514 1.383 . S
C509 C505 1.495 . S
C509 H515 0.959 . S
C509 H516 0.961 . S
C509 H517 0.960 . S
C510 C508 1.381 . S
C510 C511 1.394 . S
C510 H518 0.930 . S
C511 C510 1.394 . S
C511 C512 1.383 . S
C511 H519 0.929 . S
C512 C511 1.383 . S
C512 C513 1.377 . S
C513 H497 0.930 . S
C513 C512 1.377 . S
C513 C514 1.379 . S
C514 H498 0.931 . S
C514 C508 1.383 . S
C514 C513 1.379 . S
H515 C509 0.959 . S
H516 C509 0.961 . S
H517 C509 0.960 . S
H518 C510 0.930 . S
H519 C511 0.929 . S
H520 C528 0.929 . S
H521 C530 0.930 . S
H522 C532 0.930 . S
H523 C535 0.929 . S
H524 C538 0.930 . S
H525 C540 0.960 . S
H526 C540 0.960 . S
H527 C540 0.960 . S
C528 H520 0.929 . S
C528 C529 1.377 . S
C528 C530 1.384 . S
C529 C528 1.377 . S
C529 C535 1.390 . S
C530 H521 0.930 . S
C530 C528 1.384 . S
C530 C531 1.372 . S
C531 C530 1.372 . S
C531 C532 1.400 . S
C531 C536 1.490 . S
C532 H522 0.930 . S
C532 C531 1.400 . S
C532 C535 1.386 . S
H533 C549 0.930 . S
H534 C550 0.931 . S
C535 H523 0.929 . S
C535 C529 1.390 . S
C535 C532 1.386 . S
C536 C531 1.490 . S
C536 C538 1.395 . S
C536 C539 1.403 . S
H537 C543 0.930 . S
C538 H524 0.930 . S
C538 C536 1.395 . S
C538 C541 1.403 . S
C539 C536 1.403 . S
C539 C540 1.524 . S
C539 C543 1.400 . S
C540 H525 0.960 . S
C540 H526 0.960 . S
C540 H527 0.960 . S
C540 C539 1.524 . S
C541 C538 1.403 . S
C541 C542 1.392 . S
C541 C545 1.495 . S
C542 C541 1.392 . S
C542 C543 1.385 . S
C542 C544 1.478 . S
C543 H537 0.930 . S
C543 C539 1.400 . S
C543 C542 1.385 . S
C544 C542 1.478 . S
C544 C546 1.381 . S
C544 C550 1.383 . S
C545 C541 1.495 . S
C545 H551 0.959 . S
C545 H552 0.961 . S
C545 H553 0.960 . S
C546 C544 1.381 . S
C546 C547 1.394 . S
C546 H554 0.930 . S
C547 C546 1.394 . S
C547 C548 1.383 . S
C547 H555 0.929 . S
C548 C547 1.383 . S
C548 C549 1.377 . S
C549 H533 0.930 . S
C549 C548 1.377 . S
C549 C550 1.379 . S
C550 H534 0.931 . S
C550 C544 1.383 . S
C550 C549 1.379 . S
H551 C545 0.959 . S
H552 C545 0.961 . S
H553 C545 0.960 . S
H554 C546 0.930 . S
H555 C547 0.929 . S
H556 C564 0.929 . S
H557 C566 0.930 . S
H558 C568 0.930 . S
H559 C571 0.929 . S
H560 C574 0.930 . S
H561 C576 0.960 . S
H562 C576 0.960 . S
H563 C576 0.960 . S
C564 H556 0.929 . S
C564 C565 1.377 . S
C564 C566 1.384 . S
C565 C564 1.377 . S
C565 C571 1.390 . S
C566 H557 0.930 . S
C566 C564 1.384 . S
C566 C567 1.372 . S
C567 C566 1.372 . S
C567 C568 1.400 . S
C567 C572 1.490 . S
C568 H558 0.930 . S
C568 C567 1.400 . S
C568 C571 1.386 . S
H569 C585 0.930 . S
H570 C586 0.931 . S
C571 H559 0.929 . S
C571 C565 1.390 . S
C571 C568 1.386 . S
C572 C567 1.490 . S
C572 C574 1.395 . S
C572 C575 1.403 . S
H573 C579 0.930 . S
C574 H560 0.930 . S
C574 C572 1.395 . S
C574 C577 1.403 . S
C575 C572 1.403 . S
C575 C576 1.524 . S
C575 C579 1.400 . S
C576 H561 0.960 . S
C576 H562 0.960 . S
C576 H563 0.960 . S
C576 C575 1.524 . S
C577 C574 1.403 . S
C577 C578 1.392 . S
C577 C581 1.495 . S
C578 C577 1.392 . S
C578 C579 1.385 . S
C578 C580 1.478 . S
C579 H573 0.930 . S
C579 C575 1.400 . S
C579 C578 1.385 . S
C580 C578 1.478 . S
C580 C582 1.381 . S
C580 C586 1.383 . S
C581 C577 1.495 . S
C581 H587 0.959 . S
C581 H588 0.961 . S
C581 H589 0.960 . S
C582 C580 1.381 . S
C582 C583 1.394 . S
C582 H590 0.930 . S
C583 C582 1.394 . S
C583 C584 1.383 . S
C583 H591 0.929 . S
C584 C583 1.383 . S
C584 C585 1.377 . S
C585 H569 0.930 . S
C585 C584 1.377 . S
C585 C586 1.379 . S
C586 H570 0.931 . S
C586 C580 1.383 . S
C586 C585 1.379 . S
H587 C581 0.959 . S
H588 C581 0.961 . S
H589 C581 0.960 . S
H590 C582 0.930 . S
H591 C583 0.929 . S
H592 C600 0.929 . S
H593 C602 0.930 . S
H594 C604 0.930 . S
H595 C607 0.929 . S
H596 C610 0.930 . S
H597 C612 0.960 . S
H598 C612 0.960 . S
H599 C612 0.954 1_655 S
C600 H592 0.929 . S
C600 C601 1.377 . S
C600 C602 1.384 . S
C601 C600 1.377 . S
C601 C607 1.390 . S
C602 H593 0.930 . S
C602 C600 1.384 . S
C602 C603 1.372 . S
C603 C602 1.372 . S
C603 C604 1.400 . S
C603 C608 1.490 . S
C604 H594 0.930 . S
C604 C603 1.400 . S
C604 C607 1.386 . S
H605 C621 0.930 . S
H606 C622 0.931 . S
C607 H595 0.929 . S
C607 C601 1.390 . S
C607 C604 1.386 . S
C608 C603 1.490 . S
C608 C610 1.395 . S
C608 C611 1.403 1_655 S
H609 C615 0.930 . S
C610 H596 0.930 . S
C610 C608 1.395 . S
C610 C613 1.403 . S
C611 C608 1.403 1_455 S
C611 C612 1.524 . S
C611 C615 1.400 . S
C612 H597 0.960 . S
C612 H598 0.960 . S
C612 H599 0.954 1_455 S
C612 C611 1.524 . S
C613 C610 1.403 . S
C613 C614 1.392 1_655 S
C613 C617 1.495 . S
C614 C613 1.392 1_455 S
C614 C615 1.385 . S
C614 C616 1.478 . S
C615 H609 0.930 . S
C615 C611 1.400 . S
C615 C614 1.385 . S
C616 C614 1.478 . S
C616 C618 1.381 . S
C616 C622 1.383 . S
C617 C613 1.495 . S
C617 H623 0.959 . S
C617 H624 0.961 . S
C617 H625 0.961 1_655 S
C618 C616 1.381 . S
C618 C619 1.394 . S
C618 H626 0.930 . S
C619 C618 1.394 . S
C619 C620 1.383 . S
C619 H627 0.929 . S
C620 C619 1.383 . S
C620 C621 1.377 . S
C621 H605 0.930 . S
C621 C620 1.377 . S
C621 C622 1.379 . S
C622 H606 0.931 . S
C622 C616 1.383 . S
C622 C621 1.379 . S
H623 C617 0.959 . S
H624 C617 0.961 . S
H625 C617 0.961 1_455 S
H626 C618 0.930 . S
H627 C619 0.929 . S
H628 C636 0.929 . S
H629 C638 0.930 . S
H630 C640 0.930 . S
H631 C643 0.929 . S
H632 C646 0.930 . S
H633 C648 0.960 . S
H634 C648 0.960 . S
H635 C648 0.960 . S
C636 H628 0.929 . S
C636 C637 1.377 . S
C636 C638 1.384 . S
C637 C636 1.377 . S
C637 C643 1.390 . S
C638 H629 0.930 . S
C638 C636 1.384 . S
C638 C639 1.372 . S
C639 C638 1.372 . S
C639 C640 1.400 . S
C639 C644 1.490 . S
C640 H630 0.930 . S
C640 C639 1.400 . S
C640 C643 1.386 . S
H641 C657 0.930 . S
H642 C658 0.931 . S
C643 H631 0.929 . S
C643 C637 1.390 . S
C643 C640 1.386 . S
C644 C639 1.490 . S
C644 C646 1.395 . S
C644 C647 1.403 . S
H645 C651 0.930 . S
C646 H632 0.930 . S
C646 C644 1.395 . S
C646 C649 1.403 . S
C647 C644 1.403 . S
C647 C648 1.524 . S
C647 C651 1.400 . S
C648 H633 0.960 . S
C648 H634 0.960 . S
C648 H635 0.960 . S
C648 C647 1.524 . S
C649 C646 1.403 . S
C649 C650 1.392 . S
C649 C653 1.495 . S
C650 C649 1.392 . S
C650 C651 1.385 . S
C650 C652 1.478 . S
C651 H645 0.930 . S
C651 C647 1.400 . S
C651 C650 1.385 . S
C652 C650 1.478 . S
C652 C654 1.381 . S
C652 C658 1.383 . S
C653 C649 1.495 . S
C653 H659 0.959 . S
C653 H660 0.961 . S
C653 H661 0.960 . S
C654 C652 1.381 . S
C654 C655 1.394 . S
C654 H662 0.930 . S
C655 C654 1.394 . S
C655 C656 1.383 . S
C655 H663 0.929 . S
C656 C655 1.383 . S
C656 C657 1.377 . S
C657 H641 0.930 . S
C657 C656 1.377 . S
C657 C658 1.379 . S
C658 H642 0.931 . S
C658 C652 1.383 . S
C658 C657 1.379 . S
H659 C653 0.959 . S
H660 C653 0.961 . S
H661 C653 0.960 . S
H662 C654 0.930 . S
H663 C655 0.929 . S
H664 C672 0.929 . S
H665 C674 0.989 . S
H666 C676 0.930 . S
H667 C679 0.929 . S
H668 C682 0.930 . S
H669 C684 0.960 . S
H670 C684 0.960 . S
H671 C684 0.960 . S
C672 H664 0.929 . S
C672 C673 1.377 . S
C672 C674 1.384 . S
C673 C672 1.377 . S
C673 C679 1.390 . S
C674 H665 0.989 . S
C674 C672 1.384 . S
C674 C675 1.372 . S
C675 C674 1.372 . S
C675 C676 1.400 . S
C675 C680 1.490 . S
C676 H666 0.930 . S
C676 C675 1.400 . S
C676 C679 1.386 . S
H677 C693 0.930 . S
H678 C694 0.931 . S
C679 H667 0.929 . S
C679 C673 1.390 . S
C679 C676 1.386 . S
C680 C675 1.490 . S
C680 C682 1.395 1_556 S
C680 C683 1.403 . S
H681 C687 0.930 . S
C682 H668 0.930 . S
C682 C680 1.395 1_554 S
C682 C685 1.403 . S
C683 C680 1.403 . S
C683 C684 1.524 . S
C683 C687 1.400 . S
C684 H669 0.960 . S
C684 H670 0.960 . S
C684 H671 0.960 . S
C684 C683 1.524 . S
C685 C682 1.403 . S
C685 C686 1.392 . S
C685 C689 1.495 . S
C686 C685 1.392 . S
C686 C687 1.385 1_554 S
C686 C688 1.478 . S
C687 H681 0.930 . S
C687 C683 1.400 . S
C687 C686 1.385 1_556 S
C688 C686 1.478 . S
C688 C690 1.381 . S
C688 C694 1.383 . S
C689 C685 1.495 . S
C689 H695 0.959 . S
C689 H696 0.961 . S
C689 H697 0.960 . S
C690 C688 1.381 . S
C690 C691 1.394 . S
C690 H698 0.930 . S
C691 C690 1.394 . S
C691 C692 1.383 . S
C691 H699 0.929 . S
C692 C691 1.383 . S
C692 C693 1.377 . S
C693 H677 0.930 . S
C693 C692 1.377 . S
C693 C694 1.379 . S
C694 H678 0.931 . S
C694 C688 1.383 . S
C694 C693 1.379 . S
H695 C689 0.959 . S
H696 C689 0.961 . S
H697 C689 0.960 . S
H698 C690 0.930 . S
H699 C691 0.929 . S
H700 C708 0.929 . S
H701 C710 0.930 . S
H702 C712 0.930 . S
H703 C715 0.929 . S
H704 C718 0.930 . S
H705 C720 0.960 . S
H706 C720 0.960 . S
H707 C720 0.960 . S
C708 H700 0.929 . S
C708 C709 1.377 . S
C708 C710 1.384 . S
C709 C708 1.377 . S
C709 C715 1.390 . S
C710 H701 0.930 . S
C710 C708 1.384 . S
C710 C711 1.372 . S
C711 C710 1.372 . S
C711 C712 1.400 . S
C711 C716 1.490 . S
C712 H702 0.930 . S
C712 C711 1.400 . S
C712 C715 1.386 . S
H713 C729 0.930 . S
H714 C730 0.931 . S
C715 H703 0.929 . S
C715 C709 1.390 . S
C715 C712 1.386 . S
C716 C711 1.490 . S
C716 C718 1.395 . S
C716 C719 1.403 . S
H717 C723 0.930 . S
C718 H704 0.930 . S
C718 C716 1.395 . S
C718 C721 1.403 . S
C719 C716 1.403 . S
C719 C720 1.524 . S
C719 C723 1.400 . S
C720 H705 0.960 . S
C720 H706 0.960 . S
C720 H707 0.960 . S
C720 C719 1.524 . S
C721 C718 1.403 . S
C721 C722 1.392 . S
C721 C725 1.495 . S
C722 C721 1.392 . S
C722 C723 1.385 . S
C722 C724 1.478 . S
C723 H717 0.930 . S
C723 C719 1.400 . S
C723 C722 1.385 . S
C724 C722 1.478 . S
C724 C726 1.381 . S
C724 C730 1.383 . S
C725 C721 1.495 . S
C725 H731 0.959 . S
C725 H732 0.961 . S
C725 H733 0.960 . S
C726 C724 1.381 . S
C726 C727 1.394 . S
C726 H734 0.930 . S
C727 C726 1.394 . S
C727 C728 1.383 . S
C727 H735 0.929 . S
C728 C727 1.383 . S
C728 C729 1.377 . S
C729 H713 0.930 . S
C729 C728 1.377 . S
C729 C730 1.379 . S
C730 H714 0.931 . S
C730 C724 1.383 . S
C730 C729 1.379 . S
H731 C725 0.959 . S
H732 C725 0.961 . S
H733 C725 0.960 . S
H734 C726 0.930 . S
H735 C727 0.929 . S
H736 C744 0.929 . S
H737 C746 0.930 . S
H738 C748 0.930 . S
H739 C751 0.929 . S
H740 C754 0.930 . S
H741 C756 0.960 . S
H742 C756 0.960 . S
H743 C756 0.960 . S
C744 H736 0.929 . S
C744 C745 1.377 . S
C744 C746 1.384 . S
C745 C744 1.377 . S
C745 C751 1.390 . S
C746 H737 0.930 . S
C746 C744 1.384 . S
C746 C747 1.372 . S
C747 C746 1.372 . S
C747 C748 1.400 . S
C747 C752 1.490 . S
C748 H738 0.930 . S
C748 C747 1.400 . S
C748 C751 1.386 . S
H749 C765 0.930 . S
H750 C766 0.931 . S
C751 H739 0.929 . S
C751 C745 1.390 . S
C751 C748 1.386 . S
C752 C747 1.490 . S
C752 C754 1.395 . S
C752 C755 1.403 . S
H753 C759 0.930 . S
C754 H740 0.930 . S
C754 C752 1.395 . S
C754 C757 1.403 . S
C755 C752 1.403 . S
C755 C756 1.524 . S
C755 C759 1.400 . S
C756 H741 0.960 . S
C756 H742 0.960 . S
C756 H743 0.960 . S
C756 C755 1.524 . S
C757 C754 1.403 . S
C757 C758 1.392 . S
C757 C761 1.495 . S
C758 C757 1.392 . S
C758 C759 1.385 . S
C758 C760 1.478 . S
C759 H753 0.930 . S
C759 C755 1.400 . S
C759 C758 1.385 . S
C760 C758 1.478 . S
C760 C762 1.381 . S
C760 C766 1.383 . S
C761 C757 1.495 . S
C761 H767 0.959 . S
C761 H768 0.961 . S
C761 H769 0.960 . S
C762 C760 1.381 . S
C762 C763 1.394 . S
C762 H770 0.930 . S
C763 C762 1.394 . S
C763 C764 1.383 . S
C763 H771 0.929 . S
C764 C763 1.383 . S
C764 C765 1.377 . S
C765 H749 0.930 . S
C765 C764 1.377 . S
C765 C766 1.379 . S
C766 H750 0.931 . S
C766 C760 1.383 . S
C766 C765 1.379 . S
H767 C761 0.959 . S
H768 C761 0.961 . S
H769 C761 0.960 . S
H770 C762 0.930 . S
H771 C763 0.929 . S
H772 C780 0.929 . S
H773 C782 0.930 . S
H774 C784 0.930 . S
H775 C787 0.929 . S
H776 C790 0.930 . S
H777 C792 0.960 . S
H778 C792 0.960 . S
H779 C792 0.960 . S
C780 H772 0.929 . S
C780 C781 1.377 . S
C780 C782 1.384 . S
C781 C780 1.377 . S
C781 C787 1.390 . S
C782 H773 0.930 . S
C782 C780 1.384 . S
C782 C783 1.372 . S
C783 C782 1.372 . S
C783 C784 1.400 . S
C783 C788 1.490 . S
C784 H774 0.930 . S
C784 C783 1.400 . S
C784 C787 1.386 . S
H785 C801 0.930 . S
H786 C802 0.931 . S
C787 H775 0.929 . S
C787 C781 1.390 . S
C787 C784 1.386 . S
C788 C783 1.490 . S
C788 C790 1.395 . S
C788 C791 1.403 . S
H789 C795 0.930 . S
C790 H776 0.930 . S
C790 C788 1.395 . S
C790 C793 1.403 . S
C791 C788 1.403 . S
C791 C792 1.524 . S
C791 C795 1.400 . S
C792 H777 0.960 . S
C792 H778 0.960 . S
C792 H779 0.960 . S
C792 C791 1.524 . S
C793 C790 1.403 . S
C793 C794 1.392 . S
C793 C797 1.495 . S
C794 C793 1.392 . S
C794 C795 1.385 . S
C794 C796 1.478 . S
C795 H789 0.930 . S
C795 C791 1.400 . S
C795 C794 1.385 . S
C796 C794 1.478 . S
C796 C798 1.381 . S
C796 C802 1.383 . S
C797 C793 1.495 . S
C797 H803 0.959 . S
C797 H804 0.961 . S
C797 H805 0.960 . S
C798 C796 1.381 . S
C798 C799 1.394 . S
C798 H806 0.930 . S
C799 C798 1.394 . S
C799 C800 1.383 . S
C799 H807 0.929 . S
C800 C799 1.383 . S
C800 C801 1.377 . S
C801 H785 0.930 . S
C801 C800 1.377 . S
C801 C802 1.379 . S
C802 H786 0.931 . S
C802 C796 1.383 . S
C802 C801 1.379 . S
H803 C797 0.959 . S
H804 C797 0.961 . S
H805 C797 0.960 . S
H806 C798 0.930 . S
H807 C799 0.929 . S
H808 C816 0.929 . S
H809 C818 0.930 . S
H810 C820 0.930 . S
H811 C823 0.929 . S
H812 C826 0.930 . S
H813 C828 0.960 . S
H814 C828 0.960 . S
H815 C828 0.960 . S
C816 H808 0.929 . S
C816 C817 1.377 . S
C816 C818 1.384 . S
C817 C816 1.377 . S
C817 C823 1.390 . S
C818 H809 0.930 . S
C818 C816 1.384 . S
C818 C819 1.372 . S
C819 C818 1.372 . S
C819 C820 1.400 . S
C819 C824 1.490 . S
C820 H810 0.930 . S
C820 C819 1.400 . S
C820 C823 1.386 . S
H821 C837 0.930 . S
H822 C838 0.931 . S
C823 H811 0.929 . S
C823 C817 1.390 . S
C823 C820 1.386 . S
C824 C819 1.490 . S
C824 C826 1.395 . S
C824 C827 1.403 . S
H825 C831 0.930 . S
C826 H812 0.930 . S
C826 C824 1.395 . S
C826 C829 1.403 . S
C827 C824 1.403 . S
C827 C828 1.524 . S
C827 C831 1.400 . S
C828 H813 0.960 . S
C828 H814 0.960 . S
C828 H815 0.960 . S
C828 C827 1.524 . S
C829 C826 1.403 . S
C829 C830 1.392 . S
C829 C833 1.495 . S
C830 C829 1.392 . S
C830 C831 1.385 . S
C830 C832 1.478 . S
C831 H825 0.930 . S
C831 C827 1.400 . S
C831 C830 1.385 . S
C832 C830 1.478 . S
C832 C834 1.381 . S
C832 C838 1.383 . S
C833 C829 1.495 . S
C833 H839 0.959 . S
C833 H840 0.961 . S
C833 H841 0.960 . S
C834 C832 1.381 . S
C834 C835 1.394 . S
C834 H842 0.930 . S
C835 C834 1.394 . S
C835 C836 1.383 . S
C835 H843 0.929 . S
C836 C835 1.383 . S
C836 C837 1.377 . S
C837 H821 0.930 . S
C837 C836 1.377 . S
C837 C838 1.379 . S
C838 H822 0.931 . S
C838 C832 1.383 . S
C838 C837 1.379 . S
H839 C833 0.959 . S
H840 C833 0.961 . S
H841 C833 0.960 . S
H842 C834 0.930 . S
H843 C835 0.929 . S
H844 C852 0.929 . S
H845 C854 0.930 . S
H846 C856 0.930 . S
H847 C859 0.929 . S
H848 C862 0.930 . S
H849 C864 0.960 . S
H850 C864 0.960 . S
H851 C864 0.960 . S
C852 H844 0.929 . S
C852 C853 1.377 . S
C852 C854 1.384 . S
C853 C852 1.377 . S
C853 C859 1.390 . S
C854 H845 0.930 . S
C854 C852 1.384 . S
C854 C855 1.372 . S
C855 C854 1.372 . S
C855 C856 1.400 . S
C855 C860 1.490 . S
C856 H846 0.930 . S
C856 C855 1.400 . S
C856 C859 1.386 . S
H857 C873 0.930 . S
H858 C874 0.931 . S
C859 H847 0.929 . S
C859 C853 1.390 . S
C859 C856 1.386 . S
C860 C855 1.490 . S
C860 C862 1.395 . S
C860 C863 1.403 . S
H861 C867 0.930 . S
C862 H848 0.930 . S
C862 C860 1.395 . S
C862 C865 1.403 . S
C863 C860 1.403 . S
C863 C864 1.524 . S
C863 C867 1.400 . S
C864 H849 0.960 . S
C864 H850 0.960 . S
C864 H851 0.960 . S
C864 C863 1.524 . S
C865 C862 1.403 . S
C865 C866 1.392 . S
C865 C869 1.495 . S
C866 C865 1.392 . S
C866 C867 1.385 . S
C866 C868 1.478 . S
C867 H861 0.930 . S
C867 C863 1.400 . S
C867 C866 1.385 . S
C868 C866 1.478 . S
C868 C870 1.381 . S
C868 C874 1.383 . S
C869 C865 1.495 . S
C869 H875 0.959 . S
C869 H876 0.961 . S
C869 H877 0.960 . S
C870 C868 1.381 . S
C870 C871 1.394 . S
C870 H878 0.930 . S
C871 C870 1.394 . S
C871 C872 1.383 . S
C871 H879 0.929 . S
C872 C871 1.383 . S
C872 C873 1.377 . S
C873 H857 0.930 . S
C873 C872 1.377 . S
C873 C874 1.379 . S
C874 H858 0.931 . S
C874 C868 1.383 . S
C874 C873 1.379 . S
H875 C869 0.959 . S
H876 C869 0.961 . S
H877 C869 0.960 . S
H878 C870 0.930 . S
H879 C871 0.929 . S
H880 C888 0.929 . S
H881 C890 0.930 . S
H882 C892 0.930 . S
H883 C895 0.929 . S
H884 C898 0.930 . S
H885 C900 0.960 . S
H886 C900 0.960 . S
H887 C900 0.960 . S
C888 H880 0.929 . S
C888 C889 1.377 . S
C888 C890 1.384 . S
C889 C888 1.377 . S
C889 C895 1.390 . S
C890 H881 0.930 . S
C890 C888 1.384 . S
C890 C891 1.372 . S
C891 C890 1.372 . S
C891 C892 1.400 . S
C891 C896 1.490 . S
C892 H882 0.930 . S
C892 C891 1.400 . S
C892 C895 1.386 . S
H893 C909 0.930 . S
H894 C910 0.931 . S
C895 H883 0.929 . S
C895 C889 1.390 . S
C895 C892 1.386 . S
C896 C891 1.490 . S
C896 C898 1.395 1_565 S
C896 C899 1.403 . S
H897 C903 0.930 . S
C898 H884 0.930 . S
C898 C896 1.395 1_545 S
C898 C901 1.403 . S
C899 C896 1.403 . S
C899 C900 1.524 . S
C899 C903 1.400 . S
C900 H885 0.960 . S
C900 H886 0.960 . S
C900 H887 0.960 . S
C900 C899 1.524 . S
C901 C898 1.403 . S
C901 C902 1.392 . S
C901 C905 1.495 . S
C902 C901 1.392 . S
C902 C903 1.385 1_545 S
C902 C904 1.478 . S
C903 H897 0.930 . S
C903 C899 1.400 . S
C903 C902 1.385 1_565 S
C904 C902 1.478 . S
C904 C906 1.381 . S
C904 C910 1.383 . S
C905 C901 1.495 . S
C905 H911 0.959 . S
C905 H912 0.961 . S
C905 H913 0.960 . S
C906 C904 1.381 . S
C906 C907 1.394 . S
C906 H914 0.930 . S
C907 C906 1.394 . S
C907 C908 1.383 . S
C907 H915 0.929 . S
C908 C907 1.383 . S
C908 C909 1.377 . S
C909 H893 0.930 . S
C909 C908 1.377 . S
C909 C910 1.379 . S
C910 H894 0.931 . S
C910 C904 1.383 . S
C910 C909 1.379 . S
H911 C905 0.959 . S
H912 C905 0.961 . S
H913 C905 0.960 . S
H914 C906 0.930 . S
H915 C907 0.929 . S
H916 C924 0.929 . S
H917 C926 0.930 . S
H918 C928 0.930 . S
H919 C931 0.929 . S
H920 C934 0.937 . S
H921 C936 0.960 . S
H922 C936 0.960 . S
H923 C936 0.960 . S
C924 H916 0.929 . S
C924 C925 1.377 . S
C924 C926 1.384 . S
C925 C924 1.377 . S
C925 C931 1.390 . S
C926 H917 0.930 . S
C926 C924 1.384 . S
C926 C927 1.372 . S
C927 C926 1.372 . S
C927 C928 1.400 . S
C927 C932 1.490 . S
C928 H918 0.930 . S
C928 C927 1.400 . S
C928 C931 1.386 . S
H929 C945 0.930 . S
H930 C946 0.931 . S
C931 H919 0.929 . S
C931 C925 1.390 . S
C931 C928 1.386 . S
C932 C927 1.490 . S
C932 C934 1.350 1_456 S
C932 C935 1.403 1_565 S
H933 C939 0.930 1_455 S
C934 H920 0.937 . S
C934 C932 1.350 1_654 S
C934 C937 1.448 . S
C935 C932 1.403 1_545 S
C935 C936 1.524 . S
C935 C939 1.419 1_455 S
C936 H921 0.960 . S
C936 H922 0.960 . S
C936 H923 0.960 . S
C936 C935 1.524 . S
C937 C934 1.448 . S
C937 C938 1.392 1_565 S
C937 C941 1.495 . S
C938 C937 1.392 1_545 S
C938 C939 1.364 1_554 S
C938 C940 1.478 . S
C939 H933 0.930 1_655 S
C939 C935 1.419 1_655 S
C939 C938 1.364 1_556 S
C940 C938 1.478 . S
C940 C942 1.381 . S
C940 C946 1.383 . S
C941 C937 1.495 . S
C941 H947 0.959 . S
C941 H948 0.961 . S
C941 H949 0.960 . S
C942 C940 1.381 . S
C942 C943 1.394 . S
C942 H950 0.930 . S
C943 C942 1.394 . S
C943 C944 1.383 . S
C943 H951 0.929 . S
C944 C943 1.383 . S
C944 C945 1.377 . S
C945 H929 0.930 . S
C945 C944 1.377 . S
C945 C946 1.379 . S
C946 H930 0.931 . S
C946 C940 1.383 . S
C946 C945 1.379 . S
H947 C941 0.959 . S
H948 C941 0.961 . S
H949 C941 0.960 . S
H950 C942 0.930 . S
H951 C943 0.929 . S
H952 C960 0.929 . S
H953 C962 0.930 . S
H954 C964 0.930 . S
H955 C967 0.929 . S
H956 C970 0.930 . S
H957 C972 0.960 . S
H958 C972 0.960 . S
H959 C972 0.960 . S
C960 H952 0.929 . S
C960 C961 1.377 . S
C960 C962 1.384 . S
C961 C960 1.377 . S
C961 C967 1.390 . S
C962 H953 0.930 . S
C962 C960 1.384 . S
C962 C963 1.372 . S
C963 C962 1.372 . S
C963 C964 1.400 . S
C963 C968 1.490 . S
C964 H954 0.930 . S
C964 C963 1.400 . S
C964 C967 1.386 . S
H965 C981 0.930 . S
H966 C982 0.931 . S
C967 H955 0.929 . S
C967 C961 1.390 . S
C967 C964 1.386 . S
C968 C963 1.490 . S
C968 C970 1.395 . S
C968 C971 1.403 1_556 S
H969 C975 0.930 . S
C970 H956 0.930 . S
C970 C968 1.395 . S
C970 C973 1.403 1_545 S
C971 C968 1.403 1_554 S
C971 C972 1.524 . S
C971 C975 1.400 1_545 S
C972 H957 0.960 . S
C972 H958 0.960 . S
C972 H959 0.960 . S
C972 C971 1.524 . S
C973 C970 1.403 1_565 S
C973 C974 1.392 1_556 S
C973 C977 1.495 . S
C974 C973 1.392 1_554 S
C974 C975 1.385 . S
C974 C976 1.478 . S
C975 H969 0.930 . S
C975 C971 1.400 1_565 S
C975 C974 1.385 . S
C976 C974 1.478 . S
C976 C978 1.381 . S
C976 C982 1.383 . S
C977 C973 1.495 . S
C977 H983 0.959 . S
C977 H984 0.961 . S
C977 H985 0.960 . S
C978 C976 1.381 . S
C978 C979 1.394 . S
C978 H986 0.930 . S
C979 C978 1.394 . S
C979 C980 1.383 . S
C979 H987 0.929 . S
C980 C979 1.383 . S
C980 C981 1.377 . S
C981 H965 0.930 . S
C981 C980 1.377 . S
C981 C982 1.379 . S
C982 H966 0.931 . S
C982 C976 1.383 . S
C982 C981 1.379 . S
H983 C977 0.959 . S
H984 C977 0.961 . S
H985 C977 0.960 . S
H986 C978 0.930 . S
H987 C979 0.929 . S
H988 C996 0.929 . S
H989 C998 0.930 . S
H990 C1000 0.930 . S
H991 C1003 0.929 . S
H992 C1006 0.930 . S
H993 C1008 0.960 . S
H994 C1008 0.960 . S
H995 C1008 0.960 . S
C996 H988 0.929 . S
C996 C997 1.377 . S
C996 C998 1.384 . S
C997 C996 1.377 . S
C997 C1003 1.390 . S
C998 H989 0.930 . S
C998 C996 1.384 . S
C998 C999 1.372 . S
C999 C998 1.372 . S
C999 C1000 1.400 . S
C999 C1004 1.490 . S
C1000 H990 0.930 . S
C1000 C999 1.400 . S
C1000 C1003 1.386 . S
H1001 C1017 0.930 . S
H1002 C1018 0.931 . S
C1003 H991 0.929 . S
C1003 C997 1.390 . S
C1003 C1000 1.386 . S
C1004 C999 1.490 . S
C1004 C1006 1.395 . S
C1004 C1007 1.403 1_545 S
H1005 C1011 0.930 . S
C1006 H992 0.930 . S
C1006 C1004 1.395 . S
C1006 C1009 1.403 1_455 S
C1007 C1004 1.403 1_565 S
C1007 C1008 1.524 . S
C1007 C1011 1.400 1_455 S
C1008 H993 0.960 . S
C1008 H994 0.960 . S
C1008 H995 0.960 . S
C1008 C1007 1.524 . S
C1009 C1006 1.403 1_655 S
C1009 C1010 1.392 1_545 S
C1009 C1013 1.495 . S
C1010 C1009 1.392 1_565 S
C1010 C1011 1.385 . S
C1010 C1012 1.478 . S
C1011 H1005 0.930 . S
C1011 C1007 1.400 1_655 S
C1011 C1010 1.385 . S
C1012 C1010 1.478 . S
C1012 C1014 1.381 . S
C1012 C1018 1.383 . S
C1013 C1009 1.495 . S
C1013 H1019 0.959 . S
C1013 H1020 0.961 . S
C1013 H1021 0.960 . S
C1014 C1012 1.381 . S
C1014 C1015 1.394 . S
C1014 H1022 0.930 . S
C1015 C1014 1.394 . S
C1015 C1016 1.383 . S
C1015 H1023 0.929 . S
C1016 C1015 1.383 . S
C1016 C1017 1.377 . S
C1017 H1001 0.930 . S
C1017 C1016 1.377 . S
C1017 C1018 1.379 . S
C1018 H1002 0.931 . S
C1018 C1012 1.383 . S
C1018 C1017 1.379 . S
H1019 C1013 0.959 . S
H1020 C1013 0.961 . S
H1021 C1013 0.960 . S
H1022 C1014 0.930 . S
H1023 C1015 0.929 . S
H1024 C1032 0.929 . S
H1025 C1034 0.930 . S
H1026 C1036 0.918 1_455 S
H1027 C1039 0.929 . S
H1028 C1042 0.930 . S
H1029 C1044 0.960 . S
H1030 C1044 0.960 1_655 S
H1031 C1044 0.960 . S
C1032 H1024 0.929 . S
C1032 C1033 1.377 . S
C1032 C1034 1.384 . S
C1033 C1032 1.377 . S
C1033 C1039 1.390 . S
C1034 H1025 0.930 . S
C1034 C1032 1.384 . S
C1034 C1035 1.372 . S
C1035 C1034 1.372 . S
C1035 C1036 1.400 . S
C1035 C1040 1.490 . S
C1036 H1026 0.918 1_655 S
C1036 C1035 1.400 . S
C1036 C1039 1.386 . S
H1037 C1053 0.930 . S
H1038 C1054 0.931 . S
C1039 H1027 0.929 . S
C1039 C1033 1.390 . S
C1039 C1036 1.386 . S
C1040 C1035 1.490 . S
C1040 C1042 1.395 . S
C1040 C1043 1.403 1_655 S
H1041 C1047 0.930 . S
C1042 H1028 0.930 . S
C1042 C1040 1.395 . S
C1042 C1045 1.403 . S
C1043 C1040 1.403 1_455 S
C1043 C1044 1.524 . S
C1043 C1047 1.400 . S
C1044 H1029 0.960 . S
C1044 H1030 0.960 1_455 S
C1044 H1031 0.960 . S
C1044 C1043 1.524 . S
C1045 C1042 1.403 . S
C1045 C1046 1.392 1_655 S
C1045 C1049 1.495 . S
C1046 C1045 1.392 1_455 S
C1046 C1047 1.385 . S
C1046 C1048 1.478 . S
C1047 H1041 0.930 . S
C1047 C1043 1.400 . S
C1047 C1046 1.385 . S
C1048 C1046 1.478 . S
C1048 C1050 1.381 . S
C1048 C1054 1.383 . S
C1049 C1045 1.495 . S
C1049 H1055 0.959 . S
C1049 H1056 0.961 1_655 S
C1049 H1057 0.960 . S
C1050 C1048 1.381 . S
C1050 C1051 1.394 . S
C1050 H1058 0.930 1_455 S
C1051 C1050 1.394 . S
C1051 C1052 1.383 . S
C1051 H1059 0.929 . S
C1052 C1051 1.383 . S
C1052 C1053 1.377 . S
C1053 H1037 0.930 . S
C1053 C1052 1.377 . S
C1053 C1054 1.379 . S
C1054 H1038 0.931 . S
C1054 C1048 1.383 . S
C1054 C1053 1.379 . S
H1055 C1049 0.959 . S
H1056 C1049 0.961 1_455 S
H1057 C1049 0.960 . S
H1058 C1050 0.930 1_655 S
H1059 C1051 0.929 . S
H1060 C1068 0.929 . S
H1061 C1070 0.930 . S
H1062 C1072 0.930 . S
H1063 C1075 0.929 . S
H1064 C1078 0.930 . S
H1065 C1080 0.960 . S
H1066 C1080 0.960 . S
H1067 C1080 0.960 . S
C1068 H1060 0.929 . S
C1068 C1069 1.377 . S
C1068 C1070 1.384 . S
C1069 C1068 1.377 . S
C1069 C1075 1.390 . S
C1070 H1061 0.930 . S
C1070 C1068 1.384 . S
C1070 C1071 1.372 . S
C1071 C1070 1.372 . S
C1071 C1072 1.400 . S
C1071 C1076 1.490 . S
C1072 H1062 0.930 . S
C1072 C1071 1.400 . S
C1072 C1075 1.386 . S
H1073 C1089 0.930 . S
H1074 C1090 0.931 . S
C1075 H1063 0.929 . S
C1075 C1069 1.390 . S
C1075 C1072 1.386 . S
C1076 C1071 1.490 . S
C1076 C1078 1.395 . S
C1076 C1079 1.403 . S
H1077 C1083 0.930 . S
C1078 H1064 0.930 . S
C1078 C1076 1.395 . S
C1078 C1081 1.403 1_455 S
C1079 C1076 1.403 . S
C1079 C1080 1.524 . S
C1079 C1083 1.400 1_455 S
C1080 H1065 0.960 . S
C1080 H1066 0.960 . S
C1080 H1067 0.960 . S
C1080 C1079 1.524 . S
C1081 C1078 1.403 1_655 S
C1081 C1082 1.392 . S
C1081 C1085 1.495 . S
C1082 C1081 1.392 . S
C1082 C1083 1.385 . S
C1082 C1084 1.478 . S
C1083 H1077 0.930 . S
C1083 C1079 1.400 1_655 S
C1083 C1082 1.385 . S
C1084 C1082 1.478 . S
C1084 C1086 1.381 . S
C1084 C1090 1.383 . S
C1085 C1081 1.495 . S
C1085 H1091 0.959 . S
C1085 H1092 0.961 . S
C1085 H1093 0.960 . S
C1086 C1084 1.381 . S
C1086 C1087 1.394 . S
C1086 H1094 0.930 . S
C1087 C1086 1.394 . S
C1087 C1088 1.383 . S
C1087 H1095 0.929 . S
C1088 C1087 1.383 . S
C1088 C1089 1.377 . S
C1089 H1073 0.930 . S
C1089 C1088 1.377 . S
C1089 C1090 1.379 . S
C1090 H1074 0.931 . S
C1090 C1084 1.383 . S
C1090 C1089 1.379 . S
H1091 C1085 0.959 . S
H1092 C1085 0.961 . S
H1093 C1085 0.960 . S
H1094 C1086 0.930 . S
H1095 C1087 0.929 . S
H1096 C1104 0.929 . S
H1097 C1106 0.930 . S
H1098 C1108 0.930 . S
H1099 C1111 0.929 . S
H1100 C1114 0.930 . S
H1101 C1116 0.960 . S
H1102 C1116 0.960 . S
H1103 C1116 0.960 . S
C1104 H1096 0.929 . S
C1104 C1105 1.377 . S
C1104 C1106 1.384 . S
C1105 C1104 1.377 . S
C1105 C1111 1.390 . S
C1106 H1097 0.930 . S
C1106 C1104 1.384 . S
C1106 C1107 1.372 . S
C1107 C1106 1.372 . S
C1107 C1108 1.400 . S
C1107 C1112 1.490 . S
C1108 H1098 0.930 . S
C1108 C1107 1.400 . S
C1108 C1111 1.386 . S
H1109 C1125 0.930 . S
H1110 C1126 0.931 . S
C1111 H1099 0.929 . S
C1111 C1105 1.390 . S
C1111 C1108 1.386 . S
C1112 C1107 1.490 . S
C1112 C1114 1.395 . S
C1112 C1115 1.403 . S
H1113 C1119 0.930 . S
C1114 H1100 0.930 . S
C1114 C1112 1.395 . S
C1114 C1117 1.403 . S
C1115 C1112 1.403 . S
C1115 C1116 1.524 . S
C1115 C1119 1.400 . S
C1116 H1101 0.960 . S
C1116 H1102 0.960 . S
C1116 H1103 0.960 . S
C1116 C1115 1.524 . S
C1117 C1114 1.403 . S
C1117 C1118 1.392 . S
C1117 C1121 1.495 . S
C1118 C1117 1.392 . S
C1118 C1119 1.385 . S
C1118 C1120 1.478 . S
C1119 H1113 0.930 . S
C1119 C1115 1.400 . S
C1119 C1118 1.385 . S
C1120 C1118 1.478 . S
C1120 C1122 1.381 . S
C1120 C1126 1.383 . S
C1121 C1117 1.495 . S
C1121 H1127 0.959 . S
C1121 H1128 0.961 . S
C1121 H1129 0.960 . S
C1122 C1120 1.381 . S
C1122 C1123 1.394 . S
C1122 H1130 0.930 . S
C1123 C1122 1.394 . S
C1123 C1124 1.383 . S
C1123 H1131 0.929 . S
C1124 C1123 1.383 . S
C1124 C1125 1.377 . S
C1125 H1109 0.930 . S
C1125 C1124 1.377 . S
C1125 C1126 1.379 . S
C1126 H1110 0.931 . S
C1126 C1120 1.383 . S
C1126 C1125 1.379 . S
H1127 C1121 0.959 . S
H1128 C1121 0.961 . S
H1129 C1121 0.960 . S
H1130 C1122 0.930 . S
H1131 C1123 0.929 . S
H1132 C1140 0.929 . S
H1133 C1142 0.930 . S
H1134 C1144 0.930 . S
H1135 C1147 0.929 . S
H1136 C1150 0.930 . S
H1137 C1152 0.960 . S
H1138 C1152 0.960 . S
H1139 C1152 0.960 . S
C1140 H1132 0.929 . S
C1140 C1141 1.377 . S
C1140 C1142 1.384 . S
C1141 C1140 1.377 . S
C1141 C1147 1.390 . S
C1142 H1133 0.930 . S
C1142 C1140 1.384 . S
C1142 C1143 1.372 . S
C1143 C1142 1.372 . S
C1143 C1144 1.400 . S
C1143 C1148 1.490 . S
C1144 H1134 0.930 . S
C1144 C1143 1.400 . S
C1144 C1147 1.386 . S
H1145 C1161 0.930 . S
H1146 C1162 0.931 . S
C1147 H1135 0.929 . S
C1147 C1141 1.390 . S
C1147 C1144 1.386 . S
C1148 C1143 1.490 . S
C1148 C1150 1.395 . S
C1148 C1151 1.403 . S
H1149 C1155 0.930 . S
C1150 H1136 0.930 . S
C1150 C1148 1.395 . S
C1150 C1153 1.403 . S
C1151 C1148 1.403 . S
C1151 C1152 1.524 . S
C1151 C1155 1.400 . S
C1152 H1137 0.960 . S
C1152 H1138 0.960 . S
C1152 H1139 0.960 . S
C1152 C1151 1.524 . S
C1153 C1150 1.403 . S
C1153 C1154 1.392 . S
C1153 C1157 1.495 . S
C1154 C1153 1.392 . S
C1154 C1155 1.385 . S
C1154 C1156 1.478 . S
C1155 H1149 0.930 . S
C1155 C1151 1.400 . S
C1155 C1154 1.385 . S
C1156 C1154 1.478 . S
C1156 C1158 1.381 . S
C1156 C1162 1.383 . S
C1157 C1153 1.495 . S
C1157 H1163 0.959 . S
C1157 H1164 0.961 . S
C1157 H1165 0.960 . S
C1158 C1156 1.381 . S
C1158 C1159 1.394 . S
C1158 H1166 0.930 . S
C1159 C1158 1.394 . S
C1159 C1160 1.383 . S
C1159 H1167 0.929 . S
C1160 C1159 1.383 . S
C1160 C1161 1.377 . S
C1161 H1145 0.930 . S
C1161 C1160 1.377 . S
C1161 C1162 1.379 . S
C1162 H1146 0.931 . S
C1162 C1156 1.383 . S
C1162 C1161 1.379 . S
H1163 C1157 0.959 . S
H1164 C1157 0.961 . S
H1165 C1157 0.960 . S
H1166 C1158 0.930 . S
H1167 C1159 0.929 . S
H1168 C1176 0.929 . S
H1169 C1178 0.930 . S
H1170 C1180 0.930 . S
H1171 C1183 0.929 . S
H1172 C1186 0.930 . S
H1173 C1188 0.960 . S
H1174 C1188 0.960 . S
H1175 C1188 0.960 . S
C1176 H1168 0.929 . S
C1176 C1177 1.377 . S
C1176 C1178 1.384 . S
C1177 C1176 1.377 . S
C1177 C1183 1.390 . S
C1178 H1169 0.930 . S
C1178 C1176 1.384 . S
C1178 C1179 1.372 . S
C1179 C1178 1.372 . S
C1179 C1180 1.400 . S
C1179 C1184 1.490 . S
C1180 H1170 0.930 . S
C1180 C1179 1.400 . S
C1180 C1183 1.386 . S
H1181 C1197 0.930 . S
H1182 C1198 0.931 . S
C1183 H1171 0.929 . S
C1183 C1177 1.390 . S
C1183 C1180 1.386 . S
C1184 C1179 1.490 . S
C1184 C1186 1.395 1_655 S
C1184 C1187 1.403 . S
H1185 C1191 0.930 . S
C1186 H1172 0.930 . S
C1186 C1184 1.395 1_455 S
C1186 C1189 1.403 . S
C1187 C1184 1.403 . S
C1187 C1188 1.524 . S
C1187 C1191 1.400 . S
C1188 H1173 0.960 . S
C1188 H1174 0.960 . S
C1188 H1175 0.960 . S
C1188 C1187 1.524 . S
C1189 C1186 1.403 . S
C1189 C1190 1.392 . S
C1189 C1193 1.495 . S
C1190 C1189 1.392 . S
C1190 C1191 1.385 1_455 S
C1190 C1192 1.478 . S
C1191 H1185 0.930 . S
C1191 C1187 1.400 . S
C1191 C1190 1.385 1_655 S
C1192 C1190 1.478 . S
C1192 C1194 1.381 . S
C1192 C1198 1.383 . S
C1193 C1189 1.495 . S
C1193 H1199 0.959 . S
C1193 H1200 0.961 . S
C1193 H1201 0.960 . S
C1194 C1192 1.381 . S
C1194 C1195 1.394 . S
C1194 H1202 0.930 . S
C1195 C1194 1.394 . S
C1195 C1196 1.383 . S
C1195 H1203 0.929 . S
C1196 C1195 1.383 . S
C1196 C1197 1.377 . S
C1197 H1181 0.930 . S
C1197 C1196 1.377 . S
C1197 C1198 1.379 . S
C1198 H1182 0.931 . S
C1198 C1192 1.383 . S
C1198 C1197 1.379 . S
H1199 C1193 0.959 . S
H1200 C1193 0.961 . S
H1201 C1193 0.960 . S
H1202 C1194 0.930 . S
H1203 C1195 0.929 . S
H1204 C1212 0.929 . S
H1205 C1214 0.930 . S
H1206 C1216 0.930 . S
H1207 C1219 0.929 . S
H1208 C1222 0.930 . S
H1209 C1224 0.960 . S
H1210 C1224 0.960 . S
H1211 C1224 0.960 . S
C1212 H1204 0.929 . S
C1212 C1213 1.377 . S
C1212 C1214 1.384 . S
C1213 C1212 1.377 . S
C1213 C1219 1.390 . S
C1214 H1205 0.930 . S
C1214 C1212 1.384 . S
C1214 C1215 1.372 . S
C1215 C1214 1.372 . S
C1215 C1216 1.400 . S
C1215 C1220 1.490 . S
C1216 H1206 0.930 . S
C1216 C1215 1.400 . S
C1216 C1219 1.386 . S
H1217 C1233 0.930 . S
H1218 C1234 0.931 . S
C1219 H1207 0.929 . S
C1219 C1213 1.390 . S
C1219 C1216 1.386 . S
C1220 C1215 1.490 . S
C1220 C1222 1.395 . S
C1220 C1223 1.403 . S
H1221 C1227 0.930 . S
C1222 H1208 0.930 . S
C1222 C1220 1.395 . S
C1222 C1225 1.403 . S
C1223 C1220 1.403 . S
C1223 C1224 1.524 . S
C1223 C1227 1.400 . S
C1224 H1209 0.960 . S
C1224 H1210 0.960 . S
C1224 H1211 0.960 . S
C1224 C1223 1.524 . S
C1225 C1222 1.403 . S
C1225 C1226 1.392 . S
C1225 C1229 1.495 . S
C1226 C1225 1.392 . S
C1226 C1227 1.385 . S
C1226 C1228 1.478 . S
C1227 H1221 0.930 . S
C1227 C1223 1.400 . S
C1227 C1226 1.385 . S
C1228 C1226 1.478 . S
C1228 C1230 1.381 . S
C1228 C1234 1.383 . S
C1229 C1225 1.495 . S
C1229 H1235 0.959 . S
C1229 H1236 0.961 . S
C1229 H1237 0.960 . S
C1230 C1228 1.381 . S
C1230 C1231 1.394 . S
C1230 H1238 0.930 . S
C1231 C1230 1.394 . S
C1231 C1232 1.383 . S
C1231 H1239 0.929 . S
C1232 C1231 1.383 . S
C1232 C1233 1.377 . S
C1233 H1217 0.930 . S
C1233 C1232 1.377 . S
C1233 C1234 1.379 . S
C1234 H1218 0.931 . S
C1234 C1228 1.383 . S
C1234 C1233 1.379 . S
H1235 C1229 0.959 . S
H1236 C1229 0.961 . S
H1237 C1229 0.960 . S
H1238 C1230 0.930 . S
H1239 C1231 0.929 . S
H1240 C1248 0.929 . S
H1241 C1250 0.930 . S
H1242 C1252 0.930 . S
H1243 C1255 0.929 . S
H1244 C1258 0.930 . S
H1245 C1260 0.960 . S
H1246 C1260 0.960 . S
H1247 C1260 0.960 . S
C1248 H1240 0.929 . S
C1248 C1249 1.377 . S
C1248 C1250 1.384 . S
C1249 C1248 1.377 . S
C1249 C1255 1.390 . S
C1250 H1241 0.930 . S
C1250 C1248 1.384 . S
C1250 C1251 1.372 . S
C1251 C1250 1.372 . S
C1251 C1252 1.400 . S
C1251 C1256 1.490 . S
C1252 H1242 0.930 . S
C1252 C1251 1.400 . S
C1252 C1255 1.386 . S
H1253 C1269 0.930 . S
H1254 C1270 0.931 . S
C1255 H1243 0.929 . S
C1255 C1249 1.390 . S
C1255 C1252 1.386 . S
C1256 C1251 1.490 . S
C1256 C1258 1.395 . S
C1256 C1259 1.403 . S
H1257 C1263 0.930 . S
C1258 H1244 0.930 . S
C1258 C1256 1.395 . S
C1258 C1261 1.403 . S
C1259 C1256 1.403 . S
C1259 C1260 1.524 . S
C1259 C1263 1.400 . S
C1260 H1245 0.960 . S
C1260 H1246 0.960 . S
C1260 H1247 0.960 . S
C1260 C1259 1.524 . S
C1261 C1258 1.403 . S
C1261 C1262 1.392 . S
C1261 C1265 1.495 . S
C1262 C1261 1.392 . S
C1262 C1263 1.385 . S
C1262 C1264 1.478 . S
C1263 H1257 0.930 . S
C1263 C1259 1.400 . S
C1263 C1262 1.385 . S
C1264 C1262 1.478 . S
C1264 C1266 1.381 . S
C1264 C1270 1.383 . S
C1265 C1261 1.495 . S
C1265 H1271 0.959 . S
C1265 H1272 0.961 . S
C1265 H1273 0.960 . S
C1266 C1264 1.381 . S
C1266 C1267 1.394 . S
C1266 H1274 0.930 . S
C1267 C1266 1.394 . S
C1267 C1268 1.383 . S
C1267 H1275 0.929 . S
C1268 C1267 1.383 . S
C1268 C1269 1.377 . S
C1269 H1253 0.930 . S
C1269 C1268 1.377 . S
C1269 C1270 1.379 . S
C1270 H1254 0.931 . S
C1270 C1264 1.383 . S
C1270 C1269 1.379 . S
H1271 C1265 0.959 . S
H1272 C1265 0.961 . S
H1273 C1265 0.960 . S
H1274 C1266 0.930 . S
H1275 C1267 0.929 . S
H1276 C1284 0.929 . S
H1277 C1286 0.930 . S
H1278 C1288 0.930 . S
H1279 C1291 0.929 . S
H1280 C1294 0.930 . S
H1281 C1296 0.960 1_655 S
H1282 C1296 0.960 . S
H1283 C1296 0.960 . S
C1284 H1276 0.929 . S
C1284 C1285 1.377 . S
C1284 C1286 1.384 . S
C1285 C1284 1.377 . S
C1285 C1291 1.390 . S
C1286 H1277 0.930 . S
C1286 C1284 1.384 . S
C1286 C1287 1.372 . S
C1287 C1286 1.372 . S
C1287 C1288 1.400 . S
C1287 C1292 1.490 . S
C1288 H1278 0.930 . S
C1288 C1287 1.400 . S
C1288 C1291 1.386 . S
H1289 C1305 0.930 . S
H1290 C1306 0.931 . S
C1291 H1279 0.929 . S
C1291 C1285 1.390 . S
C1291 C1288 1.386 . S
C1292 C1287 1.490 . S
C1292 C1294 1.395 . S
C1292 C1295 1.403 . S
H1293 C1299 0.930 . S
C1294 H1280 0.930 . S
C1294 C1292 1.395 . S
C1294 C1297 1.403 1_455 S
C1295 C1292 1.403 . S
C1295 C1296 1.524 . S
C1295 C1299 1.400 1_455 S
C1296 H1281 0.960 1_455 S
C1296 H1282 0.960 . S
C1296 H1283 0.960 . S
C1296 C1295 1.524 . S
C1297 C1294 1.403 1_655 S
C1297 C1298 1.392 . S
C1297 C1301 1.495 . S
C1298 C1297 1.392 . S
C1298 C1299 1.385 . S
C1298 C1300 1.478 . S
C1299 H1293 0.930 . S
C1299 C1295 1.400 1_655 S
C1299 C1298 1.385 . S
C1300 C1298 1.478 . S
C1300 C1302 1.381 . S
C1300 C1306 1.383 . S
C1301 C1297 1.495 . S
C1301 H1307 0.959 1_655 S
C1301 H1308 0.961 . S
C1301 H1309 0.960 . S
C1302 C1300 1.381 . S
C1302 C1303 1.394 . S
C1302 H1310 0.930 . S
C1303 C1302 1.394 . S
C1303 C1304 1.383 . S
C1303 H1311 0.929 . S
C1304 C1303 1.383 . S
C1304 C1305 1.377 . S
C1305 H1289 0.930 . S
C1305 C1304 1.377 . S
C1305 C1306 1.379 . S
C1306 H1290 0.931 . S
C1306 C1300 1.383 . S
C1306 C1305 1.379 . S
H1307 C1301 0.959 1_455 S
H1308 C1301 0.961 . S
H1309 C1301 0.960 . S
H1310 C1302 0.930 . S
H1311 C1303 0.929 . S
H1312 C1320 0.929 . S
H1313 C1322 0.930 . S
H1314 C1324 0.930 . S
H1315 C1327 0.929 . S
H1316 C1330 0.930 . S
H1317 C1332 0.960 . S
H1318 C1332 0.960 . S
H1319 C1332 0.960 . S
C1320 H1312 0.929 . S
C1320 C1321 1.377 . S
C1320 C1322 1.384 . S
C1321 C1320 1.377 . S
C1321 C1327 1.390 . S
C1322 H1313 0.930 . S
C1322 C1320 1.384 . S
C1322 C1323 1.372 . S
C1323 C1322 1.372 . S
C1323 C1324 1.400 . S
C1323 C1328 1.490 . S
C1324 H1314 0.930 . S
C1324 C1323 1.400 . S
C1324 C1327 1.386 . S
H1325 C1341 0.930 . S
H1326 C1342 0.931 . S
C1327 H1315 0.929 . S
C1327 C1321 1.390 . S
C1327 C1324 1.386 . S
C1328 C1323 1.490 . S
C1328 C1330 1.395 . S
C1328 C1331 1.403 1_655 S
H1329 C1335 0.930 . S
C1330 H1316 0.930 . S
C1330 C1328 1.395 . S
C1330 C1333 1.403 . S
C1331 C1328 1.403 1_455 S
C1331 C1332 1.524 . S
C1331 C1335 1.400 . S
C1332 H1317 0.960 . S
C1332 H1318 0.960 . S
C1332 H1319 0.960 . S
C1332 C1331 1.524 . S
C1333 C1330 1.403 . S
C1333 C1334 1.392 1_655 S
C1333 C1337 1.495 . S
C1334 C1333 1.392 1_455 S
C1334 C1335 1.385 . S
C1334 C1336 1.478 . S
C1335 H1329 0.930 . S
C1335 C1331 1.400 . S
C1335 C1334 1.385 . S
C1336 C1334 1.478 . S
C1336 C1338 1.381 . S
C1336 C1342 1.383 . S
C1337 C1333 1.495 . S
C1337 H1343 0.959 . S
C1337 H1344 0.961 . S
C1337 H1345 0.960 . S
C1338 C1336 1.381 . S
C1338 C1339 1.394 . S
C1338 H1346 0.930 . S
C1339 C1338 1.394 . S
C1339 C1340 1.383 . S
C1339 H1347 0.929 . S
C1340 C1339 1.383 . S
C1340 C1341 1.377 . S
C1341 H1325 0.930 . S
C1341 C1340 1.377 . S
C1341 C1342 1.379 . S
C1342 H1326 0.931 . S
C1342 C1336 1.383 . S
C1342 C1341 1.379 . S
H1343 C1337 0.959 . S
H1344 C1337 0.961 . S
H1345 C1337 0.960 . S
H1346 C1338 0.930 . S
H1347 C1339 0.929 . S
H1348 C1356 0.929 . S
H1349 C1358 0.930 . S
H1350 C1360 0.930 . S
H1351 C1363 0.929 . S
H1352 C1366 0.930 1_655 S
H1353 C1368 0.960 . S
H1354 C1368 0.960 . S
H1355 C1368 0.960 . S
C1356 H1348 0.929 . S
C1356 C1357 1.377 . S
C1356 C1358 1.384 . S
C1357 C1356 1.377 . S
C1357 C1363 1.390 . S
C1358 H1349 0.930 . S
C1358 C1356 1.384 . S
C1358 C1359 1.372 . S
C1359 C1358 1.372 . S
C1359 C1360 1.400 . S
C1359 C1364 1.490 . S
C1360 H1350 0.930 . S
C1360 C1359 1.400 . S
C1360 C1363 1.386 . S
H1361 C1377 0.930 . S
H1362 C1378 0.931 . S
C1363 H1351 0.929 . S
C1363 C1357 1.390 . S
C1363 C1360 1.386 . S
C1364 C1359 1.490 . S
C1364 C1366 1.398 1_655 S
C1364 C1367 1.403 . S
H1365 C1371 0.930 . S
C1366 H1352 0.930 1_455 S
C1366 C1364 1.398 1_455 S
C1366 C1369 1.400 . S
C1367 C1364 1.403 . S
C1367 C1368 1.524 . S
C1367 C1371 1.400 1_655 S
C1368 H1353 0.960 . S
C1368 H1354 0.960 . S
C1368 H1355 0.960 . S
C1368 C1367 1.524 . S
C1369 C1366 1.400 . S
C1369 C1370 1.392 . S
C1369 C1373 1.495 . S
C1370 C1369 1.392 . S
C1370 C1371 1.385 . S
C1370 C1372 1.478 . S
C1371 H1365 0.930 . S
C1371 C1367 1.400 1_455 S
C1371 C1370 1.385 . S
C1372 C1370 1.478 . S
C1372 C1374 1.381 . S
C1372 C1378 1.383 . S
C1373 C1369 1.495 . S
C1373 H1379 0.959 . S
C1373 H1380 0.961 . S
C1373 H1381 0.960 . S
C1374 C1372 1.381 . S
C1374 C1375 1.394 . S
C1374 H1382 0.930 . S
C1375 C1374 1.394 . S
C1375 C1376 1.383 . S
C1375 H1383 0.929 . S
C1376 C1375 1.383 . S
C1376 C1377 1.377 . S
C1377 H1361 0.930 . S
C1377 C1376 1.377 . S
C1377 C1378 1.379 . S
C1378 H1362 0.931 . S
C1378 C1372 1.383 . S
C1378 C1377 1.379 . S
H1379 C1373 0.959 . S
H1380 C1373 0.961 . S
H1381 C1373 0.960 . S
H1382 C1374 0.930 . S
H1383 C1375 0.929 . S
H1384 C1392 0.929 . S
H1385 C1394 0.930 . S
H1386 C1396 0.930 . S
H1387 C1399 0.929 . S
H1388 C1402 0.930 . S
H1389 C1404 0.960 . S
H1390 C1404 0.960 . S
H1391 C1404 0.960 . S
C1392 H1384 0.929 . S
C1392 C1393 1.377 . S
C1392 C1394 1.384 . S
C1393 C1392 1.377 . S
C1393 C1399 1.390 . S
C1394 H1385 0.930 . S
C1394 C1392 1.384 . S
C1394 C1395 1.372 . S
C1395 C1394 1.372 . S
C1395 C1396 1.400 . S
C1395 C1400 1.490 . S
C1396 H1386 0.930 . S
C1396 C1395 1.400 . S
C1396 C1399 1.386 . S
H1397 C1413 0.930 . S
H1398 C1414 0.931 . S
C1399 H1387 0.929 . S
C1399 C1393 1.390 . S
C1399 C1396 1.386 . S
C1400 C1395 1.490 . S
C1400 C1402 1.395 . S
C1400 C1403 1.403 . S
H1401 C1407 0.930 . S
C1402 H1388 0.930 . S
C1402 C1400 1.395 . S
C1402 C1405 1.403 . S
C1403 C1400 1.403 . S
C1403 C1404 1.524 . S
C1403 C1407 1.400 . S
C1404 H1389 0.960 . S
C1404 H1390 0.960 . S
C1404 H1391 0.960 . S
C1404 C1403 1.524 . S
C1405 C1402 1.403 . S
C1405 C1406 1.392 . S
C1405 C1409 1.495 . S
C1406 C1405 1.392 . S
C1406 C1407 1.385 . S
C1406 C1408 1.478 . S
C1407 H1401 0.930 . S
C1407 C1403 1.400 . S
C1407 C1406 1.385 . S
C1408 C1406 1.478 . S
C1408 C1410 1.381 . S
C1408 C1414 1.383 . S
C1409 C1405 1.495 . S
C1409 H1415 0.959 . S
C1409 H1416 0.961 . S
C1409 H1417 0.960 . S
C1410 C1408 1.381 . S
C1410 C1411 1.394 . S
C1410 H1418 0.930 . S
C1411 C1410 1.394 . S
C1411 C1412 1.383 . S
C1411 H1419 0.929 . S
C1412 C1411 1.383 . S
C1412 C1413 1.377 . S
C1413 H1397 0.930 . S
C1413 C1412 1.377 . S
C1413 C1414 1.379 . S
C1414 H1398 0.931 . S
C1414 C1408 1.383 . S
C1414 C1413 1.379 . S
H1415 C1409 0.959 . S
H1416 C1409 0.961 . S
H1417 C1409 0.960 . S
H1418 C1410 0.930 . S
H1419 C1411 0.929 . S
H1420 C1428 0.929 . S
H1421 C1430 0.930 . S
H1422 C1432 0.930 . S
H1423 C1435 0.929 . S
H1424 C1438 0.930 . S
H1425 C1440 0.960 . S
H1426 C1440 0.960 . S
H1427 C1440 0.960 . S
C1428 H1420 0.929 . S
C1428 C1429 1.377 . S
C1428 C1430 1.384 . S
C1429 C1428 1.377 . S
C1429 C1435 1.390 . S
C1430 H1421 0.930 . S
C1430 C1428 1.384 . S
C1430 C1431 1.372 . S
C1431 C1430 1.372 . S
C1431 C1432 1.400 . S
C1431 C1436 1.490 . S
C1432 H1422 0.930 . S
C1432 C1431 1.400 . S
C1432 C1435 1.386 . S
H1433 C1449 0.930 . S
H1434 C1450 0.931 . S
C1435 H1423 0.929 . S
C1435 C1429 1.390 . S
C1435 C1432 1.386 . S
C1436 C1431 1.490 . S
C1436 C1438 1.395 . S
C1436 C1439 1.403 . S
H1437 C1443 0.930 . S
C1438 H1424 0.930 . S
C1438 C1436 1.395 . S
C1438 C1441 1.403 . S
C1439 C1436 1.403 . S
C1439 C1440 1.524 . S
C1439 C1443 1.400 . S
C1440 H1425 0.960 . S
C1440 H1426 0.960 . S
C1440 H1427 0.960 . S
C1440 C1439 1.524 . S
C1441 C1438 1.403 . S
C1441 C1442 1.392 . S
C1441 C1445 1.495 . S
C1442 C1441 1.392 . S
C1442 C1443 1.385 . S
C1442 C1444 1.478 . S
C1443 H1437 0.930 . S
C1443 C1439 1.400 . S
C1443 C1442 1.385 . S
C1444 C1442 1.478 . S
C1444 C1446 1.381 . S
C1444 C1450 1.383 . S
C1445 C1441 1.495 . S
C1445 H1451 0.959 . S
C1445 H1452 0.961 . S
C1445 H1453 0.960 . S
C1446 C1444 1.381 . S
C1446 C1447 1.394 . S
C1446 H1454 0.930 . S
C1447 C1446 1.394 . S
C1447 C1448 1.383 . S
C1447 H1455 0.929 . S
C1448 C1447 1.383 . S
C1448 C1449 1.377 . S
C1449 H1433 0.930 . S
C1449 C1448 1.377 . S
C1449 C1450 1.379 . S
C1450 H1434 0.931 . S
C1450 C1444 1.383 . S
C1450 C1449 1.379 . S
H1451 C1445 0.959 . S
H1452 C1445 0.961 . S
H1453 C1445 0.960 . S
H1454 C1446 0.930 . S
H1455 C1447 0.929 . S
H1456 C1464 0.929 . S
H1457 C1466 0.930 . S
H1458 C1468 0.930 . S
H1459 C1471 0.929 . S
H1460 C1474 0.930 . S
H1461 C1476 0.960 . S
H1462 C1476 0.960 . S
H1463 C1476 0.960 . S
C1464 H1456 0.929 . S
C1464 C1465 1.377 . S
C1464 C1466 1.384 . S
C1465 C1464 1.377 . S
C1465 C1471 1.390 . S
C1466 H1457 0.930 . S
C1466 C1464 1.384 . S
C1466 C1467 1.372 . S
C1467 C1466 1.372 . S
C1467 C1468 1.400 . S
C1467 C1472 1.490 . S
C1468 H1458 0.930 . S
C1468 C1467 1.400 . S
C1468 C1471 1.386 . S
H1469 C1485 0.930 . S
H1470 C1486 0.931 . S
C1471 H1459 0.929 . S
C1471 C1465 1.390 . S
C1471 C1468 1.386 . S
C1472 C1467 1.490 . S
C1472 C1474 1.395 . S
C1472 C1475 1.403 1_655 S
H1473 C1479 0.930 . S
C1474 H1460 0.930 . S
C1474 C1472 1.395 . S
C1474 C1477 1.403 . S
C1475 C1472 1.403 1_455 S
C1475 C1476 1.524 . S
C1475 C1479 1.400 . S
C1476 H1461 0.960 . S
C1476 H1462 0.960 . S
C1476 H1463 0.960 . S
C1476 C1475 1.524 . S
C1477 C1474 1.403 . S
C1477 C1478 1.392 1_655 S
C1477 C1481 1.495 . S
C1478 C1477 1.392 1_455 S
C1478 C1479 1.385 . S
C1478 C1480 1.478 . S
C1479 H1473 0.930 . S
C1479 C1475 1.400 . S
C1479 C1478 1.385 . S
C1480 C1478 1.478 . S
C1480 C1482 1.381 . S
C1480 C1486 1.383 . S
C1481 C1477 1.495 . S
C1481 H1487 0.959 . S
C1481 H1488 0.961 . S
C1481 H1489 0.960 . S
C1482 C1480 1.381 . S
C1482 C1483 1.394 . S
C1482 H1490 0.930 . S
C1483 C1482 1.394 . S
C1483 C1484 1.383 . S
C1483 H1491 0.929 . S
C1484 C1483 1.383 . S
C1484 C1485 1.377 . S
C1485 H1469 0.930 . S
C1485 C1484 1.377 . S
C1485 C1486 1.379 . S
C1486 H1470 0.931 . S
C1486 C1480 1.383 . S
C1486 C1485 1.379 . S
H1487 C1481 0.959 . S
H1488 C1481 0.961 . S
H1489 C1481 0.960 . S
H1490 C1482 0.930 . S
H1491 C1483 0.929 . S
H1492 C1500 0.929 . S
H1493 C1502 0.930 . S
H1494 C1504 0.930 . S
H1495 C1507 0.929 . S
H1496 C1510 0.930 . S
H1497 C1512 0.960 . S
H1498 C1512 0.960 . S
H1499 C1512 0.960 . S
C1500 H1492 0.929 . S
C1500 C1501 1.377 . S
C1500 C1502 1.384 . S
C1501 C1500 1.377 . S
C1501 C1507 1.390 . S
C1502 H1493 0.930 . S
C1502 C1500 1.384 . S
C1502 C1503 1.372 . S
C1503 C1502 1.372 . S
C1503 C1504 1.400 . S
C1503 C1508 1.490 . S
C1504 H1494 0.930 . S
C1504 C1503 1.400 . S
C1504 C1507 1.386 . S
H1505 C1521 0.930 . S
H1506 C1522 0.931 . S
C1507 H1495 0.929 . S
C1507 C1501 1.390 . S
C1507 C1504 1.386 . S
C1508 C1503 1.490 . S
C1508 C1510 1.395 . S
C1508 C1511 1.403 . S
H1509 C1515 0.930 . S
C1510 H1496 0.930 . S
C1510 C1508 1.395 . S
C1510 C1513 1.403 . S
C1511 C1508 1.403 . S
C1511 C1512 1.524 . S
C1511 C1515 1.400 . S
C1512 H1497 0.960 . S
C1512 H1498 0.960 . S
C1512 H1499 0.960 . S
C1512 C1511 1.524 . S
C1513 C1510 1.403 . S
C1513 C1514 1.392 . S
C1513 C1517 1.495 . S
C1514 C1513 1.392 . S
C1514 C1515 1.385 . S
C1514 C1516 1.478 . S
C1515 H1509 0.930 . S
C1515 C1511 1.400 . S
C1515 C1514 1.385 . S
C1516 C1514 1.478 . S
C1516 C1518 1.381 . S
C1516 C1522 1.383 . S
C1517 C1513 1.495 . S
C1517 H1523 0.959 . S
C1517 H1524 0.961 . S
C1517 H1525 0.960 . S
C1518 C1516 1.381 . S
C1518 C1519 1.394 . S
C1518 H1526 0.930 . S
C1519 C1518 1.394 . S
C1519 C1520 1.383 . S
C1519 H1527 0.929 . S
C1520 C1519 1.383 . S
C1520 C1521 1.377 . S
C1521 H1505 0.930 . S
C1521 C1520 1.377 . S
C1521 C1522 1.379 . S
C1522 H1506 0.931 . S
C1522 C1516 1.383 . S
C1522 C1521 1.379 . S
H1523 C1517 0.959 . S
H1524 C1517 0.961 . S
H1525 C1517 0.960 . S
H1526 C1518 0.930 . S
H1527 C1519 0.929 . S
H1528 C1536 0.929 . S
H1529 C1538 0.930 . S
H1530 C1540 0.930 . S
H1531 C1543 0.929 . S
H1532 C1546 0.930 . S
H1533 C1548 0.960 . S
H1534 C1548 0.960 . S
H1535 C1548 0.960 . S
C1536 H1528 0.929 . S
C1536 C1537 1.377 . S
C1536 C1538 1.384 . S
C1537 C1536 1.377 . S
C1537 C1543 1.390 . S
C1538 H1529 0.930 . S
C1538 C1536 1.384 . S
C1538 C1539 1.372 . S
C1539 C1538 1.372 . S
C1539 C1540 1.400 . S
C1539 C1544 1.490 . S
C1540 H1530 0.930 . S
C1540 C1539 1.400 . S
C1540 C1543 1.386 . S
H1541 C1557 0.930 . S
H1542 C1558 0.931 . S
C1543 H1531 0.929 . S
C1543 C1537 1.390 . S
C1543 C1540 1.386 . S
C1544 C1539 1.490 . S
C1544 C1546 1.395 . S
C1544 C1547 1.403 . S
H1545 C1551 0.930 . S
C1546 H1532 0.930 . S
C1546 C1544 1.395 . S
C1546 C1549 1.403 . S
C1547 C1544 1.403 . S
C1547 C1548 1.524 . S
C1547 C1551 1.400 . S
C1548 H1533 0.960 . S
C1548 H1534 0.960 . S
C1548 H1535 0.960 . S
C1548 C1547 1.524 . S
C1549 C1546 1.403 . S
C1549 C1550 1.392 . S
C1549 C1553 1.495 . S
C1550 C1549 1.392 . S
C1550 C1551 1.385 . S
C1550 C1552 1.478 . S
C1551 H1545 0.930 . S
C1551 C1547 1.400 . S
C1551 C1550 1.385 . S
C1552 C1550 1.478 . S
C1552 C1554 1.381 . S
C1552 C1558 1.383 . S
C1553 C1549 1.495 . S
C1553 H1559 0.959 . S
C1553 H1560 0.961 . S
C1553 H1561 0.960 . S
C1554 C1552 1.381 . S
C1554 C1555 1.394 . S
C1554 H1562 0.930 . S
C1555 C1554 1.394 . S
C1555 C1556 1.383 . S
C1555 H1563 0.929 . S
C1556 C1555 1.383 . S
C1556 C1557 1.377 . S
C1557 H1541 0.930 . S
C1557 C1556 1.377 . S
C1557 C1558 1.379 . S
C1558 H1542 0.931 . S
C1558 C1552 1.383 . S
C1558 C1557 1.379 . S
H1559 C1553 0.959 . S
H1560 C1553 0.961 . S
H1561 C1553 0.960 . S
H1562 C1554 0.930 . S
H1563 C1555 0.929 . S
H1564 C1572 0.929 . S
H1565 C1574 0.930 . S
H1566 C1576 0.930 . S
H1567 C1579 0.929 . S
H1568 C1582 0.930 . S
H1569 C1584 0.960 . S
H1570 C1584 0.960 . S
H1571 C1584 0.960 . S
C1572 H1564 0.929 . S
C1572 C1573 1.377 . S
C1572 C1574 1.384 . S
C1573 C1572 1.377 . S
C1573 C1579 1.390 . S
C1574 H1565 0.930 . S
C1574 C1572 1.384 . S
C1574 C1575 1.372 . S
C1575 C1574 1.372 . S
C1575 C1576 1.400 . S
C1575 C1580 1.490 . S
C1576 H1566 0.930 . S
C1576 C1575 1.400 . S
C1576 C1579 1.386 . S
H1577 C1593 0.930 . S
H1578 C1594 0.931 . S
C1579 H1567 0.929 . S
C1579 C1573 1.390 . S
C1579 C1576 1.386 . S
C1580 C1575 1.490 . S
C1580 C1582 1.395 . S
C1580 C1583 1.403 . S
H1581 C1587 0.930 . S
C1582 H1568 0.930 . S
C1582 C1580 1.395 . S
C1582 C1585 1.403 1_655 S
C1583 C1580 1.403 . S
C1583 C1584 1.524 . S
C1583 C1587 1.400 1_655 S
C1584 H1569 0.960 . S
C1584 H1570 0.960 . S
C1584 H1571 0.960 . S
C1584 C1583 1.524 . S
C1585 C1582 1.403 1_455 S
C1585 C1586 1.392 . S
C1585 C1589 1.495 . S
C1586 C1585 1.392 . S
C1586 C1587 1.385 . S
C1586 C1588 1.478 . S
C1587 H1581 0.930 . S
C1587 C1583 1.400 1_455 S
C1587 C1586 1.385 . S
C1588 C1586 1.478 . S
C1588 C1590 1.381 . S
C1588 C1594 1.383 . S
C1589 C1585 1.495 . S
C1589 H1595 0.959 . S
C1589 H1596 0.961 . S
C1589 H1597 0.960 . S
C1590 C1588 1.381 . S
C1590 C1591 1.394 . S
C1590 H1598 0.930 . S
C1591 C1590 1.394 . S
C1591 C1592 1.383 . S
C1591 H1599 0.929 . S
C1592 C1591 1.383 . S
C1592 C1593 1.377 . S
C1593 H1577 0.930 . S
C1593 C1592 1.377 . S
C1593 C1594 1.379 . S
C1594 H1578 0.931 . S
C1594 C1588 1.383 . S
C1594 C1593 1.379 . S
H1595 C1589 0.959 . S
H1596 C1589 0.961 . S
H1597 C1589 0.960 . S
H1598 C1590 0.930 . S
H1599 C1591 0.929 . S
H1600 C1608 0.929 . S
H1601 C1610 0.930 1_554 S
H1602 C1612 0.930 . S
H1603 C1615 0.929 . S
H1604 C1618 0.930 . S
H1605 C1620 0.960 . S
H1606 C1620 0.960 . S
H1607 C1620 0.960 . S
C1608 H1600 0.929 . S
C1608 C1609 1.377 . S
C1608 C1610 1.384 . S
C1609 C1608 1.377 . S
C1609 C1615 1.390 . S
C1610 H1601 0.930 1_556 S
C1610 C1608 1.384 . S
C1610 C1611 1.372 . S
C1611 C1610 1.372 . S
C1611 C1612 1.400 . S
C1611 C1616 1.490 . S
C1612 H1602 0.930 . S
C1612 C1611 1.400 . S
C1612 C1615 1.386 . S
H1613 C1629 0.930 . S
H1614 C1630 1.015 . S
C1615 H1603 0.929 . S
C1615 C1609 1.390 . S
C1615 C1612 1.386 . S
C1616 C1611 1.490 . S
C1616 C1618 1.395 1_556 S
C1616 C1619 1.403 . S
H1617 C1623 0.930 . S
C1618 H1604 0.930 . S
C1618 C1616 1.395 1_554 S
C1618 C1621 1.403 . S
C1619 C1616 1.403 . S
C1619 C1620 1.524 . S
C1619 C1623 1.400 . S
C1620 H1605 0.960 . S
C1620 H1606 0.960 . S
C1620 H1607 0.960 . S
C1620 C1619 1.524 . S
C1621 C1618 1.403 . S
C1621 C1622 1.392 . S
C1621 C1625 1.495 . S
C1622 C1621 1.392 . S
C1622 C1623 1.385 1_554 S
C1622 C1624 1.478 . S
C1623 H1617 0.930 . S
C1623 C1619 1.400 . S
C1623 C1622 1.385 1_556 S
C1624 C1622 1.478 . S
C1624 C1626 1.381 . S
C1624 C1630 1.383 . S
C1625 C1621 1.495 . S
C1625 H1631 0.959 . S
C1625 H1632 0.961 . S
C1625 H1633 0.960 . S
C1626 C1624 1.381 . S
C1626 C1627 1.394 . S
C1626 H1634 0.930 . S
C1627 C1626 1.394 . S
C1627 C1628 1.383 . S
C1627 H1635 0.929 . S
C1628 C1627 1.383 . S
C1628 C1629 1.377 . S
C1629 H1613 0.930 . S
C1629 C1628 1.377 . S
C1629 C1630 1.379 . S
C1630 H1614 1.015 . S
C1630 C1624 1.383 . S
C1630 C1629 1.379 . S
H1631 C1625 0.959 . S
H1632 C1625 0.961 . S
H1633 C1625 0.960 . S
H1634 C1626 0.930 . S
H1635 C1627 0.929 . S
H1636 C1644 0.929 . S
H1637 C1646 0.930 . S
H1638 C1648 0.930 . S
H1639 C1651 0.929 . S
H1640 C1654 0.930 . S
H1641 C1656 0.960 . S
H1642 C1656 0.960 . S
H1643 C1656 0.960 . S
C1644 H1636 0.929 . S
C1644 C1645 1.377 . S
C1644 C1646 1.384 . S
C1645 C1644 1.377 . S
C1645 C1651 1.390 . S
C1646 H1637 0.930 . S
C1646 C1644 1.384 . S
C1646 C1647 1.372 . S
C1647 C1646 1.372 . S
C1647 C1648 1.400 . S
C1647 C1652 1.490 . S
C1648 H1638 0.930 . S
C1648 C1647 1.400 . S
C1648 C1651 1.386 . S
H1649 C1665 0.930 . S
H1650 C1666 0.931 . S
C1651 H1639 0.929 . S
C1651 C1645 1.390 . S
C1651 C1648 1.386 . S
C1652 C1647 1.490 . S
C1652 C1654 1.395 . S
C1652 C1655 1.403 . S
H1653 C1659 0.930 . S
C1654 H1640 0.930 . S
C1654 C1652 1.395 . S
C1654 C1657 1.403 1_545 S
C1655 C1652 1.403 . S
C1655 C1656 1.524 . S
C1655 C1659 1.400 1_545 S
C1656 H1641 0.960 . S
C1656 H1642 0.960 . S
C1656 H1643 0.960 . S
C1656 C1655 1.524 . S
C1657 C1654 1.403 1_565 S
C1657 C1658 1.392 . S
C1657 C1661 1.495 . S
C1658 C1657 1.392 . S
C1658 C1659 1.385 . S
C1658 C1660 1.478 . S
C1659 H1653 0.930 . S
C1659 C1655 1.400 1_565 S
C1659 C1658 1.385 . S
C1660 C1658 1.478 . S
C1660 C1662 1.381 . S
C1660 C1666 1.383 . S
C1661 C1657 1.495 . S
C1661 H1667 0.959 . S
C1661 H1668 0.961 . S
C1661 H1669 0.960 . S
C1662 C1660 1.381 . S
C1662 C1663 1.394 . S
C1662 H1670 0.930 . S
C1663 C1662 1.394 . S
C1663 C1664 1.383 . S
C1663 H1671 0.929 . S
C1664 C1663 1.383 . S
C1664 C1665 1.377 . S
C1665 H1649 0.930 . S
C1665 C1664 1.377 . S
C1665 C1666 1.379 . S
C1666 H1650 0.931 . S
C1666 C1660 1.383 . S
C1666 C1665 1.379 . S
H1667 C1661 0.959 . S
H1668 C1661 0.961 . S
H1669 C1661 0.960 . S
H1670 C1662 0.930 . S
H1671 C1663 0.929 . S
H1672 C1680 0.929 . S
H1673 C1682 0.930 . S
H1674 C1684 0.930 . S
H1675 C1687 0.929 . S
H1676 C1690 0.930 . S
H1677 C1692 0.960 . S
H1678 C1692 0.960 . S
H1679 C1692 0.960 . S
C1680 H1672 0.929 . S
C1680 C1681 1.377 . S
C1680 C1682 1.384 . S
C1681 C1680 1.377 . S
C1681 C1687 1.390 . S
C1682 H1673 0.930 . S
C1682 C1680 1.384 . S
C1682 C1683 1.372 . S
C1683 C1682 1.372 . S
C1683 C1684 1.400 . S
C1683 C1688 1.490 . S
C1684 H1674 0.930 . S
C1684 C1683 1.400 . S
C1684 C1687 1.386 . S
H1685 C1701 0.930 . S
H1686 C1702 0.931 . S
C1687 H1675 0.929 . S
C1687 C1681 1.390 . S
C1687 C1684 1.386 . S
C1688 C1683 1.490 . S
C1688 C1690 1.395 . S
C1688 C1691 1.403 . S
H1689 C1695 0.930 . S
C1690 H1676 0.930 . S
C1690 C1688 1.395 . S
C1690 C1693 1.403 . S
C1691 C1688 1.403 . S
C1691 C1692 1.524 . S
C1691 C1695 1.400 . S
C1692 H1677 0.960 . S
C1692 H1678 0.960 . S
C1692 H1679 0.960 . S
C1692 C1691 1.524 . S
C1693 C1690 1.403 . S
C1693 C1694 1.392 . S
C1693 C1697 1.495 . S
C1694 C1693 1.392 . S
C1694 C1695 1.385 . S
C1694 C1696 1.478 . S
C1695 H1689 0.930 . S
C1695 C1691 1.400 . S
C1695 C1694 1.385 . S
C1696 C1694 1.478 . S
C1696 C1698 1.381 . S
C1696 C1702 1.383 . S
C1697 C1693 1.495 . S
C1697 H1703 0.959 . S
C1697 H1704 0.961 . S
C1697 H1705 0.960 . S
C1698 C1696 1.381 . S
C1698 C1699 1.394 . S
C1698 H1706 0.930 . S
C1699 C1698 1.394 . S
C1699 C1700 1.383 . S
C1699 H1707 0.929 . S
C1700 C1699 1.383 . S
C1700 C1701 1.377 . S
C1701 H1685 0.930 . S
C1701 C1700 1.377 . S
C1701 C1702 1.379 . S
C1702 H1686 0.931 . S
C1702 C1696 1.383 . S
C1702 C1701 1.379 . S
H1703 C1697 0.959 . S
H1704 C1697 0.961 . S
H1705 C1697 0.960 . S
H1706 C1698 0.930 . S
H1707 C1699 0.929 . S
H1708 C1716 0.929 . S
H1709 C1718 0.930 . S
H1710 C1720 0.930 . S
H1711 C1723 0.929 . S
H1712 C1726 0.930 . S
H1713 C1728 0.960 . S
H1714 C1728 0.960 . S
H1715 C1728 0.960 . S
C1716 H1708 0.929 . S
C1716 C1717 1.377 . S
C1716 C1718 1.384 . S
C1717 C1716 1.377 . S
C1717 C1723 1.390 . S
C1718 H1709 0.930 . S
C1718 C1716 1.384 . S
C1718 C1719 1.372 . S
C1719 C1718 1.372 . S
C1719 C1720 1.400 . S
C1719 C1724 1.490 . S
C1720 H1710 0.930 . S
C1720 C1719 1.400 . S
C1720 C1723 1.386 . S
H1721 C1737 0.930 . S
H1722 C1738 0.931 . S
C1723 H1711 0.929 . S
C1723 C1717 1.390 . S
C1723 C1720 1.386 . S
C1724 C1719 1.490 . S
C1724 C1726 1.395 . S
C1724 C1727 1.403 . S
H1725 C1731 0.930 . S
C1726 H1712 0.930 . S
C1726 C1724 1.395 . S
C1726 C1729 1.403 1_545 S
C1727 C1724 1.403 . S
C1727 C1728 1.524 . S
C1727 C1731 1.400 1_545 S
C1728 H1713 0.960 . S
C1728 H1714 0.960 . S
C1728 H1715 0.960 . S
C1728 C1727 1.524 . S
C1729 C1726 1.403 1_565 S
C1729 C1730 1.392 . S
C1729 C1733 1.495 . S
C1730 C1729 1.392 . S
C1730 C1731 1.385 . S
C1730 C1732 1.478 . S
C1731 H1725 0.930 . S
C1731 C1727 1.400 1_565 S
C1731 C1730 1.385 . S
C1732 C1730 1.478 . S
C1732 C1734 1.381 . S
C1732 C1738 1.383 . S
C1733 C1729 1.495 . S
C1733 H1739 0.959 . S
C1733 H1740 0.961 . S
C1733 H1741 0.960 . S
C1734 C1732 1.381 . S
C1734 C1735 1.394 . S
C1734 H1742 0.930 . S
C1735 C1734 1.394 . S
C1735 C1736 1.383 . S
C1735 H1743 0.929 . S
C1736 C1735 1.383 . S
C1736 C1737 1.377 . S
C1737 H1721 0.930 . S
C1737 C1736 1.377 . S
C1737 C1738 1.379 . S
C1738 H1722 0.931 . S
C1738 C1732 1.383 . S
C1738 C1737 1.379 . S
H1739 C1733 0.959 . S
H1740 C1733 0.961 . S
H1741 C1733 0.960 . S
H1742 C1734 0.930 . S
H1743 C1735 0.929 . S
H1744 C1752 0.929 . S
H1745 C1754 0.930 . S
H1746 C1756 0.930 1_556 S
H1747 C1759 0.929 . S
H1748 C1762 0.930 . S
H1749 C1764 0.960 . S
H1750 C1764 0.960 1_554 S
H1751 C1764 0.960 . S
C1752 H1744 0.929 . S
C1752 C1753 1.377 . S
C1752 C1754 1.384 . S
C1753 C1752 1.377 . S
C1753 C1759 1.390 . S
C1754 H1745 0.930 . S
C1754 C1752 1.384 . S
C1754 C1755 1.372 . S
C1755 C1754 1.372 . S
C1755 C1756 1.400 . S
C1755 C1760 1.490 . S
C1756 H1746 0.930 1_554 S
C1756 C1755 1.400 . S
C1756 C1759 1.386 . S
H1757 C1773 0.930 . S
H1758 C1774 0.931 . S
C1759 H1747 0.929 . S
C1759 C1753 1.390 . S
C1759 C1756 1.386 . S
C1760 C1755 1.490 . S
C1760 C1762 1.395 . S
C1760 C1763 1.390 1_554 S
H1761 C1767 0.930 . S
C1762 H1748 0.930 . S
C1762 C1760 1.395 . S
C1762 C1765 1.403 . S
C1763 C1760 1.390 1_556 S
C1763 C1764 1.526 . S
C1763 C1767 1.411 . S
C1764 H1749 0.960 . S
C1764 H1750 0.960 1_556 S
C1764 H1751 0.960 . S
C1764 C1763 1.526 . S
C1765 C1762 1.403 . S
C1765 C1766 1.392 1_554 S
C1765 C1769 1.495 . S
C1766 C1765 1.392 1_556 S
C1766 C1767 1.385 . S
C1766 C1768 1.478 . S
C1767 H1761 0.930 . S
C1767 C1763 1.411 . S
C1767 C1766 1.385 . S
C1768 C1766 1.478 . S
C1768 C1770 1.381 . S
C1768 C1774 1.383 . S
C1769 C1765 1.495 . S
C1769 H1775 0.959 . S
C1769 H1776 0.961 1_554 S
C1769 H1777 0.960 . S
C1770 C1768 1.381 . S
C1770 C1771 1.394 . S
C1770 H1778 0.930 1_556 S
C1771 C1770 1.394 . S
C1771 C1772 1.383 . S
C1771 H1779 0.929 . S
C1772 C1771 1.383 . S
C1772 C1773 1.377 . S
C1773 H1757 0.930 . S
C1773 C1772 1.377 . S
C1773 C1774 1.379 . S
C1774 H1758 0.931 . S
C1774 C1768 1.383 . S
C1774 C1773 1.379 . S
H1775 C1769 0.959 . S
H1776 C1769 0.961 1_556 S
H1777 C1769 0.960 . S
H1778 C1770 0.930 1_554 S
H1779 C1771 0.929 . S
H1780 C1788 0.929 . S
H1781 C1790 0.930 . S
H1782 C1792 0.930 . S
H1783 C1795 0.929 . S
H1784 C1798 0.930 . S
H1785 C1800 0.960 1_545 S
H1786 C1800 0.960 . S
H1787 C1800 0.960 . S
C1788 H1780 0.929 . S
C1788 C1789 1.377 . S
C1788 C1790 1.384 . S
C1789 C1788 1.377 . S
C1789 C1795 1.390 . S
C1790 H1781 0.930 . S
C1790 C1788 1.384 . S
C1790 C1791 1.372 . S
C1791 C1790 1.372 . S
C1791 C1792 1.400 . S
C1791 C1796 1.490 . S
C1792 H1782 0.930 . S
C1792 C1791 1.400 . S
C1792 C1795 1.386 . S
H1793 C1809 0.930 . S
H1794 C1810 0.931 . S
C1795 H1783 0.929 . S
C1795 C1789 1.390 . S
C1795 C1792 1.386 . S
C1796 C1791 1.490 . S
C1796 C1798 1.395 . S
C1796 C1799 1.403 . S
H1797 C1803 0.930 . S
C1798 H1784 0.930 . S
C1798 C1796 1.395 . S
C1798 C1801 1.403 1_565 S
C1799 C1796 1.403 . S
C1799 C1800 1.524 . S
C1799 C1803 1.400 1_565 S
C1800 H1785 0.960 1_565 S
C1800 H1786 0.960 . S
C1800 H1787 0.960 . S
C1800 C1799 1.524 . S
C1801 C1798 1.403 1_545 S
C1801 C1802 1.392 . S
C1801 C1805 1.495 . S
C1802 C1801 1.392 . S
C1802 C1803 1.385 . S
C1802 C1804 1.478 . S
C1803 H1797 0.930 . S
C1803 C1799 1.400 1_545 S
C1803 C1802 1.385 . S
C1804 C1802 1.478 . S
C1804 C1806 1.381 . S
C1804 C1810 1.383 . S
C1805 C1801 1.495 . S
C1805 H1811 0.959 1_545 S
C1805 H1812 0.961 . S
C1805 H1813 0.960 . S
C1806 C1804 1.381 . S
C1806 C1807 1.394 . S
C1806 H1814 0.930 . S
C1807 C1806 1.394 . S
C1807 C1808 1.383 . S
C1807 H1815 0.929 . S
C1808 C1807 1.383 . S
C1808 C1809 1.377 . S
C1809 H1793 0.930 . S
C1809 C1808 1.377 . S
C1809 C1810 1.379 . S
C1810 H1794 0.931 . S
C1810 C1804 1.383 . S
C1810 C1809 1.379 . S
H1811 C1805 0.959 1_565 S
H1812 C1805 0.961 . S
H1813 C1805 0.960 . S
H1814 C1806 0.930 . S
H1815 C1807 0.929 . S
H1816 C1824 0.929 . S
H1817 C1826 0.930 . S
H1818 C1828 0.930 . S
H1819 C1831 0.929 . S
H1820 C1834 0.930 . S
H1821 C1836 0.960 . S
H1822 C1836 0.960 . S
H1823 C1836 0.960 . S
C1824 H1816 0.929 . S
C1824 C1825 1.377 . S
C1824 C1826 1.384 . S
C1825 C1824 1.377 . S
C1825 C1831 1.390 . S
C1826 H1817 0.930 . S
C1826 C1824 1.384 . S
C1826 C1827 1.372 . S
C1827 C1826 1.372 . S
C1827 C1828 1.400 . S
C1827 C1832 1.490 . S
C1828 H1818 0.930 . S
C1828 C1827 1.400 . S
C1828 C1831 1.386 . S
H1829 C1845 0.930 . S
H1830 C1846 0.931 . S
C1831 H1819 0.929 . S
C1831 C1825 1.390 . S
C1831 C1828 1.386 . S
C1832 C1827 1.490 . S
C1832 C1834 1.395 . S
C1832 C1835 1.403 . S
H1833 C1839 0.930 . S
C1834 H1820 0.930 . S
C1834 C1832 1.395 . S
C1834 C1837 1.403 . S
C1835 C1832 1.403 . S
C1835 C1836 1.524 . S
C1835 C1839 1.400 . S
C1836 H1821 0.960 . S
C1836 H1822 0.960 . S
C1836 H1823 0.960 . S
C1836 C1835 1.524 . S
C1837 C1834 1.403 . S
C1837 C1838 1.392 . S
C1837 C1841 1.495 . S
C1838 C1837 1.392 . S
C1838 C1839 1.385 . S
C1838 C1840 1.478 . S
C1839 H1833 0.930 . S
C1839 C1835 1.400 . S
C1839 C1838 1.385 . S
C1840 C1838 1.478 . S
C1840 C1842 1.381 . S
C1840 C1846 1.383 . S
C1841 C1837 1.495 . S
C1841 H1847 0.959 . S
C1841 H1848 0.961 . S
C1841 H1849 0.960 . S
C1842 C1840 1.381 . S
C1842 C1843 1.394 . S
C1842 H1850 0.930 . S
C1843 C1842 1.394 . S
C1843 C1844 1.383 . S
C1843 H1851 0.929 . S
C1844 C1843 1.383 . S
C1844 C1845 1.377 . S
C1845 H1829 0.930 . S
C1845 C1844 1.377 . S
C1845 C1846 1.379 . S
C1846 H1830 0.931 . S
C1846 C1840 1.383 . S
C1846 C1845 1.379 . S
H1847 C1841 0.959 . S
H1848 C1841 0.961 . S
H1849 C1841 0.960 . S
H1850 C1842 0.930 . S
H1851 C1843 0.929 . S
H1852 C1860 0.929 . S
H1853 C1862 0.930 . S
H1854 C1864 0.930 . S
H1855 C1867 0.929 . S
H1856 C1870 0.930 . S
H1857 C1872 0.956 1_565 S
H1858 C1872 0.962 . S
H1859 C1872 0.961 . S
C1860 H1852 0.929 . S
C1860 C1861 1.377 . S
C1860 C1862 1.384 . S
C1861 C1860 1.377 . S
C1861 C1867 1.390 . S
C1862 H1853 0.930 . S
C1862 C1860 1.384 . S
C1862 C1863 1.372 . S
C1863 C1862 1.372 . S
C1863 C1864 1.400 . S
C1863 C1868 1.490 . S
C1864 H1854 0.930 . S
C1864 C1863 1.400 . S
C1864 C1867 1.386 . S
H1865 C1881 0.930 . S
H1866 C1882 0.931 . S
C1867 H1855 0.929 . S
C1867 C1861 1.390 . S
C1867 C1864 1.386 . S
C1868 C1863 1.490 . S
C1868 C1870 1.395 . S
C1868 C1871 1.403 . S
H1869 C1875 0.930 . S
C1870 H1856 0.930 . S
C1870 C1868 1.395 . S
C1870 C1873 1.403 . S
C1871 C1868 1.403 . S
C1871 C1872 1.524 . S
C1871 C1875 1.400 1_545 S
C1872 H1857 0.956 1_545 S
C1872 H1858 0.962 . S
C1872 H1859 0.961 . S
C1872 C1871 1.524 . S
C1873 C1870 1.403 . S
C1873 C1874 1.392 1_545 S
C1873 C1877 1.495 . S
C1874 C1873 1.392 1_565 S
C1874 C1875 1.385 . S
C1874 C1876 1.478 . S
C1875 H1869 0.930 . S
C1875 C1871 1.400 1_565 S
C1875 C1874 1.385 . S
C1876 C1874 1.478 . S
C1876 C1878 1.381 . S
C1876 C1882 1.383 . S
C1877 C1873 1.495 . S
C1877 H1883 0.959 . S
C1877 H1884 0.961 1_545 S
C1877 H1885 0.960 1_545 S
C1878 C1876 1.381 . S
C1878 C1879 1.394 . S
C1878 H1886 0.930 . S
C1879 C1878 1.394 . S
C1879 C1880 1.383 . S
C1879 H1887 0.929 . S
C1880 C1879 1.383 . S
C1880 C1881 1.377 . S
C1881 H1865 0.930 . S
C1881 C1880 1.377 . S
C1881 C1882 1.379 . S
C1882 H1866 0.931 . S
C1882 C1876 1.383 . S
C1882 C1881 1.379 . S
H1883 C1877 0.959 . S
H1884 C1877 0.961 1_565 S
H1885 C1877 0.960 1_565 S
H1886 C1878 0.930 . S
H1887 C1879 0.929 . S
H1888 C1896 0.929 . S
H1889 C1898 0.930 . S
H1890 C1900 0.930 . S
H1891 C1903 0.929 . S
H1892 C1906 0.930 . S
H1893 C1908 0.960 . S
H1894 C1908 0.960 . S
H1895 C1908 0.960 . S
C1896 H1888 0.929 . S
C1896 C1897 1.377 . S
C1896 C1898 1.384 . S
C1897 C1896 1.377 . S
C1897 C1903 1.390 . S
C1898 H1889 0.930 . S
C1898 C1896 1.384 . S
C1898 C1899 1.372 . S
C1899 C1898 1.372 . S
C1899 C1900 1.400 . S
C1899 C1904 1.490 . S
C1900 H1890 0.930 . S
C1900 C1899 1.400 . S
C1900 C1903 1.386 . S
H1901 C1917 0.930 . S
H1902 C1918 0.931 . S
C1903 H1891 0.929 . S
C1903 C1897 1.390 . S
C1903 C1900 1.386 . S
C1904 C1899 1.490 . S
C1904 C1906 1.395 . S
C1904 C1907 1.403 . S
H1905 C1911 0.930 . S
C1906 H1892 0.930 . S
C1906 C1904 1.395 . S
C1906 C1909 1.403 . S
C1907 C1904 1.403 . S
C1907 C1908 1.524 . S
C1907 C1911 1.400 . S
C1908 H1893 0.960 . S
C1908 H1894 0.960 . S
C1908 H1895 0.960 . S
C1908 C1907 1.524 . S
C1909 C1906 1.403 . S
C1909 C1910 1.392 . S
C1909 C1913 1.495 . S
C1910 C1909 1.392 . S
C1910 C1911 1.385 . S
C1910 C1912 1.478 . S
C1911 H1905 0.930 . S
C1911 C1907 1.400 . S
C1911 C1910 1.385 . S
C1912 C1910 1.478 . S
C1912 C1914 1.381 . S
C1912 C1918 1.383 . S
C1913 C1909 1.495 . S
C1913 H1919 0.959 . S
C1913 H1920 0.961 . S
C1913 H1921 0.960 . S
C1914 C1912 1.381 . S
C1914 C1915 1.394 . S
C1914 H1922 0.930 . S
C1915 C1914 1.394 . S
C1915 C1916 1.383 . S
C1915 H1923 0.929 . S
C1916 C1915 1.383 . S
C1916 C1917 1.377 . S
C1917 H1901 0.930 . S
C1917 C1916 1.377 . S
C1917 C1918 1.379 . S
C1918 H1902 0.931 . S
C1918 C1912 1.383 . S
C1918 C1917 1.379 . S
H1919 C1913 0.959 . S
H1920 C1913 0.961 . S
H1921 C1913 0.960 . S
H1922 C1914 0.930 . S
H1923 C1915 0.929 . S
H1924 C1932 0.929 . S
H1925 C1934 0.930 . S
H1926 C1936 0.930 . S
H1927 C1939 0.929 . S
H1928 C1942 0.930 . S
H1929 C1944 0.960 . S
H1930 C1944 0.960 . S
H1931 C1944 0.960 . S
C1932 H1924 0.929 . S
C1932 C1933 1.377 . S
C1932 C1934 1.384 . S
C1933 C1932 1.377 . S
C1933 C1939 1.390 . S
C1934 H1925 0.930 . S
C1934 C1932 1.384 . S
C1934 C1935 1.372 . S
C1935 C1934 1.372 . S
C1935 C1936 1.400 . S
C1935 C1940 1.490 . S
C1936 H1926 0.930 . S
C1936 C1935 1.400 . S
C1936 C1939 1.386 . S
H1937 C1953 0.930 . S
H1938 C1954 0.931 . S
C1939 H1927 0.929 . S
C1939 C1933 1.390 . S
C1939 C1936 1.386 . S
C1940 C1935 1.490 . S
C1940 C1942 1.395 . S
C1940 C1943 1.403 . S
H1941 C1947 0.930 . S
C1942 H1928 0.930 . S
C1942 C1940 1.395 . S
C1942 C1945 1.403 . S
C1943 C1940 1.403 . S
C1943 C1944 1.524 . S
C1943 C1947 1.400 . S
C1944 H1929 0.960 . S
C1944 H1930 0.960 . S
C1944 H1931 0.960 . S
C1944 C1943 1.524 . S
C1945 C1942 1.403 . S
C1945 C1946 1.392 . S
C1945 C1949 1.495 . S
C1946 C1945 1.392 . S
C1946 C1947 1.385 . S
C1946 C1948 1.478 . S
C1947 H1941 0.930 . S
C1947 C1943 1.400 . S
C1947 C1946 1.385 . S
C1948 C1946 1.478 . S
C1948 C1950 1.381 . S
C1948 C1954 1.383 . S
C1949 C1945 1.495 . S
C1949 H1955 0.959 . S
C1949 H1956 0.961 . S
C1949 H1957 0.960 . S
C1950 C1948 1.381 . S
C1950 C1951 1.394 . S
C1950 H1958 0.930 . S
C1951 C1950 1.394 . S
C1951 C1952 1.383 . S
C1951 H1959 0.929 . S
C1952 C1951 1.383 . S
C1952 C1953 1.377 . S
C1953 H1937 0.930 . S
C1953 C1952 1.377 . S
C1953 C1954 1.379 . S
C1954 H1938 0.931 . S
C1954 C1948 1.383 . S
C1954 C1953 1.379 . S
H1955 C1949 0.959 . S
H1956 C1949 0.961 . S
H1957 C1949 0.960 . S
H1958 C1950 0.930 . S
H1959 C1951 0.929 . S
H1960 C1968 0.929 . S
H1961 C1970 0.930 . S
H1962 C1972 0.930 . S
H1963 C1975 0.929 . S
H1964 C1978 0.930 . S
H1965 C1980 0.960 . S
H1966 C1980 0.960 . S
H1967 C1980 0.960 . S
C1968 H1960 0.929 . S
C1968 C1969 1.377 . S
C1968 C1970 1.384 . S
C1969 C1968 1.377 . S
C1969 C1975 1.390 . S
C1970 H1961 0.930 . S
C1970 C1968 1.384 . S
C1970 C1971 1.372 . S
C1971 C1970 1.372 . S
C1971 C1972 1.400 . S
C1971 C1976 1.490 . S
C1972 H1962 0.930 . S
C1972 C1971 1.400 . S
C1972 C1975 1.386 . S
H1973 C1989 0.930 . S
H1974 C1990 0.931 . S
C1975 H1963 0.929 . S
C1975 C1969 1.390 . S
C1975 C1972 1.386 . S
C1976 C1971 1.490 . S
C1976 C1978 1.395 . S
C1976 C1979 1.403 1_554 S
H1977 C1983 0.930 . S
C1978 H1964 0.930 . S
C1978 C1976 1.395 . S
C1978 C1981 1.403 . S
C1979 C1976 1.403 1_556 S
C1979 C1980 1.524 . S
C1979 C1983 1.400 . S
C1980 H1965 0.960 . S
C1980 H1966 0.960 . S
C1980 H1967 0.960 . S
C1980 C1979 1.524 . S
C1981 C1978 1.403 . S
C1981 C1982 1.392 1_554 S
C1981 C1985 1.495 . S
C1982 C1981 1.392 1_556 S
C1982 C1983 1.385 . S
C1982 C1984 1.478 . S
C1983 H1977 0.930 . S
C1983 C1979 1.400 . S
C1983 C1982 1.385 . S
C1984 C1982 1.478 . S
C1984 C1986 1.381 . S
C1984 C1990 1.383 . S
C1985 C1981 1.495 . S
C1985 H1991 0.959 . S
C1985 H1992 0.961 . S
C1985 H1993 0.960 . S
C1986 C1984 1.381 . S
C1986 C1987 1.394 . S
C1986 H1994 0.930 . S
C1987 C1986 1.394 . S
C1987 C1988 1.383 . S
C1987 H1995 0.929 . S
C1988 C1987 1.383 . S
C1988 C1989 1.377 . S
C1989 H1973 0.930 . S
C1989 C1988 1.377 . S
C1989 C1990 1.379 . S
C1990 H1974 0.931 . S
C1990 C1984 1.383 . S
C1990 C1989 1.379 . S
H1991 C1985 0.959 . S
H1992 C1985 0.961 . S
H1993 C1985 0.960 . S
H1994 C1986 0.930 . S
H1995 C1987 0.929 . S
H1996 C2004 0.929 . S
H1997 C2006 0.930 . S
H1998 C2008 0.930 . S
H1999 C2011 0.929 . S
H2000 C2014 0.930 . S
H2001 C2016 0.960 . S
H2002 C2016 0.960 . S
H2003 C2016 0.960 . S
C2004 H1996 0.929 . S
C2004 C2005 1.377 . S
C2004 C2006 1.384 . S
C2005 C2004 1.377 . S
C2005 C2011 1.390 . S
C2006 H1997 0.930 . S
C2006 C2004 1.384 . S
C2006 C2007 1.372 . S
C2007 C2006 1.372 . S
C2007 C2008 1.400 . S
C2007 C2012 1.490 . S
C2008 H1998 0.930 . S
C2008 C2007 1.400 . S
C2008 C2011 1.386 . S
H2009 C2025 0.930 . S
H2010 C2026 0.931 . S
C2011 H1999 0.929 . S
C2011 C2005 1.390 . S
C2011 C2008 1.386 . S
C2012 C2007 1.490 . S
C2012 C2014 1.395 . S
C2012 C2015 1.403 . S
H2013 C2019 0.930 . S
C2014 H2000 0.930 . S
C2014 C2012 1.395 . S
C2014 C2017 1.403 . S
C2015 C2012 1.403 . S
C2015 C2016 1.524 . S
C2015 C2019 1.400 . S
C2016 H2001 0.960 . S
C2016 H2002 0.960 . S
C2016 H2003 0.960 . S
C2016 C2015 1.524 . S
C2017 C2014 1.403 . S
C2017 C2018 1.392 . S
C2017 C2021 1.495 . S
C2018 C2017 1.392 . S
C2018 C2019 1.385 . S
C2018 C2020 1.478 . S
C2019 H2013 0.930 . S
C2019 C2015 1.400 . S
C2019 C2018 1.385 . S
C2020 C2018 1.478 . S
C2020 C2022 1.381 . S
C2020 C2026 1.383 . S
C2021 C2017 1.495 . S
C2021 H2027 0.959 . S
C2021 H2028 0.961 . S
C2021 H2029 0.960 . S
C2022 C2020 1.381 . S
C2022 C2023 1.394 . S
C2022 H2030 0.930 . S
C2023 C2022 1.394 . S
C2023 C2024 1.383 . S
C2023 H2031 0.929 . S
C2024 C2023 1.383 . S
C2024 C2025 1.377 . S
C2025 H2009 0.930 . S
C2025 C2024 1.377 . S
C2025 C2026 1.379 . S
C2026 H2010 0.931 . S
C2026 C2020 1.383 . S
C2026 C2025 1.379 . S
H2027 C2021 0.959 . S
H2028 C2021 0.961 . S
H2029 C2021 0.960 . S
H2030 C2022 0.930 . S
H2031 C2023 0.929 . S
H2032 C2040 0.929 . S
H2033 C2042 0.930 . S
H2034 C2044 0.930 . S
H2035 C2047 0.929 . S
H2036 C2050 0.930 . S
H2037 C2052 0.960 . S
H2038 C2052 0.960 . S
H2039 C2052 0.960 . S
C2040 H2032 0.929 . S
C2040 C2041 1.377 . S
C2040 C2042 1.384 . S
C2041 C2040 1.377 . S
C2041 C2047 1.390 . S
C2042 H2033 0.930 . S
C2042 C2040 1.384 . S
C2042 C2043 1.372 . S
C2043 C2042 1.372 . S
C2043 C2044 1.400 . S
C2043 C2048 1.490 . S
C2044 H2034 0.930 . S
C2044 C2043 1.400 . S
C2044 C2047 1.386 . S
H2045 C2061 0.930 . S
H2046 C2062 0.931 . S
C2047 H2035 0.929 . S
C2047 C2041 1.390 . S
C2047 C2044 1.386 . S
C2048 C2043 1.490 . S
C2048 C2050 1.395 . S
C2048 C2051 1.403 . S
H2049 C2055 0.930 . S
C2050 H2036 0.930 . S
C2050 C2048 1.395 . S
C2050 C2053 1.403 . S
C2051 C2048 1.403 . S
C2051 C2052 1.524 . S
C2051 C2055 1.400 . S
C2052 H2037 0.960 . S
C2052 H2038 0.960 . S
C2052 H2039 0.960 . S
C2052 C2051 1.524 . S
C2053 C2050 1.403 . S
C2053 C2054 1.392 . S
C2053 C2057 1.495 . S
C2054 C2053 1.392 . S
C2054 C2055 1.385 . S
C2054 C2056 1.478 . S
C2055 H2049 0.930 . S
C2055 C2051 1.400 . S
C2055 C2054 1.385 . S
C2056 C2054 1.478 . S
C2056 C2058 1.381 . S
C2056 C2062 1.383 . S
C2057 C2053 1.495 . S
C2057 H2063 0.959 . S
C2057 H2064 0.961 . S
C2057 H2065 0.960 . S
C2058 C2056 1.381 . S
C2058 C2059 1.394 . S
C2058 H2066 0.930 . S
C2059 C2058 1.394 . S
C2059 C2060 1.383 . S
C2059 H2067 0.929 . S
C2060 C2059 1.383 . S
C2060 C2061 1.377 . S
C2061 H2045 0.930 . S
C2061 C2060 1.377 . S
C2061 C2062 1.379 . S
C2062 H2046 0.931 . S
C2062 C2056 1.383 . S
C2062 C2061 1.379 . S
H2063 C2057 0.959 . S
H2064 C2057 0.961 . S
H2065 C2057 0.960 . S
H2066 C2058 0.930 . S
H2067 C2059 0.929 . S
H2068 C2076 0.929 . S
H2069 C2078 0.930 . S
H2070 C2080 0.930 . S
H2071 C2083 0.929 . S
H2072 C2086 0.930 . S
H2073 C2088 0.960 . S
H2074 C2088 0.960 . S
H2075 C2088 0.960 . S
C2076 H2068 0.929 . S
C2076 C2077 1.377 . S
C2076 C2078 1.384 . S
C2077 C2076 1.377 . S
C2077 C2083 1.390 . S
C2078 H2069 0.930 . S
C2078 C2076 1.384 . S
C2078 C2079 1.372 . S
C2079 C2078 1.372 . S
C2079 C2080 1.400 . S
C2079 C2084 1.490 . S
C2080 H2070 0.930 . S
C2080 C2079 1.400 . S
C2080 C2083 1.386 . S
H2081 C2097 0.930 . S
H2082 C2098 0.931 . S
C2083 H2071 0.929 . S
C2083 C2077 1.390 . S
C2083 C2080 1.386 . S
C2084 C2079 1.490 . S
C2084 C2086 1.395 . S
C2084 C2087 1.403 . S
H2085 C2091 0.930 . S
C2086 H2072 0.930 . S
C2086 C2084 1.395 . S
C2086 C2089 1.403 . S
C2087 C2084 1.403 . S
C2087 C2088 1.524 . S
C2087 C2091 1.400 . S
C2088 H2073 0.960 . S
C2088 H2074 0.960 . S
C2088 H2075 0.960 . S
C2088 C2087 1.524 . S
C2089 C2086 1.403 . S
C2089 C2090 1.392 . S
C2089 C2093 1.495 . S
C2090 C2089 1.392 . S
C2090 C2091 1.385 . S
C2090 C2092 1.478 . S
C2091 H2085 0.930 . S
C2091 C2087 1.400 . S
C2091 C2090 1.385 . S
C2092 C2090 1.478 . S
C2092 C2094 1.381 . S
C2092 C2098 1.383 . S
C2093 C2089 1.495 . S
C2093 H2099 0.959 . S
C2093 H2100 0.961 . S
C2093 H2101 0.960 . S
C2094 C2092 1.381 . S
C2094 C2095 1.394 . S
C2094 H2102 0.930 . S
C2095 C2094 1.394 . S
C2095 C2096 1.383 . S
C2095 H2103 0.929 . S
C2096 C2095 1.383 . S
C2096 C2097 1.377 . S
C2097 H2081 0.930 . S
C2097 C2096 1.377 . S
C2097 C2098 1.379 . S
C2098 H2082 0.931 . S
C2098 C2092 1.383 . S
C2098 C2097 1.379 . S
H2099 C2093 0.959 . S
H2100 C2093 0.961 . S
H2101 C2093 0.960 . S
H2102 C2094 0.930 . S
H2103 C2095 0.929 . S
H2104 C2112 0.929 . S
H2105 C2114 0.930 . S
H2106 C2116 0.930 1_554 S
H2107 C2119 0.929 . S
H2108 C2122 0.930 . S
H2109 C2124 0.960 . S
H2110 C2124 0.885 1_556 S
H2111 C2124 0.960 . S
C2112 H2104 0.929 . S
C2112 C2113 1.377 . S
C2112 C2114 1.384 . S
C2113 C2112 1.377 . S
C2113 C2119 1.390 . S
C2114 H2105 0.930 . S
C2114 C2112 1.384 . S
C2114 C2115 1.372 . S
C2115 C2114 1.372 . S
C2115 C2116 1.400 . S
C2115 C2120 1.490 . S
C2116 H2106 0.930 1_556 S
C2116 C2115 1.400 . S
C2116 C2119 1.386 . S
H2117 C2133 0.930 . S
H2118 C2134 0.931 . S
C2119 H2107 0.929 . S
C2119 C2113 1.390 . S
C2119 C2116 1.386 . S
C2120 C2115 1.490 . S
C2120 C2122 1.395 . S
C2120 C2123 1.403 1_556 S
H2121 C2127 0.930 . S
C2122 H2108 0.930 . S
C2122 C2120 1.395 . S
C2122 C2125 1.403 . S
C2123 C2120 1.403 1_554 S
C2123 C2124 1.524 . S
C2123 C2127 1.400 . S
C2124 H2109 0.960 . S
C2124 H2110 0.885 1_554 S
C2124 H2111 0.960 . S
C2124 C2123 1.524 . S
C2125 C2122 1.403 . S
C2125 C2126 1.392 1_556 S
C2125 C2129 1.495 . S
C2126 C2125 1.392 1_554 S
C2126 C2127 1.385 . S
C2126 C2128 1.478 . S
C2127 H2121 0.930 . S
C2127 C2123 1.400 . S
C2127 C2126 1.385 . S
C2128 C2126 1.478 . S
C2128 C2130 1.381 . S
C2128 C2134 1.383 . S
C2129 C2125 1.495 . S
C2129 H2135 0.959 . S
C2129 H2136 0.961 . S
C2129 H2137 0.960 . S
C2130 C2128 1.381 . S
C2130 C2131 1.394 . S
C2130 H2138 0.930 1_554 S
C2131 C2130 1.394 . S
C2131 C2132 1.383 . S
C2131 H2139 0.929 . S
C2132 C2131 1.383 . S
C2132 C2133 1.377 . S
C2133 H2117 0.930 . S
C2133 C2132 1.377 . S
C2133 C2134 1.379 . S
C2134 H2118 0.931 . S
C2134 C2128 1.383 . S
C2134 C2133 1.379 . S
H2135 C2129 0.959 . S
H2136 C2129 0.961 . S
H2137 C2129 0.960 . S
H2138 C2130 0.930 1_556 S
H2139 C2131 0.929 . S
H2140 C2148 0.929 . S
H2141 C2150 0.930 . S
H2142 C2152 0.930 . S
H2143 C2155 0.929 . S
H2144 C2158 0.930 . S
H2145 C2160 0.960 . S
H2146 C2160 0.960 . S
H2147 C2160 0.960 . S
C2148 H2140 0.929 . S
C2148 C2149 1.377 . S
C2148 C2150 1.384 . S
C2149 C2148 1.377 . S
C2149 C2155 1.390 . S
C2150 H2141 0.930 . S
C2150 C2148 1.384 . S
C2150 C2151 1.372 . S
C2151 C2150 1.372 . S
C2151 C2152 1.400 . S
C2151 C2156 1.490 . S
C2152 H2142 0.930 . S
C2152 C2151 1.400 . S
C2152 C2155 1.386 . S
H2153 C2169 0.930 . S
H2154 C2170 0.931 . S
C2155 H2143 0.929 . S
C2155 C2149 1.390 . S
C2155 C2152 1.386 . S
C2156 C2151 1.490 . S
C2156 C2158 1.395 . S
C2156 C2159 1.403 . S
H2157 C2163 0.930 . S
C2158 H2144 0.930 . S
C2158 C2156 1.395 . S
C2158 C2161 1.403 . S
C2159 C2156 1.403 . S
C2159 C2160 1.524 . S
C2159 C2163 1.400 . S
C2160 H2145 0.960 . S
C2160 H2146 0.960 . S
C2160 H2147 0.960 . S
C2160 C2159 1.524 . S
C2161 C2158 1.403 . S
C2161 C2162 1.392 . S
C2161 C2165 1.495 . S
C2162 C2161 1.392 . S
C2162 C2163 1.385 . S
C2162 C2164 1.478 . S
C2163 H2157 0.930 . S
C2163 C2159 1.400 . S
C2163 C2162 1.385 . S
C2164 C2162 1.478 . S
C2164 C2166 1.381 . S
C2164 C2170 1.383 . S
C2165 C2161 1.495 . S
C2165 H2171 0.959 . S
C2165 H2172 0.961 . S
C2165 H2173 0.960 . S
C2166 C2164 1.381 . S
C2166 C2167 1.394 . S
C2166 H2174 0.930 . S
C2167 C2166 1.394 . S
C2167 C2168 1.383 . S
C2167 H2175 0.929 . S
C2168 C2167 1.383 . S
C2168 C2169 1.377 . S
C2169 H2153 0.930 . S
C2169 C2168 1.377 . S
C2169 C2170 1.379 . S
C2170 H2154 0.931 . S
C2170 C2164 1.383 . S
C2170 C2169 1.379 . S
H2171 C2165 0.959 . S
H2172 C2165 0.961 . S
H2173 C2165 0.960 . S
H2174 C2166 0.930 . S
H2175 C2167 0.929 . S
H2176 C2184 0.929 . S
H2177 C2186 0.930 . S
H2178 C2188 0.930 . S
H2179 C2191 0.929 . S
H2180 C2194 0.930 . S
H2181 C2196 0.960 . S
H2182 C2196 0.960 . S
H2183 C2196 0.960 . S
C2184 H2176 0.929 . S
C2184 C2185 1.377 . S
C2184 C2186 1.384 . S
C2185 C2184 1.377 . S
C2185 C2191 1.390 . S
C2186 H2177 0.930 . S
C2186 C2184 1.384 . S
C2186 C2187 1.372 . S
C2187 C2186 1.372 . S
C2187 C2188 1.400 . S
C2187 C2192 1.490 . S
C2188 H2178 0.930 . S
C2188 C2187 1.400 . S
C2188 C2191 1.386 . S
H2189 C2205 0.930 . S
H2190 C2206 0.931 . S
C2191 H2179 0.929 . S
C2191 C2185 1.390 . S
C2191 C2188 1.386 . S
C2192 C2187 1.490 . S
C2192 C2194 1.395 . S
C2192 C2195 1.403 . S
H2193 C2199 0.930 . S
C2194 H2180 0.930 . S
C2194 C2192 1.395 . S
C2194 C2197 1.403 . S
C2195 C2192 1.403 . S
C2195 C2196 1.524 . S
C2195 C2199 1.400 . S
C2196 H2181 0.960 . S
C2196 H2182 0.960 . S
C2196 H2183 0.960 . S
C2196 C2195 1.524 . S
C2197 C2194 1.403 . S
C2197 C2198 1.392 . S
C2197 C2201 1.495 . S
C2198 C2197 1.392 . S
C2198 C2199 1.385 . S
C2198 C2200 1.478 . S
C2199 H2193 0.930 . S
C2199 C2195 1.400 . S
C2199 C2198 1.385 . S
C2200 C2198 1.478 . S
C2200 C2202 1.381 . S
C2200 C2206 1.383 . S
C2201 C2197 1.495 . S
C2201 H2207 0.959 . S
C2201 H2208 0.961 . S
C2201 H2209 0.960 . S
C2202 C2200 1.381 . S
C2202 C2203 1.394 . S
C2202 H2210 0.930 . S
C2203 C2202 1.394 . S
C2203 C2204 1.383 . S
C2203 H2211 0.929 . S
C2204 C2203 1.383 . S
C2204 C2205 1.377 . S
C2205 H2189 0.930 . S
C2205 C2204 1.377 . S
C2205 C2206 1.379 . S
C2206 H2190 0.931 . S
C2206 C2200 1.383 . S
C2206 C2205 1.379 . S
H2207 C2201 0.959 . S
H2208 C2201 0.961 . S
H2209 C2201 0.960 . S
H2210 C2202 0.930 . S
H2211 C2203 0.929 . S
H2212 C2220 0.929 . S
H2213 C2222 0.930 . S
H2214 C2224 0.930 . S
H2215 C2227 0.929 . S
H2216 C2230 0.930 . S
H2217 C2232 0.960 . S
H2218 C2232 0.960 . S
H2219 C2232 0.960 . S
C2220 H2212 0.929 . S
C2220 C2221 1.377 . S
C2220 C2222 1.384 . S
C2221 C2220 1.377 . S
C2221 C2227 1.390 . S
C2222 H2213 0.930 . S
C2222 C2220 1.384 . S
C2222 C2223 1.372 . S
C2223 C2222 1.372 . S
C2223 C2224 1.400 . S
C2223 C2228 1.490 . S
C2224 H2214 0.930 . S
C2224 C2223 1.400 . S
C2224 C2227 1.386 . S
H2225 C2241 0.930 . S
H2226 C2242 0.931 . S
C2227 H2215 0.929 . S
C2227 C2221 1.390 . S
C2227 C2224 1.386 . S
C2228 C2223 1.490 . S
C2228 C2230 1.395 . S
C2228 C2231 1.403 . S
H2229 C2235 0.930 . S
C2230 H2216 0.930 . S
C2230 C2228 1.395 . S
C2230 C2233 1.403 . S
C2231 C2228 1.403 . S
C2231 C2232 1.524 . S
C2231 C2235 1.400 . S
C2232 H2217 0.960 . S
C2232 H2218 0.960 . S
C2232 H2219 0.960 . S
C2232 C2231 1.524 . S
C2233 C2230 1.403 . S
C2233 C2234 1.392 . S
C2233 C2237 1.495 . S
C2234 C2233 1.392 . S
C2234 C2235 1.385 . S
C2234 C2236 1.478 . S
C2235 H2229 0.930 . S
C2235 C2231 1.400 . S
C2235 C2234 1.385 . S
C2236 C2234 1.478 . S
C2236 C2238 1.381 . S
C2236 C2242 1.383 . S
C2237 C2233 1.495 . S
C2237 H2243 0.959 . S
C2237 H2244 0.961 . S
C2237 H2245 0.960 . S
C2238 C2236 1.381 . S
C2238 C2239 1.394 . S
C2238 H2246 0.930 . S
C2239 C2238 1.394 . S
C2239 C2240 1.383 . S
C2239 H2247 0.929 . S
C2240 C2239 1.383 . S
C2240 C2241 1.377 . S
C2241 H2225 0.930 . S
C2241 C2240 1.377 . S
C2241 C2242 1.379 . S
C2242 H2226 0.931 . S
C2242 C2236 1.383 . S
C2242 C2241 1.379 . S
H2243 C2237 0.959 . S
H2244 C2237 0.961 . S
H2245 C2237 0.960 . S
H2246 C2238 0.930 . S
H2247 C2239 0.929 . S
H2248 C2256 0.929 . S
H2249 C2258 0.930 . S
H2250 C2260 0.930 . S
H2251 C2263 0.929 . S
H2252 C2266 0.930 . S
H2253 C2268 0.960 . S
H2254 C2268 0.960 . S
H2255 C2268 0.960 . S
C2256 H2248 0.929 . S
C2256 C2257 1.377 . S
C2256 C2258 1.384 . S
C2257 C2256 1.377 . S
C2257 C2263 1.390 . S
C2258 H2249 0.930 . S
C2258 C2256 1.384 . S
C2258 C2259 1.372 . S
C2259 C2258 1.372 . S
C2259 C2260 1.400 . S
C2259 C2264 1.490 . S
C2260 H2250 0.930 . S
C2260 C2259 1.400 . S
C2260 C2263 1.386 . S
H2261 C2277 0.930 . S
H2262 C2278 0.931 . S
C2263 H2251 0.929 . S
C2263 C2257 1.390 . S
C2263 C2260 1.386 . S
C2264 C2259 1.490 . S
C2264 C2266 1.395 . S
C2264 C2267 1.403 . S
H2265 C2271 0.930 . S
C2266 H2252 0.930 . S
C2266 C2264 1.395 . S
C2266 C2269 1.403 . S
C2267 C2264 1.403 . S
C2267 C2268 1.524 . S
C2267 C2271 1.400 . S
C2268 H2253 0.960 . S
C2268 H2254 0.960 . S
C2268 H2255 0.960 . S
C2268 C2267 1.524 . S
C2269 C2266 1.403 . S
C2269 C2270 1.392 . S
C2269 C2273 1.495 . S
C2270 C2269 1.392 . S
C2270 C2271 1.385 . S
C2270 C2272 1.478 . S
C2271 H2265 0.930 . S
C2271 C2267 1.400 . S
C2271 C2270 1.385 . S
C2272 C2270 1.478 . S
C2272 C2274 1.381 . S
C2272 C2278 1.383 . S
C2273 C2269 1.495 . S
C2273 H2279 0.959 . S
C2273 H2280 0.961 . S
C2273 H2281 0.960 . S
C2274 C2272 1.381 . S
C2274 C2275 1.394 . S
C2274 H2282 0.930 . S
C2275 C2274 1.394 . S
C2275 C2276 1.383 . S
C2275 H2283 0.929 . S
C2276 C2275 1.383 . S
C2276 C2277 1.377 . S
C2277 H2261 0.930 . S
C2277 C2276 1.377 . S
C2277 C2278 1.379 . S
C2278 H2262 0.931 . S
C2278 C2272 1.383 . S
C2278 C2277 1.379 . S
H2279 C2273 0.959 . S
H2280 C2273 0.961 . S
H2281 C2273 0.960 . S
H2282 C2274 0.930 . S
H2283 C2275 0.929 . S
H2284 C2292 0.929 . S
H2285 C2294 0.930 . S
H2286 C2296 0.930 . S
H2287 C2299 0.929 . S
H2288 C2302 0.930 . S
H2289 C2304 0.960 . S
H2290 C2304 0.960 . S
H2291 C2304 0.960 . S
C2292 H2284 0.929 . S
C2292 C2293 1.377 . S
C2292 C2294 1.384 . S
C2293 C2292 1.377 . S
C2293 C2299 1.390 . S
C2294 H2285 0.930 . S
C2294 C2292 1.384 . S
C2294 C2295 1.372 . S
C2295 C2294 1.372 . S
C2295 C2296 1.400 . S
C2295 C2300 1.490 . S
C2296 H2286 0.930 . S
C2296 C2295 1.400 . S
C2296 C2299 1.386 . S
H2297 C2313 0.930 . S
H2298 C2314 0.931 . S
C2299 H2287 0.929 . S
C2299 C2293 1.390 . S
C2299 C2296 1.386 . S
C2300 C2295 1.490 . S
C2300 C2302 1.395 . S
C2300 C2303 1.403 . S
H2301 C2307 0.930 . S
C2302 H2288 0.930 . S
C2302 C2300 1.395 . S
C2302 C2305 1.403 . S
C2303 C2300 1.403 . S
C2303 C2304 1.524 . S
C2303 C2307 1.400 . S
C2304 H2289 0.960 . S
C2304 H2290 0.960 . S
C2304 H2291 0.960 . S
C2304 C2303 1.524 . S
C2305 C2302 1.403 . S
C2305 C2306 1.392 . S
C2305 C2309 1.495 . S
C2306 C2305 1.392 . S
C2306 C2307 1.385 . S
C2306 C2308 1.478 . S
C2307 H2301 0.930 . S
C2307 C2303 1.400 . S
C2307 C2306 1.385 . S
C2308 C2306 1.478 . S
C2308 C2310 1.381 . S
C2308 C2314 1.383 . S
C2309 C2305 1.495 . S
C2309 H2315 0.959 . S
C2309 H2316 0.961 . S
C2309 H2317 0.960 . S
C2310 C2308 1.381 . S
C2310 C2311 1.394 . S
C2310 H2318 0.930 . S
C2311 C2310 1.394 . S
C2311 C2312 1.383 . S
C2311 H2319 0.929 . S
C2312 C2311 1.383 . S
C2312 C2313 1.377 . S
C2313 H2297 0.930 . S
C2313 C2312 1.377 . S
C2313 C2314 1.379 . S
C2314 H2298 0.931 . S
C2314 C2308 1.383 . S
C2314 C2313 1.379 . S
H2315 C2309 0.959 . S
H2316 C2309 0.961 . S
H2317 C2309 0.960 . S
H2318 C2310 0.930 . S
H2319 C2311 0.929 . S
H2320 C2328 0.929 . S
H2321 C2330 0.930 . S
H2322 C2332 0.930 . S
H2323 C2335 0.929 . S
H2324 C2338 0.930 . S
H2325 C2340 0.960 . S
H2326 C2340 0.960 . S
H2327 C2340 0.960 . S
C2328 H2320 0.929 . S
C2328 C2329 1.377 . S
C2328 C2330 1.384 . S
C2329 C2328 1.377 . S
C2329 C2335 1.390 . S
C2330 H2321 0.930 . S
C2330 C2328 1.384 . S
C2330 C2331 1.372 . S
C2331 C2330 1.372 . S
C2331 C2332 1.400 . S
C2331 C2336 1.490 . S
C2332 H2322 0.930 . S
C2332 C2331 1.400 . S
C2332 C2335 1.386 . S
H2333 C2349 0.930 . S
H2334 C2350 0.931 . S
C2335 H2323 0.929 . S
C2335 C2329 1.390 . S
C2335 C2332 1.386 . S
C2336 C2331 1.490 . S
C2336 C2338 1.395 . S
C2336 C2339 1.403 . S
H2337 C2343 0.930 . S
C2338 H2324 0.930 . S
C2338 C2336 1.395 . S
C2338 C2341 1.403 . S
C2339 C2336 1.403 . S
C2339 C2340 1.524 . S
C2339 C2343 1.400 . S
C2340 H2325 0.960 . S
C2340 H2326 0.960 . S
C2340 H2327 0.960 . S
C2340 C2339 1.524 . S
C2341 C2338 1.403 . S
C2341 C2342 1.392 . S
C2341 C2345 1.495 . S
C2342 C2341 1.392 . S
C2342 C2343 1.385 . S
C2342 C2344 1.478 . S
C2343 H2337 0.930 . S
C2343 C2339 1.400 . S
C2343 C2342 1.385 . S
C2344 C2342 1.478 . S
C2344 C2346 1.381 . S
C2344 C2350 1.383 . S
C2345 C2341 1.495 . S
C2345 H2351 0.959 . S
C2345 H2352 0.961 . S
C2345 H2353 0.960 . S
C2346 C2344 1.381 . S
C2346 C2347 1.394 . S
C2346 H2354 0.930 . S
C2347 C2346 1.394 . S
C2347 C2348 1.383 . S
C2347 H2355 0.929 . S
C2348 C2347 1.383 . S
C2348 C2349 1.377 . S
C2349 H2333 0.930 . S
C2349 C2348 1.377 . S
C2349 C2350 1.379 . S
C2350 H2334 0.931 . S
C2350 C2344 1.383 . S
C2350 C2349 1.379 . S
H2351 C2345 0.959 . S
H2352 C2345 0.961 . S
H2353 C2345 0.960 . S
H2354 C2346 0.930 . S
H2355 C2347 0.929 . S
H2356 C2364 0.929 . S
H2357 C2366 0.930 . S
H2358 C2368 0.930 . S
H2359 C2371 0.929 . S
H2360 C2374 0.930 . S
H2361 C2376 0.960 . S
H2362 C2376 0.960 . S
H2363 C2376 0.960 . S
C2364 H2356 0.929 . S
C2364 C2365 1.377 . S
C2364 C2366 1.384 . S
C2365 C2364 1.377 . S
C2365 C2371 1.390 . S
C2366 H2357 0.930 . S
C2366 C2364 1.384 . S
C2366 C2367 1.372 . S
C2367 C2366 1.372 . S
C2367 C2368 1.400 . S
C2367 C2372 1.490 . S
C2368 H2358 0.930 . S
C2368 C2367 1.400 . S
C2368 C2371 1.386 . S
H2369 C2385 0.930 . S
H2370 C2386 0.931 . S
C2371 H2359 0.929 . S
C2371 C2365 1.390 . S
C2371 C2368 1.386 . S
C2372 C2367 1.490 . S
C2372 C2374 1.395 . S
C2372 C2375 1.403 . S
H2373 C2379 0.930 . S
C2374 H2360 0.930 . S
C2374 C2372 1.395 . S
C2374 C2377 1.403 . S
C2375 C2372 1.403 . S
C2375 C2376 1.524 . S
C2375 C2379 1.400 . S
C2376 H2361 0.960 . S
C2376 H2362 0.960 . S
C2376 H2363 0.960 . S
C2376 C2375 1.524 . S
C2377 C2374 1.403 . S
C2377 C2378 1.392 . S
C2377 C2381 1.495 . S
C2378 C2377 1.392 . S
C2378 C2379 1.385 . S
C2378 C2380 1.478 . S
C2379 H2373 0.930 . S
C2379 C2375 1.400 . S
C2379 C2378 1.385 . S
C2380 C2378 1.478 . S
C2380 C2382 1.381 . S
C2380 C2386 1.383 . S
C2381 C2377 1.495 . S
C2381 H2387 0.959 . S
C2381 H2388 0.961 . S
C2381 H2389 0.960 . S
C2382 C2380 1.381 . S
C2382 C2383 1.394 . S
C2382 H2390 0.930 . S
C2383 C2382 1.394 . S
C2383 C2384 1.383 . S
C2383 H2391 0.929 . S
C2384 C2383 1.383 . S
C2384 C2385 1.377 . S
C2385 H2369 0.930 . S
C2385 C2384 1.377 . S
C2385 C2386 1.379 . S
C2386 H2370 0.931 . S
C2386 C2380 1.383 . S
C2386 C2385 1.379 . S
H2387 C2381 0.959 . S
H2388 C2381 0.961 . S
H2389 C2381 0.960 . S
H2390 C2382 0.930 . S
H2391 C2383 0.929 . S
H2392 C2400 0.929 . S
H2393 C2402 0.930 . S
H2394 C2404 0.930 . S
H2395 C2407 0.929 . S
H2396 C2410 0.930 . S
H2397 C2412 0.960 . S
H2398 C2412 0.960 . S
H2399 C2412 0.960 . S
C2400 H2392 0.929 . S
C2400 C2401 1.377 . S
C2400 C2402 1.384 . S
C2401 C2400 1.377 . S
C2401 C2407 1.390 . S
C2402 H2393 0.930 . S
C2402 C2400 1.384 . S
C2402 C2403 1.372 . S
C2403 C2402 1.372 . S
C2403 C2404 1.400 . S
C2403 C2408 1.490 . S
C2404 H2394 0.930 . S
C2404 C2403 1.400 . S
C2404 C2407 1.386 . S
H2405 C2421 0.930 . S
H2406 C2422 0.931 . S
C2407 H2395 0.929 . S
C2407 C2401 1.390 . S
C2407 C2404 1.386 . S
C2408 C2403 1.490 . S
C2408 C2410 1.395 . S
C2408 C2411 1.403 . S
H2409 C2415 0.930 . S
C2410 H2396 0.930 . S
C2410 C2408 1.395 . S
C2410 C2413 1.403 . S
C2411 C2408 1.403 . S
C2411 C2412 1.524 . S
C2411 C2415 1.400 . S
C2412 H2397 0.960 . S
C2412 H2398 0.960 . S
C2412 H2399 0.960 . S
C2412 C2411 1.524 . S
C2413 C2410 1.403 . S
C2413 C2414 1.392 . S
C2413 C2417 1.495 . S
C2414 C2413 1.392 . S
C2414 C2415 1.385 . S
C2414 C2416 1.478 . S
C2415 H2409 0.930 . S
C2415 C2411 1.400 . S
C2415 C2414 1.385 . S
C2416 C2414 1.478 . S
C2416 C2418 1.381 . S
C2416 C2422 1.383 . S
C2417 C2413 1.495 . S
C2417 H2423 0.959 . S
C2417 H2424 0.961 . S
C2417 H2425 0.960 . S
C2418 C2416 1.381 . S
C2418 C2419 1.394 . S
C2418 H2426 0.930 . S
C2419 C2418 1.394 . S
C2419 C2420 1.383 . S
C2419 H2427 0.929 . S
C2420 C2419 1.383 . S
C2420 C2421 1.377 . S
C2421 H2405 0.930 . S
C2421 C2420 1.377 . S
C2421 C2422 1.379 . S
C2422 H2406 0.931 . S
C2422 C2416 1.383 . S
C2422 C2421 1.379 . S
H2423 C2417 0.959 . S
H2424 C2417 0.961 . S
H2425 C2417 0.960 . S
H2426 C2418 0.930 . S
H2427 C2419 0.929 . S
H2428 C2436 0.929 . S
H2429 C2438 0.930 . S
H2430 C2440 0.930 . S
H2431 C2443 0.929 . S
H2432 C2446 0.930 . S
H2433 C2448 0.960 . S
H2434 C2448 0.960 . S
H2435 C2448 0.960 . S
C2436 H2428 0.929 . S
C2436 C2437 1.377 . S
C2436 C2438 1.384 . S
C2437 C2436 1.377 . S
C2437 C2443 1.390 . S
C2438 H2429 0.930 . S
C2438 C2436 1.384 . S
C2438 C2439 1.372 . S
C2439 C2438 1.372 . S
C2439 C2440 1.400 . S
C2439 C2444 1.490 . S
C2440 H2430 0.930 . S
C2440 C2439 1.400 . S
C2440 C2443 1.386 . S
H2441 C2457 0.930 . S
H2442 C2458 0.931 . S
C2443 H2431 0.929 . S
C2443 C2437 1.390 . S
C2443 C2440 1.386 . S
C2444 C2439 1.490 . S
C2444 C2446 1.395 . S
C2444 C2447 1.403 . S
H2445 C2451 0.930 . S
C2446 H2432 0.930 . S
C2446 C2444 1.395 . S
C2446 C2449 1.403 . S
C2447 C2444 1.403 . S
C2447 C2448 1.524 . S
C2447 C2451 1.400 . S
C2448 H2433 0.960 . S
C2448 H2434 0.960 . S
C2448 H2435 0.960 . S
C2448 C2447 1.524 . S
C2449 C2446 1.403 . S
C2449 C2450 1.392 . S
C2449 C2453 1.495 . S
C2450 C2449 1.392 . S
C2450 C2451 1.385 . S
C2450 C2452 1.478 . S
C2451 H2445 0.930 . S
C2451 C2447 1.400 . S
C2451 C2450 1.385 . S
C2452 C2450 1.478 . S
C2452 C2454 1.381 . S
C2452 C2458 1.383 . S
C2453 C2449 1.495 . S
C2453 H2459 0.959 . S
C2453 H2460 0.961 . S
C2453 H2461 0.960 . S
C2454 C2452 1.381 . S
C2454 C2455 1.394 . S
C2454 H2462 0.930 . S
C2455 C2454 1.394 . S
C2455 C2456 1.383 . S
C2455 H2463 0.929 . S
C2456 C2455 1.383 . S
C2456 C2457 1.377 . S
C2457 H2441 0.930 . S
C2457 C2456 1.377 . S
C2457 C2458 1.379 . S
C2458 H2442 0.931 . S
C2458 C2452 1.383 . S
C2458 C2457 1.379 . S
H2459 C2453 0.959 . S
H2460 C2453 0.961 . S
H2461 C2453 0.960 . S
H2462 C2454 0.930 . S
H2463 C2455 0.929 . S
H2464 C2472 0.929 . S
H2465 C2474 0.930 . S
H2466 C2476 0.930 . S
H2467 C2479 0.929 . S
H2468 C2482 0.930 . S
H2469 C2484 0.960 . S
H2470 C2484 0.960 . S
H2471 C2484 0.960 . S
C2472 H2464 0.929 . S
C2472 C2473 1.377 . S
C2472 C2474 1.384 . S
C2473 C2472 1.377 . S
C2473 C2479 1.390 . S
C2474 H2465 0.930 . S
C2474 C2472 1.384 . S
C2474 C2475 1.372 . S
C2475 C2474 1.372 . S
C2475 C2476 1.400 . S
C2475 C2480 1.490 . S
C2476 H2466 0.930 . S
C2476 C2475 1.400 . S
C2476 C2479 1.386 . S
H2477 C2493 0.930 . S
H2478 C2494 0.931 . S
C2479 H2467 0.929 . S
C2479 C2473 1.390 . S
C2479 C2476 1.386 . S
C2480 C2475 1.490 . S
C2480 C2482 1.395 . S
C2480 C2483 1.403 . S
H2481 C2487 0.930 . S
C2482 H2468 0.930 . S
C2482 C2480 1.395 . S
C2482 C2485 1.403 . S
C2483 C2480 1.403 . S
C2483 C2484 1.524 . S
C2483 C2487 1.400 . S
C2484 H2469 0.960 . S
C2484 H2470 0.960 . S
C2484 H2471 0.960 . S
C2484 C2483 1.524 . S
C2485 C2482 1.403 . S
C2485 C2486 1.392 . S
C2485 C2489 1.495 . S
C2486 C2485 1.392 . S
C2486 C2487 1.385 . S
C2486 C2488 1.478 . S
C2487 H2481 0.930 . S
C2487 C2483 1.400 . S
C2487 C2486 1.385 . S
C2488 C2486 1.478 . S
C2488 C2490 1.381 . S
C2488 C2494 1.383 . S
C2489 C2485 1.495 . S
C2489 H2495 0.959 . S
C2489 H2496 0.961 . S
C2489 H2497 0.960 . S
C2490 C2488 1.381 . S
C2490 C2491 1.394 . S
C2490 H2498 0.930 . S
C2491 C2490 1.394 . S
C2491 C2492 1.383 . S
C2491 H2499 0.929 . S
C2492 C2491 1.383 . S
C2492 C2493 1.377 . S
C2493 H2477 0.930 . S
C2493 C2492 1.377 . S
C2493 C2494 1.379 . S
C2494 H2478 0.931 . S
C2494 C2488 1.383 . S
C2494 C2493 1.379 . S
H2495 C2489 0.959 . S
H2496 C2489 0.961 . S
H2497 C2489 0.960 . S
H2498 C2490 0.930 . S
H2499 C2491 0.929 . S
H2500 C2508 0.929 . S
H2501 C2510 0.930 . S
H2502 C2512 0.930 . S
H2503 C2515 0.929 . S
H2504 C2518 0.930 . S
H2505 C2520 0.960 . S
H2506 C2520 0.960 . S
H2507 C2520 0.960 . S
C2508 H2500 0.929 . S
C2508 C2509 1.377 . S
C2508 C2510 1.384 . S
C2509 C2508 1.377 . S
C2509 C2515 1.390 . S
C2510 H2501 0.930 . S
C2510 C2508 1.384 . S
C2510 C2511 1.372 . S
C2511 C2510 1.372 . S
C2511 C2512 1.400 . S
C2511 C2516 1.490 . S
C2512 H2502 0.930 . S
C2512 C2511 1.400 . S
C2512 C2515 1.386 . S
H2513 C2529 0.930 . S
H2514 C2530 0.931 . S
C2515 H2503 0.929 . S
C2515 C2509 1.390 . S
C2515 C2512 1.386 . S
C2516 C2511 1.490 . S
C2516 C2518 1.395 . S
C2516 C2519 1.403 . S
H2517 C2523 0.930 . S
C2518 H2504 0.930 . S
C2518 C2516 1.395 . S
C2518 C2521 1.403 . S
C2519 C2516 1.403 . S
C2519 C2520 1.524 . S
C2519 C2523 1.400 . S
C2520 H2505 0.960 . S
C2520 H2506 0.960 . S
C2520 H2507 0.960 . S
C2520 C2519 1.524 . S
C2521 C2518 1.403 . S
C2521 C2522 1.392 . S
C2521 C2525 1.495 . S
C2522 C2521 1.392 . S
C2522 C2523 1.385 . S
C2522 C2524 1.478 . S
C2523 H2517 0.930 . S
C2523 C2519 1.400 . S
C2523 C2522 1.385 . S
C2524 C2522 1.478 . S
C2524 C2526 1.381 . S
C2524 C2530 1.383 . S
C2525 C2521 1.495 . S
C2525 H2531 0.959 . S
C2525 H2532 0.961 . S
C2525 H2533 0.960 . S
C2526 C2524 1.381 . S
C2526 C2527 1.394 . S
C2526 H2534 0.930 . S
C2527 C2526 1.394 . S
C2527 C2528 1.383 . S
C2527 H2535 0.929 . S
C2528 C2527 1.383 . S
C2528 C2529 1.377 . S
C2529 H2513 0.930 . S
C2529 C2528 1.377 . S
C2529 C2530 1.379 . S
C2530 H2514 0.931 . S
C2530 C2524 1.383 . S
C2530 C2529 1.379 . S
H2531 C2525 0.959 . S
H2532 C2525 0.961 . S
H2533 C2525 0.960 . S
H2534 C2526 0.930 . S
H2535 C2527 0.929 . S
H2536 C2544 0.929 . S
H2537 C2546 0.930 . S
H2538 C2548 0.930 . S
H2539 C2551 0.929 . S
H2540 C2554 0.930 . S
H2541 C2556 0.960 . S
H2542 C2556 0.960 . S
H2543 C2556 0.960 . S
C2544 H2536 0.929 . S
C2544 C2545 1.377 . S
C2544 C2546 1.384 . S
C2545 C2544 1.377 . S
C2545 C2551 1.390 . S
C2546 H2537 0.930 . S
C2546 C2544 1.384 . S
C2546 C2547 1.372 . S
C2547 C2546 1.372 . S
C2547 C2548 1.400 . S
C2547 C2552 1.490 . S
C2548 H2538 0.930 . S
C2548 C2547 1.400 . S
C2548 C2551 1.386 . S
H2549 C2565 0.930 . S
H2550 C2566 0.931 . S
C2551 H2539 0.929 . S
C2551 C2545 1.390 . S
C2551 C2548 1.386 . S
C2552 C2547 1.490 . S
C2552 C2554 1.395 . S
C2552 C2555 1.403 . S
H2553 C2559 0.930 . S
C2554 H2540 0.930 . S
C2554 C2552 1.395 . S
C2554 C2557 1.403 . S
C2555 C2552 1.403 . S
C2555 C2556 1.524 . S
C2555 C2559 1.400 . S
C2556 H2541 0.960 . S
C2556 H2542 0.960 . S
C2556 H2543 0.960 . S
C2556 C2555 1.524 . S
C2557 C2554 1.403 . S
C2557 C2558 1.392 . S
C2557 C2561 1.495 . S
C2558 C2557 1.392 . S
C2558 C2559 1.385 . S
C2558 C2560 1.478 . S
C2559 H2553 0.930 . S
C2559 C2555 1.400 . S
C2559 C2558 1.385 . S
C2560 C2558 1.478 . S
C2560 C2562 1.381 . S
C2560 C2566 1.383 . S
C2561 C2557 1.495 . S
C2561 H2567 0.959 . S
C2561 H2568 0.961 . S
C2561 H2569 0.960 . S
C2562 C2560 1.381 . S
C2562 C2563 1.394 . S
C2562 H2570 0.930 . S
C2563 C2562 1.394 . S
C2563 C2564 1.383 . S
C2563 H2571 0.929 . S
C2564 C2563 1.383 . S
C2564 C2565 1.377 . S
C2565 H2549 0.930 . S
C2565 C2564 1.377 . S
C2565 C2566 1.379 . S
C2566 H2550 0.931 . S
C2566 C2560 1.383 . S
C2566 C2565 1.379 . S
H2567 C2561 0.959 . S
H2568 C2561 0.961 . S
H2569 C2561 0.960 . S
H2570 C2562 0.930 . S
H2571 C2563 0.929 . S
H2572 C2580 0.929 . S
H2573 C2582 0.930 . S
H2574 C2584 0.930 . S
H2575 C2587 0.929 . S
H2576 C2590 0.930 . S
H2577 C2592 0.960 . S
H2578 C2592 0.960 . S
H2579 C2592 0.960 . S
C2580 H2572 0.929 . S
C2580 C2581 1.377 . S
C2580 C2582 1.384 . S
C2581 C2580 1.377 . S
C2581 C2587 1.390 . S
C2582 H2573 0.930 . S
C2582 C2580 1.384 . S
C2582 C2583 1.372 . S
C2583 C2582 1.372 . S
C2583 C2584 1.400 . S
C2583 C2588 1.490 . S
C2584 H2574 0.930 . S
C2584 C2583 1.400 . S
C2584 C2587 1.386 . S
H2585 C2601 0.930 . S
H2586 C2602 0.931 . S
C2587 H2575 0.929 . S
C2587 C2581 1.390 . S
C2587 C2584 1.386 . S
C2588 C2583 1.490 . S
C2588 C2590 1.395 . S
C2588 C2591 1.403 . S
H2589 C2595 0.930 . S
C2590 H2576 0.930 . S
C2590 C2588 1.395 . S
C2590 C2593 1.403 . S
C2591 C2588 1.403 . S
C2591 C2592 1.524 . S
C2591 C2595 1.400 . S
C2592 H2577 0.960 . S
C2592 H2578 0.960 . S
C2592 H2579 0.960 . S
C2592 C2591 1.524 . S
C2593 C2590 1.403 . S
C2593 C2594 1.392 . S
C2593 C2597 1.495 . S
C2594 C2593 1.392 . S
C2594 C2595 1.385 . S
C2594 C2596 1.478 . S
C2595 H2589 0.930 . S
C2595 C2591 1.400 . S
C2595 C2594 1.385 . S
C2596 C2594 1.478 . S
C2596 C2598 1.381 . S
C2596 C2602 1.383 . S
C2597 C2593 1.495 . S
C2597 H2603 0.959 . S
C2597 H2604 0.961 . S
C2597 H2605 0.960 . S
C2598 C2596 1.381 . S
C2598 C2599 1.394 . S
C2598 H2606 0.930 . S
C2599 C2598 1.394 . S
C2599 C2600 1.383 . S
C2599 H2607 0.929 . S
C2600 C2599 1.383 . S
C2600 C2601 1.377 . S
C2601 H2585 0.930 . S
C2601 C2600 1.377 . S
C2601 C2602 1.379 . S
C2602 H2586 0.931 . S
C2602 C2596 1.383 . S
C2602 C2601 1.379 . S
H2603 C2597 0.959 . S
H2604 C2597 0.961 . S
H2605 C2597 0.960 . S
H2606 C2598 0.930 . S
H2607 C2599 0.929 . S
H2608 C2616 0.929 . S
H2609 C2618 0.930 . S
H2610 C2620 0.930 . S
H2611 C2623 0.929 . S
H2612 C2626 0.930 . S
H2613 C2628 0.960 . S
H2614 C2628 0.960 . S
H2615 C2628 0.960 . S
C2616 H2608 0.929 . S
C2616 C2617 1.377 . S
C2616 C2618 1.384 . S
C2617 C2616 1.377 . S
C2617 C2623 1.390 . S
C2618 H2609 0.930 . S
C2618 C2616 1.384 . S
C2618 C2619 1.372 . S
C2619 C2618 1.372 . S
C2619 C2620 1.400 . S
C2619 C2624 1.490 . S
C2620 H2610 0.930 . S
C2620 C2619 1.400 . S
C2620 C2623 1.386 . S
H2621 C2637 0.930 . S
H2622 C2638 0.931 . S
C2623 H2611 0.929 . S
C2623 C2617 1.390 . S
C2623 C2620 1.386 . S
C2624 C2619 1.490 . S
C2624 C2626 1.395 . S
C2624 C2627 1.403 . S
H2625 C2631 0.930 . S
C2626 H2612 0.930 . S
C2626 C2624 1.395 . S
C2626 C2629 1.403 . S
C2627 C2624 1.403 . S
C2627 C2628 1.524 . S
C2627 C2631 1.400 . S
C2628 H2613 0.960 . S
C2628 H2614 0.960 . S
C2628 H2615 0.960 . S
C2628 C2627 1.524 . S
C2629 C2626 1.403 . S
C2629 C2630 1.392 . S
C2629 C2633 1.495 . S
C2630 C2629 1.392 . S
C2630 C2631 1.385 . S
C2630 C2632 1.478 . S
C2631 H2625 0.930 . S
C2631 C2627 1.400 . S
C2631 C2630 1.385 . S
C2632 C2630 1.478 . S
C2632 C2634 1.381 . S
C2632 C2638 1.383 . S
C2633 C2629 1.495 . S
C2633 H2639 0.959 . S
C2633 H2640 0.961 . S
C2633 H2641 0.960 . S
C2634 C2632 1.381 . S
C2634 C2635 1.394 . S
C2634 H2642 0.930 . S
C2635 C2634 1.394 . S
C2635 C2636 1.383 . S
C2635 H2643 0.929 . S
C2636 C2635 1.383 . S
C2636 C2637 1.377 . S
C2637 H2621 0.930 . S
C2637 C2636 1.377 . S
C2637 C2638 1.379 . S
C2638 H2622 0.931 . S
C2638 C2632 1.383 . S
C2638 C2637 1.379 . S
H2639 C2633 0.959 . S
H2640 C2633 0.961 . S
H2641 C2633 0.960 . S
H2642 C2634 0.930 . S
H2643 C2635 0.929 . S
H2644 C2652 0.929 . S
H2645 C2654 0.930 . S
H2646 C2656 0.930 . S
H2647 C2659 0.929 . S
H2648 C2662 0.930 . S
H2649 C2664 0.960 . S
H2650 C2664 0.960 . S
H2651 C2664 0.960 . S
C2652 H2644 0.929 . S
C2652 C2653 1.377 . S
C2652 C2654 1.384 . S
C2653 C2652 1.377 . S
C2653 C2659 1.390 . S
C2654 H2645 0.930 . S
C2654 C2652 1.384 . S
C2654 C2655 1.372 . S
C2655 C2654 1.372 . S
C2655 C2656 1.400 . S
C2655 C2660 1.490 . S
C2656 H2646 0.930 . S
C2656 C2655 1.400 . S
C2656 C2659 1.386 . S
H2657 C2673 0.930 . S
H2658 C2674 0.931 . S
C2659 H2647 0.929 . S
C2659 C2653 1.390 . S
C2659 C2656 1.386 . S
C2660 C2655 1.490 . S
C2660 C2662 1.395 . S
C2660 C2663 1.403 . S
H2661 C2667 0.930 . S
C2662 H2648 0.930 . S
C2662 C2660 1.395 . S
C2662 C2665 1.403 . S
C2663 C2660 1.403 . S
C2663 C2664 1.524 . S
C2663 C2667 1.400 . S
C2664 H2649 0.960 . S
C2664 H2650 0.960 . S
C2664 H2651 0.960 . S
C2664 C2663 1.524 . S
C2665 C2662 1.403 . S
C2665 C2666 1.392 . S
C2665 C2669 1.495 . S
C2666 C2665 1.392 . S
C2666 C2667 1.385 . S
C2666 C2668 1.478 . S
C2667 H2661 0.930 . S
C2667 C2663 1.400 . S
C2667 C2666 1.385 . S
C2668 C2666 1.478 . S
C2668 C2670 1.381 . S
C2668 C2674 1.383 . S
C2669 C2665 1.495 . S
C2669 H2675 0.959 . S
C2669 H2676 0.961 . S
C2669 H2677 0.960 . S
C2670 C2668 1.381 . S
C2670 C2671 1.394 . S
C2670 H2678 0.930 . S
C2671 C2670 1.394 . S
C2671 C2672 1.383 . S
C2671 H2679 0.929 . S
C2672 C2671 1.383 . S
C2672 C2673 1.377 . S
C2673 H2657 0.930 . S
C2673 C2672 1.377 . S
C2673 C2674 1.379 . S
C2674 H2658 0.931 . S
C2674 C2668 1.383 . S
C2674 C2673 1.379 . S
H2675 C2669 0.959 . S
H2676 C2669 0.961 . S
H2677 C2669 0.960 . S
H2678 C2670 0.930 . S
H2679 C2671 0.929 . S
H2680 C2688 0.929 . S
H2681 C2690 0.930 . S
H2682 C2692 0.930 . S
H2683 C2695 0.929 . S
H2684 C2698 0.930 . S
H2685 C2700 0.960 . S
H2686 C2700 0.960 . S
H2687 C2700 0.960 . S
C2688 H2680 0.929 . S
C2688 C2689 1.377 . S
C2688 C2690 1.384 . S
C2689 C2688 1.377 . S
C2689 C2695 1.390 . S
C2690 H2681 0.930 . S
C2690 C2688 1.384 . S
C2690 C2691 1.372 . S
C2691 C2690 1.372 . S
C2691 C2692 1.400 . S
C2691 C2696 1.490 . S
C2692 H2682 0.930 . S
C2692 C2691 1.400 . S
C2692 C2695 1.386 . S
H2693 C2709 0.930 . S
H2694 C2710 0.931 . S
C2695 H2683 0.929 . S
C2695 C2689 1.390 . S
C2695 C2692 1.386 . S
C2696 C2691 1.490 . S
C2696 C2698 1.395 . S
C2696 C2699 1.403 . S
H2697 C2703 0.930 . S
C2698 H2684 0.930 . S
C2698 C2696 1.395 . S
C2698 C2701 1.403 . S
C2699 C2696 1.403 . S
C2699 C2700 1.524 . S
C2699 C2703 1.400 . S
C2700 H2685 0.960 . S
C2700 H2686 0.960 . S
C2700 H2687 0.960 . S
C2700 C2699 1.524 . S
C2701 C2698 1.403 . S
C2701 C2702 1.392 . S
C2701 C2705 1.495 . S
C2702 C2701 1.392 . S
C2702 C2703 1.385 . S
C2702 C2704 1.478 . S
C2703 H2697 0.930 . S
C2703 C2699 1.400 . S
C2703 C2702 1.385 . S
C2704 C2702 1.478 . S
C2704 C2706 1.381 . S
C2704 C2710 1.383 . S
C2705 C2701 1.495 . S
C2705 H2711 0.959 . S
C2705 H2712 0.961 . S
C2705 H2713 0.960 . S
C2706 C2704 1.381 . S
C2706 C2707 1.394 . S
C2706 H2714 0.930 . S
C2707 C2706 1.394 . S
C2707 C2708 1.383 . S
C2707 H2715 0.929 . S
C2708 C2707 1.383 . S
C2708 C2709 1.377 . S
C2709 H2693 0.930 . S
C2709 C2708 1.377 . S
C2709 C2710 1.379 . S
C2710 H2694 0.931 . S
C2710 C2704 1.383 . S
C2710 C2709 1.379 . S
H2711 C2705 0.959 . S
H2712 C2705 0.961 . S
H2713 C2705 0.960 . S
H2714 C2706 0.930 . S
H2715 C2707 0.929 . S
H2716 C2724 0.929 . S
H2717 C2726 0.930 . S
H2718 C2728 0.930 . S
H2719 C2731 0.929 . S
H2720 C2734 0.930 . S
H2721 C2736 0.960 . S
H2722 C2736 0.960 . S
H2723 C2736 0.960 . S
C2724 H2716 0.929 . S
C2724 C2725 1.377 . S
C2724 C2726 1.384 . S
C2725 C2724 1.377 . S
C2725 C2731 1.390 . S
C2726 H2717 0.930 . S
C2726 C2724 1.384 . S
C2726 C2727 1.372 . S
C2727 C2726 1.372 . S
C2727 C2728 1.400 . S
C2727 C2732 1.490 . S
C2728 H2718 0.930 . S
C2728 C2727 1.400 . S
C2728 C2731 1.386 . S
H2729 C2745 0.930 . S
H2730 C2746 0.931 . S
C2731 H2719 0.929 . S
C2731 C2725 1.390 . S
C2731 C2728 1.386 . S
C2732 C2727 1.490 . S
C2732 C2734 1.395 . S
C2732 C2735 1.403 . S
H2733 C2739 0.930 . S
C2734 H2720 0.930 . S
C2734 C2732 1.395 . S
C2734 C2737 1.403 . S
C2735 C2732 1.403 . S
C2735 C2736 1.524 . S
C2735 C2739 1.400 . S
C2736 H2721 0.960 . S
C2736 H2722 0.960 . S
C2736 H2723 0.960 . S
C2736 C2735 1.524 . S
C2737 C2734 1.403 . S
C2737 C2738 1.392 . S
C2737 C2741 1.495 . S
C2738 C2737 1.392 . S
C2738 C2739 1.385 . S
C2738 C2740 1.478 . S
C2739 H2733 0.930 . S
C2739 C2735 1.400 . S
C2739 C2738 1.385 . S
C2740 C2738 1.478 . S
C2740 C2742 1.381 . S
C2740 C2746 1.383 . S
C2741 C2737 1.495 . S
C2741 H2747 0.959 . S
C2741 H2748 0.961 . S
C2741 H2749 0.960 . S
C2742 C2740 1.381 . S
C2742 C2743 1.394 . S
C2742 H2750 0.930 . S
C2743 C2742 1.394 . S
C2743 C2744 1.383 . S
C2743 H2751 0.929 . S
C2744 C2743 1.383 . S
C2744 C2745 1.377 . S
C2745 H2729 0.930 . S
C2745 C2744 1.377 . S
C2745 C2746 1.379 . S
C2746 H2730 0.931 . S
C2746 C2740 1.383 . S
C2746 C2745 1.379 . S
H2747 C2741 0.959 . S
H2748 C2741 0.961 . S
H2749 C2741 0.960 . S
H2750 C2742 0.930 . S
H2751 C2743 0.929 . S
C457 C121 1.566 . S
C476 C9 1.565 . S
C493 C359 1.564 . S
C512 C23 1.555 . S
C529 C149 1.565 . S
C548 C37 1.561 . S
C565 C387 1.566 . S
C584 C51 1.565 . S
C601 C177 1.564 . S
C620 C65 1.566 . S
C637 C79 1.563 . S
C656 C415 1.561 . S
C673 C93 1.565 . S
C692 C205 1.567 . S
C709 C107 1.566 . S
C728 C443 1.562 . S
C745 C247 1.565 . S
C764 C135 1.560 . S
C781 C275 1.563 . S
C800 C163 1.557 . S
C817 C191 1.565 . S
C836 C303 1.567 . S
C853 C219 1.565 . S
C872 C331 1.557 . S
C889 C233 1.565 . S
C908 C345 1.558 . S
C925 C373 1.566 . S
C944 C261 1.565 . S
C961 C289 1.563 . S
C980 C401 1.556 . S
C997 C429 1.565 . S
C1016 C317 1.567 . S
C1033 C257 1.629 . S
C1052 C5 1.626 . S
C1069 C271 1.630 . S
C1088 C19 1.629 . S
C1105 C33 1.630 . S
C1124 C229 1.629 . S
C1141 C47 1.628 . S
C1160 C243 1.620 . S
C1177 C313 1.629 . S
C1196 C61 1.622 . S
C1213 C75 1.628 . S
C1232 C327 1.620 . S
C1249 C285 1.630 . S
C1268 C89 1.631 . S
C1285 C299 1.628 . S
C1304 C103 1.621 . S
C1321 C117 1.630 . S
C1340 C369 1.630 . S
C1357 C383 1.630 . S
C1376 C131 1.630 . S
C1393 C145 1.629 . S
C1412 C341 1.623 . S
C1429 C159 1.629 . S
C1448 C355 1.621 . S
C1465 C173 1.630 . S
C1484 C425 1.628 . S
C1501 C187 1.630 . S
C1520 C439 1.620 . S
C1537 C397 1.629 . S
C1556 C201 1.631 . S
C1573 C411 1.631 . S
C1592 C215 1.625 . S
C1609 C95 1.473 . S
C1628 C11 1.485 . S
C1645 C109 1.475 . S
C1664 C25 1.468 . S
C1681 C67 1.478 . S
C1700 C39 1.465 . S
C1717 C53 1.478 . S
C1736 C81 1.460 . S
C1753 C207 1.475 . S
C1772 C123 1.479 . S
C1789 C221 1.477 . S
C1808 C137 1.484 . S
C1825 C179 1.478 . S
C1844 C151 1.484 . S
C1861 C193 1.477 . S
C1880 C165 1.474 . S
C1897 C319 1.473 . S
C1916 C235 1.484 . S
C1933 C333 1.473 . S
C1952 C249 1.483 . S
C1969 C263 1.477 . S
C1988 C291 1.461 . S
C2005 C277 1.474 . S
C2024 C305 1.479 . S
C2041 C431 1.477 . S
C2060 C347 1.475 . S
C2077 C445 1.473 . S
C2096 C361 1.460 . S
C2113 C375 1.474 . S
C2132 C403 1.476 . S
C2149 C389 1.477 . S
C2168 C417 1.484 . S
C2185 C0 1.380 . S
C2204 C294 1.387 . S
C2221 C308 1.376 . S
C2240 C14 1.383 . S
C2257 C322 1.377 . S
C2276 C28 1.388 . S
C2293 C42 1.375 . S
C2312 C280 1.372 . S
C2329 C266 1.381 . S
C2348 C56 1.377 . S
C2365 C70 1.380 . S
C2384 C224 1.386 . S
C2401 C238 1.381 . S
C2420 C84 1.376 . S
C2437 C98 1.376 . S
C2456 C252 1.360 . S
C2473 C406 1.376 . S
C2492 C112 1.381 . S
C2509 C420 1.378 . S
C2528 C126 1.368 . S
C2545 C140 1.375 . S
C2564 C434 1.387 . S
C2581 C392 1.375 . S
C2600 C154 1.388 . S
C2617 C378 1.380 . S
C2636 C168 1.360 . S
C2653 C182 1.376 . S
C2672 C336 1.386 . S
C2689 C350 1.375 . S
C2708 C196 1.388 . S
C2725 C210 1.380 . S
C2744 C364 1.363 . S
