# Generated by pormake.
# Topology qtz-e, (6)-cn, num edge types: 1
# Building blocks:
#     Node 0, Type 0, BuildingBlock: JUFBIX_clean_sbu_0, # of connection points: 6
#     Node 1, Type 0, BuildingBlock: JUFBIX_clean_sbu_0, # of connection points: 6
#     Node 2, Type 0, BuildingBlock: JUFBIX_clean_sbu_0, # of connection points: 6
#     Node 3, Type 0, BuildingBlock: JUFBIX_clean_sbu_0, # of connection points: 6
#     Node 4, Type 0, BuildingBlock: JUFBIX_clean_sbu_0, # of connection points: 6
#     Node 5, Type 0, BuildingBlock: JUFBIX_clean_sbu_0, # of connection points: 6
#     Edge 6, Type (0, 0), BuildingBlock: EZIPEK_clean_linker_0, # of connection points: 2
#     Edge 7, Type (0, 0), BuildingBlock: EZIPEK_clean_linker_0, # of connection points: 2
#     Edge 8, Type (0, 0), BuildingBlock: EZIPEK_clean_linker_0, # of connection points: 2
#     Edge 9, Type (0, 0), BuildingBlock: EZIPEK_clean_linker_0, # of connection points: 2
#     Edge 10, Type (0, 0), BuildingBlock: EZIPEK_clean_linker_0, # of connection points: 2
#     Edge 11, Type (0, 0), BuildingBlock: EZIPEK_clean_linker_0, # of connection points: 2
#     Edge 12, Type (0, 0), BuildingBlock: EZIPEK_clean_linker_0, # of connection points: 2
#     Edge 13, Type (0, 0), BuildingBlock: EZIPEK_clean_linker_0, # of connection points: 2
#     Edge 14, Type (0, 0), BuildingBlock: EZIPEK_clean_linker_0, # of connection points: 2
#     Edge 15, Type (0, 0), BuildingBlock: EZIPEK_clean_linker_0, # of connection points: 2
#     Edge 16, Type (0, 0), BuildingBlock: EZIPEK_clean_linker_0, # of connection points: 2
#     Edge 17, Type (0, 0), BuildingBlock: EZIPEK_clean_linker_0, # of connection points: 2
#     Edge 18, Type (0, 0), BuildingBlock: EZIPEK_clean_linker_0, # of connection points: 2
#     Edge 19, Type (0, 0), BuildingBlock: EZIPEK_clean_linker_0, # of connection points: 2
#     Edge 20, Type (0, 0), BuildingBlock: EZIPEK_clean_linker_0, # of connection points: 2
#     Edge 21, Type (0, 0), BuildingBlock: EZIPEK_clean_linker_0, # of connection points: 2
#     Edge 22, Type (0, 0), BuildingBlock: EZIPEK_clean_linker_0, # of connection points: 2
#     Edge 23, Type (0, 0), BuildingBlock: EZIPEK_clean_linker_0, # of connection points: 2
# Relax obj value: 0.693
# Max RMSD: 0.306
# Mean RMSD: 0.306
data_MOF--net-qtz-e--node1-JUFBIX_clean_sbu_0--edge1-EZIPEK_clean_linker_0
_symmetry_space_group_name_H-M    P1
_symmetry_Int_Tables_number       1
_symmetry_cell_setting            triclinic
loop_
_symmetry_equiv_pos_as_xyz
'x, y, z'
_cell_length_a     19.31478
_cell_length_b     19.33123
_cell_length_c     30.141189
_cell_angle_alpha  89.577915
_cell_angle_beta   90.633376
_cell_angle_gamma 120.22915
loop_
_atom_site_label
_atom_site_type_symbol
_atom_site_fract_x
_atom_site_fract_y
_atom_site_fract_z
_atom_type_partial_charge
Co0 Co 0.20408 0.42992 0.17135 0.0
C1 C 0.30041 0.37425 0.14246 0.0
Co2 Co 0.14217 0.33502 0.12184 0.0
C3 C 0.22838 0.54655 0.23753 0.0
C4 C 0.32988 0.53069 0.23336 0.0
N5 N 0.25866 0.50994 0.21323 0.0
N6 N 0.27805 0.58856 0.27088 0.0
C7 C 0.34218 0.57979 0.26836 0.0
H8 H 0.16881 0.53786 0.23343 0.0
H9 H 0.36907 0.50773 0.22587 0.0
C10 C 0.06332 0.418 0.14042 0.0
N11 N 0.0918 0.25204 0.08089 0.0
C12 C 0.12837 0.23807 0.047 0.0
C13 C 0.01449 0.19285 0.07806 0.0
N14 N 0.07749 0.17288 0.02342 0.0
C15 C 0.00553 0.14379 0.04266 0.0
C16 C 0.10256 0.28465 0.2107 0.0
O17 O 0.12212 0.45412 0.1669 0.0
O18 O 0.05277 0.35455 0.12123 0.0
O19 O 0.09446 0.25949 0.17087 0.0
O20 O 0.15105 0.35803 0.21837 0.0
O21 O 0.23925 0.32605 0.11942 0.0
H22 H 0.96782 0.18539 0.10038 0.0
H23 H 0.19147 0.27457 0.03975 0.0
O24 O 0.28922 0.40959 0.17386 0.0
O25 O 0.25357 0.50212 0.12338 0.0
O26 O 0.18412 0.40612 0.07545 0.0
C27 C 0.23448 0.47835 0.08356 0.0
H28 H 0.3912 0.60252 0.29211 0.0
H29 H 0.95095 0.09087 0.03204 0.0
Co30 Co 0.77374 0.23582 0.40056 0.0
C31 C 0.69866 0.07702 0.42075 0.0
Co32 Co 0.84511 0.21158 0.44785 0.0
C33 C 0.73708 0.30254 0.32589 0.0
C34 C 0.63145 0.21398 0.35863 0.0
N35 N 0.71238 0.2545 0.36146 0.0
N36 N 0.67526 0.291 0.30011 0.0
C37 C 0.60827 0.23564 0.32024 0.0
H38 H 0.79897 0.34367 0.31819 0.0
H39 H 0.59215 0.16923 0.38208 0.0
C40 C 0.90546 0.3746 0.43355 0.0
N41 N 0.90005 0.18584 0.48984 0.0
C42 C 0.86555 0.13291 0.52346 0.0
C43 C 0.97938 0.21451 0.49509 0.0
N44 N 0.91975 0.12738 0.54936 0.0
C45 C 0.99171 0.17864 0.53185 0.0
C46 C 0.89248 0.21572 0.36003 0.0
O47 O 0.84528 0.34704 0.40751 0.0
O48 O 0.92332 0.32573 0.45213 0.0
O49 O 0.90528 0.20109 0.39966 0.0
O50 O 0.83548 0.22986 0.35385 0.0
O51 O 0.75962 0.09763 0.44582 0.0
H52 H 0.02516 0.25888 0.47381 0.0
H53 H 0.80176 0.09956 0.52933 0.0
O54 O 0.70172 0.12877 0.3941 0.0
O55 O 0.71248 0.24127 0.4466 0.0
O56 O 0.79052 0.22544 0.49354 0.0
C57 C 0.73404 0.23905 0.48603 0.0
H58 H 0.54785 0.21175 0.30754 0.0
H59 H 0.04877 0.18934 0.5448 0.0
Co60 Co 0.55033 0.77405 0.84454 0.0
C61 C 0.62547 0.935 0.82426 0.0
Co62 Co 0.63672 0.80662 0.79112 0.0
C63 C 0.41557 0.69417 0.90399 0.0
C64 C 0.51376 0.80314 0.92931 0.0
N65 N 0.48704 0.75653 0.89268 0.0
N66 N 0.39878 0.69975 0.94662 0.0
C67 C 0.45928 0.76877 0.96228 0.0
H68 H 0.38199 0.64132 0.88367 0.0
H69 H 0.57271 0.85516 0.93333 0.0
C70 C 0.54044 0.64069 0.80659 0.0
N71 N 0.70817 0.83322 0.74312 0.0
C72 C 0.75971 0.90689 0.72662 0.0
C73 C 0.71525 0.78285 0.71549 0.0
N74 N 0.80153 0.90552 0.69089 0.0
C75 C 0.77032 0.82629 0.68332 0.0
C76 C 0.6997 0.79793 0.8729 0.0
O77 O 0.5082 0.66373 0.83497 0.0
O78 O 0.60389 0.6933 0.78697 0.0
O79 O 0.72187 0.82309 0.83335 0.0
O80 O 0.62825 0.77552 0.8835 0.0
O81 O 0.66044 0.9177 0.79447 0.0
H82 H 0.68022 0.71831 0.71708 0.0
H83 H 0.7621 0.95986 0.73916 0.0
O84 O 0.58821 0.88243 0.85315 0.0
O85 O 0.47092 0.76969 0.80573 0.0
O86 O 0.55338 0.78805 0.75109 0.0
C87 C 0.48543 0.77423 0.7645 0.0
H88 H 0.46779 0.78769 -0.00338 0.0
H89 H 0.78188 0.79998 0.6549 0.0
Co90 Co 0.76952 0.52784 0.05723 0.0
C91 C 0.92608 0.60783 0.08739 0.0
Co92 Co 0.79376 0.62063 0.10598 0.0
C93 C 0.71179 0.43024 0.98218 0.0
C94 C 0.80114 0.41429 0.01558 0.0
N95 N 0.75941 0.45318 0.01793 0.0
N96 N 0.72262 0.37955 0.95731 0.0
C97 C 0.77896 0.36905 0.97754 0.0
H98 H 0.67078 0.4513 0.97396 0.0
H99 H 0.84561 0.4195 0.03955 0.0
C100 C 0.63077 0.51802 0.08155 0.0
N101 N 0.81056 0.69761 0.14949 0.0
C102 C 0.88068 0.74721 0.17058 0.0
C103 C 0.7542 0.69771 0.17568 0.0
N104 N 0.87006 0.77522 0.20927 0.0
C105 C 0.79055 0.7449 0.21245 0.0
C106 C 0.79953 0.6721 0.01816 0.0
O107 O 0.65911 0.48626 0.05676 0.0
O108 O 0.67896 0.58318 0.10194 0.0
O109 O 0.81577 0.69672 0.05822 0.0
O110 O 0.78072 0.60005 0.01015 0.0
O111 O 0.90436 0.64734 0.11118 0.0
H112 H 0.69029 0.6595 0.17111 0.0
H113 H 0.93833 0.75687 0.16044 0.0
O114 O 0.87869 0.56444 0.05733 0.0
O115 O 0.75439 0.45574 0.10411 0.0
O116 O 0.77151 0.54823 0.15154 0.0
C117 C 0.75394 0.47713 0.14374 0.0
H118 H 0.80112 0.33099 0.96591 0.0
H119 H 0.76051 0.75029 0.2412 0.0
Co120 Co 0.23345 0.78725 0.50258 0.0
C121 C 0.07072 0.70776 0.47865 0.0
Co122 Co 0.20151 0.85084 0.45255 0.0
C123 C 0.30434 0.75926 0.57943 0.0
C124 C 0.19696 0.65373 0.55927 0.0
N125 N 0.24926 0.72975 0.54669 0.0
N126 N 0.28602 0.70648 0.61297 0.0
C127 C 0.21794 0.64029 0.60058 0.0
H128 H 0.3537 0.82029 0.58028 0.0
H129 H 0.14394 0.61177 0.54102 0.0
C130 C 0.36966 0.9201 0.47255 0.0
N131 N 0.17912 0.90253 0.40544 0.0
C132 C 0.10618 0.8823 0.38797 0.0
C133 C 0.23055 0.94427 0.37252 0.0
N134 N 0.1105 0.90747 0.34553 0.0
C135 C 0.18894 0.94772 0.33606 0.0
C136 C 0.20492 0.90567 0.53747 0.0
O137 O 0.34445 0.86035 0.4985 0.0
O138 O 0.31732 0.92964 0.45101 0.0
O139 O 0.18642 0.91291 0.49753 0.0
O140 O 0.22426 0.85298 0.54613 0.0
O141 O 0.0897 0.76741 0.45337 0.0
H142 H 0.29242 0.96028 0.37198 0.0
H143 H 0.05005 0.84203 0.40382 0.0
O144 O 0.12342 0.71228 0.50543 0.0
O145 O 0.24435 0.72432 0.45941 0.0
O146 O 0.21663 0.79123 0.4101 0.0
C147 C 0.23431 0.7381 0.4194 0.0
H148 H 0.18458 0.5869 0.62055 0.0
H149 H 0.21339 0.96879 0.30333 0.0
Co150 Co 0.45016 0.22127 0.72926 0.0
C151 C 0.37784 0.30702 0.75552 0.0
Co152 Co 0.35691 0.16005 0.7786 0.0
C153 C 0.54676 0.25838 0.65396 0.0
C154 C 0.58981 0.35955 0.69705 0.0
N155 N 0.53111 0.28239 0.69203 0.0
N156 N 0.61354 0.31676 0.63542 0.0
C157 C 0.64176 0.38073 0.66214 0.0
H158 H 0.51226 0.19803 0.64109 0.0
H159 H 0.59558 0.3972 0.72479 0.0
C160 C 0.45276 0.09056 0.76045 0.0
N161 N 0.2751 0.10287 0.81904 0.0
C162 C 0.25437 0.13511 0.85235 0.0
C163 C 0.22388 0.02326 0.82233 0.0
N164 N 0.19249 0.0793 0.876 0.0
C165 C 0.17266 0.00856 0.8574 0.0
C166 C 0.30874 0.11445 0.68895 0.0
O167 O 0.47833 0.14102 0.72912 0.0
O168 O 0.39301 0.08272 0.78268 0.0
O169 O 0.28474 0.10227 0.72909 0.0
O170 O 0.37949 0.17053 0.6811 0.0
O171 O 0.33011 0.24406 0.77704 0.0
H172 H 0.22373 0.97882 0.80073 0.0
H173 H 0.28397 0.1985 0.85929 0.0
O174 O 0.42718 0.30408 0.72968 0.0
O175 O 0.52144 0.26922 0.77698 0.0
O176 O 0.4259 0.21323 0.82589 0.0
C177 C 0.49921 0.2571 0.81692 0.0
H178 H 0.69683 0.43703 0.65737 0.0
H179 H 0.12485 0.95084 0.86841 0.0
C180 C 0.20483 0.61249 0.38043 0.0
C181 C 0.2477 0.6973 0.38288 0.0
C182 C 0.29839 0.70769 0.30812 0.0
C183 C 0.26125 0.62392 0.30706 0.0
N184 N 0.18873 0.49506 0.34247 0.0
N185 N 0.35008 0.82502 0.35397 0.0
C186 C 0.21702 0.57562 0.34333 0.0
C187 C 0.29857 0.74494 0.34801 0.0
N188 N 0.15078 0.5676 0.41241 0.0
N189 N 0.33336 0.75113 0.27068 0.0
H190 H 0.35546 0.8537 0.38395 0.0
H191 H 0.39341 0.86115 0.33103 0.0
H192 H 0.33447 0.7243 0.24097 0.0
H193 H 0.35472 0.81235 0.26797 0.0
H194 H 0.11282 0.50594 0.41015 0.0
H195 H 0.13914 0.59223 0.43996 0.0
H196 H 0.16345 0.45749 0.36972 0.0
H197 H 0.19545 0.4663 0.31512 0.0
C198 C 0.65849 0.34531 0.55845 0.0
C199 C 0.6523 0.30556 0.59882 0.0
C200 C 0.68501 0.21437 0.56294 0.0
C201 C 0.6999 0.25911 0.52324 0.0
N202 N 0.72234 0.38182 0.48725 0.0
N203 N 0.68179 0.21919 0.64269 0.0
C204 C 0.69266 0.32886 0.52181 0.0
C205 C 0.67303 0.24553 0.60206 0.0
N206 N 0.6297 0.39671 0.55478 0.0
N207 N 0.67925 0.14099 0.563 0.0
H208 H 0.67672 0.24463 0.67198 0.0
H209 H 0.70289 0.17942 0.64703 0.0
H210 H 0.68243 0.11371 0.53406 0.0
H211 H 0.66223 0.10373 0.59077 0.0
H212 H 0.62536 0.42087 0.52455 0.0
H213 H 0.60415 0.40988 0.58135 0.0
H214 H 0.7249 0.43698 0.48755 0.0
H215 H 0.75242 0.37559 0.46058 0.0
C216 C 0.25798 0.59592 0.03809 0.0
C217 C 0.27312 0.53247 0.04641 0.0
C218 C 0.36809 0.57634 0.98582 0.0
C219 C 0.34816 0.6357 0.97525 0.0
N220 N 0.2658 0.69438 0.98494 0.0
N221 N 0.32867 0.45107 0.02212 0.0
C222 C 0.28975 0.64252 -0.00067 0.0
C223 C 0.32288 0.51844 0.01801 0.0
N224 N 0.21516 0.61277 0.0675 0.0
N225 N 0.4344 0.57913 0.96815 0.0
H226 H 0.30149 0.4091 0.04722 0.0
H227 H 0.35639 0.43412 -0.00144 0.0
H228 H 0.4731 0.62334 0.94633 0.0
H229 H 0.4562 0.54219 0.97874 0.0
H230 H 0.20888 0.66309 0.06508 0.0
H231 H 0.19053 0.57961 0.0963 0.0
H232 H 0.21832 0.69764 -0.00127 0.0
H233 H 0.28934 0.72921 0.95642 0.0
C234 C 0.72081 0.31048 0.22336 0.0
C235 C 0.68214 0.32683 0.2578 0.0
C236 C 0.67029 0.42276 0.21124 0.0
C237 C 0.7236 0.41891 0.18035 0.0
N238 N 0.80614 0.36302 0.15936 0.0
N239 N 0.62822 0.40469 0.28756 0.0
C240 C 0.74993 0.36295 0.18653 0.0
C241 C 0.65843 0.38419 0.25252 0.0
N242 N 0.72921 0.2446 0.22614 0.0
N243 N 0.62897 0.46096 0.20079 0.0
H244 H 0.61937 0.37776 0.31868 0.0
H245 H 0.61853 0.45308 0.28671 0.0
H246 H 0.63239 0.48685 0.17002 0.0
H247 H 0.58407 0.45854 0.22076 0.0
H248 H 0.74954 0.22493 0.19992 0.0
H249 H 0.70785 0.20524 0.25306 0.0
H250 H 0.83276 0.32857 0.16555 0.0
H251 H 0.83191 0.40248 0.1329 0.0
C252 C 0.41614 0.81704 0.70976 0.0
C253 C 0.42191 0.75536 0.73174 0.0
C254 C 0.33953 0.66111 0.67474 0.0
C255 C 0.32709 0.72082 0.65491 0.0
N256 N 0.32911 0.84587 0.66552 0.0
N257 N 0.36471 0.61358 0.74382 0.0
C258 C 0.35766 0.79604 0.67612 0.0
C259 C 0.37483 0.67541 0.71735 0.0
N260 N 0.46783 0.89529 0.7196 0.0
N261 N 0.32449 0.59421 0.65192 0.0
H262 H 0.38823 0.62264 0.77592 0.0
H263 H 0.326 0.5538 0.73544 0.0
H264 H 0.30889 0.58602 0.6184 0.0
H265 H 0.338 0.55218 0.66481 0.0
H266 H 0.46983 0.94232 0.70135 0.0
H267 H 0.51311 0.91221 0.74322 0.0
H268 H 0.34737 0.89946 0.68225 0.0
H269 H 0.2801 0.82859 0.6443 0.0
C270 C 0.61548 0.26316 0.91969 0.0
C271 C 0.67821 0.34353 0.91805 0.0
C272 C 0.62097 0.36828 0.85182 0.0
C273 C 0.55952 0.2869 0.85224 0.0
N274 N 0.51047 0.15181 0.87996 0.0
N275 N 0.7472 0.47035 0.87944 0.0
C276 C 0.56023 0.23259 0.88414 0.0
C277 C 0.68382 0.39447 0.88275 0.0
N278 N 0.60515 0.21774 0.95668 0.0
N279 N 0.61868 0.4219 0.82291 0.0
H280 H 0.79667 0.49382 0.90089 0.0
H281 H 0.79667 0.49382 0.90089 0.0
H282 H 0.57018 0.40747 0.80182 0.0
H283 H 0.66347 0.48214 0.82211 0.0
H284 H 0.55411 0.16222 0.96207 0.0
H285 H 0.64447 0.2379 0.98368 0.0
H286 H 0.51621 0.11009 0.89933 0.0
H287 H 0.46809 0.12557 0.85482 0.0
C288 C 0.43345 0.49221 0.11442 0.0
C289 C 0.38504 0.40834 0.12542 0.0
C290 C 0.49955 0.39317 0.10458 0.0
C291 C 0.54283 0.47504 0.09029 0.0
N292 N 0.53524 0.58914 0.06575 0.0
N293 N 0.37031 0.27702 0.12196 0.0
C294 C 0.50406 0.51957 0.08962 0.0
C295 C 0.41717 0.35799 0.11699 0.0
N296 N 0.41722 0.54852 0.12972 0.0
N297 N 0.53753 0.35003 0.10925 0.0
H298 H 0.31188 0.24963 0.13387 0.0
H299 H 0.38779 0.2369 0.11141 0.0
H300 H 0.59719 0.37197 0.10129 0.0
H301 H 0.51144 0.29423 0.12471 0.0
H302 H 0.45476 0.60976 0.1245 0.0
H303 H 0.37563 0.53761 0.15356 0.0
H304 H 0.50478 0.62043 0.06094 0.0
H305 H 0.58643 0.60972 0.04638 0.0
C306 C 0.97757 0.56607 0.50308 0.0
C307 C 1.00189 0.62483 0.46909 0.0
C308 C 0.96426 0.5202 0.41297 0.0
C309 C 0.94419 0.46129 0.44665 0.0
N310 N 0.91127 0.42607 0.52405 0.0
N311 N 0.97757 0.64796 0.3936 0.0
C312 C 0.94489 0.48353 0.4919 0.0
C313 C 0.9825 0.59894 0.42456 0.0
N314 N 0.9871 0.59016 0.54632 0.0
N315 N 0.96967 0.50227 0.36985 0.0
H316 H 0.9821 0.70215 0.40219 0.0
H317 H 0.9561 0.62894 0.36151 0.0
H318 H 0.96101 0.44674 0.36024 0.0
H319 H 0.99159 0.54521 0.3447 0.0
H320 H 0.98252 0.55401 0.57321 0.0
H321 H 1.00231 0.6484 0.55496 0.0
H322 H 0.90039 0.43731 0.55618 0.0
H323 H 0.88875 0.36559 0.5183 0.0
C324 C 0.47072 0.99242 0.80852 0.0
C325 C 0.50339 0.05613 0.7774 0.0
C326 C 0.63133 0.05491 0.78305 0.0
C327 C 0.59827 0.99513 0.81634 0.0
N328 N 0.50385 0.95123 0.87691 0.0
N329 N 0.63083 0.1702 0.75289 0.0
C330 C 0.52347 0.97786 0.83442 0.0
C331 C 0.58838 0.09401 0.76918 0.0
N332 N 0.38999 0.94391 0.81307 0.0
N333 N 0.70498 0.07759 0.76622 0.0
H334 H 0.608 0.20835 0.74927 0.0
H335 H 0.69298 0.20053 0.74977 0.0
H336 H 0.74286 0.05954 0.78038 0.0
H337 H 0.72712 0.11338 0.73796 0.0
H338 H 0.36573 0.89497 0.83468 0.0
H339 H 0.34859 0.94557 0.79126 0.0
H340 H 0.45039 0.94054 0.89126 0.0
H341 H 0.5466 0.95333 0.89914 0.0
C342 C 0.47359 0.53139 0.7482 0.0
C343 C 0.49713 0.55391 0.79342 0.0
C344 C 0.42141 0.41116 0.81493 0.0
C345 C 0.39883 0.38929 0.77009 0.0
N346 N 0.3882 0.42663 0.69568 0.0
N347 N 0.48958 0.51568 0.87041 0.0
C348 C 0.42064 0.44922 0.73728 0.0
C349 C 0.46892 0.49374 0.82705 0.0
N350 N 0.50086 0.58826 0.71551 0.0
N351 N 0.40201 0.35064 0.84448 0.0
H352 H 0.53355 0.57319 0.87989 0.0
H353 H 0.46218 0.47809 0.89734 0.0
H354 H 0.4206 0.35771 0.87755 0.0
H355 H 0.4206 0.35771 0.87755 0.0
H356 H 0.49581 0.57524 0.68181 0.0
H357 H 0.5307 0.64943 0.72147 0.0
H358 H 0.39593 0.46612 0.67007 0.0
H359 H 0.34716 0.36707 0.68783 0.0
C360 C 0.00397 0.50346 0.15947 0.0
C361 C 0.02223 0.46312 0.12618 0.0
C362 C 0.0126 0.55117 0.06981 0.0
C363 C 0.98624 0.58488 0.10233 0.0
N364 N 0.99033 0.61757 0.17931 0.0
N365 N 0.03319 0.44324 0.04751 0.0
C366 C 0.9915 0.56811 0.14765 0.0
C367 C 0.02358 0.4854 0.08072 0.0
N368 N 0.9954 0.47746 0.20242 0.0
N369 N 0.02888 0.58445 0.02836 0.0
H370 H 0.04012 0.39394 0.05248 0.0
H371 H 0.02612 0.45192 0.01402 0.0
H372 H 0.0227 0.63387 0.02061 0.0
H373 H 0.05654 0.56972 0.00371 0.0
H374 H 0.97322 0.49736 0.22758 0.0
H375 H 0.00337 0.43003 0.21208 0.0
H376 H 1.00015 0.61294 0.21294 0.0
H377 H 0.99156 0.67059 0.17117 0.0
C378 C 0.51594 0.96474 0.49139 0.0
C379 C 0.45836 0.96607 0.46163 0.0
C380 C 0.55412 1.00103 0.40126 0.0
C381 C 0.61507 0.01001 0.43121 0.0
N382 N 0.64402 0.96923 0.5008 0.0
N383 N 0.44388 0.0246 0.39386 0.0
C384 C 0.59299 0.9824 0.47531 0.0
C385 C 0.48286 0.99452 0.4179 0.0
N386 N 0.49959 0.9541 0.53569 0.0
N387 N 0.56679 0.00343 0.35671 0.0
H388 H 0.40544 0.04013 0.40904 0.0
H389 H 0.46095 0.04804 0.36199 0.0
H390 H 0.61877 0.00716 0.34412 0.0
H391 H 0.52278 0.99361 0.33319 0.0
H392 H 0.54023 0.95786 0.55984 0.0
H393 H 0.44852 0.95143 0.54878 0.0
H394 H 0.63045 0.94415 0.53242 0.0
H395 H 0.69656 0.975 0.48786 0.0
C396 C 0.10595 0.12754 0.9058 0.0
C397 C 0.15564 0.09414 0.91325 0.0
C398 C 0.14065 0.09965 -0.00639 0.0
C399 C 0.09815 0.14074 0.98617 0.0
N400 N 0.04535 0.2005 0.93629 0.0
N401 N 0.22689 0.05419 0.9632 0.0
C402 C 0.08148 0.15591 0.94247 0.0
C403 C 0.17422 0.08103 0.95696 0.0
N404 N 0.0817 0.13098 0.86352 0.0
N405 N 0.14783 0.07794 0.03587 0.0
H406 H 0.25211 0.04009 0.93685 0.0
H407 H 0.24965 0.05081 -0.00591 0.0
H408 H 0.1237 0.09127 0.06309 0.0
H409 H 0.17187 0.04172 0.04364 0.0
H410 H 0.03985 0.14813 0.85573 0.0
H411 H 0.09912 0.11045 0.8363 0.0
H412 H 0.03851 0.22099 0.90545 0.0
H413 H 0.0266 0.2215 0.96269 0.0
C414 C 1.00287 0.1963 0.32235 0.0
C415 C 0.94489 0.22198 0.32102 0.0
C416 C 0.96974 0.24535 0.24123 0.0
C417 C 0.03953 0.23973 0.24468 0.0
N418 N 0.12691 0.21475 0.29074 0.0
N419 N 0.90707 0.30621 0.27951 0.0
C420 C 0.05768 0.21681 0.28608 0.0
C421 C 0.9365 0.2553 0.28034 0.0
N422 N 0.00503 0.15107 0.35673 0.0
N423 N 0.93869 0.24776 0.20086 0.0
H424 H 0.90812 0.33704 0.30787 0.0
H425 H 0.89815 0.32994 0.25031 0.0
H426 H 0.95983 0.23745 0.17151 0.0
H427 H 0.8856 0.24905 0.19758 0.0
H428 H 0.04492 0.12976 0.35816 0.0
H429 H 0.96123 0.12616 0.38096 0.0
H430 H 0.14785 0.20673 0.32125 0.0
H431 H 0.16502 0.22526 0.26404 0.0
C432 C 0.8677 0.05023 0.66674 0.0
C433 C 0.85511 0.97176 0.66155 0.0
C434 C 0.90866 0.0072 0.58606 0.0
C435 C 0.90333 0.07753 0.58818 0.0
N436 N 0.87997 0.16842 0.63083 0.0
N437 N 0.91838 0.90532 0.62818 0.0
C438 C 0.88363 0.09987 0.6287 0.0
C439 C 0.89147 0.95819 0.62448 0.0
N440 N 0.87775 0.08181 0.70817 0.0
N441 N 0.92684 0.98548 0.54685 0.0
H442 H 0.91766 0.87848 0.65849 0.0
H443 H 0.95132 0.89737 0.60365 0.0
H444 H 0.93953 0.02015 0.51815 0.0
H445 H 0.92329 0.93044 0.54213 0.0
H446 H 0.89226 0.14067 0.71407 0.0
H447 H 0.88534 0.0533 0.73577 0.0
H448 H 0.85716 0.18295 0.65815 0.0
H449 H 0.89535 0.2081 0.60418 0.0
C450 C 0.74861 0.8125 0.95123 0.0
C451 C 0.75139 0.78838 0.90731 0.0
C452 C 0.81509 0.71456 0.93719 0.0
C453 C 0.7939 0.72268 0.98123 0.0
N454 N 0.72633 0.77238 0.02797 0.0
N455 N 0.78355 0.70968 0.8588 0.0
C456 C 0.75821 0.77103 0.98794 0.0
C457 C 0.78486 0.73856 0.90019 0.0
N458 N 0.73474 0.87428 0.95783 0.0
N459 N 0.86506 0.68484 0.9306 0.0
H460 H 0.76349 0.7262 0.83069 0.0
H461 H 0.79751 0.66503 0.85297 0.0
H462 H 0.89139 0.67052 0.95681 0.0
H463 H 0.88751 0.68335 0.89956 0.0
H464 H 0.73863 0.8992 0.98897 0.0
H465 H 0.72842 0.90604 0.93144 0.0
H466 H 0.69225 0.79979 0.03243 0.0
H467 H 0.72512 0.73924 0.05552 0.0
C468 C 0.0194 0.79468 0.29679 0.0
C469 C 0.04706 0.87334 0.31258 0.0
C470 C 0.95986 0.88892 0.25819 0.0
C471 C 0.92773 0.80805 0.24524 0.0
N472 N 0.91352 0.67879 0.25921 0.0
N473 N 0.041 0.99415 0.3113 0.0
C474 C 0.95367 0.75942 0.26663 0.0
C475 C 0.01627 0.92014 0.29411 0.0
N476 N 0.05868 0.75513 0.30881 0.0
N477 N 0.93781 0.93596 0.23517 0.0
H478 H 0.08286 0.018 0.33716 0.0
H479 H 0.01692 0.0296 0.3019 0.0
H480 H 0.89623 0.91372 0.20912 0.0
H481 H 0.96371 0.99738 0.23986 0.0
H482 H 0.04707 0.70157 0.29424 0.0
H483 H 0.1076 0.77908 0.33053 0.0
H484 H 0.92464 0.63911 0.2772 0.0
H485 H 0.86381 0.6506 0.23813 0.0
C486 C 0.26637 0.09317 0.60852 0.0
C487 C 0.26034 0.05965 0.65143 0.0
C488 C 0.18493 0.92603 0.61739 0.0
C489 C 0.20974 0.95985 0.57448 0.0
N490 N 0.28273 0.08051 0.53021 0.0
N491 N 0.22074 0.93912 0.69494 0.0
C492 C 0.25154 0.04483 0.57004 0.0
C493 C 0.22006 0.97457 0.65569 0.0
N494 N 0.28648 0.1715 0.60448 0.0
N495 N 0.12839 0.84693 0.62156 0.0
H496 H 0.25049 0.97047 0.72335 0.0
H497 H 0.19884 0.87781 0.69795 0.0
H498 H 0.10023 0.81053 0.59407 0.0
H499 H 0.10322 0.82053 0.65191 0.0
H500 H 0.28531 0.1974 0.57423 0.0
H501 H 0.29506 0.20753 0.63201 0.0
H502 H 0.32155 0.14198 0.52694 0.0
H503 H 0.276 0.04923 0.50107 0.0
loop_
_geom_bond_atom_site_label_1
_geom_bond_atom_site_label_2
_geom_bond_distance
_geom_bond_site_symmetry_2
_ccdc_geom_bond_type
Co0 N5 2.057 . S
Co0 O17 2.021 . S
Co0 O20 2.062 . S
Co0 O24 2.117 . S
Co0 O25 2.020 . S
C1 O21 1.259 . S
C1 O24 1.258 . S
Co2 N11 2.057 . S
Co2 O18 2.117 . S
Co2 O19 2.020 . S
Co2 O21 2.021 . S
Co2 O26 2.062 . S
C3 N5 1.316 . S
C3 N6 1.347 . S
C3 H8 0.931 . S
C4 N5 1.375 . S
C4 C7 1.350 . S
C4 H9 0.930 . S
N5 Co0 2.057 . S
N5 C3 1.316 . S
N5 C4 1.375 . S
N6 C3 1.347 . S
N6 C7 1.373 . S
C7 C4 1.350 . S
C7 N6 1.373 . S
C7 H28 0.931 . S
H8 C3 0.931 . S
H9 C4 0.930 . S
C10 O17 1.259 . S
C10 O18 1.258 . S
N11 Co2 2.057 . S
N11 C12 1.316 . S
N11 C13 1.375 . S
C12 N11 1.316 . S
C12 N14 1.347 . S
C12 H23 0.931 . S
C13 N11 1.375 . S
C13 C15 1.350 . S
C13 H22 0.930 1_455 S
N14 C12 1.347 . S
N14 C15 1.373 . S
C15 C13 1.350 . S
C15 N14 1.373 . S
C15 H29 0.931 1_455 S
C16 O19 1.256 . S
C16 O20 1.255 . S
O17 Co0 2.021 . S
O17 C10 1.259 . S
O18 Co2 2.117 . S
O18 C10 1.258 . S
O19 Co2 2.020 . S
O19 C16 1.256 . S
O20 Co0 2.062 . S
O20 C16 1.255 . S
O21 C1 1.259 . S
O21 Co2 2.021 . S
H22 C13 0.930 1_655 S
H23 C12 0.931 . S
O24 Co0 2.117 . S
O24 C1 1.258 . S
O25 Co0 2.020 . S
O25 C27 1.256 . S
O26 Co2 2.062 . S
O26 C27 1.255 . S
C27 O25 1.256 . S
C27 O26 1.255 . S
H28 C7 0.931 . S
H29 C15 0.931 1_655 S
Co30 N35 2.057 . S
Co30 O47 2.021 . S
Co30 O50 2.062 . S
Co30 O54 2.117 . S
Co30 O55 2.020 . S
C31 O51 1.259 . S
C31 O54 1.258 . S
Co32 N41 2.057 . S
Co32 O48 2.117 . S
Co32 O49 2.020 . S
Co32 O51 2.021 . S
Co32 O56 2.062 . S
C33 N35 1.316 . S
C33 N36 1.347 . S
C33 H38 0.931 . S
C34 N35 1.375 . S
C34 C37 1.350 . S
C34 H39 0.930 . S
N35 Co30 2.057 . S
N35 C33 1.316 . S
N35 C34 1.375 . S
N36 C33 1.347 . S
N36 C37 1.373 . S
C37 C34 1.350 . S
C37 N36 1.373 . S
C37 H58 0.931 . S
H38 C33 0.931 . S
H39 C34 0.930 . S
C40 O47 1.259 . S
C40 O48 1.258 . S
N41 Co32 2.057 . S
N41 C42 1.316 . S
N41 C43 1.375 . S
C42 N41 1.316 . S
C42 N44 1.347 . S
C42 H53 0.931 . S
C43 N41 1.375 . S
C43 C45 1.350 . S
C43 H52 0.930 1_655 S
N44 C42 1.347 . S
N44 C45 1.373 . S
C45 C43 1.350 . S
C45 N44 1.373 . S
C45 H59 0.931 1_655 S
C46 O49 1.256 . S
C46 O50 1.255 . S
O47 Co30 2.021 . S
O47 C40 1.259 . S
O48 Co32 2.117 . S
O48 C40 1.258 . S
O49 Co32 2.020 . S
O49 C46 1.256 . S
O50 Co30 2.062 . S
O50 C46 1.255 . S
O51 C31 1.259 . S
O51 Co32 2.021 . S
H52 C43 0.930 1_455 S
H53 C42 0.931 . S
O54 Co30 2.117 . S
O54 C31 1.258 . S
O55 Co30 2.020 . S
O55 C57 1.256 . S
O56 Co32 2.062 . S
O56 C57 1.255 . S
C57 O55 1.256 . S
C57 O56 1.255 . S
H58 C37 0.931 . S
H59 C45 0.931 1_455 S
Co60 N65 2.057 . S
Co60 O77 2.021 . S
Co60 O80 2.062 . S
Co60 O84 2.117 . S
Co60 O85 2.020 . S
C61 O81 1.259 . S
C61 O84 1.258 . S
Co62 N71 2.057 . S
Co62 O78 2.117 . S
Co62 O79 2.020 . S
Co62 O81 2.021 . S
Co62 O86 2.062 . S
C63 N65 1.316 . S
C63 N66 1.347 . S
C63 H68 0.931 . S
C64 N65 1.375 . S
C64 C67 1.350 . S
C64 H69 0.930 . S
N65 Co60 2.057 . S
N65 C63 1.316 . S
N65 C64 1.375 . S
N66 C63 1.347 . S
N66 C67 1.373 . S
C67 C64 1.350 . S
C67 N66 1.373 . S
C67 H88 0.931 . S
H68 C63 0.931 . S
H69 C64 0.930 . S
C70 O77 1.259 . S
C70 O78 1.258 . S
N71 Co62 2.057 . S
N71 C72 1.316 . S
N71 C73 1.375 . S
C72 N71 1.316 . S
C72 N74 1.347 . S
C72 H83 0.931 . S
C73 N71 1.375 . S
C73 C75 1.350 . S
C73 H82 0.930 . S
N74 C72 1.347 . S
N74 C75 1.373 . S
C75 C73 1.350 . S
C75 N74 1.373 . S
C75 H89 0.931 . S
C76 O79 1.256 . S
C76 O80 1.255 . S
O77 Co60 2.021 . S
O77 C70 1.259 . S
O78 Co62 2.117 . S
O78 C70 1.258 . S
O79 Co62 2.020 . S
O79 C76 1.256 . S
O80 Co60 2.062 . S
O80 C76 1.255 . S
O81 C61 1.259 . S
O81 Co62 2.021 . S
H82 C73 0.930 . S
H83 C72 0.931 . S
O84 Co60 2.117 . S
O84 C61 1.258 . S
O85 Co60 2.020 . S
O85 C87 1.256 . S
O86 Co62 2.062 . S
O86 C87 1.255 . S
C87 O85 1.256 . S
C87 O86 1.255 . S
H88 C67 0.931 . S
H89 C75 0.931 . S
Co90 N95 2.057 . S
Co90 O107 2.021 . S
Co90 O110 2.062 . S
Co90 O114 2.117 . S
Co90 O115 2.020 . S
C91 O111 1.259 . S
C91 O114 1.258 . S
Co92 N101 2.057 . S
Co92 O108 2.117 . S
Co92 O109 2.020 . S
Co92 O111 2.021 . S
Co92 O116 2.062 . S
C93 N95 1.316 1_556 S
C93 N96 1.347 . S
C93 H98 0.931 . S
C94 N95 1.375 1_556 S
C94 C97 1.350 . S
C94 H99 0.930 . S
N95 Co90 2.057 . S
N95 C93 1.316 1_554 S
N95 C94 1.375 1_554 S
N96 C93 1.347 . S
N96 C97 1.373 . S
C97 C94 1.350 . S
C97 N96 1.373 . S
C97 H118 0.931 . S
H98 C93 0.931 . S
H99 C94 0.930 . S
C100 O107 1.259 . S
C100 O108 1.258 . S
N101 Co92 2.057 . S
N101 C102 1.316 . S
N101 C103 1.375 . S
C102 N101 1.316 . S
C102 N104 1.347 . S
C102 H113 0.931 . S
C103 N101 1.375 . S
C103 C105 1.350 . S
C103 H112 0.930 . S
N104 C102 1.347 . S
N104 C105 1.373 . S
C105 C103 1.350 . S
C105 N104 1.373 . S
C105 H119 0.931 . S
C106 O109 1.256 . S
C106 O110 1.255 . S
O107 Co90 2.021 . S
O107 C100 1.259 . S
O108 Co92 2.117 . S
O108 C100 1.258 . S
O109 Co92 2.020 . S
O109 C106 1.256 . S
O110 Co90 2.062 . S
O110 C106 1.255 . S
O111 C91 1.259 . S
O111 Co92 2.021 . S
H112 C103 0.930 . S
H113 C102 0.931 . S
O114 Co90 2.117 . S
O114 C91 1.258 . S
O115 Co90 2.020 . S
O115 C117 1.256 . S
O116 Co92 2.062 . S
O116 C117 1.255 . S
C117 O115 1.256 . S
C117 O116 1.255 . S
H118 C97 0.931 . S
H119 C105 0.931 . S
Co120 N125 2.057 . S
Co120 O137 2.021 . S
Co120 O140 2.062 . S
Co120 O144 2.117 . S
Co120 O145 2.020 . S
C121 O141 1.259 . S
C121 O144 1.258 . S
Co122 N131 2.057 . S
Co122 O138 2.117 . S
Co122 O139 2.020 . S
Co122 O141 2.021 . S
Co122 O146 2.062 . S
C123 N125 1.316 . S
C123 N126 1.347 . S
C123 H128 0.931 . S
C124 N125 1.375 . S
C124 C127 1.350 . S
C124 H129 0.930 . S
N125 Co120 2.057 . S
N125 C123 1.316 . S
N125 C124 1.375 . S
N126 C123 1.347 . S
N126 C127 1.373 . S
C127 C124 1.350 . S
C127 N126 1.373 . S
C127 H148 0.931 . S
H128 C123 0.931 . S
H129 C124 0.930 . S
C130 O137 1.259 . S
C130 O138 1.258 . S
N131 Co122 2.057 . S
N131 C132 1.316 . S
N131 C133 1.375 . S
C132 N131 1.316 . S
C132 N134 1.347 . S
C132 H143 0.931 . S
C133 N131 1.375 . S
C133 C135 1.350 . S
C133 H142 0.930 1_565 S
N134 C132 1.347 . S
N134 C135 1.373 . S
C135 C133 1.350 . S
C135 N134 1.373 . S
C135 H149 0.931 1_565 S
C136 O139 1.256 . S
C136 O140 1.255 . S
O137 Co120 2.021 . S
O137 C130 1.259 . S
O138 Co122 2.117 . S
O138 C130 1.258 . S
O139 Co122 2.020 . S
O139 C136 1.256 . S
O140 Co120 2.062 . S
O140 C136 1.255 . S
O141 C121 1.259 . S
O141 Co122 2.021 . S
H142 C133 0.930 1_545 S
H143 C132 0.931 . S
O144 Co120 2.117 . S
O144 C121 1.258 . S
O145 Co120 2.020 . S
O145 C147 1.256 . S
O146 Co122 2.062 . S
O146 C147 1.255 . S
C147 O145 1.256 . S
C147 O146 1.255 . S
H148 C127 0.931 . S
H149 C135 0.931 1_545 S
Co150 N155 2.057 . S
Co150 O167 2.021 . S
Co150 O170 2.062 . S
Co150 O174 2.117 . S
Co150 O175 2.020 . S
C151 O171 1.259 . S
C151 O174 1.258 . S
Co152 N161 2.057 . S
Co152 O168 2.117 . S
Co152 O169 2.020 . S
Co152 O171 2.021 . S
Co152 O176 2.062 . S
C153 N155 1.316 . S
C153 N156 1.347 . S
C153 H158 0.931 . S
C154 N155 1.375 . S
C154 C157 1.350 . S
C154 H159 0.930 . S
N155 Co150 2.057 . S
N155 C153 1.316 . S
N155 C154 1.375 . S
N156 C153 1.347 . S
N156 C157 1.373 . S
C157 C154 1.350 . S
C157 N156 1.373 . S
C157 H178 0.931 . S
H158 C153 0.931 . S
H159 C154 0.930 . S
C160 O167 1.259 . S
C160 O168 1.258 . S
N161 Co152 2.057 . S
N161 C162 1.316 . S
N161 C163 1.375 . S
C162 N161 1.316 . S
C162 N164 1.347 . S
C162 H173 0.931 . S
C163 N161 1.375 . S
C163 C165 1.350 . S
C163 H172 0.930 1_545 S
N164 C162 1.347 . S
N164 C165 1.373 . S
C165 C163 1.350 . S
C165 N164 1.373 . S
C165 H179 0.931 1_545 S
C166 O169 1.256 . S
C166 O170 1.255 . S
O167 Co150 2.021 . S
O167 C160 1.259 . S
O168 Co152 2.117 . S
O168 C160 1.258 . S
O169 Co152 2.020 . S
O169 C166 1.256 . S
O170 Co150 2.062 . S
O170 C166 1.255 . S
O171 C151 1.259 . S
O171 Co152 2.021 . S
H172 C163 0.930 1_565 S
H173 C162 0.931 . S
O174 Co150 2.117 . S
O174 C151 1.258 . S
O175 Co150 2.020 . S
O175 C177 1.256 . S
O176 Co152 2.062 . S
O176 C177 1.255 . S
C177 O175 1.256 . S
C177 O176 1.255 . S
H178 C157 0.931 . S
H179 C165 0.931 1_565 S
C180 C181 1.363 . S
C180 C186 1.379 . S
C180 N188 1.356 . S
C181 C180 1.363 . S
C181 C187 1.363 . S
C182 C183 1.363 . S
C182 C187 1.379 . S
C182 N189 1.356 . S
C183 C182 1.363 . S
C183 C186 1.363 . S
N184 C186 1.356 . S
N184 H196 0.984 . S
N184 H197 0.985 . S
N185 C187 1.356 . S
N185 H190 0.984 . S
N185 H191 0.985 . S
C186 C180 1.379 . S
C186 C183 1.363 . S
C186 N184 1.356 . S
C187 C181 1.363 . S
C187 C182 1.379 . S
C187 N185 1.356 . S
N188 C180 1.356 . S
N188 H194 0.984 . S
N188 H195 0.984 . S
N189 C182 1.356 . S
N189 H192 0.984 . S
N189 H193 0.985 . S
H190 N185 0.984 . S
H191 N185 0.985 . S
H192 N189 0.984 . S
H193 N189 0.985 . S
H194 N188 0.984 . S
H195 N188 0.984 . S
H196 N184 0.984 . S
H197 N184 0.985 . S
C198 C199 1.363 . S
C198 C204 1.379 . S
C198 N206 1.356 . S
C199 C198 1.363 . S
C199 C205 1.363 . S
C200 C201 1.363 . S
C200 C205 1.379 . S
C200 N207 1.356 . S
C201 C200 1.363 . S
C201 C204 1.363 . S
N202 C204 1.356 . S
N202 H214 0.984 . S
N202 H215 0.985 . S
N203 C205 1.356 . S
N203 H208 0.984 . S
N203 H209 0.985 . S
C204 C198 1.379 . S
C204 C201 1.363 . S
C204 N202 1.356 . S
C205 C199 1.363 . S
C205 C200 1.379 . S
C205 N203 1.356 . S
N206 C198 1.356 . S
N206 H212 0.984 . S
N206 H213 0.984 . S
N207 C200 1.356 . S
N207 H210 0.984 . S
N207 H211 0.985 . S
H208 N203 0.984 . S
H209 N203 0.985 . S
H210 N207 0.984 . S
H211 N207 0.985 . S
H212 N206 0.984 . S
H213 N206 0.984 . S
H214 N202 0.984 . S
H215 N202 0.985 . S
C216 C217 1.363 . S
C216 C222 1.379 . S
C216 N224 1.356 . S
C217 C216 1.363 . S
C217 C223 1.363 . S
C218 C219 1.363 1_554 S
C218 C223 1.379 . S
C218 N225 1.356 1_554 S
C219 C218 1.363 1_556 S
C219 C222 1.363 1_556 S
N220 C222 1.356 1_556 S
N220 H232 0.984 . S
N220 H233 0.985 . S
N221 C223 1.356 . S
N221 H226 0.984 . S
N221 H227 0.985 . S
C222 C216 1.379 . S
C222 C219 1.363 1_554 S
C222 N220 1.356 1_554 S
C223 C217 1.363 . S
C223 C218 1.379 . S
C223 N221 1.356 . S
N224 C216 1.356 . S
N224 H230 0.984 . S
N224 H231 0.984 . S
N225 C218 1.356 1_556 S
N225 H228 0.984 . S
N225 H229 0.985 . S
H226 N221 0.984 . S
H227 N221 0.985 . S
H228 N225 0.984 . S
H229 N225 0.985 . S
H230 N224 0.984 . S
H231 N224 0.984 . S
H232 N220 0.984 . S
H233 N220 0.985 . S
C234 C235 1.363 . S
C234 C240 1.379 . S
C234 N242 1.356 . S
C235 C234 1.363 . S
C235 C241 1.363 . S
C236 C237 1.363 . S
C236 C241 1.379 . S
C236 N243 1.356 . S
C237 C236 1.363 . S
C237 C240 1.363 . S
N238 C240 1.356 . S
N238 H250 0.984 . S
N238 H251 0.985 . S
N239 C241 1.356 . S
N239 H244 0.984 . S
N239 H245 0.985 . S
C240 C234 1.379 . S
C240 C237 1.363 . S
C240 N238 1.356 . S
C241 C235 1.363 . S
C241 C236 1.379 . S
C241 N239 1.356 . S
N242 C234 1.356 . S
N242 H248 0.984 . S
N242 H249 0.984 . S
N243 C236 1.356 . S
N243 H246 0.984 . S
N243 H247 0.985 . S
H244 N239 0.984 . S
H245 N239 0.985 . S
H246 N243 0.984 . S
H247 N243 0.985 . S
H248 N242 0.984 . S
H249 N242 0.984 . S
H250 N238 0.984 . S
H251 N238 0.985 . S
C252 C253 1.363 . S
C252 C258 1.379 . S
C252 N260 1.356 . S
C253 C252 1.363 . S
C253 C259 1.363 . S
C254 C255 1.363 . S
C254 C259 1.379 . S
C254 N261 1.356 . S
C255 C254 1.363 . S
C255 C258 1.363 . S
N256 C258 1.356 . S
N256 H268 0.984 . S
N256 H269 0.985 . S
N257 C259 1.356 . S
N257 H262 0.984 . S
N257 H263 0.985 . S
C258 C252 1.379 . S
C258 C255 1.363 . S
C258 N256 1.356 . S
C259 C253 1.363 . S
C259 C254 1.379 . S
C259 N257 1.356 . S
N260 C252 1.356 . S
N260 H266 0.984 . S
N260 H267 0.984 . S
N261 C254 1.356 . S
N261 H264 0.984 . S
N261 H265 0.985 . S
H262 N257 0.984 . S
H263 N257 0.985 . S
H264 N261 0.984 . S
H265 N261 0.985 . S
H266 N260 0.984 . S
H267 N260 0.984 . S
H268 N256 0.984 . S
H269 N256 0.985 . S
C270 C271 1.363 . S
C270 C276 1.379 . S
C270 N278 1.356 . S
C271 C270 1.363 . S
C271 C277 1.363 . S
C272 C273 1.363 . S
C272 C277 1.379 . S
C272 N279 1.356 . S
C273 C272 1.363 . S
C273 C276 1.363 . S
N274 C276 1.356 . S
N274 H286 0.984 . S
N274 H287 0.985 . S
N275 C277 1.356 . S
N275 H280 0.984 . S
N275 H281 0.985 . S
C276 C270 1.379 . S
C276 C273 1.363 . S
C276 N274 1.356 . S
C277 C271 1.363 . S
C277 C272 1.379 . S
C277 N275 1.356 . S
N278 C270 1.356 . S
N278 H284 0.984 . S
N278 H285 0.984 . S
N279 C272 1.356 . S
N279 H282 0.984 . S
N279 H283 0.985 . S
H280 N275 0.984 . S
H281 N275 0.985 . S
H282 N279 0.984 . S
H283 N279 0.985 . S
H284 N278 0.984 . S
H285 N278 0.984 . S
H286 N274 0.984 . S
H287 N274 0.985 . S
C288 C289 1.363 . S
C288 C294 1.379 . S
C288 N296 1.356 . S
C289 C288 1.363 . S
C289 C295 1.363 . S
C290 C291 1.363 . S
C290 C295 1.379 . S
C290 N297 1.356 . S
C291 C290 1.363 . S
C291 C294 1.363 . S
N292 C294 1.356 . S
N292 H304 0.984 . S
N292 H305 0.985 . S
N293 C295 1.356 . S
N293 H298 0.984 . S
N293 H299 0.985 . S
C294 C288 1.379 . S
C294 C291 1.363 . S
C294 N292 1.356 . S
C295 C289 1.363 . S
C295 C290 1.379 . S
C295 N293 1.356 . S
N296 C288 1.356 . S
N296 H302 0.984 . S
N296 H303 0.984 . S
N297 C290 1.356 . S
N297 H300 0.984 . S
N297 H301 0.985 . S
H298 N293 0.984 . S
H299 N293 0.985 . S
H300 N297 0.984 . S
H301 N297 0.985 . S
H302 N296 0.984 . S
H303 N296 0.984 . S
H304 N292 0.984 . S
H305 N292 0.985 . S
C306 C307 1.363 . S
C306 C312 1.379 . S
C306 N314 1.356 . S
C307 C306 1.363 . S
C307 C313 1.363 . S
C308 C309 1.363 1_655 S
C308 C313 1.379 1_655 S
C308 N315 1.356 . S
C309 C308 1.363 1_455 S
C309 C312 1.363 . S
N310 C312 1.356 . S
N310 H322 0.984 . S
N310 H323 0.985 . S
N311 C313 1.356 1_655 S
N311 H316 0.984 1_655 S
N311 H317 0.985 . S
C312 C306 1.379 . S
C312 C309 1.363 . S
C312 N310 1.356 . S
C313 C307 1.363 . S
C313 C308 1.379 1_455 S
C313 N311 1.356 1_455 S
N314 C306 1.356 . S
N314 H320 0.984 . S
N314 H321 0.984 . S
N315 C308 1.356 . S
N315 H318 0.984 . S
N315 H319 0.985 . S
H316 N311 0.984 1_455 S
H317 N311 0.985 . S
H318 N315 0.984 . S
H319 N315 0.985 . S
H320 N314 0.984 . S
H321 N314 0.984 . S
H322 N310 0.984 . S
H323 N310 0.985 . S
C324 C325 1.363 . S
C324 C330 1.379 . S
C324 N332 1.356 . S
C325 C324 1.363 . S
C325 C331 1.363 1_565 S
C326 C327 1.363 1_545 S
C326 C331 1.379 . S
C326 N333 1.356 . S
C327 C326 1.363 1_565 S
C327 C330 1.363 . S
N328 C330 1.356 . S
N328 H340 0.984 . S
N328 H341 0.985 . S
N329 C331 1.356 . S
N329 H334 0.984 . S
N329 H335 0.985 . S
C330 C324 1.379 . S
C330 C327 1.363 . S
C330 N328 1.356 . S
C331 C325 1.363 1_545 S
C331 C326 1.379 . S
C331 N329 1.356 . S
N332 C324 1.356 . S
N332 H338 0.984 . S
N332 H339 0.984 . S
N333 C326 1.356 . S
N333 H336 0.984 . S
N333 H337 0.985 . S
H334 N329 0.984 . S
H335 N329 0.985 . S
H336 N333 0.984 . S
H337 N333 0.985 . S
H338 N332 0.984 . S
H339 N332 0.984 . S
H340 N328 0.984 . S
H341 N328 0.985 . S
C342 C343 1.363 . S
C342 C348 1.379 . S
C342 N350 1.356 . S
C343 C342 1.363 . S
C343 C349 1.363 . S
C344 C345 1.363 . S
C344 C349 1.379 . S
C344 N351 1.356 . S
C345 C344 1.363 . S
C345 C348 1.363 . S
N346 C348 1.356 . S
N346 H358 0.984 . S
N346 H359 0.985 . S
N347 C349 1.356 . S
N347 H352 0.984 . S
N347 H353 0.985 . S
C348 C342 1.379 . S
C348 C345 1.363 . S
C348 N346 1.356 . S
C349 C343 1.363 . S
C349 C344 1.379 . S
C349 N347 1.356 . S
N350 C342 1.356 . S
N350 H356 0.984 . S
N350 H357 0.984 . S
N351 C344 1.356 . S
N351 H354 0.984 . S
N351 H355 0.985 . S
H352 N347 0.984 . S
H353 N347 0.985 . S
H354 N351 0.984 . S
H355 N351 0.985 . S
H356 N350 0.984 . S
H357 N350 0.984 . S
H358 N346 0.984 . S
H359 N346 0.985 . S
C360 C361 1.363 1_455 S
C360 C366 1.379 . S
C360 N368 1.356 . S
C361 C360 1.363 1_655 S
C361 C367 1.363 . S
C362 C363 1.363 . S
C362 C367 1.379 . S
C362 N369 1.356 . S
C363 C362 1.363 . S
C363 C366 1.363 1_655 S
N364 C366 1.356 . S
N364 H376 0.984 . S
N364 H377 0.985 . S
N365 C367 1.356 . S
N365 H370 0.984 . S
N365 H371 0.985 . S
C366 C360 1.379 . S
C366 C363 1.363 1_455 S
C366 N364 1.356 . S
C367 C361 1.363 . S
C367 C362 1.379 . S
C367 N365 1.356 . S
N368 C360 1.356 . S
N368 H374 0.984 . S
N368 H375 0.984 . S
N369 C362 1.356 . S
N369 H372 0.984 . S
N369 H373 0.985 . S
H370 N365 0.984 . S
H371 N365 0.985 . S
H372 N369 0.984 . S
H373 N369 0.985 . S
H374 N368 0.984 . S
H375 N368 0.984 . S
H376 N364 0.984 . S
H377 N364 0.985 . S
C378 C379 1.363 1_565 S
C378 C384 1.379 . S
C378 N386 1.356 . S
C379 C378 1.363 1_545 S
C379 C385 1.363 . S
C380 C381 1.363 . S
C380 C385 1.379 . S
C380 N387 1.356 . S
C381 C380 1.363 . S
C381 C384 1.363 1_545 S
N382 C384 1.356 . S
N382 H394 0.984 . S
N382 H395 0.985 . S
N383 C385 1.356 . S
N383 H388 0.984 . S
N383 H389 0.985 . S
C384 C378 1.379 . S
C384 C381 1.363 1_565 S
C384 N382 1.356 . S
C385 C379 1.363 . S
C385 C380 1.379 . S
C385 N383 1.356 . S
N386 C378 1.356 . S
N386 H392 0.984 . S
N386 H393 0.984 . S
N387 C380 1.356 . S
N387 H390 0.984 . S
N387 H391 0.985 . S
H388 N383 0.984 . S
H389 N383 0.985 . S
H390 N387 0.984 . S
H391 N387 0.985 . S
H392 N386 0.984 . S
H393 N386 0.984 . S
H394 N382 0.984 . S
H395 N382 0.985 . S
C396 C397 1.363 . S
C396 C402 1.379 . S
C396 N404 1.356 . S
C397 C396 1.363 . S
C397 C403 1.363 . S
C398 C399 1.364 . S
C398 C403 1.379 . S
C398 N405 1.356 1_556 S
C399 C398 1.364 . S
C399 C402 1.373 . S
N400 C402 1.356 . S
N400 H412 0.984 . S
N400 H413 0.985 1_556 S
N401 C403 1.356 1_565 S
N401 H406 0.984 . S
N401 H407 0.985 . S
C402 C396 1.379 . S
C402 C399 1.373 . S
C402 N400 1.356 . S
C403 C397 1.363 . S
C403 C398 1.379 . S
C403 N401 1.356 1_545 S
N404 C396 1.356 . S
N404 H410 0.984 . S
N404 H411 0.984 . S
N405 C398 1.356 1_554 S
N405 H408 0.984 . S
N405 H409 0.985 1_545 S
H406 N401 0.984 . S
H407 N401 0.985 . S
H408 N405 0.984 . S
H409 N405 0.985 1_565 S
H410 N404 0.984 . S
H411 N404 0.984 . S
H412 N400 0.984 . S
H413 N400 0.985 1_554 S
C414 C415 1.363 . S
C414 C420 1.379 1_655 S
C414 N422 1.356 . S
C415 C414 1.363 . S
C415 C421 1.363 . S
C416 C417 1.363 1_655 S
C416 C421 1.379 . S
C416 N423 1.356 1_655 S
C417 C416 1.363 1_455 S
C417 C420 1.363 . S
N418 C420 1.356 . S
N418 H430 0.984 . S
N418 H431 0.985 . S
N419 C421 1.356 . S
N419 H424 0.984 . S
N419 H425 0.985 . S
C420 C414 1.379 1_455 S
C420 C417 1.363 . S
C420 N418 1.356 . S
C421 C415 1.363 . S
C421 C416 1.379 . S
C421 N419 1.356 . S
N422 C414 1.356 . S
N422 H428 0.984 . S
N422 H429 0.984 . S
N423 C416 1.356 1_455 S
N423 H426 0.984 . S
N423 H427 0.985 1_455 S
H424 N419 0.984 . S
H425 N419 0.985 . S
H426 N423 0.984 . S
H427 N423 0.985 1_655 S
H428 N422 0.984 . S
H429 N422 0.984 . S
H430 N418 0.984 . S
H431 N418 0.985 . S
C432 C433 1.363 1_545 S
C432 C438 1.379 . S
C432 N440 1.356 . S
C433 C432 1.363 1_565 S
C433 C439 1.363 . S
C434 C435 1.363 1_565 S
C434 C439 1.379 . S
C434 N441 1.356 . S
C435 C434 1.363 1_545 S
C435 C438 1.363 . S
N436 C438 1.356 . S
N436 H448 0.984 . S
N436 H449 0.985 . S
N437 C439 1.356 . S
N437 H442 0.984 . S
N437 H443 0.985 . S
C438 C432 1.379 . S
C438 C435 1.363 . S
C438 N436 1.356 . S
C439 C433 1.363 . S
C439 C434 1.379 . S
C439 N437 1.356 . S
N440 C432 1.356 . S
N440 H446 0.984 . S
N440 H447 0.984 1_545 S
N441 C434 1.356 . S
N441 H444 0.984 1_565 S
N441 H445 0.985 . S
H442 N437 0.984 . S
H443 N437 0.985 . S
H444 N441 0.984 1_545 S
H445 N441 0.985 . S
H446 N440 0.984 . S
H447 N440 0.984 1_565 S
H448 N436 0.984 . S
H449 N436 0.985 . S
C450 C451 1.363 . S
C450 C456 1.379 . S
C450 N458 1.356 . S
C451 C450 1.363 . S
C451 C457 1.363 . S
C452 C453 1.380 . S
C452 C457 1.379 . S
C452 N459 1.356 . S
C453 C452 1.380 . S
C453 C456 1.368 . S
N454 C456 1.356 1_554 S
N454 H466 0.984 . S
N454 H467 0.985 . S
N455 C457 1.356 . S
N455 H460 0.984 . S
N455 H461 0.985 . S
C456 C450 1.379 . S
C456 C453 1.368 . S
C456 N454 1.356 1_556 S
C457 C451 1.363 . S
C457 C452 1.379 . S
C457 N455 1.356 . S
N458 C450 1.356 . S
N458 H464 0.984 . S
N458 H465 0.984 . S
N459 C452 1.356 . S
N459 H462 0.984 1_556 S
N459 H463 0.985 . S
H460 N455 0.984 . S
H461 N455 0.985 . S
H462 N459 0.984 1_554 S
H463 N459 0.985 . S
H464 N458 0.984 . S
H465 N458 0.984 . S
H466 N454 0.984 . S
H467 N454 0.985 . S
C468 C469 1.363 . S
C468 C474 1.379 1_455 S
C468 N476 1.356 . S
C469 C468 1.363 . S
C469 C475 1.363 . S
C470 C471 1.363 . S
C470 C475 1.379 1_655 S
C470 N477 1.356 . S
C471 C470 1.363 . S
C471 C474 1.363 . S
N472 C474 1.356 . S
N472 H484 0.984 . S
N472 H485 0.985 . S
N473 C475 1.356 1_545 S
N473 H478 0.984 . S
N473 H479 0.985 . S
C474 C468 1.379 1_655 S
C474 C471 1.363 . S
C474 N472 1.356 . S
C475 C469 1.363 . S
C475 C470 1.379 1_455 S
C475 N473 1.356 1_565 S
N476 C468 1.356 . S
N476 H482 0.984 . S
N476 H483 0.984 . S
N477 C470 1.356 . S
N477 H480 0.984 . S
N477 H481 0.985 1_565 S
H478 N473 0.984 . S
H479 N473 0.985 . S
H480 N477 0.984 . S
H481 N477 0.985 1_545 S
H482 N476 0.984 . S
H483 N476 0.984 . S
H484 N472 0.984 . S
H485 N472 0.985 . S
C486 C487 1.363 . S
C486 C492 1.379 . S
C486 N494 1.356 . S
C487 C486 1.363 . S
C487 C493 1.363 1_545 S
C488 C489 1.363 . S
C488 C493 1.379 . S
C488 N495 1.356 . S
C489 C488 1.363 . S
C489 C492 1.363 1_565 S
N490 C492 1.356 . S
N490 H502 0.984 . S
N490 H503 0.985 1_545 S
N491 C493 1.356 . S
N491 H496 0.984 . S
N491 H497 0.985 . S
C492 C486 1.379 . S
C492 C489 1.363 1_545 S
C492 N490 1.356 . S
C493 C487 1.363 1_565 S
C493 C488 1.379 . S
C493 N491 1.356 . S
N494 C486 1.356 . S
N494 H500 0.984 . S
N494 H501 0.984 . S
N495 C488 1.356 . S
N495 H498 0.984 . S
N495 H499 0.985 . S
H496 N491 0.984 . S
H497 N491 0.985 . S
H498 N495 0.984 . S
H499 N495 0.985 . S
H500 N494 0.984 . S
H501 N494 0.984 . S
H502 N490 0.984 . S
H503 N490 0.985 1_565 S
C181 C147 1.012 . S
C183 N6 0.998 . S
C199 N156 0.998 . S
C201 C57 1.012 . S
C217 C27 1.012 . S
C219 N66 0.997 . S
C235 N36 0.997 . S
C237 C117 1.012 . S
C253 C87 1.012 . S
C255 N126 0.998 . S
C271 N96 0.997 . S
C273 C177 1.012 . S
C289 C1 1.750 . S
C291 C100 1.786 . S
C307 C121 1.750 . S
C309 C40 1.786 1_455 S
C325 C160 1.786 1_565 S
C327 C61 1.750 . S
C343 C70 1.786 . S
C345 C151 1.750 . S
C361 C10 1.786 1_655 S
C363 C91 1.750 . S
C379 C130 1.785 1_545 S
C381 C31 1.750 . S
C397 N164 1.031 . S
C399 N14 1.022 1_556 S
C415 C46 0.998 . S
C417 C16 0.998 . S
C433 N74 1.031 . S
C435 N44 1.031 . S
C451 C76 0.997 . S
C453 C106 0.979 1_556 S
C469 N134 1.031 . S
C471 N104 1.031 . S
C487 C166 0.998 . S
C489 C136 0.998 . S
