# Generated by pormake.
# Topology uku, (4)-cn, num edge types: 1
# Building blocks:
#     Node 0, Type 0, BuildingBlock: ESEHIV_clean_sbu_0, # of connection points: 4
#     Node 1, Type 0, BuildingBlock: ESEHIV_clean_sbu_0, # of connection points: 4
#     Node 2, Type 0, BuildingBlock: ESEHIV_clean_sbu_0, # of connection points: 4
#     Node 3, Type 0, BuildingBlock: ESEHIV_clean_sbu_0, # of connection points: 4
#     Node 4, Type 0, BuildingBlock: ESEHIV_clean_sbu_0, # of connection points: 4
#     Node 5, Type 0, BuildingBlock: ESEHIV_clean_sbu_0, # of connection points: 4
#     Node 6, Type 0, BuildingBlock: ESEHIV_clean_sbu_0, # of connection points: 4
#     Node 7, Type 0, BuildingBlock: ESEHIV_clean_sbu_0, # of connection points: 4
#     Node 8, Type 0, BuildingBlock: ESEHIV_clean_sbu_0, # of connection points: 4
#     Node 9, Type 0, BuildingBlock: ESEHIV_clean_sbu_0, # of connection points: 4
#     Node 10, Type 0, BuildingBlock: ESEHIV_clean_sbu_0, # of connection points: 4
#     Node 11, Type 0, BuildingBlock: ESEHIV_clean_sbu_0, # of connection points: 4
#     Edge 12, Type (0, 0), BuildingBlock: EZIPEK_clean_linker_0, # of connection points: 2
#     Edge 13, Type (0, 0), BuildingBlock: EZIPEK_clean_linker_0, # of connection points: 2
#     Edge 14, Type (0, 0), BuildingBlock: EZIPEK_clean_linker_0, # of connection points: 2
#     Edge 15, Type (0, 0), BuildingBlock: EZIPEK_clean_linker_0, # of connection points: 2
#     Edge 16, Type (0, 0), BuildingBlock: EZIPEK_clean_linker_0, # of connection points: 2
#     Edge 17, Type (0, 0), BuildingBlock: EZIPEK_clean_linker_0, # of connection points: 2
#     Edge 18, Type (0, 0), BuildingBlock: EZIPEK_clean_linker_0, # of connection points: 2
#     Edge 19, Type (0, 0), BuildingBlock: EZIPEK_clean_linker_0, # of connection points: 2
#     Edge 20, Type (0, 0), BuildingBlock: EZIPEK_clean_linker_0, # of connection points: 2
#     Edge 21, Type (0, 0), BuildingBlock: EZIPEK_clean_linker_0, # of connection points: 2
#     Edge 22, Type (0, 0), BuildingBlock: EZIPEK_clean_linker_0, # of connection points: 2
#     Edge 23, Type (0, 0), BuildingBlock: EZIPEK_clean_linker_0, # of connection points: 2
#     Edge 24, Type (0, 0), BuildingBlock: EZIPEK_clean_linker_0, # of connection points: 2
#     Edge 25, Type (0, 0), BuildingBlock: EZIPEK_clean_linker_0, # of connection points: 2
#     Edge 26, Type (0, 0), BuildingBlock: EZIPEK_clean_linker_0, # of connection points: 2
#     Edge 27, Type (0, 0), BuildingBlock: EZIPEK_clean_linker_0, # of connection points: 2
#     Edge 28, Type (0, 0), BuildingBlock: EZIPEK_clean_linker_0, # of connection points: 2
#     Edge 29, Type (0, 0), BuildingBlock: EZIPEK_clean_linker_0, # of connection points: 2
#     Edge 30, Type (0, 0), BuildingBlock: EZIPEK_clean_linker_0, # of connection points: 2
#     Edge 31, Type (0, 0), BuildingBlock: EZIPEK_clean_linker_0, # of connection points: 2
#     Edge 32, Type (0, 0), BuildingBlock: EZIPEK_clean_linker_0, # of connection points: 2
#     Edge 33, Type (0, 0), BuildingBlock: EZIPEK_clean_linker_0, # of connection points: 2
#     Edge 34, Type (0, 0), BuildingBlock: EZIPEK_clean_linker_0, # of connection points: 2
#     Edge 35, Type (0, 0), BuildingBlock: EZIPEK_clean_linker_0, # of connection points: 2
# Relax obj value: 0.125
# Max RMSD: 0.262
# Mean RMSD: 0.262
data_MOF--net-uku--node1-ESEHIV_clean_sbu_0--edge1-EZIPEK_clean_linker_0
_symmetry_space_group_name_H-M    P1
_symmetry_Int_Tables_number       1
_symmetry_cell_setting            triclinic
loop_
_symmetry_equiv_pos_as_xyz
'x, y, z'
_cell_length_a     36.080707
_cell_length_b     36.037975
_cell_length_c     36.064987
_cell_angle_alpha  89.807999
_cell_angle_beta   90.17123
_cell_angle_gamma 89.993521
loop_
_atom_site_label
_atom_site_type_symbol
_atom_site_fract_x
_atom_site_fract_y
_atom_site_fract_z
_atom_type_partial_charge
Cu0 Cu 0.10264 0.13039 0.66797 0.0
N1 N 0.15197 0.11582 0.67191 0.0
N2 N 0.20466 0.09829 0.69914 0.0
C3 C 0.1684 0.10554 0.70388 0.0
C4 C 0.21156 0.1043 0.6629 0.0
C5 C 0.17878 0.11506 0.64602 0.0
O6 O 0.09601 0.1681 0.70588 0.0
C7 C 0.03882 0.08616 0.68357 0.0
O8 O 0.02078 0.11755 0.6876 0.0
H9 H 0.15433 0.10453 0.73034 0.0
H10 H 0.17494 0.12268 0.61723 0.0
N11 N 0.09171 0.14957 0.62082 0.0
N12 N 0.06141 0.15967 0.56754 0.0
C13 C 0.06714 0.13595 0.59609 0.0
C14 C 0.10244 0.18259 0.60699 0.0
C15 C 0.08365 0.18898 0.5742 0.0
C16 C 0.07541 0.19663 0.70302 0.0
O17 O 0.05323 0.20045 0.67433 0.0
H18 H 0.05249 0.11003 0.59971 0.0
H19 H 0.12119 0.20151 0.62074 0.0
O20 O 0.07323 0.0864 0.67643 0.0
H21 H 0.23849 0.10206 0.64993 0.0
H22 H 0.08519 0.21373 0.55718 0.0
Cu23 Cu 0.91493 0.88791 0.67146 0.0
N24 N 0.86507 0.89922 0.67676 0.0
N25 N 0.81271 0.91145 0.7067 0.0
C26 C 0.84749 0.89841 0.70953 0.0
C27 C 0.80787 0.92085 0.6708 0.0
C28 C 0.84052 0.91323 0.65223 0.0
O29 O 0.92376 0.84918 0.70816 0.0
C30 C 0.97553 0.93889 0.67847 0.0
O31 O 0.99725 0.9113 0.66892 0.0
H32 H 0.86035 0.88964 0.73527 0.0
H33 H 0.84634 0.91861 0.62331 0.0
N34 N 0.92483 0.87158 0.62317 0.0
N35 N 0.95249 0.8638 0.56836 0.0
C36 C 0.94939 0.88551 0.59863 0.0
C37 C 0.91126 0.84065 0.60728 0.0
C38 C 0.92848 0.83563 0.57359 0.0
C39 C 0.93934 0.81803 0.70255 0.0
O40 O 0.95641 0.81168 0.67112 0.0
H41 H 0.9658 0.91015 0.6033 0.0
H42 H 0.8914 0.82219 0.6201 0.0
O43 O 0.941 0.93351 0.68242 0.0
H44 H 0.783 0.93314 0.65924 0.0
H45 H 0.92452 0.81257 0.55482 0.0
Cu46 Cu 0.08942 0.88332 0.34238 0.0
N47 N 0.13803 0.89865 0.33436 0.0
N48 N 0.1892 0.9137 0.30333 0.0
C49 C 0.15349 0.90329 0.30075 0.0
C50 C 0.19669 0.91603 0.33989 0.0
C51 C 0.16486 0.90674 0.35909 0.0
O52 O 0.08258 0.83815 0.31414 0.0
C53 C 0.02335 0.92627 0.33127 0.0
O54 O 0.0052 0.89802 0.34545 0.0
H55 H 0.13912 0.89837 0.27485 0.0
H56 H 0.16164 0.90543 0.38887 0.0
N57 N 0.08153 0.87136 0.39226 0.0
N58 N 0.05413 0.86492 0.44742 0.0
C59 C 0.05706 0.88595 0.41644 0.0
C60 C 0.09489 0.84065 0.4089 0.0
C61 C 0.07803 0.83658 0.44287 0.0
C62 C 0.07617 0.83722 0.27951 0.0
O63 O 0.07046 0.86821 0.26112 0.0
H64 H 0.04011 0.91005 0.4107 0.0
H65 H 0.11401 0.82143 0.3962 0.0
O66 O 0.05812 0.92401 0.3264 0.0
H67 H 0.22338 0.92309 0.3517 0.0
H68 H 0.08176 0.81374 0.46211 0.0
Cu69 Cu 0.9136 0.12865 0.3495 0.0
N70 N 0.86448 0.11297 0.3454 0.0
N71 N 0.81185 0.09493 0.31848 0.0
C72 C 0.84751 0.10445 0.31324 0.0
C73 C 0.80589 0.09746 0.35526 0.0
C74 C 0.83863 0.10857 0.37192 0.0
O75 O 0.92159 0.16645 0.31144 0.0
C76 C 0.94754 0.06692 0.3133 0.0
O77 O 0.93198 0.07914 0.28263 0.0
H78 H 0.86076 0.106 0.2864 0.0
H79 H 0.84314 0.11362 0.40113 0.0
N80 N 0.9245 0.14784 0.39656 0.0
N81 N 0.95509 0.15816 0.4496 0.0
C82 C 0.9521 0.13645 0.41927 0.0
C83 C 0.90936 0.17749 0.41338 0.0
C84 C 0.92824 0.18397 0.44606 0.0
C85 C 0.8979 0.1926 0.3089 0.0
O86 O 0.86993 0.19334 0.3321 0.0
H87 H 0.97041 0.11348 0.41317 0.0
H88 H 0.88674 0.1938 0.40235 0.0
O89 O 0.9443 0.08521 0.34317 0.0
H90 H 0.77969 0.09226 0.36885 0.0
H91 H 0.92312 0.20622 0.46547 0.0
Cu92 Cu 0.6798 0.08507 0.12808 0.0
N93 N 0.68649 0.13044 0.1041 0.0
N94 N 0.71648 0.18051 0.08375 0.0
C95 C 0.71643 0.15229 0.10828 0.0
C96 C 0.68538 0.17663 0.06334 0.0
C97 C 0.66687 0.14545 0.07596 0.0
O98 O 0.71401 0.08459 0.16985 0.0
C99 C 0.71674 0.04803 0.0699 0.0
O100 O 0.74134 0.07475 0.07269 0.0
H101 H 0.73858 0.14678 0.12786 0.0
H102 H 0.64175 0.1337 0.06452 0.0
N103 N 0.63094 0.07897 0.14411 0.0
N104 N 0.57532 0.05299 0.15241 0.0
C105 C 0.60668 0.05318 0.13206 0.0
C106 C 0.61415 0.09593 0.17271 0.0
C107 C 0.57982 0.07988 0.17794 0.0
C108 C 0.71101 0.0645 0.19873 0.0
O109 O 0.68411 0.04009 0.20124 0.0
H110 H 0.61247 0.03385 0.1099 0.0
H111 H 0.62654 0.11753 0.18936 0.0
O112 O 0.68991 0.04636 0.09259 0.0
H113 H 0.67732 0.19439 0.04044 0.0
H114 H 0.56006 0.08668 0.1994 0.0
Cu115 Cu 0.34815 0.9151 0.13396 0.0
N116 N 0.34189 0.86404 0.12775 0.0
N117 N 0.31104 0.8112 0.11818 0.0
C118 C 0.31285 0.84782 0.11065 0.0
C119 C 0.34031 0.80387 0.14033 0.0
C120 C 0.35942 0.83654 0.14609 0.0
O121 O 0.31588 0.92955 0.17448 0.0
C122 C 0.34026 0.97288 0.08018 0.0
O123 O 0.35214 0.99531 0.10626 0.0
H124 H 0.29152 0.86305 0.09593 0.0
H125 H 0.38256 0.84049 0.16478 0.0
N126 N 0.39666 0.92627 0.14899 0.0
N127 N 0.45136 0.9547 0.15582 0.0
C128 C 0.42244 0.94813 0.13279 0.0
C129 C 0.41012 0.91854 0.183 0.0
C130 C 0.44379 0.93597 0.18728 0.0
C131 C 0.28126 0.92305 0.17436 0.0
O132 O 0.2652 0.91079 0.1441 0.0
H133 H 0.41932 0.96059 0.10564 0.0
H134 H 0.39546 0.9028 0.20392 0.0
O135 O 0.3356 0.93865 0.08724 0.0
H136 H 0.34568 0.77747 0.1537 0.0
H137 H 0.46081 0.93613 0.21206 0.0
Cu138 Cu 0.66504 0.91453 0.88746 0.0
N139 N 0.67214 0.86695 0.90699 0.0
N140 N 0.70052 0.81476 0.92441 0.0
C141 C 0.70369 0.84699 0.90571 0.0
C142 C 0.66575 0.81405 0.93788 0.0
C143 C 0.64824 0.84647 0.9271 0.0
O144 O 0.69272 0.91823 0.84149 0.0
C145 C 0.70603 0.94569 0.94731 0.0
O146 O 0.72677 0.91588 0.94482 0.0
H147 H 0.72878 0.85623 0.89216 0.0
H148 H 0.62029 0.85483 0.93391 0.0
N149 N 0.61529 0.92229 0.87519 0.0
N150 N 0.56102 0.951 0.86645 0.0
C151 C 0.59295 0.95019 0.88617 0.0
C152 C 0.5967 0.90475 0.84802 0.0
C153 C 0.56324 0.9224 0.84254 0.0
C154 C 0.72725 0.92474 0.83937 0.0
O155 O 0.74638 0.93188 0.86951 0.0
H156 H 0.60073 0.97069 0.90664 0.0
H157 H 0.60761 0.88189 0.83204 0.0
O158 O 0.67966 0.95096 0.92435 0.0
H159 H 0.65415 0.79195 0.9546 0.0
H160 H 0.54264 0.91566 0.82174 0.0
Cu161 Cu 0.34115 0.09567 0.88509 0.0
N162 N 0.33571 0.14568 0.89623 0.0
N163 N 0.30553 0.19914 0.90329 0.0
C164 C 0.30261 0.16195 0.90152 0.0
C165 C 0.34189 0.20673 0.89918 0.0
C166 C 0.36057 0.1735 0.89483 0.0
O167 O 0.30319 0.08675 0.8477 0.0
C168 C 0.3271 0.03342 0.932 0.0
O169 O 0.32217 0.01456 0.90127 0.0
H170 H 0.27656 0.14703 0.90152 0.0
H171 H 0.38975 0.17002 0.88899 0.0
N172 N 0.38856 0.08542 0.86678 0.0
N173 N 0.44256 0.05615 0.8588 0.0
C174 C 0.41358 0.06187 0.8817 0.0
C175 C 0.40272 0.09567 0.83381 0.0
C176 C 0.43593 0.07744 0.82869 0.0
C177 C 0.30697 0.06823 0.81798 0.0
O178 O 0.33688 0.0482 0.81272 0.0
H179 H 0.40988 0.04789 0.90799 0.0
H180 H 0.38895 0.11367 0.81407 0.0
O181 O 0.33382 0.06798 0.93052 0.0
H182 H 0.35367 0.2343 0.89742 0.0
H183 H 0.45328 0.07867 0.80428 0.0
Cu184 Cu 0.12489 0.6704 0.09258 0.0
N185 N 0.11112 0.67559 0.14191 0.0
N186 N 0.09465 0.70528 0.1933 0.0
C187 C 0.10385 0.70864 0.15738 0.0
C188 C 0.09559 0.66863 0.20093 0.0
C189 C 0.1058 0.65022 0.16889 0.0
O190 O 0.16439 0.70651 0.08392 0.0
C191 C 0.07662 0.68355 0.03019 0.0
O192 O 0.10575 0.67972 0.00878 0.0
H193 H 0.10589 0.73482 0.14271 0.0
H194 H 0.10944 0.62062 0.1656 0.0
N195 N 0.14094 0.62201 0.08208 0.0
N196 N 0.1496 0.56794 0.05305 0.0
C197 C 0.13061 0.60024 0.05344 0.0
C198 C 0.16696 0.60246 0.10054 0.0
C199 C 0.17247 0.5692 0.08262 0.0
C200 C 0.19178 0.70675 0.10636 0.0
O201 O 0.19316 0.68203 0.13314 0.0
H202 H 0.11029 0.60808 0.03277 0.0
H203 H 0.18123 0.6118 0.12518 0.0
O204 O 0.0801 0.68152 0.06516 0.0
H205 H 0.0902 0.65633 0.22779 0.0
H206 H 0.19187 0.54762 0.0905 0.0
Cu207 Cu 0.1235 0.34699 0.91009 0.0
N208 N 0.11054 0.34309 0.86018 0.0
N209 N 0.09652 0.31577 0.80661 0.0
C210 C 0.10167 0.31103 0.84329 0.0
C211 C 0.1022 0.35216 0.79995 0.0
C212 C 0.11082 0.36907 0.83325 0.0
O213 O 0.16041 0.30873 0.92015 0.0
C214 C 0.07734 0.3344 0.97296 0.0
O215 O 0.10832 0.33185 0.99203 0.0
H216 H 0.10048 0.28448 0.85736 0.0
H217 H 0.11799 0.39791 0.83737 0.0
N218 N 0.14374 0.39347 0.92165 0.0
N219 N 0.15316 0.44721 0.95106 0.0
C220 C 0.12845 0.42028 0.94273 0.0
C221 C 0.17907 0.40422 0.9162 0.0
C222 C 0.18494 0.43732 0.93429 0.0
C223 C 0.18666 0.30479 0.89691 0.0
O224 O 0.18773 0.32619 0.86738 0.0
H225 H 0.10046 0.41918 0.95333 0.0
H226 H 0.19977 0.38821 0.90176 0.0
O227 O 0.07839 0.33979 0.93817 0.0
H228 H 0.10142 0.36517 0.77286 0.0
H229 H 0.21092 0.45221 0.93637 0.0
Cu230 Cu 0.8805 0.67056 0.90921 0.0
N231 N 0.89183 0.67382 0.85902 0.0
N232 N 0.90742 0.70025 0.80538 0.0
C233 C 0.90342 0.70506 0.84213 0.0
C234 C 0.89795 0.66472 0.79864 0.0
C235 C 0.8884 0.64833 0.83201 0.0
O236 O 0.84368 0.70911 0.91801 0.0
C237 C 0.92988 0.69463 0.96646 0.0
O238 O 0.90077 0.70871 0.98302 0.0
H239 H 0.90765 0.73117 0.8563 0.0
H240 H 0.87871 0.62022 0.83614 0.0
N241 N 0.86218 0.62361 0.92196 0.0
N242 N 0.85369 0.57051 0.95305 0.0
C243 C 0.87572 0.60044 0.94818 0.0
C244 C 0.83093 0.60747 0.90949 0.0
C245 C 0.82553 0.57478 0.92873 0.0
C246 C 0.81659 0.70673 0.94038 0.0
O247 O 0.81305 0.67744 0.9618 0.0
H248 H 0.90056 0.60588 0.96416 0.0
H249 H 0.81291 0.61911 0.88847 0.0
O250 O 0.92647 0.67826 0.93558 0.0
H251 H 0.89701 0.652 0.7715 0.0
H252 H 0.80249 0.5558 0.92556 0.0
Cu253 Cu 0.8785 0.34703 0.09564 0.0
N254 N 0.88621 0.33942 0.14644 0.0
N255 N 0.89457 0.30969 0.20025 0.0
C256 C 0.89036 0.30623 0.16329 0.0
C257 C 0.89308 0.34638 0.20716 0.0
C258 C 0.88803 0.36473 0.17378 0.0
O259 O 0.83782 0.31495 0.08085 0.0
C260 C 0.93025 0.33926 0.03651 0.0
O261 O 0.90264 0.34852 0.01453 0.0
H262 H 0.88952 0.27992 0.149 0.0
H263 H 0.88529 0.39437 0.16978 0.0
N264 N 0.86392 0.39612 0.08592 0.0
N265 N 0.85588 0.45074 0.05726 0.0
C266 C 0.8779 0.42061 0.06116 0.0
C267 C 0.83244 0.41171 0.09835 0.0
C268 C 0.82739 0.44535 0.08073 0.0
C269 C 0.84061 0.27989 0.07828 0.0
O270 O 0.87336 0.26417 0.08082 0.0
H271 H 0.90246 0.41572 0.0448 0.0
H272 H 0.8135 0.39857 0.11753 0.0
O273 O 0.9248 0.33566 0.07111 0.0
H274 H 0.89471 0.35882 0.2344 0.0
H275 H 0.80389 0.46376 0.08374 0.0
C276 C 0.97046 0.15016 0.51607 0.0
C277 C 0.98228 0.1558 0.47905 0.0
C278 C 0.04688 0.15718 0.50048 0.0
C279 C 0.03466 0.15651 0.53778 0.0
N280 N 0.98407 0.15939 0.58118 0.0
N281 N 0.03134 0.17114 0.43653 0.0
C282 C 0.99619 0.15468 0.54568 0.0
C283 C 0.02047 0.16087 0.47131 0.0
N284 N 0.93476 0.13965 0.52278 0.0
N285 N 0.08375 0.15344 0.49302 0.0
H286 H 0.01262 0.17556 0.41491 0.0
H287 H 0.05843 0.17875 0.4301 0.0
H288 H 0.10352 0.14979 0.51388 0.0
H289 H 0.09415 0.15029 0.4663 0.0
H290 H 0.92532 0.13172 0.54891 0.0
H291 H 0.91562 0.13529 0.50149 0.0
H292 H 0.95616 0.16177 0.58807 0.0
H293 H 1.00195 0.16465 0.60329 0.0
C294 C 0.98944 0.86646 0.47098 0.0
C295 C 0.02817 0.86874 0.47759 0.0
C296 C 0.01699 0.86681 0.54458 0.0
C297 C 0.97822 0.8677 0.53798 0.0
N298 N 0.92777 0.87705 0.4953 0.0
N299 N 0.07829 0.87947 0.52021 0.0
C300 C 0.96454 0.87029 0.50121 0.0
C301 C 0.04174 0.87163 0.51434 0.0
N302 N 0.97647 0.85834 0.43636 0.0
N303 N 0.03023 0.8591 0.57927 0.0
H304 H 0.09677 0.88388 0.49843 0.0
H305 H 0.08928 0.88522 0.54632 0.0
H306 H 0.01299 0.85339 0.6017 0.0
H307 H 0.05821 0.85463 0.58493 0.0
H308 H 0.94867 0.85285 0.43076 0.0
H309 H 0.99387 0.85332 0.41393 0.0
H310 H 0.91666 0.88257 0.46916 0.0
H311 H 0.90914 0.88085 0.51703 0.0
C312 C 0.51894 0.96461 0.15247 0.0
C313 C 0.48256 0.97923 0.15036 0.0
C314 C 0.50843 0.0417 0.1423 0.0
C315 C 0.54439 0.02766 0.14966 0.0
N316 N 0.58324 0.97634 0.16795 0.0
N317 N 0.44231 0.03262 0.14936 0.0
C318 C 0.54959 0.98916 0.15614 0.0
C319 C 0.47712 0.01807 0.1466 0.0
N320 N 0.52406 0.92715 0.1505 0.0
N321 N 0.50438 0.07752 0.13056 0.0
H322 H 0.4189 0.01636 0.15401 0.0
H323 H 0.43708 0.06101 0.15054 0.0
H324 H 0.52699 0.09511 0.12651 0.0
H325 H 0.47923 0.08849 0.12146 0.0
H326 H 0.55008 0.91481 0.14851 0.0
H327 H 0.502 0.90871 0.14713 0.0
H328 H 0.58771 0.94908 0.17656 0.0
H329 H 0.60583 0.99373 0.17262 0.0
C330 C 0.53904 0.01618 0.85996 0.0
C331 C 0.53165 0.97826 0.86774 0.0
C332 C 0.46501 0.9915 0.86747 0.0
C333 C 0.47256 0.02993 0.86342 0.0
N334 N 0.51702 0.07961 0.86398 0.0
N335 N 0.48828 0.93156 0.88733 0.0
C336 C 0.50974 0.0425 0.86222 0.0
C337 C 0.49476 0.9665 0.87417 0.0
N338 N 0.5734 0.02678 0.84827 0.0
N339 N 0.42978 0.97854 0.86264 0.0
H340 H 0.5097 0.91306 0.89345 0.0
H341 H 0.46218 0.92251 0.89573 0.0
H342 H 0.40766 0.99571 0.85538 0.0
H343 H 0.4233 0.95038 0.86199 0.0
H344 H 0.57932 0.05349 0.83885 0.0
H345 H 0.59501 0.00805 0.8443 0.0
H346 H 0.54372 0.09032 0.86658 0.0
H347 H 0.49609 0.09939 0.86663 0.0
C348 C 0.14241 0.47142 0.01447 0.0
C349 C 0.14867 0.47797 0.97622 0.0
C350 C 0.15631 0.54441 0.9887 0.0
C351 C 0.14699 0.53819 0.02641 0.0
N352 N 0.1226 0.49725 0.07311 0.0
N353 N 0.1542 0.52111 0.92565 0.0
C354 C 0.13733 0.50207 0.03862 0.0
C355 C 0.15326 0.51471 0.96295 0.0
N356 N 0.14362 0.43608 0.02815 0.0
N357 N 0.17008 0.57802 0.97792 0.0
H358 H 0.1515 0.49979 0.90632 0.0
H359 H 0.15411 0.54762 0.91404 0.0
H360 H 0.17415 0.59988 0.99632 0.0
H361 H 0.18073 0.58307 0.95157 0.0
H362 H 0.14271 0.42997 0.05639 0.0
H363 H 0.1492 0.41312 0.01159 0.0
H364 H 0.11189 0.47203 0.08235 0.0
H365 H 0.11762 0.51944 0.09093 0.0
C366 C 0.85727 0.54774 0.01816 0.0
C367 C 0.85803 0.54056 0.9795 0.0
C368 C 0.85718 0.47362 0.99215 0.0
C369 C 0.85919 0.48077 0.03077 0.0
N370 N 0.86923 0.52416 0.08018 0.0
N371 N 0.8676 0.49718 0.92999 0.0
C372 C 0.86181 0.51779 0.04363 0.0
C373 C 0.86078 0.50357 0.96662 0.0
N374 N 0.85013 0.58276 0.03056 0.0
N375 N 0.84965 0.43862 0.97986 0.0
H376 H 0.87135 0.51869 0.91093 0.0
H377 H 0.87327 0.47093 0.9194 0.0
H378 H 0.84512 0.41631 0.99772 0.0
H379 H 0.84427 0.4325 0.95215 0.0
H380 H 0.8457 0.589 0.05838 0.0
H381 H 0.84511 0.60504 0.01275 0.0
H382 H 0.87487 0.55042 0.09078 0.0
H383 H 0.87329 0.50262 0.09918 0.0
C384 C 0.25086 0.11985 0.74461 0.0
C385 C 0.23117 0.09035 0.72798 0.0
C386 C 0.25972 0.04606 0.77135 0.0
C387 C 0.28118 0.07537 0.78657 0.0
N388 N 0.3029 0.13873 0.78255 0.0
N389 N 0.21913 0.0253 0.72152 0.0
C390 C 0.27828 0.11194 0.77184 0.0
C391 C 0.23635 0.05335 0.7402 0.0
N392 N 0.24256 0.15557 0.73486 0.0
N393 N 0.26065 0.01173 0.78757 0.0
H394 H 0.20139 0.03028 0.69912 0.0
H395 H 0.22421 0.99728 0.72639 0.0
H396 H 0.27743 0.00554 0.81037 0.0
H397 H 0.24304 0.99009 0.78022 0.0
H398 H 0.25275 0.17865 0.7489 0.0
H399 H 0.22313 0.16212 0.71439 0.0
H400 H 0.30467 0.16468 0.7699 0.0
H401 H 0.32395 0.1341 0.80187 0.0
C402 C 0.74726 0.88802 0.78369 0.0
C403 C 0.74632 0.92234 0.8031 0.0
C404 C 0.78763 0.95024 0.75686 0.0
C405 C 0.78753 0.91643 0.73705 0.0
N406 N 0.76363 0.85527 0.72719 0.0
N407 N 0.75947 0.98792 0.80478 0.0
C408 C 0.76598 0.88603 0.7491 0.0
C409 C 0.76476 0.95404 0.78868 0.0
N410 N 0.7321 0.85688 0.79925 0.0
N411 N 0.81068 0.9782 0.7458 0.0
H412 H 0.74256 0.99175 0.82787 0.0
H413 H 0.76921 0.0127 0.79355 0.0
H414 H 0.82692 0.9764 0.72199 0.0
H415 H 0.81547 1.00208 0.76124 0.0
H416 H 0.73551 0.83031 0.78857 0.0
H417 H 0.71823 0.85695 0.82452 0.0
H418 H 0.74559 0.83329 0.7322 0.0
H419 H 0.77785 0.85311 0.70214 0.0
C420 C 0.2325 0.9504 0.21576 0.0
C421 C 0.26024 0.92318 0.20962 0.0
C422 C 0.2409 0.88981 0.26573 0.0
C423 C 0.21457 0.91793 0.27287 0.0
N424 N 0.18846 0.97753 0.25886 0.0
N425 N 0.29559 0.87065 0.23215 0.0
C426 C 0.21133 0.94904 0.24903 0.0
C427 C 0.26608 0.89415 0.23581 0.0
N428 N 0.22616 0.97719 0.18957 0.0
N429 N 0.24031 0.85791 0.2863 0.0
H430 H 0.31394 0.8717 0.20993 0.0
H431 H 0.30351 0.85171 0.25255 0.0
H432 H 0.22181 0.8537 0.30807 0.0
H433 H 0.25576 0.83442 0.27982 0.0
H434 H 0.20379 0.99541 0.19032 0.0
H435 H 0.24239 0.98005 0.16583 0.0
H436 H 0.18701 1.0027 0.24468 0.0
H437 H 0.17286 0.97698 0.28317 0.0
C438 C 0.76096 0.04358 0.24313 0.0
C439 C 0.73584 0.07146 0.23091 0.0
C440 C 0.76162 0.11497 0.27649 0.0
C441 C 0.78519 0.08659 0.28993 0.0
N442 N 0.80504 0.02313 0.29018 0.0
N443 N 0.70753 0.13145 0.24002 0.0
C444 C 0.7841 0.05059 0.27444 0.0
C445 C 0.73489 0.10661 0.2487 0.0
N446 N 0.76379 0.01112 0.22381 0.0
N447 N 0.76569 0.15023 0.28967 0.0
H448 H 0.68715 0.12623 0.22017 0.0
H449 H 0.703 0.1559 0.25461 0.0
H450 H 0.78455 0.15691 0.31059 0.0
H451 H 0.75255 0.17327 0.27812 0.0
H452 H 0.78408 0.9912 0.22886 0.0
H453 H 0.74735 1.00511 0.20077 0.0
H454 H 0.80324 0.9953 0.28279 0.0
H455 H 0.82256 0.02796 0.31274 0.0
C456 C 0.74734 0.23741 0.10488 0.0
C457 C 0.74532 0.20774 0.07953 0.0
C458 C 0.80221 0.22933 0.04931 0.0
C459 C 0.80667 0.25646 0.07747 0.0
N460 N 0.78601 0.28267 0.13563 0.0
N461 N 0.77191 0.17233 0.03004 0.0
C462 C 0.77971 0.25985 0.10606 0.0
C463 C 0.77298 0.20293 0.05223 0.0
N464 N 0.71801 0.24403 0.12777 0.0
N465 N 0.82522 0.22953 0.01927 0.0
H466 H 0.75054 0.15287 0.03138 0.0
H467 H 0.79331 0.16484 0.01227 0.0
H468 H 0.84645 0.24889 0.01593 0.0
H469 H 0.82125 0.21276 0.99614 0.0
H470 H 0.7158 0.26751 0.14437 0.0
H471 H 0.69425 0.2275 0.12765 0.0
H472 H 0.76929 0.28316 0.1591 0.0
H473 H 0.80974 0.29881 0.13855 0.0
C474 C 0.2469 0.73892 0.07788 0.0
C475 C 0.21956 0.73724 0.10613 0.0
C476 C 0.25015 0.78838 0.1392 0.0
C477 C 0.27924 0.78756 0.11296 0.0
N478 N 0.30693 0.76287 0.05809 0.0
N479 N 0.19465 0.75979 0.16388 0.0
C480 C 0.27786 0.76323 0.08227 0.0
C481 C 0.22094 0.76204 0.13672 0.0
N482 N 0.24331 0.71706 0.04717 0.0
N483 N 0.25051 0.81478 0.16633 0.0
H484 H 0.1714 0.74286 0.16179 0.0
H485 H 0.19629 0.7735 0.18916 0.0
H486 H 0.27233 0.83334 0.16974 0.0
H487 H 0.2285 0.82005 0.18412 0.0
H488 H 0.26042 0.7188 0.02408 0.0
H489 H 0.22162 0.69824 0.04373 0.0
H490 H 0.30999 0.74378 0.03676 0.0
H491 H 0.32926 0.78112 0.06053 0.0
C492 C 0.75712 0.72808 0.91128 0.0
C493 C 0.78594 0.73404 0.93755 0.0
C494 C 0.75612 0.79189 0.95737 0.0
C495 C 0.72893 0.78713 0.9294 0.0
N496 N 0.70512 0.75409 0.87692 0.0
N497 N 0.81534 0.77262 0.98341 0.0
C498 C 0.72982 0.75604 0.90564 0.0
C499 C 0.78611 0.76625 0.96009 0.0
N500 N 0.75554 0.69538 0.89222 0.0
N501 N 0.75258 0.82065 0.98168 0.0
H502 H 0.83712 0.75386 0.98676 0.0
H503 H 0.81925 0.79726 0.99786 0.0
H504 H 0.73103 0.83989 0.97984 0.0
H505 H 0.76928 0.82419 1.00497 0.0
H506 H 0.73325 0.68757 0.87561 0.0
H507 H 0.7755 0.67464 0.89499 0.0
H508 H 0.70643 0.73437 0.85596 0.0
H509 H 0.68458 0.77404 0.87262 0.0
C510 C 0.268 0.24753 0.93393 0.0
C511 C 0.27526 0.2252 0.90257 0.0
C512 C 0.21982 0.24958 0.87179 0.0
C513 C 0.21499 0.27523 0.90116 0.0
N514 N 0.23708 0.30193 0.95844 0.0
N515 N 0.26237 0.20946 0.83909 0.0
C516 C 0.23961 0.27498 0.93199 0.0
C517 C 0.25228 0.22741 0.87078 0.0
N518 N 0.28783 0.24182 0.96573 0.0
N519 N 0.19278 0.24556 0.84548 0.0
H520 H 0.28671 0.19401 0.83715 0.0
H521 H 0.24869 0.2129 0.81384 0.0
H522 H 0.16796 0.26037 0.84618 0.0
H523 H 0.19321 0.22492 0.82534 0.0
H524 H 0.28155 0.25449 0.99085 0.0
H525 H 0.30886 0.22202 0.9676 0.0
H526 H 0.2567 0.30553 0.97936 0.0
H527 H 0.21682 0.32256 0.95797 0.0
C528 C 0.04894 0.78585 0.24116 0.0
C529 C 0.0801 0.80168 0.25929 0.0
C530 C 0.11885 0.7495 0.23919 0.0
C531 C 0.08866 0.73563 0.21836 0.0
N532 N 0.02596 0.7406 0.19678 0.0
N533 N 0.14595 0.80147 0.27189 0.0
C534 C 0.05389 0.75379 0.2187 0.0
C535 C 0.11537 0.78409 0.25767 0.0
N536 N 0.01455 0.80089 0.24631 0.0
N537 N 0.15096 0.72947 0.24103 0.0
H538 H 0.14477 0.82683 0.28557 0.0
H539 H 0.17298 0.79237 0.2677 0.0
H540 H 0.15486 0.70492 0.22634 0.0
H541 H 0.17278 0.7357 0.2589 0.0
H542 H 0.99015 0.78877 0.23681 0.0
H543 H 0.01003 0.82434 0.26257 0.0
H544 H 1.00109 0.75454 0.19223 0.0
H545 H 0.02855 0.71621 0.18147 0.0
C546 C 0.1158 0.24508 0.73255 0.0
C547 C 0.08045 0.22786 0.72936 0.0
C548 C 0.05499 0.27198 0.77439 0.0
C549 C 0.09089 0.28682 0.77978 0.0
N550 N 0.15642 0.28469 0.76871 0.0
N551 N 0.01732 0.22163 0.75028 0.0
C552 C 0.12158 0.27255 0.76016 0.0
C553 C 0.05016 0.24055 0.75098 0.0
N554 N 0.14338 0.23648 0.70809 0.0
N555 N 0.02555 0.28853 0.79134 0.0
H556 H 0.01294 0.19835 0.73374 0.0
H557 H 0.99536 0.22714 0.76808 0.0
H558 H 0.02869 0.31125 0.80895 0.0
H559 H 0.99803 0.28168 0.78596 0.0
H560 H 0.16837 0.25083 0.70662 0.0
H561 H 0.14017 0.21722 0.68682 0.0
H562 H 0.18048 0.27237 0.75867 0.0
H563 H 0.16139 0.30528 0.78836 0.0
C564 C 0.95295 0.73729 0.77021 0.0
C565 C 0.91562 0.72873 0.77859 0.0
C566 C 0.8942 0.77571 0.73429 0.0
C567 C 0.93157 0.78679 0.72833 0.0
N568 N 0.99654 0.78092 0.74301 0.0
N569 N 0.85069 0.74221 0.77315 0.0
C570 C 0.96106 0.76816 0.74677 0.0
C571 C 0.88624 0.74868 0.76189 0.0
N572 N 0.98045 0.71546 0.78452 0.0
N573 N 0.86647 0.78966 0.71233 0.0
H574 H 0.844 0.72183 0.79262 0.0
H575 H 0.82829 0.75874 0.76539 0.0
H576 H 0.87112 0.80854 0.69088 0.0
H577 H 0.8393 0.77997 0.71293 0.0
H578 H 0.00817 0.71761 0.77693 0.0
H579 H 0.97497 0.69325 0.80234 0.0
H580 H 0.01885 0.77098 0.75846 0.0
H581 H 1.00337 0.80347 0.72616 0.0
C582 C 0.86739 0.2257 0.25591 0.0
C583 C 0.89931 0.22059 0.27851 0.0
C584 C 0.92984 0.27216 0.24595 0.0
C585 C 0.89629 0.2799 0.22699 0.0
N586 N 0.8312 0.26864 0.21885 0.0
N587 N 0.95962 0.24194 0.29836 0.0
C588 C 0.86452 0.25786 0.2333 0.0
C589 C 0.93041 0.24445 0.27429 0.0
N590 N 0.84034 0.19916 0.25507 0.0
N591 N 0.96125 0.29086 0.23623 0.0
H592 H 0.96097 0.22232 0.31962 0.0
H593 H 0.9812 0.26111 0.29909 0.0
H594 H 0.96136 0.31133 0.21569 0.0
H595 H 0.98749 0.28407 0.24626 0.0
H596 H 0.81811 0.19982 0.23658 0.0
H597 H 0.84225 0.17443 0.27002 0.0
H598 H 0.80622 0.25565 0.22526 0.0
H599 H 0.82812 0.29302 0.20352 0.0
C600 C 0.02958 0.02344 0.71198 0.0
C601 C 0.01918 0.05007 0.6848 0.0
C602 C 0.97741 1.00485 0.65574 0.0
C603 C 0.99035 0.97722 0.68097 0.0
N604 N 0.02989 0.95902 0.73191 0.0
N605 N 0.98581 0.06606 0.62892 0.0
C606 C 0.01684 0.98618 0.70873 0.0
C607 C 0.99339 0.04094 0.65647 0.0
N608 N 0.05056 0.03431 0.74168 0.0
N609 N 0.95004 0.99657 0.63075 0.0
H610 H 0.99571 0.09318 0.629 0.0
H611 H 0.97151 0.05964 0.60468 0.0
H612 H 0.9401 0.96983 0.62628 0.0
H613 H 0.93568 0.01651 0.61549 0.0
H614 H 0.05628 0.01748 0.76448 0.0
H615 H 0.05979 0.06153 0.74515 0.0
H616 H 0.05242 0.96247 0.74963 0.0
H617 H 0.01938 0.93207 0.73221 0.0
C618 C 0.9509 0.99782 0.30204 0.0
C619 C 0.96805 0.03121 0.31412 0.0
C620 C 0.01946 0.99531 0.34032 0.0
C621 C 1.00438 0.96233 0.32487 0.0
N622 N 0.95978 0.93377 0.28391 0.0
N623 N 0.02304 0.06219 0.33634 0.0
C624 C 0.97127 0.96402 0.30357 0.0
C625 C 1.00373 0.03008 0.33062 0.0
N626 N 0.91461 0.99778 0.29107 0.0
N627 N 0.04737 0.99355 0.366 0.0
H628 H 0.01291 0.0882 0.32852 0.0
H629 H 0.05061 0.06259 0.34502 0.0
H630 H 0.05848 0.96869 0.37581 0.0
H631 H 0.05662 0.01662 0.38071 0.0
H632 H 0.89981 0.97352 0.28584 0.0
H633 H 0.89812 0.02152 0.29066 0.0
H634 H 0.93787 0.93468 0.26503 0.0
H635 H 0.9744 0.9088 0.28359 0.0
C636 C 0.70988 0.95838 0.01566 0.0
C637 C 0.71148 0.97171 0.97857 0.0
C638 C 0.71609 0.03553 1.0013 0.0
C639 C 0.71771 0.02189 0.0383 0.0
N640 N 0.72433 0.97003 0.08021 0.0
N641 N 0.72434 0.02192 0.93611 0.0
C642 C 0.71715 0.98317 0.04532 0.0
C643 C 0.7171 0.01 0.97138 0.0
N644 N 0.69935 0.92261 0.02278 0.0
N645 N 0.71141 0.07261 0.9946 0.0
H646 H 0.72587 1.00395 0.91354 0.0
H647 H 0.73241 0.04898 0.92988 0.0
H648 H 0.70929 0.09233 0.01556 0.0
H649 H 0.70602 0.08343 0.96832 0.0
H650 H 0.69394 0.91268 0.04938 0.0
H651 H 0.69234 0.90374 1.00207 0.0
H652 H 0.72799 0.94196 0.08616 0.0
H653 H 0.73032 0.9874 0.10253 0.0
C654 C 0.30738 0.01316 0.03353 0.0
C655 C 0.33538 0.98664 0.04164 0.0
C656 C 0.35641 0.98863 0.97688 0.0
C657 C 0.32783 0.01449 0.96859 0.0
N658 N 0.27202 0.04627 0.98644 0.0
N659 N 0.38382 0.94542 0.02067 0.0
C660 C 0.30218 0.02537 0.99626 0.0
C661 C 0.35885 0.97304 0.01312 0.0
N662 N 0.28584 0.02679 0.06151 0.0
N663 N 0.38265 0.98062 0.95078 0.0
H664 H 0.38934 0.93556 0.04729 0.0
H665 H 0.39786 0.9307 1.00029 0.0
H666 H 0.38139 0.99033 0.92361 0.0
H667 H 0.40705 0.96624 0.9564 0.0
H668 H 0.26813 0.04939 0.05849 0.0
H669 H 0.28697 0.01667 0.08862 0.0
H670 H 0.2502 0.05228 1.00423 0.0
H671 H 0.26711 0.05508 0.95927 0.0
C672 C 0.99484 0.71856 0.97253 0.0
C673 C 0.96647 0.69431 0.98495 0.0
C674 C 0.01106 0.66109 0.02409 0.0
C675 C 0.03893 0.68712 0.01398 0.0
N676 N 0.0558 0.74456 0.98391 0.0
N677 N 0.94555 0.64647 0.02685 0.0
C678 C 0.03045 0.71693 0.98955 0.0
C679 C 0.97393 0.66696 0.01226 0.0
N680 N 0.98784 0.74286 0.94417 0.0
N681 N 0.02039 0.62954 0.04316 0.0
H682 H 0.9181 0.64913 0.01811 0.0
H683 H 0.94865 0.62904 0.04975 0.0
H684 H 0.04738 0.62336 0.05141 0.0
H685 H 1.0021 0.60765 0.04767 0.0
H686 H 0.00844 0.75808 0.93084 0.0
H687 H 0.96161 0.74615 0.93234 0.0
H688 H 0.04986 0.76898 0.96956 0.0
H689 H 0.08194 0.74468 0.99633 0.0
C690 C 0.03132 0.3627 0.01667 0.0
C691 C 0.04088 0.33374 0.99188 0.0
C692 C 0.97766 0.30864 0.99582 0.0
C693 C 0.96851 0.33677 0.02172 0.0
N694 N 0.98751 0.38802 0.06055 0.0
N695 N 0.02595 0.27568 0.96257 0.0
C696 C 0.99571 0.36283 0.03348 0.0
C697 C 0.01476 0.30577 0.98269 0.0
N698 N 0.05546 0.3914 0.02243 0.0
N699 N 0.95083 0.28471 0.98374 0.0
H700 H 0.05302 0.27248 0.953 0.0
H701 H 0.00955 0.2524 0.95791 0.0
H702 H 0.92409 0.28415 0.99464 0.0
H703 H 0.95432 0.2666 0.9616 0.0
H704 H 0.0485 0.41582 0.03607 0.0
H705 H 0.08199 0.39219 0.01125 0.0
H706 H 0.00743 0.40402 0.07399 0.0
H707 H 0.96105 0.39176 0.07135 0.0
loop_
_geom_bond_atom_site_label_1
_geom_bond_atom_site_label_2
_geom_bond_distance
_geom_bond_site_symmetry_2
_ccdc_geom_bond_type
Cu0 N1 1.999 . S
Cu0 O6 1.974 . S
Cu0 N11 1.985 . S
Cu0 O20 1.959 . S
N1 Cu0 1.999 . S
N1 C3 1.263 . S
N1 C5 1.389 . S
N2 C3 1.358 . S
N2 C4 1.400 . S
C3 N1 1.263 . S
C3 N2 1.358 . S
C3 H9 0.930 . S
C4 N2 1.400 . S
C4 C5 1.351 . S
C4 H21 0.930 . S
C5 N1 1.389 . S
C5 C4 1.351 . S
C5 H10 0.930 . S
O6 Cu0 1.974 . S
O6 C16 1.282 . S
C7 O8 1.261 . S
C7 O20 1.251 . S
O8 C7 1.261 . S
H9 C3 0.930 . S
H10 C5 0.930 . S
N11 Cu0 1.985 . S
N11 C13 1.335 . S
N11 C14 1.390 . S
N12 C13 1.345 . S
N12 C15 1.336 . S
C13 N11 1.335 . S
C13 N12 1.345 . S
C13 H18 0.930 . S
C14 N11 1.390 . S
C14 C15 1.346 . S
C14 H19 0.930 . S
C15 N12 1.336 . S
C15 C14 1.346 . S
C15 H22 0.929 . S
C16 O6 1.282 . S
C16 O17 1.216 . S
O17 C16 1.216 . S
H18 C13 0.930 . S
H19 C14 0.930 . S
O20 Cu0 1.959 . S
O20 C7 1.251 . S
H21 C4 0.930 . S
H22 C15 0.929 . S
Cu23 N24 1.999 . S
Cu23 O29 1.974 . S
Cu23 N34 1.985 . S
Cu23 O43 1.959 . S
N24 Cu23 1.999 . S
N24 C26 1.263 . S
N24 C28 1.389 . S
N25 C26 1.358 . S
N25 C27 1.400 . S
C26 N24 1.263 . S
C26 N25 1.358 . S
C26 H32 0.930 . S
C27 N25 1.400 . S
C27 C28 1.351 . S
C27 H44 0.930 . S
C28 N24 1.389 . S
C28 C27 1.351 . S
C28 H33 0.930 . S
O29 Cu23 1.974 . S
O29 C39 1.282 . S
C30 O31 1.261 . S
C30 O43 1.251 . S
O31 C30 1.261 . S
H32 C26 0.930 . S
H33 C28 0.930 . S
N34 Cu23 1.985 . S
N34 C36 1.335 . S
N34 C37 1.390 . S
N35 C36 1.345 . S
N35 C38 1.336 . S
C36 N34 1.335 . S
C36 N35 1.345 . S
C36 H41 0.930 . S
C37 N34 1.390 . S
C37 C38 1.346 . S
C37 H42 0.930 . S
C38 N35 1.336 . S
C38 C37 1.346 . S
C38 H45 0.929 . S
C39 O29 1.282 . S
C39 O40 1.216 . S
O40 C39 1.216 . S
H41 C36 0.930 . S
H42 C37 0.930 . S
O43 Cu23 1.959 . S
O43 C30 1.251 . S
H44 C27 0.930 . S
H45 C38 0.929 . S
Cu46 N47 1.999 . S
Cu46 O52 1.974 . S
Cu46 N57 1.985 . S
Cu46 O66 1.959 . S
N47 Cu46 1.999 . S
N47 C49 1.263 . S
N47 C51 1.389 . S
N48 C49 1.358 . S
N48 C50 1.400 . S
C49 N47 1.263 . S
C49 N48 1.358 . S
C49 H55 0.930 . S
C50 N48 1.400 . S
C50 C51 1.351 . S
C50 H67 0.930 . S
C51 N47 1.389 . S
C51 C50 1.351 . S
C51 H56 0.930 . S
O52 Cu46 1.974 . S
O52 C62 1.282 . S
C53 O54 1.261 . S
C53 O66 1.251 . S
O54 C53 1.261 . S
H55 C49 0.930 . S
H56 C51 0.930 . S
N57 Cu46 1.985 . S
N57 C59 1.335 . S
N57 C60 1.390 . S
N58 C59 1.345 . S
N58 C61 1.336 . S
C59 N57 1.335 . S
C59 N58 1.345 . S
C59 H64 0.930 . S
C60 N57 1.390 . S
C60 C61 1.346 . S
C60 H65 0.930 . S
C61 N58 1.336 . S
C61 C60 1.346 . S
C61 H68 0.929 . S
C62 O52 1.282 . S
C62 O63 1.216 . S
O63 C62 1.216 . S
H64 C59 0.930 . S
H65 C60 0.930 . S
O66 Cu46 1.959 . S
O66 C53 1.251 . S
H67 C50 0.930 . S
H68 C61 0.929 . S
Cu69 N70 1.999 . S
Cu69 O75 1.974 . S
Cu69 N80 1.985 . S
Cu69 O89 1.959 . S
N70 Cu69 1.999 . S
N70 C72 1.263 . S
N70 C74 1.389 . S
N71 C72 1.358 . S
N71 C73 1.400 . S
C72 N70 1.263 . S
C72 N71 1.358 . S
C72 H78 0.930 . S
C73 N71 1.400 . S
C73 C74 1.351 . S
C73 H90 0.930 . S
C74 N70 1.389 . S
C74 C73 1.351 . S
C74 H79 0.930 . S
O75 Cu69 1.974 . S
O75 C85 1.282 . S
C76 O77 1.261 . S
C76 O89 1.251 . S
O77 C76 1.261 . S
H78 C72 0.930 . S
H79 C74 0.930 . S
N80 Cu69 1.985 . S
N80 C82 1.335 . S
N80 C83 1.390 . S
N81 C82 1.345 . S
N81 C84 1.336 . S
C82 N80 1.335 . S
C82 N81 1.345 . S
C82 H87 0.930 . S
C83 N80 1.390 . S
C83 C84 1.346 . S
C83 H88 0.930 . S
C84 N81 1.336 . S
C84 C83 1.346 . S
C84 H91 0.929 . S
C85 O75 1.282 . S
C85 O86 1.216 . S
O86 C85 1.216 . S
H87 C82 0.930 . S
H88 C83 0.930 . S
O89 Cu69 1.959 . S
O89 C76 1.251 . S
H90 C73 0.930 . S
H91 C84 0.929 . S
Cu92 N93 1.999 . S
Cu92 O98 1.974 . S
Cu92 N103 1.985 . S
Cu92 O112 1.959 . S
N93 Cu92 1.999 . S
N93 C95 1.263 . S
N93 C97 1.389 . S
N94 C95 1.358 . S
N94 C96 1.400 . S
C95 N93 1.263 . S
C95 N94 1.358 . S
C95 H101 0.930 . S
C96 N94 1.400 . S
C96 C97 1.351 . S
C96 H113 0.930 . S
C97 N93 1.389 . S
C97 C96 1.351 . S
C97 H102 0.930 . S
O98 Cu92 1.974 . S
O98 C108 1.282 . S
C99 O100 1.261 . S
C99 O112 1.251 . S
O100 C99 1.261 . S
H101 C95 0.930 . S
H102 C97 0.930 . S
N103 Cu92 1.985 . S
N103 C105 1.335 . S
N103 C106 1.390 . S
N104 C105 1.345 . S
N104 C107 1.336 . S
C105 N103 1.335 . S
C105 N104 1.345 . S
C105 H110 0.930 . S
C106 N103 1.390 . S
C106 C107 1.346 . S
C106 H111 0.930 . S
C107 N104 1.336 . S
C107 C106 1.346 . S
C107 H114 0.929 . S
C108 O98 1.282 . S
C108 O109 1.216 . S
O109 C108 1.216 . S
H110 C105 0.930 . S
H111 C106 0.930 . S
O112 Cu92 1.959 . S
O112 C99 1.251 . S
H113 C96 0.930 . S
H114 C107 0.929 . S
Cu115 N116 1.999 . S
Cu115 O121 1.974 . S
Cu115 N126 1.985 . S
Cu115 O135 1.959 . S
N116 Cu115 1.999 . S
N116 C118 1.263 . S
N116 C120 1.389 . S
N117 C118 1.358 . S
N117 C119 1.400 . S
C118 N116 1.263 . S
C118 N117 1.358 . S
C118 H124 0.930 . S
C119 N117 1.400 . S
C119 C120 1.351 . S
C119 H136 0.930 . S
C120 N116 1.389 . S
C120 C119 1.351 . S
C120 H125 0.930 . S
O121 Cu115 1.974 . S
O121 C131 1.282 . S
C122 O123 1.261 . S
C122 O135 1.251 . S
O123 C122 1.261 . S
H124 C118 0.930 . S
H125 C120 0.930 . S
N126 Cu115 1.985 . S
N126 C128 1.335 . S
N126 C129 1.390 . S
N127 C128 1.345 . S
N127 C130 1.336 . S
C128 N126 1.335 . S
C128 N127 1.345 . S
C128 H133 0.930 . S
C129 N126 1.390 . S
C129 C130 1.346 . S
C129 H134 0.930 . S
C130 N127 1.336 . S
C130 C129 1.346 . S
C130 H137 0.929 . S
C131 O121 1.282 . S
C131 O132 1.216 . S
O132 C131 1.216 . S
H133 C128 0.930 . S
H134 C129 0.930 . S
O135 Cu115 1.959 . S
O135 C122 1.251 . S
H136 C119 0.930 . S
H137 C130 0.929 . S
Cu138 N139 1.999 . S
Cu138 O144 1.974 . S
Cu138 N149 1.985 . S
Cu138 O158 1.959 . S
N139 Cu138 1.999 . S
N139 C141 1.263 . S
N139 C143 1.389 . S
N140 C141 1.358 . S
N140 C142 1.400 . S
C141 N139 1.263 . S
C141 N140 1.358 . S
C141 H147 0.930 . S
C142 N140 1.400 . S
C142 C143 1.351 . S
C142 H159 0.930 . S
C143 N139 1.389 . S
C143 C142 1.351 . S
C143 H148 0.930 . S
O144 Cu138 1.974 . S
O144 C154 1.282 . S
C145 O146 1.261 . S
C145 O158 1.251 . S
O146 C145 1.261 . S
H147 C141 0.930 . S
H148 C143 0.930 . S
N149 Cu138 1.985 . S
N149 C151 1.335 . S
N149 C152 1.390 . S
N150 C151 1.345 . S
N150 C153 1.336 . S
C151 N149 1.335 . S
C151 N150 1.345 . S
C151 H156 0.930 . S
C152 N149 1.390 . S
C152 C153 1.346 . S
C152 H157 0.930 . S
C153 N150 1.336 . S
C153 C152 1.346 . S
C153 H160 0.929 . S
C154 O144 1.282 . S
C154 O155 1.216 . S
O155 C154 1.216 . S
H156 C151 0.930 . S
H157 C152 0.930 . S
O158 Cu138 1.959 . S
O158 C145 1.251 . S
H159 C142 0.930 . S
H160 C153 0.929 . S
Cu161 N162 1.999 . S
Cu161 O167 1.974 . S
Cu161 N172 1.985 . S
Cu161 O181 1.959 . S
N162 Cu161 1.999 . S
N162 C164 1.263 . S
N162 C166 1.389 . S
N163 C164 1.358 . S
N163 C165 1.400 . S
C164 N162 1.263 . S
C164 N163 1.358 . S
C164 H170 0.930 . S
C165 N163 1.400 . S
C165 C166 1.351 . S
C165 H182 0.930 . S
C166 N162 1.389 . S
C166 C165 1.351 . S
C166 H171 0.930 . S
O167 Cu161 1.974 . S
O167 C177 1.282 . S
C168 O169 1.261 . S
C168 O181 1.251 . S
O169 C168 1.261 . S
H170 C164 0.930 . S
H171 C166 0.930 . S
N172 Cu161 1.985 . S
N172 C174 1.335 . S
N172 C175 1.390 . S
N173 C174 1.345 . S
N173 C176 1.336 . S
C174 N172 1.335 . S
C174 N173 1.345 . S
C174 H179 0.930 . S
C175 N172 1.390 . S
C175 C176 1.346 . S
C175 H180 0.930 . S
C176 N173 1.336 . S
C176 C175 1.346 . S
C176 H183 0.929 . S
C177 O167 1.282 . S
C177 O178 1.216 . S
O178 C177 1.216 . S
H179 C174 0.930 . S
H180 C175 0.930 . S
O181 Cu161 1.959 . S
O181 C168 1.251 . S
H182 C165 0.930 . S
H183 C176 0.929 . S
Cu184 N185 1.999 . S
Cu184 O190 1.974 . S
Cu184 N195 1.985 . S
Cu184 O204 1.959 . S
N185 Cu184 1.999 . S
N185 C187 1.263 . S
N185 C189 1.389 . S
N186 C187 1.358 . S
N186 C188 1.400 . S
C187 N185 1.263 . S
C187 N186 1.358 . S
C187 H193 0.930 . S
C188 N186 1.400 . S
C188 C189 1.351 . S
C188 H205 0.930 . S
C189 N185 1.389 . S
C189 C188 1.351 . S
C189 H194 0.930 . S
O190 Cu184 1.974 . S
O190 C200 1.282 . S
C191 O192 1.261 . S
C191 O204 1.251 . S
O192 C191 1.261 . S
H193 C187 0.930 . S
H194 C189 0.930 . S
N195 Cu184 1.985 . S
N195 C197 1.335 . S
N195 C198 1.390 . S
N196 C197 1.345 . S
N196 C199 1.336 . S
C197 N195 1.335 . S
C197 N196 1.345 . S
C197 H202 0.930 . S
C198 N195 1.390 . S
C198 C199 1.346 . S
C198 H203 0.930 . S
C199 N196 1.336 . S
C199 C198 1.346 . S
C199 H206 0.929 . S
C200 O190 1.282 . S
C200 O201 1.216 . S
O201 C200 1.216 . S
H202 C197 0.930 . S
H203 C198 0.930 . S
O204 Cu184 1.959 . S
O204 C191 1.251 . S
H205 C188 0.930 . S
H206 C199 0.929 . S
Cu207 N208 1.999 . S
Cu207 O213 1.974 . S
Cu207 N218 1.985 . S
Cu207 O227 1.959 . S
N208 Cu207 1.999 . S
N208 C210 1.263 . S
N208 C212 1.389 . S
N209 C210 1.358 . S
N209 C211 1.400 . S
C210 N208 1.263 . S
C210 N209 1.358 . S
C210 H216 0.930 . S
C211 N209 1.400 . S
C211 C212 1.351 . S
C211 H228 0.930 . S
C212 N208 1.389 . S
C212 C211 1.351 . S
C212 H217 0.930 . S
O213 Cu207 1.974 . S
O213 C223 1.282 . S
C214 O215 1.261 . S
C214 O227 1.251 . S
O215 C214 1.261 . S
H216 C210 0.930 . S
H217 C212 0.930 . S
N218 Cu207 1.985 . S
N218 C220 1.335 . S
N218 C221 1.390 . S
N219 C220 1.345 . S
N219 C222 1.336 . S
C220 N218 1.335 . S
C220 N219 1.345 . S
C220 H225 0.930 . S
C221 N218 1.390 . S
C221 C222 1.346 . S
C221 H226 0.930 . S
C222 N219 1.336 . S
C222 C221 1.346 . S
C222 H229 0.929 . S
C223 O213 1.282 . S
C223 O224 1.216 . S
O224 C223 1.216 . S
H225 C220 0.930 . S
H226 C221 0.930 . S
O227 Cu207 1.959 . S
O227 C214 1.251 . S
H228 C211 0.930 . S
H229 C222 0.929 . S
Cu230 N231 1.999 . S
Cu230 O236 1.974 . S
Cu230 N241 1.985 . S
Cu230 O250 1.959 . S
N231 Cu230 1.999 . S
N231 C233 1.263 . S
N231 C235 1.389 . S
N232 C233 1.358 . S
N232 C234 1.400 . S
C233 N231 1.263 . S
C233 N232 1.358 . S
C233 H239 0.930 . S
C234 N232 1.400 . S
C234 C235 1.351 . S
C234 H251 0.930 . S
C235 N231 1.389 . S
C235 C234 1.351 . S
C235 H240 0.930 . S
O236 Cu230 1.974 . S
O236 C246 1.282 . S
C237 O238 1.261 . S
C237 O250 1.251 . S
O238 C237 1.261 . S
H239 C233 0.930 . S
H240 C235 0.930 . S
N241 Cu230 1.985 . S
N241 C243 1.335 . S
N241 C244 1.390 . S
N242 C243 1.345 . S
N242 C245 1.336 . S
C243 N241 1.335 . S
C243 N242 1.345 . S
C243 H248 0.930 . S
C244 N241 1.390 . S
C244 C245 1.346 . S
C244 H249 0.930 . S
C245 N242 1.336 . S
C245 C244 1.346 . S
C245 H252 0.929 . S
C246 O236 1.282 . S
C246 O247 1.216 . S
O247 C246 1.216 . S
H248 C243 0.930 . S
H249 C244 0.930 . S
O250 Cu230 1.959 . S
O250 C237 1.251 . S
H251 C234 0.930 . S
H252 C245 0.929 . S
Cu253 N254 1.999 . S
Cu253 O259 1.974 . S
Cu253 N264 1.985 . S
Cu253 O273 1.959 . S
N254 Cu253 1.999 . S
N254 C256 1.263 . S
N254 C258 1.389 . S
N255 C256 1.358 . S
N255 C257 1.400 . S
C256 N254 1.263 . S
C256 N255 1.358 . S
C256 H262 0.930 . S
C257 N255 1.400 . S
C257 C258 1.351 . S
C257 H274 0.930 . S
C258 N254 1.389 . S
C258 C257 1.351 . S
C258 H263 0.930 . S
O259 Cu253 1.974 . S
O259 C269 1.282 . S
C260 O261 1.261 . S
C260 O273 1.251 . S
O261 C260 1.261 . S
H262 C256 0.930 . S
H263 C258 0.930 . S
N264 Cu253 1.985 . S
N264 C266 1.335 . S
N264 C267 1.390 . S
N265 C266 1.345 . S
N265 C268 1.336 . S
C266 N264 1.335 . S
C266 N265 1.345 . S
C266 H271 0.930 . S
C267 N264 1.390 . S
C267 C268 1.346 . S
C267 H272 0.930 . S
C268 N265 1.336 . S
C268 C267 1.346 . S
C268 H275 0.929 . S
C269 O259 1.282 . S
C269 O270 1.216 . S
O270 C269 1.216 . S
H271 C266 0.930 . S
H272 C267 0.930 . S
O273 Cu253 1.959 . S
O273 C260 1.251 . S
H274 C257 0.930 . S
H275 C268 0.929 . S
C276 C277 1.363 . S
C276 C282 1.379 . S
C276 N284 1.356 . S
C277 C276 1.363 . S
C277 C283 1.363 1_655 S
C278 C279 1.363 . S
C278 C283 1.379 . S
C278 N285 1.356 . S
C279 C278 1.363 . S
C279 C282 1.363 1_455 S
N280 C282 1.356 . S
N280 H292 0.984 . S
N280 H293 0.985 1_655 S
N281 C283 1.356 . S
N281 H286 0.984 1_455 S
N281 H287 0.985 . S
C282 C276 1.379 . S
C282 C279 1.363 1_655 S
C282 N280 1.356 . S
C283 C277 1.363 1_455 S
C283 C278 1.379 . S
C283 N281 1.356 . S
N284 C276 1.356 . S
N284 H290 0.984 . S
N284 H291 0.984 . S
N285 C278 1.356 . S
N285 H288 0.984 . S
N285 H289 0.985 . S
H286 N281 0.984 1_655 S
H287 N281 0.985 . S
H288 N285 0.984 . S
H289 N285 0.985 . S
H290 N284 0.984 . S
H291 N284 0.984 . S
H292 N280 0.984 . S
H293 N280 0.985 1_455 S
C294 C295 1.363 1_655 S
C294 C300 1.379 . S
C294 N302 1.356 . S
C295 C294 1.363 1_455 S
C295 C301 1.363 . S
C296 C297 1.363 1_455 S
C296 C301 1.379 . S
C296 N303 1.356 . S
C297 C296 1.363 1_655 S
C297 C300 1.363 . S
N298 C300 1.356 . S
N298 H310 0.984 . S
N298 H311 0.985 . S
N299 C301 1.356 . S
N299 H304 0.984 . S
N299 H305 0.985 . S
C300 C294 1.379 . S
C300 C297 1.363 . S
C300 N298 1.356 . S
C301 C295 1.363 . S
C301 C296 1.379 . S
C301 N299 1.356 . S
N302 C294 1.356 . S
N302 H308 0.984 . S
N302 H309 0.984 1_655 S
N303 C296 1.356 . S
N303 H306 0.984 1_455 S
N303 H307 0.985 . S
H304 N299 0.984 . S
H305 N299 0.985 . S
H306 N303 0.984 1_655 S
H307 N303 0.985 . S
H308 N302 0.984 . S
H309 N302 0.984 1_455 S
H310 N298 0.984 . S
H311 N298 0.985 . S
C312 C313 1.363 . S
C312 C318 1.379 . S
C312 N320 1.356 . S
C313 C312 1.363 . S
C313 C319 1.363 1_565 S
C314 C315 1.363 . S
C314 C319 1.379 . S
C314 N321 1.356 . S
C315 C314 1.363 . S
C315 C318 1.363 1_545 S
N316 C318 1.356 . S
N316 H328 0.984 . S
N316 H329 0.985 1_565 S
N317 C319 1.356 . S
N317 H322 0.984 1_545 S
N317 H323 0.985 . S
C318 C312 1.379 . S
C318 C315 1.363 1_565 S
C318 N316 1.356 . S
C319 C313 1.363 1_545 S
C319 C314 1.379 . S
C319 N317 1.356 . S
N320 C312 1.356 . S
N320 H326 0.984 . S
N320 H327 0.984 . S
N321 C314 1.356 . S
N321 H324 0.984 . S
N321 H325 0.985 . S
H322 N317 0.984 1_565 S
H323 N317 0.985 . S
H324 N321 0.984 . S
H325 N321 0.985 . S
H326 N320 0.984 . S
H327 N320 0.984 . S
H328 N316 0.984 . S
H329 N316 0.985 1_545 S
C330 C331 1.363 1_545 S
C330 C336 1.379 . S
C330 N338 1.356 . S
C331 C330 1.363 1_565 S
C331 C337 1.363 . S
C332 C333 1.363 1_565 S
C332 C337 1.379 . S
C332 N339 1.356 . S
C333 C332 1.363 1_545 S
C333 C336 1.363 . S
N334 C336 1.356 . S
N334 H346 0.984 . S
N334 H347 0.985 . S
N335 C337 1.356 . S
N335 H340 0.984 . S
N335 H341 0.985 . S
C336 C330 1.379 . S
C336 C333 1.363 . S
C336 N334 1.356 . S
C337 C331 1.363 . S
C337 C332 1.379 . S
C337 N335 1.356 . S
N338 C330 1.356 . S
N338 H344 0.984 . S
N338 H345 0.984 1_545 S
N339 C332 1.356 . S
N339 H342 0.984 1_565 S
N339 H343 0.985 . S
H340 N335 0.984 . S
H341 N335 0.985 . S
H342 N339 0.984 1_545 S
H343 N339 0.985 . S
H344 N338 0.984 . S
H345 N338 0.984 1_565 S
H346 N334 0.984 . S
H347 N334 0.985 . S
C348 C349 1.363 1_554 S
C348 C354 1.379 . S
C348 N356 1.356 . S
C349 C348 1.363 1_556 S
C349 C355 1.363 . S
C350 C351 1.363 1_556 S
C350 C355 1.379 . S
C350 N357 1.356 . S
C351 C350 1.363 1_554 S
C351 C354 1.363 . S
N352 C354 1.356 . S
N352 H364 0.984 . S
N352 H365 0.985 . S
N353 C355 1.356 . S
N353 H358 0.984 . S
N353 H359 0.985 . S
C354 C348 1.379 . S
C354 C351 1.363 . S
C354 N352 1.356 . S
C355 C349 1.363 . S
C355 C350 1.379 . S
C355 N353 1.356 . S
N356 C348 1.356 . S
N356 H362 0.984 . S
N356 H363 0.984 . S
N357 C350 1.356 . S
N357 H360 0.984 . S
N357 H361 0.985 . S
H358 N353 0.984 . S
H359 N353 0.985 . S
H360 N357 0.984 . S
H361 N357 0.985 . S
H362 N356 0.984 . S
H363 N356 0.984 . S
H364 N352 0.984 . S
H365 N352 0.985 . S
C366 C367 1.363 1_554 S
C366 C372 1.379 . S
C366 N374 1.356 . S
C367 C366 1.363 1_556 S
C367 C373 1.363 . S
C368 C369 1.363 1_556 S
C368 C373 1.379 . S
C368 N375 1.356 . S
C369 C368 1.363 1_554 S
C369 C372 1.363 . S
N370 C372 1.356 . S
N370 H382 0.984 . S
N370 H383 0.985 . S
N371 C373 1.356 . S
N371 H376 0.984 . S
N371 H377 0.985 . S
C372 C366 1.379 . S
C372 C369 1.363 . S
C372 N370 1.356 . S
C373 C367 1.363 . S
C373 C368 1.379 . S
C373 N371 1.356 . S
N374 C366 1.356 . S
N374 H380 0.984 . S
N374 H381 0.984 . S
N375 C368 1.356 . S
N375 H378 0.984 . S
N375 H379 0.985 . S
H376 N371 0.984 . S
H377 N371 0.985 . S
H378 N375 0.984 . S
H379 N375 0.985 . S
H380 N374 0.984 . S
H381 N374 0.984 . S
H382 N370 0.984 . S
H383 N370 0.985 . S
C384 C385 1.363 . S
C384 C390 1.379 . S
C384 N392 1.356 . S
C385 C384 1.363 . S
C385 C391 1.363 . S
C386 C387 1.363 . S
C386 C391 1.379 . S
C386 N393 1.356 . S
C387 C386 1.363 . S
C387 C390 1.363 . S
N388 C390 1.356 . S
N388 H400 0.984 . S
N388 H401 0.985 . S
N389 C391 1.356 . S
N389 H394 0.984 . S
N389 H395 0.985 . S
C390 C384 1.379 . S
C390 C387 1.363 . S
C390 N388 1.356 . S
C391 C385 1.363 . S
C391 C386 1.379 . S
C391 N389 1.356 . S
N392 C384 1.356 . S
N392 H398 0.984 . S
N392 H399 0.984 . S
N393 C386 1.356 . S
N393 H396 0.984 . S
N393 H397 0.985 . S
H394 N389 0.984 . S
H395 N389 0.985 . S
H396 N393 0.984 . S
H397 N393 0.985 . S
H398 N392 0.984 . S
H399 N392 0.984 . S
H400 N388 0.984 . S
H401 N388 0.985 . S
C402 C403 1.363 . S
C402 C408 1.379 . S
C402 N410 1.356 . S
C403 C402 1.363 . S
C403 C409 1.363 . S
C404 C405 1.363 . S
C404 C409 1.379 . S
C404 N411 1.356 . S
C405 C404 1.363 . S
C405 C408 1.363 . S
N406 C408 1.356 . S
N406 H418 0.984 . S
N406 H419 0.985 . S
N407 C409 1.356 . S
N407 H412 0.984 . S
N407 H413 0.985 . S
C408 C402 1.379 . S
C408 C405 1.363 . S
C408 N406 1.356 . S
C409 C403 1.363 . S
C409 C404 1.379 . S
C409 N407 1.356 . S
N410 C402 1.356 . S
N410 H416 0.984 . S
N410 H417 0.984 . S
N411 C404 1.356 . S
N411 H414 0.984 . S
N411 H415 0.985 . S
H412 N407 0.984 . S
H413 N407 0.985 . S
H414 N411 0.984 . S
H415 N411 0.985 . S
H416 N410 0.984 . S
H417 N410 0.984 . S
H418 N406 0.984 . S
H419 N406 0.985 . S
C420 C421 1.363 . S
C420 C426 1.379 . S
C420 N428 1.356 . S
C421 C420 1.363 . S
C421 C427 1.363 . S
C422 C423 1.363 . S
C422 C427 1.379 . S
C422 N429 1.356 . S
C423 C422 1.363 . S
C423 C426 1.363 . S
N424 C426 1.356 . S
N424 H436 0.984 . S
N424 H437 0.985 . S
N425 C427 1.356 . S
N425 H430 0.984 . S
N425 H431 0.985 . S
C426 C420 1.379 . S
C426 C423 1.363 . S
C426 N424 1.356 . S
C427 C421 1.363 . S
C427 C422 1.379 . S
C427 N425 1.356 . S
N428 C420 1.356 . S
N428 H434 0.984 . S
N428 H435 0.984 . S
N429 C422 1.356 . S
N429 H432 0.984 . S
N429 H433 0.985 . S
H430 N425 0.984 . S
H431 N425 0.985 . S
H432 N429 0.984 . S
H433 N429 0.985 . S
H434 N428 0.984 . S
H435 N428 0.984 . S
H436 N424 0.984 . S
H437 N424 0.985 . S
C438 C439 1.363 . S
C438 C444 1.379 . S
C438 N446 1.356 . S
C439 C438 1.363 . S
C439 C445 1.363 . S
C440 C441 1.363 . S
C440 C445 1.379 . S
C440 N447 1.356 . S
C441 C440 1.363 . S
C441 C444 1.363 . S
N442 C444 1.356 . S
N442 H454 0.984 . S
N442 H455 0.985 . S
N443 C445 1.356 . S
N443 H448 0.984 . S
N443 H449 0.985 . S
C444 C438 1.379 . S
C444 C441 1.363 . S
C444 N442 1.356 . S
C445 C439 1.363 . S
C445 C440 1.379 . S
C445 N443 1.356 . S
N446 C438 1.356 . S
N446 H452 0.984 . S
N446 H453 0.984 . S
N447 C440 1.356 . S
N447 H450 0.984 . S
N447 H451 0.985 . S
H448 N443 0.984 . S
H449 N443 0.985 . S
H450 N447 0.984 . S
H451 N447 0.985 . S
H452 N446 0.984 . S
H453 N446 0.984 . S
H454 N442 0.984 . S
H455 N442 0.985 . S
C456 C457 1.363 . S
C456 C462 1.379 . S
C456 N464 1.356 . S
C457 C456 1.363 . S
C457 C463 1.363 . S
C458 C459 1.363 . S
C458 C463 1.379 . S
C458 N465 1.356 . S
C459 C458 1.363 . S
C459 C462 1.363 . S
N460 C462 1.356 . S
N460 H472 0.984 . S
N460 H473 0.985 . S
N461 C463 1.356 . S
N461 H466 0.984 . S
N461 H467 0.985 . S
C462 C456 1.379 . S
C462 C459 1.363 . S
C462 N460 1.356 . S
C463 C457 1.363 . S
C463 C458 1.379 . S
C463 N461 1.356 . S
N464 C456 1.356 . S
N464 H470 0.984 . S
N464 H471 0.984 . S
N465 C458 1.356 . S
N465 H468 0.984 . S
N465 H469 0.985 . S
H466 N461 0.984 . S
H467 N461 0.985 . S
H468 N465 0.984 . S
H469 N465 0.985 . S
H470 N464 0.984 . S
H471 N464 0.984 . S
H472 N460 0.984 . S
H473 N460 0.985 . S
C474 C475 1.363 . S
C474 C480 1.379 . S
C474 N482 1.356 . S
C475 C474 1.363 . S
C475 C481 1.363 . S
C476 C477 1.363 . S
C476 C481 1.379 . S
C476 N483 1.356 . S
C477 C476 1.363 . S
C477 C480 1.363 . S
N478 C480 1.356 . S
N478 H490 0.984 . S
N478 H491 0.985 . S
N479 C481 1.356 . S
N479 H484 0.984 . S
N479 H485 0.985 . S
C480 C474 1.379 . S
C480 C477 1.363 . S
C480 N478 1.356 . S
C481 C475 1.363 . S
C481 C476 1.379 . S
C481 N479 1.356 . S
N482 C474 1.356 . S
N482 H488 0.984 . S
N482 H489 0.984 . S
N483 C476 1.356 . S
N483 H486 0.984 . S
N483 H487 0.985 . S
H484 N479 0.984 . S
H485 N479 0.985 . S
H486 N483 0.984 . S
H487 N483 0.985 . S
H488 N482 0.984 . S
H489 N482 0.984 . S
H490 N478 0.984 . S
H491 N478 0.985 . S
C492 C493 1.363 . S
C492 C498 1.379 . S
C492 N500 1.356 . S
C493 C492 1.363 . S
C493 C499 1.363 . S
C494 C495 1.363 . S
C494 C499 1.379 . S
C494 N501 1.356 . S
C495 C494 1.363 . S
C495 C498 1.363 . S
N496 C498 1.356 . S
N496 H508 0.984 . S
N496 H509 0.985 . S
N497 C499 1.356 . S
N497 H502 0.984 . S
N497 H503 0.985 . S
C498 C492 1.379 . S
C498 C495 1.363 . S
C498 N496 1.356 . S
C499 C493 1.363 . S
C499 C494 1.379 . S
C499 N497 1.356 . S
N500 C492 1.356 . S
N500 H506 0.984 . S
N500 H507 0.984 . S
N501 C494 1.356 . S
N501 H504 0.984 . S
N501 H505 0.985 . S
H502 N497 0.984 . S
H503 N497 0.985 . S
H504 N501 0.984 . S
H505 N501 0.985 . S
H506 N500 0.984 . S
H507 N500 0.984 . S
H508 N496 0.984 . S
H509 N496 0.985 . S
C510 C511 1.363 . S
C510 C516 1.379 . S
C510 N518 1.356 . S
C511 C510 1.363 . S
C511 C517 1.363 . S
C512 C513 1.363 . S
C512 C517 1.379 . S
C512 N519 1.356 . S
C513 C512 1.363 . S
C513 C516 1.363 . S
N514 C516 1.356 . S
N514 H526 0.984 . S
N514 H527 0.985 . S
N515 C517 1.356 . S
N515 H520 0.984 . S
N515 H521 0.985 . S
C516 C510 1.379 . S
C516 C513 1.363 . S
C516 N514 1.356 . S
C517 C511 1.363 . S
C517 C512 1.379 . S
C517 N515 1.356 . S
N518 C510 1.356 . S
N518 H524 0.984 . S
N518 H525 0.984 . S
N519 C512 1.356 . S
N519 H522 0.984 . S
N519 H523 0.985 . S
H520 N515 0.984 . S
H521 N515 0.985 . S
H522 N519 0.984 . S
H523 N519 0.985 . S
H524 N518 0.984 . S
H525 N518 0.984 . S
H526 N514 0.984 . S
H527 N514 0.985 . S
C528 C529 1.363 . S
C528 C534 1.379 . S
C528 N536 1.356 . S
C529 C528 1.363 . S
C529 C535 1.363 . S
C530 C531 1.363 . S
C530 C535 1.379 . S
C530 N537 1.356 . S
C531 C530 1.363 . S
C531 C534 1.363 . S
N532 C534 1.356 . S
N532 H544 0.984 . S
N532 H545 0.985 . S
N533 C535 1.356 . S
N533 H538 0.984 . S
N533 H539 0.985 . S
C534 C528 1.379 . S
C534 C531 1.363 . S
C534 N532 1.356 . S
C535 C529 1.363 . S
C535 C530 1.379 . S
C535 N533 1.356 . S
N536 C528 1.356 . S
N536 H542 0.984 . S
N536 H543 0.984 . S
N537 C530 1.356 . S
N537 H540 0.984 . S
N537 H541 0.985 . S
H538 N533 0.984 . S
H539 N533 0.985 . S
H540 N537 0.984 . S
H541 N537 0.985 . S
H542 N536 0.984 . S
H543 N536 0.984 . S
H544 N532 0.984 . S
H545 N532 0.985 . S
C546 C547 1.363 . S
C546 C552 1.379 . S
C546 N554 1.356 . S
C547 C546 1.363 . S
C547 C553 1.363 . S
C548 C549 1.363 . S
C548 C553 1.379 . S
C548 N555 1.356 . S
C549 C548 1.363 . S
C549 C552 1.363 . S
N550 C552 1.356 . S
N550 H562 0.984 . S
N550 H563 0.985 . S
N551 C553 1.356 . S
N551 H556 0.984 . S
N551 H557 0.985 . S
C552 C546 1.379 . S
C552 C549 1.363 . S
C552 N550 1.356 . S
C553 C547 1.363 . S
C553 C548 1.379 . S
C553 N551 1.356 . S
N554 C546 1.356 . S
N554 H560 0.984 . S
N554 H561 0.984 . S
N555 C548 1.356 . S
N555 H558 0.984 . S
N555 H559 0.985 . S
H556 N551 0.984 . S
H557 N551 0.985 . S
H558 N555 0.984 . S
H559 N555 0.985 . S
H560 N554 0.984 . S
H561 N554 0.984 . S
H562 N550 0.984 . S
H563 N550 0.985 . S
C564 C565 1.363 . S
C564 C570 1.379 . S
C564 N572 1.356 . S
C565 C564 1.363 . S
C565 C571 1.363 . S
C566 C567 1.363 . S
C566 C571 1.379 . S
C566 N573 1.356 . S
C567 C566 1.363 . S
C567 C570 1.363 . S
N568 C570 1.356 . S
N568 H580 0.984 . S
N568 H581 0.985 . S
N569 C571 1.356 . S
N569 H574 0.984 . S
N569 H575 0.985 . S
C570 C564 1.379 . S
C570 C567 1.363 . S
C570 N568 1.356 . S
C571 C565 1.363 . S
C571 C566 1.379 . S
C571 N569 1.356 . S
N572 C564 1.356 . S
N572 H578 0.984 . S
N572 H579 0.984 . S
N573 C566 1.356 . S
N573 H576 0.984 . S
N573 H577 0.985 . S
H574 N569 0.984 . S
H575 N569 0.985 . S
H576 N573 0.984 . S
H577 N573 0.985 . S
H578 N572 0.984 . S
H579 N572 0.984 . S
H580 N568 0.984 . S
H581 N568 0.985 . S
C582 C583 1.363 . S
C582 C588 1.379 . S
C582 N590 1.356 . S
C583 C582 1.363 . S
C583 C589 1.363 . S
C584 C585 1.363 . S
C584 C589 1.379 . S
C584 N591 1.356 . S
C585 C584 1.363 . S
C585 C588 1.363 . S
N586 C588 1.356 . S
N586 H598 0.984 . S
N586 H599 0.985 . S
N587 C589 1.356 . S
N587 H592 0.984 . S
N587 H593 0.985 . S
C588 C582 1.379 . S
C588 C585 1.363 . S
C588 N586 1.356 . S
C589 C583 1.363 . S
C589 C584 1.379 . S
C589 N587 1.356 . S
N590 C582 1.356 . S
N590 H596 0.984 . S
N590 H597 0.984 . S
N591 C584 1.356 . S
N591 H594 0.984 . S
N591 H595 0.985 . S
H592 N587 0.984 . S
H593 N587 0.985 . S
H594 N591 0.984 . S
H595 N591 0.985 . S
H596 N590 0.984 . S
H597 N590 0.984 . S
H598 N586 0.984 . S
H599 N586 0.985 . S
C600 C601 1.363 1_565 S
C600 C606 1.379 1_455 S
C600 N608 1.356 . S
C601 C600 1.363 1_545 S
C601 C607 1.363 . S
C602 C603 1.363 1_545 S
C602 C607 1.379 1_655 S
C602 N609 1.356 . S
C603 C602 1.363 1_565 S
C603 C606 1.363 . S
N604 C606 1.356 . S
N604 H616 0.984 . S
N604 H617 0.985 . S
N605 C607 1.356 . S
N605 H610 0.984 . S
N605 H611 0.985 . S
C606 C600 1.379 1_655 S
C606 C603 1.363 . S
C606 N604 1.356 . S
C607 C601 1.363 . S
C607 C602 1.379 1_455 S
C607 N605 1.356 . S
N608 C600 1.356 . S
N608 H614 0.984 . S
N608 H615 0.984 1_565 S
N609 C602 1.356 . S
N609 H612 0.984 1_545 S
N609 H613 0.985 . S
H610 N605 0.984 . S
H611 N605 0.985 . S
H612 N609 0.984 1_565 S
H613 N609 0.985 . S
H614 N608 0.984 . S
H615 N608 0.984 1_545 S
H616 N604 0.984 . S
H617 N604 0.985 . S
C618 C619 1.363 1_565 S
C618 C624 1.379 1_655 S
C618 N626 1.356 . S
C619 C618 1.363 1_545 S
C619 C625 1.363 . S
C620 C621 1.363 1_545 S
C620 C625 1.379 1_455 S
C620 N627 1.356 . S
C621 C620 1.363 1_565 S
C621 C624 1.363 . S
N622 C624 1.356 . S
N622 H634 0.984 . S
N622 H635 0.985 . S
N623 C625 1.356 . S
N623 H628 0.984 . S
N623 H629 0.985 . S
C624 C618 1.379 1_455 S
C624 C621 1.363 . S
C624 N622 1.356 . S
C625 C619 1.363 . S
C625 C620 1.379 1_655 S
C625 N623 1.356 . S
N626 C618 1.356 . S
N626 H632 0.984 . S
N626 H633 0.984 1_565 S
N627 C620 1.356 . S
N627 H630 0.984 1_545 S
N627 H631 0.985 . S
H628 N623 0.984 . S
H629 N623 0.985 . S
H630 N627 0.984 1_565 S
H631 N627 0.985 . S
H632 N626 0.984 . S
H633 N626 0.984 1_545 S
H634 N622 0.984 . S
H635 N622 0.985 . S
C636 C637 1.363 1_554 S
C636 C642 1.391 . S
C636 N644 1.356 . S
C637 C636 1.363 1_556 S
C637 C643 1.350 1_565 S
C638 C639 1.363 1_556 S
C638 C643 1.391 . S
C638 N645 1.356 . S
C639 C638 1.363 1_554 S
C639 C642 1.350 1_545 S
N640 C642 1.352 1_545 S
N640 H652 0.984 1_545 S
N640 H653 0.985 . S
N641 C643 1.352 1_565 S
N641 H646 0.984 . S
N641 H647 0.985 1_565 S
C642 C636 1.391 . S
C642 C639 1.350 1_565 S
C642 N640 1.352 1_565 S
C643 C637 1.350 1_545 S
C643 C638 1.391 . S
C643 N641 1.352 1_545 S
N644 C636 1.356 . S
N644 H650 0.984 . S
N644 H651 0.984 . S
N645 C638 1.356 . S
N645 H648 0.984 . S
N645 H649 0.985 . S
H646 N641 0.984 . S
H647 N641 0.985 1_545 S
H648 N645 0.984 . S
H649 N645 0.985 . S
H650 N644 0.984 . S
H651 N644 0.984 . S
H652 N640 0.984 1_565 S
H653 N640 0.985 . S
C654 C655 1.363 . S
C654 C660 1.379 1_565 S
C654 N662 1.356 . S
C655 C654 1.363 . S
C655 C661 1.363 1_554 S
C656 C657 1.363 . S
C656 C661 1.379 1_545 S
C656 N663 1.356 . S
C657 C656 1.363 . S
C657 C660 1.363 1_556 S
N658 C660 1.356 1_556 S
N658 H670 0.985 1_556 S
N658 H671 0.984 . S
N659 C661 1.356 1_554 S
N659 H664 0.984 . S
N659 H665 0.985 1_554 S
C660 C654 1.379 1_545 S
C660 C657 1.363 1_554 S
C660 N658 1.356 1_554 S
C661 C655 1.363 1_556 S
C661 C656 1.379 1_565 S
C661 N659 1.356 1_556 S
N662 C654 1.356 . S
N662 H668 0.984 . S
N662 H669 0.984 . S
N663 C656 1.356 . S
N663 H666 0.984 . S
N663 H667 0.985 . S
H664 N659 0.984 . S
H665 N659 0.985 1_556 S
H666 N663 0.984 . S
H667 N663 0.985 . S
H668 N662 0.984 . S
H669 N662 0.984 . S
H670 N658 0.985 1_554 S
H671 N658 0.984 . S
C672 C673 1.363 1_455 S
C672 C678 1.379 1_556 S
C672 N680 1.356 . S
C673 C672 1.363 1_655 S
C673 C679 1.363 . S
C674 C675 1.363 1_655 S
C674 C679 1.379 1_554 S
C674 N681 1.356 . S
C675 C674 1.363 1_455 S
C675 C678 1.363 . S
N676 C678 1.356 . S
N676 H688 0.984 . S
N676 H689 0.985 . S
N677 C679 1.356 . S
N677 H682 0.984 . S
N677 H683 0.985 . S
C678 C672 1.379 1_554 S
C678 C675 1.363 . S
C678 N676 1.356 . S
C679 C673 1.363 . S
C679 C674 1.379 1_556 S
C679 N677 1.356 . S
N680 C672 1.356 . S
N680 H686 0.984 . S
N680 H687 0.984 1_455 S
N681 C674 1.356 . S
N681 H684 0.984 1_655 S
N681 H685 0.985 . S
H682 N677 0.984 . S
H683 N677 0.985 . S
H684 N681 0.984 1_455 S
H685 N681 0.985 . S
H686 N680 0.984 . S
H687 N680 0.984 1_655 S
H688 N676 0.984 . S
H689 N676 0.985 . S
C690 C691 1.363 . S
C690 C696 1.379 1_556 S
C690 N698 1.356 . S
C691 C690 1.363 . S
C691 C697 1.363 1_455 S
C692 C693 1.363 . S
C692 C697 1.379 1_554 S
C692 N699 1.356 . S
C693 C692 1.363 . S
C693 C696 1.363 1_655 S
N694 C696 1.356 . S
N694 H706 0.984 . S
N694 H707 0.985 1_455 S
N695 C697 1.356 . S
N695 H700 0.984 1_655 S
N695 H701 0.985 . S
C696 C690 1.379 1_554 S
C696 C693 1.363 1_455 S
C696 N694 1.356 . S
C697 C691 1.363 1_655 S
C697 C692 1.379 1_556 S
C697 N695 1.356 . S
N698 C690 1.356 . S
N698 H704 0.984 . S
N698 H705 0.984 . S
N699 C692 1.356 . S
N699 H702 0.984 . S
N699 H703 0.985 . S
H700 N695 0.984 1_455 S
H701 N695 0.985 . S
H702 N699 0.984 . S
H703 N699 0.985 . S
H704 N698 0.984 . S
H705 N698 0.984 . S
H706 N694 0.984 . S
H707 N694 0.985 1_655 S
C277 N81 1.289 . S
C279 N12 1.289 . S
C295 N58 1.289 . S
C297 N35 1.289 . S
C313 N127 1.289 . S
C315 N104 1.289 . S
C331 N150 1.289 . S
C333 N173 1.289 . S
C349 N219 1.289 . S
C351 N196 1.289 . S
C367 N242 1.289 . S
C369 N265 1.289 . S
C385 N2 1.593 . S
C387 C177 1.466 . S
C403 C154 1.466 . S
C405 N25 1.593 . S
C421 C131 1.466 . S
C423 N48 1.593 . S
C439 C108 1.466 . S
C441 N71 1.593 . S
C457 N94 1.593 . S
C459 C269 1.466 . S
C475 C200 1.466 . S
C477 N117 1.593 . S
C493 C246 1.466 . S
C495 N140 1.593 . S
C511 N163 1.593 . S
C513 C223 1.466 . S
C529 C62 1.466 . S
C531 N186 1.593 . S
C547 C16 1.466 . S
C549 N209 1.593 . S
C565 N232 1.593 . S
C567 C39 1.466 . S
C583 C85 1.466 . S
C585 N255 1.593 . S
C601 C7 2.040 . S
C603 C30 2.040 . S
C619 C76 2.040 . S
C621 C53 2.040 . S
C637 C145 2.040 . S
C639 C99 2.040 . S
C655 C122 2.040 . S
C657 C168 2.040 . S
C673 C237 2.040 . S
C675 C191 2.040 . S
C691 C214 2.040 . S
C693 C260 2.040 . S
