# Generated by pormake.
# Topology unb, (4)-cn, num edge types: 1
# Building blocks:
#     Node 0, Type 0, BuildingBlock: NAHDIM_clean_sbu_0, # of connection points: 4
#     Node 1, Type 0, BuildingBlock: NAHDIM_clean_sbu_0, # of connection points: 4
#     Node 2, Type 0, BuildingBlock: NAHDIM_clean_sbu_0, # of connection points: 4
#     Node 3, Type 0, BuildingBlock: NAHDIM_clean_sbu_0, # of connection points: 4
#     Node 4, Type 0, BuildingBlock: NAHDIM_clean_sbu_0, # of connection points: 4
#     Node 5, Type 0, BuildingBlock: NAHDIM_clean_sbu_0, # of connection points: 4
#     Node 6, Type 0, BuildingBlock: NAHDIM_clean_sbu_0, # of connection points: 4
#     Node 7, Type 0, BuildingBlock: NAHDIM_clean_sbu_0, # of connection points: 4
#     Node 8, Type 0, BuildingBlock: NAHDIM_clean_sbu_0, # of connection points: 4
#     Node 9, Type 0, BuildingBlock: NAHDIM_clean_sbu_0, # of connection points: 4
#     Node 10, Type 0, BuildingBlock: NAHDIM_clean_sbu_0, # of connection points: 4
#     Node 11, Type 0, BuildingBlock: NAHDIM_clean_sbu_0, # of connection points: 4
#     Node 12, Type 0, BuildingBlock: NAHDIM_clean_sbu_0, # of connection points: 4
#     Node 13, Type 0, BuildingBlock: NAHDIM_clean_sbu_0, # of connection points: 4
#     Node 14, Type 0, BuildingBlock: NAHDIM_clean_sbu_0, # of connection points: 4
#     Node 15, Type 0, BuildingBlock: NAHDIM_clean_sbu_0, # of connection points: 4
#     Node 16, Type 0, BuildingBlock: NAHDIM_clean_sbu_0, # of connection points: 4
#     Node 17, Type 0, BuildingBlock: NAHDIM_clean_sbu_0, # of connection points: 4
#     Edge 18, Type (0, 0), BuildingBlock: EZIPEK_clean_linker_0, # of connection points: 2
#     Edge 19, Type (0, 0), BuildingBlock: EZIPEK_clean_linker_0, # of connection points: 2
#     Edge 20, Type (0, 0), BuildingBlock: EZIPEK_clean_linker_0, # of connection points: 2
#     Edge 21, Type (0, 0), BuildingBlock: EZIPEK_clean_linker_0, # of connection points: 2
#     Edge 22, Type (0, 0), BuildingBlock: EZIPEK_clean_linker_0, # of connection points: 2
#     Edge 23, Type (0, 0), BuildingBlock: EZIPEK_clean_linker_0, # of connection points: 2
#     Edge 24, Type (0, 0), BuildingBlock: EZIPEK_clean_linker_0, # of connection points: 2
#     Edge 25, Type (0, 0), BuildingBlock: EZIPEK_clean_linker_0, # of connection points: 2
#     Edge 26, Type (0, 0), BuildingBlock: EZIPEK_clean_linker_0, # of connection points: 2
#     Edge 27, Type (0, 0), BuildingBlock: EZIPEK_clean_linker_0, # of connection points: 2
#     Edge 28, Type (0, 0), BuildingBlock: EZIPEK_clean_linker_0, # of connection points: 2
#     Edge 29, Type (0, 0), BuildingBlock: EZIPEK_clean_linker_0, # of connection points: 2
#     Edge 30, Type (0, 0), BuildingBlock: EZIPEK_clean_linker_0, # of connection points: 2
#     Edge 31, Type (0, 0), BuildingBlock: EZIPEK_clean_linker_0, # of connection points: 2
#     Edge 32, Type (0, 0), BuildingBlock: EZIPEK_clean_linker_0, # of connection points: 2
#     Edge 33, Type (0, 0), BuildingBlock: EZIPEK_clean_linker_0, # of connection points: 2
#     Edge 34, Type (0, 0), BuildingBlock: EZIPEK_clean_linker_0, # of connection points: 2
#     Edge 35, Type (0, 0), BuildingBlock: EZIPEK_clean_linker_0, # of connection points: 2
#     Edge 36, Type (0, 0), BuildingBlock: EZIPEK_clean_linker_0, # of connection points: 2
#     Edge 37, Type (0, 0), BuildingBlock: EZIPEK_clean_linker_0, # of connection points: 2
#     Edge 38, Type (0, 0), BuildingBlock: EZIPEK_clean_linker_0, # of connection points: 2
#     Edge 39, Type (0, 0), BuildingBlock: EZIPEK_clean_linker_0, # of connection points: 2
#     Edge 40, Type (0, 0), BuildingBlock: EZIPEK_clean_linker_0, # of connection points: 2
#     Edge 41, Type (0, 0), BuildingBlock: EZIPEK_clean_linker_0, # of connection points: 2
#     Edge 42, Type (0, 0), BuildingBlock: EZIPEK_clean_linker_0, # of connection points: 2
#     Edge 43, Type (0, 0), BuildingBlock: EZIPEK_clean_linker_0, # of connection points: 2
#     Edge 44, Type (0, 0), BuildingBlock: EZIPEK_clean_linker_0, # of connection points: 2
#     Edge 45, Type (0, 0), BuildingBlock: EZIPEK_clean_linker_0, # of connection points: 2
#     Edge 46, Type (0, 0), BuildingBlock: EZIPEK_clean_linker_0, # of connection points: 2
#     Edge 47, Type (0, 0), BuildingBlock: EZIPEK_clean_linker_0, # of connection points: 2
#     Edge 48, Type (0, 0), BuildingBlock: EZIPEK_clean_linker_0, # of connection points: 2
#     Edge 49, Type (0, 0), BuildingBlock: EZIPEK_clean_linker_0, # of connection points: 2
#     Edge 50, Type (0, 0), BuildingBlock: EZIPEK_clean_linker_0, # of connection points: 2
#     Edge 51, Type (0, 0), BuildingBlock: EZIPEK_clean_linker_0, # of connection points: 2
#     Edge 52, Type (0, 0), BuildingBlock: EZIPEK_clean_linker_0, # of connection points: 2
#     Edge 53, Type (0, 0), BuildingBlock: EZIPEK_clean_linker_0, # of connection points: 2
# Relax obj value: 0.064
# Max RMSD: 0.063
# Mean RMSD: 0.063
data_MOF--net-unb--node1-NAHDIM_clean_sbu_0--edge1-EZIPEK_clean_linker_0
_symmetry_space_group_name_H-M    P1
_symmetry_Int_Tables_number       1
_symmetry_cell_setting            triclinic
loop_
_symmetry_equiv_pos_as_xyz
'x, y, z'
_cell_length_a     47.254163
_cell_length_b     47.328371
_cell_length_c     19.074947
_cell_angle_alpha  90.047066
_cell_angle_beta   90.02912
_cell_angle_gamma 120.0685
loop_
_atom_site_label
_atom_site_type_symbol
_atom_site_fract_x
_atom_site_fract_y
_atom_site_fract_z
_atom_type_partial_charge
C0 C 0.14033 0.29003 0.23345 0.0
O1 O 0.11002 0.26576 0.2362 0.0
O2 O 0.15601 0.23693 0.07535 0.0
Zn3 Zn 0.13911 0.2683 0.08761 0.0
O4 O 0.08978 0.24445 0.07913 0.0
C5 C 0.14318 0.28955 0.94521 0.0
O6 O 0.11518 0.2622 0.93934 0.0
O7 O 0.15668 0.29515 0.17723 0.0
C8 C 0.07417 0.25983 0.07577 0.0
O9 O 0.08986 0.29159 0.08558 0.0
C10 C 0.14228 0.21417 0.03026 0.0
O11 O 0.11537 0.20909 0.99912 0.0
O12 O 0.15739 0.29812 0.00445 0.0
C13 C 0.72092 0.86969 0.16996 0.0
O14 O 0.75161 0.89196 0.18096 0.0
O15 O 0.7702 0.92547 0.02444 0.0
Zn16 Zn 0.74153 0.87619 0.02343 0.0
O17 O 0.76907 0.85453 0.01643 0.0
C18 C 0.72837 0.87214 0.87672 0.0
O19 O 0.76038 0.88739 0.87384 0.0
O20 O 0.71137 0.8594 0.10797 0.0
C21 C 0.75634 0.82623 0.98924 0.0
O22 O 0.72538 0.811 0.97098 0.0
C23 C 0.799 0.93925 0.99931 0.0
O24 O 0.81132 0.92145 0.9769 0.0
O25 O 0.71407 0.86472 0.93584 0.0
C26 C 0.1303 0.84453 0.24211 0.0
O27 O 0.09973 0.83746 0.24742 0.0
O28 O 0.08099 0.84726 0.09313 0.0
Zn29 Zn 0.13002 0.87153 0.10307 0.0
O30 O 0.14957 0.92021 0.09689 0.0
C31 C 0.12894 0.84674 0.96507 0.0
O32 O 0.0994 0.84275 0.96224 0.0
O33 O 0.14669 0.85887 0.18774 0.0
C34 C 0.14218 0.93158 0.04411 0.0
O35 O 0.12016 0.91152 0.99931 0.0
C36 C 0.06072 0.85603 0.11142 0.0
O37 O 0.07072 0.88279 0.14848 0.0
O38 O 0.1465 0.85876 0.01944 0.0
C39 C 0.27448 0.14843 0.76679 0.0
O40 O 0.24542 0.14557 0.76217 0.0
O41 O 0.23214 0.15399 0.92721 0.0
Zn42 Zn 0.25693 0.1298 0.91395 0.0
O43 O 0.2273 0.08078 0.91972 0.0
C44 C 0.28132 0.1518 0.05299 0.0
O45 O 0.25472 0.15388 0.05832 0.0
O46 O 0.28393 0.1428 0.82484 0.0
C47 C 0.21135 0.0688 0.97607 0.0
O48 O 0.21271 0.08836 0.02633 0.0
C49 C 0.20143 0.14178 0.92111 0.0
O50 O 0.18347 0.112 0.89669 0.0
O51 O 0.28781 0.14241 0.9958 0.0
C52 C 0.86155 0.14871 0.80259 0.0
O53 O 0.87624 0.13175 0.79185 0.0
O54 O 0.85533 0.09317 0.94718 0.0
Zn55 Zn 0.87423 0.14193 0.94894 0.0
O56 O 0.92367 0.1659 0.95872 0.0
C57 C 0.8597 0.13802 0.09279 0.0
O58 O 0.87472 0.12105 0.09141 0.0
O59 O 0.85855 0.15648 0.86483 0.0
C60 C 0.93764 0.1923 0.99393 0.0
O61 O 0.92028 0.20474 0.01847 0.0
C62 C 0.87188 0.07889 0.95388 0.0
O63 O 0.90395 0.09617 0.95587 0.0
O64 O 0.85605 0.15016 0.03646 0.0
C65 C 0.86039 0.72372 0.77008 0.0
O66 O 0.86432 0.75314 0.76466 0.0
O67 O 0.9228 0.7685 0.93807 0.0
Zn68 Zn 0.87454 0.74126 0.91768 0.0
O69 O 0.85443 0.76988 0.91721 0.0
C70 C 0.86014 0.69031 0.02081 0.0
O71 O 0.88012 0.68423 0.98458 0.0
O72 O 0.864 0.7137 0.82943 0.0
C73 C 0.8236 0.75575 0.9249 0.0
O74 O 0.80638 0.7237 0.92471 0.0
C75 C 0.92976 0.7817 0.99848 0.0
O76 O 0.90611 0.77781 0.04062 0.0
O77 O 0.85427 0.71238 1.00069 0.0
C78 C 0.82511 0.6439 0.51847 0.0
O79 O 0.84791 0.65223 0.47063 0.0
O80 O 0.80302 0.56548 0.40565 0.0
Zn81 Zn 0.78534 0.59672 0.4125 0.0
O82 O 0.73669 0.57526 0.39277 0.0
C83 C 0.79721 0.6198 0.27348 0.0
O84 O 0.77123 0.59103 0.26411 0.0
O85 O 0.79642 0.62031 0.50634 0.0
C86 C 0.7146 0.54708 0.41229 0.0
O87 O 0.72239 0.52891 0.45053 0.0
C88 C 0.79233 0.54263 0.36041 0.0
O89 O 0.76685 0.53641 0.32201 0.0
O90 O 0.80792 0.62931 0.3352 0.0
C91 C 0.35668 0.18767 0.51941 0.0
O92 O 0.34904 0.20189 0.46974 0.0
O93 O 0.42833 0.24398 0.40632 0.0
Zn94 Zn 0.40322 0.19444 0.41573 0.0
O95 O 0.43293 0.17489 0.40478 0.0
C96 C 0.37267 0.18832 0.28086 0.0
O97 O 0.40132 0.21324 0.26485 0.0
O98 O 0.37999 0.18197 0.50964 0.0
C99 C 0.43897 0.16675 0.34534 0.0
O100 O 0.42645 0.17148 0.28827 0.0
C101 C 0.45385 0.25863 0.36858 0.0
O102 O 0.46577 0.24186 0.33883 0.0
O103 O 0.36776 0.17573 0.34157 0.0
C104 C 0.80466 0.18061 0.56689 0.0
O105 O 0.77322 0.16309 0.5534 0.0
O106 O 0.75826 0.19118 0.42557 0.0
Zn107 Zn 0.80777 0.21303 0.43354 0.0
O108 O 0.8295 0.26186 0.41726 0.0
C109 C 0.81321 0.16533 0.34796 0.0
O110 O 0.79244 0.14371 0.39233 0.0
O111 O 0.82318 0.20333 0.52507 0.0
C112 C 0.83717 0.27272 0.35496 0.0
O113 O 0.82993 0.25221 0.3026 0.0
C114 C 0.74593 0.18894 0.36502 0.0
O115 O 0.76526 0.20157 0.31069 0.0
O116 O 0.82322 0.19543 0.35667 0.0
C117 C 0.94543 0.47346 0.1123 0.0
O118 O 0.91851 0.44501 0.10673 0.0
O119 O 0.89416 0.49446 0.26872 0.0
Zn120 Zn 0.92341 0.47485 0.25621 0.0
O121 O 0.89742 0.42566 0.26422 0.0
C122 C 0.94547 0.48818 0.39828 0.0
O123 O 0.9142 0.47567 0.41141 0.0
O124 O 0.95108 0.48996 0.16838 0.0
C125 C 0.91079 0.41076 0.29166 0.0
O126 O 0.94182 0.42718 0.30925 0.0
C127 C 0.86506 0.4777 0.29178 0.0
O128 O 0.85241 0.44623 0.30222 0.0
O129 O 0.95525 0.49097 0.33545 0.0
C130 C 0.51953 0.48011 0.13643 0.0
O131 O 0.55016 0.48712 0.13797 0.0
O132 O 0.49916 0.40729 0.28329 0.0
Zn133 Zn 0.51672 0.45557 0.27919 0.0
O134 O 0.56579 0.47848 0.29126 0.0
C135 C 0.48725 0.4465 0.4156 0.0
O136 O 0.48656 0.41846 0.41266 0.0
O137 O 0.50148 0.46723 0.18981 0.0
C138 C 0.58054 0.50299 0.33181 0.0
O139 O 0.56434 0.51586 0.36052 0.0
C140 C 0.5165 0.39371 0.28222 0.0
O141 O 0.54787 0.41108 0.26813 0.0
O142 O 0.49816 0.4661 0.36391 0.0
C143 C 0.54412 0.02882 0.13019 0.0
O144 O 0.56377 0.02361 0.16987 0.0
O145 O 0.5939 0.09519 0.26234 0.0
Zn146 Zn 0.54442 0.06754 0.24964 0.0
O147 O 0.52208 0.09466 0.26109 0.0
C148 C 0.53675 0.03526 0.38352 0.0
O149 O 0.56023 0.06413 0.40325 0.0
O150 O 0.53337 0.04701 0.15252 0.0
C151 C 0.51182 0.09891 0.31966 0.0
O152 O 0.51629 0.08632 0.37689 0.0
C153 C 0.60709 0.11942 0.30418 0.0
O154 O 0.58867 0.12831 0.33814 0.0
O155 O 0.52619 0.03076 0.32084 0.0
C156 C 0.50619 0.96932 0.85444 0.0
O157 O 0.51426 0.98893 0.80021 0.0
O158 O 0.49899 0.89099 0.72471 0.0
Zn159 Zn 0.47825 0.91851 0.747 0.0
O160 O 0.4292 0.89148 0.73592 0.0
C161 C 0.48864 0.94305 0.61023 0.0
O162 O 0.4725 0.91161 0.59782 0.0
O163 O 0.49088 0.93854 0.84488 0.0
C164 C 0.41192 0.90514 0.73487 0.0
O165 O 0.42583 0.93677 0.74508 0.0
C166 C 0.48372 0.86372 0.69278 0.0
O167 O 0.45251 0.85117 0.67834 0.0
O168 O 0.49457 0.95335 0.67298 0.0
C169 C 0.04534 0.52167 0.89589 0.0
O170 O 0.07014 0.5165 0.89959 0.0
O171 O 0.09983 0.59798 0.74834 0.0
Zn172 Zn 0.07047 0.54903 0.75553 0.0
O173 O 0.09905 0.5284 0.75017 0.0
C174 C 0.04233 0.52435 0.6152 0.0
O175 O 0.06816 0.52175 0.60227 0.0
O176 O 0.04203 0.53569 0.8423 0.0
C177 C 0.08785 0.4987 0.73317 0.0
O178 O 0.05621 0.47968 0.72428 0.0
C179 C 0.11626 0.60807 0.69194 0.0
O180 O 0.11338 0.58691 0.64404 0.0
O181 O 0.03895 0.53484 0.67409 0.0
C182 C 0.46487 0.5009 0.88174 0.0
O183 O 0.44639 0.47577 0.84142 0.0
O184 O 0.41056 0.52125 0.75571 0.0
Zn185 Zn 0.45912 0.53714 0.76529 0.0
O186 O 0.4877 0.58448 0.73766 0.0
C187 C 0.44681 0.4876 0.66186 0.0
O188 O 0.41605 0.47568 0.67955 0.0
O189 O 0.47248 0.52946 0.86152 0.0
C190 C 0.49007 0.59196 0.67299 0.0
O191 O 0.47202 0.56936 0.62696 0.0
C192 C 0.39854 0.53784 0.7305 0.0
O193 O 0.41766 0.56904 0.71745 0.0
O194 O 0.46916 0.51227 0.6938 0.0
C195 C 0.6336 0.82548 0.41001 0.0
O196 O 0.6256 0.84621 0.43614 0.0
O197 O 0.57382 0.80971 0.54967 0.0
Zn198 Zn 0.60058 0.78772 0.5348 0.0
O199 O 0.57141 0.73924 0.55046 0.0
C200 C 0.6518 0.83481 0.6226 0.0
O201 O 0.65095 0.85571 0.57865 0.0
O202 O 0.62442 0.79847 0.44117 0.0
C203 C 0.5827 0.72155 0.57291 0.0
O204 O 0.61438 0.73423 0.58104 0.0
C205 C 0.55459 0.79961 0.60211 0.0
O206 O 0.55162 0.77477 0.63853 0.0
O207 O 0.63344 0.80437 0.61257 0.0
C208 C 0.19159 0.80793 0.45947 0.0
O209 O 0.19544 0.7824 0.45376 0.0
O210 O 0.18898 0.76157 0.61436 0.0
Zn211 Zn 0.21198 0.81063 0.6057 0.0
O212 O 0.26119 0.8334 0.61966 0.0
C213 C 0.18459 0.80981 0.73967 0.0
O214 O 0.18746 0.78388 0.74912 0.0
O215 O 0.19868 0.82378 0.51667 0.0
C216 C 0.27308 0.82915 0.67597 0.0
O217 O 0.25344 0.80818 0.72272 0.0
C218 C 0.20163 0.74349 0.61923 0.0
O219 O 0.23338 0.75615 0.61287 0.0
O220 O 0.19366 0.82538 0.68229 0.0
C221 C 0.19763 0.37082 0.4812 0.0
O222 O 0.21841 0.36695 0.51999 0.0
O223 O 0.25009 0.44213 0.6115 0.0
Zn224 Zn 0.20085 0.41374 0.59598 0.0
O225 O 0.17668 0.43872 0.60997 0.0
C226 C 0.20097 0.36885 0.69994 0.0
O227 O 0.23058 0.37818 0.67715 0.0
O228 O 0.18804 0.39026 0.50159 0.0
C229 C 0.17073 0.44383 0.67236 0.0
O230 O 0.18218 0.43486 0.72527 0.0
C231 C 0.26307 0.47026 0.63991 0.0
O232 O 0.24498 0.48332 0.65436 0.0
O233 O 0.1842 0.38004 0.67211 0.0
C234 C 0.16733 0.31581 0.42246 0.0
C235 C 0.18316 0.35038 0.41732 0.0
C236 C 0.16823 0.34524 0.29255 0.0
C237 C 0.15558 0.31098 0.29627 0.0
N238 N 0.14941 0.26463 0.36182 0.0
N239 N 0.20372 0.39834 0.34452 0.0
C240 C 0.15692 0.29653 0.36043 0.0
C241 C 0.18499 0.36522 0.3515 0.0
N242 N 0.16072 0.30117 0.48682 0.0
N243 N 0.16307 0.3586 0.23383 0.0
H244 H 0.21675 0.41376 0.38606 0.0
H245 H 0.20878 0.41022 0.29632 0.0
H246 H 0.15047 0.34481 0.19004 0.0
H247 H 0.16859 0.38281 0.23102 0.0
H248 H 0.14631 0.27603 0.49376 0.0
H249 H 0.1666 0.31422 0.53373 0.0
H250 H 0.15335 0.25386 0.40553 0.0
H251 H 0.14237 0.24982 0.31732 0.0
C252 C 0.68539 0.83546 0.35005 0.0
C253 C 0.65495 0.83467 0.34696 0.0
C254 C 0.66855 0.85863 0.22904 0.0
C255 C 0.6976 0.85668 0.22977 0.0
N256 N 0.72969 0.83615 0.28485 0.0
N257 N 0.61453 0.83898 0.27784 0.0
C258 C 0.70486 0.843 0.28852 0.0
C259 C 0.64563 0.84434 0.28471 0.0
N260 N 0.69666 0.83075 0.41247 0.0
N261 N 0.66352 0.87551 0.17708 0.0
H262 H 0.59685 0.82797 0.31686 0.0
H263 H 0.60532 0.84242 0.23098 0.0
H264 H 0.67999 0.88708 0.13624 0.0
H265 H 0.64456 0.88072 0.17811 0.0
H266 H 0.72022 0.83458 0.41906 0.0
H267 H 0.68381 0.82617 0.45941 0.0
H268 H 0.73388 0.82308 0.32338 0.0
H269 H 0.74401 0.84052 0.24014 0.0
C270 C 0.14489 0.79355 0.3764 0.0
C271 C 0.17635 0.81682 0.40196 0.0
C272 C 0.17548 0.85907 0.3292 0.0
C273 C 0.14571 0.83505 0.2982 0.0
N274 N 0.1057 0.77805 0.28183 0.0
N275 N 0.22438 0.87022 0.39284 0.0
C276 C 0.13138 0.80187 0.31884 0.0
C277 C 0.19246 0.84919 0.37555 0.0
N278 N 0.12713 0.76404 0.40902 0.0
N279 N 0.18689 0.89146 0.31672 0.0
H280 H 0.23789 0.86366 0.42544 0.0
H281 H 0.23839 0.89299 0.36944 0.0
H282 H 0.17472 0.89979 0.28464 0.0
H283 H 0.20661 0.91012 0.34358 0.0
H284 H 0.10272 0.74767 0.39713 0.0
H285 H 0.13553 0.75716 0.45267 0.0
H286 H 0.09666 0.75322 0.29005 0.0
H287 H 0.09548 0.78291 0.23829 0.0
C288 C 0.30468 0.14873 0.58122 0.0
C289 C 0.33659 0.17646 0.58405 0.0
C290 C 0.32731 0.1867 0.70572 0.0
C291 C 0.29612 0.15785 0.70428 0.0
N292 N 0.25769 0.10795 0.64577 0.0
N293 N 0.38051 0.21903 0.6511 0.0
C294 C 0.28545 0.13793 0.64332 0.0
C295 C 0.34865 0.19447 0.64716 0.0
N296 N 0.29262 0.13282 0.51894 0.0
N297 N 0.33583 0.20763 0.76145 0.0
H298 H 0.39647 0.2262 0.60853 0.0
H299 H 0.39185 0.23065 0.69772 0.0
H300 H 0.32069 0.2032 0.8047 0.0
H301 H 0.35661 0.23072 0.76237 0.0
H302 H 0.26822 0.11511 0.51133 0.0
H303 H 0.30657 0.13868 0.47327 0.0
H304 H 0.25046 0.09077 0.60565 0.0
H305 H 0.24328 0.09889 0.69061 0.0
C306 C 0.81319 0.14023 0.63625 0.0
C307 C 0.81894 0.17252 0.62793 0.0
C308 C 0.85544 0.18996 0.73033 0.0
C309 C 0.8468 0.15702 0.74286 0.0
N310 N 0.81149 0.09983 0.71641 0.0
N311 N 0.84064 0.22685 0.67512 0.0
C312 C 0.82398 0.13185 0.69826 0.0
C313 C 0.83874 0.19708 0.67723 0.0
N314 N 0.7988 0.11785 0.58358 0.0
N315 N 0.88048 0.21462 0.76712 0.0
H316 H 0.82819 0.23279 0.63818 0.0
H317 H 0.85194 0.24449 0.71406 0.0
H318 H 0.89377 0.21052 0.80542 0.0
H319 H 0.89012 0.23921 0.75503 0.0
H320 H 0.79719 0.09507 0.58407 0.0
H321 H 0.79159 0.12316 0.53608 0.0
H322 H 0.79227 0.08064 0.6895 0.0
H323 H 0.81787 0.09253 0.76248 0.0
C324 C 0.86983 0.68835 0.68518 0.0
C325 C 0.85049 0.7019 0.70769 0.0
C326 C 0.81512 0.67845 0.60455 0.0
C327 C 0.83282 0.66269 0.58518 0.0
N328 N 0.87259 0.64697 0.61545 0.0
N329 N 0.80036 0.70346 0.69766 0.0
C330 C 0.85891 0.666 0.62798 0.0
C331 C 0.82184 0.69509 0.66993 0.0
N332 N 0.89937 0.69794 0.7162 0.0
N333 N 0.79297 0.67896 0.55919 0.0
H334 H 0.8039 0.71488 0.74625 0.0
H335 H 0.77746 0.69608 0.67593 0.0
H336 H 0.78774 0.66776 0.51009 0.0
H337 H 0.78208 0.69314 0.56739 0.0
H338 H 0.91608 0.69161 0.69694 0.0
H339 H 0.90862 0.71471 0.75731 0.0
H340 H 0.88933 0.64585 0.64921 0.0
H341 H 0.86482 0.62983 0.57501 0.0
C342 C 0.98257 0.46538 0.03015 0.0
C343 C 0.97044 0.4855 0.05569 0.0
C344 C 0.01057 0.53067 0.98309 0.0
C345 C 0.01995 0.50938 0.9517 0.0
N346 N 0.0089 0.45416 0.93417 0.0
N347 N 0.96848 0.53534 0.0455 0.0
C348 C 0.00429 0.47606 0.97205 0.0
C349 C 0.98321 0.51764 0.02907 0.0
N350 N 0.97471 0.43676 0.06322 0.0
N351 N 0.02853 0.56353 0.97132 0.0
H352 H 0.94778 0.52633 0.07721 0.0
H353 H 0.97473 0.55757 0.02192 0.0
H354 H 0.04932 0.5742 0.93973 0.0
H355 H 0.02476 0.58048 0.99848 0.0
H356 H 0.98563 0.42295 0.05095 0.0
H357 H 0.96 0.42852 0.10774 0.0
H358 H 0.99544 0.42905 0.94269 0.0
H359 H 0.02349 0.46054 0.88946 0.0
C360 C 0.50725 0.47135 0.0074 0.0
C361 C 0.50558 0.48571 0.07147 0.0
C362 C 0.4745 0.50772 0.01246 0.0
C363 C 0.47918 0.49619 0.94718 0.0
N364 N 0.50684 0.47372 0.8808 0.0
N365 N 0.49293 0.52272 0.13247 0.0
C366 C 0.49746 0.47984 0.94413 0.0
C367 C 0.49064 0.50533 0.07338 0.0
N368 N 0.51687 0.44849 0.00709 0.0
N369 N 0.45365 0.51979 0.01696 0.0
H370 H 0.50502 0.52211 0.17769 0.0
H371 H 0.48556 0.54008 0.13443 0.0
H372 H 0.441 0.52149 0.97387 0.0
H373 H 0.44659 0.5253 0.0644 0.0
H374 H 0.51517 0.43475 0.96294 0.0
H375 H 0.52334 0.44079 0.05245 0.0
H376 H 0.52295 0.46484 0.87584 0.0
H377 H 0.50148 0.48081 0.83321 0.0
C378 C 0.50104 0.98991 0.04616 0.0
C379 C 0.5343 0.01323 0.05993 0.0
C380 C 0.54934 0.0041 0.94238 0.0
C381 C 0.51575 0.98336 0.92613 0.0
N382 N 0.45908 0.96032 0.95872 0.0
N383 N 0.58948 0.04654 0.01782 0.0
C384 C 0.49141 0.97718 0.97707 0.0
C385 C 0.55831 0.02138 0.00715 0.0
N386 N 0.47882 0.97902 0.09968 0.0
N387 N 0.57278 0.00635 0.89699 0.0
H388 H 0.59697 0.05994 0.06432 0.0
H389 H 0.60711 0.05605 0.97852 0.0
H390 H 0.56722 0.99364 0.84961 0.0
H391 H 0.5976 0.01829 0.90914 0.0
H392 H 0.45507 0.95946 0.09468 0.0
H393 H 0.48491 0.98762 0.15099 0.0
H394 H 0.4404 0.95819 0.99118 0.0
H395 H 0.45099 0.95073 0.90869 0.0
C396 C 0.16725 0.3431 0.88283 0.0
C397 C 0.15863 0.30979 0.88254 0.0
C398 C 0.17786 0.31496 0.76119 0.0
C399 C 0.18852 0.34873 0.7637 0.0
N400 N 0.20096 0.3965 0.83176 0.0
N401 N 0.16112 0.26521 0.82649 0.0
C402 C 0.18546 0.36328 0.82603 0.0
C403 C 0.16538 0.29597 0.82307 0.0
N404 N 0.15677 0.35517 0.93567 0.0
N405 N 0.17879 0.30088 0.69928 0.0
H406 H 0.15209 0.25041 0.87068 0.0
H407 H 0.16914 0.25535 0.78777 0.0
H408 H 0.18876 0.31427 0.65352 0.0
H409 H 0.16773 0.27574 0.69203 0.0
H410 H 0.15946 0.3784 0.93452 0.0
H411 H 0.1425 0.34095 0.97739 0.0
H412 H 0.20224 0.40859 0.87834 0.0
H413 H 0.21552 0.41198 0.79183 0.0
C414 C 0.66894 0.86634 0.7356 0.0
C415 C 0.67294 0.84639 0.68544 0.0
C416 C 0.71157 0.8416 0.76318 0.0
C417 C 0.70923 0.86327 0.81113 0.0
N418 N 0.69088 0.90136 0.83747 0.0
N419 N 0.70307 0.8209 0.64429 0.0
C420 C 0.68938 0.87712 0.79581 0.0
C421 C 0.69572 0.83569 0.69717 0.0
N422 N 0.64468 0.87382 0.72752 0.0
N423 N 0.72784 0.82564 0.78177 0.0
H424 H 0.69246 0.81679 0.59462 0.0
H425 H 0.72195 0.81563 0.64731 0.0
H426 H 0.73954 0.82903 0.82995 0.0
H427 H 0.72729 0.80687 0.75216 0.0
H428 H 0.63806 0.8848 0.76656 0.0
H429 H 0.6292 0.86673 0.68415 0.0
H430 H 0.67991 0.91503 0.82441 0.0
H431 H 0.70544 0.90986 0.88228 0.0
C432 C 0.12672 0.80464 0.88272 0.0
C433 C 0.142 0.83765 0.90469 0.0
C434 C 0.18594 0.85252 0.81987 0.0
C435 C 0.16948 0.8199 0.7945 0.0
N436 N 0.12008 0.76722 0.78937 0.0
N437 N 0.18133 0.89429 0.8835 0.0
C438 C 0.13864 0.79656 0.82233 0.0
C439 C 0.17023 0.86202 0.87012 0.0
N440 N 0.10163 0.78081 0.9209 0.0
N441 N 0.21705 0.87411 0.79841 0.0
H442 H 0.1697 0.90211 0.91845 0.0
H443 H 0.19989 0.91321 0.85479 0.0
H444 H 0.22966 0.86835 0.76164 0.0
H445 H 0.23145 0.89691 0.82155 0.0
H446 H 0.09208 0.75597 0.91152 0.0
H447 H 0.09225 0.78567 0.96587 0.0
H448 H 0.09605 0.75067 0.80356 0.0
H449 H 0.1273 0.76085 0.74314 0.0
C450 C 0.33452 0.19773 0.2084 0.0
C451 C 0.34597 0.17652 0.22909 0.0
C452 C 0.31052 0.13652 0.1417 0.0
C453 C 0.30334 0.16007 0.11389 0.0
N454 N 0.31258 0.21514 0.11433 0.0
N455 N 0.34682 0.12637 0.21351 0.0
C456 C 0.31632 0.19123 0.14563 0.0
C457 C 0.33439 0.14595 0.19551 0.0
N458 N 0.34005 0.22344 0.25025 0.0
N459 N 0.29359 0.10489 0.11884 0.0
H460 H 0.36337 0.13187 0.25453 0.0
H461 H 0.34227 0.10572 0.18505 0.0
H462 H 0.27524 0.09686 0.081 0.0
H463 H 0.29549 0.086 0.14205 0.0
H464 H 0.32993 0.23821 0.24076 0.0
H465 H 0.35142 0.2274 0.29902 0.0
H466 H 0.32449 0.23926 0.13176 0.0
H467 H 0.30024 0.21177 0.06698 0.0
C468 C 0.81336 0.13006 0.16925 0.0
C469 C 0.84745 0.14322 0.15976 0.0
C470 C 0.85775 0.16475 0.27948 0.0
C471 C 0.82422 0.15506 0.28575 0.0
N472 N 0.7705 0.13228 0.23416 0.0
N473 N 0.9028 0.17663 0.20156 0.0
C474 C 0.80201 0.13852 0.23019 0.0
C475 C 0.86989 0.16136 0.21389 0.0
N476 N 0.7918 0.10873 0.12101 0.0
N477 N 0.8778 0.17658 0.33674 0.0
H478 H 0.9127 0.17502 0.15393 0.0
H479 H 0.92029 0.19315 0.23629 0.0
H480 H 0.86958 0.17921 0.38576 0.0
H481 H 0.9017 0.18094 0.33745 0.0
H482 H 0.76661 0.09565 0.12877 0.0
H483 H 0.79922 0.10182 0.07579 0.0
H484 H 0.75431 0.1238 0.192 0.0
H485 H 0.76117 0.13797 0.27801 0.0
C486 C 0.8101 0.65777 0.09377 0.0
C487 C 0.84441 0.67198 0.08558 0.0
C488 C 0.84789 0.65083 0.20042 0.0
C489 C 0.81425 0.63983 0.21158 0.0
N490 N 0.76516 0.63958 0.17534 0.0
N491 N 0.89698 0.68863 0.13846 0.0
C492 C 0.79587 0.64531 0.16013 0.0
C493 C 0.86366 0.67038 0.14093 0.0
N494 N 0.79086 0.65487 0.03754 0.0
N495 N 0.86456 0.64151 0.24449 0.0
H496 H 0.90952 0.70415 0.09701 0.0
H497 H 0.91195 0.69094 0.1808 0.0
H498 H 0.85402 0.62667 0.28813 0.0
H499 H 0.88807 0.64594 0.23381 0.0
H500 H 0.7654 0.64187 0.03936 0.0
H501 H 0.80012 0.66234 0.98711 0.0
H502 H 0.75199 0.64621 0.14201 0.0
H503 H 0.75428 0.63146 0.22433 0.0
C504 C 0.96547 0.4746 0.50779 0.0
C505 C 0.96928 0.49781 0.45608 0.0
C506 C 0.02241 0.53735 0.50552 0.0
C507 C 0.01716 0.51529 0.56082 0.0
N508 N 0.98178 0.46503 0.62167 0.0
N509 N 0.99779 0.55338 0.41408 0.0
C510 C 0.98798 0.48461 0.56437 0.0
C511 C 0.99679 0.52982 0.4572 0.0
N512 N 0.94164 0.44259 0.50073 0.0
N513 N 0.05203 0.56524 0.49847 0.0
H514 H 0.97898 0.54905 0.37935 0.0
H515 H 0.01566 0.57794 0.41763 0.0
H516 H 0.07132 0.57178 0.53337 0.0
H517 H 0.0584 0.5805 0.45493 0.0
H518 H 0.94002 0.42402 0.53273 0.0
H519 H 0.92526 0.43387 0.45885 0.0
H520 H 0.95929 0.44411 0.63069 0.0
H521 H 0.99826 0.47097 0.66302 0.0
C522 C 0.47632 0.46186 0.60686 0.0
C523 C 0.45532 0.47494 0.59958 0.0
C524 C 0.45133 0.46444 0.47332 0.0
C525 C 0.4756 0.45532 0.47929 0.0
N526 N 0.51489 0.44977 0.55072 0.0
N527 N 0.42705 0.49398 0.52475 0.0
C528 C 0.48903 0.45504 0.54584 0.0
C529 C 0.44384 0.4776 0.53254 0.0
N530 N 0.48339 0.4551 0.67209 0.0
N531 N 0.43451 0.45939 0.41189 0.0
H532 H 0.42136 0.50439 0.56661 0.0
H533 H 0.42138 0.49984 0.47608 0.0
H534 H 0.43858 0.44889 0.36776 0.0
H535 H 0.41427 0.46248 0.40693 0.0
H536 H 0.49579 0.44239 0.68051 0.0
H537 H 0.47409 0.45942 0.71788 0.0
H538 H 0.52802 0.45313 0.59684 0.0
H539 H 0.52519 0.44479 0.5076 0.0
C540 C 0.48172 0.97968 0.52688 0.0
C541 C 0.50057 0.96595 0.55093 0.0
C542 C 0.54165 0.99512 0.46014 0.0
C543 C 0.52255 0.00852 0.43537 0.0
N544 N 0.47158 0.00859 0.4344 0.0
N545 N 0.5454 0.95588 0.53579 0.0
C546 C 0.49164 0.99922 0.46543 0.0
C547 C 0.52966 0.97225 0.51609 0.0
N548 N 0.45467 0.97448 0.56365 0.0
N549 N 0.57137 0.00453 0.43028 0.0
H550 H 0.53798 0.93984 0.57822 0.0
H551 H 0.56464 0.95654 0.50792 0.0
H552 H 0.57938 0.01868 0.38495 0.0
H553 H 0.58853 0.99926 0.45124 0.0
H554 H 0.44192 0.98671 0.55375 0.0
H555 H 0.44609 0.95942 0.60761 0.0
H556 H 0.44752 0.0002 0.44961 0.0
H557 H 0.47797 0.02255 0.3889 0.0
C558 C 0.18522 0.21143 0.95863 0.0
C559 C 0.15848 0.19615 0.0058 0.0
C560 C 0.1617 0.14615 0.00213 0.0
C561 C 0.18591 0.1601 0.9488 0.0
N562 N 0.21677 0.20408 0.86769 0.0
N563 N 0.11818 0.14782 0.06573 0.0
C564 C 0.19672 0.1923 0.92487 0.0
C565 C 0.14567 0.16309 0.02521 0.0
N566 N 0.19976 0.24422 0.94623 0.0
N567 N 0.15542 0.11774 0.03398 0.0
H568 H 0.10675 0.1599 0.08679 0.0
H569 H 0.10546 0.12272 0.07449 0.0
H570 H 0.16772 0.10535 0.02131 0.0
H571 H 0.14055 0.10824 0.07797 0.0
H572 H 0.22151 0.25731 0.91842 0.0
H573 H 0.19154 0.25898 0.96823 0.0
H574 H 0.22265 0.226 0.84315 0.0
H575 H 0.22503 0.1905 0.84035 0.0
C576 C 0.86063 0.02946 0.025 0.0
C577 C 0.85453 0.043 0.9642 0.0
C578 C 0.80946 0.98889 0.93149 0.0
C579 C 0.81751 0.97502 0.98864 0.0
N580 N 0.85363 0.98097 0.0839 0.0
N581 N 0.82767 0.03475 0.85228 0.0
C582 C 0.84411 0.99496 0.03337 0.0
C583 C 0.83013 0.02247 0.91544 0.0
N584 N 0.88066 0.04946 0.07688 0.0
N585 N 0.78193 0.97007 0.89277 0.0
H586 H 0.84311 0.05898 0.83757 0.0
H587 H 0.81263 0.02032 0.81166 0.0
H588 H 0.7666 0.94521 0.90162 0.0
H589 H 0.7728 0.97958 0.85567 0.0
H590 H 0.88303 0.04096 0.12563 0.0
H591 H 0.89269 0.07483 0.07422 0.0
H592 H 0.87522 0.99386 0.11248 0.0
H593 H 0.84113 0.95594 0.09395 0.0
C594 C 0.97978 0.83548 0.02414 0.0
C595 C 0.96401 0.80096 0.02265 0.0
C596 C 0.00934 0.80278 0.08846 0.0
C597 C 0.02671 0.8374 0.08404 0.0
N598 N 0.03143 0.88591 0.03038 0.0
N599 N 0.96696 0.752 0.03867 0.0
C600 C 0.01273 0.85366 0.04747 0.0
C601 C 0.97983 0.78467 0.05009 0.0
N602 N 0.96342 0.85097 0.00285 0.0
N603 N 0.02025 0.7872 0.13163 0.0
H604 H 0.9457 0.73815 0.00955 0.0
H605 H 0.97909 0.73946 0.0519 0.0
H606 H 0.04095 0.79964 0.16317 0.0
H607 H 0.00685 0.76223 0.14186 0.0
H608 H 0.97243 0.87585 0.01053 0.0
H609 H 0.93988 0.83859 0.98177 0.0
H610 H 0.02327 0.89805 0.99789 0.0
H611 H 0.05626 0.89965 0.04169 0.0
C612 C 0.81086 0.80013 0.8978 0.0
C613 C 0.80778 0.77502 0.94312 0.0
C614 C 0.77144 0.78404 0.02004 0.0
C615 C 0.77609 0.81039 0.97688 0.0
N616 N 0.80572 0.84818 0.88363 0.0
N617 N 0.79191 0.74853 0.0561 0.0
C618 C 0.79764 0.81998 0.91868 0.0
C619 C 0.7899 0.76842 0.00673 0.0
N620 N 0.82495 0.80399 0.83329 0.0
N621 N 0.74928 0.77385 0.07363 0.0
H622 H 0.80624 0.73765 0.04984 0.0
H623 H 0.78209 0.74543 0.10625 0.0
H624 H 0.73674 0.78592 0.08772 0.0
H625 H 0.74188 0.75231 0.10134 0.0
H626 H 0.82462 0.81946 0.79491 0.0
H627 H 0.83436 0.78953 0.81547 0.0
H628 H 0.82382 0.85813 0.84534 0.0
H629 H 0.79652 0.8633 0.89743 0.0
C630 C 0.14361 0.98467 0.02834 0.0
C631 C 0.16042 0.96694 0.02887 0.0
C632 C 0.21124 0.01632 0.9955 0.0
C633 C 0.1936 0.03319 0.98862 0.0
N634 N 0.14201 0.03194 0.98528 0.0
N635 N 0.20904 0.96418 0.00319 0.0
C636 C 0.15946 0.01692 0.00129 0.0
C637 C 0.19394 0.98227 0.00979 0.0
N638 N 0.11297 0.97116 0.05647 0.0
N639 N 0.24463 0.03301 0.99148 0.0
H640 H 0.19763 0.93938 0.01507 0.0
H641 H 0.23211 0.97318 0.981 0.0
H642 H 0.25833 0.05786 0.98016 0.0
H643 H 0.25898 0.02281 0.0047 0.0
H644 H 0.10062 0.98401 0.06372 0.0
H645 H 0.10131 0.94809 0.07947 0.0
H646 H 0.11658 0.0202 0.98703 0.0
H647 H 0.15277 0.05516 0.96321 0.0
C648 C 0.9952 0.23821 0.97825 0.0
C649 C 0.97295 0.20831 0.01098 0.0
C650 C 0.0163 0.21378 0.09035 0.0
C651 C 0.03921 0.24238 0.05408 0.0
N652 N 0.05172 0.27769 0.95326 0.0
N653 N 0.96329 0.1644 0.08945 0.0
C654 C 0.02902 0.25359 0.9953 0.0
C655 C 0.98386 0.19501 0.06409 0.0
N656 N 0.98401 0.25203 0.93089 0.0
N657 N 0.02499 0.20548 0.15205 0.0
H658 H 0.93916 0.15015 0.07275 0.0
H659 H 0.97091 0.15202 0.12258 0.0
H660 H 0.04815 0.21914 0.17434 0.0
H661 H 0.0084 0.18696 0.18474 0.0
H662 H 0.99827 0.27572 0.91198 0.0
H663 H 0.95978 0.24058 0.91377 0.0
H664 H 0.04596 0.28428 0.90557 0.0
H665 H 0.07682 0.28907 0.96211 0.0
C666 C 0.81347 0.50526 0.39352 0.0
C667 C 0.81115 0.5262 0.34378 0.0
C668 C 0.8409 0.51238 0.2577 0.0
C669 C 0.84594 0.49385 0.30947 0.0
N670 N 0.8415 0.47682 0.43046 0.0
N671 N 0.82759 0.55454 0.23297 0.0
C672 C 0.83336 0.49131 0.37844 0.0
C673 C 0.82624 0.53112 0.27706 0.0
N674 N 0.79579 0.49782 0.45423 0.0
N675 N 0.84875 0.51095 0.18929 0.0
H676 H 0.81722 0.56886 0.24503 0.0
H677 H 0.84154 0.56185 0.18732 0.0
H678 H 0.85878 0.49687 0.17252 0.0
H679 H 0.84237 0.52112 0.1481 0.0
H680 H 0.7934 0.47975 0.48885 0.0
H681 H 0.7812 0.50782 0.46732 0.0
H682 H 0.83632 0.47771 0.4832 0.0
H683 H 0.85588 0.46618 0.42219 0.0
C684 C 0.51555 0.34964 0.35841 0.0
C685 C 0.50141 0.35906 0.3039 0.0
C686 C 0.45275 0.30475 0.30652 0.0
C687 C 0.46886 0.29391 0.35275 0.0
N688 N 0.51728 0.30525 0.41762 0.0
N689 N 0.45943 0.34318 0.21573 0.0
C690 C 0.50092 0.31608 0.37672 0.0
C691 C 0.4708 0.33591 0.27499 0.0
N692 N 0.54155 0.37273 0.39598 0.0
N693 N 0.42009 0.28571 0.29361 0.0
H694 H 0.47263 0.36528 0.18911 0.0
H695 H 0.43872 0.32598 0.18874 0.0
H696 H 0.4057 0.26359 0.31882 0.0
H697 H 0.40667 0.29371 0.2649 0.0
H698 H 0.55059 0.3673 0.44066 0.0
H699 H 0.55194 0.39773 0.38751 0.0
H700 H 0.54206 0.31953 0.42958 0.0
H701 H 0.50657 0.28134 0.43617 0.0
C702 C 0.65769 0.11975 0.34764 0.0
C703 C 0.64289 0.13676 0.3179 0.0
C704 C 0.69473 0.18852 0.32944 0.0
C705 C 0.71004 0.17118 0.35404 0.0
N706 N 0.70753 0.12002 0.37876 0.0
N707 N 0.64836 0.18631 0.26956 0.0
C708 C 0.69189 0.13673 0.36131 0.0
C709 C 0.66169 0.17092 0.306 0.0
N710 N 0.6389 0.08759 0.36542 0.0
N711 N 0.71154 0.22191 0.33053 0.0
H712 H 0.62446 0.17412 0.25037 0.0
H713 H 0.66174 0.21042 0.25265 0.0
H714 H 0.7357 0.23556 0.34781 0.0
H715 H 0.70082 0.23606 0.32041 0.0
H716 H 0.64729 0.07503 0.39585 0.0
H717 H 0.61414 0.07379 0.35377 0.0
H718 H 0.6967 0.09474 0.37549 0.0
H719 H 0.73219 0.13153 0.39218 0.0
C720 C 0.46048 0.09944 0.34889 0.0
C721 C 0.49308 0.11628 0.32346 0.0
C722 C 0.48937 0.16571 0.30743 0.0
C723 C 0.45814 0.14988 0.34006 0.0
N724 N 0.41496 0.10265 0.39833 0.0
N725 N 0.54045 0.16657 0.28735 0.0
C726 C 0.44411 0.1171 0.36325 0.0
C727 C 0.50803 0.14971 0.30476 0.0
N728 N 0.44445 0.0662 0.35526 0.0
N729 N 0.50111 0.1959 0.27819 0.0
H730 H 0.55492 0.15572 0.28425 0.0
H731 H 0.55373 0.19183 0.28136 0.0
H732 H 0.48888 0.20903 0.28132 0.0
H733 H 0.52179 0.20696 0.24645 0.0
H734 H 0.41966 0.05207 0.3668 0.0
H735 H 0.45507 0.05229 0.34151 0.0
H736 H 0.40558 0.08032 0.42401 0.0
H737 H 0.40101 0.11385 0.40598 0.0
C738 C 0.88627 0.32131 0.30422 0.0
C739 C 0.8562 0.30826 0.34105 0.0
C740 C 0.86346 0.36311 0.35123 0.0
C741 C 0.89137 0.37538 0.30711 0.0
N742 N 0.92579 0.36489 0.23075 0.0
N743 N 0.81305 0.31573 0.38865 0.0
C744 C 0.9018 0.35412 0.28052 0.0
C745 C 0.84389 0.32887 0.36164 0.0
N746 N 0.90076 0.30282 0.29442 0.0
N747 N 0.85645 0.38415 0.38588 0.0
H748 H 0.79772 0.29072 0.3962 0.0
H749 H 0.80158 0.32933 0.39743 0.0
H750 H 0.87071 0.40944 0.38158 0.0
H751 H 0.83842 0.37665 0.42425 0.0
H752 H 0.92426 0.3122 0.2742 0.0
H753 H 0.89084 0.27904 0.31324 0.0
H754 H 0.93194 0.34947 0.20419 0.0
H755 H 0.93734 0.3886 0.2109 0.0
C756 C 0.63953 0.52521 0.30055 0.0
C757 C 0.61489 0.51462 0.35253 0.0
C758 C 0.65609 0.52758 0.4443 0.0
C759 C 0.68009 0.53506 0.39189 0.0
N760 N 0.69307 0.53432 0.26978 0.0
N761 N 0.5985 0.49937 0.47296 0.0
C762 C 0.6714 0.53208 0.31983 0.0
C763 C 0.62281 0.51407 0.42425 0.0
N764 N 0.63282 0.52977 0.23315 0.0
N765 N 0.66515 0.5345 0.51306 0.0
H766 H 0.57378 0.48861 0.46045 0.0
H767 H 0.60267 0.49506 0.52445 0.0
H768 H 0.6893 0.54471 0.52998 0.0
H769 H 0.64917 0.53293 0.55247 0.0
H770 H 0.65073 0.54079 0.1947 0.0
H771 H 0.60987 0.52546 0.21723 0.0
H772 H 0.68701 0.52915 0.21699 0.0
H773 H 0.71608 0.53791 0.28209 0.0
C774 C 0.53958 0.82739 0.69501 0.0
C775 C 0.5367 0.81635 0.62462 0.0
C776 C 0.50116 0.83875 0.59747 0.0
C777 C 0.50143 0.84687 0.66941 0.0
N778 N 0.5155 0.84265 0.78906 0.0
N779 N 0.50933 0.80543 0.51269 0.0
C780 C 0.51918 0.83948 0.7189 0.0
C781 C 0.51603 0.82037 0.5768 0.0
N782 N 0.56262 0.82748 0.73855 0.0
N783 N 0.48788 0.84962 0.54817 0.0
H784 H 0.51912 0.79114 0.49593 0.0
H785 H 0.49157 0.80451 0.4789 0.0
H786 H 0.47672 0.86314 0.5604 0.0
H787 H 0.49057 0.84776 0.49444 0.0
H788 H 0.56826 0.83868 0.78761 0.0
H789 H 0.57843 0.81925 0.72331 0.0
H790 H 0.52508 0.83427 0.8277 0.0
H791 H 0.50014 0.85062 0.80893 0.0
C792 C 0.15268 0.68861 0.59569 0.0
C793 C 0.18037 0.70864 0.6379 0.0
C794 C 0.1662 0.66236 0.71641 0.0
C795 C 0.13717 0.64331 0.67737 0.0
N796 N 0.09897 0.64033 0.58987 0.0
N797 N 0.20959 0.7166 0.74693 0.0
C798 C 0.12929 0.65704 0.61985 0.0
C799 C 0.18615 0.6961 0.70064 0.0
N800 N 0.14932 0.69926 0.5313 0.0
N801 N 0.17533 0.64805 0.76699 0.0
H802 H 0.2243 0.74159 0.73844 0.0
H803 H 0.21239 0.70939 0.79681 0.0
H804 H 0.16116 0.6235 0.7807 0.0
H805 H 0.19812 0.65987 0.79142 0.0
H806 H 0.13136 0.68444 0.49533 0.0
H807 H 0.16643 0.72191 0.5109 0.0
H808 H 0.09069 0.65036 0.55205 0.0
H809 H 0.08081 0.61765 0.60816 0.0
C810 C 0.35632 0.51794 0.6346 0.0
C811 C 0.36383 0.52091 0.70748 0.0
C812 C 0.30526 0.49129 0.73582 0.0
C813 C 0.29777 0.48705 0.66293 0.0
N814 N 0.31544 0.49294 0.5427 0.0
N815 N 0.34629 0.50789 0.82753 0.0
C816 C 0.32313 0.49936 0.61226 0.0
C817 C 0.3385 0.50679 0.75809 0.0
N818 N 0.38095 0.53319 0.58664 0.0
N819 N 0.28052 0.48079 0.78385 0.0
H820 H 0.37022 0.52081 0.84634 0.0
H821 H 0.32939 0.49466 0.86649 0.0
H822 H 0.25586 0.46748 0.77036 0.0
H823 H 0.28413 0.4866 0.83692 0.0
H824 H 0.37714 0.53555 0.53377 0.0
H825 H 0.40565 0.54521 0.59992 0.0
H826 H 0.33252 0.4975 0.50354 0.0
H827 H 0.29149 0.48116 0.52393 0.0
C828 C 0.12154 0.44077 0.72954 0.0
C829 C 0.14952 0.45802 0.68626 0.0
C830 C 0.13646 0.50164 0.67074 0.0
C831 C 0.1103 0.48585 0.71955 0.0
N832 N 0.08283 0.4441 0.80719 0.0
N833 N 0.18695 0.50758 0.62539 0.0
C834 C 0.10422 0.45644 0.75231 0.0
C835 C 0.15791 0.4892 0.65949 0.0
N836 N 0.11059 0.40887 0.74653 0.0
N837 N 0.14011 0.52766 0.63251 0.0
H838 H 0.20316 0.4993 0.6147 0.0
H839 H 0.19627 0.53208 0.61282 0.0
H840 H 0.12554 0.53814 0.63901 0.0
H841 H 0.15595 0.53727 0.58999 0.0
H842 H 0.08843 0.39415 0.77186 0.0
H843 H 0.12184 0.39602 0.72895 0.0
H844 H 0.07996 0.42457 0.83766 0.0
H845 H 0.0705 0.45547 0.8271 0.0
C846 C 0.51557 0.65311 0.67945 0.0
C847 C 0.51451 0.62525 0.64883 0.0
C848 C 0.55736 0.6606 0.56549 0.0
C849 C 0.56001 0.68838 0.59974 0.0
N850 N 0.54818 0.71118 0.70105 0.0
N851 N 0.54018 0.6032 0.57423 0.0
C852 C 0.541 0.68469 0.66017 0.0
C853 C 0.537 0.62915 0.59489 0.0
N854 N 0.49166 0.64964 0.7248 0.0
N855 N 0.57372 0.66416 0.50411 0.0
H856 H 0.52699 0.5801 0.59677 0.0
H857 H 0.55837 0.60538 0.54012 0.0
H858 H 0.58923 0.68688 0.48165 0.0
H859 H 0.56985 0.64451 0.47271 0.0
H860 H 0.48947 0.66927 0.74262 0.0
H861 H 0.47214 0.62702 0.73937 0.0
H862 H 0.53712 0.70944 0.74933 0.0
H863 H 0.5678 0.73441 0.69057 0.0
C864 C 0.3315 0.84896 0.64209 0.0
C865 C 0.30868 0.84873 0.6907 0.0
C866 C 0.35359 0.88285 0.77136 0.0
C867 C 0.37642 0.88569 0.71979 0.0
N868 N 0.38735 0.87706 0.60052 0.0
N869 N 0.29842 0.87064 0.79605 0.0
C870 C 0.36546 0.87028 0.65356 0.0
C871 C 0.31982 0.86705 0.75396 0.0
N872 N 0.32091 0.82788 0.58646 0.0
N873 N 0.36402 0.89433 0.83771 0.0
H874 H 0.2736 0.86005 0.7849 0.0
H875 H 0.30576 0.88665 0.83849 0.0
H876 H 0.38858 0.90602 0.85253 0.0
H877 H 0.34815 0.88968 0.8796 0.0
H878 H 0.33666 0.82458 0.55372 0.0
H879 H 0.29629 0.81134 0.57689 0.0
H880 H 0.38045 0.86928 0.54903 0.0
H881 H 0.41229 0.89325 0.60638 0.0
loop_
_geom_bond_atom_site_label_1
_geom_bond_atom_site_label_2
_geom_bond_distance
_geom_bond_site_symmetry_2
_ccdc_geom_bond_type
C0 O1 1.160 . S
C0 O7 1.185 . S
O1 C0 1.160 . S
O2 Zn3 1.899 . S
O2 C10 1.284 . S
Zn3 O2 1.899 . S
Zn3 O4 2.032 . S
Zn3 O7 2.086 . S
Zn3 O12 1.977 1_554 S
O4 Zn3 2.032 . S
O4 C8 1.278 . S
C5 O6 1.203 . S
C5 O12 1.267 . S
O6 C5 1.203 . S
O7 C0 1.185 . S
O7 Zn3 2.086 . S
C8 O4 1.278 . S
C8 O9 1.211 1_554 S
O9 C8 1.211 1_556 S
C10 O2 1.284 . S
C10 O11 1.273 . S
O11 C10 1.273 . S
O12 Zn3 1.977 1_556 S
O12 C5 1.267 . S
C13 O14 1.160 . S
C13 O20 1.185 . S
O14 C13 1.160 . S
O15 Zn16 1.899 . S
O15 C23 1.284 . S
Zn16 O15 1.899 . S
Zn16 O17 2.032 . S
Zn16 O20 2.086 . S
Zn16 O25 1.977 1_554 S
O17 Zn16 2.032 . S
O17 C21 1.278 . S
C18 O19 1.203 . S
C18 O25 1.267 . S
O19 C18 1.203 . S
O20 C13 1.185 . S
O20 Zn16 2.086 . S
C21 O17 1.278 . S
C21 O22 1.211 1_554 S
O22 C21 1.211 1_556 S
C23 O15 1.284 . S
C23 O24 1.273 . S
O24 C23 1.273 . S
O25 Zn16 1.977 1_556 S
O25 C18 1.267 . S
C26 O27 1.160 . S
C26 O33 1.185 . S
O27 C26 1.160 . S
O28 Zn29 1.899 . S
O28 C36 1.284 . S
Zn29 O28 1.899 . S
Zn29 O30 2.032 . S
Zn29 O33 2.086 . S
Zn29 O38 1.977 1_554 S
O30 Zn29 2.032 . S
O30 C34 1.278 . S
C31 O32 1.203 . S
C31 O38 1.267 . S
O32 C31 1.203 . S
O33 C26 1.185 . S
O33 Zn29 2.086 . S
C34 O30 1.278 . S
C34 O35 1.211 1_554 S
O35 C34 1.211 1_556 S
C36 O28 1.284 . S
C36 O37 1.273 . S
O37 C36 1.273 . S
O38 Zn29 1.977 1_556 S
O38 C31 1.267 . S
C39 O40 1.160 . S
C39 O46 1.185 . S
O40 C39 1.160 . S
O41 Zn42 1.899 . S
O41 C49 1.284 . S
Zn42 O41 1.899 . S
Zn42 O43 2.032 . S
Zn42 O46 2.086 . S
Zn42 O51 1.977 1_556 S
O43 Zn42 2.032 . S
O43 C47 1.278 . S
C44 O45 1.203 . S
C44 O51 1.267 . S
O45 C44 1.203 . S
O46 C39 1.185 . S
O46 Zn42 2.086 . S
C47 O43 1.278 . S
C47 O48 1.211 1_556 S
O48 C47 1.211 1_554 S
C49 O41 1.284 . S
C49 O50 1.273 . S
O50 C49 1.273 . S
O51 Zn42 1.977 1_554 S
O51 C44 1.267 . S
C52 O53 1.160 . S
C52 O59 1.185 . S
O53 C52 1.160 . S
O54 Zn55 1.899 . S
O54 C62 1.284 . S
Zn55 O54 1.899 . S
Zn55 O56 2.032 . S
Zn55 O59 2.086 . S
Zn55 O64 1.977 1_556 S
O56 Zn55 2.032 . S
O56 C60 1.278 . S
C57 O58 1.203 . S
C57 O64 1.267 . S
O58 C57 1.203 . S
O59 C52 1.185 . S
O59 Zn55 2.086 . S
C60 O56 1.278 . S
C60 O61 1.211 1_556 S
O61 C60 1.211 1_554 S
C62 O54 1.284 . S
C62 O63 1.273 . S
O63 C62 1.273 . S
O64 Zn55 1.977 1_554 S
O64 C57 1.267 . S
C65 O66 1.160 . S
C65 O72 1.185 . S
O66 C65 1.160 . S
O67 Zn68 1.899 . S
O67 C75 1.284 . S
Zn68 O67 1.899 . S
Zn68 O69 2.032 . S
Zn68 O72 2.086 . S
Zn68 O77 1.977 1_556 S
O69 Zn68 2.032 . S
O69 C73 1.278 . S
C70 O71 1.203 . S
C70 O77 1.267 . S
O71 C70 1.203 . S
O72 C65 1.185 . S
O72 Zn68 2.086 . S
C73 O69 1.278 . S
C73 O74 1.211 1_556 S
O74 C73 1.211 1_554 S
C75 O67 1.284 . S
C75 O76 1.273 . S
O76 C75 1.273 . S
O77 Zn68 1.977 1_554 S
O77 C70 1.267 . S
C78 O79 1.160 . S
C78 O85 1.185 . S
O79 C78 1.160 . S
O80 Zn81 1.899 . S
O80 C88 1.284 . S
Zn81 O80 1.899 . S
Zn81 O82 2.032 . S
Zn81 O85 2.086 . S
Zn81 O90 1.977 . S
O82 Zn81 2.032 . S
O82 C86 1.278 . S
C83 O84 1.203 . S
C83 O90 1.267 . S
O84 C83 1.203 . S
O85 C78 1.185 . S
O85 Zn81 2.086 . S
C86 O82 1.278 . S
C86 O87 1.211 . S
O87 C86 1.211 . S
C88 O80 1.284 . S
C88 O89 1.273 . S
O89 C88 1.273 . S
O90 Zn81 1.977 . S
O90 C83 1.267 . S
C91 O92 1.160 . S
C91 O98 1.185 . S
O92 C91 1.160 . S
O93 Zn94 1.899 . S
O93 C101 1.284 . S
Zn94 O93 1.899 . S
Zn94 O95 2.032 . S
Zn94 O98 2.086 . S
Zn94 O103 1.977 . S
O95 Zn94 2.032 . S
O95 C99 1.278 . S
C96 O97 1.203 . S
C96 O103 1.267 . S
O97 C96 1.203 . S
O98 C91 1.185 . S
O98 Zn94 2.086 . S
C99 O95 1.278 . S
C99 O100 1.211 . S
O100 C99 1.211 . S
C101 O93 1.284 . S
C101 O102 1.273 . S
O102 C101 1.273 . S
O103 Zn94 1.977 . S
O103 C96 1.267 . S
C104 O105 1.160 . S
C104 O111 1.185 . S
O105 C104 1.160 . S
O106 Zn107 1.899 . S
O106 C114 1.284 . S
Zn107 O106 1.899 . S
Zn107 O108 2.032 . S
Zn107 O111 2.086 . S
Zn107 O116 1.977 . S
O108 Zn107 2.032 . S
O108 C112 1.278 . S
C109 O110 1.203 . S
C109 O116 1.267 . S
O110 C109 1.203 . S
O111 C104 1.185 . S
O111 Zn107 2.086 . S
C112 O108 1.278 . S
C112 O113 1.211 . S
O113 C112 1.211 . S
C114 O106 1.284 . S
C114 O115 1.273 . S
O115 C114 1.273 . S
O116 Zn107 1.977 . S
O116 C109 1.267 . S
C117 O118 1.160 . S
C117 O124 1.185 . S
O118 C117 1.160 . S
O119 Zn120 1.899 . S
O119 C127 1.284 . S
Zn120 O119 1.899 . S
Zn120 O121 2.032 . S
Zn120 O124 2.086 . S
Zn120 O129 1.977 . S
O121 Zn120 2.032 . S
O121 C125 1.278 . S
C122 O123 1.203 . S
C122 O129 1.267 . S
O123 C122 1.203 . S
O124 C117 1.185 . S
O124 Zn120 2.086 . S
C125 O121 1.278 . S
C125 O126 1.211 . S
O126 C125 1.211 . S
C127 O119 1.284 . S
C127 O128 1.273 . S
O128 C127 1.273 . S
O129 Zn120 1.977 . S
O129 C122 1.267 . S
C130 O131 1.160 . S
C130 O137 1.185 . S
O131 C130 1.160 . S
O132 Zn133 1.899 . S
O132 C140 1.284 . S
Zn133 O132 1.899 . S
Zn133 O134 2.032 . S
Zn133 O137 2.086 . S
Zn133 O142 1.977 . S
O134 Zn133 2.032 . S
O134 C138 1.278 . S
C135 O136 1.203 . S
C135 O142 1.267 . S
O136 C135 1.203 . S
O137 C130 1.185 . S
O137 Zn133 2.086 . S
C138 O134 1.278 . S
C138 O139 1.211 . S
O139 C138 1.211 . S
C140 O132 1.284 . S
C140 O141 1.273 . S
O141 C140 1.273 . S
O142 Zn133 1.977 . S
O142 C135 1.267 . S
C143 O144 1.160 . S
C143 O150 1.185 . S
O144 C143 1.160 . S
O145 Zn146 1.899 . S
O145 C153 1.284 . S
Zn146 O145 1.899 . S
Zn146 O147 2.032 . S
Zn146 O150 2.086 . S
Zn146 O155 1.977 . S
O147 Zn146 2.032 . S
O147 C151 1.278 . S
C148 O149 1.203 . S
C148 O155 1.267 . S
O149 C148 1.203 . S
O150 C143 1.185 . S
O150 Zn146 2.086 . S
C151 O147 1.278 . S
C151 O152 1.211 . S
O152 C151 1.211 . S
C153 O145 1.284 . S
C153 O154 1.273 . S
O154 C153 1.273 . S
O155 Zn146 1.977 . S
O155 C148 1.267 . S
C156 O157 1.160 . S
C156 O163 1.185 . S
O157 C156 1.160 . S
O158 Zn159 1.899 . S
O158 C166 1.284 . S
Zn159 O158 1.899 . S
Zn159 O160 2.032 . S
Zn159 O163 2.086 . S
Zn159 O168 1.977 . S
O160 Zn159 2.032 . S
O160 C164 1.278 . S
C161 O162 1.203 . S
C161 O168 1.267 . S
O162 C161 1.203 . S
O163 C156 1.185 . S
O163 Zn159 2.086 . S
C164 O160 1.278 . S
C164 O165 1.211 . S
O165 C164 1.211 . S
C166 O158 1.284 . S
C166 O167 1.273 . S
O167 C166 1.273 . S
O168 Zn159 1.977 . S
O168 C161 1.267 . S
C169 O170 1.160 . S
C169 O176 1.185 . S
O170 C169 1.160 . S
O171 Zn172 1.899 . S
O171 C179 1.284 . S
Zn172 O171 1.899 . S
Zn172 O173 2.032 . S
Zn172 O176 2.086 . S
Zn172 O181 1.977 . S
O173 Zn172 2.032 . S
O173 C177 1.278 . S
C174 O175 1.203 . S
C174 O181 1.267 . S
O175 C174 1.203 . S
O176 C169 1.185 . S
O176 Zn172 2.086 . S
C177 O173 1.278 . S
C177 O178 1.211 . S
O178 C177 1.211 . S
C179 O171 1.284 . S
C179 O180 1.273 . S
O180 C179 1.273 . S
O181 Zn172 1.977 . S
O181 C174 1.267 . S
C182 O183 1.160 . S
C182 O189 1.185 . S
O183 C182 1.160 . S
O184 Zn185 1.899 . S
O184 C192 1.284 . S
Zn185 O184 1.899 . S
Zn185 O186 2.032 . S
Zn185 O189 2.086 . S
Zn185 O194 1.977 . S
O186 Zn185 2.032 . S
O186 C190 1.278 . S
C187 O188 1.203 . S
C187 O194 1.267 . S
O188 C187 1.203 . S
O189 C182 1.185 . S
O189 Zn185 2.086 . S
C190 O186 1.278 . S
C190 O191 1.211 . S
O191 C190 1.211 . S
C192 O184 1.284 . S
C192 O193 1.273 . S
O193 C192 1.273 . S
O194 Zn185 1.977 . S
O194 C187 1.267 . S
C195 O196 1.160 . S
C195 O202 1.185 . S
O196 C195 1.160 . S
O197 Zn198 1.899 . S
O197 C205 1.284 . S
Zn198 O197 1.899 . S
Zn198 O199 2.032 . S
Zn198 O202 2.086 . S
Zn198 O207 1.977 . S
O199 Zn198 2.032 . S
O199 C203 1.278 . S
C200 O201 1.203 . S
C200 O207 1.267 . S
O201 C200 1.203 . S
O202 C195 1.185 . S
O202 Zn198 2.086 . S
C203 O199 1.278 . S
C203 O204 1.211 . S
O204 C203 1.211 . S
C205 O197 1.284 . S
C205 O206 1.273 . S
O206 C205 1.273 . S
O207 Zn198 1.977 . S
O207 C200 1.267 . S
C208 O209 1.160 . S
C208 O215 1.185 . S
O209 C208 1.160 . S
O210 Zn211 1.899 . S
O210 C218 1.284 . S
Zn211 O210 1.899 . S
Zn211 O212 2.032 . S
Zn211 O215 2.086 . S
Zn211 O220 1.977 . S
O212 Zn211 2.032 . S
O212 C216 1.278 . S
C213 O214 1.203 . S
C213 O220 1.267 . S
O214 C213 1.203 . S
O215 C208 1.185 . S
O215 Zn211 2.086 . S
C216 O212 1.278 . S
C216 O217 1.211 . S
O217 C216 1.211 . S
C218 O210 1.284 . S
C218 O219 1.273 . S
O219 C218 1.273 . S
O220 Zn211 1.977 . S
O220 C213 1.267 . S
C221 O222 1.160 . S
C221 O228 1.185 . S
O222 C221 1.160 . S
O223 Zn224 1.899 . S
O223 C231 1.284 . S
Zn224 O223 1.899 . S
Zn224 O225 2.032 . S
Zn224 O228 2.086 . S
Zn224 O233 1.977 . S
O225 Zn224 2.032 . S
O225 C229 1.278 . S
C226 O227 1.203 . S
C226 O233 1.267 . S
O227 C226 1.203 . S
O228 C221 1.185 . S
O228 Zn224 2.086 . S
C229 O225 1.278 . S
C229 O230 1.211 . S
O230 C229 1.211 . S
C231 O223 1.284 . S
C231 O232 1.273 . S
O232 C231 1.273 . S
O233 Zn224 1.977 . S
O233 C226 1.267 . S
C234 C235 1.363 . S
C234 C240 1.379 . S
C234 N242 1.356 . S
C235 C234 1.363 . S
C235 C241 1.363 . S
C236 C237 1.363 . S
C236 C241 1.379 . S
C236 N243 1.356 . S
C237 C236 1.363 . S
C237 C240 1.363 . S
N238 C240 1.356 . S
N238 H250 0.984 . S
N238 H251 0.985 . S
N239 C241 1.356 . S
N239 H244 0.984 . S
N239 H245 0.985 . S
C240 C234 1.379 . S
C240 C237 1.363 . S
C240 N238 1.356 . S
C241 C235 1.363 . S
C241 C236 1.379 . S
C241 N239 1.356 . S
N242 C234 1.356 . S
N242 H248 0.984 . S
N242 H249 0.984 . S
N243 C236 1.356 . S
N243 H246 0.984 . S
N243 H247 0.985 . S
H244 N239 0.984 . S
H245 N239 0.985 . S
H246 N243 0.984 . S
H247 N243 0.985 . S
H248 N242 0.984 . S
H249 N242 0.984 . S
H250 N238 0.984 . S
H251 N238 0.985 . S
C252 C253 1.363 . S
C252 C258 1.379 . S
C252 N260 1.356 . S
C253 C252 1.363 . S
C253 C259 1.363 . S
C254 C255 1.363 . S
C254 C259 1.379 . S
C254 N261 1.356 . S
C255 C254 1.363 . S
C255 C258 1.363 . S
N256 C258 1.356 . S
N256 H268 0.984 . S
N256 H269 0.985 . S
N257 C259 1.356 . S
N257 H262 0.984 . S
N257 H263 0.985 . S
C258 C252 1.379 . S
C258 C255 1.363 . S
C258 N256 1.356 . S
C259 C253 1.363 . S
C259 C254 1.379 . S
C259 N257 1.356 . S
N260 C252 1.356 . S
N260 H266 0.984 . S
N260 H267 0.984 . S
N261 C254 1.356 . S
N261 H264 0.984 . S
N261 H265 0.985 . S
H262 N257 0.984 . S
H263 N257 0.985 . S
H264 N261 0.984 . S
H265 N261 0.985 . S
H266 N260 0.984 . S
H267 N260 0.984 . S
H268 N256 0.984 . S
H269 N256 0.985 . S
C270 C271 1.363 . S
C270 C276 1.379 . S
C270 N278 1.356 . S
C271 C270 1.363 . S
C271 C277 1.363 . S
C272 C273 1.363 . S
C272 C277 1.379 . S
C272 N279 1.356 . S
C273 C272 1.363 . S
C273 C276 1.363 . S
N274 C276 1.356 . S
N274 H286 0.984 . S
N274 H287 0.985 . S
N275 C277 1.356 . S
N275 H280 0.984 . S
N275 H281 0.985 . S
C276 C270 1.379 . S
C276 C273 1.363 . S
C276 N274 1.356 . S
C277 C271 1.363 . S
C277 C272 1.379 . S
C277 N275 1.356 . S
N278 C270 1.356 . S
N278 H284 0.984 . S
N278 H285 0.984 . S
N279 C272 1.356 . S
N279 H282 0.984 . S
N279 H283 0.985 . S
H280 N275 0.984 . S
H281 N275 0.985 . S
H282 N279 0.984 . S
H283 N279 0.985 . S
H284 N278 0.984 . S
H285 N278 0.984 . S
H286 N274 0.984 . S
H287 N274 0.985 . S
C288 C289 1.363 . S
C288 C294 1.379 . S
C288 N296 1.356 . S
C289 C288 1.363 . S
C289 C295 1.363 . S
C290 C291 1.363 . S
C290 C295 1.379 . S
C290 N297 1.356 . S
C291 C290 1.363 . S
C291 C294 1.363 . S
N292 C294 1.356 . S
N292 H304 0.984 . S
N292 H305 0.985 . S
N293 C295 1.356 . S
N293 H298 0.984 . S
N293 H299 0.985 . S
C294 C288 1.379 . S
C294 C291 1.363 . S
C294 N292 1.356 . S
C295 C289 1.363 . S
C295 C290 1.379 . S
C295 N293 1.356 . S
N296 C288 1.356 . S
N296 H302 0.984 . S
N296 H303 0.984 . S
N297 C290 1.356 . S
N297 H300 0.984 . S
N297 H301 0.985 . S
H298 N293 0.984 . S
H299 N293 0.985 . S
H300 N297 0.984 . S
H301 N297 0.985 . S
H302 N296 0.984 . S
H303 N296 0.984 . S
H304 N292 0.984 . S
H305 N292 0.985 . S
C306 C307 1.363 . S
C306 C312 1.379 . S
C306 N314 1.356 . S
C307 C306 1.363 . S
C307 C313 1.363 . S
C308 C309 1.363 . S
C308 C313 1.379 . S
C308 N315 1.356 . S
C309 C308 1.363 . S
C309 C312 1.363 . S
N310 C312 1.356 . S
N310 H322 0.984 . S
N310 H323 0.985 . S
N311 C313 1.356 . S
N311 H316 0.984 . S
N311 H317 0.985 . S
C312 C306 1.379 . S
C312 C309 1.363 . S
C312 N310 1.356 . S
C313 C307 1.363 . S
C313 C308 1.379 . S
C313 N311 1.356 . S
N314 C306 1.356 . S
N314 H320 0.984 . S
N314 H321 0.984 . S
N315 C308 1.356 . S
N315 H318 0.984 . S
N315 H319 0.985 . S
H316 N311 0.984 . S
H317 N311 0.985 . S
H318 N315 0.984 . S
H319 N315 0.985 . S
H320 N314 0.984 . S
H321 N314 0.984 . S
H322 N310 0.984 . S
H323 N310 0.985 . S
C324 C325 1.363 . S
C324 C330 1.379 . S
C324 N332 1.356 . S
C325 C324 1.363 . S
C325 C331 1.363 . S
C326 C327 1.363 . S
C326 C331 1.379 . S
C326 N333 1.356 . S
C327 C326 1.363 . S
C327 C330 1.363 . S
N328 C330 1.356 . S
N328 H340 0.984 . S
N328 H341 0.985 . S
N329 C331 1.356 . S
N329 H334 0.984 . S
N329 H335 0.985 . S
C330 C324 1.379 . S
C330 C327 1.363 . S
C330 N328 1.356 . S
C331 C325 1.363 . S
C331 C326 1.379 . S
C331 N329 1.356 . S
N332 C324 1.356 . S
N332 H338 0.984 . S
N332 H339 0.984 . S
N333 C326 1.356 . S
N333 H336 0.984 . S
N333 H337 0.985 . S
H334 N329 0.984 . S
H335 N329 0.985 . S
H336 N333 0.984 . S
H337 N333 0.985 . S
H338 N332 0.984 . S
H339 N332 0.984 . S
H340 N328 0.984 . S
H341 N328 0.985 . S
C342 C343 1.363 . S
C342 C348 1.379 1_654 S
C342 N350 1.356 . S
C343 C342 1.363 . S
C343 C349 1.363 . S
C344 C345 1.363 . S
C344 C349 1.379 1_456 S
C344 N351 1.356 . S
C345 C344 1.363 . S
C345 C348 1.363 . S
N346 C348 1.356 . S
N346 H358 0.983 . S
N346 H359 0.985 . S
N347 C349 1.356 . S
N347 H352 0.984 . S
N347 H353 0.983 . S
C348 C342 1.379 1_456 S
C348 C345 1.363 . S
C348 N346 1.356 . S
C349 C343 1.363 . S
C349 C344 1.379 1_654 S
C349 N347 1.356 . S
N350 C342 1.356 . S
N350 H356 0.984 . S
N350 H357 0.984 . S
N351 C344 1.356 . S
N351 H354 0.984 . S
N351 H355 0.985 . S
H352 N347 0.984 . S
H353 N347 0.983 . S
H354 N351 0.984 . S
H355 N351 0.985 . S
H356 N350 0.984 . S
H357 N350 0.984 . S
H358 N346 0.983 . S
H359 N346 0.985 . S
C360 C361 1.363 1_556 S
C360 C366 1.379 . S
C360 N368 1.356 1_556 S
C361 C360 1.363 1_554 S
C361 C367 1.363 . S
C362 C363 1.363 1_554 S
C362 C367 1.379 . S
C362 N369 1.356 1_554 S
C363 C362 1.363 1_556 S
C363 C366 1.363 . S
N364 C366 1.356 . S
N364 H376 0.984 . S
N364 H377 0.985 . S
N365 C367 1.356 . S
N365 H370 0.984 . S
N365 H371 0.985 . S
C366 C360 1.379 . S
C366 C363 1.363 . S
C366 N364 1.356 . S
C367 C361 1.363 . S
C367 C362 1.379 . S
C367 N365 1.356 . S
N368 C360 1.356 1_554 S
N368 H374 0.984 1_554 S
N368 H375 0.984 . S
N369 C362 1.356 1_556 S
N369 H372 0.984 . S
N369 H373 0.985 1_556 S
H370 N365 0.984 . S
H371 N365 0.985 . S
H372 N369 0.984 . S
H373 N369 0.985 1_554 S
H374 N368 0.984 1_556 S
H375 N368 0.984 . S
H376 N364 0.984 . S
H377 N364 0.985 . S
C378 C379 1.363 1_565 S
C378 C384 1.379 . S
C378 N386 1.356 . S
C379 C378 1.363 1_545 S
C379 C385 1.363 1_554 S
C380 C381 1.363 1_545 S
C380 C385 1.379 . S
C380 N387 1.356 . S
C381 C380 1.363 1_565 S
C381 C384 1.363 1_556 S
N382 C384 1.356 1_556 S
N382 H394 0.984 1_556 S
N382 H395 0.985 . S
N383 C385 1.356 1_554 S
N383 H388 0.984 . S
N383 H389 0.985 1_554 S
C384 C378 1.379 . S
C384 C381 1.363 1_554 S
C384 N382 1.356 1_554 S
C385 C379 1.363 1_556 S
C385 C380 1.379 . S
C385 N383 1.356 1_556 S
N386 C378 1.356 . S
N386 H392 0.984 . S
N386 H393 0.984 1_565 S
N387 C380 1.356 . S
N387 H390 0.984 1_545 S
N387 H391 0.985 . S
H388 N383 0.984 . S
H389 N383 0.985 1_556 S
H390 N387 0.984 1_565 S
H391 N387 0.985 . S
H392 N386 0.984 . S
H393 N386 0.984 1_545 S
H394 N382 0.984 1_554 S
H395 N382 0.985 . S
C396 C397 1.363 . S
C396 C402 1.379 . S
C396 N404 1.356 . S
C397 C396 1.363 . S
C397 C403 1.363 . S
C398 C399 1.363 . S
C398 C403 1.379 . S
C398 N405 1.356 . S
C399 C398 1.363 . S
C399 C402 1.363 . S
N400 C402 1.356 . S
N400 H412 0.984 . S
N400 H413 0.985 . S
N401 C403 1.356 . S
N401 H406 0.984 . S
N401 H407 0.985 . S
C402 C396 1.379 . S
C402 C399 1.363 . S
C402 N400 1.356 . S
C403 C397 1.363 . S
C403 C398 1.379 . S
C403 N401 1.356 . S
N404 C396 1.356 . S
N404 H410 0.984 . S
N404 H411 0.984 . S
N405 C398 1.356 . S
N405 H408 0.984 . S
N405 H409 0.985 . S
H406 N401 0.984 . S
H407 N401 0.985 . S
H408 N405 0.984 . S
H409 N405 0.985 . S
H410 N404 0.984 . S
H411 N404 0.984 . S
H412 N400 0.984 . S
H413 N400 0.985 . S
C414 C415 1.363 . S
C414 C420 1.379 . S
C414 N422 1.356 . S
C415 C414 1.363 . S
C415 C421 1.363 . S
C416 C417 1.363 . S
C416 C421 1.379 . S
C416 N423 1.356 . S
C417 C416 1.363 . S
C417 C420 1.363 . S
N418 C420 1.356 . S
N418 H430 0.984 . S
N418 H431 0.992 . S
N419 C421 1.356 . S
N419 H424 0.984 . S
N419 H425 0.985 . S
C420 C414 1.379 . S
C420 C417 1.363 . S
C420 N418 1.356 . S
C421 C415 1.363 . S
C421 C416 1.379 . S
C421 N419 1.356 . S
N422 C414 1.356 . S
N422 H428 0.984 . S
N422 H429 0.984 . S
N423 C416 1.356 . S
N423 H426 0.984 . S
N423 H427 0.985 . S
H424 N419 0.984 . S
H425 N419 0.985 . S
H426 N423 0.984 . S
H427 N423 0.985 . S
H428 N422 0.984 . S
H429 N422 0.984 . S
H430 N418 0.984 . S
H431 N418 0.992 . S
C432 C433 1.363 . S
C432 C438 1.379 . S
C432 N440 1.356 . S
C433 C432 1.363 . S
C433 C439 1.363 . S
C434 C435 1.363 . S
C434 C439 1.379 . S
C434 N441 1.356 . S
C435 C434 1.363 . S
C435 C438 1.363 . S
N436 C438 1.356 . S
N436 H448 0.984 . S
N436 H449 0.985 . S
N437 C439 1.356 . S
N437 H442 0.984 . S
N437 H443 0.985 . S
C438 C432 1.379 . S
C438 C435 1.363 . S
C438 N436 1.356 . S
C439 C433 1.363 . S
C439 C434 1.379 . S
C439 N437 1.356 . S
N440 C432 1.356 . S
N440 H446 0.984 . S
N440 H447 0.984 . S
N441 C434 1.356 . S
N441 H444 0.984 . S
N441 H445 0.985 . S
H442 N437 0.984 . S
H443 N437 0.985 . S
H444 N441 0.984 . S
H445 N441 0.985 . S
H446 N440 0.984 . S
H447 N440 0.984 . S
H448 N436 0.984 . S
H449 N436 0.985 . S
C450 C451 1.363 . S
C450 C456 1.379 . S
C450 N458 1.356 . S
C451 C450 1.363 . S
C451 C457 1.363 . S
C452 C453 1.363 . S
C452 C457 1.379 . S
C452 N459 1.356 . S
C453 C452 1.363 . S
C453 C456 1.363 . S
N454 C456 1.356 . S
N454 H466 0.984 . S
N454 H467 0.985 . S
N455 C457 1.356 . S
N455 H460 0.984 . S
N455 H461 0.985 . S
C456 C450 1.379 . S
C456 C453 1.363 . S
C456 N454 1.356 . S
C457 C451 1.363 . S
C457 C452 1.379 . S
C457 N455 1.356 . S
N458 C450 1.356 . S
N458 H464 0.984 . S
N458 H465 0.984 . S
N459 C452 1.356 . S
N459 H462 0.984 . S
N459 H463 0.985 . S
H460 N455 0.984 . S
H461 N455 0.985 . S
H462 N459 0.984 . S
H463 N459 0.985 . S
H464 N458 0.984 . S
H465 N458 0.984 . S
H466 N454 0.984 . S
H467 N454 0.985 . S
C468 C469 1.363 . S
C468 C474 1.379 . S
C468 N476 1.356 . S
C469 C468 1.363 . S
C469 C475 1.363 . S
C470 C471 1.363 . S
C470 C475 1.379 . S
C470 N477 1.356 . S
C471 C470 1.363 . S
C471 C474 1.363 . S
N472 C474 1.356 . S
N472 H484 0.984 . S
N472 H485 0.985 . S
N473 C475 1.356 . S
N473 H478 0.984 . S
N473 H479 0.985 . S
C474 C468 1.379 . S
C474 C471 1.363 . S
C474 N472 1.356 . S
C475 C469 1.363 . S
C475 C470 1.379 . S
C475 N473 1.356 . S
N476 C468 1.356 . S
N476 H482 0.984 . S
N476 H483 0.984 . S
N477 C470 1.356 . S
N477 H480 0.984 . S
N477 H481 0.985 . S
H478 N473 0.984 . S
H479 N473 0.985 . S
H480 N477 0.984 . S
H481 N477 0.985 . S
H482 N476 0.984 . S
H483 N476 0.984 . S
H484 N472 0.984 . S
H485 N472 0.985 . S
C486 C487 1.363 . S
C486 C492 1.379 . S
C486 N494 1.356 . S
C487 C486 1.363 . S
C487 C493 1.363 . S
C488 C489 1.363 . S
C488 C493 1.379 . S
C488 N495 1.356 . S
C489 C488 1.363 . S
C489 C492 1.363 . S
N490 C492 1.356 . S
N490 H502 0.984 . S
N490 H503 0.985 . S
N491 C493 1.356 . S
N491 H496 0.984 . S
N491 H497 0.985 . S
C492 C486 1.379 . S
C492 C489 1.363 . S
C492 N490 1.356 . S
C493 C487 1.363 . S
C493 C488 1.379 . S
C493 N491 1.356 . S
N494 C486 1.356 . S
N494 H500 0.984 . S
N494 H501 0.984 . S
N495 C488 1.356 . S
N495 H498 0.984 . S
N495 H499 0.985 . S
H496 N491 0.984 . S
H497 N491 0.985 . S
H498 N495 0.984 . S
H499 N495 0.985 . S
H500 N494 0.984 . S
H501 N494 0.984 . S
H502 N490 0.984 . S
H503 N490 0.985 . S
C504 C505 1.363 . S
C504 C510 1.379 . S
C504 N512 1.356 . S
C505 C504 1.363 . S
C505 C511 1.363 1_655 S
C506 C507 1.363 . S
C506 C511 1.379 . S
C506 N513 1.356 . S
C507 C506 1.363 . S
C507 C510 1.363 1_455 S
N508 C510 1.356 . S
N508 H520 0.984 . S
N508 H521 0.985 1_655 S
N509 C511 1.356 . S
N509 H514 0.984 1_455 S
N509 H515 0.985 . S
C510 C504 1.379 . S
C510 C507 1.363 1_655 S
C510 N508 1.356 . S
C511 C505 1.363 1_455 S
C511 C506 1.379 . S
C511 N509 1.356 . S
N512 C504 1.356 . S
N512 H518 0.984 . S
N512 H519 0.984 . S
N513 C506 1.356 . S
N513 H516 0.984 . S
N513 H517 0.985 . S
H514 N509 0.984 1_655 S
H515 N509 0.985 . S
H516 N513 0.984 . S
H517 N513 0.985 . S
H518 N512 0.984 . S
H519 N512 0.984 . S
H520 N508 0.984 . S
H521 N508 0.985 1_455 S
C522 C523 1.363 . S
C522 C528 1.379 . S
C522 N530 1.356 . S
C523 C522 1.363 . S
C523 C529 1.363 . S
C524 C525 1.363 . S
C524 C529 1.379 . S
C524 N531 1.356 . S
C525 C524 1.363 . S
C525 C528 1.363 . S
N526 C528 1.356 . S
N526 H538 0.984 . S
N526 H539 0.985 . S
N527 C529 1.356 . S
N527 H532 0.984 . S
N527 H533 0.985 . S
C528 C522 1.379 . S
C528 C525 1.363 . S
C528 N526 1.356 . S
C529 C523 1.363 . S
C529 C524 1.379 . S
C529 N527 1.356 . S
N530 C522 1.356 . S
N530 H536 0.984 . S
N530 H537 0.984 . S
N531 C524 1.356 . S
N531 H534 0.984 . S
N531 H535 0.985 . S
H532 N527 0.984 . S
H533 N527 0.985 . S
H534 N531 0.984 . S
H535 N531 0.985 . S
H536 N530 0.984 . S
H537 N530 0.984 . S
H538 N526 0.984 . S
H539 N526 0.985 . S
C540 C541 1.363 1_545 S
C540 C546 1.379 . S
C540 N548 1.356 . S
C541 C540 1.363 1_565 S
C541 C547 1.363 . S
C542 C543 1.363 1_565 S
C542 C547 1.379 . S
C542 N549 1.356 . S
C543 C542 1.363 1_545 S
C543 C546 1.363 . S
N544 C546 1.356 . S
N544 H556 0.984 . S
N544 H557 0.985 . S
N545 C547 1.356 . S
N545 H550 0.984 . S
N545 H551 0.985 . S
C546 C540 1.379 . S
C546 C543 1.363 . S
C546 N544 1.356 . S
C547 C541 1.363 . S
C547 C542 1.379 . S
C547 N545 1.356 . S
N548 C540 1.356 . S
N548 H554 0.984 . S
N548 H555 0.984 1_545 S
N549 C542 1.356 . S
N549 H552 0.984 1_565 S
N549 H553 0.985 . S
H550 N545 0.984 . S
H551 N545 0.985 . S
H552 N549 0.984 1_545 S
H553 N549 0.985 . S
H554 N548 0.984 . S
H555 N548 0.984 1_565 S
H556 N544 0.984 . S
H557 N544 0.985 . S
C558 C559 1.363 1_556 S
C558 C564 1.379 . S
C558 N566 1.356 . S
C559 C558 1.363 1_554 S
C559 C565 1.363 . S
C560 C561 1.363 1_554 S
C560 C565 1.379 . S
C560 N567 1.356 . S
C561 C560 1.363 1_556 S
C561 C564 1.363 . S
N562 C564 1.356 . S
N562 H574 0.984 . S
N562 H575 0.985 . S
N563 C565 1.356 . S
N563 H568 0.984 . S
N563 H569 0.985 . S
C564 C558 1.379 . S
C564 C561 1.363 . S
C564 N562 1.356 . S
C565 C559 1.363 . S
C565 C560 1.379 . S
C565 N563 1.356 . S
N566 C558 1.356 . S
N566 H572 0.984 . S
N566 H573 0.984 . S
N567 C560 1.356 . S
N567 H570 0.984 . S
N567 H571 0.985 . S
H568 N563 0.984 . S
H569 N563 0.985 . S
H570 N567 0.984 . S
H571 N567 0.985 . S
H572 N566 0.984 . S
H573 N566 0.984 . S
H574 N562 0.984 . S
H575 N562 0.985 . S
C576 C577 1.363 1_554 S
C576 C582 1.379 1_545 S
C576 N584 1.356 . S
C577 C576 1.363 1_556 S
C577 C583 1.363 . S
C578 C579 1.363 1_556 S
C578 C583 1.379 1_565 S
C578 N585 1.356 . S
C579 C578 1.363 1_554 S
C579 C582 1.363 . S
N580 C582 1.356 . S
N580 H592 0.984 . S
N580 H593 0.985 . S
N581 C583 1.356 . S
N581 H586 0.984 . S
N581 H587 0.985 . S
C582 C576 1.379 1_565 S
C582 C579 1.363 . S
C582 N580 1.356 . S
C583 C577 1.363 . S
C583 C578 1.379 1_545 S
C583 N581 1.356 . S
N584 C576 1.356 . S
N584 H590 0.984 . S
N584 H591 0.984 . S
N585 C578 1.356 . S
N585 H588 0.984 . S
N585 H589 0.985 . S
H586 N581 0.984 . S
H587 N581 0.985 . S
H588 N585 0.984 . S
H589 N585 0.985 . S
H590 N584 0.984 . S
H591 N584 0.984 . S
H592 N580 0.984 . S
H593 N580 0.985 . S
C594 C595 1.363 . S
C594 C600 1.379 1_655 S
C594 N602 1.356 . S
C595 C594 1.363 . S
C595 C601 1.363 1_556 S
C596 C597 1.363 . S
C596 C601 1.379 1_455 S
C596 N603 1.356 . S
C597 C596 1.363 . S
C597 C600 1.363 1_554 S
N598 C600 1.356 . S
N598 H610 0.984 . S
N598 H611 0.985 . S
N599 C601 1.356 . S
N599 H604 0.984 . S
N599 H605 0.985 . S
C600 C594 1.379 1_455 S
C600 C597 1.363 1_556 S
C600 N598 1.356 . S
C601 C595 1.363 1_554 S
C601 C596 1.379 1_655 S
C601 N599 1.356 . S
N602 C594 1.356 . S
N602 H608 0.984 . S
N602 H609 0.984 . S
N603 C596 1.356 . S
N603 H606 0.984 . S
N603 H607 0.985 . S
H604 N599 0.984 . S
H605 N599 0.985 . S
H606 N603 0.984 . S
H607 N603 0.985 . S
H608 N602 0.984 . S
H609 N602 0.984 . S
H610 N598 0.984 . S
H611 N598 0.985 . S
C612 C613 1.363 . S
C612 C618 1.379 . S
C612 N620 1.356 . S
C613 C612 1.363 . S
C613 C619 1.363 1_556 S
C614 C615 1.363 . S
C614 C619 1.379 . S
C614 N621 1.356 . S
C615 C614 1.363 . S
C615 C618 1.363 1_554 S
N616 C618 1.356 . S
N616 H628 0.984 . S
N616 H629 0.985 . S
N617 C619 1.356 . S
N617 H622 0.984 . S
N617 H623 0.985 . S
C618 C612 1.379 . S
C618 C615 1.363 1_556 S
C618 N616 1.356 . S
C619 C613 1.363 1_554 S
C619 C614 1.379 . S
C619 N617 1.356 . S
N620 C612 1.356 . S
N620 H626 0.984 . S
N620 H627 0.984 . S
N621 C614 1.356 . S
N621 H624 0.984 . S
N621 H625 0.985 . S
H622 N617 0.984 . S
H623 N617 0.985 . S
H624 N621 0.984 . S
H625 N621 0.985 . S
H626 N620 0.984 . S
H627 N620 0.984 . S
H628 N616 0.984 . S
H629 N616 0.985 . S
C630 C631 1.363 . S
C630 C636 1.379 1_565 S
C630 N638 1.356 . S
C631 C630 1.363 . S
C631 C637 1.363 1_554 S
C632 C633 1.363 . S
C632 C637 1.379 1_545 S
C632 N639 1.356 . S
C633 C632 1.363 . S
C633 C636 1.363 1_556 S
N634 C636 1.356 . S
N634 H646 0.984 . S
N634 H647 0.985 1_554 S
N635 C637 1.356 . S
N635 H640 0.984 1_556 S
N635 H641 0.985 . S
C636 C630 1.379 1_545 S
C636 C633 1.363 1_554 S
C636 N634 1.356 . S
C637 C631 1.363 1_556 S
C637 C632 1.379 1_565 S
C637 N635 1.356 . S
N638 C630 1.356 . S
N638 H644 0.984 . S
N638 H645 0.984 . S
N639 C632 1.356 . S
N639 H642 0.984 . S
N639 H643 0.985 . S
H640 N635 0.984 1_554 S
H641 N635 0.985 . S
H642 N639 0.984 . S
H643 N639 0.985 . S
H644 N638 0.984 . S
H645 N638 0.984 . S
H646 N634 0.984 . S
H647 N634 0.985 1_556 S
C648 C649 1.363 . S
C648 C654 1.379 1_655 S
C648 N656 1.356 . S
C649 C648 1.363 . S
C649 C655 1.363 1_556 S
C650 C651 1.363 . S
C650 C655 1.379 1_455 S
C650 N657 1.356 . S
C651 C650 1.363 . S
C651 C654 1.363 1_554 S
N652 C654 1.356 . S
N652 H664 0.984 . S
N652 H665 0.985 . S
N653 C655 1.356 . S
N653 H658 0.984 . S
N653 H659 0.985 . S
C654 C648 1.379 1_455 S
C654 C651 1.363 1_556 S
C654 N652 1.356 . S
C655 C649 1.363 1_554 S
C655 C650 1.379 1_655 S
C655 N653 1.356 . S
N656 C648 1.356 . S
N656 H662 0.984 . S
N656 H663 0.984 . S
N657 C650 1.356 . S
N657 H660 0.984 . S
N657 H661 0.985 . S
H658 N653 0.984 . S
H659 N653 0.985 . S
H660 N657 0.984 . S
H661 N657 0.985 . S
H662 N656 0.984 . S
H663 N656 0.984 . S
H664 N652 0.984 . S
H665 N652 0.985 . S
C666 C667 1.363 . S
C666 C672 1.379 . S
C666 N674 1.356 . S
C667 C666 1.363 . S
C667 C673 1.363 . S
C668 C669 1.363 . S
C668 C673 1.379 . S
C668 N675 1.356 . S
C669 C668 1.363 . S
C669 C672 1.363 . S
N670 C672 1.356 . S
N670 H682 0.984 . S
N670 H683 0.985 . S
N671 C673 1.356 . S
N671 H676 0.984 . S
N671 H677 0.985 . S
C672 C666 1.379 . S
C672 C669 1.363 . S
C672 N670 1.356 . S
C673 C667 1.363 . S
C673 C668 1.379 . S
C673 N671 1.356 . S
N674 C666 1.356 . S
N674 H680 0.984 . S
N674 H681 0.984 . S
N675 C668 1.356 . S
N675 H678 0.984 . S
N675 H679 0.985 . S
H676 N671 0.984 . S
H677 N671 0.985 . S
H678 N675 0.984 . S
H679 N675 0.985 . S
H680 N674 0.984 . S
H681 N674 0.984 . S
H682 N670 0.984 . S
H683 N670 0.985 . S
C684 C685 1.363 . S
C684 C690 1.379 . S
C684 N692 1.356 . S
C685 C684 1.363 . S
C685 C691 1.363 . S
C686 C687 1.363 . S
C686 C691 1.379 . S
C686 N693 1.356 . S
C687 C686 1.363 . S
C687 C690 1.363 . S
N688 C690 1.356 . S
N688 H700 0.984 . S
N688 H701 0.985 . S
N689 C691 1.356 . S
N689 H694 0.984 . S
N689 H695 0.985 . S
C690 C684 1.379 . S
C690 C687 1.363 . S
C690 N688 1.356 . S
C691 C685 1.363 . S
C691 C686 1.379 . S
C691 N689 1.356 . S
N692 C684 1.356 . S
N692 H698 0.984 . S
N692 H699 0.984 . S
N693 C686 1.356 . S
N693 H696 0.984 . S
N693 H697 0.985 . S
H694 N689 0.984 . S
H695 N689 0.985 . S
H696 N693 0.984 . S
H697 N693 0.985 . S
H698 N692 0.984 . S
H699 N692 0.984 . S
H700 N688 0.984 . S
H701 N688 0.985 . S
C702 C703 1.363 . S
C702 C708 1.379 . S
C702 N710 1.356 . S
C703 C702 1.363 . S
C703 C709 1.363 . S
C704 C705 1.363 . S
C704 C709 1.379 . S
C704 N711 1.356 . S
C705 C704 1.363 . S
C705 C708 1.363 . S
N706 C708 1.356 . S
N706 H718 0.984 . S
N706 H719 0.985 . S
N707 C709 1.356 . S
N707 H712 0.984 . S
N707 H713 0.985 . S
C708 C702 1.379 . S
C708 C705 1.363 . S
C708 N706 1.356 . S
C709 C703 1.363 . S
C709 C704 1.379 . S
C709 N707 1.356 . S
N710 C702 1.356 . S
N710 H716 0.984 . S
N710 H717 0.984 . S
N711 C704 1.356 . S
N711 H714 0.984 . S
N711 H715 0.985 . S
H712 N707 0.984 . S
H713 N707 0.985 . S
H714 N711 0.984 . S
H715 N711 0.985 . S
H716 N710 0.984 . S
H717 N710 0.984 . S
H718 N706 0.984 . S
H719 N706 0.985 . S
C720 C721 1.363 . S
C720 C726 1.379 . S
C720 N728 1.356 . S
C721 C720 1.363 . S
C721 C727 1.363 . S
C722 C723 1.363 . S
C722 C727 1.379 . S
C722 N729 1.356 . S
C723 C722 1.363 . S
C723 C726 1.363 . S
N724 C726 1.356 . S
N724 H736 0.984 . S
N724 H737 0.985 . S
N725 C727 1.356 . S
N725 H730 0.984 . S
N725 H731 0.985 . S
C726 C720 1.379 . S
C726 C723 1.363 . S
C726 N724 1.356 . S
C727 C721 1.363 . S
C727 C722 1.379 . S
C727 N725 1.356 . S
N728 C720 1.356 . S
N728 H734 0.984 . S
N728 H735 0.984 . S
N729 C722 1.356 . S
N729 H732 0.984 . S
N729 H733 0.985 . S
H730 N725 0.984 . S
H731 N725 0.985 . S
H732 N729 0.984 . S
H733 N729 0.985 . S
H734 N728 0.984 . S
H735 N728 0.984 . S
H736 N724 0.984 . S
H737 N724 0.985 . S
C738 C739 1.363 . S
C738 C744 1.379 . S
C738 N746 1.356 . S
C739 C738 1.363 . S
C739 C745 1.363 . S
C740 C741 1.363 . S
C740 C745 1.379 . S
C740 N747 1.356 . S
C741 C740 1.363 . S
C741 C744 1.363 . S
N742 C744 1.356 . S
N742 H754 0.984 . S
N742 H755 0.985 . S
N743 C745 1.356 . S
N743 H748 0.984 . S
N743 H749 0.985 . S
C744 C738 1.379 . S
C744 C741 1.363 . S
C744 N742 1.356 . S
C745 C739 1.363 . S
C745 C740 1.379 . S
C745 N743 1.356 . S
N746 C738 1.356 . S
N746 H752 0.984 . S
N746 H753 0.984 . S
N747 C740 1.356 . S
N747 H750 0.984 . S
N747 H751 0.985 . S
H748 N743 0.984 . S
H749 N743 0.985 . S
H750 N747 0.984 . S
H751 N747 0.985 . S
H752 N746 0.984 . S
H753 N746 0.984 . S
H754 N742 0.984 . S
H755 N742 0.985 . S
C756 C757 1.363 . S
C756 C762 1.379 . S
C756 N764 1.356 . S
C757 C756 1.363 . S
C757 C763 1.363 . S
C758 C759 1.363 . S
C758 C763 1.379 . S
C758 N765 1.356 . S
C759 C758 1.363 . S
C759 C762 1.363 . S
N760 C762 1.356 . S
N760 H772 0.984 . S
N760 H773 0.985 . S
N761 C763 1.356 . S
N761 H766 0.984 . S
N761 H767 0.985 . S
C762 C756 1.379 . S
C762 C759 1.363 . S
C762 N760 1.356 . S
C763 C757 1.363 . S
C763 C758 1.379 . S
C763 N761 1.356 . S
N764 C756 1.356 . S
N764 H770 0.984 . S
N764 H771 0.984 . S
N765 C758 1.356 . S
N765 H768 0.984 . S
N765 H769 0.985 . S
H766 N761 0.984 . S
H767 N761 0.985 . S
H768 N765 0.984 . S
H769 N765 0.985 . S
H770 N764 0.984 . S
H771 N764 0.984 . S
H772 N760 0.984 . S
H773 N760 0.985 . S
C774 C775 1.363 . S
C774 C780 1.379 . S
C774 N782 1.356 . S
C775 C774 1.363 . S
C775 C781 1.363 . S
C776 C777 1.363 . S
C776 C781 1.379 . S
C776 N783 1.356 . S
C777 C776 1.363 . S
C777 C780 1.363 . S
N778 C780 1.356 . S
N778 H790 0.984 . S
N778 H791 0.985 . S
N779 C781 1.356 . S
N779 H784 0.984 . S
N779 H785 0.985 . S
C780 C774 1.379 . S
C780 C777 1.363 . S
C780 N778 1.356 . S
C781 C775 1.363 . S
C781 C776 1.379 . S
C781 N779 1.356 . S
N782 C774 1.356 . S
N782 H788 0.984 . S
N782 H789 0.984 . S
N783 C776 1.356 . S
N783 H786 0.984 . S
N783 H787 0.985 . S
H784 N779 0.984 . S
H785 N779 0.985 . S
H786 N783 0.984 . S
H787 N783 0.985 . S
H788 N782 0.984 . S
H789 N782 0.984 . S
H790 N778 0.984 . S
H791 N778 0.985 . S
C792 C793 1.363 . S
C792 C798 1.379 . S
C792 N800 1.356 . S
C793 C792 1.363 . S
C793 C799 1.363 . S
C794 C795 1.363 . S
C794 C799 1.379 . S
C794 N801 1.356 . S
C795 C794 1.363 . S
C795 C798 1.363 . S
N796 C798 1.356 . S
N796 H808 0.984 . S
N796 H809 0.985 . S
N797 C799 1.356 . S
N797 H802 0.984 . S
N797 H803 0.985 . S
C798 C792 1.379 . S
C798 C795 1.363 . S
C798 N796 1.356 . S
C799 C793 1.363 . S
C799 C794 1.379 . S
C799 N797 1.356 . S
N800 C792 1.356 . S
N800 H806 0.984 . S
N800 H807 0.984 . S
N801 C794 1.356 . S
N801 H804 0.984 . S
N801 H805 0.985 . S
H802 N797 0.984 . S
H803 N797 0.985 . S
H804 N801 0.984 . S
H805 N801 0.985 . S
H806 N800 0.984 . S
H807 N800 0.984 . S
H808 N796 0.984 . S
H809 N796 0.985 . S
C810 C811 1.363 . S
C810 C816 1.379 . S
C810 N818 1.356 . S
C811 C810 1.363 . S
C811 C817 1.363 . S
C812 C813 1.363 . S
C812 C817 1.379 . S
C812 N819 1.356 . S
C813 C812 1.363 . S
C813 C816 1.363 . S
N814 C816 1.356 . S
N814 H826 0.984 . S
N814 H827 0.985 . S
N815 C817 1.356 . S
N815 H820 0.984 . S
N815 H821 0.985 . S
C816 C810 1.379 . S
C816 C813 1.363 . S
C816 N814 1.356 . S
C817 C811 1.363 . S
C817 C812 1.379 . S
C817 N815 1.356 . S
N818 C810 1.356 . S
N818 H824 0.984 . S
N818 H825 0.984 . S
N819 C812 1.356 . S
N819 H822 0.984 . S
N819 H823 0.985 . S
H820 N815 0.984 . S
H821 N815 0.985 . S
H822 N819 0.984 . S
H823 N819 0.985 . S
H824 N818 0.984 . S
H825 N818 0.984 . S
H826 N814 0.984 . S
H827 N814 0.985 . S
C828 C829 1.363 . S
C828 C834 1.379 . S
C828 N836 1.356 . S
C829 C828 1.363 . S
C829 C835 1.363 . S
C830 C831 1.363 . S
C830 C835 1.379 . S
C830 N837 1.356 . S
C831 C830 1.363 . S
C831 C834 1.363 . S
N832 C834 1.356 . S
N832 H844 0.984 . S
N832 H845 0.985 . S
N833 C835 1.356 . S
N833 H838 0.984 . S
N833 H839 0.985 . S
C834 C828 1.379 . S
C834 C831 1.363 . S
C834 N832 1.356 . S
C835 C829 1.363 . S
C835 C830 1.379 . S
C835 N833 1.356 . S
N836 C828 1.356 . S
N836 H842 0.984 . S
N836 H843 0.984 . S
N837 C830 1.356 . S
N837 H840 0.984 . S
N837 H841 0.985 . S
H838 N833 0.984 . S
H839 N833 0.985 . S
H840 N837 0.984 . S
H841 N837 0.985 . S
H842 N836 0.984 . S
H843 N836 0.984 . S
H844 N832 0.984 . S
H845 N832 0.985 . S
C846 C847 1.363 . S
C846 C852 1.379 . S
C846 N854 1.356 . S
C847 C846 1.363 . S
C847 C853 1.363 . S
C848 C849 1.363 . S
C848 C853 1.379 . S
C848 N855 1.356 . S
C849 C848 1.363 . S
C849 C852 1.363 . S
N850 C852 1.356 . S
N850 H862 0.984 . S
N850 H863 0.985 . S
N851 C853 1.356 . S
N851 H856 0.984 . S
N851 H857 0.985 . S
C852 C846 1.379 . S
C852 C849 1.363 . S
C852 N850 1.356 . S
C853 C847 1.363 . S
C853 C848 1.379 . S
C853 N851 1.356 . S
N854 C846 1.356 . S
N854 H860 0.984 . S
N854 H861 0.984 . S
N855 C848 1.356 . S
N855 H858 0.984 . S
N855 H859 0.985 . S
H856 N851 0.984 . S
H857 N851 0.985 . S
H858 N855 0.984 . S
H859 N855 0.985 . S
H860 N854 0.984 . S
H861 N854 0.984 . S
H862 N850 0.984 . S
H863 N850 0.985 . S
C864 C865 1.363 . S
C864 C870 1.379 . S
C864 N872 1.356 . S
C865 C864 1.363 . S
C865 C871 1.363 . S
C866 C867 1.363 . S
C866 C871 1.379 . S
C866 N873 1.356 . S
C867 C866 1.363 . S
C867 C870 1.363 . S
N868 C870 1.356 . S
N868 H880 0.984 . S
N868 H881 0.985 . S
N869 C871 1.356 . S
N869 H874 0.984 . S
N869 H875 0.985 . S
C870 C864 1.379 . S
C870 C867 1.363 . S
C870 N868 1.356 . S
C871 C865 1.363 . S
C871 C866 1.379 . S
C871 N869 1.356 . S
N872 C864 1.356 . S
N872 H878 0.984 . S
N872 H879 0.984 . S
N873 C866 1.356 . S
N873 H876 0.984 . S
N873 H877 0.985 . S
H874 N869 0.984 . S
H875 N869 0.985 . S
H876 N873 0.984 . S
H877 N873 0.985 . S
H878 N872 0.984 . S
H879 N872 0.984 . S
H880 N868 0.984 . S
H881 N868 0.985 . S
C235 C221 1.748 . S
C237 C0 1.748 . S
C253 C195 1.748 . S
C255 C13 1.748 . S
C271 C208 1.748 . S
C273 C26 1.748 . S
C289 C91 1.748 . S
C291 C39 1.748 . S
C307 C104 1.748 . S
C309 C52 1.748 . S
C325 C65 1.748 . S
C327 C78 1.748 . S
C343 C117 1.748 . S
C345 C169 1.748 . S
C361 C130 1.748 . S
C363 C182 1.748 . S
C379 C143 1.748 . S
C381 C156 1.748 . S
C397 C5 1.024 . S
C399 C226 1.024 . S
C415 C200 1.024 . S
C417 C18 1.024 . S
C433 C31 1.024 . S
C435 C213 1.024 . S
C451 C96 1.024 . S
C453 C44 1.024 . S
C469 C57 1.024 . S
C471 C109 1.024 . S
C487 C70 1.024 . S
C489 C83 1.024 . S
C505 C122 1.024 . S
C507 C174 1.024 . S
C523 C187 1.024 . S
C525 C135 1.024 . S
C541 C161 1.024 . S
C543 C148 1.024 . S
C559 C10 1.484 . S
C561 C49 1.484 . S
C577 C62 1.483 . S
C579 C23 1.483 . S
C595 C75 1.483 . S
C597 C36 1.483 . S
C613 C73 1.438 . S
C615 C21 1.438 . S
C631 C34 1.438 . S
C633 C47 1.438 . S
C649 C60 1.438 . S
C651 C8 1.438 . S
C667 C88 1.484 . S
C669 C127 1.484 . S
C685 C140 1.483 . S
C687 C101 1.483 . S
C703 C153 1.483 . S
C705 C114 1.483 . S
C721 C151 1.438 . S
C723 C99 1.438 . S
C739 C112 1.438 . S
C741 C125 1.438 . S
C757 C138 1.438 . S
C759 C86 1.438 . S
C775 C205 1.484 . S
C777 C166 1.484 . S
C793 C218 1.483 . S
C795 C179 1.483 . S
C811 C192 1.483 . S
C813 C231 1.483 . S
C829 C229 1.438 . S
C831 C177 1.438 . S
C847 C190 1.438 . S
C849 C203 1.438 . S
C865 C216 1.438 . S
C867 C164 1.438 . S
