# Generated by pormake.
# Topology zfg, (5)-cn, num edge types: 1
# Building blocks:
#     Node 0, Type 0, BuildingBlock: XOMCOT_clean_sbu_0, # of connection points: 5
#     Node 1, Type 0, BuildingBlock: XOMCOT_clean_sbu_0, # of connection points: 5
#     Node 2, Type 0, BuildingBlock: XOMCOT_clean_sbu_0, # of connection points: 5
#     Node 3, Type 0, BuildingBlock: XOMCOT_clean_sbu_0, # of connection points: 5
#     Node 4, Type 0, BuildingBlock: XOMCOT_clean_sbu_0, # of connection points: 5
#     Node 5, Type 0, BuildingBlock: XOMCOT_clean_sbu_0, # of connection points: 5
#     Node 6, Type 0, BuildingBlock: XOMCOT_clean_sbu_0, # of connection points: 5
#     Node 7, Type 0, BuildingBlock: XOMCOT_clean_sbu_0, # of connection points: 5
#     Node 8, Type 0, BuildingBlock: XOMCOT_clean_sbu_0, # of connection points: 5
#     Node 9, Type 0, BuildingBlock: XOMCOT_clean_sbu_0, # of connection points: 5
#     Node 10, Type 0, BuildingBlock: XOMCOT_clean_sbu_0, # of connection points: 5
#     Node 11, Type 0, BuildingBlock: XOMCOT_clean_sbu_0, # of connection points: 5
#     Node 12, Type 0, BuildingBlock: XOMCOT_clean_sbu_0, # of connection points: 5
#     Node 13, Type 0, BuildingBlock: XOMCOT_clean_sbu_0, # of connection points: 5
#     Node 14, Type 0, BuildingBlock: XOMCOT_clean_sbu_0, # of connection points: 5
#     Node 15, Type 0, BuildingBlock: XOMCOT_clean_sbu_0, # of connection points: 5
#     Edge 16, Type (0, 0), BuildingBlock: UVAHIK_clean_linker_0, # of connection points: 2
#     Edge 17, Type (0, 0), BuildingBlock: UVAHIK_clean_linker_0, # of connection points: 2
#     Edge 18, Type (0, 0), BuildingBlock: UVAHIK_clean_linker_0, # of connection points: 2
#     Edge 19, Type (0, 0), BuildingBlock: UVAHIK_clean_linker_0, # of connection points: 2
#     Edge 20, Type (0, 0), BuildingBlock: UVAHIK_clean_linker_0, # of connection points: 2
#     Edge 21, Type (0, 0), BuildingBlock: UVAHIK_clean_linker_0, # of connection points: 2
#     Edge 22, Type (0, 0), BuildingBlock: UVAHIK_clean_linker_0, # of connection points: 2
#     Edge 23, Type (0, 0), BuildingBlock: UVAHIK_clean_linker_0, # of connection points: 2
#     Edge 24, Type (0, 0), BuildingBlock: UVAHIK_clean_linker_0, # of connection points: 2
#     Edge 25, Type (0, 0), BuildingBlock: UVAHIK_clean_linker_0, # of connection points: 2
#     Edge 26, Type (0, 0), BuildingBlock: UVAHIK_clean_linker_0, # of connection points: 2
#     Edge 27, Type (0, 0), BuildingBlock: UVAHIK_clean_linker_0, # of connection points: 2
#     Edge 28, Type (0, 0), BuildingBlock: UVAHIK_clean_linker_0, # of connection points: 2
#     Edge 29, Type (0, 0), BuildingBlock: UVAHIK_clean_linker_0, # of connection points: 2
#     Edge 30, Type (0, 0), BuildingBlock: UVAHIK_clean_linker_0, # of connection points: 2
#     Edge 31, Type (0, 0), BuildingBlock: UVAHIK_clean_linker_0, # of connection points: 2
#     Edge 32, Type (0, 0), BuildingBlock: UVAHIK_clean_linker_0, # of connection points: 2
#     Edge 33, Type (0, 0), BuildingBlock: UVAHIK_clean_linker_0, # of connection points: 2
#     Edge 34, Type (0, 0), BuildingBlock: UVAHIK_clean_linker_0, # of connection points: 2
#     Edge 35, Type (0, 0), BuildingBlock: UVAHIK_clean_linker_0, # of connection points: 2
#     Edge 36, Type (0, 0), BuildingBlock: UVAHIK_clean_linker_0, # of connection points: 2
#     Edge 37, Type (0, 0), BuildingBlock: UVAHIK_clean_linker_0, # of connection points: 2
#     Edge 38, Type (0, 0), BuildingBlock: UVAHIK_clean_linker_0, # of connection points: 2
#     Edge 39, Type (0, 0), BuildingBlock: UVAHIK_clean_linker_0, # of connection points: 2
#     Edge 40, Type (0, 0), BuildingBlock: UVAHIK_clean_linker_0, # of connection points: 2
#     Edge 41, Type (0, 0), BuildingBlock: UVAHIK_clean_linker_0, # of connection points: 2
#     Edge 42, Type (0, 0), BuildingBlock: UVAHIK_clean_linker_0, # of connection points: 2
#     Edge 43, Type (0, 0), BuildingBlock: UVAHIK_clean_linker_0, # of connection points: 2
#     Edge 44, Type (0, 0), BuildingBlock: UVAHIK_clean_linker_0, # of connection points: 2
#     Edge 45, Type (0, 0), BuildingBlock: UVAHIK_clean_linker_0, # of connection points: 2
#     Edge 46, Type (0, 0), BuildingBlock: UVAHIK_clean_linker_0, # of connection points: 2
#     Edge 47, Type (0, 0), BuildingBlock: UVAHIK_clean_linker_0, # of connection points: 2
#     Edge 48, Type (0, 0), BuildingBlock: UVAHIK_clean_linker_0, # of connection points: 2
#     Edge 49, Type (0, 0), BuildingBlock: UVAHIK_clean_linker_0, # of connection points: 2
#     Edge 50, Type (0, 0), BuildingBlock: UVAHIK_clean_linker_0, # of connection points: 2
#     Edge 51, Type (0, 0), BuildingBlock: UVAHIK_clean_linker_0, # of connection points: 2
#     Edge 52, Type (0, 0), BuildingBlock: UVAHIK_clean_linker_0, # of connection points: 2
#     Edge 53, Type (0, 0), BuildingBlock: UVAHIK_clean_linker_0, # of connection points: 2
#     Edge 54, Type (0, 0), BuildingBlock: UVAHIK_clean_linker_0, # of connection points: 2
#     Edge 55, Type (0, 0), BuildingBlock: UVAHIK_clean_linker_0, # of connection points: 2
# Relax obj value: 0.156
# Max RMSD: 0.183
# Mean RMSD: 0.183
data_MOF--net-zfg--node1-XOMCOT_clean_sbu_0--edge1-UVAHIK_clean_linker_0
_symmetry_space_group_name_H-M    P1
_symmetry_Int_Tables_number       1
_symmetry_cell_setting            triclinic
loop_
_symmetry_equiv_pos_as_xyz
'x, y, z'
_cell_length_a     52.443473
_cell_length_b     52.440811
_cell_length_c     67.852438
_cell_angle_alpha  89.846675
_cell_angle_beta   89.921911
_cell_angle_gamma 90.032086
loop_
_atom_site_label
_atom_site_type_symbol
_atom_site_fract_x
_atom_site_fract_y
_atom_site_fract_z
_atom_type_partial_charge
Co0 Co 0.06486 0.29845 0.1384 0.0
C1 C 0.09465 0.25038 0.14378 0.0
C2 C 0.11328 0.28359 0.15543 0.0
C3 C 0.1278 0.26262 0.15993 0.0
N4 N 0.09242 0.27595 0.14551 0.0
N5 N 0.11609 0.24181 0.15265 0.0
H6 H 0.08059 0.23824 0.13687 0.0
H7 H 0.11731 0.3031 0.15953 0.0
C8 C 0.05148 0.32478 0.17687 0.0
O9 O 0.02771 0.32793 0.17132 0.0
N10 N 0.03776 0.32221 0.13151 0.0
C11 C 0.01297 0.31789 0.12728 0.0
C12 C 1.00094 0.34095 0.1244 0.0
C13 C 0.04041 0.34784 0.13085 0.0
N14 N 0.01824 0.35972 0.12664 0.0
C15 C 0.02926 0.25834 0.1317 0.0
C16 C 0.01439 0.24947 0.17016 0.0
C17 C 1.0015 0.2369 0.15487 0.0
C18 C 0.01006 0.24077 0.13556 0.0
C19 C 0.03401 0.26684 0.16563 0.0
N20 N 0.04012 0.27232 0.14645 0.0
H21 H 0.03436 0.26143 0.11652 0.0
H22 H 0.04399 0.27572 0.17764 0.0
H23 H 1.00375 0.29957 0.12663 0.0
H24 H 0.05803 0.35766 0.13417 0.0
O25 O 0.06835 0.28887 0.11117 0.0
O26 O 0.08921 0.32079 0.12491 0.0
O27 O 0.06743 0.31343 0.16568 0.0
C28 C 0.08449 0.30738 0.1092 0.0
H29 H 0.14557 0.2626 0.16804 0.0
H30 H 0.98099 0.34369 0.12093 0.0
H31 H 0.00897 0.24645 0.18539 0.0
H32 H 1.00157 0.23068 0.12329 0.0
Co33 Co 0.70236 0.06475 0.13832 0.0
C34 C 0.75302 0.089 0.14629 0.0
C35 C 0.72685 0.11501 0.1326 0.0
C36 C 0.74973 0.1272 0.13495 0.0
N37 N 0.72883 0.09085 0.13941 0.0
N38 N 0.76621 0.11089 0.14344 0.0
H39 H 0.76112 0.07187 0.15263 0.0
H40 H 0.71008 0.1235 0.12614 0.0
C41 C 0.67908 0.09704 0.16518 0.0
O42 O 0.69784 0.08626 0.17495 0.0
N43 N 0.67595 0.03902 0.13693 0.0
C44 C 0.67583 0.01884 0.1247 0.0
C45 C 0.65207 0.00773 0.12521 0.0
C46 C 0.65224 0.03994 0.1447 0.0
N47 N 0.63712 0.02112 0.13767 0.0
C48 C 0.74428 0.03526 0.12227 0.0
C49 C 0.74436 1.00058 0.15314 0.0
C50 C 0.76083 0.99656 0.13713 0.0
C51 C 0.7611 0.01452 0.12174 0.0
C52 C 0.72819 0.02169 0.15321 0.0
N53 N 0.72789 0.03824 0.13773 0.0
H54 H 0.74425 0.04875 0.1102 0.0
H55 H 0.71518 0.02452 0.16539 0.0
H56 H 0.69145 0.01347 0.11516 0.0
H57 H 0.64589 0.05465 0.15467 0.0
O58 O 0.70085 0.06868 0.10919 0.0
O59 O 0.67639 0.09031 0.12769 0.0
O60 O 0.67642 0.09155 0.14676 0.0
C61 C 0.68311 0.08489 0.1099 0.0
H62 H 0.75405 0.14661 0.13058 0.0
H63 H 0.64588 0.99202 0.11609 0.0
H64 H 0.74384 0.98738 0.16544 0.0
H65 H 0.77357 0.0121 0.10915 0.0
Co66 Co 0.94177 0.69726 0.13303 0.0
C67 C 0.91654 0.74793 0.13616 0.0
C68 C 0.89833 0.71921 0.15395 0.0
C69 C 0.88588 0.74194 0.15681 0.0
N70 N 0.91771 0.72301 0.14123 0.0
N71 N 0.89729 0.75992 0.14564 0.0
H72 H 0.92962 0.75713 0.12604 0.0
H73 H 0.89344 0.70112 0.16062 0.0
C74 C 0.95298 0.66719 0.17019 0.0
O75 O 0.97677 0.66407 0.16462 0.0
N76 N 0.9653 0.67058 0.12481 0.0
C77 C 0.98885 0.67233 0.1169 0.0
C78 C 0.99813 0.64818 0.11373 0.0
C79 C 0.96047 0.64527 0.12582 0.0
N80 N 0.98034 0.63103 0.11938 0.0
C81 C 0.98345 0.73154 0.12781 0.0
C82 C 0.9955 0.73932 0.16694 0.0
C83 C 0.0112 0.74978 0.15227 0.0
C84 C 1.00453 0.74633 0.13257 0.0
C85 C 0.97448 0.72424 0.16146 0.0
N86 N 0.96965 0.71919 0.14202 0.0
H87 H 0.97903 0.72922 0.11242 0.0
H88 H 0.96224 0.71683 0.1729 0.0
H89 H 0.99903 0.6896 0.11353 0.0
H90 H 0.94273 0.63762 0.13141 0.0
O91 O 0.9396 0.70947 0.10633 0.0
O92 O 0.91468 0.6795 0.11889 0.0
O93 O 0.93755 0.68021 0.15962 0.0
C94 C 0.92112 0.69343 0.10375 0.0
H95 H 0.86939 0.74498 0.16613 0.0
H96 H 0.01686 0.64383 0.10799 0.0
H97 H 0.99972 0.74229 0.18238 0.0
H98 H 0.01583 0.75474 0.12084 0.0
Co99 Co 0.3051 0.93776 0.13756 0.0
C100 C 0.25663 0.90614 0.14249 0.0
C101 C 0.29153 0.8854 0.14608 0.0
C102 C 0.27162 0.86873 0.14846 0.0
N103 N 0.28236 0.90892 0.14226 0.0
N104 N 0.24968 0.88172 0.14619 0.0
H105 H 0.24306 0.92113 0.13985 0.0
H106 H 0.31155 0.88069 0.14719 0.0
C107 C 0.31068 0.92572 0.18025 0.0
O108 O 0.28571 0.92449 0.18147 0.0
N109 N 0.32897 0.96518 0.13309 0.0
C110 C 0.32551 0.98705 0.123 0.0
C111 C 0.34841 1.00008 0.12245 0.0
C112 C 0.35368 0.9651 0.13847 0.0
N113 N 0.36605 0.98622 0.13225 0.0
C114 C 0.25961 0.9675 0.13731 0.0
C115 C 0.27211 0.99911 0.16832 0.0
C116 C 0.24982 1.00403 0.15755 0.0
C117 C 0.24351 0.98769 0.14205 0.0
C118 C 0.28752 0.97829 0.1633 0.0
N119 N 0.28096 0.96245 0.14813 0.0
H120 H 0.25537 0.95654 0.12429 0.0
H121 H 0.30544 0.9759 0.17088 0.0
H122 H 0.30775 0.99289 0.11628 0.0
H123 H 0.36264 0.94941 0.14619 0.0
O124 O 0.29484 0.93948 0.1104 0.0
O125 O 0.32653 0.91561 0.12165 0.0
O126 O 0.32138 0.93146 0.16393 0.0
C127 C 0.31314 0.92354 0.1067 0.0
H128 H 0.27317 0.8486 0.15182 0.0
H129 H 0.35181 0.01828 0.11536 0.0
H130 H 0.27797 0.01166 0.18013 0.0
H131 H 0.22701 0.99135 0.13288 0.0
Co132 Co 0.57754 0.21551 0.37615 0.0
C133 C 0.60645 0.26464 0.37122 0.0
C134 C 0.62404 0.23242 0.35725 0.0
C135 C 0.63889 0.25345 0.35385 0.0
N136 N 0.60365 0.23933 0.36799 0.0
N137 N 0.62807 0.27384 0.36268 0.0
H138 H 0.59316 0.27588 0.37975 0.0
H139 H 0.62787 0.21325 0.35223 0.0
C140 C 0.56325 0.18881 0.33797 0.0
O141 O 0.53948 0.18639 0.34382 0.0
N142 N 0.55226 0.19034 0.38412 0.0
C143 C 0.52978 0.19323 0.39354 0.0
C144 C 0.5194 0.16948 0.39703 0.0
C145 C 0.55542 0.16485 0.38248 0.0
N146 N 0.53557 0.15163 0.39007 0.0
C147 C 0.53895 0.25281 0.38324 0.0
C148 C 0.52328 0.26056 0.3449 0.0
C149 C 0.50904 0.27151 0.36027 0.0
C150 C 0.51798 0.26834 0.37954 0.0
C151 C 0.54456 0.24525 0.34929 0.0
N152 N 0.551 0.23997 0.36841 0.0
H153 H 0.54462 0.25032 0.39837 0.0
H154 H 0.55553 0.23768 0.33722 0.0
H155 H 0.52147 0.21101 0.39814 0.0
H156 H 0.57196 0.15622 0.37567 0.0
O157 O 0.5816 0.22607 0.40315 0.0
O158 O 0.60342 0.19476 0.38936 0.0
O159 O 0.57964 0.19985 0.34898 0.0
C160 C 0.59856 0.20829 0.40499 0.0
H161 H 0.65623 0.25355 0.34521 0.0
H162 H 0.50164 0.16567 0.40463 0.0
H163 H 0.5177 0.26319 0.32967 0.0
H164 H 0.50856 0.27743 0.39188 0.0
Co165 Co 0.8167 0.57721 0.38744 0.0
C166 C 0.76747 0.60441 0.38023 0.0
C167 C 0.80006 0.62348 0.36781 0.0
C168 C 0.77865 0.63708 0.36292 0.0
N169 N 0.7931 0.6029 0.37844 0.0
N170 N 0.7582 0.62512 0.37068 0.0
H171 H 0.75588 0.59055 0.38798 0.0
H172 H 0.81946 0.62823 0.36382 0.0
C173 C 0.84767 0.56517 0.35072 0.0
O174 O 0.84945 0.54106 0.35582 0.0
N175 N 0.84167 0.5523 0.39623 0.0
C176 C 0.83866 0.52911 0.40457 0.0
C177 C 0.86241 0.51858 0.40777 0.0
C178 C 0.86715 0.5557 0.39497 0.0
N179 N 0.88032 0.53527 0.40158 0.0
C180 C 0.77954 0.53784 0.39165 0.0
C181 C 0.7723 0.52656 0.35235 0.0
C182 C 0.75849 0.51292 0.36664 0.0
C183 C 0.76209 0.51906 0.38644 0.0
C184 C 0.78933 0.54583 0.35823 0.0
N185 N 0.79367 0.55053 0.37779 0.0
H186 H 0.78179 0.54181 0.40711 0.0
H187 H 0.79847 0.55712 0.34697 0.0
H188 H 0.82077 0.52009 0.40809 0.0
H189 H 0.87579 0.57281 0.38901 0.0
O190 O 0.80326 0.57992 0.41375 0.0
O191 O 0.8352 0.60319 0.40236 0.0
O192 O 0.83511 0.58085 0.36137 0.0
C193 C 0.82009 0.59748 0.41698 0.0
H194 H 0.77814 0.65465 0.35452 0.0
H195 H 0.86608 0.49978 0.41372 0.0
H196 H 0.76955 0.52274 0.33682 0.0
H197 H 0.75179 0.50904 0.39795 0.0
Co198 Co 0.45304 0.81749 0.3874 0.0
C199 C 0.42384 0.76843 0.37856 0.0
C200 C 0.40223 0.80281 0.3753 0.0
C201 C 0.38669 0.78262 0.37091 0.0
N202 N 0.42559 0.79414 0.38018 0.0
N203 N 0.40024 0.76095 0.37289 0.0
H204 H 0.43926 0.75528 0.38089 0.0
H205 H 0.39684 0.82271 0.37486 0.0
C206 C 0.44648 0.82291 0.34435 0.0
O207 O 0.44833 0.79796 0.34345 0.0
N208 N 0.47886 0.84207 0.39435 0.0
C209 C 0.50067 0.83854 0.40443 0.0
C210 C 0.5125 0.86191 0.40665 0.0
C211 C 0.47753 0.86732 0.39076 0.0
N212 N 0.49782 0.87999 0.39811 0.0
C213 C 0.48346 0.77267 0.38938 0.0
C214 C 0.51936 0.78635 0.3615 0.0
C215 C 0.52309 0.76389 0.37248 0.0
C216 C 0.50441 0.75697 0.38625 0.0
C217 C 0.49769 0.80145 0.36491 0.0
N218 N 0.47977 0.79429 0.37851 0.0
H219 H 0.47047 0.76764 0.4011 0.0
H220 H 0.49609 0.81954 0.35736 0.0
H221 H 0.50732 0.82037 0.40999 0.0
H222 H 0.46187 0.87617 0.38295 0.0
O223 O 0.45136 0.80588 0.41417 0.0
O224 O 0.42816 0.83755 0.4021 0.0
O225 O 0.4494 0.83427 0.36083 0.0
C226 C 0.43392 0.82297 0.41702 0.0
H227 H 0.3668 0.78389 0.36683 0.0
H228 H 0.53016 0.86538 0.41443 0.0
H229 H 0.53359 0.79287 0.35107 0.0
H230 H 0.5062 0.73978 0.39502 0.0
Co231 Co 0.21235 0.45176 0.36516 0.0
C232 C 0.25876 0.42069 0.35766 0.0
C233 C 0.2382 0.42938 0.33115 0.0
C234 C 0.25996 0.41618 0.32619 0.0
N235 N 0.23738 0.43209 0.35085 0.0
N236 N 0.27289 0.41074 0.34286 0.0
H237 H 0.26438 0.42047 0.37299 0.0
H238 H 0.22432 0.43704 0.32099 0.0
C239 C 0.17385 0.43013 0.3418 0.0
O240 O 0.17908 0.45156 0.33257 0.0
N241 N 0.18731 0.47175 0.37938 0.0
C242 C 0.19061 0.48316 0.39697 0.0
C243 C 0.16769 0.4934 0.40299 0.0
C244 C 0.16244 0.47525 0.37496 0.0
N245 N 0.14995 0.48826 0.38917 0.0
C246 C 0.25246 0.48468 0.37984 0.0
C247 C 0.25017 0.51759 0.34792 0.0
C248 C 0.26762 0.52273 0.36311 0.0
C249 C 0.2686 0.50585 0.37921 0.0
C250 C 0.23416 0.49634 0.34925 0.0
N251 N 0.23539 0.4804 0.36506 0.0
H252 H 0.25362 0.47204 0.39236 0.0
H253 H 0.22068 0.49244 0.33759 0.0
H254 H 0.20823 0.48331 0.40521 0.0
H255 H 0.15344 0.46827 0.36178 0.0
O256 O 0.22467 0.43717 0.39048 0.0
O257 O 0.19441 0.41958 0.37496 0.0
O258 O 0.18552 0.42509 0.3581 0.0
C259 C 0.20858 0.4193 0.39047 0.0
H260 H 0.26585 0.4111 0.31142 0.0
H261 H 0.16417 0.50296 0.41684 0.0
H262 H 0.24896 0.52971 0.33501 0.0
H263 H 0.28141 0.50915 0.39144 0.0
Co264 Co 0.94247 0.71122 0.87287 0.0
C265 C 0.91657 0.76156 0.86804 0.0
C266 C 0.89663 0.73068 0.85408 0.0
C267 C 0.88414 0.753 0.84973 0.0
N268 N 0.9171 0.73604 0.86531 0.0
N269 N 0.89665 0.7723 0.8585 0.0
H270 H 0.93082 0.77212 0.87615 0.0
H271 H 0.89149 0.71183 0.84901 0.0
C272 C 0.95522 0.68471 0.83441 0.0
O273 O 0.97893 0.68125 0.84002 0.0
N274 N 0.96723 0.68526 0.88026 0.0
C275 C 0.99041 0.68773 0.88863 0.0
C276 C 1.00035 0.66383 0.89203 0.0
C277 C 0.96335 0.65981 0.87898 0.0
N278 N 0.98333 0.64622 0.88596 0.0
C279 C 0.98148 0.74804 0.87998 0.0
C280 C 0.99426 0.75902 0.84142 0.0
C281 C 0.00745 0.77128 0.85667 0.0
C282 C 1.00052 0.76585 0.87611 0.0
C283 C 0.97476 0.74155 0.84597 0.0
N284 N 0.96938 0.73528 0.86514 0.0
H285 H 0.97695 0.74426 0.8952 0.0
H286 H 0.96386 0.73369 0.83401 0.0
H287 H 0.99971 0.70537 0.89234 0.0
H288 H 0.94602 0.6515 0.87323 0.0
O289 O 0.93913 0.7213 0.89998 0.0
O290 O 0.91611 0.69101 0.88601 0.0
O291 O 0.93942 0.69625 0.84561 0.0
C292 C 0.92152 0.70412 0.90175 0.0
H293 H 0.86723 0.75499 0.84071 0.0
H294 H 0.01885 0.65983 0.89836 0.0
H295 H 0.99863 0.76326 0.82615 0.0
H296 H 0.01016 0.77492 0.88834 0.0
Co297 Co 0.30632 0.94692 0.87738 0.0
C298 C 0.25733 0.91918 0.86985 0.0
C299 C 0.28934 0.90386 0.85406 0.0
C300 C 0.26819 0.88976 0.84947 0.0
N301 N 0.28261 0.92237 0.8667 0.0
N302 N 0.24795 0.89916 0.85944 0.0
H303 H 0.24626 0.93103 0.87968 0.0
H304 H 0.30844 0.90074 0.84855 0.0
C305 C 0.33341 0.9643 0.84019 0.0
O306 O 0.32999 0.9885 0.84434 0.0
N307 N 0.33157 0.97068 0.88782 0.0
C308 C 0.33001 0.98664 0.90338 0.0
C309 C 0.3538 0.99671 0.9071 0.0
C310 C 0.35659 0.97065 0.88293 0.0
N311 N 0.37051 0.98666 0.89417 0.0
C312 C 0.27308 0.98879 0.88466 0.0
C313 C 0.26011 1.00001 0.84618 0.0
C314 C 0.25182 0.01619 0.86133 0.0
C315 C 0.25789 0.00991 0.88076 0.0
C316 C 0.27574 0.97901 0.8508 0.0
N317 N 0.28338 0.97465 0.86981 0.0
H318 H 0.2763 0.98377 0.89981 0.0
H319 H 0.28178 0.96645 0.8391 0.0
H320 H 0.3134 0.98978 0.91239 0.0
H321 H 0.36478 0.95796 0.87212 0.0
O322 O 0.29316 0.94075 0.90346 0.0
O323 O 0.32522 0.91955 0.88986 0.0
O324 O 0.32475 0.94675 0.85139 0.0
C325 C 0.31057 0.92327 0.90509 0.0
H326 H 0.26791 0.87392 0.83931 0.0
H327 H 0.35847 0.00995 0.91876 0.0
H328 H 0.25507 1.00387 0.83099 0.0
H329 H 0.25089 0.02131 0.89292 0.0
Co330 Co 0.06752 0.31229 0.87617 0.0
C331 C 0.09672 0.26349 0.87143 0.0
C332 C 0.11683 0.29666 0.8611 0.0
C333 C 0.13235 0.27583 0.85879 0.0
N334 N 0.09455 0.28903 0.86902 0.0
N335 N 0.11978 0.255 0.86528 0.0
H336 H 0.08222 0.25154 0.87805 0.0
H337 H 0.12162 0.31621 0.85756 0.0
C338 C 0.05799 0.34337 0.8389 0.0
O339 O 0.03378 0.34619 0.84337 0.0
N340 N 0.04118 0.33661 0.88328 0.0
C341 C 0.01676 0.33262 0.88869 0.0
C342 C 1.00522 0.35594 0.89168 0.0
C343 C 0.04423 0.36218 0.88345 0.0
N344 N 0.02249 0.37456 0.88826 0.0
C345 C 0.03175 0.27148 0.88021 0.0
C346 C 0.01379 0.26994 0.84205 0.0
C347 C 1.00259 0.25411 0.85632 0.0
C348 C 0.01229 0.25457 0.87542 0.0
C349 C 0.034 0.28618 0.84735 0.0
N350 N 0.04195 0.28782 0.86653 0.0
H351 H 0.03795 0.27165 0.8953 0.0
H352 H 0.04299 0.29713 0.83588 0.0
H353 H 0.00765 0.31426 0.89013 0.0
H354 H 0.06202 0.37146 0.87974 0.0
O355 O 0.06916 0.3007 0.9031 0.0
O356 O 0.09202 0.33258 0.89123 0.0
O357 O 0.07249 0.32959 0.84971 0.0
C358 C 0.08598 0.31827 0.90623 0.0
H359 H 0.15151 0.27598 0.85281 0.0
H360 H 0.98541 0.35887 0.89553 0.0
H361 H 0.0071 0.26964 0.82695 0.0
H362 H 1.00421 0.24254 0.88685 0.0
Co363 Co 0.70548 0.07161 0.87747 0.0
C364 C 0.75469 0.10031 0.87356 0.0
C365 C 0.72202 0.12101 0.86306 0.0
C366 C 0.74348 0.13509 0.85898 0.0
N367 N 0.72898 0.09914 0.872 0.0
N368 N 0.76393 0.12211 0.86556 0.0
H369 H 0.76642 0.08519 0.87954 0.0
H370 H 0.70265 0.12596 0.85916 0.0
C371 C 0.6813 0.06078 0.83809 0.0
O372 O 0.68073 0.03642 0.84266 0.0
N373 N 0.68063 0.04484 0.88281 0.0
C374 C 0.68365 0.02164 0.89114 0.0
C375 C 0.66002 0.01049 0.89346 0.0
C376 C 0.65515 0.04757 0.88064 0.0
N377 N 0.64207 0.02681 0.88685 0.0
C378 C 0.74338 0.03294 0.88212 0.0
C379 C 0.7557 0.02612 0.84292 0.0
C380 C 0.76721 0.01061 0.85719 0.0
C381 C 0.76138 0.01464 0.87698 0.0
C382 C 0.73811 0.04482 0.84879 0.0
N383 N 0.73088 0.04697 0.86812 0.0
H384 H 0.73928 0.03534 0.89755 0.0
H385 H 0.73072 0.0576 0.83773 0.0
H386 H 0.70138 0.01337 0.89589 0.0
H387 H 0.64647 0.06456 0.87456 0.0
O388 O 0.71494 0.0717 0.90482 0.0
O389 O 0.68379 0.09504 0.89244 0.0
O390 O 0.69062 0.07694 0.85021 0.0
C391 C 0.69648 0.08758 0.90794 0.0
H392 H 0.74411 0.15331 0.85145 0.0
H393 H 0.6564 0.99209 0.90015 0.0
H394 H 0.76045 0.02398 0.82748 0.0
H395 H 0.77024 1.00325 0.88843 0.0
Co396 Co 0.43795 0.79756 0.64565 0.0
C397 C 0.40799 0.74981 0.65611 0.0
C398 C 0.38904 0.78478 0.66326 0.0
C399 C 0.37334 0.7649 0.66838 0.0
N400 N 0.41099 0.7755 0.6558 0.0
N401 N 0.38522 0.74288 0.66391 0.0
H402 H 0.42177 0.7363 0.65079 0.0
H403 H 0.38467 0.80485 0.66472 0.0
C404 C 0.43358 0.81023 0.68834 0.0
O405 O 0.43258 0.78569 0.69224 0.0
N406 N 0.46359 0.82051 0.63555 0.0
C407 C 0.48449 0.81503 0.62481 0.0
C408 C 0.49639 0.83763 0.6198 0.0
C409 C 0.46284 0.84611 0.63676 0.0
N410 N 0.48263 0.85713 0.62726 0.0
C411 C 0.46908 0.7527 0.64573 0.0
C412 C 0.50549 0.77041 0.67171 0.0
C413 C 0.50941 0.74694 0.66237 0.0
C414 C 0.49069 0.73794 0.64947 0.0
C415 C 0.48324 0.78432 0.66791 0.0
N416 N 0.4651 0.77529 0.65522 0.0
H417 H 0.45628 0.74652 0.63427 0.0
H418 H 0.48154 0.80312 0.6742 0.0
H419 H 0.49038 0.79604 0.62063 0.0
H420 H 0.44792 0.85642 0.64435 0.0
O421 O 0.43369 0.78335 0.61967 0.0
O422 O 0.4125 0.81669 0.63126 0.0
O423 O 0.43695 0.81801 0.6707 0.0
C424 C 0.41707 0.80135 0.61665 0.0
H425 H 0.35429 0.76659 0.67439 0.0
H426 H 0.51339 0.83957 0.61086 0.0
H427 H 0.51983 0.77827 0.68143 0.0
H428 H 0.49345 0.72034 0.64143 0.0
Co429 Co 0.19792 0.44052 0.62438 0.0
C430 C 0.24707 0.41304 0.62971 0.0
C431 C 0.21585 0.39522 0.64501 0.0
C432 C 0.23751 0.38131 0.64854 0.0
N433 N 0.22185 0.41521 0.6334 0.0
N434 N 0.2571 0.39248 0.63895 0.0
H435 H 0.2578 0.42619 0.62058 0.0
H436 H 0.19692 0.39079 0.65034 0.0
C437 C 0.16715 0.45125 0.6613 0.0
O438 O 0.16802 0.47589 0.65775 0.0
N439 N 0.17277 0.46517 0.61542 0.0
C440 C 0.17547 0.48647 0.6044 0.0
C441 C 0.15173 0.49678 0.60096 0.0
C442 C 0.14736 0.46246 0.61787 0.0
N443 N 0.13406 0.48169 0.60953 0.0
C444 C 0.23199 0.48286 0.62232 0.0
C445 C 0.23931 0.49016 0.66218 0.0
C446 C 0.24953 0.50791 0.64881 0.0
C447 C 0.24638 0.50353 0.62867 0.0
C448 C 0.22463 0.46968 0.6551 0.0
N449 N 0.21965 0.46731 0.63538 0.0
H450 H 0.23073 0.47961 0.6067 0.0
H451 H 0.21734 0.45588 0.6655 0.0
H452 H 0.19305 0.49399 0.59863 0.0
H453 H 0.1388 0.44634 0.62534 0.0
O454 O 0.21274 0.43919 0.59844 0.0
O455 O 0.18074 0.4148 0.60848 0.0
O456 O 0.17821 0.43557 0.64973 0.0
C457 C 0.19641 0.42139 0.59443 0.0
H458 H 0.23865 0.36388 0.65708 0.0
H459 H 0.1479 0.51411 0.59281 0.0
H460 H 0.24215 0.49239 0.67788 0.0
H461 H 0.25502 0.51606 0.61783 0.0
Co462 Co 0.55969 0.1929 0.63267 0.0
C463 C 0.59312 0.2382 0.6384 0.0
C464 C 0.57546 0.22531 0.66518 0.0
C465 C 0.58996 0.2465 0.66931 0.0
N466 N 0.57754 0.22008 0.64586 0.0
N467 N 0.60103 0.25462 0.65245 0.0
H468 H 0.59847 0.2395 0.62305 0.0
H469 H 0.56375 0.21475 0.67549 0.0
C470 C 0.58335 0.1594 0.65879 0.0
O471 O 0.56141 0.16456 0.66723 0.0
N472 N 0.54154 0.16554 0.61979 0.0
C473 C 0.52845 0.16706 0.60277 0.0
C474 C 0.51916 0.14319 0.59823 0.0
C475 C 0.53999 0.1409 0.6254 0.0
N476 N 0.52648 0.12674 0.61249 0.0
C477 C 0.53052 0.23658 0.62058 0.0
C478 C 0.48671 0.22221 0.64054 0.0
C479 C 0.48685 0.24532 0.63001 0.0
C480 C 0.50915 0.25242 0.61995 0.0
C481 C 0.50857 0.20699 0.64087 0.0
N482 N 0.52991 0.21423 0.63089 0.0
H483 H 0.54765 0.24247 0.61298 0.0
H484 H 0.50862 0.18938 0.64921 0.0
H485 H 0.52599 0.1843 0.5942 0.0
H486 H 0.54907 0.13326 0.63837 0.0
O487 O 0.57341 0.20382 0.60671 0.0
O488 O 0.59308 0.17631 0.62392 0.0
O489 O 0.58792 0.16876 0.64152 0.0
C490 C 0.59233 0.18907 0.60765 0.0
H491 H 0.59158 0.25563 0.68354 0.0
H492 H 0.50781 0.13843 0.58545 0.0
H493 H 0.47005 0.21618 0.64877 0.0
H494 H 0.51005 0.26999 0.61155 0.0
Co495 Co 0.80035 0.55878 0.64151 0.0
C496 C 0.75609 0.59263 0.65071 0.0
C497 C 0.76881 0.57032 0.67541 0.0
C498 C 0.74734 0.58356 0.68093 0.0
N499 N 0.77425 0.57592 0.6565 0.0
N500 N 0.73938 0.59754 0.66541 0.0
H501 H 0.75432 0.60013 0.63591 0.0
H502 H 0.77925 0.55677 0.68432 0.0
C503 C 0.83625 0.58169 0.66612 0.0
O504 O 0.8313 0.55982 0.6748 0.0
N505 N 0.82651 0.54119 0.62682 0.0
C506 C 0.82347 0.52893 0.60956 0.0
C507 C 0.84677 0.51955 0.60361 0.0
C508 C 0.85149 0.5391 0.63116 0.0
N509 N 0.86437 0.52608 0.61719 0.0
C510 C 0.75653 0.52857 0.63088 0.0
C511 C 0.77379 0.48509 0.64991 0.0
C512 C 0.75041 0.48419 0.63988 0.0
C513 C 0.74174 0.50639 0.63037 0.0
C514 C 0.78789 0.50766 0.65011 0.0
N515 N 0.77932 0.52877 0.64051 0.0
H516 H 0.74965 0.54558 0.62361 0.0
H517 H 0.80587 0.50838 0.6579 0.0
H518 H 0.80559 0.52718 0.60175 0.0
H519 H 0.86018 0.54677 0.64427 0.0
O520 O 0.78735 0.57351 0.61641 0.0
O521 O 0.81629 0.59231 0.63267 0.0
O522 O 0.8253 0.58673 0.64953 0.0
C523 C 0.80259 0.59216 0.61689 0.0
H524 H 0.73803 0.58267 0.69516 0.0
H525 H 0.85056 0.50929 0.5901 0.0
H526 H 0.781 0.46861 0.65777 0.0
H527 H 0.72387 0.50653 0.6224 0.0
C528 C 0.10414 0.34561 0.93327 0.0
C529 C 0.09685 0.32156 0.92613 0.0
C530 C 0.11106 0.34857 0.95314 0.0
C531 C 0.13092 0.31214 0.99754 0.0
H532 H 0.09062 0.36072 0.02721 0.0
C533 C 0.09762 0.29305 0.0759 0.0
C534 C 0.09581 0.31286 0.08969 0.0
C535 C 0.1052 0.298 0.05657 0.0
C536 C 0.10253 0.34748 0.01916 0.0
H537 H 0.09229 0.28166 0.93372 0.0
H538 H 0.10477 0.28665 0.96795 0.0
H539 H 0.09086 0.36263 0.99118 0.0
H540 H 0.10111 0.35336 0.09428 0.0
H541 H 0.11408 0.36223 0.06004 0.0
H542 H 0.14159 0.29615 0.02538 0.0
C543 C 0.10511 0.30327 0.95844 0.0
C544 C 0.10266 0.34857 0.9985 0.0
C545 C 0.09779 0.30043 0.93884 0.0
C546 C 0.10255 0.33773 0.08394 0.0
C547 C 0.10979 0.3428 0.06436 0.0
C548 C 0.13083 0.31107 0.01811 0.0
C549 C 0.11135 0.32741 0.96597 0.0
C550 C 0.11598 0.3302 0.98748 0.0
C551 C 0.11089 0.32297 0.05042 0.0
C552 C 0.11573 0.328 0.02913 0.0
H553 H 0.10339 0.36223 0.92378 0.0
H554 H 0.11578 0.3674 0.95856 0.0
H555 H 0.14173 0.298 0.98945 0.0
H556 H 0.09255 0.27369 0.07992 0.0
H557 H 0.10544 0.28234 0.0462 0.0
C558 C 0.69939 0.0796 0.944 0.0
C559 C 0.68903 0.094 0.92843 0.0
C560 C 0.69161 0.08364 0.96337 0.0
C561 C 0.66993 0.12895 0.99851 0.0
H562 H 0.64885 0.06898 0.02796 0.0
C563 C 0.65029 0.08949 0.08365 0.0
C564 C 0.67353 0.0972 0.0919 0.0
C565 C 0.6449 0.09486 0.06381 0.0
C566 C 0.65413 0.08611 0.01998 0.0
H567 H 0.6627 0.12442 0.92115 0.0
H568 H 0.64965 0.13217 0.9556 0.0
H569 H 0.65351 0.06663 0.99226 0.0
H570 H 0.70876 0.11751 0.08654 0.0
H571 H 0.69923 0.12746 0.0522 0.0
H572 H 0.67215 0.14798 0.02645 0.0
C573 C 0.66357 0.11748 0.95247 0.0
C574 C 0.65695 0.08468 0.99953 0.0
C575 C 0.67104 0.11307 0.93283 0.0
C576 C 0.69046 0.11187 0.08055 0.0
C577 C 0.68497 0.11753 0.06087 0.0
C578 C 0.66742 0.13031 0.01908 0.0
C579 C 0.67355 0.10244 0.96784 0.0
C580 C 0.66563 0.10582 0.98868 0.0
C581 C 0.66266 0.10812 0.052 0.0
C582 C 0.66023 0.10865 0.03011 0.0
H583 H 0.7132 0.06468 0.94122 0.0
H584 H 0.69982 0.072 0.97496 0.0
H585 H 0.67677 0.14547 0.99048 0.0
H586 H 0.63725 0.07765 0.09204 0.0
H587 H 0.62751 0.08742 0.05743 0.0
C588 C 0.90882 0.71951 0.93486 0.0
C589 C 0.90942 0.69958 0.9211 0.0
C590 C 0.90068 0.71515 0.95413 0.0
C591 C 0.89991 0.6656 0.99148 0.0
H592 H 0.86446 0.71771 0.02129 0.0
C593 C 0.89998 0.66761 0.07718 0.0
C594 C 0.90908 0.69109 0.08419 0.0
C595 C 0.89227 0.66517 0.05745 0.0
C596 C 0.87418 0.70284 0.01317 0.0
H597 H 0.90128 0.65956 0.9165 0.0
H598 H 0.88732 0.65169 0.95064 0.0
H599 H 0.86447 0.71951 0.98535 0.0
H600 H 0.91597 0.73064 0.07659 0.0
H601 H 0.90215 0.7266 0.04258 0.0
H602 H 0.91074 0.64971 0.01941 0.0
C603 C 0.893 0.67077 0.94634 0.0
C604 C 0.87421 0.70388 0.9926 0.0
C605 C 0.90081 0.67528 0.92682 0.0
C606 C 0.90906 0.7123 0.07155 0.0
C607 C 0.90097 0.71001 0.05209 0.0
C608 C 0.89986 0.66454 0.01212 0.0
C609 C 0.8932 0.69064 0.96026 0.0
C610 C 0.88803 0.68594 0.98154 0.0
C611 C 0.89303 0.68633 0.04464 0.0
C612 C 0.88794 0.68381 0.02318 0.0
H613 H 0.91534 0.73844 0.93086 0.0
H614 H 0.90146 0.7308 0.9645 0.0
H615 H 0.91084 0.65156 0.98339 0.0
H616 H 0.90001 0.65092 0.08663 0.0
H617 H 0.88623 0.64669 0.05211 0.0
C618 C 0.33953 0.90316 0.92989 0.0
C619 C 0.31486 0.9104 0.92412 0.0
C620 C 0.34428 0.89575 0.94939 0.0
C621 C 0.34749 0.9083 0.99355 0.0
H622 H 0.30222 0.86726 0.02596 0.0
C623 C 0.31232 0.93281 0.07086 0.0
C624 C 0.31894 0.91615 0.08624 0.0
C625 C 0.31725 0.92628 0.05134 0.0
C626 C 0.31537 0.87831 0.01705 0.0
H627 H 0.27553 0.91373 0.93355 0.0
H628 H 0.28366 0.9002 0.96737 0.0
H629 H 0.30014 0.86395 0.98992 0.0
H630 H 0.33585 0.8796 0.09341 0.0
H631 H 0.34357 0.86762 0.05875 0.0
H632 H 0.36108 0.92429 0.02064 0.0
C633 C 0.29937 0.90038 0.95698 0.0
C634 C 0.31411 0.87654 0.9965 0.0
C635 C 0.29473 0.90828 0.93767 0.0
C636 C 0.33065 0.89276 0.08176 0.0
C637 C 0.33504 0.88592 0.06206 0.0
C638 C 0.34844 0.91037 0.01405 0.0
C639 C 0.32431 0.89492 0.96322 0.0
C640 C 0.32957 0.89216 0.98457 0.0
C641 C 0.32842 0.90276 0.04678 0.0
C642 C 0.33185 0.89596 0.02589 0.0
H643 H 0.3554 0.90482 0.91972 0.0
H644 H 0.36367 0.89166 0.95386 0.0
H645 H 0.3594 0.92079 0.98472 0.0
H646 H 0.30344 0.95103 0.0739 0.0
H647 H 0.31186 0.93943 0.03972 0.0
C648 C 0.61111 0.17867 0.43241 0.0
C649 C 0.61016 0.20338 0.42443 0.0
C650 C 0.61666 0.17505 0.45249 0.0
C651 C 0.61258 0.21203 0.49895 0.0
H652 H 0.64373 0.15253 0.5229 0.0
C653 C 0.61989 0.20761 0.58192 0.0
C654 C 0.60913 0.18575 0.59048 0.0
C655 C 0.62727 0.20763 0.56214 0.0
C656 C 0.63503 0.16926 0.51638 0.0
H657 H 0.61622 0.24338 0.43049 0.0
H658 H 0.6274 0.23713 0.46494 0.0
H659 H 0.64311 0.15688 0.48685 0.0
H660 H 0.59905 0.14629 0.5856 0.0
H661 H 0.61185 0.14625 0.55079 0.0
H662 H 0.60417 0.22435 0.52815 0.0
C663 C 0.62278 0.22053 0.45618 0.0
C664 C 0.63458 0.17173 0.49573 0.0
C665 C 0.61668 0.22415 0.43636 0.0
C666 C 0.60792 0.16319 0.57943 0.0
C667 C 0.61507 0.16326 0.55946 0.0
C668 C 0.61324 0.20967 0.5194 0.0
C669 C 0.62167 0.19609 0.46481 0.0
C670 C 0.62334 0.19323 0.48673 0.0
C671 C 0.62349 0.18592 0.55036 0.0
C672 C 0.62448 0.18833 0.52845 0.0
H673 H 0.60582 0.16238 0.42351 0.0
H674 H 0.61552 0.15596 0.45854 0.0
H675 H 0.60292 0.22842 0.49274 0.0
H676 H 0.62067 0.22532 0.59009 0.0
H677 H 0.63419 0.22525 0.55571 0.0
C678 C 0.79986 0.61011 0.44857 0.0
C679 C 0.82175 0.60942 0.43665 0.0
C680 C 0.80127 0.61821 0.46809 0.0
C681 C 0.84471 0.61855 0.50958 0.0
H682 H 0.78937 0.65537 0.53459 0.0
C683 C 0.83158 0.61622 0.59407 0.0
C684 C 0.80691 0.60825 0.59932 0.0
C685 C 0.83656 0.62515 0.57491 0.0
C686 C 0.80507 0.64518 0.52786 0.0
H687 H 0.86225 0.61734 0.43562 0.0
H688 H 0.86491 0.63114 0.47023 0.0
H689 H 0.79262 0.65472 0.49871 0.0
H690 H 0.76786 0.6051 0.58937 0.0
H691 H 0.77627 0.62099 0.55634 0.0
H692 H 0.85631 0.60773 0.53869 0.0
C693 C 0.84658 0.62559 0.46427 0.0
C694 C 0.80695 0.64483 0.5073 0.0
C695 C 0.84506 0.61786 0.44448 0.0
C696 C 0.78702 0.61127 0.58572 0.0
C697 C 0.79189 0.62046 0.56676 0.0
C698 C 0.8428 0.61882 0.53019 0.0
C699 C 0.82471 0.62552 0.47635 0.0
C700 C 0.82617 0.63065 0.4979 0.0
C701 C 0.81687 0.62659 0.56084 0.0
C702 C 0.82232 0.63127 0.53954 0.0
H703 H 0.78162 0.60374 0.44292 0.0
H704 H 0.78413 0.61755 0.47701 0.0
H705 H 0.85966 0.60732 0.50281 0.0
H706 H 0.84731 0.61377 0.60423 0.0
H707 H 0.85598 0.6299 0.57086 0.0
C708 C 0.4077 0.78647 0.58258 0.0
C709 C 0.40596 0.80557 0.59695 0.0
C710 C 0.4004 0.79144 0.56319 0.0
C711 C 0.3992 0.84356 0.52824 0.0
H712 H 0.36988 0.79195 0.49429 0.0
C713 C 0.40957 0.84696 0.44307 0.0
C714 C 0.42083 0.82436 0.43622 0.0
C715 C 0.39922 0.84796 0.46215 0.0
C716 C 0.37782 0.80671 0.50359 0.0
H717 H 0.39428 0.84455 0.60256 0.0
H718 H 0.38183 0.85337 0.56843 0.0
H719 H 0.3667 0.78725 0.53001 0.0
H720 H 0.42892 0.78484 0.44332 0.0
H721 H 0.41085 0.78649 0.47616 0.0
H722 H 0.41177 0.86215 0.50179 0.0
C723 C 0.38873 0.83453 0.57225 0.0
C724 C 0.37603 0.804 0.52401 0.0
C725 C 0.39574 0.82943 0.59177 0.0
C726 C 0.42055 0.80259 0.44828 0.0
C727 C 0.40991 0.80346 0.46704 0.0
C728 C 0.40104 0.84625 0.50776 0.0
C729 C 0.39145 0.81571 0.5577 0.0
C730 C 0.38776 0.82175 0.53653 0.0
C731 C 0.39949 0.8262 0.47435 0.0
C732 C 0.39146 0.82718 0.49529 0.0
H733 H 0.41549 0.7679 0.58617 0.0
H734 H 0.40306 0.77663 0.55228 0.0
H735 H 0.40851 0.85751 0.53752 0.0
H736 H 0.40958 0.86399 0.434 0.0
H737 H 0.39135 0.86576 0.46747 0.0
C738 C 0.21885 0.40668 0.56441 0.0
C739 C 0.19582 0.4101 0.57456 0.0
C740 C 0.21889 0.40004 0.54453 0.0
C741 C 0.17839 0.38016 0.50182 0.0
H742 H 0.23013 0.41772 0.473 0.0
C743 C 0.18006 0.40246 0.41695 0.0
C744 C 0.20436 0.40379 0.40827 0.0
C745 C 0.17755 0.39628 0.43702 0.0
C746 C 0.21581 0.40671 0.48079 0.0
H747 H 0.15472 0.40822 0.57229 0.0
H748 H 0.15463 0.3976 0.53706 0.0
H749 H 0.22848 0.42078 0.50847 0.0
H750 H 0.24462 0.39722 0.41287 0.0
H751 H 0.24023 0.38551 0.44748 0.0
H752 H 0.1652 0.36712 0.47353 0.0
C753 C 0.17273 0.3994 0.54459 0.0
C754 C 0.21488 0.4084 0.50124 0.0
C755 C 0.17273 0.40551 0.56474 0.0
C756 C 0.22569 0.39624 0.41925 0.0
C757 C 0.22317 0.38981 0.43911 0.0
C758 C 0.17919 0.37866 0.48113 0.0
C759 C 0.19586 0.39744 0.53408 0.0
C760 C 0.19636 0.39499 0.51214 0.0
C761 C 0.19932 0.39129 0.44852 0.0
C762 C 0.19812 0.39175 0.47044 0.0
H763 H 0.23692 0.40981 0.57176 0.0
H764 H 0.23709 0.39783 0.53719 0.0
H765 H 0.16386 0.36957 0.5097 0.0
H766 H 0.1634 0.40866 0.40882 0.0
H767 H 0.15893 0.39761 0.44386 0.0
C768 C 0.20766 0.02611 0.1612 0.0
C769 C 0.23443 0.02734 0.16095 0.0
C770 C 0.19309 0.04841 0.16214 0.0
C771 C 0.19758 0.11813 0.17252 0.0
H772 H 0.13574 0.12108 0.14133 0.0
C773 C 0.13545 0.20805 0.17286 0.0
C774 C 0.12473 0.21596 0.15492 0.0
C775 C 0.14636 0.18391 0.17472 0.0
C776 C 0.15306 0.12069 0.14999 0.0
H777 H 0.26692 0.05281 0.16164 0.0
H778 H 0.24166 0.0917 0.16285 0.0
H779 H 0.16027 0.08174 0.14259 0.0
H780 H 0.11624 0.20474 0.12503 0.0
H781 H 0.13615 0.16266 0.1279 0.0
H782 H 0.19125 0.15738 0.17906 0.0
C783 C 0.23178 0.07357 0.16284 0.0
C784 C 0.16696 0.09794 0.15098 0.0
C785 C 0.24633 0.05126 0.16214 0.0
C786 C 0.12429 0.19894 0.13902 0.0
C787 C 0.13565 0.17484 0.14075 0.0
C788 C 0.18387 0.14091 0.17135 0.0
C789 C 0.20494 0.07249 0.1626 0.0
C790 C 0.18949 0.09638 0.16219 0.0
C791 C 0.1473 0.16721 0.15854 0.0
C792 C 0.16142 0.14256 0.16006 0.0
H793 H 0.198 0.00788 0.16042 0.0
H794 H 0.17251 0.04673 0.16236 0.0
H795 H 0.21459 0.11765 0.18153 0.0
H796 H 0.1356 0.22073 0.18542 0.0
H797 H 0.15436 0.17851 0.18882 0.0
C798 C 0.80669 0.12992 0.13279 0.0
C799 C 0.79284 0.11586 0.14679 0.0
C800 C 0.83183 0.13701 0.13638 0.0
C801 C 0.87589 0.15256 0.17585 0.0
H802 H 0.92396 0.15431 0.13237 0.0
C803 C 0.97742 0.20296 0.1741 0.0
C804 C 0.97871 0.22049 0.15836 0.0
C805 C 0.95661 0.18614 0.17579 0.0
C806 C 0.91088 0.15368 0.14474 0.0
H807 H 0.79452 0.09763 0.17539 0.0
H808 H 0.839 0.11042 0.18194 0.0
H809 H 0.88453 0.13002 0.1292 0.0
H810 H 0.95813 0.23544 0.1331 0.0
H811 H 0.92267 0.20588 0.13574 0.0
H812 H 0.90216 0.17719 0.19102 0.0
C813 C 0.8302 0.11583 0.16812 0.0
C814 C 0.88829 0.13986 0.14292 0.0
C815 C 0.80492 0.10838 0.16435 0.0
C816 C 0.95824 0.22165 0.14502 0.0
C817 C 0.93783 0.2048 0.14655 0.0
C818 C 0.89872 0.16635 0.17772 0.0
C819 C 0.84385 0.13037 0.15417 0.0
C820 C 0.87001 0.14006 0.15809 0.0
C821 C 0.93702 0.18655 0.16167 0.0
C822 C 0.91586 0.16783 0.16183 0.0
H823 H 0.79787 0.13575 0.11908 0.0
H824 H 0.8416 0.14849 0.12543 0.0
H825 H 0.86214 0.15313 0.18776 0.0
H826 H 0.99283 0.20162 0.18465 0.0
H827 H 0.95626 0.17229 0.18765 0.0
C828 C 0.76593 0.94936 0.14063 0.0
C829 C 0.77681 0.9732 0.13633 0.0
C830 C 0.78082 0.9273 0.14062 0.0
C831 C 0.84345 0.90056 0.12475 0.0
H832 H 0.82688 0.85006 0.16454 0.0
C833 C 0.88689 0.79822 0.12588 0.0
C834 C 0.88956 0.78617 0.14426 0.0
C835 C 0.87563 0.82244 0.12456 0.0
C836 C 0.83214 0.86404 0.15349 0.0
H837 H 0.81178 0.99259 0.12827 0.0
H838 H 0.83813 0.95405 0.12878 0.0
H839 H 0.80272 0.88924 0.163 0.0
H840 H 0.88452 0.7905 0.17568 0.0
H841 H 0.86608 0.83302 0.17362 0.0
H842 H 0.87355 0.87547 0.11573 0.0
C843 C 0.81793 0.95232 0.13181 0.0
C844 C 0.81788 0.88644 0.15237 0.0
C845 C 0.80289 0.97443 0.13159 0.0
C846 C 0.88228 0.79931 0.16133 0.0
C847 C 0.87151 0.82358 0.16008 0.0
C848 C 0.85796 0.87813 0.12599 0.0
C849 C 0.80713 0.92847 0.13657 0.0
C850 C 0.8231 0.90494 0.13788 0.0
C851 C 0.86717 0.83516 0.14165 0.0
C852 C 0.85244 0.85952 0.14038 0.0
H853 H 0.74578 0.94774 0.14394 0.0
H854 H 0.7716 0.90927 0.14379 0.0
H855 H 0.84795 0.91425 0.11329 0.0
H856 H 0.89225 0.78834 0.11251 0.0
H857 H 0.87251 0.83061 0.1101 0.0
C858 C 0.20367 0.88525 0.15447 0.0
C859 C 0.22433 0.87106 0.14711 0.0
C860 C 0.17938 0.87414 0.15612 0.0
C861 C 0.14074 0.82144 0.13607 0.0
H862 H 0.10147 0.82588 0.18443 0.0
C863 C 0.05821 0.75319 0.14961 0.0
C864 C 0.03525 0.76329 0.15674 0.0
C865 C 0.08056 0.76757 0.1501 0.0
C866 C 0.11209 0.82471 0.17076 0.0
H867 H 0.23555 0.83444 0.13521 0.0
H868 H 0.19355 0.81519 0.13804 0.0
H869 H 0.14145 0.8499 0.18115 0.0
H870 H 0.01764 0.79585 0.17074 0.0
H871 H 0.05702 0.82138 0.17157 0.0
H872 H 0.11176 0.79632 0.1256 0.0
C873 C 0.19596 0.83483 0.14258 0.0
C874 C 0.13493 0.83849 0.16887 0.0
C875 C 0.22012 0.84579 0.14113 0.0
C876 C 0.03525 0.78761 0.16535 0.0
C877 C 0.05774 0.80218 0.16575 0.0
C878 C 0.11803 0.8078 0.13793 0.0
C879 C 0.17529 0.84879 0.15013 0.0
C880 C 0.14976 0.83653 0.15164 0.0
C881 C 0.08046 0.79258 0.15752 0.0
C882 C 0.10369 0.80875 0.15544 0.0
H883 H 0.2064 0.9047 0.15933 0.0
H884 H 0.16379 0.8854 0.1619 0.0
H885 H 0.15141 0.81997 0.12244 0.0
H886 H 0.05863 0.73444 0.14293 0.0
H887 H 0.09784 0.75931 0.14412 0.0
C888 C 0.71599 0.49143 0.36952 0.0
C889 C 0.7407 0.49193 0.36149 0.0
C890 C 0.70051 0.46986 0.3675 0.0
C891 C 0.69537 0.40701 0.3415 0.0
H892 H 0.65607 0.38811 0.38779 0.0
C893 C 0.66367 0.3042 0.35719 0.0
C894 C 0.6381 0.29963 0.36261 0.0
C895 C 0.67331 0.32893 0.35594 0.0
C896 C 0.66665 0.3933 0.37466 0.0
H897 H 0.76833 0.47062 0.34455 0.0
H898 H 0.74174 0.43263 0.34139 0.0
H899 H 0.67828 0.42896 0.38691 0.0
H900 H 0.60298 0.31817 0.3716 0.0
H901 H 0.62029 0.36159 0.37003 0.0
H902 H 0.68465 0.37066 0.32975 0.0
C903 C 0.7339 0.44906 0.34888 0.0
C904 C 0.67937 0.4168 0.37407 0.0
C905 C 0.74924 0.47083 0.35067 0.0
C906 C 0.62272 0.32076 0.36742 0.0
C907 C 0.63259 0.34567 0.36645 0.0
C908 C 0.68294 0.3834 0.34222 0.0
C909 C 0.70951 0.44803 0.35766 0.0
C910 C 0.69425 0.42387 0.35759 0.0
C911 C 0.65791 0.34997 0.36039 0.0
C912 C 0.66877 0.37613 0.35892 0.0
H913 H 0.70888 0.50754 0.37783 0.0
H914 H 0.68167 0.47016 0.37402 0.0
H915 H 0.70608 0.41189 0.32837 0.0
H916 H 0.67655 0.2887 0.35395 0.0
H917 H 0.69307 0.33159 0.3517 0.0
C918 C 0.55859 0.74427 0.35233 0.0
C919 C 0.54682 0.74838 0.37069 0.0
C920 C 0.58047 0.72902 0.35092 0.0
C921 C 0.61536 0.67796 0.37694 0.0
H922 H 0.6742 0.70231 0.34789 0.0
C923 C 0.71577 0.63302 0.38536 0.0
C924 C 0.73223 0.63368 0.36905 0.0
C925 C 0.69179 0.64476 0.38438 0.0
C926 C 0.65782 0.6949 0.35578 0.0
H927 H 0.54973 0.74052 0.40208 0.0
H928 H 0.58726 0.71367 0.39948 0.0
H929 H 0.6351 0.7273 0.34789 0.0
H930 H 0.73598 0.64533 0.33857 0.0
H931 H 0.69398 0.66492 0.33655 0.0
H932 H 0.63795 0.64552 0.38481 0.0
C933 C 0.57934 0.72183 0.38614 0.0
C934 C 0.63541 0.70932 0.35579 0.0
C935 C 0.55773 0.73721 0.38759 0.0
C936 C 0.72376 0.64496 0.35145 0.0
C937 C 0.69976 0.65634 0.35036 0.0
C938 C 0.63769 0.66338 0.37678 0.0
C939 C 0.59089 0.71743 0.36781 0.0
C940 C 0.61405 0.70119 0.36658 0.0
C941 C 0.68371 0.65708 0.36697 0.0
C942 C 0.65935 0.67178 0.36636 0.0
H943 H 0.55065 0.75243 0.33901 0.0
H944 H 0.58898 0.72591 0.33657 0.0
H945 H 0.59906 0.67106 0.38521 0.0
H946 H 0.72197 0.6246 0.39912 0.0
H947 H 0.68009 0.6451 0.39754 0.0
C948 C 0.27531 0.5688 0.35435 0.0
C949 C 0.28434 0.54573 0.36237 0.0
C950 C 0.29071 0.59055 0.3541 0.0
C951 C 0.34366 0.62077 0.37988 0.0
H952 H 0.3477 0.66355 0.3333 0.0
C953 C 0.40239 0.71431 0.37918 0.0
C954 C 0.39094 0.73533 0.36979 0.0
C955 C 0.39221 0.68977 0.37704 0.0
C956 C 0.34661 0.65197 0.3465 0.0
H957 H 0.31712 0.52754 0.37599 0.0
H958 H 0.34365 0.56578 0.37604 0.0
H959 H 0.32407 0.62354 0.33205 0.0
H960 H 0.36041 0.7466 0.35004 0.0
H961 H 0.34223 0.70441 0.34695 0.0
H962 H 0.3653 0.64955 0.39462 0.0
C963 C 0.32457 0.56689 0.36999 0.0
C964 C 0.33314 0.62901 0.34574 0.0
C965 C 0.30928 0.54503 0.37003 0.0
C966 C 0.36951 0.73105 0.35781 0.0
C967 C 0.35928 0.70665 0.35577 0.0
C968 C 0.35692 0.6439 0.38072 0.0
C969 C 0.31542 0.58987 0.36205 0.0
C970 C 0.33124 0.61334 0.36249 0.0
C971 C 0.37031 0.68568 0.36548 0.0
C972 C 0.35824 0.66 0.36412 0.0
H973 H 0.25609 0.57029 0.34866 0.0
H974 H 0.28303 0.60811 0.34813 0.0
H975 H 0.34233 0.60915 0.39306 0.0
H976 H 0.41883 0.71685 0.3886 0.0
H977 H 0.40143 0.67404 0.38453 0.0
C978 C 0.30326 0.38328 0.36111 0.0
C979 C 0.2971 0.39772 0.34431 0.0
C980 C 0.32647 0.37015 0.36225 0.0
C981 C 0.37975 0.34573 0.33101 0.0
H982 H 0.41434 0.3399 0.38125 0.0
C983 C 0.48162 0.30216 0.34058 0.0
C984 C 0.48471 0.28561 0.35676 0.0
C985 C 0.45898 0.31617 0.33824 0.0
C986 C 0.40484 0.34122 0.36712 0.0
H987 H 0.31093 0.41027 0.31577 0.0
H988 H 0.35148 0.38787 0.31786 0.0
H989 H 0.37476 0.36396 0.37907 0.0
H990 H 0.46564 0.26975 0.38246 0.0
H991 H 0.42675 0.29431 0.37854 0.0
H992 H 0.41019 0.32313 0.3191 0.0
C993 C 0.33814 0.38604 0.32997 0.0
C994 C 0.38204 0.35495 0.36587 0.0
C995 C 0.31486 0.39897 0.32878 0.0
C996 C 0.46434 0.28287 0.37014 0.0
C997 C 0.44194 0.29692 0.36789 0.0
C998 C 0.40271 0.33215 0.33224 0.0
C999 C 0.34426 0.37132 0.34668 0.0
C1000 C 0.369 0.35722 0.34784 0.0
C1001 C 0.43906 0.31398 0.35208 0.0
C1002 C 0.41537 0.3295 0.35036 0.0
H1003 H 0.28988 0.38166 0.37321 0.0
H1004 H 0.33023 0.3587 0.37522 0.0
H1005 H 0.37015 0.34672 0.31691 0.0
H1006 H 0.4969 0.30483 0.33002 0.0
H1007 H 0.45735 0.32921 0.3259 0.0
C1008 C 0.88632 0.81363 0.87379 0.0
C1009 C 0.89012 0.79881 0.8569 0.0
C1010 C 0.87631 0.83834 0.87218 0.0
C1011 C 0.83983 0.87894 0.83659 0.0
H1012 H 0.85218 0.93095 0.87583 0.0
C1013 C 0.77464 0.96701 0.84398 0.0
C1014 C 0.78457 0.98953 0.85195 0.0
C1015 C 0.78982 0.94514 0.84265 0.0
C1016 C 0.84878 0.91691 0.86447 0.0
H1017 H 0.88817 0.79834 0.82512 0.0
H1018 H 0.87232 0.84183 0.82203 0.0
H1019 H 0.87582 0.89127 0.87726 0.0
H1020 H 0.81817 0.00747 0.86406 0.0
H1021 H 0.84529 0.96986 0.86067 0.0
H1022 H 0.81366 0.90494 0.82328 0.0
C1023 C 0.87574 0.8343 0.83665 0.0
C1024 C 0.86208 0.8938 0.86553 0.0
C1025 C 0.88512 0.80947 0.83834 0.0
C1026 C 0.81023 0.99028 0.85772 0.0
C1027 C 0.82559 0.96857 0.85604 0.0
C1028 C 0.82692 0.9022 0.83531 0.0
C1029 C 0.8704 0.84888 0.85357 0.0
C1030 C 0.85755 0.87428 0.85178 0.0
C1031 C 0.81541 0.94543 0.84903 0.0
C1032 C 0.83083 0.92141 0.84942 0.0
H1033 H 0.88985 0.80559 0.88825 0.0
H1034 H 0.87224 0.84866 0.88561 0.0
H1035 H 0.83533 0.8644 0.82586 0.0
H1036 H 0.75473 0.96592 0.83982 0.0
H1037 H 0.781 0.92774 0.83749 0.0
C1038 C 0.2012 0.90393 0.86527 0.0
C1039 C 0.22212 0.88932 0.85879 0.0
C1040 C 0.17625 0.89435 0.86388 0.0
C1041 C 0.13766 0.84783 0.83635 0.0
H1042 H 0.09316 0.84689 0.88195 0.0
C1043 C 0.04969 0.7817 0.84127 0.0
C1044 C 0.02881 0.7892 0.85283 0.0
C1045 C 0.07166 0.79687 0.84035 0.0
C1046 C 0.10503 0.84742 0.8689 0.0
H1047 H 0.2327 0.85247 0.84656 0.0
H1048 H 0.18967 0.83647 0.84368 0.0
H1049 H 0.13428 0.86846 0.88385 0.0
H1050 H 0.0138 0.81914 0.87143 0.0
H1051 H 0.05161 0.8461 0.86924 0.0
H1052 H 0.10861 0.82693 0.8213 0.0
C1053 C 0.19252 0.85545 0.84957 0.0
C1054 C 0.12868 0.85975 0.87006 0.0
C1055 C 0.21733 0.86478 0.8512 0.0
C1056 C 0.02976 0.81281 0.86255 0.0
C1057 C 0.05155 0.82813 0.86143 0.0
C1058 C 0.11392 0.83578 0.83509 0.0
C1059 C 0.17168 0.87012 0.85576 0.0
C1060 C 0.14546 0.85962 0.85393 0.0
C1061 C 0.07312 0.82006 0.85078 0.0
C1062 C 0.09744 0.83494 0.85147 0.0
H1063 H 0.20398 0.92289 0.87112 0.0
H1064 H 0.16049 0.90606 0.86881 0.0
H1065 H 0.1501 0.84772 0.82359 0.0
H1066 H 0.04956 0.76346 0.83381 0.0
H1067 H 0.0879 0.78977 0.83217 0.0
C1068 C 0.24796 0.06325 0.86384 0.0
C1069 C 0.23751 0.04004 0.85756 0.0
C1070 C 0.23334 0.08547 0.86376 0.0
C1071 C 0.17368 0.11551 0.84549 0.0
H1072 H 0.18408 0.15848 0.89124 0.0
C1073 C 0.11476 0.20816 0.86162 0.0
C1074 C 0.12998 0.22948 0.86601 0.0
C1075 C 0.1256 0.18367 0.86077 0.0
C1076 C 0.18097 0.14673 0.87835 0.0
H1077 H 0.20391 0.02185 0.84561 0.0
H1078 H 0.17795 0.06089 0.84563 0.0
H1079 H 0.20755 0.11872 0.88829 0.0
H1080 H 0.16811 0.24178 0.87368 0.0
H1081 H 0.18685 0.19938 0.87247 0.0
H1082 H 0.14692 0.14387 0.83569 0.0
C1083 C 0.19761 0.06197 0.8504 0.0
C1084 C 0.19455 0.12397 0.87657 0.0
C1085 C 0.21243 0.03964 0.85033 0.0
C1086 C 0.15596 0.22575 0.87009 0.0
C1087 C 0.16665 0.20142 0.86953 0.0
C1088 C 0.1599 0.13835 0.84735 0.0
C1089 C 0.20771 0.08501 0.85768 0.0
C1090 C 0.1916 0.10832 0.85991 0.0
C1091 C 0.15171 0.18009 0.8647 0.0
C1092 C 0.16385 0.15446 0.86361 0.0
H1093 H 0.26729 0.06402 0.86943 0.0
H1094 H 0.24204 0.10296 0.86892 0.0
H1095 H 0.17092 0.10396 0.83247 0.0
H1096 H 0.09472 0.21055 0.85828 0.0
H1097 H 0.11359 0.16756 0.8571 0.0
C1098 C 0.8067 0.13133 0.87901 0.0
C1099 C 0.79004 0.12981 0.86292 0.0
C1100 C 0.8309 0.14244 0.87678 0.0
C1101 C 0.86664 0.18568 0.84234 0.0
H1102 H 0.92364 0.16782 0.87581 0.0
C1103 C 0.95674 0.24915 0.84706 0.0
C1104 C 0.9801 0.23792 0.85208 0.0
C1105 C 0.93436 0.23455 0.84673 0.0
C1106 C 0.90814 0.17286 0.86604 0.0
H1107 H 0.78587 0.13706 0.83175 0.0
H1108 H 0.82839 0.15492 0.82742 0.0
H1109 H 0.88428 0.14372 0.87824 0.0
H1110 H 0.99878 0.20253 0.8598 0.0
H1111 H 0.96018 0.17663 0.85807 0.0
H1112 H 0.89079 0.21403 0.8295 0.0
C1113 C 0.82269 0.14882 0.84202 0.0
C1114 C 0.88525 0.15923 0.86772 0.0
C1115 C 0.79839 0.13829 0.84439 0.0
C1116 C 0.98095 0.2116 0.85583 0.0
C1117 C 0.9587 0.19687 0.85512 0.0
C1118 C 0.88965 0.19898 0.84042 0.0
C1119 C 0.83909 0.1518 0.85828 0.0
C1120 C 0.86402 0.16556 0.85602 0.0
C1121 C 0.9349 0.20822 0.85112 0.0
C1122 C 0.91072 0.19301 0.85238 0.0
H1123 H 0.80048 0.12512 0.89347 0.0
H1124 H 0.84269 0.14456 0.88974 0.0
H1125 H 0.85075 0.19163 0.83327 0.0
H1126 H 0.95555 0.26952 0.84447 0.0
H1127 H 0.91653 0.24424 0.84389 0.0
C1128 C 0.38173 0.69768 0.65338 0.0
C1129 C 0.37476 0.71753 0.6662 0.0
C1130 C 0.36974 0.67381 0.65463 0.0
C1131 C 0.30925 0.64525 0.67136 0.0
H1132 H 0.34356 0.58092 0.66199 0.0
C1133 C 0.25589 0.55498 0.64732 0.0
C1134 C 0.26308 0.5313 0.65527 0.0
C1135 C 0.26983 0.57696 0.65149 0.0
C1136 C 0.33376 0.5987 0.66488 0.0
H1137 H 0.35094 0.72722 0.69122 0.0
H1138 H 0.33013 0.68582 0.69338 0.0
H1139 H 0.36851 0.62032 0.66401 0.0
H1140 H 0.29023 0.51208 0.67415 0.0
H1141 H 0.31498 0.55081 0.68145 0.0
H1142 H 0.27453 0.62381 0.67198 0.0
C1143 C 0.34441 0.68881 0.68206 0.0
C1144 C 0.34802 0.6213 0.66581 0.0
C1145 C 0.35634 0.71259 0.68081 0.0
C1146 C 0.28422 0.53015 0.66794 0.0
C1147 C 0.29846 0.55222 0.67195 0.0
C1148 C 0.29504 0.62275 0.67031 0.0
C1149 C 0.35056 0.66927 0.66874 0.0
C1150 C 0.33588 0.6449 0.66886 0.0
C1151 C 0.2915 0.57584 0.66361 0.0
C1152 C 0.30705 0.59925 0.66677 0.0
H1153 H 0.39569 0.70086 0.64188 0.0
H1154 H 0.3748 0.65926 0.64402 0.0
H1155 H 0.29921 0.66307 0.67352 0.0
H1156 H 0.23963 0.5564 0.63753 0.0
H1157 H 0.26409 0.59474 0.64466 0.0
C1158 C 0.29314 0.37072 0.65483 0.0
C1159 C 0.28281 0.38297 0.63826 0.0
C1160 C 0.31656 0.35825 0.65367 0.0
C1161 C 0.3749 0.34977 0.62348 0.0
H1162 H 0.37572 0.28367 0.64928 0.0
C1163 C 0.46648 0.28865 0.63169 0.0
C1164 C 0.464 0.26207 0.62973 0.0
C1165 C 0.44492 0.30434 0.63189 0.0
C1166 C 0.37578 0.30196 0.64183 0.0
H1167 H 0.28938 0.3929 0.6077 0.0
H1168 H 0.33044 0.37072 0.60548 0.0
H1169 H 0.3378 0.31006 0.65123 0.0
H1170 H 0.43696 0.23123 0.62579 0.0
H1171 H 0.39938 0.25854 0.62604 0.0
H1172 H 0.41284 0.34124 0.61371 0.0
C1173 C 0.32049 0.37097 0.61947 0.0
C1174 C 0.35413 0.31729 0.64319 0.0
C1175 C 0.29702 0.38368 0.62071 0.0
C1176 C 0.43949 0.25158 0.62768 0.0
C1177 C 0.41796 0.26725 0.62781 0.0
C1178 C 0.39665 0.33436 0.62211 0.0
C1179 C 0.33015 0.35751 0.63582 0.0
C1180 C 0.35343 0.34144 0.63414 0.0
C1181 C 0.42038 0.2938 0.63011 0.0
C1182 C 0.39732 0.31026 0.63127 0.0
H1183 H 0.28278 0.37033 0.66865 0.0
H1184 H 0.32377 0.34872 0.6667 0.0
H1185 H 0.37502 0.3683 0.6164 0.0
H1186 H 0.48508 0.2973 0.63354 0.0
H1187 H 0.44746 0.32465 0.63395 0.0
C1188 C 0.63123 0.28631 0.66595 0.0
C1189 C 0.61708 0.27678 0.65 0.0
C1190 C 0.64618 0.3082 0.66383 0.0
C1191 C 0.65344 0.36594 0.63312 0.0
H1192 H 0.71943 0.37003 0.65863 0.0
C1193 C 0.70855 0.46086 0.64181 0.0
C1194 C 0.73519 0.46026 0.63949 0.0
C1195 C 0.6944 0.43825 0.64205 0.0
C1196 C 0.70115 0.36915 0.65125 0.0
H1197 H 0.60769 0.28293 0.61922 0.0
H1198 H 0.63413 0.3209 0.61543 0.0
H1199 H 0.69489 0.33066 0.66064 0.0
H1200 H 0.76771 0.43542 0.63493 0.0
H1201 H 0.74305 0.39602 0.63533 0.0
H1202 H 0.65987 0.40436 0.62355 0.0
C1203 C 0.63343 0.31152 0.62966 0.0
C1204 C 0.68694 0.34666 0.6526 0.0
C1205 C 0.61849 0.28957 0.63178 0.0
C1206 C 0.74728 0.43653 0.63711 0.0
C1207 C 0.73314 0.41394 0.63733 0.0
C1208 C 0.66765 0.38846 0.63179 0.0
C1209 C 0.64738 0.32116 0.64569 0.0
C1210 C 0.66285 0.34481 0.64365 0.0
C1211 C 0.70655 0.4145 0.63995 0.0
C1212 C 0.69163 0.39037 0.64092 0.0
H1213 H 0.63084 0.27681 0.68012 0.0
H1214 H 0.65646 0.31523 0.67654 0.0
H1215 H 0.63485 0.36525 0.62621 0.0
H1216 H 0.69868 0.47879 0.64392 0.0
H1217 H 0.67399 0.43935 0.64437 0.0
C1218 C 0.53363 0.70664 0.66909 0.0
C1219 C 0.53374 0.73281 0.66461 0.0
C1220 C 0.5565 0.69294 0.66988 0.0
C1221 C 0.62041 0.69102 0.6494 0.0
H1222 H 0.63704 0.6486 0.69441 0.0
C1223 C 0.71647 0.63632 0.65453 0.0
C1224 C 0.71663 0.61289 0.66456 0.0
C1225 C 0.69463 0.65174 0.65466 0.0
C1226 C 0.63258 0.65994 0.68153 0.0
H1227 H 0.55771 0.76515 0.65732 0.0
H1228 H 0.59773 0.74099 0.65828 0.0
H1229 H 0.59799 0.67369 0.69462 0.0
H1230 H 0.69385 0.58659 0.68176 0.0
H1231 H 0.65552 0.61262 0.68129 0.0
H1232 H 0.65429 0.67662 0.63585 0.0
C1233 C 0.57997 0.73122 0.66141 0.0
C1234 C 0.61024 0.67449 0.68177 0.0
C1235 C 0.55714 0.74505 0.66102 0.0
C1236 C 0.69437 0.60481 0.67422 0.0
C1237 C 0.67243 0.61989 0.67404 0.0
C1238 C 0.64254 0.67609 0.64897 0.0
C1239 C 0.57985 0.70502 0.66578 0.0
C1240 C 0.60392 0.69013 0.66571 0.0
C1241 C 0.67228 0.64379 0.66452 0.0
C1242 C 0.64894 0.66022 0.66501 0.0
H1243 H 0.51583 0.69677 0.67186 0.0
H1244 H 0.55588 0.67272 0.67319 0.0
H1245 H 0.61583 0.70278 0.63673 0.0
H1246 H 0.73349 0.64303 0.64708 0.0
H1247 H 0.69552 0.67009 0.64736 0.0
C1248 C 0.13075 0.42228 0.32846 0.0
C1249 C 0.15505 0.41285 0.33298 0.0
C1250 C 0.11501 0.40933 0.31525 0.0
C1251 C 0.10924 0.35012 0.28459 0.0
H1252 H 0.07715 0.39699 0.2479 0.0
C1253 C 0.08297 0.32361 0.20457 0.0
C1254 C 0.05973 0.33256 0.19686 0.0
C1255 C 0.0912 0.33115 0.22325 0.0
C1256 C 0.08562 0.38359 0.25816 0.0
H1257 H 0.18177 0.38217 0.32808 0.0
H1258 H 0.15471 0.35974 0.30449 0.0
H1259 H 0.09711 0.4134 0.27751 0.0
H1260 H 0.02675 0.3562 0.20291 0.0
H1261 H 0.04136 0.3697 0.23551 0.0
H1262 H 0.09866 0.32047 0.26447 0.0
C1263 C 0.14729 0.3767 0.3115 0.0
C1264 C 0.09703 0.39297 0.27526 0.0
C1265 C 0.16284 0.38947 0.32507 0.0
C1266 C 0.04475 0.349 0.2084 0.0
C1267 C 0.05315 0.35678 0.22703 0.0
C1268 C 0.09803 0.34077 0.26733 0.0
C1269 C 0.12359 0.38705 0.3058 0.0
C1270 C 0.10929 0.37644 0.28864 0.0
C1271 C 0.07652 0.34802 0.23462 0.0
C1272 C 0.08639 0.35746 0.2538 0.0
H1273 H 0.12448 0.44042 0.33435 0.0
H1274 H 0.09662 0.41752 0.31173 0.0
H1275 H 0.11813 0.33675 0.29463 0.0
H1276 H 0.09494 0.3108 0.19616 0.0
H1277 H 0.10943 0.32431 0.22856 0.0
C1278 C 0.63515 0.11065 0.17553 0.0
C1279 C 0.6617 0.11408 0.17605 0.0
C1280 C 0.61959 0.12226 0.18982 0.0
C1281 C 0.59863 0.13075 0.2319 0.0
H1282 H 0.61302 0.19796 0.25281 0.0
C1283 C 0.55362 0.16897 0.30492 0.0
C1284 C 0.57081 0.18129 0.31766 0.0
C1285 C 0.5609 0.16265 0.28562 0.0
C1286 C 0.60879 0.17912 0.2472 0.0
H1287 H 0.69266 0.13342 0.19086 0.0
H1288 H 0.66576 0.15414 0.2152 0.0
H1289 H 0.63164 0.18514 0.22143 0.0
H1290 H 0.60923 0.19642 0.31998 0.0
H1291 H 0.62182 0.18532 0.28669 0.0
H1292 H 0.5765 0.12443 0.25809 0.0
C1293 C 0.65674 0.14254 0.20401 0.0
C1294 C 0.61938 0.17181 0.22916 0.0
C1295 C 0.6722 0.13065 0.19006 0.0
C1296 C 0.59542 0.187 0.31065 0.0
C1297 C 0.6026 0.18083 0.29142 0.0
C1298 C 0.58801 0.13808 0.25001 0.0
C1299 C 0.63036 0.13784 0.20453 0.0
C1300 C 0.61511 0.14726 0.22158 0.0
C1301 C 0.58544 0.1687 0.27859 0.0
C1302 C 0.59365 0.16206 0.25817 0.0
H1303 H 0.62666 0.09768 0.16502 0.0
H1304 H 0.59931 0.11839 0.18977 0.0
H1305 H 0.59513 0.11161 0.22658 0.0
H1306 H 0.53452 0.1643 0.30981 0.0
H1307 H 0.5472 0.15336 0.27611 0.0
C1308 C 0.85155 0.59768 0.32381 0.0
C1309 C 0.85946 0.57444 0.33214 0.0
C1310 C 0.86285 0.60696 0.30656 0.0
C1311 C 0.89839 0.6304 0.2767 0.0
H1312 H 0.91904 0.58492 0.23465 0.0
C1313 C 0.92188 0.66595 0.19824 0.0
C1314 C 0.94397 0.65632 0.18917 0.0
C1315 C 0.91307 0.65567 0.21602 0.0
C1316 C 0.91359 0.59782 0.24636 0.0
H1317 H 0.8855 0.54268 0.32883 0.0
H1318 H 0.90579 0.55918 0.29895 0.0
H1319 H 0.90046 0.56729 0.2648 0.0
H1320 H 0.97404 0.62815 0.19163 0.0
H1321 H 0.95836 0.60986 0.22266 0.0
H1322 H 0.91083 0.66093 0.25797 0.0
C1323 C 0.89043 0.57003 0.30553 0.0
C1324 C 0.90299 0.58773 0.26369 0.0
C1325 C 0.87888 0.56058 0.32272 0.0
C1326 C 0.95702 0.63606 0.19829 0.0
C1327 C 0.94797 0.62549 0.21597 0.0
C1328 C 0.90868 0.64045 0.25932 0.0
C1329 C 0.88266 0.59345 0.29725 0.0
C1330 C 0.895 0.60391 0.27905 0.0
C1331 C 0.92594 0.63526 0.22506 0.0
C1332 C 0.9162 0.62431 0.24388 0.0
H1333 H 0.83642 0.60871 0.33053 0.0
H1334 H 0.85581 0.62469 0.30045 0.0
H1335 H 0.89314 0.64349 0.28833 0.0
H1336 H 0.91142 0.68161 0.19168 0.0
H1337 H 0.89593 0.66346 0.22257 0.0
C1338 C 0.43207 0.86345 0.32811 0.0
C1339 C 0.43814 0.8374 0.32676 0.0
C1340 C 0.42128 0.87629 0.31207 0.0
C1341 C 0.38133 0.8915 0.28169 0.0
H1342 H 0.40123 0.87749 0.22774 0.0
C1343 C 0.31552 0.91117 0.21527 0.0
C1344 C 0.32666 0.91984 0.19764 0.0
C1345 C 0.33078 0.90418 0.23127 0.0
C1346 C 0.39561 0.88189 0.24272 0.0
H1347 H 0.43867 0.80471 0.30722 0.0
H1348 H 0.41981 0.827 0.27938 0.0
H1349 H 0.42645 0.8602 0.25479 0.0
H1350 H 0.36257 0.92879 0.18322 0.0
H1351 H 0.38911 0.9168 0.21118 0.0
H1352 H 0.35044 0.91312 0.2696 0.0
C1353 C 0.4235 0.8376 0.29276 0.0
C1354 C 0.40992 0.87176 0.25822 0.0
C1355 C 0.43421 0.82477 0.30878 0.0
C1356 C 0.35336 0.92199 0.19654 0.0
C1357 C 0.3686 0.91502 0.21253 0.0
C1358 C 0.36699 0.90161 0.26618 0.0
C1359 C 0.41644 0.86337 0.29433 0.0
C1360 C 0.40273 0.87612 0.27788 0.0
C1361 C 0.35752 0.90573 0.23 0.0
C1362 C 0.37375 0.89662 0.24651 0.0
H1363 H 0.43492 0.87377 0.34174 0.0
H1364 H 0.41636 0.89624 0.31365 0.0
H1365 H 0.37513 0.89503 0.29667 0.0
H1366 H 0.29503 0.90925 0.2166 0.0
H1367 H 0.32164 0.89683 0.24443 0.0
C1368 C 0.92357 0.68593 0.80678 0.0
C1369 C 0.94687 0.677 0.81439 0.0
C1370 C 0.9153 0.67857 0.78807 0.0
C1371 C 0.92156 0.62695 0.75222 0.0
H1372 H 0.88822 0.67437 0.71665 0.0
C1373 C 0.84555 0.62181 0.68427 0.0
C1374 C 0.85428 0.59915 0.6757 0.0
C1375 C 0.86039 0.63433 0.69846 0.0
C1376 C 0.89734 0.66083 0.72644 0.0
H1377 H 0.97989 0.65353 0.80812 0.0
H1378 H 0.96526 0.64041 0.77543 0.0
H1379 H 0.90718 0.68997 0.74721 0.0
H1380 H 0.88577 0.57267 0.67392 0.0
H1381 H 0.91233 0.59517 0.69768 0.0
H1382 H 0.91093 0.59764 0.73211 0.0
C1383 C 0.95342 0.65314 0.78402 0.0
C1384 C 0.90825 0.6698 0.74394 0.0
C1385 C 0.96184 0.66071 0.80272 0.0
C1386 C 0.87877 0.59027 0.68029 0.0
C1387 C 0.89377 0.60296 0.69415 0.0
C1388 C 0.91049 0.61796 0.73485 0.0
C1389 C 0.93 0.66193 0.77652 0.0
C1390 C 0.92022 0.6529 0.75715 0.0
C1391 C 0.88429 0.62445 0.70416 0.0
C1392 C 0.89798 0.6347 0.72177 0.0
H1393 H 0.91159 0.69863 0.81528 0.0
H1394 H 0.89703 0.68544 0.78285 0.0
H1395 H 0.93027 0.61336 0.7622 0.0
H1396 H 0.82646 0.62865 0.68123 0.0
H1397 H 0.85229 0.65068 0.70589 0.0
C1398 C 0.43568 0.85453 0.70192 0.0
C1399 C 0.4277 0.82903 0.70385 0.0
C1400 C 0.42799 0.87285 0.71566 0.0
C1401 C 0.37571 0.88915 0.74729 0.0
H1402 H 0.42294 0.92665 0.78029 0.0
C1403 C 0.34226 0.96439 0.80397 0.0
C1404 C 0.34871 0.95651 0.82309 0.0
C1405 C 0.35415 0.95314 0.78764 0.0
C1406 C 0.40961 0.91657 0.77093 0.0
H1407 H 0.40562 0.80267 0.72168 0.0
H1408 H 0.39166 0.83489 0.74538 0.0
H1409 H 0.4394 0.89729 0.75512 0.0
H1410 H 0.37333 0.93208 0.84041 0.0
H1411 H 0.3948 0.91325 0.81199 0.0
H1412 H 0.34591 0.90814 0.76315 0.0
C1413 C 0.4041 0.84053 0.73337 0.0
C1414 C 0.41899 0.89984 0.75662 0.0
C1415 C 0.41224 0.82212 0.71992 0.0
C1416 C 0.36817 0.93849 0.82575 0.0
C1417 C 0.38048 0.92779 0.80953 0.0
C1418 C 0.36635 0.90628 0.76127 0.0
C1419 C 0.41172 0.86606 0.73124 0.0
C1420 C 0.40207 0.88555 0.74505 0.0
C1421 C 0.37307 0.93445 0.79034 0.0
C1422 C 0.3832 0.91971 0.7735 0.0
H1423 H 0.44759 0.86037 0.68965 0.0
H1424 H 0.43409 0.89245 0.71378 0.0
H1425 H 0.36235 0.87838 0.73842 0.0
H1426 H 0.32709 0.97808 0.80165 0.0
H1427 H 0.3481 0.95846 0.77294 0.0
C1428 C 0.05268 0.36833 0.8074 0.0
C1429 C 0.06853 0.35523 0.82072 0.0
C1430 C 0.06281 0.37944 0.79029 0.0
C1431 C 0.11953 0.37664 0.75738 0.0
H1432 H 0.0936 0.44096 0.73752 0.0
C1433 C 0.14992 0.41497 0.68137 0.0
C1434 C 0.15429 0.44129 0.67926 0.0
C1435 C 0.13873 0.40515 0.69847 0.0
C1436 C 0.10123 0.4231 0.74294 0.0
H1437 H 0.10763 0.34404 0.82657 0.0
H1438 H 0.12526 0.3637 0.79709 0.0
H1439 H 0.07608 0.42299 0.76786 0.0
H1440 H 0.14992 0.478 0.69347 0.0
H1441 H 0.1308 0.46081 0.72359 0.0
H1442 H 0.14518 0.37703 0.7329 0.0
C1443 C 0.1049 0.36495 0.79956 0.0
C1444 C 0.09094 0.4126 0.76023 0.0
C1445 C 0.09477 0.35375 0.81659 0.0
C1446 C 0.14678 0.45763 0.6946 0.0
C1447 C 0.1357 0.44776 0.71184 0.0
C1448 C 0.12987 0.38716 0.74019 0.0
C1449 C 0.08906 0.37784 0.7861 0.0
C1450 C 0.09993 0.3892 0.76768 0.0
C1451 C 0.13174 0.42133 0.71408 0.0
C1452 C 0.12081 0.41048 0.73265 0.0
H1453 H 0.03238 0.36986 0.81011 0.0
H1454 H 0.04995 0.38892 0.78017 0.0
H1455 H 0.12676 0.35845 0.76247 0.0
H1456 H 0.15515 0.40182 0.66976 0.0
H1457 H 0.13546 0.38479 0.69941 0.0
C1458 C 0.62166 0.15731 0.6801 0.0
C1459 C 0.60207 0.14458 0.6701 0.0
C1460 C 0.63388 0.14566 0.69614 0.0
C1461 C 0.61949 0.09627 0.73381 0.0
H1462 H 0.68784 0.11135 0.75204 0.0
C1463 C 0.66066 0.05243 0.80535 0.0
C1464 C 0.67354 0.06919 0.81805 0.0
C1465 C 0.65375 0.06017 0.78633 0.0
C1466 C 0.66866 0.10708 0.74717 0.0
H1467 H 0.58078 0.1094 0.66804 0.0
H1468 H 0.60308 0.08836 0.69512 0.0
H1469 H 0.6743 0.12604 0.71948 0.0
H1470 H 0.68948 0.10724 0.82057 0.0
H1471 H 0.67744 0.12069 0.78737 0.0
H1472 H 0.61386 0.07735 0.76147 0.0
C1473 C 0.60863 0.10758 0.69114 0.0
C1474 C 0.66087 0.1155 0.72849 0.0
C1475 C 0.59617 0.1194 0.67536 0.0
C1476 C 0.67947 0.09386 0.81122 0.0
C1477 C 0.67278 0.10151 0.79212 0.0
C1478 C 0.62735 0.08768 0.75235 0.0
C1479 C 0.62676 0.12099 0.7024 0.0
C1480 C 0.63607 0.1104 0.72159 0.0
C1481 C 0.65977 0.08478 0.77946 0.0
C1482 C 0.65193 0.09316 0.75935 0.0
H1483 H 0.62597 0.17704 0.67664 0.0
H1484 H 0.64754 0.15675 0.70445 0.0
H1485 H 0.60004 0.09248 0.72937 0.0
H1486 H 0.65583 0.03329 0.8101 0.0
H1487 H 0.64391 0.04675 0.7769 0.0
C1488 C 1.00282 0.59152 0.10912 0.0
C1489 C 0.98269 0.60347 0.11929 0.0
C1490 C 1.00581 0.56505 0.10965 0.0
C1491 C 0.98625 0.50736 0.13809 0.0
H1492 H 0.01376 0.47204 0.09264 0.0
C1493 C 0.99035 0.39712 0.13179 0.0
C1494 C 0.01375 0.38681 0.12559 0.0
C1495 C 0.98607 0.42344 0.13099 0.0
C1496 C 0.0062 0.48168 0.10549 0.0
H1497 H 0.94967 0.59614 0.13787 0.0
H1498 H 0.95426 0.55014 0.13804 0.0
H1499 H 0.00627 0.51784 0.0909 0.0
H1500 H 0.05086 0.39592 0.11343 0.0
H1501 H 0.04327 0.44195 0.11175 0.0
H1502 H 0.98569 0.47087 0.15243 0.0
C1503 C 0.96819 0.56138 0.13004 0.0
C1504 C 1.00199 0.50799 0.10455 0.0
C1505 C 0.96535 0.58793 0.12971 0.0
C1506 C 0.03273 0.40336 0.11843 0.0
C1507 C 0.02831 0.42964 0.11734 0.0
C1508 C 0.99015 0.48098 0.13891 0.0
C1509 C 0.98858 0.54955 0.12013 0.0
C1510 C 0.99215 0.52128 0.1209 0.0
C1511 C 1.00496 0.43997 0.12368 0.0
C1512 C 1.00035 0.4679 0.12267 0.0
H1513 H 0.01649 0.60248 0.1007 0.0
H1514 H 0.02199 0.55682 0.10206 0.0
H1515 H 0.9791 0.51687 0.15111 0.0
H1516 H 0.97548 0.38486 0.13755 0.0
H1517 H 0.96786 0.43084 0.13588 0.0
C1518 C 0.4062 0.00613 0.12061 0.0
C1519 C 0.39278 0.99188 0.1348 0.0
C1520 C 0.43243 0.0104 0.12262 0.0
C1521 C 0.48953 0.98453 0.14807 0.0
H1522 H 0.5206 0.04756 0.13016 0.0
C1523 C 0.59818 0.99441 0.13655 0.0
C1524 C 0.60994 0.01797 0.14046 0.0
C1525 C 0.57168 0.99179 0.13756 0.0
C1526 C 0.51225 0.02994 0.13548 0.0
H1527 H 0.3962 0.97188 0.16266 0.0
H1528 H 0.44174 0.97964 0.16637 0.0
H1529 H 0.47444 0.0428 0.12902 0.0
H1530 H 0.60268 0.05717 0.14902 0.0
H1531 H 0.55663 0.05239 0.15139 0.0
H1532 H 0.52726 0.97185 0.15491 0.0
C1533 C 0.43222 0.98696 0.15338 0.0
C1534 C 0.48574 0.02707 0.13456 0.0
C1535 C 0.40607 0.98254 0.15129 0.0
C1536 C 0.59446 0.03867 0.14604 0.0
C1537 C 0.56793 0.03602 0.14713 0.0
C1538 C 0.51601 0.98744 0.14908 0.0
C1539 C 0.44585 1.00069 0.13896 0.0
C1540 C 0.47402 1.00424 0.14068 0.0
C1541 C 0.55614 0.01263 0.14264 0.0
C1542 C 0.52778 0.01009 0.14262 0.0
H1543 H 0.3966 0.01333 0.10764 0.0
H1544 H 0.44228 0.02073 0.11106 0.0
H1545 H 0.4813 0.96655 0.15272 0.0
H1546 H 0.60943 0.97796 0.13247 0.0
H1547 H 0.56336 0.97354 0.13381 0.0
C1548 C 0.55367 0.10794 0.39113 0.0
C1549 C 0.53239 0.12426 0.39087 0.0
C1550 C 0.55051 0.08144 0.39212 0.0
C1551 C 0.50299 0.03169 0.40566 0.0
H1552 H 0.5472 0.98709 0.37557 0.0
C1553 C 0.48171 0.92434 0.39622 0.0
C1554 C 0.50227 0.9072 0.39752 0.0
C1555 C 0.48592 0.95067 0.39568 0.0
C1556 C 0.53487 0.99926 0.38424 0.0
H1557 H 0.49108 0.12532 0.39096 0.0
H1558 H 0.48554 0.07927 0.3925 0.0
H1559 H 0.55346 0.03317 0.37397 0.0
H1560 H 0.54346 0.90449 0.39907 0.0
H1561 H 0.55082 0.9505 0.39826 0.0
H1562 H 0.48425 0.99781 0.41578 0.0
C1563 C 0.50472 0.08691 0.39239 0.0
C1564 C 0.53847 0.02571 0.38334 0.0
C1565 C 0.50789 0.11338 0.39148 0.0
C1566 C 0.52718 0.91712 0.39823 0.0
C1567 C 0.53141 0.9435 0.39757 0.0
C1568 C 0.49934 1.00528 0.40651 0.0
C1569 C 0.52598 0.07055 0.3928 0.0
C1570 C 0.5225 0.04231 0.39398 0.0
C1571 C 0.51081 0.96061 0.39634 0.0
C1572 C 0.51515 0.98872 0.39574 0.0
H1573 H 0.57281 0.11564 0.39096 0.0
H1574 H 0.56733 0.0695 0.3927 0.0
H1575 H 0.49063 0.04378 0.41437 0.0
H1576 H 0.46227 0.91746 0.39588 0.0
H1577 H 0.46962 0.96326 0.39452 0.0
C1578 C 0.91949 0.51386 0.41365 0.0
C1579 C 0.90762 0.53144 0.40094 0.0
C1580 C 0.94581 0.50961 0.41261 0.0
C1581 C 0.00618 0.5383 0.39483 0.0
H1582 H 0.03154 0.46899 0.39829 0.0
C1583 C 0.11387 0.51457 0.40111 0.0
C1584 C 0.12298 0.49378 0.3901 0.0
C1585 C 0.08769 0.51954 0.4024 0.0
C1586 C 0.02477 0.48845 0.39717 0.0
H1587 H 0.91438 0.55811 0.37697 0.0
H1588 H 0.96016 0.55086 0.37531 0.0
H1589 H 0.98581 0.47698 0.40058 0.0
H1590 H 0.11146 0.46179 0.37195 0.0
H1591 H 0.06595 0.47064 0.37399 0.0
H1592 H 0.04514 0.54973 0.39115 0.0
C1593 C 0.94915 0.5406 0.38627 0.0
C1594 C 0.99857 0.49306 0.39871 0.0
C1595 C 0.92283 0.54479 0.38726 0.0
C1596 C 0.10522 0.47814 0.38036 0.0
C1597 C 0.07906 0.48303 0.38173 0.0
C1598 C 0.03241 0.5337 0.39338 0.0
C1599 C 0.96097 0.52288 0.39887 0.0
C1600 C 0.98893 0.51804 0.39751 0.0
C1601 C 0.06994 0.50375 0.39281 0.0
C1602 C 0.04204 0.50871 0.39448 0.0
H1603 H 0.9085 0.50348 0.42453 0.0
H1604 H 0.95434 0.49609 0.42274 0.0
H1605 H 0.99944 0.55779 0.39402 0.0
H1606 H 0.12699 0.52711 0.40866 0.0
H1607 H 0.08133 0.53553 0.41119 0.0
C1608 C 1.00319 0.60739 0.90017 0.0
C1609 C 0.9861 0.61876 0.8868 0.0
C1610 C 0.00652 0.58093 0.90063 0.0
C1611 C 0.97634 0.51986 0.88646 0.0
H1612 H 0.0451 0.49342 0.89137 0.0
C1613 C 0.99782 0.41244 0.89917 0.0
C1614 C 0.01826 0.40185 0.8885 0.0
C1615 C 0.99352 0.43881 0.89911 0.0
C1616 C 0.02578 0.50046 0.88989 0.0
H1617 H 0.95906 0.61083 0.86343 0.0
H1618 H 0.96476 0.56466 0.86435 0.0
H1619 H 0.0381 0.53937 0.89073 0.0
H1620 H 0.04987 0.41108 0.86904 0.0
H1621 H 0.04255 0.45684 0.86915 0.0
H1622 H 0.96409 0.48087 0.88538 0.0
C1623 C 0.97542 0.57631 0.87461 0.0
C1624 C 0.02174 0.52683 0.88972 0.0
C1625 C 0.97214 0.60283 0.87409 0.0
C1626 C 0.03427 0.41842 0.87778 0.0
C1627 C 0.03003 0.44476 0.87779 0.0
C1628 C 0.98038 0.49344 0.88674 0.0
C1629 C 0.99281 0.56504 0.88778 0.0
C1630 C 0.99698 0.53689 0.88798 0.0
C1631 C 0.0096 0.45531 0.88844 0.0
C1632 C 1.00517 0.48341 0.8884 0.0
H1633 H 0.01392 0.61887 0.91045 0.0
H1634 H 0.01973 0.57289 0.91121 0.0
H1635 H 0.95701 0.52694 0.88526 0.0
H1636 H 0.98526 0.40042 0.90779 0.0
H1637 H 0.97779 0.44631 0.90767 0.0
C1638 C 0.59792 0.04401 0.88665 0.0
C1639 C 0.6147 0.02307 0.88697 0.0
C1640 C 0.57147 0.04032 0.88703 0.0
C1641 C 0.5214 0.99147 0.87798 0.0
H1642 H 0.47924 0.03689 0.90905 0.0
C1643 C 0.41107 0.98744 0.87537 0.0
C1644 C 0.39773 0.99096 0.89316 0.0
C1645 C 0.43742 0.9916 0.87435 0.0
C1646 C 0.49072 0.02389 0.90041 0.0
H1647 H 0.61646 0.98174 0.88762 0.0
H1648 H 0.57056 0.97536 0.88875 0.0
H1649 H 0.52522 0.04334 0.908 0.0
H1650 H 0.40192 1.00125 0.92392 0.0
H1651 H 0.44776 0.00831 0.9222 0.0
H1652 H 0.48698 0.97161 0.87081 0.0
C1653 C 0.57782 0.99467 0.88798 0.0
C1654 C 0.51711 0.0278 0.8996 0.0
C1655 C 0.60425 0.99836 0.88758 0.0
C1656 C 0.41145 0.99873 0.9099 0.0
C1657 C 0.4378 1.00281 0.9089 0.0
C1658 C 0.49501 0.98754 0.87881 0.0
C1659 C 0.56104 0.01559 0.88775 0.0
C1660 C 0.53284 0.01162 0.8884 0.0
C1661 C 0.45116 0.99933 0.89111 0.0
C1662 C 0.4793 1.00366 0.89007 0.0
H1663 H 0.60514 0.06332 0.88638 0.0
H1664 H 0.55918 0.05689 0.8866 0.0
H1665 H 0.53282 0.97879 0.86901 0.0
H1666 H 0.40109 0.98185 0.86212 0.0
H1667 H 0.44694 0.98912 0.86032 0.0
C1668 C 0.51236 0.89335 0.62251 0.0
C1669 C 0.4874 0.88409 0.62497 0.0
C1670 C 0.51693 0.91954 0.62057 0.0
C1671 C 0.48557 0.98028 0.60726 0.0
H1672 H 0.54123 0.01106 0.63631 0.0
C1673 C 0.51601 0.08562 0.59638 0.0
C1674 C 0.52172 0.0996 0.61349 0.0
C1675 C 0.51199 0.05926 0.59734 0.0
C1676 C 0.52554 1.00277 0.62817 0.0
H1677 H 0.44761 0.89512 0.62682 0.0
H1678 H 0.45559 0.9407 0.62364 0.0
H1679 H 0.5339 0.96519 0.63877 0.0
H1680 H 0.52699 0.0966 0.64515 0.0
H1681 H 0.5202 0.05077 0.64675 0.0
H1682 H 0.47697 0.01792 0.5969 0.0
C1683 C 0.47165 0.92773 0.62316 0.0
C1684 C 0.52151 0.97645 0.62941 0.0
C1685 C 0.4671 0.9016 0.62522 0.0
C1686 C 0.52312 0.08651 0.6316 0.0
C1687 C 0.51921 0.06017 0.63254 0.0
C1688 C 0.48969 0.00658 0.60593 0.0
C1689 C 0.49662 0.93704 0.62088 0.0
C1690 C 0.50139 0.96491 0.61907 0.0
C1691 C 0.51366 0.04622 0.61542 0.0
C1692 C 0.50962 0.01816 0.61647 0.0
H1693 H 0.52841 0.8804 0.62239 0.0
H1694 H 0.53638 0.92608 0.61867 0.0
H1695 H 0.47006 0.97194 0.59896 0.0
H1696 H 0.51512 0.09489 0.58214 0.0
H1697 H 0.50803 0.04902 0.58385 0.0
C1698 C 0.90869 0.53782 0.6257 0.0
C1699 C 0.8914 0.5211 0.61657 0.0
C1700 C 0.93491 0.53324 0.62484 0.0
C1701 C 0.98225 0.48242 0.61696 0.0
H1702 H 0.0282 0.53869 0.60598 0.0
C1703 C 0.09178 0.47424 0.62484 0.0
C1704 C 0.10677 0.48544 0.60993 0.0
C1705 C 0.06543 0.47821 0.62544 0.0
C1706 C 0.01561 0.52275 0.60894 0.0
H1707 H 0.88814 0.48625 0.59966 0.0
H1708 H 0.93398 0.47831 0.59807 0.0
H1709 H 0.98232 0.54628 0.60732 0.0
H1710 H 0.1055 0.5093 0.58377 0.0
H1711 H 0.05963 0.51639 0.58497 0.0
H1712 H 0.01555 0.45886 0.61845 0.0
C1713 C 0.92719 0.49493 0.60594 0.0
C1714 C 0.98935 0.52715 0.60991 0.0
C1715 C 0.90096 0.4996 0.60668 0.0
C1716 C 0.09469 0.50067 0.59563 0.0
C1717 C 0.06836 0.50473 0.5963 0.0
C1718 C 0.00853 0.47805 0.61612 0.0
C1719 C 0.94447 0.51176 0.61494 0.0
C1720 C 0.97237 0.50703 0.61392 0.0
C1721 C 0.05344 0.49358 0.61123 0.0
C1722 C 0.0255 0.49817 0.61208 0.0
H1723 H 0.90201 0.5547 0.63325 0.0
H1724 H 0.94772 0.54644 0.63208 0.0
H1725 H 0.96967 0.46657 0.62024 0.0
H1726 H 0.1004 0.46279 0.63632 0.0
H1727 H 0.05451 0.46964 0.6373 0.0
loop_
_geom_bond_atom_site_label_1
_geom_bond_atom_site_label_2
_geom_bond_distance
_geom_bond_site_symmetry_2
_ccdc_geom_bond_type
Co0 N4 2.148 . S
Co0 N10 2.128 . S
Co0 N20 2.194 . S
Co0 O25 2.351 . S
Co0 O26 2.155 . S
Co0 O27 2.096 . S
C1 N4 1.301 . S
C1 N5 1.328 . S
C1 H6 0.930 . S
C2 C3 1.333 . S
C2 N4 1.317 . S
C2 H7 0.930 . S
C3 C2 1.333 . S
C3 N5 1.350 . S
C3 H29 0.931 . S
N4 Co0 2.148 . S
N4 C1 1.301 . S
N4 C2 1.317 . S
N5 C1 1.328 . S
N5 C3 1.350 . S
H6 C1 0.930 . S
H7 C2 0.930 . S
C8 O9 1.224 . S
C8 O27 1.247 . S
O9 C8 1.224 . S
N10 Co0 2.128 . S
N10 C11 1.355 . S
N10 C13 1.311 . S
C11 N10 1.355 . S
C11 C12 1.363 . S
C11 H23 0.929 . S
C12 C11 1.363 . S
C12 N14 1.375 . S
C12 H30 0.931 . S
C13 N10 1.311 . S
C13 N14 1.347 . S
C13 H24 0.929 . S
N14 C12 1.375 . S
N14 C13 1.347 . S
C15 C18 1.365 . S
C15 N20 1.328 . S
C15 H21 0.929 . S
C16 C17 1.372 . S
C16 C19 1.378 . S
C16 H31 0.929 . S
C17 C16 1.372 . S
C17 C18 1.373 . S
C18 C15 1.365 . S
C18 C17 1.373 . S
C18 H32 0.930 . S
C19 C16 1.378 . S
C19 N20 1.315 . S
C19 H22 0.930 . S
N20 Co0 2.194 . S
N20 C15 1.328 . S
N20 C19 1.315 . S
H21 C15 0.929 . S
H22 C19 0.930 . S
H23 C11 0.929 . S
H24 C13 0.929 . S
O25 Co0 2.351 . S
O25 C28 1.244 . S
O26 Co0 2.155 . S
O26 C28 1.240 . S
O27 Co0 2.096 . S
O27 C8 1.247 . S
C28 O25 1.244 . S
C28 O26 1.240 . S
H29 C3 0.931 . S
H30 C12 0.931 . S
H31 C16 0.929 . S
H32 C18 0.930 . S
Co33 N37 2.148 . S
Co33 N43 2.128 . S
Co33 N53 2.194 . S
Co33 O58 2.351 . S
Co33 O59 2.155 . S
Co33 O60 2.096 . S
C34 N37 1.301 . S
C34 N38 1.328 . S
C34 H39 0.930 . S
C35 C36 1.333 . S
C35 N37 1.317 . S
C35 H40 0.930 . S
C36 C35 1.333 . S
C36 N38 1.350 . S
C36 H62 0.931 . S
N37 Co33 2.148 . S
N37 C34 1.301 . S
N37 C35 1.317 . S
N38 C34 1.328 . S
N38 C36 1.350 . S
H39 C34 0.930 . S
H40 C35 0.930 . S
C41 O42 1.224 . S
C41 O60 1.247 . S
O42 C41 1.224 . S
N43 Co33 2.128 . S
N43 C44 1.355 . S
N43 C46 1.311 . S
C44 N43 1.355 . S
C44 C45 1.363 . S
C44 H56 0.929 . S
C45 C44 1.363 . S
C45 N47 1.375 . S
C45 H63 0.931 . S
C46 N43 1.311 . S
C46 N47 1.347 . S
C46 H57 0.929 . S
N47 C45 1.375 . S
N47 C46 1.347 . S
C48 C51 1.365 . S
C48 N53 1.328 . S
C48 H54 0.929 . S
C49 C50 1.372 . S
C49 C52 1.378 . S
C49 H64 0.929 . S
C50 C49 1.372 . S
C50 C51 1.373 . S
C51 C48 1.365 . S
C51 C50 1.373 . S
C51 H65 0.930 . S
C52 C49 1.378 . S
C52 N53 1.315 . S
C52 H55 0.930 . S
N53 Co33 2.194 . S
N53 C48 1.328 . S
N53 C52 1.315 . S
H54 C48 0.929 . S
H55 C52 0.930 . S
H56 C44 0.929 . S
H57 C46 0.929 . S
O58 Co33 2.351 . S
O58 C61 1.244 . S
O59 Co33 2.155 . S
O59 C61 1.240 . S
O60 Co33 2.096 . S
O60 C41 1.247 . S
C61 O58 1.244 . S
C61 O59 1.240 . S
H62 C36 0.931 . S
H63 C45 0.931 . S
H64 C49 0.929 . S
H65 C51 0.930 . S
Co66 N70 2.148 . S
Co66 N76 2.128 . S
Co66 N86 2.194 . S
Co66 O91 2.351 . S
Co66 O92 2.155 . S
Co66 O93 2.096 . S
C67 N70 1.301 . S
C67 N71 1.328 . S
C67 H72 0.930 . S
C68 C69 1.333 . S
C68 N70 1.317 . S
C68 H73 0.930 . S
C69 C68 1.333 . S
C69 N71 1.350 . S
C69 H95 0.931 . S
N70 Co66 2.148 . S
N70 C67 1.301 . S
N70 C68 1.317 . S
N71 C67 1.328 . S
N71 C69 1.350 . S
H72 C67 0.930 . S
H73 C68 0.930 . S
C74 O75 1.224 . S
C74 O93 1.247 . S
O75 C74 1.224 . S
N76 Co66 2.128 . S
N76 C77 1.355 . S
N76 C79 1.311 . S
C77 N76 1.355 . S
C77 C78 1.363 . S
C77 H89 0.929 . S
C78 C77 1.363 . S
C78 N80 1.375 . S
C78 H96 0.931 . S
C79 N76 1.311 . S
C79 N80 1.347 . S
C79 H90 0.929 . S
N80 C78 1.375 . S
N80 C79 1.347 . S
C81 C84 1.365 . S
C81 N86 1.328 . S
C81 H87 0.929 . S
C82 C83 1.372 . S
C82 C85 1.378 . S
C82 H97 0.929 . S
C83 C82 1.372 . S
C83 C84 1.373 . S
C84 C81 1.365 . S
C84 C83 1.373 . S
C84 H98 0.930 . S
C85 C82 1.378 . S
C85 N86 1.315 . S
C85 H88 0.930 . S
N86 Co66 2.194 . S
N86 C81 1.328 . S
N86 C85 1.315 . S
H87 C81 0.929 . S
H88 C85 0.930 . S
H89 C77 0.929 . S
H90 C79 0.929 . S
O91 Co66 2.351 . S
O91 C94 1.244 . S
O92 Co66 2.155 . S
O92 C94 1.240 . S
O93 Co66 2.096 . S
O93 C74 1.247 . S
C94 O91 1.244 . S
C94 O92 1.240 . S
H95 C69 0.931 . S
H96 C78 0.931 . S
H97 C82 0.929 . S
H98 C84 0.930 . S
Co99 N103 2.148 . S
Co99 N109 2.128 . S
Co99 N119 2.194 . S
Co99 O124 2.351 . S
Co99 O125 2.155 . S
Co99 O126 2.096 . S
C100 N103 1.301 . S
C100 N104 1.328 . S
C100 H105 0.930 . S
C101 C102 1.333 . S
C101 N103 1.317 . S
C101 H106 0.930 . S
C102 C101 1.333 . S
C102 N104 1.350 . S
C102 H128 0.931 . S
N103 Co99 2.148 . S
N103 C100 1.301 . S
N103 C101 1.317 . S
N104 C100 1.328 . S
N104 C102 1.350 . S
H105 C100 0.930 . S
H106 C101 0.930 . S
C107 O108 1.224 . S
C107 O126 1.247 . S
O108 C107 1.224 . S
N109 Co99 2.128 . S
N109 C110 1.355 . S
N109 C112 1.311 . S
C110 N109 1.355 . S
C110 C111 1.363 . S
C110 H122 0.929 . S
C111 C110 1.363 . S
C111 N113 1.375 . S
C111 H129 0.931 . S
C112 N109 1.311 . S
C112 N113 1.347 . S
C112 H123 0.929 . S
N113 C111 1.375 . S
N113 C112 1.347 . S
C114 C117 1.365 . S
C114 N119 1.328 . S
C114 H120 0.929 . S
C115 C116 1.372 . S
C115 C118 1.378 . S
C115 H130 0.929 . S
C116 C115 1.372 . S
C116 C117 1.373 . S
C117 C114 1.365 . S
C117 C116 1.373 . S
C117 H131 0.930 . S
C118 C115 1.378 . S
C118 N119 1.315 . S
C118 H121 0.930 . S
N119 Co99 2.194 . S
N119 C114 1.328 . S
N119 C118 1.315 . S
H120 C114 0.929 . S
H121 C118 0.930 . S
H122 C110 0.929 . S
H123 C112 0.929 . S
O124 Co99 2.351 . S
O124 C127 1.244 . S
O125 Co99 2.155 . S
O125 C127 1.240 . S
O126 Co99 2.096 . S
O126 C107 1.247 . S
C127 O124 1.244 . S
C127 O125 1.240 . S
H128 C102 0.931 . S
H129 C111 0.931 . S
H130 C115 0.929 . S
H131 C117 0.930 . S
Co132 N136 2.148 . S
Co132 N142 2.128 . S
Co132 N152 2.194 . S
Co132 O157 2.351 . S
Co132 O158 2.155 . S
Co132 O159 2.096 . S
C133 N136 1.301 . S
C133 N137 1.328 . S
C133 H138 0.930 . S
C134 C135 1.333 . S
C134 N136 1.317 . S
C134 H139 0.930 . S
C135 C134 1.333 . S
C135 N137 1.350 . S
C135 H161 0.931 . S
N136 Co132 2.148 . S
N136 C133 1.301 . S
N136 C134 1.317 . S
N137 C133 1.328 . S
N137 C135 1.350 . S
H138 C133 0.930 . S
H139 C134 0.930 . S
C140 O141 1.224 . S
C140 O159 1.247 . S
O141 C140 1.224 . S
N142 Co132 2.128 . S
N142 C143 1.355 . S
N142 C145 1.311 . S
C143 N142 1.355 . S
C143 C144 1.363 . S
C143 H155 0.929 . S
C144 C143 1.363 . S
C144 N146 1.375 . S
C144 H162 0.931 . S
C145 N142 1.311 . S
C145 N146 1.347 . S
C145 H156 0.929 . S
N146 C144 1.375 . S
N146 C145 1.347 . S
C147 C150 1.365 . S
C147 N152 1.328 . S
C147 H153 0.929 . S
C148 C149 1.362 . S
C148 C151 1.378 . S
C148 H163 0.929 . S
C149 C148 1.362 . S
C149 C150 1.366 . S
C150 C147 1.365 . S
C150 C149 1.366 . S
C150 H164 0.930 . S
C151 C148 1.378 . S
C151 N152 1.315 . S
C151 H154 0.930 . S
N152 Co132 2.194 . S
N152 C147 1.328 . S
N152 C151 1.315 . S
H153 C147 0.929 . S
H154 C151 0.930 . S
H155 C143 0.929 . S
H156 C145 0.929 . S
O157 Co132 2.351 . S
O157 C160 1.244 . S
O158 Co132 2.155 . S
O158 C160 1.240 . S
O159 Co132 2.096 . S
O159 C140 1.247 . S
C160 O157 1.244 . S
C160 O158 1.240 . S
H161 C135 0.931 . S
H162 C144 0.931 . S
H163 C148 0.929 . S
H164 C150 0.930 . S
Co165 N169 2.148 . S
Co165 N175 2.128 . S
Co165 N185 2.194 . S
Co165 O190 2.351 . S
Co165 O191 2.155 . S
Co165 O192 2.096 . S
C166 N169 1.301 . S
C166 N170 1.328 . S
C166 H171 0.930 . S
C167 C168 1.333 . S
C167 N169 1.317 . S
C167 H172 0.930 . S
C168 C167 1.333 . S
C168 N170 1.350 . S
C168 H194 0.931 . S
N169 Co165 2.148 . S
N169 C166 1.301 . S
N169 C167 1.317 . S
N170 C166 1.328 . S
N170 C168 1.350 . S
H171 C166 0.930 . S
H172 C167 0.930 . S
C173 O174 1.224 . S
C173 O192 1.247 . S
O174 C173 1.224 . S
N175 Co165 2.128 . S
N175 C176 1.355 . S
N175 C178 1.311 . S
C176 N175 1.355 . S
C176 C177 1.363 . S
C176 H188 0.929 . S
C177 C176 1.363 . S
C177 N179 1.375 . S
C177 H195 0.931 . S
C178 N175 1.311 . S
C178 N179 1.347 . S
C178 H189 0.929 . S
N179 C177 1.375 . S
N179 C178 1.347 . S
C180 C183 1.365 . S
C180 N185 1.328 . S
C180 H186 0.929 . S
C181 C182 1.362 . S
C181 C184 1.378 . S
C181 H196 0.929 . S
C182 C181 1.362 . S
C182 C183 1.366 . S
C183 C180 1.365 . S
C183 C182 1.366 . S
C183 H197 0.930 . S
C184 C181 1.378 . S
C184 N185 1.315 . S
C184 H187 0.930 . S
N185 Co165 2.194 . S
N185 C180 1.328 . S
N185 C184 1.315 . S
H186 C180 0.929 . S
H187 C184 0.930 . S
H188 C176 0.929 . S
H189 C178 0.929 . S
O190 Co165 2.351 . S
O190 C193 1.244 . S
O191 Co165 2.155 . S
O191 C193 1.240 . S
O192 Co165 2.096 . S
O192 C173 1.247 . S
C193 O190 1.244 . S
C193 O191 1.240 . S
H194 C168 0.931 . S
H195 C177 0.931 . S
H196 C181 0.929 . S
H197 C183 0.930 . S
Co198 N202 2.148 . S
Co198 N208 2.128 . S
Co198 N218 2.194 . S
Co198 O223 2.351 . S
Co198 O224 2.155 . S
Co198 O225 2.096 . S
C199 N202 1.301 . S
C199 N203 1.328 . S
C199 H204 0.930 . S
C200 C201 1.333 . S
C200 N202 1.317 . S
C200 H205 0.930 . S
C201 C200 1.333 . S
C201 N203 1.350 . S
C201 H227 0.931 . S
N202 Co198 2.148 . S
N202 C199 1.301 . S
N202 C200 1.317 . S
N203 C199 1.328 . S
N203 C201 1.350 . S
H204 C199 0.930 . S
H205 C200 0.930 . S
C206 O207 1.224 . S
C206 O225 1.247 . S
O207 C206 1.224 . S
N208 Co198 2.128 . S
N208 C209 1.355 . S
N208 C211 1.311 . S
C209 N208 1.355 . S
C209 C210 1.363 . S
C209 H221 0.929 . S
C210 C209 1.363 . S
C210 N212 1.375 . S
C210 H228 0.931 . S
C211 N208 1.311 . S
C211 N212 1.347 . S
C211 H222 0.929 . S
N212 C210 1.375 . S
N212 C211 1.347 . S
C213 C216 1.365 . S
C213 N218 1.328 . S
C213 H219 0.929 . S
C214 C215 1.362 . S
C214 C217 1.378 . S
C214 H229 0.929 . S
C215 C214 1.362 . S
C215 C216 1.366 . S
C216 C213 1.365 . S
C216 C215 1.366 . S
C216 H230 0.930 . S
C217 C214 1.378 . S
C217 N218 1.315 . S
C217 H220 0.930 . S
N218 Co198 2.194 . S
N218 C213 1.328 . S
N218 C217 1.315 . S
H219 C213 0.929 . S
H220 C217 0.930 . S
H221 C209 0.929 . S
H222 C211 0.929 . S
O223 Co198 2.351 . S
O223 C226 1.244 . S
O224 Co198 2.155 . S
O224 C226 1.240 . S
O225 Co198 2.096 . S
O225 C206 1.247 . S
C226 O223 1.244 . S
C226 O224 1.240 . S
H227 C201 0.931 . S
H228 C210 0.931 . S
H229 C214 0.929 . S
H230 C216 0.930 . S
Co231 N235 2.148 . S
Co231 N241 2.128 . S
Co231 N251 2.194 . S
Co231 O256 2.351 . S
Co231 O257 2.155 . S
Co231 O258 2.096 . S
C232 N235 1.301 . S
C232 N236 1.328 . S
C232 H237 0.930 . S
C233 C234 1.333 . S
C233 N235 1.317 . S
C233 H238 0.930 . S
C234 C233 1.333 . S
C234 N236 1.350 . S
C234 H260 0.931 . S
N235 Co231 2.148 . S
N235 C232 1.301 . S
N235 C233 1.317 . S
N236 C232 1.328 . S
N236 C234 1.350 . S
H237 C232 0.930 . S
H238 C233 0.930 . S
C239 O240 1.224 . S
C239 O258 1.247 . S
O240 C239 1.224 . S
N241 Co231 2.128 . S
N241 C242 1.355 . S
N241 C244 1.311 . S
C242 N241 1.355 . S
C242 C243 1.363 . S
C242 H254 0.929 . S
C243 C242 1.363 . S
C243 N245 1.375 . S
C243 H261 0.931 . S
C244 N241 1.311 . S
C244 N245 1.347 . S
C244 H255 0.929 . S
N245 C243 1.375 . S
N245 C244 1.347 . S
C246 C249 1.365 . S
C246 N251 1.328 . S
C246 H252 0.929 . S
C247 C248 1.362 . S
C247 C250 1.378 . S
C247 H262 0.929 . S
C248 C247 1.362 . S
C248 C249 1.366 . S
C249 C246 1.365 . S
C249 C248 1.366 . S
C249 H263 0.930 . S
C250 C247 1.378 . S
C250 N251 1.315 . S
C250 H253 0.930 . S
N251 Co231 2.194 . S
N251 C246 1.328 . S
N251 C250 1.315 . S
H252 C246 0.929 . S
H253 C250 0.930 . S
H254 C242 0.929 . S
H255 C244 0.929 . S
O256 Co231 2.351 . S
O256 C259 1.244 . S
O257 Co231 2.155 . S
O257 C259 1.240 . S
O258 Co231 2.096 . S
O258 C239 1.247 . S
C259 O256 1.244 . S
C259 O257 1.240 . S
H260 C234 0.931 . S
H261 C243 0.931 . S
H262 C247 0.929 . S
H263 C249 0.930 . S
Co264 N268 2.148 . S
Co264 N274 2.128 . S
Co264 N284 2.194 . S
Co264 O289 2.351 . S
Co264 O290 2.155 . S
Co264 O291 2.096 . S
C265 N268 1.301 . S
C265 N269 1.328 . S
C265 H270 0.930 . S
C266 C267 1.333 . S
C266 N268 1.317 . S
C266 H271 0.930 . S
C267 C266 1.333 . S
C267 N269 1.350 . S
C267 H293 0.931 . S
N268 Co264 2.148 . S
N268 C265 1.301 . S
N268 C266 1.317 . S
N269 C265 1.328 . S
N269 C267 1.350 . S
H270 C265 0.930 . S
H271 C266 0.930 . S
C272 O273 1.224 . S
C272 O291 1.247 . S
O273 C272 1.224 . S
N274 Co264 2.128 . S
N274 C275 1.355 . S
N274 C277 1.311 . S
C275 N274 1.355 . S
C275 C276 1.363 . S
C275 H287 0.929 . S
C276 C275 1.363 . S
C276 N278 1.375 . S
C276 H294 0.931 . S
C277 N274 1.311 . S
C277 N278 1.347 . S
C277 H288 0.929 . S
N278 C276 1.375 . S
N278 C277 1.347 . S
C279 C282 1.365 . S
C279 N284 1.328 . S
C279 H285 0.929 . S
C280 C281 1.372 . S
C280 C283 1.378 . S
C280 H295 0.929 . S
C281 C280 1.372 . S
C281 C282 1.373 . S
C282 C279 1.365 . S
C282 C281 1.373 . S
C282 H296 0.930 . S
C283 C280 1.378 . S
C283 N284 1.315 . S
C283 H286 0.930 . S
N284 Co264 2.194 . S
N284 C279 1.328 . S
N284 C283 1.315 . S
H285 C279 0.929 . S
H286 C283 0.930 . S
H287 C275 0.929 . S
H288 C277 0.929 . S
O289 Co264 2.351 . S
O289 C292 1.244 . S
O290 Co264 2.155 . S
O290 C292 1.240 . S
O291 Co264 2.096 . S
O291 C272 1.247 . S
C292 O289 1.244 . S
C292 O290 1.240 . S
H293 C267 0.931 . S
H294 C276 0.931 . S
H295 C280 0.929 . S
H296 C282 0.930 . S
Co297 N301 2.148 . S
Co297 N307 2.128 . S
Co297 N317 2.194 . S
Co297 O322 2.351 . S
Co297 O323 2.155 . S
Co297 O324 2.096 . S
C298 N301 1.301 . S
C298 N302 1.328 . S
C298 H303 0.930 . S
C299 C300 1.333 . S
C299 N301 1.317 . S
C299 H304 0.930 . S
C300 C299 1.333 . S
C300 N302 1.350 . S
C300 H326 0.931 . S
N301 Co297 2.148 . S
N301 C298 1.301 . S
N301 C299 1.317 . S
N302 C298 1.328 . S
N302 C300 1.350 . S
H303 C298 0.930 . S
H304 C299 0.930 . S
C305 O306 1.224 . S
C305 O324 1.247 . S
O306 C305 1.224 . S
N307 Co297 2.128 . S
N307 C308 1.355 . S
N307 C310 1.311 . S
C308 N307 1.355 . S
C308 C309 1.363 . S
C308 H320 0.929 . S
C309 C308 1.363 . S
C309 N311 1.375 . S
C309 H327 0.931 . S
C310 N307 1.311 . S
C310 N311 1.347 . S
C310 H321 0.929 . S
N311 C309 1.375 . S
N311 C310 1.347 . S
C312 C315 1.365 . S
C312 N317 1.328 . S
C312 H318 0.929 . S
C313 C314 1.372 . S
C313 C316 1.378 . S
C313 H328 0.929 . S
C314 C313 1.372 . S
C314 C315 1.373 . S
C315 C312 1.365 . S
C315 C314 1.373 . S
C315 H329 0.930 . S
C316 C313 1.378 . S
C316 N317 1.315 . S
C316 H319 0.930 . S
N317 Co297 2.194 . S
N317 C312 1.328 . S
N317 C316 1.315 . S
H318 C312 0.929 . S
H319 C316 0.930 . S
H320 C308 0.929 . S
H321 C310 0.929 . S
O322 Co297 2.351 . S
O322 C325 1.244 . S
O323 Co297 2.155 . S
O323 C325 1.240 . S
O324 Co297 2.096 . S
O324 C305 1.247 . S
C325 O322 1.244 . S
C325 O323 1.240 . S
H326 C300 0.931 . S
H327 C309 0.931 . S
H328 C313 0.929 . S
H329 C315 0.930 . S
Co330 N334 2.148 . S
Co330 N340 2.128 . S
Co330 N350 2.194 . S
Co330 O355 2.351 . S
Co330 O356 2.155 . S
Co330 O357 2.096 . S
C331 N334 1.301 . S
C331 N335 1.328 . S
C331 H336 0.930 . S
C332 C333 1.333 . S
C332 N334 1.317 . S
C332 H337 0.930 . S
C333 C332 1.333 . S
C333 N335 1.350 . S
C333 H359 0.931 . S
N334 Co330 2.148 . S
N334 C331 1.301 . S
N334 C332 1.317 . S
N335 C331 1.328 . S
N335 C333 1.350 . S
H336 C331 0.930 . S
H337 C332 0.930 . S
C338 O339 1.224 . S
C338 O357 1.247 . S
O339 C338 1.224 . S
N340 Co330 2.128 . S
N340 C341 1.355 . S
N340 C343 1.311 . S
C341 N340 1.355 . S
C341 C342 1.363 . S
C341 H353 0.929 . S
C342 C341 1.363 . S
C342 N344 1.375 . S
C342 H360 0.931 . S
C343 N340 1.311 . S
C343 N344 1.347 . S
C343 H354 0.929 . S
N344 C342 1.375 . S
N344 C343 1.347 . S
C345 C348 1.365 . S
C345 N350 1.328 . S
C345 H351 0.929 . S
C346 C347 1.372 . S
C346 C349 1.378 . S
C346 H361 0.929 . S
C347 C346 1.372 . S
C347 C348 1.373 . S
C348 C345 1.365 . S
C348 C347 1.373 . S
C348 H362 0.930 . S
C349 C346 1.378 . S
C349 N350 1.315 . S
C349 H352 0.930 . S
N350 Co330 2.194 . S
N350 C345 1.328 . S
N350 C349 1.315 . S
H351 C345 0.929 . S
H352 C349 0.930 . S
H353 C341 0.929 . S
H354 C343 0.929 . S
O355 Co330 2.351 . S
O355 C358 1.244 . S
O356 Co330 2.155 . S
O356 C358 1.240 . S
O357 Co330 2.096 . S
O357 C338 1.247 . S
C358 O355 1.244 . S
C358 O356 1.240 . S
H359 C333 0.931 . S
H360 C342 0.931 . S
H361 C346 0.929 . S
H362 C348 0.930 . S
Co363 N367 2.148 . S
Co363 N373 2.128 . S
Co363 N383 2.194 . S
Co363 O388 2.351 . S
Co363 O389 2.155 . S
Co363 O390 2.096 . S
C364 N367 1.301 . S
C364 N368 1.328 . S
C364 H369 0.930 . S
C365 C366 1.333 . S
C365 N367 1.317 . S
C365 H370 0.930 . S
C366 C365 1.333 . S
C366 N368 1.350 . S
C366 H392 0.931 . S
N367 Co363 2.148 . S
N367 C364 1.301 . S
N367 C365 1.317 . S
N368 C364 1.328 . S
N368 C366 1.350 . S
H369 C364 0.930 . S
H370 C365 0.930 . S
C371 O372 1.224 . S
C371 O390 1.247 . S
O372 C371 1.224 . S
N373 Co363 2.128 . S
N373 C374 1.355 . S
N373 C376 1.311 . S
C374 N373 1.355 . S
C374 C375 1.363 . S
C374 H386 0.929 . S
C375 C374 1.363 . S
C375 N377 1.375 . S
C375 H393 0.931 . S
C376 N373 1.311 . S
C376 N377 1.347 . S
C376 H387 0.929 . S
N377 C375 1.375 . S
N377 C376 1.347 . S
C378 C381 1.365 . S
C378 N383 1.328 . S
C378 H384 0.929 . S
C379 C380 1.372 . S
C379 C382 1.378 . S
C379 H394 0.929 . S
C380 C379 1.372 . S
C380 C381 1.373 . S
C381 C378 1.365 . S
C381 C380 1.373 . S
C381 H395 0.930 . S
C382 C379 1.378 . S
C382 N383 1.315 . S
C382 H385 0.930 . S
N383 Co363 2.194 . S
N383 C378 1.328 . S
N383 C382 1.315 . S
H384 C378 0.929 . S
H385 C382 0.930 . S
H386 C374 0.929 . S
H387 C376 0.929 . S
O388 Co363 2.351 . S
O388 C391 1.244 . S
O389 Co363 2.155 . S
O389 C391 1.240 . S
O390 Co363 2.096 . S
O390 C371 1.247 . S
C391 O388 1.244 . S
C391 O389 1.240 . S
H392 C366 0.931 . S
H393 C375 0.931 . S
H394 C379 0.929 . S
H395 C381 0.930 . S
Co396 N400 2.148 . S
Co396 N406 2.128 . S
Co396 N416 2.194 . S
Co396 O421 2.351 . S
Co396 O422 2.155 . S
Co396 O423 2.096 . S
C397 N400 1.301 . S
C397 N401 1.328 . S
C397 H402 0.930 . S
C398 C399 1.333 . S
C398 N400 1.317 . S
C398 H403 0.930 . S
C399 C398 1.333 . S
C399 N401 1.350 . S
C399 H425 0.931 . S
N400 Co396 2.148 . S
N400 C397 1.301 . S
N400 C398 1.317 . S
N401 C397 1.328 . S
N401 C399 1.350 . S
H402 C397 0.930 . S
H403 C398 0.930 . S
C404 O405 1.224 . S
C404 O423 1.247 . S
O405 C404 1.224 . S
N406 Co396 2.128 . S
N406 C407 1.355 . S
N406 C409 1.311 . S
C407 N406 1.355 . S
C407 C408 1.363 . S
C407 H419 0.929 . S
C408 C407 1.363 . S
C408 N410 1.375 . S
C408 H426 0.931 . S
C409 N406 1.311 . S
C409 N410 1.347 . S
C409 H420 0.929 . S
N410 C408 1.375 . S
N410 C409 1.347 . S
C411 C414 1.365 . S
C411 N416 1.328 . S
C411 H417 0.929 . S
C412 C413 1.362 . S
C412 C415 1.378 . S
C412 H427 0.929 . S
C413 C412 1.362 . S
C413 C414 1.366 . S
C414 C411 1.365 . S
C414 C413 1.366 . S
C414 H428 0.930 . S
C415 C412 1.378 . S
C415 N416 1.315 . S
C415 H418 0.930 . S
N416 Co396 2.194 . S
N416 C411 1.328 . S
N416 C415 1.315 . S
H417 C411 0.929 . S
H418 C415 0.930 . S
H419 C407 0.929 . S
H420 C409 0.929 . S
O421 Co396 2.351 . S
O421 C424 1.244 . S
O422 Co396 2.155 . S
O422 C424 1.240 . S
O423 Co396 2.096 . S
O423 C404 1.247 . S
C424 O421 1.244 . S
C424 O422 1.240 . S
H425 C399 0.931 . S
H426 C408 0.931 . S
H427 C412 0.929 . S
H428 C414 0.930 . S
Co429 N433 2.148 . S
Co429 N439 2.128 . S
Co429 N449 2.194 . S
Co429 O454 2.351 . S
Co429 O455 2.155 . S
Co429 O456 2.096 . S
C430 N433 1.301 . S
C430 N434 1.328 . S
C430 H435 0.930 . S
C431 C432 1.333 . S
C431 N433 1.317 . S
C431 H436 0.930 . S
C432 C431 1.333 . S
C432 N434 1.350 . S
C432 H458 0.931 . S
N433 Co429 2.148 . S
N433 C430 1.301 . S
N433 C431 1.317 . S
N434 C430 1.328 . S
N434 C432 1.350 . S
H435 C430 0.930 . S
H436 C431 0.930 . S
C437 O438 1.224 . S
C437 O456 1.247 . S
O438 C437 1.224 . S
N439 Co429 2.128 . S
N439 C440 1.355 . S
N439 C442 1.311 . S
C440 N439 1.355 . S
C440 C441 1.363 . S
C440 H452 0.929 . S
C441 C440 1.363 . S
C441 N443 1.375 . S
C441 H459 0.931 . S
C442 N439 1.311 . S
C442 N443 1.347 . S
C442 H453 0.929 . S
N443 C441 1.375 . S
N443 C442 1.347 . S
C444 C447 1.365 . S
C444 N449 1.328 . S
C444 H450 0.929 . S
C445 C446 1.362 . S
C445 C448 1.378 . S
C445 H460 0.929 . S
C446 C445 1.362 . S
C446 C447 1.366 . S
C447 C444 1.365 . S
C447 C446 1.366 . S
C447 H461 0.930 . S
C448 C445 1.378 . S
C448 N449 1.315 . S
C448 H451 0.930 . S
N449 Co429 2.194 . S
N449 C444 1.328 . S
N449 C448 1.315 . S
H450 C444 0.929 . S
H451 C448 0.930 . S
H452 C440 0.929 . S
H453 C442 0.929 . S
O454 Co429 2.351 . S
O454 C457 1.244 . S
O455 Co429 2.155 . S
O455 C457 1.240 . S
O456 Co429 2.096 . S
O456 C437 1.247 . S
C457 O454 1.244 . S
C457 O455 1.240 . S
H458 C432 0.931 . S
H459 C441 0.931 . S
H460 C445 0.929 . S
H461 C447 0.930 . S
Co462 N466 2.148 . S
Co462 N472 2.128 . S
Co462 N482 2.194 . S
Co462 O487 2.351 . S
Co462 O488 2.155 . S
Co462 O489 2.096 . S
C463 N466 1.301 . S
C463 N467 1.328 . S
C463 H468 0.930 . S
C464 C465 1.333 . S
C464 N466 1.317 . S
C464 H469 0.930 . S
C465 C464 1.333 . S
C465 N467 1.350 . S
C465 H491 0.931 . S
N466 Co462 2.148 . S
N466 C463 1.301 . S
N466 C464 1.317 . S
N467 C463 1.328 . S
N467 C465 1.350 . S
H468 C463 0.930 . S
H469 C464 0.930 . S
C470 O471 1.224 . S
C470 O489 1.247 . S
O471 C470 1.224 . S
N472 Co462 2.128 . S
N472 C473 1.355 . S
N472 C475 1.311 . S
C473 N472 1.355 . S
C473 C474 1.363 . S
C473 H485 0.929 . S
C474 C473 1.363 . S
C474 N476 1.375 . S
C474 H492 0.931 . S
C475 N472 1.311 . S
C475 N476 1.347 . S
C475 H486 0.929 . S
N476 C474 1.375 . S
N476 C475 1.347 . S
C477 C480 1.365 . S
C477 N482 1.328 . S
C477 H483 0.929 . S
C478 C479 1.362 . S
C478 C481 1.378 . S
C478 H493 0.929 . S
C479 C478 1.362 . S
C479 C480 1.366 . S
C480 C477 1.365 . S
C480 C479 1.366 . S
C480 H494 0.930 . S
C481 C478 1.378 . S
C481 N482 1.315 . S
C481 H484 0.930 . S
N482 Co462 2.194 . S
N482 C477 1.328 . S
N482 C481 1.315 . S
H483 C477 0.929 . S
H484 C481 0.930 . S
H485 C473 0.929 . S
H486 C475 0.929 . S
O487 Co462 2.351 . S
O487 C490 1.244 . S
O488 Co462 2.155 . S
O488 C490 1.240 . S
O489 Co462 2.096 . S
O489 C470 1.247 . S
C490 O487 1.244 . S
C490 O488 1.240 . S
H491 C465 0.931 . S
H492 C474 0.931 . S
H493 C478 0.929 . S
H494 C480 0.930 . S
Co495 N499 2.148 . S
Co495 N505 2.128 . S
Co495 N515 2.194 . S
Co495 O520 2.351 . S
Co495 O521 2.155 . S
Co495 O522 2.096 . S
C496 N499 1.301 . S
C496 N500 1.328 . S
C496 H501 0.930 . S
C497 C498 1.333 . S
C497 N499 1.317 . S
C497 H502 0.930 . S
C498 C497 1.333 . S
C498 N500 1.350 . S
C498 H524 0.931 . S
N499 Co495 2.148 . S
N499 C496 1.301 . S
N499 C497 1.317 . S
N500 C496 1.328 . S
N500 C498 1.350 . S
H501 C496 0.930 . S
H502 C497 0.930 . S
C503 O504 1.224 . S
C503 O522 1.247 . S
O504 C503 1.224 . S
N505 Co495 2.128 . S
N505 C506 1.355 . S
N505 C508 1.311 . S
C506 N505 1.355 . S
C506 C507 1.363 . S
C506 H518 0.929 . S
C507 C506 1.363 . S
C507 N509 1.375 . S
C507 H525 0.931 . S
C508 N505 1.311 . S
C508 N509 1.347 . S
C508 H519 0.929 . S
N509 C507 1.375 . S
N509 C508 1.347 . S
C510 C513 1.365 . S
C510 N515 1.328 . S
C510 H516 0.929 . S
C511 C512 1.362 . S
C511 C514 1.378 . S
C511 H526 0.929 . S
C512 C511 1.362 . S
C512 C513 1.366 . S
C513 C510 1.365 . S
C513 C512 1.366 . S
C513 H527 0.930 . S
C514 C511 1.378 . S
C514 N515 1.315 . S
C514 H517 0.930 . S
N515 Co495 2.194 . S
N515 C510 1.328 . S
N515 C514 1.315 . S
H516 C510 0.929 . S
H517 C514 0.930 . S
H518 C506 0.929 . S
H519 C508 0.929 . S
O520 Co495 2.351 . S
O520 C523 1.244 . S
O521 Co495 2.155 . S
O521 C523 1.240 . S
O522 Co495 2.096 . S
O522 C503 1.247 . S
C523 O520 1.244 . S
C523 O521 1.240 . S
H524 C498 0.931 . S
H525 C507 0.931 . S
H526 C511 0.929 . S
H527 C513 0.930 . S
C528 C529 1.349 . S
C528 C530 1.327 . S
C528 H553 0.950 . S
C529 C528 1.349 . S
C529 C545 1.349 . S
C530 C528 1.327 . S
C530 C549 1.429 . S
C530 H554 0.950 . S
C531 C548 1.574 1_556 S
C531 C550 1.368 . S
C531 H555 0.949 . S
H532 C536 0.949 . S
C533 C534 1.349 . S
C533 C535 1.327 . S
C533 H556 0.950 . S
C534 C533 1.349 . S
C534 C546 1.349 . S
C535 C533 1.327 . S
C535 C551 1.429 . S
C535 H557 0.950 . S
C536 H532 0.949 . S
C536 C544 1.574 1_554 S
C536 C552 1.368 . S
H537 C545 0.950 . S
H538 C543 0.950 . S
H539 C544 0.949 . S
H540 C546 0.950 . S
H541 C547 0.950 . S
H542 C548 0.949 . S
C543 H538 0.950 . S
C543 C545 1.327 . S
C543 C549 1.429 . S
C544 C536 1.574 1_556 S
C544 H539 0.949 . S
C544 C550 1.368 . S
C545 C529 1.349 . S
C545 H537 0.950 . S
C545 C543 1.327 . S
C546 C534 1.349 . S
C546 H540 0.950 . S
C546 C547 1.327 . S
C547 H541 0.950 . S
C547 C546 1.327 . S
C547 C551 1.429 . S
C548 C531 1.574 1_554 S
C548 H542 0.949 . S
C548 C552 1.368 . S
C549 C530 1.429 . S
C549 C543 1.429 . S
C549 C550 1.523 . S
C550 C531 1.368 . S
C550 C544 1.368 . S
C550 C549 1.523 . S
C551 C535 1.429 . S
C551 C547 1.429 . S
C551 C552 1.523 . S
C552 C536 1.368 . S
C552 C548 1.368 . S
C552 C551 1.523 . S
H553 C528 0.950 . S
H554 C530 0.950 . S
H555 C531 0.949 . S
H556 C533 0.950 . S
H557 C535 0.950 . S
C558 C559 1.349 . S
C558 C560 1.327 . S
C558 H583 0.950 . S
C559 C558 1.349 . S
C559 C575 1.349 . S
C560 C558 1.327 . S
C560 C579 1.429 . S
C560 H584 0.950 . S
C561 C578 1.574 1_556 S
C561 C580 1.368 . S
C561 H585 0.949 . S
H562 C566 0.949 . S
C563 C564 1.349 . S
C563 C565 1.327 . S
C563 H586 0.950 . S
C564 C563 1.349 . S
C564 C576 1.349 . S
C565 C563 1.327 . S
C565 C581 1.429 . S
C565 H587 0.950 . S
C566 H562 0.949 . S
C566 C574 1.574 1_554 S
C566 C582 1.368 . S
H567 C575 0.950 . S
H568 C573 0.950 . S
H569 C574 0.949 . S
H570 C576 0.950 . S
H571 C577 0.950 . S
H572 C578 0.949 . S
C573 H568 0.950 . S
C573 C575 1.327 . S
C573 C579 1.429 . S
C574 C566 1.574 1_556 S
C574 H569 0.949 . S
C574 C580 1.368 . S
C575 C559 1.349 . S
C575 H567 0.950 . S
C575 C573 1.327 . S
C576 C564 1.349 . S
C576 H570 0.950 . S
C576 C577 1.327 . S
C577 H571 0.950 . S
C577 C576 1.327 . S
C577 C581 1.429 . S
C578 C561 1.574 1_554 S
C578 H572 0.949 . S
C578 C582 1.368 . S
C579 C560 1.429 . S
C579 C573 1.429 . S
C579 C580 1.523 . S
C580 C561 1.368 . S
C580 C574 1.368 . S
C580 C579 1.523 . S
C581 C565 1.429 . S
C581 C577 1.429 . S
C581 C582 1.523 . S
C582 C566 1.368 . S
C582 C578 1.368 . S
C582 C581 1.523 . S
H583 C558 0.950 . S
H584 C560 0.950 . S
H585 C561 0.949 . S
H586 C563 0.950 . S
H587 C565 0.950 . S
C588 C589 1.349 . S
C588 C590 1.327 . S
C588 H613 0.950 . S
C589 C588 1.349 . S
C589 C605 1.349 . S
C590 C588 1.327 . S
C590 C609 1.429 . S
C590 H614 0.950 . S
C591 C608 1.574 1_556 S
C591 C610 1.368 . S
C591 H615 0.949 . S
H592 C596 0.949 . S
C593 C594 1.349 . S
C593 C595 1.327 . S
C593 H616 0.950 . S
C594 C593 1.349 . S
C594 C606 1.349 . S
C595 C593 1.327 . S
C595 C611 1.429 . S
C595 H617 0.950 . S
C596 H592 0.949 . S
C596 C604 1.574 1_554 S
C596 C612 1.368 . S
H597 C605 0.950 . S
H598 C603 0.950 . S
H599 C604 0.949 . S
H600 C606 0.950 . S
H601 C607 0.950 . S
H602 C608 0.949 . S
C603 H598 0.950 . S
C603 C605 1.327 . S
C603 C609 1.429 . S
C604 C596 1.574 1_556 S
C604 H599 0.949 . S
C604 C610 1.368 . S
C605 C589 1.349 . S
C605 H597 0.950 . S
C605 C603 1.327 . S
C606 C594 1.349 . S
C606 H600 0.950 . S
C606 C607 1.327 . S
C607 H601 0.950 . S
C607 C606 1.327 . S
C607 C611 1.429 . S
C608 C591 1.574 1_554 S
C608 H602 0.949 . S
C608 C612 1.368 . S
C609 C590 1.429 . S
C609 C603 1.429 . S
C609 C610 1.523 . S
C610 C591 1.368 . S
C610 C604 1.368 . S
C610 C609 1.523 . S
C611 C595 1.429 . S
C611 C607 1.429 . S
C611 C612 1.523 . S
C612 C596 1.368 . S
C612 C608 1.368 . S
C612 C611 1.523 . S
H613 C588 0.950 . S
H614 C590 0.950 . S
H615 C591 0.949 . S
H616 C593 0.950 . S
H617 C595 0.950 . S
C618 C619 1.349 . S
C618 C620 1.327 . S
C618 H643 0.950 . S
C619 C618 1.349 . S
C619 C635 1.349 . S
C620 C618 1.327 . S
C620 C639 1.429 . S
C620 H644 0.950 . S
C621 C638 1.574 1_556 S
C621 C640 1.368 . S
C621 H645 0.949 . S
H622 C626 0.949 . S
C623 C624 1.349 . S
C623 C625 1.327 . S
C623 H646 0.950 . S
C624 C623 1.349 . S
C624 C636 1.349 . S
C625 C623 1.327 . S
C625 C641 1.429 . S
C625 H647 0.950 . S
C626 H622 0.949 . S
C626 C634 1.574 1_554 S
C626 C642 1.368 . S
H627 C635 0.950 . S
H628 C633 0.950 . S
H629 C634 0.949 . S
H630 C636 0.950 . S
H631 C637 0.950 . S
H632 C638 0.949 . S
C633 H628 0.950 . S
C633 C635 1.327 . S
C633 C639 1.429 . S
C634 C626 1.574 1_556 S
C634 H629 0.949 . S
C634 C640 1.368 . S
C635 C619 1.349 . S
C635 H627 0.950 . S
C635 C633 1.327 . S
C636 C624 1.349 . S
C636 H630 0.950 . S
C636 C637 1.327 . S
C637 H631 0.950 . S
C637 C636 1.327 . S
C637 C641 1.429 . S
C638 C621 1.574 1_554 S
C638 H632 0.949 . S
C638 C642 1.368 . S
C639 C620 1.429 . S
C639 C633 1.429 . S
C639 C640 1.523 . S
C640 C621 1.368 . S
C640 C634 1.368 . S
C640 C639 1.523 . S
C641 C625 1.429 . S
C641 C637 1.429 . S
C641 C642 1.523 . S
C642 C626 1.368 . S
C642 C638 1.368 . S
C642 C641 1.523 . S
H643 C618 0.950 . S
H644 C620 0.950 . S
H645 C621 0.949 . S
H646 C623 0.950 . S
H647 C625 0.950 . S
C648 C649 1.349 . S
C648 C650 1.327 . S
C648 H673 0.950 . S
C649 C648 1.349 . S
C649 C665 1.349 . S
C650 C648 1.327 . S
C650 C669 1.429 . S
C650 H674 0.950 . S
C651 C668 1.574 . S
C651 C670 1.368 . S
C651 H675 0.949 . S
H652 C656 0.949 . S
C653 C654 1.349 . S
C653 C655 1.327 . S
C653 H676 0.950 . S
C654 C653 1.349 . S
C654 C666 1.349 . S
C655 C653 1.327 . S
C655 C671 1.429 . S
C655 H677 0.950 . S
C656 H652 0.949 . S
C656 C664 1.574 . S
C656 C672 1.368 . S
H657 C665 0.950 . S
H658 C663 0.950 . S
H659 C664 0.949 . S
H660 C666 0.950 . S
H661 C667 0.950 . S
H662 C668 0.949 . S
C663 H658 0.950 . S
C663 C665 1.327 . S
C663 C669 1.429 . S
C664 C656 1.574 . S
C664 H659 0.949 . S
C664 C670 1.368 . S
C665 C649 1.349 . S
C665 H657 0.950 . S
C665 C663 1.327 . S
C666 C654 1.349 . S
C666 H660 0.950 . S
C666 C667 1.327 . S
C667 H661 0.950 . S
C667 C666 1.327 . S
C667 C671 1.429 . S
C668 C651 1.574 . S
C668 H662 0.949 . S
C668 C672 1.368 . S
C669 C650 1.429 . S
C669 C663 1.429 . S
C669 C670 1.523 . S
C670 C651 1.368 . S
C670 C664 1.368 . S
C670 C669 1.523 . S
C671 C655 1.429 . S
C671 C667 1.429 . S
C671 C672 1.523 . S
C672 C656 1.368 . S
C672 C668 1.368 . S
C672 C671 1.523 . S
H673 C648 0.950 . S
H674 C650 0.950 . S
H675 C651 0.949 . S
H676 C653 0.950 . S
H677 C655 0.950 . S
C678 C679 1.349 . S
C678 C680 1.327 . S
C678 H703 0.950 . S
C679 C678 1.349 . S
C679 C695 1.349 . S
C680 C678 1.327 . S
C680 C699 1.429 . S
C680 H704 0.950 . S
C681 C698 1.574 . S
C681 C700 1.368 . S
C681 H705 0.949 . S
H682 C686 0.949 . S
C683 C684 1.349 . S
C683 C685 1.327 . S
C683 H706 0.950 . S
C684 C683 1.349 . S
C684 C696 1.349 . S
C685 C683 1.327 . S
C685 C701 1.429 . S
C685 H707 0.950 . S
C686 H682 0.949 . S
C686 C694 1.574 . S
C686 C702 1.368 . S
H687 C695 0.950 . S
H688 C693 0.950 . S
H689 C694 0.949 . S
H690 C696 0.950 . S
H691 C697 0.950 . S
H692 C698 0.949 . S
C693 H688 0.950 . S
C693 C695 1.327 . S
C693 C699 1.429 . S
C694 C686 1.574 . S
C694 H689 0.949 . S
C694 C700 1.368 . S
C695 C679 1.349 . S
C695 H687 0.950 . S
C695 C693 1.327 . S
C696 C684 1.349 . S
C696 H690 0.950 . S
C696 C697 1.327 . S
C697 H691 0.950 . S
C697 C696 1.327 . S
C697 C701 1.429 . S
C698 C681 1.574 . S
C698 H692 0.949 . S
C698 C702 1.368 . S
C699 C680 1.429 . S
C699 C693 1.429 . S
C699 C700 1.523 . S
C700 C681 1.368 . S
C700 C694 1.368 . S
C700 C699 1.523 . S
C701 C685 1.429 . S
C701 C697 1.429 . S
C701 C702 1.523 . S
C702 C686 1.368 . S
C702 C698 1.368 . S
C702 C701 1.523 . S
H703 C678 0.950 . S
H704 C680 0.950 . S
H705 C681 0.949 . S
H706 C683 0.950 . S
H707 C685 0.950 . S
C708 C709 1.349 . S
C708 C710 1.327 . S
C708 H733 0.950 . S
C709 C708 1.349 . S
C709 C725 1.349 . S
C710 C708 1.327 . S
C710 C729 1.429 . S
C710 H734 0.950 . S
C711 C728 1.574 . S
C711 C730 1.368 . S
C711 H735 0.949 . S
H712 C716 0.949 . S
C713 C714 1.349 . S
C713 C715 1.327 . S
C713 H736 0.950 . S
C714 C713 1.349 . S
C714 C726 1.349 . S
C715 C713 1.327 . S
C715 C731 1.429 . S
C715 H737 0.950 . S
C716 H712 0.949 . S
C716 C724 1.574 . S
C716 C732 1.368 . S
H717 C725 0.950 . S
H718 C723 0.950 . S
H719 C724 0.949 . S
H720 C726 0.950 . S
H721 C727 0.950 . S
H722 C728 0.949 . S
C723 H718 0.950 . S
C723 C725 1.327 . S
C723 C729 1.429 . S
C724 C716 1.574 . S
C724 H719 0.949 . S
C724 C730 1.368 . S
C725 C709 1.349 . S
C725 H717 0.950 . S
C725 C723 1.327 . S
C726 C714 1.349 . S
C726 H720 0.950 . S
C726 C727 1.327 . S
C727 H721 0.950 . S
C727 C726 1.327 . S
C727 C731 1.429 . S
C728 C711 1.574 . S
C728 H722 0.949 . S
C728 C732 1.368 . S
C729 C710 1.429 . S
C729 C723 1.429 . S
C729 C730 1.523 . S
C730 C711 1.368 . S
C730 C724 1.368 . S
C730 C729 1.523 . S
C731 C715 1.429 . S
C731 C727 1.429 . S
C731 C732 1.523 . S
C732 C716 1.368 . S
C732 C728 1.368 . S
C732 C731 1.523 . S
H733 C708 0.950 . S
H734 C710 0.950 . S
H735 C711 0.949 . S
H736 C713 0.950 . S
H737 C715 0.950 . S
C738 C739 1.349 . S
C738 C740 1.327 . S
C738 H763 0.950 . S
C739 C738 1.349 . S
C739 C755 1.349 . S
C740 C738 1.327 . S
C740 C759 1.429 . S
C740 H764 0.950 . S
C741 C758 1.574 . S
C741 C760 1.368 . S
C741 H765 0.949 . S
H742 C746 0.949 . S
C743 C744 1.349 . S
C743 C745 1.327 . S
C743 H766 0.950 . S
C744 C743 1.349 . S
C744 C756 1.349 . S
C745 C743 1.327 . S
C745 C761 1.429 . S
C745 H767 0.950 . S
C746 H742 0.949 . S
C746 C754 1.574 . S
C746 C762 1.368 . S
H747 C755 0.950 . S
H748 C753 0.950 . S
H749 C754 0.949 . S
H750 C756 0.950 . S
H751 C757 0.950 . S
H752 C758 0.949 . S
C753 H748 0.950 . S
C753 C755 1.327 . S
C753 C759 1.429 . S
C754 C746 1.574 . S
C754 H749 0.949 . S
C754 C760 1.368 . S
C755 C739 1.349 . S
C755 H747 0.950 . S
C755 C753 1.327 . S
C756 C744 1.349 . S
C756 H750 0.950 . S
C756 C757 1.327 . S
C757 H751 0.950 . S
C757 C756 1.327 . S
C757 C761 1.429 . S
C758 C741 1.574 . S
C758 H752 0.949 . S
C758 C762 1.368 . S
C759 C740 1.429 . S
C759 C753 1.429 . S
C759 C760 1.523 . S
C760 C741 1.368 . S
C760 C754 1.368 . S
C760 C759 1.523 . S
C761 C745 1.429 . S
C761 C757 1.429 . S
C761 C762 1.523 . S
C762 C746 1.368 . S
C762 C758 1.368 . S
C762 C761 1.523 . S
H763 C738 0.950 . S
H764 C740 0.950 . S
H765 C741 0.949 . S
H766 C743 0.950 . S
H767 C745 0.950 . S
C768 C769 1.349 . S
C768 C770 1.327 . S
C768 H793 0.950 . S
C769 C768 1.349 . S
C769 C785 1.349 . S
C770 C768 1.327 . S
C770 C789 1.429 . S
C770 H794 0.950 . S
C771 C788 1.574 . S
C771 C790 1.368 . S
C771 H795 0.949 . S
H772 C776 0.949 . S
C773 C774 1.349 . S
C773 C775 1.327 . S
C773 H796 0.950 . S
C774 C773 1.349 . S
C774 C786 1.349 . S
C775 C773 1.327 . S
C775 C791 1.429 . S
C775 H797 0.950 . S
C776 H772 0.949 . S
C776 C784 1.574 . S
C776 C792 1.368 . S
H777 C785 0.950 . S
H778 C783 0.950 . S
H779 C784 0.949 . S
H780 C786 0.950 . S
H781 C787 0.950 . S
H782 C788 0.949 . S
C783 H778 0.950 . S
C783 C785 1.327 . S
C783 C789 1.429 . S
C784 C776 1.574 . S
C784 H779 0.949 . S
C784 C790 1.368 . S
C785 C769 1.349 . S
C785 H777 0.950 . S
C785 C783 1.327 . S
C786 C774 1.349 . S
C786 H780 0.950 . S
C786 C787 1.327 . S
C787 H781 0.950 . S
C787 C786 1.327 . S
C787 C791 1.429 . S
C788 C771 1.574 . S
C788 H782 0.949 . S
C788 C792 1.368 . S
C789 C770 1.429 . S
C789 C783 1.429 . S
C789 C790 1.523 . S
C790 C771 1.368 . S
C790 C784 1.368 . S
C790 C789 1.523 . S
C791 C775 1.429 . S
C791 C787 1.429 . S
C791 C792 1.523 . S
C792 C776 1.368 . S
C792 C788 1.368 . S
C792 C791 1.523 . S
H793 C768 0.950 . S
H794 C770 0.950 . S
H795 C771 0.949 . S
H796 C773 0.950 . S
H797 C775 0.950 . S
C798 C799 1.349 . S
C798 C800 1.327 . S
C798 H823 0.950 . S
C799 C798 1.349 . S
C799 C815 1.349 . S
C800 C798 1.327 . S
C800 C819 1.429 . S
C800 H824 0.950 . S
C801 C818 1.574 . S
C801 C820 1.368 . S
C801 H825 0.949 . S
H802 C806 0.949 . S
C803 C804 1.349 . S
C803 C805 1.327 . S
C803 H826 0.950 . S
C804 C803 1.349 . S
C804 C816 1.349 . S
C805 C803 1.327 . S
C805 C821 1.429 . S
C805 H827 0.950 . S
C806 H802 0.949 . S
C806 C814 1.574 . S
C806 C822 1.368 . S
H807 C815 0.950 . S
H808 C813 0.950 . S
H809 C814 0.949 . S
H810 C816 0.950 . S
H811 C817 0.950 . S
H812 C818 0.949 . S
C813 H808 0.950 . S
C813 C815 1.327 . S
C813 C819 1.429 . S
C814 C806 1.574 . S
C814 H809 0.949 . S
C814 C820 1.368 . S
C815 C799 1.349 . S
C815 H807 0.950 . S
C815 C813 1.327 . S
C816 C804 1.349 . S
C816 H810 0.950 . S
C816 C817 1.327 . S
C817 H811 0.950 . S
C817 C816 1.327 . S
C817 C821 1.429 . S
C818 C801 1.574 . S
C818 H812 0.949 . S
C818 C822 1.368 . S
C819 C800 1.429 . S
C819 C813 1.429 . S
C819 C820 1.523 . S
C820 C801 1.368 . S
C820 C814 1.368 . S
C820 C819 1.523 . S
C821 C805 1.429 . S
C821 C817 1.429 . S
C821 C822 1.523 . S
C822 C806 1.368 . S
C822 C818 1.368 . S
C822 C821 1.523 . S
H823 C798 0.950 . S
H824 C800 0.950 . S
H825 C801 0.949 . S
H826 C803 0.950 . S
H827 C805 0.950 . S
C828 C829 1.349 . S
C828 C830 1.327 . S
C828 H853 0.950 . S
C829 C828 1.349 . S
C829 C845 1.349 . S
C830 C828 1.327 . S
C830 C849 1.429 . S
C830 H854 0.950 . S
C831 C848 1.574 . S
C831 C850 1.368 . S
C831 H855 0.949 . S
H832 C836 0.949 . S
C833 C834 1.349 . S
C833 C835 1.327 . S
C833 H856 0.950 . S
C834 C833 1.349 . S
C834 C846 1.349 . S
C835 C833 1.327 . S
C835 C851 1.429 . S
C835 H857 0.950 . S
C836 H832 0.949 . S
C836 C844 1.574 . S
C836 C852 1.368 . S
H837 C845 0.950 . S
H838 C843 0.950 . S
H839 C844 0.949 . S
H840 C846 0.950 . S
H841 C847 0.950 . S
H842 C848 0.949 . S
C843 H838 0.950 . S
C843 C845 1.327 . S
C843 C849 1.429 . S
C844 C836 1.574 . S
C844 H839 0.949 . S
C844 C850 1.368 . S
C845 C829 1.349 . S
C845 H837 0.950 . S
C845 C843 1.327 . S
C846 C834 1.349 . S
C846 H840 0.950 . S
C846 C847 1.327 . S
C847 H841 0.950 . S
C847 C846 1.327 . S
C847 C851 1.429 . S
C848 C831 1.574 . S
C848 H842 0.949 . S
C848 C852 1.368 . S
C849 C830 1.429 . S
C849 C843 1.429 . S
C849 C850 1.523 . S
C850 C831 1.368 . S
C850 C844 1.368 . S
C850 C849 1.523 . S
C851 C835 1.429 . S
C851 C847 1.429 . S
C851 C852 1.523 . S
C852 C836 1.368 . S
C852 C848 1.368 . S
C852 C851 1.523 . S
H853 C828 0.950 . S
H854 C830 0.950 . S
H855 C831 0.949 . S
H856 C833 0.950 . S
H857 C835 0.950 . S
C858 C859 1.349 . S
C858 C860 1.327 . S
C858 H883 0.950 . S
C859 C858 1.349 . S
C859 C875 1.349 . S
C860 C858 1.327 . S
C860 C879 1.429 . S
C860 H884 0.950 . S
C861 C878 1.574 . S
C861 C880 1.368 . S
C861 H885 0.949 . S
H862 C866 0.949 . S
C863 C864 1.349 . S
C863 C865 1.327 . S
C863 H886 0.950 . S
C864 C863 1.349 . S
C864 C876 1.349 . S
C865 C863 1.327 . S
C865 C881 1.429 . S
C865 H887 0.950 . S
C866 H862 0.949 . S
C866 C874 1.574 . S
C866 C882 1.368 . S
H867 C875 0.950 . S
H868 C873 0.950 . S
H869 C874 0.949 . S
H870 C876 0.950 . S
H871 C877 0.950 . S
H872 C878 0.949 . S
C873 H868 0.950 . S
C873 C875 1.327 . S
C873 C879 1.429 . S
C874 C866 1.574 . S
C874 H869 0.949 . S
C874 C880 1.368 . S
C875 C859 1.349 . S
C875 H867 0.950 . S
C875 C873 1.327 . S
C876 C864 1.349 . S
C876 H870 0.950 . S
C876 C877 1.327 . S
C877 H871 0.950 . S
C877 C876 1.327 . S
C877 C881 1.429 . S
C878 C861 1.574 . S
C878 H872 0.949 . S
C878 C882 1.368 . S
C879 C860 1.429 . S
C879 C873 1.429 . S
C879 C880 1.523 . S
C880 C861 1.368 . S
C880 C874 1.368 . S
C880 C879 1.523 . S
C881 C865 1.429 . S
C881 C877 1.429 . S
C881 C882 1.523 . S
C882 C866 1.368 . S
C882 C878 1.368 . S
C882 C881 1.523 . S
H883 C858 0.950 . S
H884 C860 0.950 . S
H885 C861 0.949 . S
H886 C863 0.950 . S
H887 C865 0.950 . S
C888 C889 1.349 . S
C888 C890 1.327 . S
C888 H913 0.950 . S
C889 C888 1.349 . S
C889 C905 1.349 . S
C890 C888 1.327 . S
C890 C909 1.429 . S
C890 H914 0.950 . S
C891 C908 1.574 . S
C891 C910 1.368 . S
C891 H915 0.949 . S
H892 C896 0.949 . S
C893 C894 1.349 . S
C893 C895 1.327 . S
C893 H916 0.950 . S
C894 C893 1.349 . S
C894 C906 1.349 . S
C895 C893 1.327 . S
C895 C911 1.429 . S
C895 H917 0.950 . S
C896 H892 0.949 . S
C896 C904 1.574 . S
C896 C912 1.368 . S
H897 C905 0.950 . S
H898 C903 0.950 . S
H899 C904 0.949 . S
H900 C906 0.950 . S
H901 C907 0.950 . S
H902 C908 0.949 . S
C903 H898 0.950 . S
C903 C905 1.327 . S
C903 C909 1.429 . S
C904 C896 1.574 . S
C904 H899 0.949 . S
C904 C910 1.368 . S
C905 C889 1.349 . S
C905 H897 0.950 . S
C905 C903 1.327 . S
C906 C894 1.349 . S
C906 H900 0.950 . S
C906 C907 1.327 . S
C907 H901 0.950 . S
C907 C906 1.327 . S
C907 C911 1.429 . S
C908 C891 1.574 . S
C908 H902 0.949 . S
C908 C912 1.368 . S
C909 C890 1.429 . S
C909 C903 1.429 . S
C909 C910 1.523 . S
C910 C891 1.368 . S
C910 C904 1.368 . S
C910 C909 1.523 . S
C911 C895 1.429 . S
C911 C907 1.429 . S
C911 C912 1.523 . S
C912 C896 1.368 . S
C912 C908 1.368 . S
C912 C911 1.523 . S
H913 C888 0.950 . S
H914 C890 0.950 . S
H915 C891 0.949 . S
H916 C893 0.950 . S
H917 C895 0.950 . S
C918 C919 1.349 . S
C918 C920 1.327 . S
C918 H943 0.950 . S
C919 C918 1.349 . S
C919 C935 1.349 . S
C920 C918 1.327 . S
C920 C939 1.429 . S
C920 H944 0.950 . S
C921 C938 1.574 . S
C921 C940 1.368 . S
C921 H945 0.949 . S
H922 C926 0.949 . S
C923 C924 1.349 . S
C923 C925 1.327 . S
C923 H946 0.950 . S
C924 C923 1.349 . S
C924 C936 1.349 . S
C925 C923 1.327 . S
C925 C941 1.429 . S
C925 H947 0.950 . S
C926 H922 0.949 . S
C926 C934 1.574 . S
C926 C942 1.368 . S
H927 C935 0.950 . S
H928 C933 0.950 . S
H929 C934 0.949 . S
H930 C936 0.950 . S
H931 C937 0.950 . S
H932 C938 0.949 . S
C933 H928 0.950 . S
C933 C935 1.327 . S
C933 C939 1.429 . S
C934 C926 1.574 . S
C934 H929 0.949 . S
C934 C940 1.368 . S
C935 C919 1.349 . S
C935 H927 0.950 . S
C935 C933 1.327 . S
C936 C924 1.349 . S
C936 H930 0.950 . S
C936 C937 1.327 . S
C937 H931 0.950 . S
C937 C936 1.327 . S
C937 C941 1.429 . S
C938 C921 1.574 . S
C938 H932 0.949 . S
C938 C942 1.368 . S
C939 C920 1.429 . S
C939 C933 1.429 . S
C939 C940 1.523 . S
C940 C921 1.368 . S
C940 C934 1.368 . S
C940 C939 1.523 . S
C941 C925 1.429 . S
C941 C937 1.429 . S
C941 C942 1.523 . S
C942 C926 1.368 . S
C942 C938 1.368 . S
C942 C941 1.523 . S
H943 C918 0.950 . S
H944 C920 0.950 . S
H945 C921 0.949 . S
H946 C923 0.950 . S
H947 C925 0.950 . S
C948 C949 1.349 . S
C948 C950 1.327 . S
C948 H973 0.950 . S
C949 C948 1.349 . S
C949 C965 1.349 . S
C950 C948 1.327 . S
C950 C969 1.429 . S
C950 H974 0.950 . S
C951 C968 1.574 . S
C951 C970 1.368 . S
C951 H975 0.949 . S
H952 C956 0.949 . S
C953 C954 1.349 . S
C953 C955 1.327 . S
C953 H976 0.950 . S
C954 C953 1.349 . S
C954 C966 1.349 . S
C955 C953 1.327 . S
C955 C971 1.429 . S
C955 H977 0.950 . S
C956 H952 0.949 . S
C956 C964 1.574 . S
C956 C972 1.368 . S
H957 C965 0.950 . S
H958 C963 0.950 . S
H959 C964 0.949 . S
H960 C966 0.950 . S
H961 C967 0.950 . S
H962 C968 0.949 . S
C963 H958 0.950 . S
C963 C965 1.327 . S
C963 C969 1.429 . S
C964 C956 1.574 . S
C964 H959 0.949 . S
C964 C970 1.368 . S
C965 C949 1.349 . S
C965 H957 0.950 . S
C965 C963 1.327 . S
C966 C954 1.349 . S
C966 H960 0.950 . S
C966 C967 1.327 . S
C967 H961 0.950 . S
C967 C966 1.327 . S
C967 C971 1.429 . S
C968 C951 1.574 . S
C968 H962 0.949 . S
C968 C972 1.368 . S
C969 C950 1.429 . S
C969 C963 1.429 . S
C969 C970 1.523 . S
C970 C951 1.368 . S
C970 C964 1.368 . S
C970 C969 1.523 . S
C971 C955 1.429 . S
C971 C967 1.429 . S
C971 C972 1.523 . S
C972 C956 1.368 . S
C972 C968 1.368 . S
C972 C971 1.523 . S
H973 C948 0.950 . S
H974 C950 0.950 . S
H975 C951 0.949 . S
H976 C953 0.950 . S
H977 C955 0.950 . S
C978 C979 1.349 . S
C978 C980 1.327 . S
C978 H1003 0.950 . S
C979 C978 1.349 . S
C979 C995 1.349 . S
C980 C978 1.327 . S
C980 C999 1.429 . S
C980 H1004 0.950 . S
C981 C998 1.574 . S
C981 C1000 1.368 . S
C981 H1005 0.949 . S
H982 C986 0.949 . S
C983 C984 1.349 . S
C983 C985 1.327 . S
C983 H1006 0.950 . S
C984 C983 1.349 . S
C984 C996 1.349 . S
C985 C983 1.327 . S
C985 C1001 1.429 . S
C985 H1007 0.950 . S
C986 H982 0.949 . S
C986 C994 1.574 . S
C986 C1002 1.368 . S
H987 C995 0.950 . S
H988 C993 0.950 . S
H989 C994 0.949 . S
H990 C996 0.950 . S
H991 C997 0.950 . S
H992 C998 0.949 . S
C993 H988 0.950 . S
C993 C995 1.327 . S
C993 C999 1.429 . S
C994 C986 1.574 . S
C994 H989 0.949 . S
C994 C1000 1.368 . S
C995 C979 1.349 . S
C995 H987 0.950 . S
C995 C993 1.327 . S
C996 C984 1.349 . S
C996 H990 0.950 . S
C996 C997 1.327 . S
C997 H991 0.950 . S
C997 C996 1.327 . S
C997 C1001 1.429 . S
C998 C981 1.574 . S
C998 H992 0.949 . S
C998 C1002 1.368 . S
C999 C980 1.429 . S
C999 C993 1.429 . S
C999 C1000 1.523 . S
C1000 C981 1.368 . S
C1000 C994 1.368 . S
C1000 C999 1.523 . S
C1001 C985 1.429 . S
C1001 C997 1.429 . S
C1001 C1002 1.523 . S
C1002 C986 1.368 . S
C1002 C998 1.368 . S
C1002 C1001 1.523 . S
H1003 C978 0.950 . S
H1004 C980 0.950 . S
H1005 C981 0.949 . S
H1006 C983 0.950 . S
H1007 C985 0.950 . S
C1008 C1009 1.349 . S
C1008 C1010 1.327 . S
C1008 H1033 0.950 . S
C1009 C1008 1.349 . S
C1009 C1025 1.349 . S
C1010 C1008 1.327 . S
C1010 C1029 1.429 . S
C1010 H1034 0.950 . S
C1011 C1028 1.574 . S
C1011 C1030 1.368 . S
C1011 H1035 0.949 . S
H1012 C1016 0.949 . S
C1013 C1014 1.349 . S
C1013 C1015 1.327 . S
C1013 H1036 0.950 . S
C1014 C1013 1.349 . S
C1014 C1026 1.349 . S
C1015 C1013 1.327 . S
C1015 C1031 1.429 . S
C1015 H1037 0.950 . S
C1016 H1012 0.949 . S
C1016 C1024 1.574 . S
C1016 C1032 1.368 . S
H1017 C1025 0.950 . S
H1018 C1023 0.950 . S
H1019 C1024 0.949 . S
H1020 C1026 0.950 . S
H1021 C1027 0.950 . S
H1022 C1028 0.949 . S
C1023 H1018 0.950 . S
C1023 C1025 1.327 . S
C1023 C1029 1.429 . S
C1024 C1016 1.574 . S
C1024 H1019 0.949 . S
C1024 C1030 1.368 . S
C1025 C1009 1.349 . S
C1025 H1017 0.950 . S
C1025 C1023 1.327 . S
C1026 C1014 1.349 . S
C1026 H1020 0.950 . S
C1026 C1027 1.327 . S
C1027 H1021 0.950 . S
C1027 C1026 1.327 . S
C1027 C1031 1.429 . S
C1028 C1011 1.574 . S
C1028 H1022 0.949 . S
C1028 C1032 1.368 . S
C1029 C1010 1.429 . S
C1029 C1023 1.429 . S
C1029 C1030 1.523 . S
C1030 C1011 1.368 . S
C1030 C1024 1.368 . S
C1030 C1029 1.523 . S
C1031 C1015 1.429 . S
C1031 C1027 1.429 . S
C1031 C1032 1.523 . S
C1032 C1016 1.368 . S
C1032 C1028 1.368 . S
C1032 C1031 1.523 . S
H1033 C1008 0.950 . S
H1034 C1010 0.950 . S
H1035 C1011 0.949 . S
H1036 C1013 0.950 . S
H1037 C1015 0.950 . S
C1038 C1039 1.349 . S
C1038 C1040 1.327 . S
C1038 H1063 0.950 . S
C1039 C1038 1.349 . S
C1039 C1055 1.349 . S
C1040 C1038 1.327 . S
C1040 C1059 1.429 . S
C1040 H1064 0.950 . S
C1041 C1058 1.574 . S
C1041 C1060 1.368 . S
C1041 H1065 0.949 . S
H1042 C1046 0.949 . S
C1043 C1044 1.349 . S
C1043 C1045 1.327 . S
C1043 H1066 0.950 . S
C1044 C1043 1.349 . S
C1044 C1056 1.349 . S
C1045 C1043 1.327 . S
C1045 C1061 1.429 . S
C1045 H1067 0.950 . S
C1046 H1042 0.949 . S
C1046 C1054 1.574 . S
C1046 C1062 1.368 . S
H1047 C1055 0.950 . S
H1048 C1053 0.950 . S
H1049 C1054 0.949 . S
H1050 C1056 0.950 . S
H1051 C1057 0.950 . S
H1052 C1058 0.949 . S
C1053 H1048 0.950 . S
C1053 C1055 1.327 . S
C1053 C1059 1.429 . S
C1054 C1046 1.574 . S
C1054 H1049 0.949 . S
C1054 C1060 1.368 . S
C1055 C1039 1.349 . S
C1055 H1047 0.950 . S
C1055 C1053 1.327 . S
C1056 C1044 1.349 . S
C1056 H1050 0.950 . S
C1056 C1057 1.327 . S
C1057 H1051 0.950 . S
C1057 C1056 1.327 . S
C1057 C1061 1.429 . S
C1058 C1041 1.574 . S
C1058 H1052 0.949 . S
C1058 C1062 1.368 . S
C1059 C1040 1.429 . S
C1059 C1053 1.429 . S
C1059 C1060 1.523 . S
C1060 C1041 1.368 . S
C1060 C1054 1.368 . S
C1060 C1059 1.523 . S
C1061 C1045 1.429 . S
C1061 C1057 1.429 . S
C1061 C1062 1.523 . S
C1062 C1046 1.368 . S
C1062 C1058 1.368 . S
C1062 C1061 1.523 . S
H1063 C1038 0.950 . S
H1064 C1040 0.950 . S
H1065 C1041 0.949 . S
H1066 C1043 0.950 . S
H1067 C1045 0.950 . S
C1068 C1069 1.349 . S
C1068 C1070 1.327 . S
C1068 H1093 0.950 . S
C1069 C1068 1.349 . S
C1069 C1085 1.349 . S
C1070 C1068 1.327 . S
C1070 C1089 1.429 . S
C1070 H1094 0.950 . S
C1071 C1088 1.574 . S
C1071 C1090 1.368 . S
C1071 H1095 0.949 . S
H1072 C1076 0.949 . S
C1073 C1074 1.349 . S
C1073 C1075 1.327 . S
C1073 H1096 0.950 . S
C1074 C1073 1.349 . S
C1074 C1086 1.349 . S
C1075 C1073 1.327 . S
C1075 C1091 1.429 . S
C1075 H1097 0.950 . S
C1076 H1072 0.949 . S
C1076 C1084 1.574 . S
C1076 C1092 1.368 . S
H1077 C1085 0.950 . S
H1078 C1083 0.950 . S
H1079 C1084 0.949 . S
H1080 C1086 0.950 . S
H1081 C1087 0.950 . S
H1082 C1088 0.949 . S
C1083 H1078 0.950 . S
C1083 C1085 1.327 . S
C1083 C1089 1.429 . S
C1084 C1076 1.574 . S
C1084 H1079 0.949 . S
C1084 C1090 1.368 . S
C1085 C1069 1.349 . S
C1085 H1077 0.950 . S
C1085 C1083 1.327 . S
C1086 C1074 1.349 . S
C1086 H1080 0.950 . S
C1086 C1087 1.327 . S
C1087 H1081 0.950 . S
C1087 C1086 1.327 . S
C1087 C1091 1.429 . S
C1088 C1071 1.574 . S
C1088 H1082 0.949 . S
C1088 C1092 1.368 . S
C1089 C1070 1.429 . S
C1089 C1083 1.429 . S
C1089 C1090 1.523 . S
C1090 C1071 1.368 . S
C1090 C1084 1.368 . S
C1090 C1089 1.523 . S
C1091 C1075 1.429 . S
C1091 C1087 1.429 . S
C1091 C1092 1.523 . S
C1092 C1076 1.368 . S
C1092 C1088 1.368 . S
C1092 C1091 1.523 . S
H1093 C1068 0.950 . S
H1094 C1070 0.950 . S
H1095 C1071 0.949 . S
H1096 C1073 0.950 . S
H1097 C1075 0.950 . S
C1098 C1099 1.349 . S
C1098 C1100 1.327 . S
C1098 H1123 0.950 . S
C1099 C1098 1.349 . S
C1099 C1115 1.349 . S
C1100 C1098 1.327 . S
C1100 C1119 1.429 . S
C1100 H1124 0.950 . S
C1101 C1118 1.574 . S
C1101 C1120 1.368 . S
C1101 H1125 0.949 . S
H1102 C1106 0.949 . S
C1103 C1104 1.349 . S
C1103 C1105 1.327 . S
C1103 H1126 0.950 . S
C1104 C1103 1.349 . S
C1104 C1116 1.349 . S
C1105 C1103 1.327 . S
C1105 C1121 1.429 . S
C1105 H1127 0.950 . S
C1106 H1102 0.949 . S
C1106 C1114 1.574 . S
C1106 C1122 1.368 . S
H1107 C1115 0.950 . S
H1108 C1113 0.950 . S
H1109 C1114 0.949 . S
H1110 C1116 0.950 . S
H1111 C1117 0.950 . S
H1112 C1118 0.949 . S
C1113 H1108 0.950 . S
C1113 C1115 1.327 . S
C1113 C1119 1.429 . S
C1114 C1106 1.574 . S
C1114 H1109 0.949 . S
C1114 C1120 1.368 . S
C1115 C1099 1.349 . S
C1115 H1107 0.950 . S
C1115 C1113 1.327 . S
C1116 C1104 1.349 . S
C1116 H1110 0.950 . S
C1116 C1117 1.327 . S
C1117 H1111 0.950 . S
C1117 C1116 1.327 . S
C1117 C1121 1.429 . S
C1118 C1101 1.574 . S
C1118 H1112 0.949 . S
C1118 C1122 1.368 . S
C1119 C1100 1.429 . S
C1119 C1113 1.429 . S
C1119 C1120 1.523 . S
C1120 C1101 1.368 . S
C1120 C1114 1.368 . S
C1120 C1119 1.523 . S
C1121 C1105 1.429 . S
C1121 C1117 1.429 . S
C1121 C1122 1.523 . S
C1122 C1106 1.368 . S
C1122 C1118 1.368 . S
C1122 C1121 1.523 . S
H1123 C1098 0.950 . S
H1124 C1100 0.950 . S
H1125 C1101 0.949 . S
H1126 C1103 0.950 . S
H1127 C1105 0.950 . S
C1128 C1129 1.349 . S
C1128 C1130 1.327 . S
C1128 H1153 0.950 . S
C1129 C1128 1.349 . S
C1129 C1145 1.349 . S
C1130 C1128 1.327 . S
C1130 C1149 1.429 . S
C1130 H1154 0.950 . S
C1131 C1148 1.574 . S
C1131 C1150 1.368 . S
C1131 H1155 0.949 . S
H1132 C1136 0.949 . S
C1133 C1134 1.349 . S
C1133 C1135 1.327 . S
C1133 H1156 0.950 . S
C1134 C1133 1.349 . S
C1134 C1146 1.349 . S
C1135 C1133 1.327 . S
C1135 C1151 1.429 . S
C1135 H1157 0.950 . S
C1136 H1132 0.949 . S
C1136 C1144 1.574 . S
C1136 C1152 1.368 . S
H1137 C1145 0.950 . S
H1138 C1143 0.950 . S
H1139 C1144 0.949 . S
H1140 C1146 0.950 . S
H1141 C1147 0.950 . S
H1142 C1148 0.949 . S
C1143 H1138 0.950 . S
C1143 C1145 1.327 . S
C1143 C1149 1.429 . S
C1144 C1136 1.574 . S
C1144 H1139 0.949 . S
C1144 C1150 1.368 . S
C1145 C1129 1.349 . S
C1145 H1137 0.950 . S
C1145 C1143 1.327 . S
C1146 C1134 1.349 . S
C1146 H1140 0.950 . S
C1146 C1147 1.327 . S
C1147 H1141 0.950 . S
C1147 C1146 1.327 . S
C1147 C1151 1.429 . S
C1148 C1131 1.574 . S
C1148 H1142 0.949 . S
C1148 C1152 1.368 . S
C1149 C1130 1.429 . S
C1149 C1143 1.429 . S
C1149 C1150 1.523 . S
C1150 C1131 1.368 . S
C1150 C1144 1.368 . S
C1150 C1149 1.523 . S
C1151 C1135 1.429 . S
C1151 C1147 1.429 . S
C1151 C1152 1.523 . S
C1152 C1136 1.368 . S
C1152 C1148 1.368 . S
C1152 C1151 1.523 . S
H1153 C1128 0.950 . S
H1154 C1130 0.950 . S
H1155 C1131 0.949 . S
H1156 C1133 0.950 . S
H1157 C1135 0.950 . S
C1158 C1159 1.349 . S
C1158 C1160 1.327 . S
C1158 H1183 0.950 . S
C1159 C1158 1.349 . S
C1159 C1175 1.349 . S
C1160 C1158 1.327 . S
C1160 C1179 1.429 . S
C1160 H1184 0.950 . S
C1161 C1178 1.574 . S
C1161 C1180 1.368 . S
C1161 H1185 0.949 . S
H1162 C1166 0.949 . S
C1163 C1164 1.349 . S
C1163 C1165 1.327 . S
C1163 H1186 0.950 . S
C1164 C1163 1.349 . S
C1164 C1176 1.349 . S
C1165 C1163 1.327 . S
C1165 C1181 1.429 . S
C1165 H1187 0.950 . S
C1166 H1162 0.949 . S
C1166 C1174 1.574 . S
C1166 C1182 1.368 . S
H1167 C1175 0.950 . S
H1168 C1173 0.950 . S
H1169 C1174 0.949 . S
H1170 C1176 0.950 . S
H1171 C1177 0.950 . S
H1172 C1178 0.949 . S
C1173 H1168 0.950 . S
C1173 C1175 1.327 . S
C1173 C1179 1.429 . S
C1174 C1166 1.574 . S
C1174 H1169 0.949 . S
C1174 C1180 1.368 . S
C1175 C1159 1.349 . S
C1175 H1167 0.950 . S
C1175 C1173 1.327 . S
C1176 C1164 1.349 . S
C1176 H1170 0.950 . S
C1176 C1177 1.327 . S
C1177 H1171 0.950 . S
C1177 C1176 1.327 . S
C1177 C1181 1.429 . S
C1178 C1161 1.574 . S
C1178 H1172 0.949 . S
C1178 C1182 1.368 . S
C1179 C1160 1.429 . S
C1179 C1173 1.429 . S
C1179 C1180 1.523 . S
C1180 C1161 1.368 . S
C1180 C1174 1.368 . S
C1180 C1179 1.523 . S
C1181 C1165 1.429 . S
C1181 C1177 1.429 . S
C1181 C1182 1.523 . S
C1182 C1166 1.368 . S
C1182 C1178 1.368 . S
C1182 C1181 1.523 . S
H1183 C1158 0.950 . S
H1184 C1160 0.950 . S
H1185 C1161 0.949 . S
H1186 C1163 0.950 . S
H1187 C1165 0.950 . S
C1188 C1189 1.349 . S
C1188 C1190 1.327 . S
C1188 H1213 0.950 . S
C1189 C1188 1.349 . S
C1189 C1205 1.349 . S
C1190 C1188 1.327 . S
C1190 C1209 1.429 . S
C1190 H1214 0.950 . S
C1191 C1208 1.574 . S
C1191 C1210 1.368 . S
C1191 H1215 0.949 . S
H1192 C1196 0.949 . S
C1193 C1194 1.349 . S
C1193 C1195 1.327 . S
C1193 H1216 0.950 . S
C1194 C1193 1.349 . S
C1194 C1206 1.349 . S
C1195 C1193 1.327 . S
C1195 C1211 1.429 . S
C1195 H1217 0.950 . S
C1196 H1192 0.949 . S
C1196 C1204 1.574 . S
C1196 C1212 1.368 . S
H1197 C1205 0.950 . S
H1198 C1203 0.950 . S
H1199 C1204 0.949 . S
H1200 C1206 0.950 . S
H1201 C1207 0.950 . S
H1202 C1208 0.949 . S
C1203 H1198 0.950 . S
C1203 C1205 1.327 . S
C1203 C1209 1.429 . S
C1204 C1196 1.574 . S
C1204 H1199 0.949 . S
C1204 C1210 1.368 . S
C1205 C1189 1.349 . S
C1205 H1197 0.950 . S
C1205 C1203 1.327 . S
C1206 C1194 1.349 . S
C1206 H1200 0.950 . S
C1206 C1207 1.327 . S
C1207 H1201 0.950 . S
C1207 C1206 1.327 . S
C1207 C1211 1.429 . S
C1208 C1191 1.574 . S
C1208 H1202 0.949 . S
C1208 C1212 1.368 . S
C1209 C1190 1.429 . S
C1209 C1203 1.429 . S
C1209 C1210 1.523 . S
C1210 C1191 1.368 . S
C1210 C1204 1.368 . S
C1210 C1209 1.523 . S
C1211 C1195 1.429 . S
C1211 C1207 1.429 . S
C1211 C1212 1.523 . S
C1212 C1196 1.368 . S
C1212 C1208 1.368 . S
C1212 C1211 1.523 . S
H1213 C1188 0.950 . S
H1214 C1190 0.950 . S
H1215 C1191 0.949 . S
H1216 C1193 0.950 . S
H1217 C1195 0.950 . S
C1218 C1219 1.349 . S
C1218 C1220 1.327 . S
C1218 H1243 0.950 . S
C1219 C1218 1.349 . S
C1219 C1235 1.349 . S
C1220 C1218 1.327 . S
C1220 C1239 1.429 . S
C1220 H1244 0.950 . S
C1221 C1238 1.574 . S
C1221 C1240 1.368 . S
C1221 H1245 0.949 . S
H1222 C1226 0.949 . S
C1223 C1224 1.349 . S
C1223 C1225 1.327 . S
C1223 H1246 0.950 . S
C1224 C1223 1.349 . S
C1224 C1236 1.349 . S
C1225 C1223 1.327 . S
C1225 C1241 1.429 . S
C1225 H1247 0.950 . S
C1226 H1222 0.949 . S
C1226 C1234 1.574 . S
C1226 C1242 1.368 . S
H1227 C1235 0.950 . S
H1228 C1233 0.950 . S
H1229 C1234 0.949 . S
H1230 C1236 0.950 . S
H1231 C1237 0.950 . S
H1232 C1238 0.949 . S
C1233 H1228 0.950 . S
C1233 C1235 1.327 . S
C1233 C1239 1.429 . S
C1234 C1226 1.574 . S
C1234 H1229 0.949 . S
C1234 C1240 1.368 . S
C1235 C1219 1.349 . S
C1235 H1227 0.950 . S
C1235 C1233 1.327 . S
C1236 C1224 1.349 . S
C1236 H1230 0.950 . S
C1236 C1237 1.327 . S
C1237 H1231 0.950 . S
C1237 C1236 1.327 . S
C1237 C1241 1.429 . S
C1238 C1221 1.574 . S
C1238 H1232 0.949 . S
C1238 C1242 1.368 . S
C1239 C1220 1.429 . S
C1239 C1233 1.429 . S
C1239 C1240 1.523 . S
C1240 C1221 1.368 . S
C1240 C1234 1.368 . S
C1240 C1239 1.523 . S
C1241 C1225 1.429 . S
C1241 C1237 1.429 . S
C1241 C1242 1.523 . S
C1242 C1226 1.368 . S
C1242 C1238 1.368 . S
C1242 C1241 1.523 . S
H1243 C1218 0.950 . S
H1244 C1220 0.950 . S
H1245 C1221 0.949 . S
H1246 C1223 0.950 . S
H1247 C1225 0.950 . S
C1248 C1249 1.349 . S
C1248 C1250 1.327 . S
C1248 H1273 0.950 . S
C1249 C1248 1.349 . S
C1249 C1265 1.349 . S
C1250 C1248 1.327 . S
C1250 C1269 1.429 . S
C1250 H1274 0.950 . S
C1251 C1268 1.574 . S
C1251 C1270 1.368 . S
C1251 H1275 0.949 . S
H1252 C1256 0.949 . S
C1253 C1254 1.349 . S
C1253 C1255 1.327 . S
C1253 H1276 0.950 . S
C1254 C1253 1.349 . S
C1254 C1266 1.349 . S
C1255 C1253 1.327 . S
C1255 C1271 1.429 . S
C1255 H1277 0.950 . S
C1256 H1252 0.949 . S
C1256 C1264 1.574 . S
C1256 C1272 1.368 . S
H1257 C1265 0.950 . S
H1258 C1263 0.950 . S
H1259 C1264 0.949 . S
H1260 C1266 0.950 . S
H1261 C1267 0.950 . S
H1262 C1268 0.949 . S
C1263 H1258 0.950 . S
C1263 C1265 1.327 . S
C1263 C1269 1.429 . S
C1264 C1256 1.574 . S
C1264 H1259 0.949 . S
C1264 C1270 1.368 . S
C1265 C1249 1.349 . S
C1265 H1257 0.950 . S
C1265 C1263 1.327 . S
C1266 C1254 1.349 . S
C1266 H1260 0.950 . S
C1266 C1267 1.327 . S
C1267 H1261 0.950 . S
C1267 C1266 1.327 . S
C1267 C1271 1.429 . S
C1268 C1251 1.574 . S
C1268 H1262 0.949 . S
C1268 C1272 1.368 . S
C1269 C1250 1.429 . S
C1269 C1263 1.429 . S
C1269 C1270 1.523 . S
C1270 C1251 1.368 . S
C1270 C1264 1.368 . S
C1270 C1269 1.523 . S
C1271 C1255 1.429 . S
C1271 C1267 1.429 . S
C1271 C1272 1.523 . S
C1272 C1256 1.368 . S
C1272 C1268 1.368 . S
C1272 C1271 1.523 . S
H1273 C1248 0.950 . S
H1274 C1250 0.950 . S
H1275 C1251 0.949 . S
H1276 C1253 0.950 . S
H1277 C1255 0.950 . S
C1278 C1279 1.349 . S
C1278 C1280 1.327 . S
C1278 H1303 0.950 . S
C1279 C1278 1.349 . S
C1279 C1295 1.349 . S
C1280 C1278 1.327 . S
C1280 C1299 1.429 . S
C1280 H1304 0.950 . S
C1281 C1298 1.574 . S
C1281 C1300 1.368 . S
C1281 H1305 0.949 . S
H1282 C1286 0.949 . S
C1283 C1284 1.349 . S
C1283 C1285 1.327 . S
C1283 H1306 0.950 . S
C1284 C1283 1.349 . S
C1284 C1296 1.349 . S
C1285 C1283 1.327 . S
C1285 C1301 1.429 . S
C1285 H1307 0.950 . S
C1286 H1282 0.949 . S
C1286 C1294 1.574 . S
C1286 C1302 1.368 . S
H1287 C1295 0.950 . S
H1288 C1293 0.950 . S
H1289 C1294 0.949 . S
H1290 C1296 0.950 . S
H1291 C1297 0.950 . S
H1292 C1298 0.949 . S
C1293 H1288 0.950 . S
C1293 C1295 1.327 . S
C1293 C1299 1.429 . S
C1294 C1286 1.574 . S
C1294 H1289 0.949 . S
C1294 C1300 1.368 . S
C1295 C1279 1.349 . S
C1295 H1287 0.950 . S
C1295 C1293 1.327 . S
C1296 C1284 1.349 . S
C1296 H1290 0.950 . S
C1296 C1297 1.327 . S
C1297 H1291 0.950 . S
C1297 C1296 1.327 . S
C1297 C1301 1.429 . S
C1298 C1281 1.574 . S
C1298 H1292 0.949 . S
C1298 C1302 1.368 . S
C1299 C1280 1.429 . S
C1299 C1293 1.429 . S
C1299 C1300 1.523 . S
C1300 C1281 1.368 . S
C1300 C1294 1.368 . S
C1300 C1299 1.523 . S
C1301 C1285 1.429 . S
C1301 C1297 1.429 . S
C1301 C1302 1.523 . S
C1302 C1286 1.368 . S
C1302 C1298 1.368 . S
C1302 C1301 1.523 . S
H1303 C1278 0.950 . S
H1304 C1280 0.950 . S
H1305 C1281 0.949 . S
H1306 C1283 0.950 . S
H1307 C1285 0.950 . S
C1308 C1309 1.349 . S
C1308 C1310 1.327 . S
C1308 H1333 0.950 . S
C1309 C1308 1.349 . S
C1309 C1325 1.349 . S
C1310 C1308 1.327 . S
C1310 C1329 1.429 . S
C1310 H1334 0.950 . S
C1311 C1328 1.574 . S
C1311 C1330 1.368 . S
C1311 H1335 0.949 . S
H1312 C1316 0.949 . S
C1313 C1314 1.349 . S
C1313 C1315 1.327 . S
C1313 H1336 0.950 . S
C1314 C1313 1.349 . S
C1314 C1326 1.349 . S
C1315 C1313 1.327 . S
C1315 C1331 1.429 . S
C1315 H1337 0.950 . S
C1316 H1312 0.949 . S
C1316 C1324 1.574 . S
C1316 C1332 1.368 . S
H1317 C1325 0.950 . S
H1318 C1323 0.950 . S
H1319 C1324 0.949 . S
H1320 C1326 0.950 . S
H1321 C1327 0.950 . S
H1322 C1328 0.949 . S
C1323 H1318 0.950 . S
C1323 C1325 1.327 . S
C1323 C1329 1.429 . S
C1324 C1316 1.574 . S
C1324 H1319 0.949 . S
C1324 C1330 1.368 . S
C1325 C1309 1.349 . S
C1325 H1317 0.950 . S
C1325 C1323 1.327 . S
C1326 C1314 1.349 . S
C1326 H1320 0.950 . S
C1326 C1327 1.327 . S
C1327 H1321 0.950 . S
C1327 C1326 1.327 . S
C1327 C1331 1.429 . S
C1328 C1311 1.574 . S
C1328 H1322 0.949 . S
C1328 C1332 1.368 . S
C1329 C1310 1.429 . S
C1329 C1323 1.429 . S
C1329 C1330 1.523 . S
C1330 C1311 1.368 . S
C1330 C1324 1.368 . S
C1330 C1329 1.523 . S
C1331 C1315 1.429 . S
C1331 C1327 1.429 . S
C1331 C1332 1.523 . S
C1332 C1316 1.368 . S
C1332 C1328 1.368 . S
C1332 C1331 1.523 . S
H1333 C1308 0.950 . S
H1334 C1310 0.950 . S
H1335 C1311 0.949 . S
H1336 C1313 0.950 . S
H1337 C1315 0.950 . S
C1338 C1339 1.349 . S
C1338 C1340 1.327 . S
C1338 H1363 0.950 . S
C1339 C1338 1.349 . S
C1339 C1355 1.349 . S
C1340 C1338 1.327 . S
C1340 C1359 1.429 . S
C1340 H1364 0.950 . S
C1341 C1358 1.574 . S
C1341 C1360 1.368 . S
C1341 H1365 0.949 . S
H1342 C1346 0.949 . S
C1343 C1344 1.349 . S
C1343 C1345 1.327 . S
C1343 H1366 0.950 . S
C1344 C1343 1.349 . S
C1344 C1356 1.349 . S
C1345 C1343 1.327 . S
C1345 C1361 1.429 . S
C1345 H1367 0.950 . S
C1346 H1342 0.949 . S
C1346 C1354 1.574 . S
C1346 C1362 1.368 . S
H1347 C1355 0.950 . S
H1348 C1353 0.950 . S
H1349 C1354 0.949 . S
H1350 C1356 0.950 . S
H1351 C1357 0.950 . S
H1352 C1358 0.949 . S
C1353 H1348 0.950 . S
C1353 C1355 1.327 . S
C1353 C1359 1.429 . S
C1354 C1346 1.574 . S
C1354 H1349 0.949 . S
C1354 C1360 1.368 . S
C1355 C1339 1.349 . S
C1355 H1347 0.950 . S
C1355 C1353 1.327 . S
C1356 C1344 1.349 . S
C1356 H1350 0.950 . S
C1356 C1357 1.327 . S
C1357 H1351 0.950 . S
C1357 C1356 1.327 . S
C1357 C1361 1.429 . S
C1358 C1341 1.574 . S
C1358 H1352 0.949 . S
C1358 C1362 1.368 . S
C1359 C1340 1.429 . S
C1359 C1353 1.429 . S
C1359 C1360 1.523 . S
C1360 C1341 1.368 . S
C1360 C1354 1.368 . S
C1360 C1359 1.523 . S
C1361 C1345 1.429 . S
C1361 C1357 1.429 . S
C1361 C1362 1.523 . S
C1362 C1346 1.368 . S
C1362 C1358 1.368 . S
C1362 C1361 1.523 . S
H1363 C1338 0.950 . S
H1364 C1340 0.950 . S
H1365 C1341 0.949 . S
H1366 C1343 0.950 . S
H1367 C1345 0.950 . S
C1368 C1369 1.349 . S
C1368 C1370 1.327 . S
C1368 H1393 0.950 . S
C1369 C1368 1.349 . S
C1369 C1385 1.349 . S
C1370 C1368 1.327 . S
C1370 C1389 1.429 . S
C1370 H1394 0.950 . S
C1371 C1388 1.574 . S
C1371 C1390 1.368 . S
C1371 H1395 0.949 . S
H1372 C1376 0.949 . S
C1373 C1374 1.349 . S
C1373 C1375 1.327 . S
C1373 H1396 0.950 . S
C1374 C1373 1.349 . S
C1374 C1386 1.349 . S
C1375 C1373 1.327 . S
C1375 C1391 1.429 . S
C1375 H1397 0.950 . S
C1376 H1372 0.949 . S
C1376 C1384 1.574 . S
C1376 C1392 1.368 . S
H1377 C1385 0.950 . S
H1378 C1383 0.950 . S
H1379 C1384 0.949 . S
H1380 C1386 0.950 . S
H1381 C1387 0.950 . S
H1382 C1388 0.949 . S
C1383 H1378 0.950 . S
C1383 C1385 1.327 . S
C1383 C1389 1.429 . S
C1384 C1376 1.574 . S
C1384 H1379 0.949 . S
C1384 C1390 1.368 . S
C1385 C1369 1.349 . S
C1385 H1377 0.950 . S
C1385 C1383 1.327 . S
C1386 C1374 1.349 . S
C1386 H1380 0.950 . S
C1386 C1387 1.327 . S
C1387 H1381 0.950 . S
C1387 C1386 1.327 . S
C1387 C1391 1.429 . S
C1388 C1371 1.574 . S
C1388 H1382 0.949 . S
C1388 C1392 1.368 . S
C1389 C1370 1.429 . S
C1389 C1383 1.429 . S
C1389 C1390 1.523 . S
C1390 C1371 1.368 . S
C1390 C1384 1.368 . S
C1390 C1389 1.523 . S
C1391 C1375 1.429 . S
C1391 C1387 1.429 . S
C1391 C1392 1.523 . S
C1392 C1376 1.368 . S
C1392 C1388 1.368 . S
C1392 C1391 1.523 . S
H1393 C1368 0.950 . S
H1394 C1370 0.950 . S
H1395 C1371 0.949 . S
H1396 C1373 0.950 . S
H1397 C1375 0.950 . S
C1398 C1399 1.349 . S
C1398 C1400 1.327 . S
C1398 H1423 0.950 . S
C1399 C1398 1.349 . S
C1399 C1415 1.349 . S
C1400 C1398 1.327 . S
C1400 C1419 1.429 . S
C1400 H1424 0.950 . S
C1401 C1418 1.574 . S
C1401 C1420 1.368 . S
C1401 H1425 0.949 . S
H1402 C1406 0.949 . S
C1403 C1404 1.349 . S
C1403 C1405 1.327 . S
C1403 H1426 0.950 . S
C1404 C1403 1.349 . S
C1404 C1416 1.349 . S
C1405 C1403 1.327 . S
C1405 C1421 1.429 . S
C1405 H1427 0.950 . S
C1406 H1402 0.949 . S
C1406 C1414 1.574 . S
C1406 C1422 1.368 . S
H1407 C1415 0.950 . S
H1408 C1413 0.950 . S
H1409 C1414 0.949 . S
H1410 C1416 0.950 . S
H1411 C1417 0.950 . S
H1412 C1418 0.949 . S
C1413 H1408 0.950 . S
C1413 C1415 1.327 . S
C1413 C1419 1.429 . S
C1414 C1406 1.574 . S
C1414 H1409 0.949 . S
C1414 C1420 1.368 . S
C1415 C1399 1.349 . S
C1415 H1407 0.950 . S
C1415 C1413 1.327 . S
C1416 C1404 1.349 . S
C1416 H1410 0.950 . S
C1416 C1417 1.327 . S
C1417 H1411 0.950 . S
C1417 C1416 1.327 . S
C1417 C1421 1.429 . S
C1418 C1401 1.574 . S
C1418 H1412 0.949 . S
C1418 C1422 1.368 . S
C1419 C1400 1.429 . S
C1419 C1413 1.429 . S
C1419 C1420 1.523 . S
C1420 C1401 1.368 . S
C1420 C1414 1.368 . S
C1420 C1419 1.523 . S
C1421 C1405 1.429 . S
C1421 C1417 1.429 . S
C1421 C1422 1.523 . S
C1422 C1406 1.368 . S
C1422 C1418 1.368 . S
C1422 C1421 1.523 . S
H1423 C1398 0.950 . S
H1424 C1400 0.950 . S
H1425 C1401 0.949 . S
H1426 C1403 0.950 . S
H1427 C1405 0.950 . S
C1428 C1429 1.349 . S
C1428 C1430 1.327 . S
C1428 H1453 0.950 . S
C1429 C1428 1.349 . S
C1429 C1445 1.349 . S
C1430 C1428 1.327 . S
C1430 C1449 1.429 . S
C1430 H1454 0.950 . S
C1431 C1448 1.574 . S
C1431 C1450 1.368 . S
C1431 H1455 0.949 . S
H1432 C1436 0.949 . S
C1433 C1434 1.349 . S
C1433 C1435 1.327 . S
C1433 H1456 0.950 . S
C1434 C1433 1.349 . S
C1434 C1446 1.349 . S
C1435 C1433 1.327 . S
C1435 C1451 1.429 . S
C1435 H1457 0.950 . S
C1436 H1432 0.949 . S
C1436 C1444 1.574 . S
C1436 C1452 1.368 . S
H1437 C1445 0.950 . S
H1438 C1443 0.950 . S
H1439 C1444 0.949 . S
H1440 C1446 0.950 . S
H1441 C1447 0.950 . S
H1442 C1448 0.949 . S
C1443 H1438 0.950 . S
C1443 C1445 1.327 . S
C1443 C1449 1.429 . S
C1444 C1436 1.574 . S
C1444 H1439 0.949 . S
C1444 C1450 1.368 . S
C1445 C1429 1.349 . S
C1445 H1437 0.950 . S
C1445 C1443 1.327 . S
C1446 C1434 1.349 . S
C1446 H1440 0.950 . S
C1446 C1447 1.327 . S
C1447 H1441 0.950 . S
C1447 C1446 1.327 . S
C1447 C1451 1.429 . S
C1448 C1431 1.574 . S
C1448 H1442 0.949 . S
C1448 C1452 1.368 . S
C1449 C1430 1.429 . S
C1449 C1443 1.429 . S
C1449 C1450 1.523 . S
C1450 C1431 1.368 . S
C1450 C1444 1.368 . S
C1450 C1449 1.523 . S
C1451 C1435 1.429 . S
C1451 C1447 1.429 . S
C1451 C1452 1.523 . S
C1452 C1436 1.368 . S
C1452 C1448 1.368 . S
C1452 C1451 1.523 . S
H1453 C1428 0.950 . S
H1454 C1430 0.950 . S
H1455 C1431 0.949 . S
H1456 C1433 0.950 . S
H1457 C1435 0.950 . S
C1458 C1459 1.349 . S
C1458 C1460 1.327 . S
C1458 H1483 0.950 . S
C1459 C1458 1.349 . S
C1459 C1475 1.349 . S
C1460 C1458 1.327 . S
C1460 C1479 1.429 . S
C1460 H1484 0.950 . S
C1461 C1478 1.574 . S
C1461 C1480 1.368 . S
C1461 H1485 0.949 . S
H1462 C1466 0.949 . S
C1463 C1464 1.349 . S
C1463 C1465 1.327 . S
C1463 H1486 0.950 . S
C1464 C1463 1.349 . S
C1464 C1476 1.349 . S
C1465 C1463 1.327 . S
C1465 C1481 1.429 . S
C1465 H1487 0.950 . S
C1466 H1462 0.949 . S
C1466 C1474 1.574 . S
C1466 C1482 1.368 . S
H1467 C1475 0.950 . S
H1468 C1473 0.950 . S
H1469 C1474 0.949 . S
H1470 C1476 0.950 . S
H1471 C1477 0.950 . S
H1472 C1478 0.949 . S
C1473 H1468 0.950 . S
C1473 C1475 1.327 . S
C1473 C1479 1.429 . S
C1474 C1466 1.574 . S
C1474 H1469 0.949 . S
C1474 C1480 1.368 . S
C1475 C1459 1.349 . S
C1475 H1467 0.950 . S
C1475 C1473 1.327 . S
C1476 C1464 1.349 . S
C1476 H1470 0.950 . S
C1476 C1477 1.327 . S
C1477 H1471 0.950 . S
C1477 C1476 1.327 . S
C1477 C1481 1.429 . S
C1478 C1461 1.574 . S
C1478 H1472 0.949 . S
C1478 C1482 1.368 . S
C1479 C1460 1.429 . S
C1479 C1473 1.429 . S
C1479 C1480 1.523 . S
C1480 C1461 1.368 . S
C1480 C1474 1.368 . S
C1480 C1479 1.523 . S
C1481 C1465 1.429 . S
C1481 C1477 1.429 . S
C1481 C1482 1.523 . S
C1482 C1466 1.368 . S
C1482 C1478 1.368 . S
C1482 C1481 1.523 . S
H1483 C1458 0.950 . S
H1484 C1460 0.950 . S
H1485 C1461 0.949 . S
H1486 C1463 0.950 . S
H1487 C1465 0.950 . S
C1488 C1489 1.349 . S
C1488 C1490 1.327 . S
C1488 H1513 0.950 . S
C1489 C1488 1.349 . S
C1489 C1505 1.349 . S
C1490 C1488 1.327 . S
C1490 C1509 1.429 . S
C1490 H1514 0.950 1_655 S
C1491 C1508 1.574 . S
C1491 C1510 1.368 . S
C1491 H1515 0.949 . S
H1492 C1496 0.949 . S
C1493 C1494 1.349 . S
C1493 C1495 1.327 . S
C1493 H1516 0.950 . S
C1494 C1493 1.349 . S
C1494 C1506 1.349 . S
C1495 C1493 1.327 . S
C1495 C1511 1.429 . S
C1495 H1517 0.950 1_455 S
C1496 H1492 0.949 . S
C1496 C1504 1.574 . S
C1496 C1512 1.368 . S
H1497 C1505 0.950 . S
H1498 C1503 0.950 . S
H1499 C1504 0.949 . S
H1500 C1506 0.950 . S
H1501 C1507 0.950 . S
H1502 C1508 0.949 . S
C1503 H1498 0.950 . S
C1503 C1505 1.327 . S
C1503 C1509 1.429 . S
C1504 C1496 1.574 . S
C1504 H1499 0.949 . S
C1504 C1510 1.368 1_455 S
C1505 C1489 1.349 . S
C1505 H1497 0.950 . S
C1505 C1503 1.327 . S
C1506 C1494 1.349 . S
C1506 H1500 0.950 . S
C1506 C1507 1.327 . S
C1507 H1501 0.950 . S
C1507 C1506 1.327 . S
C1507 C1511 1.429 . S
C1508 C1491 1.574 . S
C1508 H1502 0.949 . S
C1508 C1512 1.368 1_655 S
C1509 C1490 1.429 . S
C1509 C1503 1.429 . S
C1509 C1510 1.523 . S
C1510 C1491 1.368 . S
C1510 C1504 1.368 1_655 S
C1510 C1509 1.523 . S
C1511 C1495 1.429 . S
C1511 C1507 1.429 . S
C1511 C1512 1.523 . S
C1512 C1496 1.368 . S
C1512 C1508 1.368 1_455 S
C1512 C1511 1.523 . S
H1513 C1488 0.950 . S
H1514 C1490 0.950 1_455 S
H1515 C1491 0.949 . S
H1516 C1493 0.950 . S
H1517 C1495 0.950 1_655 S
C1518 C1519 1.349 . S
C1518 C1520 1.327 . S
C1518 H1543 0.950 . S
C1519 C1518 1.349 . S
C1519 C1535 1.349 . S
C1520 C1518 1.327 . S
C1520 C1539 1.429 . S
C1520 H1544 0.950 1_565 S
C1521 C1538 1.574 . S
C1521 C1540 1.368 . S
C1521 H1545 0.949 . S
H1522 C1526 0.949 . S
C1523 C1524 1.349 . S
C1523 C1525 1.327 . S
C1523 H1546 0.950 . S
C1524 C1523 1.349 . S
C1524 C1536 1.349 . S
C1525 C1523 1.327 . S
C1525 C1541 1.429 . S
C1525 H1547 0.950 1_545 S
C1526 H1522 0.949 . S
C1526 C1534 1.574 . S
C1526 C1542 1.368 . S
H1527 C1535 0.950 . S
H1528 C1533 0.950 . S
H1529 C1534 0.949 . S
H1530 C1536 0.950 . S
H1531 C1537 0.950 . S
H1532 C1538 0.949 . S
C1533 H1528 0.950 . S
C1533 C1535 1.327 . S
C1533 C1539 1.429 . S
C1534 C1526 1.574 . S
C1534 H1529 0.949 . S
C1534 C1540 1.368 1_545 S
C1535 C1519 1.349 . S
C1535 H1527 0.950 . S
C1535 C1533 1.327 . S
C1536 C1524 1.349 . S
C1536 H1530 0.950 . S
C1536 C1537 1.327 . S
C1537 H1531 0.950 . S
C1537 C1536 1.327 . S
C1537 C1541 1.429 . S
C1538 C1521 1.574 . S
C1538 H1532 0.949 . S
C1538 C1542 1.368 1_565 S
C1539 C1520 1.429 . S
C1539 C1533 1.429 . S
C1539 C1540 1.523 . S
C1540 C1521 1.368 . S
C1540 C1534 1.368 1_565 S
C1540 C1539 1.523 . S
C1541 C1525 1.429 . S
C1541 C1537 1.429 . S
C1541 C1542 1.523 . S
C1542 C1526 1.368 . S
C1542 C1538 1.368 1_545 S
C1542 C1541 1.523 . S
H1543 C1518 0.950 . S
H1544 C1520 0.950 1_545 S
H1545 C1521 0.949 . S
H1546 C1523 0.950 . S
H1547 C1525 0.950 1_565 S
C1548 C1549 1.349 . S
C1548 C1550 1.327 . S
C1548 H1573 0.950 . S
C1549 C1548 1.349 . S
C1549 C1565 1.349 . S
C1550 C1548 1.327 . S
C1550 C1569 1.429 . S
C1550 H1574 0.950 . S
C1551 C1568 1.574 1_545 S
C1551 C1570 1.368 . S
C1551 H1575 0.949 . S
H1552 C1556 0.949 . S
C1553 C1554 1.349 . S
C1553 C1555 1.327 . S
C1553 H1576 0.950 . S
C1554 C1553 1.349 . S
C1554 C1566 1.349 . S
C1555 C1553 1.327 . S
C1555 C1571 1.429 . S
C1555 H1577 0.950 . S
C1556 H1552 0.949 . S
C1556 C1564 1.574 1_565 S
C1556 C1572 1.368 . S
H1557 C1565 0.950 . S
H1558 C1563 0.950 . S
H1559 C1564 0.949 . S
H1560 C1566 0.950 . S
H1561 C1567 0.950 . S
H1562 C1568 0.949 . S
C1563 H1558 0.950 . S
C1563 C1565 1.327 . S
C1563 C1569 1.429 . S
C1564 C1556 1.574 1_545 S
C1564 H1559 0.949 . S
C1564 C1570 1.368 . S
C1565 C1549 1.349 . S
C1565 H1557 0.950 . S
C1565 C1563 1.327 . S
C1566 C1554 1.349 . S
C1566 H1560 0.950 . S
C1566 C1567 1.327 . S
C1567 H1561 0.950 . S
C1567 C1566 1.327 . S
C1567 C1571 1.429 . S
C1568 C1551 1.574 1_565 S
C1568 H1562 0.949 . S
C1568 C1572 1.368 . S
C1569 C1550 1.429 . S
C1569 C1563 1.429 . S
C1569 C1570 1.523 . S
C1570 C1551 1.368 . S
C1570 C1564 1.368 . S
C1570 C1569 1.523 . S
C1571 C1555 1.429 . S
C1571 C1567 1.429 . S
C1571 C1572 1.523 . S
C1572 C1556 1.368 . S
C1572 C1568 1.368 . S
C1572 C1571 1.523 . S
H1573 C1548 0.950 . S
H1574 C1550 0.950 . S
H1575 C1551 0.949 . S
H1576 C1553 0.950 . S
H1577 C1555 0.950 . S
C1578 C1579 1.349 . S
C1578 C1580 1.327 . S
C1578 H1603 0.950 . S
C1579 C1578 1.349 . S
C1579 C1595 1.349 . S
C1580 C1578 1.327 . S
C1580 C1599 1.429 . S
C1580 H1604 0.950 . S
C1581 C1598 1.574 1_655 S
C1581 C1600 1.368 . S
C1581 H1605 0.949 . S
H1582 C1586 0.949 . S
C1583 C1584 1.349 . S
C1583 C1585 1.327 . S
C1583 H1606 0.950 . S
C1584 C1583 1.349 . S
C1584 C1596 1.349 . S
C1585 C1583 1.327 . S
C1585 C1601 1.429 . S
C1585 H1607 0.950 . S
C1586 H1582 0.949 . S
C1586 C1594 1.574 1_455 S
C1586 C1602 1.368 . S
H1587 C1595 0.950 . S
H1588 C1593 0.950 . S
H1589 C1594 0.949 . S
H1590 C1596 0.950 . S
H1591 C1597 0.950 . S
H1592 C1598 0.949 . S
C1593 H1588 0.950 . S
C1593 C1595 1.327 . S
C1593 C1599 1.429 . S
C1594 C1586 1.574 1_655 S
C1594 H1589 0.949 . S
C1594 C1600 1.368 . S
C1595 C1579 1.349 . S
C1595 H1587 0.950 . S
C1595 C1593 1.327 . S
C1596 C1584 1.349 . S
C1596 H1590 0.950 . S
C1596 C1597 1.327 . S
C1597 H1591 0.950 . S
C1597 C1596 1.327 . S
C1597 C1601 1.429 . S
C1598 C1581 1.574 1_455 S
C1598 H1592 0.949 . S
C1598 C1602 1.368 . S
C1599 C1580 1.429 . S
C1599 C1593 1.429 . S
C1599 C1600 1.523 . S
C1600 C1581 1.368 . S
C1600 C1594 1.368 . S
C1600 C1599 1.523 . S
C1601 C1585 1.429 . S
C1601 C1597 1.429 . S
C1601 C1602 1.523 . S
C1602 C1586 1.368 . S
C1602 C1598 1.368 . S
C1602 C1601 1.523 . S
H1603 C1578 0.950 . S
H1604 C1580 0.950 . S
H1605 C1581 0.949 . S
H1606 C1583 0.950 . S
H1607 C1585 0.950 . S
C1608 C1609 1.349 . S
C1608 C1610 1.327 . S
C1608 H1633 0.950 . S
C1609 C1608 1.349 . S
C1609 C1625 1.349 . S
C1610 C1608 1.327 . S
C1610 C1629 1.429 . S
C1610 H1634 0.950 1_655 S
C1611 C1628 1.574 . S
C1611 C1630 1.368 . S
C1611 H1635 0.949 . S
H1612 C1616 0.949 . S
C1613 C1614 1.349 . S
C1613 C1615 1.327 . S
C1613 H1636 0.950 . S
C1614 C1613 1.349 . S
C1614 C1626 1.349 . S
C1615 C1613 1.327 . S
C1615 C1631 1.429 . S
C1615 H1637 0.950 1_455 S
C1616 H1612 0.949 . S
C1616 C1624 1.574 . S
C1616 C1632 1.368 . S
H1617 C1625 0.950 . S
H1618 C1623 0.950 . S
H1619 C1624 0.949 . S
H1620 C1626 0.950 . S
H1621 C1627 0.950 . S
H1622 C1628 0.949 . S
C1623 H1618 0.950 . S
C1623 C1625 1.327 . S
C1623 C1629 1.429 . S
C1624 C1616 1.574 . S
C1624 H1619 0.949 . S
C1624 C1630 1.368 1_455 S
C1625 C1609 1.349 . S
C1625 H1617 0.950 . S
C1625 C1623 1.327 . S
C1626 C1614 1.349 . S
C1626 H1620 0.950 . S
C1626 C1627 1.327 . S
C1627 H1621 0.950 . S
C1627 C1626 1.327 . S
C1627 C1631 1.429 . S
C1628 C1611 1.574 . S
C1628 H1622 0.949 . S
C1628 C1632 1.368 1_655 S
C1629 C1610 1.429 . S
C1629 C1623 1.429 . S
C1629 C1630 1.523 . S
C1630 C1611 1.368 . S
C1630 C1624 1.368 1_655 S
C1630 C1629 1.523 . S
C1631 C1615 1.429 . S
C1631 C1627 1.429 . S
C1631 C1632 1.523 . S
C1632 C1616 1.368 . S
C1632 C1628 1.368 1_455 S
C1632 C1631 1.523 . S
H1633 C1608 0.950 . S
H1634 C1610 0.950 1_455 S
H1635 C1611 0.949 . S
H1636 C1613 0.950 . S
H1637 C1615 0.950 1_655 S
C1638 C1639 1.349 . S
C1638 C1640 1.327 . S
C1638 H1663 0.950 . S
C1639 C1638 1.349 . S
C1639 C1655 1.349 . S
C1640 C1638 1.327 . S
C1640 C1659 1.429 . S
C1640 H1664 0.950 . S
C1641 C1658 1.574 . S
C1641 C1660 1.368 1_565 S
C1641 H1665 0.949 . S
H1642 C1646 0.949 . S
C1643 C1644 1.349 . S
C1643 C1645 1.327 . S
C1643 H1666 0.950 . S
C1644 C1643 1.349 . S
C1644 C1656 1.349 . S
C1645 C1643 1.327 . S
C1645 C1661 1.429 . S
C1645 H1667 0.950 . S
C1646 H1642 0.949 . S
C1646 C1654 1.574 . S
C1646 C1662 1.368 1_545 S
H1647 C1655 0.950 . S
H1648 C1653 0.950 1_565 S
H1649 C1654 0.949 . S
H1650 C1656 0.950 . S
H1651 C1657 0.950 1_545 S
H1652 C1658 0.949 . S
C1653 H1648 0.950 1_545 S
C1653 C1655 1.327 . S
C1653 C1659 1.429 . S
C1654 C1646 1.574 . S
C1654 H1649 0.949 . S
C1654 C1660 1.368 . S
C1655 C1639 1.349 . S
C1655 H1647 0.950 . S
C1655 C1653 1.327 . S
C1656 C1644 1.349 . S
C1656 H1650 0.950 . S
C1656 C1657 1.327 . S
C1657 H1651 0.950 1_565 S
C1657 C1656 1.327 . S
C1657 C1661 1.429 . S
C1658 C1641 1.574 . S
C1658 H1652 0.949 . S
C1658 C1662 1.368 . S
C1659 C1640 1.429 . S
C1659 C1653 1.429 . S
C1659 C1660 1.523 . S
C1660 C1641 1.368 1_545 S
C1660 C1654 1.368 . S
C1660 C1659 1.523 . S
C1661 C1645 1.429 . S
C1661 C1657 1.429 . S
C1661 C1662 1.523 . S
C1662 C1646 1.368 1_565 S
C1662 C1658 1.368 . S
C1662 C1661 1.523 . S
H1663 C1638 0.950 . S
H1664 C1640 0.950 . S
H1665 C1641 0.949 . S
H1666 C1643 0.950 . S
H1667 C1645 0.950 . S
C1668 C1669 1.349 . S
C1668 C1670 1.327 . S
C1668 H1693 0.950 . S
C1669 C1668 1.349 . S
C1669 C1685 1.349 . S
C1670 C1668 1.327 . S
C1670 C1689 1.429 . S
C1670 H1694 0.950 . S
C1671 C1688 1.574 1_565 S
C1671 C1690 1.368 . S
C1671 H1695 0.949 . S
H1672 C1676 0.949 . S
C1673 C1674 1.349 . S
C1673 C1675 1.327 . S
C1673 H1696 0.950 . S
C1674 C1673 1.349 . S
C1674 C1686 1.349 . S
C1675 C1673 1.327 . S
C1675 C1691 1.429 . S
C1675 H1697 0.950 . S
C1676 H1672 0.949 . S
C1676 C1684 1.574 1_545 S
C1676 C1692 1.368 . S
H1677 C1685 0.950 . S
H1678 C1683 0.950 . S
H1679 C1684 0.949 . S
H1680 C1686 0.950 . S
H1681 C1687 0.950 . S
H1682 C1688 0.949 . S
C1683 H1678 0.950 . S
C1683 C1685 1.327 . S
C1683 C1689 1.429 . S
C1684 C1676 1.574 1_565 S
C1684 H1679 0.949 . S
C1684 C1690 1.368 . S
C1685 C1669 1.349 . S
C1685 H1677 0.950 . S
C1685 C1683 1.327 . S
C1686 C1674 1.349 . S
C1686 H1680 0.950 . S
C1686 C1687 1.327 . S
C1687 H1681 0.950 . S
C1687 C1686 1.327 . S
C1687 C1691 1.429 . S
C1688 C1671 1.574 1_545 S
C1688 H1682 0.949 . S
C1688 C1692 1.368 . S
C1689 C1670 1.429 . S
C1689 C1683 1.429 . S
C1689 C1690 1.523 . S
C1690 C1671 1.368 . S
C1690 C1684 1.368 . S
C1690 C1689 1.523 . S
C1691 C1675 1.429 . S
C1691 C1687 1.429 . S
C1691 C1692 1.523 . S
C1692 C1676 1.368 . S
C1692 C1688 1.368 . S
C1692 C1691 1.523 . S
H1693 C1668 0.950 . S
H1694 C1670 0.950 . S
H1695 C1671 0.949 . S
H1696 C1673 0.950 . S
H1697 C1675 0.950 . S
C1698 C1699 1.349 . S
C1698 C1700 1.327 . S
C1698 H1723 0.950 . S
C1699 C1698 1.349 . S
C1699 C1715 1.349 . S
C1700 C1698 1.327 . S
C1700 C1719 1.429 . S
C1700 H1724 0.950 . S
C1701 C1718 1.574 1_655 S
C1701 C1720 1.368 . S
C1701 H1725 0.949 . S
H1702 C1706 0.949 . S
C1703 C1704 1.349 . S
C1703 C1705 1.327 . S
C1703 H1726 0.950 . S
C1704 C1703 1.349 . S
C1704 C1716 1.349 . S
C1705 C1703 1.327 . S
C1705 C1721 1.429 . S
C1705 H1727 0.950 . S
C1706 H1702 0.949 . S
C1706 C1714 1.574 1_455 S
C1706 C1722 1.368 . S
H1707 C1715 0.950 . S
H1708 C1713 0.950 . S
H1709 C1714 0.949 . S
H1710 C1716 0.950 . S
H1711 C1717 0.950 . S
H1712 C1718 0.949 . S
C1713 H1708 0.950 . S
C1713 C1715 1.327 . S
C1713 C1719 1.429 . S
C1714 C1706 1.574 1_655 S
C1714 H1709 0.949 . S
C1714 C1720 1.368 . S
C1715 C1699 1.349 . S
C1715 H1707 0.950 . S
C1715 C1713 1.327 . S
C1716 C1704 1.349 . S
C1716 H1710 0.950 . S
C1716 C1717 1.327 . S
C1717 H1711 0.950 . S
C1717 C1716 1.327 . S
C1717 C1721 1.429 . S
C1718 C1701 1.574 1_455 S
C1718 H1712 0.949 . S
C1718 C1722 1.368 . S
C1719 C1700 1.429 . S
C1719 C1713 1.429 . S
C1719 C1720 1.523 . S
C1720 C1701 1.368 . S
C1720 C1714 1.368 . S
C1720 C1719 1.523 . S
C1721 C1705 1.429 . S
C1721 C1717 1.429 . S
C1721 C1722 1.523 . S
C1722 C1706 1.368 . S
C1722 C1718 1.368 . S
C1722 C1721 1.523 . S
H1723 C1698 0.950 . S
H1724 C1700 0.950 . S
H1725 C1701 0.949 . S
H1726 C1703 0.950 . S
H1727 C1705 0.950 . S
C529 C358 1.222 . S
C534 C28 1.222 . S
C559 C391 1.222 . S
C564 C61 1.222 . S
C589 C292 1.222 . S
C594 C94 1.222 . S
C619 C325 1.222 . S
C624 C127 1.222 . S
C649 C160 1.222 . S
C654 C490 1.222 . S
C679 C193 1.222 . S
C684 C523 1.222 . S
C709 C424 1.222 . S
C714 C226 1.222 . S
C739 C457 1.222 . S
C744 C259 1.222 . S
C769 C116 1.499 1_545 S
C774 N5 1.474 . S
C799 N38 1.474 . S
C804 C17 1.499 1_655 S
C829 C50 1.499 1_565 S
C834 N71 1.474 . S
C859 N104 1.474 . S
C864 C83 1.499 1_455 S
C889 C182 1.514 . S
C894 N137 1.474 . S
C919 C215 1.514 . S
C924 N170 1.474 . S
C949 C248 1.514 . S
C954 N203 1.474 . S
C979 N236 1.474 . S
C984 C149 1.514 . S
C1009 N269 1.474 . S
C1014 C380 1.499 1_565 S
C1039 N302 1.474 . S
C1044 C281 1.499 1_455 S
C1069 C314 1.499 1_545 S
C1074 N335 1.474 . S
C1099 N368 1.474 . S
C1104 C347 1.499 1_655 S
C1129 N401 1.474 . S
C1134 C446 1.514 . S
C1159 N434 1.474 . S
C1164 C479 1.514 . S
C1189 N467 1.474 . S
C1194 C512 1.514 . S
C1219 C413 1.514 . S
C1224 N500 1.474 . S
C1249 C239 0.687 . S
C1254 C8 0.687 . S
C1279 C41 0.687 . S
C1284 C140 0.687 . S
C1309 C173 0.687 . S
C1314 C74 0.687 . S
C1339 C206 0.687 . S
C1344 C107 0.687 . S
C1369 C272 0.687 . S
C1374 C503 0.687 . S
C1399 C404 0.687 . S
C1404 C305 0.687 . S
C1429 C338 0.687 . S
C1434 C437 0.687 . S
C1459 C470 0.687 . S
C1464 C371 0.687 . S
C1489 N80 1.683 . S
C1494 N14 1.683 . S
C1519 N113 1.683 . S
C1524 N47 1.683 . S
C1549 N146 1.683 . S
C1554 N212 1.683 . S
C1579 N179 1.683 . S
C1584 N245 1.683 . S
C1609 N278 1.683 . S
C1614 N344 1.683 . S
C1639 N377 1.683 . S
C1644 N311 1.683 . S
C1669 N410 1.683 . S
C1674 N476 1.683 . S
C1699 N509 1.683 . S
C1704 N443 1.683 . S
