# Generated by pormake.
# Topology can, (4)-cn, num edge types: 1
# Building blocks:
#     Node 0, Type 0, BuildingBlock: ICAMEG_clean_sbu_1, # of connection points: 4
#     Node 1, Type 0, BuildingBlock: ICAMEG_clean_sbu_1, # of connection points: 4
#     Node 2, Type 0, BuildingBlock: ICAMEG_clean_sbu_1, # of connection points: 4
#     Node 3, Type 0, BuildingBlock: ICAMEG_clean_sbu_1, # of connection points: 4
#     Node 4, Type 0, BuildingBlock: ICAMEG_clean_sbu_1, # of connection points: 4
#     Node 5, Type 0, BuildingBlock: ICAMEG_clean_sbu_1, # of connection points: 4
#     Node 6, Type 0, BuildingBlock: ICAMEG_clean_sbu_1, # of connection points: 4
#     Node 7, Type 0, BuildingBlock: ICAMEG_clean_sbu_1, # of connection points: 4
#     Node 8, Type 0, BuildingBlock: ICAMEG_clean_sbu_1, # of connection points: 4
#     Node 9, Type 0, BuildingBlock: ICAMEG_clean_sbu_1, # of connection points: 4
#     Node 10, Type 0, BuildingBlock: ICAMEG_clean_sbu_1, # of connection points: 4
#     Node 11, Type 0, BuildingBlock: ICAMEG_clean_sbu_1, # of connection points: 4
#     Edge 12, Type (0, 0), BuildingBlock: UVAHIK_clean_linker_0, # of connection points: 2
#     Edge 13, Type (0, 0), BuildingBlock: UVAHIK_clean_linker_0, # of connection points: 2
#     Edge 14, Type (0, 0), BuildingBlock: UVAHIK_clean_linker_0, # of connection points: 2
#     Edge 15, Type (0, 0), BuildingBlock: UVAHIK_clean_linker_0, # of connection points: 2
#     Edge 16, Type (0, 0), BuildingBlock: UVAHIK_clean_linker_0, # of connection points: 2
#     Edge 17, Type (0, 0), BuildingBlock: UVAHIK_clean_linker_0, # of connection points: 2
#     Edge 18, Type (0, 0), BuildingBlock: UVAHIK_clean_linker_0, # of connection points: 2
#     Edge 19, Type (0, 0), BuildingBlock: UVAHIK_clean_linker_0, # of connection points: 2
#     Edge 20, Type (0, 0), BuildingBlock: UVAHIK_clean_linker_0, # of connection points: 2
#     Edge 21, Type (0, 0), BuildingBlock: UVAHIK_clean_linker_0, # of connection points: 2
#     Edge 22, Type (0, 0), BuildingBlock: UVAHIK_clean_linker_0, # of connection points: 2
#     Edge 23, Type (0, 0), BuildingBlock: UVAHIK_clean_linker_0, # of connection points: 2
#     Edge 24, Type (0, 0), BuildingBlock: UVAHIK_clean_linker_0, # of connection points: 2
#     Edge 25, Type (0, 0), BuildingBlock: UVAHIK_clean_linker_0, # of connection points: 2
#     Edge 26, Type (0, 0), BuildingBlock: UVAHIK_clean_linker_0, # of connection points: 2
#     Edge 27, Type (0, 0), BuildingBlock: UVAHIK_clean_linker_0, # of connection points: 2
#     Edge 28, Type (0, 0), BuildingBlock: UVAHIK_clean_linker_0, # of connection points: 2
#     Edge 29, Type (0, 0), BuildingBlock: UVAHIK_clean_linker_0, # of connection points: 2
#     Edge 30, Type (0, 0), BuildingBlock: UVAHIK_clean_linker_0, # of connection points: 2
#     Edge 31, Type (0, 0), BuildingBlock: UVAHIK_clean_linker_0, # of connection points: 2
#     Edge 32, Type (0, 0), BuildingBlock: UVAHIK_clean_linker_0, # of connection points: 2
#     Edge 33, Type (0, 0), BuildingBlock: UVAHIK_clean_linker_0, # of connection points: 2
#     Edge 34, Type (0, 0), BuildingBlock: UVAHIK_clean_linker_0, # of connection points: 2
#     Edge 35, Type (0, 0), BuildingBlock: UVAHIK_clean_linker_0, # of connection points: 2
# Relax obj value: 0.053
# Max RMSD: 0.076
# Mean RMSD: 0.076
data_MOF--net-can--node1-ICAMEG_clean_sbu_1--edge1-UVAHIK_clean_linker_0
_symmetry_space_group_name_H-M    P1
_symmetry_Int_Tables_number       1
_symmetry_cell_setting            triclinic
loop_
_symmetry_equiv_pos_as_xyz
'x, y, z'
_cell_length_a     72.291831
_cell_length_b     72.302244
_cell_length_c     38.687845
_cell_angle_alpha  90.006072
_cell_angle_beta   89.993832
_cell_angle_gamma 119.99601
loop_
_atom_site_label
_atom_site_type_symbol
_atom_site_fract_x
_atom_site_fract_y
_atom_site_fract_z
_atom_type_partial_charge
Co0 Co 0.02956 0.37782 0.24725 0.0
Co1 Co 0.07995 0.41437 0.21828 0.0
O2 O 0.06078 0.39167 0.25018 0.0
C3 C 0.03814 0.39134 0.3205 0.0
O4 O 0.05433 0.40957 0.31021 0.0
C5 C 0.09669 0.38388 0.21994 0.0
O6 O 0.07708 0.36778 0.22193 0.0
O7 O 0.0647 0.39626 0.17753 0.0
O8 O 0.03068 0.37849 0.19567 0.0
H9 H 0.09738 0.46221 0.11475 0.0
H10 H 0.04845 0.3577 0.29043 0.0
O11 O 0.02717 0.37669 0.29875 0.0
H12 H 0.00617 0.30408 0.20167 0.0
H13 H 0.95413 0.32465 0.28205 0.0
H14 H 0.99944 0.38474 0.20475 0.0
H15 H 0.00756 0.33885 0.20291 0.0
H16 H 0.99339 0.34183 0.28474 0.0
O17 O 0.10021 0.40296 0.21795 0.0
H18 H 0.07363 0.43407 0.15553 0.0
H19 H 0.12728 0.44235 0.21311 0.0
H20 H 0.96023 0.3679 0.20098 0.0
H21 H 0.04728 0.323 0.29044 0.0
H22 H 0.93731 0.33763 0.23984 0.0
H23 H 0.02608 0.29594 0.24573 0.0
O24 O 0.03105 0.40601 0.2481 0.0
H25 H 0.11569 0.42904 0.33442 0.0
H26 H 0.09418 0.45937 0.23882 0.0
H27 H 0.11224 0.48159 0.28978 0.0
H28 H 0.12318 0.46646 0.33802 0.0
H29 H 0.09736 0.40728 0.28314 0.0
H30 H 0.15162 0.47045 0.1728 0.0
H31 H 0.13668 0.48061 0.12327 0.0
O32 O 0.06078 0.427 0.21787 0.0
C33 C 0.04473 0.38446 0.17189 0.0
C34 C 0.10408 0.45797 0.13629 0.0
C35 C 0.13452 0.46258 0.16885 0.0
N36 N 0.09905 0.43668 0.18681 0.0
C37 C 0.09071 0.44209 0.15951 0.0
C38 C 0.12066 0.44662 0.19154 0.0
C39 C 0.12613 0.46827 0.14107 0.0
C40 C 0.03902 0.34591 0.27112 0.0
N41 N 0.02808 0.35029 0.24673 0.0
C42 C 0.03849 0.32634 0.27116 0.0
C43 C 0.02663 0.31118 0.24602 0.0
C44 C 0.01547 0.31574 0.22127 0.0
C45 C 0.0164 0.3355 0.22201 0.0
C46 C 0.96395 0.3378 0.26493 0.0
C47 C 0.98956 0.37149 0.22159 0.0
C48 C 0.98619 0.34761 0.26637 0.0
N49 N 0.99868 0.36416 0.24472 0.0
C50 C 0.96737 0.36206 0.2194 0.0
C51 C 0.95452 0.34509 0.24123 0.0
C52 C 0.04361 0.42351 0.23289 0.0
C53 C 0.11107 0.43583 0.31352 0.0
C54 C 0.0988 0.45262 0.25975 0.0
C55 C 0.10908 0.46531 0.28851 0.0
C56 C 0.11523 0.45682 0.31555 0.0
N57 N 0.09479 0.43205 0.25793 0.0
C58 C 0.10077 0.42362 0.28434 0.0
Co59 Co 0.65304 0.02867 0.75009 0.0
Co60 Co 0.66687 0.07862 0.72024 0.0
O61 O 0.67033 0.0598 0.75279 0.0
C62 C 0.64839 0.0375 0.82326 0.0
O63 O 0.64598 0.05344 0.81278 0.0
C64 C 0.71413 0.09593 0.72089 0.0
O65 O 0.71093 0.07659 0.71584 0.0
O66 O 0.67077 0.06355 0.68015 0.0
O67 O 0.65327 0.02959 0.69851 0.0
H68 H 0.63803 0.09562 0.61423 0.0
H69 H 0.69264 0.04846 0.79181 0.0
O70 O 0.65212 0.02652 0.80161 0.0
H71 H 0.70309 0.00494 0.70426 0.0
H72 H 0.63091 0.95338 0.78552 0.0
H73 H 0.6158 0.99841 0.7081 0.0
H74 H 0.66955 0.006 0.70629 0.0
H75 H 0.65302 0.99264 0.78778 0.0
O76 O 0.69837 0.09916 0.72221 0.0
H77 H 0.64201 0.07206 0.65595 0.0
H78 H 0.68568 0.12586 0.71501 0.0
H79 H 0.5934 0.9592 0.70476 0.0
H80 H 0.7264 0.04771 0.79092 0.0
H81 H 0.60091 0.93641 0.74367 0.0
H82 H 0.7318 0.02587 0.74684 0.0
O83 O 0.62642 0.0303 0.75118 0.0
H84 H 0.68507 0.11439 0.83655 0.0
H85 H 0.63509 0.09205 0.73816 0.0
H86 H 0.62949 0.10982 0.78816 0.0
H87 H 0.65462 0.12117 0.8378 0.0
H88 H 0.68993 0.09631 0.78623 0.0
H89 H 0.68229 0.15002 0.67379 0.0
H90 H 0.65827 0.13491 0.62303 0.0
O91 O 0.63512 0.059 0.71815 0.0
C92 C 0.66205 0.0435 0.67468 0.0
C93 C 0.64851 0.1024 0.63629 0.0
C94 C 0.67337 0.13293 0.6697 0.0
N95 N 0.66395 0.09756 0.688 0.0
C96 C 0.65079 0.08913 0.66005 0.0
C97 C 0.67526 0.11917 0.69291 0.0
C98 C 0.65988 0.12444 0.64123 0.0
C99 C 0.69482 0.03878 0.77275 0.0
N100 N 0.67913 0.02724 0.74921 0.0
C101 C 0.71399 0.03848 0.77229 0.0
C102 C 0.71702 0.02625 0.74751 0.0
C103 C 0.70093 0.01451 0.7236 0.0
C104 C 0.68199 0.01523 0.72481 0.0
C105 C 0.62751 0.96314 0.76838 0.0
C106 C 0.61924 0.98859 0.72497 0.0
C107 C 0.63995 0.98538 0.76958 0.0
N108 N 0.63581 0.99779 0.74789 0.0
C109 C 0.60647 0.9664 0.72302 0.0
C110 C 0.61068 0.95362 0.74489 0.0
C111 C 0.62146 0.04241 0.73451 0.0
C112 C 0.67404 0.10956 0.81504 0.0
C113 C 0.64603 0.09682 0.75973 0.0
C114 C 0.64282 0.10695 0.78793 0.0
C115 C 0.65693 0.11333 0.81575 0.0
N116 N 0.66285 0.09317 0.75922 0.0
C117 C 0.67677 0.09941 0.7864 0.0
Co118 Co 0.62809 0.65323 0.25129 0.0
Co119 Co 0.59145 0.66701 0.223 0.0
O120 O 0.6142 0.67052 0.25462 0.0
C121 C 0.61468 0.64812 0.32452 0.0
O122 O 0.59636 0.64584 0.31416 0.0
C123 C 0.62182 0.7142 0.22307 0.0
O124 O 0.63794 0.71068 0.2213 0.0
O125 O 0.60959 0.67022 0.18208 0.0
O126 O 0.62725 0.65376 0.19973 0.0
H127 H 0.54374 0.63731 0.11915 0.0
H128 H 0.64805 0.69241 0.29407 0.0
O129 O 0.62939 0.65197 0.30279 0.0
H130 H 0.70167 0.70376 0.20527 0.0
H131 H 0.6815 0.63112 0.28525 0.0
H132 H 0.62118 0.61632 0.20846 0.0
H133 H 0.66705 0.67021 0.20692 0.0
H134 H 0.66422 0.65311 0.28837 0.0
O135 O 0.60271 0.6986 0.22357 0.0
H136 H 0.57192 0.64151 0.1597 0.0
H137 H 0.56313 0.68601 0.21889 0.0
H138 H 0.63811 0.59406 0.20426 0.0
H139 H 0.68257 0.72614 0.2936 0.0
H140 H 0.6685 0.60141 0.24286 0.0
H141 H 0.70963 0.73199 0.24888 0.0
O142 O 0.59991 0.62647 0.25223 0.0
H143 H 0.57656 0.68715 0.33976 0.0
H144 H 0.54652 0.63583 0.24342 0.0
H145 H 0.52426 0.63118 0.29456 0.0
H146 H 0.53925 0.65698 0.34317 0.0
H147 H 0.59837 0.69107 0.2883 0.0
H148 H 0.53499 0.68242 0.17883 0.0
H149 H 0.52507 0.65786 0.1286 0.0
O150 O 0.57899 0.63525 0.22187 0.0
C151 C 0.62132 0.662 0.17615 0.0
C152 C 0.54788 0.64802 0.14099 0.0
C153 C 0.54299 0.67336 0.17446 0.0
N154 N 0.56908 0.66389 0.19174 0.0
C155 C 0.56379 0.65042 0.16408 0.0
C156 C 0.55898 0.67537 0.19701 0.0
C157 C 0.53743 0.65957 0.14629 0.0
C158 C 0.65983 0.69478 0.27474 0.0
N159 N 0.65556 0.67936 0.25061 0.0
C160 C 0.67931 0.71394 0.27451 0.0
C161 C 0.69447 0.71722 0.24938 0.0
C162 C 0.69001 0.7014 0.22488 0.0
C163 C 0.67034 0.68246 0.22587 0.0
C164 C 0.6683 0.62779 0.26824 0.0
C165 C 0.63448 0.6197 0.22519 0.0
C166 C 0.65843 0.64016 0.26993 0.0
N167 N 0.64182 0.6361 0.24842 0.0
C168 C 0.64397 0.607 0.22276 0.0
C169 C 0.661 0.61112 0.24445 0.0
C170 C 0.58246 0.62155 0.23686 0.0
C171 C 0.56983 0.67584 0.31871 0.0
C172 C 0.55321 0.64708 0.26452 0.0
C173 C 0.5405 0.64439 0.29338 0.0
C174 C 0.54891 0.65889 0.32063 0.0
N175 N 0.57372 0.66376 0.26281 0.0
C176 C 0.58207 0.67803 0.28943 0.0
Co177 Co 0.9784 0.62672 0.7488 0.0
Co178 Co 0.92825 0.591 0.71795 0.0
O179 O 0.94718 0.61322 0.75071 0.0
C180 C 0.96876 0.61269 0.82177 0.0
O181 O 0.95248 0.59466 0.81104 0.0
C182 C 0.91206 0.62191 0.71984 0.0
O183 O 0.93173 0.63782 0.7225 0.0
O184 O 0.94417 0.60945 0.67786 0.0
O185 O 0.97793 0.62654 0.69722 0.0
H186 H 0.91157 0.54417 0.61325 0.0
H187 H 0.95941 0.6469 0.79164 0.0
O188 O 0.98014 0.62738 0.80035 0.0
H189 H 1.00337 0.7011 0.7047 0.0
H190 H 0.05361 0.67879 0.78622 0.0
H191 H 0.0087 0.61964 0.70708 0.0
H192 H 1.00142 0.66607 0.70552 0.0
H193 H 0.01437 0.66209 0.78764 0.0
O194 O 0.90831 0.60278 0.71735 0.0
H195 H 0.93503 0.57172 0.65506 0.0
H196 H 0.88094 0.56358 0.71115 0.0
H197 H 0.04789 0.636 0.70459 0.0
H198 H 0.96113 0.68186 0.79206 0.0
H199 H 0.07062 0.6658 0.74437 0.0
H200 H 0.98317 0.7092 0.74826 0.0
O201 O 0.97646 0.59833 0.74931 0.0
H202 H 0.89104 0.57546 0.83291 0.0
H203 H 0.91322 0.54566 0.73739 0.0
H204 H 0.89429 0.52297 0.78749 0.0
H205 H 0.88302 0.53784 0.83568 0.0
H206 H 0.91024 0.59767 0.78249 0.0
H207 H 0.85689 0.53606 0.66979 0.0
H208 H 0.87219 0.52613 0.62049 0.0
O209 O 0.94711 0.578 0.71781 0.0
C210 C 0.96425 0.62105 0.67296 0.0
C211 C 0.90471 0.54831 0.63468 0.0
C212 C 0.87402 0.54378 0.66639 0.0
N213 N 0.90938 0.56915 0.68565 0.0
C214 C 0.91792 0.56386 0.65849 0.0
C215 C 0.88772 0.55941 0.68968 0.0
C216 C 0.88262 0.53821 0.63874 0.0
C217 C 0.9692 0.65881 0.77273 0.0
N218 N 0.9803 0.65445 0.74861 0.0
C219 C 0.97004 0.67853 0.773 0.0
C220 C 0.98238 0.69386 0.74837 0.0
C221 C 0.99369 0.68931 0.7239 0.0
C222 C 0.99245 0.6694 0.72439 0.0
C223 C 0.04388 0.66585 0.7687 0.0
C224 C 0.01849 0.63269 0.72433 0.0
C225 C 0.02165 0.65631 0.76942 0.0
N226 N 0.00927 0.64002 0.74726 0.0
C227 C 0.04067 0.64185 0.72286 0.0
C228 C 0.05342 0.65856 0.74521 0.0
C229 C 0.96397 0.58108 0.73342 0.0
C230 C 0.89581 0.56878 0.81202 0.0
C231 C 0.90846 0.55229 0.75831 0.0
C232 C 0.89769 0.53934 0.78658 0.0
C233 C 0.89135 0.54768 0.81359 0.0
N234 N 0.91276 0.57297 0.75694 0.0
C235 C 0.9066 0.58125 0.78333 0.0
Co236 Co 0.35385 0.97715 0.25102 0.0
Co237 Co 0.34065 0.92688 0.22291 0.0
O238 O 0.33686 0.94597 0.25448 0.0
C239 C 0.35909 0.96918 0.32439 0.0
O240 O 0.36159 0.95324 0.31425 0.0
C241 C 0.29337 0.90951 0.22293 0.0
O242 O 0.29665 0.92905 0.22085 0.0
O243 O 0.33713 0.94158 0.18194 0.0
O244 O 0.35338 0.97571 0.19946 0.0
H245 H 0.37073 0.90929 0.11908 0.0
H246 H 0.31462 0.95762 0.2937 0.0
O247 O 0.35505 0.97982 0.3025 0.0
H248 H 0.30271 0.99929 0.20452 0.0
H249 H 0.37507 0.05251 0.28454 0.0
H250 H 0.39067 0.00736 0.20821 0.0
H251 H 0.3365 0.99868 0.20638 0.0
H252 H 0.35345 0.01324 0.2878 0.0
O253 O 0.30912 0.90624 0.22362 0.0
H254 H 0.36617 0.93308 0.15955 0.0
H255 H 0.3222 0.87963 0.21898 0.0
H256 H 0.41258 0.04658 0.20387 0.0
H257 H 0.28066 0.95795 0.29302 0.0
H258 H 0.40482 0.06943 0.24222 0.0
H259 H 0.27452 0.97885 0.24811 0.0
O260 O 0.38079 0.97609 0.25212 0.0
H261 H 0.32104 0.89202 0.33983 0.0
H262 H 0.37228 0.91373 0.24329 0.0
H263 H 0.37731 0.89642 0.29448 0.0
H264 H 0.35155 0.88538 0.34319 0.0
H265 H 0.31675 0.90962 0.28831 0.0
H266 H 0.32615 0.85526 0.179 0.0
H267 H 0.35062 0.87007 0.12869 0.0
O268 O 0.37236 0.94651 0.22166 0.0
C269 C 0.3452 0.9615 0.17593 0.0
C270 C 0.36006 0.90264 0.14095 0.0
C271 C 0.33501 0.87232 0.17456 0.0
N272 N 0.34403 0.90777 0.1917 0.0
C273 C 0.35745 0.91604 0.164 0.0
C274 C 0.3328 0.8862 0.19706 0.0
C275 C 0.34876 0.88064 0.14634 0.0
C276 C 0.31213 0.9669 0.27428 0.0
N277 N 0.32753 0.97815 0.25018 0.0
C278 C 0.29284 0.96696 0.27394 0.0
C279 C 0.28939 0.97866 0.2487 0.0
C280 C 0.3052 0.99012 0.22422 0.0
C281 C 0.32427 0.98966 0.22533 0.0
C282 C 0.37858 0.04273 0.26763 0.0
C283 C 0.38712 0.01721 0.22484 0.0
C284 C 0.36642 0.02048 0.2694 0.0
N285 N 0.37069 0.00803 0.24802 0.0
C286 C 0.39961 0.0394 0.22233 0.0
C287 C 0.39527 0.05221 0.24388 0.0
C288 C 0.38592 0.96372 0.23672 0.0
C289 C 0.33234 0.8967 0.31873 0.0
C290 C 0.36106 0.90908 0.26444 0.0
C291 C 0.36395 0.89922 0.29332 0.0
C292 C 0.34948 0.89301 0.32062 0.0
N293 N 0.34419 0.91263 0.26276 0.0
C294 C 0.32994 0.90658 0.28942 0.0
Co295 Co 0.38068 0.35152 0.75111 0.0
Co296 Co 0.41569 0.33583 0.72113 0.0
O297 O 0.39361 0.33331 0.75355 0.0
C298 C 0.39499 0.35636 0.82396 0.0
O299 O 0.4128 0.35764 0.8131 0.0
C300 C 0.38346 0.28922 0.7227 0.0
O301 O 0.36819 0.29398 0.72445 0.0
O302 O 0.39773 0.33391 0.68065 0.0
O303 O 0.38066 0.35072 0.69956 0.0
H304 H 0.46335 0.36479 0.61709 0.0
H305 H 0.36003 0.31279 0.79492 0.0
O306 O 0.38026 0.35314 0.80266 0.0
H307 H 0.30586 0.3028 0.70808 0.0
H308 H 0.32988 0.37648 0.78768 0.0
H309 H 0.38835 0.38871 0.70837 0.0
H310 H 0.34123 0.33548 0.70817 0.0
H311 H 0.34589 0.35333 0.78981 0.0
O312 O 0.40292 0.30395 0.72066 0.0
H313 H 0.43595 0.36167 0.65843 0.0
H314 H 0.44183 0.31451 0.71497 0.0
H315 H 0.37267 0.41213 0.70515 0.0
H316 H 0.32475 0.27996 0.79607 0.0
H317 H 0.34322 0.40607 0.74501 0.0
H318 H 0.29741 0.27478 0.75232 0.0
O319 O 0.40934 0.37762 0.75099 0.0
H320 H 0.42954 0.31332 0.83664 0.0
H321 H 0.46118 0.36502 0.7411 0.0
H322 H 0.48332 0.36808 0.79162 0.0
H323 H 0.46752 0.34207 0.83983 0.0
H324 H 0.40789 0.31099 0.78581 0.0
H325 H 0.46917 0.31701 0.67409 0.0
H326 H 0.48016 0.34235 0.6248 0.0
O327 O 0.42958 0.36777 0.72097 0.0
C328 C 0.38622 0.34247 0.67547 0.0
C329 C 0.45874 0.35373 0.63852 0.0
C330 C 0.46199 0.3269 0.67049 0.0
N331 N 0.43741 0.33804 0.68921 0.0
C332 C 0.44328 0.35194 0.66206 0.0
C333 C 0.44647 0.32552 0.69351 0.0
C334 C 0.46815 0.34112 0.64285 0.0
C335 C 0.34813 0.31074 0.77604 0.0
N336 N 0.35268 0.32603 0.75154 0.0
C337 C 0.32822 0.29208 0.77671 0.0
C338 C 0.31291 0.28916 0.75212 0.0
C339 C 0.31765 0.30486 0.72726 0.0
C340 C 0.33774 0.3233 0.72734 0.0
C341 C 0.34267 0.37925 0.77012 0.0
C342 C 0.37545 0.3859 0.72565 0.0
C343 C 0.35183 0.36622 0.77124 0.0
N344 N 0.36793 0.36957 0.74904 0.0
C345 C 0.36667 0.39924 0.72377 0.0
C346 C 0.35016 0.39585 0.74617 0.0
C347 C 0.42667 0.3819 0.73578 0.0
C348 C 0.43662 0.32471 0.81575 0.0
C349 C 0.45415 0.35369 0.76202 0.0
C350 C 0.46679 0.35547 0.79053 0.0
C351 C 0.45792 0.34086 0.81755 0.0
N352 N 0.43327 0.33778 0.76043 0.0
C353 C 0.42447 0.3234 0.78683 0.0
Co354 Co 0.6285 0.97797 0.2517 0.0
Co355 Co 0.59178 0.92774 0.28003 0.0
O356 O 0.6143 0.94684 0.24808 0.0
C357 C 0.61469 0.96986 0.17874 0.0
O358 O 0.59632 0.95404 0.1894 0.0
C359 C 0.62153 0.91018 0.27905 0.0
O360 O 0.63771 0.92943 0.28464 0.0
O361 O 0.61054 0.94227 0.32057 0.0
O362 O 0.62787 0.97646 0.30326 0.0
H363 H 0.54534 0.90978 0.38549 0.0
H364 H 0.64779 0.95822 0.20858 0.0
O365 O 0.62959 0.98062 0.20022 0.0
H366 H 0.70212 1.00019 0.29662 0.0
H367 H 0.68231 0.05336 0.21785 0.0
H368 H 0.62219 0.00812 0.29519 0.0
H369 H 0.66775 0.99966 0.29546 0.0
H370 H 0.66466 0.01409 0.21446 0.0
O371 O 0.60258 0.90708 0.27751 0.0
H372 H 0.57321 0.93372 0.34449 0.0
H373 H 0.56309 0.88049 0.28381 0.0
H374 H 0.6395 0.04733 0.29967 0.0
H375 H 0.68203 0.95843 0.20861 0.0
H376 H 0.66979 0.07023 0.26081 0.0
H377 H 0.70945 0.97949 0.25292 0.0
O378 O 0.60046 0.97683 0.25134 0.0
H379 H 0.57478 0.89328 0.16269 0.0
H380 H 0.54677 0.91482 0.2616 0.0
H381 H 0.52369 0.89774 0.21104 0.0
H382 H 0.53765 0.88679 0.16114 0.0
H383 H 0.59743 0.91067 0.21358 0.0
H384 H 0.53522 0.85596 0.32429 0.0
H385 H 0.52613 0.87059 0.37549 0.0
O386 O 0.57983 0.94749 0.28268 0.0
C387 C 0.62224 0.96222 0.32665 0.0
C388 C 0.54911 0.90321 0.36322 0.0
C389 C 0.54346 0.87301 0.3289 0.0
N390 N 0.56967 0.90852 0.31167 0.0
C391 C 0.56485 0.91669 0.33987 0.0
C392 C 0.55929 0.88697 0.30611 0.0
C393 C 0.53836 0.88123 0.35761 0.0
C394 C 0.65972 0.96755 0.22776 0.0
N395 N 0.65581 0.97897 0.2519 0.0
C396 C 0.67904 0.96755 0.22773 0.0
C397 C 0.69441 0.97935 0.25263 0.0
C398 C 0.6903 0.99095 0.27717 0.0
C399 C 0.67079 0.99055 0.27644 0.0
C400 C 0.66916 0.04356 0.23498 0.0
C401 C 0.63545 0.01799 0.27834 0.0
C402 C 0.65907 0.02131 0.23314 0.0
N403 N 0.64253 0.00884 0.2548 0.0
C404 C 0.64515 0.04018 0.28093 0.0
C405 C 0.66213 0.05301 0.25909 0.0
C406 C 0.5832 0.96456 0.26743 0.0
C407 C 0.56849 0.89793 0.18431 0.0
C408 C 0.55302 0.91022 0.23993 0.0
C409 C 0.53984 0.90049 0.21141 0.0
C410 C 0.54768 0.89433 0.18344 0.0
N411 N 0.57343 0.91371 0.2406 0.0
C412 C 0.58121 0.9077 0.21328 0.0
Co413 Co 0.65347 0.62657 0.75244 0.0
Co414 Co 0.66897 0.59158 0.78278 0.0
O415 O 0.67186 0.6138 0.7503 0.0
C416 C 0.64973 0.61333 0.67908 0.0
O417 O 0.64834 0.59537 0.68933 0.0
C418 C 0.71607 0.62293 0.7802 0.0
O419 O 0.71222 0.63872 0.77636 0.0
O420 O 0.67113 0.60975 0.82306 0.0
O421 O 0.65347 0.62591 0.80404 0.0
H422 H 0.63943 0.54426 0.88708 0.0
H423 H 0.6928 0.64809 0.71011 0.0
O424 O 0.65265 0.62771 0.70091 0.0
H425 H 0.70107 0.70089 0.79841 0.0
H426 H 0.62865 0.67753 0.71622 0.0
H427 H 0.61552 0.61807 0.79383 0.0
H428 H 0.66863 0.66537 0.79676 0.0
H429 H 0.65203 0.66177 0.71446 0.0
O430 O 0.70076 0.60382 0.78349 0.0
H431 H 0.64302 0.57176 0.84557 0.0
H432 H 0.68957 0.56477 0.78913 0.0
H433 H 0.59185 0.63348 0.79665 0.0
H434 H 0.7254 0.68356 0.71049 0.0
H435 H 0.59836 0.66343 0.75764 0.0
H436 H 0.72972 0.71021 0.75498 0.0
O437 O 0.6275 0.59783 0.7511 0.0
H438 H 0.6912 0.57714 0.66746 0.0
H439 H 0.63933 0.54615 0.76292 0.0
H440 H 0.63603 0.52383 0.71253 0.0
H441 H 0.66212 0.5393 0.66437 0.0
H442 H 0.69377 0.59898 0.71816 0.0
H443 H 0.6866 0.53733 0.83018 0.0
H444 H 0.66132 0.52684 0.87951 0.0
O445 O 0.63705 0.57804 0.7829 0.0
C446 C 0.66204 0.62077 0.82818 0.0
C447 C 0.65045 0.54865 0.86563 0.0
C448 C 0.67695 0.54477 0.83372 0.0
N449 N 0.66637 0.56976 0.81482 0.0
C450 C 0.65252 0.56417 0.84199 0.0
C451 C 0.67859 0.56036 0.8106 0.0
C452 C 0.66276 0.5389 0.86138 0.0
C453 C 0.69448 0.65969 0.72932 0.0
N454 N 0.67884 0.65466 0.75338 0.0
C455 C 0.71301 0.67971 0.72951 0.0
C456 C 0.71544 0.69464 0.75452 0.0
C457 C 0.69939 0.6894 0.77893 0.0
C458 C 0.68109 0.66922 0.77797 0.0
C459 C 0.62568 0.66452 0.7334 0.0
C460 C 0.61852 0.63118 0.77692 0.0
C461 C 0.63884 0.6555 0.73249 0.0
N462 N 0.63524 0.63913 0.75422 0.0
C463 C 0.60504 0.63981 0.77857 0.0
C464 C 0.60869 0.6566 0.75665 0.0
C465 C 0.62308 0.58066 0.76696 0.0
C466 C 0.67978 0.5702 0.68833 0.0
C467 C 0.6507 0.55304 0.74202 0.0
C468 C 0.64878 0.5403 0.71358 0.0
C469 C 0.66344 0.54898 0.68659 0.0
N470 N 0.66679 0.57385 0.74357 0.0
C471 C 0.68121 0.58246 0.71719 0.0
Co472 Co 0.0294 0.65189 0.25016 0.0
Co473 Co 0.0797 0.66524 0.27787 0.0
O474 O 0.06052 0.66874 0.24619 0.0
C475 C 0.03708 0.64607 0.17701 0.0
O476 O 0.05289 0.64343 0.18739 0.0
C477 C 0.09743 0.71256 0.27703 0.0
O478 O 0.0782 0.70954 0.28272 0.0
O479 O 0.06539 0.66957 0.31862 0.0
O480 O 0.03113 0.65277 0.3017 0.0
H481 H 0.0979 0.63666 0.38292 0.0
H482 H 0.04906 0.69092 0.20705 0.0
O483 O 0.0265 0.65033 0.1987 0.0
H484 H 0.00763 0.70347 0.29587 0.0
H485 H 0.9539 0.63058 0.21739 0.0
H486 H 0.99935 0.61547 0.29382 0.0
H487 H 0.00801 0.66957 0.29441 0.0
H488 H 0.99317 0.65207 0.21351 0.0
O489 O 0.10045 0.69668 0.27529 0.0
H490 H 0.07388 0.64071 0.34227 0.0
H491 H 0.12695 0.6836 0.28111 0.0
H492 H 0.96015 0.5937 0.29879 0.0
H493 H 0.04899 0.72502 0.20736 0.0
H494 H 0.93715 0.60121 0.26038 0.0
H495 H 0.02821 0.73148 0.25208 0.0
O496 O 0.03044 0.62494 0.24955 0.0
H497 H 0.11365 0.6825 0.16014 0.0
H498 H 0.09237 0.63301 0.25907 0.0
H499 H 0.10915 0.62688 0.20822 0.0
H500 H 0.11997 0.65176 0.15831 0.0
H501 H 0.09655 0.68789 0.21132 0.0
H502 H 0.15156 0.68015 0.32124 0.0
H503 H 0.13705 0.65647 0.37251 0.0
O504 O 0.05987 0.63357 0.28059 0.0
C505 C 0.04549 0.66139 0.32493 0.0
C506 C 0.10441 0.64698 0.36062 0.0
C507 C 0.13453 0.67141 0.32603 0.0
N508 N 0.09899 0.66226 0.30923 0.0
C509 C 0.09089 0.6493 0.33747 0.0
C510 C 0.12052 0.67334 0.30344 0.0
C511 C 0.12638 0.65812 0.35478 0.0
C512 C 0.03984 0.69356 0.2264 0.0
N513 N 0.0285 0.67826 0.25059 0.0
C514 C 0.03992 0.71292 0.22653 0.0
C515 C 0.02828 0.71654 0.25165 0.0
C516 C 0.01674 0.70085 0.27625 0.0
C517 C 0.01706 0.6817 0.27535 0.0
C518 C 0.96375 0.62718 0.23432 0.0
C519 C 0.98944 0.61892 0.27717 0.0
C520 C 0.98599 0.63927 0.2322 0.0
N521 N 0.99853 0.63513 0.25362 0.0
C522 C 0.96726 0.6065 0.28003 0.0
C523 C 0.95436 0.61071 0.25845 0.0
C524 C 0.04274 0.61991 0.26544 0.0
C525 C 0.10906 0.67158 0.18176 0.0
C526 C 0.09691 0.64385 0.2374 0.0
C527 C 0.10648 0.64034 0.20871 0.0
C528 C 0.11257 0.65431 0.18073 0.0
N529 N 0.09351 0.66083 0.23822 0.0
C530 C 0.09946 0.67461 0.21089 0.0
Co531 Co 0.37901 0.02871 0.752 0.0
Co532 Co 0.4143 0.0792 0.78239 0.0
O533 O 0.39214 0.05988 0.74989 0.0
C534 C 0.39329 0.03843 0.67919 0.0
O535 O 0.41113 0.05486 0.69016 0.0
C536 C 0.38235 0.09396 0.7812 0.0
O537 O 0.36697 0.07399 0.7793 0.0
O538 O 0.39628 0.06309 0.82279 0.0
O539 O 0.37904 0.0293 0.80356 0.0
H540 H 0.46195 0.09714 0.8863 0.0
H541 H 0.35854 0.04718 0.70864 0.0
O542 O 0.37855 0.02688 0.70044 0.0
H543 H 0.30433 0.00299 0.79542 0.0
H544 H 0.32777 0.95323 0.71478 0.0
H545 H 0.38644 0.99883 0.7942 0.0
H546 H 0.33958 0.00539 0.79501 0.0
H547 H 0.34404 0.99242 0.71309 0.0
O548 O 0.40176 0.09851 0.78321 0.0
H549 H 0.43443 0.07317 0.84485 0.0
H550 H 0.44076 0.12661 0.789 0.0
H551 H 0.37051 0.9597 0.79698 0.0
H552 H 0.32338 0.04501 0.70781 0.0
H553 H 0.34095 0.93662 0.75705 0.0
H554 H 0.29602 0.02285 0.75153 0.0
O555 O 0.40757 0.03104 0.75187 0.0
H556 H 0.42839 0.11603 0.66728 0.0
H557 H 0.45972 0.09522 0.76228 0.0
H558 H 0.48192 0.11437 0.71185 0.0
H559 H 0.46628 0.12496 0.66392 0.0
H560 H 0.40668 0.09664 0.71801 0.0
H561 H 0.46822 0.15115 0.82998 0.0
H562 H 0.47904 0.13644 0.87898 0.0
O563 O 0.42797 0.06093 0.7822 0.0
C564 C 0.38469 0.04302 0.82778 0.0
C565 C 0.45741 0.10375 0.86499 0.0
C566 C 0.46091 0.13406 0.83341 0.0
N567 N 0.43611 0.09847 0.8144 0.0
C568 C 0.44188 0.09025 0.8414 0.0
C569 C 0.44532 0.12008 0.81033 0.0
C570 C 0.46698 0.12579 0.86089 0.0
C571 C 0.34663 0.03733 0.7275 0.0
N572 N 0.3511 0.02642 0.75181 0.0
C573 C 0.32679 0.03624 0.72701 0.0
C574 C 0.31146 0.02384 0.75159 0.0
C575 C 0.31612 0.01271 0.77625 0.0
C576 C 0.33615 0.01421 0.77599 0.0
C577 C 0.3406 0.96311 0.73236 0.0
C578 C 0.3735 0.98888 0.7769 0.0
C579 C 0.3499 0.98531 0.73149 0.0
N580 N 0.36606 0.99788 0.75373 0.0
C581 C 0.36458 0.96674 0.77852 0.0
C582 C 0.34801 0.9538 0.75609 0.0
C583 C 0.42494 0.04393 0.76715 0.0
C584 C 0.4354 0.11157 0.68805 0.0
C585 C 0.45276 0.09969 0.74148 0.0
C586 C 0.46543 0.11059 0.71302 0.0
C587 C 0.45665 0.11654 0.68615 0.0
N588 N 0.43193 0.09489 0.74317 0.0
C589 C 0.42322 0.10067 0.71692 0.0
Co590 Co 0.3552 0.37773 0.25202 0.0
Co591 Co 0.34016 0.41343 0.28077 0.0
O592 O 0.33726 0.39097 0.24884 0.0
C593 C 0.36017 0.39122 0.1787 0.0
O594 O 0.36178 0.40929 0.18888 0.0
C595 C 0.29295 0.38251 0.27745 0.0
O596 O 0.29656 0.36655 0.27378 0.0
O597 O 0.33748 0.39537 0.32149 0.0
O598 O 0.35451 0.37833 0.30361 0.0
H599 H 0.36935 0.46113 0.38472 0.0
H600 H 0.31645 0.35682 0.20827 0.0
O601 O 0.3567 0.37667 0.20052 0.0
H602 H 0.306 0.30358 0.29719 0.0
H603 H 0.37928 0.32588 0.2177 0.0
H604 H 0.39235 0.38547 0.29497 0.0
H605 H 0.33882 0.33881 0.29638 0.0
H606 H 0.35647 0.34225 0.21467 0.0
O607 O 0.30841 0.40154 0.28083 0.0
H608 H 0.36572 0.43332 0.34387 0.0
H609 H 0.32002 0.44073 0.28566 0.0
H610 H 0.41544 0.36945 0.29907 0.0
H611 H 0.28349 0.32163 0.20781 0.0
H612 H 0.40896 0.33944 0.26023 0.0
H613 H 0.27808 0.29476 0.25261 0.0
O614 O 0.38153 0.40623 0.25137 0.0
H615 H 0.31912 0.4277 0.16431 0.0
H616 H 0.37035 0.45867 0.2606 0.0
H617 H 0.3743 0.48084 0.20968 0.0
H618 H 0.34853 0.46539 0.1611 0.0
H619 H 0.31591 0.406 0.21555 0.0
H620 H 0.32303 0.4685 0.32603 0.0
H621 H 0.3479 0.47893 0.37592 0.0
O622 O 0.37203 0.42663 0.28159 0.0
C623 C 0.34604 0.38393 0.32727 0.0
C624 C 0.3585 0.45677 0.36302 0.0
C625 C 0.33249 0.46089 0.33011 0.0
N626 N 0.3428 0.43551 0.31227 0.0
C627 C 0.35643 0.44107 0.33976 0.0
C628 C 0.33083 0.44512 0.30737 0.0
C629 C 0.34645 0.46674 0.35809 0.0
C630 C 0.31429 0.34512 0.22763 0.0
N631 N 0.32953 0.34987 0.25232 0.0
C632 C 0.29556 0.32526 0.22733 0.0
C633 C 0.29251 0.31021 0.25251 0.0
C634 C 0.30816 0.31516 0.27757 0.0
C635 C 0.32667 0.33519 0.27708 0.0
C636 C 0.38224 0.33892 0.23481 0.0
C637 C 0.38936 0.37233 0.27813 0.0
C638 C 0.3694 0.34827 0.23318 0.0
N639 N 0.37298 0.36469 0.25482 0.0
C640 C 0.40252 0.36336 0.28051 0.0
C641 C 0.39888 0.34653 0.25869 0.0
C642 C 0.38603 0.42357 0.26669 0.0
C643 C 0.3304 0.43464 0.18537 0.0
C644 C 0.35912 0.45178 0.23952 0.0
C645 C 0.3614 0.46444 0.21079 0.0
C646 C 0.34693 0.45577 0.18355 0.0
N647 N 0.34284 0.43107 0.24114 0.0
C648 C 0.3286 0.42245 0.21452 0.0
Co649 Co 0.97777 0.35223 0.74825 0.0
Co650 Co 0.9277 0.33856 0.77817 0.0
O651 O 0.94656 0.33495 0.74579 0.0
C652 C 0.96876 0.3571 0.67526 0.0
O653 O 0.95278 0.35937 0.68601 0.0
C654 C 0.91078 0.29135 0.77786 0.0
O655 O 0.93041 0.29482 0.77914 0.0
O656 O 0.94304 0.33533 0.81851 0.0
O657 O 0.97695 0.35188 0.79983 0.0
H658 H 0.91092 0.36845 0.8831 0.0
H659 H 0.95808 0.31291 0.70582 0.0
O660 O 0.97981 0.35333 0.6967 0.0
H661 H 1.00126 0.30183 0.79319 0.0
H662 H 0.05292 0.37418 0.71216 0.0
H663 H 0.00822 0.38929 0.79038 0.0
H664 H 1.0002 0.33538 0.79181 0.0
H665 H 0.01363 0.35221 0.71008 0.0
O666 O 0.90731 0.30698 0.77777 0.0
H667 H 0.93441 0.36414 0.84163 0.0
H668 H 0.88045 0.31966 0.78368 0.0
H669 H 0.04745 0.41155 0.79354 0.0
H670 H 0.95886 0.27917 0.70603 0.0
H671 H 0.07008 0.40404 0.75422 0.0
H672 H 0.98052 0.27345 0.75003 0.0
O673 O 0.97633 0.37898 0.74754 0.0
H674 H 0.89144 0.31843 0.66236 0.0
H675 H 0.91385 0.3698 0.75878 0.0
H676 H 0.89574 0.37448 0.70836 0.0
H677 H 0.88436 0.34865 0.65972 0.0
H678 H 0.90983 0.31448 0.71309 0.0
H679 H 0.85637 0.32336 0.82467 0.0
H680 H 0.87159 0.34796 0.87474 0.0
O681 O 0.94709 0.37031 0.77911 0.0
C682 C 0.96306 0.34365 0.82382 0.0
C683 C 0.90409 0.35772 0.86134 0.0
C684 C 0.87348 0.33239 0.82857 0.0
N685 N 0.90882 0.34176 0.81017 0.0
C686 C 0.91732 0.35525 0.83773 0.0
C687 C 0.88719 0.33032 0.8055 0.0
C688 C 0.88203 0.34621 0.85665 0.0
C689 C 0.96769 0.3106 0.72483 0.0
N690 N 0.97911 0.3261 0.74871 0.0
C691 C 0.968 0.29144 0.72492 0.0
C692 C 0.98013 0.28822 0.74965 0.0
C693 C 0.99176 0.30413 0.7739 0.0
C694 C 0.99104 0.32307 0.77306 0.0
C695 C 0.04323 0.37758 0.72948 0.0
C696 C 0.01797 0.38585 0.77334 0.0
C697 C 0.02098 0.36522 0.72838 0.0
N698 N 0.00866 0.36936 0.75029 0.0
C699 C 0.04017 0.39854 0.77518 0.0
C700 C 0.05285 0.39433 0.75309 0.0
C701 C 0.96403 0.38396 0.76353 0.0
C702 C 0.89627 0.32975 0.68343 0.0
C703 C 0.90905 0.35854 0.73765 0.0
C704 C 0.89873 0.36124 0.70921 0.0
C705 C 0.89233 0.34673 0.68194 0.0
N706 N 0.91285 0.34183 0.73894 0.0
C707 C 0.9066 0.32754 0.7123 0.0
C708 C 0.01499 0.36545 0.12923 0.0
C709 C 0.03703 0.37793 0.13591 0.0
C710 C 0.00736 0.36024 0.09543 0.0
C711 C 0.02258 0.3782 0.00529 0.0
H712 H 0.97304 0.32338 0.98345 0.0
C713 C 0.99315 0.35418 0.86563 0.0
C714 C 0.97106 0.34492 0.85961 0.0
C715 C 1.00116 0.3569 0.89918 0.0
C716 C 0.98678 0.33882 0.98923 0.0
H717 H 0.06835 0.39429 0.11197 0.0
H718 H 0.05503 0.38486 0.05287 0.0
H719 H 0.98772 0.33029 0.04191 0.0
H720 H 0.94005 0.33079 0.88453 0.0
H721 H 0.95414 0.33555 0.94338 0.0
H722 H 0.02165 0.3867 0.95261 0.0
C723 C 0.04363 0.37941 0.07392 0.0
C724 C 0.99521 0.3428 0.02273 0.0
C725 C 0.05129 0.38469 0.10783 0.0
C726 C 0.95713 0.33793 0.88815 0.0
C727 C 0.96519 0.3406 0.92187 0.0
C728 C 0.01422 0.37417 0.9718 0.0
C729 C 0.02154 0.36728 0.06729 0.0
C730 C 0.01316 0.36259 0.03124 0.0
C731 C 0.98733 0.35041 0.92773 0.0
C732 C 0.99618 0.35447 0.96339 0.0
H733 H 1.00345 0.35996 0.15008 0.0
H734 H 0.99026 0.35117 0.09138 0.0
H735 H 0.03614 0.39376 0.01101 0.0
H736 H 0.00444 0.35969 0.84441 0.0
H737 H 0.01825 0.36417 0.90277 0.0
C738 C 0.62194 0.95531 0.39061 0.0
C739 C 0.62894 0.96967 0.36267 0.0
C740 C 0.62723 0.96285 0.4246 0.0
C741 C 0.66402 0.01096 0.47632 0.0
H742 H 0.61947 0.98511 0.54554 0.0
C743 C 0.66837 0.0494 0.61042 0.0
C744 C 0.66093 0.03548 0.63894 0.0
C745 C 0.66588 0.0413 0.57674 0.0
C746 C 0.63217 0.99237 0.52661 0.0
H747 H 0.64742 0.00328 0.34882 0.0
H748 H 0.65622 0.01623 0.40759 0.0
H749 H 0.61271 0.97056 0.4872 0.0
H750 H 0.64554 1.00207 0.65417 0.0
H751 H 0.64139 0.98821 0.59595 0.0
H752 H 0.68332 0.03304 0.51579 0.0
C753 C 0.64695 0.99915 0.4034 0.0
C754 C 0.62832 0.98397 0.49316 0.0
C755 C 0.64173 0.99166 0.36955 0.0
C756 C 0.6514 0.01336 0.63298 0.0
C757 C 0.64887 0.00533 0.59948 0.0
C758 C 0.66784 0.01944 0.50979 0.0
C759 C 0.6396 0.98489 0.43142 0.0
C760 C 0.64416 0.99319 0.46752 0.0
C761 C 0.65581 0.01914 0.57093 0.0
C762 C 0.65194 0.01025 0.5353 0.0
H763 H 0.6121 0.93829 0.38631 0.0
H764 H 0.62153 0.95139 0.44557 0.0
H765 H 0.6767 0.01829 0.45737 0.0
H766 H 0.67573 0.0665 0.61401 0.0
H767 H 0.67128 0.05236 0.55521 0.0
C768 C 0.62059 0.66805 0.11209 0.0
C769 C 0.62778 0.66092 0.14009 0.0
C770 C 0.62576 0.66566 0.0781 0.0
C771 C 0.66279 0.65475 0.0264 0.0
H772 H 0.6181 0.6354 0.95731 0.0
C773 C 0.66803 0.62118 0.89251 0.0
C774 C 0.66039 0.62737 0.86389 0.0
C775 C 0.66526 0.62661 0.92613 0.0
C776 C 0.63085 0.64103 0.97619 0.0
H777 H 0.64643 0.646 0.15403 0.0
H778 H 0.65508 0.64164 0.09523 0.0
H779 H 0.61124 0.64309 0.01566 0.0
H780 H 0.64422 0.6446 0.84845 0.0
H781 H 0.6396 0.65406 0.90664 0.0
H782 H 0.68227 0.65231 0.98689 0.0
C783 C 0.64573 0.64936 0.09939 0.0
C784 C 0.62693 0.64552 0.00966 0.0
C785 C 0.64061 0.65176 0.13325 0.0
C786 C 0.65027 0.63943 0.86973 0.0
C787 C 0.64747 0.64478 0.9032 0.0
C788 C 0.66668 0.65018 0.99293 0.0
C789 C 0.63823 0.65609 0.07133 0.0
C790 C 0.64281 0.65236 0.03525 0.0
C791 C 0.65471 0.63826 0.93184 0.0
C792 C 0.65074 0.64322 0.96746 0.0
H793 H 0.6107 0.67519 0.11635 0.0
H794 H 0.61994 0.67127 0.0571 0.0
H795 H 0.6755 0.66028 0.04532 0.0
H796 H 0.67583 0.61183 0.88902 0.0
H797 H 0.67088 0.62122 0.94771 0.0
C798 C 0.01625 0.65162 0.36818 0.0
C799 C 0.0382 0.66075 0.36104 0.0
C800 C 0.00893 0.64955 0.4021 0.0
C801 C 0.02443 0.64663 0.49186 0.0
H802 H 0.97548 0.65281 0.51433 0.0
C803 C 0.99468 0.64043 0.63166 0.0
C804 C 0.97252 0.6279 0.63733 0.0
C805 C 1.00289 0.64593 0.59825 0.0
C806 C 0.98905 0.65087 0.50838 0.0
H807 H 0.0697 0.67534 0.38431 0.0
H808 H 0.05689 0.67203 0.4437 0.0
H809 H 0.99015 0.66068 0.45588 0.0
H810 H 0.94163 0.61173 0.61197 0.0
H811 H 0.95606 0.62141 0.55339 0.0
H812 H 0.02331 0.63681 0.54436 0.0
C813 C 0.04533 0.66617 0.42288 0.0
C814 C 0.99749 0.65538 0.47489 0.0
C815 C 0.0527 0.66822 0.3888 0.0
C816 C 0.95875 0.62143 0.60862 0.0
C817 C 0.96701 0.62703 0.57506 0.0
C818 C 0.01607 0.64223 0.52536 0.0
C819 C 0.02332 0.65661 0.42994 0.0
C820 C 0.01518 0.65315 0.46612 0.0
C821 C 0.9892 0.63911 0.56952 0.0
C822 C 0.99821 0.64417 0.53396 0.0
H823 H 0.00453 0.6456 0.34759 0.0
H824 H 0.99187 0.6418 0.40648 0.0
H825 H 0.0378 0.64435 0.48594 0.0
H826 H 0.00586 0.64583 0.65303 0.0
H827 H 0.02003 0.65553 0.59491 0.0
C828 C 0.36551 0.01266 0.8693 0.0
C829 C 0.37803 0.03481 0.8635 0.0
C830 C 0.36026 0.00451 0.90278 0.0
C831 C 0.35603 0.01849 0.9929 0.0
H832 H 0.36249 0.96965 0.0147 0.0
C833 C 0.35538 0.99094 0.13291 0.0
C834 C 0.34612 0.96896 0.13986 0.0
C835 C 0.35755 0.99839 0.09905 0.0
C836 C 0.36024 0.98306 0.00897 0.0
H837 H 0.39442 0.06574 0.88873 0.0
H838 H 0.38516 0.0514 0.94742 0.0
H839 H 0.36972 0.98413 0.95628 0.0
H840 H 0.33147 0.93755 0.11629 0.0
H841 H 0.33495 0.95057 0.05703 0.0
H842 H 0.34652 0.01743 0.04559 0.0
C843 C 0.37937 0.04042 0.9258 0.0
C844 C 0.36446 0.99141 0.97547 0.0
C845 C 0.38472 0.04862 0.89217 0.0
C846 C 0.33869 0.95457 0.11195 0.0
C847 C 0.34083 0.96206 0.07794 0.0
C848 C 0.35169 0.01007 0.0264 0.0
C849 C 0.36731 0.01824 0.93146 0.0
C850 C 0.36251 0.00929 0.96707 0.0
C851 C 0.35047 0.98409 0.07107 0.0
C852 C 0.35389 0.99233 0.03494 0.0
H853 H 0.35994 1.00146 0.84797 0.0
H854 H 0.35066 0.98738 0.90621 0.0
H855 H 0.35409 0.03209 0.98713 0.0
H856 H 0.36138 0.00258 0.15362 0.0
H857 H 0.36536 0.01546 0.09481 0.0
C858 C 0.33943 0.38397 0.39128 0.0
C859 C 0.34718 0.37741 0.36327 0.0
C860 C 0.34175 0.37868 0.42522 0.0
C861 C 0.35366 0.34219 0.47648 0.0
H862 H 0.37073 0.38591 0.54683 0.0
C863 C 0.38645 0.33692 0.61111 0.0
C864 C 0.37958 0.34393 0.6397 0.0
C865 C 0.38113 0.3397 0.57741 0.0
C866 C 0.36573 0.37343 0.52759 0.0
H867 H 0.3632 0.35981 0.34928 0.0
H868 H 0.36745 0.35096 0.40802 0.0
H869 H 0.36341 0.39304 0.48841 0.0
H870 H 0.36119 0.35891 0.65501 0.0
H871 H 0.35192 0.36355 0.59669 0.0
H872 H 0.35636 0.32274 0.51571 0.0
C873 C 0.35928 0.35989 0.40388 0.0
C874 C 0.36147 0.3775 0.49408 0.0
C875 C 0.35694 0.36513 0.37006 0.0
C876 C 0.3669 0.35336 0.63375 0.0
C877 C 0.36166 0.35618 0.60021 0.0
C878 C 0.35802 0.33816 0.51 0.0
C879 C 0.35188 0.36672 0.43195 0.0
C880 C 0.35545 0.36197 0.46803 0.0
C881 C 0.36891 0.34964 0.57161 0.0
C882 C 0.36414 0.35374 0.53593 0.0
H883 H 0.33182 0.39343 0.38706 0.0
H884 H 0.33562 0.38398 0.44621 0.0
H885 H 0.34876 0.32974 0.45721 0.0
H886 H 0.39629 0.32965 0.61466 0.0
H887 H 0.38709 0.33462 0.55588 0.0
C888 C 0.96038 0.60472 0.88483 0.0
C889 C 0.97521 0.61568 0.85847 0.0
C890 C 0.96686 0.60794 0.91949 0.0
C891 C 0.01245 0.64527 0.97619 0.0
H892 H 0.98496 0.59911 0.04245 0.0
C893 C 0.04486 0.64541 0.11401 0.0
C894 C 0.03039 0.6427 0.14044 0.0
C895 C 0.03823 0.6421 0.07945 0.0
C896 C 0.99273 0.6121 0.0241 0.0
H897 H 0.00853 0.63801 0.84745 0.0
H898 H 0.02001 0.64278 0.90718 0.0
H899 H 0.9731 0.59308 0.98234 0.0
H900 H 0.99759 0.634 0.15161 0.0
H901 H 0.98595 0.6276 0.09134 0.0
H902 H 0.03261 0.66392 0.01807 0.0
C903 C 1.0032 0.63244 0.9017 0.0
C904 C 0.98584 0.60876 0.98972 0.0
C905 C 0.99665 0.62959 0.86728 0.0
C906 C 0.00914 0.63636 0.13176 0.0
C907 C 1.00242 0.63257 0.09737 0.0
C908 C 0.01963 0.64842 0.01037 0.0
C909 C 0.98841 0.62184 0.92841 0.0
C910 C 0.99557 0.62533 0.96524 0.0
C911 C 0.01692 0.6355 0.07096 0.0
C912 C 0.00977 0.6319 0.03459 0.0
H913 H 0.94373 0.59396 0.87871 0.0
H914 H 0.95488 0.59973 0.93923 0.0
H915 H 0.02005 0.65863 0.95852 0.0
H916 H 0.06132 0.65031 0.12002 0.0
H917 H 0.04964 0.64442 0.05938 0.0
C918 C 0.36905 0.9974 0.36913 0.0
C919 C 0.36259 0.9761 0.36087 0.0
C920 C 0.37304 0.00442 0.40333 0.0
C921 C 0.38237 0.98906 0.4911 0.0
H922 H 0.37096 0.03377 0.52012 0.0
C923 C 0.37684 0.01066 0.63331 0.0
C924 C 0.3906 0.03211 0.64244 0.0
C925 C 0.37438 0.00427 0.59879 0.0
C926 C 0.37436 0.0214 0.51221 0.0
H927 H 0.35492 0.94534 0.38191 0.0
H928 H 0.36076 0.95723 0.44201 0.0
H929 H 0.36361 0.02092 0.46069 0.0
H930 H 0.41239 0.06375 0.62267 0.0
H931 H 0.40739 0.05259 0.56173 0.0
H932 H 0.39206 0.98897 0.5435 0.0
C933 C 0.36352 0.96879 0.422 0.0
C934 C 0.37027 0.01406 0.4781 0.0
C935 C 0.35999 0.96187 0.38757 0.0
C936 C 0.40172 0.04712 0.61631 0.0
C937 C 0.39884 0.04078 0.58158 0.0
C938 C 0.386 0.9961 0.5254 0.0
C939 C 0.37021 0.99022 0.43037 0.0
C940 C 0.3743 0.99782 0.46696 0.0
C941 C 0.38525 0.01927 0.57265 0.0
C942 C 0.38209 0.01236 0.53615 0.0
H943 H 0.3715 0.00884 0.34902 0.0
H944 H 0.37868 0.02113 0.40838 0.0
H945 H 0.38612 0.97689 0.48355 0.0
H946 H 0.36817 0.9987 0.65291 0.0
H947 H 0.36373 0.98763 0.59244 0.0
C948 C 0.37841 0.36769 0.86968 0.0
C949 C 0.39229 0.36011 0.86067 0.0
C950 C 0.37592 0.37168 0.90415 0.0
C951 C 0.37656 0.35496 0.99109 0.0
H952 H 0.38648 0.41072 0.01901 0.0
C953 C 0.37118 0.37383 0.13398 0.0
C954 C 0.36393 0.38805 0.14221 0.0
C955 C 0.37527 0.37092 0.09977 0.0
C956 C 0.38325 0.39493 0.01166 0.0
H957 H 0.41428 0.35057 0.88065 0.0
H958 H 0.40925 0.35688 0.94148 0.0
H959 H 0.39248 0.40458 0.95908 0.0
H960 H 0.35501 0.41022 0.12108 0.0
H961 H 0.36105 0.40436 0.06096 0.0
H962 H 0.36629 0.34479 0.04281 0.0
C963 C 0.40062 0.35998 0.92157 0.0
C964 C 0.38691 0.39153 0.97738 0.0
C965 C 0.40351 0.35643 0.88689 0.0
C966 C 0.36069 0.39922 0.11545 0.0
C967 C 0.36433 0.39595 0.08101 0.0
C968 C 0.37246 0.3582 0.02519 0.0
C969 C 0.38689 0.36776 0.93038 0.0
C970 C 0.38367 0.37154 0.96687 0.0
C971 C 0.37175 0.38178 0.07268 0.0
C972 C 0.37583 0.37827 0.03607 0.0
H973 H 0.36965 0.37081 0.85002 0.0
H974 H 0.36516 0.37756 0.91038 0.0
H975 H 0.37367 0.33932 0.9834 0.0
H976 H 0.37415 0.36522 0.15412 0.0
H977 H 0.38149 0.36032 0.09475 0.0
C978 C 0.99654 0.36739 0.62961 0.0
C979 C 0.97522 0.36052 0.63857 0.0
C980 C 1.00308 0.37124 0.59515 0.0
C981 C 0.98593 0.35495 0.50834 0.0
H982 H 0.03164 0.41075 0.48027 0.0
C983 C 0.0099 0.37376 0.36538 0.0
C984 C 0.03131 0.38811 0.35703 0.0
C985 C 1.00298 0.37082 0.39963 0.0
C986 C 0.01913 0.39495 0.48766 0.0
H987 H 0.94396 0.35205 0.61855 0.0
H988 H 0.95535 0.35804 0.55774 0.0
H989 H 0.01956 0.40463 0.54023 0.0
H990 H 0.0624 0.41046 0.37795 0.0
H991 H 0.05066 0.40453 0.43815 0.0
H992 H 0.98603 0.34474 0.45665 0.0
C993 C 0.96696 0.36073 0.57767 0.0
C994 C 0.0121 0.39156 0.52196 0.0
C995 C 0.96049 0.35735 0.61233 0.0
C996 C 0.04577 0.39937 0.38369 0.0
C997 C 0.03895 0.39606 0.41818 0.0
C998 C 0.99326 0.35817 0.47423 0.0
C999 C 0.98835 0.36785 0.56892 0.0
C1000 C 0.99539 0.37157 0.53248 0.0
C1001 C 0.01741 0.38177 0.42664 0.0
C1002 C 0.0099 0.37826 0.46329 0.0
H1003 H 0.0083 0.37012 0.6493 0.0
H1004 H 0.01962 0.37662 0.58893 0.0
H1005 H 0.97321 0.33932 0.51608 0.0
H1006 H 0.99829 0.36509 0.3453 0.0
H1007 H 0.9862 0.36013 0.40475 0.0
C1008 C 0.63837 0.00968 0.86867 0.0
C1009 C 0.64517 0.03099 0.85992 0.0
C1010 C 0.63473 0.00306 0.90307 0.0
C1011 C 0.62714 0.01977 0.99087 0.0
H1012 H 0.63731 0.97425 0.01987 0.0
C1013 C 0.6325 0.99758 0.13309 0.0
C1014 C 0.61782 0.97633 0.14207 0.0
C1015 C 0.63526 0.0041 0.09861 0.0
C1016 C 0.6343 0.98688 0.01197 0.0
H1017 H 0.65381 0.06218 0.88024 0.0
H1018 H 0.64859 0.05096 0.94068 0.0
H1019 H 0.64446 0.98675 0.96026 0.0
H1020 H 0.59473 0.94518 0.12212 0.0
H1021 H 0.60023 0.95651 0.0613 0.0
H1022 H 0.61802 0.02042 0.04347 0.0
C1023 C 0.64529 0.0391 0.92093 0.0
C1024 C 0.63825 0.99401 0.97777 0.0
C1025 C 0.64847 0.04563 0.88631 0.0
C1026 C 0.60611 0.96165 0.11587 0.0
C1027 C 0.60927 0.96808 0.08121 0.0
C1028 C 0.62366 0.01294 0.02527 0.0
C1029 C 0.63828 0.01768 0.92981 0.0
C1030 C 0.63458 0.01047 0.9666 0.0
C1031 C 0.62375 0.98939 0.07242 0.0
C1032 C 0.62709 0.99637 0.03598 0.0
H1033 H 0.63538 0.99795 0.84881 0.0
H1034 H 0.62879 0.98634 0.90853 0.0
H1035 H 0.6237 0.03216 0.98332 0.0
H1036 H 0.64164 0.00929 0.15278 0.0
H1037 H 0.64658 0.02058 0.09233 0.0
C1038 C 0.60633 0.64757 0.38759 0.0
C1039 C 0.61794 0.64468 0.36111 0.0
C1040 C 0.6096 0.64416 0.42213 0.0
C1041 C 0.62492 0.6137 0.47708 0.0
H1042 H 0.64389 0.65987 0.54332 0.0
C1043 C 0.65025 0.60586 0.61582 0.0
C1044 C 0.64627 0.61655 0.64249 0.0
C1045 C 0.64692 0.60925 0.58127 0.0
C1046 C 0.6382 0.64661 0.52545 0.0
H1047 H 0.64172 0.63556 0.34984 0.0
H1048 H 0.64687 0.629 0.41004 0.0
H1049 H 0.63657 0.6654 0.48392 0.0
H1050 H 0.63502 0.63861 0.65414 0.0
H1051 H 0.62821 0.64367 0.59459 0.0
H1052 H 0.62569 0.59455 0.51848 0.0
C1053 C 0.63552 0.63418 0.40408 0.0
C1054 C 0.63413 0.64989 0.49137 0.0
C1055 C 0.63264 0.63807 0.36973 0.0
C1056 C 0.63857 0.63039 0.63408 0.0
C1057 C 0.6348 0.6334 0.59977 0.0
C1058 C 0.62852 0.61023 0.51136 0.0
C1059 C 0.6241 0.63728 0.43055 0.0
C1060 C 0.62757 0.63351 0.4669 0.0
C1061 C 0.63909 0.62305 0.57276 0.0
C1062 C 0.6353 0.62667 0.53607 0.0
H1063 H 0.59493 0.65268 0.38163 0.0
H1064 H 0.60061 0.64661 0.44224 0.0
H1065 H 0.61977 0.60081 0.45856 0.0
H1066 H 0.65627 0.59517 0.62161 0.0
H1067 H 0.65077 0.60123 0.5613 0.0
C1068 C 0.04918 0.59071 0.28596 0.0
C1069 C 0.03772 0.59735 0.26486 0.0
C1070 C 0.04598 0.57004 0.28323 0.0
C1071 C 0.02904 0.52205 0.28287 0.0
H1072 H 0.03019 0.50231 0.1901 0.0
C1073 C 0.02315 0.4404 0.25662 0.0
C1074 C 0.03875 0.44117 0.23396 0.0
C1075 C 0.01996 0.45791 0.25971 0.0
C1076 C 0.02979 0.50758 0.21616 0.0
H1077 H 0.01345 0.58714 0.22498 0.0
H1078 H 0.00797 0.55103 0.22015 0.0
H1079 H 0.03004 0.53574 0.19827 0.0
H1080 H 0.06269 0.46074 0.19592 0.0
H1081 H 0.05702 0.49108 0.20121 0.0
H1082 H 0.02939 0.49419 0.30078 0.0
C1083 C 0.01948 0.56193 0.23871 0.0
C1084 C 0.0295 0.52662 0.22084 0.0
C1085 C 0.02253 0.58258 0.24165 0.0
C1086 C 0.05056 0.45957 0.21367 0.0
C1087 C 0.04723 0.47695 0.21654 0.0
C1088 C 0.02915 0.50291 0.27819 0.0
C1089 C 0.03137 0.55553 0.25917 0.0
C1090 C 0.02951 0.53426 0.25426 0.0
C1091 C 0.03212 0.47645 0.23994 0.0
C1092 C 0.02991 0.49566 0.24479 0.0
H1093 H 0.06098 0.60161 0.30416 0.0
H1094 H 0.05554 0.56568 0.29912 0.0
H1095 H 0.02888 0.52744 0.30894 0.0
H1096 H 0.01377 0.42651 0.27266 0.0
H1097 H 0.00807 0.45699 0.27775 0.0
C1098 C 0.46149 0.05201 0.78581 0.0
C1099 C 0.44295 0.03958 0.76612 0.0
C1100 C 0.47908 0.04899 0.78307 0.0
C1101 C 0.50493 0.03007 0.72249 0.0
H1102 H 0.53847 0.03263 0.80247 0.0
C1103 C 0.58442 0.02335 0.75964 0.0
C1104 C 0.59903 0.03783 0.73548 0.0
C1105 C 0.56395 0.02072 0.7628 0.0
C1106 C 0.52916 0.03164 0.7799 0.0
H1107 H 0.4283 0.01387 0.72862 0.0
H1108 H 0.4591 0.00871 0.7238 0.0
H1109 H 0.50514 0.03302 0.81046 0.0
H1110 H 0.60319 0.06028 0.6948 0.0
H1111 H 0.56755 0.05558 0.70022 0.0
H1112 H 0.52912 0.02905 0.6919 0.0
C1113 C 0.45999 0.02085 0.74124 0.0
C1114 C 0.51018 0.03207 0.78446 0.0
C1115 C 0.44229 0.02374 0.74418 0.0
C1116 C 0.5924 0.04901 0.71373 0.0
C1117 C 0.5719 0.04624 0.71669 0.0
C1118 C 0.524 0.02983 0.71791 0.0
C1119 C 0.47865 0.03358 0.76041 0.0
C1120 C 0.49797 0.03153 0.75579 0.0
C1121 C 0.55756 0.03234 0.74163 0.0
C1122 C 0.53646 0.03086 0.74654 0.0
H1123 H 0.4626 0.06435 0.803 0.0
H1124 H 0.4933 0.05921 0.79793 0.0
H1125 H 0.49598 0.0298 0.69985 0.0
H1126 H 0.58898 0.01449 0.77684 0.0
H1127 H 0.55317 0.00974 0.78205 0.0
C1128 C 0.56523 0.58423 0.2608 0.0
C1129 C 0.5648 0.59903 0.23767 0.0
C1130 C 0.54764 0.56357 0.26365 0.0
C1131 C 0.50228 0.52792 0.28093 0.0
H1132 H 0.47067 0.49571 0.20033 0.0
C1133 C 0.41453 0.4598 0.28645 0.0
C1134 C 0.40839 0.44155 0.26596 0.0
C1135 C 0.4351 0.47745 0.28396 0.0
C1136 C 0.47945 0.50438 0.2231 0.0
H1137 H 0.54578 0.60338 0.19852 0.0
H1138 H 0.51532 0.56741 0.20336 0.0
H1139 H 0.50423 0.52927 0.19286 0.0
H1140 H 0.41938 0.42747 0.22731 0.0
H1141 H 0.45531 0.45843 0.22288 0.0
H1142 H 0.47728 0.50324 0.31116 0.0
C1143 C 0.52923 0.57176 0.21927 0.0
C1144 C 0.49856 0.52369 0.21881 0.0
C1145 C 0.54668 0.59244 0.21666 0.0
C1146 C 0.42354 0.44123 0.24349 0.0
C1147 C 0.44409 0.45901 0.24078 0.0
C1148 C 0.48306 0.50871 0.28522 0.0
C1149 C 0.52937 0.55719 0.24315 0.0
C1150 C 0.51005 0.53581 0.24767 0.0
C1151 C 0.45002 0.47739 0.26075 0.0
C1152 C 0.47129 0.49686 0.25634 0.0
H1153 H 0.5789 0.58877 0.27742 0.0
H1154 H 0.54827 0.55263 0.28208 0.0
H1155 H 0.51067 0.53697 0.30367 0.0
H1156 H 0.40332 0.46063 0.30407 0.0
H1157 H 0.43909 0.49145 0.29944 0.0
C1158 C 0.98402 0.56369 0.75691 0.0
C1159 C 0.96857 0.56324 0.73425 0.0
C1160 C 0.98701 0.54605 0.75966 0.0
C1161 C 0.97756 0.50088 0.77726 0.0
H1162 H 0.97646 0.46838 0.69674 0.0
C1163 C 0.95741 0.41306 0.784 0.0
C1164 C 0.96885 0.40647 0.76276 0.0
C1165 C 0.96055 0.4337 0.78138 0.0
C1166 C 0.97705 0.4774 0.71947 0.0
H1167 H 0.94468 0.54406 0.69586 0.0
H1168 H 0.95 0.51348 0.7006 0.0
H1169 H 0.9765 0.50194 0.6892 0.0
H1170 H 0.99301 0.41673 0.72267 0.0
H1171 H 0.9984 0.45282 0.71804 0.0
H1172 H 0.97772 0.47615 0.80755 0.0
C1173 C 0.95983 0.52748 0.71618 0.0
C1174 C 0.97687 0.49652 0.71516 0.0
C1175 C 0.9567 0.545 0.71364 0.0
C1176 C 0.98394 0.42125 0.73945 0.0
C1177 C 0.98694 0.44189 0.73662 0.0
C1178 C 0.97756 0.48167 0.78158 0.0
C1179 C 0.9748 0.52767 0.73956 0.0
C1180 C 0.97683 0.50833 0.74401 0.0
C1181 C 0.97511 0.44826 0.75731 0.0
C1182 C 0.97702 0.46957 0.75275 0.0
H1183 H 0.99345 0.57745 0.7732 0.0
H1184 H 0.9988 0.54674 0.77769 0.0
H1185 H 0.97737 0.50951 0.80002 0.0
H1186 H 0.94568 0.40214 0.80228 0.0
H1187 H 0.95102 0.43803 0.79743 0.0
C1188 C 0.41525 0.95731 0.21681 0.0
C1189 C 0.40851 0.9688 0.2376 0.0
C1190 C 0.436 0.96073 0.21956 0.0
C1191 C 0.47986 0.97823 0.2814 0.0
H1192 H 0.51197 0.9781 0.20117 0.0
C1193 C 0.56612 0.98494 0.2442 0.0
C1194 C 0.56564 0.96957 0.26705 0.0
C1195 C 0.54856 0.98807 0.24151 0.0
C1196 C 0.50334 0.97843 0.22384 0.0
H1197 H 0.41859 0.99333 0.27703 0.0
H1198 H 0.45486 0.99919 0.28191 0.0
H1199 H 0.47846 0.97811 0.19331 0.0
H1200 H 0.54656 0.94603 0.30595 0.0
H1201 H 0.51612 0.95159 0.30131 0.0
H1202 H 0.50454 0.97813 0.31193 0.0
C1203 C 0.44397 0.98748 0.26356 0.0
C1204 C 0.48405 0.97824 0.21933 0.0
C1205 C 0.42324 0.98421 0.2606 0.0
C1206 C 0.54751 0.95799 0.28802 0.0
C1207 C 0.53007 0.96125 0.28553 0.0
C1208 C 0.49907 0.97825 0.28591 0.0
C1209 C 0.4505 0.97561 0.24333 0.0
C1210 C 0.47194 0.97783 0.24805 0.0
C1211 C 0.53024 0.97607 0.26184 0.0
C1212 C 0.51088 0.97804 0.25718 0.0
H1213 H 0.40438 0.94534 0.19878 0.0
H1214 H 0.44045 0.95116 0.20386 0.0
H1215 H 0.47082 0.97776 0.30406 0.0
H1216 H 0.5798 0.99414 0.22764 0.0
H1217 H 0.54924 0.99975 0.22324 0.0
C1218 C 0.58601 0.56211 0.74192 0.0
C1219 C 0.60088 0.56238 0.76567 0.0
C1220 C 0.56568 0.54404 0.73877 0.0
C1221 C 0.5311 0.49818 0.72168 0.0
H1222 H 0.49859 0.4668 0.80221 0.0
C1223 C 0.4632 0.41016 0.71661 0.0
C1224 C 0.4448 0.4042 0.73659 0.0
C1225 C 0.4809 0.43072 0.71912 0.0
C1226 C 0.50736 0.47549 0.77946 0.0
H1227 H 0.60571 0.54406 0.80551 0.0
H1228 H 0.57031 0.51276 0.80015 0.0
H1229 H 0.53179 0.5007 0.80971 0.0
H1230 H 0.43049 0.41547 0.77439 0.0
H1231 H 0.46149 0.45133 0.77885 0.0
H1232 H 0.50684 0.47278 0.69145 0.0
C1233 C 0.57435 0.5265 0.78399 0.0
C1234 C 0.52646 0.4948 0.78377 0.0
C1235 C 0.59471 0.54443 0.78691 0.0
C1236 C 0.44438 0.41948 0.7586 0.0
C1237 C 0.46218 0.44 0.76134 0.0
C1238 C 0.5121 0.47876 0.71738 0.0
C1239 C 0.55971 0.52597 0.75956 0.0
C1240 C 0.53866 0.50625 0.75495 0.0
C1241 C 0.4807 0.44578 0.74186 0.0
C1242 C 0.50012 0.4671 0.74623 0.0
H1243 H 0.59022 0.57562 0.7251 0.0
H1244 H 0.55467 0.54416 0.71991 0.0
H1245 H 0.54022 0.50654 0.69898 0.0
H1246 H 0.46412 0.39885 0.69935 0.0
H1247 H 0.495 0.43461 0.70401 0.0
C1248 C 0.11376 0.36281 0.24012 0.0
C1249 C 0.11521 0.38045 0.2224 0.0
C1250 C 0.13206 0.36113 0.24562 0.0
C1251 C 0.19146 0.39543 0.24655 0.0
H1252 H 0.1903 0.3414 0.25372 0.0
C1253 C 0.26618 0.39367 0.29078 0.0
C1254 C 0.271 0.37907 0.2751 0.0
C1255 C 0.24627 0.39202 0.28598 0.0
C1256 C 0.19099 0.35666 0.25148 0.0
H1257 H 0.13662 0.40942 0.19466 0.0
H1258 H 0.1681 0.40602 0.20259 0.0
H1259 H 0.15764 0.3418 0.23937 0.0
H1260 H 0.2585 0.35092 0.24273 0.0
H1261 H 0.22391 0.34846 0.23307 0.0
H1262 H 0.22482 0.41041 0.25686 0.0
C1263 C 0.15318 0.39391 0.21373 0.0
C1264 C 0.17213 0.35688 0.24368 0.0
C1265 C 0.13505 0.39578 0.20885 0.0
C1266 C 0.25519 0.36234 0.2553 0.0
C1267 C 0.23531 0.36092 0.24988 0.0
C1268 C 0.21027 0.39522 0.25383 0.0
C1269 C 0.15214 0.3769 0.23303 0.0
C1270 C 0.1721 0.3763 0.24108 0.0
C1271 C 0.23072 0.37602 0.26462 0.0
C1272 C 0.21036 0.37587 0.25667 0.0
H1273 H 0.09868 0.35079 0.25102 0.0
H1274 H 0.13055 0.34787 0.26081 0.0
H1275 H 0.19217 0.41073 0.24556 0.0
H1276 H 0.27795 0.40659 0.30656 0.0
H1277 H 0.24321 0.40354 0.29877 0.0
C1278 C 0.87142 0.26593 0.7789 0.0
C1279 C 0.89225 0.26932 0.77537 0.0
C1280 C 0.8537 0.24552 0.77545 0.0
C1281 C 0.83536 0.19282 0.73648 0.0
H1282 H 0.78679 0.1766 0.79682 0.0
C1283 C 0.7542 0.11206 0.72533 0.0
C1284 C 0.73593 0.11424 0.72726 0.0
C1285 C 0.77452 0.1295 0.73262 0.0
C1286 C 0.80018 0.1809 0.77967 0.0
H1287 H 0.91072 0.25375 0.76545 0.0
H1288 H 0.87952 0.21784 0.75935 0.0
H1289 H 0.82013 0.20954 0.80783 0.0
H1290 H 0.72487 0.1366 0.7381 0.0
H1291 H 0.75993 0.16661 0.75064 0.0
H1292 H 0.81506 0.16418 0.70796 0.0
C1293 C 0.87704 0.23114 0.76475 0.0
C1294 C 0.8193 0.19979 0.78598 0.0
C1295 C 0.8949 0.25167 0.76846 0.0
C1296 C 0.73849 0.13422 0.73637 0.0
C1297 C 0.75864 0.15147 0.74385 0.0
C1298 C 0.81614 0.17379 0.73017 0.0
C1299 C 0.85622 0.22785 0.76829 0.0
C1300 C 0.83696 0.20632 0.76393 0.0
C1301 C 0.7769 0.14933 0.74239 0.0
C1302 C 0.79815 0.16795 0.75117 0.0
H1303 H 0.8687 0.27909 0.78416 0.0
H1304 H 0.83793 0.24368 0.77775 0.0
H1305 H 0.84863 0.19742 0.71893 0.0
H1306 H 0.75279 0.0969 0.71842 0.0
H1307 H 0.7883 0.12736 0.73131 0.0
C1308 C 0.64575 0.75388 0.23227 0.0
C1309 C 0.62541 0.73626 0.22549 0.0
C1310 C 0.64851 0.77445 0.23585 0.0
C1311 C 0.62239 0.80597 0.21428 0.0
H1312 H 0.65368 0.8416 0.29231 0.0
C1313 C 0.60748 0.87194 0.26308 0.0
C1314 C 0.62492 0.89183 0.27255 0.0
C1315 C 0.6103 0.85463 0.25565 0.0
C1316 C 0.64517 0.83199 0.27009 0.0
H1317 H 0.59211 0.72659 0.21681 0.0
H1318 H 0.5969 0.76208 0.22296 0.0
H1319 H 0.65386 0.80827 0.28161 0.0
H1320 H 0.65906 0.90893 0.28204 0.0
H1321 H 0.66395 0.87837 0.2692 0.0
H1322 H 0.61325 0.82926 0.20312 0.0
C1323 C 0.61079 0.76017 0.22528 0.0
C1324 C 0.64528 0.81291 0.26394 0.0
C1325 C 0.60802 0.73973 0.22198 0.0
C1326 C 0.64529 0.89384 0.27484 0.0
C1327 C 0.64808 0.87635 0.26758 0.0
C1328 C 0.62226 0.82493 0.22041 0.0
C1329 C 0.63102 0.77781 0.23231 0.0
C1330 C 0.63339 0.79939 0.23649 0.0
C1331 C 0.63061 0.8566 0.25752 0.0
C1332 C 0.63314 0.83789 0.24892 0.0
H1333 H 0.65946 0.75174 0.23526 0.0
H1334 H 0.66432 0.78773 0.24116 0.0
H1335 H 0.61347 0.7962 0.19243 0.0
H1336 H 0.59154 0.86969 0.26107 0.0
H1337 H 0.59642 0.83956 0.24863 0.0
C1338 C 0.89522 0.64305 0.74077 0.0
C1339 C 0.89369 0.62557 0.7224 0.0
C1340 C 0.87699 0.64482 0.74654 0.0
C1341 C 0.81765 0.6107 0.74739 0.0
H1342 H 0.81886 0.66468 0.75625 0.0
C1343 C 0.74309 0.6121 0.79338 0.0
C1344 C 0.73812 0.62663 0.77788 0.0
C1345 C 0.76305 0.61389 0.78834 0.0
C1346 C 0.81816 0.64944 0.75356 0.0
H1347 H 0.87222 0.59702 0.69376 0.0
H1348 H 0.84087 0.60058 0.70221 0.0
H1349 H 0.8515 0.66437 0.74121 0.0
H1350 H 0.75038 0.65485 0.74571 0.0
H1351 H 0.78508 0.65758 0.73571 0.0
H1352 H 0.78432 0.59565 0.75803 0.0
C1353 C 0.8558 0.61249 0.71361 0.0
C1354 C 0.837 0.64927 0.74534 0.0
C1355 C 0.87386 0.61053 0.70844 0.0
C1356 C 0.75383 0.64348 0.75813 0.0
C1357 C 0.77375 0.64505 0.75251 0.0
C1358 C 0.79887 0.61086 0.75513 0.0
C1359 C 0.85691 0.62929 0.7336 0.0
C1360 C 0.83699 0.62986 0.7421 0.0
C1361 C 0.77847 0.62998 0.76696 0.0
C1362 C 0.7988 0.6302 0.75859 0.0
H1363 H 0.91029 0.65484 0.752 0.0
H1364 H 0.87854 0.65791 0.76225 0.0
H1365 H 0.81693 0.5954 0.7459 0.0
H1366 H 0.73141 0.5991 0.80912 0.0
H1367 H 0.76623 0.60239 0.80091 0.0
C1368 C 0.26821 0.87009 0.22253 0.0
C1369 C 0.2714 0.89087 0.2254 0.0
C1370 C 0.24784 0.85229 0.22574 0.0
C1371 C 0.19466 0.83371 0.26297 0.0
H1372 H 0.17922 0.7852 0.20287 0.0
C1373 C 0.11381 0.75265 0.27279 0.0
C1374 C 0.11585 0.73431 0.27081 0.0
C1375 C 0.13137 0.77295 0.26579 0.0
C1376 C 0.1833 0.79856 0.21998 0.0
H1377 H 0.2555 0.90917 0.23399 0.0
H1378 H 0.21965 0.87782 0.23974 0.0
H1379 H 0.21227 0.81856 0.19261 0.0
H1380 H 0.1381 0.72308 0.2602 0.0
H1381 H 0.16835 0.75809 0.24826 0.0
H1382 H 0.16572 0.81337 0.29073 0.0
C1383 C 0.23309 0.87544 0.235 0.0
C1384 C 0.20225 0.8177 0.21408 0.0
C1385 C 0.25359 0.89339 0.2315 0.0
C1386 C 0.13583 0.73677 0.26194 0.0
C1387 C 0.15321 0.7569 0.25479 0.0
C1388 C 0.17559 0.81446 0.26889 0.0
C1389 C 0.23 0.85468 0.23205 0.0
C1390 C 0.20848 0.83534 0.23602 0.0
C1391 C 0.15122 0.77524 0.25633 0.0
C1392 C 0.17 0.79649 0.24799 0.0
H1393 H 0.2815 0.86747 0.2179 0.0
H1394 H 0.24613 0.83656 0.2239 0.0
H1395 H 0.19903 0.84697 0.28042 0.0
H1396 H 0.09866 0.75133 0.27952 0.0
H1397 H 0.12932 0.78678 0.26713 0.0
C1398 C 0.36076 0.25177 0.74481 0.0
C1399 C 0.37854 0.26679 0.72579 0.0
C1400 C 0.35755 0.23122 0.75063 0.0
C1401 C 0.36903 0.19073 0.71772 0.0
H1402 H 0.36932 0.17442 0.81317 0.0
C1403 C 0.35993 0.10906 0.75923 0.0
C1404 C 0.37763 0.11161 0.77824 0.0
C1405 C 0.35693 0.12653 0.75346 0.0
C1406 C 0.36899 0.17869 0.78643 0.0
H1407 H 0.40637 0.27185 0.69683 0.0
H1408 H 0.40026 0.23574 0.70591 0.0
H1409 H 0.36924 0.2076 0.80008 0.0
H1410 H 0.40555 0.13416 0.80724 0.0
H1411 H 0.39981 0.1644 0.79825 0.0
H1412 H 0.36892 0.16189 0.70407 0.0
C1413 C 0.38902 0.23995 0.71668 0.0
C1414 C 0.36885 0.19757 0.77895 0.0
C1415 C 0.39253 0.26061 0.7116 0.0
C1416 C 0.39177 0.13172 0.79248 0.0
C1417 C 0.38846 0.149 0.78745 0.0
C1418 C 0.36867 0.1716 0.72519 0.0
C1419 C 0.37172 0.22518 0.73675 0.0
C1420 C 0.36932 0.20398 0.74453 0.0
C1421 C 0.37124 0.14668 0.76739 0.0
C1422 C 0.36908 0.16562 0.75962 0.0
H1423 H 0.34982 0.25615 0.75627 0.0
H1424 H 0.34409 0.22009 0.7662 0.0
H1425 H 0.3694 0.19534 0.69097 0.0
H1426 H 0.34888 0.09378 0.74773 0.0
H1427 H 0.34353 0.12436 0.7379 0.0
loop_
_geom_bond_atom_site_label_1
_geom_bond_atom_site_label_2
_geom_bond_distance
_geom_bond_site_symmetry_2
_ccdc_geom_bond_type
Co0 O2 2.143 . S
Co0 O8 2.074 . S
Co0 O11 2.093 . S
Co0 O24 2.097 . S
Co0 N41 2.159 1_455 S
Co0 N49 2.214 1_455 S
Co1 O2 2.160 . S
Co1 O7 2.058 . S
Co1 O17 2.057 . S
Co1 O32 2.037 . S
Co1 N36 2.145 . S
Co1 N57 2.257 . S
O2 Co0 2.143 . S
O2 Co1 2.160 . S
C3 O4 1.278 . S
C3 O11 1.224 . S
O4 C3 1.278 . S
C5 O6 1.245 . S
C5 O17 1.232 . S
O6 C5 1.245 . S
O7 Co1 2.058 . S
O7 C33 1.269 . S
O8 Co0 2.074 . S
O8 C33 1.257 . S
H9 C34 0.930 . S
H10 C40 0.930 . S
O11 Co0 2.093 . S
O11 C3 1.224 . S
H12 C44 0.929 . S
H13 C46 0.930 . S
H14 C47 0.930 . S
H15 C45 0.929 . S
H16 C48 0.928 . S
O17 Co1 2.057 . S
O17 C5 1.232 . S
H18 C37 0.929 . S
H19 C38 0.929 . S
H20 C50 0.931 . S
H21 C42 0.929 . S
H22 C51 0.930 . S
H23 C43 0.931 . S
O24 Co0 2.097 . S
O24 C52 1.214 . S
H25 C53 0.929 . S
H26 C54 0.929 . S
H27 C55 0.930 . S
H28 C56 0.929 . S
H29 C58 0.930 . S
H30 C35 0.930 . S
H31 C39 0.930 . S
O32 Co1 2.037 . S
O32 C52 1.234 . S
C33 O7 1.269 . S
C33 O8 1.257 . S
C34 H9 0.930 . S
C34 C37 1.388 . S
C34 C39 1.418 . S
C35 H30 0.930 . S
C35 C38 1.404 . S
C35 C39 1.353 . S
N36 Co1 2.145 . S
N36 C37 1.397 . S
N36 C38 1.334 . S
C37 H18 0.929 . S
C37 C34 1.388 . S
C37 N36 1.397 . S
C38 H19 0.929 . S
C38 C35 1.404 . S
C38 N36 1.334 . S
C39 H31 0.930 . S
C39 C34 1.418 . S
C39 C35 1.353 . S
C40 H10 0.930 . S
C40 N41 1.307 1_455 S
C40 C42 1.446 1_455 S
N41 Co0 2.159 1_655 S
N41 C40 1.307 1_655 S
N41 C45 1.440 . S
C42 H21 0.929 . S
C42 C40 1.446 1_655 S
C42 C43 1.332 . S
C43 H23 0.931 . S
C43 C42 1.332 . S
C43 C44 1.267 . S
C44 H12 0.929 . S
C44 C43 1.267 . S
C44 C45 1.251 . S
C45 H15 0.929 . S
C45 N41 1.440 . S
C45 C44 1.251 . S
C46 H13 0.930 . S
C46 C48 1.406 . S
C46 C51 1.261 . S
C47 H14 0.930 . S
C47 N49 1.325 . S
C47 C50 1.357 . S
C48 H16 0.928 . S
C48 C46 1.406 . S
C48 N49 1.261 . S
N49 Co0 2.214 1_655 S
N49 C47 1.325 . S
N49 C48 1.261 . S
C50 H20 0.931 . S
C50 C47 1.357 . S
C50 C51 1.312 . S
C51 H22 0.930 . S
C51 C46 1.261 . S
C51 C50 1.312 . S
C52 O24 1.214 . S
C52 O32 1.234 . S
C53 H25 0.929 . S
C53 C56 1.391 . S
C53 C58 1.391 . S
C54 H26 0.929 . S
C54 C55 1.390 . S
C54 N57 1.391 . S
C55 H27 0.930 . S
C55 C54 1.390 . S
C55 C56 1.392 . S
C56 H28 0.929 . S
C56 C53 1.391 . S
C56 C55 1.392 . S
N57 Co1 2.257 . S
N57 C54 1.391 . S
N57 C58 1.388 . S
C58 H29 0.930 . S
C58 C53 1.391 . S
C58 N57 1.388 . S
Co59 O61 2.143 . S
Co59 O67 2.074 . S
Co59 O70 2.093 . S
Co59 O83 2.097 . S
Co59 N100 2.115 1_545 S
Co59 N108 2.214 1_545 S
Co60 O61 2.160 . S
Co60 O66 2.058 . S
Co60 O76 2.057 . S
Co60 O91 2.037 . S
Co60 N95 2.145 . S
Co60 N116 2.257 . S
O61 Co59 2.143 . S
O61 Co60 2.160 . S
C62 O63 1.278 . S
C62 O70 1.224 . S
O63 C62 1.278 . S
C64 O65 1.245 . S
C64 O76 1.232 . S
O65 C64 1.245 . S
O66 Co60 2.058 . S
O66 C92 1.269 . S
O67 Co59 2.074 . S
O67 C92 1.257 . S
H68 C93 0.930 . S
H69 C99 0.930 . S
O70 Co59 2.093 . S
O70 C62 1.224 . S
H71 C103 0.929 . S
H72 C105 0.930 . S
H73 C106 0.930 . S
H74 C104 0.929 . S
H75 C107 0.928 . S
O76 Co60 2.057 . S
O76 C64 1.232 . S
H77 C96 0.929 . S
H78 C97 0.929 . S
H79 C109 0.931 . S
H80 C101 0.929 . S
H81 C110 0.930 . S
H82 C102 0.931 . S
O83 Co59 2.097 . S
O83 C111 1.214 . S
H84 C112 0.929 . S
H85 C113 0.929 . S
H86 C114 0.930 . S
H87 C115 0.929 . S
H88 C117 0.930 . S
H89 C94 0.930 . S
H90 C98 0.930 . S
O91 Co60 2.037 . S
O91 C111 1.234 . S
C92 O66 1.269 . S
C92 O67 1.257 . S
C93 H68 0.930 . S
C93 C96 1.388 . S
C93 C98 1.418 . S
C94 H89 0.930 . S
C94 C97 1.404 . S
C94 C98 1.353 . S
N95 Co60 2.145 . S
N95 C96 1.397 . S
N95 C97 1.334 . S
C96 H77 0.929 . S
C96 C93 1.388 . S
C96 N95 1.397 . S
C97 H78 0.929 . S
C97 C94 1.404 . S
C97 N95 1.334 . S
C98 H90 0.930 . S
C98 C93 1.418 . S
C98 C94 1.353 . S
C99 H69 0.930 . S
C99 N100 1.339 1_545 S
C99 C101 1.446 1_545 S
N100 Co59 2.115 1_565 S
N100 C99 1.339 1_565 S
N100 C104 1.453 . S
C101 H80 0.929 . S
C101 C99 1.446 1_565 S
C101 C102 1.332 . S
C102 H82 0.931 . S
C102 C101 1.332 . S
C102 C103 1.267 . S
C103 H71 0.929 . S
C103 C102 1.267 . S
C103 C104 1.251 . S
C104 H74 0.929 . S
C104 N100 1.453 . S
C104 C103 1.251 . S
C105 H72 0.930 . S
C105 C107 1.406 . S
C105 C110 1.261 . S
C106 H73 0.930 . S
C106 N108 1.325 . S
C106 C109 1.357 . S
C107 H75 0.928 . S
C107 C105 1.406 . S
C107 N108 1.261 . S
N108 Co59 2.214 1_565 S
N108 C106 1.325 . S
N108 C107 1.261 . S
C109 H79 0.931 . S
C109 C106 1.357 . S
C109 C110 1.312 . S
C110 H81 0.930 . S
C110 C105 1.261 . S
C110 C109 1.312 . S
C111 O83 1.214 . S
C111 O91 1.234 . S
C112 H84 0.929 . S
C112 C115 1.391 . S
C112 C117 1.391 . S
C113 H85 0.929 . S
C113 C114 1.390 . S
C113 N116 1.391 . S
C114 H86 0.930 . S
C114 C113 1.390 . S
C114 C115 1.392 . S
C115 H87 0.929 . S
C115 C112 1.391 . S
C115 C114 1.392 . S
N116 Co60 2.257 . S
N116 C113 1.391 . S
N116 C117 1.388 . S
C117 H88 0.930 . S
C117 C112 1.391 . S
C117 N116 1.388 . S
Co118 O120 2.143 . S
Co118 O126 2.074 . S
Co118 O129 2.093 . S
Co118 O142 2.097 . S
Co118 N159 2.151 . S
Co118 N167 2.214 . S
Co119 O120 2.160 . S
Co119 O125 2.058 . S
Co119 O135 2.057 . S
Co119 O150 2.037 . S
Co119 N154 2.145 . S
Co119 N175 2.257 . S
O120 Co118 2.143 . S
O120 Co119 2.160 . S
C121 O122 1.278 . S
C121 O129 1.224 . S
O122 C121 1.278 . S
C123 O124 1.245 . S
C123 O135 1.232 . S
O124 C123 1.245 . S
O125 Co119 2.058 . S
O125 C151 1.269 . S
O126 Co118 2.074 . S
O126 C151 1.257 . S
H127 C152 0.930 . S
H128 C158 0.930 . S
O129 Co118 2.093 . S
O129 C121 1.224 . S
H130 C162 0.929 . S
H131 C164 0.930 . S
H132 C165 0.930 . S
H133 C163 0.929 . S
H134 C166 0.928 . S
O135 Co119 2.057 . S
O135 C123 1.232 . S
H136 C155 0.929 . S
H137 C156 0.929 . S
H138 C168 0.931 . S
H139 C160 0.929 . S
H140 C169 0.930 . S
H141 C161 0.931 . S
O142 Co118 2.097 . S
O142 C170 1.214 . S
H143 C171 0.929 . S
H144 C172 0.929 . S
H145 C173 0.930 . S
H146 C174 0.929 . S
H147 C176 0.930 . S
H148 C153 0.930 . S
H149 C157 0.930 . S
O150 Co119 2.037 . S
O150 C170 1.234 . S
C151 O125 1.269 . S
C151 O126 1.257 . S
C152 H127 0.930 . S
C152 C155 1.388 . S
C152 C157 1.418 . S
C153 H148 0.930 . S
C153 C156 1.404 . S
C153 C157 1.353 . S
N154 Co119 2.145 . S
N154 C155 1.397 . S
N154 C156 1.334 . S
C155 H136 0.929 . S
C155 C152 1.388 . S
C155 N154 1.397 . S
C156 H137 0.929 . S
C156 C153 1.404 . S
C156 N154 1.334 . S
C157 H149 0.930 . S
C157 C152 1.418 . S
C157 C153 1.353 . S
C158 H128 0.930 . S
C158 N159 1.330 . S
C158 C160 1.446 . S
N159 Co118 2.151 . S
N159 C158 1.330 . S
N159 C163 1.418 . S
C160 H139 0.929 . S
C160 C158 1.446 . S
C160 C161 1.332 . S
C161 H141 0.931 . S
C161 C160 1.332 . S
C161 C162 1.267 . S
C162 H130 0.929 . S
C162 C161 1.267 . S
C162 C163 1.251 . S
C163 H133 0.929 . S
C163 N159 1.418 . S
C163 C162 1.251 . S
C164 H131 0.930 . S
C164 C166 1.406 . S
C164 C169 1.261 . S
C165 H132 0.930 . S
C165 N167 1.325 . S
C165 C168 1.357 . S
C166 H134 0.928 . S
C166 C164 1.406 . S
C166 N167 1.261 . S
N167 Co118 2.214 . S
N167 C165 1.325 . S
N167 C166 1.261 . S
C168 H138 0.931 . S
C168 C165 1.357 . S
C168 C169 1.312 . S
C169 H140 0.930 . S
C169 C164 1.261 . S
C169 C168 1.312 . S
C170 O142 1.214 . S
C170 O150 1.234 . S
C171 H143 0.929 . S
C171 C174 1.391 . S
C171 C176 1.391 . S
C172 H144 0.929 . S
C172 C173 1.390 . S
C172 N175 1.391 . S
C173 H145 0.930 . S
C173 C172 1.390 . S
C173 C174 1.392 . S
C174 H146 0.929 . S
C174 C171 1.391 . S
C174 C173 1.392 . S
N175 Co119 2.257 . S
N175 C172 1.391 . S
N175 C176 1.388 . S
C176 H147 0.930 . S
C176 C171 1.391 . S
C176 N175 1.388 . S
Co177 O179 2.143 . S
Co177 O185 2.074 . S
Co177 O188 2.093 . S
Co177 O201 2.097 . S
Co177 N218 2.159 1_655 S
Co177 N226 2.214 1_655 S
Co178 O179 2.160 . S
Co178 O184 2.058 . S
Co178 O194 2.057 . S
Co178 O209 2.037 . S
Co178 N213 2.145 . S
Co178 N234 2.257 . S
O179 Co177 2.143 . S
O179 Co178 2.160 . S
C180 O181 1.278 . S
C180 O188 1.224 . S
O181 C180 1.278 . S
C182 O183 1.245 . S
C182 O194 1.232 . S
O183 C182 1.245 . S
O184 Co178 2.058 . S
O184 C210 1.269 . S
O185 Co177 2.074 . S
O185 C210 1.257 . S
H186 C211 0.930 . S
H187 C217 0.930 . S
O188 Co177 2.093 . S
O188 C180 1.224 . S
H189 C221 0.929 . S
H190 C223 0.930 . S
H191 C224 0.930 . S
H192 C222 0.929 . S
H193 C225 0.928 . S
O194 Co178 2.057 . S
O194 C182 1.232 . S
H195 C214 0.929 . S
H196 C215 0.929 . S
H197 C227 0.931 . S
H198 C219 0.929 . S
H199 C228 0.930 . S
H200 C220 0.931 . S
O201 Co177 2.097 . S
O201 C229 1.214 . S
H202 C230 0.929 . S
H203 C231 0.929 . S
H204 C232 0.930 . S
H205 C233 0.929 . S
H206 C235 0.930 . S
H207 C212 0.930 . S
H208 C216 0.930 . S
O209 Co178 2.037 . S
O209 C229 1.234 . S
C210 O184 1.269 . S
C210 O185 1.257 . S
C211 H186 0.930 . S
C211 C214 1.388 . S
C211 C216 1.418 . S
C212 H207 0.930 . S
C212 C215 1.404 . S
C212 C216 1.353 . S
N213 Co178 2.145 . S
N213 C214 1.397 . S
N213 C215 1.334 . S
C214 H195 0.929 . S
C214 C211 1.388 . S
C214 N213 1.397 . S
C215 H196 0.929 . S
C215 C212 1.404 . S
C215 N213 1.334 . S
C216 H208 0.930 . S
C216 C211 1.418 . S
C216 C212 1.353 . S
C217 H187 0.930 . S
C217 N218 1.307 1_655 S
C217 C219 1.446 1_655 S
N218 Co177 2.159 1_455 S
N218 C217 1.307 1_455 S
N218 C222 1.440 . S
C219 H198 0.929 . S
C219 C217 1.446 1_455 S
C219 C220 1.332 . S
C220 H200 0.931 . S
C220 C219 1.332 . S
C220 C221 1.267 . S
C221 H189 0.929 . S
C221 C220 1.267 . S
C221 C222 1.251 . S
C222 H192 0.929 . S
C222 N218 1.440 . S
C222 C221 1.251 . S
C223 H190 0.930 . S
C223 C225 1.406 . S
C223 C228 1.261 . S
C224 H191 0.930 . S
C224 N226 1.325 . S
C224 C227 1.357 . S
C225 H193 0.928 . S
C225 C223 1.406 . S
C225 N226 1.261 . S
N226 Co177 2.214 1_455 S
N226 C224 1.325 . S
N226 C225 1.261 . S
C227 H197 0.931 . S
C227 C224 1.357 . S
C227 C228 1.312 . S
C228 H199 0.930 . S
C228 C223 1.261 . S
C228 C227 1.312 . S
C229 O201 1.214 . S
C229 O209 1.234 . S
C230 H202 0.929 . S
C230 C233 1.391 . S
C230 C235 1.391 . S
C231 H203 0.929 . S
C231 C232 1.390 . S
C231 N234 1.391 . S
C232 H204 0.930 . S
C232 C231 1.390 . S
C232 C233 1.392 . S
C233 H205 0.929 . S
C233 C230 1.391 . S
C233 C232 1.392 . S
N234 Co178 2.257 . S
N234 C231 1.391 . S
N234 C235 1.388 . S
C235 H206 0.930 . S
C235 C230 1.391 . S
C235 N234 1.388 . S
Co236 O238 2.143 . S
Co236 O244 2.074 . S
Co236 O247 2.093 . S
Co236 O260 2.097 . S
Co236 N277 2.115 1_565 S
Co236 N285 2.214 1_565 S
Co237 O238 2.160 . S
Co237 O243 2.058 . S
Co237 O253 2.057 . S
Co237 O268 2.037 . S
Co237 N272 2.145 . S
Co237 N293 2.257 . S
O238 Co236 2.143 . S
O238 Co237 2.160 . S
C239 O240 1.278 . S
C239 O247 1.224 . S
O240 C239 1.278 . S
C241 O242 1.245 . S
C241 O253 1.232 . S
O242 C241 1.245 . S
O243 Co237 2.058 . S
O243 C269 1.269 . S
O244 Co236 2.074 . S
O244 C269 1.257 . S
H245 C270 0.930 . S
H246 C276 0.930 . S
O247 Co236 2.093 . S
O247 C239 1.224 . S
H248 C280 0.929 . S
H249 C282 0.930 . S
H250 C283 0.930 . S
H251 C281 0.929 . S
H252 C284 0.928 . S
O253 Co237 2.057 . S
O253 C241 1.232 . S
H254 C273 0.929 . S
H255 C274 0.929 . S
H256 C286 0.931 . S
H257 C278 0.929 . S
H258 C287 0.930 . S
H259 C279 0.931 . S
O260 Co236 2.097 . S
O260 C288 1.214 . S
H261 C289 0.929 . S
H262 C290 0.929 . S
H263 C291 0.930 . S
H264 C292 0.929 . S
H265 C294 0.930 . S
H266 C271 0.930 . S
H267 C275 0.930 . S
O268 Co237 2.037 . S
O268 C288 1.234 . S
C269 O243 1.269 . S
C269 O244 1.257 . S
C270 H245 0.930 . S
C270 C273 1.388 . S
C270 C275 1.418 . S
C271 H266 0.930 . S
C271 C274 1.404 . S
C271 C275 1.353 . S
N272 Co237 2.145 . S
N272 C273 1.397 . S
N272 C274 1.334 . S
C273 H254 0.929 . S
C273 C270 1.388 . S
C273 N272 1.397 . S
C274 H255 0.929 . S
C274 C271 1.404 . S
C274 N272 1.334 . S
C275 H267 0.930 . S
C275 C270 1.418 . S
C275 C271 1.353 . S
C276 H246 0.930 . S
C276 N277 1.339 1_565 S
C276 C278 1.446 1_565 S
N277 Co236 2.115 1_545 S
N277 C276 1.339 1_545 S
N277 C281 1.453 . S
C278 H257 0.929 . S
C278 C276 1.446 1_545 S
C278 C279 1.332 . S
C279 H259 0.931 . S
C279 C278 1.332 . S
C279 C280 1.267 . S
C280 H248 0.929 . S
C280 C279 1.267 . S
C280 C281 1.251 . S
C281 H251 0.929 . S
C281 N277 1.453 . S
C281 C280 1.251 . S
C282 H249 0.930 . S
C282 C284 1.406 . S
C282 C287 1.261 . S
C283 H250 0.930 . S
C283 N285 1.325 . S
C283 C286 1.357 . S
C284 H252 0.928 . S
C284 C282 1.406 . S
C284 N285 1.261 . S
N285 Co236 2.214 1_545 S
N285 C283 1.325 . S
N285 C284 1.261 . S
C286 H256 0.931 . S
C286 C283 1.357 . S
C286 C287 1.312 . S
C287 H258 0.930 . S
C287 C282 1.261 . S
C287 C286 1.312 . S
C288 O260 1.214 . S
C288 O268 1.234 . S
C289 H261 0.929 . S
C289 C292 1.391 . S
C289 C294 1.391 . S
C290 H262 0.929 . S
C290 C291 1.390 . S
C290 N293 1.391 . S
C291 H263 0.930 . S
C291 C290 1.390 . S
C291 C292 1.392 . S
C292 H264 0.929 . S
C292 C289 1.391 . S
C292 C291 1.392 . S
N293 Co237 2.257 . S
N293 C290 1.391 . S
N293 C294 1.388 . S
C294 H265 0.930 . S
C294 C289 1.391 . S
C294 N293 1.388 . S
Co295 O297 2.143 . S
Co295 O303 2.074 . S
Co295 O306 2.093 . S
Co295 O319 2.097 . S
Co295 N336 2.151 . S
Co295 N344 2.214 . S
Co296 O297 2.160 . S
Co296 O302 2.058 . S
Co296 O312 2.057 . S
Co296 O327 2.037 . S
Co296 N331 2.145 . S
Co296 N352 2.257 . S
O297 Co295 2.143 . S
O297 Co296 2.160 . S
C298 O299 1.278 . S
C298 O306 1.224 . S
O299 C298 1.278 . S
C300 O301 1.245 . S
C300 O312 1.232 . S
O301 C300 1.245 . S
O302 Co296 2.058 . S
O302 C328 1.269 . S
O303 Co295 2.074 . S
O303 C328 1.257 . S
H304 C329 0.930 . S
H305 C335 0.930 . S
O306 Co295 2.093 . S
O306 C298 1.224 . S
H307 C339 0.929 . S
H308 C341 0.930 . S
H309 C342 0.930 . S
H310 C340 0.929 . S
H311 C343 0.928 . S
O312 Co296 2.057 . S
O312 C300 1.232 . S
H313 C332 0.929 . S
H314 C333 0.929 . S
H315 C345 0.931 . S
H316 C337 0.929 . S
H317 C346 0.930 . S
H318 C338 0.931 . S
O319 Co295 2.097 . S
O319 C347 1.214 . S
H320 C348 0.929 . S
H321 C349 0.929 . S
H322 C350 0.930 . S
H323 C351 0.929 . S
H324 C353 0.930 . S
H325 C330 0.930 . S
H326 C334 0.930 . S
O327 Co296 2.037 . S
O327 C347 1.234 . S
C328 O302 1.269 . S
C328 O303 1.257 . S
C329 H304 0.930 . S
C329 C332 1.388 . S
C329 C334 1.418 . S
C330 H325 0.930 . S
C330 C333 1.404 . S
C330 C334 1.353 . S
N331 Co296 2.145 . S
N331 C332 1.397 . S
N331 C333 1.334 . S
C332 H313 0.929 . S
C332 C329 1.388 . S
C332 N331 1.397 . S
C333 H314 0.929 . S
C333 C330 1.404 . S
C333 N331 1.334 . S
C334 H326 0.930 . S
C334 C329 1.418 . S
C334 C330 1.353 . S
C335 H305 0.930 . S
C335 N336 1.330 . S
C335 C337 1.446 . S
N336 Co295 2.151 . S
N336 C335 1.330 . S
N336 C340 1.418 . S
C337 H316 0.929 . S
C337 C335 1.446 . S
C337 C338 1.332 . S
C338 H318 0.931 . S
C338 C337 1.332 . S
C338 C339 1.267 . S
C339 H307 0.929 . S
C339 C338 1.267 . S
C339 C340 1.251 . S
C340 H310 0.929 . S
C340 N336 1.418 . S
C340 C339 1.251 . S
C341 H308 0.930 . S
C341 C343 1.406 . S
C341 C346 1.261 . S
C342 H309 0.930 . S
C342 N344 1.325 . S
C342 C345 1.357 . S
C343 H311 0.928 . S
C343 C341 1.406 . S
C343 N344 1.261 . S
N344 Co295 2.214 . S
N344 C342 1.325 . S
N344 C343 1.261 . S
C345 H315 0.931 . S
C345 C342 1.357 . S
C345 C346 1.312 . S
C346 H317 0.930 . S
C346 C341 1.261 . S
C346 C345 1.312 . S
C347 O319 1.214 . S
C347 O327 1.234 . S
C348 H320 0.929 . S
C348 C351 1.391 . S
C348 C353 1.391 . S
C349 H321 0.929 . S
C349 C350 1.390 . S
C349 N352 1.391 . S
C350 H322 0.930 . S
C350 C349 1.390 . S
C350 C351 1.392 . S
C351 H323 0.929 . S
C351 C348 1.391 . S
C351 C350 1.392 . S
N352 Co296 2.257 . S
N352 C349 1.391 . S
N352 C353 1.388 . S
C353 H324 0.930 . S
C353 C348 1.391 . S
C353 N352 1.388 . S
Co354 O356 2.143 . S
Co354 O362 2.074 . S
Co354 O365 2.093 . S
Co354 O378 2.097 . S
Co354 N395 2.159 1_565 S
Co354 N403 2.214 1_565 S
Co355 O356 2.160 . S
Co355 O361 2.058 . S
Co355 O371 2.057 . S
Co355 O386 2.037 . S
Co355 N390 2.145 . S
Co355 N411 2.257 . S
O356 Co354 2.143 . S
O356 Co355 2.160 . S
C357 O358 1.278 . S
C357 O365 1.224 . S
O358 C357 1.278 . S
C359 O360 1.245 . S
C359 O371 1.232 . S
O360 C359 1.245 . S
O361 Co355 2.058 . S
O361 C387 1.269 . S
O362 Co354 2.074 . S
O362 C387 1.257 . S
H363 C388 0.930 . S
H364 C394 0.930 . S
O365 Co354 2.093 . S
O365 C357 1.224 . S
H366 C398 0.929 . S
H367 C400 0.930 . S
H368 C401 0.930 . S
H369 C399 0.929 . S
H370 C402 0.928 . S
O371 Co355 2.057 . S
O371 C359 1.232 . S
H372 C391 0.929 . S
H373 C392 0.929 . S
H374 C404 0.931 . S
H375 C396 0.929 . S
H376 C405 0.930 . S
H377 C397 0.931 . S
O378 Co354 2.097 . S
O378 C406 1.214 . S
H379 C407 0.929 . S
H380 C408 0.929 . S
H381 C409 0.930 . S
H382 C410 0.929 . S
H383 C412 0.930 . S
H384 C389 0.930 . S
H385 C393 0.930 . S
O386 Co355 2.037 . S
O386 C406 1.234 . S
C387 O361 1.269 . S
C387 O362 1.257 . S
C388 H363 0.930 . S
C388 C391 1.388 . S
C388 C393 1.418 . S
C389 H384 0.930 . S
C389 C392 1.404 . S
C389 C393 1.353 . S
N390 Co355 2.145 . S
N390 C391 1.397 . S
N390 C392 1.334 . S
C391 H372 0.929 . S
C391 C388 1.388 . S
C391 N390 1.397 . S
C392 H373 0.929 . S
C392 C389 1.404 . S
C392 N390 1.334 . S
C393 H385 0.930 . S
C393 C388 1.418 . S
C393 C389 1.353 . S
C394 H364 0.930 . S
C394 N395 1.307 1_565 S
C394 C396 1.446 1_565 S
N395 Co354 2.159 1_545 S
N395 C394 1.307 1_545 S
N395 C399 1.440 . S
C396 H375 0.929 . S
C396 C394 1.446 1_545 S
C396 C397 1.332 . S
C397 H377 0.931 . S
C397 C396 1.332 . S
C397 C398 1.267 . S
C398 H366 0.929 . S
C398 C397 1.267 . S
C398 C399 1.251 . S
C399 H369 0.929 . S
C399 N395 1.440 . S
C399 C398 1.251 . S
C400 H367 0.930 . S
C400 C402 1.406 . S
C400 C405 1.261 . S
C401 H368 0.930 . S
C401 N403 1.325 . S
C401 C404 1.357 . S
C402 H370 0.928 . S
C402 C400 1.406 . S
C402 N403 1.261 . S
N403 Co354 2.214 1_545 S
N403 C401 1.325 . S
N403 C402 1.261 . S
C404 H374 0.931 . S
C404 C401 1.357 . S
C404 C405 1.312 . S
C405 H376 0.930 . S
C405 C400 1.261 . S
C405 C404 1.312 . S
C406 O378 1.214 . S
C406 O386 1.234 . S
C407 H379 0.929 . S
C407 C410 1.391 . S
C407 C412 1.391 . S
C408 H380 0.929 . S
C408 C409 1.390 . S
C408 N411 1.391 . S
C409 H381 0.930 . S
C409 C408 1.390 . S
C409 C410 1.392 . S
C410 H382 0.929 . S
C410 C407 1.391 . S
C410 C409 1.392 . S
N411 Co355 2.257 . S
N411 C408 1.391 . S
N411 C412 1.388 . S
C412 H383 0.930 . S
C412 C407 1.391 . S
C412 N411 1.388 . S
Co413 O415 2.143 . S
Co413 O421 2.074 . S
Co413 O424 2.093 . S
Co413 O437 2.097 . S
Co413 N454 2.151 . S
Co413 N462 2.214 . S
Co414 O415 2.160 . S
Co414 O420 2.058 . S
Co414 O430 2.057 . S
Co414 O445 2.037 . S
Co414 N449 2.145 . S
Co414 N470 2.257 . S
O415 Co413 2.143 . S
O415 Co414 2.160 . S
C416 O417 1.278 . S
C416 O424 1.224 . S
O417 C416 1.278 . S
C418 O419 1.245 . S
C418 O430 1.232 . S
O419 C418 1.245 . S
O420 Co414 2.058 . S
O420 C446 1.269 . S
O421 Co413 2.074 . S
O421 C446 1.257 . S
H422 C447 0.930 . S
H423 C453 0.930 . S
O424 Co413 2.093 . S
O424 C416 1.224 . S
H425 C457 0.929 . S
H426 C459 0.930 . S
H427 C460 0.930 . S
H428 C458 0.929 . S
H429 C461 0.928 . S
O430 Co414 2.057 . S
O430 C418 1.232 . S
H431 C450 0.929 . S
H432 C451 0.929 . S
H433 C463 0.931 . S
H434 C455 0.929 . S
H435 C464 0.930 . S
H436 C456 0.931 . S
O437 Co413 2.097 . S
O437 C465 1.214 . S
H438 C466 0.929 . S
H439 C467 0.929 . S
H440 C468 0.930 . S
H441 C469 0.929 . S
H442 C471 0.930 . S
H443 C448 0.930 . S
H444 C452 0.930 . S
O445 Co414 2.037 . S
O445 C465 1.234 . S
C446 O420 1.269 . S
C446 O421 1.257 . S
C447 H422 0.930 . S
C447 C450 1.388 . S
C447 C452 1.418 . S
C448 H443 0.930 . S
C448 C451 1.404 . S
C448 C452 1.353 . S
N449 Co414 2.145 . S
N449 C450 1.397 . S
N449 C451 1.334 . S
C450 H431 0.929 . S
C450 C447 1.388 . S
C450 N449 1.397 . S
C451 H432 0.929 . S
C451 C448 1.404 . S
C451 N449 1.334 . S
C452 H444 0.930 . S
C452 C447 1.418 . S
C452 C448 1.353 . S
C453 H423 0.930 . S
C453 N454 1.330 . S
C453 C455 1.446 . S
N454 Co413 2.151 . S
N454 C453 1.330 . S
N454 C458 1.418 . S
C455 H434 0.929 . S
C455 C453 1.446 . S
C455 C456 1.332 . S
C456 H436 0.931 . S
C456 C455 1.332 . S
C456 C457 1.267 . S
C457 H425 0.929 . S
C457 C456 1.267 . S
C457 C458 1.251 . S
C458 H428 0.929 . S
C458 N454 1.418 . S
C458 C457 1.251 . S
C459 H426 0.930 . S
C459 C461 1.406 . S
C459 C464 1.261 . S
C460 H427 0.930 . S
C460 N462 1.325 . S
C460 C463 1.357 . S
C461 H429 0.928 . S
C461 C459 1.406 . S
C461 N462 1.261 . S
N462 Co413 2.214 . S
N462 C460 1.325 . S
N462 C461 1.261 . S
C463 H433 0.931 . S
C463 C460 1.357 . S
C463 C464 1.312 . S
C464 H435 0.930 . S
C464 C459 1.261 . S
C464 C463 1.312 . S
C465 O437 1.214 . S
C465 O445 1.234 . S
C466 H438 0.929 . S
C466 C469 1.391 . S
C466 C471 1.391 . S
C467 H439 0.929 . S
C467 C468 1.390 . S
C467 N470 1.391 . S
C468 H440 0.930 . S
C468 C467 1.390 . S
C468 C469 1.392 . S
C469 H441 0.929 . S
C469 C466 1.391 . S
C469 C468 1.392 . S
N470 Co414 2.257 . S
N470 C467 1.391 . S
N470 C471 1.388 . S
C471 H442 0.930 . S
C471 C466 1.391 . S
C471 N470 1.388 . S
Co472 O474 2.143 . S
Co472 O480 2.074 . S
Co472 O483 2.093 . S
Co472 O496 2.097 . S
Co472 N513 2.115 1_455 S
Co472 N521 2.214 1_455 S
Co473 O474 2.160 . S
Co473 O479 2.058 . S
Co473 O489 2.057 . S
Co473 O504 2.037 . S
Co473 N508 2.145 . S
Co473 N529 2.257 . S
O474 Co472 2.143 . S
O474 Co473 2.160 . S
C475 O476 1.278 . S
C475 O483 1.224 . S
O476 C475 1.278 . S
C477 O478 1.245 . S
C477 O489 1.232 . S
O478 C477 1.245 . S
O479 Co473 2.058 . S
O479 C505 1.269 . S
O480 Co472 2.074 . S
O480 C505 1.257 . S
H481 C506 0.930 . S
H482 C512 0.930 . S
O483 Co472 2.093 . S
O483 C475 1.224 . S
H484 C516 0.929 . S
H485 C518 0.930 . S
H486 C519 0.930 . S
H487 C517 0.929 . S
H488 C520 0.928 . S
O489 Co473 2.057 . S
O489 C477 1.232 . S
H490 C509 0.929 . S
H491 C510 0.929 . S
H492 C522 0.931 . S
H493 C514 0.929 . S
H494 C523 0.930 . S
H495 C515 0.931 . S
O496 Co472 2.097 . S
O496 C524 1.214 . S
H497 C525 0.929 . S
H498 C526 0.929 . S
H499 C527 0.930 . S
H500 C528 0.929 . S
H501 C530 0.930 . S
H502 C507 0.930 . S
H503 C511 0.930 . S
O504 Co473 2.037 . S
O504 C524 1.234 . S
C505 O479 1.269 . S
C505 O480 1.257 . S
C506 H481 0.930 . S
C506 C509 1.388 . S
C506 C511 1.418 . S
C507 H502 0.930 . S
C507 C510 1.404 . S
C507 C511 1.353 . S
N508 Co473 2.145 . S
N508 C509 1.397 . S
N508 C510 1.334 . S
C509 H490 0.929 . S
C509 C506 1.388 . S
C509 N508 1.397 . S
C510 H491 0.929 . S
C510 C507 1.404 . S
C510 N508 1.334 . S
C511 H503 0.930 . S
C511 C506 1.418 . S
C511 C507 1.353 . S
C512 H482 0.930 . S
C512 N513 1.339 1_455 S
C512 C514 1.446 1_455 S
N513 Co472 2.115 1_655 S
N513 C512 1.339 1_655 S
N513 C517 1.453 . S
C514 H493 0.929 . S
C514 C512 1.446 1_655 S
C514 C515 1.332 . S
C515 H495 0.931 . S
C515 C514 1.332 . S
C515 C516 1.267 . S
C516 H484 0.929 . S
C516 C515 1.267 . S
C516 C517 1.251 . S
C517 H487 0.929 . S
C517 N513 1.453 . S
C517 C516 1.251 . S
C518 H485 0.930 . S
C518 C520 1.406 . S
C518 C523 1.261 . S
C519 H486 0.930 . S
C519 N521 1.325 . S
C519 C522 1.357 . S
C520 H488 0.928 . S
C520 C518 1.406 . S
C520 N521 1.261 . S
N521 Co472 2.214 1_655 S
N521 C519 1.325 . S
N521 C520 1.261 . S
C522 H492 0.931 . S
C522 C519 1.357 . S
C522 C523 1.312 . S
C523 H494 0.930 . S
C523 C518 1.261 . S
C523 C522 1.312 . S
C524 O496 1.214 . S
C524 O504 1.234 . S
C525 H497 0.929 . S
C525 C528 1.391 . S
C525 C530 1.391 . S
C526 H498 0.929 . S
C526 C527 1.390 . S
C526 N529 1.391 . S
C527 H499 0.930 . S
C527 C526 1.390 . S
C527 C528 1.392 . S
C528 H500 0.929 . S
C528 C525 1.391 . S
C528 C527 1.392 . S
N529 Co473 2.257 . S
N529 C526 1.391 . S
N529 C530 1.388 . S
C530 H501 0.930 . S
C530 C525 1.391 . S
C530 N529 1.388 . S
Co531 O533 2.143 . S
Co531 O539 2.074 . S
Co531 O542 2.093 . S
Co531 O555 2.097 . S
Co531 N572 2.159 1_545 S
Co531 N580 2.214 1_545 S
Co532 O533 2.160 . S
Co532 O538 2.058 . S
Co532 O548 2.057 . S
Co532 O563 2.037 . S
Co532 N567 2.145 . S
Co532 N588 2.257 . S
O533 Co531 2.143 . S
O533 Co532 2.160 . S
C534 O535 1.278 . S
C534 O542 1.224 . S
O535 C534 1.278 . S
C536 O537 1.245 . S
C536 O548 1.232 . S
O537 C536 1.245 . S
O538 Co532 2.058 . S
O538 C564 1.269 . S
O539 Co531 2.074 . S
O539 C564 1.257 . S
H540 C565 0.930 . S
H541 C571 0.930 . S
O542 Co531 2.093 . S
O542 C534 1.224 . S
H543 C575 0.929 . S
H544 C577 0.930 . S
H545 C578 0.930 . S
H546 C576 0.929 . S
H547 C579 0.928 . S
O548 Co532 2.057 . S
O548 C536 1.232 . S
H549 C568 0.929 . S
H550 C569 0.929 . S
H551 C581 0.931 . S
H552 C573 0.929 . S
H553 C582 0.930 . S
H554 C574 0.931 . S
O555 Co531 2.097 . S
O555 C583 1.214 . S
H556 C584 0.929 . S
H557 C585 0.929 . S
H558 C586 0.930 . S
H559 C587 0.929 . S
H560 C589 0.930 . S
H561 C566 0.930 . S
H562 C570 0.930 . S
O563 Co532 2.037 . S
O563 C583 1.234 . S
C564 O538 1.269 . S
C564 O539 1.257 . S
C565 H540 0.930 . S
C565 C568 1.388 . S
C565 C570 1.418 . S
C566 H561 0.930 . S
C566 C569 1.404 . S
C566 C570 1.353 . S
N567 Co532 2.145 . S
N567 C568 1.397 . S
N567 C569 1.334 . S
C568 H549 0.929 . S
C568 C565 1.388 . S
C568 N567 1.397 . S
C569 H550 0.929 . S
C569 C566 1.404 . S
C569 N567 1.334 . S
C570 H562 0.930 . S
C570 C565 1.418 . S
C570 C566 1.353 . S
C571 H541 0.930 . S
C571 N572 1.307 1_545 S
C571 C573 1.446 1_545 S
N572 Co531 2.159 1_565 S
N572 C571 1.307 1_565 S
N572 C576 1.440 . S
C573 H552 0.929 . S
C573 C571 1.446 1_565 S
C573 C574 1.332 . S
C574 H554 0.931 . S
C574 C573 1.332 . S
C574 C575 1.267 . S
C575 H543 0.929 . S
C575 C574 1.267 . S
C575 C576 1.251 . S
C576 H546 0.929 . S
C576 N572 1.440 . S
C576 C575 1.251 . S
C577 H544 0.930 . S
C577 C579 1.406 . S
C577 C582 1.261 . S
C578 H545 0.930 . S
C578 N580 1.325 . S
C578 C581 1.357 . S
C579 H547 0.928 . S
C579 C577 1.406 . S
C579 N580 1.261 . S
N580 Co531 2.214 1_565 S
N580 C578 1.325 . S
N580 C579 1.261 . S
C581 H551 0.931 . S
C581 C578 1.357 . S
C581 C582 1.312 . S
C582 H553 0.930 . S
C582 C577 1.261 . S
C582 C581 1.312 . S
C583 O555 1.214 . S
C583 O563 1.234 . S
C584 H556 0.929 . S
C584 C587 1.391 . S
C584 C589 1.391 . S
C585 H557 0.929 . S
C585 C586 1.390 . S
C585 N588 1.391 . S
C586 H558 0.930 . S
C586 C585 1.390 . S
C586 C587 1.392 . S
C587 H559 0.929 . S
C587 C584 1.391 . S
C587 C586 1.392 . S
N588 Co532 2.257 . S
N588 C585 1.391 . S
N588 C589 1.388 . S
C589 H560 0.930 . S
C589 C584 1.391 . S
C589 N588 1.388 . S
Co590 O592 2.143 . S
Co590 O598 2.074 . S
Co590 O601 2.093 . S
Co590 O614 2.097 . S
Co590 N631 2.151 . S
Co590 N639 2.214 . S
Co591 O592 2.160 . S
Co591 O597 2.058 . S
Co591 O607 2.057 . S
Co591 O622 2.037 . S
Co591 N626 2.145 . S
Co591 N647 2.257 . S
O592 Co590 2.143 . S
O592 Co591 2.160 . S
C593 O594 1.278 . S
C593 O601 1.224 . S
O594 C593 1.278 . S
C595 O596 1.245 . S
C595 O607 1.232 . S
O596 C595 1.245 . S
O597 Co591 2.058 . S
O597 C623 1.269 . S
O598 Co590 2.074 . S
O598 C623 1.257 . S
H599 C624 0.930 . S
H600 C630 0.930 . S
O601 Co590 2.093 . S
O601 C593 1.224 . S
H602 C634 0.929 . S
H603 C636 0.930 . S
H604 C637 0.930 . S
H605 C635 0.929 . S
H606 C638 0.928 . S
O607 Co591 2.057 . S
O607 C595 1.232 . S
H608 C627 0.929 . S
H609 C628 0.929 . S
H610 C640 0.931 . S
H611 C632 0.929 . S
H612 C641 0.930 . S
H613 C633 0.931 . S
O614 Co590 2.097 . S
O614 C642 1.214 . S
H615 C643 0.929 . S
H616 C644 0.929 . S
H617 C645 0.930 . S
H618 C646 0.929 . S
H619 C648 0.930 . S
H620 C625 0.930 . S
H621 C629 0.930 . S
O622 Co591 2.037 . S
O622 C642 1.234 . S
C623 O597 1.269 . S
C623 O598 1.257 . S
C624 H599 0.930 . S
C624 C627 1.388 . S
C624 C629 1.418 . S
C625 H620 0.930 . S
C625 C628 1.404 . S
C625 C629 1.353 . S
N626 Co591 2.145 . S
N626 C627 1.397 . S
N626 C628 1.334 . S
C627 H608 0.929 . S
C627 C624 1.388 . S
C627 N626 1.397 . S
C628 H609 0.929 . S
C628 C625 1.404 . S
C628 N626 1.334 . S
C629 H621 0.930 . S
C629 C624 1.418 . S
C629 C625 1.353 . S
C630 H600 0.930 . S
C630 N631 1.330 . S
C630 C632 1.446 . S
N631 Co590 2.151 . S
N631 C630 1.330 . S
N631 C635 1.418 . S
C632 H611 0.929 . S
C632 C630 1.446 . S
C632 C633 1.332 . S
C633 H613 0.931 . S
C633 C632 1.332 . S
C633 C634 1.267 . S
C634 H602 0.929 . S
C634 C633 1.267 . S
C634 C635 1.251 . S
C635 H605 0.929 . S
C635 N631 1.418 . S
C635 C634 1.251 . S
C636 H603 0.930 . S
C636 C638 1.406 . S
C636 C641 1.261 . S
C637 H604 0.930 . S
C637 N639 1.325 . S
C637 C640 1.357 . S
C638 H606 0.928 . S
C638 C636 1.406 . S
C638 N639 1.261 . S
N639 Co590 2.214 . S
N639 C637 1.325 . S
N639 C638 1.261 . S
C640 H610 0.931 . S
C640 C637 1.357 . S
C640 C641 1.312 . S
C641 H612 0.930 . S
C641 C636 1.261 . S
C641 C640 1.312 . S
C642 O614 1.214 . S
C642 O622 1.234 . S
C643 H615 0.929 . S
C643 C646 1.391 . S
C643 C648 1.391 . S
C644 H616 0.929 . S
C644 C645 1.390 . S
C644 N647 1.391 . S
C645 H617 0.930 . S
C645 C644 1.390 . S
C645 C646 1.392 . S
C646 H618 0.929 . S
C646 C643 1.391 . S
C646 C645 1.392 . S
N647 Co591 2.257 . S
N647 C644 1.391 . S
N647 C648 1.388 . S
C648 H619 0.930 . S
C648 C643 1.391 . S
C648 N647 1.388 . S
Co649 O651 2.143 . S
Co649 O657 2.074 . S
Co649 O660 2.093 . S
Co649 O673 2.097 . S
Co649 N690 2.115 1_655 S
Co649 N698 2.214 1_655 S
Co650 O651 2.160 . S
Co650 O656 2.058 . S
Co650 O666 2.057 . S
Co650 O681 2.037 . S
Co650 N685 2.145 . S
Co650 N706 2.257 . S
O651 Co649 2.143 . S
O651 Co650 2.160 . S
C652 O653 1.278 . S
C652 O660 1.224 . S
O653 C652 1.278 . S
C654 O655 1.245 . S
C654 O666 1.232 . S
O655 C654 1.245 . S
O656 Co650 2.058 . S
O656 C682 1.269 . S
O657 Co649 2.074 . S
O657 C682 1.257 . S
H658 C683 0.930 . S
H659 C689 0.930 . S
O660 Co649 2.093 . S
O660 C652 1.224 . S
H661 C693 0.929 . S
H662 C695 0.930 . S
H663 C696 0.930 . S
H664 C694 0.929 . S
H665 C697 0.928 . S
O666 Co650 2.057 . S
O666 C654 1.232 . S
H667 C686 0.929 . S
H668 C687 0.929 . S
H669 C699 0.931 . S
H670 C691 0.929 . S
H671 C700 0.930 . S
H672 C692 0.931 . S
O673 Co649 2.097 . S
O673 C701 1.214 . S
H674 C702 0.929 . S
H675 C703 0.929 . S
H676 C704 0.930 . S
H677 C705 0.929 . S
H678 C707 0.930 . S
H679 C684 0.930 . S
H680 C688 0.930 . S
O681 Co650 2.037 . S
O681 C701 1.234 . S
C682 O656 1.269 . S
C682 O657 1.257 . S
C683 H658 0.930 . S
C683 C686 1.388 . S
C683 C688 1.418 . S
C684 H679 0.930 . S
C684 C687 1.404 . S
C684 C688 1.353 . S
N685 Co650 2.145 . S
N685 C686 1.397 . S
N685 C687 1.334 . S
C686 H667 0.929 . S
C686 C683 1.388 . S
C686 N685 1.397 . S
C687 H668 0.929 . S
C687 C684 1.404 . S
C687 N685 1.334 . S
C688 H680 0.930 . S
C688 C683 1.418 . S
C688 C684 1.353 . S
C689 H659 0.930 . S
C689 N690 1.339 1_655 S
C689 C691 1.446 1_655 S
N690 Co649 2.115 1_455 S
N690 C689 1.339 1_455 S
N690 C694 1.453 . S
C691 H670 0.929 . S
C691 C689 1.446 1_455 S
C691 C692 1.332 . S
C692 H672 0.931 . S
C692 C691 1.332 . S
C692 C693 1.267 . S
C693 H661 0.929 . S
C693 C692 1.267 . S
C693 C694 1.251 . S
C694 H664 0.929 . S
C694 N690 1.453 . S
C694 C693 1.251 . S
C695 H662 0.930 . S
C695 C697 1.406 . S
C695 C700 1.261 . S
C696 H663 0.930 . S
C696 N698 1.325 . S
C696 C699 1.357 . S
C697 H665 0.928 . S
C697 C695 1.406 . S
C697 N698 1.261 . S
N698 Co649 2.214 1_455 S
N698 C696 1.325 . S
N698 C697 1.261 . S
C699 H669 0.931 . S
C699 C696 1.357 . S
C699 C700 1.312 . S
C700 H671 0.930 . S
C700 C695 1.261 . S
C700 C699 1.312 . S
C701 O673 1.214 . S
C701 O681 1.234 . S
C702 H674 0.929 . S
C702 C705 1.391 . S
C702 C707 1.391 . S
C703 H675 0.929 . S
C703 C704 1.390 . S
C703 N706 1.391 . S
C704 H676 0.930 . S
C704 C703 1.390 . S
C704 C705 1.392 . S
C705 H677 0.929 . S
C705 C702 1.391 . S
C705 C704 1.392 . S
N706 Co650 2.257 . S
N706 C703 1.391 . S
N706 C707 1.388 . S
C707 H678 0.930 . S
C707 C702 1.391 . S
C707 N706 1.388 . S
C708 C709 1.349 . S
C708 C710 1.327 1_455 S
C708 H733 0.950 1_455 S
C709 C708 1.349 . S
C709 C725 1.349 . S
C710 C708 1.327 1_655 S
C710 C729 1.429 1_655 S
C710 H734 0.950 . S
C711 C728 1.574 1_554 S
C711 C730 1.368 . S
C711 H735 0.949 . S
H712 C716 0.949 . S
C713 C714 1.349 . S
C713 C715 1.327 1_655 S
C713 H736 0.950 1_655 S
C714 C713 1.349 . S
C714 C726 1.349 . S
C715 C713 1.327 1_455 S
C715 C731 1.429 1_455 S
C715 H737 0.950 . S
C716 H712 0.949 . S
C716 C724 1.574 1_556 S
C716 C732 1.368 . S
H717 C725 0.950 . S
H718 C723 0.950 . S
H719 C724 0.949 . S
H720 C726 0.950 . S
H721 C727 0.950 . S
H722 C728 0.949 . S
C723 H718 0.950 . S
C723 C725 1.327 . S
C723 C729 1.429 . S
C724 C716 1.574 1_554 S
C724 H719 0.949 . S
C724 C730 1.368 1_655 S
C725 C709 1.349 . S
C725 H717 0.950 . S
C725 C723 1.327 . S
C726 C714 1.349 . S
C726 H720 0.950 . S
C726 C727 1.327 . S
C727 H721 0.950 . S
C727 C726 1.327 . S
C727 C731 1.429 . S
C728 C711 1.574 1_556 S
C728 H722 0.949 . S
C728 C732 1.368 1_455 S
C729 C710 1.429 1_455 S
C729 C723 1.429 . S
C729 C730 1.523 . S
C730 C711 1.368 . S
C730 C724 1.368 1_455 S
C730 C729 1.523 . S
C731 C715 1.429 1_655 S
C731 C727 1.429 . S
C731 C732 1.523 . S
C732 C716 1.368 . S
C732 C728 1.368 1_655 S
C732 C731 1.523 . S
H733 C708 0.950 1_655 S
H734 C710 0.950 . S
H735 C711 0.949 . S
H736 C713 0.950 1_455 S
H737 C715 0.950 . S
C738 C739 1.349 . S
C738 C740 1.327 . S
C738 H763 0.950 . S
C739 C738 1.349 . S
C739 C755 1.349 . S
C740 C738 1.327 . S
C740 C759 1.429 . S
C740 H764 0.950 . S
C741 C758 1.574 1_565 S
C741 C760 1.368 . S
C741 H765 0.949 . S
H742 C746 0.949 . S
C743 C744 1.349 . S
C743 C745 1.327 . S
C743 H766 0.950 . S
C744 C743 1.349 . S
C744 C756 1.349 . S
C745 C743 1.327 . S
C745 C761 1.429 . S
C745 H767 0.950 . S
C746 H742 0.949 . S
C746 C754 1.574 1_545 S
C746 C762 1.368 . S
H747 C755 0.950 . S
H748 C753 0.950 . S
H749 C754 0.949 . S
H750 C756 0.950 . S
H751 C757 0.950 . S
H752 C758 0.949 . S
C753 H748 0.950 . S
C753 C755 1.327 . S
C753 C759 1.429 . S
C754 C746 1.574 1_565 S
C754 H749 0.949 . S
C754 C760 1.368 . S
C755 C739 1.349 . S
C755 H747 0.950 . S
C755 C753 1.327 . S
C756 C744 1.349 . S
C756 H750 0.950 . S
C756 C757 1.327 . S
C757 H751 0.950 . S
C757 C756 1.327 . S
C757 C761 1.429 . S
C758 C741 1.574 1_545 S
C758 H752 0.949 . S
C758 C762 1.368 . S
C759 C740 1.429 . S
C759 C753 1.429 . S
C759 C760 1.523 . S
C760 C741 1.368 . S
C760 C754 1.368 . S
C760 C759 1.523 . S
C761 C745 1.429 . S
C761 C757 1.429 . S
C761 C762 1.523 . S
C762 C746 1.368 . S
C762 C758 1.368 . S
C762 C761 1.523 . S
H763 C738 0.950 . S
H764 C740 0.950 . S
H765 C741 0.949 . S
H766 C743 0.950 . S
H767 C745 0.950 . S
C768 C769 1.349 . S
C768 C770 1.327 . S
C768 H793 0.950 . S
C769 C768 1.349 . S
C769 C785 1.349 . S
C770 C768 1.327 . S
C770 C789 1.429 . S
C770 H794 0.950 . S
C771 C788 1.574 1_554 S
C771 C790 1.368 . S
C771 H795 0.949 . S
H772 C776 0.949 . S
C773 C774 1.349 . S
C773 C775 1.327 . S
C773 H796 0.950 . S
C774 C773 1.349 . S
C774 C786 1.349 . S
C775 C773 1.327 . S
C775 C791 1.429 . S
C775 H797 0.950 . S
C776 H772 0.949 . S
C776 C784 1.574 1_556 S
C776 C792 1.368 . S
H777 C785 0.950 . S
H778 C783 0.950 . S
H779 C784 0.949 . S
H780 C786 0.950 . S
H781 C787 0.950 . S
H782 C788 0.949 . S
C783 H778 0.950 . S
C783 C785 1.327 . S
C783 C789 1.429 . S
C784 C776 1.574 1_554 S
C784 H779 0.949 . S
C784 C790 1.368 . S
C785 C769 1.349 . S
C785 H777 0.950 . S
C785 C783 1.327 . S
C786 C774 1.349 . S
C786 H780 0.950 . S
C786 C787 1.327 . S
C787 H781 0.950 . S
C787 C786 1.327 . S
C787 C791 1.429 . S
C788 C771 1.574 1_556 S
C788 H782 0.949 . S
C788 C792 1.368 . S
C789 C770 1.429 . S
C789 C783 1.429 . S
C789 C790 1.523 . S
C790 C771 1.368 . S
C790 C784 1.368 . S
C790 C789 1.523 . S
C791 C775 1.429 . S
C791 C787 1.429 . S
C791 C792 1.523 . S
C792 C776 1.368 . S
C792 C788 1.368 . S
C792 C791 1.523 . S
H793 C768 0.950 . S
H794 C770 0.950 . S
H795 C771 0.949 . S
H796 C773 0.950 . S
H797 C775 0.950 . S
C798 C799 1.349 . S
C798 C800 1.327 . S
C798 H823 0.950 . S
C799 C798 1.349 . S
C799 C815 1.349 . S
C800 C798 1.327 . S
C800 C819 1.429 . S
C800 H824 0.950 . S
C801 C818 1.574 1_455 S
C801 C820 1.368 . S
C801 H825 0.949 . S
H802 C806 0.949 . S
C803 C804 1.349 . S
C803 C805 1.327 . S
C803 H826 0.950 . S
C804 C803 1.349 . S
C804 C816 1.349 . S
C805 C803 1.327 . S
C805 C821 1.429 . S
C805 H827 0.950 . S
C806 H802 0.949 . S
C806 C814 1.574 1_655 S
C806 C822 1.368 . S
H807 C815 0.950 . S
H808 C813 0.950 . S
H809 C814 0.949 . S
H810 C816 0.950 . S
H811 C817 0.950 . S
H812 C818 0.949 . S
C813 H808 0.950 . S
C813 C815 1.327 . S
C813 C819 1.429 . S
C814 C806 1.574 1_455 S
C814 H809 0.949 . S
C814 C820 1.368 . S
C815 C799 1.349 . S
C815 H807 0.950 . S
C815 C813 1.327 . S
C816 C804 1.349 . S
C816 H810 0.950 . S
C816 C817 1.327 . S
C817 H811 0.950 . S
C817 C816 1.327 . S
C817 C821 1.429 . S
C818 C801 1.574 1_655 S
C818 H812 0.949 . S
C818 C822 1.368 . S
C819 C800 1.429 . S
C819 C813 1.429 . S
C819 C820 1.523 . S
C820 C801 1.368 . S
C820 C814 1.368 . S
C820 C819 1.523 . S
C821 C805 1.429 . S
C821 C817 1.429 . S
C821 C822 1.523 . S
C822 C806 1.368 . S
C822 C818 1.368 . S
C822 C821 1.523 . S
H823 C798 0.950 . S
H824 C800 0.950 . S
H825 C801 0.949 . S
H826 C803 0.950 . S
H827 C805 0.950 . S
C828 C829 1.349 . S
C828 C830 1.327 1_545 S
C828 H853 0.950 1_545 S
C829 C828 1.349 . S
C829 C845 1.349 . S
C830 C828 1.327 1_565 S
C830 C849 1.429 1_565 S
C830 H854 0.950 . S
C831 C848 1.574 1_556 S
C831 C850 1.368 . S
C831 H855 0.949 . S
H832 C836 0.949 . S
C833 C834 1.349 . S
C833 C835 1.327 1_565 S
C833 H856 0.950 1_565 S
C834 C833 1.349 . S
C834 C846 1.349 . S
C835 C833 1.327 1_545 S
C835 C851 1.429 1_545 S
C835 H857 0.950 . S
C836 H832 0.949 . S
C836 C844 1.574 1_554 S
C836 C852 1.368 . S
H837 C845 0.950 . S
H838 C843 0.950 . S
H839 C844 0.949 . S
H840 C846 0.950 . S
H841 C847 0.950 . S
H842 C848 0.949 . S
C843 H838 0.950 . S
C843 C845 1.327 . S
C843 C849 1.429 . S
C844 C836 1.574 1_556 S
C844 H839 0.949 . S
C844 C850 1.368 1_565 S
C845 C829 1.349 . S
C845 H837 0.950 . S
C845 C843 1.327 . S
C846 C834 1.349 . S
C846 H840 0.950 . S
C846 C847 1.327 . S
C847 H841 0.950 . S
C847 C846 1.327 . S
C847 C851 1.429 . S
C848 C831 1.574 1_554 S
C848 H842 0.949 . S
C848 C852 1.368 1_545 S
C849 C830 1.429 1_545 S
C849 C843 1.429 . S
C849 C850 1.523 . S
C850 C831 1.368 . S
C850 C844 1.368 1_545 S
C850 C849 1.523 . S
C851 C835 1.429 1_565 S
C851 C847 1.429 . S
C851 C852 1.523 . S
C852 C836 1.368 . S
C852 C848 1.368 1_565 S
C852 C851 1.523 . S
H853 C828 0.950 1_565 S
H854 C830 0.950 . S
H855 C831 0.949 . S
H856 C833 0.950 1_545 S
H857 C835 0.950 . S
C858 C859 1.349 . S
C858 C860 1.327 . S
C858 H883 0.950 . S
C859 C858 1.349 . S
C859 C875 1.349 . S
C860 C858 1.327 . S
C860 C879 1.429 . S
C860 H884 0.950 . S
C861 C878 1.574 . S
C861 C880 1.368 . S
C861 H885 0.949 . S
H862 C866 0.949 . S
C863 C864 1.349 . S
C863 C865 1.327 . S
C863 H886 0.950 . S
C864 C863 1.349 . S
C864 C876 1.349 . S
C865 C863 1.327 . S
C865 C881 1.429 . S
C865 H887 0.950 . S
C866 H862 0.949 . S
C866 C874 1.574 . S
C866 C882 1.368 . S
H867 C875 0.950 . S
H868 C873 0.950 . S
H869 C874 0.949 . S
H870 C876 0.950 . S
H871 C877 0.950 . S
H872 C878 0.949 . S
C873 H868 0.950 . S
C873 C875 1.327 . S
C873 C879 1.429 . S
C874 C866 1.574 . S
C874 H869 0.949 . S
C874 C880 1.368 . S
C875 C859 1.349 . S
C875 H867 0.950 . S
C875 C873 1.327 . S
C876 C864 1.349 . S
C876 H870 0.950 . S
C876 C877 1.327 . S
C877 H871 0.950 . S
C877 C876 1.327 . S
C877 C881 1.429 . S
C878 C861 1.574 . S
C878 H872 0.949 . S
C878 C882 1.368 . S
C879 C860 1.429 . S
C879 C873 1.429 . S
C879 C880 1.523 . S
C880 C861 1.368 . S
C880 C874 1.368 . S
C880 C879 1.523 . S
C881 C865 1.429 . S
C881 C877 1.429 . S
C881 C882 1.523 . S
C882 C866 1.368 . S
C882 C878 1.368 . S
C882 C881 1.523 . S
H883 C858 0.950 . S
H884 C860 0.950 . S
H885 C861 0.949 . S
H886 C863 0.950 . S
H887 C865 0.950 . S
C888 C889 1.349 . S
C888 C890 1.327 . S
C888 H913 0.950 . S
C889 C888 1.349 . S
C889 C905 1.349 . S
C890 C888 1.327 . S
C890 C909 1.429 . S
C890 H914 0.950 . S
C891 C908 1.574 1_556 S
C891 C910 1.368 1_455 S
C891 H915 0.949 . S
H892 C896 0.949 . S
C893 C894 1.349 . S
C893 C895 1.327 . S
C893 H916 0.950 . S
C894 C893 1.349 . S
C894 C906 1.349 . S
C895 C893 1.327 . S
C895 C911 1.429 . S
C895 H917 0.950 . S
C896 H892 0.949 . S
C896 C904 1.574 1_554 S
C896 C912 1.368 1_655 S
H897 C905 0.950 . S
H898 C903 0.950 . S
H899 C904 0.949 . S
H900 C906 0.950 . S
H901 C907 0.950 . S
H902 C908 0.949 . S
C903 H898 0.950 . S
C903 C905 1.327 . S
C903 C909 1.429 . S
C904 C896 1.574 1_556 S
C904 H899 0.949 . S
C904 C910 1.368 . S
C905 C889 1.349 . S
C905 H897 0.950 . S
C905 C903 1.327 . S
C906 C894 1.349 . S
C906 H900 0.950 . S
C906 C907 1.327 . S
C907 H901 0.950 . S
C907 C906 1.327 . S
C907 C911 1.429 . S
C908 C891 1.574 1_554 S
C908 H902 0.949 . S
C908 C912 1.368 . S
C909 C890 1.429 . S
C909 C903 1.429 . S
C909 C910 1.523 . S
C910 C891 1.368 1_655 S
C910 C904 1.368 . S
C910 C909 1.523 . S
C911 C895 1.429 . S
C911 C907 1.429 . S
C911 C912 1.523 . S
C912 C896 1.368 1_455 S
C912 C908 1.368 . S
C912 C911 1.523 . S
H913 C888 0.950 . S
H914 C890 0.950 . S
H915 C891 0.949 . S
H916 C893 0.950 . S
H917 C895 0.950 . S
C918 C919 1.349 . S
C918 C920 1.327 1_565 S
C918 H943 0.950 1_565 S
C919 C918 1.349 . S
C919 C935 1.349 . S
C920 C918 1.327 1_545 S
C920 C939 1.429 1_545 S
C920 H944 0.950 . S
C921 C938 1.574 . S
C921 C940 1.368 . S
C921 H945 0.949 . S
H922 C926 0.949 . S
C923 C924 1.349 . S
C923 C925 1.327 1_545 S
C923 H946 0.950 1_545 S
C924 C923 1.349 . S
C924 C936 1.349 . S
C925 C923 1.327 1_565 S
C925 C941 1.429 1_565 S
C925 H947 0.950 . S
C926 H922 0.949 . S
C926 C934 1.574 . S
C926 C942 1.368 . S
H927 C935 0.950 . S
H928 C933 0.950 . S
H929 C934 0.949 . S
H930 C936 0.950 . S
H931 C937 0.950 . S
H932 C938 0.949 . S
C933 H928 0.950 . S
C933 C935 1.327 . S
C933 C939 1.429 . S
C934 C926 1.574 . S
C934 H929 0.949 . S
C934 C940 1.368 1_545 S
C935 C919 1.349 . S
C935 H927 0.950 . S
C935 C933 1.327 . S
C936 C924 1.349 . S
C936 H930 0.950 . S
C936 C937 1.327 . S
C937 H931 0.950 . S
C937 C936 1.327 . S
C937 C941 1.429 . S
C938 C921 1.574 . S
C938 H932 0.949 . S
C938 C942 1.368 1_565 S
C939 C920 1.429 1_565 S
C939 C933 1.429 . S
C939 C940 1.523 . S
C940 C921 1.368 . S
C940 C934 1.368 1_565 S
C940 C939 1.523 . S
C941 C925 1.429 1_545 S
C941 C937 1.429 . S
C941 C942 1.523 . S
C942 C926 1.368 . S
C942 C938 1.368 1_545 S
C942 C941 1.523 . S
H943 C918 0.950 1_545 S
H944 C920 0.950 . S
H945 C921 0.949 . S
H946 C923 0.950 1_565 S
H947 C925 0.950 . S
C948 C949 1.349 . S
C948 C950 1.327 . S
C948 H973 0.950 . S
C949 C948 1.349 . S
C949 C965 1.349 . S
C950 C948 1.327 . S
C950 C969 1.429 . S
C950 H974 0.950 . S
C951 C968 1.574 1_556 S
C951 C970 1.368 . S
C951 H975 0.949 . S
H952 C956 0.949 . S
C953 C954 1.349 . S
C953 C955 1.327 . S
C953 H976 0.950 . S
C954 C953 1.349 . S
C954 C966 1.349 . S
C955 C953 1.327 . S
C955 C971 1.429 . S
C955 H977 0.950 . S
C956 H952 0.949 . S
C956 C964 1.574 1_554 S
C956 C972 1.368 . S
H957 C965 0.950 . S
H958 C963 0.950 . S
H959 C964 0.949 . S
H960 C966 0.950 . S
H961 C967 0.950 . S
H962 C968 0.949 . S
C963 H958 0.950 . S
C963 C965 1.327 . S
C963 C969 1.429 . S
C964 C956 1.574 1_556 S
C964 H959 0.949 . S
C964 C970 1.368 . S
C965 C949 1.349 . S
C965 H957 0.950 . S
C965 C963 1.327 . S
C966 C954 1.349 . S
C966 H960 0.950 . S
C966 C967 1.327 . S
C967 H961 0.950 . S
C967 C966 1.327 . S
C967 C971 1.429 . S
C968 C951 1.574 1_554 S
C968 H962 0.949 . S
C968 C972 1.368 . S
C969 C950 1.429 . S
C969 C963 1.429 . S
C969 C970 1.523 . S
C970 C951 1.368 . S
C970 C964 1.368 . S
C970 C969 1.523 . S
C971 C955 1.429 . S
C971 C967 1.429 . S
C971 C972 1.523 . S
C972 C956 1.368 . S
C972 C968 1.368 . S
C972 C971 1.523 . S
H973 C948 0.950 . S
H974 C950 0.950 . S
H975 C951 0.949 . S
H976 C953 0.950 . S
H977 C955 0.950 . S
C978 C979 1.330 1_455 S
C978 C980 1.334 . S
C978 H1003 0.963 . S
C979 C978 1.330 1_655 S
C979 C995 1.349 . S
C980 C978 1.334 . S
C980 C999 1.429 1_455 S
C980 H1004 0.950 . S
C981 C998 1.574 . S
C981 C1000 1.368 . S
C981 H1005 0.949 . S
H982 C986 0.949 . S
C983 C984 1.330 1_655 S
C983 C985 1.334 . S
C983 H1006 0.963 . S
C984 C983 1.330 1_455 S
C984 C996 1.349 . S
C985 C983 1.334 . S
C985 C1001 1.429 1_655 S
C985 H1007 0.950 . S
C986 H982 0.949 . S
C986 C994 1.574 . S
C986 C1002 1.368 . S
H987 C995 0.950 . S
H988 C993 0.950 . S
H989 C994 0.949 . S
H990 C996 0.950 . S
H991 C997 0.950 . S
H992 C998 0.949 . S
C993 H988 0.950 . S
C993 C995 1.327 . S
C993 C999 1.429 . S
C994 C986 1.574 . S
C994 H989 0.949 . S
C994 C1000 1.368 1_455 S
C995 C979 1.349 . S
C995 H987 0.950 . S
C995 C993 1.327 . S
C996 C984 1.349 . S
C996 H990 0.950 . S
C996 C997 1.327 . S
C997 H991 0.950 . S
C997 C996 1.327 . S
C997 C1001 1.429 . S
C998 C981 1.574 . S
C998 H992 0.949 . S
C998 C1002 1.368 1_655 S
C999 C980 1.429 1_655 S
C999 C993 1.429 . S
C999 C1000 1.523 . S
C1000 C981 1.368 . S
C1000 C994 1.368 1_655 S
C1000 C999 1.523 . S
C1001 C985 1.429 1_455 S
C1001 C997 1.429 . S
C1001 C1002 1.523 . S
C1002 C986 1.368 . S
C1002 C998 1.368 1_455 S
C1002 C1001 1.523 . S
H1003 C978 0.963 . S
H1004 C980 0.950 . S
H1005 C981 0.949 . S
H1006 C983 0.963 . S
H1007 C985 0.950 . S
C1008 C1009 1.349 . S
C1008 C1010 1.327 1_545 S
C1008 H1033 0.950 1_545 S
C1009 C1008 1.349 . S
C1009 C1025 1.349 . S
C1010 C1008 1.327 1_565 S
C1010 C1029 1.429 1_565 S
C1010 H1034 0.950 . S
C1011 C1028 1.574 1_556 S
C1011 C1030 1.368 . S
C1011 H1035 0.949 . S
H1012 C1016 0.949 . S
C1013 C1014 1.349 . S
C1013 C1015 1.327 1_565 S
C1013 H1036 0.950 1_565 S
C1014 C1013 1.349 . S
C1014 C1026 1.349 . S
C1015 C1013 1.327 1_545 S
C1015 C1031 1.429 1_545 S
C1015 H1037 0.950 . S
C1016 H1012 0.949 . S
C1016 C1024 1.574 1_554 S
C1016 C1032 1.368 . S
H1017 C1025 0.950 . S
H1018 C1023 0.950 . S
H1019 C1024 0.949 . S
H1020 C1026 0.950 . S
H1021 C1027 0.950 . S
H1022 C1028 0.949 . S
C1023 H1018 0.950 . S
C1023 C1025 1.327 . S
C1023 C1029 1.429 . S
C1024 C1016 1.574 1_556 S
C1024 H1019 0.949 . S
C1024 C1030 1.368 1_565 S
C1025 C1009 1.349 . S
C1025 H1017 0.950 . S
C1025 C1023 1.327 . S
C1026 C1014 1.349 . S
C1026 H1020 0.950 . S
C1026 C1027 1.327 . S
C1027 H1021 0.950 . S
C1027 C1026 1.327 . S
C1027 C1031 1.429 . S
C1028 C1011 1.574 1_554 S
C1028 H1022 0.949 . S
C1028 C1032 1.368 1_545 S
C1029 C1010 1.429 1_545 S
C1029 C1023 1.429 . S
C1029 C1030 1.523 . S
C1030 C1011 1.368 . S
C1030 C1024 1.368 1_545 S
C1030 C1029 1.523 . S
C1031 C1015 1.429 1_565 S
C1031 C1027 1.429 . S
C1031 C1032 1.523 . S
C1032 C1016 1.368 . S
C1032 C1028 1.368 1_565 S
C1032 C1031 1.523 . S
H1033 C1008 0.950 1_565 S
H1034 C1010 0.950 . S
H1035 C1011 0.949 . S
H1036 C1013 0.950 1_545 S
H1037 C1015 0.950 . S
C1038 C1039 1.349 . S
C1038 C1040 1.327 . S
C1038 H1063 0.950 . S
C1039 C1038 1.349 . S
C1039 C1055 1.349 . S
C1040 C1038 1.327 . S
C1040 C1059 1.429 . S
C1040 H1064 0.950 . S
C1041 C1058 1.574 . S
C1041 C1060 1.368 . S
C1041 H1065 0.949 . S
H1042 C1046 0.949 . S
C1043 C1044 1.349 . S
C1043 C1045 1.327 . S
C1043 H1066 0.950 . S
C1044 C1043 1.349 . S
C1044 C1056 1.349 . S
C1045 C1043 1.327 . S
C1045 C1061 1.429 . S
C1045 H1067 0.950 . S
C1046 H1042 0.949 . S
C1046 C1054 1.574 . S
C1046 C1062 1.368 . S
H1047 C1055 0.950 . S
H1048 C1053 0.950 . S
H1049 C1054 0.949 . S
H1050 C1056 0.950 . S
H1051 C1057 0.950 . S
H1052 C1058 0.949 . S
C1053 H1048 0.950 . S
C1053 C1055 1.327 . S
C1053 C1059 1.429 . S
C1054 C1046 1.574 . S
C1054 H1049 0.949 . S
C1054 C1060 1.368 . S
C1055 C1039 1.349 . S
C1055 H1047 0.950 . S
C1055 C1053 1.327 . S
C1056 C1044 1.349 . S
C1056 H1050 0.950 . S
C1056 C1057 1.327 . S
C1057 H1051 0.950 . S
C1057 C1056 1.327 . S
C1057 C1061 1.429 . S
C1058 C1041 1.574 . S
C1058 H1052 0.949 . S
C1058 C1062 1.368 . S
C1059 C1040 1.429 . S
C1059 C1053 1.429 . S
C1059 C1060 1.523 . S
C1060 C1041 1.368 . S
C1060 C1054 1.368 . S
C1060 C1059 1.523 . S
C1061 C1045 1.429 . S
C1061 C1057 1.429 . S
C1061 C1062 1.523 . S
C1062 C1046 1.368 . S
C1062 C1058 1.368 . S
C1062 C1061 1.523 . S
H1063 C1038 0.950 . S
H1064 C1040 0.950 . S
H1065 C1041 0.949 . S
H1066 C1043 0.950 . S
H1067 C1045 0.950 . S
C1068 C1069 1.349 . S
C1068 C1070 1.327 . S
C1068 H1093 0.950 . S
C1069 C1068 1.349 . S
C1069 C1085 1.349 . S
C1070 C1068 1.327 . S
C1070 C1089 1.429 . S
C1070 H1094 0.950 . S
C1071 C1088 1.574 . S
C1071 C1090 1.368 . S
C1071 H1095 0.949 . S
H1072 C1076 0.949 . S
C1073 C1074 1.349 . S
C1073 C1075 1.327 . S
C1073 H1096 0.950 . S
C1074 C1073 1.349 . S
C1074 C1086 1.349 . S
C1075 C1073 1.327 . S
C1075 C1091 1.429 . S
C1075 H1097 0.950 . S
C1076 H1072 0.949 . S
C1076 C1084 1.574 . S
C1076 C1092 1.368 . S
H1077 C1085 0.950 . S
H1078 C1083 0.950 . S
H1079 C1084 0.949 . S
H1080 C1086 0.950 . S
H1081 C1087 0.950 . S
H1082 C1088 0.949 . S
C1083 H1078 0.950 . S
C1083 C1085 1.327 . S
C1083 C1089 1.429 . S
C1084 C1076 1.574 . S
C1084 H1079 0.949 . S
C1084 C1090 1.368 . S
C1085 C1069 1.349 . S
C1085 H1077 0.950 . S
C1085 C1083 1.327 . S
C1086 C1074 1.349 . S
C1086 H1080 0.950 . S
C1086 C1087 1.327 . S
C1087 H1081 0.950 . S
C1087 C1086 1.327 . S
C1087 C1091 1.429 . S
C1088 C1071 1.574 . S
C1088 H1082 0.949 . S
C1088 C1092 1.368 . S
C1089 C1070 1.429 . S
C1089 C1083 1.429 . S
C1089 C1090 1.523 . S
C1090 C1071 1.368 . S
C1090 C1084 1.368 . S
C1090 C1089 1.523 . S
C1091 C1075 1.429 . S
C1091 C1087 1.429 . S
C1091 C1092 1.523 . S
C1092 C1076 1.368 . S
C1092 C1088 1.368 . S
C1092 C1091 1.523 . S
H1093 C1068 0.950 . S
H1094 C1070 0.950 . S
H1095 C1071 0.949 . S
H1096 C1073 0.950 . S
H1097 C1075 0.950 . S
C1098 C1099 1.349 . S
C1098 C1100 1.327 . S
C1098 H1123 0.950 . S
C1099 C1098 1.349 . S
C1099 C1115 1.349 . S
C1100 C1098 1.327 . S
C1100 C1119 1.429 . S
C1100 H1124 0.950 . S
C1101 C1118 1.574 . S
C1101 C1120 1.368 . S
C1101 H1125 0.949 . S
H1102 C1106 0.949 . S
C1103 C1104 1.349 . S
C1103 C1105 1.327 . S
C1103 H1126 0.950 . S
C1104 C1103 1.349 . S
C1104 C1116 1.349 . S
C1105 C1103 1.327 . S
C1105 C1121 1.429 . S
C1105 H1127 0.950 . S
C1106 H1102 0.949 . S
C1106 C1114 1.574 . S
C1106 C1122 1.368 . S
H1107 C1115 0.950 . S
H1108 C1113 0.950 . S
H1109 C1114 0.949 . S
H1110 C1116 0.950 . S
H1111 C1117 0.950 . S
H1112 C1118 0.949 . S
C1113 H1108 0.950 . S
C1113 C1115 1.327 . S
C1113 C1119 1.429 . S
C1114 C1106 1.574 . S
C1114 H1109 0.949 . S
C1114 C1120 1.368 . S
C1115 C1099 1.349 . S
C1115 H1107 0.950 . S
C1115 C1113 1.327 . S
C1116 C1104 1.349 . S
C1116 H1110 0.950 . S
C1116 C1117 1.327 . S
C1117 H1111 0.950 . S
C1117 C1116 1.327 . S
C1117 C1121 1.429 . S
C1118 C1101 1.574 . S
C1118 H1112 0.949 . S
C1118 C1122 1.368 . S
C1119 C1100 1.429 . S
C1119 C1113 1.429 . S
C1119 C1120 1.523 . S
C1120 C1101 1.368 . S
C1120 C1114 1.368 . S
C1120 C1119 1.523 . S
C1121 C1105 1.429 . S
C1121 C1117 1.429 . S
C1121 C1122 1.523 . S
C1122 C1106 1.368 . S
C1122 C1118 1.368 . S
C1122 C1121 1.523 . S
H1123 C1098 0.950 . S
H1124 C1100 0.950 . S
H1125 C1101 0.949 . S
H1126 C1103 0.950 . S
H1127 C1105 0.950 . S
C1128 C1129 1.349 . S
C1128 C1130 1.327 . S
C1128 H1153 0.950 . S
C1129 C1128 1.349 . S
C1129 C1145 1.349 . S
C1130 C1128 1.327 . S
C1130 C1149 1.429 . S
C1130 H1154 0.950 . S
C1131 C1148 1.574 . S
C1131 C1150 1.368 . S
C1131 H1155 0.949 . S
H1132 C1136 0.949 . S
C1133 C1134 1.349 . S
C1133 C1135 1.327 . S
C1133 H1156 0.950 . S
C1134 C1133 1.349 . S
C1134 C1146 1.349 . S
C1135 C1133 1.327 . S
C1135 C1151 1.429 . S
C1135 H1157 0.950 . S
C1136 H1132 0.949 . S
C1136 C1144 1.574 . S
C1136 C1152 1.368 . S
H1137 C1145 0.950 . S
H1138 C1143 0.950 . S
H1139 C1144 0.949 . S
H1140 C1146 0.950 . S
H1141 C1147 0.950 . S
H1142 C1148 0.949 . S
C1143 H1138 0.950 . S
C1143 C1145 1.327 . S
C1143 C1149 1.429 . S
C1144 C1136 1.574 . S
C1144 H1139 0.949 . S
C1144 C1150 1.368 . S
C1145 C1129 1.349 . S
C1145 H1137 0.950 . S
C1145 C1143 1.327 . S
C1146 C1134 1.349 . S
C1146 H1140 0.950 . S
C1146 C1147 1.327 . S
C1147 H1141 0.950 . S
C1147 C1146 1.327 . S
C1147 C1151 1.429 . S
C1148 C1131 1.574 . S
C1148 H1142 0.949 . S
C1148 C1152 1.368 . S
C1149 C1130 1.429 . S
C1149 C1143 1.429 . S
C1149 C1150 1.523 . S
C1150 C1131 1.368 . S
C1150 C1144 1.368 . S
C1150 C1149 1.523 . S
C1151 C1135 1.429 . S
C1151 C1147 1.429 . S
C1151 C1152 1.523 . S
C1152 C1136 1.368 . S
C1152 C1148 1.368 . S
C1152 C1151 1.523 . S
H1153 C1128 0.950 . S
H1154 C1130 0.950 . S
H1155 C1131 0.949 . S
H1156 C1133 0.950 . S
H1157 C1135 0.950 . S
C1158 C1159 1.349 . S
C1158 C1160 1.327 . S
C1158 H1183 0.950 . S
C1159 C1158 1.349 . S
C1159 C1175 1.349 . S
C1160 C1158 1.327 . S
C1160 C1179 1.429 . S
C1160 H1184 0.950 . S
C1161 C1178 1.574 . S
C1161 C1180 1.368 . S
C1161 H1185 0.949 . S
H1162 C1166 0.949 . S
C1163 C1164 1.349 . S
C1163 C1165 1.327 . S
C1163 H1186 0.950 . S
C1164 C1163 1.349 . S
C1164 C1176 1.349 . S
C1165 C1163 1.327 . S
C1165 C1181 1.429 . S
C1165 H1187 0.950 . S
C1166 H1162 0.949 . S
C1166 C1174 1.574 . S
C1166 C1182 1.368 . S
H1167 C1175 0.950 . S
H1168 C1173 0.950 . S
H1169 C1174 0.949 . S
H1170 C1176 0.950 . S
H1171 C1177 0.950 . S
H1172 C1178 0.949 . S
C1173 H1168 0.950 . S
C1173 C1175 1.327 . S
C1173 C1179 1.429 . S
C1174 C1166 1.574 . S
C1174 H1169 0.949 . S
C1174 C1180 1.368 . S
C1175 C1159 1.349 . S
C1175 H1167 0.950 . S
C1175 C1173 1.327 . S
C1176 C1164 1.349 . S
C1176 H1170 0.950 . S
C1176 C1177 1.327 . S
C1177 H1171 0.950 . S
C1177 C1176 1.327 . S
C1177 C1181 1.429 . S
C1178 C1161 1.574 . S
C1178 H1172 0.949 . S
C1178 C1182 1.368 . S
C1179 C1160 1.429 . S
C1179 C1173 1.429 . S
C1179 C1180 1.523 . S
C1180 C1161 1.368 . S
C1180 C1174 1.368 . S
C1180 C1179 1.523 . S
C1181 C1165 1.429 . S
C1181 C1177 1.429 . S
C1181 C1182 1.523 . S
C1182 C1166 1.368 . S
C1182 C1178 1.368 . S
C1182 C1181 1.523 . S
H1183 C1158 0.950 . S
H1184 C1160 0.950 . S
H1185 C1161 0.949 . S
H1186 C1163 0.950 . S
H1187 C1165 0.950 . S
C1188 C1189 1.349 . S
C1188 C1190 1.327 . S
C1188 H1213 0.950 . S
C1189 C1188 1.349 . S
C1189 C1205 1.349 . S
C1190 C1188 1.327 . S
C1190 C1209 1.429 . S
C1190 H1214 0.950 . S
C1191 C1208 1.574 . S
C1191 C1210 1.368 . S
C1191 H1215 0.949 . S
H1192 C1196 0.949 . S
C1193 C1194 1.349 . S
C1193 C1195 1.327 . S
C1193 H1216 0.950 . S
C1194 C1193 1.349 . S
C1194 C1206 1.349 . S
C1195 C1193 1.327 . S
C1195 C1211 1.429 . S
C1195 H1217 0.950 . S
C1196 H1192 0.949 . S
C1196 C1204 1.574 . S
C1196 C1212 1.368 . S
H1197 C1205 0.950 . S
H1198 C1203 0.950 . S
H1199 C1204 0.949 . S
H1200 C1206 0.950 . S
H1201 C1207 0.950 . S
H1202 C1208 0.949 . S
C1203 H1198 0.950 . S
C1203 C1205 1.327 . S
C1203 C1209 1.429 . S
C1204 C1196 1.574 . S
C1204 H1199 0.949 . S
C1204 C1210 1.368 . S
C1205 C1189 1.349 . S
C1205 H1197 0.950 . S
C1205 C1203 1.327 . S
C1206 C1194 1.349 . S
C1206 H1200 0.950 . S
C1206 C1207 1.327 . S
C1207 H1201 0.950 . S
C1207 C1206 1.327 . S
C1207 C1211 1.429 . S
C1208 C1191 1.574 . S
C1208 H1202 0.949 . S
C1208 C1212 1.368 . S
C1209 C1190 1.429 . S
C1209 C1203 1.429 . S
C1209 C1210 1.523 . S
C1210 C1191 1.368 . S
C1210 C1204 1.368 . S
C1210 C1209 1.523 . S
C1211 C1195 1.429 . S
C1211 C1207 1.429 . S
C1211 C1212 1.523 . S
C1212 C1196 1.368 . S
C1212 C1208 1.368 . S
C1212 C1211 1.523 . S
H1213 C1188 0.950 . S
H1214 C1190 0.950 . S
H1215 C1191 0.949 . S
H1216 C1193 0.950 . S
H1217 C1195 0.950 . S
C1218 C1219 1.349 . S
C1218 C1220 1.327 . S
C1218 H1243 0.950 . S
C1219 C1218 1.349 . S
C1219 C1235 1.349 . S
C1220 C1218 1.327 . S
C1220 C1239 1.429 . S
C1220 H1244 0.950 . S
C1221 C1238 1.574 . S
C1221 C1240 1.368 . S
C1221 H1245 0.949 . S
H1222 C1226 0.949 . S
C1223 C1224 1.349 . S
C1223 C1225 1.327 . S
C1223 H1246 0.950 . S
C1224 C1223 1.349 . S
C1224 C1236 1.349 . S
C1225 C1223 1.327 . S
C1225 C1241 1.429 . S
C1225 H1247 0.950 . S
C1226 H1222 0.949 . S
C1226 C1234 1.574 . S
C1226 C1242 1.368 . S
H1227 C1235 0.950 . S
H1228 C1233 0.950 . S
H1229 C1234 0.949 . S
H1230 C1236 0.950 . S
H1231 C1237 0.950 . S
H1232 C1238 0.949 . S
C1233 H1228 0.950 . S
C1233 C1235 1.327 . S
C1233 C1239 1.429 . S
C1234 C1226 1.574 . S
C1234 H1229 0.949 . S
C1234 C1240 1.368 . S
C1235 C1219 1.349 . S
C1235 H1227 0.950 . S
C1235 C1233 1.327 . S
C1236 C1224 1.349 . S
C1236 H1230 0.950 . S
C1236 C1237 1.327 . S
C1237 H1231 0.950 . S
C1237 C1236 1.327 . S
C1237 C1241 1.429 . S
C1238 C1221 1.574 . S
C1238 H1232 0.949 . S
C1238 C1242 1.368 . S
C1239 C1220 1.429 . S
C1239 C1233 1.429 . S
C1239 C1240 1.523 . S
C1240 C1221 1.368 . S
C1240 C1234 1.368 . S
C1240 C1239 1.523 . S
C1241 C1225 1.429 . S
C1241 C1237 1.429 . S
C1241 C1242 1.523 . S
C1242 C1226 1.368 . S
C1242 C1238 1.368 . S
C1242 C1241 1.523 . S
H1243 C1218 0.950 . S
H1244 C1220 0.950 . S
H1245 C1221 0.949 . S
H1246 C1223 0.950 . S
H1247 C1225 0.950 . S
C1248 C1249 1.349 . S
C1248 C1250 1.327 . S
C1248 H1273 0.950 . S
C1249 C1248 1.349 . S
C1249 C1265 1.349 . S
C1250 C1248 1.327 . S
C1250 C1269 1.429 . S
C1250 H1274 0.950 . S
C1251 C1268 1.574 . S
C1251 C1270 1.368 . S
C1251 H1275 0.949 . S
H1252 C1256 0.949 . S
C1253 C1254 1.349 . S
C1253 C1255 1.327 . S
C1253 H1276 0.950 . S
C1254 C1253 1.349 . S
C1254 C1266 1.349 . S
C1255 C1253 1.327 . S
C1255 C1271 1.429 . S
C1255 H1277 0.950 . S
C1256 H1252 0.949 . S
C1256 C1264 1.574 . S
C1256 C1272 1.368 . S
H1257 C1265 0.950 . S
H1258 C1263 0.950 . S
H1259 C1264 0.949 . S
H1260 C1266 0.950 . S
H1261 C1267 0.950 . S
H1262 C1268 0.949 . S
C1263 H1258 0.950 . S
C1263 C1265 1.327 . S
C1263 C1269 1.429 . S
C1264 C1256 1.574 . S
C1264 H1259 0.949 . S
C1264 C1270 1.368 . S
C1265 C1249 1.349 . S
C1265 H1257 0.950 . S
C1265 C1263 1.327 . S
C1266 C1254 1.349 . S
C1266 H1260 0.950 . S
C1266 C1267 1.327 . S
C1267 H1261 0.950 . S
C1267 C1266 1.327 . S
C1267 C1271 1.429 . S
C1268 C1251 1.574 . S
C1268 H1262 0.949 . S
C1268 C1272 1.368 . S
C1269 C1250 1.429 . S
C1269 C1263 1.429 . S
C1269 C1270 1.523 . S
C1270 C1251 1.368 . S
C1270 C1264 1.368 . S
C1270 C1269 1.523 . S
C1271 C1255 1.429 . S
C1271 C1267 1.429 . S
C1271 C1272 1.523 . S
C1272 C1256 1.368 . S
C1272 C1268 1.368 . S
C1272 C1271 1.523 . S
H1273 C1248 0.950 . S
H1274 C1250 0.950 . S
H1275 C1251 0.949 . S
H1276 C1253 0.950 . S
H1277 C1255 0.950 . S
C1278 C1279 1.349 . S
C1278 C1280 1.327 . S
C1278 H1303 0.950 . S
C1279 C1278 1.349 . S
C1279 C1295 1.349 . S
C1280 C1278 1.327 . S
C1280 C1299 1.429 . S
C1280 H1304 0.950 . S
C1281 C1298 1.574 . S
C1281 C1300 1.368 . S
C1281 H1305 0.949 . S
H1282 C1286 0.949 . S
C1283 C1284 1.349 . S
C1283 C1285 1.327 . S
C1283 H1306 0.950 . S
C1284 C1283 1.349 . S
C1284 C1296 1.349 . S
C1285 C1283 1.327 . S
C1285 C1301 1.429 . S
C1285 H1307 0.950 . S
C1286 H1282 0.949 . S
C1286 C1294 1.574 . S
C1286 C1302 1.368 . S
H1287 C1295 0.950 . S
H1288 C1293 0.950 . S
H1289 C1294 0.949 . S
H1290 C1296 0.950 . S
H1291 C1297 0.950 . S
H1292 C1298 0.949 . S
C1293 H1288 0.950 . S
C1293 C1295 1.327 . S
C1293 C1299 1.429 . S
C1294 C1286 1.574 . S
C1294 H1289 0.949 . S
C1294 C1300 1.368 . S
C1295 C1279 1.349 . S
C1295 H1287 0.950 . S
C1295 C1293 1.327 . S
C1296 C1284 1.349 . S
C1296 H1290 0.950 . S
C1296 C1297 1.327 . S
C1297 H1291 0.950 . S
C1297 C1296 1.327 . S
C1297 C1301 1.429 . S
C1298 C1281 1.574 . S
C1298 H1292 0.949 . S
C1298 C1302 1.368 . S
C1299 C1280 1.429 . S
C1299 C1293 1.429 . S
C1299 C1300 1.523 . S
C1300 C1281 1.368 . S
C1300 C1294 1.368 . S
C1300 C1299 1.523 . S
C1301 C1285 1.429 . S
C1301 C1297 1.429 . S
C1301 C1302 1.523 . S
C1302 C1286 1.368 . S
C1302 C1298 1.368 . S
C1302 C1301 1.523 . S
H1303 C1278 0.950 . S
H1304 C1280 0.950 . S
H1305 C1281 0.949 . S
H1306 C1283 0.950 . S
H1307 C1285 0.950 . S
C1308 C1309 1.349 . S
C1308 C1310 1.327 . S
C1308 H1333 0.950 . S
C1309 C1308 1.349 . S
C1309 C1325 1.349 . S
C1310 C1308 1.327 . S
C1310 C1329 1.429 . S
C1310 H1334 0.950 . S
C1311 C1328 1.574 . S
C1311 C1330 1.368 . S
C1311 H1335 0.949 . S
H1312 C1316 0.949 . S
C1313 C1314 1.349 . S
C1313 C1315 1.327 . S
C1313 H1336 0.950 . S
C1314 C1313 1.349 . S
C1314 C1326 1.349 . S
C1315 C1313 1.327 . S
C1315 C1331 1.429 . S
C1315 H1337 0.950 . S
C1316 H1312 0.949 . S
C1316 C1324 1.574 . S
C1316 C1332 1.368 . S
H1317 C1325 0.950 . S
H1318 C1323 0.950 . S
H1319 C1324 0.949 . S
H1320 C1326 0.950 . S
H1321 C1327 0.950 . S
H1322 C1328 0.949 . S
C1323 H1318 0.950 . S
C1323 C1325 1.327 . S
C1323 C1329 1.429 . S
C1324 C1316 1.574 . S
C1324 H1319 0.949 . S
C1324 C1330 1.368 . S
C1325 C1309 1.349 . S
C1325 H1317 0.950 . S
C1325 C1323 1.327 . S
C1326 C1314 1.349 . S
C1326 H1320 0.950 . S
C1326 C1327 1.327 . S
C1327 H1321 0.950 . S
C1327 C1326 1.327 . S
C1327 C1331 1.429 . S
C1328 C1311 1.574 . S
C1328 H1322 0.949 . S
C1328 C1332 1.368 . S
C1329 C1310 1.429 . S
C1329 C1323 1.429 . S
C1329 C1330 1.523 . S
C1330 C1311 1.368 . S
C1330 C1324 1.368 . S
C1330 C1329 1.523 . S
C1331 C1315 1.429 . S
C1331 C1327 1.429 . S
C1331 C1332 1.523 . S
C1332 C1316 1.368 . S
C1332 C1328 1.368 . S
C1332 C1331 1.523 . S
H1333 C1308 0.950 . S
H1334 C1310 0.950 . S
H1335 C1311 0.949 . S
H1336 C1313 0.950 . S
H1337 C1315 0.950 . S
C1338 C1339 1.349 . S
C1338 C1340 1.327 . S
C1338 H1363 0.950 . S
C1339 C1338 1.349 . S
C1339 C1355 1.349 . S
C1340 C1338 1.327 . S
C1340 C1359 1.429 . S
C1340 H1364 0.950 . S
C1341 C1358 1.574 . S
C1341 C1360 1.368 . S
C1341 H1365 0.949 . S
H1342 C1346 0.949 . S
C1343 C1344 1.349 . S
C1343 C1345 1.327 . S
C1343 H1366 0.950 . S
C1344 C1343 1.349 . S
C1344 C1356 1.349 . S
C1345 C1343 1.327 . S
C1345 C1361 1.429 . S
C1345 H1367 0.950 . S
C1346 H1342 0.949 . S
C1346 C1354 1.574 . S
C1346 C1362 1.368 . S
H1347 C1355 0.950 . S
H1348 C1353 0.950 . S
H1349 C1354 0.949 . S
H1350 C1356 0.950 . S
H1351 C1357 0.950 . S
H1352 C1358 0.949 . S
C1353 H1348 0.950 . S
C1353 C1355 1.327 . S
C1353 C1359 1.429 . S
C1354 C1346 1.574 . S
C1354 H1349 0.949 . S
C1354 C1360 1.368 . S
C1355 C1339 1.349 . S
C1355 H1347 0.950 . S
C1355 C1353 1.327 . S
C1356 C1344 1.349 . S
C1356 H1350 0.950 . S
C1356 C1357 1.327 . S
C1357 H1351 0.950 . S
C1357 C1356 1.327 . S
C1357 C1361 1.429 . S
C1358 C1341 1.574 . S
C1358 H1352 0.949 . S
C1358 C1362 1.368 . S
C1359 C1340 1.429 . S
C1359 C1353 1.429 . S
C1359 C1360 1.523 . S
C1360 C1341 1.368 . S
C1360 C1354 1.368 . S
C1360 C1359 1.523 . S
C1361 C1345 1.429 . S
C1361 C1357 1.429 . S
C1361 C1362 1.523 . S
C1362 C1346 1.368 . S
C1362 C1358 1.368 . S
C1362 C1361 1.523 . S
H1363 C1338 0.950 . S
H1364 C1340 0.950 . S
H1365 C1341 0.949 . S
H1366 C1343 0.950 . S
H1367 C1345 0.950 . S
C1368 C1369 1.349 . S
C1368 C1370 1.327 . S
C1368 H1393 0.950 . S
C1369 C1368 1.349 . S
C1369 C1385 1.349 . S
C1370 C1368 1.327 . S
C1370 C1389 1.429 . S
C1370 H1394 0.950 . S
C1371 C1388 1.574 . S
C1371 C1390 1.368 . S
C1371 H1395 0.949 . S
H1372 C1376 0.949 . S
C1373 C1374 1.349 . S
C1373 C1375 1.327 . S
C1373 H1396 0.950 . S
C1374 C1373 1.349 . S
C1374 C1386 1.349 . S
C1375 C1373 1.327 . S
C1375 C1391 1.429 . S
C1375 H1397 0.950 . S
C1376 H1372 0.949 . S
C1376 C1384 1.574 . S
C1376 C1392 1.368 . S
H1377 C1385 0.950 . S
H1378 C1383 0.950 . S
H1379 C1384 0.949 . S
H1380 C1386 0.950 . S
H1381 C1387 0.950 . S
H1382 C1388 0.949 . S
C1383 H1378 0.950 . S
C1383 C1385 1.327 . S
C1383 C1389 1.429 . S
C1384 C1376 1.574 . S
C1384 H1379 0.949 . S
C1384 C1390 1.368 . S
C1385 C1369 1.349 . S
C1385 H1377 0.950 . S
C1385 C1383 1.327 . S
C1386 C1374 1.349 . S
C1386 H1380 0.950 . S
C1386 C1387 1.327 . S
C1387 H1381 0.950 . S
C1387 C1386 1.327 . S
C1387 C1391 1.429 . S
C1388 C1371 1.574 . S
C1388 H1382 0.949 . S
C1388 C1392 1.368 . S
C1389 C1370 1.429 . S
C1389 C1383 1.429 . S
C1389 C1390 1.523 . S
C1390 C1371 1.368 . S
C1390 C1384 1.368 . S
C1390 C1389 1.523 . S
C1391 C1375 1.429 . S
C1391 C1387 1.429 . S
C1391 C1392 1.523 . S
C1392 C1376 1.368 . S
C1392 C1388 1.368 . S
C1392 C1391 1.523 . S
H1393 C1368 0.950 . S
H1394 C1370 0.950 . S
H1395 C1371 0.949 . S
H1396 C1373 0.950 . S
H1397 C1375 0.950 . S
C1398 C1399 1.349 . S
C1398 C1400 1.327 . S
C1398 H1423 0.950 . S
C1399 C1398 1.349 . S
C1399 C1415 1.349 . S
C1400 C1398 1.327 . S
C1400 C1419 1.429 . S
C1400 H1424 0.950 . S
C1401 C1418 1.574 . S
C1401 C1420 1.368 . S
C1401 H1425 0.949 . S
H1402 C1406 0.949 . S
C1403 C1404 1.349 . S
C1403 C1405 1.327 . S
C1403 H1426 0.950 . S
C1404 C1403 1.349 . S
C1404 C1416 1.349 . S
C1405 C1403 1.327 . S
C1405 C1421 1.429 . S
C1405 H1427 0.950 . S
C1406 H1402 0.949 . S
C1406 C1414 1.574 . S
C1406 C1422 1.368 . S
H1407 C1415 0.950 . S
H1408 C1413 0.950 . S
H1409 C1414 0.949 . S
H1410 C1416 0.950 . S
H1411 C1417 0.950 . S
H1412 C1418 0.949 . S
C1413 H1408 0.950 . S
C1413 C1415 1.327 . S
C1413 C1419 1.429 . S
C1414 C1406 1.574 . S
C1414 H1409 0.949 . S
C1414 C1420 1.368 . S
C1415 C1399 1.349 . S
C1415 H1407 0.950 . S
C1415 C1413 1.327 . S
C1416 C1404 1.349 . S
C1416 H1410 0.950 . S
C1416 C1417 1.327 . S
C1417 H1411 0.950 . S
C1417 C1416 1.327 . S
C1417 C1421 1.429 . S
C1418 C1401 1.574 . S
C1418 H1412 0.949 . S
C1418 C1422 1.368 . S
C1419 C1400 1.429 . S
C1419 C1413 1.429 . S
C1419 C1420 1.523 . S
C1420 C1401 1.368 . S
C1420 C1414 1.368 . S
C1420 C1419 1.523 . S
C1421 C1405 1.429 . S
C1421 C1417 1.429 . S
C1421 C1422 1.523 . S
C1422 C1406 1.368 . S
C1422 C1418 1.368 . S
C1422 C1421 1.523 . S
H1423 C1398 0.950 . S
H1424 C1400 0.950 . S
H1425 C1401 0.949 . S
H1426 C1403 0.950 . S
H1427 C1405 0.950 . S
C709 C33 1.730 . S
C714 C682 1.730 . S
C739 C387 1.730 . S
C744 C92 1.730 . S
C769 C151 1.730 . S
C774 C446 1.730 . S
C799 C505 1.730 . S
C804 C210 1.730 . S
C829 C564 1.730 . S
C834 C269 1.730 . S
C859 C623 1.730 . S
C864 C328 1.730 . S
C889 C180 0.986 . S
C894 C475 0.986 . S
C919 C239 0.986 . S
C924 C534 0.986 . S
C949 C298 0.986 . S
C954 C593 0.986 . S
C979 C652 0.986 . S
C984 C3 0.986 . S
C1009 C62 0.986 . S
C1014 C357 0.986 . S
C1039 C121 0.986 . S
C1044 C416 0.986 . S
C1069 C524 1.892 . S
C1074 C52 1.892 . S
C1099 C583 1.892 . S
C1104 C111 1.892 . S
C1129 C170 1.892 . S
C1134 C642 1.892 . S
C1159 C229 1.892 . S
C1164 C701 1.892 . S
C1189 C288 1.892 . S
C1194 C406 1.892 . S
C1219 C465 1.892 . S
C1224 C347 1.892 . S
C1249 C5 1.822 . S
C1254 C595 1.822 . S
C1279 C654 1.822 . S
C1284 C64 1.822 . S
C1309 C123 1.822 . S
C1314 C359 1.822 . S
C1339 C182 1.822 . S
C1344 C418 1.822 . S
C1369 C241 1.822 . S
C1374 C477 1.822 . S
C1399 C300 1.822 . S
C1404 C536 1.822 . S
