# Generated by pormake.
# Topology rob, (6)-cn, num edge types: 1
# Building blocks:
#     Node 0, Type 0, BuildingBlock: PAMTUU_clean_sbu_0, # of connection points: 6
#     Node 1, Type 0, BuildingBlock: PAMTUU_clean_sbu_0, # of connection points: 6
#     Node 2, Type 0, BuildingBlock: PAMTUU_clean_sbu_0, # of connection points: 6
#     Node 3, Type 0, BuildingBlock: PAMTUU_clean_sbu_0, # of connection points: 6
#     Edge 4, Type (0, 0), BuildingBlock: KIFKEQ_clean_linker_1, # of connection points: 2
#     Edge 5, Type (0, 0), BuildingBlock: KIFKEQ_clean_linker_1, # of connection points: 2
#     Edge 6, Type (0, 0), BuildingBlock: KIFKEQ_clean_linker_1, # of connection points: 2
#     Edge 7, Type (0, 0), BuildingBlock: KIFKEQ_clean_linker_1, # of connection points: 2
#     Edge 8, Type (0, 0), BuildingBlock: KIFKEQ_clean_linker_1, # of connection points: 2
#     Edge 9, Type (0, 0), BuildingBlock: KIFKEQ_clean_linker_1, # of connection points: 2
#     Edge 10, Type (0, 0), BuildingBlock: KIFKEQ_clean_linker_1, # of connection points: 2
#     Edge 11, Type (0, 0), BuildingBlock: KIFKEQ_clean_linker_1, # of connection points: 2
#     Edge 12, Type (0, 0), BuildingBlock: KIFKEQ_clean_linker_1, # of connection points: 2
#     Edge 13, Type (0, 0), BuildingBlock: KIFKEQ_clean_linker_1, # of connection points: 2
#     Edge 14, Type (0, 0), BuildingBlock: KIFKEQ_clean_linker_1, # of connection points: 2
#     Edge 15, Type (0, 0), BuildingBlock: KIFKEQ_clean_linker_1, # of connection points: 2
# Relax obj value: 0.146
# Max RMSD: 0.211
# Mean RMSD: 0.211
data_MOF--net-rob--node1-PAMTUU_clean_sbu_0--edge1-KIFKEQ_clean_linker_1
_symmetry_space_group_name_H-M    P1
_symmetry_Int_Tables_number       1
_symmetry_cell_setting            triclinic
loop_
_symmetry_equiv_pos_as_xyz
'x, y, z'
_cell_length_a     18.423232
_cell_length_b     24.470793
_cell_length_c     36.368765
_cell_angle_alpha  90.167009
_cell_angle_beta   56.425618
_cell_angle_gamma 90.045251
loop_
_atom_site_label
_atom_site_type_symbol
_atom_site_fract_x
_atom_site_fract_y
_atom_site_fract_z
_atom_type_partial_charge
Tb0 Tb 0.1923 0.27991 0.98794 0.0
Tb1 Tb 0.33076 0.19864 0.99352 0.0
C2 C 0.35401 0.32614 0.98459 0.0
C3 C 0.07311 0.3342 0.94217 0.0
C4 C 0.04508 0.33156 0.87318 0.0
C5 C 0.01308 0.37515 0.90369 0.0
C6 C 0.02711 0.37644 0.93782 0.0
C7 C 0.10441 0.29038 0.91218 0.0
C8 C 0.09044 0.289 0.8781 0.0
C9 C 0.09245 0.33699 0.97638 0.0
O10 O 0.30313 0.26451 0.92133 0.0
O11 O 0.35436 0.18252 0.92901 0.0
O12 O 0.2118 0.15324 0.01675 0.0
O13 O 0.16553 0.19696 0.97783 0.0
O14 O 0.45754 0.17746 0.975 0.0
O15 O 0.34657 0.12996 0.02287 0.0
O16 O 0.26262 0.24532 0.05403 0.0
O17 O 0.13692 0.26801 0.05823 0.0
O18 O 0.27134 0.33335 -0.00025 0.0
O19 O 0.3921 0.27819 0.97112 0.0
C20 C 0.34666 0.21871 0.90473 0.0
O21 O 0.06614 0.29557 0.00335 0.0
O22 O 0.1722 0.35068 0.96217 0.0
C23 C 0.16602 0.15414 -0.00081 0.0
C24 C 0.45655 0.14158 0.03587 0.0
C25 C 0.48983 0.14369 0.10294 0.0
C26 C 0.48651 0.0938 0.08459 0.0
C27 C 0.47022 0.09281 0.05132 0.0
C28 C 0.46108 0.19161 0.05357 0.0
C29 C 0.47825 0.19266 0.08659 0.0
C30 C 0.42915 0.13915 0.00472 0.0
C31 C 0.1809 0.26106 0.07669 0.0
H32 H 0.97892 0.40897 0.90061 0.0
H33 H 1.00315 0.41083 0.96043 0.0
H34 H 0.14045 0.25743 0.9149 0.0
H35 H 0.115 0.25444 0.8557 0.0
H36 H 0.49594 0.05545 0.09622 0.0
H37 H 0.46614 0.0538 0.0384 0.0
H38 H 0.44919 0.22975 0.04268 0.0
H39 H 0.47953 0.23167 0.10038 0.0
Tb40 Tb 0.68582 0.76666 0.01068 0.0
Tb41 Tb 0.82061 0.68945 0.02157 0.0
C42 C 0.84064 0.81517 0.0122 0.0
C43 C 0.56451 0.82084 0.96468 0.0
C44 C 0.53411 0.82011 0.89663 0.0
C45 C 0.51455 0.86666 0.9234 0.0
C46 C 0.52965 0.86698 0.9571 0.0
C47 C 0.58277 0.7739 0.93864 0.0
C48 C 0.56735 0.77345 0.90503 0.0
C49 C 0.58829 0.8237 0.99715 0.0
O50 O 0.76365 0.72158 0.94965 0.0
O51 O 0.88487 0.70435 0.95112 0.0
O52 O 0.7531 0.63442 0.00337 0.0
O53 O 0.62878 0.68563 0.0316 0.0
O54 O 0.9444 0.67638 0.00992 0.0
O55 O 0.83921 0.61979 0.04906 0.0
O56 O 0.70207 0.70146 0.08604 0.0
O57 O 0.65383 0.78342 0.0767 0.0
O58 O 0.80132 0.81431 0.99123 0.0
O59 O 0.83775 0.77307 0.0351 0.0
C60 C 0.8463 0.70869 0.92972 0.0
O61 O 0.56011 0.78443 0.02605 0.0
O62 O 0.66985 0.83451 0.98067 0.0
C63 C 0.67075 0.63895 0.01717 0.0
C64 C 0.93161 0.63899 0.07286 0.0
C65 C 0.95225 0.6448 0.14414 0.0
C66 C 0.98302 0.59924 0.11563 0.0
C67 C 0.97283 0.59643 0.08025 0.0
C68 C 0.90076 0.6845 0.10118 0.0
C69 C 0.91125 0.68748 0.13639 0.0
C70 C 0.91724 0.63499 0.03695 0.0
C71 C 0.6578 0.74706 0.10203 0.0
H72 H 0.48796 0.90301 0.91813 0.0
H73 H 0.5157 0.90367 0.9767 0.0
H74 H 0.61076 0.73806 0.94367 0.0
H75 H 0.58403 0.73718 0.88472 0.0
H76 H 0.01553 0.56593 0.12049 0.0
H77 H 0.99659 0.56087 0.05887 0.0
H78 H 0.86771 0.7175 0.09633 0.0
H79 H 0.88568 0.72273 0.15806 0.0
Tb80 Tb 0.32224 0.78372 0.52071 0.0
Tb81 Tb 0.18329 0.70743 0.5119 0.0
C82 C 0.1692 0.83494 0.51965 0.0
C83 C 0.43786 0.8343 0.56968 0.0
C84 C 0.46193 0.82902 0.63989 0.0
C85 C 0.49317 0.87393 0.61087 0.0
C86 C 0.48117 0.8765 0.5761 0.0
C87 C 0.40694 0.7893 0.5983 0.0
C88 C 0.41906 0.78659 0.63296 0.0
C89 C 0.4212 0.83824 0.5346 0.0
O90 O 0.20686 0.77056 0.58609 0.0
O91 O 0.15564 0.68957 0.57686 0.0
O92 O 0.29696 0.6576 0.49192 0.0
O93 O 0.3432 0.69995 0.53166 0.0
O94 O 0.05589 0.69085 0.52921 0.0
O95 O 0.16393 0.64065 0.48199 0.0
O96 O 0.25998 0.75216 0.45075 0.0
O97 O 0.38326 0.76882 0.45052 0.0
O98 O 0.25236 0.83896 0.50429 0.0
O99 O 0.12714 0.78846 0.53457 0.0
C100 C 0.16243 0.72507 0.60195 0.0
O101 O 0.44732 0.79683 0.50744 0.0
O102 O 0.34257 0.8534 0.54775 0.0
C103 C 0.34165 0.65743 0.51013 0.0
C104 C 0.05573 0.65636 0.46842 0.0
C105 C 0.02182 0.65941 0.4016 0.0
C106 C 1.00187 0.61259 0.42798 0.0
C107 C 0.01876 0.61112 0.46104 0.0
C108 C 0.0742 0.7036 0.44292 0.0
C109 C 0.05716 0.70519 0.40991 0.0
C110 C 0.08207 0.65209 0.49982 0.0
C111 C 0.34295 0.76457 0.42999 0.0
H112 H 0.52529 0.90772 0.61554 0.0
H113 H 0.50469 0.91179 0.55458 0.0
H114 H 0.37282 0.7564 0.59402 0.0
H115 H 0.39514 0.75107 0.65418 0.0
H116 H 0.97588 0.57631 0.42216 0.0
H117 H 1.00512 0.57407 0.48005 0.0
H118 H 0.10343 0.73885 0.44795 0.0
H119 H 0.07227 0.74218 0.39071 0.0
Tb120 Tb 0.82547 0.27815 0.49926 0.0
Tb121 Tb 0.70482 0.19577 0.48155 0.0
C122 C 0.67123 0.32005 0.49499 0.0
C123 C 0.93508 0.33611 0.55039 0.0
C124 C 0.96524 0.3331 0.61856 0.0
C125 C 0.97881 0.38149 0.5947 0.0
C126 C 0.96379 0.38293 0.56096 0.0
C127 C 0.92276 0.28744 0.57351 0.0
C128 C 0.938 0.28589 0.60719 0.0
C129 C 0.91155 0.33956 0.5178 0.0
O130 O 0.74981 0.22949 0.55821 0.0
O131 O 0.63449 0.20671 0.55301 0.0
O132 O 0.77424 0.14221 0.49941 0.0
O133 O 0.88983 0.19897 0.48017 0.0
O134 O 0.58413 0.17841 0.49066 0.0
O135 O 0.69569 0.12653 0.44997 0.0
O136 O 0.82815 0.20954 0.41955 0.0
O137 O 0.86235 0.29467 0.43222 0.0
O138 O 0.70574 0.31991 0.51824 0.0
O139 O 0.68286 0.27889 0.46918 0.0
C140 C 0.66941 0.21268 0.5761 0.0
O141 O 0.94698 0.30368 0.4859 0.0
O142 O 0.82864 0.34503 0.53457 0.0
C143 C 0.85331 0.15035 0.49004 0.0
C144 C 0.601 0.14006 0.42595 0.0
C145 C 0.57546 0.14183 0.35586 0.0
C146 C 0.62032 0.09839 0.36017 0.0
C147 C 0.63249 0.09742 0.39488 0.0
C148 C 0.556 0.18352 0.42185 0.0
C149 C 0.54322 0.1843 0.3873 0.0
C150 C 0.61667 0.13869 0.46182 0.0
C151 C 0.86928 0.25628 0.40514 0.0
H152 H 1.0008 0.41836 0.6022 0.0
H153 H 0.97314 0.42093 0.54364 0.0
H154 H 0.8996 0.25098 0.56615 0.0
H155 H 0.92595 0.24816 0.62518 0.0
H156 H 0.64734 0.06535 0.33633 0.0
H157 H 0.66741 0.06343 0.39719 0.0
H158 H 0.53063 0.21706 0.44525 0.0
H159 H 0.50717 0.218 0.38558 0.0
H160 H 0.74373 0.54734 0.96681 0.0
H161 H 0.49563 0.62424 0.05846 0.0
H162 H 0.6696 0.4726 0.95636 0.0
H163 H 0.42106 0.54842 0.04956 0.0
H164 H 0.31598 0.43505 0.99148 0.0
H165 H 0.39452 0.51025 0.99835 0.0
H166 H 0.58071 0.3955 0.99091 0.0
H167 H 0.50435 0.32088 0.98215 0.0
C168 C 0.67323 0.54782 0.98527 0.0
C169 C 0.62548 0.59164 0.01345 0.0
C170 C 0.63062 0.50488 0.97937 0.0
C171 C 0.53923 0.50448 0.00196 0.0
C172 C 0.49156 0.54789 0.03086 0.0
C173 C 0.53424 0.59116 0.0363 0.0
C174 C 0.37412 0.42605 0.99094 0.0
C175 C 0.40411 0.37213 0.98615 0.0
C176 C 0.41879 0.46907 0.99526 0.0
C177 C 0.49372 0.45899 0.99552 0.0
C178 C 0.52411 0.40499 0.99018 0.0
C179 C 0.48012 0.3621 0.98528 0.0
H180 H 0.32698 0.55497 0.48478 0.0
H181 H 0.46595 0.64754 0.52848 0.0
H182 H 0.40422 0.47254 0.48167 0.0
H183 H 0.54556 0.56573 0.52374 0.0
H184 H 0.60565 0.40123 0.55659 0.0
H185 H 0.5245 0.48156 0.56024 0.0
H186 H 0.54321 0.42908 0.44164 0.0
H187 H 0.6217 0.34737 0.43902 0.0
C188 C 0.37463 0.55782 0.49332 0.0
C189 C 0.39015 0.60772 0.50703 0.0
C190 C 0.41927 0.5106 0.49131 0.0
C191 C 0.481 0.51238 0.50257 0.0
C192 C 0.49723 0.56257 0.51569 0.0
C193 C 0.45195 0.60961 0.51815 0.0
C194 C 0.5923 0.40675 0.53133 0.0
C195 C 0.62028 0.36807 0.49744 0.0
C196 C 0.54622 0.45304 0.53325 0.0
C197 C 0.5279 0.46213 0.50102 0.0
C198 C 0.55526 0.42309 0.46731 0.0
C199 C 0.60061 0.37637 0.46567 0.0
H200 H 0.18286 0.05085 0.0215 0.0
H201 H 0.03705 0.14646 0.9838 0.0
H202 H 0.10486 0.9692 0.02422 0.0
H203 H 0.95608 0.06517 0.98838 0.0
H204 H 0.89347 0.90018 0.95445 0.0
H205 H 0.97178 0.98191 0.9516 0.0
H206 H 0.96844 0.92534 0.06509 0.0
H207 H 0.89354 0.84257 0.06663 0.0
C208 C 0.13332 0.05455 0.01432 0.0
C209 C 0.11614 0.10508 0.00241 0.0
C210 C 0.08817 0.00773 0.01611 0.0
C211 C 0.02395 0.01046 0.00658 0.0
C212 C 1.00613 0.06128 0.99517 0.0
C213 C 0.05212 0.108 0.99283 0.0
C214 C 0.90959 0.90523 0.97875 0.0
C215 C 0.88761 0.8649 0.01067 0.0
C216 C 0.95399 0.95229 0.97733 0.0
C217 C 0.97642 0.96041 0.00817 0.0
C218 C 0.95369 0.9201 0.04031 0.0
C219 C 0.91031 0.87272 0.04136 0.0
H220 H 0.81834 0.04121 0.49327 0.0
H221 H 0.99586 0.15542 0.4947 0.0
H222 H 0.89551 0.9656 0.50055 0.0
H223 H 0.07094 0.08021 0.50354 0.0
H224 H 0.24011 0.92937 0.47354 0.0
H225 H 0.16476 0.00506 0.46527 0.0
H226 H 0.91805 0.92453 0.5528 0.0
H227 H 0.9938 0.84791 0.55975 0.0
C228 C 0.87363 0.05017 0.49528 0.0
C229 C 0.9012 0.10424 0.49321 0.0
C230 C 0.91752 0.00688 0.49979 0.0
C231 C 0.98933 0.01679 0.50279 0.0
C232 C 0.01684 0.07096 0.50061 0.0
C233 C 0.97355 0.11415 0.49567 0.0
C234 C 0.16973 0.92799 0.49126 0.0
C235 C 0.12292 0.88265 0.51729 0.0
C236 C 0.12645 0.97149 0.48662 0.0
C237 C 0.03528 0.97086 0.50825 0.0
C238 C 0.98842 0.9259 0.53498 0.0
C239 C 0.03179 0.88217 0.53927 0.0
H240 H 0.57909 0.23036 0.30839 0.0
H241 H 0.54233 0.0553 0.31893 0.0
H242 H 0.55587 0.23175 0.24871 0.0
H243 H 0.52496 0.05622 0.25744 0.0
H244 H 0.40823 0.08027 0.17684 0.0
H245 H 0.4272 0.08097 0.23798 0.0
H246 H 0.62016 0.20862 0.17359 0.0
H247 H 0.59874 0.20884 0.11305 0.0
C248 C 0.56603 0.19212 0.29807 0.0
C249 C 0.56247 0.14273 0.31877 0.0
C250 C 0.55398 0.19281 0.26328 0.0
C251 C 0.53858 0.1441 0.24797 0.0
C252 C 0.5354 0.09472 0.26857 0.0
C253 C 0.54674 0.09408 0.30356 0.0
C254 C 0.45503 0.10827 0.17568 0.0
C255 C 0.50229 0.14431 0.14002 0.0
C256 C 0.46619 0.1086 0.21071 0.0
C257 C 0.52567 0.14463 0.21084 0.0
C258 C 0.57281 0.18084 0.17511 0.0
C259 C 0.56089 0.18087 0.14025 0.0
H260 H 0.68852 0.69567 0.15814 0.0
H261 H 0.53125 0.82288 0.15325 0.0
H262 H 0.61647 0.71026 0.23688 0.0
H263 H 0.45887 0.83764 0.23281 0.0
H264 H 0.2766 0.77528 0.37943 0.0
H265 H 0.35689 0.78027 0.29942 0.0
H266 H 0.59959 0.77972 0.29153 0.0
H267 H 0.51935 0.77418 0.37186 0.0
C268 C 0.63858 0.72688 0.17388 0.0
C269 C 0.61465 0.75768 0.14961 0.0
C270 C 0.59811 0.73567 0.21894 0.0
C271 C 0.53238 0.77519 0.24085 0.0
C272 C 0.50922 0.80675 0.2166 0.0
C273 C 0.55055 0.79833 0.1712 0.0
C274 C 0.34709 0.77679 0.36075 0.0
C275 C 0.39176 0.77353 0.38193 0.0
C276 C 0.39295 0.78019 0.31492 0.0
C277 C 0.48433 0.78009 0.28937 0.0
C278 C 0.52903 0.77932 0.31057 0.0
C279 C 0.48313 0.77627 0.35649 0.0
H280 H 0.57711 0.90194 0.83692 0.0
H281 H 0.4658 0.74001 0.87147 0.0
H282 H 0.55917 0.90355 0.77532 0.0
H283 H 0.44964 0.74113 0.80913 0.0
H284 H 0.34555 0.79186 0.72399 0.0
H285 H 0.36327 0.78861 0.7856 0.0
H286 H 0.62021 0.85853 0.70319 0.0
H287 H 0.60327 0.86107 0.6413 0.0
C288 C 0.54843 0.86677 0.83148 0.0
C289 C 0.52258 0.82092 0.85923 0.0
C290 C 0.53906 0.86745 0.79587 0.0
C291 C 0.50316 0.82243 0.78723 0.0
C292 C 0.4769 0.77665 0.81509 0.0
C293 C 0.48684 0.77581 0.85056 0.0
C294 C 0.40634 0.80591 0.71875 0.0
C295 C 0.47298 0.82674 0.67753 0.0
C296 C 0.41638 0.80412 0.75416 0.0
C297 C 0.49307 0.8234 0.74935 0.0
C298 C 0.55978 0.84411 0.70818 0.0
C299 C 0.54996 0.84564 0.6727 0.0
H300 H 0.49194 0.20312 0.63187 0.0
H301 H 0.73007 0.19646 0.62849 0.0
H302 H 0.40737 0.19446 0.71232 0.0
H303 H 0.64596 0.18832 0.70833 0.0
H304 H 0.47114 0.14245 0.85216 0.0
H305 H 0.54318 0.12991 0.77249 0.0
H306 H 0.38577 0.2592 0.77061 0.0
H307 H 0.31377 0.27154 0.84968 0.0
C308 C 0.52617 0.19901 0.64817 0.0
C309 C 0.61754 0.20114 0.62392 0.0
C310 C 0.47785 0.19427 0.69416 0.0
C311 C 0.52015 0.19097 0.71656 0.0
C312 C 0.61151 0.19027 0.69201 0.0
C313 C 0.65966 0.19547 0.64624 0.0
C314 C 0.45151 0.16781 0.83474 0.0
C315 C 0.3877 0.20847 0.85711 0.0
C316 C 0.49274 0.16067 0.7892 0.0
C317 C 0.47009 0.19362 0.76538 0.0
C318 C 0.40396 0.23278 0.78811 0.0
C319 C 0.36345 0.24025 0.8334 0.0
H320 H 1.00169 0.73266 0.17214 0.0
H321 H 0.92449 0.56348 0.20212 0.0
H322 H 0.0155 0.73776 0.23508 0.0
H323 H 0.94018 0.56824 0.26448 0.0
H324 H 0.88685 0.61501 0.39974 0.0
H325 H 0.86958 0.61192 0.33792 0.0
H326 H 0.10996 0.70134 0.25771 0.0
H327 H 0.12808 0.70381 0.31917 0.0
C328 C 0.98751 0.69659 0.19222 0.0
C329 C 0.962 0.64766 0.1821 0.0
C330 C 0.99617 0.69938 0.22805 0.0
C331 C 0.97891 0.65342 0.25482 0.0
C332 C 0.95313 0.60453 0.24478 0.0
C333 C 0.94507 0.60163 0.20876 0.0
C334 C 0.93638 0.63372 0.36886 0.0
C335 C 0.00893 0.65961 0.36455 0.0
C336 C 0.9264 0.63195 0.33342 0.0
C337 C 0.98848 0.65628 0.29284 0.0
C338 C 0.06036 0.68282 0.28868 0.0
C339 C 0.07058 0.68436 0.32403 0.0
H340 H 0.96559 0.18029 0.34297 0.0
H341 H 0.89147 0.35043 0.35942 0.0
H342 H 0.04388 0.18986 0.26313 0.0
H343 H 0.96905 0.35972 0.27868 0.0
H344 H 0.01589 0.30038 0.13737 0.0
H345 H 0.94515 0.30779 0.2176 0.0
H346 H 0.17998 0.24985 0.20396 0.0
H347 H 0.25088 0.2428 0.12468 0.0
C348 C 0.96675 0.21987 0.32937 0.0
C349 C 0.92315 0.26472 0.35713 0.0
C350 C 0.01148 0.22532 0.28378 0.0
C351 C 0.01213 0.27547 0.26502 0.0
C352 C 0.96907 0.32066 0.29261 0.0
C353 C 0.92565 0.31549 0.33851 0.0
C354 C 0.05266 0.28992 0.15147 0.0
C355 C 0.13862 0.27038 0.12461 0.0
C356 C 0.01242 0.29456 0.19722 0.0
C357 C 0.05737 0.27919 0.21664 0.0
C358 C 0.14404 0.26171 0.18967 0.0
C359 C 0.18437 0.25762 0.14421 0.0
H360 H 0.91523 0.41087 0.68258 0.0
H361 H 0.04166 0.25352 0.63931 0.0
H362 H 0.93478 0.41008 0.74363 0.0
H363 H 0.059 0.25201 0.7012 0.0
H364 H 0.16136 0.29909 0.78752 0.0
H365 H 0.14154 0.29851 0.7266 0.0
H366 H 0.88118 0.36244 0.81317 0.0
H367 H 0.90058 0.36261 0.8743 0.0
C368 C 0.9475 0.37617 0.68599 0.0
C369 C 0.9772 0.33236 0.65589 0.0
C370 C 0.95778 0.37543 0.72133 0.0
C371 C 0.99833 0.33095 0.72742 0.0
C372 C 0.02818 0.28714 0.69728 0.0
C373 C 0.0175 0.28776 0.66203 0.0
C374 C 0.09943 0.31242 0.79379 0.0
C375 C 0.03256 0.33087 0.83597 0.0
C376 C 0.08814 0.31213 0.75877 0.0
C377 C 0.00981 0.33047 0.76492 0.0
C378 C 0.94284 0.34881 0.80709 0.0
C379 C 0.95402 0.34895 0.84216 0.0
H380 H 0.03778 0.64849 0.65292 0.0
H381 H 0.19468 0.77613 0.65792 0.0
H382 H 0.96662 0.63355 0.73223 0.0
H383 H 0.12353 0.76148 0.73654 0.0
H384 H 0.02332 0.70025 0.87244 0.0
H385 H 0.10536 0.69401 0.792 0.0
H386 H 0.86423 0.6902 0.79834 0.0
H387 H 0.7824 0.69577 0.8783 0.0
C388 C 0.05733 0.67308 0.67083 0.0
C389 C 0.12083 0.71397 0.64934 0.0
C390 C 0.01668 0.66456 0.71612 0.0
C391 C 0.03971 0.69634 0.74044 0.0
C392 C 0.1052 0.73591 0.71858 0.0
C393 C 0.14515 0.74474 0.67358 0.0
C394 C 0.98793 0.69726 0.85667 0.0
C395 C 0.89652 0.69926 0.88165 0.0
C396 C 0.03482 0.69384 0.81069 0.0
C397 C 0.99105 0.69193 0.78901 0.0
C398 C 0.89968 0.69111 0.81416 0.0
C399 C 0.85289 0.69487 0.85999 0.0
loop_
_geom_bond_atom_site_label_1
_geom_bond_atom_site_label_2
_geom_bond_distance
_geom_bond_site_symmetry_2
_ccdc_geom_bond_type
Tb0 C9 2.764 1_554 S
Tb0 O10 2.325 1_554 S
Tb0 O13 2.303 . S
Tb0 O17 2.322 . S
Tb0 O18 2.349 1_554 S
Tb0 O21 2.415 1_554 S
Tb0 O22 2.399 1_554 S
Tb1 O11 2.322 1_554 S
Tb1 O12 2.349 . S
Tb1 O14 2.415 . S
Tb1 O15 2.399 . S
Tb1 O16 2.325 . S
Tb1 O19 2.303 . S
Tb1 C30 2.764 . S
C2 O18 1.240 1_554 S
C2 O19 1.261 . S
C3 C6 1.358 . S
C3 C7 1.332 . S
C3 C9 1.504 . S
C4 C5 1.373 . S
C4 C8 1.308 . S
C5 C4 1.373 . S
C5 C6 1.429 . S
C5 H32 0.932 . S
C6 C3 1.358 . S
C6 C5 1.429 . S
C6 H33 0.930 . S
C7 C3 1.332 . S
C7 C8 1.394 . S
C7 H34 0.932 . S
C8 C4 1.308 . S
C8 C7 1.394 . S
C8 H35 0.929 . S
C9 Tb0 2.764 1_556 S
C9 C3 1.504 . S
C9 O21 1.239 . S
C9 O22 1.263 . S
O10 Tb0 2.325 1_556 S
O10 C20 1.236 . S
O11 Tb1 2.322 1_556 S
O11 C20 1.257 . S
O12 Tb1 2.349 . S
O12 C23 1.261 . S
O13 Tb0 2.303 . S
O13 C23 1.257 . S
O14 Tb1 2.415 . S
O14 C30 1.239 . S
O15 Tb1 2.399 . S
O15 C30 1.263 . S
O16 Tb1 2.325 . S
O16 C31 1.236 . S
O17 Tb0 2.322 . S
O17 C31 1.257 . S
O18 Tb0 2.349 1_556 S
O18 C2 1.240 1_556 S
O19 Tb1 2.303 . S
O19 C2 1.261 . S
C20 O10 1.236 . S
C20 O11 1.257 . S
O21 Tb0 2.415 1_556 S
O21 C9 1.239 . S
O22 Tb0 2.399 1_556 S
O22 C9 1.263 . S
C23 O12 1.261 . S
C23 O13 1.257 . S
C24 C27 1.358 . S
C24 C28 1.332 . S
C24 C30 1.504 . S
C25 C26 1.373 . S
C25 C29 1.308 . S
C26 C25 1.373 . S
C26 C27 1.429 . S
C26 H36 0.932 . S
C27 C24 1.358 . S
C27 C26 1.429 . S
C27 H37 0.930 . S
C28 C24 1.332 . S
C28 C29 1.394 . S
C28 H38 0.932 . S
C29 C25 1.308 . S
C29 C28 1.394 . S
C29 H39 0.929 . S
C30 Tb1 2.764 . S
C30 O14 1.239 . S
C30 O15 1.263 . S
C30 C24 1.504 . S
C31 O16 1.236 . S
C31 O17 1.257 . S
H32 C5 0.932 . S
H33 C6 0.930 . S
H34 C7 0.932 . S
H35 C8 0.929 . S
H36 C26 0.932 . S
H37 C27 0.930 . S
H38 C28 0.932 . S
H39 C29 0.929 . S
Tb40 C49 2.764 1_554 S
Tb40 O50 2.325 1_554 S
Tb40 O53 2.303 . S
Tb40 O57 2.322 . S
Tb40 O58 2.349 1_554 S
Tb40 O61 2.415 1_554 S
Tb40 O62 2.399 1_554 S
Tb41 O51 2.322 1_554 S
Tb41 O52 2.349 . S
Tb41 O54 2.415 . S
Tb41 O55 2.399 . S
Tb41 O56 2.325 . S
Tb41 O59 2.303 . S
Tb41 C70 2.764 . S
C42 O58 1.240 1_554 S
C42 O59 1.261 . S
C43 C46 1.358 . S
C43 C47 1.332 . S
C43 C49 1.504 . S
C44 C45 1.373 . S
C44 C48 1.308 . S
C45 C44 1.373 . S
C45 C46 1.429 . S
C45 H72 0.932 . S
C46 C43 1.358 . S
C46 C45 1.429 . S
C46 H73 0.930 . S
C47 C43 1.332 . S
C47 C48 1.394 . S
C47 H74 0.932 . S
C48 C44 1.308 . S
C48 C47 1.394 . S
C48 H75 0.929 . S
C49 Tb40 2.764 1_556 S
C49 C43 1.504 . S
C49 O61 1.239 . S
C49 O62 1.263 . S
O50 Tb40 2.325 1_556 S
O50 C60 1.236 . S
O51 Tb41 2.322 1_556 S
O51 C60 1.257 . S
O52 Tb41 2.349 . S
O52 C63 1.261 . S
O53 Tb40 2.303 . S
O53 C63 1.257 . S
O54 Tb41 2.415 . S
O54 C70 1.239 . S
O55 Tb41 2.399 . S
O55 C70 1.263 . S
O56 Tb41 2.325 . S
O56 C71 1.236 . S
O57 Tb40 2.322 . S
O57 C71 1.257 . S
O58 Tb40 2.349 1_556 S
O58 C42 1.240 1_556 S
O59 Tb41 2.303 . S
O59 C42 1.261 . S
C60 O50 1.236 . S
C60 O51 1.257 . S
O61 Tb40 2.415 1_556 S
O61 C49 1.239 . S
O62 Tb40 2.399 1_556 S
O62 C49 1.263 . S
C63 O52 1.261 . S
C63 O53 1.257 . S
C64 C67 1.358 . S
C64 C68 1.332 . S
C64 C70 1.504 . S
C65 C66 1.373 . S
C65 C69 1.308 . S
C66 C65 1.373 . S
C66 C67 1.429 . S
C66 H76 0.932 . S
C67 C64 1.358 . S
C67 C66 1.429 . S
C67 H77 0.930 . S
C68 C64 1.332 . S
C68 C69 1.394 . S
C68 H78 0.932 . S
C69 C65 1.308 . S
C69 C68 1.394 . S
C69 H79 0.929 . S
C70 Tb41 2.764 . S
C70 O54 1.239 . S
C70 O55 1.263 . S
C70 C64 1.504 . S
C71 O56 1.236 . S
C71 O57 1.257 . S
H72 C45 0.932 . S
H73 C46 0.930 . S
H74 C47 0.932 . S
H75 C48 0.929 . S
H76 C66 0.932 . S
H77 C67 0.930 . S
H78 C68 0.932 . S
H79 C69 0.929 . S
Tb80 C89 2.764 . S
Tb80 O90 2.325 . S
Tb80 O93 2.303 . S
Tb80 O97 2.322 . S
Tb80 O98 2.349 . S
Tb80 O101 2.415 . S
Tb80 O102 2.399 . S
Tb81 O91 2.322 . S
Tb81 O92 2.349 . S
Tb81 O94 2.415 . S
Tb81 O95 2.399 . S
Tb81 O96 2.325 . S
Tb81 O99 2.303 . S
Tb81 C110 2.764 . S
C82 O98 1.261 . S
C82 O99 1.257 . S
C83 C86 1.358 . S
C83 C87 1.332 . S
C83 C89 1.504 . S
C84 C85 1.373 . S
C84 C88 1.308 . S
C85 C84 1.373 . S
C85 C86 1.429 . S
C85 H112 0.932 . S
C86 C83 1.358 . S
C86 C85 1.429 . S
C86 H113 0.930 . S
C87 C83 1.332 . S
C87 C88 1.394 . S
C87 H114 0.932 . S
C88 C84 1.308 . S
C88 C87 1.394 . S
C88 H115 0.929 . S
C89 Tb80 2.764 . S
C89 C83 1.504 . S
C89 O101 1.239 . S
C89 O102 1.263 . S
O90 Tb80 2.325 . S
O90 C100 1.236 . S
O91 Tb81 2.322 . S
O91 C100 1.257 . S
O92 Tb81 2.349 . S
O92 C103 1.261 . S
O93 Tb80 2.303 . S
O93 C103 1.257 . S
O94 Tb81 2.415 . S
O94 C110 1.239 . S
O95 Tb81 2.399 . S
O95 C110 1.263 . S
O96 Tb81 2.325 . S
O96 C111 1.236 . S
O97 Tb80 2.322 . S
O97 C111 1.257 . S
O98 Tb80 2.349 . S
O98 C82 1.261 . S
O99 Tb81 2.303 . S
O99 C82 1.257 . S
C100 O90 1.236 . S
C100 O91 1.257 . S
O101 Tb80 2.415 . S
O101 C89 1.239 . S
O102 Tb80 2.399 . S
O102 C89 1.263 . S
C103 O92 1.261 . S
C103 O93 1.257 . S
C104 C107 1.358 . S
C104 C108 1.332 . S
C104 C110 1.504 . S
C105 C106 1.373 . S
C105 C109 1.308 . S
C106 C105 1.373 . S
C106 C107 1.429 . S
C106 H116 0.932 . S
C107 C104 1.358 . S
C107 C106 1.429 . S
C107 H117 0.930 . S
C108 C104 1.332 . S
C108 C109 1.394 . S
C108 H118 0.932 . S
C109 C105 1.308 . S
C109 C108 1.394 . S
C109 H119 0.929 . S
C110 Tb81 2.764 . S
C110 O94 1.239 . S
C110 O95 1.263 . S
C110 C104 1.504 . S
C111 O96 1.236 . S
C111 O97 1.257 . S
H112 C85 0.932 . S
H113 C86 0.930 . S
H114 C87 0.932 . S
H115 C88 0.929 . S
H116 C106 0.932 . S
H117 C107 0.930 . S
H118 C108 0.932 . S
H119 C109 0.929 . S
Tb120 C129 2.764 . S
Tb120 O130 2.325 . S
Tb120 O133 2.303 . S
Tb120 O137 2.322 . S
Tb120 O138 2.349 . S
Tb120 O141 2.415 . S
Tb120 O142 2.399 . S
Tb121 O131 2.322 . S
Tb121 O132 2.349 . S
Tb121 O134 2.415 . S
Tb121 O135 2.399 . S
Tb121 O136 2.325 . S
Tb121 O139 2.303 . S
Tb121 C150 2.764 . S
C122 O138 1.261 . S
C122 O139 1.257 . S
C123 C126 1.358 . S
C123 C127 1.332 . S
C123 C129 1.504 . S
C124 C125 1.373 . S
C124 C128 1.308 . S
C125 C124 1.373 . S
C125 C126 1.429 . S
C125 H152 0.932 . S
C126 C123 1.358 . S
C126 C125 1.429 . S
C126 H153 0.930 . S
C127 C123 1.332 . S
C127 C128 1.394 . S
C127 H154 0.932 . S
C128 C124 1.308 . S
C128 C127 1.394 . S
C128 H155 0.929 . S
C129 Tb120 2.764 . S
C129 C123 1.504 . S
C129 O141 1.239 . S
C129 O142 1.263 . S
O130 Tb120 2.325 . S
O130 C140 1.236 . S
O131 Tb121 2.322 . S
O131 C140 1.257 . S
O132 Tb121 2.349 . S
O132 C143 1.261 . S
O133 Tb120 2.303 . S
O133 C143 1.257 . S
O134 Tb121 2.415 . S
O134 C150 1.239 . S
O135 Tb121 2.399 . S
O135 C150 1.263 . S
O136 Tb121 2.325 . S
O136 C151 1.236 . S
O137 Tb120 2.322 . S
O137 C151 1.257 . S
O138 Tb120 2.349 . S
O138 C122 1.261 . S
O139 Tb121 2.303 . S
O139 C122 1.257 . S
C140 O130 1.236 . S
C140 O131 1.257 . S
O141 Tb120 2.415 . S
O141 C129 1.239 . S
O142 Tb120 2.399 . S
O142 C129 1.263 . S
C143 O132 1.261 . S
C143 O133 1.257 . S
C144 C147 1.358 . S
C144 C148 1.332 . S
C144 C150 1.504 . S
C145 C146 1.373 . S
C145 C149 1.308 . S
C146 C145 1.373 . S
C146 C147 1.429 . S
C146 H156 0.932 . S
C147 C144 1.358 . S
C147 C146 1.429 . S
C147 H157 0.930 . S
C148 C144 1.332 . S
C148 C149 1.394 . S
C148 H158 0.932 . S
C149 C145 1.308 . S
C149 C148 1.394 . S
C149 H159 0.929 . S
C150 Tb121 2.764 . S
C150 O134 1.239 . S
C150 O135 1.263 . S
C150 C144 1.504 . S
C151 O136 1.236 . S
C151 O137 1.257 . S
H152 C125 0.932 . S
H153 C126 0.930 . S
H154 C127 0.932 . S
H155 C128 0.929 . S
H156 C146 0.932 . S
H157 C147 0.930 . S
H158 C148 0.932 . S
H159 C149 0.929 . S
H160 C168 0.950 . S
H161 C173 0.950 . S
H162 C170 0.950 . S
H163 C172 0.950 . S
H164 C174 0.950 . S
H165 C176 0.950 . S
H166 C178 0.950 . S
H167 C179 0.950 . S
C168 H160 0.950 . S
C168 C169 1.386 1_556 S
C168 C170 1.391 . S
C169 C168 1.386 1_554 S
C169 C173 1.393 . S
C170 H162 0.950 . S
C170 C168 1.391 . S
C170 C171 1.400 1_556 S
C171 C170 1.400 1_554 S
C171 C172 1.398 . S
C171 C177 1.491 . S
C172 H163 0.950 . S
C172 C171 1.398 . S
C172 C173 1.391 . S
C173 H161 0.950 . S
C173 C169 1.393 . S
C173 C172 1.391 . S
C174 H164 0.950 . S
C174 C175 1.386 . S
C174 C176 1.391 . S
C175 C174 1.386 . S
C175 C179 1.393 1_554 S
C176 H165 0.950 . S
C176 C174 1.391 . S
C176 C177 1.400 . S
C177 C171 1.491 . S
C177 C176 1.400 . S
C177 C178 1.398 1_554 S
C178 H166 0.950 . S
C178 C177 1.398 1_556 S
C178 C179 1.391 . S
C179 H167 0.950 . S
C179 C175 1.393 1_556 S
C179 C178 1.391 . S
H180 C188 0.950 . S
H181 C193 0.950 . S
H182 C190 0.950 . S
H183 C192 0.950 . S
H184 C194 0.950 . S
H185 C196 0.950 . S
H186 C198 0.950 . S
H187 C199 0.950 . S
C188 H180 0.950 . S
C188 C189 1.386 . S
C188 C190 1.391 . S
C189 C188 1.386 . S
C189 C193 1.393 . S
C190 H182 0.950 . S
C190 C188 1.391 . S
C190 C191 1.400 . S
C191 C190 1.400 . S
C191 C192 1.398 . S
C191 C197 1.491 . S
C192 H183 0.950 . S
C192 C191 1.398 . S
C192 C193 1.391 . S
C193 H181 0.950 . S
C193 C189 1.393 . S
C193 C192 1.391 . S
C194 H184 0.950 . S
C194 C195 1.386 . S
C194 C196 1.391 . S
C195 C194 1.386 . S
C195 C199 1.393 . S
C196 H185 0.950 . S
C196 C194 1.391 . S
C196 C197 1.400 . S
C197 C191 1.491 . S
C197 C196 1.400 . S
C197 C198 1.398 . S
C198 H186 0.950 . S
C198 C197 1.398 . S
C198 C199 1.391 . S
C199 H187 0.950 . S
C199 C195 1.393 . S
C199 C198 1.391 . S
H200 C208 0.950 . S
H201 C213 0.950 . S
H202 C210 0.950 1_565 S
H203 C212 0.950 1_655 S
H204 C214 0.950 . S
H205 C216 0.950 1_545 S
H206 C218 0.950 1_455 S
H207 C219 0.950 . S
C208 H200 0.950 . S
C208 C209 1.386 . S
C208 C210 1.391 . S
C209 C208 1.386 . S
C209 C213 1.393 1_554 S
C210 H202 0.950 1_545 S
C210 C208 1.391 . S
C210 C211 1.400 . S
C211 C210 1.400 . S
C211 C212 1.398 1_554 S
C211 C217 1.491 1_445 S
C212 H203 0.950 1_455 S
C212 C211 1.398 1_556 S
C212 C213 1.391 . S
C213 H201 0.950 . S
C213 C209 1.393 1_556 S
C213 C212 1.391 . S
C214 H204 0.950 . S
C214 C215 1.386 1_556 S
C214 C216 1.391 . S
C215 C214 1.386 1_554 S
C215 C219 1.393 . S
C216 H205 0.950 1_565 S
C216 C214 1.391 . S
C216 C217 1.400 1_556 S
C217 C211 1.491 1_665 S
C217 C216 1.400 1_554 S
C217 C218 1.398 . S
C218 H206 0.950 1_655 S
C218 C217 1.398 . S
C218 C219 1.391 . S
C219 H207 0.950 . S
C219 C215 1.393 . S
C219 C218 1.391 . S
H220 C228 0.950 . S
H221 C233 0.950 . S
H222 C230 0.950 1_565 S
H223 C232 0.950 . S
H224 C234 0.950 . S
H225 C236 0.950 1_545 S
H226 C238 0.950 . S
H227 C239 0.950 . S
C228 H220 0.950 . S
C228 C229 1.386 . S
C228 C230 1.391 . S
C229 C228 1.386 . S
C229 C233 1.393 . S
C230 H222 0.950 1_545 S
C230 C228 1.391 . S
C230 C231 1.400 . S
C231 C230 1.400 . S
C231 C232 1.398 1_655 S
C231 C237 1.491 1_645 S
C232 H223 0.950 . S
C232 C231 1.398 1_455 S
C232 C233 1.391 1_455 S
C233 H221 0.950 . S
C233 C229 1.393 . S
C233 C232 1.391 1_655 S
C234 H224 0.950 . S
C234 C235 1.386 . S
C234 C236 1.391 . S
C235 C234 1.386 . S
C235 C239 1.393 . S
C236 H225 0.950 1_565 S
C236 C234 1.391 . S
C236 C237 1.400 . S
C237 C231 1.491 1_465 S
C237 C236 1.400 . S
C237 C238 1.398 1_455 S
C238 H226 0.950 . S
C238 C237 1.398 1_655 S
C238 C239 1.391 1_655 S
C239 H227 0.950 . S
C239 C235 1.393 . S
C239 C238 1.391 1_455 S
H240 C248 0.950 . S
H241 C253 0.950 . S
H242 C250 0.950 . S
H243 C252 0.950 . S
H244 C254 0.950 . S
H245 C256 0.950 . S
H246 C258 0.950 . S
H247 C259 0.950 . S
C248 H240 0.950 . S
C248 C249 1.386 . S
C248 C250 1.391 . S
C249 C248 1.386 . S
C249 C253 1.393 . S
C250 H242 0.950 . S
C250 C248 1.391 . S
C250 C251 1.400 . S
C251 C250 1.400 . S
C251 C252 1.398 . S
C251 C257 1.491 . S
C252 H243 0.950 . S
C252 C251 1.398 . S
C252 C253 1.391 . S
C253 H241 0.950 . S
C253 C249 1.393 . S
C253 C252 1.391 . S
C254 H244 0.950 . S
C254 C255 1.386 . S
C254 C256 1.391 . S
C255 C254 1.386 . S
C255 C259 1.393 . S
C256 H245 0.950 . S
C256 C254 1.391 . S
C256 C257 1.400 . S
C257 C251 1.491 . S
C257 C256 1.400 . S
C257 C258 1.398 . S
C258 H246 0.950 . S
C258 C257 1.398 . S
C258 C259 1.391 . S
C259 H247 0.950 . S
C259 C255 1.393 . S
C259 C258 1.391 . S
H260 C268 0.950 . S
H261 C273 0.950 . S
H262 C270 0.950 . S
H263 C272 0.950 . S
H264 C274 0.950 . S
H265 C276 0.950 . S
H266 C278 0.950 . S
H267 C279 0.950 . S
C268 H260 0.950 . S
C268 C269 1.386 . S
C268 C270 1.391 . S
C269 C268 1.386 . S
C269 C273 1.393 . S
C270 H262 0.950 . S
C270 C268 1.391 . S
C270 C271 1.400 . S
C271 C270 1.400 . S
C271 C272 1.398 . S
C271 C277 1.491 . S
C272 H263 0.950 . S
C272 C271 1.398 . S
C272 C273 1.391 . S
C273 H261 0.950 . S
C273 C269 1.393 . S
C273 C272 1.391 . S
C274 H264 0.950 . S
C274 C275 1.386 . S
C274 C276 1.391 . S
C275 C274 1.386 . S
C275 C279 1.393 . S
C276 H265 0.950 . S
C276 C274 1.391 . S
C276 C277 1.400 . S
C277 C271 1.491 . S
C277 C276 1.400 . S
C277 C278 1.398 . S
C278 H266 0.950 . S
C278 C277 1.398 . S
C278 C279 1.391 . S
C279 H267 0.950 . S
C279 C275 1.393 . S
C279 C278 1.391 . S
H280 C288 0.950 . S
H281 C293 0.950 . S
H282 C290 0.950 . S
H283 C292 0.950 . S
H284 C294 0.950 . S
H285 C296 0.950 . S
H286 C298 0.950 . S
H287 C299 0.950 . S
C288 H280 0.950 . S
C288 C289 1.386 . S
C288 C290 1.391 . S
C289 C288 1.386 . S
C289 C293 1.393 . S
C290 H282 0.950 . S
C290 C288 1.391 . S
C290 C291 1.400 . S
C291 C290 1.400 . S
C291 C292 1.398 . S
C291 C297 1.491 . S
C292 H283 0.950 . S
C292 C291 1.398 . S
C292 C293 1.391 . S
C293 H281 0.950 . S
C293 C289 1.393 . S
C293 C292 1.391 . S
C294 H284 0.950 . S
C294 C295 1.386 . S
C294 C296 1.391 . S
C295 C294 1.386 . S
C295 C299 1.393 . S
C296 H285 0.950 . S
C296 C294 1.391 . S
C296 C297 1.400 . S
C297 C291 1.491 . S
C297 C296 1.400 . S
C297 C298 1.398 . S
C298 H286 0.950 . S
C298 C297 1.398 . S
C298 C299 1.391 . S
C299 H287 0.950 . S
C299 C295 1.393 . S
C299 C298 1.391 . S
H300 C308 0.950 . S
H301 C313 0.950 . S
H302 C310 0.950 . S
H303 C312 0.950 . S
H304 C314 0.950 . S
H305 C316 0.950 . S
H306 C318 0.950 . S
H307 C319 0.950 . S
C308 H300 0.950 . S
C308 C309 1.386 . S
C308 C310 1.391 . S
C309 C308 1.386 . S
C309 C313 1.393 . S
C310 H302 0.950 . S
C310 C308 1.391 . S
C310 C311 1.400 . S
C311 C310 1.400 . S
C311 C312 1.398 . S
C311 C317 1.491 . S
C312 H303 0.950 . S
C312 C311 1.398 . S
C312 C313 1.391 . S
C313 H301 0.950 . S
C313 C309 1.393 . S
C313 C312 1.391 . S
C314 H304 0.950 . S
C314 C315 1.386 . S
C314 C316 1.391 . S
C315 C314 1.386 . S
C315 C319 1.393 . S
C316 H305 0.950 . S
C316 C314 1.391 . S
C316 C317 1.400 . S
C317 C311 1.491 . S
C317 C316 1.400 . S
C317 C318 1.398 . S
C318 H306 0.950 . S
C318 C317 1.398 . S
C318 C319 1.391 . S
C319 H307 0.950 . S
C319 C315 1.393 . S
C319 C318 1.391 . S
H320 C328 0.950 . S
H321 C333 0.950 . S
H322 C330 0.950 . S
H323 C332 0.950 . S
H324 C334 0.950 . S
H325 C336 0.950 . S
H326 C338 0.950 . S
H327 C339 0.950 . S
C328 H320 0.950 . S
C328 C329 1.386 1_455 S
C328 C330 1.391 . S
C329 C328 1.386 1_655 S
C329 C333 1.393 . S
C330 H322 0.950 . S
C330 C328 1.391 . S
C330 C331 1.400 1_455 S
C331 C330 1.400 1_655 S
C331 C332 1.398 . S
C331 C337 1.491 1_655 S
C332 H323 0.950 . S
C332 C331 1.398 . S
C332 C333 1.391 . S
C333 H321 0.950 . S
C333 C329 1.393 . S
C333 C332 1.391 . S
C334 H324 0.950 . S
C334 C335 1.386 1_655 S
C334 C336 1.391 . S
C335 C334 1.386 1_455 S
C335 C339 1.393 . S
C336 H325 0.950 . S
C336 C334 1.391 . S
C336 C337 1.400 1_655 S
C337 C331 1.491 1_455 S
C337 C336 1.400 1_455 S
C337 C338 1.398 . S
C338 H326 0.950 . S
C338 C337 1.398 . S
C338 C339 1.391 . S
C339 H327 0.950 . S
C339 C335 1.393 . S
C339 C338 1.391 . S
H340 C348 0.950 . S
H341 C353 0.950 . S
H342 C350 0.950 1_455 S
H343 C352 0.950 . S
H344 C354 0.950 . S
H345 C356 0.950 1_655 S
H346 C358 0.950 . S
H347 C359 0.950 . S
C348 H340 0.950 . S
C348 C349 1.386 . S
C348 C350 1.391 . S
C349 C348 1.386 . S
C349 C353 1.393 . S
C350 H342 0.950 1_655 S
C350 C348 1.391 . S
C350 C351 1.400 . S
C351 C350 1.400 . S
C351 C352 1.398 . S
C351 C357 1.491 1_655 S
C352 H343 0.950 . S
C352 C351 1.398 . S
C352 C353 1.391 . S
C353 H341 0.950 . S
C353 C349 1.393 . S
C353 C352 1.391 . S
C354 H344 0.950 . S
C354 C355 1.386 . S
C354 C356 1.391 . S
C355 C354 1.386 . S
C355 C359 1.393 . S
C356 H345 0.950 1_455 S
C356 C354 1.391 . S
C356 C357 1.400 . S
C357 C351 1.491 1_455 S
C357 C356 1.400 . S
C357 C358 1.398 . S
C358 H346 0.950 . S
C358 C357 1.398 . S
C358 C359 1.391 . S
C359 H347 0.950 . S
C359 C355 1.393 . S
C359 C358 1.391 . S
H360 C368 0.950 . S
H361 C373 0.950 . S
H362 C370 0.950 . S
H363 C372 0.950 . S
H364 C374 0.950 . S
H365 C376 0.950 . S
H366 C378 0.950 . S
H367 C379 0.950 . S
C368 H360 0.950 . S
C368 C369 1.386 . S
C368 C370 1.391 . S
C369 C368 1.386 . S
C369 C373 1.393 1_655 S
C370 H362 0.950 . S
C370 C368 1.391 . S
C370 C371 1.400 . S
C371 C370 1.400 . S
C371 C372 1.398 1_655 S
C371 C377 1.491 1_655 S
C372 H363 0.950 . S
C372 C371 1.398 1_455 S
C372 C373 1.391 . S
C373 H361 0.950 . S
C373 C369 1.393 1_455 S
C373 C372 1.391 . S
C374 H364 0.950 . S
C374 C375 1.386 . S
C374 C376 1.391 . S
C375 C374 1.386 . S
C375 C379 1.393 1_455 S
C376 H365 0.950 . S
C376 C374 1.391 . S
C376 C377 1.400 . S
C377 C371 1.491 1_455 S
C377 C376 1.400 . S
C377 C378 1.398 1_455 S
C378 H366 0.950 . S
C378 C377 1.398 1_655 S
C378 C379 1.391 . S
C379 H367 0.950 . S
C379 C375 1.393 1_655 S
C379 C378 1.391 . S
H380 C388 0.950 1_655 S
H381 C393 0.950 . S
H382 C390 0.950 . S
H383 C392 0.950 . S
H384 C394 0.950 1_455 S
H385 C396 0.950 . S
H386 C398 0.950 . S
H387 C399 0.950 . S
C388 H380 0.950 1_455 S
C388 C389 1.386 . S
C388 C390 1.391 1_455 S
C389 C388 1.386 . S
C389 C393 1.393 . S
C390 H382 0.950 . S
C390 C388 1.391 1_655 S
C390 C391 1.400 1_655 S
C391 C390 1.400 1_455 S
C391 C392 1.398 . S
C391 C397 1.491 1_455 S
C392 H383 0.950 . S
C392 C391 1.398 . S
C392 C393 1.391 . S
C393 H381 0.950 . S
C393 C389 1.393 . S
C393 C392 1.391 . S
C394 H384 0.950 1_655 S
C394 C395 1.386 . S
C394 C396 1.391 1_655 S
C395 C394 1.386 . S
C395 C399 1.393 . S
C396 H385 0.950 . S
C396 C394 1.391 1_455 S
C396 C397 1.400 1_455 S
C397 C391 1.491 1_655 S
C397 C396 1.400 1_655 S
C397 C398 1.398 . S
C398 H386 0.950 . S
C398 C397 1.398 . S
C398 C399 1.391 . S
C399 H387 0.950 . S
C399 C395 1.393 . S
C399 C398 1.391 . S
C169 C63 1.588 . S
C175 C2 1.604 . S
C189 C103 1.590 . S
C195 C122 1.590 . S
C209 C23 1.590 . S
C215 C42 1.606 . S
C229 C143 1.588 . S
C235 C82 1.588 . S
C249 C145 1.096 . S
C255 C25 1.088 . S
C269 C71 1.465 . S
C275 C111 1.461 . S
C289 C44 1.091 . S
C295 C84 1.110 . S
C309 C140 1.472 . S
C315 C20 1.463 . S
C329 C65 1.087 . S
C335 C105 1.098 . S
C349 C151 1.461 . S
C355 C31 1.466 . S
C369 C124 1.089 . S
C375 C4 1.106 . S
C389 C100 1.471 . S
C395 C60 1.460 . S
