# Generated by pormake.
# Topology umy, (4)-cn, num edge types: 1
# Building blocks:
#     Node 0, Type 0, BuildingBlock: NAHDIM_clean_sbu_0, # of connection points: 4
#     Node 1, Type 0, BuildingBlock: NAHDIM_clean_sbu_0, # of connection points: 4
#     Node 2, Type 0, BuildingBlock: NAHDIM_clean_sbu_0, # of connection points: 4
#     Node 3, Type 0, BuildingBlock: NAHDIM_clean_sbu_0, # of connection points: 4
#     Node 4, Type 0, BuildingBlock: NAHDIM_clean_sbu_0, # of connection points: 4
#     Node 5, Type 0, BuildingBlock: NAHDIM_clean_sbu_0, # of connection points: 4
#     Node 6, Type 0, BuildingBlock: NAHDIM_clean_sbu_0, # of connection points: 4
#     Node 7, Type 0, BuildingBlock: NAHDIM_clean_sbu_0, # of connection points: 4
#     Node 8, Type 0, BuildingBlock: NAHDIM_clean_sbu_0, # of connection points: 4
#     Node 9, Type 0, BuildingBlock: NAHDIM_clean_sbu_0, # of connection points: 4
#     Node 10, Type 0, BuildingBlock: NAHDIM_clean_sbu_0, # of connection points: 4
#     Node 11, Type 0, BuildingBlock: NAHDIM_clean_sbu_0, # of connection points: 4
#     Edge 12, Type (0, 0), BuildingBlock: TEMPAE_clean_linker_10, # of connection points: 2
#     Edge 13, Type (0, 0), BuildingBlock: TEMPAE_clean_linker_10, # of connection points: 2
#     Edge 14, Type (0, 0), BuildingBlock: TEMPAE_clean_linker_10, # of connection points: 2
#     Edge 15, Type (0, 0), BuildingBlock: TEMPAE_clean_linker_10, # of connection points: 2
#     Edge 16, Type (0, 0), BuildingBlock: TEMPAE_clean_linker_10, # of connection points: 2
#     Edge 17, Type (0, 0), BuildingBlock: TEMPAE_clean_linker_10, # of connection points: 2
#     Edge 18, Type (0, 0), BuildingBlock: TEMPAE_clean_linker_10, # of connection points: 2
#     Edge 19, Type (0, 0), BuildingBlock: TEMPAE_clean_linker_10, # of connection points: 2
#     Edge 20, Type (0, 0), BuildingBlock: TEMPAE_clean_linker_10, # of connection points: 2
#     Edge 21, Type (0, 0), BuildingBlock: TEMPAE_clean_linker_10, # of connection points: 2
#     Edge 22, Type (0, 0), BuildingBlock: TEMPAE_clean_linker_10, # of connection points: 2
#     Edge 23, Type (0, 0), BuildingBlock: TEMPAE_clean_linker_10, # of connection points: 2
#     Edge 24, Type (0, 0), BuildingBlock: TEMPAE_clean_linker_10, # of connection points: 2
#     Edge 25, Type (0, 0), BuildingBlock: TEMPAE_clean_linker_10, # of connection points: 2
#     Edge 26, Type (0, 0), BuildingBlock: TEMPAE_clean_linker_10, # of connection points: 2
#     Edge 27, Type (0, 0), BuildingBlock: TEMPAE_clean_linker_10, # of connection points: 2
#     Edge 28, Type (0, 0), BuildingBlock: TEMPAE_clean_linker_10, # of connection points: 2
#     Edge 29, Type (0, 0), BuildingBlock: TEMPAE_clean_linker_10, # of connection points: 2
#     Edge 30, Type (0, 0), BuildingBlock: TEMPAE_clean_linker_10, # of connection points: 2
#     Edge 31, Type (0, 0), BuildingBlock: TEMPAE_clean_linker_10, # of connection points: 2
#     Edge 32, Type (0, 0), BuildingBlock: TEMPAE_clean_linker_10, # of connection points: 2
#     Edge 33, Type (0, 0), BuildingBlock: TEMPAE_clean_linker_10, # of connection points: 2
#     Edge 34, Type (0, 0), BuildingBlock: TEMPAE_clean_linker_10, # of connection points: 2
#     Edge 35, Type (0, 0), BuildingBlock: TEMPAE_clean_linker_10, # of connection points: 2
# Relax obj value: 0.157
# Max RMSD: 0.142
# Mean RMSD: 0.142
data_MOF--net-umy--node1-NAHDIM_clean_sbu_0--edge1-TEMPAE_clean_linker_10
_symmetry_space_group_name_H-M    P1
_symmetry_Int_Tables_number       1
_symmetry_cell_setting            triclinic
loop_
_symmetry_equiv_pos_as_xyz
'x, y, z'
_cell_length_a     39.355225
_cell_length_b     39.351557
_cell_length_c     48.98547
_cell_angle_alpha  90.022109
_cell_angle_beta   89.936528
_cell_angle_gamma 119.97757
loop_
_atom_site_label
_atom_site_type_symbol
_atom_site_fract_x
_atom_site_fract_y
_atom_site_fract_z
_atom_type_partial_charge
C0 C 0.02953 0.38714 0.10645 0.0
O1 O 0.01034 0.35586 0.09104 0.0
O2 O 0.00061 0.29415 0.14179 0.0
Zn3 Zn 0.05375 0.33787 0.13123 0.0
O4 O 0.07326 0.32625 0.09663 0.0
C5 C 0.0849 0.31693 0.17685 0.0
O6 O 0.05439 0.28236 0.17165 0.0
O7 O 0.05074 0.38652 0.12573 0.0
C8 C 0.07683 0.29607 0.09409 0.0
O9 O 0.06627 0.27099 0.11438 0.0
C10 C 0.9763 0.26559 0.12723 0.0
O11 O 0.9846 0.26324 0.10156 0.0
O12 O 0.09114 0.34599 0.16198 0.0
C13 C 0.62871 0.0189 0.25891 0.0
O14 O 0.64258 0.00262 0.24221 0.0
O15 O 0.70072 -0.0009 0.29793 0.0
Zn16 Zn 0.7038 0.04879 0.28493 0.0
O17 O 0.73599 0.07022 0.2508 0.0
C18 C 0.76192 0.09635 0.32404 0.0
O19 O 0.78065 0.08078 0.31186 0.0
O20 O 0.64985 0.03972 0.27858 0.0
C21 C 0.76425 0.06493 0.24421 0.0
O22 O 0.77306 0.04346 0.25999 0.0
C23 C 0.69818 0.97059 0.28414 0.0
O24 O 0.69718 0.97145 0.25735 0.0
O25 O 0.72811 0.0878 0.31547 0.0
C26 C 0.6031 0.63486 0.41184 0.0
O27 O 0.62342 0.65752 0.39138 0.0
O28 O 0.70168 0.69972 0.4565 0.0
Zn29 Zn 0.65469 0.70237 0.44409 0.0
O30 O 0.66511 0.73632 0.41094 0.0
C31 C 0.64816 0.75967 0.47784 0.0
O32 O 0.66746 0.78363 0.45769 0.0
O33 O 0.61144 0.64794 0.43607 0.0
C34 C 0.69783 0.76617 0.4049 0.0
O35 O 0.72811 0.77653 0.42101 0.0
C36 C 0.7296 0.70066 0.44286 0.0
O37 O 0.73042 0.70414 0.41616 0.0
O38 O 0.63861 0.72375 0.47595 0.0
C39 C 0.9817 0.61527 0.60344 0.0
O40 O 0.01476 0.64839 0.59992 0.0
O41 O 0.00282 0.70975 0.62331 0.0
Zn42 Zn 0.95001 0.66663 0.61128 0.0
O43 O 0.93279 0.67768 0.57554 0.0
C44 C 0.92106 0.662 0.6652 0.0
O45 O 0.9553 0.66554 0.67094 0.0
O46 O 0.9505 0.61618 0.60849 0.0
C47 C 0.92346 0.70419 0.57399 0.0
O48 O 0.9272 0.72539 0.59572 0.0
C49 C 0.02333 0.74398 0.61343 0.0
O50 O 0.01118 0.7541 0.59159 0.0
O51 O 0.9114 0.66098 0.64034 0.0
C52 C 0.35657 0.97321 0.7762 0.0
O53 O 0.35662 0.0057 0.76992 0.0
O54 O 0.28976 0.00136 0.80201 0.0
Zn55 Zn 0.27655 0.94708 0.79075 0.0
O56 O 0.24584 0.9301 0.75593 0.0
C57 C 0.2543 0.92119 0.84561 0.0
O58 O 0.28531 0.95556 0.85048 0.0
O59 O 0.32554 0.94439 0.78576 0.0
C60 C 0.20901 0.91645 0.75628 0.0
O61 O 0.19179 0.91531 0.77954 0.0
C62 C 0.27208 0.01921 0.7942 0.0
O63 O 0.24417 0.00291 0.77584 0.0
O64 O 0.24474 0.91037 0.82101 0.0
C65 C 0.38784 0.3639 0.93346 0.0
O66 O 0.35526 0.35182 0.91955 0.0
O67 O 0.29722 0.30316 0.9715 0.0
Zn68 Zn 0.33985 0.29197 0.9608 0.0
O69 O 0.32563 0.2575 0.92765 0.0
C70 C 0.32188 0.24537 0.00944 0.0
O71 O 0.28785 0.24339 0.00597 0.0
O72 O 0.3885 0.34269 0.95275 0.0
C73 C 0.29962 0.22147 0.92902 0.0
O74 O 0.28098 0.20733 0.95218 0.0
C75 C 0.2639 0.29004 0.96027 0.0
O76 O 0.25558 0.2685 0.93813 0.0
O77 O 0.34944 0.26498 0.99254 0.0
C78 C 0.58838 0.93878 0.73498 0.0
O79 O 0.61272 0.9415 0.75428 0.0
O80 O 0.68597 0.97464 0.68973 0.0
Zn81 Zn 0.63908 0.92355 0.70019 0.0
O82 O 0.65349 0.89824 0.73009 0.0
C83 C 0.65078 0.88117 0.65876 0.0
O84 O 0.68338 0.89431 0.67284 0.0
O85 O 0.59386 0.93114 0.7107 0.0
C86 C 0.67585 0.91659 0.75002 0.0
O87 O 0.69037 0.95462 0.75238 0.0
C88 C 0.69633 0.00817 0.69979 0.0
O89 O 0.67541 0.01143 0.71945 0.0
O90 O 0.625 0.88927 0.66694 0.0
C91 C 0.63681 0.61431 0.88866 0.0
O92 O 0.64609 0.64717 0.90146 0.0
O93 O 0.70443 0.70763 0.86188 0.0
Zn94 Zn 0.7134 0.66202 0.86716 0.0
O95 O 0.74559 0.66947 0.90073 0.0
C96 C 0.75961 0.68291 0.81721 0.0
O97 O 0.76171 0.71692 0.82106 0.0
O98 O 0.66142 0.61346 0.87229 0.0
C99 C 0.78279 0.68764 0.89956 0.0
O100 O 0.80023 0.70213 0.87609 0.0
C101 C 0.72973 0.74296 0.8674 0.0
O102 O 0.76375 0.75107 0.8777 0.0
O103 O 0.74036 0.6552 0.83407 0.0
C104 C 0.02195 0.63474 0.06824 0.0
O105 O -0.00406 0.64166 0.07992 0.0
O106 O 0.9913 0.69488 0.03391 0.0
Zn107 Zn 0.04566 0.70958 0.04587 0.0
O108 O 0.06229 0.74139 0.08035 0.0
C109 C 0.07554 0.76122 -0.00039 0.0
O110 O 0.04307 0.76238 0.00334 0.0
O111 O 0.0472 0.6603 0.05226 0.0
C112 C 0.0679 0.77606 0.08141 0.0
O113 O 0.0609 0.79109 0.05965 0.0
C114 C 0.96849 0.70557 0.04419 0.0
O115 O 0.97923 0.72773 0.06612 0.0
O116 O 0.08323 0.74039 0.0155 0.0
C117 C 0.37439 0.01535 0.22909 0.0
O118 O 0.34087 0.98856 0.23962 0.0
O119 O 0.28354 -0.00089 0.20109 0.0
Zn120 Zn 0.32839 0.04999 0.21426 0.0
O121 O 0.31767 0.06653 0.25041 0.0
C122 C 0.33887 0.08193 0.16111 0.0
O123 O 0.33533 0.04769 0.15534 0.0
O124 O 0.37612 0.04479 0.21712 0.0
C125 C 0.2883 0.07128 0.25359 0.0
O126 O 0.26415 0.06392 0.23304 0.0
C127 C 0.25247 0.97466 0.2135 0.0
O128 O 0.24689 0.98105 0.23899 0.0
O129 O 0.33765 0.09064 0.18594 0.0
C130 C 0.35699 0.375 0.38644 0.0
O131 O 0.35634 0.34344 0.37698 0.0
O132 O 0.27909 0.27913 0.37887 0.0
Zn133 Zn 0.27266 0.32451 0.39019 0.0
O134 O 0.24254 0.31583 0.42495 0.0
C135 C 0.25533 0.33403 0.33555 0.0
O136 O 0.28702 0.33152 0.33153 0.0
O137 O 0.32507 0.37326 0.39348 0.0
C138 C 0.21311 0.28335 0.43194 0.0
O139 O 0.202 0.25237 0.41639 0.0
C140 C 0.27882 0.25102 0.39178 0.0
O141 O 0.27317 0.24782 0.41831 0.0
O142 O 0.2432 0.33251 0.35982 0.0
C143 C 0.95334 0.34961 0.57352 0.0
O144 O 0.95476 0.32824 0.5936 0.0
O145 O 0.97359 0.27313 0.53403 0.0
Zn146 Zn 0.92666 0.27839 0.54264 0.0
O147 O 0.89415 0.24384 0.57357 0.0
C148 C 0.87395 0.22359 0.50452 0.0
O149 O 0.8744 0.19973 0.52309 0.0
O150 O 0.94248 0.33438 0.55 0.0
C151 C 0.90613 0.23225 0.59364 0.0
O152 O 0.94356 0.24358 0.59572 0.0
C153 C 0.00585 0.28578 0.54667 0.0
O154 O 0.0116 0.30464 0.56986 0.0
O155 O 0.89379 0.26035 0.50866 0.0
C156 C 0.05035 0.59099 0.06155 0.0
C157 C 0.02203 0.59784 0.0737 0.0
C158 C 0.05104 0.55632 0.06673 0.0
C159 C 0.02272 0.52786 0.08445 0.0
C160 C -0.00608 0.53445 0.09666 0.0
C161 C -0.00608 0.56942 0.09114 0.0
C162 C 0.08222 0.55026 0.05336 0.0
C163 C 0.96325 0.50466 0.11565 0.0
C164 C 0.00452 0.42391 0.07938 0.0
C165 C 0.02706 0.42282 0.10115 0.0
C166 C 0.00256 0.45784 0.07383 0.0
C167 C 0.02362 0.49139 0.09048 0.0
C168 C 0.04614 0.49038 0.11263 0.0
C169 C 0.04759 0.45609 0.1177 0.0
C170 C 0.97826 0.45793 0.05002 0.0
C171 C 0.06897 0.52565 0.13082 0.0
H172 H 0.07216 0.6128 0.04804 0.0
H173 H 0.97192 0.57448 0.10057 0.0
H174 H 0.10038 0.5468 0.06922 0.0
H175 H 0.06833 0.52291 0.04109 0.0
H176 H 0.10182 0.57508 0.03985 0.0
H177 H 0.94257 0.51404 0.12319 0.0
H178 H 0.94621 0.4761 0.10504 0.0
H179 H 0.97766 0.49977 0.13348 0.0
H180 H 0.98855 0.39831 0.06651 0.0
H181 H 0.06503 0.45546 0.1346 0.0
H182 H -0.00272 0.4808 0.03509 0.0
H183 H 0.95595 0.4653 0.05716 0.0
H184 H 0.96304 0.42917 0.03937 0.0
H185 H 0.09093 0.55076 0.11854 0.0
H186 H 0.08449 0.51981 0.1475 0.0
H187 H 0.04894 0.53468 0.14004 0.0
C188 C 0.57557 0.03267 0.27223 0.0
C189 C 0.58952 0.01439 0.25449 0.0
C190 C 0.5393 0.03025 0.26779 0.0
C191 C 0.51636 0.00898 0.24507 0.0
C192 C 0.52978 0.98971 0.2274 0.0
C193 C 0.56629 0.99266 0.23231 0.0
C194 C 0.52592 0.05122 0.28709 0.0
C195 C 0.50597 0.9667 0.203 0.0
C196 C 0.40933 0.98162 0.24711 0.0
C197 C 0.41006 0.01213 0.23186 0.0
C198 C 0.44355 0.97953 0.25097 0.0
C199 C 0.47921 0.0086 0.23924 0.0
C200 C 0.4799 0.03882 0.2232 0.0
C201 C 0.44532 0.04024 0.21972 0.0
C202 C 0.4418 0.94689 0.26821 0.0
C203 C 0.51741 0.07031 0.21032 0.0
H204 H 0.59326 0.04941 0.28948 0.0
H205 H 0.57682 0.97834 0.21857 0.0
H206 H 0.52326 0.07428 0.27589 0.0
H207 H 0.49651 0.03034 0.29543 0.0
H208 H 0.54651 0.06518 0.30441 0.0
H209 H 0.51958 0.95174 0.19208 0.0
H210 H 0.47597 0.94434 0.2095 0.0
H211 H 0.50292 0.98666 0.1885 0.0
H212 H 0.38216 0.95973 0.25648 0.0
H213 H 0.44608 0.06378 0.20774 0.0
H214 H 0.45971 0.95937 0.2869 0.0
H215 H 0.45443 0.93137 0.25687 0.0
H216 H 0.41135 0.92519 0.27441 0.0
H217 H 0.53874 0.0878 0.22651 0.0
H218 H 0.51252 0.09051 0.19722 0.0
H219 H 0.53099 0.0568 0.19775 0.0
C220 C 0.55243 0.56882 0.42856 0.0
C221 C 0.56965 0.59516 0.40681 0.0
C222 C 0.51929 0.53186 0.42447 0.0
C223 C 0.50276 0.5212 0.39807 0.0
C224 C 0.52054 0.54724 0.37588 0.0
C225 C 0.55398 0.58391 0.3805 0.0
C226 C 0.50134 0.50464 0.44857 0.0
C227 C 0.50347 0.53693 0.34748 0.0
C228 C 0.4303 0.41374 0.3846 0.0
C229 C 0.39439 0.41241 0.38879 0.0
C230 C 0.46593 0.44908 0.38728 0.0
C231 C 0.46549 0.4838 0.39408 0.0
C232 C 0.42934 0.48274 0.39792 0.0
C233 C 0.39423 0.44703 0.39533 0.0
C234 C 0.50402 0.44917 0.38323 0.0
C235 C 0.42774 0.51929 0.40501 0.0
H236 H 0.56464 0.57723 0.4489 0.0
H237 H 0.56715 0.60417 0.36362 0.0
H238 H 0.47166 0.50016 0.45272 0.0
H239 H 0.49787 0.47547 0.44391 0.0
H240 H 0.51931 0.51626 0.46736 0.0
H241 H 0.52209 0.55945 0.33219 0.0
H242 H 0.49984 0.50825 0.34111 0.0
H243 H 0.47392 0.53398 0.34737 0.0
H244 H 0.43062 0.38708 0.37955 0.0
H245 H 0.36659 0.44629 0.39842 0.0
H246 H 0.52142 0.45853 0.40236 0.0
H247 H 0.52183 0.4706 0.36717 0.0
H248 H 0.49927 0.41984 0.37735 0.0
H249 H 0.44244 0.53111 0.42488 0.0
H250 H 0.39718 0.51369 0.40637 0.0
H251 H 0.44375 0.54232 0.38941 0.0
C252 C 0.94464 0.54205 0.6039 0.0
C253 C 0.98034 0.57719 0.60078 0.0
C254 C 0.94241 0.50567 0.60042 0.0
C255 C 0.97671 0.50437 0.59368 0.0
C256 C 0.01301 0.53965 0.59105 0.0
C257 C 0.0144 0.57571 0.59461 0.0
C258 C 0.90314 0.46861 0.60338 0.0
C259 C 0.05018 0.5393 0.58395 0.0
C260 C 0.97188 0.40664 0.60467 0.0
C261 C 0.96215 0.39028 0.57843 0.0
C262 C 0.97788 0.44433 0.60982 0.0
C263 C 0.97401 0.46602 0.58822 0.0
C264 C 0.96533 0.45013 0.56155 0.0
C265 C 0.95953 0.41246 0.55697 0.0
C266 C 0.98723 0.46047 0.63851 0.0
C267 C 0.961 0.47244 0.53799 0.0
H268 H 0.91821 0.54291 0.60876 0.0
H269 H 0.04211 0.60274 0.59226 0.0
H270 H 0.89468 0.45254 0.58368 0.0
H271 H 0.9051 0.44893 0.61872 0.0
H272 H 0.87955 0.47466 0.60967 0.0
H273 H 0.07635 0.56919 0.58401 0.0
H274 H 0.05507 0.52075 0.59867 0.0
H275 H 0.04732 0.52625 0.56341 0.0
H276 H 0.97411 0.38975 0.62133 0.0
H277 H 0.95221 0.40012 0.5366 0.0
H278 H 0.96282 0.46407 0.6465 0.0
H279 H 0.01398 0.48989 0.63855 0.0
H280 H 0.99182 0.44103 0.65261 0.0
H281 H 0.93576 0.47701 0.54178 0.0
H282 H 0.95622 0.45679 0.51824 0.0
H283 H 0.98756 0.50184 0.53618 0.0
C284 C 0.55109 0.95683 0.7676 0.0
C285 C 0.55518 0.94502 0.74136 0.0
C286 C 0.51969 0.96276 0.77396 0.0
C287 C 0.49165 0.95653 0.75362 0.0
C288 C 0.49569 0.94479 0.72707 0.0
C289 C 0.52747 0.93926 0.72124 0.0
C290 C 0.51636 0.97545 0.80247 0.0
C291 C 0.4662 0.93767 0.70491 0.0
C292 C 0.39 0.93346 0.7756 0.0
C293 C 0.39164 0.9695 0.77127 0.0
C294 C 0.42249 0.92896 0.77014 0.0
C295 C 0.4575 0.96133 0.76026 0.0
C296 C 0.45961 -0.00205 0.75624 0.0
C297 C 0.42657 0.00158 0.76173 0.0
C298 C 0.41915 0.88942 0.77459 0.0
C299 C 0.49661 0.03314 0.74587 0.0
H300 H 0.57246 0.96149 0.78323 0.0
H301 H 0.53042 0.93013 0.70091 0.0
H302 H 0.51543 0.00315 0.80166 0.0
H303 H 0.48858 0.95295 0.81204 0.0
H304 H 0.54118 0.98003 0.81572 0.0
H305 H 0.4739 0.92918 0.68522 0.0
H306 H 0.43669 0.91401 0.71126 0.0
H307 H 0.46417 0.96449 0.70161 0.0
H308 H 0.36312 0.90851 0.78295 0.0
H309 H 0.42809 0.02954 0.75842 0.0
H310 H 0.44211 0.89221 0.78902 0.0
H311 H 0.42402 0.87827 0.75503 0.0
H312 H 0.39001 0.86739 0.78281 0.0
H313 H 0.52158 0.03939 0.75949 0.0
H314 H 0.4938 0.05982 0.74458 0.0
H315 H 0.50395 0.02685 0.72529 0.0
C316 C 0.42308 0.42444 0.90487 0.0
C317 C 0.42341 0.40141 0.9266 0.0
C318 C 0.45684 0.4598 0.89795 0.0
C319 C 0.49166 0.47234 0.91315 0.0
C320 C 0.49211 0.44938 0.93522 0.0
C321 C 0.45798 0.41418 0.94168 0.0
C322 C 0.45536 0.4836 0.87428 0.0
C323 C 0.52875 0.46186 0.9519 0.0
C324 C 0.59003 0.54288 0.88141 0.0
C325 C 0.59886 0.57839 0.89398 0.0
C326 C 0.55488 0.50824 0.88711 0.0
C327 C 0.52793 0.50919 0.90579 0.0
C328 C 0.53627 0.54505 0.91815 0.0
C329 C 0.57169 0.57926 0.91211 0.0
C330 C 0.54694 0.47049 0.87355 0.0
C331 C 0.5081 0.54714 0.93812 0.0
H332 H 0.39648 0.41478 0.89313 0.0
H333 H 0.45847 0.39658 0.95853 0.0
H334 H 0.46369 0.51361 0.88123 0.0
H335 H 0.47686 0.48663 0.85843 0.0
H336 H 0.42579 0.47008 0.86481 0.0
H337 H 0.52405 0.44091 0.96864 0.0
H338 H 0.55267 0.46432 0.93855 0.0
H339 H 0.53886 0.49124 0.96093 0.0
H340 H 0.61083 0.54197 0.86733 0.0
H341 H 0.57824 0.60661 0.92183 0.0
H342 H 0.51846 0.45706 0.86263 0.0
H343 H 0.54475 0.44917 0.88926 0.0
H344 H 0.57028 0.47501 0.85877 0.0
H345 H 0.47875 0.53529 0.92862 0.0
H346 H 0.51824 0.57758 0.94511 0.0
H347 H 0.50454 0.52871 0.95622 0.0
C348 C 0.10667 0.31778 0.04776 0.0
C349 C 0.09659 0.29167 0.06979 0.0
C350 C 0.12986 0.31718 0.02622 0.0
C351 C 0.14347 0.29005 0.02689 0.0
C352 C 0.13142 0.26209 0.04822 0.0
C353 C 0.10797 0.26314 0.06938 0.0
C354 C 0.14165 0.34706 0.00361 0.0
C355 C 0.14536 0.23266 0.04964 0.0
C356 C 0.19368 0.27199 0.96697 0.0
C357 C 0.23319 0.29421 0.97472 0.0
C358 C 0.16396 0.27162 0.9831 0.0
C359 C 0.17415 0.29391 0.00746 0.0
C360 C 0.2141 0.31803 0.01453 0.0
C361 C 0.24309 0.31795 0.99804 0.0
C362 C 0.12166 0.24595 0.97479 0.0
C363 C 0.22621 0.34244 0.04029 0.0
H364 H 0.09755 0.33962 0.04777 0.0
H365 H 0.10006 0.24268 0.08622 0.0
H366 H 0.17304 0.3696 0.00593 0.0
H367 H 0.13828 0.333 0.98339 0.0
H368 H 0.12405 0.36203 0.00385 0.0
H369 H 0.13038 0.2106 0.06603 0.0
H370 H 0.14032 0.21709 0.02988 0.0
H371 H 0.1774 0.24821 0.05362 0.0
H372 H 0.1858 0.25366 0.94892 0.0
H373 H 0.27358 0.33554 0.00403 0.0
H374 H 0.10559 0.26237 0.97629 0.0
H375 H 0.10717 0.22055 0.98889 0.0
H376 H 0.11887 0.23465 0.95364 0.0
H377 H 0.21277 0.36137 0.04099 0.0
H378 H 0.25855 0.36138 0.04195 0.0
H379 H 0.21551 0.32286 0.05838 0.0
C380 C 0.78048 0.10991 0.20424 0.0
C381 C 0.78994 0.08695 0.22104 0.0
C382 C 0.80731 0.13559 0.18491 0.0
C383 C 0.84448 0.13847 0.18249 0.0
C384 C 0.85304 0.11328 0.19794 0.0
C385 C 0.82558 0.0877 0.21701 0.0
C386 C 0.79694 0.16165 0.16855 0.0
C387 C 0.89236 0.11544 0.19587 0.0
C388 C 0.91611 0.19878 0.12629 0.0
C389 C 0.94055 0.23386 0.1402 0.0
C390 C 0.88398 0.16754 0.13952 0.0
C391 C 0.87636 0.17166 0.16721 0.0
C392 C 0.90025 0.20742 0.18104 0.0
C393 C 0.93196 0.23803 0.16736 0.0
C394 C 0.85889 0.12985 0.12416 0.0
C395 C 0.893 0.21306 0.21057 0.0
H396 H 0.75272 0.10906 0.20694 0.0
H397 H 0.83296 0.06977 0.22971 0.0
H398 H 0.81329 0.19199 0.17669 0.0
H399 H 0.80558 0.16276 0.14686 0.0
H400 H 0.76507 0.15152 0.16951 0.0
H401 H 0.89252 0.09057 0.20647 0.0
H402 H 0.90059 0.11556 0.17419 0.0
H403 H 0.91522 0.14321 0.20522 0.0
H404 H 0.92257 0.19537 0.10529 0.0
H405 H 0.95051 0.26511 0.17823 0.0
H406 H 0.82743 0.12093 0.12612 0.0
H407 H 0.86259 0.10602 0.13311 0.0
H408 H 0.86662 0.13251 0.10215 0.0
H409 H 0.86263 0.20749 0.21319 0.0
H410 H 0.9137 0.2431 0.21808 0.0
H411 H 0.89608 0.19169 0.22359 0.0
C412 C 0.73525 0.82621 0.37612 0.0
C413 C 0.70009 0.79165 0.38197 0.0
C414 C 0.73633 0.85313 0.35688 0.0
C415 C 0.70138 0.84531 0.34336 0.0
C416 C 0.66641 0.80933 0.34788 0.0
C417 C 0.66621 0.78286 0.36708 0.0
C418 C 0.7743 0.89104 0.35233 0.0
C419 C 0.62852 0.79995 0.3339 0.0
C420 C 0.69092 0.93346 0.32686 0.0
C421 C 0.69782 0.93752 0.29865 0.0
C422 C 0.69175 0.90338 0.34148 0.0
C423 C 0.70006 0.87682 0.32761 0.0
C424 C 0.70685 0.8805 0.29909 0.0
C425 C 0.70543 0.91078 0.28486 0.0
C426 C 0.68388 0.90017 0.37185 0.0
C427 C 0.71608 0.85281 0.28375 0.0
H428 H 0.76165 0.83301 0.38731 0.0
H429 H 0.63897 0.75601 0.37125 0.0
H430 H 0.77974 0.89745 0.3302 0.0
H431 H 0.77227 0.91559 0.36179 0.0
H432 H 0.79979 0.89027 0.36137 0.0
H433 H 0.60532 0.76889 0.33692 0.0
H434 H 0.61777 0.8191 0.34226 0.0
H435 H 0.63325 0.80589 0.31169 0.0
H436 H 0.68477 0.95387 0.33763 0.0
H437 H 0.71098 0.91393 0.26307 0.0
H438 H 0.70974 0.90327 0.38308 0.0
H439 H 0.6587 0.87082 0.37683 0.0
H440 H 0.67726 0.92285 0.37943 0.0
H441 H 0.74328 0.85483 0.292 0.0
H442 H 0.72008 0.85929 0.26153 0.0
H443 H 0.69215 0.8221 0.28665 0.0
C444 C 0.79945 0.71621 0.44663 0.0
C445 C 0.76161 0.69956 0.45771 0.0
C446 C 0.8306 0.71853 0.46213 0.0
C447 C 0.82335 0.70333 0.48904 0.0
C448 C 0.78481 0.68501 0.49978 0.0
C449 C 0.75453 0.68359 0.48405 0.0
C450 C 0.8714 0.73851 0.45015 0.0
C451 C 0.77568 0.66784 0.52823 0.0
C452 C 0.8892 0.67783 0.52954 0.0
C453 C 0.90395 0.70768 0.54927 0.0
C454 C 0.86502 0.67745 0.50839 0.0
C455 C 0.85584 0.70787 0.50684 0.0
C456 C 0.87332 0.73972 0.52534 0.0
C457 C 0.897 0.73912 0.54647 0.0
C458 C 0.84683 0.6429 0.48913 0.0
C459 C 0.86474 0.77305 0.52406 0.0
H460 H 0.80501 0.72872 0.42629 0.0
H461 H 0.72519 0.67028 0.49257 0.0
H462 H 0.89018 0.76622 0.46134 0.0
H463 H 0.88487 0.71975 0.45254 0.0
H464 H 0.87153 0.74548 0.42816 0.0
H465 H 0.74378 0.65263 0.53287 0.0
H466 H 0.7862 0.64661 0.53076 0.0
H467 H 0.79122 0.6915 0.54349 0.0
H468 H 0.89466 0.65353 0.53147 0.0
H469 H 0.90882 0.76258 0.56141 0.0
H470 H 0.84812 0.65282 0.46777 0.0
H471 H 0.81543 0.62378 0.49446 0.0
H472 H 0.86154 0.62509 0.49024 0.0
H473 H 0.86706 0.78359 0.50276 0.0
H474 H 0.88497 0.79813 0.53714 0.0
H475 H 0.83425 0.76253 0.53105 0.0
C476 C 0.07274 0.76099 0.65022 0.0
C477 C 0.0575 0.77338 0.62907 0.0
C478 C 0.10091 0.78802 0.66817 0.0
C479 C 0.11409 0.82847 0.66493 0.0
C480 C 0.10061 0.84142 0.64266 0.0
C481 C 0.07244 0.81364 0.62488 0.0
C482 C 0.11491 0.77305 0.6915 0.0
C483 C 0.11422 0.88435 0.63852 0.0
C484 C 0.14473 0.88317 0.73199 0.0
C485 C 0.18544 0.89866 0.73143 0.0
C486 C 0.12135 0.8621 0.70972 0.0
C487 C 0.13915 0.85634 0.68639 0.0
C488 C 0.18043 0.87376 0.68507 0.0
C489 C 0.20314 0.89478 0.70764 0.0
C490 C 0.07738 0.84418 0.71179 0.0
C491 C 0.20042 0.86835 0.66049 0.0
H492 H 0.06165 0.72992 0.65336 0.0
H493 H 0.06079 0.82339 0.60854 0.0
H494 H 0.14742 0.789 0.69227 0.0
H495 H 0.10429 0.77845 0.71112 0.0
H496 H 0.10427 0.74113 0.6898 0.0
H497 H 0.10512 0.89005 0.61836 0.0
H498 H 0.10158 0.89443 0.65473 0.0
H499 H 0.14661 0.90223 0.64019 0.0
H500 H 0.13088 0.88639 0.75018 0.0
H501 H 0.23464 0.90691 0.70698 0.0
H502 H 0.06338 0.81176 0.71281 0.0
H503 H 0.0658 0.85139 0.69339 0.0
H504 H 0.0685 0.85446 0.73014 0.0
H505 H 0.19401 0.83752 0.65968 0.0
H506 H 0.23275 0.88796 0.66112 0.0
H507 H 0.18902 0.87408 0.64138 0.0
C508 C 0.25435 0.07072 0.80476 0.0
C509 C 0.27909 0.05505 0.8088 0.0
C510 C 0.25729 0.10111 0.82142 0.0
C511 C 0.28558 0.116 0.84254 0.0
C512 C 0.31208 0.10185 0.84564 0.0
C513 C 0.30856 0.0716 0.8287 0.0
C514 C 0.2288 0.1158 0.81737 0.0
C515 C 0.34283 0.11714 0.86783 0.0
C516 C 0.31351 0.20991 0.88108 0.0
C517 C 0.29273 0.19513 0.90558 0.0
C518 C 0.31008 0.18462 0.85971 0.0
C519 C 0.28544 0.14369 0.86304 0.0
C520 C 0.26306 0.12878 0.88722 0.0
C521 C 0.26691 0.1547 0.90817 0.0
C522 C 0.3341 0.20156 0.83411 0.0
C523 C 0.2364 0.08525 0.8915 0.0
H524 H 0.23163 0.05822 0.78933 0.0
H525 H 0.32806 0.05993 0.83179 0.0
H526 H 0.20764 0.1058 0.83459 0.0
H527 H 0.24448 0.14834 0.81729 0.0
H528 H 0.21207 0.10492 0.79802 0.0
H529 H 0.36309 0.10525 0.86614 0.0
H530 H 0.36035 0.14963 0.86708 0.0
H531 H 0.3283 0.10891 0.8881 0.0
H532 H 0.33331 0.24118 0.87883 0.0
H533 H 0.25056 0.14307 0.92696 0.0
H534 H 0.31549 0.18911 0.81572 0.0
H535 H 0.35741 0.19357 0.83313 0.0
H536 H 0.3482 0.23404 0.83338 0.0
H537 H 0.21594 0.07231 0.87405 0.0
H538 H 0.21895 0.07864 0.9106 0.0
H539 H 0.25419 0.07056 0.89252 0.0
C540 C 0.75533 0.80929 0.84714 0.0
C541 C 0.72356 0.77462 0.8572 0.0
C542 C 0.74914 0.83629 0.83244 0.0
C543 C 0.71034 0.82871 0.8284 0.0
C544 C 0.67849 0.79539 0.84059 0.0
C545 C 0.68544 0.76838 0.85453 0.0
C546 C 0.7838 0.87109 0.81934 0.0
C547 C 0.63681 0.7869 0.83738 0.0
C548 C 0.69433 0.90802 0.79723 0.0
C549 C 0.68559 0.89503 0.77015 0.0
C550 C 0.70232 0.88668 0.81663 0.0
C551 C 0.70257 0.85231 0.80842 0.0
C552 C 0.69467 0.8397 0.78091 0.0
C553 C 0.68574 0.86094 0.7622 0.0
C554 C 0.70967 0.90036 0.84593 0.0
C555 C 0.69552 0.80367 0.77121 0.0
H556 H 0.78483 0.81402 0.84907 0.0
H557 H 0.66091 0.7417 0.86257 0.0
H558 H 0.78294 0.8664 0.79695 0.0
H559 H 0.78254 0.89829 0.82279 0.0
H560 H 0.81219 0.87553 0.82724 0.0
H561 H 0.61638 0.76354 0.85156 0.0
H562 H 0.635 0.81378 0.84109 0.0
H563 H 0.62681 0.77719 0.81617 0.0
H564 H 0.69395 0.93429 0.80339 0.0
H565 H 0.67935 0.85112 0.74118 0.0
H566 H 0.73854 0.90501 0.85278 0.0
H567 H 0.68705 0.87741 0.85928 0.0
H568 H 0.70907 0.92805 0.84888 0.0
H569 H 0.72417 0.80618 0.7763 0.0
H570 H 0.69077 0.7991 0.74885 0.0
H571 H 0.67242 0.77727 0.7818 0.0
C572 C 0.84706 0.71501 0.9235 0.0
C573 C 0.80616 0.69122 0.92409 0.0
C574 C 0.86994 0.71695 0.94596 0.0
C575 C 0.85146 0.6943 0.96951 0.0
C576 C 0.8101 0.67118 0.97061 0.0
C577 C 0.78788 0.67 0.94787 0.0
C578 C 0.91403 0.74225 0.94412 0.0
C579 C 0.78946 0.64656 0.99535 0.0
C580 C 0.91843 0.66896 0.00854 0.0
C581 C 0.93336 0.69818 0.02866 0.0
C582 C 0.88975 0.66578 0.99021 0.0
C583 C 0.87594 0.69272 0.99192 0.0
C584 C 0.88896 0.72062 0.01332 0.0
C585 C 0.91749 0.72291 0.03159 0.0
C586 C 0.87616 0.63522 0.96791 0.0
C587 C 0.87481 0.74977 0.01578 0.0
H588 H 0.86134 0.73177 0.90529 0.0
H589 H 0.75623 0.6516 0.94849 0.0
H590 H 0.92543 0.7623 0.96192 0.0
H591 H 0.92763 0.72343 0.9446 0.0
H592 H 0.92358 0.76009 0.92515 0.0
H593 H 0.75709 0.63313 0.994 0.0
H594 H 0.79659 0.62273 0.99743 0.0
H595 H 0.7998 0.66458 0.01417 0.0
H596 H 0.93029 0.64945 0.00644 0.0
H597 H 0.92895 0.74555 0.04713 0.0
H598 H 0.88763 0.64984 0.94795 0.0
H599 H 0.84368 0.61895 0.96659 0.0
H600 H 0.88637 0.61384 0.97126 0.0
H601 H 0.88757 0.77153 -0.001 0.0
H602 H 0.88343 0.76575 0.03554 0.0
H603 H 0.84244 0.73487 0.01377 0.0
C604 C 0.2313 0.93099 0.17287 0.0
C605 C 0.22197 0.94076 0.19823 0.0
C606 C 0.20247 0.90131 0.15673 0.0
C607 C 0.1632 0.88093 0.16608 0.0
C608 C 0.15367 0.88971 0.19204 0.0
C609 C 0.1833 0.91954 0.20792 0.0
C610 C 0.21394 0.89255 0.12927 0.0
C611 C 0.11206 0.86855 0.20259 0.0
C612 C 0.09256 0.83894 0.10699 0.0
C613 C 0.08651 0.80072 0.1057 0.0
C614 C 0.11519 0.86463 0.1279 0.0
C615 C 0.13231 0.85179 0.14783 0.0
C616 C 0.12405 0.81244 0.14772 0.0
C617 C 0.10111 0.78729 0.12667 0.0
C618 C 0.12298 0.90629 0.12753 0.0
C619 C 0.14174 0.79767 0.16865 0.0
H620 H 0.26121 0.94702 0.16537 0.0
H621 H 0.17592 0.92703 0.22749 0.0
H622 H 0.20445 0.86091 0.12774 0.0
H623 H 0.19893 0.89932 0.11278 0.0
H624 H 0.24607 0.90983 0.12562 0.0
H625 H 0.11008 0.87642 0.22408 0.0
H626 H 0.09356 0.87605 0.18972 0.0
H627 H 0.0996 0.83633 0.20125 0.0
H628 H 0.08092 0.84936 0.09107 0.0
H629 H 0.09628 0.75766 0.12596 0.0
H630 H 0.15386 0.92638 0.12139 0.0
H631 H 0.11891 0.91527 0.14819 0.0
H632 H 0.10347 0.91013 0.11302 0.0
H633 H 0.17357 0.81061 0.16449 0.0
H634 H 0.12794 0.7652 0.16822 0.0
H635 H 0.1387 0.80687 0.18949 0.0
C636 C 0.25118 0.0937 0.28277 0.0
C637 C 0.2839 0.08901 0.27901 0.0
C638 C 0.24929 0.11541 0.30482 0.0
C639 C 0.28102 0.13303 0.3234 0.0
C640 C 0.31281 0.12603 0.32083 0.0
C641 C 0.31383 0.10398 0.29867 0.0
C642 C 0.21462 0.12182 0.30708 0.0
C643 C 0.34716 0.14428 0.34024 0.0
C644 C 0.29976 0.23098 0.34994 0.0
C645 C 0.28293 0.2213 0.37604 0.0
C646 C 0.30052 0.2027 0.33311 0.0
C647 C 0.28375 0.16358 0.3425 0.0
C648 C 0.26805 0.15381 0.36924 0.0
C649 C 0.26798 0.18297 0.38583 0.0
C650 C 0.31807 0.2145 0.30486 0.0
C651 C 0.2499 0.11237 0.37987 0.0
H652 H 0.22767 0.08172 0.26789 0.0
H653 H 0.33908 0.10016 0.29608 0.0
H654 H 0.20369 0.11729 0.3284 0.0
H655 H 0.22386 0.15254 0.30141 0.0
H656 H 0.19013 0.10187 0.29348 0.0
H657 H 0.36624 0.13107 0.33817 0.0
H658 H 0.3651 0.17616 0.33593 0.0
H659 H 0.33693 0.14102 0.36169 0.0
H660 H 0.31181 0.26072 0.34241 0.0
H661 H 0.25487 0.1754 0.40599 0.0
H662 H 0.29489 0.19909 0.28928 0.0
H663 H 0.34056 0.20575 0.30167 0.0
H664 H 0.33189 0.24659 0.30132 0.0
H665 H 0.22235 0.09334 0.3686 0.0
H666 H 0.24301 0.11049 0.402 0.0
H667 H 0.26983 0.10046 0.37636 0.0
C668 C 0.15937 0.2462 0.46577 0.0
C669 C 0.18831 0.28214 0.45501 0.0
C670 C 0.13212 0.24472 0.48494 0.0
C671 C 0.13337 0.27993 0.4929 0.0
C672 C 0.16401 0.31641 0.48337 0.0
C673 C 0.19138 0.31708 0.46476 0.0
C674 C 0.10054 0.20535 0.49531 0.0
C675 C 0.16604 0.35459 0.49098 0.0
C676 C 0.03684 0.27623 0.50541 0.0
C677 C 0.03771 0.28207 0.53369 0.0
C678 C 0.06755 0.27486 0.49208 0.0
C679 C 0.0996 0.27848 0.50748 0.0
C680 C 0.10007 0.28294 0.53619 0.0
C681 C 0.06926 0.28524 0.54897 0.0
C682 C 0.06623 0.27083 0.46134 0.0
C683 C 0.13329 0.28582 0.55328 0.0
H684 H 0.15724 0.21914 0.45859 0.0
H685 H 0.21377 0.345 0.45661 0.0
H686 H 0.09605 0.20658 0.51757 0.0
H687 H 0.07239 0.1973 0.48504 0.0
H688 H 0.10772 0.18187 0.49125 0.0
H689 H 0.19392 0.38052 0.48425 0.0
H690 H 0.14129 0.35597 0.48127 0.0
H691 H 0.1631 0.35643 0.51336 0.0
H692 H 0.01261 0.27395 0.49346 0.0
H693 H 0.06983 0.28941 0.57087 0.0
H694 H 0.06801 0.24457 0.45539 0.0
H695 H 0.09187 0.29675 0.45216 0.0
H696 H 0.03907 0.26821 0.45246 0.0
H697 H 0.13853 0.26128 0.54837 0.0
H698 H 0.12734 0.28524 0.5755 0.0
H699 H 0.1607 0.31349 0.5485 0.0
C700 C 0.83717 0.18933 0.60926 0.0
C701 C 0.87741 0.20397 0.61331 0.0
C702 C 0.8092 0.1599 0.62612 0.0
C703 C 0.82177 0.14489 0.64767 0.0
C704 C 0.86232 0.16081 0.65273 0.0
C705 C 0.88974 0.19014 0.6354 0.0
C706 C 0.76618 0.14355 0.62 0.0
C707 C 0.87673 0.14572 0.67571 0.0
C708 C 0.74282 0.08077 0.69867 0.0
C709 C 0.73054 0.04325 0.68813 0.0
C710 C 0.7737 0.11426 0.6864 0.0
C711 C 0.79235 0.10998 0.66299 0.0
C712 C 0.78088 0.0721 0.65283 0.0
C713 C 0.75025 0.03923 0.66557 0.0
C714 C 0.78551 0.15424 0.69792 0.0
C715 C 0.79995 0.06632 0.62781 0.0
H716 H 0.82735 0.19999 0.59235 0.0
H717 H 0.92079 0.20153 0.63879 0.0
H718 H 0.75305 0.1126 0.61323 0.0
H719 H 0.7503 0.14373 0.63867 0.0
H720 H 0.76129 0.16039 0.6038 0.0
H721 H 0.90887 0.16417 0.67888 0.0
H722 H 0.86148 0.14463 0.69503 0.0
H723 H 0.8699 0.11535 0.67107 0.0
H724 H 0.72791 0.08408 0.71621 0.0
H725 H 0.74112 0.01035 0.65735 0.0
H726 H 0.77775 0.17073 0.68324 0.0
H727 H 0.81774 0.17138 0.70095 0.0
H728 H 0.77081 0.15237 0.71769 0.0
H729 H 0.79409 0.07971 0.6098 0.0
H730 H 0.78897 0.03483 0.62338 0.0
H731 H 0.83222 0.08125 0.6305 0.0
C732 C 0.19948 0.33971 0.31628 0.0
C733 C 0.23271 0.33596 0.31206 0.0
C734 C 0.17644 0.33911 0.29423 0.0
C735 C 0.18681 0.33445 0.26738 0.0
C736 C 0.22085 0.33163 0.26293 0.0
C737 C 0.24346 0.33253 0.28533 0.0
C738 C 0.14045 0.34243 0.29974 0.0
C739 C 0.23274 0.32647 0.23459 0.0
C740 C 0.1055 0.28884 0.21478 0.0
C741 C 0.11129 0.32174 0.19986 0.0
C742 C 0.12993 0.29264 0.23675 0.0
C743 C 0.16083 0.33028 0.24409 0.0
C744 C 0.16687 0.36365 0.22916 0.0
C745 C 0.14206 0.35897 0.20715 0.0
C746 C 0.12268 0.25632 0.2521 0.0
C747 C 0.19946 0.40425 0.2365 0.0
H748 H 0.19107 0.34255 0.33686 0.0
H749 H 0.26911 0.32964 0.28188 0.0
H750 H 0.14121 0.36629 0.28722 0.0
H751 H 0.11377 0.31476 0.29378 0.0
H752 H 0.1378 0.34835 0.32159 0.0
H753 H 0.26111 0.32676 0.23446 0.0
H754 H 0.20981 0.29818 0.2259 0.0
H755 H 0.23527 0.35011 0.22093 0.0
H756 H 0.08185 0.25995 0.20927 0.0
H757 H 0.14668 0.38454 0.19575 0.0
H758 H 0.11677 0.25893 0.27393 0.0
H759 H 0.14922 0.25328 0.25126 0.0
H760 H 0.0975 0.22918 0.24372 0.0
H761 H 0.19588 0.41118 0.2579 0.0
H762 H 0.20013 0.42719 0.22294 0.0
H763 H 0.2282 0.4055 0.23516 0.0
C764 C 0.86009 0.23294 0.45603 0.0
C765 C 0.85378 0.20784 0.47818 0.0
C766 C 0.84419 0.21783 0.43023 0.0
C767 C 0.82131 0.17672 0.4266 0.0
C768 C 0.81352 0.15137 0.44915 0.0
C769 C 0.82993 0.16724 0.47464 0.0
C770 C 0.85313 0.24574 0.40664 0.0
C771 C 0.78897 0.10736 0.44615 0.0
C772 C 0.75597 0.13176 0.36466 0.0
C773 C 0.77845 0.12042 0.34892 0.0
C774 C 0.77004 0.15133 0.38964 0.0
C775 C 0.8075 0.15985 0.39898 0.0
C776 C 0.83095 0.14989 0.38265 0.0
C777 C 0.81611 0.13025 0.35785 0.0
C778 C 0.74424 0.16153 0.4065 0.0
C779 C 0.87118 0.15872 0.39185 0.0
H780 H 0.87849 0.26436 0.45861 0.0
H781 H 0.82467 0.14767 0.4917 0.0
H782 H 0.87172 0.24157 0.39149 0.0
H783 H 0.82566 0.23945 0.39609 0.0
H784 H 0.86871 0.2769 0.41327 0.0
H785 H 0.78357 0.09191 0.46603 0.0
H786 H 0.76028 0.09927 0.43672 0.0
H787 H 0.80404 0.09669 0.43238 0.0
H788 H 0.72685 0.12435 0.35788 0.0
H789 H 0.83379 0.12184 0.34573 0.0
H790 H 0.76061 0.19288 0.41256 0.0
H791 H 0.73542 0.1439 0.42555 0.0
H792 H 0.71731 0.15583 0.39538 0.0
H793 H 0.88943 0.19022 0.39715 0.0
H794 H 0.88671 0.15145 0.37596 0.0
H795 H 0.8685 0.14157 0.41051 0.0
C796 C 0.61233 0.84808 0.61656 0.0
C797 C 0.64559 0.85959 0.63291 0.0
C798 C 0.6085 0.82978 0.59122 0.0
C799 C 0.63866 0.82289 0.58207 0.0
C800 C 0.67181 0.83356 0.59879 0.0
C801 C 0.67485 0.85174 0.62399 0.0
C802 C 0.57267 0.81863 0.57398 0.0
C803 C 0.70458 0.82662 0.58977 0.0
C804 C 0.62307 0.75009 0.52588 0.0
C805 C 0.64153 0.77515 0.50364 0.0
C806 C 0.62039 0.76505 0.55131 0.0
C807 C 0.63665 0.80602 0.55457 0.0
C808 C 0.65378 0.83127 0.53191 0.0
C809 C 0.65595 0.81552 0.50671 0.0
C810 C 0.60166 0.73719 0.57497 0.0
C811 C 0.6714 0.87513 0.53457 0.0
H812 H 0.58954 0.85397 0.62333 0.0
H813 H 0.70058 0.86037 0.63651 0.0
H814 H 0.58145 0.83592 0.55479 0.0
H815 H 0.55844 0.78721 0.56819 0.0
H816 H 0.55082 0.82388 0.58469 0.0
H817 H 0.72768 0.83537 0.60559 0.0
H818 H 0.69274 0.79517 0.58488 0.0
H819 H 0.71833 0.84358 0.5709 0.0
H820 H 0.61164 0.71883 0.52367 0.0
H821 H 0.67009 0.8351 0.48962 0.0
H822 H 0.57963 0.74264 0.58514 0.0
H823 H 0.62437 0.74226 0.59038 0.0
H824 H 0.58712 0.70598 0.56849 0.0
H825 H 0.64988 0.88213 0.5438 0.0
H826 H 0.681 0.89038 0.51458 0.0
H827 H 0.69717 0.88702 0.54836 0.0
C828 C 0.85772 0.65552 0.68149 0.0
C829 C 0.89518 0.66143 0.68738 0.0
C830 C 0.83373 0.6568 0.70223 0.0
C831 C 0.84767 0.66444 0.72944 0.0
C832 C 0.88514 0.66972 0.73557 0.0
C833 C 0.90838 0.66802 0.71449 0.0
C834 C 0.79379 0.65073 0.69496 0.0
C835 C 0.90111 0.67816 0.76432 0.0
C836 C 0.80652 0.7099 0.7781 0.0
C837 C 0.78097 0.67764 0.7942 0.0
C838 C 0.82811 0.70589 0.75682 0.0
C839 C 0.82384 0.66864 0.75134 0.0
C840 C 0.79763 0.63579 0.76719 0.0
C841 C 0.7766 0.64071 0.78852 0.0
C842 C 0.85598 0.74167 0.74048 0.0
C843 C 0.79211 0.59556 0.76178 0.0
H844 H 0.84723 0.65026 0.66061 0.0
H845 H 0.93729 0.67263 0.71922 0.0
H846 H 0.77089 0.62704 0.7077 0.0
H847 H 0.79277 0.67788 0.6993 0.0
H848 H 0.78645 0.643 0.67311 0.0
H849 H 0.93025 0.68022 0.76584 0.0
H850 H 0.90397 0.70623 0.77149 0.0
H851 H 0.88049 0.65482 0.77838 0.0
H852 H 0.81014 0.73856 0.78236 0.0
H853 H 0.75682 0.61561 0.80081 0.0
H854 H 0.84838 0.73667 0.71849 0.0
H855 H 0.88636 0.7471 0.74264 0.0
H856 H 0.85544 0.76842 0.74707 0.0
H857 H 0.78328 0.58705 0.74023 0.0
H858 H 0.76957 0.57279 0.77532 0.0
H859 H 0.82026 0.59602 0.76489 0.0
C860 C 0.19777 0.85885 0.86339 0.0
C861 C 0.2298 0.89634 0.86843 0.0
C862 C 0.17335 0.83574 0.88474 0.0
C863 C 0.18102 0.85059 0.91173 0.0
C864 C 0.21364 0.88813 0.91701 0.0
C865 C 0.23771 0.91051 0.89531 0.0
C866 C 0.13895 0.79572 0.87836 0.0
C867 C 0.22261 0.90503 0.94551 0.0
C868 C 0.09592 0.80997 0.96167 0.0
C869 C 0.1027 0.784 0.9772 0.0
C870 C 0.12124 0.83185 0.94036 0.0
C871 C 0.15403 0.82749 0.93429 0.0
C872 C 0.16102 0.80126 0.94981 0.0
C873 C 0.13533 0.77991 0.97117 0.0
C874 C 0.11297 0.85974 0.92437 0.0
C875 C 0.19558 0.7957 0.94381 0.0
H876 H 0.19153 0.84763 0.8427 0.0
H877 H 0.26236 0.93946 0.89939 0.0
H878 H 0.14029 0.77307 0.89105 0.0
H879 H 0.11114 0.79503 0.88347 0.0
H880 H 0.13806 0.78774 0.85651 0.0
H881 H 0.24983 0.93412 0.94632 0.0
H882 H 0.19786 0.9083 0.95319 0.0
H883 H 0.22587 0.88477 0.95959 0.0
H884 H 0.07084 0.81341 0.96623 0.0
H885 H 0.14071 0.75983 0.98303 0.0
H886 H 0.10896 0.85152 0.90246 0.0
H887 H 0.13832 0.88999 0.92584 0.0
H888 H 0.08633 0.85985 0.93176 0.0
H889 H 0.19406 0.78574 0.92242 0.0
H890 H 0.19674 0.77395 0.95765 0.0
H891 H 0.22332 0.82407 0.94591 0.0
C892 C 0.3361 0.09597 0.11168 0.0
C893 C 0.34139 0.10862 0.13891 0.0
C894 C 0.3355 0.11969 0.09054 0.0
C895 C 0.34065 0.1571 0.09676 0.0
C896 C 0.34737 0.17062 0.12408 0.0
C897 C 0.34749 0.14614 0.14487 0.0
C898 C 0.32799 0.10413 0.06167 0.0
C899 C 0.35334 0.21051 0.13144 0.0
C900 C 0.36433 0.2285 0.03791 0.0
C901 C 0.3273 0.22379 0.03219 0.0
C902 C 0.36933 0.20747 0.05919 0.0
C903 C 0.33646 0.18092 0.07489 0.0
C904 C 0.29909 0.17626 0.06931 0.0
C905 C 0.29501 0.19787 0.04812 0.0
C906 C 0.40967 0.21342 0.06475 0.0
C907 C 0.26326 0.148 0.08546 0.0
H908 H 0.33138 0.06704 0.10688 0.0
H909 H 0.35182 0.15621 0.16585 0.0
H910 H 0.29981 0.10075 0.05429 0.0
H911 H 0.35139 0.12522 0.04785 0.0
H912 H 0.32659 0.0753 0.06005 0.0
H913 H 0.36114 0.21784 0.15329 0.0
H914 H 0.3769 0.2335 0.11867 0.0
H915 H 0.32608 0.21137 0.12725 0.0
H916 H 0.38944 0.2486 0.02576 0.0
H917 H 0.26627 0.19398 0.04382 0.0
H918 H 0.40959 0.18546 0.06161 0.0
H919 H 0.4179 0.22218 0.08634 0.0
H920 H 0.43243 0.23617 0.05133 0.0
H921 H 0.25826 0.11777 0.08329 0.0
H922 H 0.23639 0.14816 0.07873 0.0
H923 H 0.26791 0.15554 0.10748 0.0
loop_
_geom_bond_atom_site_label_1
_geom_bond_atom_site_label_2
_geom_bond_distance
_geom_bond_site_symmetry_2
_ccdc_geom_bond_type
C0 O1 1.160 . S
C0 O7 1.185 . S
O1 C0 1.160 . S
O2 Zn3 1.899 . S
O2 C10 1.284 1_455 S
Zn3 O2 1.899 . S
Zn3 O4 2.032 . S
Zn3 O7 2.086 . S
Zn3 O12 1.977 . S
O4 Zn3 2.032 . S
O4 C8 1.278 . S
C5 O6 1.203 . S
C5 O12 1.267 . S
O6 C5 1.203 . S
O7 C0 1.185 . S
O7 Zn3 2.086 . S
C8 O4 1.278 . S
C8 O9 1.211 . S
O9 C8 1.211 . S
C10 O2 1.284 1_655 S
C10 O11 1.273 1_655 S
O11 C10 1.273 1_455 S
O12 Zn3 1.977 . S
O12 C5 1.267 . S
C13 O14 1.160 . S
C13 O20 1.185 . S
O14 C13 1.160 . S
O15 Zn16 1.899 . S
O15 C23 1.284 1_545 S
Zn16 O15 1.899 . S
Zn16 O17 2.032 . S
Zn16 O20 2.086 . S
Zn16 O25 1.977 . S
O17 Zn16 2.032 . S
O17 C21 1.278 . S
C18 O19 1.203 . S
C18 O25 1.267 . S
O19 C18 1.203 . S
O20 C13 1.185 . S
O20 Zn16 2.086 . S
C21 O17 1.278 . S
C21 O22 1.211 . S
O22 C21 1.211 . S
C23 O15 1.284 1_565 S
C23 O24 1.273 1_565 S
O24 C23 1.273 1_545 S
O25 Zn16 1.977 . S
O25 C18 1.267 . S
C26 O27 1.160 . S
C26 O33 1.185 . S
O27 C26 1.160 . S
O28 Zn29 1.899 . S
O28 C36 1.284 . S
Zn29 O28 1.899 . S
Zn29 O30 2.032 . S
Zn29 O33 2.086 . S
Zn29 O38 1.977 . S
O30 Zn29 2.032 . S
O30 C34 1.278 . S
C31 O32 1.203 . S
C31 O38 1.267 . S
O32 C31 1.203 . S
O33 C26 1.185 . S
O33 Zn29 2.086 . S
C34 O30 1.278 . S
C34 O35 1.211 . S
O35 C34 1.211 . S
C36 O28 1.284 . S
C36 O37 1.273 . S
O37 C36 1.273 . S
O38 Zn29 1.977 . S
O38 C31 1.267 . S
C39 O40 1.160 . S
C39 O46 1.185 . S
O40 C39 1.160 . S
O41 Zn42 1.899 . S
O41 C49 1.284 1_655 S
Zn42 O41 1.899 . S
Zn42 O43 2.032 . S
Zn42 O46 2.086 . S
Zn42 O51 1.977 . S
O43 Zn42 2.032 . S
O43 C47 1.278 . S
C44 O45 1.203 . S
C44 O51 1.267 . S
O45 C44 1.203 . S
O46 C39 1.185 . S
O46 Zn42 2.086 . S
C47 O43 1.278 . S
C47 O48 1.211 . S
O48 C47 1.211 . S
C49 O41 1.284 1_455 S
C49 O50 1.273 1_455 S
O50 C49 1.273 1_655 S
O51 Zn42 1.977 . S
O51 C44 1.267 . S
C52 O53 1.160 . S
C52 O59 1.185 . S
O53 C52 1.160 . S
O54 Zn55 1.899 . S
O54 C62 1.284 1_565 S
Zn55 O54 1.899 . S
Zn55 O56 2.032 . S
Zn55 O59 2.086 . S
Zn55 O64 1.977 . S
O56 Zn55 2.032 . S
O56 C60 1.278 . S
C57 O58 1.203 . S
C57 O64 1.267 . S
O58 C57 1.203 . S
O59 C52 1.185 . S
O59 Zn55 2.086 . S
C60 O56 1.278 . S
C60 O61 1.211 . S
O61 C60 1.211 . S
C62 O54 1.284 1_545 S
C62 O63 1.273 1_545 S
O63 C62 1.273 1_565 S
O64 Zn55 1.977 . S
O64 C57 1.267 . S
C65 O66 1.160 . S
C65 O72 1.185 . S
O66 C65 1.160 . S
O67 Zn68 1.899 . S
O67 C75 1.284 . S
Zn68 O67 1.899 . S
Zn68 O69 2.032 . S
Zn68 O72 2.086 . S
Zn68 O77 1.977 . S
O69 Zn68 2.032 . S
O69 C73 1.278 . S
C70 O71 1.203 . S
C70 O77 1.267 1_554 S
O71 C70 1.203 . S
O72 C65 1.185 . S
O72 Zn68 2.086 . S
C73 O69 1.278 . S
C73 O74 1.211 . S
O74 C73 1.211 . S
C75 O67 1.284 . S
C75 O76 1.273 . S
O76 C75 1.273 . S
O77 Zn68 1.977 . S
O77 C70 1.267 1_556 S
C78 O79 1.160 . S
C78 O85 1.185 . S
O79 C78 1.160 . S
O80 Zn81 1.899 . S
O80 C88 1.284 1_565 S
Zn81 O80 1.899 . S
Zn81 O82 2.032 . S
Zn81 O85 2.086 . S
Zn81 O90 1.977 . S
O82 Zn81 2.032 . S
O82 C86 1.278 . S
C83 O84 1.203 . S
C83 O90 1.267 . S
O84 C83 1.203 . S
O85 C78 1.185 . S
O85 Zn81 2.086 . S
C86 O82 1.278 . S
C86 O87 1.211 . S
O87 C86 1.211 . S
C88 O80 1.284 1_545 S
C88 O89 1.273 1_545 S
O89 C88 1.273 1_565 S
O90 Zn81 1.977 . S
O90 C83 1.267 . S
C91 O92 1.160 . S
C91 O98 1.185 . S
O92 C91 1.160 . S
O93 Zn94 1.899 . S
O93 C101 1.284 . S
Zn94 O93 1.899 . S
Zn94 O95 2.032 . S
Zn94 O98 2.086 . S
Zn94 O103 1.977 . S
O95 Zn94 2.032 . S
O95 C99 1.278 . S
C96 O97 1.203 . S
C96 O103 1.267 . S
O97 C96 1.203 . S
O98 C91 1.185 . S
O98 Zn94 2.086 . S
C99 O95 1.278 . S
C99 O100 1.211 . S
O100 C99 1.211 . S
C101 O93 1.284 . S
C101 O102 1.273 . S
O102 C101 1.273 . S
O103 Zn94 1.977 . S
O103 C96 1.267 . S
C104 O105 1.160 . S
C104 O111 1.185 . S
O105 C104 1.160 . S
O106 Zn107 1.899 . S
O106 C114 1.284 1_455 S
Zn107 O106 1.899 . S
Zn107 O108 2.032 . S
Zn107 O111 2.086 . S
Zn107 O116 1.977 . S
O108 Zn107 2.032 . S
O108 C112 1.278 . S
C109 O110 1.203 . S
C109 O116 1.267 1_556 S
O110 C109 1.203 . S
O111 C104 1.185 . S
O111 Zn107 2.086 . S
C112 O108 1.278 . S
C112 O113 1.211 . S
O113 C112 1.211 . S
C114 O106 1.284 1_655 S
C114 O115 1.273 1_655 S
O115 C114 1.273 1_455 S
O116 Zn107 1.977 . S
O116 C109 1.267 1_554 S
C117 O118 1.160 . S
C117 O124 1.185 . S
O118 C117 1.160 . S
O119 Zn120 1.899 . S
O119 C127 1.284 1_545 S
Zn120 O119 1.899 . S
Zn120 O121 2.032 . S
Zn120 O124 2.086 . S
Zn120 O129 1.977 . S
O121 Zn120 2.032 . S
O121 C125 1.278 . S
C122 O123 1.203 . S
C122 O129 1.267 . S
O123 C122 1.203 . S
O124 C117 1.185 . S
O124 Zn120 2.086 . S
C125 O121 1.278 . S
C125 O126 1.211 . S
O126 C125 1.211 . S
C127 O119 1.284 1_565 S
C127 O128 1.273 1_565 S
O128 C127 1.273 1_545 S
O129 Zn120 1.977 . S
O129 C122 1.267 . S
C130 O131 1.160 . S
C130 O137 1.185 . S
O131 C130 1.160 . S
O132 Zn133 1.899 . S
O132 C140 1.284 . S
Zn133 O132 1.899 . S
Zn133 O134 2.032 . S
Zn133 O137 2.086 . S
Zn133 O142 1.977 . S
O134 Zn133 2.032 . S
O134 C138 1.278 . S
C135 O136 1.203 . S
C135 O142 1.267 . S
O136 C135 1.203 . S
O137 C130 1.185 . S
O137 Zn133 2.086 . S
C138 O134 1.278 . S
C138 O139 1.211 . S
O139 C138 1.211 . S
C140 O132 1.284 . S
C140 O141 1.273 . S
O141 C140 1.273 . S
O142 Zn133 1.977 . S
O142 C135 1.267 . S
C143 O144 1.160 . S
C143 O150 1.185 . S
O144 C143 1.160 . S
O145 Zn146 1.899 . S
O145 C153 1.284 1_655 S
Zn146 O145 1.899 . S
Zn146 O147 2.032 . S
Zn146 O150 2.086 . S
Zn146 O155 1.977 . S
O147 Zn146 2.032 . S
O147 C151 1.278 . S
C148 O149 1.203 . S
C148 O155 1.267 . S
O149 C148 1.203 . S
O150 C143 1.185 . S
O150 Zn146 2.086 . S
C151 O147 1.278 . S
C151 O152 1.211 . S
O152 C151 1.211 . S
C153 O145 1.284 1_455 S
C153 O154 1.273 1_455 S
O154 C153 1.273 1_655 S
O155 Zn146 1.977 . S
O155 C148 1.267 . S
C156 C157 1.391 . S
C156 C158 1.394 . S
C156 H172 0.931 . S
C157 C156 1.391 . S
C157 C161 1.376 . S
C158 C156 1.394 . S
C158 C159 1.369 . S
C158 C162 1.531 . S
C159 C158 1.369 . S
C159 C160 1.410 . S
C159 C167 1.503 . S
C160 C159 1.410 . S
C160 C161 1.392 . S
C160 C163 1.511 1_455 S
C161 C157 1.376 . S
C161 C160 1.392 . S
C161 H173 0.929 1_455 S
C162 C158 1.531 . S
C162 H174 0.960 . S
C162 H175 0.962 . S
C162 H176 0.960 . S
C163 C160 1.511 1_655 S
C163 H177 0.961 . S
C163 H178 0.961 . S
C163 H179 0.961 . S
C164 C165 1.370 . S
C164 C166 1.363 . S
C164 H180 0.931 . S
C165 C164 1.370 . S
C165 C169 1.408 . S
C166 C164 1.363 . S
C166 C167 1.370 . S
C166 C170 1.524 . S
C167 C159 1.503 . S
C167 C166 1.370 . S
C167 C168 1.403 . S
C168 C167 1.403 . S
C168 C169 1.404 . S
C168 C171 1.539 . S
C169 C165 1.408 . S
C169 C168 1.404 . S
C169 H181 0.930 . S
C170 C166 1.524 . S
C170 H182 0.956 . S
C170 H183 0.961 . S
C170 H184 0.961 . S
C171 C168 1.539 . S
C171 H185 0.958 . S
C171 H186 0.961 . S
C171 H187 0.960 . S
H172 C156 0.931 . S
H173 C161 0.929 1_655 S
H174 C162 0.960 . S
H175 C162 0.962 . S
H176 C162 0.960 . S
H177 C163 0.961 . S
H178 C163 0.961 . S
H179 C163 0.961 . S
H180 C164 0.931 . S
H181 C169 0.930 . S
H182 C170 0.956 . S
H183 C170 0.961 . S
H184 C170 0.961 . S
H185 C171 0.958 . S
H186 C171 0.961 . S
H187 C171 0.960 . S
C188 C189 1.391 . S
C188 C190 1.394 . S
C188 H204 0.931 . S
C189 C188 1.391 . S
C189 C193 1.376 . S
C190 C188 1.394 . S
C190 C191 1.369 . S
C190 C194 1.531 . S
C191 C190 1.369 . S
C191 C192 1.410 . S
C191 C199 1.503 . S
C192 C191 1.410 . S
C192 C193 1.392 . S
C192 C195 1.511 1_545 S
C193 C189 1.376 . S
C193 C192 1.392 . S
C193 H205 0.929 . S
C194 C190 1.531 . S
C194 H206 0.960 . S
C194 H207 0.962 . S
C194 H208 0.960 . S
C195 C192 1.511 1_565 S
C195 H209 0.961 . S
C195 H210 0.961 . S
C195 H211 0.961 . S
C196 C197 1.370 . S
C196 C198 1.363 . S
C196 H212 0.931 . S
C197 C196 1.370 . S
C197 C201 1.408 . S
C198 C196 1.363 . S
C198 C199 1.370 . S
C198 C202 1.524 . S
C199 C191 1.503 . S
C199 C198 1.370 . S
C199 C200 1.403 . S
C200 C199 1.403 . S
C200 C201 1.404 . S
C200 C203 1.539 . S
C201 C197 1.408 . S
C201 C200 1.404 . S
C201 H213 0.930 . S
C202 C198 1.524 . S
C202 H214 0.956 . S
C202 H215 0.961 . S
C202 H216 0.961 . S
C203 C200 1.539 . S
C203 H217 0.958 . S
C203 H218 0.961 . S
C203 H219 0.960 . S
H204 C188 0.931 . S
H205 C193 0.929 . S
H206 C194 0.960 . S
H207 C194 0.962 . S
H208 C194 0.960 . S
H209 C195 0.961 . S
H210 C195 0.961 . S
H211 C195 0.961 . S
H212 C196 0.931 . S
H213 C201 0.930 . S
H214 C202 0.956 . S
H215 C202 0.961 . S
H216 C202 0.961 . S
H217 C203 0.958 . S
H218 C203 0.961 . S
H219 C203 0.960 . S
C220 C221 1.391 . S
C220 C222 1.394 . S
C220 H236 0.931 . S
C221 C220 1.391 . S
C221 C225 1.376 . S
C222 C220 1.394 . S
C222 C223 1.369 . S
C222 C226 1.531 . S
C223 C222 1.369 . S
C223 C224 1.410 . S
C223 C231 1.503 . S
C224 C223 1.410 . S
C224 C225 1.392 . S
C224 C227 1.511 . S
C225 C221 1.376 . S
C225 C224 1.392 . S
C225 H237 0.929 . S
C226 C222 1.531 . S
C226 H238 0.960 . S
C226 H239 0.962 . S
C226 H240 0.960 . S
C227 C224 1.511 . S
C227 H241 0.961 . S
C227 H242 0.961 . S
C227 H243 0.961 . S
C228 C229 1.370 . S
C228 C230 1.363 . S
C228 H244 0.931 . S
C229 C228 1.370 . S
C229 C233 1.408 . S
C230 C228 1.363 . S
C230 C231 1.370 . S
C230 C234 1.524 . S
C231 C223 1.503 . S
C231 C230 1.370 . S
C231 C232 1.403 . S
C232 C231 1.403 . S
C232 C233 1.404 . S
C232 C235 1.539 . S
C233 C229 1.408 . S
C233 C232 1.404 . S
C233 H245 0.930 . S
C234 C230 1.524 . S
C234 H246 0.956 . S
C234 H247 0.961 . S
C234 H248 0.961 . S
C235 C232 1.539 . S
C235 H249 0.958 . S
C235 H250 0.961 . S
C235 H251 0.960 . S
H236 C220 0.931 . S
H237 C225 0.929 . S
H238 C226 0.960 . S
H239 C226 0.962 . S
H240 C226 0.960 . S
H241 C227 0.961 . S
H242 C227 0.961 . S
H243 C227 0.961 . S
H244 C228 0.931 . S
H245 C233 0.930 . S
H246 C234 0.956 . S
H247 C234 0.961 . S
H248 C234 0.961 . S
H249 C235 0.958 . S
H250 C235 0.961 . S
H251 C235 0.960 . S
C252 C253 1.391 . S
C252 C254 1.394 . S
C252 H268 0.931 . S
C253 C252 1.391 . S
C253 C257 1.376 . S
C254 C252 1.394 . S
C254 C255 1.369 . S
C254 C258 1.531 . S
C255 C254 1.369 . S
C255 C256 1.410 . S
C255 C263 1.503 . S
C256 C255 1.410 . S
C256 C257 1.392 . S
C256 C259 1.511 1_655 S
C257 C253 1.376 . S
C257 C256 1.392 . S
C257 H269 0.929 1_655 S
C258 C254 1.531 . S
C258 H270 0.960 . S
C258 H271 0.962 . S
C258 H272 0.960 . S
C259 C256 1.511 1_455 S
C259 H273 0.961 . S
C259 H274 0.961 . S
C259 H275 0.961 . S
C260 C261 1.370 . S
C260 C262 1.363 . S
C260 H276 0.931 . S
C261 C260 1.370 . S
C261 C265 1.408 . S
C262 C260 1.363 . S
C262 C263 1.370 . S
C262 C266 1.524 . S
C263 C255 1.503 . S
C263 C262 1.370 . S
C263 C264 1.403 . S
C264 C263 1.403 . S
C264 C265 1.404 . S
C264 C267 1.539 . S
C265 C261 1.408 . S
C265 C264 1.404 . S
C265 H277 0.930 . S
C266 C262 1.524 . S
C266 H278 0.956 . S
C266 H279 0.961 . S
C266 H280 0.961 . S
C267 C264 1.539 . S
C267 H281 0.958 . S
C267 H282 0.961 . S
C267 H283 0.960 . S
H268 C252 0.931 . S
H269 C257 0.929 1_455 S
H270 C258 0.960 . S
H271 C258 0.962 . S
H272 C258 0.960 . S
H273 C259 0.961 . S
H274 C259 0.961 . S
H275 C259 0.961 . S
H276 C260 0.931 . S
H277 C265 0.930 . S
H278 C266 0.956 . S
H279 C266 0.961 . S
H280 C266 0.961 . S
H281 C267 0.958 . S
H282 C267 0.961 . S
H283 C267 0.960 . S
C284 C285 1.391 . S
C284 C286 1.394 . S
C284 H300 0.931 . S
C285 C284 1.391 . S
C285 C289 1.376 . S
C286 C284 1.394 . S
C286 C287 1.369 . S
C286 C290 1.531 . S
C287 C286 1.369 . S
C287 C288 1.410 . S
C287 C295 1.503 . S
C288 C287 1.410 . S
C288 C289 1.392 . S
C288 C291 1.511 . S
C289 C285 1.376 . S
C289 C288 1.392 . S
C289 H301 0.929 . S
C290 C286 1.531 . S
C290 H302 0.960 . S
C290 H303 0.962 . S
C290 H304 0.960 . S
C291 C288 1.511 . S
C291 H305 0.961 . S
C291 H306 0.961 . S
C291 H307 0.961 . S
C292 C293 1.370 . S
C292 C294 1.363 . S
C292 H308 0.931 . S
C293 C292 1.370 . S
C293 C297 1.408 . S
C294 C292 1.363 . S
C294 C295 1.370 . S
C294 C298 1.524 . S
C295 C287 1.503 . S
C295 C294 1.370 . S
C295 C296 1.403 . S
C296 C295 1.403 . S
C296 C297 1.404 . S
C296 C299 1.539 1_565 S
C297 C293 1.408 . S
C297 C296 1.404 . S
C297 H309 0.930 1_565 S
C298 C294 1.524 . S
C298 H310 0.956 . S
C298 H311 0.961 . S
C298 H312 0.961 . S
C299 C296 1.539 1_545 S
C299 H313 0.958 . S
C299 H314 0.961 . S
C299 H315 0.960 . S
H300 C284 0.931 . S
H301 C289 0.929 . S
H302 C290 0.960 . S
H303 C290 0.962 . S
H304 C290 0.960 . S
H305 C291 0.961 . S
H306 C291 0.961 . S
H307 C291 0.961 . S
H308 C292 0.931 . S
H309 C297 0.930 1_545 S
H310 C298 0.956 . S
H311 C298 0.961 . S
H312 C298 0.961 . S
H313 C299 0.958 . S
H314 C299 0.961 . S
H315 C299 0.960 . S
C316 C317 1.391 . S
C316 C318 1.394 . S
C316 H332 0.931 . S
C317 C316 1.391 . S
C317 C321 1.376 . S
C318 C316 1.394 . S
C318 C319 1.369 . S
C318 C322 1.531 . S
C319 C318 1.369 . S
C319 C320 1.410 . S
C319 C327 1.503 . S
C320 C319 1.410 . S
C320 C321 1.392 . S
C320 C323 1.511 . S
C321 C317 1.376 . S
C321 C320 1.392 . S
C321 H333 0.929 . S
C322 C318 1.531 . S
C322 H334 0.960 . S
C322 H335 0.962 . S
C322 H336 0.960 . S
C323 C320 1.511 . S
C323 H337 0.961 . S
C323 H338 0.961 . S
C323 H339 0.961 . S
C324 C325 1.370 . S
C324 C326 1.363 . S
C324 H340 0.931 . S
C325 C324 1.370 . S
C325 C329 1.408 . S
C326 C324 1.363 . S
C326 C327 1.370 . S
C326 C330 1.524 . S
C327 C319 1.503 . S
C327 C326 1.370 . S
C327 C328 1.403 . S
C328 C327 1.403 . S
C328 C329 1.404 . S
C328 C331 1.539 . S
C329 C325 1.408 . S
C329 C328 1.404 . S
C329 H341 0.930 . S
C330 C326 1.524 . S
C330 H342 0.956 . S
C330 H343 0.961 . S
C330 H344 0.961 . S
C331 C328 1.539 . S
C331 H345 0.958 . S
C331 H346 0.961 . S
C331 H347 0.960 . S
H332 C316 0.931 . S
H333 C321 0.929 . S
H334 C322 0.960 . S
H335 C322 0.962 . S
H336 C322 0.960 . S
H337 C323 0.961 . S
H338 C323 0.961 . S
H339 C323 0.961 . S
H340 C324 0.931 . S
H341 C329 0.930 . S
H342 C330 0.956 . S
H343 C330 0.961 . S
H344 C330 0.961 . S
H345 C331 0.958 . S
H346 C331 0.961 . S
H347 C331 0.960 . S
C348 C349 1.391 . S
C348 C350 1.394 . S
C348 H364 0.931 . S
C349 C348 1.391 . S
C349 C353 1.376 . S
C350 C348 1.394 . S
C350 C351 1.369 . S
C350 C354 1.531 1_554 S
C351 C350 1.369 . S
C351 C352 1.410 . S
C351 C359 1.503 . S
C352 C351 1.410 . S
C352 C353 1.392 . S
C352 C355 1.511 . S
C353 C349 1.376 . S
C353 C352 1.392 . S
C353 H365 0.929 . S
C354 C350 1.531 1_556 S
C354 H366 0.960 . S
C354 H367 0.962 . S
C354 H368 0.960 . S
C355 C352 1.511 . S
C355 H369 0.961 . S
C355 H370 0.961 . S
C355 H371 0.961 . S
C356 C357 1.370 . S
C356 C358 1.363 . S
C356 H372 0.931 . S
C357 C356 1.370 . S
C357 C361 1.408 . S
C358 C356 1.363 . S
C358 C359 1.370 1_556 S
C358 C362 1.524 . S
C359 C351 1.503 . S
C359 C358 1.370 1_554 S
C359 C360 1.403 . S
C360 C359 1.403 . S
C360 C361 1.404 1_554 S
C360 C363 1.539 . S
C361 C357 1.408 . S
C361 C360 1.404 1_556 S
C361 H373 0.930 . S
C362 C358 1.524 . S
C362 H374 0.956 . S
C362 H375 0.961 1_556 S
C362 H376 0.961 . S
C363 C360 1.539 . S
C363 H377 0.958 . S
C363 H378 0.961 . S
C363 H379 0.960 . S
H364 C348 0.931 . S
H365 C353 0.929 . S
H366 C354 0.960 . S
H367 C354 0.962 . S
H368 C354 0.960 . S
H369 C355 0.961 . S
H370 C355 0.961 . S
H371 C355 0.961 . S
H372 C356 0.931 . S
H373 C361 0.930 . S
H374 C362 0.956 . S
H375 C362 0.961 1_554 S
H376 C362 0.961 . S
H377 C363 0.958 . S
H378 C363 0.961 . S
H379 C363 0.960 . S
C380 C381 1.391 . S
C380 C382 1.394 . S
C380 H396 0.931 . S
C381 C380 1.391 . S
C381 C385 1.376 . S
C382 C380 1.394 . S
C382 C383 1.369 . S
C382 C386 1.531 . S
C383 C382 1.369 . S
C383 C384 1.410 . S
C383 C391 1.503 . S
C384 C383 1.410 . S
C384 C385 1.392 . S
C384 C387 1.511 . S
C385 C381 1.376 . S
C385 C384 1.392 . S
C385 H397 0.929 . S
C386 C382 1.531 . S
C386 H398 0.960 . S
C386 H399 0.962 . S
C386 H400 0.960 . S
C387 C384 1.511 . S
C387 H401 0.961 . S
C387 H402 0.961 . S
C387 H403 0.961 . S
C388 C389 1.370 . S
C388 C390 1.363 . S
C388 H404 0.931 . S
C389 C388 1.370 . S
C389 C393 1.408 . S
C390 C388 1.363 . S
C390 C391 1.370 . S
C390 C394 1.524 . S
C391 C383 1.503 . S
C391 C390 1.370 . S
C391 C392 1.403 . S
C392 C391 1.403 . S
C392 C393 1.404 . S
C392 C395 1.539 . S
C393 C389 1.408 . S
C393 C392 1.404 . S
C393 H405 0.930 . S
C394 C390 1.524 . S
C394 H406 0.956 . S
C394 H407 0.961 . S
C394 H408 0.961 . S
C395 C392 1.539 . S
C395 H409 0.958 . S
C395 H410 0.961 . S
C395 H411 0.960 . S
H396 C380 0.931 . S
H397 C385 0.929 . S
H398 C386 0.960 . S
H399 C386 0.962 . S
H400 C386 0.960 . S
H401 C387 0.961 . S
H402 C387 0.961 . S
H403 C387 0.961 . S
H404 C388 0.931 . S
H405 C393 0.930 . S
H406 C394 0.956 . S
H407 C394 0.961 . S
H408 C394 0.961 . S
H409 C395 0.958 . S
H410 C395 0.961 . S
H411 C395 0.960 . S
C412 C413 1.391 . S
C412 C414 1.394 . S
C412 H428 0.931 . S
C413 C412 1.391 . S
C413 C417 1.376 . S
C414 C412 1.394 . S
C414 C415 1.369 . S
C414 C418 1.531 . S
C415 C414 1.369 . S
C415 C416 1.410 . S
C415 C423 1.503 . S
C416 C415 1.410 . S
C416 C417 1.392 . S
C416 C419 1.511 . S
C417 C413 1.376 . S
C417 C416 1.392 . S
C417 H429 0.929 . S
C418 C414 1.531 . S
C418 H430 0.960 . S
C418 H431 0.962 . S
C418 H432 0.960 . S
C419 C416 1.511 . S
C419 H433 0.961 . S
C419 H434 0.961 . S
C419 H435 0.961 . S
C420 C421 1.370 . S
C420 C422 1.363 . S
C420 H436 0.931 . S
C421 C420 1.370 . S
C421 C425 1.408 . S
C422 C420 1.363 . S
C422 C423 1.370 . S
C422 C426 1.524 . S
C423 C415 1.503 . S
C423 C422 1.370 . S
C423 C424 1.403 . S
C424 C423 1.403 . S
C424 C425 1.404 . S
C424 C427 1.539 . S
C425 C421 1.408 . S
C425 C424 1.404 . S
C425 H437 0.930 . S
C426 C422 1.524 . S
C426 H438 0.956 . S
C426 H439 0.961 . S
C426 H440 0.961 . S
C427 C424 1.539 . S
C427 H441 0.958 . S
C427 H442 0.961 . S
C427 H443 0.960 . S
H428 C412 0.931 . S
H429 C417 0.929 . S
H430 C418 0.960 . S
H431 C418 0.962 . S
H432 C418 0.960 . S
H433 C419 0.961 . S
H434 C419 0.961 . S
H435 C419 0.961 . S
H436 C420 0.931 . S
H437 C425 0.930 . S
H438 C426 0.956 . S
H439 C426 0.961 . S
H440 C426 0.961 . S
H441 C427 0.958 . S
H442 C427 0.961 . S
H443 C427 0.960 . S
C444 C445 1.391 . S
C444 C446 1.394 . S
C444 H460 0.931 . S
C445 C444 1.391 . S
C445 C449 1.376 . S
C446 C444 1.394 . S
C446 C447 1.369 . S
C446 C450 1.531 . S
C447 C446 1.369 . S
C447 C448 1.410 . S
C447 C455 1.503 . S
C448 C447 1.410 . S
C448 C449 1.392 . S
C448 C451 1.511 . S
C449 C445 1.376 . S
C449 C448 1.392 . S
C449 H461 0.929 . S
C450 C446 1.531 . S
C450 H462 0.960 . S
C450 H463 0.962 . S
C450 H464 0.960 . S
C451 C448 1.511 . S
C451 H465 0.961 . S
C451 H466 0.961 . S
C451 H467 0.961 . S
C452 C453 1.370 . S
C452 C454 1.363 . S
C452 H468 0.931 . S
C453 C452 1.370 . S
C453 C457 1.408 . S
C454 C452 1.363 . S
C454 C455 1.370 . S
C454 C458 1.524 . S
C455 C447 1.503 . S
C455 C454 1.370 . S
C455 C456 1.403 . S
C456 C455 1.403 . S
C456 C457 1.404 . S
C456 C459 1.539 . S
C457 C453 1.408 . S
C457 C456 1.404 . S
C457 H469 0.930 . S
C458 C454 1.524 . S
C458 H470 0.956 . S
C458 H471 0.961 . S
C458 H472 0.961 . S
C459 C456 1.539 . S
C459 H473 0.958 . S
C459 H474 0.961 . S
C459 H475 0.960 . S
H460 C444 0.931 . S
H461 C449 0.929 . S
H462 C450 0.960 . S
H463 C450 0.962 . S
H464 C450 0.960 . S
H465 C451 0.961 . S
H466 C451 0.961 . S
H467 C451 0.961 . S
H468 C452 0.931 . S
H469 C457 0.930 . S
H470 C458 0.956 . S
H471 C458 0.961 . S
H472 C458 0.961 . S
H473 C459 0.958 . S
H474 C459 0.961 . S
H475 C459 0.960 . S
C476 C477 1.391 . S
C476 C478 1.394 . S
C476 H492 0.931 . S
C477 C476 1.391 . S
C477 C481 1.376 . S
C478 C476 1.394 . S
C478 C479 1.369 . S
C478 C482 1.531 . S
C479 C478 1.369 . S
C479 C480 1.410 . S
C479 C487 1.503 . S
C480 C479 1.410 . S
C480 C481 1.392 . S
C480 C483 1.511 . S
C481 C477 1.376 . S
C481 C480 1.392 . S
C481 H493 0.929 . S
C482 C478 1.531 . S
C482 H494 0.960 . S
C482 H495 0.962 . S
C482 H496 0.960 . S
C483 C480 1.511 . S
C483 H497 0.961 . S
C483 H498 0.961 . S
C483 H499 0.961 . S
C484 C485 1.370 . S
C484 C486 1.363 . S
C484 H500 0.931 . S
C485 C484 1.370 . S
C485 C489 1.408 . S
C486 C484 1.363 . S
C486 C487 1.370 . S
C486 C490 1.524 . S
C487 C479 1.503 . S
C487 C486 1.370 . S
C487 C488 1.403 . S
C488 C487 1.403 . S
C488 C489 1.404 . S
C488 C491 1.539 . S
C489 C485 1.408 . S
C489 C488 1.404 . S
C489 H501 0.930 . S
C490 C486 1.524 . S
C490 H502 0.956 . S
C490 H503 0.961 . S
C490 H504 0.961 . S
C491 C488 1.539 . S
C491 H505 0.958 . S
C491 H506 0.961 . S
C491 H507 0.960 . S
H492 C476 0.931 . S
H493 C481 0.929 . S
H494 C482 0.960 . S
H495 C482 0.962 . S
H496 C482 0.960 . S
H497 C483 0.961 . S
H498 C483 0.961 . S
H499 C483 0.961 . S
H500 C484 0.931 . S
H501 C489 0.930 . S
H502 C490 0.956 . S
H503 C490 0.961 . S
H504 C490 0.961 . S
H505 C491 0.958 . S
H506 C491 0.961 . S
H507 C491 0.960 . S
C508 C509 1.391 . S
C508 C510 1.394 . S
C508 H524 0.931 . S
C509 C508 1.391 . S
C509 C513 1.376 . S
C510 C508 1.394 . S
C510 C511 1.369 . S
C510 C514 1.531 . S
C511 C510 1.369 . S
C511 C512 1.410 . S
C511 C519 1.503 . S
C512 C511 1.410 . S
C512 C513 1.392 . S
C512 C515 1.511 . S
C513 C509 1.376 . S
C513 C512 1.392 . S
C513 H525 0.929 . S
C514 C510 1.531 . S
C514 H526 0.960 . S
C514 H527 0.962 . S
C514 H528 0.960 . S
C515 C512 1.511 . S
C515 H529 0.961 . S
C515 H530 0.961 . S
C515 H531 0.961 . S
C516 C517 1.370 . S
C516 C518 1.363 . S
C516 H532 0.931 . S
C517 C516 1.370 . S
C517 C521 1.408 . S
C518 C516 1.363 . S
C518 C519 1.370 . S
C518 C522 1.524 . S
C519 C511 1.503 . S
C519 C518 1.370 . S
C519 C520 1.403 . S
C520 C519 1.403 . S
C520 C521 1.404 . S
C520 C523 1.539 . S
C521 C517 1.408 . S
C521 C520 1.404 . S
C521 H533 0.930 . S
C522 C518 1.524 . S
C522 H534 0.956 . S
C522 H535 0.961 . S
C522 H536 0.961 . S
C523 C520 1.539 . S
C523 H537 0.958 . S
C523 H538 0.961 . S
C523 H539 0.960 . S
H524 C508 0.931 . S
H525 C513 0.929 . S
H526 C514 0.960 . S
H527 C514 0.962 . S
H528 C514 0.960 . S
H529 C515 0.961 . S
H530 C515 0.961 . S
H531 C515 0.961 . S
H532 C516 0.931 . S
H533 C521 0.930 . S
H534 C522 0.956 . S
H535 C522 0.961 . S
H536 C522 0.961 . S
H537 C523 0.958 . S
H538 C523 0.961 . S
H539 C523 0.960 . S
C540 C541 1.391 . S
C540 C542 1.394 . S
C540 H556 0.931 . S
C541 C540 1.391 . S
C541 C545 1.376 . S
C542 C540 1.394 . S
C542 C543 1.369 . S
C542 C546 1.531 . S
C543 C542 1.369 . S
C543 C544 1.410 . S
C543 C551 1.503 . S
C544 C543 1.410 . S
C544 C545 1.392 . S
C544 C547 1.511 . S
C545 C541 1.376 . S
C545 C544 1.392 . S
C545 H557 0.929 . S
C546 C542 1.531 . S
C546 H558 0.960 . S
C546 H559 0.962 . S
C546 H560 0.960 . S
C547 C544 1.511 . S
C547 H561 0.961 . S
C547 H562 0.961 . S
C547 H563 0.961 . S
C548 C549 1.370 . S
C548 C550 1.363 . S
C548 H564 0.931 . S
C549 C548 1.370 . S
C549 C553 1.408 . S
C550 C548 1.363 . S
C550 C551 1.370 . S
C550 C554 1.524 . S
C551 C543 1.503 . S
C551 C550 1.370 . S
C551 C552 1.403 . S
C552 C551 1.403 . S
C552 C553 1.404 . S
C552 C555 1.539 . S
C553 C549 1.408 . S
C553 C552 1.404 . S
C553 H565 0.930 . S
C554 C550 1.524 . S
C554 H566 0.956 . S
C554 H567 0.961 . S
C554 H568 0.961 . S
C555 C552 1.539 . S
C555 H569 0.958 . S
C555 H570 0.961 . S
C555 H571 0.960 . S
H556 C540 0.931 . S
H557 C545 0.929 . S
H558 C546 0.960 . S
H559 C546 0.962 . S
H560 C546 0.960 . S
H561 C547 0.961 . S
H562 C547 0.961 . S
H563 C547 0.961 . S
H564 C548 0.931 . S
H565 C553 0.930 . S
H566 C554 0.956 . S
H567 C554 0.961 . S
H568 C554 0.961 . S
H569 C555 0.958 . S
H570 C555 0.961 . S
H571 C555 0.960 . S
C572 C573 1.391 . S
C572 C574 1.394 . S
C572 H588 0.931 . S
C573 C572 1.391 . S
C573 C577 1.376 . S
C574 C572 1.394 . S
C574 C575 1.369 . S
C574 C578 1.531 . S
C575 C574 1.369 . S
C575 C576 1.410 . S
C575 C583 1.503 . S
C576 C575 1.410 . S
C576 C577 1.392 . S
C576 C579 1.511 1_556 S
C577 C573 1.376 . S
C577 C576 1.392 . S
C577 H589 0.929 . S
C578 C574 1.531 . S
C578 H590 0.960 . S
C578 H591 0.962 . S
C578 H592 0.960 . S
C579 C576 1.511 1_554 S
C579 H593 0.961 . S
C579 H594 0.961 . S
C579 H595 0.961 . S
C580 C581 1.370 . S
C580 C582 1.363 1_554 S
C580 H596 0.931 . S
C581 C580 1.370 . S
C581 C585 1.408 . S
C582 C580 1.363 1_556 S
C582 C583 1.370 . S
C582 C586 1.524 . S
C583 C575 1.503 . S
C583 C582 1.370 . S
C583 C584 1.403 1_556 S
C584 C583 1.403 1_554 S
C584 C585 1.404 . S
C584 C587 1.538 1_554 S
C585 C581 1.408 . S
C585 C584 1.404 . S
C585 H597 0.930 . S
C586 C582 1.524 . S
C586 H598 0.956 . S
C586 H599 0.961 . S
C586 H600 0.961 . S
C587 C584 1.538 1_556 S
C587 H601 0.975 . S
C587 H602 0.942 1_556 S
C587 H603 0.964 . S
H588 C572 0.931 . S
H589 C577 0.929 . S
H590 C578 0.960 . S
H591 C578 0.962 . S
H592 C578 0.960 . S
H593 C579 0.961 . S
H594 C579 0.961 . S
H595 C579 0.961 . S
H596 C580 0.931 . S
H597 C585 0.930 . S
H598 C586 0.956 . S
H599 C586 0.961 . S
H600 C586 0.961 . S
H601 C587 0.975 . S
H602 C587 0.942 1_554 S
H603 C587 0.964 . S
C604 C605 1.391 . S
C604 C606 1.394 . S
C604 H620 0.931 . S
C605 C604 1.391 . S
C605 C609 1.376 . S
C606 C604 1.394 . S
C606 C607 1.369 . S
C606 C610 1.531 . S
C607 C606 1.369 . S
C607 C608 1.410 . S
C607 C615 1.503 . S
C608 C607 1.410 . S
C608 C609 1.392 . S
C608 C611 1.511 . S
C609 C605 1.376 . S
C609 C608 1.392 . S
C609 H621 0.929 . S
C610 C606 1.531 . S
C610 H622 0.960 . S
C610 H623 0.962 . S
C610 H624 0.960 . S
C611 C608 1.511 . S
C611 H625 0.961 . S
C611 H626 0.961 . S
C611 H627 0.961 . S
C612 C613 1.370 . S
C612 C614 1.363 . S
C612 H628 0.931 . S
C613 C612 1.370 . S
C613 C617 1.408 . S
C614 C612 1.363 . S
C614 C615 1.370 . S
C614 C618 1.524 . S
C615 C607 1.503 . S
C615 C614 1.370 . S
C615 C616 1.403 . S
C616 C615 1.403 . S
C616 C617 1.404 . S
C616 C619 1.539 . S
C617 C613 1.408 . S
C617 C616 1.404 . S
C617 H629 0.930 . S
C618 C614 1.524 . S
C618 H630 0.956 . S
C618 H631 0.961 . S
C618 H632 0.961 . S
C619 C616 1.539 . S
C619 H633 0.958 . S
C619 H634 0.961 . S
C619 H635 0.960 . S
H620 C604 0.931 . S
H621 C609 0.929 . S
H622 C610 0.960 . S
H623 C610 0.962 . S
H624 C610 0.960 . S
H625 C611 0.961 . S
H626 C611 0.961 . S
H627 C611 0.961 . S
H628 C612 0.931 . S
H629 C617 0.930 . S
H630 C618 0.956 . S
H631 C618 0.961 . S
H632 C618 0.961 . S
H633 C619 0.958 . S
H634 C619 0.961 . S
H635 C619 0.960 . S
C636 C637 1.391 . S
C636 C638 1.394 . S
C636 H652 0.931 . S
C637 C636 1.391 . S
C637 C641 1.376 . S
C638 C636 1.394 . S
C638 C639 1.369 . S
C638 C642 1.531 . S
C639 C638 1.369 . S
C639 C640 1.410 . S
C639 C647 1.503 . S
C640 C639 1.410 . S
C640 C641 1.392 . S
C640 C643 1.511 . S
C641 C637 1.376 . S
C641 C640 1.392 . S
C641 H653 0.929 . S
C642 C638 1.531 . S
C642 H654 0.960 . S
C642 H655 0.962 . S
C642 H656 0.960 . S
C643 C640 1.511 . S
C643 H657 0.961 . S
C643 H658 0.961 . S
C643 H659 0.961 . S
C644 C645 1.370 . S
C644 C646 1.363 . S
C644 H660 0.931 . S
C645 C644 1.370 . S
C645 C649 1.408 . S
C646 C644 1.363 . S
C646 C647 1.370 . S
C646 C650 1.524 . S
C647 C639 1.503 . S
C647 C646 1.370 . S
C647 C648 1.403 . S
C648 C647 1.403 . S
C648 C649 1.404 . S
C648 C651 1.539 . S
C649 C645 1.408 . S
C649 C648 1.404 . S
C649 H661 0.930 . S
C650 C646 1.524 . S
C650 H662 0.956 . S
C650 H663 0.961 . S
C650 H664 0.961 . S
C651 C648 1.539 . S
C651 H665 0.958 . S
C651 H666 0.961 . S
C651 H667 0.960 . S
H652 C636 0.931 . S
H653 C641 0.929 . S
H654 C642 0.960 . S
H655 C642 0.962 . S
H656 C642 0.960 . S
H657 C643 0.961 . S
H658 C643 0.961 . S
H659 C643 0.961 . S
H660 C644 0.931 . S
H661 C649 0.930 . S
H662 C650 0.956 . S
H663 C650 0.961 . S
H664 C650 0.961 . S
H665 C651 0.958 . S
H666 C651 0.961 . S
H667 C651 0.960 . S
C668 C669 1.391 . S
C668 C670 1.394 . S
C668 H684 0.931 . S
C669 C668 1.391 . S
C669 C673 1.376 . S
C670 C668 1.394 . S
C670 C671 1.369 . S
C670 C674 1.531 . S
C671 C670 1.369 . S
C671 C672 1.410 . S
C671 C679 1.503 . S
C672 C671 1.410 . S
C672 C673 1.392 . S
C672 C675 1.511 . S
C673 C669 1.376 . S
C673 C672 1.392 . S
C673 H685 0.929 . S
C674 C670 1.531 . S
C674 H686 0.960 . S
C674 H687 0.962 . S
C674 H688 0.960 . S
C675 C672 1.511 . S
C675 H689 0.961 . S
C675 H690 0.961 . S
C675 H691 0.961 . S
C676 C677 1.370 . S
C676 C678 1.363 . S
C676 H692 0.931 . S
C677 C676 1.370 . S
C677 C681 1.408 . S
C678 C676 1.363 . S
C678 C679 1.370 . S
C678 C682 1.524 . S
C679 C671 1.503 . S
C679 C678 1.370 . S
C679 C680 1.403 . S
C680 C679 1.403 . S
C680 C681 1.404 . S
C680 C683 1.539 . S
C681 C677 1.408 . S
C681 C680 1.404 . S
C681 H693 0.930 . S
C682 C678 1.524 . S
C682 H694 0.956 . S
C682 H695 0.961 . S
C682 H696 0.961 . S
C683 C680 1.539 . S
C683 H697 0.958 . S
C683 H698 0.961 . S
C683 H699 0.960 . S
H684 C668 0.931 . S
H685 C673 0.929 . S
H686 C674 0.960 . S
H687 C674 0.962 . S
H688 C674 0.960 . S
H689 C675 0.961 . S
H690 C675 0.961 . S
H691 C675 0.961 . S
H692 C676 0.931 . S
H693 C681 0.930 . S
H694 C682 0.956 . S
H695 C682 0.961 . S
H696 C682 0.961 . S
H697 C683 0.958 . S
H698 C683 0.961 . S
H699 C683 0.960 . S
C700 C701 1.391 . S
C700 C702 1.394 . S
C700 H716 0.931 . S
C701 C700 1.391 . S
C701 C705 1.376 . S
C702 C700 1.394 . S
C702 C703 1.369 . S
C702 C706 1.531 . S
C703 C702 1.369 . S
C703 C704 1.410 . S
C703 C711 1.503 . S
C704 C703 1.410 . S
C704 C705 1.392 . S
C704 C707 1.511 . S
C705 C701 1.376 . S
C705 C704 1.392 . S
C705 H717 0.929 . S
C706 C702 1.531 . S
C706 H718 0.960 . S
C706 H719 0.962 . S
C706 H720 0.960 . S
C707 C704 1.511 . S
C707 H721 0.961 . S
C707 H722 0.961 . S
C707 H723 0.961 . S
C708 C709 1.370 . S
C708 C710 1.363 . S
C708 H724 0.931 . S
C709 C708 1.370 . S
C709 C713 1.408 . S
C710 C708 1.363 . S
C710 C711 1.370 . S
C710 C714 1.524 . S
C711 C703 1.503 . S
C711 C710 1.370 . S
C711 C712 1.403 . S
C712 C711 1.403 . S
C712 C713 1.404 . S
C712 C715 1.539 . S
C713 C709 1.408 . S
C713 C712 1.404 . S
C713 H725 0.930 . S
C714 C710 1.524 . S
C714 H726 0.956 . S
C714 H727 0.961 . S
C714 H728 0.961 . S
C715 C712 1.539 . S
C715 H729 0.958 . S
C715 H730 0.961 . S
C715 H731 0.960 . S
H716 C700 0.931 . S
H717 C705 0.929 . S
H718 C706 0.960 . S
H719 C706 0.962 . S
H720 C706 0.960 . S
H721 C707 0.961 . S
H722 C707 0.961 . S
H723 C707 0.961 . S
H724 C708 0.931 . S
H725 C713 0.930 . S
H726 C714 0.956 . S
H727 C714 0.961 . S
H728 C714 0.961 . S
H729 C715 0.958 . S
H730 C715 0.961 . S
H731 C715 0.960 . S
C732 C733 1.391 . S
C732 C734 1.394 . S
C732 H748 0.931 . S
C733 C732 1.391 . S
C733 C737 1.376 . S
C734 C732 1.394 . S
C734 C735 1.369 . S
C734 C738 1.531 . S
C735 C734 1.369 . S
C735 C736 1.410 . S
C735 C743 1.503 . S
C736 C735 1.410 . S
C736 C737 1.392 . S
C736 C739 1.511 . S
C737 C733 1.376 . S
C737 C736 1.392 . S
C737 H749 0.929 . S
C738 C734 1.531 . S
C738 H750 0.960 . S
C738 H751 0.962 . S
C738 H752 0.960 . S
C739 C736 1.511 . S
C739 H753 0.961 . S
C739 H754 0.961 . S
C739 H755 0.961 . S
C740 C741 1.370 . S
C740 C742 1.363 . S
C740 H756 0.931 . S
C741 C740 1.370 . S
C741 C745 1.408 . S
C742 C740 1.363 . S
C742 C743 1.370 . S
C742 C746 1.524 . S
C743 C735 1.503 . S
C743 C742 1.370 . S
C743 C744 1.403 . S
C744 C743 1.403 . S
C744 C745 1.404 . S
C744 C747 1.539 . S
C745 C741 1.408 . S
C745 C744 1.404 . S
C745 H757 0.930 . S
C746 C742 1.524 . S
C746 H758 0.956 . S
C746 H759 0.961 . S
C746 H760 0.961 . S
C747 C744 1.539 . S
C747 H761 0.958 . S
C747 H762 0.961 . S
C747 H763 0.960 . S
H748 C732 0.931 . S
H749 C737 0.929 . S
H750 C738 0.960 . S
H751 C738 0.962 . S
H752 C738 0.960 . S
H753 C739 0.961 . S
H754 C739 0.961 . S
H755 C739 0.961 . S
H756 C740 0.931 . S
H757 C745 0.930 . S
H758 C746 0.956 . S
H759 C746 0.961 . S
H760 C746 0.961 . S
H761 C747 0.958 . S
H762 C747 0.961 . S
H763 C747 0.960 . S
C764 C765 1.391 . S
C764 C766 1.394 . S
C764 H780 0.931 . S
C765 C764 1.391 . S
C765 C769 1.376 . S
C766 C764 1.394 . S
C766 C767 1.369 . S
C766 C770 1.531 . S
C767 C766 1.369 . S
C767 C768 1.410 . S
C767 C775 1.503 . S
C768 C767 1.410 . S
C768 C769 1.392 . S
C768 C771 1.511 . S
C769 C765 1.376 . S
C769 C768 1.392 . S
C769 H781 0.929 . S
C770 C766 1.531 . S
C770 H782 0.960 . S
C770 H783 0.962 . S
C770 H784 0.960 . S
C771 C768 1.511 . S
C771 H785 0.961 . S
C771 H786 0.961 . S
C771 H787 0.961 . S
C772 C773 1.370 . S
C772 C774 1.363 . S
C772 H788 0.931 . S
C773 C772 1.370 . S
C773 C777 1.408 . S
C774 C772 1.363 . S
C774 C775 1.370 . S
C774 C778 1.524 . S
C775 C767 1.503 . S
C775 C774 1.370 . S
C775 C776 1.403 . S
C776 C775 1.403 . S
C776 C777 1.404 . S
C776 C779 1.539 . S
C777 C773 1.408 . S
C777 C776 1.404 . S
C777 H789 0.930 . S
C778 C774 1.524 . S
C778 H790 0.956 . S
C778 H791 0.961 . S
C778 H792 0.961 . S
C779 C776 1.539 . S
C779 H793 0.958 . S
C779 H794 0.961 . S
C779 H795 0.960 . S
H780 C764 0.931 . S
H781 C769 0.929 . S
H782 C770 0.960 . S
H783 C770 0.962 . S
H784 C770 0.960 . S
H785 C771 0.961 . S
H786 C771 0.961 . S
H787 C771 0.961 . S
H788 C772 0.931 . S
H789 C777 0.930 . S
H790 C778 0.956 . S
H791 C778 0.961 . S
H792 C778 0.961 . S
H793 C779 0.958 . S
H794 C779 0.961 . S
H795 C779 0.960 . S
C796 C797 1.391 . S
C796 C798 1.394 . S
C796 H812 0.931 . S
C797 C796 1.391 . S
C797 C801 1.376 . S
C798 C796 1.394 . S
C798 C799 1.369 . S
C798 C802 1.531 . S
C799 C798 1.369 . S
C799 C800 1.410 . S
C799 C807 1.503 . S
C800 C799 1.410 . S
C800 C801 1.392 . S
C800 C803 1.511 . S
C801 C797 1.376 . S
C801 C800 1.392 . S
C801 H813 0.929 . S
C802 C798 1.531 . S
C802 H814 0.960 . S
C802 H815 0.962 . S
C802 H816 0.960 . S
C803 C800 1.511 . S
C803 H817 0.961 . S
C803 H818 0.961 . S
C803 H819 0.961 . S
C804 C805 1.370 . S
C804 C806 1.363 . S
C804 H820 0.931 . S
C805 C804 1.370 . S
C805 C809 1.408 . S
C806 C804 1.363 . S
C806 C807 1.370 . S
C806 C810 1.524 . S
C807 C799 1.503 . S
C807 C806 1.370 . S
C807 C808 1.403 . S
C808 C807 1.403 . S
C808 C809 1.404 . S
C808 C811 1.539 . S
C809 C805 1.408 . S
C809 C808 1.404 . S
C809 H821 0.930 . S
C810 C806 1.524 . S
C810 H822 0.956 . S
C810 H823 0.961 . S
C810 H824 0.961 . S
C811 C808 1.539 . S
C811 H825 0.958 . S
C811 H826 0.961 . S
C811 H827 0.960 . S
H812 C796 0.931 . S
H813 C801 0.929 . S
H814 C802 0.960 . S
H815 C802 0.962 . S
H816 C802 0.960 . S
H817 C803 0.961 . S
H818 C803 0.961 . S
H819 C803 0.961 . S
H820 C804 0.931 . S
H821 C809 0.930 . S
H822 C810 0.956 . S
H823 C810 0.961 . S
H824 C810 0.961 . S
H825 C811 0.958 . S
H826 C811 0.961 . S
H827 C811 0.960 . S
C828 C829 1.391 . S
C828 C830 1.394 . S
C828 H844 0.931 . S
C829 C828 1.391 . S
C829 C833 1.376 . S
C830 C828 1.394 . S
C830 C831 1.369 . S
C830 C834 1.531 . S
C831 C830 1.369 . S
C831 C832 1.410 . S
C831 C839 1.503 . S
C832 C831 1.410 . S
C832 C833 1.392 . S
C832 C835 1.511 . S
C833 C829 1.376 . S
C833 C832 1.392 . S
C833 H845 0.929 . S
C834 C830 1.531 . S
C834 H846 0.960 . S
C834 H847 0.962 . S
C834 H848 0.960 . S
C835 C832 1.511 . S
C835 H849 0.961 . S
C835 H850 0.961 . S
C835 H851 0.961 . S
C836 C837 1.370 . S
C836 C838 1.363 . S
C836 H852 0.931 . S
C837 C836 1.370 . S
C837 C841 1.408 . S
C838 C836 1.363 . S
C838 C839 1.370 . S
C838 C842 1.524 . S
C839 C831 1.503 . S
C839 C838 1.370 . S
C839 C840 1.403 . S
C840 C839 1.403 . S
C840 C841 1.404 . S
C840 C843 1.539 . S
C841 C837 1.408 . S
C841 C840 1.404 . S
C841 H853 0.930 . S
C842 C838 1.524 . S
C842 H854 0.956 . S
C842 H855 0.961 . S
C842 H856 0.961 . S
C843 C840 1.539 . S
C843 H857 0.958 . S
C843 H858 0.961 . S
C843 H859 0.960 . S
H844 C828 0.931 . S
H845 C833 0.929 . S
H846 C834 0.960 . S
H847 C834 0.962 . S
H848 C834 0.960 . S
H849 C835 0.961 . S
H850 C835 0.961 . S
H851 C835 0.961 . S
H852 C836 0.931 . S
H853 C841 0.930 . S
H854 C842 0.956 . S
H855 C842 0.961 . S
H856 C842 0.961 . S
H857 C843 0.958 . S
H858 C843 0.961 . S
H859 C843 0.960 . S
C860 C861 1.391 . S
C860 C862 1.394 . S
C860 H876 0.931 . S
C861 C860 1.391 . S
C861 C865 1.376 . S
C862 C860 1.394 . S
C862 C863 1.369 . S
C862 C866 1.531 . S
C863 C862 1.369 . S
C863 C864 1.410 . S
C863 C871 1.503 . S
C864 C863 1.410 . S
C864 C865 1.392 . S
C864 C867 1.511 . S
C865 C861 1.376 . S
C865 C864 1.392 . S
C865 H877 0.929 . S
C866 C862 1.531 . S
C866 H878 0.960 . S
C866 H879 0.962 . S
C866 H880 0.960 . S
C867 C864 1.511 . S
C867 H881 0.961 . S
C867 H882 0.961 . S
C867 H883 0.961 . S
C868 C869 1.370 . S
C868 C870 1.363 . S
C868 H884 0.931 . S
C869 C868 1.370 . S
C869 C873 1.408 . S
C870 C868 1.363 . S
C870 C871 1.370 . S
C870 C874 1.524 . S
C871 C863 1.503 . S
C871 C870 1.370 . S
C871 C872 1.403 . S
C872 C871 1.403 . S
C872 C873 1.404 . S
C872 C875 1.539 . S
C873 C869 1.408 . S
C873 C872 1.404 . S
C873 H885 0.930 . S
C874 C870 1.524 . S
C874 H886 0.956 . S
C874 H887 0.961 . S
C874 H888 0.961 . S
C875 C872 1.539 . S
C875 H889 0.958 . S
C875 H890 0.961 . S
C875 H891 0.960 . S
H876 C860 0.931 . S
H877 C865 0.929 . S
H878 C866 0.960 . S
H879 C866 0.962 . S
H880 C866 0.960 . S
H881 C867 0.961 . S
H882 C867 0.961 . S
H883 C867 0.961 . S
H884 C868 0.931 . S
H885 C873 0.930 . S
H886 C874 0.956 . S
H887 C874 0.961 . S
H888 C874 0.961 . S
H889 C875 0.958 . S
H890 C875 0.961 . S
H891 C875 0.960 . S
C892 C893 1.391 . S
C892 C894 1.394 . S
C892 H908 0.931 . S
C893 C892 1.391 . S
C893 C897 1.376 . S
C894 C892 1.394 . S
C894 C895 1.369 . S
C894 C898 1.531 . S
C895 C894 1.369 . S
C895 C896 1.410 . S
C895 C903 1.503 . S
C896 C895 1.410 . S
C896 C897 1.392 . S
C896 C899 1.511 . S
C897 C893 1.376 . S
C897 C896 1.392 . S
C897 H909 0.929 . S
C898 C894 1.531 . S
C898 H910 0.960 . S
C898 H911 0.962 . S
C898 H912 0.960 . S
C899 C896 1.511 . S
C899 H913 0.961 . S
C899 H914 0.961 . S
C899 H915 0.961 . S
C900 C901 1.370 . S
C900 C902 1.363 . S
C900 H916 0.931 . S
C901 C900 1.370 . S
C901 C905 1.408 . S
C902 C900 1.363 . S
C902 C903 1.370 . S
C902 C906 1.524 . S
C903 C895 1.503 . S
C903 C902 1.370 . S
C903 C904 1.403 . S
C904 C903 1.403 . S
C904 C905 1.404 . S
C904 C907 1.539 . S
C905 C901 1.408 . S
C905 C904 1.404 . S
C905 H917 0.930 . S
C906 C902 1.524 . S
C906 H918 0.956 . S
C906 H919 0.961 . S
C906 H920 0.961 . S
C907 C904 1.539 . S
C907 H921 0.958 . S
C907 H922 0.961 . S
C907 H923 0.960 . S
H908 C892 0.931 . S
H909 C897 0.929 . S
H910 C898 0.960 . S
H911 C898 0.962 . S
H912 C898 0.960 . S
H913 C899 0.961 . S
H914 C899 0.961 . S
H915 C899 0.961 . S
H916 C900 0.931 . S
H917 C905 0.930 . S
H918 C906 0.956 . S
H919 C906 0.961 . S
H920 C906 0.961 . S
H921 C907 0.958 . S
H922 C907 0.961 . S
H923 C907 0.960 . S
C157 C104 1.430 . S
C165 C0 1.411 . S
C189 C13 1.436 . S
C197 C117 1.414 . S
C221 C26 1.422 . S
C229 C130 1.429 . S
C253 C39 1.426 . S
C261 C143 1.409 . S
C285 C78 1.391 . S
C293 C52 1.412 . S
C317 C65 1.394 . S
C325 C91 1.410 . S
C349 C8 1.291 . S
C357 C75 1.379 . S
C381 C21 1.279 . S
C389 C10 1.373 . S
C413 C34 1.358 . S
C421 C23 1.378 . S
C445 C36 1.354 . S
C453 C47 1.321 . S
C477 C49 1.386 . S
C485 C60 1.339 . S
C509 C62 1.356 . S
C517 C73 1.307 . S
C541 C101 1.374 . S
C549 C86 1.308 . S
C573 C99 1.339 . S
C581 C114 1.372 . S
C605 C127 1.391 . S
C613 C112 1.322 . S
C637 C125 1.357 . S
C645 C140 1.383 . S
C669 C138 1.360 . S
C677 C153 1.381 . S
C701 C151 1.289 . S
C709 C88 1.368 . S
C733 C135 1.214 . S
C741 C5 1.204 . S
C765 C148 1.158 . S
C773 C18 1.181 . S
C797 C83 1.169 . S
C805 C31 1.186 . S
C829 C44 1.222 . S
C837 C96 1.204 . S
C861 C57 1.222 . S
C869 C109 1.205 . S
C893 C122 1.154 . S
C901 C70 1.177 . S
