# Generated by pormake.
# Topology crs, (6)-cn, num edge types: 1
# Building blocks:
#     Node 0, Type 0, BuildingBlock: BETDAH_clean_sbu_0, # of connection points: 6
#     Node 1, Type 0, BuildingBlock: BETDAH_clean_sbu_0, # of connection points: 6
#     Node 2, Type 0, BuildingBlock: BETDAH_clean_sbu_0, # of connection points: 6
#     Node 3, Type 0, BuildingBlock: BETDAH_clean_sbu_0, # of connection points: 6
#     Node 4, Type 0, BuildingBlock: BETDAH_clean_sbu_0, # of connection points: 6
#     Node 5, Type 0, BuildingBlock: BETDAH_clean_sbu_0, # of connection points: 6
#     Node 6, Type 0, BuildingBlock: BETDAH_clean_sbu_0, # of connection points: 6
#     Node 7, Type 0, BuildingBlock: BETDAH_clean_sbu_0, # of connection points: 6
#     Node 8, Type 0, BuildingBlock: BETDAH_clean_sbu_0, # of connection points: 6
#     Node 9, Type 0, BuildingBlock: BETDAH_clean_sbu_0, # of connection points: 6
#     Node 10, Type 0, BuildingBlock: BETDAH_clean_sbu_0, # of connection points: 6
#     Node 11, Type 0, BuildingBlock: BETDAH_clean_sbu_0, # of connection points: 6
#     Node 12, Type 0, BuildingBlock: BETDAH_clean_sbu_0, # of connection points: 6
#     Node 13, Type 0, BuildingBlock: BETDAH_clean_sbu_0, # of connection points: 6
#     Node 14, Type 0, BuildingBlock: BETDAH_clean_sbu_0, # of connection points: 6
#     Node 15, Type 0, BuildingBlock: BETDAH_clean_sbu_0, # of connection points: 6
#     Edge 16, Type (0, 0), BuildingBlock: KIFKEQ_clean_linker_1, # of connection points: 2
#     Edge 17, Type (0, 0), BuildingBlock: KIFKEQ_clean_linker_1, # of connection points: 2
#     Edge 18, Type (0, 0), BuildingBlock: KIFKEQ_clean_linker_1, # of connection points: 2
#     Edge 19, Type (0, 0), BuildingBlock: KIFKEQ_clean_linker_1, # of connection points: 2
#     Edge 20, Type (0, 0), BuildingBlock: KIFKEQ_clean_linker_1, # of connection points: 2
#     Edge 21, Type (0, 0), BuildingBlock: KIFKEQ_clean_linker_1, # of connection points: 2
#     Edge 22, Type (0, 0), BuildingBlock: KIFKEQ_clean_linker_1, # of connection points: 2
#     Edge 23, Type (0, 0), BuildingBlock: KIFKEQ_clean_linker_1, # of connection points: 2
#     Edge 24, Type (0, 0), BuildingBlock: KIFKEQ_clean_linker_1, # of connection points: 2
#     Edge 25, Type (0, 0), BuildingBlock: KIFKEQ_clean_linker_1, # of connection points: 2
#     Edge 26, Type (0, 0), BuildingBlock: KIFKEQ_clean_linker_1, # of connection points: 2
#     Edge 27, Type (0, 0), BuildingBlock: KIFKEQ_clean_linker_1, # of connection points: 2
#     Edge 28, Type (0, 0), BuildingBlock: KIFKEQ_clean_linker_1, # of connection points: 2
#     Edge 29, Type (0, 0), BuildingBlock: KIFKEQ_clean_linker_1, # of connection points: 2
#     Edge 30, Type (0, 0), BuildingBlock: KIFKEQ_clean_linker_1, # of connection points: 2
#     Edge 31, Type (0, 0), BuildingBlock: KIFKEQ_clean_linker_1, # of connection points: 2
#     Edge 32, Type (0, 0), BuildingBlock: KIFKEQ_clean_linker_1, # of connection points: 2
#     Edge 33, Type (0, 0), BuildingBlock: KIFKEQ_clean_linker_1, # of connection points: 2
#     Edge 34, Type (0, 0), BuildingBlock: KIFKEQ_clean_linker_1, # of connection points: 2
#     Edge 35, Type (0, 0), BuildingBlock: KIFKEQ_clean_linker_1, # of connection points: 2
#     Edge 36, Type (0, 0), BuildingBlock: KIFKEQ_clean_linker_1, # of connection points: 2
#     Edge 37, Type (0, 0), BuildingBlock: KIFKEQ_clean_linker_1, # of connection points: 2
#     Edge 38, Type (0, 0), BuildingBlock: KIFKEQ_clean_linker_1, # of connection points: 2
#     Edge 39, Type (0, 0), BuildingBlock: KIFKEQ_clean_linker_1, # of connection points: 2
#     Edge 40, Type (0, 0), BuildingBlock: KIFKEQ_clean_linker_1, # of connection points: 2
#     Edge 41, Type (0, 0), BuildingBlock: KIFKEQ_clean_linker_1, # of connection points: 2
#     Edge 42, Type (0, 0), BuildingBlock: KIFKEQ_clean_linker_1, # of connection points: 2
#     Edge 43, Type (0, 0), BuildingBlock: KIFKEQ_clean_linker_1, # of connection points: 2
#     Edge 44, Type (0, 0), BuildingBlock: KIFKEQ_clean_linker_1, # of connection points: 2
#     Edge 45, Type (0, 0), BuildingBlock: KIFKEQ_clean_linker_1, # of connection points: 2
#     Edge 46, Type (0, 0), BuildingBlock: KIFKEQ_clean_linker_1, # of connection points: 2
#     Edge 47, Type (0, 0), BuildingBlock: KIFKEQ_clean_linker_1, # of connection points: 2
#     Edge 48, Type (0, 0), BuildingBlock: KIFKEQ_clean_linker_1, # of connection points: 2
#     Edge 49, Type (0, 0), BuildingBlock: KIFKEQ_clean_linker_1, # of connection points: 2
#     Edge 50, Type (0, 0), BuildingBlock: KIFKEQ_clean_linker_1, # of connection points: 2
#     Edge 51, Type (0, 0), BuildingBlock: KIFKEQ_clean_linker_1, # of connection points: 2
#     Edge 52, Type (0, 0), BuildingBlock: KIFKEQ_clean_linker_1, # of connection points: 2
#     Edge 53, Type (0, 0), BuildingBlock: KIFKEQ_clean_linker_1, # of connection points: 2
#     Edge 54, Type (0, 0), BuildingBlock: KIFKEQ_clean_linker_1, # of connection points: 2
#     Edge 55, Type (0, 0), BuildingBlock: KIFKEQ_clean_linker_1, # of connection points: 2
#     Edge 56, Type (0, 0), BuildingBlock: KIFKEQ_clean_linker_1, # of connection points: 2
#     Edge 57, Type (0, 0), BuildingBlock: KIFKEQ_clean_linker_1, # of connection points: 2
#     Edge 58, Type (0, 0), BuildingBlock: KIFKEQ_clean_linker_1, # of connection points: 2
#     Edge 59, Type (0, 0), BuildingBlock: KIFKEQ_clean_linker_1, # of connection points: 2
#     Edge 60, Type (0, 0), BuildingBlock: KIFKEQ_clean_linker_1, # of connection points: 2
#     Edge 61, Type (0, 0), BuildingBlock: KIFKEQ_clean_linker_1, # of connection points: 2
#     Edge 62, Type (0, 0), BuildingBlock: KIFKEQ_clean_linker_1, # of connection points: 2
#     Edge 63, Type (0, 0), BuildingBlock: KIFKEQ_clean_linker_1, # of connection points: 2
# Relax obj value: 0.456
# Max RMSD: 0.358
# Mean RMSD: 0.298
data_MOF--net-crs--node1-BETDAH_clean_sbu_0--edge1-KIFKEQ_clean_linker_1
_symmetry_space_group_name_H-M    P1
_symmetry_Int_Tables_number       1
_symmetry_cell_setting            triclinic
loop_
_symmetry_equiv_pos_as_xyz
'x, y, z'
_cell_length_a     54.655685
_cell_length_b     55.930164
_cell_length_c     45.894892
_cell_angle_alpha  74.14733
_cell_angle_beta   76.122781
_cell_angle_gamma 64.740321
loop_
_atom_site_label
_atom_site_type_symbol
_atom_site_fract_x
_atom_site_fract_y
_atom_site_fract_z
_atom_type_partial_charge
Ho0 Ho 0.97274 1.00163 0.04063 0.0
Ho1 Ho 0.01852 1.00575 0.98797 0.0
C2 C 0.01212 0.95038 1.007 0.0
C3 C 0.93184 0.99145 0.07312 0.0
C4 C 0.92289 0.97039 0.0719 0.0
C5 C 0.91201 0.97204 0.04627 0.0
C6 C 0.90946 0.94963 0.04177 0.0
C7 C 0.91768 0.92513 0.06284 0.0
C8 C 0.92701 0.92395 0.08939 0.0
C9 C 0.92943 0.94643 0.09395 0.0
C10 C 0.01863 0.99551 0.05866 0.0
C11 C 0.98315 0.05487 0.02557 0.0
C12 C 0.05669 0.01836 0.9516 0.0
C13 C 0.06567 0.03955 0.95238 0.0
C14 C 0.08176 0.03542 0.97439 0.0
C15 C 0.0843 0.05718 0.98065 0.0
C16 C 0.07106 0.08344 0.96478 0.0
C17 C 0.05683 0.08733 0.94107 0.0
C18 C 0.05425 0.06554 0.93484 0.0
C19 C 0.97242 0.01053 0.97137 0.0
O20 O 0.98809 0.96331 0.02217 0.0
O21 O 0.03026 0.96148 0.99514 0.0
O22 O 0.9555 0.98231 0.08274 0.0
O23 O 0.92926 0.01117 0.04921 0.0
O24 O -0.00565 1.00567 0.07351 0.0
O25 O 0.01756 0.98676 0.03653 0.0
O26 O 0.00627 0.04185 1.00919 0.0
O27 O 0.9638 0.0452 0.03642 0.0
O28 O 0.03192 0.02726 0.94494 0.0
O29 O 0.0616 0.99761 0.97443 0.0
O30 O -0.00329 0.99891 0.95748 0.0
O31 O 0.97373 0.0205 0.99223 0.0
H32 H 0.90648 0.99027 0.029 0.0
H33 H 0.90139 0.95141 0.02155 0.0
H34 H 0.93343 0.90536 0.10608 0.0
H35 H 0.93783 0.94462 0.11394 0.0
H36 H 0.09132 0.01559 0.98785 0.0
H37 H 0.09615 0.0535 0.99841 0.0
H38 H 0.04661 0.10735 0.92832 0.0
H39 H 0.04192 0.06931 0.91752 0.0
Ho40 Ho 0.00069 0.26991 0.28163 0.0
Ho41 Ho 0.98099 0.2436 0.25194 0.0
C42 C 0.95829 0.24309 0.32191 0.0
C43 C 0.01095 0.29729 0.31108 0.0
C44 C 0.00261 0.31091 0.33736 0.0
C45 C 0.99018 0.33917 0.33271 0.0
C46 C 0.98758 0.35266 0.35552 0.0
C47 C -0.00236 0.33815 0.38328 0.0
C48 C 0.00874 0.30986 0.38856 0.0
C49 C 0.01121 0.29636 0.36584 0.0
C50 C 0.03792 0.21979 0.27431 0.0
C51 C 0.02395 0.2702 0.21167 0.0
C52 C 0.96926 0.21671 0.22324 0.0
C53 C 0.97415 0.20607 0.19546 0.0
C54 C 0.0002 0.18944 0.18343 0.0
C55 C 0.00311 0.1768 0.1596 0.0
C56 C 0.98002 0.18044 0.14761 0.0
C57 C 0.95419 0.19803 0.159 0.0
C58 C 0.95134 0.21069 0.1826 0.0
C59 C 0.9441 0.29359 0.26003 0.0
O60 O 0.96705 0.26256 0.31809 0.0
O61 O 0.96532 0.22894 0.30036 0.0
O62 O 0.02013 0.27101 0.31666 0.0
O63 O -0.00339 0.30841 0.28836 0.0
O64 O 0.04327 0.24093 0.27016 0.0
O65 O 0.01246 0.22589 0.28278 0.0
O66 O 0.01359 0.25207 0.21438 0.0
O67 O 0.01829 0.28327 0.2339 0.0
O68 O 0.95726 0.24276 0.221 0.0
O69 O 0.98776 0.20548 0.24167 0.0
O70 O 0.93854 0.27249 0.26488 0.0
O71 O 0.96943 0.28748 0.25072 0.0
H72 H 0.98378 0.35095 0.31085 0.0
H73 H 0.97914 0.37449 0.3507 0.0
H74 H 0.01634 0.29817 0.40991 0.0
H75 H 0.02112 0.27458 0.3701 0.0
H76 H 0.01813 0.18561 0.19297 0.0
H77 H 0.02337 0.16372 0.15104 0.0
H78 H 0.93589 0.20106 0.15081 0.0
H79 H 0.93103 0.22329 0.19172 0.0
Ho80 Ho 0.73048 0.2502 0.49538 0.0
Ho81 Ho 0.75059 0.26362 0.5401 0.0
C82 C 0.68919 0.26663 0.5546 0.0
C83 C 0.71694 0.23019 0.46041 0.0
C84 C 0.69455 0.22111 0.46586 0.0
C85 C 0.68221 0.21473 0.49588 0.0
C86 C 0.65898 0.20889 0.50111 0.0
C87 C 0.64782 0.20922 0.47639 0.0
C88 C 0.66044 0.21542 0.44634 0.0
C89 C 0.68357 0.22146 0.44114 0.0
C90 C 0.72374 0.30308 0.48335 0.0
C91 C 0.79435 0.24231 0.48254 0.0
C92 C 0.7631 0.28976 0.5684 0.0
C93 C 0.78403 0.30085 0.56137 0.0
C94 C 0.79749 0.3048 0.53138 0.0
C95 C 0.82058 0.31101 0.52577 0.0
C96 C 0.83059 0.31284 0.55019 0.0
C97 C 0.81672 0.30929 0.58006 0.0
C98 C 0.79359 0.30333 0.58558 0.0
C99 C 0.75208 0.21278 0.56486 0.0
O100 O 0.6969 0.25089 0.53465 0.0
O101 O 0.70507 0.27825 0.55679 0.0
O102 O 0.70899 0.25601 0.45863 0.0
O103 O 0.73634 0.21587 0.47746 0.0
O104 O 0.70502 0.29468 0.48332 0.0
O105 O 0.74466 0.28281 0.4917 0.0
O106 O 0.78979 0.25216 0.5073 0.0
O107 O 0.77483 0.23874 0.47407 0.0
O108 O 0.77315 0.26353 0.57248 0.0
O109 O 0.74326 0.30141 0.55159 0.0
O110 O 0.7607 0.2259 0.57625 0.0
O111 O 0.74421 0.22668 0.53941 0.0
H112 H 0.69034 0.21457 0.51527 0.0
H113 H 0.64969 0.2043 0.52448 0.0
H114 H 0.6527 0.21523 0.42682 0.0
H115 H 0.69272 0.22664 0.41786 0.0
H116 H 0.79062 0.30234 0.51253 0.0
H117 H 0.8309 0.31384 0.50257 0.0
H118 H 0.82371 0.31123 0.59915 0.0
H119 H 0.78362 0.29987 0.60888 0.0
Ho120 Ho 0.72917 0.99419 0.75429 0.0
Ho121 Ho 0.752 0.01407 0.78758 0.0
C122 C 0.75088 0.0417 0.7174 0.0
C123 C 0.70546 0.98161 0.72172 0.0
C124 C 0.69304 0.9886 0.69405 0.0
C125 C 0.68259 0.01503 0.67742 0.0
C126 C 0.6692 0.02059 0.65236 0.0
C127 C 0.66605 0.99976 0.64381 0.0
C128 C 0.67748 0.97326 0.66022 0.0
C129 C 0.69089 0.96779 0.68491 0.0
C130 C 0.78047 0.95938 0.76564 0.0
C131 C 0.72988 0.96709 0.82433 0.0
C132 C 0.77518 0.02561 0.82181 0.0
C133 C 0.78986 0.01555 0.84836 0.0
C134 C 0.81041 0.98965 0.8535 0.0
C135 C 0.82699 0.98256 0.87595 0.0
C136 C 0.82328 1.0013 0.89346 0.0
C137 C 0.80141 0.0265 0.88958 0.0
C138 C 0.7849 0.03353 0.86721 0.0
C139 C 0.70077 0.04861 0.77622 0.0
O140 O 0.73393 0.03008 0.71856 0.0
O141 O 0.76424 0.03523 0.74071 0.0
O142 O 0.73179 0.97487 0.71817 0.0
O143 O 0.69217 0.99568 0.74316 0.0
O144 O 0.76007 0.95276 0.76827 0.0
O145 O 0.77312 0.98469 0.75676 0.0
O146 O 0.74827 0.97724 0.82223 0.0
O147 O 0.71556 0.97471 0.80163 0.0
O148 O 0.74934 0.0295 0.82716 0.0
O149 O 0.78795 0.01589 0.79701 0.0
O150 O 0.7209 0.05552 0.77399 0.0
O151 O 0.70824 0.02334 0.78518 0.0
H152 H 0.68431 0.03132 0.68414 0.0
H153 H 0.66089 0.04119 0.64011 0.0
H154 H 0.67499 0.95673 0.65506 0.0
H155 H 0.69887 0.94726 0.69756 0.0
H156 H 0.8144 0.97536 0.83935 0.0
H157 H 0.84343 0.96283 0.87873 0.0
H158 H 0.79814 0.04152 0.90237 0.0
H159 H 0.7691 0.05362 0.86354 0.0
Ho160 Ho 0.4989 0.77383 0.28304 0.0
Ho161 Ho 0.48651 0.73796 0.25827 0.0
C162 C 0.46036 0.74322 0.32631 0.0
C163 C 0.49872 0.81016 0.30816 0.0
C164 C 0.49589 0.81651 0.33835 0.0
C165 C 0.47189 0.83686 0.34887 0.0
C166 C 0.47081 0.84683 0.37415 0.0
C167 C 0.49379 0.83679 0.38926 0.0
C168 C 0.51711 0.81512 0.38009 0.0
C169 C 0.5182 0.80513 0.35481 0.0
C170 C 0.53805 0.72292 0.28743 0.0
C171 C 0.52525 0.76847 0.21479 0.0
C172 C 0.48619 0.70119 0.23432 0.0
C173 C 0.48484 0.69573 0.20514 0.0
C174 C 0.50867 0.68549 0.18472 0.0
C175 C 0.50777 0.67602 0.15996 0.0
C176 C 0.48307 0.6764 0.15529 0.0
C177 C 0.45902 0.68802 0.17475 0.0
C178 C 0.45992 0.69748 0.19946 0.0
C179 C 0.44752 0.78905 0.25311 0.0
O180 O 0.46666 0.76457 0.32021 0.0
O181 O 0.47081 0.72604 0.30756 0.0
O182 O 0.52081 0.79029 0.29989 0.0
O183 O 0.47697 0.81118 0.2999 0.0
O184 O 0.54263 0.74472 0.28147 0.0
O185 O 0.51252 0.72882 0.2928 0.0
O186 O 0.51833 0.7475 0.2206 0.0
O187 O 0.51565 0.78528 0.23397 0.0
O188 O 0.46422 0.71885 0.24658 0.0
O189 O 0.50858 0.70268 0.23757 0.0
O190 O 0.4429 0.76734 0.25861 0.0
O191 O 0.47307 0.78297 0.2482 0.0
H192 H 0.45441 0.84607 0.33663 0.0
H193 H 0.45242 0.86332 0.38095 0.0
H194 H 0.53523 0.80711 0.39107 0.0
H195 H 0.53707 0.78949 0.34726 0.0
H196 H 0.52822 0.68376 0.18851 0.0
H197 H 0.52659 0.6675 0.14509 0.0
H198 H 0.43973 0.68833 0.17204 0.0
H199 H 0.44126 0.70498 0.21499 0.0
Ho200 Ho 0.23284 0.74562 0.49684 0.0
Ho201 Ho 0.25056 0.77057 0.54113 0.0
C202 C 0.18901 0.77109 0.55385 0.0
C203 C 0.22233 0.71334 0.47611 0.0
C204 C 0.19826 0.70667 0.48255 0.0
C205 C 0.18176 0.70783 0.51121 0.0
C206 C 0.15697 0.7048 0.51579 0.0
C207 C 0.14832 0.70099 0.49161 0.0
C208 C 0.16508 0.6996 0.46309 0.0
C209 C 0.18986 0.70244 0.45862 0.0
C210 C 0.2263 0.79846 0.47313 0.0
C211 C 0.29475 0.74436 0.48476 0.0
C212 C 0.26255 0.80286 0.55986 0.0
C213 C 0.28861 0.80595 0.55456 0.0
C214 C 0.28883 0.83168 0.54928 0.0
C215 C 0.31361 0.83491 0.54258 0.0
C216 C 0.3385 0.81241 0.54115 0.0
C217 C 0.33825 0.78664 0.54623 0.0
C218 C 0.31344 0.78345 0.5526 0.0
C219 C 0.25773 0.71757 0.56447 0.0
O220 O 0.19546 0.75665 0.5324 0.0
O221 O 0.20566 0.78086 0.55892 0.0
O222 O 0.21784 0.73827 0.46225 0.0
O223 O 0.23702 0.70511 0.49834 0.0
O224 O 0.21945 0.78432 0.46081 0.0
O225 O 0.23485 0.78343 0.49774 0.0
O226 O 0.28863 0.75808 0.50682 0.0
O227 O 0.27761 0.73574 0.47867 0.0
O228 O 0.26215 0.78004 0.57694 0.0
O229 O 0.25068 0.81017 0.53546 0.0
O230 O 0.26479 0.73166 0.57669 0.0
O231 O 0.24878 0.73271 0.54008 0.0
H232 H 0.18778 0.71154 0.52984 0.0
H233 H 0.14446 0.70576 0.538 0.0
H234 H 0.15918 0.69598 0.44429 0.0
H235 H 0.20222 0.70185 0.43629 0.0
H236 H 0.26986 0.84923 0.55029 0.0
H237 H 0.31332 0.85496 0.53924 0.0
H238 H 0.35719 0.76906 0.5452 0.0
H239 H 0.31368 0.76342 0.55593 0.0
Ho240 Ho 0.22251 0.50492 0.75392 0.0
Ho241 Ho 0.26163 0.51117 0.78208 0.0
C242 C 0.25223 0.54613 0.71514 0.0
C243 C 0.18269 0.51018 0.72814 0.0
C244 C 0.17677 0.50859 0.69909 0.0
C245 C 0.17511 0.52912 0.67293 0.0
C246 C 0.16585 0.52864 0.64721 0.0
C247 C 0.158 0.5077 0.64724 0.0
C248 C 0.16084 0.48668 0.67302 0.0
C249 C 0.17004 0.48717 0.69858 0.0
C250 C 0.27392 0.46658 0.74556 0.0
C251 C 0.23197 0.47012 0.821 0.0
C252 C 0.30115 0.50566 0.8085 0.0
C253 C 0.30764 0.50262 0.83903 0.0
C254 C 0.33181 0.4818 0.84813 0.0
C255 C 0.34093 0.48085 0.87451 0.0
C256 C 0.32607 0.50085 0.89226 0.0
C257 C 0.30099 0.52082 0.8841 0.0
C258 C 0.29181 0.52168 0.85773 0.0
C259 C 0.21039 0.54993 0.78911 0.0
O260 O 0.23081 0.53963 0.71933 0.0
O261 O 0.27053 0.53354 0.73432 0.0
O262 O 0.19764 0.48759 0.74406 0.0
O263 O 0.18835 0.53046 0.72883 0.0
O264 O 0.25159 0.4631 0.74809 0.0
O265 O 0.26821 0.49126 0.74419 0.0
O266 O 0.25348 0.47644 0.81658 0.0
O267 O 0.21351 0.483 0.80204 0.0
O268 O 0.28335 0.52889 0.79715 0.0
O269 O 0.29846 0.48538 0.8027 0.0
O270 O 0.23283 0.55349 0.78551 0.0
O271 O 0.21585 0.5251 0.79169 0.0
H272 H 0.18011 0.54596 0.67264 0.0
H273 H 0.16412 0.54505 0.62766 0.0
H274 H 0.15447 0.47051 0.67429 0.0
H275 H 0.1708 0.47124 0.71852 0.0
H276 H 0.34439 0.46696 0.834 0.0
H277 H 0.36051 0.46541 0.87986 0.0
H278 H 0.28897 0.53634 0.89748 0.0
H279 H 0.27294 0.5379 0.85136 0.0
Ho280 Ho 0.96679 0.50282 0.55017 0.0
Ho281 Ho 0.00757 0.51318 0.49452 0.0
C282 C 0.00244 0.45739 0.5077 0.0
C283 C 0.93088 0.48732 0.58765 0.0
C284 C 0.92161 0.4665 0.58644 0.0
C285 C 0.90688 0.47036 0.56318 0.0
C286 C 0.90357 0.44873 0.55769 0.0
C287 C 0.91486 0.42285 0.57539 0.0
C288 C 0.92801 0.41932 0.59994 0.0
C289 C 0.93126 0.44102 0.60549 0.0
C290 C 0.01372 0.49914 0.56339 0.0
C291 C 0.97026 0.55938 0.53559 0.0
C292 C 0.04448 0.52812 0.45875 0.0
C293 C 0.0539 0.54807 0.46194 0.0
C294 C 0.05668 0.54933 0.49103 0.0
C295 C 0.06092 0.57085 0.49531 0.0
C296 C 0.0618 0.59199 0.47066 0.0
C297 C 0.05954 0.59044 0.44134 0.0
C298 C 0.05574 0.56855 0.43703 0.0
C299 C 0.96074 0.51693 0.48096 0.0
O300 O 0.98004 0.46786 0.52662 0.0
O301 O 0.01964 0.46956 0.49556 0.0
O302 O 0.95635 0.47811 0.59218 0.0
O303 O 0.92437 0.5092 0.56637 0.0
O304 O 0.99023 0.50804 0.58012 0.0
O305 O 0.01154 0.49085 0.54155 0.0
O306 O -0.00692 0.54894 0.51721 0.0
O307 O 0.9536 0.54666 0.54812 0.0
O308 O 0.01914 0.53828 0.45351 0.0
O309 O 0.05032 0.5058 0.47945 0.0
O310 O 0.98416 0.50886 0.46377 0.0
O311 O 0.96291 0.52497 0.50304 0.0
H312 H 0.89885 0.4898 0.54835 0.0
H313 H 0.89258 0.45221 0.53919 0.0
H314 H 0.9368 0.3996 0.61404 0.0
H315 H 0.94263 0.43754 0.62364 0.0
H316 H 0.05461 0.53419 0.51076 0.0
H317 H 0.0632 0.57097 0.51806 0.0
H318 H 0.0598 0.6065 0.42188 0.0
H319 H 0.05304 0.56822 0.41453 0.0
Ho320 Ho 0.2337 0.24329 0.99458 0.0
Ho321 Ho 0.24836 0.27 0.03859 0.0
C322 C 0.18779 0.2696 0.04991 0.0
C323 C 0.22329 0.21182 0.97225 0.0
C324 C 0.20131 0.20195 0.98041 0.0
C325 C 0.18742 0.1998 1.01041 0.0
C326 C 0.16361 0.19469 1.01674 0.0
C327 C 0.15323 0.19234 0.99298 0.0
C328 C 0.16738 0.19424 0.9631 0.0
C329 C 0.1913 0.19895 0.95689 0.0
C330 C 0.229 0.2954 0.96731 0.0
C331 C 0.29454 0.24259 0.98392 0.0
C332 C 0.26005 0.30166 0.05908 0.0
C333 C 0.28246 0.3111 0.0491 0.0
C334 C 0.29569 0.31215 0.01873 0.0
C335 C 0.31959 0.31724 1.01057 0.0
C336 C 0.33085 0.32052 0.0329 0.0
C337 C 0.31748 0.31959 0.06317 0.0
C338 C 0.29339 0.315 0.07118 0.0
C339 C 0.25302 0.21798 0.066 0.0
O340 O 0.19591 0.2536 0.02978 0.0
O341 O 0.20316 0.28102 0.05441 0.0
O342 O 0.21477 0.23786 0.96235 0.0
O343 O 0.2411 0.20278 0.99139 0.0
O344 O 0.22383 0.27974 0.95564 0.0
O345 O 0.23566 0.28206 0.99337 0.0
O346 O 0.28671 0.25833 1.00426 0.0
O347 O 0.2787 0.23202 0.97888 0.0
O348 O 0.26819 0.27574 0.06975 0.0
O349 O 0.24153 0.31059 0.04084 0.0
O350 O 0.25777 0.23385 0.07784 0.0
O351 O 0.24652 0.23117 0.03982 0.0
H352 H 0.19452 0.20279 0.0287 0.0
H353 H 0.15306 0.19309 0.03997 0.0
H354 H 0.16003 0.19188 0.94455 0.0
H355 H 0.20154 0.20107 0.93354 0.0
H356 H 0.28806 0.30828 1.00156 0.0
H357 H 0.32961 0.31797 0.9871 0.0
H358 H 0.32565 0.32252 0.08063 0.0
H359 H 0.28374 0.31369 0.09481 0.0
Ho360 Ho 0.22611 0.99931 0.25153 0.0
Ho361 Ho 0.26066 0.01073 0.28034 0.0
C362 C 0.2538 0.04182 0.21175 0.0
C363 C 0.1907 0.99809 0.22378 0.0
C364 C 0.18427 1.00047 0.19345 0.0
C365 C 0.17779 0.02473 0.17181 0.0
C366 C 0.16779 0.02707 0.14532 0.0
C367 C 0.16394 1.00526 0.14018 0.0
C368 C 0.17192 0.98066 0.16121 0.0
C369 C 0.18195 0.97833 0.18745 0.0
C370 C 0.27831 0.96189 0.24993 0.0
C371 C 0.2321 0.96878 0.32042 0.0
C372 C 0.29675 0.01113 0.30778 0.0
C373 C 0.30269 0.01029 0.33785 0.0
C374 C 0.30702 0.98738 0.36144 0.0
C375 C 0.31655 0.98612 0.38782 0.0
C376 C 0.32206 0.00766 0.39096 0.0
C377 C 0.31635 0.03098 0.36784 0.0
C378 C 0.3068 0.03224 0.3417 0.0
C379 C 0.2085 0.0481 0.28219 0.0
O380 O 0.23342 0.03388 0.21557 0.0
O381 O 0.2712 0.03089 0.23191 0.0
O382 O 0.2118 0.97698 0.23281 0.0
O383 O 0.18829 0.01974 0.23187 0.0
O384 O 0.25664 0.95675 0.25503 0.0
O385 O 0.27168 0.98717 0.24453 0.0
O386 O 0.2522 0.97703 0.31712 0.0
O387 O 0.21534 0.97904 0.29964 0.0
O388 O 0.27714 0.03278 0.29656 0.0
O389 O 0.29737 0.98923 0.30203 0.0
O390 O 0.23012 0.05318 0.27796 0.0
O391 O 0.21513 0.02283 0.28732 0.0
H392 H 0.17951 0.04212 0.17583 0.0
H393 H 0.16218 0.04622 0.12944 0.0
H394 H 0.16882 0.96354 0.15857 0.0
H395 H 0.18663 0.95947 0.20389 0.0
H396 H 0.30394 0.97013 0.35911 0.0
H397 H 0.32039 0.96796 0.4053 0.0
H398 H 0.3208 0.04779 0.36892 0.0
H399 H 0.30384 0.05004 0.32374 0.0
Ho400 Ho 0.49909 0.27268 0.78419 0.0
Ho401 Ho 0.48162 0.24352 0.75516 0.0
C402 C 0.45814 0.24448 0.8244 0.0
C403 C 0.50654 0.30105 0.81483 0.0
C404 C 0.4979 0.31084 0.84392 0.0
C405 C 0.47434 0.3341 0.84808 0.0
C406 C 0.4697 0.34623 0.87288 0.0
C407 C 0.4886 0.33542 0.89381 0.0
C408 C 0.511 0.31105 0.89085 0.0
C409 C 0.51564 0.29897 0.86612 0.0
C410 C 0.53616 0.22206 0.77979 0.0
C411 C 0.52286 0.27281 0.71445 0.0
C412 C 0.47638 0.21154 0.7276 0.0
C413 C 0.47624 0.20639 0.6977 0.0
C414 C 0.49982 0.18821 0.68322 0.0
C415 C 0.49829 0.17876 0.65872 0.0
C416 C 0.4731 0.18707 0.64854 0.0
C417 C 0.44989 0.20647 0.66176 0.0
C418 C 0.45143 0.21604 0.68608 0.0
C419 C 0.44416 0.29423 0.75851 0.0
O420 O 0.46505 0.2653 0.81948 0.0
O421 O 0.46742 0.22869 0.80418 0.0
O422 O 0.52037 0.27521 0.81641 0.0
O423 O 0.48965 0.31153 0.79456 0.0
O424 O 0.54193 0.24313 0.77433 0.0
O425 O 0.51068 0.22855 0.78788 0.0
O426 O 0.51209 0.25506 0.71669 0.0
O427 O 0.51748 0.28565 0.73685 0.0
O428 O 0.45602 0.23203 0.73727 0.0
O429 O 0.49963 0.20799 0.73472 0.0
O430 O 0.4386 0.27319 0.76273 0.0
O431 O 0.46974 0.28789 0.75117 0.0
H432 H 0.46027 0.34374 0.83138 0.0
H433 H 0.45207 0.36485 0.8748 0.0
H434 H 0.52613 0.30236 0.90631 0.0
H435 H 0.5341 0.28118 0.86339 0.0
H436 H 0.51915 0.1801 0.69187 0.0
H437 H 0.51646 0.16362 0.64913 0.0
H438 H 0.43027 0.21337 0.65415 0.0
H439 H 0.43282 0.22988 0.69683 0.0
Ho440 Ho -0.00055 0.77218 0.78408 0.0
Ho441 Ho 0.98728 0.73727 0.75715 0.0
C442 C 0.9593 0.74225 0.8248 0.0
C443 C -0.00132 0.80829 0.81011 0.0
C444 C 0.00409 0.81151 0.83862 0.0
C445 C 0.98218 0.82337 0.8603 0.0
C446 C 0.98681 0.83056 0.88477 0.0
C447 C 0.01343 0.8263 0.88783 0.0
C448 C 0.03544 0.81324 0.86701 0.0
C449 C 0.03084 0.80594 0.84266 0.0
C450 C 0.03802 0.72084 0.79 0.0
C451 C 0.02624 0.76792 0.71569 0.0
C452 C 0.98725 0.70187 0.73063 0.0
C453 C 0.98906 0.69627 0.70032 0.0
C454 C 0.01253 0.67578 0.68919 0.0
C455 C 0.01261 0.66619 0.66408 0.0
C456 C 0.98914 0.67676 0.64971 0.0
C457 C 0.96638 0.69865 0.65935 0.0
C458 C 0.96629 0.70826 0.6845 0.0
C459 C 0.94855 0.78845 0.75332 0.0
O460 O 0.9659 0.76337 0.81943 0.0
O461 O 0.96996 0.72522 0.8058 0.0
O462 O 0.01964 0.79509 0.79206 0.0
O463 O 0.97724 0.8031 0.81148 0.0
O464 O 0.04255 0.74228 0.78697 0.0
O465 O 0.0125 0.72715 0.79308 0.0
O466 O 0.01993 0.74667 0.72099 0.0
O467 O 0.01563 0.78469 0.73497 0.0
O468 O 0.96514 0.72098 0.74035 0.0
O469 O 0.00928 0.70118 0.73786 0.0
O470 O 0.94371 0.76694 0.75795 0.0
O471 O 0.97411 0.78216 0.74864 0.0
H472 H 0.96133 0.8282 0.85761 0.0
H473 H 0.96941 0.84086 0.90026 0.0
H474 H 0.05619 0.80948 0.86898 0.0
H475 H 0.04821 0.79694 0.82634 0.0
H476 H 0.03034 0.66611 0.70094 0.0
H477 H 0.03057 0.64951 0.65688 0.0
H478 H 0.94793 0.70708 0.64888 0.0
H479 H 0.94781 0.72404 0.69253 0.0
Ho480 Ho 0.72148 0.50267 0.25497 0.0
Ho481 Ho 0.75864 0.51163 0.28302 0.0
C482 C 0.7507 0.54378 0.21533 0.0
C483 C 0.68336 0.50579 0.22791 0.0
C484 C 0.67849 0.50477 0.19803 0.0
C485 C 0.67591 0.52635 0.17291 0.0
C486 C 0.66733 0.52636 0.14647 0.0
C487 C 0.66105 0.50488 0.14474 0.0
C488 C 0.66506 0.48277 0.16937 0.0
C489 C 0.67361 0.48276 0.19565 0.0
C490 C 0.77345 0.46493 0.24859 0.0
C491 C 0.72991 0.47001 0.32273 0.0
C492 C 0.79607 0.50998 0.31005 0.0
C493 C 0.80141 0.50991 0.34013 0.0
C494 C 0.80373 0.48801 0.36481 0.0
C495 C 0.81247 0.48723 0.39151 0.0
C496 C 0.81911 0.50827 0.39395 0.0
C497 C 0.81549 0.53065 0.36968 0.0
C498 C 0.80679 0.53142 0.34315 0.0
C499 C 0.7067 0.54951 0.28785 0.0
O500 O 0.72907 0.53756 0.22022 0.0
O501 O 0.76907 0.5313 0.23439 0.0
O502 O 0.6995 0.48339 0.24291 0.0
O503 O 0.68679 0.52685 0.23038 0.0
O504 O 0.75149 0.46074 0.25135 0.0
O505 O 0.76721 0.48988 0.24612 0.0
O506 O 0.75088 0.47716 0.31842 0.0
O507 O 0.71193 0.48166 0.30321 0.0
O508 O 0.77822 0.53223 0.29694 0.0
O509 O 0.79448 0.48848 0.30597 0.0
O510 O 0.72862 0.55418 0.28304 0.0
O511 O 0.71301 0.52439 0.29184 0.0
H512 H 0.67956 0.54363 0.17402 0.0
H513 H 0.66474 0.54359 0.12782 0.0
H514 H 0.65996 0.46609 0.16927 0.0
H515 H 0.67519 0.46597 0.21474 0.0
H516 H 0.79965 0.47113 0.36316 0.0
H517 H 0.81479 0.4698 0.40986 0.0
H518 H 0.82089 0.547 0.3703 0.0
H519 H 0.80538 0.54843 0.32438 0.0
Ho520 Ho 0.73361 0.74106 0.9976 0.0
Ho521 Ho 0.74957 0.76847 0.04042 0.0
C522 C 0.68819 0.76883 0.05244 0.0
C523 C 0.72241 0.70821 0.97874 0.0
C524 C 0.69687 0.70405 0.98415 0.0
C525 C 0.69764 0.67801 0.98859 0.0
C526 C 0.67338 0.67402 0.99322 0.0
C527 C 0.64809 0.69609 0.99325 0.0
C528 C 0.6473 0.72208 0.98969 0.0
C529 C 0.67153 0.72602 0.98549 0.0
C530 C 0.72671 0.79362 0.97125 0.0
C531 C 0.79464 0.74141 0.98498 0.0
C532 C 0.75997 0.801 0.06093 0.0
C533 C 0.78351 0.8086 0.05357 0.0
C534 C 0.79929 0.808 0.02448 0.0
C535 C 0.82394 0.81143 0.01914 0.0
C536 C 0.83324 0.81497 0.043 0.0
C537 C 0.81726 0.81572 0.07198 0.0
C538 C 0.79256 0.81258 0.07719 0.0
C539 C 0.75584 0.71609 0.06708 0.0
O540 O 0.69506 0.75387 0.03141 0.0
O541 O 0.70471 0.77862 0.05766 0.0
O542 O 0.7217 0.73151 0.96214 0.0
O543 O 0.73478 0.70097 1.00269 0.0
O544 O 0.72081 0.7782 0.95989 0.0
O545 O 0.73465 0.77993 0.99664 0.0
O546 O 0.78735 0.75708 1.00534 0.0
O547 O 0.77863 0.73055 0.98074 0.0
O548 O 0.76575 0.77572 0.07397 0.0
O549 O 0.74421 0.80925 0.03973 0.0
O550 O 0.76147 0.73156 0.07859 0.0
O551 O 0.74828 0.72971 0.04151 0.0
H552 H 0.71699 0.66085 0.98799 0.0
H553 H 0.67446 0.6538 0.99555 0.0
H554 H 0.628 0.73932 0.98972 0.0
H555 H 0.67046 0.74628 0.98279 0.0
H556 H 0.79289 0.8043 1.00613 0.0
H557 H 0.83589 0.81094 0.9966 0.0
H558 H 0.82373 0.81905 0.09055 0.0
H559 H 0.78082 0.81262 0.09987 0.0
Ho560 Ho 0.47075 1.00044 0.54652 0.0
Ho561 Ho 0.51249 0.01121 0.49222 0.0
C562 C 0.51008 0.95445 0.50534 0.0
C563 C 0.43422 0.98389 0.58043 0.0
C564 C 0.42807 0.96142 0.57778 0.0
C565 C 0.41938 0.96203 0.55106 0.0
C566 C 0.41899 0.93886 0.54578 0.0
C567 C 0.42742 0.91449 0.56702 0.0
C568 C 0.43508 0.91412 0.59433 0.0
C569 C 0.43528 0.93741 0.5997 0.0
C570 C 0.51692 0.99587 0.56225 0.0
C571 C 0.476 0.05598 0.53511 0.0
C572 C 0.5475 0.02862 0.45573 0.0
C573 C 0.55497 0.05048 0.4574 0.0
C574 C 0.56261 0.05077 0.48436 0.0
C575 C 0.56493 0.07361 0.48792 0.0
C576 C 0.55931 0.0968 0.46471 0.0
C577 C 0.55226 0.09628 0.43742 0.0
C578 C 0.55026 0.07326 0.43376 0.0
C579 C 0.46614 0.01484 0.47746 0.0
O580 O 0.48702 0.96449 0.52362 0.0
O581 O 0.5265 0.96748 0.49326 0.0
O582 O 0.45832 0.97655 0.58813 0.0
O583 O 0.42839 1.00521 0.55834 0.0
O584 O 0.49317 1.00394 0.57882 0.0
O585 O 0.51547 0.9884 0.53928 0.0
O586 O 0.49884 0.04531 0.51696 0.0
O587 O 0.4584 0.04413 0.54633 0.0
O588 O 0.52238 0.0367 0.45062 0.0
O589 O 0.55457 0.00677 0.47698 0.0
O590 O 0.48991 1.00601 0.46123 0.0
O591 O 0.4678 0.02312 0.4996 0.0
H592 H 0.41372 0.98012 0.53368 0.0
H593 H 0.41219 0.94007 0.52491 0.0
H594 H 0.44168 0.89565 0.61115 0.0
H595 H 0.4423 0.93635 0.62036 0.0
H596 H 0.56601 0.0337 0.50315 0.0
H597 H 0.57106 0.07304 0.50894 0.0
H598 H 0.54762 0.11387 0.41917 0.0
H599 H 0.54391 0.07363 0.41296 0.0
Ho600 Ho 0.47071 0.50147 0.04555 0.0
Ho601 Ho 0.51337 0.50957 0.99047 0.0
C602 C 0.50815 0.45384 1.00599 0.0
C603 C 0.43236 0.48729 0.07825 0.0
C604 C 0.42498 0.46607 0.07397 0.0
C605 C 0.41041 0.47101 0.05008 0.0
C606 C 0.40881 0.44975 0.04143 0.0
C607 C 0.42152 0.42312 0.05668 0.0
C608 C 0.43487 0.41828 0.08156 0.0
C609 C 0.43649 0.43956 0.0902 0.0
C610 C 0.51781 0.49538 0.06047 0.0
C611 C 0.47844 0.55579 0.03244 0.0
C612 C 0.54957 0.52473 0.95306 0.0
C613 C 0.55779 0.54648 0.95339 0.0
C614 C 0.56463 0.54788 0.9803 0.0
C615 C 0.56652 0.5712 0.98293 0.0
C616 C 0.56138 0.59369 0.95883 0.0
C617 C 0.55597 0.59185 0.93129 0.0
C618 C 0.55417 0.56837 0.92861 0.0
C619 C 0.46589 0.51491 0.9769 0.0
O620 O 0.48538 0.46508 0.02401 0.0
O621 O 0.52543 0.4658 0.99309 0.0
O622 O 0.45638 0.47866 0.08687 0.0
O623 O 0.42767 0.50896 0.05659 0.0
O624 O 0.49424 0.50411 0.07731 0.0
O625 O 0.5156 0.48782 0.03798 0.0
O626 O 0.5008 0.5444 1.01395 0.0
O627 O 0.46023 0.5448 0.04444 0.0
O628 O 0.52445 0.53316 0.94776 0.0
O629 O 0.55586 0.5036 0.97535 0.0
O630 O 0.48941 0.50471 0.9607 0.0
O631 O 0.46862 0.52329 0.99831 0.0
H632 H 0.40103 0.4912 0.0373 0.0
H633 H 0.39766 0.45421 0.02275 0.0
H634 H 0.44483 0.39796 0.09379 0.0
H635 H 0.44788 0.43507 0.10868 0.0
H636 H 0.56729 0.5315 0.99991 0.0
H637 H 0.57147 0.5718 1.00414 0.0
H638 H 0.5521 0.60886 0.91231 0.0
H639 H 0.54859 0.56781 0.90777 0.0
H640 H 0.02602 0.06598 0.02906 0.0
H641 H 0.93799 0.09405 0.0502 0.0
H642 H 0.02564 0.09767 0.05655 0.0
H643 H 0.93782 0.12681 0.07666 0.0
H644 H 0.95122 0.19649 0.0993 0.0
H645 H 0.9511 0.16837 0.06691 0.0
H646 H 0.01385 0.10015 0.11257 0.0
H647 H 0.01341 0.12776 0.14565 0.0
C648 C 0.00648 0.07945 0.03875 0.0
C649 C 0.98194 0.07752 0.03739 0.0
C650 C 0.0064 0.09751 0.05455 0.0
C651 C 0.98181 0.11468 0.06853 0.0
C652 C 0.95708 0.11387 0.06586 0.0
C653 C 0.95717 0.09517 0.05074 0.0
C654 C 0.96495 0.17547 0.10253 0.0
C655 C 0.98225 0.16441 0.12526 0.0
C656 C 0.96484 0.15943 0.08396 0.0
C657 C 0.98234 0.13212 0.08736 0.0
C658 C 0.00029 0.12125 0.10928 0.0
C659 C 0.00017 0.13716 0.1281 0.0
H660 H 0.81009 0.22597 0.42733 0.0
H661 H 0.83863 0.25026 0.49001 0.0
H662 H 0.85101 0.22419 0.39089 0.0
H663 H 0.88004 0.24771 0.45387 0.0
H664 H 0.93265 0.27373 0.36631 0.0
H665 H 0.89497 0.27118 0.40636 0.0
H666 H 0.89885 0.20168 0.37854 0.0
H667 H 0.93604 0.20475 0.33791 0.0
C668 C 0.82529 0.2305 0.43363 0.0
C669 C 0.82087 0.23827 0.46176 0.0
C670 C 0.84896 0.22935 0.41267 0.0
C671 C 0.86906 0.23587 0.41917 0.0
C672 C 0.86496 0.24294 0.4477 0.0
C673 C 0.84123 0.24416 0.46864 0.0
C674 C 0.92572 0.25769 0.36892 0.0
C675 C 0.93748 0.2395 0.34869 0.0
C676 C 0.90406 0.25614 0.39208 0.0
C677 C 0.89352 0.2363 0.39581 0.0
C678 C 0.90593 0.21757 0.37616 0.0
C679 C 0.92751 0.21919 0.35293 0.0
H680 H 0.77753 0.07479 0.71247 0.0
H681 H 0.72692 0.06193 0.66415 0.0
H682 H 0.77756 0.11408 0.67379 0.0
H683 H 0.7279 0.10101 0.62412 0.0
H684 H 0.71338 0.19052 0.57345 0.0
H685 H 0.71331 0.14839 0.60834 0.0
H686 H 0.79425 0.13038 0.62579 0.0
H687 H 0.79334 0.1727 0.59276 0.0
C688 C 0.76678 0.07999 0.69323 0.0
C689 C 0.75246 0.06471 0.69161 0.0
C690 C 0.76692 0.10271 0.67061 0.0
C691 C 0.75305 0.11106 0.64502 0.0
C692 C 0.73874 0.09567 0.6433 0.0
C693 C 0.7384 0.07295 0.66624 0.0
C694 C 0.7313 0.1772 0.58435 0.0
C695 C 0.75341 0.185 0.58019 0.0
C696 C 0.7313 0.15295 0.60456 0.0
C697 C 0.75355 0.13575 0.62089 0.0
C698 C 0.77622 0.14312 0.61491 0.0
C699 C 0.77594 0.16737 0.5954 0.0
H700 H 0.97421 0.9663 0.95685 0.0
H701 H 0.91803 0.04309 0.97946 0.0
H702 H 0.93689 0.95857 0.9467 0.0
H703 H 0.88048 0.03647 0.96682 0.0
H704 H 0.81557 0.01392 0.94986 0.0
H705 H 0.85053 0.01252 0.97586 0.0
H706 H 0.9129 0.97745 0.90432 0.0
H707 H 0.87841 0.97859 0.8789 0.0
C708 C 0.95373 0.9815 0.95978 0.0
C709 C 0.94893 1.00542 0.96856 0.0
C710 C 0.93234 0.97717 0.95375 0.0
C711 C 0.90577 0.99717 0.95515 0.0
C712 C 0.90068 0.02059 0.96558 0.0
C713 C 0.92213 0.02454 0.97257 0.0
C714 C 0.83684 1.00552 0.94006 0.0
C715 C 0.84421 0.99634 0.91231 0.0
C716 C 0.85682 1.00481 0.95488 0.0
C717 C 0.88453 0.99495 0.94219 0.0
C718 C 0.89186 0.98468 0.91519 0.0
C719 C 0.872 0.9853 0.90053 0.0
H720 H 0.01815 0.02432 0.09735 0.0
H721 H 0.07202 0.9757 0.03137 0.0
H722 H 0.05599 0.03087 0.10746 0.0
H723 H 0.11037 0.98321 0.04049 0.0
H724 H 0.17177 0.96867 0.10573 0.0
H725 H 0.13809 0.96922 0.07914 0.0
H726 H 0.08778 0.05116 0.09035 0.0
H727 H 0.12023 0.04973 0.11938 0.0
C728 C 0.03817 0.01523 0.08472 0.0
C729 C 0.04221 0.99941 0.06364 0.0
C730 C 0.05989 0.01939 0.09012 0.0
C731 C 0.08634 0.00786 0.07454 0.0
C732 C 0.09032 0.99231 0.05301 0.0
C733 C 0.0684 0.98809 0.04764 0.0
C734 C 0.15362 0.9869 0.10233 0.0
C735 C 0.14828 0.00874 0.11581 0.0
C736 C 0.13442 0.98736 0.08663 0.0
C737 C 0.10971 0.00991 0.08351 0.0
C738 C 0.10613 0.03306 0.09337 0.0
C739 C 0.12505 0.0324 0.10963 0.0
H740 H 0.96624 0.43294 0.5198 0.0
H741 H 0.04406 0.43037 0.46684 0.0
H742 H 0.96611 0.40146 0.49229 0.0
H743 H 0.04356 0.39883 0.43939 0.0
H744 H 0.04062 0.32666 0.41221 0.0
H745 H 0.04367 0.35201 0.44603 0.0
H746 H 0.96052 0.40789 0.43732 0.0
H747 H 0.95735 0.38241 0.40374 0.0
C748 C 0.98359 0.42531 0.50276 0.0
C749 C 0.00513 0.43438 0.49538 0.0
C750 C 0.98328 0.40748 0.48687 0.0
C751 C 0.00451 0.39811 0.46348 0.0
C752 C 0.02691 0.40575 0.45737 0.0
C753 C 0.02717 0.42381 0.47311 0.0
C754 C 0.02285 0.34411 0.41794 0.0
C755 C -0.00132 0.35251 0.40547 0.0
C756 C 0.02472 0.35873 0.43703 0.0
C757 C 0.00236 0.38185 0.4443 0.0
C758 C 0.978 0.38996 0.43234 0.0
C759 C 0.97623 0.37551 0.41298 0.0
H760 H 0.65982 0.23486 0.56834 0.0
H761 H 0.65938 0.30584 0.58897 0.0
H762 H 0.61871 0.23836 0.60484 0.0
H763 H 0.61718 0.31046 0.62431 0.0
H764 H 0.56034 0.29409 0.71094 0.0
H765 H 0.59893 0.29386 0.67168 0.0
H766 H 0.57235 0.25892 0.61821 0.0
H767 H 0.53447 0.25771 0.65874 0.0
C768 C 0.65066 0.25154 0.58034 0.0
C769 C 0.66304 0.27002 0.57574 0.0
C770 C 0.62678 0.25371 0.60125 0.0
C771 C 0.61418 0.27473 0.61791 0.0
C772 C 0.62633 0.29361 0.61264 0.0
C773 C 0.65053 0.29112 0.59211 0.0
C774 C 0.56247 0.28665 0.69064 0.0
C775 C 0.54415 0.27594 0.68811 0.0
C776 C 0.58473 0.28661 0.66785 0.0
C777 C 0.58924 0.27628 0.6414 0.0
C778 C 0.5702 0.2665 0.63838 0.0
C779 C 0.54817 0.26608 0.66153 0.0
H780 H 0.68793 0.94929 0.8432 0.0
H781 H 0.7671 0.93285 0.86392 0.0
H782 H 0.68566 0.91033 0.88171 0.0
H783 H 0.76559 0.89281 0.9017 0.0
H784 H 0.74963 0.8268 0.98094 0.0
H785 H 0.74904 0.8702 0.94892 0.0
H786 H 0.7024 0.86442 0.88915 0.0
H787 H 0.70202 0.82253 0.92153 0.0
C788 C 0.70493 0.93734 0.85601 0.0
C789 C 0.7277 0.94441 0.85018 0.0
C790 C 0.70381 0.91461 0.87809 0.0
C791 C 0.72568 0.89759 0.89489 0.0
C792 C 0.74816 0.90519 0.8897 0.0
C793 C 0.74908 0.92827 0.86783 0.0
C794 C 0.73869 0.83523 0.96143 0.0
C795 C 0.72547 0.82118 0.95433 0.0
C796 C 0.73865 0.86004 0.94264 0.0
C797 C 0.72542 0.87149 0.91616 0.0
C798 C 0.71222 0.8572 0.90948 0.0
C799 C 0.71219 0.83274 0.92814 0.0
H800 H 0.1565 0.30872 0.08417 0.0
H801 H 0.15884 0.2375 0.06208 0.0
H802 H 0.11478 0.31187 0.11985 0.0
H803 H 0.11827 0.23953 0.0989 0.0
H804 H 0.03538 0.25517 0.15592 0.0
H805 H 0.07209 0.25807 0.11439 0.0
H806 H 0.0983 0.29381 0.16731 0.0
H807 H 0.06081 0.29235 0.20756 0.0
C808 C 0.14812 0.2937 0.08693 0.0
C809 C 0.16114 0.27289 0.07013 0.0
C810 C 0.12422 0.2953 0.10772 0.0
C811 C 0.11288 0.2758 0.11289 0.0
C812 C 0.12575 0.25529 0.09551 0.0
C813 C 0.14931 0.254 0.07433 0.0
C814 C 0.04878 0.26401 0.1584 0.0
C815 C 0.04495 0.27365 0.18509 0.0
C816 C 0.07013 0.26545 0.13465 0.0
C817 C 0.08865 0.27607 0.13714 0.0
C818 C 0.08441 0.28601 0.16382 0.0
C819 C 0.06282 0.28503 0.18721 0.0
H820 H 0.69413 0.44449 0.33451 0.0
H821 H 0.76102 0.44335 0.36989 0.0
H822 H 0.69284 0.4056 0.3739 0.0
H823 H 0.75919 0.40494 0.4101 0.0
H824 H 0.76783 0.31815 0.45986 0.0
H825 H 0.76886 0.35864 0.42272 0.0
H826 H 0.68154 0.38803 0.42469 0.0
H827 H 0.6809 0.3472 0.46079 0.0
C828 C 0.70832 0.43627 0.351 0.0
C829 C 0.7276 0.44743 0.34879 0.0
C830 C 0.70753 0.41381 0.37391 0.0
C831 C 0.72588 0.40163 0.39575 0.0
C832 C 0.74492 0.41312 0.39373 0.0
C833 C 0.74581 0.43551 0.37067 0.0
C834 C 0.74882 0.3334 0.45257 0.0
C835 C 0.72429 0.32921 0.46341 0.0
C836 C 0.74934 0.35684 0.43117 0.0
C837 C 0.72531 0.37701 0.41999 0.0
C838 C 0.70069 0.37302 0.43179 0.0
C839 C 0.70023 0.34956 0.45294 0.0
H840 H 0.51718 0.02042 0.605 0.0
H841 H 0.56961 0.97942 0.53219 0.0
H842 H 0.555 0.02608 0.61629 0.0
H843 H 0.60781 0.98661 0.54213 0.0
H844 H 0.67309 0.9687 0.60289 0.0
H845 H 0.63803 0.9709 0.57733 0.0
H846 H 0.58492 0.04753 0.60315 0.0
H847 H 0.61888 0.04381 0.63156 0.0
C848 C 0.53687 0.0129 0.59108 0.0
C849 C 0.54051 0.99942 0.56775 0.0
C850 C 0.55859 0.0166 0.59719 0.0
C851 C 0.58462 0.00717 0.5799 0.0
C852 C 0.58817 0.99397 0.55612 0.0
C853 C 0.56631 0.98996 0.55025 0.0
C854 C 0.65393 0.98606 0.60311 0.0
C855 C 0.64844 1.00545 0.62049 0.0
C856 C 0.63388 0.98756 0.58793 0.0
C857 C 0.60811 0.00891 0.58907 0.0
C858 C 0.60408 0.03016 0.6029 0.0
C859 C 0.62385 0.02829 0.61879 0.0
H860 H 0.05907 0.91594 0.97886 0.0
H861 H 0.97496 0.92763 1.01504 0.0
H862 H 0.06335 0.87987 0.95552 0.0
H863 H 0.97883 0.89274 0.99042 0.0
H864 H 0.99132 0.82476 0.9484 0.0
H865 H -0.00485 0.84842 0.9836 0.0
H866 H 0.04811 0.87943 0.91237 0.0
H867 H 0.04494 0.85516 0.87798 0.0
C868 C 0.04161 0.91058 0.98221 0.0
C869 C 0.01658 0.92499 0.99842 0.0
C870 C 0.04397 0.89005 0.96857 0.0
C871 C 0.02123 0.88374 0.97043 0.0
C872 C -0.00318 0.89683 0.98861 0.0
C873 C -0.00542 0.91703 1.00267 0.0
C874 C 0.00408 0.83634 0.94056 0.0
C875 C 0.01786 0.83808 0.91047 0.0
C876 C 0.00623 0.84999 0.96066 0.0
C877 C 0.02191 0.86599 0.95093 0.0
C878 C 0.03635 0.86691 0.92107 0.0
C879 C 0.03445 0.85304 0.90119 0.0
H880 H 0.06491 0.09194 0.02212 0.0
H881 H 0.07942 0.12698 0.9267 0.0
H882 H 0.07122 0.12747 0.03663 0.0
H883 H 0.08736 0.1615 0.94084 0.0
H884 H 0.14426 0.15138 0.03516 0.0
H885 H 0.11276 0.13174 0.03395 0.0
H886 H 0.07553 0.19902 0.96349 0.0
H887 H 0.1081 0.21808 0.96407 0.0
C888 C 0.069 0.10754 1.00431 0.0
C889 C 0.07193 0.10662 0.97335 0.0
C890 C 0.07268 0.12784 1.01257 0.0
C891 C 0.08018 0.14715 0.98996 0.0
C892 C 0.08122 0.14725 0.95897 0.0
C893 C 0.07698 0.12725 0.95076 0.0
C894 C 0.12865 0.16244 0.02029 0.0
C895 C 0.12894 0.18574 0.99914 0.0
C896 C 0.11042 0.15129 0.01963 0.0
C897 C 0.09211 0.16345 0.99793 0.0
C898 C 0.08997 0.18878 0.97979 0.0
C899 C 0.10847 0.19973 0.98017 0.0
H900 H 0.69542 0.59705 0.2486 0.0
H901 H 0.65601 0.55233 0.32106 0.0
H902 H 0.65313 0.63672 0.24748 0.0
H903 H 0.6132 0.59295 0.32102 0.0
H904 H 0.53518 0.67268 0.29642 0.0
H905 H 0.5739 0.62874 0.29516 0.0
H906 H 0.63003 0.66811 0.28002 0.0
H907 H 0.59212 0.71113 0.28052 0.0
C908 C 0.67754 0.5957 0.2643 0.0
C909 C 0.6792 0.57162 0.28516 0.0
C910 C 0.65322 0.6186 0.26386 0.0
C911 C 0.62971 0.61855 0.28481 0.0
C912 C 0.63083 0.59391 0.3046 0.0
C913 C 0.65534 0.5706 0.30468 0.0
C914 C 0.55586 0.67177 0.29286 0.0
C915 C 0.56048 0.69553 0.2884 0.0
C916 C 0.57807 0.64658 0.29222 0.0
C917 C 0.60534 0.6447 0.28694 0.0
C918 C 0.60956 0.66855 0.28326 0.0
C919 C 0.58764 0.6934 0.28383 0.0
H920 H 0.37988 0.78492 0.57566 0.0
H921 H 0.35495 0.84839 0.49733 0.0
H922 H 0.41518 0.79993 0.57791 0.0
H923 H 0.38949 0.86387 0.49992 0.0
H924 H 0.44247 0.89732 0.51254 0.0
H925 H 0.43453 0.86143 0.50105 0.0
H926 H 0.4029 0.84108 0.59619 0.0
H927 H 0.41138 0.87634 0.60772 0.0
C928 C 0.38267 0.80143 0.55824 0.0
C929 C 0.36435 0.81606 0.53683 0.0
C930 C 0.40276 0.81009 0.5596 0.0
C931 C 0.40464 0.83347 0.53962 0.0
C932 C 0.38863 0.8458 0.51572 0.0
C933 C 0.36858 0.83717 0.51439 0.0
C934 C 0.43452 0.88468 0.53113 0.0
C935 C 0.42718 0.88992 0.56098 0.0
C936 C 0.43008 0.86407 0.52454 0.0
C937 C 0.41779 0.84864 0.5476 0.0
C938 C 0.41274 0.85233 0.57791 0.0
C939 C 0.41741 0.87276 0.58453 0.0
H940 H 0.08643 0.70662 0.8085 0.0
H941 H 0.03982 0.67242 0.78184 0.0
H942 H 0.12537 0.6641 0.81051 0.0
H943 H 0.07997 0.6295 0.782 0.0
H944 H 0.15786 0.5493 0.80615 0.0
H945 H 0.1141 0.58877 0.80893 0.0
H946 H 0.15826 0.64134 0.77423 0.0
H947 H 0.20095 0.60273 0.77268 0.0
C948 C 0.08449 0.68993 0.80296 0.0
C949 C 0.06002 0.6932 0.79452 0.0
C950 C 0.10708 0.66543 0.8038 0.0
C951 C 0.10644 0.64328 0.79543 0.0
C952 C 0.08145 0.64601 0.78845 0.0
C953 C 0.05841 0.67068 0.7882 0.0
C954 C 0.15801 0.56936 0.79927 0.0
C955 C 0.18302 0.57277 0.78976 0.0
C956 C 0.13294 0.59203 0.80071 0.0
C957 C 0.13241 0.61852 0.79256 0.0
C958 C 0.15753 0.62152 0.78185 0.0
C959 C 0.18224 0.59917 0.78072 0.0
H960 H 0.87495 0.28838 0.58039 0.0
H961 H 0.83918 0.3543 0.50836 0.0
H962 H 0.90693 0.30804 0.58123 0.0
H963 H 0.87043 0.3743 0.50955 0.0
H964 H 0.90315 0.38171 0.61514 0.0
H965 H 0.89389 0.34725 0.60262 0.0
H966 H 0.91371 0.37676 0.50621 0.0
H967 H 0.92198 0.41196 0.5189 0.0
C968 C 0.87447 0.30671 0.56421 0.0
C969 C 0.85429 0.32028 0.54484 0.0
C970 C 0.8927 0.31795 0.56469 0.0
C971 C 0.89072 0.34305 0.54604 0.0
C972 C 0.8726 0.3549 0.52418 0.0
C973 C 0.85455 0.34353 0.52354 0.0
C974 C 0.90619 0.38042 0.59132 0.0
C975 C 0.91295 0.39969 0.56797 0.0
C976 C 0.90114 0.36049 0.58409 0.0
C977 C 0.90293 0.35937 0.55335 0.0
C978 C 0.9118 0.37736 0.53007 0.0
C979 C 0.91651 0.3975 0.53733 0.0
H980 H 0.32921 0.9598 0.21759 0.0
H981 H 0.28976 0.91417 0.28868 0.0
H982 H 0.37233 0.91942 0.21788 0.0
H983 H 0.33223 0.87477 0.28988 0.0
H984 H 0.39378 0.8011 0.25638 0.0
H985 H 0.35581 0.84419 0.25585 0.0
H986 H 0.41143 0.88326 0.24546 0.0
H987 H 0.45026 0.83925 0.24519 0.0
C988 C 0.32991 0.94139 0.23372 0.0
C989 C 0.30596 0.94005 0.25278 0.0
C990 C 0.35459 0.91824 0.23392 0.0
C991 C 0.35573 0.89344 0.25333 0.0
C992 C 0.33212 0.89305 0.27383 0.0
C993 C 0.30768 0.9158 0.27332 0.0
C994 C 0.39815 0.81878 0.25387 0.0
C995 C 0.42518 0.81653 0.25105 0.0
C996 C 0.37619 0.84366 0.25381 0.0
C997 C 0.38024 0.86741 0.25127 0.0
C998 C 0.40742 0.86546 0.24753 0.0
C999 C 0.42968 0.84025 0.24747 0.0
H1000 H 0.28538 0.41625 0.73924 0.0
H1001 H 0.32478 0.46537 0.74924 0.0
H1002 H 0.32793 0.37719 0.74199 0.0
H1003 H 0.36809 0.42533 0.75292 0.0
H1004 H 0.4458 0.34471 0.73025 0.0
H1005 H 0.40637 0.38849 0.72588 0.0
H1006 H 0.35385 0.34891 0.78284 0.0
H1007 H 0.39241 0.30598 0.78647 0.0
C1008 C 0.30322 0.41876 0.742 0.0
C1009 C 0.30143 0.444 0.74437 0.0
C1010 C 0.32774 0.39616 0.74382 0.0
C1011 C 0.35152 0.39774 0.74843 0.0
C1012 C 0.35022 0.42327 0.74948 0.0
C1013 C 0.32539 0.4462 0.74748 0.0
C1014 C 0.42582 0.34559 0.74202 0.0
C1015 C 0.42218 0.32175 0.75826 0.0
C1016 C 0.40323 0.37065 0.73957 0.0
C1017 C 0.37665 0.37227 0.75337 0.0
C1018 C 0.37368 0.34853 0.77105 0.0
C1019 C 0.39594 0.32379 0.77329 0.0
H1020 H 0.17069 0.79209 0.60637 0.0
H1021 H 0.14722 0.75791 0.54913 0.0
H1022 H 0.13001 0.79338 0.64315 0.0
H1023 H 0.10612 0.75999 0.5854 0.0
H1024 H 0.05514 0.73498 0.67419 0.0
H1025 H 0.09236 0.73814 0.63401 0.0
H1026 H 0.0819 0.81272 0.65564 0.0
H1027 H 0.04508 0.80903 0.69668 0.0
C1028 C 0.15664 0.78528 0.60128 0.0
C1029 C 0.1625 0.7748 0.57466 0.0
C1030 C 0.13311 0.78613 0.62244 0.0
C1031 C 0.11458 0.77664 0.6176 0.0
C1032 C 0.12002 0.767 0.59042 0.0
C1033 C 0.14362 0.76601 0.56937 0.0
C1034 C 0.06052 0.75224 0.67026 0.0
C1035 C 0.04699 0.77172 0.68889 0.0
C1036 C 0.08192 0.75414 0.64695 0.0
C1037 C 0.09046 0.77567 0.64134 0.0
C1038 C 0.07636 0.79558 0.65944 0.0
C1039 C 0.05499 0.79361 0.6829 0.0
H1040 H 0.2019 0.93869 0.32653 0.0
H1041 H 0.25747 0.94618 0.37278 0.0
H1042 H 0.20047 0.89974 0.36502 0.0
H1043 H 0.25493 0.90774 0.41283 0.0
H1044 H 0.26515 0.82033 0.46544 0.0
H1045 H 0.26622 0.862 0.43055 0.0
H1046 H 0.18543 0.88116 0.41161 0.0
H1047 H 0.18557 0.83902 0.4445 0.0
C1048 C 0.2134 0.93243 0.34537 0.0
C1049 C 0.22959 0.94608 0.34634 0.0
C1050 C 0.21246 0.90986 0.36795 0.0
C1051 C 0.22728 0.90007 0.39301 0.0
C1052 C 0.24333 0.914 0.39412 0.0
C1053 C 0.2446 0.93643 0.37113 0.0
C1054 C 0.24745 0.83382 0.45424 0.0
C1055 C 0.22516 0.82632 0.45807 0.0
C1056 C 0.24802 0.85787 0.43395 0.0
C1057 C 0.22614 0.87537 0.41711 0.0
C1058 C 0.20328 0.86829 0.42272 0.0
C1059 C 0.20304 0.84413 0.44228 0.0
H1060 H 0.00437 0.62288 0.65644 0.0
H1061 H 0.96799 0.69824 0.59518 0.0
H1062 H -0.00393 0.599 0.62523 0.0
H1063 H 0.95974 0.6739 0.56363 0.0
H1064 H 0.99026 0.59863 0.50764 0.0
H1065 H -0.00735 0.63138 0.53205 0.0
H1066 H 0.9467 0.6043 0.61493 0.0
H1067 H 0.94313 0.57257 0.59047 0.0
C1068 C -0.00491 0.6343 0.63596 0.0
C1069 C 0.98689 0.66245 0.62823 0.0
C1070 C 0.99006 0.62064 0.61833 0.0
C1071 C 0.97692 0.63475 0.59242 0.0
C1072 C 0.96975 0.66271 0.58369 0.0
C1073 C 0.97445 0.67654 0.60169 0.0
C1074 C 0.97992 0.60031 0.53075 0.0
C1075 C 0.96656 0.58301 0.5472 0.0
C1076 C 0.98144 0.61892 0.54466 0.0
C1077 C 0.97037 0.61981 0.57544 0.0
C1078 C 0.95555 0.60376 0.59119 0.0
C1079 C 0.95338 0.58574 0.5771 0.0
H1080 H 0.31328 0.72353 0.43213 0.0
H1081 H 0.33711 0.756 0.49095 0.0
H1082 H 0.35475 0.72115 0.39636 0.0
H1083 H 0.37894 0.75291 0.4556 0.0
H1084 H 0.44081 0.70271 0.34557 0.0
H1085 H 0.40317 0.70011 0.38586 0.0
H1086 H 0.39359 0.77464 0.40683 0.0
H1087 H 0.4316 0.7768 0.36724 0.0
C1088 C 0.32754 0.72975 0.43777 0.0
C1089 C 0.32159 0.74006 0.46453 0.0
C1090 C 0.35152 0.72827 0.41721 0.0
C1091 C 0.37037 0.73697 0.4228 0.0
C1092 C 0.3648 0.74647 0.45008 0.0
C1093 C 0.34079 0.74805 0.47057 0.0
C1094 C 0.43095 0.71835 0.35907 0.0
C1095 C 0.43939 0.73996 0.35304 0.0
C1096 C 0.40911 0.71699 0.38207 0.0
C1097 C 0.395 0.73724 0.39969 0.0
C1098 C 0.40402 0.75843 0.39417 0.0
C1099 C 0.42587 0.75974 0.37126 0.0
H1100 H 0.29351 0.06299 0.19562 0.0
H1101 H 0.21803 0.07405 0.16969 0.0
H1102 H 0.29446 0.10289 0.1579 0.0
H1103 H 0.21857 0.11462 0.13224 0.0
H1104 H 0.23655 0.18107 0.05255 0.0
H1105 H 0.23779 0.1373 0.08467 0.0
H1106 H 0.27265 0.14968 0.15158 0.0
H1107 H 0.27182 0.19219 0.11982 0.0
C1108 C 0.27712 0.07379 0.18177 0.0
C1109 C 0.25569 0.06496 0.18609 0.0
C1110 C 0.2775 0.09705 0.1601 0.0
C1111 C 0.25635 0.11272 0.14189 0.0
C1112 C 0.23537 0.10333 0.14543 0.0
C1113 C 0.23503 0.07993 0.16714 0.0
C1114 C 0.2447 0.17423 0.07395 0.0
C1115 C 0.25422 0.19038 0.08326 0.0
C1116 C 0.24528 0.14912 0.09262 0.0
C1117 C 0.25563 0.13933 0.12099 0.0
C1118 C 0.26513 0.15569 0.12986 0.0
C1119 C 0.26444 0.18049 0.11149 0.0
H1120 H 0.8137 0.71921 0.93329 0.0
H1121 H 0.83593 0.75546 0.98932 0.0
H1122 H 0.85458 0.71758 0.89673 0.0
H1123 H 0.87729 0.75298 0.95335 0.0
H1124 H 0.94 0.70146 0.84407 0.0
H1125 H 0.90259 0.69849 0.8846 0.0
H1126 H 0.8917 0.77383 0.90465 0.0
H1127 H 0.92952 0.77624 0.86503 0.0
C1128 C 0.82754 0.72638 0.93818 0.0
C1129 C 0.82128 0.73754 0.96439 0.0
C1130 C 0.85119 0.72536 0.91714 0.0
C1131 C 0.86946 0.7353 0.92171 0.0
C1132 C 0.8636 0.74562 0.9485 0.0
C1133 C 0.83987 0.74683 0.9694 0.0
C1134 C 0.92985 0.71721 0.8574 0.0
C1135 C 0.93797 0.73905 0.85118 0.0
C1136 C 0.90814 0.71565 0.88056 0.0
C1137 C 0.89378 0.73596 0.89812 0.0
C1138 C 0.90234 0.75751 0.89218 0.0
C1139 C 0.92409 0.75898 0.86919 0.0
H1140 H 0.2255 0.57055 0.66403 0.0
H1141 H 0.284 0.57482 0.70876 0.0
H1142 H 0.22812 0.60913 0.6245 0.0
H1143 H 0.2855 0.61412 0.67081 0.0
H1144 H 0.29884 0.67663 0.59233 0.0
H1145 H 0.29917 0.63426 0.62477 0.0
H1146 H 0.21774 0.65424 0.60707 0.0
H1147 H 0.2187 0.69601 0.57259 0.0
C1148 C 0.23899 0.57969 0.66549 0.0
C1149 C 0.25477 0.56909 0.68968 0.0
C1150 C 0.24033 0.60222 0.64278 0.0
C1151 C 0.25716 0.61541 0.64362 0.0
C1152 C 0.27281 0.60465 0.66809 0.0
C1153 C 0.27185 0.58189 0.69036 0.0
C1154 C 0.28127 0.67163 0.59474 0.0
C1155 C 0.25895 0.68967 0.57939 0.0
C1156 C 0.28114 0.64733 0.61405 0.0
C1157 C 0.25817 0.64036 0.61987 0.0
C1158 C 0.23606 0.65819 0.60351 0.0
C1159 C 0.23655 0.68233 0.58343 0.0
H1160 H 0.36258 0.96257 0.41686 0.0
H1161 H 0.31559 0.04656 0.42136 0.0
H1162 H 0.39398 0.96091 0.4475 0.0
H1163 H 0.34839 0.04551 0.44968 0.0
H1164 H 0.41215 0.03817 0.50153 0.0
H1165 H 0.37326 0.03239 0.49093 0.0
H1166 H 0.42874 0.97731 0.43169 0.0
H1167 H 0.46694 0.98236 0.44317 0.0
C1168 C 0.35851 0.98057 0.4249 0.0
C1169 C 0.33692 1.00494 0.41577 0.0
C1170 C 0.37686 0.97973 0.44212 0.0
C1171 C 0.37441 1.00333 0.45008 0.0
C1172 C 0.35118 0.02695 0.44379 0.0
C1173 C 0.33252 0.02766 0.42708 0.0
C1174 C 0.41582 0.02459 0.48663 0.0
C1175 C 0.44242 0.01088 0.47298 0.0
C1176 C 0.39362 0.02133 0.48043 0.0
C1177 C 0.39774 1.00431 0.46048 0.0
C1178 C 0.42461 0.99011 0.44768 0.0
C1179 C 0.4466 0.99334 0.45388 0.0
H1180 H 0.87508 0.79099 0.07704 0.0
H1181 H 0.84735 0.85122 0.99721 0.0
H1182 H 0.90811 0.80952 0.07752 0.0
H1183 H 0.87971 0.87013 0.99796 0.0
H1184 H 0.90086 0.88792 0.10425 0.0
H1185 H 0.89284 0.85187 0.09399 0.0
H1186 H 0.92342 0.87143 0.99827 0.0
H1187 H 0.93104 0.90808 1.0086 0.0
C1188 C 0.87671 0.80767 0.05906 0.0
C1189 C 0.8583 0.82025 0.0376 0.0
C1190 C 0.89555 0.81825 0.05931 0.0
C1191 C 0.89591 0.84174 0.03836 0.0
C1192 C 0.87997 0.85202 1.01446 0.0
C1193 C 0.86129 0.84128 1.01406 0.0
C1194 C 0.90661 0.88409 0.08118 0.0
C1195 C 0.91625 0.90103 0.05717 0.0
C1196 C 0.90224 0.86321 0.07528 0.0
C1197 C 0.90744 0.85882 0.04524 0.0
C1198 C 0.91896 0.87453 0.02157 0.0
C1199 C 0.9232 0.89555 0.02747 0.0
H1200 H 0.60412 0.2318 0.44481 0.0
H1201 H 0.63848 0.16852 0.5199 0.0
H1202 H 0.57199 0.21176 0.44566 0.0
H1203 H 0.60601 0.14908 0.52114 0.0
H1204 H 0.57984 0.13051 0.42155 0.0
H1205 H 0.59025 0.16608 0.42936 0.0
H1206 H 0.55645 0.15295 0.52478 0.0
H1207 H 0.54485 0.11778 0.51678 0.0
C1208 C 0.60438 0.21402 0.46193 0.0
C1209 C 0.62432 0.20126 0.48168 0.0
C1210 C 0.58584 0.20277 0.4626 0.0
C1211 C 0.58684 0.17876 0.48319 0.0
C1212 C 0.6047 0.16773 0.50517 0.0
C1213 C 0.62339 0.17884 0.50436 0.0
C1214 C 0.57364 0.13578 0.44396 0.0
C1215 C 0.56191 0.121 0.46863 0.0
C1216 C 0.57955 0.15626 0.44841 0.0
C1217 C 0.57414 0.16218 0.47768 0.0
C1218 C 0.56088 0.14863 0.50203 0.0
C1219 C 0.55457 0.12834 0.49748 0.0
H1220 H 0.7863 0.41572 0.23777 0.0
H1221 H 0.82355 0.46393 0.25471 0.0
H1222 H 0.82919 0.37699 0.23996 0.0
H1223 H 0.86723 0.42421 0.25766 0.0
H1224 H 0.94599 0.34412 0.23279 0.0
H1225 H 0.90664 0.38798 0.22841 0.0
H1226 H 0.85352 0.34826 0.28307 0.0
H1227 H 0.89202 0.30527 0.28699 0.0
C1228 C 0.80377 0.41813 0.24185 0.0
C1229 C 0.80128 0.44296 0.24642 0.0
C1230 C 0.82846 0.39574 0.24329 0.0
C1231 C 0.85167 0.39713 0.24971 0.0
C1232 C 0.84977 0.42234 0.25278 0.0
C1233 C 0.82476 0.44509 0.25115 0.0
C1234 C 0.9259 0.34497 0.24409 0.0
C1235 C 0.92209 0.32109 0.2598 0.0
C1236 C 0.90337 0.37007 0.24163 0.0
C1237 C 0.8767 0.37166 0.25479 0.0
C1238 C 0.8735 0.34787 0.27189 0.0
C1239 C 0.89571 0.32311 0.27425 0.0
H1240 H 0.09091 0.62036 0.43207 0.0
H1241 H 0.04115 0.61626 0.52075 0.0
H1242 H 0.09976 0.65621 0.44164 0.0
H1243 H 0.05097 0.65179 0.53063 0.0
H1244 H 0.10867 0.7239 0.45476 0.0
H1245 H 0.07657 0.70479 0.45275 0.0
H1246 H 0.09924 0.648 0.53646 0.0
H1247 H 0.13148 0.66688 0.53835 0.0
C1248 C 0.08121 0.62756 0.45324 0.0
C1249 C 0.06529 0.61538 0.47559 0.0
C1250 C 0.08623 0.64819 0.45869 0.0
C1251 C 0.07572 0.65691 0.48672 0.0
C1252 C 0.05911 0.64545 0.50878 0.0
C1253 C 0.05376 0.62498 0.50316 0.0
C1254 C 0.10602 0.70796 0.47328 0.0
C1255 C 0.12305 0.69621 0.49617 0.0
C1256 C 0.08761 0.69719 0.4722 0.0
C1257 C 0.08603 0.67463 0.49406 0.0
C1258 C 0.10015 0.66542 0.51934 0.0
C1259 C 0.11866 0.67617 0.52038 0.0
H1260 H 0.65274 0.05328 0.81601 0.0
H1261 H 0.68606 0.09112 0.73035 0.0
H1262 H 0.61017 0.09399 0.81583 0.0
H1263 H 0.64371 0.13093 0.72929 0.0
H1264 H 0.58998 0.20939 0.76031 0.0
H1265 H 0.62635 0.16563 0.75801 0.0
H1266 H 0.56808 0.12775 0.79298 0.0
H1267 H 0.53105 0.17246 0.79579 0.0
C1268 C 0.65055 0.06987 0.79662 0.0
C1269 C 0.67269 0.0691 0.77321 0.0
C1270 C 0.62621 0.09326 0.79651 0.0
C1271 C 0.62362 0.11615 0.7729 0.0
C1272 C 0.6451 0.11416 0.74834 0.0
C1273 C 0.66934 0.09117 0.74872 0.0
C1274 C 0.58472 0.19183 0.76748 0.0
C1275 C 0.55752 0.19453 0.77823 0.0
C1276 C 0.60568 0.16658 0.7659 0.0
C1277 C 0.60032 0.14292 0.77488 0.0
C1278 C 0.57304 0.14546 0.78588 0.0
C1279 C 0.5518 0.17106 0.78738 0.0
H1280 H 0.79416 0.55971 0.19459 0.0
H1281 H 0.71268 0.57992 0.17765 0.0
H1282 H 0.79685 0.59846 0.15585 0.0
H1283 H 0.71481 0.61948 0.13967 0.0
H1284 H 0.73025 0.68432 0.05964 0.0
H1285 H 0.73078 0.6411 0.0918 0.0
H1286 H 0.7819 0.64446 0.148 0.0
H1287 H 0.78255 0.68614 0.11512 0.0
C1288 C 0.77677 0.57237 0.18257 0.0
C1289 C 0.7532 0.56643 0.18955 0.0
C1290 C 0.77816 0.59498 0.16035 0.0
C1291 C 0.75589 0.61286 0.14447 0.0
C1292 C 0.73258 0.6064 0.15088 0.0
C1293 C 0.7313 0.5836 0.17295 0.0
C1294 C 0.74235 0.67531 0.07817 0.0
C1295 C 0.75695 0.68859 0.08407 0.0
C1296 C 0.74226 0.65064 0.09717 0.0
C1297 C 0.7566 0.63863 0.12281 0.0
C1298 C 0.77116 0.65215 0.12833 0.0
C1299 C 0.77137 0.67646 0.10939 0.0
H1300 H 0.96172 0.48353 0.4478 0.0
H1301 H 0.90704 0.5389 0.50669 0.0
H1302 H 0.92359 0.47763 0.43734 0.0
H1303 H 0.86817 0.53263 0.49664 0.0
H1304 H 0.81265 0.5479 0.42312 0.0
H1305 H 0.84449 0.54654 0.4531 0.0
H1306 H 0.88816 0.4612 0.4544 0.0
H1307 H 0.85752 0.46296 0.42258 0.0
C1308 C 0.94143 0.49425 0.45882 0.0
C1309 C 0.93721 0.51206 0.47761 0.0
C1310 C 0.91951 0.49054 0.45321 0.0
C1311 C 0.89267 0.50464 0.46614 0.0
C1312 C 0.88855 0.52166 0.48607 0.0
C1313 C 0.91071 0.52524 0.49189 0.0
C1314 C 0.82885 0.52876 0.4301 0.0
C1315 C 0.83304 0.50576 0.4195 0.0
C1316 C 0.84693 0.52789 0.44772 0.0
C1317 C 0.8694 0.50391 0.45544 0.0
C1318 C 0.87153 0.4802 0.44806 0.0
C1319 C 0.85368 0.48114 0.43009 0.0
H1320 H 0.12065 0.55229 0.61629 0.0
H1321 H 0.16267 0.46619 0.62246 0.0
H1322 H 0.08948 0.55295 0.58592 0.0
H1323 H 0.1303 0.46658 0.59393 0.0
H1324 H 0.0676 0.47326 0.54087 0.0
H1325 H 0.1072 0.47853 0.55049 0.0
H1326 H 0.05274 0.53847 0.60445 0.0
H1327 H 0.01386 0.53364 0.59422 0.0
C1328 C 0.12374 0.53357 0.61057 0.0
C1329 C 0.14375 0.50905 0.62259 0.0
C1330 C 0.10558 0.5339 0.59345 0.0
C1331 C 0.10677 0.5097 0.58835 0.0
C1332 C 0.12859 0.4856 0.59754 0.0
C1333 C 0.14697 0.48532 0.61431 0.0
C1334 C 0.06432 0.48771 0.55447 0.0
C1335 C 0.03782 0.5028 0.56714 0.0
C1336 C 0.0869 0.49075 0.56001 0.0
C1337 C 0.08323 0.50896 0.57822 0.0
C1338 C 0.05648 0.52463 0.58985 0.0
C1339 C 0.03412 0.52155 0.58441 0.0
H1340 H 0.55367 0.73472 0.17395 0.0
H1341 H 0.544 0.80955 0.19408 0.0
H1342 H 0.59075 0.73733 0.13319 0.0
H1343 H 0.58057 0.81269 0.15253 0.0
H1344 H 0.66933 0.79118 0.10391 0.0
H1345 H 0.62849 0.79315 0.14047 0.0
H1346 H 0.60497 0.75825 0.08405 0.0
H1347 H 0.6464 0.75545 0.04791 0.0
C1348 C 0.55909 0.75203 0.16935 0.0
C1349 C 0.54576 0.77188 0.18753 0.0
C1350 C 0.5804 0.75362 0.14573 0.0
C1351 C 0.58901 0.77518 0.13937 0.0
C1352 C 0.57502 0.79549 0.15694 0.0
C1353 C 0.55378 0.79383 0.1807 0.0
C1354 C 0.65535 0.78419 0.09902 0.0
C1355 C 0.66143 0.77305 0.07284 0.0
C1356 C 0.63169 0.78543 0.12006 0.0
C1357 C 0.61322 0.77573 0.11557 0.0
C1358 C 0.61884 0.76546 0.08879 0.0
C1359 C 0.6426 0.76406 0.06782 0.0
H1360 H 0.62197 0.54956 0.11637 0.0
H1361 H 0.6675 0.46455 0.11662 0.0
H1362 H 0.59086 0.55041 0.08584 0.0
H1363 H 0.63521 0.46508 0.08776 0.0
H1364 H 0.57142 0.47318 0.03438 0.0
H1365 H 0.61062 0.47913 0.04415 0.0
H1366 H 0.55613 0.53266 0.10538 0.0
H1367 H 0.5177 0.52701 0.09536 0.0
C1368 C 0.62587 0.53117 0.10925 0.0
C1369 C 0.64686 0.5068 0.11973 0.0
C1370 C 0.60777 0.53161 0.09202 0.0
C1371 C 0.60999 0.50764 0.08524 0.0
C1372 C 0.63274 0.48389 0.09275 0.0
C1373 C 0.65107 0.48352 0.10969 0.0
C1374 C 0.56803 0.48639 0.04962 0.0
C1375 C 0.54168 0.49939 0.06439 0.0
C1376 C 0.59037 0.48981 0.05523 0.0
C1377 C 0.58655 0.50648 0.07544 0.0
C1378 C 0.55991 0.52009 0.08923 0.0
C1379 C 0.53784 0.51652 0.08385 0.0
H1380 H 0.41196 0.38008 0.09397 0.0
H1381 H 0.4269 0.41542 0.99857 0.0
H1382 H 0.40171 0.34726 0.07972 0.0
H1383 H 0.41683 0.38201 0.98403 0.0
H1384 H 0.33913 0.36177 0.99044 0.0
H1385 H 0.37283 0.37981 0.98916 0.0
H1386 H 0.41248 0.31027 0.056 0.0
H1387 H 0.37784 0.29293 0.05805 0.0
C1388 C 0.41392 0.38029 0.06987 0.0
C1389 C 0.4197 0.40064 0.04745 0.0
C1390 C 0.40823 0.36126 0.06159 0.0
C1391 C 0.40822 0.36211 0.03067 0.0
C1392 C 0.41622 0.38112 1.00806 0.0
C1393 C 0.42178 0.40033 1.01639 0.0
C1394 C 0.35568 0.34993 1.00394 0.0
C1395 C 0.35565 0.32645 0.02493 0.0
C1396 C 0.37514 0.36014 1.00313 0.0
C1397 C 0.39488 0.34682 0.02318 0.0
C1398 C 0.39704 0.32134 0.04094 0.0
C1399 C 0.37732 0.31138 0.04209 0.0
H1400 H 0.09016 0.20702 0.28003 0.0
H1401 H 0.03646 0.17003 0.27572 0.0
H1402 H 0.1283 0.16412 0.28203 0.0
H1403 H 0.07577 0.12613 0.27677 0.0
H1404 H 0.15665 0.04851 0.30894 0.0
H1405 H 0.11298 0.08838 0.30762 0.0
H1406 H 0.15524 0.13636 0.24533 0.0
H1407 H 0.19804 0.09753 0.24751 0.0
C1408 C 0.08644 0.18965 0.27938 0.0
C1409 C 0.06014 0.19221 0.27738 0.0
C1410 C 0.10855 0.16487 0.28034 0.0
C1411 C 0.1055 0.14153 0.27881 0.0
C1412 C 0.07897 0.14365 0.2779 0.0
C1413 C 0.05646 0.16879 0.27723 0.0
C1414 C 0.15635 0.06759 0.29477 0.0
C1415 C 0.18092 0.06999 0.27884 0.0
C1416 C 0.13136 0.09042 0.29395 0.0
C1417 C 0.13057 0.11592 0.27701 0.0
C1418 C 0.15499 0.11746 0.25948 0.0
C1419 C 0.17965 0.09503 0.26061 0.0
H1420 H 0.24673 0.33157 0.98019 0.0
H1421 H 0.20887 0.32201 0.91428 0.0
H1422 H 0.24643 0.37489 0.94778 0.0
H1423 H 0.20871 0.36428 0.88227 0.0
H1424 H 0.19069 0.45086 0.83774 0.0
H1425 H 0.18861 0.41136 0.87565 0.0
H1426 H 0.26628 0.39616 0.89971 0.0
H1427 H 0.26802 0.43621 0.86211 0.0
C1428 C 0.23823 0.33865 0.95903 0.0
C1429 C 0.22783 0.32301 0.95013 0.0
C1430 C 0.23815 0.36353 0.94019 0.0
C1431 C 0.22735 0.37366 0.91209 0.0
C1432 C 0.21672 0.35795 0.90374 0.0
C1433 C 0.21699 0.3333 0.92226 0.0
C1434 C 0.20725 0.43935 0.85126 0.0
C1435 C 0.22954 0.44705 0.84646 0.0
C1436 C 0.2062 0.41634 0.87304 0.0
C1437 C 0.22746 0.39989 0.89091 0.0
C1438 C 0.24935 0.40812 0.88682 0.0
C1439 C 0.25039 0.4312 0.86499 0.0
H1440 H 0.31456 0.21964 0.93295 0.0
H1441 H 0.33539 0.25686 0.98919 0.0
H1442 H 0.35568 0.2179 0.89704 0.0
H1443 H 0.37717 0.25416 0.95386 0.0
H1444 H 0.42875 0.27805 0.86501 0.0
H1445 H 0.39153 0.27497 0.90517 0.0
H1446 H 0.40352 0.19913 0.88546 0.0
H1447 H 0.44021 0.20284 0.84429 0.0
C1448 C 0.32817 0.22697 0.93805 0.0
C1449 C 0.32144 0.2385 0.96404 0.0
C1450 C 0.35198 0.22585 0.9174 0.0
C1451 C 0.36995 0.23601 0.92221 0.0
C1452 C 0.36369 0.24661 0.94888 0.0
C1453 C 0.33974 0.24795 0.96939 0.0
C1454 C 0.42369 0.26053 0.86939 0.0
C1455 C 0.43752 0.24073 0.85122 0.0
C1456 C 0.40232 0.25868 0.89268 0.0
C1457 C 0.3942 0.23683 0.89877 0.0
C1458 C 0.4087 0.21654 0.88123 0.0
C1459 C 0.42998 0.21852 0.85771 0.0
H1460 H 0.41209 0.54588 0.99285 0.0
H1461 H 0.46525 0.47481 0.95568 0.0
H1462 H 0.37221 0.54147 0.98258 0.0
H1463 H 0.42598 0.47015 0.94581 0.0
H1464 H 0.35423 0.45992 0.93559 0.0
H1465 H 0.38395 0.46196 0.96622 0.0
H1466 H 0.35668 0.54804 0.93339 0.0
H1467 H 0.32712 0.54603 0.90295 0.0
C1468 C 0.41513 0.52912 0.98299 0.0
C1469 C 0.44158 0.51095 0.97454 0.0
C1470 C 0.39242 0.52659 0.97711 0.0
C1471 C 0.39594 0.5055 0.96332 0.0
C1472 C 0.42245 0.48644 0.95676 0.0
C1473 C 0.44501 0.48928 0.96207 0.0
C1474 C 0.35416 0.47934 0.93548 0.0
C1475 C 0.33869 0.50273 0.91642 0.0
C1476 C 0.37112 0.48051 0.95304 0.0
C1477 C 0.37299 0.5051 0.95181 0.0
C1478 C 0.35558 0.52882 0.93504 0.0
C1479 C 0.33861 0.52765 0.91751 0.0
H1480 H 0.62909 0.66034 0.03414 0.0
H1481 H 0.61174 0.72197 0.95266 0.0
H1482 H 0.596 0.64493 0.02652 0.0
H1483 H 0.57853 0.70653 0.94492 0.0
H1484 H 0.58566 0.62577 0.91844 0.0
H1485 H 0.59485 0.66111 0.92945 0.0
H1486 H 0.54813 0.65316 0.01938 0.0
H1487 H 0.53846 0.61816 1.00793 0.0
C1488 C 0.61744 0.67114 1.01522 0.0
C1489 C 0.62317 0.69194 0.99368 0.0
C1490 C 0.59834 0.66252 1.01097 0.0
C1491 C 0.58501 0.67439 0.98488 0.0
C1492 C 0.58872 0.697 0.96506 0.0
C1493 C 0.60761 0.70584 0.96955 0.0
C1494 C 0.57655 0.63224 0.94011 0.0
C1495 C 0.56206 0.61873 0.96276 0.0
C1496 C 0.58166 0.65258 0.94638 0.0
C1497 C 0.57243 0.65959 0.97542 0.0
C1498 C 0.5557 0.64789 0.99696 0.0
C1499 C 0.55044 0.62772 0.99056 0.0
H1500 H 0.89427 0.80064 0.76366 0.0
H1501 H 0.95238 0.83803 0.74578 0.0
H1502 H 0.85689 0.84359 0.76773 0.0
H1503 H 0.91422 0.8819 0.75022 0.0
H1504 H 0.82919 0.95824 0.72835 0.0
H1505 H 0.87238 0.91823 0.72555 0.0
H1506 H 0.83774 0.87346 0.80387 0.0
H1507 H 0.79503 0.91267 0.80594 0.0
C1508 C 0.89913 0.81812 0.76059 0.0
C1509 C 0.92644 0.81575 0.75447 0.0
C1510 C 0.87755 0.84287 0.76317 0.0
C1511 C 0.88235 0.86634 0.75983 0.0
C1512 C 0.9097 0.86428 0.75296 0.0
C1513 C 0.93157 0.83917 0.75048 0.0
C1514 C 0.83121 0.94 0.74537 0.0
C1515 C 0.80867 0.93851 0.76725 0.0
C1516 C 0.8559 0.91704 0.74374 0.0
C1517 C 0.85842 0.89229 0.76403 0.0
C1518 C 0.83644 0.89179 0.78729 0.0
C1519 C 0.81195 0.9144 0.78868 0.0
H1520 H 0.43529 0.16586 0.65515 0.0
H1521 H 0.50519 0.17603 0.5941 0.0
H1522 H 0.43401 0.13756 0.62429 0.0
H1523 H 0.50325 0.14872 0.562 0.0
H1524 H 0.51692 0.06894 0.54017 0.0
H1525 H 0.51414 0.10367 0.56396 0.0
H1526 H 0.42594 0.13125 0.58006 0.0
H1527 H 0.42906 0.09484 0.55768 0.0
C1528 C 0.44992 0.16264 0.63455 0.0
C1529 C 0.47039 0.17306 0.62706 0.0
C1530 C 0.44914 0.14645 0.61669 0.0
C1531 C 0.46862 0.14055 0.59063 0.0
C1532 C 0.48828 0.15222 0.58229 0.0
C1533 C 0.48933 0.16804 0.60051 0.0
C1534 C 0.49684 0.08264 0.54835 0.0
C1535 C 0.47314 0.07921 0.54697 0.0
C1536 C 0.49523 0.10281 0.56188 0.0
C1537 C 0.4698 0.12058 0.57387 0.0
C1538 C 0.44595 0.11771 0.57154 0.0
C1539 C 0.44763 0.097 0.55855 0.0
H1540 H 0.49865 0.31795 0.95361 0.0
H1541 H 0.47763 0.38902 0.88206 0.0
H1542 H 0.50593 0.3432 0.98462 0.0
H1543 H 0.48451 0.414 0.91304 0.0
H1544 H 0.53593 0.43821 0.95225 0.0
H1545 H 0.52992 0.40753 0.92837 0.0
H1546 H 0.47964 0.38588 1.01055 0.0
H1547 H 0.48505 0.41717 0.03442 0.0
C1548 C 0.49515 0.33901 0.94475 0.0
C1549 C 0.48773 0.35144 0.9153 0.0
C1550 C 0.49929 0.3534 0.96247 0.0
C1551 C 0.49643 0.38027 0.95079 0.0
C1552 C 0.48744 0.39309 0.92223 0.0
C1553 C 0.48308 0.37887 0.9047 0.0
C1554 C 0.52422 0.42639 0.96559 0.0
C1555 C 0.51076 0.43026 0.9951 0.0
C1556 C 0.52052 0.40908 0.95178 0.0
C1557 C 0.50368 0.395 0.9674 0.0
C1558 C 0.49232 0.39689 0.99791 0.0
C1559 C 0.49557 0.41464 1.01157 0.0
H1560 H 0.47654 0.8909 0.38336 0.0
H1561 H 0.5145 0.81568 0.44403 0.0
H1562 H 0.48385 0.91518 0.41488 0.0
H1563 H 0.52192 0.84037 0.47576 0.0
H1564 H 0.49312 0.91309 0.53342 0.0
H1565 H 0.49108 0.88045 0.50851 0.0
H1566 H 0.53137 0.91253 0.42396 0.0
H1567 H 0.53488 0.94395 0.44895 0.0
C1568 C 0.48594 0.87957 0.40379 0.0
C1569 C 0.49497 0.85135 0.41118 0.0
C1570 C 0.49043 0.89347 0.42159 0.0
C1571 C 0.5039 0.87953 0.44732 0.0
C1572 C 0.51168 0.85147 0.45584 0.0
C1573 C 0.50748 0.83743 0.43771 0.0
C1574 C 0.50233 0.91252 0.50978 0.0
C1575 C 0.51417 0.93103 0.49309 0.0
C1576 C 0.50092 0.89405 0.49555 0.0
C1577 C 0.51033 0.89465 0.46421 0.0
C1578 C 0.52366 0.91198 0.4481 0.0
C1579 C 0.52587 0.92978 0.4625 0.0
H1580 H 0.52025 0.57043 0.03009 0.0
H1581 H 0.43423 0.591 0.06363 0.0
H1582 H 0.5211 0.60168 0.05693 0.0
H1583 H 0.43506 0.62313 0.09022 0.0
H1584 H 0.44497 0.69214 0.11691 0.0
H1585 H 0.44251 0.66577 0.08378 0.0
H1586 H 0.51767 0.60164 0.11034 0.0
H1587 H 0.52007 0.62769 0.14326 0.0
C1588 C 0.50126 0.58225 0.04238 0.0
C1589 C 0.4771 0.5783 0.04455 0.0
C1590 C 0.50185 0.60008 0.05794 0.0
C1591 C 0.47818 0.61493 0.07554 0.0
C1592 C 0.45358 0.61212 0.07654 0.0
C1593 C 0.45311 0.59372 0.0614 0.0
C1594 C 0.46101 0.67246 0.11548 0.0
C1595 C 0.4828 0.66207 0.13259 0.0
C1596 C 0.45955 0.65738 0.09662 0.0
C1597 C 0.47989 0.63168 0.09445 0.0
C1598 C 0.50191 0.62158 0.11108 0.0
C1599 C 0.50336 0.63658 0.12988 0.0
loop_
_geom_bond_atom_site_label_1
_geom_bond_atom_site_label_2
_geom_bond_distance
_geom_bond_site_symmetry_2
_ccdc_geom_bond_type
Ho0 C3 2.811 . S
Ho0 O20 2.323 1_654 S
Ho0 O22 2.378 . S
Ho0 O23 2.524 . S
Ho0 O24 2.381 1_655 S
Ho0 O25 2.669 1_655 S
Ho0 O27 2.346 1_565 S
Ho0 O31 2.305 1_564 S
Ho1 C12 2.811 . S
Ho1 O21 2.346 1_545 S
Ho1 O25 2.305 1_546 S
Ho1 O26 2.316 1_456 S
Ho1 O28 2.378 . S
Ho1 O29 2.524 . S
Ho1 O30 2.381 1_455 S
Ho1 O31 2.669 1_455 S
C2 O20 1.257 . S
C2 O21 1.268 . S
C3 Ho0 2.811 . S
C3 C4 1.488 . S
C3 O22 1.215 . S
C3 O23 1.289 . S
C4 C3 1.488 . S
C4 C5 1.348 . S
C4 C9 1.413 . S
C5 C4 1.348 . S
C5 C6 1.442 . S
C5 H32 0.930 1_554 S
C6 C5 1.442 . S
C6 C7 1.381 . S
C6 H33 0.931 . S
C7 C6 1.381 . S
C7 C8 1.321 . S
C8 C7 1.321 . S
C8 C9 1.403 . S
C8 H34 0.934 . S
C9 C4 1.413 . S
C9 C8 1.403 . S
C9 H35 0.930 . S
C10 O24 1.275 . S
C10 O25 1.256 . S
C11 O26 1.267 . S
C11 O27 1.268 . S
C12 Ho1 2.811 . S
C12 C13 1.488 . S
C12 O28 1.215 . S
C12 O29 1.289 . S
C13 C12 1.488 . S
C13 C14 1.348 . S
C13 C18 1.413 . S
C14 C13 1.348 . S
C14 C15 1.442 . S
C14 H36 0.930 1_556 S
C15 C14 1.442 . S
C15 C16 1.381 . S
C15 H37 0.931 . S
C16 C15 1.381 . S
C16 C17 1.321 . S
C17 C16 1.321 . S
C17 C18 1.403 . S
C17 H38 0.934 . S
C18 C13 1.413 . S
C18 C17 1.403 . S
C18 H39 0.930 . S
C19 O30 1.275 . S
C19 O31 1.256 . S
O20 Ho0 2.323 1_456 S
O20 C2 1.257 . S
O21 Ho1 2.346 1_565 S
O21 C2 1.268 . S
O22 Ho0 2.378 . S
O22 C3 1.215 . S
O23 Ho0 2.524 . S
O23 C3 1.289 . S
O24 Ho0 2.381 1_455 S
O24 C10 1.275 . S
O25 Ho0 2.669 1_455 S
O25 Ho1 2.305 1_564 S
O25 C10 1.256 . S
O26 Ho1 2.316 1_654 S
O26 C11 1.267 . S
O27 Ho0 2.346 1_545 S
O27 C11 1.268 . S
O28 Ho1 2.378 . S
O28 C12 1.215 . S
O29 Ho1 2.524 . S
O29 C12 1.289 . S
O30 Ho1 2.381 1_655 S
O30 C19 1.275 . S
O31 Ho0 2.305 1_546 S
O31 Ho1 2.669 1_655 S
O31 C19 1.256 . S
H32 C5 0.930 1_556 S
H33 C6 0.931 . S
H34 C8 0.934 . S
H35 C9 0.930 . S
H36 C14 0.930 1_554 S
H37 C15 0.931 . S
H38 C17 0.934 . S
H39 C18 0.930 . S
Ho40 C43 2.811 . S
Ho40 O60 2.322 1_455 S
Ho40 O62 2.378 . S
Ho40 O63 2.524 1_455 S
Ho40 O64 2.381 . S
Ho40 O65 2.669 . S
Ho40 O67 2.346 . S
Ho40 O71 2.305 1_455 S
Ho41 C52 2.811 . S
Ho41 O61 2.346 . S
Ho41 O65 2.305 1_655 S
Ho41 O66 2.322 1_655 S
Ho41 O68 2.378 . S
Ho41 O69 2.524 1_655 S
Ho41 O70 2.381 . S
Ho41 O71 2.669 . S
C42 O60 1.259 . S
C42 O61 1.268 . S
C43 Ho40 2.811 . S
C43 C44 1.488 1_455 S
C43 O62 1.215 . S
C43 O63 1.289 1_455 S
C44 C43 1.488 1_655 S
C44 C45 1.348 . S
C44 C49 1.413 1_655 S
C45 C44 1.348 . S
C45 C46 1.442 . S
C45 H72 0.930 . S
C46 C45 1.442 . S
C46 C47 1.381 . S
C46 H73 0.931 . S
C47 C46 1.381 . S
C47 C48 1.321 1_655 S
C48 C47 1.321 1_455 S
C48 C49 1.403 . S
C48 H74 0.934 . S
C49 C44 1.413 1_455 S
C49 C48 1.403 . S
C49 H75 0.930 . S
C50 O64 1.275 . S
C50 O65 1.256 . S
C51 O66 1.259 . S
C51 O67 1.268 . S
C52 Ho41 2.811 . S
C52 C53 1.488 1_655 S
C52 O68 1.215 . S
C52 O69 1.289 1_655 S
C53 C52 1.488 1_455 S
C53 C54 1.348 . S
C53 C58 1.413 1_455 S
C54 C53 1.348 . S
C54 C55 1.442 . S
C54 H76 0.930 . S
C55 C54 1.442 . S
C55 C56 1.381 . S
C55 H77 0.931 . S
C56 C55 1.381 . S
C56 C57 1.321 1_455 S
C57 C56 1.321 1_655 S
C57 C58 1.403 . S
C57 H78 0.934 . S
C58 C53 1.413 1_655 S
C58 C57 1.403 . S
C58 H79 0.930 . S
C59 O70 1.275 . S
C59 O71 1.256 . S
O60 Ho40 2.322 1_655 S
O60 C42 1.259 . S
O61 Ho41 2.346 . S
O61 C42 1.268 . S
O62 Ho40 2.378 . S
O62 C43 1.215 . S
O63 Ho40 2.524 1_655 S
O63 C43 1.289 1_655 S
O64 Ho40 2.381 . S
O64 C50 1.275 . S
O65 Ho40 2.669 . S
O65 Ho41 2.305 1_455 S
O65 C50 1.256 . S
O66 Ho41 2.322 1_455 S
O66 C51 1.259 . S
O67 Ho40 2.346 . S
O67 C51 1.268 . S
O68 Ho41 2.378 . S
O68 C52 1.215 . S
O69 Ho41 2.524 1_455 S
O69 C52 1.289 1_455 S
O70 Ho41 2.381 . S
O70 C59 1.275 . S
O71 Ho40 2.305 1_655 S
O71 Ho41 2.669 . S
O71 C59 1.256 . S
H72 C45 0.930 . S
H73 C46 0.931 . S
H74 C48 0.934 . S
H75 C49 0.930 . S
H76 C54 0.930 . S
H77 C55 0.931 . S
H78 C57 0.934 . S
H79 C58 0.930 . S
Ho80 C83 2.811 . S
Ho80 O100 2.322 . S
Ho80 O102 2.378 . S
Ho80 O103 2.524 . S
Ho80 O104 2.381 . S
Ho80 O105 2.669 . S
Ho80 O107 2.346 . S
Ho80 O111 2.305 . S
Ho81 C92 2.811 . S
Ho81 O101 2.346 . S
Ho81 O105 2.305 . S
Ho81 O106 2.322 . S
Ho81 O108 2.378 . S
Ho81 O109 2.524 . S
Ho81 O110 2.381 . S
Ho81 O111 2.669 . S
C82 O100 1.259 . S
C82 O101 1.268 . S
C83 Ho80 2.811 . S
C83 C84 1.488 . S
C83 O102 1.215 . S
C83 O103 1.289 . S
C84 C83 1.488 . S
C84 C85 1.348 . S
C84 C89 1.413 . S
C85 C84 1.348 . S
C85 C86 1.442 . S
C85 H112 0.930 . S
C86 C85 1.442 . S
C86 C87 1.381 . S
C86 H113 0.931 . S
C87 C86 1.381 . S
C87 C88 1.321 . S
C88 C87 1.321 . S
C88 C89 1.403 . S
C88 H114 0.934 . S
C89 C84 1.413 . S
C89 C88 1.403 . S
C89 H115 0.930 . S
C90 O104 1.275 . S
C90 O105 1.256 . S
C91 O106 1.259 . S
C91 O107 1.268 . S
C92 Ho81 2.811 . S
C92 C93 1.488 . S
C92 O108 1.215 . S
C92 O109 1.289 . S
C93 C92 1.488 . S
C93 C94 1.348 . S
C93 C98 1.413 . S
C94 C93 1.348 . S
C94 C95 1.442 . S
C94 H116 0.930 . S
C95 C94 1.442 . S
C95 C96 1.381 . S
C95 H117 0.931 . S
C96 C95 1.381 . S
C96 C97 1.321 . S
C97 C96 1.321 . S
C97 C98 1.403 . S
C97 H118 0.934 . S
C98 C93 1.413 . S
C98 C97 1.403 . S
C98 H119 0.930 . S
C99 O110 1.275 . S
C99 O111 1.256 . S
O100 Ho80 2.322 . S
O100 C82 1.259 . S
O101 Ho81 2.346 . S
O101 C82 1.268 . S
O102 Ho80 2.378 . S
O102 C83 1.215 . S
O103 Ho80 2.524 . S
O103 C83 1.289 . S
O104 Ho80 2.381 . S
O104 C90 1.275 . S
O105 Ho80 2.669 . S
O105 Ho81 2.305 . S
O105 C90 1.256 . S
O106 Ho81 2.322 . S
O106 C91 1.259 . S
O107 Ho80 2.346 . S
O107 C91 1.268 . S
O108 Ho81 2.378 . S
O108 C92 1.215 . S
O109 Ho81 2.524 . S
O109 C92 1.289 . S
O110 Ho81 2.381 . S
O110 C99 1.275 . S
O111 Ho80 2.305 . S
O111 Ho81 2.669 . S
O111 C99 1.256 . S
H112 C85 0.930 . S
H113 C86 0.931 . S
H114 C88 0.934 . S
H115 C89 0.930 . S
H116 C94 0.930 . S
H117 C95 0.931 . S
H118 C97 0.934 . S
H119 C98 0.930 . S
Ho120 C123 2.811 . S
Ho120 O140 2.322 1_565 S
Ho120 O142 2.378 . S
Ho120 O143 2.524 1_565 S
Ho120 O144 2.381 . S
Ho120 O145 2.669 . S
Ho120 O147 2.346 . S
Ho120 O151 2.305 1_565 S
Ho121 C132 2.811 . S
Ho121 O141 2.346 . S
Ho121 O145 2.305 1_545 S
Ho121 O146 2.322 1_545 S
Ho121 O148 2.378 . S
Ho121 O149 2.524 1_545 S
Ho121 O150 2.381 . S
Ho121 O151 2.669 . S
C122 O140 1.259 . S
C122 O141 1.268 . S
C123 Ho120 2.811 . S
C123 C124 1.488 1_565 S
C123 O142 1.215 . S
C123 O143 1.289 1_565 S
C124 C123 1.488 1_545 S
C124 C125 1.348 . S
C124 C129 1.413 1_545 S
C125 C124 1.348 . S
C125 C126 1.442 . S
C125 H152 0.930 . S
C126 C125 1.442 . S
C126 C127 1.381 . S
C126 H153 0.931 . S
C127 C126 1.381 . S
C127 C128 1.321 1_545 S
C128 C127 1.321 1_565 S
C128 C129 1.403 . S
C128 H154 0.934 . S
C129 C124 1.413 1_565 S
C129 C128 1.403 . S
C129 H155 0.930 . S
C130 O144 1.275 . S
C130 O145 1.256 . S
C131 O146 1.259 . S
C131 O147 1.268 . S
C132 Ho121 2.811 . S
C132 C133 1.488 1_545 S
C132 O148 1.215 . S
C132 O149 1.289 1_545 S
C133 C132 1.488 1_565 S
C133 C134 1.348 . S
C133 C138 1.413 1_565 S
C134 C133 1.348 . S
C134 C135 1.442 . S
C134 H156 0.930 . S
C135 C134 1.442 . S
C135 C136 1.381 . S
C135 H157 0.931 . S
C136 C135 1.381 . S
C136 C137 1.321 1_565 S
C137 C136 1.321 1_545 S
C137 C138 1.403 . S
C137 H158 0.934 . S
C138 C133 1.413 1_545 S
C138 C137 1.403 . S
C138 H159 0.930 . S
C139 O150 1.275 . S
C139 O151 1.256 . S
O140 Ho120 2.322 1_545 S
O140 C122 1.259 . S
O141 Ho121 2.346 . S
O141 C122 1.268 . S
O142 Ho120 2.378 . S
O142 C123 1.215 . S
O143 Ho120 2.524 1_545 S
O143 C123 1.289 1_545 S
O144 Ho120 2.381 . S
O144 C130 1.275 . S
O145 Ho120 2.669 . S
O145 Ho121 2.305 1_565 S
O145 C130 1.256 . S
O146 Ho121 2.322 1_565 S
O146 C131 1.259 . S
O147 Ho120 2.346 . S
O147 C131 1.268 . S
O148 Ho121 2.378 . S
O148 C132 1.215 . S
O149 Ho121 2.524 1_565 S
O149 C132 1.289 1_565 S
O150 Ho121 2.381 . S
O150 C139 1.275 . S
O151 Ho120 2.305 1_545 S
O151 Ho121 2.669 . S
O151 C139 1.256 . S
H152 C125 0.930 . S
H153 C126 0.931 . S
H154 C128 0.934 . S
H155 C129 0.930 . S
H156 C134 0.930 . S
H157 C135 0.931 . S
H158 C137 0.934 . S
H159 C138 0.930 . S
Ho160 C163 2.811 . S
Ho160 O180 2.322 . S
Ho160 O182 2.378 . S
Ho160 O183 2.524 . S
Ho160 O184 2.381 . S
Ho160 O185 2.669 . S
Ho160 O187 2.346 . S
Ho160 O191 2.305 . S
Ho161 C172 2.811 . S
Ho161 O181 2.346 . S
Ho161 O185 2.305 . S
Ho161 O186 2.322 . S
Ho161 O188 2.378 . S
Ho161 O189 2.524 . S
Ho161 O190 2.381 . S
Ho161 O191 2.669 . S
C162 O180 1.259 . S
C162 O181 1.268 . S
C163 Ho160 2.811 . S
C163 C164 1.488 . S
C163 O182 1.215 . S
C163 O183 1.289 . S
C164 C163 1.488 . S
C164 C165 1.348 . S
C164 C169 1.413 . S
C165 C164 1.348 . S
C165 C166 1.442 . S
C165 H192 0.930 . S
C166 C165 1.442 . S
C166 C167 1.381 . S
C166 H193 0.931 . S
C167 C166 1.381 . S
C167 C168 1.321 . S
C168 C167 1.321 . S
C168 C169 1.403 . S
C168 H194 0.934 . S
C169 C164 1.413 . S
C169 C168 1.403 . S
C169 H195 0.930 . S
C170 O184 1.275 . S
C170 O185 1.256 . S
C171 O186 1.259 . S
C171 O187 1.268 . S
C172 Ho161 2.811 . S
C172 C173 1.488 . S
C172 O188 1.215 . S
C172 O189 1.289 . S
C173 C172 1.488 . S
C173 C174 1.348 . S
C173 C178 1.413 . S
C174 C173 1.348 . S
C174 C175 1.442 . S
C174 H196 0.930 . S
C175 C174 1.442 . S
C175 C176 1.381 . S
C175 H197 0.931 . S
C176 C175 1.381 . S
C176 C177 1.321 . S
C177 C176 1.321 . S
C177 C178 1.403 . S
C177 H198 0.934 . S
C178 C173 1.413 . S
C178 C177 1.403 . S
C178 H199 0.930 . S
C179 O190 1.275 . S
C179 O191 1.256 . S
O180 Ho160 2.322 . S
O180 C162 1.259 . S
O181 Ho161 2.346 . S
O181 C162 1.268 . S
O182 Ho160 2.378 . S
O182 C163 1.215 . S
O183 Ho160 2.524 . S
O183 C163 1.289 . S
O184 Ho160 2.381 . S
O184 C170 1.275 . S
O185 Ho160 2.669 . S
O185 Ho161 2.305 . S
O185 C170 1.256 . S
O186 Ho161 2.322 . S
O186 C171 1.259 . S
O187 Ho160 2.346 . S
O187 C171 1.268 . S
O188 Ho161 2.378 . S
O188 C172 1.215 . S
O189 Ho161 2.524 . S
O189 C172 1.289 . S
O190 Ho161 2.381 . S
O190 C179 1.275 . S
O191 Ho160 2.305 . S
O191 Ho161 2.669 . S
O191 C179 1.256 . S
H192 C165 0.930 . S
H193 C166 0.931 . S
H194 C168 0.934 . S
H195 C169 0.930 . S
H196 C174 0.930 . S
H197 C175 0.931 . S
H198 C177 0.934 . S
H199 C178 0.930 . S
Ho200 C203 2.811 . S
Ho200 O220 2.322 . S
Ho200 O222 2.378 . S
Ho200 O223 2.524 . S
Ho200 O224 2.381 . S
Ho200 O225 2.669 . S
Ho200 O227 2.346 . S
Ho200 O231 2.305 . S
Ho201 C212 2.811 . S
Ho201 O221 2.346 . S
Ho201 O225 2.305 . S
Ho201 O226 2.322 . S
Ho201 O228 2.378 . S
Ho201 O229 2.524 . S
Ho201 O230 2.381 . S
Ho201 O231 2.669 . S
C202 O220 1.259 . S
C202 O221 1.268 . S
C203 Ho200 2.811 . S
C203 C204 1.488 . S
C203 O222 1.215 . S
C203 O223 1.289 . S
C204 C203 1.488 . S
C204 C205 1.348 . S
C204 C209 1.413 . S
C205 C204 1.348 . S
C205 C206 1.442 . S
C205 H232 0.930 . S
C206 C205 1.442 . S
C206 C207 1.381 . S
C206 H233 0.931 . S
C207 C206 1.381 . S
C207 C208 1.321 . S
C208 C207 1.321 . S
C208 C209 1.403 . S
C208 H234 0.934 . S
C209 C204 1.413 . S
C209 C208 1.403 . S
C209 H235 0.930 . S
C210 O224 1.275 . S
C210 O225 1.256 . S
C211 O226 1.259 . S
C211 O227 1.268 . S
C212 Ho201 2.811 . S
C212 C213 1.488 . S
C212 O228 1.215 . S
C212 O229 1.289 . S
C213 C212 1.488 . S
C213 C214 1.348 . S
C213 C218 1.413 . S
C214 C213 1.348 . S
C214 C215 1.442 . S
C214 H236 0.930 . S
C215 C214 1.442 . S
C215 C216 1.381 . S
C215 H237 0.931 . S
C216 C215 1.381 . S
C216 C217 1.321 . S
C217 C216 1.321 . S
C217 C218 1.403 . S
C217 H238 0.934 . S
C218 C213 1.413 . S
C218 C217 1.403 . S
C218 H239 0.930 . S
C219 O230 1.275 . S
C219 O231 1.256 . S
O220 Ho200 2.322 . S
O220 C202 1.259 . S
O221 Ho201 2.346 . S
O221 C202 1.268 . S
O222 Ho200 2.378 . S
O222 C203 1.215 . S
O223 Ho200 2.524 . S
O223 C203 1.289 . S
O224 Ho200 2.381 . S
O224 C210 1.275 . S
O225 Ho200 2.669 . S
O225 Ho201 2.305 . S
O225 C210 1.256 . S
O226 Ho201 2.322 . S
O226 C211 1.259 . S
O227 Ho200 2.346 . S
O227 C211 1.268 . S
O228 Ho201 2.378 . S
O228 C212 1.215 . S
O229 Ho201 2.524 . S
O229 C212 1.289 . S
O230 Ho201 2.381 . S
O230 C219 1.275 . S
O231 Ho200 2.305 . S
O231 Ho201 2.669 . S
O231 C219 1.256 . S
H232 C205 0.930 . S
H233 C206 0.931 . S
H234 C208 0.934 . S
H235 C209 0.930 . S
H236 C214 0.930 . S
H237 C215 0.931 . S
H238 C217 0.934 . S
H239 C218 0.930 . S
Ho240 C243 2.811 . S
Ho240 O260 2.322 . S
Ho240 O262 2.378 . S
Ho240 O263 2.524 . S
Ho240 O264 2.381 . S
Ho240 O265 2.669 . S
Ho240 O267 2.346 . S
Ho240 O271 2.305 . S
Ho241 C252 2.811 . S
Ho241 O261 2.346 . S
Ho241 O265 2.305 . S
Ho241 O266 2.322 . S
Ho241 O268 2.378 . S
Ho241 O269 2.524 . S
Ho241 O270 2.381 . S
Ho241 O271 2.669 . S
C242 O260 1.259 . S
C242 O261 1.268 . S
C243 Ho240 2.811 . S
C243 C244 1.488 . S
C243 O262 1.215 . S
C243 O263 1.289 . S
C244 C243 1.488 . S
C244 C245 1.348 . S
C244 C249 1.413 . S
C245 C244 1.348 . S
C245 C246 1.442 . S
C245 H272 0.930 . S
C246 C245 1.442 . S
C246 C247 1.381 . S
C246 H273 0.931 . S
C247 C246 1.381 . S
C247 C248 1.321 . S
C248 C247 1.321 . S
C248 C249 1.403 . S
C248 H274 0.934 . S
C249 C244 1.413 . S
C249 C248 1.403 . S
C249 H275 0.930 . S
C250 O264 1.275 . S
C250 O265 1.256 . S
C251 O266 1.259 . S
C251 O267 1.268 . S
C252 Ho241 2.811 . S
C252 C253 1.488 . S
C252 O268 1.215 . S
C252 O269 1.289 . S
C253 C252 1.488 . S
C253 C254 1.348 . S
C253 C258 1.413 . S
C254 C253 1.348 . S
C254 C255 1.442 . S
C254 H276 0.930 . S
C255 C254 1.442 . S
C255 C256 1.381 . S
C255 H277 0.931 . S
C256 C255 1.381 . S
C256 C257 1.321 . S
C257 C256 1.321 . S
C257 C258 1.403 . S
C257 H278 0.934 . S
C258 C253 1.413 . S
C258 C257 1.403 . S
C258 H279 0.930 . S
C259 O270 1.275 . S
C259 O271 1.256 . S
O260 Ho240 2.322 . S
O260 C242 1.259 . S
O261 Ho241 2.346 . S
O261 C242 1.268 . S
O262 Ho240 2.378 . S
O262 C243 1.215 . S
O263 Ho240 2.524 . S
O263 C243 1.289 . S
O264 Ho240 2.381 . S
O264 C250 1.275 . S
O265 Ho240 2.669 . S
O265 Ho241 2.305 . S
O265 C250 1.256 . S
O266 Ho241 2.322 . S
O266 C251 1.259 . S
O267 Ho240 2.346 . S
O267 C251 1.268 . S
O268 Ho241 2.378 . S
O268 C252 1.215 . S
O269 Ho241 2.524 . S
O269 C252 1.289 . S
O270 Ho241 2.381 . S
O270 C259 1.275 . S
O271 Ho240 2.305 . S
O271 Ho241 2.669 . S
O271 C259 1.256 . S
H272 C245 0.930 . S
H273 C246 0.931 . S
H274 C248 0.934 . S
H275 C249 0.930 . S
H276 C254 0.930 . S
H277 C255 0.931 . S
H278 C257 0.934 . S
H279 C258 0.930 . S
Ho280 C283 2.811 . S
Ho280 O300 2.322 1_655 S
Ho280 O302 2.378 . S
Ho280 O303 2.524 . S
Ho280 O304 2.381 1_655 S
Ho280 O305 2.669 1_655 S
Ho280 O307 2.346 . S
Ho280 O311 2.305 . S
Ho281 C292 2.811 . S
Ho281 O301 2.346 . S
Ho281 O305 2.305 . S
Ho281 O306 2.322 1_455 S
Ho281 O308 2.378 . S
Ho281 O309 2.524 . S
Ho281 O310 2.381 1_455 S
Ho281 O311 2.669 1_455 S
C282 O300 1.259 . S
C282 O301 1.268 . S
C283 Ho280 2.811 . S
C283 C284 1.488 . S
C283 O302 1.215 . S
C283 O303 1.289 . S
C284 C283 1.488 . S
C284 C285 1.348 . S
C284 C289 1.413 . S
C285 C284 1.348 . S
C285 C286 1.442 . S
C285 H312 0.930 . S
C286 C285 1.442 . S
C286 C287 1.381 . S
C286 H313 0.931 . S
C287 C286 1.381 . S
C287 C288 1.321 . S
C288 C287 1.321 . S
C288 C289 1.403 . S
C288 H314 0.934 . S
C289 C284 1.413 . S
C289 C288 1.403 . S
C289 H315 0.930 . S
C290 O304 1.275 . S
C290 O305 1.256 . S
C291 O306 1.259 . S
C291 O307 1.268 . S
C292 Ho281 2.811 . S
C292 C293 1.488 . S
C292 O308 1.215 . S
C292 O309 1.289 . S
C293 C292 1.488 . S
C293 C294 1.348 . S
C293 C298 1.413 . S
C294 C293 1.348 . S
C294 C295 1.442 . S
C294 H316 0.930 . S
C295 C294 1.442 . S
C295 C296 1.381 . S
C295 H317 0.931 . S
C296 C295 1.381 . S
C296 C297 1.321 . S
C297 C296 1.321 . S
C297 C298 1.403 . S
C297 H318 0.934 . S
C298 C293 1.413 . S
C298 C297 1.403 . S
C298 H319 0.930 . S
C299 O310 1.275 . S
C299 O311 1.256 . S
O300 Ho280 2.322 1_455 S
O300 C282 1.259 . S
O301 Ho281 2.346 . S
O301 C282 1.268 . S
O302 Ho280 2.378 . S
O302 C283 1.215 . S
O303 Ho280 2.524 . S
O303 C283 1.289 . S
O304 Ho280 2.381 1_455 S
O304 C290 1.275 . S
O305 Ho280 2.669 1_455 S
O305 Ho281 2.305 . S
O305 C290 1.256 . S
O306 Ho281 2.322 1_655 S
O306 C291 1.259 . S
O307 Ho280 2.346 . S
O307 C291 1.268 . S
O308 Ho281 2.378 . S
O308 C292 1.215 . S
O309 Ho281 2.524 . S
O309 C292 1.289 . S
O310 Ho281 2.381 1_655 S
O310 C299 1.275 . S
O311 Ho280 2.305 . S
O311 Ho281 2.669 1_655 S
O311 C299 1.256 . S
H312 C285 0.930 . S
H313 C286 0.931 . S
H314 C288 0.934 . S
H315 C289 0.930 . S
H316 C294 0.930 . S
H317 C295 0.931 . S
H318 C297 0.934 . S
H319 C298 0.930 . S
Ho320 C323 2.811 . S
Ho320 O340 2.322 1_556 S
Ho320 O342 2.378 . S
Ho320 O343 2.524 1_556 S
Ho320 O344 2.381 . S
Ho320 O345 2.669 . S
Ho320 O347 2.346 . S
Ho320 O351 2.305 1_556 S
Ho321 C332 2.811 . S
Ho321 O341 2.346 . S
Ho321 O345 2.305 1_554 S
Ho321 O346 2.322 1_554 S
Ho321 O348 2.378 . S
Ho321 O349 2.514 1_554 S
Ho321 O350 2.381 . S
Ho321 O351 2.669 . S
C322 O340 1.259 . S
C322 O341 1.268 . S
C323 Ho320 2.811 . S
C323 C324 1.488 . S
C323 O342 1.215 . S
C323 O343 1.289 1_556 S
C324 C323 1.488 . S
C324 C325 1.348 1_556 S
C324 C329 1.413 . S
C325 C324 1.348 1_554 S
C325 C326 1.442 . S
C325 H352 0.930 . S
C326 C325 1.442 . S
C326 C327 1.381 1_554 S
C326 H353 0.931 . S
C327 C326 1.381 1_556 S
C327 C328 1.321 . S
C328 C327 1.321 . S
C328 C329 1.403 . S
C328 H354 0.934 . S
C329 C324 1.413 . S
C329 C328 1.403 . S
C329 H355 0.930 . S
C330 O344 1.275 . S
C330 O345 1.256 . S
C331 O346 1.259 . S
C331 O347 1.268 . S
C332 Ho321 2.811 . S
C332 C333 1.488 . S
C332 O348 1.215 . S
C332 O349 1.256 1_554 S
C333 C332 1.488 . S
C333 C334 1.348 1_554 S
C333 C338 1.413 . S
C334 C333 1.348 1_556 S
C334 C335 1.442 . S
C334 H356 0.930 . S
C335 C334 1.442 . S
C335 C336 1.381 1_556 S
C335 H357 0.931 . S
C336 C335 1.381 1_554 S
C336 C337 1.321 . S
C337 C336 1.321 . S
C337 C338 1.403 . S
C337 H358 0.934 . S
C338 C333 1.413 . S
C338 C337 1.403 . S
C338 H359 0.930 . S
C339 O350 1.275 . S
C339 O351 1.256 . S
O340 Ho320 2.322 1_554 S
O340 C322 1.259 . S
O341 Ho321 2.346 . S
O341 C322 1.268 . S
O342 Ho320 2.378 . S
O342 C323 1.215 . S
O343 Ho320 2.524 1_554 S
O343 C323 1.289 1_554 S
O344 Ho320 2.381 . S
O344 C330 1.275 . S
O345 Ho320 2.669 . S
O345 Ho321 2.305 1_556 S
O345 C330 1.256 . S
O346 Ho321 2.322 1_556 S
O346 C331 1.259 . S
O347 Ho320 2.346 . S
O347 C331 1.268 . S
O348 Ho321 2.378 . S
O348 C332 1.215 . S
O349 Ho321 2.514 1_556 S
O349 C332 1.256 1_556 S
O350 Ho321 2.381 . S
O350 C339 1.275 . S
O351 Ho320 2.305 1_554 S
O351 Ho321 2.669 . S
O351 C339 1.256 . S
H352 C325 0.930 . S
H353 C326 0.931 . S
H354 C328 0.934 . S
H355 C329 0.930 . S
H356 C334 0.930 . S
H357 C335 0.931 . S
H358 C337 0.934 . S
H359 C338 0.930 . S
Ho360 C363 2.811 . S
Ho360 O380 2.322 1_565 S
Ho360 O382 2.378 . S
Ho360 O383 2.524 1_565 S
Ho360 O384 2.381 . S
Ho360 O385 2.669 . S
Ho360 O387 2.346 . S
Ho360 O391 2.305 1_565 S
Ho361 C372 2.811 . S
Ho361 O381 2.346 . S
Ho361 O385 2.305 1_545 S
Ho361 O386 2.322 1_545 S
Ho361 O388 2.378 . S
Ho361 O389 2.524 1_545 S
Ho361 O390 2.381 . S
Ho361 O391 2.669 . S
C362 O380 1.259 . S
C362 O381 1.268 . S
C363 Ho360 2.811 . S
C363 C364 1.488 1_565 S
C363 O382 1.215 . S
C363 O383 1.289 1_565 S
C364 C363 1.488 1_545 S
C364 C365 1.348 . S
C364 C369 1.413 1_545 S
C365 C364 1.348 . S
C365 C366 1.442 . S
C365 H392 0.930 . S
C366 C365 1.442 . S
C366 C367 1.381 . S
C366 H393 0.931 . S
C367 C366 1.381 . S
C367 C368 1.321 1_545 S
C368 C367 1.321 1_565 S
C368 C369 1.403 . S
C368 H394 0.934 . S
C369 C364 1.413 1_565 S
C369 C368 1.403 . S
C369 H395 0.930 . S
C370 O384 1.275 . S
C370 O385 1.256 . S
C371 O386 1.259 . S
C371 O387 1.268 . S
C372 Ho361 2.811 . S
C372 C373 1.488 1_545 S
C372 O388 1.215 . S
C372 O389 1.289 1_545 S
C373 C372 1.488 1_565 S
C373 C374 1.348 . S
C373 C378 1.413 1_565 S
C374 C373 1.348 . S
C374 C375 1.442 . S
C374 H396 0.930 . S
C375 C374 1.442 . S
C375 C376 1.381 . S
C375 H397 0.931 . S
C376 C375 1.381 . S
C376 C377 1.321 1_565 S
C377 C376 1.321 1_545 S
C377 C378 1.403 . S
C377 H398 0.934 . S
C378 C373 1.413 1_545 S
C378 C377 1.403 . S
C378 H399 0.930 . S
C379 O390 1.275 . S
C379 O391 1.256 . S
O380 Ho360 2.322 1_545 S
O380 C362 1.259 . S
O381 Ho361 2.346 . S
O381 C362 1.268 . S
O382 Ho360 2.378 . S
O382 C363 1.215 . S
O383 Ho360 2.524 1_545 S
O383 C363 1.289 1_545 S
O384 Ho360 2.381 . S
O384 C370 1.275 . S
O385 Ho360 2.669 . S
O385 Ho361 2.305 1_565 S
O385 C370 1.256 . S
O386 Ho361 2.322 1_565 S
O386 C371 1.259 . S
O387 Ho360 2.346 . S
O387 C371 1.268 . S
O388 Ho361 2.378 . S
O388 C372 1.215 . S
O389 Ho361 2.524 1_565 S
O389 C372 1.289 1_565 S
O390 Ho361 2.381 . S
O390 C379 1.275 . S
O391 Ho360 2.305 1_545 S
O391 Ho361 2.669 . S
O391 C379 1.256 . S
H392 C365 0.930 . S
H393 C366 0.931 . S
H394 C368 0.934 . S
H395 C369 0.930 . S
H396 C374 0.930 . S
H397 C375 0.931 . S
H398 C377 0.934 . S
H399 C378 0.930 . S
Ho400 C403 2.811 . S
Ho400 O420 2.322 . S
Ho400 O422 2.378 . S
Ho400 O423 2.524 . S
Ho400 O424 2.381 . S
Ho400 O425 2.669 . S
Ho400 O427 2.346 . S
Ho400 O431 2.305 . S
Ho401 C412 2.811 . S
Ho401 O421 2.346 . S
Ho401 O425 2.305 . S
Ho401 O426 2.322 . S
Ho401 O428 2.378 . S
Ho401 O429 2.524 . S
Ho401 O430 2.381 . S
Ho401 O431 2.669 . S
C402 O420 1.259 . S
C402 O421 1.268 . S
C403 Ho400 2.811 . S
C403 C404 1.488 . S
C403 O422 1.215 . S
C403 O423 1.289 . S
C404 C403 1.488 . S
C404 C405 1.348 . S
C404 C409 1.413 . S
C405 C404 1.348 . S
C405 C406 1.442 . S
C405 H432 0.930 . S
C406 C405 1.442 . S
C406 C407 1.381 . S
C406 H433 0.931 . S
C407 C406 1.381 . S
C407 C408 1.321 . S
C408 C407 1.321 . S
C408 C409 1.403 . S
C408 H434 0.934 . S
C409 C404 1.413 . S
C409 C408 1.403 . S
C409 H435 0.930 . S
C410 O424 1.275 . S
C410 O425 1.256 . S
C411 O426 1.259 . S
C411 O427 1.268 . S
C412 Ho401 2.811 . S
C412 C413 1.488 . S
C412 O428 1.215 . S
C412 O429 1.289 . S
C413 C412 1.488 . S
C413 C414 1.348 . S
C413 C418 1.413 . S
C414 C413 1.348 . S
C414 C415 1.442 . S
C414 H436 0.930 . S
C415 C414 1.442 . S
C415 C416 1.381 . S
C415 H437 0.931 . S
C416 C415 1.381 . S
C416 C417 1.321 . S
C417 C416 1.321 . S
C417 C418 1.403 . S
C417 H438 0.934 . S
C418 C413 1.413 . S
C418 C417 1.403 . S
C418 H439 0.930 . S
C419 O430 1.275 . S
C419 O431 1.256 . S
O420 Ho400 2.322 . S
O420 C402 1.259 . S
O421 Ho401 2.346 . S
O421 C402 1.268 . S
O422 Ho400 2.378 . S
O422 C403 1.215 . S
O423 Ho400 2.524 . S
O423 C403 1.289 . S
O424 Ho400 2.381 . S
O424 C410 1.275 . S
O425 Ho400 2.669 . S
O425 Ho401 2.305 . S
O425 C410 1.256 . S
O426 Ho401 2.322 . S
O426 C411 1.259 . S
O427 Ho400 2.346 . S
O427 C411 1.268 . S
O428 Ho401 2.378 . S
O428 C412 1.215 . S
O429 Ho401 2.524 . S
O429 C412 1.289 . S
O430 Ho401 2.381 . S
O430 C419 1.275 . S
O431 Ho400 2.305 . S
O431 Ho401 2.669 . S
O431 C419 1.256 . S
H432 C405 0.930 . S
H433 C406 0.931 . S
H434 C408 0.934 . S
H435 C409 0.930 . S
H436 C414 0.930 . S
H437 C415 0.931 . S
H438 C417 0.934 . S
H439 C418 0.930 . S
Ho440 C443 2.811 . S
Ho440 O460 2.322 1_455 S
Ho440 O462 2.378 . S
Ho440 O463 2.524 1_455 S
Ho440 O464 2.381 . S
Ho440 O465 2.669 . S
Ho440 O467 2.346 . S
Ho440 O471 2.305 1_455 S
Ho441 C452 2.811 . S
Ho441 O461 2.346 . S
Ho441 O465 2.305 1_655 S
Ho441 O466 2.322 1_655 S
Ho441 O468 2.378 . S
Ho441 O469 2.524 1_655 S
Ho441 O470 2.381 . S
Ho441 O471 2.669 . S
C442 O460 1.259 . S
C442 O461 1.268 . S
C443 Ho440 2.811 . S
C443 C444 1.488 1_455 S
C443 O462 1.215 . S
C443 O463 1.289 1_455 S
C444 C443 1.488 1_655 S
C444 C445 1.348 . S
C444 C449 1.413 1_655 S
C445 C444 1.348 . S
C445 C446 1.442 . S
C445 H472 0.930 . S
C446 C445 1.442 . S
C446 C447 1.381 . S
C446 H473 0.931 . S
C447 C446 1.381 . S
C447 C448 1.321 1_655 S
C448 C447 1.321 1_455 S
C448 C449 1.403 . S
C448 H474 0.934 . S
C449 C444 1.413 1_455 S
C449 C448 1.403 . S
C449 H475 0.930 . S
C450 O464 1.275 . S
C450 O465 1.256 . S
C451 O466 1.259 . S
C451 O467 1.268 . S
C452 Ho441 2.811 . S
C452 C453 1.488 1_655 S
C452 O468 1.215 . S
C452 O469 1.289 1_655 S
C453 C452 1.488 1_455 S
C453 C454 1.348 . S
C453 C458 1.413 1_455 S
C454 C453 1.348 . S
C454 C455 1.442 . S
C454 H476 0.930 . S
C455 C454 1.442 . S
C455 C456 1.381 . S
C455 H477 0.931 . S
C456 C455 1.381 . S
C456 C457 1.321 1_455 S
C457 C456 1.321 1_655 S
C457 C458 1.403 . S
C457 H478 0.934 . S
C458 C453 1.413 1_655 S
C458 C457 1.403 . S
C458 H479 0.930 . S
C459 O470 1.275 . S
C459 O471 1.256 . S
O460 Ho440 2.322 1_655 S
O460 C442 1.259 . S
O461 Ho441 2.346 . S
O461 C442 1.268 . S
O462 Ho440 2.378 . S
O462 C443 1.215 . S
O463 Ho440 2.524 1_655 S
O463 C443 1.289 1_655 S
O464 Ho440 2.381 . S
O464 C450 1.275 . S
O465 Ho440 2.669 . S
O465 Ho441 2.305 1_455 S
O465 C450 1.256 . S
O466 Ho441 2.322 1_455 S
O466 C451 1.259 . S
O467 Ho440 2.346 . S
O467 C451 1.268 . S
O468 Ho441 2.378 . S
O468 C452 1.215 . S
O469 Ho441 2.524 1_455 S
O469 C452 1.289 1_455 S
O470 Ho441 2.381 . S
O470 C459 1.275 . S
O471 Ho440 2.305 1_655 S
O471 Ho441 2.669 . S
O471 C459 1.256 . S
H472 C445 0.930 . S
H473 C446 0.931 . S
H474 C448 0.934 . S
H475 C449 0.930 . S
H476 C454 0.930 . S
H477 C455 0.931 . S
H478 C457 0.934 . S
H479 C458 0.930 . S
Ho480 C483 2.811 . S
Ho480 O500 2.322 . S
Ho480 O502 2.378 . S
Ho480 O503 2.524 . S
Ho480 O504 2.381 . S
Ho480 O505 2.669 . S
Ho480 O507 2.346 . S
Ho480 O511 2.305 . S
Ho481 C492 2.811 . S
Ho481 O501 2.346 . S
Ho481 O505 2.305 . S
Ho481 O506 2.322 . S
Ho481 O508 2.378 . S
Ho481 O509 2.524 . S
Ho481 O510 2.381 . S
Ho481 O511 2.669 . S
C482 O500 1.259 . S
C482 O501 1.268 . S
C483 Ho480 2.811 . S
C483 C484 1.488 . S
C483 O502 1.215 . S
C483 O503 1.289 . S
C484 C483 1.488 . S
C484 C485 1.348 . S
C484 C489 1.413 . S
C485 C484 1.348 . S
C485 C486 1.442 . S
C485 H512 0.930 . S
C486 C485 1.442 . S
C486 C487 1.381 . S
C486 H513 0.931 . S
C487 C486 1.381 . S
C487 C488 1.321 . S
C488 C487 1.321 . S
C488 C489 1.403 . S
C488 H514 0.934 . S
C489 C484 1.413 . S
C489 C488 1.403 . S
C489 H515 0.930 . S
C490 O504 1.275 . S
C490 O505 1.256 . S
C491 O506 1.259 . S
C491 O507 1.268 . S
C492 Ho481 2.811 . S
C492 C493 1.488 . S
C492 O508 1.215 . S
C492 O509 1.289 . S
C493 C492 1.488 . S
C493 C494 1.348 . S
C493 C498 1.413 . S
C494 C493 1.348 . S
C494 C495 1.442 . S
C494 H516 0.930 . S
C495 C494 1.442 . S
C495 C496 1.381 . S
C495 H517 0.931 . S
C496 C495 1.381 . S
C496 C497 1.321 . S
C497 C496 1.321 . S
C497 C498 1.403 . S
C497 H518 0.934 . S
C498 C493 1.413 . S
C498 C497 1.403 . S
C498 H519 0.930 . S
C499 O510 1.275 . S
C499 O511 1.256 . S
O500 Ho480 2.322 . S
O500 C482 1.259 . S
O501 Ho481 2.346 . S
O501 C482 1.268 . S
O502 Ho480 2.378 . S
O502 C483 1.215 . S
O503 Ho480 2.524 . S
O503 C483 1.289 . S
O504 Ho480 2.381 . S
O504 C490 1.275 . S
O505 Ho480 2.669 . S
O505 Ho481 2.305 . S
O505 C490 1.256 . S
O506 Ho481 2.322 . S
O506 C491 1.259 . S
O507 Ho480 2.346 . S
O507 C491 1.268 . S
O508 Ho481 2.378 . S
O508 C492 1.215 . S
O509 Ho481 2.524 . S
O509 C492 1.289 . S
O510 Ho481 2.381 . S
O510 C499 1.275 . S
O511 Ho480 2.305 . S
O511 Ho481 2.669 . S
O511 C499 1.256 . S
H512 C485 0.930 . S
H513 C486 0.931 . S
H514 C488 0.934 . S
H515 C489 0.930 . S
H516 C494 0.930 . S
H517 C495 0.931 . S
H518 C497 0.934 . S
H519 C498 0.930 . S
Ho520 C523 2.811 . S
Ho520 O540 2.322 1_556 S
Ho520 O542 2.378 . S
Ho520 O543 2.524 1_556 S
Ho520 O544 2.381 . S
Ho520 O545 2.669 . S
Ho520 O547 2.346 . S
Ho520 O551 2.305 1_556 S
Ho521 C532 2.811 . S
Ho521 O541 2.346 . S
Ho521 O545 2.305 1_554 S
Ho521 O546 2.322 1_554 S
Ho521 O548 2.378 . S
Ho521 O549 2.514 1_554 S
Ho521 O550 2.381 . S
Ho521 O551 2.669 . S
C522 O540 1.259 . S
C522 O541 1.268 . S
C523 Ho520 2.811 . S
C523 C524 1.488 . S
C523 O542 1.215 . S
C523 O543 1.289 1_556 S
C524 C523 1.488 . S
C524 C525 1.348 1_556 S
C524 C529 1.413 . S
C525 C524 1.348 1_554 S
C525 C526 1.442 . S
C525 H552 0.930 . S
C526 C525 1.442 . S
C526 C527 1.381 1_554 S
C526 H553 0.931 . S
C527 C526 1.381 1_556 S
C527 C528 1.321 . S
C528 C527 1.321 . S
C528 C529 1.403 . S
C528 H554 0.934 . S
C529 C524 1.413 . S
C529 C528 1.403 . S
C529 H555 0.930 . S
C530 O544 1.275 . S
C530 O545 1.256 . S
C531 O546 1.259 . S
C531 O547 1.268 . S
C532 Ho521 2.811 . S
C532 C533 1.488 . S
C532 O548 1.215 . S
C532 O549 1.256 1_554 S
C533 C532 1.488 . S
C533 C534 1.348 1_554 S
C533 C538 1.413 . S
C534 C533 1.348 1_556 S
C534 C535 1.442 . S
C534 H556 0.930 . S
C535 C534 1.442 . S
C535 C536 1.381 1_556 S
C535 H557 0.931 . S
C536 C535 1.381 1_554 S
C536 C537 1.321 . S
C537 C536 1.321 . S
C537 C538 1.403 . S
C537 H558 0.934 . S
C538 C533 1.413 . S
C538 C537 1.403 . S
C538 H559 0.930 . S
C539 O550 1.275 . S
C539 O551 1.256 . S
O540 Ho520 2.322 1_554 S
O540 C522 1.259 . S
O541 Ho521 2.346 . S
O541 C522 1.268 . S
O542 Ho520 2.378 . S
O542 C523 1.215 . S
O543 Ho520 2.524 1_554 S
O543 C523 1.289 1_554 S
O544 Ho520 2.381 . S
O544 C530 1.275 . S
O545 Ho520 2.669 . S
O545 Ho521 2.305 1_556 S
O545 C530 1.256 . S
O546 Ho521 2.322 1_556 S
O546 C531 1.259 . S
O547 Ho520 2.346 . S
O547 C531 1.268 . S
O548 Ho521 2.378 . S
O548 C532 1.215 . S
O549 Ho521 2.514 1_556 S
O549 C532 1.256 1_556 S
O550 Ho521 2.381 . S
O550 C539 1.275 . S
O551 Ho520 2.305 1_554 S
O551 Ho521 2.669 . S
O551 C539 1.256 . S
H552 C525 0.930 . S
H553 C526 0.931 . S
H554 C528 0.934 . S
H555 C529 0.930 . S
H556 C534 0.930 . S
H557 C535 0.931 . S
H558 C537 0.934 . S
H559 C538 0.930 . S
Ho560 C563 2.811 . S
Ho560 O580 2.322 . S
Ho560 O582 2.378 . S
Ho560 O583 2.524 . S
Ho560 O584 2.381 . S
Ho560 O585 2.669 . S
Ho560 O587 2.346 1_565 S
Ho560 O591 2.305 1_565 S
Ho561 C572 2.811 . S
Ho561 O581 2.346 1_545 S
Ho561 O585 2.305 1_545 S
Ho561 O586 2.322 . S
Ho561 O588 2.378 . S
Ho561 O589 2.524 . S
Ho561 O590 2.381 . S
Ho561 O591 2.669 . S
C562 O580 1.259 . S
C562 O581 1.268 . S
C563 Ho560 2.811 . S
C563 C564 1.488 . S
C563 O582 1.215 . S
C563 O583 1.289 . S
C564 C563 1.488 . S
C564 C565 1.348 . S
C564 C569 1.413 . S
C565 C564 1.348 . S
C565 C566 1.442 . S
C565 H592 0.930 . S
C566 C565 1.442 . S
C566 C567 1.381 . S
C566 H593 0.931 . S
C567 C566 1.381 . S
C567 C568 1.321 . S
C568 C567 1.321 . S
C568 C569 1.403 . S
C568 H594 0.934 . S
C569 C564 1.413 . S
C569 C568 1.403 . S
C569 H595 0.930 . S
C570 O584 1.275 . S
C570 O585 1.256 . S
C571 O586 1.259 . S
C571 O587 1.268 . S
C572 Ho561 2.811 . S
C572 C573 1.488 . S
C572 O588 1.215 . S
C572 O589 1.289 . S
C573 C572 1.488 . S
C573 C574 1.348 . S
C573 C578 1.413 . S
C574 C573 1.348 . S
C574 C575 1.442 . S
C574 H596 0.930 . S
C575 C574 1.442 . S
C575 C576 1.381 . S
C575 H597 0.931 . S
C576 C575 1.381 . S
C576 C577 1.321 . S
C577 C576 1.321 . S
C577 C578 1.403 . S
C577 H598 0.934 . S
C578 C573 1.413 . S
C578 C577 1.403 . S
C578 H599 0.930 . S
C579 O590 1.275 . S
C579 O591 1.256 . S
O580 Ho560 2.322 . S
O580 C562 1.259 . S
O581 Ho561 2.346 1_565 S
O581 C562 1.268 . S
O582 Ho560 2.378 . S
O582 C563 1.215 . S
O583 Ho560 2.524 . S
O583 C563 1.289 . S
O584 Ho560 2.381 . S
O584 C570 1.275 . S
O585 Ho560 2.669 . S
O585 Ho561 2.305 1_565 S
O585 C570 1.256 . S
O586 Ho561 2.322 . S
O586 C571 1.259 . S
O587 Ho560 2.346 1_545 S
O587 C571 1.268 . S
O588 Ho561 2.378 . S
O588 C572 1.215 . S
O589 Ho561 2.524 . S
O589 C572 1.289 . S
O590 Ho561 2.381 . S
O590 C579 1.275 . S
O591 Ho560 2.305 1_545 S
O591 Ho561 2.669 . S
O591 C579 1.256 . S
H592 C565 0.930 . S
H593 C566 0.931 . S
H594 C568 0.934 . S
H595 C569 0.930 . S
H596 C574 0.930 . S
H597 C575 0.931 . S
H598 C577 0.934 . S
H599 C578 0.930 . S
Ho600 C603 2.811 . S
Ho600 O620 2.323 1_554 S
Ho600 O622 2.378 . S
Ho600 O623 2.524 . S
Ho600 O624 2.381 . S
Ho600 O625 2.669 . S
Ho600 O627 2.346 . S
Ho600 O631 2.305 1_554 S
Ho601 C612 2.811 . S
Ho601 O621 2.346 . S
Ho601 O625 2.305 1_556 S
Ho601 O626 2.316 1_556 S
Ho601 O628 2.378 . S
Ho601 O629 2.524 . S
Ho601 O630 2.381 . S
Ho601 O631 2.669 . S
C602 O620 1.258 . S
C602 O621 1.268 . S
C603 Ho600 2.811 . S
C603 C604 1.488 . S
C603 O622 1.215 . S
C603 O623 1.289 . S
C604 C603 1.488 . S
C604 C605 1.348 . S
C604 C609 1.413 . S
C605 C604 1.348 . S
C605 C606 1.442 . S
C605 H632 0.930 1_554 S
C606 C605 1.442 . S
C606 C607 1.381 . S
C606 H633 0.931 . S
C607 C606 1.381 . S
C607 C608 1.321 . S
C608 C607 1.321 . S
C608 C609 1.403 . S
C608 H634 0.934 . S
C609 C604 1.413 . S
C609 C608 1.403 . S
C609 H635 0.930 . S
C610 O624 1.275 . S
C610 O625 1.256 . S
C611 O626 1.267 . S
C611 O627 1.268 . S
C612 Ho601 2.811 . S
C612 C613 1.488 . S
C612 O628 1.215 . S
C612 O629 1.289 . S
C613 C612 1.488 . S
C613 C614 1.348 . S
C613 C618 1.413 . S
C614 C613 1.348 . S
C614 C615 1.442 . S
C614 H636 0.930 1_556 S
C615 C614 1.442 . S
C615 C616 1.381 . S
C615 H637 0.931 . S
C616 C615 1.381 . S
C616 C617 1.321 . S
C617 C616 1.321 . S
C617 C618 1.403 . S
C617 H638 0.934 . S
C618 C613 1.413 . S
C618 C617 1.403 . S
C618 H639 0.930 . S
C619 O630 1.275 . S
C619 O631 1.256 . S
O620 Ho600 2.323 1_556 S
O620 C602 1.258 . S
O621 Ho601 2.346 . S
O621 C602 1.268 . S
O622 Ho600 2.378 . S
O622 C603 1.215 . S
O623 Ho600 2.524 . S
O623 C603 1.289 . S
O624 Ho600 2.381 . S
O624 C610 1.275 . S
O625 Ho600 2.669 . S
O625 Ho601 2.305 1_554 S
O625 C610 1.256 . S
O626 Ho601 2.316 1_554 S
O626 C611 1.267 . S
O627 Ho600 2.346 . S
O627 C611 1.268 . S
O628 Ho601 2.378 . S
O628 C612 1.215 . S
O629 Ho601 2.524 . S
O629 C612 1.289 . S
O630 Ho601 2.381 . S
O630 C619 1.275 . S
O631 Ho600 2.305 1_556 S
O631 Ho601 2.669 . S
O631 C619 1.256 . S
H632 C605 0.930 1_556 S
H633 C606 0.931 . S
H634 C608 0.934 . S
H635 C609 0.930 . S
H636 C614 0.930 1_554 S
H637 C615 0.931 . S
H638 C617 0.934 . S
H639 C618 0.930 . S
H640 C648 0.950 . S
H641 C653 0.950 . S
H642 C650 0.950 . S
H643 C652 0.950 . S
H644 C654 0.950 . S
H645 C656 0.950 . S
H646 C658 0.950 . S
H647 C659 0.950 . S
C648 H640 0.950 . S
C648 C649 1.386 1_455 S
C648 C650 1.391 . S
C649 C648 1.386 1_655 S
C649 C653 1.393 . S
C650 H642 0.950 . S
C650 C648 1.391 . S
C650 C651 1.400 1_455 S
C651 C650 1.400 1_655 S
C651 C652 1.398 . S
C651 C657 1.493 1_655 S
C652 H643 0.950 . S
C652 C651 1.398 . S
C652 C653 1.391 . S
C653 H641 0.950 . S
C653 C649 1.393 . S
C653 C652 1.391 . S
C654 H644 0.950 . S
C654 C655 1.386 1_655 S
C654 C656 1.391 . S
C655 C654 1.386 1_455 S
C655 C659 1.393 . S
C656 H645 0.950 . S
C656 C654 1.391 . S
C656 C657 1.402 1_655 S
C657 C651 1.493 1_455 S
C657 C656 1.402 1_455 S
C657 C658 1.394 . S
C658 H646 0.950 . S
C658 C657 1.394 . S
C658 C659 1.391 . S
C659 H647 0.950 . S
C659 C655 1.393 . S
C659 C658 1.391 . S
H660 C668 0.950 . S
H661 C673 0.950 . S
H662 C670 0.950 . S
H663 C672 0.950 . S
H664 C674 0.950 . S
H665 C676 0.950 . S
H666 C678 0.950 . S
H667 C679 0.950 . S
C668 H660 0.950 . S
C668 C669 1.386 . S
C668 C670 1.391 . S
C669 C668 1.386 . S
C669 C673 1.393 . S
C670 H662 0.950 . S
C670 C668 1.391 . S
C670 C671 1.400 . S
C671 C670 1.400 . S
C671 C672 1.398 . S
C671 C677 1.491 . S
C672 H663 0.950 . S
C672 C671 1.398 . S
C672 C673 1.391 . S
C673 H661 0.950 . S
C673 C669 1.393 . S
C673 C672 1.391 . S
C674 H664 0.950 . S
C674 C675 1.386 . S
C674 C676 1.391 . S
C675 C674 1.386 . S
C675 C679 1.393 . S
C676 H665 0.950 . S
C676 C674 1.391 . S
C676 C677 1.400 . S
C677 C671 1.491 . S
C677 C676 1.400 . S
C677 C678 1.398 . S
C678 H666 0.950 . S
C678 C677 1.398 . S
C678 C679 1.391 . S
C679 H667 0.950 . S
C679 C675 1.393 . S
C679 C678 1.391 . S
H680 C688 0.950 . S
H681 C693 0.950 . S
H682 C690 0.950 . S
H683 C692 0.950 . S
H684 C694 0.950 . S
H685 C696 0.950 . S
H686 C698 0.950 . S
H687 C699 0.950 . S
C688 H680 0.950 . S
C688 C689 1.386 . S
C688 C690 1.391 . S
C689 C688 1.386 . S
C689 C693 1.393 . S
C690 H682 0.950 . S
C690 C688 1.391 . S
C690 C691 1.400 . S
C691 C690 1.400 . S
C691 C692 1.398 . S
C691 C697 1.491 . S
C692 H683 0.950 . S
C692 C691 1.398 . S
C692 C693 1.391 . S
C693 H681 0.950 . S
C693 C689 1.393 . S
C693 C692 1.391 . S
C694 H684 0.950 . S
C694 C695 1.386 . S
C694 C696 1.391 . S
C695 C694 1.386 . S
C695 C699 1.393 . S
C696 H685 0.950 . S
C696 C694 1.391 . S
C696 C697 1.400 . S
C697 C691 1.491 . S
C697 C696 1.400 . S
C697 C698 1.398 . S
C698 H686 0.950 . S
C698 C697 1.398 . S
C698 C699 1.391 . S
C699 H687 0.950 . S
C699 C695 1.393 . S
C699 C698 1.391 . S
H700 C708 0.950 1_565 S
H701 C713 0.950 . S
H702 C710 0.950 . S
H703 C712 0.950 . S
H704 C714 0.950 . S
H705 C716 0.950 . S
H706 C718 0.950 . S
H707 C719 0.950 . S
C708 H700 0.950 1_545 S
C708 C709 1.386 . S
C708 C710 1.391 1_545 S
C709 C708 1.386 . S
C709 C713 1.393 . S
C710 H702 0.950 . S
C710 C708 1.391 1_565 S
C710 C711 1.400 1_565 S
C711 C710 1.400 1_545 S
C711 C712 1.398 . S
C711 C717 1.491 . S
C712 H703 0.950 . S
C712 C711 1.398 . S
C712 C713 1.391 . S
C713 H701 0.950 . S
C713 C709 1.393 . S
C713 C712 1.391 . S
C714 H704 0.950 . S
C714 C715 1.386 1_545 S
C714 C716 1.391 . S
C715 C714 1.386 1_565 S
C715 C719 1.393 . S
C716 H705 0.950 . S
C716 C714 1.391 . S
C716 C717 1.400 . S
C717 C711 1.491 . S
C717 C716 1.400 . S
C717 C718 1.398 1_545 S
C718 H706 0.950 . S
C718 C717 1.398 1_565 S
C718 C719 1.391 . S
C719 H707 0.950 . S
C719 C715 1.393 . S
C719 C718 1.391 . S
H720 C728 0.950 . S
H721 C733 0.950 . S
H722 C730 0.950 1_545 S
H723 C732 0.950 . S
H724 C734 0.950 . S
H725 C736 0.950 . S
H726 C738 0.950 . S
H727 C739 0.950 . S
C728 H720 0.950 . S
C728 C729 1.386 . S
C728 C730 1.391 . S
C729 C728 1.386 . S
C729 C733 1.393 . S
C730 H722 0.950 1_565 S
C730 C728 1.391 . S
C730 C731 1.400 . S
C731 C730 1.400 . S
C731 C732 1.398 . S
C731 C737 1.491 . S
C732 H723 0.950 . S
C732 C731 1.398 . S
C732 C733 1.391 . S
C733 H721 0.950 . S
C733 C729 1.393 . S
C733 C732 1.391 . S
C734 H724 0.950 . S
C734 C735 1.386 1_565 S
C734 C736 1.391 . S
C735 C734 1.386 1_545 S
C735 C739 1.393 . S
C736 H725 0.950 . S
C736 C734 1.391 . S
C736 C737 1.400 . S
C737 C731 1.491 . S
C737 C736 1.400 . S
C737 C738 1.398 1_565 S
C738 H726 0.950 . S
C738 C737 1.398 1_545 S
C738 C739 1.391 . S
C739 H727 0.950 . S
C739 C735 1.393 . S
C739 C738 1.391 . S
H740 C748 0.950 . S
H741 C753 0.950 . S
H742 C750 0.950 . S
H743 C752 0.950 . S
H744 C754 0.950 . S
H745 C756 0.950 . S
H746 C758 0.950 . S
H747 C759 0.950 . S
C748 H740 0.950 . S
C748 C749 1.386 1_655 S
C748 C750 1.391 . S
C749 C748 1.386 1_455 S
C749 C753 1.393 . S
C750 H742 0.950 . S
C750 C748 1.391 . S
C750 C751 1.400 1_655 S
C751 C750 1.400 1_455 S
C751 C752 1.398 . S
C751 C757 1.489 1_455 S
C752 H743 0.950 . S
C752 C751 1.398 . S
C752 C753 1.391 . S
C753 H741 0.950 . S
C753 C749 1.393 . S
C753 C752 1.391 . S
C754 H744 0.950 . S
C754 C755 1.386 1_455 S
C754 C756 1.391 . S
C755 C754 1.386 1_655 S
C755 C759 1.393 . S
C756 H745 0.950 . S
C756 C754 1.391 . S
C756 C757 1.399 1_455 S
C757 C751 1.489 1_655 S
C757 C756 1.399 1_655 S
C757 C758 1.402 . S
C758 H746 0.950 . S
C758 C757 1.402 . S
C758 C759 1.391 . S
C759 H747 0.950 . S
C759 C755 1.393 . S
C759 C758 1.391 . S
H760 C768 0.950 . S
H761 C773 0.950 . S
H762 C770 0.950 . S
H763 C772 0.950 . S
H764 C774 0.950 . S
H765 C776 0.950 . S
H766 C778 0.950 . S
H767 C779 0.950 . S
C768 H760 0.950 . S
C768 C769 1.386 . S
C768 C770 1.391 . S
C769 C768 1.386 . S
C769 C773 1.393 . S
C770 H762 0.950 . S
C770 C768 1.391 . S
C770 C771 1.400 . S
C771 C770 1.400 . S
C771 C772 1.398 . S
C771 C777 1.491 . S
C772 H763 0.950 . S
C772 C771 1.398 . S
C772 C773 1.391 . S
C773 H761 0.950 . S
C773 C769 1.393 . S
C773 C772 1.391 . S
C774 H764 0.950 . S
C774 C775 1.386 . S
C774 C776 1.391 . S
C775 C774 1.386 . S
C775 C779 1.393 . S
C776 H765 0.950 . S
C776 C774 1.391 . S
C776 C777 1.400 . S
C777 C771 1.491 . S
C777 C776 1.400 . S
C777 C778 1.398 . S
C778 H766 0.950 . S
C778 C777 1.398 . S
C778 C779 1.391 . S
C779 H767 0.950 . S
C779 C775 1.393 . S
C779 C778 1.391 . S
H780 C788 0.950 . S
H781 C793 0.950 . S
H782 C790 0.950 . S
H783 C792 0.950 . S
H784 C794 0.950 . S
H785 C796 0.950 . S
H786 C798 0.950 . S
H787 C799 0.950 . S
C788 H780 0.950 . S
C788 C789 1.386 . S
C788 C790 1.391 . S
C789 C788 1.386 . S
C789 C793 1.393 . S
C790 H782 0.950 . S
C790 C788 1.391 . S
C790 C791 1.400 . S
C791 C790 1.400 . S
C791 C792 1.398 . S
C791 C797 1.491 . S
C792 H783 0.950 . S
C792 C791 1.398 . S
C792 C793 1.391 . S
C793 H781 0.950 . S
C793 C789 1.393 . S
C793 C792 1.391 . S
C794 H784 0.950 . S
C794 C795 1.386 . S
C794 C796 1.391 . S
C795 C794 1.386 . S
C795 C799 1.393 . S
C796 H785 0.950 . S
C796 C794 1.391 . S
C796 C797 1.400 . S
C797 C791 1.491 . S
C797 C796 1.400 . S
C797 C798 1.398 . S
C798 H786 0.950 . S
C798 C797 1.398 . S
C798 C799 1.391 . S
C799 H787 0.950 . S
C799 C795 1.393 . S
C799 C798 1.391 . S
H800 C808 0.950 . S
H801 C813 0.950 . S
H802 C810 0.950 . S
H803 C812 0.950 . S
H804 C814 0.950 . S
H805 C816 0.950 . S
H806 C818 0.950 . S
H807 C819 0.950 . S
C808 H800 0.950 . S
C808 C809 1.386 . S
C808 C810 1.391 . S
C809 C808 1.386 . S
C809 C813 1.393 . S
C810 H802 0.950 . S
C810 C808 1.391 . S
C810 C811 1.400 . S
C811 C810 1.400 . S
C811 C812 1.398 . S
C811 C817 1.491 . S
C812 H803 0.950 . S
C812 C811 1.398 . S
C812 C813 1.391 . S
C813 H801 0.950 . S
C813 C809 1.393 . S
C813 C812 1.391 . S
C814 H804 0.950 . S
C814 C815 1.386 . S
C814 C816 1.391 . S
C815 C814 1.386 . S
C815 C819 1.393 . S
C816 H805 0.950 . S
C816 C814 1.391 . S
C816 C817 1.400 . S
C817 C811 1.491 . S
C817 C816 1.400 . S
C817 C818 1.398 . S
C818 H806 0.950 . S
C818 C817 1.398 . S
C818 C819 1.391 . S
C819 H807 0.950 . S
C819 C815 1.393 . S
C819 C818 1.391 . S
H820 C828 0.950 . S
H821 C833 0.950 . S
H822 C830 0.950 . S
H823 C832 0.950 . S
H824 C834 0.950 . S
H825 C836 0.950 . S
H826 C838 0.950 . S
H827 C839 0.950 . S
C828 H820 0.950 . S
C828 C829 1.386 . S
C828 C830 1.391 . S
C829 C828 1.386 . S
C829 C833 1.393 . S
C830 H822 0.950 . S
C830 C828 1.391 . S
C830 C831 1.400 . S
C831 C830 1.400 . S
C831 C832 1.398 . S
C831 C837 1.491 . S
C832 H823 0.950 . S
C832 C831 1.398 . S
C832 C833 1.391 . S
C833 H821 0.950 . S
C833 C829 1.393 . S
C833 C832 1.391 . S
C834 H824 0.950 . S
C834 C835 1.386 . S
C834 C836 1.391 . S
C835 C834 1.386 . S
C835 C839 1.393 . S
C836 H825 0.950 . S
C836 C834 1.391 . S
C836 C837 1.400 . S
C837 C831 1.491 . S
C837 C836 1.400 . S
C837 C838 1.398 . S
C838 H826 0.950 . S
C838 C837 1.398 . S
C838 C839 1.391 . S
C839 H827 0.950 . S
C839 C835 1.393 . S
C839 C838 1.391 . S
H840 C848 0.950 . S
H841 C853 0.950 . S
H842 C850 0.950 . S
H843 C852 0.950 . S
H844 C854 0.950 . S
H845 C856 0.950 . S
H846 C858 0.950 . S
H847 C859 0.953 1_565 S
C848 H840 0.950 . S
C848 C849 1.386 . S
C848 C850 1.391 . S
C849 C848 1.386 . S
C849 C853 1.393 . S
C850 H842 0.950 . S
C850 C848 1.391 . S
C850 C851 1.400 . S
C851 C850 1.400 . S
C851 C852 1.398 . S
C851 C857 1.491 . S
C852 H843 0.950 . S
C852 C851 1.398 . S
C852 C853 1.391 . S
C853 H841 0.950 . S
C853 C849 1.393 . S
C853 C852 1.391 . S
C854 H844 0.950 . S
C854 C855 1.386 . S
C854 C856 1.391 . S
C855 C854 1.386 . S
C855 C859 1.393 . S
C856 H845 0.950 . S
C856 C854 1.391 . S
C856 C857 1.400 1_545 S
C857 C851 1.491 . S
C857 C856 1.400 1_565 S
C857 C858 1.398 . S
C858 H846 0.950 . S
C858 C857 1.398 . S
C858 C859 1.391 1_565 S
C859 H847 0.953 1_545 S
C859 C855 1.393 . S
C859 C858 1.391 1_545 S
H860 C868 0.950 . S
H861 C873 0.950 . S
H862 C870 0.950 . S
H863 C872 0.950 . S
H864 C874 0.950 . S
H865 C876 0.950 . S
H866 C878 0.950 . S
H867 C879 0.950 . S
C868 H860 0.950 . S
C868 C869 1.386 . S
C868 C870 1.391 . S
C869 C868 1.386 . S
C869 C873 1.393 1_455 S
C870 H862 0.950 . S
C870 C868 1.391 . S
C870 C871 1.400 . S
C871 C870 1.400 . S
C871 C872 1.398 1_455 S
C871 C877 1.487 1_455 S
C872 H863 0.950 . S
C872 C871 1.398 1_655 S
C872 C873 1.391 . S
C873 H861 0.950 . S
C873 C869 1.393 1_655 S
C873 C872 1.391 . S
C874 H864 0.950 . S
C874 C875 1.386 . S
C874 C876 1.391 . S
C875 C874 1.386 . S
C875 C879 1.393 1_655 S
C876 H865 0.950 . S
C876 C874 1.391 . S
C876 C877 1.406 . S
C877 C871 1.487 1_655 S
C877 C876 1.406 . S
C877 C878 1.396 1_655 S
C878 H866 0.950 . S
C878 C877 1.396 1_455 S
C878 C879 1.391 . S
C879 H867 0.950 . S
C879 C875 1.393 1_455 S
C879 C878 1.391 . S
H880 C888 0.950 . S
H881 C893 0.950 . S
H882 C890 0.950 . S
H883 C892 0.950 . S
H884 C894 0.950 . S
H885 C896 0.950 . S
H886 C898 0.950 . S
H887 C899 0.950 1_554 S
C888 H880 0.950 . S
C888 C889 1.386 . S
C888 C890 1.391 . S
C889 C888 1.386 . S
C889 C893 1.393 . S
C890 H882 0.950 . S
C890 C888 1.391 . S
C890 C891 1.400 . S
C891 C890 1.400 . S
C891 C892 1.398 . S
C891 C897 1.491 . S
C892 H883 0.950 . S
C892 C891 1.398 . S
C892 C893 1.391 . S
C893 H881 0.950 . S
C893 C889 1.393 . S
C893 C892 1.391 . S
C894 H884 0.950 . S
C894 C895 1.386 . S
C894 C896 1.391 . S
C895 C894 1.386 . S
C895 C899 1.393 . S
C896 H885 0.950 . S
C896 C894 1.391 . S
C896 C897 1.400 . S
C897 C891 1.491 . S
C897 C896 1.400 . S
C897 C898 1.398 . S
C898 H886 0.950 . S
C898 C897 1.398 . S
C898 C899 1.391 . S
C899 H887 0.950 1_556 S
C899 C895 1.393 . S
C899 C898 1.391 . S
H900 C908 0.950 . S
H901 C913 0.950 . S
H902 C910 0.950 . S
H903 C912 0.950 . S
H904 C914 0.950 . S
H905 C916 0.950 . S
H906 C918 0.950 . S
H907 C919 0.950 . S
C908 H900 0.950 . S
C908 C909 1.386 . S
C908 C910 1.391 . S
C909 C908 1.386 . S
C909 C913 1.393 . S
C910 H902 0.950 . S
C910 C908 1.391 . S
C910 C911 1.400 . S
C911 C910 1.400 . S
C911 C912 1.398 . S
C911 C917 1.491 . S
C912 H903 0.950 . S
C912 C911 1.398 . S
C912 C913 1.391 . S
C913 H901 0.950 . S
C913 C909 1.393 . S
C913 C912 1.391 . S
C914 H904 0.950 . S
C914 C915 1.386 . S
C914 C916 1.391 . S
C915 C914 1.386 . S
C915 C919 1.393 . S
C916 H905 0.950 . S
C916 C914 1.391 . S
C916 C917 1.400 . S
C917 C911 1.491 . S
C917 C916 1.400 . S
C917 C918 1.398 . S
C918 H906 0.950 . S
C918 C917 1.398 . S
C918 C919 1.391 . S
C919 H907 0.950 . S
C919 C915 1.393 . S
C919 C918 1.391 . S
H920 C928 0.950 . S
H921 C933 0.950 . S
H922 C930 0.950 . S
H923 C932 0.950 . S
H924 C934 0.950 . S
H925 C936 0.950 . S
H926 C938 0.950 . S
H927 C939 0.950 . S
C928 H920 0.950 . S
C928 C929 1.386 . S
C928 C930 1.391 . S
C929 C928 1.386 . S
C929 C933 1.393 . S
C930 H922 0.950 . S
C930 C928 1.391 . S
C930 C931 1.400 . S
C931 C930 1.400 . S
C931 C932 1.398 . S
C931 C937 1.491 . S
C932 H923 0.950 . S
C932 C931 1.398 . S
C932 C933 1.391 . S
C933 H921 0.950 . S
C933 C929 1.393 . S
C933 C932 1.391 . S
C934 H924 0.950 . S
C934 C935 1.386 . S
C934 C936 1.391 . S
C935 C934 1.386 . S
C935 C939 1.393 . S
C936 H925 0.950 . S
C936 C934 1.391 . S
C936 C937 1.400 . S
C937 C931 1.491 . S
C937 C936 1.400 . S
C937 C938 1.398 . S
C938 H926 0.950 . S
C938 C937 1.398 . S
C938 C939 1.391 . S
C939 H927 0.950 . S
C939 C935 1.393 . S
C939 C938 1.391 . S
H940 C948 0.950 . S
H941 C953 0.950 . S
H942 C950 0.950 . S
H943 C952 0.950 . S
H944 C954 0.950 . S
H945 C956 0.950 . S
H946 C958 0.950 . S
H947 C959 0.950 . S
C948 H940 0.950 . S
C948 C949 1.386 . S
C948 C950 1.391 . S
C949 C948 1.386 . S
C949 C953 1.393 . S
C950 H942 0.950 . S
C950 C948 1.391 . S
C950 C951 1.400 . S
C951 C950 1.400 . S
C951 C952 1.398 . S
C951 C957 1.491 . S
C952 H943 0.950 . S
C952 C951 1.398 . S
C952 C953 1.391 . S
C953 H941 0.950 . S
C953 C949 1.393 . S
C953 C952 1.391 . S
C954 H944 0.950 . S
C954 C955 1.386 . S
C954 C956 1.391 . S
C955 C954 1.386 . S
C955 C959 1.393 . S
C956 H945 0.950 . S
C956 C954 1.391 . S
C956 C957 1.400 . S
C957 C951 1.491 . S
C957 C956 1.400 . S
C957 C958 1.398 . S
C958 H946 0.950 . S
C958 C957 1.398 . S
C958 C959 1.391 . S
C959 H947 0.950 . S
C959 C955 1.393 . S
C959 C958 1.391 . S
H960 C968 0.950 . S
H961 C973 0.950 . S
H962 C970 0.950 . S
H963 C972 0.950 . S
H964 C974 0.950 . S
H965 C976 0.950 . S
H966 C978 0.950 . S
H967 C979 0.950 . S
C968 H960 0.950 . S
C968 C969 1.386 . S
C968 C970 1.391 . S
C969 C968 1.386 . S
C969 C973 1.393 . S
C970 H962 0.950 . S
C970 C968 1.391 . S
C970 C971 1.400 . S
C971 C970 1.400 . S
C971 C972 1.398 . S
C971 C977 1.491 . S
C972 H963 0.950 . S
C972 C971 1.398 . S
C972 C973 1.391 . S
C973 H961 0.950 . S
C973 C969 1.393 . S
C973 C972 1.391 . S
C974 H964 0.950 . S
C974 C975 1.386 . S
C974 C976 1.391 . S
C975 C974 1.386 . S
C975 C979 1.393 . S
C976 H965 0.950 . S
C976 C974 1.391 . S
C976 C977 1.400 . S
C977 C971 1.491 . S
C977 C976 1.400 . S
C977 C978 1.398 . S
C978 H966 0.950 . S
C978 C977 1.398 . S
C978 C979 1.391 . S
C979 H967 0.950 . S
C979 C975 1.393 . S
C979 C978 1.391 . S
H980 C988 0.950 . S
H981 C993 0.950 . S
H982 C990 0.950 . S
H983 C992 0.950 . S
H984 C994 0.950 . S
H985 C996 0.950 . S
H986 C998 0.950 . S
H987 C999 0.950 . S
C988 H980 0.950 . S
C988 C989 1.386 . S
C988 C990 1.391 . S
C989 C988 1.386 . S
C989 C993 1.393 . S
C990 H982 0.950 . S
C990 C988 1.391 . S
C990 C991 1.400 . S
C991 C990 1.400 . S
C991 C992 1.398 . S
C991 C997 1.491 . S
C992 H983 0.950 . S
C992 C991 1.398 . S
C992 C993 1.391 . S
C993 H981 0.950 . S
C993 C989 1.393 . S
C993 C992 1.391 . S
C994 H984 0.950 . S
C994 C995 1.386 . S
C994 C996 1.391 . S
C995 C994 1.386 . S
C995 C999 1.393 . S
C996 H985 0.950 . S
C996 C994 1.391 . S
C996 C997 1.400 . S
C997 C991 1.491 . S
C997 C996 1.400 . S
C997 C998 1.398 . S
C998 H986 0.950 . S
C998 C997 1.398 . S
C998 C999 1.391 . S
C999 H987 0.950 . S
C999 C995 1.393 . S
C999 C998 1.391 . S
H1000 C1008 0.950 . S
H1001 C1013 0.950 . S
H1002 C1010 0.950 . S
H1003 C1012 0.950 . S
H1004 C1014 0.950 . S
H1005 C1016 0.950 . S
H1006 C1018 0.950 . S
H1007 C1019 0.950 . S
C1008 H1000 0.950 . S
C1008 C1009 1.386 . S
C1008 C1010 1.391 . S
C1009 C1008 1.386 . S
C1009 C1013 1.393 . S
C1010 H1002 0.950 . S
C1010 C1008 1.391 . S
C1010 C1011 1.400 . S
C1011 C1010 1.400 . S
C1011 C1012 1.398 . S
C1011 C1017 1.491 . S
C1012 H1003 0.950 . S
C1012 C1011 1.398 . S
C1012 C1013 1.391 . S
C1013 H1001 0.950 . S
C1013 C1009 1.393 . S
C1013 C1012 1.391 . S
C1014 H1004 0.950 . S
C1014 C1015 1.386 . S
C1014 C1016 1.391 . S
C1015 C1014 1.386 . S
C1015 C1019 1.393 . S
C1016 H1005 0.950 . S
C1016 C1014 1.391 . S
C1016 C1017 1.400 . S
C1017 C1011 1.491 . S
C1017 C1016 1.400 . S
C1017 C1018 1.398 . S
C1018 H1006 0.950 . S
C1018 C1017 1.398 . S
C1018 C1019 1.391 . S
C1019 H1007 0.950 . S
C1019 C1015 1.393 . S
C1019 C1018 1.391 . S
H1020 C1028 0.950 . S
H1021 C1033 0.950 . S
H1022 C1030 0.950 . S
H1023 C1032 0.950 . S
H1024 C1034 0.950 . S
H1025 C1036 0.950 . S
H1026 C1038 0.950 . S
H1027 C1039 0.950 . S
C1028 H1020 0.950 . S
C1028 C1029 1.386 . S
C1028 C1030 1.391 . S
C1029 C1028 1.386 . S
C1029 C1033 1.393 . S
C1030 H1022 0.950 . S
C1030 C1028 1.391 . S
C1030 C1031 1.400 . S
C1031 C1030 1.400 . S
C1031 C1032 1.398 . S
C1031 C1037 1.491 . S
C1032 H1023 0.950 . S
C1032 C1031 1.398 . S
C1032 C1033 1.391 . S
C1033 H1021 0.950 . S
C1033 C1029 1.393 . S
C1033 C1032 1.391 . S
C1034 H1024 0.950 . S
C1034 C1035 1.386 . S
C1034 C1036 1.391 . S
C1035 C1034 1.386 . S
C1035 C1039 1.393 . S
C1036 H1025 0.950 . S
C1036 C1034 1.391 . S
C1036 C1037 1.400 . S
C1037 C1031 1.491 . S
C1037 C1036 1.400 . S
C1037 C1038 1.398 . S
C1038 H1026 0.950 . S
C1038 C1037 1.398 . S
C1038 C1039 1.391 . S
C1039 H1027 0.950 . S
C1039 C1035 1.393 . S
C1039 C1038 1.391 . S
H1040 C1048 0.950 . S
H1041 C1053 0.950 . S
H1042 C1050 0.950 . S
H1043 C1052 0.950 . S
H1044 C1054 0.950 . S
H1045 C1056 0.950 . S
H1046 C1058 0.950 . S
H1047 C1059 0.950 . S
C1048 H1040 0.950 . S
C1048 C1049 1.386 . S
C1048 C1050 1.391 . S
C1049 C1048 1.386 . S
C1049 C1053 1.393 . S
C1050 H1042 0.950 . S
C1050 C1048 1.391 . S
C1050 C1051 1.400 . S
C1051 C1050 1.400 . S
C1051 C1052 1.398 . S
C1051 C1057 1.491 . S
C1052 H1043 0.950 . S
C1052 C1051 1.398 . S
C1052 C1053 1.391 . S
C1053 H1041 0.950 . S
C1053 C1049 1.393 . S
C1053 C1052 1.391 . S
C1054 H1044 0.950 . S
C1054 C1055 1.386 . S
C1054 C1056 1.391 . S
C1055 C1054 1.386 . S
C1055 C1059 1.393 . S
C1056 H1045 0.950 . S
C1056 C1054 1.391 . S
C1056 C1057 1.400 . S
C1057 C1051 1.491 . S
C1057 C1056 1.400 . S
C1057 C1058 1.398 . S
C1058 H1046 0.950 . S
C1058 C1057 1.398 . S
C1058 C1059 1.391 . S
C1059 H1047 0.950 . S
C1059 C1055 1.393 . S
C1059 C1058 1.391 . S
H1060 C1068 0.950 . S
H1061 C1073 0.950 . S
H1062 C1070 0.950 . S
H1063 C1072 0.950 . S
H1064 C1074 0.950 . S
H1065 C1076 0.950 . S
H1066 C1078 0.950 . S
H1067 C1079 0.950 . S
C1068 H1060 0.950 . S
C1068 C1069 1.386 . S
C1068 C1070 1.391 . S
C1069 C1068 1.386 . S
C1069 C1073 1.393 1_455 S
C1070 H1062 0.950 . S
C1070 C1068 1.391 . S
C1070 C1071 1.396 1_455 S
C1071 C1070 1.396 1_655 S
C1071 C1072 1.399 . S
C1071 C1077 1.494 . S
C1072 H1063 0.950 . S
C1072 C1071 1.399 . S
C1072 C1073 1.391 . S
C1073 H1061 0.950 . S
C1073 C1069 1.393 1_655 S
C1073 C1072 1.391 . S
C1074 H1064 0.950 . S
C1074 C1075 1.386 . S
C1074 C1076 1.391 . S
C1075 C1074 1.386 . S
C1075 C1079 1.393 1_655 S
C1076 H1065 0.950 . S
C1076 C1074 1.391 . S
C1076 C1077 1.400 . S
C1077 C1071 1.494 . S
C1077 C1076 1.400 . S
C1077 C1078 1.398 1_655 S
C1078 H1066 0.950 . S
C1078 C1077 1.398 1_455 S
C1078 C1079 1.391 . S
C1079 H1067 0.950 . S
C1079 C1075 1.393 1_455 S
C1079 C1078 1.391 . S
H1080 C1088 0.950 . S
H1081 C1093 0.950 . S
H1082 C1090 0.950 . S
H1083 C1092 0.950 . S
H1084 C1094 0.950 . S
H1085 C1096 0.950 . S
H1086 C1098 0.950 . S
H1087 C1099 0.950 . S
C1088 H1080 0.950 . S
C1088 C1089 1.386 . S
C1088 C1090 1.391 . S
C1089 C1088 1.386 . S
C1089 C1093 1.393 . S
C1090 H1082 0.950 . S
C1090 C1088 1.391 . S
C1090 C1091 1.400 . S
C1091 C1090 1.400 . S
C1091 C1092 1.398 . S
C1091 C1097 1.491 . S
C1092 H1083 0.950 . S
C1092 C1091 1.398 . S
C1092 C1093 1.391 . S
C1093 H1081 0.950 . S
C1093 C1089 1.393 . S
C1093 C1092 1.391 . S
C1094 H1084 0.950 . S
C1094 C1095 1.386 . S
C1094 C1096 1.391 . S
C1095 C1094 1.386 . S
C1095 C1099 1.393 . S
C1096 H1085 0.950 . S
C1096 C1094 1.391 . S
C1096 C1097 1.400 . S
C1097 C1091 1.491 . S
C1097 C1096 1.400 . S
C1097 C1098 1.398 . S
C1098 H1086 0.950 . S
C1098 C1097 1.398 . S
C1098 C1099 1.391 . S
C1099 H1087 0.950 . S
C1099 C1095 1.393 . S
C1099 C1098 1.391 . S
H1100 C1108 0.950 . S
H1101 C1113 0.950 . S
H1102 C1110 0.950 . S
H1103 C1112 0.950 . S
H1104 C1114 0.950 . S
H1105 C1116 0.950 . S
H1106 C1118 0.950 . S
H1107 C1119 0.950 . S
C1108 H1100 0.950 . S
C1108 C1109 1.386 . S
C1108 C1110 1.391 . S
C1109 C1108 1.386 . S
C1109 C1113 1.393 . S
C1110 H1102 0.950 . S
C1110 C1108 1.391 . S
C1110 C1111 1.400 . S
C1111 C1110 1.400 . S
C1111 C1112 1.398 . S
C1111 C1117 1.491 . S
C1112 H1103 0.950 . S
C1112 C1111 1.398 . S
C1112 C1113 1.391 . S
C1113 H1101 0.950 . S
C1113 C1109 1.393 . S
C1113 C1112 1.391 . S
C1114 H1104 0.950 . S
C1114 C1115 1.386 . S
C1114 C1116 1.391 . S
C1115 C1114 1.386 . S
C1115 C1119 1.393 . S
C1116 H1105 0.950 . S
C1116 C1114 1.391 . S
C1116 C1117 1.400 . S
C1117 C1111 1.491 . S
C1117 C1116 1.400 . S
C1117 C1118 1.398 . S
C1118 H1106 0.950 . S
C1118 C1117 1.398 . S
C1118 C1119 1.391 . S
C1119 H1107 0.950 . S
C1119 C1115 1.393 . S
C1119 C1118 1.391 . S
H1120 C1128 0.950 . S
H1121 C1133 0.950 . S
H1122 C1130 0.950 . S
H1123 C1132 0.950 . S
H1124 C1134 0.950 . S
H1125 C1136 0.950 . S
H1126 C1138 0.950 . S
H1127 C1139 0.950 . S
C1128 H1120 0.950 . S
C1128 C1129 1.386 . S
C1128 C1130 1.391 . S
C1129 C1128 1.386 . S
C1129 C1133 1.393 . S
C1130 H1122 0.950 . S
C1130 C1128 1.391 . S
C1130 C1131 1.400 . S
C1131 C1130 1.400 . S
C1131 C1132 1.398 . S
C1131 C1137 1.491 . S
C1132 H1123 0.950 . S
C1132 C1131 1.398 . S
C1132 C1133 1.391 . S
C1133 H1121 0.950 . S
C1133 C1129 1.393 . S
C1133 C1132 1.391 . S
C1134 H1124 0.950 . S
C1134 C1135 1.386 . S
C1134 C1136 1.391 . S
C1135 C1134 1.386 . S
C1135 C1139 1.393 . S
C1136 H1125 0.950 . S
C1136 C1134 1.391 . S
C1136 C1137 1.400 . S
C1137 C1131 1.491 . S
C1137 C1136 1.400 . S
C1137 C1138 1.398 . S
C1138 H1126 0.950 . S
C1138 C1137 1.398 . S
C1138 C1139 1.391 . S
C1139 H1127 0.950 . S
C1139 C1135 1.393 . S
C1139 C1138 1.391 . S
H1140 C1148 0.950 . S
H1141 C1153 0.950 . S
H1142 C1150 0.950 . S
H1143 C1152 0.950 . S
H1144 C1154 0.950 . S
H1145 C1156 0.950 . S
H1146 C1158 0.950 . S
H1147 C1159 0.950 . S
C1148 H1140 0.950 . S
C1148 C1149 1.386 . S
C1148 C1150 1.391 . S
C1149 C1148 1.386 . S
C1149 C1153 1.393 . S
C1150 H1142 0.950 . S
C1150 C1148 1.391 . S
C1150 C1151 1.400 . S
C1151 C1150 1.400 . S
C1151 C1152 1.398 . S
C1151 C1157 1.491 . S
C1152 H1143 0.950 . S
C1152 C1151 1.398 . S
C1152 C1153 1.391 . S
C1153 H1141 0.950 . S
C1153 C1149 1.393 . S
C1153 C1152 1.391 . S
C1154 H1144 0.950 . S
C1154 C1155 1.386 . S
C1154 C1156 1.391 . S
C1155 C1154 1.386 . S
C1155 C1159 1.393 . S
C1156 H1145 0.950 . S
C1156 C1154 1.391 . S
C1156 C1157 1.400 . S
C1157 C1151 1.491 . S
C1157 C1156 1.400 . S
C1157 C1158 1.398 . S
C1158 H1146 0.950 . S
C1158 C1157 1.398 . S
C1158 C1159 1.391 . S
C1159 H1147 0.950 . S
C1159 C1155 1.393 . S
C1159 C1158 1.391 . S
H1160 C1168 0.950 . S
H1161 C1173 0.950 . S
H1162 C1170 0.950 . S
H1163 C1172 0.951 1_545 S
H1164 C1174 0.950 . S
H1165 C1176 0.950 . S
H1166 C1178 0.950 . S
H1167 C1179 0.950 . S
C1168 H1160 0.950 . S
C1168 C1169 1.386 . S
C1168 C1170 1.391 1_565 S
C1169 C1168 1.386 . S
C1169 C1173 1.393 . S
C1170 H1162 0.950 . S
C1170 C1168 1.391 1_545 S
C1170 C1171 1.400 . S
C1171 C1170 1.400 . S
C1171 C1172 1.398 1_545 S
C1171 C1177 1.491 . S
C1172 H1163 0.951 1_565 S
C1172 C1171 1.398 1_565 S
C1172 C1173 1.391 . S
C1173 H1161 0.950 . S
C1173 C1169 1.393 . S
C1173 C1172 1.391 . S
C1174 H1164 0.950 . S
C1174 C1175 1.386 . S
C1174 C1176 1.391 . S
C1175 C1174 1.386 . S
C1175 C1179 1.393 . S
C1176 H1165 0.950 . S
C1176 C1174 1.391 . S
C1176 C1177 1.400 . S
C1177 C1171 1.491 . S
C1177 C1176 1.400 . S
C1177 C1178 1.398 . S
C1178 H1166 0.950 . S
C1178 C1177 1.398 . S
C1178 C1179 1.391 . S
C1179 H1167 0.950 . S
C1179 C1175 1.393 . S
C1179 C1178 1.391 . S
H1180 C1188 0.951 1_556 S
H1181 C1193 0.950 . S
H1182 C1190 0.950 . S
H1183 C1192 0.950 . S
H1184 C1194 0.950 . S
H1185 C1196 0.950 . S
H1186 C1198 0.950 . S
H1187 C1199 0.950 . S
C1188 H1180 0.951 1_554 S
C1188 C1189 1.386 . S
C1188 C1190 1.391 . S
C1189 C1188 1.386 . S
C1189 C1193 1.393 . S
C1190 H1182 0.950 . S
C1190 C1188 1.391 . S
C1190 C1191 1.400 . S
C1191 C1190 1.400 . S
C1191 C1192 1.398 . S
C1191 C1197 1.491 . S
C1192 H1183 0.950 . S
C1192 C1191 1.398 . S
C1192 C1193 1.391 . S
C1193 H1181 0.950 . S
C1193 C1189 1.393 . S
C1193 C1192 1.391 . S
C1194 H1184 0.950 . S
C1194 C1195 1.386 . S
C1194 C1196 1.391 . S
C1195 C1194 1.386 . S
C1195 C1199 1.393 . S
C1196 H1185 0.950 . S
C1196 C1194 1.391 . S
C1196 C1197 1.400 . S
C1197 C1191 1.491 . S
C1197 C1196 1.400 . S
C1197 C1198 1.398 . S
C1198 H1186 0.950 . S
C1198 C1197 1.398 . S
C1198 C1199 1.391 . S
C1199 H1187 0.950 . S
C1199 C1195 1.393 . S
C1199 C1198 1.391 . S
H1200 C1208 0.950 . S
H1201 C1213 0.950 . S
H1202 C1210 0.950 . S
H1203 C1212 0.950 . S
H1204 C1214 0.950 . S
H1205 C1216 0.950 . S
H1206 C1218 0.950 . S
H1207 C1219 0.950 . S
C1208 H1200 0.950 . S
C1208 C1209 1.386 . S
C1208 C1210 1.391 . S
C1209 C1208 1.386 . S
C1209 C1213 1.393 . S
C1210 H1202 0.950 . S
C1210 C1208 1.391 . S
C1210 C1211 1.400 . S
C1211 C1210 1.400 . S
C1211 C1212 1.398 . S
C1211 C1217 1.491 . S
C1212 H1203 0.950 . S
C1212 C1211 1.398 . S
C1212 C1213 1.391 . S
C1213 H1201 0.950 . S
C1213 C1209 1.393 . S
C1213 C1212 1.391 . S
C1214 H1204 0.950 . S
C1214 C1215 1.386 . S
C1214 C1216 1.391 . S
C1215 C1214 1.386 . S
C1215 C1219 1.393 . S
C1216 H1205 0.950 . S
C1216 C1214 1.391 . S
C1216 C1217 1.400 . S
C1217 C1211 1.491 . S
C1217 C1216 1.400 . S
C1217 C1218 1.398 . S
C1218 H1206 0.950 . S
C1218 C1217 1.398 . S
C1218 C1219 1.391 . S
C1219 H1207 0.950 . S
C1219 C1215 1.393 . S
C1219 C1218 1.391 . S
H1220 C1228 0.950 . S
H1221 C1233 0.950 . S
H1222 C1230 0.950 . S
H1223 C1232 0.950 . S
H1224 C1234 0.950 . S
H1225 C1236 0.950 . S
H1226 C1238 0.950 . S
H1227 C1239 0.950 . S
C1228 H1220 0.950 . S
C1228 C1229 1.386 . S
C1228 C1230 1.391 . S
C1229 C1228 1.386 . S
C1229 C1233 1.393 . S
C1230 H1222 0.950 . S
C1230 C1228 1.391 . S
C1230 C1231 1.400 . S
C1231 C1230 1.400 . S
C1231 C1232 1.398 . S
C1231 C1237 1.491 . S
C1232 H1223 0.950 . S
C1232 C1231 1.398 . S
C1232 C1233 1.391 . S
C1233 H1221 0.950 . S
C1233 C1229 1.393 . S
C1233 C1232 1.391 . S
C1234 H1224 0.950 . S
C1234 C1235 1.386 . S
C1234 C1236 1.391 . S
C1235 C1234 1.386 . S
C1235 C1239 1.393 . S
C1236 H1225 0.950 . S
C1236 C1234 1.391 . S
C1236 C1237 1.400 . S
C1237 C1231 1.491 . S
C1237 C1236 1.400 . S
C1237 C1238 1.398 . S
C1238 H1226 0.950 . S
C1238 C1237 1.398 . S
C1238 C1239 1.391 . S
C1239 H1227 0.950 . S
C1239 C1235 1.393 . S
C1239 C1238 1.391 . S
H1240 C1248 0.950 . S
H1241 C1253 0.950 . S
H1242 C1250 0.950 . S
H1243 C1252 0.950 . S
H1244 C1254 0.950 . S
H1245 C1256 0.950 . S
H1246 C1258 0.950 . S
H1247 C1259 0.950 . S
C1248 H1240 0.950 . S
C1248 C1249 1.386 . S
C1248 C1250 1.391 . S
C1249 C1248 1.386 . S
C1249 C1253 1.393 . S
C1250 H1242 0.950 . S
C1250 C1248 1.391 . S
C1250 C1251 1.400 . S
C1251 C1250 1.400 . S
C1251 C1252 1.398 . S
C1251 C1257 1.491 . S
C1252 H1243 0.950 . S
C1252 C1251 1.398 . S
C1252 C1253 1.391 . S
C1253 H1241 0.950 . S
C1253 C1249 1.393 . S
C1253 C1252 1.391 . S
C1254 H1244 0.950 . S
C1254 C1255 1.386 . S
C1254 C1256 1.391 . S
C1255 C1254 1.386 . S
C1255 C1259 1.393 . S
C1256 H1245 0.950 . S
C1256 C1254 1.391 . S
C1256 C1257 1.400 . S
C1257 C1251 1.491 . S
C1257 C1256 1.400 . S
C1257 C1258 1.398 . S
C1258 H1246 0.950 . S
C1258 C1257 1.398 . S
C1258 C1259 1.391 . S
C1259 H1247 0.950 . S
C1259 C1255 1.393 . S
C1259 C1258 1.391 . S
H1260 C1268 0.950 . S
H1261 C1273 0.950 . S
H1262 C1270 0.950 . S
H1263 C1272 0.950 . S
H1264 C1274 0.950 . S
H1265 C1276 0.950 . S
H1266 C1278 0.950 . S
H1267 C1279 0.950 . S
C1268 H1260 0.950 . S
C1268 C1269 1.386 . S
C1268 C1270 1.391 . S
C1269 C1268 1.386 . S
C1269 C1273 1.393 . S
C1270 H1262 0.950 . S
C1270 C1268 1.391 . S
C1270 C1271 1.400 . S
C1271 C1270 1.400 . S
C1271 C1272 1.398 . S
C1271 C1277 1.491 . S
C1272 H1263 0.950 . S
C1272 C1271 1.398 . S
C1272 C1273 1.391 . S
C1273 H1261 0.950 . S
C1273 C1269 1.393 . S
C1273 C1272 1.391 . S
C1274 H1264 0.950 . S
C1274 C1275 1.386 . S
C1274 C1276 1.391 . S
C1275 C1274 1.386 . S
C1275 C1279 1.393 . S
C1276 H1265 0.950 . S
C1276 C1274 1.391 . S
C1276 C1277 1.400 . S
C1277 C1271 1.491 . S
C1277 C1276 1.400 . S
C1277 C1278 1.398 . S
C1278 H1266 0.950 . S
C1278 C1277 1.398 . S
C1278 C1279 1.391 . S
C1279 H1267 0.950 . S
C1279 C1275 1.393 . S
C1279 C1278 1.391 . S
H1280 C1288 0.950 . S
H1281 C1293 0.950 . S
H1282 C1290 0.950 . S
H1283 C1292 0.950 . S
H1284 C1294 0.950 . S
H1285 C1296 0.950 . S
H1286 C1298 0.950 . S
H1287 C1299 0.950 . S
C1288 H1280 0.950 . S
C1288 C1289 1.386 . S
C1288 C1290 1.391 . S
C1289 C1288 1.386 . S
C1289 C1293 1.393 . S
C1290 H1282 0.950 . S
C1290 C1288 1.391 . S
C1290 C1291 1.400 . S
C1291 C1290 1.400 . S
C1291 C1292 1.398 . S
C1291 C1297 1.491 . S
C1292 H1283 0.950 . S
C1292 C1291 1.398 . S
C1292 C1293 1.391 . S
C1293 H1281 0.950 . S
C1293 C1289 1.393 . S
C1293 C1292 1.391 . S
C1294 H1284 0.950 . S
C1294 C1295 1.386 . S
C1294 C1296 1.391 . S
C1295 C1294 1.386 . S
C1295 C1299 1.393 . S
C1296 H1285 0.950 . S
C1296 C1294 1.391 . S
C1296 C1297 1.400 . S
C1297 C1291 1.491 . S
C1297 C1296 1.400 . S
C1297 C1298 1.398 . S
C1298 H1286 0.950 . S
C1298 C1297 1.398 . S
C1298 C1299 1.391 . S
C1299 H1287 0.950 . S
C1299 C1295 1.393 . S
C1299 C1298 1.391 . S
H1300 C1308 0.950 . S
H1301 C1313 0.950 . S
H1302 C1310 0.950 . S
H1303 C1312 0.950 . S
H1304 C1314 0.950 . S
H1305 C1316 0.950 . S
H1306 C1318 0.950 . S
H1307 C1319 0.950 . S
C1308 H1300 0.950 . S
C1308 C1309 1.386 . S
C1308 C1310 1.391 . S
C1309 C1308 1.386 . S
C1309 C1313 1.393 . S
C1310 H1302 0.950 . S
C1310 C1308 1.391 . S
C1310 C1311 1.400 . S
C1311 C1310 1.400 . S
C1311 C1312 1.398 . S
C1311 C1317 1.491 . S
C1312 H1303 0.950 . S
C1312 C1311 1.398 . S
C1312 C1313 1.391 . S
C1313 H1301 0.950 . S
C1313 C1309 1.393 . S
C1313 C1312 1.391 . S
C1314 H1304 0.950 . S
C1314 C1315 1.386 . S
C1314 C1316 1.391 . S
C1315 C1314 1.386 . S
C1315 C1319 1.393 . S
C1316 H1305 0.950 . S
C1316 C1314 1.391 . S
C1316 C1317 1.400 . S
C1317 C1311 1.491 . S
C1317 C1316 1.400 . S
C1317 C1318 1.398 . S
C1318 H1306 0.950 . S
C1318 C1317 1.398 . S
C1318 C1319 1.391 . S
C1319 H1307 0.950 . S
C1319 C1315 1.393 . S
C1319 C1318 1.391 . S
H1320 C1328 0.950 . S
H1321 C1333 0.950 . S
H1322 C1330 0.950 . S
H1323 C1332 0.950 . S
H1324 C1334 0.950 . S
H1325 C1336 0.950 . S
H1326 C1338 0.950 . S
H1327 C1339 0.950 . S
C1328 H1320 0.950 . S
C1328 C1329 1.386 . S
C1328 C1330 1.391 . S
C1329 C1328 1.386 . S
C1329 C1333 1.393 . S
C1330 H1322 0.950 . S
C1330 C1328 1.391 . S
C1330 C1331 1.400 . S
C1331 C1330 1.400 . S
C1331 C1332 1.398 . S
C1331 C1337 1.491 . S
C1332 H1323 0.950 . S
C1332 C1331 1.398 . S
C1332 C1333 1.391 . S
C1333 H1321 0.950 . S
C1333 C1329 1.393 . S
C1333 C1332 1.391 . S
C1334 H1324 0.950 . S
C1334 C1335 1.386 . S
C1334 C1336 1.391 . S
C1335 C1334 1.386 . S
C1335 C1339 1.393 . S
C1336 H1325 0.950 . S
C1336 C1334 1.391 . S
C1336 C1337 1.400 . S
C1337 C1331 1.491 . S
C1337 C1336 1.400 . S
C1337 C1338 1.398 . S
C1338 H1326 0.950 . S
C1338 C1337 1.398 . S
C1338 C1339 1.391 . S
C1339 H1327 0.950 . S
C1339 C1335 1.393 . S
C1339 C1338 1.391 . S
H1340 C1348 0.950 . S
H1341 C1353 0.950 . S
H1342 C1350 0.950 . S
H1343 C1352 0.950 . S
H1344 C1354 0.950 . S
H1345 C1356 0.950 . S
H1346 C1358 0.950 . S
H1347 C1359 0.950 . S
C1348 H1340 0.950 . S
C1348 C1349 1.386 . S
C1348 C1350 1.391 . S
C1349 C1348 1.386 . S
C1349 C1353 1.393 . S
C1350 H1342 0.950 . S
C1350 C1348 1.391 . S
C1350 C1351 1.400 . S
C1351 C1350 1.400 . S
C1351 C1352 1.398 . S
C1351 C1357 1.491 . S
C1352 H1343 0.950 . S
C1352 C1351 1.398 . S
C1352 C1353 1.391 . S
C1353 H1341 0.950 . S
C1353 C1349 1.393 . S
C1353 C1352 1.391 . S
C1354 H1344 0.950 . S
C1354 C1355 1.386 . S
C1354 C1356 1.391 . S
C1355 C1354 1.386 . S
C1355 C1359 1.393 . S
C1356 H1345 0.950 . S
C1356 C1354 1.391 . S
C1356 C1357 1.400 . S
C1357 C1351 1.491 . S
C1357 C1356 1.400 . S
C1357 C1358 1.398 . S
C1358 H1346 0.950 . S
C1358 C1357 1.398 . S
C1358 C1359 1.391 . S
C1359 H1347 0.950 . S
C1359 C1355 1.393 . S
C1359 C1358 1.391 . S
H1360 C1368 0.950 . S
H1361 C1373 0.950 . S
H1362 C1370 0.950 . S
H1363 C1372 0.950 . S
H1364 C1374 0.950 . S
H1365 C1376 0.950 . S
H1366 C1378 0.950 . S
H1367 C1379 0.950 . S
C1368 H1360 0.950 . S
C1368 C1369 1.386 . S
C1368 C1370 1.391 . S
C1369 C1368 1.386 . S
C1369 C1373 1.393 . S
C1370 H1362 0.950 . S
C1370 C1368 1.391 . S
C1370 C1371 1.400 . S
C1371 C1370 1.400 . S
C1371 C1372 1.398 . S
C1371 C1377 1.491 . S
C1372 H1363 0.950 . S
C1372 C1371 1.398 . S
C1372 C1373 1.391 . S
C1373 H1361 0.950 . S
C1373 C1369 1.393 . S
C1373 C1372 1.391 . S
C1374 H1364 0.950 . S
C1374 C1375 1.386 . S
C1374 C1376 1.391 . S
C1375 C1374 1.386 . S
C1375 C1379 1.393 . S
C1376 H1365 0.950 . S
C1376 C1374 1.391 . S
C1376 C1377 1.400 . S
C1377 C1371 1.491 . S
C1377 C1376 1.400 . S
C1377 C1378 1.398 . S
C1378 H1366 0.950 . S
C1378 C1377 1.398 . S
C1378 C1379 1.391 . S
C1379 H1367 0.950 . S
C1379 C1375 1.393 . S
C1379 C1378 1.391 . S
H1380 C1388 0.950 . S
H1381 C1393 0.950 . S
H1382 C1390 0.950 . S
H1383 C1392 0.950 1_556 S
H1384 C1394 0.950 . S
H1385 C1396 0.950 . S
H1386 C1398 0.950 . S
H1387 C1399 0.950 . S
C1388 H1380 0.950 . S
C1388 C1389 1.386 . S
C1388 C1390 1.391 . S
C1389 C1388 1.386 . S
C1389 C1393 1.393 . S
C1390 H1382 0.950 . S
C1390 C1388 1.391 . S
C1390 C1391 1.400 . S
C1391 C1390 1.400 . S
C1391 C1392 1.398 . S
C1391 C1397 1.491 . S
C1392 H1383 0.950 1_554 S
C1392 C1391 1.398 . S
C1392 C1393 1.391 . S
C1393 H1381 0.950 . S
C1393 C1389 1.393 . S
C1393 C1392 1.391 . S
C1394 H1384 0.950 . S
C1394 C1395 1.386 1_556 S
C1394 C1396 1.391 . S
C1395 C1394 1.386 1_554 S
C1395 C1399 1.393 . S
C1396 H1385 0.950 . S
C1396 C1394 1.391 . S
C1396 C1397 1.400 1_556 S
C1397 C1391 1.491 . S
C1397 C1396 1.400 1_554 S
C1397 C1398 1.398 . S
C1398 H1386 0.950 . S
C1398 C1397 1.398 . S
C1398 C1399 1.391 . S
C1399 H1387 0.950 . S
C1399 C1395 1.393 . S
C1399 C1398 1.391 . S
H1400 C1408 0.950 . S
H1401 C1413 0.950 . S
H1402 C1410 0.950 . S
H1403 C1412 0.950 . S
H1404 C1414 0.950 . S
H1405 C1416 0.950 . S
H1406 C1418 0.950 . S
H1407 C1419 0.950 . S
C1408 H1400 0.950 . S
C1408 C1409 1.386 . S
C1408 C1410 1.391 . S
C1409 C1408 1.386 . S
C1409 C1413 1.393 . S
C1410 H1402 0.950 . S
C1410 C1408 1.391 . S
C1410 C1411 1.400 . S
C1411 C1410 1.400 . S
C1411 C1412 1.398 . S
C1411 C1417 1.491 . S
C1412 H1403 0.950 . S
C1412 C1411 1.398 . S
C1412 C1413 1.391 . S
C1413 H1401 0.950 . S
C1413 C1409 1.393 . S
C1413 C1412 1.391 . S
C1414 H1404 0.950 . S
C1414 C1415 1.386 . S
C1414 C1416 1.391 . S
C1415 C1414 1.386 . S
C1415 C1419 1.393 . S
C1416 H1405 0.950 . S
C1416 C1414 1.391 . S
C1416 C1417 1.400 . S
C1417 C1411 1.491 . S
C1417 C1416 1.400 . S
C1417 C1418 1.398 . S
C1418 H1406 0.950 . S
C1418 C1417 1.398 . S
C1418 C1419 1.391 . S
C1419 H1407 0.950 . S
C1419 C1415 1.393 . S
C1419 C1418 1.391 . S
H1420 C1428 0.950 . S
H1421 C1433 0.950 . S
H1422 C1430 0.950 . S
H1423 C1432 0.950 . S
H1424 C1434 0.950 . S
H1425 C1436 0.950 . S
H1426 C1438 0.950 . S
H1427 C1439 0.950 . S
C1428 H1420 0.950 . S
C1428 C1429 1.386 . S
C1428 C1430 1.391 . S
C1429 C1428 1.386 . S
C1429 C1433 1.393 . S
C1430 H1422 0.950 . S
C1430 C1428 1.391 . S
C1430 C1431 1.400 . S
C1431 C1430 1.400 . S
C1431 C1432 1.398 . S
C1431 C1437 1.491 . S
C1432 H1423 0.950 . S
C1432 C1431 1.398 . S
C1432 C1433 1.391 . S
C1433 H1421 0.950 . S
C1433 C1429 1.393 . S
C1433 C1432 1.391 . S
C1434 H1424 0.950 . S
C1434 C1435 1.386 . S
C1434 C1436 1.391 . S
C1435 C1434 1.386 . S
C1435 C1439 1.393 . S
C1436 H1425 0.950 . S
C1436 C1434 1.391 . S
C1436 C1437 1.400 . S
C1437 C1431 1.491 . S
C1437 C1436 1.400 . S
C1437 C1438 1.398 . S
C1438 H1426 0.950 . S
C1438 C1437 1.398 . S
C1438 C1439 1.391 . S
C1439 H1427 0.950 . S
C1439 C1435 1.393 . S
C1439 C1438 1.391 . S
H1440 C1448 0.950 . S
H1441 C1453 0.950 . S
H1442 C1450 0.950 . S
H1443 C1452 0.950 . S
H1444 C1454 0.950 . S
H1445 C1456 0.950 . S
H1446 C1458 0.950 . S
H1447 C1459 0.950 . S
C1448 H1440 0.950 . S
C1448 C1449 1.386 . S
C1448 C1450 1.391 . S
C1449 C1448 1.386 . S
C1449 C1453 1.393 . S
C1450 H1442 0.950 . S
C1450 C1448 1.391 . S
C1450 C1451 1.400 . S
C1451 C1450 1.400 . S
C1451 C1452 1.398 . S
C1451 C1457 1.491 . S
C1452 H1443 0.950 . S
C1452 C1451 1.398 . S
C1452 C1453 1.391 . S
C1453 H1441 0.950 . S
C1453 C1449 1.393 . S
C1453 C1452 1.391 . S
C1454 H1444 0.950 . S
C1454 C1455 1.386 . S
C1454 C1456 1.391 . S
C1455 C1454 1.386 . S
C1455 C1459 1.393 . S
C1456 H1445 0.950 . S
C1456 C1454 1.391 . S
C1456 C1457 1.400 . S
C1457 C1451 1.491 . S
C1457 C1456 1.400 . S
C1457 C1458 1.398 . S
C1458 H1446 0.950 . S
C1458 C1457 1.398 . S
C1458 C1459 1.391 . S
C1459 H1447 0.950 . S
C1459 C1455 1.393 . S
C1459 C1458 1.391 . S
H1460 C1468 0.950 . S
H1461 C1473 0.950 . S
H1462 C1470 0.950 . S
H1463 C1472 0.950 . S
H1464 C1474 0.950 . S
H1465 C1476 0.950 . S
H1466 C1478 0.950 . S
H1467 C1479 0.950 . S
C1468 H1460 0.950 . S
C1468 C1469 1.386 . S
C1468 C1470 1.391 . S
C1469 C1468 1.386 . S
C1469 C1473 1.393 . S
C1470 H1462 0.950 . S
C1470 C1468 1.391 . S
C1470 C1471 1.400 . S
C1471 C1470 1.400 . S
C1471 C1472 1.398 . S
C1471 C1477 1.491 . S
C1472 H1463 0.950 . S
C1472 C1471 1.398 . S
C1472 C1473 1.391 . S
C1473 H1461 0.950 . S
C1473 C1469 1.393 . S
C1473 C1472 1.391 . S
C1474 H1464 0.950 . S
C1474 C1475 1.386 . S
C1474 C1476 1.391 . S
C1475 C1474 1.386 . S
C1475 C1479 1.393 . S
C1476 H1465 0.950 . S
C1476 C1474 1.391 . S
C1476 C1477 1.400 . S
C1477 C1471 1.491 . S
C1477 C1476 1.400 . S
C1477 C1478 1.398 . S
C1478 H1466 0.950 . S
C1478 C1477 1.398 . S
C1478 C1479 1.391 . S
C1479 H1467 0.950 . S
C1479 C1475 1.393 . S
C1479 C1478 1.391 . S
H1480 C1488 0.950 . S
H1481 C1493 0.950 . S
H1482 C1490 0.950 . S
H1483 C1492 0.950 . S
H1484 C1494 0.950 . S
H1485 C1496 0.950 . S
H1486 C1498 0.950 1_554 S
H1487 C1499 0.950 . S
C1488 H1480 0.950 . S
C1488 C1489 1.386 1_554 S
C1488 C1490 1.391 . S
C1489 C1488 1.386 1_556 S
C1489 C1493 1.393 . S
C1490 H1482 0.950 . S
C1490 C1488 1.391 . S
C1490 C1491 1.400 1_554 S
C1491 C1490 1.400 1_556 S
C1491 C1492 1.398 . S
C1491 C1497 1.491 . S
C1492 H1483 0.950 . S
C1492 C1491 1.398 . S
C1492 C1493 1.391 . S
C1493 H1481 0.950 . S
C1493 C1489 1.393 . S
C1493 C1492 1.391 . S
C1494 H1484 0.950 . S
C1494 C1495 1.386 . S
C1494 C1496 1.391 . S
C1495 C1494 1.386 . S
C1495 C1499 1.393 . S
C1496 H1485 0.950 . S
C1496 C1494 1.391 . S
C1496 C1497 1.400 . S
C1497 C1491 1.491 . S
C1497 C1496 1.400 . S
C1497 C1498 1.398 . S
C1498 H1486 0.950 1_556 S
C1498 C1497 1.398 . S
C1498 C1499 1.391 . S
C1499 H1487 0.950 . S
C1499 C1495 1.393 . S
C1499 C1498 1.391 . S
H1500 C1508 0.950 . S
H1501 C1513 0.950 . S
H1502 C1510 0.950 . S
H1503 C1512 0.950 . S
H1504 C1514 0.950 . S
H1505 C1516 0.950 . S
H1506 C1518 0.950 . S
H1507 C1519 0.950 . S
C1508 H1500 0.950 . S
C1508 C1509 1.386 . S
C1508 C1510 1.391 . S
C1509 C1508 1.386 . S
C1509 C1513 1.393 . S
C1510 H1502 0.950 . S
C1510 C1508 1.391 . S
C1510 C1511 1.400 . S
C1511 C1510 1.400 . S
C1511 C1512 1.398 . S
C1511 C1517 1.491 . S
C1512 H1503 0.950 . S
C1512 C1511 1.398 . S
C1512 C1513 1.391 . S
C1513 H1501 0.950 . S
C1513 C1509 1.393 . S
C1513 C1512 1.391 . S
C1514 H1504 0.950 . S
C1514 C1515 1.386 . S
C1514 C1516 1.391 . S
C1515 C1514 1.386 . S
C1515 C1519 1.393 . S
C1516 H1505 0.950 . S
C1516 C1514 1.391 . S
C1516 C1517 1.400 . S
C1517 C1511 1.491 . S
C1517 C1516 1.400 . S
C1517 C1518 1.398 . S
C1518 H1506 0.950 . S
C1518 C1517 1.398 . S
C1518 C1519 1.391 . S
C1519 H1507 0.950 . S
C1519 C1515 1.393 . S
C1519 C1518 1.391 . S
H1520 C1528 0.950 . S
H1521 C1533 0.950 . S
H1522 C1530 0.950 . S
H1523 C1532 0.950 . S
H1524 C1534 0.950 . S
H1525 C1536 0.950 . S
H1526 C1538 0.950 . S
H1527 C1539 0.950 . S
C1528 H1520 0.950 . S
C1528 C1529 1.386 . S
C1528 C1530 1.391 . S
C1529 C1528 1.386 . S
C1529 C1533 1.393 . S
C1530 H1522 0.950 . S
C1530 C1528 1.391 . S
C1530 C1531 1.400 . S
C1531 C1530 1.400 . S
C1531 C1532 1.398 . S
C1531 C1537 1.491 . S
C1532 H1523 0.950 . S
C1532 C1531 1.398 . S
C1532 C1533 1.391 . S
C1533 H1521 0.950 . S
C1533 C1529 1.393 . S
C1533 C1532 1.391 . S
C1534 H1524 0.950 . S
C1534 C1535 1.386 . S
C1534 C1536 1.391 . S
C1535 C1534 1.386 . S
C1535 C1539 1.393 . S
C1536 H1525 0.950 . S
C1536 C1534 1.391 . S
C1536 C1537 1.400 . S
C1537 C1531 1.491 . S
C1537 C1536 1.400 . S
C1537 C1538 1.398 . S
C1538 H1526 0.950 . S
C1538 C1537 1.398 . S
C1538 C1539 1.391 . S
C1539 H1527 0.950 . S
C1539 C1535 1.393 . S
C1539 C1538 1.391 . S
H1540 C1548 0.950 . S
H1541 C1553 0.950 . S
H1542 C1550 0.950 . S
H1543 C1552 0.950 . S
H1544 C1554 0.950 . S
H1545 C1556 0.950 . S
H1546 C1558 0.950 . S
H1547 C1559 0.950 . S
C1548 H1540 0.950 . S
C1548 C1549 1.386 . S
C1548 C1550 1.391 . S
C1549 C1548 1.386 . S
C1549 C1553 1.393 . S
C1550 H1542 0.950 . S
C1550 C1548 1.391 . S
C1550 C1551 1.400 . S
C1551 C1550 1.400 . S
C1551 C1552 1.398 . S
C1551 C1557 1.491 . S
C1552 H1543 0.950 . S
C1552 C1551 1.398 . S
C1552 C1553 1.391 . S
C1553 H1541 0.950 . S
C1553 C1549 1.393 . S
C1553 C1552 1.391 . S
C1554 H1544 0.950 . S
C1554 C1555 1.386 . S
C1554 C1556 1.391 . S
C1555 C1554 1.386 . S
C1555 C1559 1.393 . S
C1556 H1545 0.950 . S
C1556 C1554 1.391 . S
C1556 C1557 1.400 . S
C1557 C1551 1.491 . S
C1557 C1556 1.400 . S
C1557 C1558 1.398 . S
C1558 H1546 0.950 . S
C1558 C1557 1.398 . S
C1558 C1559 1.391 . S
C1559 H1547 0.950 . S
C1559 C1555 1.393 . S
C1559 C1558 1.391 . S
H1560 C1568 0.950 . S
H1561 C1573 0.950 . S
H1562 C1570 0.950 . S
H1563 C1572 0.950 . S
H1564 C1574 0.950 . S
H1565 C1576 0.950 . S
H1566 C1578 0.950 . S
H1567 C1579 0.950 . S
C1568 H1560 0.950 . S
C1568 C1569 1.386 . S
C1568 C1570 1.391 . S
C1569 C1568 1.386 . S
C1569 C1573 1.393 . S
C1570 H1562 0.950 . S
C1570 C1568 1.391 . S
C1570 C1571 1.400 . S
C1571 C1570 1.400 . S
C1571 C1572 1.398 . S
C1571 C1577 1.491 . S
C1572 H1563 0.950 . S
C1572 C1571 1.398 . S
C1572 C1573 1.391 . S
C1573 H1561 0.950 . S
C1573 C1569 1.393 . S
C1573 C1572 1.391 . S
C1574 H1564 0.950 . S
C1574 C1575 1.386 . S
C1574 C1576 1.391 . S
C1575 C1574 1.386 . S
C1575 C1579 1.393 . S
C1576 H1565 0.950 . S
C1576 C1574 1.391 . S
C1576 C1577 1.400 . S
C1577 C1571 1.491 . S
C1577 C1576 1.400 . S
C1577 C1578 1.398 . S
C1578 H1566 0.950 . S
C1578 C1577 1.398 . S
C1578 C1579 1.391 . S
C1579 H1567 0.950 . S
C1579 C1575 1.393 . S
C1579 C1578 1.391 . S
H1580 C1588 0.950 . S
H1581 C1593 0.950 . S
H1582 C1590 0.950 . S
H1583 C1592 0.950 . S
H1584 C1594 0.950 . S
H1585 C1596 0.950 . S
H1586 C1598 0.950 . S
H1587 C1599 0.950 . S
C1588 H1580 0.950 . S
C1588 C1589 1.386 . S
C1588 C1590 1.391 . S
C1589 C1588 1.386 . S
C1589 C1593 1.393 . S
C1590 H1582 0.950 . S
C1590 C1588 1.391 . S
C1590 C1591 1.400 . S
C1591 C1590 1.400 . S
C1591 C1592 1.398 . S
C1591 C1597 1.491 . S
C1592 H1583 0.950 . S
C1592 C1591 1.398 . S
C1592 C1593 1.391 . S
C1593 H1581 0.950 . S
C1593 C1589 1.393 . S
C1593 C1592 1.391 . S
C1594 H1584 0.950 . S
C1594 C1595 1.386 . S
C1594 C1596 1.391 . S
C1595 C1594 1.386 . S
C1595 C1599 1.393 . S
C1596 H1585 0.950 . S
C1596 C1594 1.391 . S
C1596 C1597 1.400 . S
C1597 C1591 1.491 . S
C1597 C1596 1.400 . S
C1597 C1598 1.398 . S
C1598 H1586 0.950 . S
C1598 C1597 1.398 . S
C1598 C1599 1.391 . S
C1599 H1587 0.950 . S
C1599 C1595 1.393 . S
C1599 C1598 1.391 . S
C649 C11 1.210 . S
C655 C56 1.158 . S
C669 C91 1.926 . S
C675 C42 1.902 . S
C689 C122 2.222 . S
C695 C99 2.233 . S
C709 C19 1.338 . S
C715 C136 1.291 . S
C729 C10 1.353 . S
C735 C367 1.321 . S
C749 C282 1.225 . S
C755 C47 1.194 . S
C769 C82 1.929 . S
C775 C411 1.889 . S
C789 C131 2.209 . S
C795 C530 2.240 . S
C809 C322 1.927 . S
C815 C51 1.900 . S
C829 C491 2.213 . S
C835 C90 2.242 . S
C849 C570 1.354 . S
C855 C127 1.309 . S
C869 C2 1.215 . S
C875 C447 1.165 . S
C889 C16 0.430 . S
C895 C327 0.385 . S
C909 C499 1.656 . S
C915 C170 1.653 . S
C929 C216 0.410 . S
C935 C567 0.455 . S
C949 C450 1.665 . S
C955 C259 1.642 . S
C969 C96 0.397 . S
C975 C287 0.494 . S
C989 C370 1.650 . S
C995 C179 1.659 . S
C1009 C250 1.656 . S
C1015 C419 1.653 . S
C1029 C202 1.929 . S
C1035 C451 1.891 . S
C1049 C371 2.214 . S
C1055 C210 2.242 . S
C1069 C456 1.161 . S
C1075 C291 1.209 . S
C1089 C211 1.929 . S
C1095 C162 1.888 . S
C1109 C362 2.210 . S
C1115 C339 2.231 . S
C1129 C531 1.929 . S
C1135 C442 1.889 . S
C1149 C242 2.210 . S
C1155 C219 2.241 . S
C1169 C376 1.301 . S
C1175 C579 1.328 . S
C1189 C536 0.399 . S
C1195 C7 0.494 . S
C1209 C87 0.356 . S
C1215 C576 0.440 . S
C1229 C490 1.657 . S
C1235 C59 1.652 . S
C1249 C296 0.485 . S
C1255 C207 0.416 . S
C1269 C139 1.642 . S
C1275 C410 1.666 . S
C1289 C482 2.211 . S
C1295 C539 2.230 . S
C1309 C299 1.336 . S
C1315 C496 1.290 . S
C1329 C247 1.325 . S
C1335 C290 1.348 . S
C1349 C171 1.893 . S
C1355 C522 1.928 . S
C1369 C487 1.323 . S
C1375 C610 1.353 . S
C1389 C607 0.453 . S
C1395 C336 0.410 . S
C1409 C50 1.662 . S
C1415 C379 1.645 . S
C1429 C330 2.231 . S
C1435 C251 2.219 . S
C1449 C331 1.926 . S
C1455 C402 1.900 . S
C1469 C619 1.334 . S
C1475 C256 1.317 . S
C1489 C527 0.408 . S
C1495 C616 0.451 . S
C1509 C459 1.663 . S
C1515 C130 1.646 . S
C1529 C416 1.193 . S
C1535 C571 1.225 . S
C1549 C407 1.159 . S
C1555 C602 1.209 . S
C1569 C167 1.194 . S
C1575 C562 1.226 . S
C1589 C611 1.211 . S
C1595 C176 1.159 . S
