# Generated by pormake.
# Topology wlk, (5)-cn, num edge types: 1
# Building blocks:
#     Node 0, Type 0, BuildingBlock: XOMCOT_clean_sbu_0, # of connection points: 5
#     Node 1, Type 0, BuildingBlock: XOMCOT_clean_sbu_0, # of connection points: 5
#     Node 2, Type 0, BuildingBlock: XOMCOT_clean_sbu_0, # of connection points: 5
#     Node 3, Type 0, BuildingBlock: XOMCOT_clean_sbu_0, # of connection points: 5
#     Node 4, Type 0, BuildingBlock: XOMCOT_clean_sbu_0, # of connection points: 5
#     Node 5, Type 0, BuildingBlock: XOMCOT_clean_sbu_0, # of connection points: 5
#     Node 6, Type 0, BuildingBlock: XOMCOT_clean_sbu_0, # of connection points: 5
#     Node 7, Type 0, BuildingBlock: XOMCOT_clean_sbu_0, # of connection points: 5
#     Node 8, Type 0, BuildingBlock: XOMCOT_clean_sbu_0, # of connection points: 5
#     Node 9, Type 0, BuildingBlock: XOMCOT_clean_sbu_0, # of connection points: 5
#     Node 10, Type 0, BuildingBlock: XOMCOT_clean_sbu_0, # of connection points: 5
#     Node 11, Type 0, BuildingBlock: XOMCOT_clean_sbu_0, # of connection points: 5
#     Node 12, Type 0, BuildingBlock: XOMCOT_clean_sbu_0, # of connection points: 5
#     Node 13, Type 0, BuildingBlock: XOMCOT_clean_sbu_0, # of connection points: 5
#     Node 14, Type 0, BuildingBlock: XOMCOT_clean_sbu_0, # of connection points: 5
#     Node 15, Type 0, BuildingBlock: XOMCOT_clean_sbu_0, # of connection points: 5
#     Node 16, Type 0, BuildingBlock: XOMCOT_clean_sbu_0, # of connection points: 5
#     Node 17, Type 0, BuildingBlock: XOMCOT_clean_sbu_0, # of connection points: 5
#     Edge 18, Type (0, 0), BuildingBlock: TEMPAE_clean_linker_10, # of connection points: 2
#     Edge 19, Type (0, 0), BuildingBlock: TEMPAE_clean_linker_10, # of connection points: 2
#     Edge 20, Type (0, 0), BuildingBlock: TEMPAE_clean_linker_10, # of connection points: 2
#     Edge 21, Type (0, 0), BuildingBlock: TEMPAE_clean_linker_10, # of connection points: 2
#     Edge 22, Type (0, 0), BuildingBlock: TEMPAE_clean_linker_10, # of connection points: 2
#     Edge 23, Type (0, 0), BuildingBlock: TEMPAE_clean_linker_10, # of connection points: 2
#     Edge 24, Type (0, 0), BuildingBlock: TEMPAE_clean_linker_10, # of connection points: 2
#     Edge 25, Type (0, 0), BuildingBlock: TEMPAE_clean_linker_10, # of connection points: 2
#     Edge 26, Type (0, 0), BuildingBlock: TEMPAE_clean_linker_10, # of connection points: 2
#     Edge 27, Type (0, 0), BuildingBlock: TEMPAE_clean_linker_10, # of connection points: 2
#     Edge 28, Type (0, 0), BuildingBlock: TEMPAE_clean_linker_10, # of connection points: 2
#     Edge 29, Type (0, 0), BuildingBlock: TEMPAE_clean_linker_10, # of connection points: 2
#     Edge 30, Type (0, 0), BuildingBlock: TEMPAE_clean_linker_10, # of connection points: 2
#     Edge 31, Type (0, 0), BuildingBlock: TEMPAE_clean_linker_10, # of connection points: 2
#     Edge 32, Type (0, 0), BuildingBlock: TEMPAE_clean_linker_10, # of connection points: 2
#     Edge 33, Type (0, 0), BuildingBlock: TEMPAE_clean_linker_10, # of connection points: 2
#     Edge 34, Type (0, 0), BuildingBlock: TEMPAE_clean_linker_10, # of connection points: 2
#     Edge 35, Type (0, 0), BuildingBlock: TEMPAE_clean_linker_10, # of connection points: 2
#     Edge 36, Type (0, 0), BuildingBlock: TEMPAE_clean_linker_10, # of connection points: 2
#     Edge 37, Type (0, 0), BuildingBlock: TEMPAE_clean_linker_10, # of connection points: 2
#     Edge 38, Type (0, 0), BuildingBlock: TEMPAE_clean_linker_10, # of connection points: 2
#     Edge 39, Type (0, 0), BuildingBlock: TEMPAE_clean_linker_10, # of connection points: 2
#     Edge 40, Type (0, 0), BuildingBlock: TEMPAE_clean_linker_10, # of connection points: 2
#     Edge 41, Type (0, 0), BuildingBlock: TEMPAE_clean_linker_10, # of connection points: 2
#     Edge 42, Type (0, 0), BuildingBlock: TEMPAE_clean_linker_10, # of connection points: 2
#     Edge 43, Type (0, 0), BuildingBlock: TEMPAE_clean_linker_10, # of connection points: 2
#     Edge 44, Type (0, 0), BuildingBlock: TEMPAE_clean_linker_10, # of connection points: 2
#     Edge 45, Type (0, 0), BuildingBlock: TEMPAE_clean_linker_10, # of connection points: 2
#     Edge 46, Type (0, 0), BuildingBlock: TEMPAE_clean_linker_10, # of connection points: 2
#     Edge 47, Type (0, 0), BuildingBlock: TEMPAE_clean_linker_10, # of connection points: 2
#     Edge 48, Type (0, 0), BuildingBlock: TEMPAE_clean_linker_10, # of connection points: 2
#     Edge 49, Type (0, 0), BuildingBlock: TEMPAE_clean_linker_10, # of connection points: 2
#     Edge 50, Type (0, 0), BuildingBlock: TEMPAE_clean_linker_10, # of connection points: 2
#     Edge 51, Type (0, 0), BuildingBlock: TEMPAE_clean_linker_10, # of connection points: 2
#     Edge 52, Type (0, 0), BuildingBlock: TEMPAE_clean_linker_10, # of connection points: 2
#     Edge 53, Type (0, 0), BuildingBlock: TEMPAE_clean_linker_10, # of connection points: 2
#     Edge 54, Type (0, 0), BuildingBlock: TEMPAE_clean_linker_10, # of connection points: 2
#     Edge 55, Type (0, 0), BuildingBlock: TEMPAE_clean_linker_10, # of connection points: 2
#     Edge 56, Type (0, 0), BuildingBlock: TEMPAE_clean_linker_10, # of connection points: 2
#     Edge 57, Type (0, 0), BuildingBlock: TEMPAE_clean_linker_10, # of connection points: 2
#     Edge 58, Type (0, 0), BuildingBlock: TEMPAE_clean_linker_10, # of connection points: 2
#     Edge 59, Type (0, 0), BuildingBlock: TEMPAE_clean_linker_10, # of connection points: 2
#     Edge 60, Type (0, 0), BuildingBlock: TEMPAE_clean_linker_10, # of connection points: 2
#     Edge 61, Type (0, 0), BuildingBlock: TEMPAE_clean_linker_10, # of connection points: 2
#     Edge 62, Type (0, 0), BuildingBlock: TEMPAE_clean_linker_10, # of connection points: 2
# Relax obj value: 0.215
# Max RMSD: 0.254
# Mean RMSD: 0.254
data_MOF--net-wlk--node1-XOMCOT_clean_sbu_0--edge1-TEMPAE_clean_linker_10
_symmetry_space_group_name_H-M    P1
_symmetry_Int_Tables_number       1
_symmetry_cell_setting            triclinic
loop_
_symmetry_equiv_pos_as_xyz
'x, y, z'
_cell_length_a     66.174295
_cell_length_b     66.183923
_cell_length_c     28.506515
_cell_angle_alpha  89.976099
_cell_angle_beta   89.985619
_cell_angle_gamma 120.03714
loop_
_atom_site_label
_atom_site_type_symbol
_atom_site_fract_x
_atom_site_fract_y
_atom_site_fract_z
_atom_type_partial_charge
Co0 Co 0.20772 0.27317 0.09569 0.0
C1 C 0.219 0.24163 0.03962 0.0
C2 C 0.18234 0.22743 0.0494 0.0
C3 C 0.18586 0.21078 0.02848 0.0
N4 N 0.20301 0.24725 0.05511 0.0
N5 N 0.20897 0.21963 0.0223 0.0
H6 H 0.23757 0.25259 0.04427 0.0
H7 H 0.16582 0.22435 0.06315 0.0
C8 C 0.16547 0.26339 0.04136 0.0
O9 O 0.17775 0.26492 0.0039 0.0
N10 N 0.21219 0.29798 0.13794 0.0
C11 C 0.23239 0.31807 0.14481 0.0
C12 C 0.22928 0.3303 0.18033 0.0
C13 C 0.19702 0.29817 0.16943 0.0
N14 N 0.20708 0.31779 0.19591 0.0
C15 C 0.23998 0.29932 0.02241 0.0
C16 C 0.22533 0.33142 0.01 0.0
C17 C 0.24568 0.33508 0.98727 0.0
C18 C 0.25262 0.31842 0.99303 0.0
C19 C 0.21295 0.31181 0.03875 0.0
N20 N 0.2204 0.29606 0.04498 0.0
H21 H 0.24711 0.28823 0.02957 0.0
H22 H 0.19814 0.31006 0.05825 0.0
H23 H 0.2484 0.32325 0.12579 0.0
H24 H 0.17934 0.28391 0.17403 0.0
O25 O 0.23667 0.27651 0.11742 0.0
O26 O 0.20204 0.25263 0.14911 0.0
O27 O 0.17468 0.26626 0.08215 0.0
C28 C 0.22459 0.26105 0.1491 0.0
H29 H 0.17248 0.19289 0.02205 0.0
H30 H 0.24241 0.34707 0.19389 0.0
H31 H 0.21946 0.34399 0.00686 0.0
H32 H 0.26864 0.3209 0.97745 0.0
Co33 Co 0.74067 0.9372 0.09798 0.0
C34 C 0.77324 0.97982 0.04282 0.0
C35 C 0.78591 0.95595 0.04955 0.0
C36 C 0.80317 0.97623 0.02984 0.0
N37 N 0.7667 0.95773 0.05671 0.0
N38 N 0.79532 0.99142 0.0257 0.0
H39 H 0.76292 0.98801 0.04883 0.0
H40 H 0.78826 0.94183 0.06183 0.0
C41 C 0.748 0.90291 0.04368 0.0
O42 O 0.74605 0.91317 0.00586 0.0
N43 N 0.71576 0.91751 0.14086 0.0
C44 C 0.69509 0.9167 0.14537 0.0
C45 C 0.68248 0.90114 0.18045 0.0
C46 C 0.7157 0.90286 0.17399 0.0
N47 N 0.69545 0.89252 0.19851 0.0
C48 C 0.71536 0.94502 0.02558 0.0
C49 C 0.68203 0.89882 0.01097 0.0
C50 C 0.67949 0.91627 0.98843 0.0
C51 C 0.6967 0.93959 0.99563 0.0
C52 C 0.70119 0.90505 0.04057 0.0
N53 N 0.71766 0.92799 0.0476 0.0
H54 H 0.72697 0.96307 0.03339 0.0
H55 H 0.70212 0.89145 0.05974 0.0
H56 H 0.68964 0.92684 0.12472 0.0
H57 H 0.73013 0.89984 0.17997 0.0
O58 O 0.73893 0.96366 0.12 0.0
O59 O 0.76166 0.95128 0.15096 0.0
O60 O 0.74627 0.91025 0.08427 0.0
C61 C 0.75447 0.96638 0.1509 0.0
H62 H 0.82083 0.98008 0.02302 0.0
H63 H 0.66528 0.89691 0.19254 0.0
H64 H 0.66904 0.88057 0.00679 0.0
H65 H 0.6951 0.95373 0.98046 0.0
Co66 Co 0.07823 0.80649 0.08237 0.0
C67 C 0.0362 0.79666 0.02531 0.0
C68 C 0.05931 0.83317 0.03541 0.0
C69 C 0.03922 0.83012 0.01483 0.0
N70 N 0.05795 0.81226 0.04097 0.0
N71 N 0.02451 0.8071 0.00852 0.0
H72 H 0.02836 0.77802 0.02944 0.0
H73 H 0.0729 0.84952 0.0494 0.0
C74 C 0.11292 0.85029 0.03498 0.0
O75 O 0.10383 0.83899 0.99567 0.0
N76 N 0.09757 0.80094 0.12555 0.0
C77 C 0.0989 0.78131 0.1287 0.0
C78 C 0.11488 0.78435 0.1629 0.0
C79 C 0.11226 0.81545 0.15868 0.0
N80 N 0.12318 0.80575 0.18174 0.0
C81 C 0.07489 0.77819 0.00316 0.0
C82 C 0.12156 0.79085 1.00136 0.0
C83 C 0.10564 0.77186 0.97433 0.0
C84 C 0.08222 0.76614 0.97411 0.0
C85 C 0.11359 0.80289 0.02908 0.0
N86 N 0.09033 0.79604 0.03094 0.0
H87 H 0.0565 0.77179 0.00582 0.0
H88 H 0.1259 0.8166 0.05184 0.0
H89 H 0.08912 0.76596 0.10718 0.0
H90 H 0.11513 0.83279 0.16533 0.0
O91 O 0.0524 0.77661 0.09852 0.0
O92 O 0.06134 0.80945 0.13563 0.0
O93 O 0.10442 0.84016 0.07436 0.0
C94 C 0.04751 0.78691 0.13163 0.0
H95 H 0.03508 0.84379 0.00898 0.0
H96 H 0.11981 0.77171 0.17357 0.0
H97 H 0.13979 0.79567 0.00266 0.0
H98 H 0.06929 0.75124 0.95445 0.0
Co99 Co 0.8112 0.74186 0.90824 0.0
C100 C 0.80186 0.7745 0.96466 0.0
C101 C 0.83828 0.78612 0.9609 0.0
C102 C 0.83554 0.80329 0.98177 0.0
N103 N 0.81713 0.76751 0.95122 0.0
N104 N 0.81259 0.79614 0.98375 0.0
H105 H 0.78343 0.76497 0.95664 0.0
H106 H 0.85486 0.78831 0.94986 0.0
C107 C 0.85364 0.74857 0.9578 0.0
O108 O 0.8418 0.74578 0.99663 0.0
N109 N 0.80549 0.7175 0.86357 0.0
C110 C 0.78465 0.69851 0.85435 0.0
C111 C 0.7872 0.68661 0.81736 0.0
C112 C 0.82049 0.71693 0.83212 0.0
N113 N 0.8097 0.69819 0.80342 0.0
C114 C 0.78093 0.71677 0.98441 0.0
C115 C 0.78976 0.6801 0.98422 0.0
C116 C 0.77025 0.67764 0.00864 0.0
C117 C 0.76671 0.6968 0.01039 0.0
C118 C 0.80388 0.70069 0.95902 0.0
N119 N 0.79884 0.71839 0.95792 0.0
H120 H 0.77617 0.73004 0.98284 0.0
H121 H 0.81778 0.70163 0.93748 0.0
H122 H 0.76861 0.69387 0.87278 0.0
H123 H 0.83865 0.73035 0.82917 0.0
O124 O 0.78215 0.73921 0.89083 0.0
O125 O 0.81577 0.76294 0.85598 0.0
O126 O 0.84422 0.74783 0.91806 0.0
C127 C 0.79327 0.75484 0.8589 0.0
H128 H 0.84959 0.82029 0.9921 0.0
H129 H 0.77353 0.67071 0.80174 0.0
H130 H 0.79319 0.66576 0.98202 0.0
H131 H 0.75218 0.69592 0.02968 0.0
Co132 Co 0.27773 0.07566 0.91085 0.0
C133 C 0.2445 0.03284 0.96545 0.0
C134 C 0.23249 0.05727 0.95969 0.0
C135 C 0.21514 0.03725 0.97977 0.0
N136 N 0.25146 0.0551 0.9519 0.0
N137 N 0.22248 0.02164 0.98294 0.0
H138 H 0.25435 0.02417 0.95857 0.0
H139 H 0.23024 0.0715 0.94782 0.0
C140 C 0.2694 0.10986 0.96201 0.0
O141 O 0.27146 0.09992 1.00024 0.0
N142 N 0.30264 0.09531 0.86784 0.0
C143 C 0.3222 0.09433 0.85975 0.0
C144 C 0.33403 0.10885 0.8227 0.0
C145 C 0.30281 0.11041 0.83566 0.0
N146 N 0.32184 0.11893 0.80757 0.0
C147 C 0.30195 0.07001 0.98833 0.0
C148 C 0.33649 0.11631 0.99541 0.0
C149 C 0.33861 0.09952 0.02163 0.0
C150 C 0.32071 0.0762 0.01851 0.0
C151 C 0.31723 0.10937 0.96577 0.0
N152 N 0.30035 0.08636 0.96204 0.0
H153 H 0.28962 0.05177 0.98389 0.0
H154 H 0.31649 0.12236 0.94399 0.0
H155 H 0.32718 0.08334 0.87871 0.0
H156 H 0.28884 0.11428 0.83155 0.0
O157 O 0.28111 0.04977 0.8927 0.0
O158 O 0.25759 0.05967 0.8571 0.0
O159 O 0.27114 0.10225 0.92168 0.0
C160 C 0.26597 0.04551 0.85988 0.0
H161 H 0.19791 0.03409 0.98871 0.0
H162 H 0.35023 0.11159 0.80765 0.0
H163 H 0.34992 0.13454 0.99667 0.0
H164 H 0.32186 0.0625 0.03698 0.0
Co165 Co 0.94083 0.2027 0.90896 0.0
C166 C 0.98302 0.21347 0.96615 0.0
C167 C 0.95943 0.17683 0.9598 0.0
C168 C 0.97961 0.18011 0.98038 0.0
N169 N 0.96108 0.19772 0.9519 0.0
N170 N 0.99461 0.20321 0.98422 0.0
H171 H 0.99119 0.23195 0.95962 0.0
H172 H 0.94549 0.16025 0.94741 0.0
C173 C 0.90683 0.16213 0.96589 0.0
O174 O 0.91769 0.17489 0.00276 0.0
N175 N 0.92148 0.20747 0.86461 0.0
C176 C 0.92291 0.22807 0.85493 0.0
C177 C 0.90756 0.22485 0.81934 0.0
C178 C 0.90532 0.19195 0.83473 0.0
N179 N 0.89654 0.20217 0.80654 0.0
C180 C 0.94873 0.23804 0.97576 0.0
C181 C 0.90249 0.2258 0.98751 0.0
C182 C 0.92002 0.24728 0.00483 0.0
C183 C 0.9433 0.25294 1.00002 0.0
C184 C 0.90871 0.21132 0.96305 0.0
N185 N 0.93168 0.21765 0.95689 0.0
H186 H 0.96679 0.24406 0.96894 0.0
H187 H 0.89509 0.19587 0.94616 0.0
H188 H 0.93455 0.24438 0.87224 0.0
H189 H 0.90068 0.1738 0.83266 0.0
O190 O 0.96756 0.23036 0.8856 0.0
O191 O 0.95494 0.19469 0.85754 0.0
O192 O 0.91356 0.17057 0.92464 0.0
C193 C 0.97021 0.21695 0.85619 0.0
H194 H 0.9836 0.16646 0.98789 0.0
H195 H 0.90476 0.23821 0.804 0.0
H196 H 0.88428 0.22094 0.99019 0.0
H197 H 0.95737 0.26938 0.01305 0.0
Co198 Co 0.87567 0.60632 0.43521 0.0
C199 C 0.88553 0.57373 0.37943 0.0
C200 C 0.84902 0.56096 0.38768 0.0
C201 C 0.85185 0.54384 0.36693 0.0
N202 N 0.87009 0.5802 0.39431 0.0
N203 N 0.87486 0.55178 0.36179 0.0
H204 H 0.9041 0.58395 0.38489 0.0
H205 H 0.83264 0.55858 0.40073 0.0
C206 C 0.83455 0.59875 0.37909 0.0
O207 O 0.84701 0.60008 0.34206 0.0
N208 N 0.88087 0.63127 0.47776 0.0
C209 C 0.90075 0.65191 0.48258 0.0
C210 C 0.89763 0.66451 0.51737 0.0
C211 C 0.86609 0.63132 0.51038 0.0
N212 N 0.87589 0.65153 0.5349 0.0
C213 C 0.91018 0.63206 0.36553 0.0
C214 C 0.89805 0.66587 0.35006 0.0
C215 C 0.91914 0.66913 0.33169 0.0
C216 C 0.92465 0.65149 0.33841 0.0
C217 C 0.88389 0.64594 0.37709 0.0
N218 N 0.89018 0.6294 0.38508 0.0
H219 H 0.91627 0.62022 0.37373 0.0
H220 H 0.86877 0.6447 0.39435 0.0
H221 H 0.91649 0.65735 0.46238 0.0
H222 H 0.84858 0.61691 0.51601 0.0
O223 O 0.90355 0.60766 0.45825 0.0
O224 O 0.86818 0.58527 0.48844 0.0
O225 O 0.84339 0.60121 0.42015 0.0
C226 C 0.89044 0.59223 0.48905 0.0
H227 H 0.83802 0.5262 0.35991 0.0
H228 H 0.91053 0.68168 0.52966 0.0
H229 H 0.89326 0.6792 0.34605 0.0
H230 H 0.94067 0.65318 0.32457 0.0
Co231 Co 0.40729 0.27105 0.42747 0.0
C232 C 0.43918 0.31313 0.3696 0.0
C233 C 0.45216 0.28958 0.3775 0.0
C234 C 0.46905 0.30949 0.35612 0.0
N235 N 0.43291 0.29128 0.38487 0.0
N236 N 0.46101 0.32448 0.35114 0.0
H237 H 0.42871 0.32126 0.37497 0.0
H238 H 0.45492 0.27586 0.39072 0.0
C239 C 0.41549 0.23625 0.37817 0.0
O240 O 0.4125 0.24525 0.33949 0.0
N241 N 0.38304 0.25177 0.47209 0.0
C242 C 0.36208 0.25031 0.47698 0.0
C243 C 0.35018 0.23514 0.51314 0.0
C244 C 0.38387 0.23796 0.50611 0.0
N245 N 0.3639 0.22746 0.53152 0.0
C246 C 0.38202 0.27459 0.34894 0.0
C247 C 0.34731 0.22817 0.34769 0.0
C248 C 0.34489 0.24421 0.31971 0.0
C249 C 0.36284 0.26749 0.31943 0.0
C250 C 0.36723 0.23589 0.37574 0.0
N251 N 0.38406 0.25903 0.37713 0.0
H252 H 0.39429 0.29292 0.35129 0.0
H253 H 0.36839 0.2235 0.39867 0.0
H254 H 0.3559 0.25964 0.45567 0.0
H255 H 0.39871 0.23559 0.51201 0.0
O256 O 0.40349 0.29689 0.4443 0.0
O257 O 0.42785 0.28809 0.4799 0.0
O258 O 0.41455 0.24478 0.41803 0.0
C259 C 0.41915 0.30195 0.47647 0.0
H260 H 0.48666 0.31334 0.34873 0.0
H261 H 0.33293 0.23047 0.52563 0.0
H262 H 0.33359 0.21006 0.34911 0.0
H263 H 0.36128 0.28045 0.29899 0.0
Co264 Co 0.74385 0.14015 0.43246 0.0
C265 C 0.70058 0.13014 0.38094 0.0
C266 C 0.72684 0.16616 0.37561 0.0
C267 C 0.70673 0.1631 0.35489 0.0
N268 N 0.72315 0.14544 0.39181 0.0
N269 N 0.69006 0.14041 0.35829 0.0
H270 H 0.69173 0.11202 0.39119 0.0
H271 H 0.74252 0.18275 0.38072 0.0
C272 C 0.79185 0.18518 0.42738 0.0
O273 O 0.80198 0.17581 0.45135 0.0
N274 N 0.76353 0.13417 0.47432 0.0
C275 C 0.76851 0.11682 0.47032 0.0
C276 C 0.78192 0.11769 0.50792 0.0
C277 C 0.7729 0.1445 0.51592 0.0
N278 N 0.7849 0.13524 0.5364 0.0
C279 C 0.73457 0.1062 0.36199 0.0
C280 C 0.78002 0.12207 0.33386 0.0
C281 C 0.76231 0.10048 0.3172 0.0
C282 C 0.73928 0.09296 0.33066 0.0
C283 C 0.77448 0.13502 0.36487 0.0
N284 N 0.75202 0.12669 0.3798 0.0
H285 H 0.71688 0.09911 0.37399 0.0
H286 H 0.78858 0.15086 0.37876 0.0
H287 H 0.76261 0.10411 0.44235 0.0
H288 H 0.77189 0.1592 0.52969 0.0
O289 O 0.71771 0.11183 0.45561 0.0
O290 O 0.7301 0.14691 0.48642 0.0
O291 O 0.7701 0.17319 0.41684 0.0
C292 C 0.71514 0.12458 0.48686 0.0
H293 H 0.70437 0.17697 0.34088 0.0
H294 H 0.78885 0.10616 0.51396 0.0
H295 H 0.79806 0.12857 0.32415 0.0
H296 H 0.72506 0.07623 0.31931 0.0
Co297 Co 0.47881 0.07545 0.24102 0.0
C298 C 0.46905 0.10779 0.29775 0.0
C299 C 0.50551 0.11955 0.2936 0.0
C300 C 0.50275 0.13666 0.31468 0.0
N301 N 0.48437 0.1009 0.28412 0.0
N302 N 0.47979 0.12942 0.31692 0.0
H303 H 0.45064 0.09833 0.28954 0.0
H304 H 0.52206 0.12174 0.28236 0.0
C305 C 0.51955 0.08139 0.29603 0.0
O306 O 0.50688 0.07909 0.33331 0.0
N307 N 0.47341 0.05119 0.1962 0.0
C308 C 0.45249 0.03237 0.18667 0.0
C309 C 0.45488 0.02064 0.14923 0.0
C310 C 0.48832 0.05069 0.16437 0.0
N311 N 0.47736 0.03214 0.13514 0.0
C312 C 0.44606 0.04963 0.3143 0.0
C313 C 0.45685 0.01437 0.32027 0.0
C314 C 0.43753 0.01208 0.34505 0.0
C315 C 0.43256 0.03028 0.3427 0.0
C316 C 0.47025 0.03431 0.29295 0.0
N317 N 0.46462 0.05155 0.28967 0.0
H318 H 0.44053 0.06224 0.30998 0.0
H319 H 0.48443 0.03528 0.27235 0.0
H320 H 0.43646 0.02783 0.20503 0.0
H321 H 0.50649 0.06407 0.1614 0.0
O322 O 0.45082 0.07433 0.21939 0.0
O323 O 0.48616 0.09734 0.18949 0.0
O324 O 0.51109 0.08027 0.25501 0.0
C325 C 0.46385 0.09017 0.18914 0.0
H326 H 0.51677 0.15368 0.32502 0.0
H327 H 0.44108 1.00494 0.13325 0.0
H328 H 0.46117 1.0006 0.32094 0.0
H329 H 0.41743 0.02893 0.36036 0.0
Co330 Co 0.94368 0.40772 0.24784 0.0
C331 C 0.91122 0.3641 0.30122 0.0
C332 C 0.89715 0.38671 0.29212 0.0
C333 C 0.88037 0.3664 0.31257 0.0
N334 N 0.91703 0.3859 0.28654 0.0
N335 N 0.88915 0.35211 0.31813 0.0
H336 H 0.92217 0.35643 0.29684 0.0
H337 H 0.89416 0.40027 0.27887 0.0
C338 C 0.93247 0.4396 0.30012 0.0
O339 O 0.93374 0.42887 0.33785 0.0
N340 N 0.96915 0.42864 0.20719 0.0
C341 C 0.99053 0.43088 0.20513 0.0
C342 C 1.00355 0.44739 0.1718 0.0
C343 C 0.9692 0.44335 0.17421 0.0
N344 N 0.99012 0.45514 0.15232 0.0
C345 C 0.96856 0.40188 0.32373 0.0
C346 C 1.00134 0.44867 0.33402 0.0
C347 C 1.00516 0.43187 0.35549 0.0
C348 C 0.98815 0.40835 0.35156 0.0
C349 C 0.98127 0.44144 0.3067 0.0
N350 N 0.96548 0.41819 0.30058 0.0
H351 H 0.95712 0.38362 0.31754 0.0
H352 H 0.97953 0.45447 0.28709 0.0
H353 H 0.99627 0.42119 0.22651 0.0
H354 H 0.95434 0.44546 0.16657 0.0
O355 O 0.94831 0.38274 0.22839 0.0
O356 O 0.9246 0.39239 0.19263 0.0
O357 O 0.93581 0.43335 0.25959 0.0
C358 C 0.93347 0.37864 0.19498 0.0
H359 H 0.86248 0.36181 0.31952 0.0
H360 H 0.02138 0.45295 0.1619 0.0
H361 H 0.01441 0.46701 0.33582 0.0
H362 H 0.99083 0.39494 0.36716 0.0
Co363 Co 0.60957 0.53767 0.24617 0.0
C364 C 0.65164 0.54748 0.3029 0.0
C365 C 0.62847 0.51097 0.29343 0.0
C366 C 0.6487 0.51409 0.31353 0.0
N367 N 0.62977 0.53185 0.28786 0.0
N368 N 0.66345 0.53713 0.31939 0.0
H369 H 0.65955 0.56609 0.29824 0.0
H370 H 0.61481 0.49459 0.27967 0.0
C371 C 0.57529 0.49454 0.29565 0.0
O372 O 0.5851 0.50618 0.33427 0.0
N373 N 0.59046 0.54335 0.20263 0.0
C374 C 0.59003 0.56341 0.19816 0.0
C375 C 0.57456 0.56072 0.16316 0.0
C376 C 0.57567 0.52888 0.16957 0.0
N377 N 0.56559 0.53906 0.14515 0.0
C378 C 0.61419 0.5676 0.32272 0.0
C379 C 0.56805 0.55675 0.32424 0.0
C380 C 0.58482 0.57688 0.34751 0.0
C381 C 0.60787 0.58136 0.34868 0.0
C382 C 0.57509 0.54304 0.29926 0.0
N383 N 0.59816 0.54918 0.29698 0.0
H384 H 0.6324 0.57324 0.3203 0.0
H385 H 0.56228 0.52876 0.27824 0.0
H386 H 0.60025 0.5789 0.21905 0.0
H387 H 0.57225 0.51128 0.16375 0.0
O388 O 0.63571 0.56707 0.22909 0.0
O389 O 0.62605 0.53375 0.19315 0.0
O390 O 0.58292 0.50437 0.25568 0.0
C391 C 0.64041 0.55621 0.1969 0.0
H392 H 0.65291 0.50046 0.31933 0.0
H393 H 0.57052 0.57383 0.15125 0.0
H394 H 0.55001 0.55255 0.32249 0.0
H395 H 0.62134 0.59634 0.36725 0.0
Co396 Co 0.53883 0.93774 0.76295 0.0
C397 C 0.54916 0.90507 0.70859 0.0
C398 C 0.51259 0.89173 0.71765 0.0
C399 C 0.51571 0.87462 0.69766 0.0
N400 N 0.53349 0.9113 0.72327 0.0
N401 N 0.53876 0.88292 0.69199 0.0
H402 H 0.56774 0.91568 0.71344 0.0
H403 H 0.49617 0.88919 0.73082 0.0
C404 C 0.49725 0.92885 0.70678 0.0
O405 O 0.50964 0.92979 0.66993 0.0
N406 N 0.54392 0.96309 0.80444 0.0
C407 C 0.56371 0.9839 0.80798 0.0
C408 C 0.56091 0.99673 0.84272 0.0
C409 C 0.52951 0.9633 0.83784 0.0
N410 N 0.53947 0.98377 0.86159 0.0
C411 C 0.57258 0.96291 0.69125 0.0
C412 C 0.55914 0.99555 0.67355 0.0
C413 C 0.57964 0.99845 0.65276 0.0
C414 C 0.58599 0.98154 0.66133 0.0
C415 C 0.54595 0.97635 0.70297 0.0
N416 N 0.55276 0.96027 0.7117 0.0
H417 H 0.5793 0.95171 0.70056 0.0
H418 H 0.53104 0.97521 0.72097 0.0
H419 H 0.57923 0.98926 0.78708 0.0
H420 H 0.5122 0.94878 0.8447 0.0
O421 O 0.56702 0.93979 0.7861 0.0
O422 O 0.53183 0.91729 0.817 0.0
O423 O 0.50627 0.93196 0.74785 0.0
C424 C 0.55415 0.92456 0.81745 0.0
H425 H 0.50207 0.8568 0.69146 0.0
H426 H 0.57391 0.01403 0.85415 0.0
H427 H 0.55372 0.00835 0.66831 0.0
H428 H 0.6021 0.98345 0.64745 0.0
Co429 Co 0.0782 0.60451 0.76685 0.0
C430 C 0.11513 0.64902 0.72292 0.0
C431 C 0.10694 0.61908 0.68084 0.0
C432 C 0.12336 0.63878 0.65763 0.0
N433 N 0.10179 0.62542 0.722 0.0
N434 N 0.12862 0.65773 0.6841 0.0
H435 H 0.11469 0.65969 0.75093 0.0
H436 H 0.09878 0.60139 0.66777 0.0
C437 C 0.07703 0.55767 0.75758 0.0
O438 O 0.05781 0.54687 0.78239 0.0
N439 N 0.05465 0.58439 0.81224 0.0
C440 C 0.03288 0.58117 0.81527 0.0
C441 C 0.02238 0.5688 0.85542 0.0
C442 C 0.05738 0.57468 0.85185 0.0
N443 N 0.03771 0.56455 0.87812 0.0
C444 C 0.05236 0.61296 0.6986 0.0
C445 C 0.01974 0.56725 0.67771 0.0
C446 C 0.01676 0.58525 0.65916 0.0
C447 C 0.03373 0.60836 0.66921 0.0
C448 C 0.03883 0.57266 0.70695 0.0
N449 N 0.05453 0.59531 0.71807 0.0
H450 H 0.06464 0.6309 0.70741 0.0
H451 H 0.04006 0.55853 0.72226 0.0
H452 H 0.0253 0.58794 0.79067 0.0
H453 H 0.0734 0.57501 0.86123 0.0
O454 O 0.07526 0.62973 0.79229 0.0
O455 O 0.10047 0.61933 0.81786 0.0
O456 O 0.08621 0.57948 0.74815 0.0
C457 C 0.09154 0.63292 0.82174 0.0
H458 H 0.13023 0.63898 0.6231 0.0
H459 H 1.00476 0.56319 0.86695 0.0
H460 H 1.00716 0.54914 0.67056 0.0
H461 H 0.0321 0.62288 0.65635 0.0
Co462 Co 0.40914 0.47554 0.77372 0.0
C463 C 0.36684 0.46593 0.71817 0.0
C464 C 0.39205 0.50231 0.71981 0.0
C465 C 0.37219 0.49952 0.69839 0.0
N466 N 0.38922 0.48117 0.73089 0.0
N467 N 0.35626 0.47662 0.69761 0.0
H468 H 0.35776 0.44757 0.72666 0.0
H469 H 0.40671 0.51891 0.72999 0.0
C470 C 0.44434 0.51548 0.71692 0.0
O471 O 0.43365 0.50275 0.67991 0.0
N472 N 0.42804 0.47007 0.81811 0.0
C473 C 0.42548 0.44906 0.82862 0.0
C474 C 0.44 0.45163 0.86544 0.0
C475 C 0.4441 0.4852 0.84867 0.0
N476 N 0.45166 0.47431 0.87808 0.0
C477 C 0.40013 0.44083 0.70413 0.0
C478 C 0.44567 0.45037 0.69476 0.0
C479 C 0.42767 0.43002 0.67427 0.0
C480 C 0.40478 0.42587 0.67793 0.0
C481 C 0.44024 0.46511 0.72051 0.0
N482 N 0.4176 0.46008 0.72555 0.0
H483 H 0.38221 0.43582 0.70972 0.0
H484 H 0.45413 0.47977 0.7389 0.0
H485 H 0.41343 0.43288 0.81138 0.0
H486 H 0.44939 0.50353 0.85063 0.0
O487 O 0.38209 0.4483 0.79721 0.0
O488 O 0.39567 0.48416 0.82527 0.0
O489 O 0.43699 0.50729 0.75807 0.0
C490 C 0.38006 0.46201 0.82689 0.0
H491 H 0.3691 0.51342 0.6875 0.0
H492 H 0.4417 0.43783 0.882 0.0
H493 H 0.4636 0.45421 0.69318 0.0
H494 H 0.39031 0.41058 0.66216 0.0
Co495 Co 0.14257 0.40225 0.57936 0.0
C496 C 0.13676 0.44119 0.61851 0.0
C497 C 0.15757 0.43257 0.66267 0.0
C498 C 0.15519 0.44994 0.68398 0.0
N499 N 0.14601 0.427 0.62156 0.0
N500 N 0.14208 0.45542 0.65622 0.0
H501 H 0.12621 0.44106 0.5896 0.0
H502 H 0.16658 0.4241 0.67693 0.0
C503 C 0.18966 0.40363 0.58426 0.0
O504 O 0.18147 0.38409 0.56067 0.0
N505 N 0.13855 0.37751 0.53665 0.0
C506 C 0.12172 0.35488 0.53944 0.0
C507 C 0.12352 0.34308 0.50148 0.0
C508 C 0.14942 0.37939 0.49524 0.0
N509 N 0.14106 0.35843 0.47386 0.0
C510 C 0.1114 0.37799 0.65345 0.0
C511 C 0.1265 0.3469 0.674 0.0
C512 C 0.10565 0.34345 0.69419 0.0
C513 C 0.09862 0.35978 0.68467 0.0
C514 C 0.13901 0.36565 0.64316 0.0
N515 N 0.13085 0.38035 0.63177 0.0
H516 H 0.10491 0.38961 0.6447 0.0
H517 H 0.15418 0.36713 0.62626 0.0
H518 H 0.10867 0.3474 0.56674 0.0
H519 H 0.16374 0.3956 0.48205 0.0
O520 O 0.11296 0.39713 0.55778 0.0
O521 O 0.14694 0.42229 0.52556 0.0
O522 O 0.17652 0.41218 0.59402 0.0
C523 C 0.1242 0.41243 0.52527 0.0
H524 H 0.16201 0.45731 0.71813 0.0
H525 H 0.11255 0.32463 0.49443 0.0
H526 H 0.13267 0.3348 0.68072 0.0
H527 H 0.08255 0.35778 0.69899 0.0
Co528 Co 0.60728 0.73898 0.57707 0.0
C529 C 0.5769 0.69777 0.63792 0.0
C530 C 0.56303 0.72051 0.62892 0.0
C531 C 0.54646 0.7005 0.65061 0.0
N532 N 0.58261 0.71935 0.62192 0.0
N533 N 0.55505 0.686 0.65612 0.0
H534 H 0.58759 0.68992 0.6325 0.0
H535 H 0.55984 0.73382 0.6149 0.0
C536 C 0.59966 0.77338 0.62879 0.0
O537 O 0.60275 0.76391 0.66663 0.0
N538 N 0.63072 0.75751 0.53059 0.0
C539 C 0.64976 0.75592 0.52052 0.0
C540 C 0.66107 0.77011 0.48284 0.0
C541 C 0.63068 0.77272 0.49894 0.0
N542 N 0.64909 0.78065 0.46925 0.0
C543 C 0.63552 0.73517 0.64828 0.0
C544 C 0.66967 0.78181 0.64939 0.0
C545 C 0.6741 0.76542 0.67108 0.0
C546 C 0.65635 0.74203 0.67191 0.0
C547 C 0.64842 0.77415 0.62591 0.0
N548 N 0.63184 0.75093 0.62457 0.0
H549 H 0.62332 0.71684 0.64589 0.0
H550 H 0.64607 0.78668 0.60582 0.0
H551 H 0.65486 0.74487 0.53892 0.0
H552 H 0.61711 0.77727 0.49666 0.0
O553 O 0.60982 0.71255 0.55926 0.0
O554 O 0.58514 0.72181 0.52671 0.0
O555 O 0.60092 0.76569 0.58822 0.0
C556 C 0.59321 0.7074 0.52936 0.0
H557 H 0.52866 0.69619 0.65749 0.0
H558 H 0.67688 0.77246 0.46653 0.0
H559 H 0.68304 0.80006 0.64789 0.0
H560 H 0.65903 0.72886 0.68867 0.0
Co561 Co 0.27372 0.87124 0.56574 0.0
C562 C 0.31849 0.8811 0.6116 0.0
C563 C 0.2886 0.85619 0.65046 0.0
C564 C 0.30846 0.85972 0.67342 0.0
N565 N 0.29482 0.86938 0.61126 0.0
N566 N 0.32725 0.87543 0.64895 0.0
H567 H 0.32926 0.89359 0.58526 0.0
H568 H 0.27086 0.845 0.66218 0.0
C569 C 0.22708 0.82517 0.57649 0.0
O570 O 0.21594 0.83312 0.55144 0.0
N571 N 0.25348 0.8739 0.51962 0.0
C572 C 0.25048 0.89253 0.51479 0.0
C573 C 0.23808 0.89005 0.47442 0.0
C574 C 0.24361 0.86079 0.48085 0.0
N575 N 0.23361 0.87002 0.45339 0.0
C576 C 0.28171 0.90617 0.63176 0.0
C577 C 0.23586 0.89408 0.64842 0.0
C578 C 0.25381 0.91576 0.66425 0.0
C579 C 0.27695 0.92123 0.65727 0.0
C580 C 0.24143 0.87937 0.62293 0.0
N581 N 0.26416 0.88596 0.61329 0.0
H582 H 0.29971 0.91149 0.62447 0.0
H583 H 0.22738 0.86363 0.60853 0.0
H584 H 0.25746 0.90733 0.53828 0.0
H585 H 0.24381 0.8449 0.47284 0.0
O586 O 0.29876 0.89941 0.53956 0.0
O587 O 0.28888 0.86372 0.51546 0.0
O588 O 0.24892 0.83817 0.58532 0.0
C589 C 0.30224 0.88626 0.51087 0.0
H590 H 0.30901 0.85166 0.70608 0.0
H591 H 0.23263 0.90198 0.46157 0.0
H592 H 0.21773 0.88911 0.65337 0.0
H593 H 0.29139 0.93748 0.67005 0.0
C594 C 0.23089 0.23036 0.18575 0.0
C595 C 0.23664 0.25374 0.18243 0.0
C596 C 0.24562 0.22419 0.2098 0.0
C597 C 0.26624 0.24186 0.23143 0.0
C598 C 0.2712 0.26531 0.23034 0.0
C599 C 0.25652 0.27098 0.20527 0.0
C600 C 0.23992 0.19909 0.2094 0.0
C601 C 0.29271 0.28468 0.2536 0.0
C602 C 0.30277 0.23235 0.32169 0.0
C603 C 0.32277 0.2379 0.29536 0.0
C604 C 0.2833 0.23182 0.30067 0.0
C605 C 0.28381 0.23661 0.25211 0.0
C606 C 0.30322 0.24015 0.22474 0.0
C607 C 0.32264 0.24113 0.24686 0.0
C608 C 0.26311 0.22818 0.33119 0.0
C609 C 0.30423 0.2447 0.17265 0.0
H610 H 0.21573 0.21714 0.1671 0.0
H611 H 0.26096 0.28908 0.20227 0.0
H612 H 0.25185 0.1972 0.18475 0.0
H613 H 0.24257 0.19366 0.24462 0.0
H614 H 0.22166 0.18708 0.19806 0.0
H615 H 0.29284 0.30153 0.25323 0.0
H616 H 0.29385 0.28004 0.29053 0.0
H617 H 0.30856 0.28716 0.23513 0.0
H618 H 0.30303 0.23011 0.35934 0.0
H619 H 0.33817 0.24545 0.22662 0.0
H620 H 0.24622 0.21606 0.31421 0.0
H621 H 0.26372 0.24511 0.33609 0.0
H622 H 0.26366 0.22118 0.3663 0.0
H623 H 0.28753 0.23206 0.15564 0.0
H624 H 0.31869 0.24355 0.15544 0.0
H625 H 0.30693 0.26245 0.16651 0.0
C626 C 0.75326 0.98536 0.22461 0.0
C627 C 0.76411 0.98678 0.18174 0.0
C628 C 0.75729 1.0057 0.24809 0.0
C629 C 0.77234 0.02784 0.22772 0.0
C630 C 0.78466 0.02926 0.18606 0.0
C631 C 0.78025 0.00863 0.16338 0.0
C632 C 0.74384 1.00338 0.29247 0.0
C633 C 0.80094 0.05241 0.1632 0.0
C634 C 0.7532 0.07207 0.25169 0.0
C635 C 0.7676 0.0847 0.28938 0.0
C636 C 0.75533 0.05423 0.22998 0.0
C637 C 0.77235 0.04888 0.24625 0.0
C638 C 0.78789 0.06249 0.28239 0.0
C639 C 0.78531 0.08025 0.30361 0.0
C640 C 0.73856 0.04033 0.19115 0.0
C641 C 0.80642 0.0575 0.30025 0.0
H642 H 0.74042 0.96838 0.23808 0.0
H643 H 0.78833 0.00958 0.12974 0.0
H644 H 0.75557 0.01554 0.31974 0.0
H645 H 0.73024 0.00808 0.28509 0.0
H646 H 0.73518 0.98533 0.30672 0.0
H647 H 0.81247 0.05085 0.13687 0.0
H648 H 0.79053 0.05898 0.14507 0.0
H649 H 0.81195 0.06559 0.18979 0.0
H650 H 0.73971 0.07568 0.24014 0.0
H651 H 0.79639 0.08983 0.33297 0.0
H652 H 0.72718 0.02202 0.2028 0.0
H653 H 0.74829 0.03993 0.15982 0.0
H654 H 0.72729 0.0476 0.18074 0.0
H655 H 0.79803 0.04068 0.31955 0.0
H656 H 0.8189 0.0714 0.3242 0.0
H657 H 0.81628 0.05576 0.27055 0.0
C658 C 0.01394 0.74876 0.15578 0.0
C659 C 0.02705 0.77301 0.16234 0.0
C660 C 0.99508 0.73457 0.18495 0.0
C661 C 0.98887 0.7448 0.22166 0.0
C662 C 1.00142 0.76938 0.22755 0.0
C663 C 0.02051 0.78325 0.19789 0.0
C664 C 0.98238 0.70845 0.17747 0.0
C665 C 0.99506 0.78092 0.26585 0.0
C666 C 0.92972 0.70123 0.27252 0.0
C667 C 0.93638 0.69123 0.30833 0.0
C668 C 0.94664 0.72018 0.24615 0.0
C669 C 0.97067 0.72919 0.2559 0.0
C670 C 0.97729 0.72028 0.2944 0.0
C671 C 0.96008 0.70152 0.32018 0.0
C672 C 0.93887 0.72946 0.20588 0.0
C673 C 1.00264 0.72927 0.30615 0.0
H674 H 0.01869 0.74064 0.12821 0.0
H675 H 0.03043 0.80199 0.20288 0.0
H676 H 0.98469 0.69975 0.20864 0.0
H677 H 0.96339 0.70169 0.17327 0.0
H678 H 0.98877 0.70337 0.14609 0.0
H679 H 1.00447 0.80022 0.2621 0.0
H680 H 0.976 0.77433 0.26569 0.0
H681 H 0.99947 0.77653 0.3005 0.0
H682 H 0.91141 0.69348 0.26348 0.0
H683 H 0.96528 0.69427 0.34873 0.0
H684 H 0.94196 0.72297 0.1723 0.0
H685 H 0.9491 0.74881 0.20487 0.0
H686 H 0.92001 0.7238 0.20821 0.0
H687 H 0.01068 0.72384 0.27834 0.0
H688 H 1.00479 0.72247 0.3403 0.0
H689 H 0.01241 0.74861 0.3074 0.0
C690 C 0.70865 0.78928 0.72338 0.0
C691 C 0.69748 0.77175 0.68961 0.0
C692 C 0.72859 0.79208 0.74695 0.0
C693 C 0.73736 0.77693 0.73638 0.0
C694 C 0.72743 0.76084 0.69899 0.0
C695 C 0.70765 0.75847 0.6761 0.0
C696 C 0.73897 0.80978 0.78594 0.0
C697 C 0.73614 0.74436 0.6863 0.0
C698 C 0.79077 0.77917 0.79304 0.0
C699 C 0.78013 0.76249 0.82867 0.0
C700 C 0.77733 0.78515 0.76384 0.0
C701 C 0.75279 0.77395 0.77028 0.0
C702 C 0.74224 0.7577 0.80722 0.0
C703 C 0.75599 0.75231 0.83588 0.0
C704 C 0.78924 0.80288 0.72535 0.0
C705 C 0.71614 0.74514 0.81542 0.0
H706 H 0.70096 0.79975 0.73348 0.0
H707 H 0.69934 0.74528 0.6491 0.0
H708 H 0.7327 0.80084 0.82022 0.0
H709 H 0.7583 0.81838 0.78582 0.0
H710 H 0.73383 0.82335 0.78304 0.0
H711 H 0.729 0.73551 0.65221 0.0
H712 H 0.75546 0.75378 0.68439 0.0
H713 H 0.73075 0.73079 0.71392 0.0
H714 H 0.80944 0.78726 0.78757 0.0
H715 H 0.74755 0.73957 0.86358 0.0
H716 H 0.78252 0.81523 0.72398 0.0
H717 H 0.78543 0.79384 0.691 0.0
H718 H 0.80848 0.81293 0.73012 0.0
H719 H 0.71012 0.75792 0.82002 0.0
H720 H 0.71085 0.73367 0.84684 0.0
H721 H 0.70695 0.73424 0.78445 0.0
C722 C 0.24224 0.01889 0.79327 0.0
C723 C 0.25916 0.02525 0.82847 0.0
C724 C 0.23669 0.99974 0.76354 0.0
C725 C 0.24853 0.98698 0.76904 0.0
C726 C 0.26521 0.99313 0.80522 0.0
C727 C 0.27021 0.01202 0.83438 0.0
C728 C 0.21856 0.99346 0.72574 0.0
C729 C 0.27845 0.98022 0.81234 0.0
C730 C 0.23235 0.92723 0.72172 0.0
C731 C 0.24897 0.93335 0.68596 0.0
C732 C 0.23032 0.94452 0.74656 0.0
C733 C 0.24532 0.96838 0.73536 0.0
C734 C 0.2607 0.97441 0.69669 0.0
C735 C 0.26227 0.95683 0.67245 0.0
C736 C 0.21344 0.93734 0.78709 0.0
C737 C 0.27705 0.99956 0.68343 0.0
H738 H 0.23351 0.02891 0.78876 0.0
H739 H 0.28323 0.01664 0.8616 0.0
H740 H 0.22711 0.99753 0.69083 0.0
H741 H 0.20583 0.97445 0.72647 0.0
H742 H 0.20898 1.00316 0.72957 0.0
H743 H 0.29034 0.98677 0.84309 0.0
H744 H 0.26609 0.96132 0.81745 0.0
H745 H 0.28902 0.98209 0.78068 0.0
H746 H 0.22186 0.90909 0.73204 0.0
H747 H 0.27466 0.9616 0.64387 0.0
H748 H 0.20458 0.94782 0.78769 0.0
H749 H 0.22314 0.94058 0.82056 0.0
H750 H 0.20001 0.91853 0.78547 0.0
H751 H 0.26763 0.00947 0.68234 0.0
H752 H 0.28546 1.00119 0.64882 0.0
H753 H 0.29097 0.00784 0.71034 0.0
C754 C 0.98976 0.23806 0.78371 0.0
C755 C 0.99059 0.22723 0.82514 0.0
C756 C 0.0104 0.25437 0.76104 0.0
C757 C 0.03231 0.26011 0.7808 0.0
C758 C 0.03311 0.24787 0.8209 0.0
C759 C 0.01216 0.23162 0.84279 0.0
C760 C 1.00869 0.26698 0.71841 0.0
C761 C 0.05601 0.2533 0.84301 0.0
C762 C 0.08471 0.29992 0.70498 0.0
C763 C 0.08998 0.32203 0.72147 0.0
C764 C 0.06682 0.27942 0.72564 0.0
C765 C 0.05385 0.2811 0.76344 0.0
C766 C 0.06012 0.30332 0.78206 0.0
C767 C 0.07813 0.32347 0.76097 0.0
C768 C 0.06093 0.25606 0.70527 0.0
C769 C 0.0469 0.30595 0.8226 0.0
H770 H 0.97302 0.23501 0.77092 0.0
H771 H 0.01269 0.22355 0.87555 0.0
H772 H 0.01429 0.28531 0.72785 0.0
H773 H 0.02049 0.26744 0.69026 0.0
H774 H 0.99063 0.25867 0.70437 0.0
H775 H 0.05378 0.23982 0.86904 0.0
H776 H 0.06865 0.2547 0.81583 0.0
H777 H 0.0637 0.27036 0.86125 0.0
H778 H 0.09366 0.29863 0.67428 0.0
H779 H 0.08239 0.34047 0.77439 0.0
H780 H 0.04423 0.24872 0.68571 0.0
H781 H 0.05852 0.24354 0.7336 0.0
H782 H 0.07467 0.25747 0.68088 0.0
H783 H 0.02867 0.30004 0.81171 0.0
H784 H 0.05496 0.32429 0.83494 0.0
H785 H 0.04611 0.29483 0.85246 0.0
C786 C 0.9071 0.56677 0.5036 0.0
C787 C 0.90098 0.58276 0.521 0.0
C788 C 0.92332 0.5627 0.5273 0.0
C789 C 0.93389 0.57527 0.56893 0.0
C790 C 0.92644 0.59023 0.58822 0.0
C791 C 0.91007 0.59385 0.56384 0.0
C792 C 0.93053 0.54646 0.50559 0.0
C793 C 0.93728 0.60404 0.63237 0.0
C794 C 0.97324 0.56294 0.64687 0.0
C795 C 0.9955 0.58033 0.63211 0.0
C796 C 0.95293 0.56032 0.62535 0.0
C797 C 0.95493 0.57557 0.58851 0.0
C798 C 0.97735 0.5924 0.57205 0.0
C799 C 0.9973 0.59447 0.59384 0.0
C800 C 0.92935 0.54191 0.64332 0.0
C801 C 0.98032 0.60896 0.53266 0.0
H802 H 0.90031 0.55857 0.46989 0.0
H803 H 0.90568 0.60663 0.57651 0.0
H804 H 0.94773 0.55689 0.4882 0.0
H805 H 0.93241 0.53553 0.53281 0.0
H806 H 0.91778 0.53486 0.47883 0.0
H807 H 0.92768 0.61265 0.64572 0.0
H808 H 0.93771 0.59259 0.66029 0.0
H809 H 0.95558 0.61772 0.62506 0.0
H810 H 0.97164 0.55202 0.67661 0.0
H811 H 0.01441 0.60763 0.58159 0.0
H812 H 0.91794 0.53166 0.61371 0.0
H813 H 0.92072 0.55042 0.66138 0.0
H814 H 0.93071 0.52977 0.66835 0.0
H815 H 0.97054 0.59902 0.5012 0.0
H816 H 0.99892 0.62041 0.52278 0.0
H817 H 0.97304 0.62015 0.54338 0.0
C818 C 0.45097 0.41894 0.62071 0.0
C819 C 0.43209 0.41235 0.6514 0.0
C820 C 0.45345 0.40205 0.59528 0.0
C821 C 0.43655 0.3781 0.60045 0.0
C822 C 0.41842 0.37134 0.63375 0.0
C823 C 0.41653 0.38849 0.65897 0.0
C824 C 0.47331 0.40994 0.56083 0.0
C825 C 0.39994 0.34606 0.6404 0.0
C826 C 0.41775 0.3378 0.49559 0.0
C827 C 0.4262 0.32269 0.50658 0.0
C828 C 0.422 0.35649 0.5248 0.0
C829 C 0.43527 0.36047 0.56617 0.0
C830 C 0.44498 0.3461 0.57635 0.0
C831 C 0.44025 0.32724 0.54643 0.0
C832 C 0.41123 0.37126 0.51242 0.0
C833 C 0.45959 0.35008 0.61966 0.0
H834 H 0.4632 0.43731 0.61491 0.0
H835 H 0.40235 0.38319 0.68379 0.0
H836 H 0.48112 0.39854 0.56282 0.0
H837 H 0.46661 0.40868 0.52465 0.0
H838 H 0.48717 0.4283 0.56716 0.0
H839 H 0.38842 0.34351 0.67086 0.0
H840 H 0.38895 0.33965 0.60841 0.0
H841 H 0.40812 0.33512 0.64555 0.0
H842 H 0.40718 0.3347 0.46447 0.0
H843 H 0.447 0.31576 0.5549 0.0
H844 H 0.42477 0.39001 0.51192 0.0
H845 H 0.39817 0.36896 0.53946 0.0
H846 H 0.40242 0.36663 0.47771 0.0
H847 H 0.47256 0.3689 0.62377 0.0
H848 H 0.46894 0.34006 0.61863 0.0
H849 H 0.4482 0.34458 0.65112 0.0
C850 C 0.60212 0.04208 0.64332 0.0
C851 C 0.59576 0.01984 0.62587 0.0
C852 C 0.62027 0.06235 0.62246 0.0
C853 C 0.63234 0.06029 0.5834 0.0
C854 C 0.62504 0.03796 0.56404 0.0
C855 C 0.60685 0.01807 0.58543 0.0
C856 C 0.62734 0.08584 0.64375 0.0
C857 C 0.63727 0.03493 0.52216 0.0
C858 C 0.67336 0.10978 0.50318 0.0
C859 C 0.69508 0.11365 0.51874 0.0
C860 C 0.65267 0.09361 0.52597 0.0
C861 C 0.65387 0.08096 0.56496 0.0
C862 C 0.676 0.08608 0.58257 0.0
C863 C 0.69636 0.10229 0.55895 0.0
C864 C 0.62954 0.08876 0.50598 0.0
C865 C 0.67812 0.07304 0.624 0.0
H866 H 0.59377 0.0436 0.67476 0.0
H867 H 0.60178 1.00096 0.57139 0.0
H868 H 0.64449 0.09275 0.6614 0.0
H869 H 0.62938 0.09851 0.61605 0.0
H870 H 0.61442 0.08481 0.66995 0.0
H871 H 0.62849 0.0166 0.50951 0.0
H872 H 0.63799 0.04633 0.49289 0.0
H873 H 0.65553 0.04024 0.53166 0.0
H874 H 0.67246 0.11831 0.4714 0.0
H875 H 0.7132 0.10498 0.57015 0.0
H876 H 0.61753 0.08755 0.5344 0.0
H877 H 0.6212 0.07174 0.48743 0.0
H878 H 0.6316 0.10243 0.48064 0.0
H879 H 0.66703 0.07278 0.65344 0.0
H880 H 0.69641 0.08088 0.63653 0.0
H881 H 0.67188 0.05466 0.61386 0.0
C882 C 0.44024 0.08541 0.11887 0.0
C883 C 0.45306 0.09922 0.15682 0.0
C884 C 0.42426 0.0898 0.09517 0.0
C885 C 0.42087 0.1083 0.11034 0.0
C886 C 0.43495 0.12322 0.14692 0.0
C887 C 0.45084 0.11839 0.17 0.0
C888 C 0.40964 0.07342 0.05646 0.0
C889 C 0.43199 0.14316 0.1641 0.0
C890 C 0.38232 0.11993 0.02891 0.0
C891 C 0.36017 0.10548 0.04858 0.0
C892 C 0.40257 0.12231 0.05024 0.0
C893 C 0.40059 0.10983 0.09195 0.0
C894 C 0.37846 0.09648 0.11353 0.0
C895 C 0.35858 0.09457 0.09171 0.0
C896 C 0.42588 0.13702 0.02659 0.0
C897 C 0.37553 0.08298 0.15819 0.0
H898 H 0.44168 0.07028 0.10962 0.0
H899 H 0.4604 0.12866 0.20026 0.0
H900 H 0.39131 0.06275 0.06856 0.0
H901 H 0.40961 0.08341 0.02525 0.0
H902 H 0.41603 0.06144 0.04576 0.0
H903 H 0.44685 0.15545 0.18649 0.0
H904 H 0.43033 0.15295 0.13416 0.0
H905 H 0.41575 0.13616 0.18515 0.0
H906 H 0.38374 0.12834 0.99547 0.0
H907 H 0.34158 0.08374 0.10756 0.0
H908 H 0.4316 0.12548 0.01037 0.0
H909 H 0.43934 0.14817 0.05262 0.0
H910 H 0.42505 0.14835 0.99876 0.0
H911 H 0.37954 0.06886 0.15127 0.0
H912 H 0.35751 0.07499 0.17245 0.0
H913 H 0.38791 0.09454 0.18536 0.0
C914 C 0.93957 0.34676 0.16631 0.0
C915 C 0.92715 0.35875 0.16291 0.0
C916 C 0.93428 0.32759 0.13775 0.0
C917 C 0.91596 0.31998 0.10469 0.0
C918 C 0.90306 0.33177 0.10124 0.0
C919 C 0.90887 0.35115 0.13039 0.0
C920 C 0.94868 0.31575 0.14252 0.0
C921 C 0.88332 0.32399 0.0666 0.0
C922 C 0.92683 0.2878 0.00811 0.0
C923 C 0.91474 0.2648 0.02487 0.0
C924 C 0.92548 0.30575 0.03126 0.0
C925 C 0.91177 0.30059 0.07237 0.0
C926 C 0.89786 0.27704 0.08702 0.0
C927 C 0.89949 0.25934 0.06294 0.0
C928 C 0.94054 0.33052 0.01421 0.0
C929 C 0.88287 0.27079 0.13045 0.0
H930 H 0.95372 0.35244 0.19132 0.0
H931 H 0.8991 0.36024 0.12789 0.0
H932 H 0.93718 0.29692 0.1502 0.0
H933 H 0.95782 0.31712 0.10901 0.0
H934 H 0.96195 0.32352 0.17081 0.0
H935 H 0.8742 0.33417 0.06992 0.0
H936 H 0.89013 0.32596 0.03033 0.0
H937 H 0.87046 0.30522 0.07183 0.0
H938 H 0.93826 0.29194 0.97799 0.0
H939 H 0.89 0.24152 0.0757 0.0
H940 H 0.95582 0.33982 0.03782 0.0
H941 H 0.93075 0.34007 0.015 0.0
H942 H 0.94706 0.3312 0.97799 0.0
H943 H 0.89414 0.27543 0.16202 0.0
H944 H 0.8699 0.25183 0.13196 0.0
H945 H 0.87351 0.28076 0.13198 0.0
C946 C 0.67817 0.59215 0.18193 0.0
C947 C 0.66164 0.56945 0.1679 0.0
C948 C 0.69733 0.60655 0.15372 0.0
C949 C 0.7003 0.59808 0.11024 0.0
C950 C 0.68461 0.57461 0.0972 0.0
C951 C 0.66532 0.56051 0.12622 0.0
C952 C 0.71355 0.6314 0.16927 0.0
C953 C 0.68755 0.56477 0.05168 0.0
C954 C 0.72865 0.64758 0.02341 0.0
C955 C 0.75241 0.65495 0.02921 0.0
C956 C 0.71135 0.62795 0.04695 0.0
C957 C 0.71785 0.615 0.07659 0.0
C958 C 0.74164 0.62111 0.07946 0.0
C959 C 0.75872 0.64113 0.05586 0.0
C960 C 0.68626 0.6222 0.04282 0.0
C961 C 0.7492 0.60738 0.10973 0.0
H962 H 0.67579 0.59905 0.21465 0.0
H963 H 0.65276 0.54289 0.11551 0.0
H964 H 0.73195 0.63547 0.16792 0.0
H965 H 0.71186 0.64363 0.14508 0.0
H966 H 0.70971 0.63474 0.20547 0.0
H967 H 0.67716 0.5454 0.0512 0.0
H968 H 0.68164 0.57147 0.02217 0.0
H969 H 0.70618 0.57036 0.04548 0.0
H970 H 0.72357 0.65768 1.00149 0.0
H971 H 0.77701 0.64654 0.06004 0.0
H972 H 0.68046 0.62586 0.07673 0.0
H973 H 0.67472 0.60341 0.03503 0.0
H974 H 0.68386 0.63258 0.015 0.0
H975 H 0.7491 0.612 0.14709 0.0
H976 H 0.76709 0.61114 0.10069 0.0
H977 H 0.73693 0.58836 0.10609 0.0
C978 C 0.56933 0.89796 0.83401 0.0
C979 C 0.56494 0.91544 0.84963 0.0
C980 C 0.58534 0.89349 0.85756 0.0
C981 C 0.59739 0.90713 0.8972 0.0
C982 C 0.59179 0.92381 0.9147 0.0
C983 C 0.57567 0.92783 0.89047 0.0
C984 C 0.59064 0.87549 0.83775 0.0
C985 C 0.60428 0.93882 0.95665 0.0
C986 C 0.63588 0.89476 0.97758 0.0
C987 C 0.65824 0.91084 0.96082 0.0
C988 C 0.61572 0.89235 0.95572 0.0
C989 C 0.618 0.90648 0.9165 0.0
C990 C 0.64046 0.92173 0.89788 0.0
C991 C 0.66024 0.9236 0.92007 0.0
C992 C 0.59207 0.87558 0.97604 0.0
C993 C 0.64374 0.93706 0.85597 0.0
H994 H 0.56133 0.88877 0.80169 0.0
H995 H 0.57259 0.94173 0.90168 0.0
H996 H 0.6076 0.88443 0.81897 0.0
H997 H 0.59216 0.86491 0.86624 0.0
H998 H 0.57703 0.86364 0.81258 0.0
H999 H 0.5962 0.94911 0.96874 0.0
H1000 H 0.60427 0.9279 0.98617 0.0
H1001 H 0.62276 0.95112 0.94732 0.0
H1002 H 0.63414 0.8849 0.00918 0.0
H1003 H 0.67742 0.93572 0.90638 0.0
H1004 H 0.57979 0.86493 0.94783 0.0
H1005 H 0.58474 0.88553 0.99327 0.0
H1006 H 0.593 0.86369 0.00239 0.0
H1007 H 0.63282 0.92637 0.82623 0.0
H1008 H 0.66221 0.94696 0.8442 0.0
H1009 H 0.63799 0.94972 0.86498 0.0
C1010 C 0.12262 0.67146 0.85122 0.0
C1011 C 0.09998 0.65235 0.85513 0.0
C1012 C 0.12852 0.6929 0.87256 0.0
C1013 C 0.11144 0.69486 0.89905 0.0
C1014 C 0.08922 0.67487 0.90632 0.0
C1015 C 0.08366 0.65396 0.8836 0.0
C1016 C 0.15226 0.7138 0.86332 0.0
C1017 C 0.07063 0.67597 0.93511 0.0
C1018 C 0.12212 0.74525 0.97831 0.0
C1019 C 0.11231 0.75594 0.95149 0.0
C1020 C 0.12364 0.72626 0.96048 0.0
C1021 C 0.11538 0.71803 0.91466 0.0
C1022 C 0.10741 0.73016 0.88608 0.0
C1023 C 0.10572 0.74882 0.90505 0.0
C1024 C 0.13225 0.71384 0.99204 0.0
C1025 C 0.09898 0.72234 0.83661 0.0
H1026 H 0.1351 0.67023 0.82849 0.0
H1027 H 0.06609 0.63914 0.88613 0.0
H1028 H 0.15066 0.72492 0.83611 0.0
H1029 H 0.15942 0.72457 0.89539 0.0
H1030 H 0.16485 0.70858 0.85053 0.0
H1031 H 0.0554 0.65837 0.9419 0.0
H1032 H 0.07787 0.68462 0.96926 0.0
H1033 H 0.0644 0.6865 0.91623 0.0
H1034 H 0.12705 0.75063 0.0144 0.0
H1035 H 0.09827 0.7572 0.88427 0.0
H1036 H 0.14412 0.70949 0.97271 0.0
H1037 H 0.11715 0.69719 0.00425 0.0
H1038 H 0.14153 0.72448 0.02329 0.0
H1039 H 0.11158 0.71908 0.81707 0.0
H1040 H 0.09643 0.73541 0.81705 0.0
H1041 H 0.08208 0.70569 0.8376 0.0
C1042 C 0.27186 0.35637 0.91969 0.0
C1043 C 0.26114 0.35707 0.96158 0.0
C1044 C 0.28978 0.37683 0.89943 0.0
C1045 C 0.29714 0.39861 0.9215 0.0
C1046 C 0.28526 0.39963 0.96193 0.0
C1047 C 0.2674 0.37881 0.9816 0.0
C1048 C 0.30181 0.37493 0.85598 0.0
C1049 C 0.29239 0.42249 0.98619 0.0
C1050 C 0.36126 0.43979 0.89855 0.0
C1051 C 0.36035 0.45208 0.85954 0.0
C1052 C 0.34076 0.42366 0.92174 0.0
C1053 C 0.31887 0.41958 0.9049 0.0
C1054 C 0.31808 0.43333 0.86759 0.0
C1055 C 0.33894 0.44943 0.84516 0.0
C1056 C 0.34244 0.40942 0.96137 0.0
C1057 C 0.29515 0.42969 0.84897 0.0
H1058 H 0.26683 0.33964 0.90371 0.0
H1059 H 0.25929 0.37948 0.01417 0.0
H1060 H 0.30262 0.38724 0.82862 0.0
H1061 H 0.32002 0.37974 0.86467 0.0
H1062 H 0.29282 0.35701 0.84112 0.0
H1063 H 0.27899 0.42092 0.01174 0.0
H1064 H 0.30898 0.42828 0.00535 0.0
H1065 H 0.29548 0.43626 0.96028 0.0
H1066 H 0.37786 0.44155 0.90876 0.0
H1067 H 0.33834 0.45868 0.81425 0.0
H1068 H 0.3359 0.39126 0.94924 0.0
H1069 H 0.3314 0.40868 0.99135 0.0
H1070 H 0.36067 0.41662 0.97387 0.0
H1071 H 0.2852 0.41215 0.83273 0.0
H1072 H 0.2976 0.44297 0.82228 0.0
H1073 H 0.28436 0.43031 0.87811 0.0
C1074 C 0.04381 0.43483 0.34859 0.0
C1075 C 0.02797 0.4379 0.37588 0.0
C1076 C 0.06314 0.43498 0.36915 0.0
C1077 C 0.06656 0.43819 0.4182 0.0
C1078 C 0.05163 0.44327 0.4452 0.0
C1079 C 0.03231 0.44287 0.42369 0.0
C1080 C 0.07855 0.42949 0.33904 0.0
C1081 C 0.05487 0.44713 0.49748 0.0
C1082 C 0.08796 0.40236 0.48224 0.0
C1083 C 0.11113 0.41897 0.49264 0.0
C1084 C 0.07362 0.40839 0.45701 0.0
C1085 C 0.08255 0.43176 0.44221 0.0
C1086 C 0.10621 0.44854 0.45131 0.0
C1087 C 0.12034 0.44189 0.4763 0.0
C1088 C 0.04864 0.38978 0.44741 0.0
C1089 C 0.11627 0.47364 0.43641 0.0
H1090 H 0.04023 0.43084 0.31157 0.0
H1091 H 0.01989 0.4451 0.44466 0.0
H1092 H 0.09721 0.44105 0.348 0.0
H1093 H 0.07427 0.41124 0.34566 0.0
H1094 H 0.07609 0.43136 0.30105 0.0
H1095 H 0.04447 0.45466 0.51188 0.0
H1096 H 0.04926 0.4302 0.51523 0.0
H1097 H 0.07353 0.45892 0.50612 0.0
H1098 H 0.08086 0.38459 0.49472 0.0
H1099 H 0.13818 0.45481 0.48492 0.0
H1100 H 0.04494 0.38881 0.40927 0.0
H1101 H 0.03655 0.39429 0.46538 0.0
H1102 H 0.04476 0.37225 0.45961 0.0
H1103 H 0.11224 0.47468 0.39901 0.0
H1104 H 0.13549 0.4839 0.44143 0.0
H1105 H 0.10816 0.48183 0.45737 0.0
C1106 C 0.58973 0.66881 0.51703 0.0
C1107 C 0.58409 0.68557 0.50196 0.0
C1108 C 0.58457 0.6493 0.48969 0.0
C1109 C 0.57317 0.64618 0.44611 0.0
C1110 C 0.5656 0.66195 0.43241 0.0
C1111 C 0.57128 0.68165 0.4605 0.0
C1112 C 0.593 0.63303 0.50601 0.0
C1113 C 0.55266 0.65876 0.38699 0.0
C1114 C 0.59524 0.61827 0.36057 0.0
C1115 C 0.5793 0.59443 0.36711 0.0
C1116 C 0.59242 0.63542 0.38335 0.0
C1117 C 0.57283 0.62868 0.41275 0.0
C1118 C 0.55547 0.60478 0.41599 0.0
C1119 C 0.55899 0.58785 0.39337 0.0
C1120 C 0.61145 0.66064 0.37884 0.0
C1121 C 0.53392 0.59697 0.44561 0.0
H1122 H 0.59908 0.67136 0.54972 0.0
H1123 H 0.56657 0.69437 0.44906 0.0
H1124 H 0.57856 0.61467 0.50504 0.0
H1125 H 0.60689 0.63448 0.48207 0.0
H1126 H 0.60014 0.63703 0.54222 0.0
H1127 H 0.54303 0.66851 0.38709 0.0
H1128 H 0.56531 0.66539 0.35752 0.0
H1129 H 0.54016 0.64002 0.38031 0.0
H1130 H 0.6105 0.62358 0.33874 0.0
H1131 H 0.54639 0.5695 0.39802 0.0
H1132 H 0.62062 0.66685 0.41293 0.0
H1133 H 0.6039 0.67179 0.36989 0.0
H1134 H 0.62454 0.66314 0.35164 0.0
H1135 H 0.53832 0.59671 0.48307 0.0
H1136 H 0.51989 0.57915 0.43585 0.0
H1137 H 0.52718 0.60924 0.44208 0.0
C1138 C 0.3419 0.89667 0.48292 0.0
C1139 C 0.32124 0.89726 0.47647 0.0
C1140 C 0.36254 0.91272 0.45958 0.0
C1141 C 0.36219 0.92937 0.42875 0.0
C1142 C 0.34078 0.9286 0.41941 0.0
C1143 C 0.32065 0.91277 0.44396 0.0
C1144 C 0.38498 0.9131 0.47104 0.0
C1145 C 0.33946 0.9457 0.38624 0.0
C1146 C 0.41319 0.99086 0.41483 0.0
C1147 C 0.42116 0.9901 0.36969 0.0
C1148 C 0.39504 0.97075 0.43577 0.0
C1149 C 0.38432 0.9494 0.41064 0.0
C1150 C 0.39317 0.94825 0.3661 0.0
C1151 C 0.41159 0.96862 0.34622 0.0
C1152 C 0.38646 0.97268 0.48374 0.0
C1153 C 0.38222 0.92589 0.33817 0.0
H1154 H 0.34238 0.88491 0.50882 0.0
H1155 H 0.30465 0.91334 0.43961 0.0
H1156 H 0.39551 0.9158 0.43893 0.0
H1157 H 0.39553 0.92786 0.49512 0.0
H1158 H 0.38172 0.8967 0.48844 0.0
H1159 H 0.32115 0.94094 0.37848 0.0
H1160 H 0.3485 0.96339 0.40204 0.0
H1161 H 0.34841 0.94662 0.35273 0.0
H1162 H 0.42072 0.0074 0.43319 0.0
H1163 H 0.4176 0.96801 0.31114 0.0
H1164 H 0.38493 0.95853 0.507 0.0
H1165 H 0.36883 0.97066 0.48063 0.0
H1166 H 0.39822 0.98975 0.50064 0.0
H1167 H 0.37962 0.91104 0.36046 0.0
H1168 H 0.39298 0.92703 0.30728 0.0
H1169 H 0.36477 0.92202 0.32557 0.0
C1170 C 0.15937 0.36882 0.39511 0.0
C1171 C 0.14986 0.35291 0.43233 0.0
C1172 C 0.16796 0.3634 0.35466 0.0
C1173 C 0.16737 0.34172 0.35174 0.0
C1174 C 0.15781 0.32564 0.3893 0.0
C1175 C 0.14909 0.33138 0.4289 0.0
C1176 C 0.17777 0.3809 0.31516 0.0
C1177 C 0.15721 0.30253 0.38814 0.0
C1178 C 0.1733 0.3173 0.23448 0.0
C1179 C 0.19698 0.3238 0.23459 0.0
C1180 C 0.1635 0.32348 0.2718 0.0
C1181 C 0.17766 0.33614 0.31049 0.0
C1182 C 0.20156 0.34264 0.31078 0.0
C1183 C 0.21092 0.33651 0.27281 0.0
C1184 C 0.13801 0.31642 0.26989 0.0
C1185 C 0.21719 0.35575 0.35163 0.0
H1186 H 0.15983 0.38538 0.39741 0.0
H1187 H 0.14214 0.31917 0.45784 0.0
H1188 H 0.19653 0.38673 0.31014 0.0
H1189 H 0.16871 0.37266 0.28186 0.0
H1190 H 0.176 0.39648 0.32186 0.0
H1191 H 0.14879 0.29178 0.41981 0.0
H1192 H 0.1476 0.29244 0.35668 0.0
H1193 H 0.17525 0.30555 0.38558 0.0
H1194 H 0.16253 0.30769 0.20483 0.0
H1195 H 0.22914 0.34129 0.27348 0.0
H1196 H 0.13606 0.33203 0.27376 0.0
H1197 H 0.12854 0.30454 0.29953 0.0
H1198 H 0.12962 0.30747 0.23655 0.0
H1199 H 0.21719 0.37232 0.35741 0.0
H1200 H 0.23548 0.35985 0.34611 0.0
H1201 H 0.21044 0.34523 0.38415 0.0
C1202 C 0.65182 0.81588 0.43284 0.0
C1203 C 0.65468 0.79633 0.42994 0.0
C1204 C 0.65861 0.83198 0.39556 0.0
C1205 C 0.66799 0.82812 0.35398 0.0
C1206 C 0.67037 0.80807 0.35058 0.0
C1207 C 0.66392 0.79258 0.38869 0.0
C1208 C 0.65611 0.85331 0.40094 0.0
C1209 C 0.67972 0.80292 0.3066 0.0
C1210 C 0.66571 0.85793 0.24131 0.0
C1211 C 0.68888 0.87611 0.23679 0.0
C1212 C 0.65871 0.84217 0.27906 0.0
C1213 C 0.67518 0.8449 0.31383 0.0
C1214 C 0.69861 0.86332 0.30957 0.0
C1215 C 0.70523 0.87854 0.27083 0.0
C1216 C 0.63373 0.82248 0.28149 0.0
C1217 C 0.71663 0.86709 0.34621 0.0
H1218 H 0.64489 0.81891 0.46483 0.0
H1219 H 0.66587 0.77732 0.38612 0.0
H1220 H 0.67341 0.86931 0.39684 0.0
H1221 H 0.64461 0.85364 0.37302 0.0
H1222 H 0.64874 0.8539 0.4356 0.0
H1223 H 0.67987 0.78625 0.30908 0.0
H1224 H 0.66893 0.80198 0.27598 0.0
H1225 H 0.69777 0.81724 0.29972 0.0
H1226 H 0.65309 0.85588 0.2148 0.0
H1227 H 0.72307 0.89274 0.26773 0.0
H1228 H 0.62547 0.82368 0.31443 0.0
H1229 H 0.63323 0.80547 0.28201 0.0
H1230 H 0.62315 0.82261 0.25136 0.0
H1231 H 0.71068 0.86936 0.3812 0.0
H1232 H 0.7339 0.88261 0.33857 0.0
H1233 H 0.71876 0.85152 0.34832 0.0
C1234 C 0.13684 0.82782 0.25582 0.0
C1235 C 0.1401 0.81576 0.21896 0.0
C1236 C 0.1525 0.83636 0.2938 0.0
C1237 C 0.17226 0.83333 0.29422 0.0
C1238 C 0.17591 0.82166 0.25635 0.0
C1239 C 0.15961 0.81274 0.21956 0.0
C1240 C 0.14766 0.84822 0.33391 0.0
C1241 C 0.19706 0.81866 0.25464 0.0
C1242 C 0.2225 0.87452 0.37329 0.0
C1243 C 0.21968 0.86022 0.41188 0.0
C1244 C 0.20767 0.86581 0.33416 0.0
C1245 C 0.18909 0.84238 0.33423 0.0
C1246 C 0.18635 0.82778 0.37302 0.0
C1247 C 0.2019 0.83681 0.41112 0.0
C1248 C 0.21169 0.88178 0.29303 0.0
C1249 C 0.1665 0.80287 0.37503 0.0
H1250 H 0.12161 0.82992 0.25555 0.0
H1251 H 0.16221 0.80358 0.1908 0.0
H1252 H 0.14634 0.83895 0.36722 0.0
H1253 H 0.16232 0.86638 0.33783 0.0
H1254 H 0.13127 0.84871 0.32879 0.0
H1255 H 0.19779 0.80995 0.22189 0.0
H1256 H 0.21321 0.83593 0.2572 0.0
H1257 H 0.19692 0.80812 0.28502 0.0
H1258 H 0.23635 0.89261 0.37393 0.0
H1259 H 0.19956 0.82589 0.44131 0.0
H1260 H 0.19667 0.8847 0.28921 0.0
H1261 H 0.21297 0.87355 0.26009 0.0
H1262 H 0.22784 0.89899 0.29707 0.0
H1263 H 0.14959 0.80256 0.37353 0.0
H1264 H 0.1669 0.79376 0.40747 0.0
H1265 H 0.16718 0.79298 0.34424 0.0
C1266 C 0.84209 0.69516 0.76749 0.0
C1267 C 0.81958 0.6921 0.76456 0.0
C1268 C 0.85142 0.68829 0.73048 0.0
C1269 C 0.83811 0.6786 0.68912 0.0
C1270 C 0.81554 0.67591 0.68573 0.0
C1271 C 0.80649 0.68247 0.72362 0.0
C1272 C 0.87538 0.69109 0.73586 0.0
C1273 C 0.80097 0.66623 0.64194 0.0
C1274 C 0.8705 0.68107 0.57686 0.0
C1275 C 0.86583 0.65801 0.57282 0.0
C1276 C 0.86146 0.68795 0.61425 0.0
C1277 C 0.8478 0.67149 0.64915 0.0
C1278 C 0.84312 0.64817 0.64535 0.0
C1279 C 0.85196 0.64165 0.60692 0.0
C1280 C 0.86639 0.71282 0.61621 0.0
C1281 C 0.82901 0.63018 0.6822 0.0
H1282 H 0.85214 0.7024 0.79927 0.0
H1283 H 0.7892 0.68037 0.72103 0.0
H1284 H 0.87429 0.67389 0.73187 0.0
H1285 H 0.88713 0.70264 0.70787 0.0
H1286 H 0.88333 0.69856 0.77046 0.0
H1287 H 0.78398 0.66575 0.64449 0.0
H1288 H 0.81065 0.67701 0.61115 0.0
H1289 H 0.79753 0.64827 0.63529 0.0
H1290 H 0.88104 0.69368 0.55026 0.0
H1291 H 0.84858 0.62389 0.60414 0.0
H1292 H 0.87589 0.7213 0.64897 0.0
H1293 H 0.84973 0.71303 0.61679 0.0
H1294 H 0.87694 0.72336 0.58586 0.0
H1295 H 0.83724 0.63628 0.71712 0.0
H1296 H 0.82744 0.61297 0.6748 0.0
H1297 H 0.81122 0.62784 0.68429 0.0
C1298 C 0.3374 0.13087 0.72734 0.0
C1299 C 0.32748 0.13439 0.7678 0.0
C1300 C 0.34335 0.14587 0.68846 0.0
C1301 C 0.33979 0.16526 0.69031 0.0
C1302 C 0.32987 0.16897 0.73124 0.0
C1303 C 0.32357 0.15333 0.76925 0.0
C1304 C 0.35327 0.14084 0.64521 0.0
C1305 C 0.32617 0.18964 0.7351 0.0
C1306 C 0.37496 0.21528 0.60469 0.0
C1307 C 0.35819 0.21162 0.57062 0.0
C1308 C 0.36915 0.20058 0.64418 0.0
C1309 C 0.34615 0.1814 0.64915 0.0
C1310 C 0.32929 0.17741 0.61429 0.0
C1311 C 0.33544 0.19271 0.57584 0.0
C1312 C 0.38754 0.20575 0.6809 0.0
C1313 C 0.30478 0.15688 0.6174 0.0
H1314 H 0.34016 0.11607 0.72586 0.0
H1315 H 0.3161 0.15619 0.80062 0.0
H1316 H 0.34217 0.13878 0.61437 0.0
H1317 H 0.37094 0.15573 0.63775 0.0
H1318 H 0.35449 0.12478 0.64899 0.0
H1319 H 0.31879 0.19039 0.76964 0.0
H1320 H 0.343 0.20606 0.72994 0.0
H1321 H 0.31415 0.18884 0.70711 0.0
H1322 H 0.39246 0.23003 0.60103 0.0
H1323 H 0.32251 0.18971 0.54932 0.0
H1324 H 0.39061 0.1908 0.68411 0.0
H1325 H 0.38139 0.20811 0.7156 0.0
H1326 H 0.40439 0.22168 0.67257 0.0
H1327 H 0.30528 0.14039 0.61925 0.0
H1328 H 0.29388 0.15593 0.58692 0.0
H1329 H 0.29622 0.15804 0.64994 0.0
C1330 C 0.79462 0.15426 0.61448 0.0
C1331 C 0.79967 0.14355 0.57742 0.0
C1332 C 0.80935 0.16289 0.65392 0.0
C1333 C 0.82977 0.16104 0.65608 0.0
C1334 C 0.83483 0.15008 0.61891 0.0
C1335 C 0.81972 0.14143 0.58025 0.0
C1336 C 0.80323 0.17426 0.693 0.0
C1337 C 0.85656 0.14804 0.61936 0.0
C1338 C 0.88107 0.20487 0.72944 0.0
C1339 C 0.87974 0.19167 0.76907 0.0
C1340 C 0.86483 0.19517 0.69278 0.0
C1341 C 0.84659 0.17167 0.69578 0.0
C1342 C 0.84505 0.15822 0.73579 0.0
C1343 C 0.86173 0.16834 0.77183 0.0
C1344 C 0.86739 0.21004 0.65048 0.0
C1345 C 0.82577 0.13316 0.74051 0.0
H1346 H 0.77908 0.15576 0.61272 0.0
H1347 H 0.82399 0.13356 0.55147 0.0
H1348 H 0.80273 0.16586 0.72701 0.0
H1349 H 0.81687 0.19292 0.69586 0.0
H1350 H 0.7861 0.17316 0.68731 0.0
H1351 H 0.85754 0.13828 0.58856 0.0
H1352 H 0.87227 0.16571 0.61942 0.0
H1353 H 0.85715 0.13907 0.65177 0.0
H1354 H 0.89514 0.22278 0.72669 0.0
H1355 H 0.86048 0.15814 0.80255 0.0
H1356 H 0.85122 0.2109 0.64531 0.0
H1357 H 0.86995 0.20204 0.61849 0.0
H1358 H 0.88235 0.22811 0.65384 0.0
H1359 H 0.80853 0.13208 0.73773 0.0
H1360 H 0.82658 0.12529 0.77438 0.0
H1361 H 0.82689 0.12261 0.71147 0.0
C1362 C 0.50926 0.02879 0.09737 0.0
C1363 C 0.48691 0.02617 0.09542 0.0
C1364 C 0.51805 0.02169 0.05968 0.0
C1365 C 0.50434 0.01221 0.01867 0.0
C1366 C 0.48197 0.01005 0.01624 0.0
C1367 C 0.47348 0.01685 0.05472 0.0
C1368 C 0.54184 0.02399 0.06402 0.0
C1369 C 0.46698 1.00059 0.97291 0.0
C1370 C 0.53512 0.01376 0.90451 0.0
C1371 C 0.52997 0.99054 0.90017 0.0
C1372 C 0.52684 0.021 0.94267 0.0
C1373 C 0.5134 1.00474 0.97804 0.0
C1374 C 0.50818 0.98124 0.97391 0.0
C1375 C 0.51632 0.97438 0.93479 0.0
C1376 C 0.53236 0.04605 0.94496 0.0
C1377 C 0.49421 0.96342 0.01112 0.0
H1378 H 0.51958 0.0358 0.12892 0.0
H1379 H 0.45632 0.01509 0.05282 0.0
H1380 H 0.54033 0.00662 0.05984 0.0
H1381 H 0.55345 0.03535 0.03565 0.0
H1382 H 0.55019 0.03143 0.09836 0.0
H1383 H 0.45023 1.00055 0.97618 0.0
H1384 H 0.47655 0.01123 0.9419 0.0
H1385 H 0.46306 0.98248 0.9661 0.0
H1386 H 0.54547 0.02625 0.87758 0.0
H1387 H 0.51255 0.9565 0.93186 0.0
H1388 H 0.54222 0.0544 0.97748 0.0
H1389 H 0.51593 0.04669 0.94628 0.0
H1390 H 0.5428 0.05646 0.91438 0.0
H1391 H 0.50286 0.96944 0.04572 0.0
H1392 H 0.49219 0.94604 0.00343 0.0
H1393 H 0.47661 0.96147 0.0141 0.0
C1394 C 0.03913 0.53329 0.92252 0.0
C1395 C 0.03304 0.55072 0.92002 0.0
C1396 C 0.03228 0.51791 0.96099 0.0
C1397 C 0.01959 0.52044 0.99844 0.0
C1398 C 0.0142 0.53862 0.99675 0.0
C1399 C 0.02068 0.55329 0.95726 0.0
C1400 C 0.03796 0.49848 0.96082 0.0
C1401 C 1.00135 0.54242 0.03643 0.0
C1402 C 0.9819 0.46816 0.07714 0.0
C1403 C 0.99691 0.47201 0.11497 0.0
C1404 C 0.98911 0.48367 0.03883 0.0
C1405 C 0.01164 0.50386 0.03899 0.0
C1406 C 0.02658 0.50812 0.07787 0.0
C1407 C 0.01915 0.49198 0.11501 0.0
C1408 C 0.97282 0.47818 0.99769 0.0
C1409 C 0.05042 0.52971 0.08022 0.0
H1410 H 0.04839 0.53112 0.89338 0.0
H1411 H 0.01608 0.56685 0.95532 0.0
H1412 H 0.0483 0.49968 0.99237 0.0
H1413 H 0.02157 0.48135 0.96226 0.0
H1414 H 0.04794 0.4989 0.92913 0.0
H1415 H 0.9998 0.55821 0.03105 0.0
H1416 H 0.98356 0.52707 0.03978 0.0
H1417 H 0.01052 0.54423 0.0701 0.0
H1418 H 0.96482 0.45259 0.07688 0.0
H1419 H 0.03068 0.49503 0.14448 0.0
H1420 H 0.98131 0.47682 0.9652 0.0
H1421 H 0.96898 0.49252 0.99231 0.0
H1422 H 0.95606 0.46161 0.00261 0.0
H1423 H 0.06144 0.52969 0.05093 0.0
H1424 H 0.05949 0.53098 0.11381 0.0
H1425 H 0.04884 0.54554 0.0762 0.0
C1426 C 0.46397 0.47137 0.95823 0.0
C1427 C 0.46779 0.48419 0.91672 0.0
C1428 C 0.47978 0.48027 0.9958 0.0
C1429 C 0.50019 0.50242 0.99158 0.0
C1430 C 0.50414 0.51549 0.94972 0.0
C1431 C 0.48775 0.50631 0.91297 0.0
C1432 C 0.47456 0.46599 0.04012 0.0
C1433 C 0.52583 0.53901 0.94351 0.0
C1434 C 0.53112 0.53483 0.10306 0.0
C1435 C 0.54894 0.52933 0.10731 0.0
C1436 C 0.51512 0.52613 0.06576 0.0
C1437 C 0.51722 0.51192 0.03122 0.0
C1438 C 0.53526 0.50638 0.03523 0.0
C1439 C 0.55075 0.51495 0.07351 0.0
C1440 C 0.49584 0.53201 0.06355 0.0
C1441 C 0.53834 0.49158 0.99881 0.0
H1442 H 0.44839 0.4544 0.96148 0.0
H1443 H 0.49081 0.51615 0.88078 0.0
H1444 H 0.48864 0.46191 0.0469 0.0
H1445 H 0.47404 0.47617 0.07056 0.0
H1446 H 0.45766 0.44934 0.03819 0.0
H1447 H 0.52647 0.54683 0.90866 0.0
H1448 H 0.52666 0.55119 0.97114 0.0
H1449 H 0.54157 0.53726 0.94747 0.0
H1450 H 0.52953 0.54573 0.12943 0.0
H1451 H 0.56467 0.5109 0.07643 0.0
H1452 H 0.4786 0.51573 0.06366 0.0
H1453 H 0.49709 0.54135 0.03039 0.0
H1454 H 0.49647 0.54308 0.09344 0.0
H1455 H 0.52247 0.47406 0.99729 0.0
H1456 H 0.55362 0.48941 0.00626 0.0
H1457 H 0.54062 0.49964 0.96364 0.0
C1458 C 0.20776 0.18667 0.97893 0.0
C1459 C 0.22013 0.20673 0.00675 0.0
C1460 C 0.2171 0.17233 0.9677 0.0
C1461 C 0.23967 0.17837 0.98374 0.0
C1462 C 0.25285 0.19929 0.00952 0.0
C1463 C 0.24289 0.21311 0.02102 0.0
C1464 C 0.20225 0.15004 0.94075 0.0
C1465 C 0.27711 0.20655 0.0268 0.0
C1466 C 0.25074 0.12827 0.00759 0.0
C1467 C 0.2623 0.12777 0.96671 0.0
C1468 C 0.24345 0.14468 0.01346 0.0
C1469 C 0.24826 0.16149 0.97802 0.0
C1470 C 0.26031 0.16139 0.93691 0.0
C1471 C 0.26693 0.14431 0.93144 0.0
C1472 C 0.23017 0.14372 0.05736 0.0
C1473 C 0.26624 0.17935 0.89884 0.0
H1474 H 0.19043 0.18181 0.96666 0.0
H1475 H 0.25268 0.22841 0.04266 0.0
H1476 H 0.21199 0.14895 0.91013 0.0
H1477 H 0.19791 0.13482 0.96362 0.0
H1478 H 0.1857 0.14861 0.92814 0.0
H1479 H 0.28626 0.22471 0.04044 0.0
H1480 H 0.27607 0.1947 0.05542 0.0
H1481 H 0.28771 0.20515 0.99818 0.0
H1482 H 0.2469 0.11542 0.03487 0.0
H1483 H 0.27601 0.14411 0.89994 0.0
H1484 H 0.21273 0.14102 0.04782 0.0
H1485 H 0.23956 0.16052 0.07652 0.0
H1486 H 0.22774 0.12947 0.08144 0.0
H1487 H 0.25 0.17755 0.88362 0.0
H1488 H 0.27668 0.17766 0.87019 0.0
H1489 H 0.27623 0.19717 0.9139 0.0
C1490 C 0.88782 0.12587 0.01455 0.0
C1491 C 0.8885 0.13734 0.97265 0.0
C1492 C 0.87142 0.10217 0.0214 0.0
C1493 C 0.85485 0.08961 0.98591 0.0
C1494 C 0.85501 0.10125 0.94399 0.0
C1495 C 0.87203 0.12491 0.93759 0.0
C1496 C 0.87226 0.09041 0.0662 0.0
C1497 C 0.83727 0.08867 0.90582 0.0
C1498 C 0.82977 0.02381 0.98649 0.0
C1499 C 0.80907 0.01584 0.01241 0.0
C1500 C 0.84448 0.04764 0.9767 0.0
C1501 C 0.8382 0.06408 0.99216 0.0
C1502 C 0.81686 0.05615 0.01645 0.0
C1503 C 0.80267 0.03222 0.02659 0.0
C1504 C 0.86723 0.05529 0.9513 0.0
C1505 C 0.80932 0.07303 0.03304 0.0
H1506 H 0.90058 0.13528 0.04172 0.0
H1507 H 0.87235 0.13371 0.90528 0.0
H1508 H 0.85524 0.08272 0.08463 0.0
H1509 H 0.87551 0.0759 0.05788 0.0
H1510 H 0.88613 0.10266 0.09048 0.0
H1511 H 0.83872 0.10055 0.87681 0.0
H1512 H 0.83964 0.07448 0.89112 0.0
H1513 H 0.81936 0.08044 0.92059 0.0
H1514 H 0.83476 0.01145 0.97424 0.0
H1515 H 0.78691 0.02661 0.0468 0.0
H1516 H 0.88207 0.06675 0.97449 0.0
H1517 H 0.86841 0.06563 0.91973 0.0
H1518 H 0.86924 0.04029 0.94029 0.0
H1519 H 0.82101 0.08403 0.06165 0.0
H1520 H 0.7911 0.06393 0.04641 0.0
H1521 H 0.81073 0.08488 0.00408 0.0
C1522 C 0.98384 0.77337 0.00705 0.0
C1523 C 1.00026 0.79637 0.99403 0.0
C1524 C 0.95993 0.76378 0.99688 0.0
C1525 C 0.95207 0.77756 0.97382 0.0
C1526 C 0.9686 0.80038 0.95896 0.0
C1527 C 0.9924 0.80935 0.96869 0.0
C1528 C 0.94296 0.7392 0.01264 0.0
C1529 C 0.96104 0.81585 0.93484 0.0
C1530 C 0.89026 0.75147 0.92425 0.0
C1531 C 0.87865 0.75538 0.96123 0.0
C1532 C 0.914 0.75794 0.92819 0.0
C1533 C 0.92654 0.76915 0.96956 0.0
C1534 C 0.91484 0.77321 0.00678 0.0
C1535 C 0.89107 0.76605 0.00237 0.0
C1536 C 0.92566 0.75277 0.8882 0.0
C1537 C 0.92755 0.78556 0.05109 0.0
H1538 H 0.98941 0.76303 0.02668 0.0
H1539 H 1.00482 0.82685 0.95723 0.0
H1540 H 0.93248 0.73971 0.04251 0.0
H1541 H 0.93064 0.72925 0.98393 0.0
H1542 H 0.95199 0.72969 0.02401 0.0
H1543 H 0.97612 0.83263 0.92295 0.0
H1544 H 0.94994 0.80679 0.90404 0.0
H1545 H 0.95038 0.81971 0.95934 0.0
H1546 H 0.88071 0.74307 0.89252 0.0
H1547 H 0.8823 0.76932 0.03099 0.0
H1548 H 0.9337 0.74259 0.90117 0.0
H1549 H 0.93991 0.76931 0.87348 0.0
H1550 H 0.91323 0.74281 0.85959 0.0
H1551 H 0.93504 0.77575 0.06826 0.0
H1552 H 0.91596 0.78754 0.07661 0.0
H1553 H 0.94228 0.80316 0.04236 0.0
C1554 C 0.75365 0.87489 0.99416 0.0
C1555 C 0.75432 0.88438 0.03858 0.0
C1556 C 0.76145 0.85889 0.9874 0.0
C1557 C 0.77033 0.85222 0.02592 0.0
C1558 C 0.77027 0.86106 0.0712 0.0
C1559 C 0.7622 0.87697 0.07703 0.0
C1560 C 0.76098 0.84978 0.93858 0.0
C1561 C 0.77962 0.85443 0.11317 0.0
C1562 C 0.77844 0.79945 0.00918 0.0
C1563 C 0.8021 0.81007 0.99647 0.0
C1564 C 0.76791 0.81287 0.01979 0.0
C1565 C 0.78135 0.83755 0.01785 0.0
C1566 C 0.8053 0.84838 0.00589 0.0
C1567 C 0.81531 0.83458 0.99524 0.0
C1568 C 0.74232 0.80065 0.03229 0.0
C1569 C 0.82029 0.87463 0.00324 0.0
H1570 H 0.74739 0.8803 0.96426 0.0
H1571 H 0.76277 0.88416 0.11149 0.0
H1572 H 0.77911 0.85639 0.92608 0.0
H1573 H 0.75216 0.83045 0.93888 0.0
H1574 H 0.75188 0.8552 0.91311 0.0
H1575 H 0.77653 0.86115 0.14652 0.0
H1576 H 0.7714 0.83518 0.11568 0.0
H1577 H 0.79868 0.8616 0.10898 0.0
H1578 H 0.7681 0.7806 0.01084 0.0
H1579 H 0.83345 0.84314 0.98477 0.0
H1580 H 0.73265 0.80473 0.00569 0.0
H1581 H 0.73984 0.80704 0.06658 0.0
H1582 H 0.73451 0.78139 0.03422 0.0
H1583 H 0.81366 0.88146 0.97526 0.0
H1584 H 0.83887 0.88038 0.99572 0.0
H1585 H 0.81936 0.88262 0.03678 0.0
C1586 C 0.18386 0.98583 0.99152 0.0
C1587 C 0.20832 0.99717 0.9952 0.0
C1588 C 0.16978 0.96204 1.0021 0.0
C1589 C 0.18025 0.94894 0.0165 0.0
C1590 C 0.20487 0.96021 0.02093 0.0
C1591 C 0.2186 0.98417 0.01024 0.0
C1592 C 0.14363 0.95078 0.99655 0.0
C1593 C 0.21672 0.94685 0.03609 0.0
C1594 C 0.13827 0.88988 0.07158 0.0
C1595 C 0.13193 0.87508 0.03246 0.0
C1596 C 0.1548 0.91385 0.06755 0.0
C1597 C 0.16533 0.92317 0.02347 0.0
C1598 C 0.15978 0.90805 0.98451 0.0
C1599 C 0.14316 0.8843 0.98946 0.0
C1600 C 0.16023 0.92937 0.10993 0.0
C1601 C 0.17063 0.91712 0.93693 0.0
H1602 H 0.17557 0.99535 0.97909 0.0
H1603 H 0.2374 0.99272 0.0137 0.0
H1604 H 0.13758 0.93749 0.96828 0.0
H1605 H 0.13472 0.94165 0.02937 0.0
H1606 H 0.1381 0.96364 0.98775 0.0
H1607 H 0.23585 0.95837 0.04059 0.0
H1608 H 0.20916 0.93765 0.06966 0.0
H1609 H 0.21364 0.93335 0.00954 0.0
H1610 H 0.12975 0.88292 0.10497 0.0
H1611 H 0.13865 0.87299 0.95911 0.0
H1612 H 0.15313 0.94125 0.10467 0.0
H1613 H 0.17938 0.94043 0.11455 0.0
H1614 H 0.1526 0.91919 0.14259 0.0
H1615 H 0.16455 0.9288 0.92284 0.0
H1616 H 0.16606 0.90283 0.9113 0.0
H1617 H 0.18991 0.92758 0.93989 0.0
C1618 C 0.12848 0.24428 0.99523 0.0
C1619 C 0.14048 0.25631 0.03577 0.0
C1620 C 0.10473 0.23684 0.98905 0.0
C1621 C 0.09267 0.24197 0.02381 0.0
C1622 C 0.1048 0.25455 0.06446 0.0
C1623 C 0.12851 0.26131 0.07027 0.0
C1624 C 0.09242 0.22304 0.94566 0.0
C1625 C 0.09272 0.26087 0.10174 0.0
C1626 C 0.03547 0.23645 0.98149 0.0
C1627 C 0.01898 0.21408 0.99772 0.0
C1628 C 0.05939 0.24624 0.99163 0.0
C1629 C 0.06717 0.23328 0.01798 0.0
C1630 C 0.05061 0.21103 0.03555 0.0
C1631 C 0.0268 0.20187 0.02568 0.0
C1632 C 0.07641 0.27016 0.97272 0.0
C1633 C 0.05811 0.19641 0.06313 0.0
H1634 H 0.13755 0.24018 0.96855 0.0
H1635 H 0.13775 0.27076 0.1015 0.0
H1636 H 0.0777 0.2057 0.95588 0.0
H1637 H 0.08495 0.23214 0.92569 0.0
H1638 H 0.10427 0.22039 0.9221 0.0
H1639 H 0.10486 0.27172 0.13003 0.0
H1640 H 0.0848 0.27058 0.08577 0.0
H1641 H 0.07834 0.24479 0.11765 0.0
H1642 H 0.02993 0.24612 0.95955 0.0
H1643 H 0.0143 0.18485 0.03935 0.0
H1644 H 0.08716 0.26859 0.94465 0.0
H1645 H 0.08849 0.28123 1.00081 0.0
H1646 H 0.06744 0.27912 0.95792 0.0
H1647 H 0.06911 0.19205 0.04069 0.0
H1648 H 0.04302 0.17989 0.07603 0.0
H1649 H 0.06889 0.20637 0.09364 0.0
C1650 C 0.87282 0.51849 0.3182 0.0
C1651 C 0.88534 0.53814 0.34698 0.0
C1652 C 0.88157 0.50364 0.30706 0.0
C1653 C 0.90366 0.50869 0.32435 0.0
C1654 C 0.91695 0.52909 0.35151 0.0
C1655 C 0.9076 0.54348 0.36274 0.0
C1656 C 0.86664 0.48192 0.27856 0.0
C1657 C 0.94067 0.53526 0.37037 0.0
C1658 C 0.91306 0.4573 0.34559 0.0
C1659 C 0.92533 0.45746 0.30531 0.0
C1660 C 0.90599 0.47386 0.35206 0.0
C1661 C 0.91171 0.49143 0.31786 0.0
C1662 C 0.92438 0.49191 0.2773 0.0
C1663 C 0.93081 0.47472 0.27121 0.0
C1664 C 0.89208 0.47233 0.39532 0.0
C1665 C 0.93125 0.51065 0.24056 0.0
H1666 H 0.85587 0.51443 0.30493 0.0
H1667 H 0.91747 0.55842 0.38524 0.0
H1668 H 0.87661 0.48103 0.24814 0.0
H1669 H 0.86162 0.46623 0.30045 0.0
H1670 H 0.85047 0.48118 0.26545 0.0
H1671 H 0.95003 0.55312 0.38549 0.0
H1672 H 0.93867 0.52268 0.39822 0.0
H1673 H 0.95158 0.53402 0.3422 0.0
H1674 H 0.90858 0.44391 0.37197 0.0
H1675 H 0.94045 0.47503 0.2402 0.0
H1676 H 0.87497 0.47024 0.38494 0.0
H1677 H 0.90141 0.4887 0.4159 0.0
H1678 H 0.8889 0.45748 0.41838 0.0
H1679 H 0.91542 0.50969 0.22509 0.0
H1680 H 0.94178 0.5091 0.2119 0.0
H1681 H 0.94151 0.52813 0.25697 0.0
C1682 C 0.55597 0.45695 0.3398 0.0
C1683 C 0.55696 0.46956 0.29943 0.0
C1684 C 0.53901 0.43332 0.34493 0.0
C1685 C 0.52215 0.42196 0.30927 0.0
C1686 C 0.5228 0.43466 0.26861 0.0
C1687 C 0.5404 0.45826 0.26388 0.0
C1688 C 0.5394 0.42042 0.38835 0.0
C1689 C 0.50484 0.42335 0.2303 0.0
C1690 C 0.49466 0.35589 0.30821 0.0
C1691 C 0.47462 0.34862 0.336 0.0
C1692 C 0.50975 0.37956 0.29769 0.0
C1693 C 0.50453 0.39657 0.31436 0.0
C1694 C 0.48363 0.38932 0.33996 0.0
C1695 C 0.46904 0.36551 0.35078 0.0
C1696 C 0.53194 0.38643 0.2708 0.0
C1697 C 0.47717 0.40683 0.35775 0.0
H1698 H 0.5688 0.46548 0.36729 0.0
H1699 H 0.54097 0.46796 0.23277 0.0
H1700 H 0.52263 0.4134 0.40752 0.0
H1701 H 0.54144 0.40534 0.37826 0.0
H1702 H 0.55382 0.43173 0.41261 0.0
H1703 H 0.50714 0.43581 0.20187 0.0
H1704 H 0.50598 0.40858 0.21484 0.0
H1705 H 0.48704 0.41607 0.2452 0.0
H1706 H 0.49892 0.34308 0.29542 0.0
H1707 H 0.45376 0.36037 0.37231 0.0
H1708 H 0.54723 0.39673 0.2939 0.0
H1709 H 0.53356 0.39768 0.24055 0.0
H1710 H 0.53273 0.37104 0.25764 0.0
H1711 H 0.4892 0.41724 0.38648 0.0
H1712 H 0.45901 0.39828 0.37137 0.0
H1713 H 0.47905 0.41915 0.32941 0.0
C1714 C 0.55636 0.10127 0.34245 0.0
C1715 C 0.54449 0.08853 0.30242 0.0
C1716 C 0.58008 0.10883 0.34944 0.0
C1717 C 0.59223 0.10299 0.31621 0.0
C1718 C 0.58025 0.08972 0.27606 0.0
C1719 C 0.55658 0.08296 0.26924 0.0
C1720 C 0.59225 0.12347 0.39205 0.0
C1721 C 0.59238 0.08256 0.24053 0.0
C1722 C 0.65833 0.14202 0.31492 0.0
C1723 C 0.66567 0.13005 0.3449 0.0
C1724 C 0.63461 0.13316 0.30443 0.0
C1725 C 0.61762 0.11142 0.32329 0.0
C1726 C 0.62486 0.09869 0.35187 0.0
C1727 C 0.64867 0.10822 0.3627 0.0
C1728 C 0.62767 0.14757 0.27458 0.0
C1729 C 0.60739 0.07529 0.37228 0.0
H1730 H 0.54718 0.10586 0.368 0.0
H1731 H 0.54743 0.07299 0.2384 0.0
H1732 H 0.59936 0.11461 0.41391 0.0
H1733 H 0.60722 0.14048 0.38093 0.0
H1734 H 0.58041 0.12685 0.4141 0.0
H1735 H 0.5804 0.07144 0.21231 0.0
H1736 H 0.60711 0.09826 0.22428 0.0
H1737 H 0.59985 0.07282 0.25822 0.0
H1738 H 0.67107 0.15858 0.29994 0.0
H1739 H 0.65371 0.09866 0.38611 0.0
H1740 H 0.61662 0.15248 0.29546 0.0
H1741 H 0.61711 0.13721 0.2442 0.0
H1742 H 0.64301 0.16377 0.26128 0.0
H1743 H 0.59694 0.07774 0.39977 0.0
H1744 H 0.61597 0.0662 0.38828 0.0
H1745 H 0.5951 0.06391 0.34477 0.0
C1746 C 0.48238 0.16781 0.32762 0.0
C1747 C 0.46936 0.14333 0.33016 0.0
C1748 C 0.4725 0.18162 0.33925 0.0
C1749 C 0.44888 0.17082 0.3537 0.0
C1750 C 0.43565 0.14615 0.35695 0.0
C1751 C 0.44602 0.13271 0.34511 0.0
C1752 C 0.48723 0.20783 0.3348 0.0
C1753 C 0.41042 0.13394 0.37212 0.0
C1754 C 0.43081 0.21128 0.41234 0.0
C1755 C 0.4219 0.21772 0.3741 0.0
C1756 C 0.43883 0.19528 0.40679 0.0
C1757 C 0.43783 0.18545 0.36202 0.0
C1758 C 0.42792 0.19115 0.32388 0.0
C1759 C 0.42014 0.20717 0.33037 0.0
C1760 C 0.44921 0.18961 0.44836 0.0
C1761 C 0.42639 0.18105 0.27558 0.0
H1762 H 0.50024 0.17631 0.31531 0.0
H1763 H 0.43587 0.11387 0.34766 0.0
H1764 H 0.47987 0.21411 0.30721 0.0
H1765 H 0.48698 0.21631 0.36818 0.0
H1766 H 0.50565 0.21361 0.32564 0.0
H1767 H 0.40293 0.11479 0.37566 0.0
H1768 H 0.4087 0.14103 0.40621 0.0
H1769 H 0.39993 0.13723 0.34611 0.0
H1770 H 0.4322 0.21927 0.44626 0.0
H1771 H 0.41305 0.21177 0.30063 0.0
H1772 H 0.4682 0.19691 0.44263 0.0
H1773 H 0.44126 0.17044 0.45221 0.0
H1774 H 0.44671 0.19687 0.48158 0.0
H1775 H 0.44422 0.18747 0.26151 0.0
H1776 H 0.41665 0.18587 0.25049 0.0
H1777 H 0.41769 0.16175 0.27741 0.0
C1778 C 0.82822 0.22437 0.43059 0.0
C1779 C 0.80639 0.20956 0.41007 0.0
C1780 C 0.84235 0.24747 0.41506 0.0
C1781 C 0.83464 0.25605 0.37773 0.0
C1782 C 0.81277 0.24111 0.3564 0.0
C1783 C 0.79888 0.21809 0.37291 0.0
C1784 C 0.86541 0.26282 0.43913 0.0
C1785 C 0.80397 0.24948 0.31625 0.0
C1786 C 0.85919 0.32166 0.36886 0.0
C1787 C 0.87631 0.32817 0.33398 0.0
C1788 C 0.84564 0.29834 0.38345 0.0
C1789 C 0.84906 0.28091 0.36236 0.0
C1790 C 0.86638 0.28735 0.32715 0.0
C1791 C 0.8799 0.31092 0.3136 0.0
C1792 C 0.82761 0.29237 0.42147 0.0
C1793 C 0.87043 0.26931 0.30342 0.0
H1794 H 0.8342 0.218 0.45939 0.0
H1795 H 0.78228 0.20672 0.35626 0.0
H1796 H 0.87982 0.26963 0.41312 0.0
H1797 H 0.8654 0.2781 0.45511 0.0
H1798 H 0.86912 0.25339 0.46701 0.0
H1799 H 0.78698 0.23552 0.30242 0.0
H1800 H 0.80186 0.26431 0.32793 0.0
H1801 H 0.81691 0.25596 0.28726 0.0
H1802 H 0.8565 0.33496 0.38499 0.0
H1803 H 0.89284 0.31577 0.28614 0.0
H1804 H 0.83127 0.28396 0.45141 0.0
H1805 H 0.81002 0.27966 0.40798 0.0
H1806 H 0.82723 0.30798 0.43459 0.0
H1807 H 0.87546 0.2603 0.32982 0.0
H1808 H 0.88431 0.27707 0.27624 0.0
H1809 H 0.85405 0.25584 0.28665 0.0
C1810 C 0.6959 0.53535 0.3589 0.0
C1811 C 0.68779 0.54805 0.33332 0.0
C1812 C 0.71972 0.54474 0.36908 0.0
C1813 C 0.73601 0.56767 0.35429 0.0
C1814 C 0.72791 0.58104 0.33044 0.0
C1815 C 0.704 0.57105 0.31992 0.0
C1816 C 0.72756 0.5297 0.39406 0.0
C1817 C 0.74463 0.60567 0.31456 0.0
C1818 C 0.79703 0.59542 0.40828 0.0
C1819 C 0.8096 0.59182 0.37283 0.0
C1820 C 0.77322 0.58829 0.40232 0.0
C1821 C 0.7616 0.57681 0.36041 0.0
C1822 C 0.77428 0.5732 0.32457 0.0
C1823 C 0.79809 0.58094 0.33102 0.0
C1824 C 0.76047 0.59294 0.44092 0.0
C1825 C 0.76257 0.56064 0.27972 0.0
H1826 H 0.68364 0.51782 0.37048 0.0
H1827 H 0.69827 0.58115 0.29991 0.0
H1828 H 0.73902 0.52647 0.37056 0.0
H1829 H 0.73794 0.53883 0.42558 0.0
H1830 H 0.71264 0.5126 0.40503 0.0
H1831 H 0.73539 0.61464 0.30119 0.0
H1832 H 0.75618 0.61603 0.34393 0.0
H1833 H 0.75595 0.6054 0.28618 0.0
H1834 H 0.80582 0.60392 0.44056 0.0
H1835 H 0.80758 0.5779 0.30353 0.0
H1836 H 0.74637 0.57618 0.4552 0.0
H1837 H 0.75209 0.60257 0.42669 0.0
H1838 H 0.77226 0.60322 0.47013 0.0
H1839 H 0.7482 0.54277 0.28792 0.0
H1840 H 0.7749 0.55929 0.25523 0.0
H1841 H 0.75471 0.56988 0.26159 0.0
C1842 C 0.5965 0.80769 0.59969 0.0
C1843 C 0.59218 0.79098 0.6344 0.0
C1844 C 0.58963 0.82454 0.60613 0.0
C1845 C 0.57759 0.8242 0.64761 0.0
C1846 C 0.57305 0.80719 0.68244 0.0
C1847 C 0.58062 0.79103 0.67564 0.0
C1848 C 0.59534 0.84276 0.56874 0.0
C1849 C 0.55978 0.80573 0.72665 0.0
C1850 C 0.57224 0.87569 0.69194 0.0
C1851 C 0.54959 0.86956 0.67732 0.0
C1852 C 0.58207 0.86175 0.68048 0.0
C1853 C 0.56887 0.84094 0.65439 0.0
C1854 C 0.54631 0.83501 0.63844 0.0
C1855 C 0.53709 0.84947 0.64965 0.0
C1856 C 0.60628 0.86887 0.69787 0.0
C1857 C 0.53142 0.81281 0.61128 0.0
H1858 H 0.60558 0.80783 0.56792 0.0
H1859 H 0.57702 0.77804 0.70247 0.0
H1860 H 0.57901 0.84101 0.55411 0.0
H1861 H 0.60534 0.86046 0.5843 0.0
H1862 H 0.60569 0.84133 0.53956 0.0
H1863 H 0.55749 0.79132 0.7501 0.0
H1864 H 0.56907 0.82238 0.74637 0.0
H1865 H 0.54227 0.80297 0.71749 0.0
H1866 H 0.58209 0.89095 0.71365 0.0
H1867 H 0.51983 0.84476 0.63727 0.0
H1868 H 0.61693 0.86759 0.66919 0.0
H1869 H 0.60514 0.85686 0.72623 0.0
H1870 H 0.61544 0.88695 0.71191 0.0
H1871 H 0.54102 0.81199 0.58012 0.0
H1872 H 0.51471 0.81126 0.59943 0.0
H1873 H 0.52739 0.79751 0.63364 0.0
C1874 C 0.19087 0.78581 0.57936 0.0
C1875 C 0.21376 0.80083 0.59498 0.0
C1876 C 0.17782 0.76274 0.59578 0.0
C1877 C 0.18769 0.75434 0.62915 0.0
C1878 C 0.21073 0.76941 0.6454 0.0
C1879 C 0.22354 0.7924 0.62792 0.0
C1880 C 0.15345 0.74728 0.57703 0.0
C1881 C 0.22184 0.76123 0.68127 0.0
C1882 C 0.14389 0.70023 0.69708 0.0
C1883 C 0.14443 0.6821 0.67229 0.0
C1884 C 0.15848 0.7238 0.68463 0.0
C1885 C 0.1739 0.72962 0.64604 0.0
C1886 C 0.175 0.71158 0.62156 0.0
C1887 C 0.16045 0.68819 0.63512 0.0
C1888 C 0.1569 0.74247 0.71211 0.0
C1889 C 0.19112 0.71694 0.5801 0.0
H1890 H 0.1831 0.79198 0.55374 0.0
H1891 H 0.24116 0.80379 0.64029 0.0
H1892 H 0.15228 0.73168 0.55991 0.0
H1893 H 0.14068 0.74101 0.6063 0.0
H1894 H 0.14828 0.75644 0.55117 0.0
H1895 H 0.23964 0.77521 0.69128 0.0
H1896 H 0.21084 0.75508 0.71329 0.0
H1897 H 0.22299 0.74622 0.66719 0.0
H1898 H 0.13174 0.69616 0.72571 0.0
H1899 H 0.16164 0.67468 0.61612 0.0
H1900 H 0.14978 0.75104 0.68938 0.0
H1901 H 0.17453 0.75615 0.7236 0.0
H1902 H 0.14553 0.73533 0.74353 0.0
H1903 H 0.18603 0.72494 0.55163 0.0
H1904 H 0.19073 0.70109 0.56606 0.0
H1905 H 0.20932 0.72977 0.59017 0.0
C1906 C 0.22947 0.40791 0.58453 0.0
C1907 C 0.21414 0.41507 0.60164 0.0
C1908 C 0.25255 0.41802 0.60086 0.0
C1909 C 0.26059 0.43564 0.63561 0.0
C1910 C 0.24523 0.44295 0.65319 0.0
C1911 C 0.22224 0.43269 0.63581 0.0
C1912 C 0.26834 0.40981 0.58085 0.0
C1913 C 0.25305 0.46154 0.69052 0.0
C1914 C 0.31445 0.4465 0.70501 0.0
C1915 C 0.33225 0.46629 0.68244 0.0
C1916 C 0.29102 0.43658 0.69072 0.0
C1917 C 0.28521 0.44659 0.65279 0.0
C1918 C 0.30311 0.46659 0.63 0.0
C1919 C 0.32634 0.47621 0.64519 0.0
C1920 C 0.27248 0.41545 0.71643 0.0
C1921 C 0.29779 0.47764 0.58903 0.0
H1922 H 0.22349 0.3944 0.558 0.0
H1923 H 0.21055 0.43829 0.64944 0.0
H1924 H 0.284 0.42474 0.56487 0.0
H1925 H 0.27451 0.40279 0.60931 0.0
H1926 H 0.25949 0.39606 0.55377 0.0
H1927 H 0.23894 0.46507 0.701 0.0
H1928 H 0.25897 0.4561 0.72205 0.0
H1929 H 0.26814 0.47801 0.67764 0.0
H1930 H 0.31875 0.43896 0.73436 0.0
H1931 H 0.34001 0.49135 0.62736 0.0
H1932 H 0.26188 0.40122 0.69131 0.0
H1933 H 0.26048 0.42003 0.73457 0.0
H1934 H 0.28003 0.40876 0.74284 0.0
H1935 H 0.29009 0.46486 0.55995 0.0
H1936 H 0.31359 0.49341 0.57574 0.0
H1937 H 0.2847 0.48261 0.59943 0.0
C1938 C 0.10496 0.55279 0.70485 0.0
C1939 C 0.08771 0.54398 0.73984 0.0
C1940 C 0.11468 0.53951 0.68783 0.0
C1941 C 0.10723 0.51703 0.70671 0.0
C1942 C 0.08995 0.50816 0.74223 0.0
C1943 C 0.08035 0.52164 0.75811 0.0
C1944 C 0.13287 0.54948 0.64957 0.0
C1945 C 0.08166 0.48443 0.76382 0.0
C1946 C 0.1151 0.47084 0.64275 0.0
C1947 C 0.13436 0.47202 0.66623 0.0
C1948 C 0.10672 0.48603 0.65409 0.0
C1949 C 0.11762 0.50273 0.69024 0.0
C1950 C 0.13742 0.50451 0.71316 0.0
C1951 C 0.14561 0.48931 0.7007 0.0
C1952 C 0.08571 0.48369 0.62834 0.0
C1953 C 0.14952 0.52197 0.75205 0.0
H1954 H 0.11071 0.56998 0.69039 0.0
H1955 H 0.06716 0.51467 0.78536 0.0
H1956 H 0.1494 0.55091 0.6621 0.0
H1957 H 0.12699 0.53759 0.61886 0.0
H1958 H 0.13647 0.56701 0.63794 0.0
H1959 H 0.06819 0.48011 0.79129 0.0
H1960 H 0.07425 0.47077 0.7363 0.0
H1961 H 0.09663 0.48379 0.77976 0.0
H1962 H 0.10603 0.45762 0.61629 0.0
H1963 H 0.16079 0.49093 0.71848 0.0
H1964 H 0.08936 0.50095 0.615 0.0
H1965 H 0.07072 0.47734 0.65283 0.0
H1966 H 0.08054 0.47136 0.59837 0.0
H1967 H 0.15448 0.53979 0.73992 0.0
H1968 H 0.16544 0.52206 0.76467 0.0
H1969 H 0.13739 0.5178 0.78209 0.0
C1970 C 0.47926 0.55252 0.74552 0.0
C1971 C 0.46282 0.54021 0.71032 0.0
C1972 C 0.49635 0.57617 0.73937 0.0
C1973 C 0.49656 0.58795 0.69762 0.0
C1974 C 0.48002 0.57552 0.662 0.0
C1975 C 0.46359 0.55181 0.66855 0.0
C1976 C 0.51406 0.58861 0.77764 0.0
C1977 C 0.47919 0.58744 0.61741 0.0
C1978 C 0.52133 0.65369 0.69719 0.0
C1979 C 0.54186 0.66172 0.67064 0.0
C1980 C 0.50684 0.62987 0.70734 0.0
C1981 C 0.5132 0.61352 0.69169 0.0
C1982 C 0.53449 0.62155 0.66712 0.0
C1983 C 0.54844 0.64546 0.65652 0.0
C1984 C 0.48415 0.62212 0.73304 0.0
C1985 C 0.54215 0.60477 0.65048 0.0
H1986 H 0.47885 0.54361 0.77774 0.0
H1987 H 0.45084 0.5425 0.64131 0.0
H1988 H 0.53198 0.597 0.76288 0.0
H1989 H 0.5116 0.60266 0.7928 0.0
H1990 H 0.51266 0.5766 0.80633 0.0
H1991 H 0.46532 0.57528 0.59304 0.0
H1992 H 0.47598 0.60194 0.62601 0.0
H1993 H 0.49622 0.59514 0.59897 0.0
H1994 H 0.51626 0.66599 0.7094 0.0
H1995 H 0.56407 0.65114 0.63584 0.0
H1996 H 0.48299 0.61163 0.76432 0.0
H1997 H 0.46926 0.61078 0.70982 0.0
H1998 H 0.48217 0.63707 0.74452 0.0
H1999 H 0.54084 0.59296 0.67944 0.0
H2000 H 0.56036 0.61397 0.63705 0.0
H2001 H 0.53047 0.59372 0.62192 0.0
C2002 C 0.35843 0.86973 0.68304 0.0
C2003 C 0.35156 0.88406 0.65998 0.0
C2004 C 0.38208 0.87756 0.69262 0.0
C2005 C 0.39937 0.90044 0.67944 0.0
C2006 C 0.3925 0.91518 0.65702 0.0
C2007 C 0.36874 0.90677 0.64727 0.0
C2008 C 0.38861 0.86107 0.71565 0.0
C2009 C 0.41028 0.93976 0.6428 0.0
C2010 C 0.45968 0.92553 0.73585 0.0
C2011 C 0.47236 0.92219 0.70024 0.0
C2012 C 0.43604 0.91897 0.72935 0.0
C2013 C 0.42468 0.9084 0.68661 0.0
C2014 C 0.43743 0.90496 0.65069 0.0
C2015 C 0.46106 0.91205 0.65778 0.0
C2016 C 0.4232 0.92332 0.76821 0.0
C2017 C 0.426 0.89343 0.60487 0.0
H2018 H 0.34533 0.85209 0.69244 0.0
H2019 H 0.36358 0.91806 0.63001 0.0
H2020 H 0.3998 0.85772 0.69161 0.0
H2021 H 0.39889 0.86907 0.74793 0.0
H2022 H 0.37306 0.8441 0.72503 0.0
H2023 H 0.40202 0.9495 0.62844 0.0
H2024 H 0.42121 0.94945 0.6734 0.0
H2025 H 0.42212 0.93935 0.61575 0.0
H2026 H 0.46828 0.93345 0.76866 0.0
H2027 H 0.47061 0.90921 0.63011 0.0
H2028 H 0.40839 0.90651 0.78056 0.0
H2029 H 0.41576 0.93398 0.75484 0.0
H2030 H 0.43469 0.93247 0.79858 0.0
H2031 H 0.41105 0.8757 0.61167 0.0
H2032 H 0.4383 0.89191 0.58056 0.0
H2033 H 0.41898 0.90355 0.58716 0.0
loop_
_geom_bond_atom_site_label_1
_geom_bond_atom_site_label_2
_geom_bond_distance
_geom_bond_site_symmetry_2
_ccdc_geom_bond_type
Co0 N4 2.148 . S
Co0 N10 2.128 . S
Co0 N20 2.194 . S
Co0 O25 2.351 . S
Co0 O26 2.155 . S
Co0 O27 2.096 . S
C1 N4 1.301 . S
C1 N5 1.328 . S
C1 H6 0.930 . S
C2 C3 1.333 . S
C2 N4 1.317 . S
C2 H7 0.930 . S
C3 C2 1.333 . S
C3 N5 1.350 . S
C3 H29 0.931 . S
N4 Co0 2.148 . S
N4 C1 1.301 . S
N4 C2 1.317 . S
N5 C1 1.328 . S
N5 C3 1.350 . S
H6 C1 0.930 . S
H7 C2 0.930 . S
C8 O9 1.224 . S
C8 O27 1.247 . S
O9 C8 1.224 . S
N10 Co0 2.128 . S
N10 C11 1.355 . S
N10 C13 1.311 . S
C11 N10 1.355 . S
C11 C12 1.363 . S
C11 H23 0.929 . S
C12 C11 1.363 . S
C12 N14 1.375 . S
C12 H30 0.931 . S
C13 N10 1.311 . S
C13 N14 1.347 . S
C13 H24 0.929 . S
N14 C12 1.375 . S
N14 C13 1.347 . S
C15 C18 1.365 . S
C15 N20 1.328 . S
C15 H21 0.929 . S
C16 C17 1.362 . S
C16 C19 1.361 1_556 S
C16 H31 0.946 . S
C17 C16 1.362 . S
C17 C18 1.359 1_556 S
C18 C15 1.365 . S
C18 C17 1.359 1_554 S
C18 H32 0.930 . S
C19 C16 1.361 1_554 S
C19 N20 1.315 . S
C19 H22 0.930 . S
N20 Co0 2.194 . S
N20 C15 1.328 . S
N20 C19 1.315 . S
H21 C15 0.929 . S
H22 C19 0.930 . S
H23 C11 0.929 . S
H24 C13 0.929 . S
O25 Co0 2.351 . S
O25 C28 1.244 . S
O26 Co0 2.155 . S
O26 C28 1.240 . S
O27 Co0 2.096 . S
O27 C8 1.247 . S
C28 O25 1.244 . S
C28 O26 1.240 . S
H29 C3 0.931 . S
H30 C12 0.931 . S
H31 C16 0.946 . S
H32 C18 0.930 . S
Co33 N37 2.148 . S
Co33 N43 2.128 . S
Co33 N53 2.194 . S
Co33 O58 2.351 . S
Co33 O59 2.155 . S
Co33 O60 2.096 . S
C34 N37 1.301 . S
C34 N38 1.328 1_565 S
C34 H39 0.930 . S
C35 C36 1.333 . S
C35 N37 1.317 . S
C35 H40 0.930 . S
C36 C35 1.333 . S
C36 N38 1.350 1_565 S
C36 H62 0.931 . S
N37 Co33 2.148 . S
N37 C34 1.301 . S
N37 C35 1.317 . S
N38 C34 1.328 1_545 S
N38 C36 1.350 1_545 S
H39 C34 0.930 . S
H40 C35 0.930 . S
C41 O42 1.224 . S
C41 O60 1.247 . S
O42 C41 1.224 . S
N43 Co33 2.128 . S
N43 C44 1.355 . S
N43 C46 1.311 . S
C44 N43 1.355 . S
C44 C45 1.363 . S
C44 H56 0.929 . S
C45 C44 1.363 . S
C45 N47 1.375 . S
C45 H63 0.931 . S
C46 N43 1.311 . S
C46 N47 1.347 . S
C46 H57 0.929 . S
N47 C45 1.375 . S
N47 C46 1.347 . S
C48 C51 1.365 . S
C48 N53 1.328 . S
C48 H54 0.929 . S
C49 C50 1.362 . S
C49 C52 1.361 1_556 S
C49 H64 0.946 . S
C50 C49 1.362 . S
C50 C51 1.360 1_556 S
C51 C48 1.365 . S
C51 C50 1.360 1_554 S
C51 H65 0.930 . S
C52 C49 1.361 1_554 S
C52 N53 1.315 . S
C52 H55 0.930 . S
N53 Co33 2.194 . S
N53 C48 1.328 . S
N53 C52 1.315 . S
H54 C48 0.929 . S
H55 C52 0.930 . S
H56 C44 0.929 . S
H57 C46 0.929 . S
O58 Co33 2.351 . S
O58 C61 1.244 . S
O59 Co33 2.155 . S
O59 C61 1.240 . S
O60 Co33 2.096 . S
O60 C41 1.247 . S
C61 O58 1.244 . S
C61 O59 1.240 . S
H62 C36 0.931 . S
H63 C45 0.931 . S
H64 C49 0.946 . S
H65 C51 0.930 . S
Co66 N70 2.148 . S
Co66 N76 2.128 . S
Co66 N86 2.194 . S
Co66 O91 2.351 . S
Co66 O92 2.155 . S
Co66 O93 2.096 . S
C67 N70 1.301 . S
C67 N71 1.328 1_455 S
C67 H72 0.930 . S
C68 C69 1.333 . S
C68 N70 1.317 . S
C68 H73 0.930 . S
C69 C68 1.333 . S
C69 N71 1.350 1_455 S
C69 H95 0.931 . S
N70 Co66 2.148 . S
N70 C67 1.301 . S
N70 C68 1.317 . S
N71 C67 1.328 1_655 S
N71 C69 1.350 1_655 S
H72 C67 0.930 . S
H73 C68 0.930 . S
C74 O75 1.224 . S
C74 O93 1.247 . S
O75 C74 1.224 . S
N76 Co66 2.128 . S
N76 C77 1.355 . S
N76 C79 1.311 . S
C77 N76 1.355 . S
C77 C78 1.363 . S
C77 H89 0.929 . S
C78 C77 1.363 . S
C78 N80 1.375 . S
C78 H96 0.931 . S
C79 N76 1.311 . S
C79 N80 1.347 . S
C79 H90 0.929 . S
N80 C78 1.375 . S
N80 C79 1.347 . S
C81 C84 1.365 . S
C81 N86 1.328 . S
C81 H87 0.929 . S
C82 C83 1.362 . S
C82 C85 1.361 1_556 S
C82 H97 0.946 . S
C83 C82 1.362 . S
C83 C84 1.360 1_556 S
C84 C81 1.365 . S
C84 C83 1.360 1_554 S
C84 H98 0.930 . S
C85 C82 1.361 1_554 S
C85 N86 1.315 . S
C85 H88 0.930 . S
N86 Co66 2.194 . S
N86 C81 1.328 . S
N86 C85 1.315 . S
H87 C81 0.929 . S
H88 C85 0.930 . S
H89 C77 0.929 . S
H90 C79 0.929 . S
O91 Co66 2.351 . S
O91 C94 1.244 . S
O92 Co66 2.155 . S
O92 C94 1.240 . S
O93 Co66 2.096 . S
O93 C74 1.247 . S
C94 O91 1.244 . S
C94 O92 1.240 . S
H95 C69 0.931 . S
H96 C78 0.931 . S
H97 C82 0.946 . S
H98 C84 0.930 . S
Co99 N103 2.148 . S
Co99 N109 2.128 . S
Co99 N119 2.194 . S
Co99 O124 2.351 . S
Co99 O125 2.155 . S
Co99 O126 2.096 . S
C100 N103 1.301 . S
C100 N104 1.328 . S
C100 H105 0.930 . S
C101 C102 1.333 . S
C101 N103 1.317 . S
C101 H106 0.930 . S
C102 C101 1.333 . S
C102 N104 1.350 . S
C102 H128 0.931 . S
N103 Co99 2.148 . S
N103 C100 1.301 . S
N103 C101 1.317 . S
N104 C100 1.328 . S
N104 C102 1.350 . S
H105 C100 0.930 . S
H106 C101 0.930 . S
C107 O108 1.224 . S
C107 O126 1.247 . S
O108 C107 1.224 . S
N109 Co99 2.128 . S
N109 C110 1.355 . S
N109 C112 1.311 . S
C110 N109 1.355 . S
C110 C111 1.363 . S
C110 H122 0.929 . S
C111 C110 1.363 . S
C111 N113 1.375 . S
C111 H129 0.931 . S
C112 N109 1.311 . S
C112 N113 1.347 . S
C112 H123 0.929 . S
N113 C111 1.375 . S
N113 C112 1.347 . S
C114 C117 1.365 . S
C114 N119 1.328 . S
C114 H120 0.929 . S
C115 C116 1.362 . S
C115 C118 1.361 1_554 S
C115 H130 0.946 . S
C116 C115 1.362 . S
C116 C117 1.359 1_554 S
C117 C114 1.365 . S
C117 C116 1.359 1_556 S
C117 H131 0.930 . S
C118 C115 1.361 1_556 S
C118 N119 1.315 . S
C118 H121 0.930 . S
N119 Co99 2.194 . S
N119 C114 1.328 . S
N119 C118 1.315 . S
H120 C114 0.929 . S
H121 C118 0.930 . S
H122 C110 0.929 . S
H123 C112 0.929 . S
O124 Co99 2.351 . S
O124 C127 1.244 . S
O125 Co99 2.155 . S
O125 C127 1.240 . S
O126 Co99 2.096 . S
O126 C107 1.247 . S
C127 O124 1.244 . S
C127 O125 1.240 . S
H128 C102 0.931 . S
H129 C111 0.931 . S
H130 C115 0.946 . S
H131 C117 0.930 . S
Co132 N136 2.148 . S
Co132 N142 2.128 . S
Co132 N152 2.194 . S
Co132 O157 2.351 . S
Co132 O158 2.155 . S
Co132 O159 2.096 . S
C133 N136 1.301 . S
C133 N137 1.328 1_545 S
C133 H138 0.930 . S
C134 C135 1.333 . S
C134 N136 1.317 . S
C134 H139 0.930 . S
C135 C134 1.333 . S
C135 N137 1.350 1_545 S
C135 H161 0.931 . S
N136 Co132 2.148 . S
N136 C133 1.301 . S
N136 C134 1.317 . S
N137 C133 1.328 1_565 S
N137 C135 1.350 1_565 S
H138 C133 0.930 . S
H139 C134 0.930 . S
C140 O141 1.224 . S
C140 O159 1.247 . S
O141 C140 1.224 . S
N142 Co132 2.128 . S
N142 C143 1.355 . S
N142 C145 1.311 . S
C143 N142 1.355 . S
C143 C144 1.363 . S
C143 H155 0.929 . S
C144 C143 1.363 . S
C144 N146 1.375 . S
C144 H162 0.931 . S
C145 N142 1.311 . S
C145 N146 1.347 . S
C145 H156 0.929 . S
N146 C144 1.375 . S
N146 C145 1.347 . S
C147 C150 1.365 . S
C147 N152 1.328 . S
C147 H153 0.929 . S
C148 C149 1.362 . S
C148 C151 1.361 1_554 S
C148 H163 0.946 . S
C149 C148 1.362 . S
C149 C150 1.360 1_554 S
C150 C147 1.365 . S
C150 C149 1.360 1_556 S
C150 H164 0.930 . S
C151 C148 1.361 1_556 S
C151 N152 1.315 . S
C151 H154 0.930 . S
N152 Co132 2.194 . S
N152 C147 1.328 . S
N152 C151 1.315 . S
H153 C147 0.929 . S
H154 C151 0.930 . S
H155 C143 0.929 . S
H156 C145 0.929 . S
O157 Co132 2.351 . S
O157 C160 1.244 . S
O158 Co132 2.155 . S
O158 C160 1.240 . S
O159 Co132 2.096 . S
O159 C140 1.247 . S
C160 O157 1.244 . S
C160 O158 1.240 . S
H161 C135 0.931 . S
H162 C144 0.931 . S
H163 C148 0.946 . S
H164 C150 0.930 . S
Co165 N169 2.148 . S
Co165 N175 2.128 . S
Co165 N185 2.194 . S
Co165 O190 2.351 . S
Co165 O191 2.155 . S
Co165 O192 2.096 . S
C166 N169 1.301 . S
C166 N170 1.328 1_655 S
C166 H171 0.930 . S
C167 C168 1.333 . S
C167 N169 1.317 . S
C167 H172 0.930 . S
C168 C167 1.333 . S
C168 N170 1.350 1_655 S
C168 H194 0.931 . S
N169 Co165 2.148 . S
N169 C166 1.301 . S
N169 C167 1.317 . S
N170 C166 1.328 1_455 S
N170 C168 1.350 1_455 S
H171 C166 0.930 . S
H172 C167 0.930 . S
C173 O174 1.224 . S
C173 O192 1.247 . S
O174 C173 1.224 . S
N175 Co165 2.128 . S
N175 C176 1.355 . S
N175 C178 1.311 . S
C176 N175 1.355 . S
C176 C177 1.363 . S
C176 H188 0.929 . S
C177 C176 1.363 . S
C177 N179 1.375 . S
C177 H195 0.931 . S
C178 N175 1.311 . S
C178 N179 1.347 . S
C178 H189 0.929 . S
N179 C177 1.375 . S
N179 C178 1.347 . S
C180 C183 1.365 . S
C180 N185 1.328 . S
C180 H186 0.929 . S
C181 C182 1.362 . S
C181 C184 1.361 1_554 S
C181 H196 0.946 . S
C182 C181 1.362 . S
C182 C183 1.360 1_554 S
C183 C180 1.365 . S
C183 C182 1.360 1_556 S
C183 H197 0.930 . S
C184 C181 1.361 1_556 S
C184 N185 1.315 . S
C184 H187 0.930 . S
N185 Co165 2.194 . S
N185 C180 1.328 . S
N185 C184 1.315 . S
H186 C180 0.929 . S
H187 C184 0.930 . S
H188 C176 0.929 . S
H189 C178 0.929 . S
O190 Co165 2.351 . S
O190 C193 1.244 . S
O191 Co165 2.155 . S
O191 C193 1.240 . S
O192 Co165 2.096 . S
O192 C173 1.247 . S
C193 O190 1.244 . S
C193 O191 1.240 . S
H194 C168 0.931 . S
H195 C177 0.931 . S
H196 C181 0.946 . S
H197 C183 0.930 . S
Co198 N202 2.148 . S
Co198 N208 2.128 . S
Co198 N218 2.194 . S
Co198 O223 2.351 . S
Co198 O224 2.155 . S
Co198 O225 2.096 . S
C199 N202 1.301 . S
C199 N203 1.328 . S
C199 H204 0.930 . S
C200 C201 1.333 . S
C200 N202 1.317 . S
C200 H205 0.930 . S
C201 C200 1.333 . S
C201 N203 1.350 . S
C201 H227 0.931 . S
N202 Co198 2.148 . S
N202 C199 1.301 . S
N202 C200 1.317 . S
N203 C199 1.328 . S
N203 C201 1.350 . S
H204 C199 0.930 . S
H205 C200 0.930 . S
C206 O207 1.224 . S
C206 O225 1.247 . S
O207 C206 1.224 . S
N208 Co198 2.128 . S
N208 C209 1.355 . S
N208 C211 1.311 . S
C209 N208 1.355 . S
C209 C210 1.363 . S
C209 H221 0.929 . S
C210 C209 1.363 . S
C210 N212 1.375 . S
C210 H228 0.931 . S
C211 N208 1.311 . S
C211 N212 1.347 . S
C211 H222 0.929 . S
N212 C210 1.375 . S
N212 C211 1.347 . S
C213 C216 1.365 . S
C213 N218 1.328 . S
C213 H219 0.929 . S
C214 C215 1.362 . S
C214 C217 1.378 . S
C214 H229 0.929 . S
C215 C214 1.362 . S
C215 C216 1.366 . S
C216 C213 1.365 . S
C216 C215 1.366 . S
C216 H230 0.930 . S
C217 C214 1.378 . S
C217 N218 1.315 . S
C217 H220 0.930 . S
N218 Co198 2.194 . S
N218 C213 1.328 . S
N218 C217 1.315 . S
H219 C213 0.929 . S
H220 C217 0.930 . S
H221 C209 0.929 . S
H222 C211 0.929 . S
O223 Co198 2.351 . S
O223 C226 1.244 . S
O224 Co198 2.155 . S
O224 C226 1.240 . S
O225 Co198 2.096 . S
O225 C206 1.247 . S
C226 O223 1.244 . S
C226 O224 1.240 . S
H227 C201 0.931 . S
H228 C210 0.931 . S
H229 C214 0.929 . S
H230 C216 0.930 . S
Co231 N235 2.148 . S
Co231 N241 2.128 . S
Co231 N251 2.194 . S
Co231 O256 2.351 . S
Co231 O257 2.155 . S
Co231 O258 2.096 . S
C232 N235 1.301 . S
C232 N236 1.328 . S
C232 H237 0.930 . S
C233 C234 1.333 . S
C233 N235 1.317 . S
C233 H238 0.930 . S
C234 C233 1.333 . S
C234 N236 1.350 . S
C234 H260 0.931 . S
N235 Co231 2.148 . S
N235 C232 1.301 . S
N235 C233 1.317 . S
N236 C232 1.328 . S
N236 C234 1.350 . S
H237 C232 0.930 . S
H238 C233 0.930 . S
C239 O240 1.224 . S
C239 O258 1.247 . S
O240 C239 1.224 . S
N241 Co231 2.128 . S
N241 C242 1.355 . S
N241 C244 1.311 . S
C242 N241 1.355 . S
C242 C243 1.363 . S
C242 H254 0.929 . S
C243 C242 1.363 . S
C243 N245 1.375 . S
C243 H261 0.931 . S
C244 N241 1.311 . S
C244 N245 1.347 . S
C244 H255 0.929 . S
N245 C243 1.375 . S
N245 C244 1.347 . S
C246 C249 1.365 . S
C246 N251 1.328 . S
C246 H252 0.929 . S
C247 C248 1.362 . S
C247 C250 1.378 . S
C247 H262 0.929 . S
C248 C247 1.362 . S
C248 C249 1.366 . S
C249 C246 1.365 . S
C249 C248 1.366 . S
C249 H263 0.930 . S
C250 C247 1.378 . S
C250 N251 1.315 . S
C250 H253 0.930 . S
N251 Co231 2.194 . S
N251 C246 1.328 . S
N251 C250 1.315 . S
H252 C246 0.929 . S
H253 C250 0.930 . S
H254 C242 0.929 . S
H255 C244 0.929 . S
O256 Co231 2.351 . S
O256 C259 1.244 . S
O257 Co231 2.155 . S
O257 C259 1.240 . S
O258 Co231 2.096 . S
O258 C239 1.247 . S
C259 O256 1.244 . S
C259 O257 1.240 . S
H260 C234 0.931 . S
H261 C243 0.931 . S
H262 C247 0.929 . S
H263 C249 0.930 . S
Co264 N268 2.148 . S
Co264 N274 2.128 . S
Co264 N284 2.194 . S
Co264 O289 2.351 . S
Co264 O290 2.155 . S
Co264 O291 2.096 . S
C265 N268 1.301 . S
C265 N269 1.328 . S
C265 H270 0.930 . S
C266 C267 1.333 . S
C266 N268 1.317 . S
C266 H271 0.930 . S
C267 C266 1.333 . S
C267 N269 1.350 . S
C267 H293 0.931 . S
N268 Co264 2.148 . S
N268 C265 1.301 . S
N268 C266 1.317 . S
N269 C265 1.328 . S
N269 C267 1.350 . S
H270 C265 0.930 . S
H271 C266 0.930 . S
C272 O273 1.224 . S
C272 O291 1.247 . S
O273 C272 1.224 . S
N274 Co264 2.128 . S
N274 C275 1.355 . S
N274 C277 1.311 . S
C275 N274 1.355 . S
C275 C276 1.363 . S
C275 H287 0.929 . S
C276 C275 1.363 . S
C276 N278 1.375 . S
C276 H294 0.931 . S
C277 N274 1.311 . S
C277 N278 1.347 . S
C277 H288 0.929 . S
N278 C276 1.375 . S
N278 C277 1.347 . S
C279 C282 1.365 . S
C279 N284 1.328 . S
C279 H285 0.929 . S
C280 C281 1.362 . S
C280 C283 1.378 . S
C280 H295 0.929 . S
C281 C280 1.362 . S
C281 C282 1.366 . S
C282 C279 1.365 . S
C282 C281 1.366 . S
C282 H296 0.930 . S
C283 C280 1.378 . S
C283 N284 1.315 . S
C283 H286 0.930 . S
N284 Co264 2.194 . S
N284 C279 1.328 . S
N284 C283 1.315 . S
H285 C279 0.929 . S
H286 C283 0.930 . S
H287 C275 0.929 . S
H288 C277 0.929 . S
O289 Co264 2.351 . S
O289 C292 1.244 . S
O290 Co264 2.155 . S
O290 C292 1.240 . S
O291 Co264 2.096 . S
O291 C272 1.247 . S
C292 O289 1.244 . S
C292 O290 1.240 . S
H293 C267 0.931 . S
H294 C276 0.931 . S
H295 C280 0.929 . S
H296 C282 0.930 . S
Co297 N301 2.148 . S
Co297 N307 2.128 . S
Co297 N317 2.194 . S
Co297 O322 2.351 . S
Co297 O323 2.155 . S
Co297 O324 2.096 . S
C298 N301 1.301 . S
C298 N302 1.328 . S
C298 H303 0.930 . S
C299 C300 1.333 . S
C299 N301 1.317 . S
C299 H304 0.930 . S
C300 C299 1.333 . S
C300 N302 1.350 . S
C300 H326 0.931 . S
N301 Co297 2.148 . S
N301 C298 1.301 . S
N301 C299 1.317 . S
N302 C298 1.328 . S
N302 C300 1.350 . S
H303 C298 0.930 . S
H304 C299 0.930 . S
C305 O306 1.224 . S
C305 O324 1.247 . S
O306 C305 1.224 . S
N307 Co297 2.128 . S
N307 C308 1.355 . S
N307 C310 1.311 . S
C308 N307 1.355 . S
C308 C309 1.363 . S
C308 H320 0.929 . S
C309 C308 1.363 . S
C309 N311 1.375 . S
C309 H327 0.946 . S
C310 N307 1.311 . S
C310 N311 1.347 . S
C310 H321 0.929 . S
N311 C309 1.375 . S
N311 C310 1.347 . S
C312 C315 1.365 . S
C312 N317 1.328 . S
C312 H318 0.929 . S
C313 C314 1.362 . S
C313 C316 1.378 . S
C313 H328 0.929 . S
C314 C313 1.362 . S
C314 C315 1.366 . S
C315 C312 1.365 . S
C315 C314 1.366 . S
C315 H329 0.930 . S
C316 C313 1.378 . S
C316 N317 1.315 . S
C316 H319 0.930 . S
N317 Co297 2.194 . S
N317 C312 1.328 . S
N317 C316 1.315 . S
H318 C312 0.929 . S
H319 C316 0.930 . S
H320 C308 0.929 . S
H321 C310 0.929 . S
O322 Co297 2.351 . S
O322 C325 1.244 . S
O323 Co297 2.155 . S
O323 C325 1.240 . S
O324 Co297 2.096 . S
O324 C305 1.247 . S
C325 O322 1.244 . S
C325 O323 1.240 . S
H326 C300 0.931 . S
H327 C309 0.946 . S
H328 C313 0.929 . S
H329 C315 0.930 . S
Co330 N334 2.148 . S
Co330 N340 2.128 . S
Co330 N350 2.194 . S
Co330 O355 2.351 . S
Co330 O356 2.155 . S
Co330 O357 2.096 . S
C331 N334 1.301 . S
C331 N335 1.328 . S
C331 H336 0.930 . S
C332 C333 1.333 . S
C332 N334 1.317 . S
C332 H337 0.930 . S
C333 C332 1.333 . S
C333 N335 1.350 . S
C333 H359 0.931 . S
N334 Co330 2.148 . S
N334 C331 1.301 . S
N334 C332 1.317 . S
N335 C331 1.328 . S
N335 C333 1.350 . S
H336 C331 0.930 . S
H337 C332 0.930 . S
C338 O339 1.224 . S
C338 O357 1.247 . S
O339 C338 1.224 . S
N340 Co330 2.128 . S
N340 C341 1.355 . S
N340 C343 1.311 . S
C341 N340 1.355 . S
C341 C342 1.363 . S
C341 H353 0.929 . S
C342 C341 1.363 . S
C342 N344 1.375 . S
C342 H360 0.948 . S
C343 N340 1.311 . S
C343 N344 1.347 . S
C343 H354 0.929 . S
N344 C342 1.375 . S
N344 C343 1.347 . S
C345 C348 1.365 . S
C345 N350 1.328 . S
C345 H351 0.929 . S
C346 C347 1.362 . S
C346 C349 1.378 . S
C346 H361 0.929 . S
C347 C346 1.362 . S
C347 C348 1.366 . S
C348 C345 1.365 . S
C348 C347 1.366 . S
C348 H362 0.930 . S
C349 C346 1.378 . S
C349 N350 1.315 . S
C349 H352 0.930 . S
N350 Co330 2.194 . S
N350 C345 1.328 . S
N350 C349 1.315 . S
H351 C345 0.929 . S
H352 C349 0.930 . S
H353 C341 0.929 . S
H354 C343 0.929 . S
O355 Co330 2.351 . S
O355 C358 1.244 . S
O356 Co330 2.155 . S
O356 C358 1.240 . S
O357 Co330 2.096 . S
O357 C338 1.247 . S
C358 O355 1.244 . S
C358 O356 1.240 . S
H359 C333 0.931 . S
H360 C342 0.948 . S
H361 C346 0.929 . S
H362 C348 0.930 . S
Co363 N367 2.148 . S
Co363 N373 2.128 . S
Co363 N383 2.194 . S
Co363 O388 2.351 . S
Co363 O389 2.155 . S
Co363 O390 2.096 . S
C364 N367 1.301 . S
C364 N368 1.328 . S
C364 H369 0.930 . S
C365 C366 1.333 . S
C365 N367 1.317 . S
C365 H370 0.930 . S
C366 C365 1.333 . S
C366 N368 1.350 . S
C366 H392 0.931 . S
N367 Co363 2.148 . S
N367 C364 1.301 . S
N367 C365 1.317 . S
N368 C364 1.328 . S
N368 C366 1.350 . S
H369 C364 0.930 . S
H370 C365 0.930 . S
C371 O372 1.224 . S
C371 O390 1.247 . S
O372 C371 1.224 . S
N373 Co363 2.128 . S
N373 C374 1.355 . S
N373 C376 1.311 . S
C374 N373 1.355 . S
C374 C375 1.363 . S
C374 H386 0.929 . S
C375 C374 1.363 . S
C375 N377 1.375 . S
C375 H393 0.931 . S
C376 N373 1.311 . S
C376 N377 1.347 . S
C376 H387 0.929 . S
N377 C375 1.375 . S
N377 C376 1.347 . S
C378 C381 1.365 . S
C378 N383 1.328 . S
C378 H384 0.929 . S
C379 C380 1.362 . S
C379 C382 1.378 . S
C379 H394 0.929 . S
C380 C379 1.362 . S
C380 C381 1.366 . S
C381 C378 1.365 . S
C381 C380 1.366 . S
C381 H395 0.930 . S
C382 C379 1.378 . S
C382 N383 1.315 . S
C382 H385 0.930 . S
N383 Co363 2.194 . S
N383 C378 1.328 . S
N383 C382 1.315 . S
H384 C378 0.929 . S
H385 C382 0.930 . S
H386 C374 0.929 . S
H387 C376 0.929 . S
O388 Co363 2.351 . S
O388 C391 1.244 . S
O389 Co363 2.155 . S
O389 C391 1.240 . S
O390 Co363 2.096 . S
O390 C371 1.247 . S
C391 O388 1.244 . S
C391 O389 1.240 . S
H392 C366 0.931 . S
H393 C375 0.931 . S
H394 C379 0.929 . S
H395 C381 0.930 . S
Co396 N400 2.148 . S
Co396 N406 2.128 . S
Co396 N416 2.194 . S
Co396 O421 2.351 . S
Co396 O422 2.155 . S
Co396 O423 2.096 . S
C397 N400 1.301 . S
C397 N401 1.328 . S
C397 H402 0.930 . S
C398 C399 1.333 . S
C398 N400 1.317 . S
C398 H403 0.930 . S
C399 C398 1.333 . S
C399 N401 1.350 . S
C399 H425 0.931 . S
N400 Co396 2.148 . S
N400 C397 1.301 . S
N400 C398 1.317 . S
N401 C397 1.328 . S
N401 C399 1.350 . S
H402 C397 0.930 . S
H403 C398 0.930 . S
C404 O405 1.224 . S
C404 O423 1.247 . S
O405 C404 1.224 . S
N406 Co396 2.128 . S
N406 C407 1.355 . S
N406 C409 1.311 . S
C407 N406 1.355 . S
C407 C408 1.363 . S
C407 H419 0.929 . S
C408 C407 1.363 . S
C408 N410 1.375 . S
C408 H426 0.946 . S
C409 N406 1.311 . S
C409 N410 1.347 . S
C409 H420 0.929 . S
N410 C408 1.375 . S
N410 C409 1.347 . S
C411 C414 1.365 . S
C411 N416 1.328 . S
C411 H417 0.929 . S
C412 C413 1.362 . S
C412 C415 1.378 . S
C412 H427 0.929 . S
C413 C412 1.362 . S
C413 C414 1.366 . S
C414 C411 1.365 . S
C414 C413 1.366 . S
C414 H428 0.930 . S
C415 C412 1.378 . S
C415 N416 1.315 . S
C415 H418 0.930 . S
N416 Co396 2.194 . S
N416 C411 1.328 . S
N416 C415 1.315 . S
H417 C411 0.929 . S
H418 C415 0.930 . S
H419 C407 0.929 . S
H420 C409 0.929 . S
O421 Co396 2.351 . S
O421 C424 1.244 . S
O422 Co396 2.155 . S
O422 C424 1.240 . S
O423 Co396 2.096 . S
O423 C404 1.247 . S
C424 O421 1.244 . S
C424 O422 1.240 . S
H425 C399 0.931 . S
H426 C408 0.946 . S
H427 C412 0.929 . S
H428 C414 0.930 . S
Co429 N433 2.148 . S
Co429 N439 2.128 . S
Co429 N449 2.194 . S
Co429 O454 2.351 . S
Co429 O455 2.155 . S
Co429 O456 2.096 . S
C430 N433 1.301 . S
C430 N434 1.328 . S
C430 H435 0.930 . S
C431 C432 1.333 . S
C431 N433 1.317 . S
C431 H436 0.930 . S
C432 C431 1.333 . S
C432 N434 1.350 . S
C432 H458 0.931 . S
N433 Co429 2.148 . S
N433 C430 1.301 . S
N433 C431 1.317 . S
N434 C430 1.328 . S
N434 C432 1.350 . S
H435 C430 0.930 . S
H436 C431 0.930 . S
C437 O438 1.224 . S
C437 O456 1.247 . S
O438 C437 1.224 . S
N439 Co429 2.128 . S
N439 C440 1.355 . S
N439 C442 1.311 . S
C440 N439 1.355 . S
C440 C441 1.363 . S
C440 H452 0.929 . S
C441 C440 1.363 . S
C441 N443 1.375 . S
C441 H459 0.948 . S
C442 N439 1.311 . S
C442 N443 1.347 . S
C442 H453 0.929 . S
N443 C441 1.375 . S
N443 C442 1.347 . S
C444 C447 1.365 . S
C444 N449 1.328 . S
C444 H450 0.929 . S
C445 C446 1.362 . S
C445 C448 1.378 . S
C445 H460 0.929 . S
C446 C445 1.362 . S
C446 C447 1.366 . S
C447 C444 1.365 . S
C447 C446 1.366 . S
C447 H461 0.930 . S
C448 C445 1.378 . S
C448 N449 1.315 . S
C448 H451 0.930 . S
N449 Co429 2.194 . S
N449 C444 1.328 . S
N449 C448 1.315 . S
H450 C444 0.929 . S
H451 C448 0.930 . S
H452 C440 0.929 . S
H453 C442 0.929 . S
O454 Co429 2.351 . S
O454 C457 1.244 . S
O455 Co429 2.155 . S
O455 C457 1.240 . S
O456 Co429 2.096 . S
O456 C437 1.247 . S
C457 O454 1.244 . S
C457 O455 1.240 . S
H458 C432 0.931 . S
H459 C441 0.948 . S
H460 C445 0.929 . S
H461 C447 0.930 . S
Co462 N466 2.148 . S
Co462 N472 2.128 . S
Co462 N482 2.194 . S
Co462 O487 2.351 . S
Co462 O488 2.155 . S
Co462 O489 2.096 . S
C463 N466 1.301 . S
C463 N467 1.328 . S
C463 H468 0.930 . S
C464 C465 1.333 . S
C464 N466 1.317 . S
C464 H469 0.930 . S
C465 C464 1.333 . S
C465 N467 1.350 . S
C465 H491 0.931 . S
N466 Co462 2.148 . S
N466 C463 1.301 . S
N466 C464 1.317 . S
N467 C463 1.328 . S
N467 C465 1.350 . S
H468 C463 0.930 . S
H469 C464 0.930 . S
C470 O471 1.224 . S
C470 O489 1.247 . S
O471 C470 1.224 . S
N472 Co462 2.128 . S
N472 C473 1.355 . S
N472 C475 1.311 . S
C473 N472 1.355 . S
C473 C474 1.363 . S
C473 H485 0.929 . S
C474 C473 1.363 . S
C474 N476 1.375 . S
C474 H492 0.931 . S
C475 N472 1.311 . S
C475 N476 1.347 . S
C475 H486 0.929 . S
N476 C474 1.375 . S
N476 C475 1.347 . S
C477 C480 1.365 . S
C477 N482 1.328 . S
C477 H483 0.929 . S
C478 C479 1.362 . S
C478 C481 1.378 . S
C478 H493 0.929 . S
C479 C478 1.362 . S
C479 C480 1.366 . S
C480 C477 1.365 . S
C480 C479 1.366 . S
C480 H494 0.930 . S
C481 C478 1.378 . S
C481 N482 1.315 . S
C481 H484 0.930 . S
N482 Co462 2.194 . S
N482 C477 1.328 . S
N482 C481 1.315 . S
H483 C477 0.929 . S
H484 C481 0.930 . S
H485 C473 0.929 . S
H486 C475 0.929 . S
O487 Co462 2.351 . S
O487 C490 1.244 . S
O488 Co462 2.155 . S
O488 C490 1.240 . S
O489 Co462 2.096 . S
O489 C470 1.247 . S
C490 O487 1.244 . S
C490 O488 1.240 . S
H491 C465 0.931 . S
H492 C474 0.931 . S
H493 C478 0.929 . S
H494 C480 0.930 . S
Co495 N499 2.148 . S
Co495 N505 2.128 . S
Co495 N515 2.194 . S
Co495 O520 2.351 . S
Co495 O521 2.155 . S
Co495 O522 2.096 . S
C496 N499 1.301 . S
C496 N500 1.328 . S
C496 H501 0.930 . S
C497 C498 1.333 . S
C497 N499 1.317 . S
C497 H502 0.930 . S
C498 C497 1.333 . S
C498 N500 1.350 . S
C498 H524 0.931 . S
N499 Co495 2.148 . S
N499 C496 1.301 . S
N499 C497 1.317 . S
N500 C496 1.328 . S
N500 C498 1.350 . S
H501 C496 0.930 . S
H502 C497 0.930 . S
C503 O504 1.224 . S
C503 O522 1.247 . S
O504 C503 1.224 . S
N505 Co495 2.128 . S
N505 C506 1.355 . S
N505 C508 1.311 . S
C506 N505 1.355 . S
C506 C507 1.363 . S
C506 H518 0.929 . S
C507 C506 1.363 . S
C507 N509 1.375 . S
C507 H525 0.931 . S
C508 N505 1.311 . S
C508 N509 1.347 . S
C508 H519 0.929 . S
N509 C507 1.375 . S
N509 C508 1.347 . S
C510 C513 1.365 . S
C510 N515 1.328 . S
C510 H516 0.929 . S
C511 C512 1.362 . S
C511 C514 1.378 . S
C511 H526 0.929 . S
C512 C511 1.362 . S
C512 C513 1.366 . S
C513 C510 1.365 . S
C513 C512 1.366 . S
C513 H527 0.930 . S
C514 C511 1.378 . S
C514 N515 1.315 . S
C514 H517 0.930 . S
N515 Co495 2.194 . S
N515 C510 1.328 . S
N515 C514 1.315 . S
H516 C510 0.929 . S
H517 C514 0.930 . S
H518 C506 0.929 . S
H519 C508 0.929 . S
O520 Co495 2.351 . S
O520 C523 1.244 . S
O521 Co495 2.155 . S
O521 C523 1.240 . S
O522 Co495 2.096 . S
O522 C503 1.247 . S
C523 O520 1.244 . S
C523 O521 1.240 . S
H524 C498 0.931 . S
H525 C507 0.931 . S
H526 C511 0.929 . S
H527 C513 0.930 . S
Co528 N532 2.148 . S
Co528 N538 2.128 . S
Co528 N548 2.194 . S
Co528 O553 2.351 . S
Co528 O554 2.155 . S
Co528 O555 2.096 . S
C529 N532 1.301 . S
C529 N533 1.328 . S
C529 H534 0.930 . S
C530 C531 1.333 . S
C530 N532 1.317 . S
C530 H535 0.930 . S
C531 C530 1.333 . S
C531 N533 1.350 . S
C531 H557 0.931 . S
N532 Co528 2.148 . S
N532 C529 1.301 . S
N532 C530 1.317 . S
N533 C529 1.328 . S
N533 C531 1.350 . S
H534 C529 0.930 . S
H535 C530 0.930 . S
C536 O537 1.224 . S
C536 O555 1.247 . S
O537 C536 1.224 . S
N538 Co528 2.128 . S
N538 C539 1.355 . S
N538 C541 1.311 . S
C539 N538 1.355 . S
C539 C540 1.363 . S
C539 H551 0.929 . S
C540 C539 1.363 . S
C540 N542 1.375 . S
C540 H558 0.931 . S
C541 N538 1.311 . S
C541 N542 1.347 . S
C541 H552 0.929 . S
N542 C540 1.375 . S
N542 C541 1.347 . S
C543 C546 1.365 . S
C543 N548 1.328 . S
C543 H549 0.929 . S
C544 C545 1.362 . S
C544 C547 1.378 . S
C544 H559 0.929 . S
C545 C544 1.362 . S
C545 C546 1.366 . S
C546 C543 1.365 . S
C546 C545 1.366 . S
C546 H560 0.930 . S
C547 C544 1.378 . S
C547 N548 1.315 . S
C547 H550 0.930 . S
N548 Co528 2.194 . S
N548 C543 1.328 . S
N548 C547 1.315 . S
H549 C543 0.929 . S
H550 C547 0.930 . S
H551 C539 0.929 . S
H552 C541 0.929 . S
O553 Co528 2.351 . S
O553 C556 1.244 . S
O554 Co528 2.155 . S
O554 C556 1.240 . S
O555 Co528 2.096 . S
O555 C536 1.247 . S
C556 O553 1.244 . S
C556 O554 1.240 . S
H557 C531 0.931 . S
H558 C540 0.931 . S
H559 C544 0.929 . S
H560 C546 0.930 . S
Co561 N565 2.148 . S
Co561 N571 2.128 . S
Co561 N581 2.194 . S
Co561 O586 2.351 . S
Co561 O587 2.155 . S
Co561 O588 2.096 . S
C562 N565 1.301 . S
C562 N566 1.328 . S
C562 H567 0.930 . S
C563 C564 1.333 . S
C563 N565 1.317 . S
C563 H568 0.930 . S
C564 C563 1.333 . S
C564 N566 1.350 . S
C564 H590 0.931 . S
N565 Co561 2.148 . S
N565 C562 1.301 . S
N565 C563 1.317 . S
N566 C562 1.328 . S
N566 C564 1.350 . S
H567 C562 0.930 . S
H568 C563 0.930 . S
C569 O570 1.224 . S
C569 O588 1.247 . S
O570 C569 1.224 . S
N571 Co561 2.128 . S
N571 C572 1.355 . S
N571 C574 1.311 . S
C572 N571 1.355 . S
C572 C573 1.363 . S
C572 H584 0.929 . S
C573 C572 1.363 . S
C573 N575 1.375 . S
C573 H591 0.931 . S
C574 N571 1.311 . S
C574 N575 1.347 . S
C574 H585 0.929 . S
N575 C573 1.375 . S
N575 C574 1.347 . S
C576 C579 1.365 . S
C576 N581 1.328 . S
C576 H582 0.929 . S
C577 C578 1.362 . S
C577 C580 1.378 . S
C577 H592 0.929 . S
C578 C577 1.362 . S
C578 C579 1.366 . S
C579 C576 1.365 . S
C579 C578 1.366 . S
C579 H593 0.930 . S
C580 C577 1.378 . S
C580 N581 1.315 . S
C580 H583 0.930 . S
N581 Co561 2.194 . S
N581 C576 1.328 . S
N581 C580 1.315 . S
H582 C576 0.929 . S
H583 C580 0.930 . S
H584 C572 0.929 . S
H585 C574 0.929 . S
O586 Co561 2.351 . S
O586 C589 1.244 . S
O587 Co561 2.155 . S
O587 C589 1.240 . S
O588 Co561 2.096 . S
O588 C569 1.247 . S
C589 O586 1.244 . S
C589 O587 1.240 . S
H590 C564 0.931 . S
H591 C573 0.931 . S
H592 C577 0.929 . S
H593 C579 0.930 . S
C594 C595 1.391 . S
C594 C596 1.394 . S
C594 H610 0.931 . S
C595 C594 1.391 . S
C595 C599 1.376 . S
C596 C594 1.394 . S
C596 C597 1.369 . S
C596 C600 1.531 . S
C597 C596 1.369 . S
C597 C598 1.410 . S
C597 C605 1.503 . S
C598 C597 1.410 . S
C598 C599 1.392 . S
C598 C601 1.511 . S
C599 C595 1.376 . S
C599 C598 1.392 . S
C599 H611 0.929 . S
C600 C596 1.531 . S
C600 H612 0.960 . S
C600 H613 0.962 . S
C600 H614 0.960 . S
C601 C598 1.511 . S
C601 H615 0.961 . S
C601 H616 0.961 . S
C601 H617 0.961 . S
C602 C603 1.370 . S
C602 C604 1.363 . S
C602 H618 0.931 . S
C603 C602 1.370 . S
C603 C607 1.408 . S
C604 C602 1.363 . S
C604 C605 1.370 . S
C604 C608 1.524 . S
C605 C597 1.503 . S
C605 C604 1.370 . S
C605 C606 1.403 . S
C606 C605 1.403 . S
C606 C607 1.404 . S
C606 C609 1.539 . S
C607 C603 1.408 . S
C607 C606 1.404 . S
C607 H619 0.930 . S
C608 C604 1.524 . S
C608 H620 0.956 . S
C608 H621 0.961 . S
C608 H622 0.961 . S
C609 C606 1.539 . S
C609 H623 0.958 . S
C609 H624 0.961 . S
C609 H625 0.960 . S
H610 C594 0.931 . S
H611 C599 0.929 . S
H612 C600 0.960 . S
H613 C600 0.962 . S
H614 C600 0.960 . S
H615 C601 0.961 . S
H616 C601 0.961 . S
H617 C601 0.961 . S
H618 C602 0.931 . S
H619 C607 0.930 . S
H620 C608 0.956 . S
H621 C608 0.961 . S
H622 C608 0.961 . S
H623 C609 0.958 . S
H624 C609 0.961 . S
H625 C609 0.960 . S
C626 C627 1.391 . S
C626 C628 1.408 . S
C626 H642 0.931 . S
C627 C626 1.391 . S
C627 C631 1.376 1_565 S
C628 C626 1.408 . S
C628 C629 1.358 1_565 S
C628 C632 1.527 . S
C629 C628 1.358 1_545 S
C629 C630 1.410 . S
C629 C637 1.503 . S
C630 C629 1.410 . S
C630 C631 1.392 . S
C630 C633 1.511 . S
C631 C627 1.376 1_545 S
C631 C630 1.392 . S
C631 H643 0.929 . S
C632 C628 1.527 . S
C632 H644 0.936 1_565 S
C632 H645 0.962 . S
C632 H646 0.960 . S
C633 C630 1.511 . S
C633 H647 0.961 . S
C633 H648 0.961 . S
C633 H649 0.961 . S
C634 C635 1.370 . S
C634 C636 1.363 . S
C634 H650 0.931 . S
C635 C634 1.370 . S
C635 C639 1.408 . S
C636 C634 1.363 . S
C636 C637 1.370 . S
C636 C640 1.524 . S
C637 C629 1.503 . S
C637 C636 1.370 . S
C637 C638 1.403 . S
C638 C637 1.403 . S
C638 C639 1.404 . S
C638 C641 1.539 . S
C639 C635 1.408 . S
C639 C638 1.404 . S
C639 H651 0.930 . S
C640 C636 1.524 . S
C640 H652 0.956 . S
C640 H653 0.961 . S
C640 H654 0.961 . S
C641 C638 1.539 . S
C641 H655 0.958 . S
C641 H656 0.961 . S
C641 H657 0.960 . S
H642 C626 0.931 . S
H643 C631 0.929 . S
H644 C632 0.936 1_545 S
H645 C632 0.962 . S
H646 C632 0.960 . S
H647 C633 0.961 . S
H648 C633 0.961 . S
H649 C633 0.961 . S
H650 C634 0.931 . S
H651 C639 0.930 . S
H652 C640 0.956 . S
H653 C640 0.961 . S
H654 C640 0.961 . S
H655 C641 0.958 . S
H656 C641 0.961 . S
H657 C641 0.960 . S
C658 C659 1.391 . S
C658 C660 1.394 1_455 S
C658 H674 0.931 . S
C659 C658 1.391 . S
C659 C663 1.376 1_455 S
C660 C658 1.394 1_655 S
C660 C661 1.369 . S
C660 C664 1.531 . S
C661 C660 1.369 . S
C661 C662 1.410 . S
C661 C669 1.503 . S
C662 C661 1.410 . S
C662 C663 1.392 . S
C662 C665 1.511 . S
C663 C659 1.376 1_655 S
C663 C662 1.392 . S
C663 H675 0.929 . S
C664 C660 1.531 . S
C664 H676 0.960 . S
C664 H677 0.962 . S
C664 H678 0.960 1_655 S
C665 C662 1.511 . S
C665 H679 0.961 . S
C665 H680 0.961 . S
C665 H681 0.961 . S
C666 C667 1.370 . S
C666 C668 1.363 . S
C666 H682 0.931 . S
C667 C666 1.370 . S
C667 C671 1.408 . S
C668 C666 1.363 . S
C668 C669 1.370 . S
C668 C672 1.524 . S
C669 C661 1.503 . S
C669 C668 1.370 . S
C669 C670 1.403 . S
C670 C669 1.403 . S
C670 C671 1.404 . S
C670 C673 1.539 . S
C671 C667 1.408 . S
C671 C670 1.404 . S
C671 H683 0.930 . S
C672 C668 1.524 . S
C672 H684 0.956 . S
C672 H685 0.961 . S
C672 H686 0.961 . S
C673 C670 1.539 . S
C673 H687 1.014 . S
C673 H688 0.961 . S
C673 H689 0.960 . S
H674 C658 0.931 . S
H675 C663 0.929 . S
H676 C664 0.960 . S
H677 C664 0.962 . S
H678 C664 0.960 1_455 S
H679 C665 0.961 . S
H680 C665 0.961 . S
H681 C665 0.961 . S
H682 C666 0.931 . S
H683 C671 0.930 . S
H684 C672 0.956 . S
H685 C672 0.961 . S
H686 C672 0.961 . S
H687 C673 1.014 . S
H688 C673 0.961 . S
H689 C673 0.960 . S
C690 C691 1.391 . S
C690 C692 1.394 . S
C690 H706 0.931 . S
C691 C690 1.391 . S
C691 C695 1.376 . S
C692 C690 1.394 . S
C692 C693 1.369 . S
C692 C696 1.531 . S
C693 C692 1.369 . S
C693 C694 1.410 . S
C693 C701 1.503 . S
C694 C693 1.410 . S
C694 C695 1.392 . S
C694 C697 1.511 . S
C695 C691 1.376 . S
C695 C694 1.392 . S
C695 H707 0.929 . S
C696 C692 1.531 . S
C696 H708 0.960 . S
C696 H709 0.962 . S
C696 H710 0.960 . S
C697 C694 1.511 . S
C697 H711 0.961 . S
C697 H712 0.961 . S
C697 H713 0.961 . S
C698 C699 1.370 . S
C698 C700 1.363 . S
C698 H714 0.931 . S
C699 C698 1.370 . S
C699 C703 1.408 . S
C700 C698 1.363 . S
C700 C701 1.370 . S
C700 C704 1.524 . S
C701 C693 1.503 . S
C701 C700 1.370 . S
C701 C702 1.403 . S
C702 C701 1.403 . S
C702 C703 1.404 . S
C702 C705 1.539 . S
C703 C699 1.408 . S
C703 C702 1.404 . S
C703 H715 0.930 . S
C704 C700 1.524 . S
C704 H716 0.956 . S
C704 H717 0.961 . S
C704 H718 0.961 . S
C705 C702 1.539 . S
C705 H719 0.958 . S
C705 H720 0.961 . S
C705 H721 0.960 . S
H706 C690 0.931 . S
H707 C695 0.929 . S
H708 C696 0.960 . S
H709 C696 0.962 . S
H710 C696 0.960 . S
H711 C697 0.961 . S
H712 C697 0.961 . S
H713 C697 0.961 . S
H714 C698 0.931 . S
H715 C703 0.930 . S
H716 C704 0.956 . S
H717 C704 0.961 . S
H718 C704 0.961 . S
H719 C705 0.958 . S
H720 C705 0.961 . S
H721 C705 0.960 . S
C722 C723 1.391 1_565 S
C722 C724 1.394 . S
C722 H738 0.931 . S
C723 C722 1.391 1_545 S
C723 C727 1.376 . S
C724 C722 1.394 . S
C724 C725 1.369 . S
C724 C728 1.531 . S
C725 C724 1.369 . S
C725 C726 1.410 . S
C725 C733 1.503 . S
C726 C725 1.410 . S
C726 C727 1.392 1_565 S
C726 C729 1.511 . S
C727 C723 1.376 . S
C727 C726 1.392 1_545 S
C727 H739 0.929 . S
C728 C724 1.531 . S
C728 H740 0.960 . S
C728 H741 0.962 . S
C728 H742 0.960 . S
C729 C726 1.511 . S
C729 H743 0.965 . S
C729 H744 0.961 . S
C729 H745 0.961 1_565 S
C730 C731 1.370 . S
C730 C732 1.363 . S
C730 H746 0.931 . S
C731 C730 1.370 . S
C731 C735 1.408 . S
C732 C730 1.363 . S
C732 C733 1.370 . S
C732 C736 1.524 . S
C733 C725 1.503 . S
C733 C732 1.370 . S
C733 C734 1.403 . S
C734 C733 1.403 . S
C734 C735 1.404 . S
C734 C737 1.539 . S
C735 C731 1.408 . S
C735 C734 1.404 . S
C735 H747 0.930 . S
C736 C732 1.524 . S
C736 H748 0.956 . S
C736 H749 0.961 . S
C736 H750 0.961 . S
C737 C734 1.539 . S
C737 H751 0.958 . S
C737 H752 0.961 . S
C737 H753 0.960 1_565 S
H738 C722 0.931 . S
H739 C727 0.929 . S
H740 C728 0.960 . S
H741 C728 0.962 . S
H742 C728 0.960 . S
H743 C729 0.965 . S
H744 C729 0.961 . S
H745 C729 0.961 1_545 S
H746 C730 0.931 . S
H747 C735 0.930 . S
H748 C736 0.956 . S
H749 C736 0.961 . S
H750 C736 0.961 . S
H751 C737 0.958 . S
H752 C737 0.961 . S
H753 C737 0.960 1_545 S
C754 C755 1.391 . S
C754 C756 1.403 . S
C754 H770 0.931 . S
C755 C754 1.391 . S
C755 C759 1.376 1_655 S
C756 C754 1.403 . S
C756 C757 1.339 1_655 S
C756 C760 1.552 . S
C757 C756 1.339 1_455 S
C757 C758 1.410 . S
C757 C765 1.503 . S
C758 C757 1.410 . S
C758 C759 1.392 . S
C758 C761 1.511 . S
C759 C755 1.376 1_455 S
C759 C758 1.392 . S
C759 H771 0.929 . S
C760 C756 1.552 . S
C760 H772 0.960 1_655 S
C760 H773 0.962 . S
C760 H774 0.960 . S
C761 C758 1.511 . S
C761 H775 0.961 . S
C761 H776 0.961 . S
C761 H777 0.961 . S
C762 C763 1.370 . S
C762 C764 1.363 . S
C762 H778 0.931 . S
C763 C762 1.370 . S
C763 C767 1.408 . S
C764 C762 1.363 . S
C764 C765 1.370 . S
C764 C768 1.524 . S
C765 C757 1.503 . S
C765 C764 1.370 . S
C765 C766 1.403 . S
C766 C765 1.403 . S
C766 C767 1.404 . S
C766 C769 1.539 . S
C767 C763 1.408 . S
C767 C766 1.404 . S
C767 H779 0.930 . S
C768 C764 1.524 . S
C768 H780 0.956 . S
C768 H781 0.961 . S
C768 H782 0.961 . S
C769 C766 1.539 . S
C769 H783 0.958 . S
C769 H784 0.961 . S
C769 H785 0.960 . S
H770 C754 0.931 . S
H771 C759 0.929 . S
H772 C760 0.960 1_455 S
H773 C760 0.962 . S
H774 C760 0.960 . S
H775 C761 0.961 . S
H776 C761 0.961 . S
H777 C761 0.961 . S
H778 C762 0.931 . S
H779 C767 0.930 . S
H780 C768 0.956 . S
H781 C768 0.961 . S
H782 C768 0.961 . S
H783 C769 0.958 . S
H784 C769 0.961 . S
H785 C769 0.960 . S
C786 C787 1.391 . S
C786 C788 1.394 . S
C786 H802 0.931 . S
C787 C786 1.391 . S
C787 C791 1.376 . S
C788 C786 1.394 . S
C788 C789 1.369 . S
C788 C792 1.531 . S
C789 C788 1.369 . S
C789 C790 1.410 . S
C789 C797 1.503 . S
C790 C789 1.410 . S
C790 C791 1.392 . S
C790 C793 1.511 . S
C791 C787 1.376 . S
C791 C790 1.392 . S
C791 H803 0.929 . S
C792 C788 1.531 . S
C792 H804 0.960 . S
C792 H805 0.962 . S
C792 H806 0.960 . S
C793 C790 1.511 . S
C793 H807 0.961 . S
C793 H808 0.961 . S
C793 H809 0.961 . S
C794 C795 1.370 1_655 S
C794 C796 1.363 . S
C794 H810 0.931 . S
C795 C794 1.370 1_455 S
C795 C799 1.408 . S
C796 C794 1.363 . S
C796 C797 1.370 . S
C796 C800 1.524 . S
C797 C789 1.503 . S
C797 C796 1.370 . S
C797 C798 1.403 . S
C798 C797 1.403 . S
C798 C799 1.404 1_655 S
C798 C801 1.539 . S
C799 C795 1.408 . S
C799 C798 1.404 1_455 S
C799 H811 0.930 . S
C800 C796 1.524 . S
C800 H812 0.956 . S
C800 H813 0.961 . S
C800 H814 0.961 . S
C801 C798 1.539 . S
C801 H815 0.958 . S
C801 H816 0.961 . S
C801 H817 0.960 . S
H802 C786 0.931 . S
H803 C791 0.929 . S
H804 C792 0.960 . S
H805 C792 0.962 . S
H806 C792 0.960 . S
H807 C793 0.961 . S
H808 C793 0.961 . S
H809 C793 0.961 . S
H810 C794 0.931 . S
H811 C799 0.930 . S
H812 C800 0.956 . S
H813 C800 0.961 . S
H814 C800 0.961 . S
H815 C801 0.958 . S
H816 C801 0.961 . S
H817 C801 0.960 . S
C818 C819 1.391 . S
C818 C820 1.394 . S
C818 H834 0.931 . S
C819 C818 1.391 . S
C819 C823 1.376 . S
C820 C818 1.394 . S
C820 C821 1.369 . S
C820 C824 1.531 . S
C821 C820 1.369 . S
C821 C822 1.410 . S
C821 C829 1.503 . S
C822 C821 1.410 . S
C822 C823 1.392 . S
C822 C825 1.511 . S
C823 C819 1.376 . S
C823 C822 1.392 . S
C823 H835 0.929 . S
C824 C820 1.531 . S
C824 H836 0.960 . S
C824 H837 0.962 . S
C824 H838 0.960 . S
C825 C822 1.511 . S
C825 H839 0.961 . S
C825 H840 0.961 . S
C825 H841 0.961 . S
C826 C827 1.370 . S
C826 C828 1.363 . S
C826 H842 0.931 . S
C827 C826 1.370 . S
C827 C831 1.408 . S
C828 C826 1.363 . S
C828 C829 1.370 . S
C828 C832 1.524 . S
C829 C821 1.503 . S
C829 C828 1.370 . S
C829 C830 1.403 . S
C830 C829 1.403 . S
C830 C831 1.404 . S
C830 C833 1.539 . S
C831 C827 1.408 . S
C831 C830 1.404 . S
C831 H843 0.930 . S
C832 C828 1.524 . S
C832 H844 0.956 . S
C832 H845 0.961 . S
C832 H846 0.961 . S
C833 C830 1.539 . S
C833 H847 0.958 . S
C833 H848 0.961 . S
C833 H849 0.960 . S
H834 C818 0.931 . S
H835 C823 0.929 . S
H836 C824 0.960 . S
H837 C824 0.962 . S
H838 C824 0.960 . S
H839 C825 0.961 . S
H840 C825 0.961 . S
H841 C825 0.961 . S
H842 C826 0.931 . S
H843 C831 0.930 . S
H844 C832 0.956 . S
H845 C832 0.961 . S
H846 C832 0.961 . S
H847 C833 0.958 . S
H848 C833 0.961 . S
H849 C833 0.960 . S
C850 C851 1.391 1_545 S
C850 C852 1.394 . S
C850 H866 0.931 . S
C851 C850 1.391 1_565 S
C851 C855 1.376 . S
C852 C850 1.394 . S
C852 C853 1.369 . S
C852 C856 1.531 . S
C853 C852 1.369 . S
C853 C854 1.410 . S
C853 C861 1.503 . S
C854 C853 1.410 . S
C854 C855 1.392 1_545 S
C854 C857 1.511 . S
C855 C851 1.376 . S
C855 C854 1.392 1_565 S
C855 H867 0.929 . S
C856 C852 1.531 . S
C856 H868 0.960 . S
C856 H869 0.962 . S
C856 H870 0.960 . S
C857 C854 1.511 . S
C857 H871 0.961 . S
C857 H872 0.961 . S
C857 H873 0.961 . S
C858 C859 1.370 . S
C858 C860 1.363 . S
C858 H874 0.931 . S
C859 C858 1.370 . S
C859 C863 1.408 . S
C860 C858 1.363 . S
C860 C861 1.370 . S
C860 C864 1.524 . S
C861 C853 1.503 . S
C861 C860 1.370 . S
C861 C862 1.403 . S
C862 C861 1.403 . S
C862 C863 1.404 . S
C862 C865 1.539 . S
C863 C859 1.408 . S
C863 C862 1.404 . S
C863 H875 0.930 . S
C864 C860 1.524 . S
C864 H876 0.956 . S
C864 H877 0.961 . S
C864 H878 0.961 . S
C865 C862 1.539 . S
C865 H879 0.958 . S
C865 H880 0.961 . S
C865 H881 0.960 . S
H866 C850 0.931 . S
H867 C855 0.929 . S
H868 C856 0.960 . S
H869 C856 0.962 . S
H870 C856 0.960 . S
H871 C857 0.961 . S
H872 C857 0.961 . S
H873 C857 0.961 . S
H874 C858 0.931 . S
H875 C863 0.930 . S
H876 C864 0.956 . S
H877 C864 0.961 . S
H878 C864 0.961 . S
H879 C865 0.958 . S
H880 C865 0.961 . S
H881 C865 0.960 . S
C882 C883 1.391 . S
C882 C884 1.394 . S
C882 H898 0.931 . S
C883 C882 1.391 . S
C883 C887 1.376 . S
C884 C882 1.394 . S
C884 C885 1.369 . S
C884 C888 1.531 . S
C885 C884 1.369 . S
C885 C886 1.410 . S
C885 C893 1.503 . S
C886 C885 1.410 . S
C886 C887 1.392 . S
C886 C889 1.511 . S
C887 C883 1.376 . S
C887 C886 1.392 . S
C887 H899 0.929 . S
C888 C884 1.531 . S
C888 H900 0.960 . S
C888 H901 0.962 . S
C888 H902 0.960 . S
C889 C886 1.511 . S
C889 H903 0.961 . S
C889 H904 0.961 . S
C889 H905 0.961 . S
C890 C891 1.370 . S
C890 C892 1.363 . S
C890 H906 0.931 1_554 S
C891 C890 1.370 . S
C891 C895 1.408 . S
C892 C890 1.363 . S
C892 C893 1.370 . S
C892 C896 1.524 . S
C893 C885 1.503 . S
C893 C892 1.370 . S
C893 C894 1.403 . S
C894 C893 1.403 . S
C894 C895 1.404 . S
C894 C897 1.539 . S
C895 C891 1.408 . S
C895 C894 1.404 . S
C895 H907 0.930 . S
C896 C892 1.524 . S
C896 H908 0.956 . S
C896 H909 0.961 . S
C896 H910 0.961 1_554 S
C897 C894 1.539 . S
C897 H911 0.958 . S
C897 H912 0.961 . S
C897 H913 0.960 . S
H898 C882 0.931 . S
H899 C887 0.929 . S
H900 C888 0.960 . S
H901 C888 0.962 . S
H902 C888 0.960 . S
H903 C889 0.961 . S
H904 C889 0.961 . S
H905 C889 0.961 . S
H906 C890 0.931 1_556 S
H907 C895 0.930 . S
H908 C896 0.956 . S
H909 C896 0.961 . S
H910 C896 0.961 1_556 S
H911 C897 0.958 . S
H912 C897 0.961 . S
H913 C897 0.960 . S
C914 C915 1.391 . S
C914 C916 1.394 . S
C914 H930 0.931 . S
C915 C914 1.391 . S
C915 C919 1.376 . S
C916 C914 1.394 . S
C916 C917 1.369 . S
C916 C920 1.531 . S
C917 C916 1.369 . S
C917 C918 1.410 . S
C917 C925 1.503 . S
C918 C917 1.410 . S
C918 C919 1.392 . S
C918 C921 1.511 . S
C919 C915 1.376 . S
C919 C918 1.392 . S
C919 H931 0.929 . S
C920 C916 1.531 . S
C920 H932 0.960 . S
C920 H933 0.962 . S
C920 H934 0.960 . S
C921 C918 1.511 . S
C921 H935 0.961 . S
C921 H936 0.961 . S
C921 H937 0.961 . S
C922 C923 1.370 . S
C922 C924 1.363 . S
C922 H938 0.931 1_554 S
C923 C922 1.370 . S
C923 C927 1.408 . S
C924 C922 1.363 . S
C924 C925 1.370 . S
C924 C928 1.524 . S
C925 C917 1.503 . S
C925 C924 1.370 . S
C925 C926 1.403 . S
C926 C925 1.403 . S
C926 C927 1.404 . S
C926 C929 1.539 . S
C927 C923 1.408 . S
C927 C926 1.404 . S
C927 H939 0.930 . S
C928 C924 1.524 . S
C928 H940 0.956 . S
C928 H941 0.961 . S
C928 H942 0.961 1_554 S
C929 C926 1.539 . S
C929 H943 0.958 . S
C929 H944 0.961 . S
C929 H945 0.960 . S
H930 C914 0.931 . S
H931 C919 0.929 . S
H932 C920 0.960 . S
H933 C920 0.962 . S
H934 C920 0.960 . S
H935 C921 0.961 . S
H936 C921 0.961 . S
H937 C921 0.961 . S
H938 C922 0.931 1_556 S
H939 C927 0.930 . S
H940 C928 0.956 . S
H941 C928 0.961 . S
H942 C928 0.961 1_556 S
H943 C929 0.958 . S
H944 C929 0.961 . S
H945 C929 0.960 . S
C946 C947 1.391 . S
C946 C948 1.394 . S
C946 H962 0.931 . S
C947 C946 1.391 . S
C947 C951 1.376 . S
C948 C946 1.394 . S
C948 C949 1.369 . S
C948 C952 1.531 . S
C949 C948 1.369 . S
C949 C950 1.410 . S
C949 C957 1.503 . S
C950 C949 1.410 . S
C950 C951 1.392 . S
C950 C953 1.511 . S
C951 C947 1.376 . S
C951 C950 1.392 . S
C951 H963 0.929 . S
C952 C948 1.531 . S
C952 H964 0.960 . S
C952 H965 0.962 . S
C952 H966 0.960 . S
C953 C950 1.511 . S
C953 H967 0.961 . S
C953 H968 0.967 . S
C953 H969 0.961 . S
C954 C955 1.370 . S
C954 C956 1.363 . S
C954 H970 0.931 . S
C955 C954 1.370 . S
C955 C959 1.408 . S
C956 C954 1.363 . S
C956 C957 1.370 . S
C956 C960 1.524 . S
C957 C949 1.503 . S
C957 C956 1.370 . S
C957 C958 1.403 . S
C958 C957 1.403 . S
C958 C959 1.404 . S
C958 C961 1.539 . S
C959 C955 1.408 . S
C959 C958 1.404 . S
C959 H971 0.930 . S
C960 C956 1.524 . S
C960 H972 0.956 . S
C960 H973 0.961 . S
C960 H974 0.961 . S
C961 C958 1.539 . S
C961 H975 0.958 . S
C961 H976 0.961 . S
C961 H977 0.960 . S
H962 C946 0.931 . S
H963 C951 0.929 . S
H964 C952 0.960 . S
H965 C952 0.962 . S
H966 C952 0.960 . S
H967 C953 0.961 . S
H968 C953 0.967 . S
H969 C953 0.961 . S
H970 C954 0.931 . S
H971 C959 0.930 . S
H972 C960 0.956 . S
H973 C960 0.961 . S
H974 C960 0.961 . S
H975 C961 0.958 . S
H976 C961 0.961 . S
H977 C961 0.960 . S
C978 C979 1.391 . S
C978 C980 1.394 . S
C978 H994 0.931 . S
C979 C978 1.391 . S
C979 C983 1.376 . S
C980 C978 1.394 . S
C980 C981 1.369 . S
C980 C984 1.531 . S
C981 C980 1.369 . S
C981 C982 1.410 . S
C981 C989 1.503 . S
C982 C981 1.410 . S
C982 C983 1.392 . S
C982 C985 1.511 . S
C983 C979 1.376 . S
C983 C982 1.392 . S
C983 H995 0.929 . S
C984 C980 1.531 . S
C984 H996 0.960 . S
C984 H997 0.962 . S
C984 H998 0.960 . S
C985 C982 1.511 . S
C985 H999 0.961 . S
C985 H1000 0.961 . S
C985 H1001 0.961 . S
C986 C987 1.370 . S
C986 C988 1.363 . S
C986 H1002 0.931 1_556 S
C987 C986 1.370 . S
C987 C991 1.408 . S
C988 C986 1.363 . S
C988 C989 1.370 . S
C988 C992 1.524 . S
C989 C981 1.503 . S
C989 C988 1.370 . S
C989 C990 1.403 . S
C990 C989 1.403 . S
C990 C991 1.404 . S
C990 C993 1.539 . S
C991 C987 1.408 . S
C991 C990 1.404 . S
C991 H1003 0.930 . S
C992 C988 1.524 . S
C992 H1004 0.956 . S
C992 H1005 0.961 . S
C992 H1006 0.961 1_556 S
C993 C990 1.539 . S
C993 H1007 0.958 . S
C993 H1008 0.961 . S
C993 H1009 0.960 . S
H994 C978 0.931 . S
H995 C983 0.929 . S
H996 C984 0.960 . S
H997 C984 0.962 . S
H998 C984 0.960 . S
H999 C985 0.961 . S
H1000 C985 0.961 . S
H1001 C985 0.961 . S
H1002 C986 0.931 1_554 S
H1003 C991 0.930 . S
H1004 C992 0.956 . S
H1005 C992 0.961 . S
H1006 C992 0.961 1_554 S
H1007 C993 0.958 . S
H1008 C993 0.961 . S
H1009 C993 0.960 . S
C1010 C1011 1.391 . S
C1010 C1012 1.394 . S
C1010 H1026 0.931 . S
C1011 C1010 1.391 . S
C1011 C1015 1.376 . S
C1012 C1010 1.394 . S
C1012 C1013 1.369 . S
C1012 C1016 1.531 . S
C1013 C1012 1.369 . S
C1013 C1014 1.410 . S
C1013 C1021 1.503 . S
C1014 C1013 1.410 . S
C1014 C1015 1.392 . S
C1014 C1017 1.511 . S
C1015 C1011 1.376 . S
C1015 C1014 1.392 . S
C1015 H1027 0.929 . S
C1016 C1012 1.531 . S
C1016 H1028 0.960 . S
C1016 H1029 0.962 . S
C1016 H1030 0.960 . S
C1017 C1014 1.511 . S
C1017 H1031 0.950 1_556 S
C1017 H1032 0.959 1_556 S
C1017 H1033 0.961 . S
C1018 C1019 1.370 . S
C1018 C1020 1.363 . S
C1018 H1034 0.931 . S
C1019 C1018 1.370 . S
C1019 C1023 1.408 . S
C1020 C1018 1.363 . S
C1020 C1021 1.370 . S
C1020 C1024 1.524 . S
C1021 C1013 1.503 . S
C1021 C1020 1.370 . S
C1021 C1022 1.403 . S
C1022 C1021 1.403 . S
C1022 C1023 1.404 . S
C1022 C1025 1.539 . S
C1023 C1019 1.408 . S
C1023 C1022 1.404 . S
C1023 H1035 0.930 . S
C1024 C1020 1.524 . S
C1024 H1036 0.956 . S
C1024 H1037 0.961 . S
C1024 H1038 0.961 . S
C1025 C1022 1.539 . S
C1025 H1039 0.958 . S
C1025 H1040 0.961 . S
C1025 H1041 0.960 . S
H1026 C1010 0.931 . S
H1027 C1015 0.929 . S
H1028 C1016 0.960 . S
H1029 C1016 0.962 . S
H1030 C1016 0.960 . S
H1031 C1017 0.950 1_554 S
H1032 C1017 0.959 1_554 S
H1033 C1017 0.961 . S
H1034 C1018 0.931 . S
H1035 C1023 0.930 . S
H1036 C1024 0.956 . S
H1037 C1024 0.961 . S
H1038 C1024 0.961 . S
H1039 C1025 0.958 . S
H1040 C1025 0.961 . S
H1041 C1025 0.960 . S
C1042 C1043 1.391 . S
C1042 C1044 1.394 . S
C1042 H1058 0.931 . S
C1043 C1042 1.391 . S
C1043 C1047 1.376 . S
C1044 C1042 1.394 . S
C1044 C1045 1.369 . S
C1044 C1048 1.531 . S
C1045 C1044 1.369 . S
C1045 C1046 1.410 . S
C1045 C1053 1.503 . S
C1046 C1045 1.410 . S
C1046 C1047 1.392 . S
C1046 C1049 1.511 . S
C1047 C1043 1.376 . S
C1047 C1046 1.392 . S
C1047 H1059 0.929 1_556 S
C1048 C1044 1.531 . S
C1048 H1060 0.960 . S
C1048 H1061 0.962 . S
C1048 H1062 0.960 . S
C1049 C1046 1.511 . S
C1049 H1063 0.961 1_556 S
C1049 H1064 0.961 . S
C1049 H1065 0.961 . S
C1050 C1051 1.370 . S
C1050 C1052 1.363 . S
C1050 H1066 0.931 . S
C1051 C1050 1.370 . S
C1051 C1055 1.408 . S
C1052 C1050 1.363 . S
C1052 C1053 1.370 . S
C1052 C1056 1.524 . S
C1053 C1045 1.503 . S
C1053 C1052 1.370 . S
C1053 C1054 1.403 . S
C1054 C1053 1.403 . S
C1054 C1055 1.404 . S
C1054 C1057 1.539 . S
C1055 C1051 1.408 . S
C1055 C1054 1.404 . S
C1055 H1067 0.930 . S
C1056 C1052 1.524 . S
C1056 H1068 0.956 . S
C1056 H1069 0.961 . S
C1056 H1070 0.961 . S
C1057 C1054 1.539 . S
C1057 H1071 0.958 . S
C1057 H1072 0.961 . S
C1057 H1073 0.960 . S
H1058 C1042 0.931 . S
H1059 C1047 0.929 1_554 S
H1060 C1048 0.960 . S
H1061 C1048 0.962 . S
H1062 C1048 0.960 . S
H1063 C1049 0.961 1_554 S
H1064 C1049 0.961 . S
H1065 C1049 0.961 . S
H1066 C1050 0.931 . S
H1067 C1055 0.930 . S
H1068 C1056 0.956 . S
H1069 C1056 0.961 . S
H1070 C1056 0.961 . S
H1071 C1057 0.958 . S
H1072 C1057 0.961 . S
H1073 C1057 0.960 . S
C1074 C1075 1.391 1_455 S
C1074 C1076 1.394 . S
C1074 H1090 0.931 . S
C1075 C1074 1.391 1_655 S
C1075 C1079 1.376 1_655 S
C1076 C1074 1.394 . S
C1076 C1077 1.369 . S
C1076 C1080 1.531 . S
C1077 C1076 1.369 . S
C1077 C1078 1.410 . S
C1077 C1085 1.503 . S
C1078 C1077 1.410 . S
C1078 C1079 1.392 . S
C1078 C1081 1.511 . S
C1079 C1075 1.376 1_455 S
C1079 C1078 1.392 . S
C1079 H1091 0.929 1_455 S
C1080 C1076 1.531 . S
C1080 H1092 0.960 . S
C1080 H1093 0.962 . S
C1080 H1094 0.960 . S
C1081 C1078 1.511 . S
C1081 H1095 0.961 . S
C1081 H1096 0.961 . S
C1081 H1097 0.961 . S
C1082 C1083 1.370 . S
C1082 C1084 1.363 . S
C1082 H1098 0.931 . S
C1083 C1082 1.370 . S
C1083 C1087 1.408 . S
C1084 C1082 1.363 . S
C1084 C1085 1.370 . S
C1084 C1088 1.524 . S
C1085 C1077 1.503 . S
C1085 C1084 1.370 . S
C1085 C1086 1.403 . S
C1086 C1085 1.403 . S
C1086 C1087 1.404 . S
C1086 C1089 1.539 . S
C1087 C1083 1.408 . S
C1087 C1086 1.404 . S
C1087 H1099 0.930 . S
C1088 C1084 1.524 . S
C1088 H1100 0.956 . S
C1088 H1101 0.961 . S
C1088 H1102 0.961 . S
C1089 C1086 1.539 . S
C1089 H1103 0.958 . S
C1089 H1104 0.961 . S
C1089 H1105 0.960 . S
H1090 C1074 0.931 . S
H1091 C1079 0.929 1_655 S
H1092 C1080 0.960 . S
H1093 C1080 0.962 . S
H1094 C1080 0.960 . S
H1095 C1081 0.961 . S
H1096 C1081 0.961 . S
H1097 C1081 0.961 . S
H1098 C1082 0.931 . S
H1099 C1087 0.930 . S
H1100 C1088 0.956 . S
H1101 C1088 0.961 . S
H1102 C1088 0.961 . S
H1103 C1089 0.958 . S
H1104 C1089 0.961 . S
H1105 C1089 0.960 . S
C1106 C1107 1.391 . S
C1106 C1108 1.394 . S
C1106 H1122 0.931 . S
C1107 C1106 1.391 . S
C1107 C1111 1.376 . S
C1108 C1106 1.394 . S
C1108 C1109 1.369 . S
C1108 C1112 1.531 . S
C1109 C1108 1.369 . S
C1109 C1110 1.410 . S
C1109 C1117 1.503 . S
C1110 C1109 1.410 . S
C1110 C1111 1.392 . S
C1110 C1113 1.511 . S
C1111 C1107 1.376 . S
C1111 C1110 1.392 . S
C1111 H1123 0.929 . S
C1112 C1108 1.531 . S
C1112 H1124 0.960 . S
C1112 H1125 0.962 . S
C1112 H1126 0.960 . S
C1113 C1110 1.511 . S
C1113 H1127 0.961 . S
C1113 H1128 0.961 . S
C1113 H1129 0.961 . S
C1114 C1115 1.370 . S
C1114 C1116 1.363 . S
C1114 H1130 0.931 . S
C1115 C1114 1.370 . S
C1115 C1119 1.408 . S
C1116 C1114 1.363 . S
C1116 C1117 1.370 . S
C1116 C1120 1.524 . S
C1117 C1109 1.503 . S
C1117 C1116 1.370 . S
C1117 C1118 1.403 . S
C1118 C1117 1.403 . S
C1118 C1119 1.404 . S
C1118 C1121 1.539 . S
C1119 C1115 1.408 . S
C1119 C1118 1.404 . S
C1119 H1131 0.930 . S
C1120 C1116 1.524 . S
C1120 H1132 0.956 . S
C1120 H1133 0.961 . S
C1120 H1134 0.961 . S
C1121 C1118 1.539 . S
C1121 H1135 0.958 . S
C1121 H1136 0.961 . S
C1121 H1137 0.960 . S
H1122 C1106 0.931 . S
H1123 C1111 0.929 . S
H1124 C1112 0.960 . S
H1125 C1112 0.962 . S
H1126 C1112 0.960 . S
H1127 C1113 0.961 . S
H1128 C1113 0.961 . S
H1129 C1113 0.961 . S
H1130 C1114 0.931 . S
H1131 C1119 0.930 . S
H1132 C1120 0.956 . S
H1133 C1120 0.961 . S
H1134 C1120 0.961 . S
H1135 C1121 0.958 . S
H1136 C1121 0.961 . S
H1137 C1121 0.960 . S
C1138 C1139 1.391 . S
C1138 C1140 1.394 . S
C1138 H1154 0.931 . S
C1139 C1138 1.391 . S
C1139 C1143 1.376 . S
C1140 C1138 1.394 . S
C1140 C1141 1.369 . S
C1140 C1144 1.531 . S
C1141 C1140 1.369 . S
C1141 C1142 1.410 . S
C1141 C1149 1.503 . S
C1142 C1141 1.410 . S
C1142 C1143 1.392 . S
C1142 C1145 1.511 . S
C1143 C1139 1.376 . S
C1143 C1142 1.392 . S
C1143 H1155 0.929 . S
C1144 C1140 1.531 . S
C1144 H1156 0.960 . S
C1144 H1157 0.962 . S
C1144 H1158 0.960 . S
C1145 C1142 1.511 . S
C1145 H1159 0.961 . S
C1145 H1160 0.961 . S
C1145 H1161 0.961 . S
C1146 C1147 1.370 . S
C1146 C1148 1.363 1_545 S
C1146 H1162 0.931 . S
C1147 C1146 1.370 . S
C1147 C1151 1.408 1_545 S
C1148 C1146 1.363 1_565 S
C1148 C1149 1.370 . S
C1148 C1152 1.524 . S
C1149 C1141 1.503 . S
C1149 C1148 1.370 . S
C1149 C1150 1.403 . S
C1150 C1149 1.403 . S
C1150 C1151 1.404 . S
C1150 C1153 1.539 . S
C1151 C1147 1.408 1_565 S
C1151 C1150 1.404 . S
C1151 H1163 0.930 . S
C1152 C1148 1.524 . S
C1152 H1164 0.956 . S
C1152 H1165 0.961 . S
C1152 H1166 0.961 . S
C1153 C1150 1.539 . S
C1153 H1167 0.958 . S
C1153 H1168 0.961 . S
C1153 H1169 0.960 . S
H1154 C1138 0.931 . S
H1155 C1143 0.929 . S
H1156 C1144 0.960 . S
H1157 C1144 0.962 . S
H1158 C1144 0.960 . S
H1159 C1145 0.961 . S
H1160 C1145 0.961 . S
H1161 C1145 0.961 . S
H1162 C1146 0.931 . S
H1163 C1151 0.930 . S
H1164 C1152 0.956 . S
H1165 C1152 0.961 . S
H1166 C1152 0.961 . S
H1167 C1153 0.958 . S
H1168 C1153 0.961 . S
H1169 C1153 0.960 . S
C1170 C1171 1.391 . S
C1170 C1172 1.394 . S
C1170 H1186 0.931 . S
C1171 C1170 1.391 . S
C1171 C1175 1.376 . S
C1172 C1170 1.394 . S
C1172 C1173 1.369 . S
C1172 C1176 1.531 . S
C1173 C1172 1.369 . S
C1173 C1174 1.410 . S
C1173 C1181 1.503 . S
C1174 C1173 1.410 . S
C1174 C1175 1.392 . S
C1174 C1177 1.511 . S
C1175 C1171 1.376 . S
C1175 C1174 1.392 . S
C1175 H1187 0.929 . S
C1176 C1172 1.531 . S
C1176 H1188 0.960 . S
C1176 H1189 0.962 . S
C1176 H1190 0.960 . S
C1177 C1174 1.511 . S
C1177 H1191 0.961 . S
C1177 H1192 0.961 . S
C1177 H1193 0.961 . S
C1178 C1179 1.370 . S
C1178 C1180 1.363 . S
C1178 H1194 0.931 . S
C1179 C1178 1.370 . S
C1179 C1183 1.408 . S
C1180 C1178 1.363 . S
C1180 C1181 1.370 . S
C1180 C1184 1.524 . S
C1181 C1173 1.503 . S
C1181 C1180 1.370 . S
C1181 C1182 1.403 . S
C1182 C1181 1.403 . S
C1182 C1183 1.404 . S
C1182 C1185 1.539 . S
C1183 C1179 1.408 . S
C1183 C1182 1.404 . S
C1183 H1195 0.930 . S
C1184 C1180 1.524 . S
C1184 H1196 0.956 . S
C1184 H1197 0.961 . S
C1184 H1198 0.961 . S
C1185 C1182 1.539 . S
C1185 H1199 0.958 . S
C1185 H1200 0.961 . S
C1185 H1201 0.960 . S
H1186 C1170 0.931 . S
H1187 C1175 0.929 . S
H1188 C1176 0.960 . S
H1189 C1176 0.962 . S
H1190 C1176 0.960 . S
H1191 C1177 0.961 . S
H1192 C1177 0.961 . S
H1193 C1177 0.961 . S
H1194 C1178 0.931 . S
H1195 C1183 0.930 . S
H1196 C1184 0.956 . S
H1197 C1184 0.961 . S
H1198 C1184 0.961 . S
H1199 C1185 0.958 . S
H1200 C1185 0.961 . S
H1201 C1185 0.960 . S
C1202 C1203 1.391 . S
C1202 C1204 1.394 . S
C1202 H1218 0.931 . S
C1203 C1202 1.391 . S
C1203 C1207 1.376 . S
C1204 C1202 1.394 . S
C1204 C1205 1.369 . S
C1204 C1208 1.531 . S
C1205 C1204 1.369 . S
C1205 C1206 1.410 . S
C1205 C1213 1.503 . S
C1206 C1205 1.410 . S
C1206 C1207 1.392 . S
C1206 C1209 1.511 . S
C1207 C1203 1.376 . S
C1207 C1206 1.392 . S
C1207 H1219 0.929 . S
C1208 C1204 1.531 . S
C1208 H1220 0.960 . S
C1208 H1221 0.962 . S
C1208 H1222 0.960 . S
C1209 C1206 1.511 . S
C1209 H1223 0.961 . S
C1209 H1224 0.961 . S
C1209 H1225 0.961 . S
C1210 C1211 1.370 . S
C1210 C1212 1.363 . S
C1210 H1226 0.931 . S
C1211 C1210 1.370 . S
C1211 C1215 1.408 . S
C1212 C1210 1.363 . S
C1212 C1213 1.370 . S
C1212 C1216 1.524 . S
C1213 C1205 1.503 . S
C1213 C1212 1.370 . S
C1213 C1214 1.403 . S
C1214 C1213 1.403 . S
C1214 C1215 1.404 . S
C1214 C1217 1.539 . S
C1215 C1211 1.408 . S
C1215 C1214 1.404 . S
C1215 H1227 0.930 . S
C1216 C1212 1.524 . S
C1216 H1228 0.956 . S
C1216 H1229 0.961 . S
C1216 H1230 0.961 . S
C1217 C1214 1.539 . S
C1217 H1231 0.958 . S
C1217 H1232 0.961 . S
C1217 H1233 0.960 . S
H1218 C1202 0.931 . S
H1219 C1207 0.929 . S
H1220 C1208 0.960 . S
H1221 C1208 0.962 . S
H1222 C1208 0.960 . S
H1223 C1209 0.961 . S
H1224 C1209 0.961 . S
H1225 C1209 0.961 . S
H1226 C1210 0.931 . S
H1227 C1215 0.930 . S
H1228 C1216 0.956 . S
H1229 C1216 0.961 . S
H1230 C1216 0.961 . S
H1231 C1217 0.958 . S
H1232 C1217 0.961 . S
H1233 C1217 0.960 . S
C1234 C1235 1.391 . S
C1234 C1236 1.394 . S
C1234 H1250 0.931 . S
C1235 C1234 1.391 . S
C1235 C1239 1.376 . S
C1236 C1234 1.394 . S
C1236 C1237 1.369 . S
C1236 C1240 1.531 . S
C1237 C1236 1.369 . S
C1237 C1238 1.410 . S
C1237 C1245 1.503 . S
C1238 C1237 1.410 . S
C1238 C1239 1.392 . S
C1238 C1241 1.511 . S
C1239 C1235 1.376 . S
C1239 C1238 1.392 . S
C1239 H1251 0.929 . S
C1240 C1236 1.531 . S
C1240 H1252 0.960 . S
C1240 H1253 0.962 . S
C1240 H1254 0.960 . S
C1241 C1238 1.511 . S
C1241 H1255 0.961 . S
C1241 H1256 0.961 . S
C1241 H1257 0.961 . S
C1242 C1243 1.370 . S
C1242 C1244 1.363 . S
C1242 H1258 0.931 . S
C1243 C1242 1.370 . S
C1243 C1247 1.408 . S
C1244 C1242 1.363 . S
C1244 C1245 1.370 . S
C1244 C1248 1.524 . S
C1245 C1237 1.503 . S
C1245 C1244 1.370 . S
C1245 C1246 1.403 . S
C1246 C1245 1.403 . S
C1246 C1247 1.404 . S
C1246 C1249 1.539 . S
C1247 C1243 1.408 . S
C1247 C1246 1.404 . S
C1247 H1259 0.930 . S
C1248 C1244 1.524 . S
C1248 H1260 0.956 . S
C1248 H1261 0.961 . S
C1248 H1262 0.961 . S
C1249 C1246 1.539 . S
C1249 H1263 0.958 . S
C1249 H1264 0.961 . S
C1249 H1265 0.960 . S
H1250 C1234 0.931 . S
H1251 C1239 0.929 . S
H1252 C1240 0.960 . S
H1253 C1240 0.962 . S
H1254 C1240 0.960 . S
H1255 C1241 0.961 . S
H1256 C1241 0.961 . S
H1257 C1241 0.961 . S
H1258 C1242 0.931 . S
H1259 C1247 0.930 . S
H1260 C1248 0.956 . S
H1261 C1248 0.961 . S
H1262 C1248 0.961 . S
H1263 C1249 0.958 . S
H1264 C1249 0.961 . S
H1265 C1249 0.960 . S
C1266 C1267 1.391 . S
C1266 C1268 1.394 . S
C1266 H1282 0.931 . S
C1267 C1266 1.391 . S
C1267 C1271 1.376 . S
C1268 C1266 1.394 . S
C1268 C1269 1.369 . S
C1268 C1272 1.531 . S
C1269 C1268 1.369 . S
C1269 C1270 1.410 . S
C1269 C1277 1.503 . S
C1270 C1269 1.410 . S
C1270 C1271 1.392 . S
C1270 C1273 1.511 . S
C1271 C1267 1.376 . S
C1271 C1270 1.392 . S
C1271 H1283 0.929 . S
C1272 C1268 1.531 . S
C1272 H1284 0.960 . S
C1272 H1285 0.962 . S
C1272 H1286 0.960 . S
C1273 C1270 1.511 . S
C1273 H1287 0.961 . S
C1273 H1288 0.961 . S
C1273 H1289 0.961 . S
C1274 C1275 1.370 . S
C1274 C1276 1.363 . S
C1274 H1290 0.931 . S
C1275 C1274 1.370 . S
C1275 C1279 1.408 . S
C1276 C1274 1.363 . S
C1276 C1277 1.370 . S
C1276 C1280 1.524 . S
C1277 C1269 1.503 . S
C1277 C1276 1.370 . S
C1277 C1278 1.403 . S
C1278 C1277 1.403 . S
C1278 C1279 1.404 . S
C1278 C1281 1.539 . S
C1279 C1275 1.408 . S
C1279 C1278 1.404 . S
C1279 H1291 0.930 . S
C1280 C1276 1.524 . S
C1280 H1292 0.956 . S
C1280 H1293 0.961 . S
C1280 H1294 0.961 . S
C1281 C1278 1.539 . S
C1281 H1295 0.958 . S
C1281 H1296 0.961 . S
C1281 H1297 0.960 . S
H1282 C1266 0.931 . S
H1283 C1271 0.929 . S
H1284 C1272 0.960 . S
H1285 C1272 0.962 . S
H1286 C1272 0.960 . S
H1287 C1273 0.961 . S
H1288 C1273 0.961 . S
H1289 C1273 0.961 . S
H1290 C1274 0.931 . S
H1291 C1279 0.930 . S
H1292 C1280 0.956 . S
H1293 C1280 0.961 . S
H1294 C1280 0.961 . S
H1295 C1281 0.958 . S
H1296 C1281 0.961 . S
H1297 C1281 0.960 . S
C1298 C1299 1.391 . S
C1298 C1300 1.394 . S
C1298 H1314 0.931 . S
C1299 C1298 1.391 . S
C1299 C1303 1.376 . S
C1300 C1298 1.394 . S
C1300 C1301 1.369 . S
C1300 C1304 1.531 . S
C1301 C1300 1.369 . S
C1301 C1302 1.410 . S
C1301 C1309 1.503 . S
C1302 C1301 1.410 . S
C1302 C1303 1.392 . S
C1302 C1305 1.511 . S
C1303 C1299 1.376 . S
C1303 C1302 1.392 . S
C1303 H1315 0.929 . S
C1304 C1300 1.531 . S
C1304 H1316 0.960 . S
C1304 H1317 0.962 . S
C1304 H1318 0.960 . S
C1305 C1302 1.511 . S
C1305 H1319 0.961 . S
C1305 H1320 0.961 . S
C1305 H1321 0.961 . S
C1306 C1307 1.370 . S
C1306 C1308 1.363 . S
C1306 H1322 0.931 . S
C1307 C1306 1.370 . S
C1307 C1311 1.408 . S
C1308 C1306 1.363 . S
C1308 C1309 1.370 . S
C1308 C1312 1.524 . S
C1309 C1301 1.503 . S
C1309 C1308 1.370 . S
C1309 C1310 1.403 . S
C1310 C1309 1.403 . S
C1310 C1311 1.404 . S
C1310 C1313 1.539 . S
C1311 C1307 1.408 . S
C1311 C1310 1.404 . S
C1311 H1323 0.930 . S
C1312 C1308 1.524 . S
C1312 H1324 0.956 . S
C1312 H1325 0.961 . S
C1312 H1326 0.961 . S
C1313 C1310 1.539 . S
C1313 H1327 0.958 . S
C1313 H1328 0.961 . S
C1313 H1329 0.960 . S
H1314 C1298 0.931 . S
H1315 C1303 0.929 . S
H1316 C1304 0.960 . S
H1317 C1304 0.962 . S
H1318 C1304 0.960 . S
H1319 C1305 0.961 . S
H1320 C1305 0.961 . S
H1321 C1305 0.961 . S
H1322 C1306 0.931 . S
H1323 C1311 0.930 . S
H1324 C1312 0.956 . S
H1325 C1312 0.961 . S
H1326 C1312 0.961 . S
H1327 C1313 0.958 . S
H1328 C1313 0.961 . S
H1329 C1313 0.960 . S
C1330 C1331 1.391 . S
C1330 C1332 1.394 . S
C1330 H1346 0.931 . S
C1331 C1330 1.391 . S
C1331 C1335 1.376 . S
C1332 C1330 1.394 . S
C1332 C1333 1.369 . S
C1332 C1336 1.531 . S
C1333 C1332 1.369 . S
C1333 C1334 1.410 . S
C1333 C1341 1.503 . S
C1334 C1333 1.410 . S
C1334 C1335 1.392 . S
C1334 C1337 1.511 . S
C1335 C1331 1.376 . S
C1335 C1334 1.392 . S
C1335 H1347 0.929 . S
C1336 C1332 1.531 . S
C1336 H1348 0.960 . S
C1336 H1349 0.962 . S
C1336 H1350 0.960 . S
C1337 C1334 1.511 . S
C1337 H1351 0.961 . S
C1337 H1352 0.961 . S
C1337 H1353 0.961 . S
C1338 C1339 1.370 . S
C1338 C1340 1.363 . S
C1338 H1354 0.931 . S
C1339 C1338 1.370 . S
C1339 C1343 1.408 . S
C1340 C1338 1.363 . S
C1340 C1341 1.370 . S
C1340 C1344 1.524 . S
C1341 C1333 1.503 . S
C1341 C1340 1.370 . S
C1341 C1342 1.403 . S
C1342 C1341 1.403 . S
C1342 C1343 1.404 . S
C1342 C1345 1.539 . S
C1343 C1339 1.408 . S
C1343 C1342 1.404 . S
C1343 H1355 0.930 . S
C1344 C1340 1.524 . S
C1344 H1356 0.956 . S
C1344 H1357 0.961 . S
C1344 H1358 0.961 . S
C1345 C1342 1.539 . S
C1345 H1359 0.958 . S
C1345 H1360 0.961 . S
C1345 H1361 0.960 . S
H1346 C1330 0.931 . S
H1347 C1335 0.929 . S
H1348 C1336 0.960 . S
H1349 C1336 0.962 . S
H1350 C1336 0.960 . S
H1351 C1337 0.961 . S
H1352 C1337 0.961 . S
H1353 C1337 0.961 . S
H1354 C1338 0.931 . S
H1355 C1343 0.930 . S
H1356 C1344 0.956 . S
H1357 C1344 0.961 . S
H1358 C1344 0.961 . S
H1359 C1345 0.958 . S
H1360 C1345 0.961 . S
H1361 C1345 0.960 . S
C1362 C1363 1.391 . S
C1362 C1364 1.394 1_545 S
C1362 H1378 0.931 . S
C1363 C1362 1.391 . S
C1363 C1367 1.376 . S
C1364 C1362 1.394 1_565 S
C1364 C1365 1.386 . S
C1364 C1368 1.531 . S
C1365 C1364 1.386 . S
C1365 C1366 1.368 1_565 S
C1365 C1373 1.526 1_554 S
C1366 C1365 1.368 1_545 S
C1366 C1367 1.392 . S
C1366 C1369 1.511 1_554 S
C1367 C1363 1.376 . S
C1367 C1366 1.392 . S
C1367 H1379 0.929 . S
C1368 C1364 1.531 . S
C1368 H1380 0.960 . S
C1368 H1381 0.962 . S
C1368 H1382 0.960 . S
C1369 C1366 1.511 1_556 S
C1369 H1383 0.961 . S
C1369 H1384 0.961 . S
C1369 H1385 0.985 . S
C1370 C1371 1.370 1_545 S
C1370 C1372 1.363 . S
C1370 H1386 0.931 . S
C1371 C1370 1.370 1_565 S
C1371 C1375 1.408 . S
C1372 C1370 1.363 . S
C1372 C1373 1.370 1_545 S
C1372 C1376 1.524 . S
C1373 C1365 1.526 1_556 S
C1373 C1372 1.370 1_565 S
C1373 C1374 1.403 . S
C1374 C1373 1.403 . S
C1374 C1375 1.404 . S
C1374 C1377 1.539 . S
C1375 C1371 1.408 . S
C1375 C1374 1.404 . S
C1375 H1387 0.930 . S
C1376 C1372 1.524 . S
C1376 H1388 0.956 1_556 S
C1376 H1389 0.961 . S
C1376 H1390 0.961 . S
C1377 C1374 1.539 . S
C1377 H1391 0.958 1_556 S
C1377 H1392 0.961 . S
C1377 H1393 0.960 . S
H1378 C1362 0.931 . S
H1379 C1367 0.929 . S
H1380 C1368 0.960 . S
H1381 C1368 0.962 . S
H1382 C1368 0.960 . S
H1383 C1369 0.961 . S
H1384 C1369 0.961 . S
H1385 C1369 0.985 . S
H1386 C1370 0.931 . S
H1387 C1375 0.930 . S
H1388 C1376 0.956 1_554 S
H1389 C1376 0.961 . S
H1390 C1376 0.961 . S
H1391 C1377 0.958 1_554 S
H1392 C1377 0.961 . S
H1393 C1377 0.960 . S
C1394 C1395 1.391 . S
C1394 C1396 1.394 . S
C1394 H1410 0.931 . S
C1395 C1394 1.391 . S
C1395 C1399 1.376 . S
C1396 C1394 1.394 . S
C1396 C1397 1.369 . S
C1396 C1400 1.531 . S
C1397 C1396 1.369 . S
C1397 C1398 1.410 1_455 S
C1397 C1405 1.503 1_456 S
C1398 C1397 1.410 1_655 S
C1398 C1399 1.392 1_655 S
C1398 C1401 1.511 . S
C1399 C1395 1.376 . S
C1399 C1398 1.392 1_455 S
C1399 H1411 0.929 1_455 S
C1400 C1396 1.531 . S
C1400 H1412 0.960 1_556 S
C1400 H1413 0.962 . S
C1400 H1414 0.960 . S
C1401 C1398 1.511 . S
C1401 H1415 0.961 . S
C1401 H1416 0.961 1_556 S
C1401 H1417 0.961 1_556 S
C1402 C1403 1.370 . S
C1402 C1404 1.363 . S
C1402 H1418 0.931 . S
C1403 C1402 1.370 . S
C1403 C1407 1.410 . S
C1404 C1402 1.363 . S
C1404 C1405 1.370 . S
C1404 C1408 1.524 1_554 S
C1405 C1397 1.503 1_654 S
C1405 C1404 1.370 . S
C1405 C1406 1.403 1_655 S
C1406 C1405 1.403 1_455 S
C1406 C1407 1.403 1_455 S
C1406 C1409 1.539 . S
C1407 C1403 1.410 . S
C1407 C1406 1.403 1_655 S
C1407 H1419 0.929 1_655 S
C1408 C1404 1.524 1_556 S
C1408 H1420 0.956 . S
C1408 H1421 0.961 . S
C1408 H1422 0.961 . S
C1409 C1406 1.539 . S
C1409 H1423 0.958 . S
C1409 H1424 0.961 . S
C1409 H1425 0.960 . S
H1410 C1394 0.931 . S
H1411 C1399 0.929 1_655 S
H1412 C1400 0.960 1_554 S
H1413 C1400 0.962 . S
H1414 C1400 0.960 . S
H1415 C1401 0.961 . S
H1416 C1401 0.961 1_554 S
H1417 C1401 0.961 1_554 S
H1418 C1402 0.931 . S
H1419 C1407 0.929 1_455 S
H1420 C1408 0.956 . S
H1421 C1408 0.961 . S
H1422 C1408 0.961 . S
H1423 C1409 0.958 . S
H1424 C1409 0.961 . S
H1425 C1409 0.960 . S
C1426 C1427 1.391 . S
C1426 C1428 1.394 . S
C1426 H1442 0.931 . S
C1427 C1426 1.391 . S
C1427 C1431 1.376 . S
C1428 C1426 1.394 . S
C1428 C1429 1.369 . S
C1428 C1432 1.531 1_556 S
C1429 C1428 1.369 . S
C1429 C1430 1.410 . S
C1429 C1437 1.503 1_556 S
C1430 C1429 1.410 . S
C1430 C1431 1.392 . S
C1430 C1433 1.511 . S
C1431 C1427 1.376 . S
C1431 C1430 1.392 . S
C1431 H1443 0.929 . S
C1432 C1428 1.531 1_554 S
C1432 H1444 0.960 . S
C1432 H1445 0.962 . S
C1432 H1446 0.960 . S
C1433 C1430 1.511 . S
C1433 H1447 0.961 . S
C1433 H1448 0.961 . S
C1433 H1449 0.961 . S
C1434 C1435 1.370 . S
C1434 C1436 1.363 . S
C1434 H1450 0.931 . S
C1435 C1434 1.370 . S
C1435 C1439 1.408 . S
C1436 C1434 1.363 . S
C1436 C1437 1.370 . S
C1436 C1440 1.524 . S
C1437 C1429 1.503 1_554 S
C1437 C1436 1.370 . S
C1437 C1438 1.403 . S
C1438 C1437 1.403 . S
C1438 C1439 1.404 . S
C1438 C1441 1.539 . S
C1439 C1435 1.408 . S
C1439 C1438 1.404 . S
C1439 H1451 0.930 . S
C1440 C1436 1.524 . S
C1440 H1452 0.956 . S
C1440 H1453 0.941 1_554 S
C1440 H1454 0.961 . S
C1441 C1438 1.539 . S
C1441 H1455 0.958 . S
C1441 H1456 0.961 . S
C1441 H1457 0.960 1_554 S
H1442 C1426 0.931 . S
H1443 C1431 0.929 . S
H1444 C1432 0.960 . S
H1445 C1432 0.962 . S
H1446 C1432 0.960 . S
H1447 C1433 0.961 . S
H1448 C1433 0.961 . S
H1449 C1433 0.961 . S
H1450 C1434 0.931 . S
H1451 C1439 0.930 . S
H1452 C1440 0.956 . S
H1453 C1440 0.941 1_556 S
H1454 C1440 0.961 . S
H1455 C1441 0.958 . S
H1456 C1441 0.961 . S
H1457 C1441 0.960 1_556 S
C1458 C1459 1.391 1_556 S
C1458 C1460 1.394 . S
C1458 H1474 0.931 . S
C1459 C1458 1.391 1_554 S
C1459 C1463 1.376 . S
C1460 C1458 1.394 . S
C1460 C1461 1.369 . S
C1460 C1464 1.531 . S
C1461 C1460 1.369 . S
C1461 C1462 1.399 1_556 S
C1461 C1469 1.503 . S
C1462 C1461 1.399 1_554 S
C1462 C1463 1.399 . S
C1462 C1465 1.516 . S
C1463 C1459 1.376 . S
C1463 C1462 1.399 . S
C1463 H1475 0.929 . S
C1464 C1460 1.531 . S
C1464 H1476 0.960 . S
C1464 H1477 0.962 . S
C1464 H1478 0.960 . S
C1465 C1462 1.516 . S
C1465 H1479 0.961 . S
C1465 H1480 0.961 . S
C1465 H1481 0.961 1_554 S
C1466 C1467 1.370 . S
C1466 C1468 1.363 . S
C1466 H1482 0.931 . S
C1467 C1466 1.370 . S
C1467 C1471 1.408 . S
C1468 C1466 1.363 . S
C1468 C1469 1.370 . S
C1468 C1472 1.524 1_556 S
C1469 C1461 1.503 . S
C1469 C1468 1.370 . S
C1469 C1470 1.403 . S
C1470 C1469 1.403 . S
C1470 C1471 1.404 . S
C1470 C1473 1.539 . S
C1471 C1467 1.408 . S
C1471 C1470 1.404 . S
C1471 H1483 0.930 . S
C1472 C1468 1.524 1_554 S
C1472 H1484 0.956 . S
C1472 H1485 0.961 . S
C1472 H1486 0.961 . S
C1473 C1470 1.539 . S
C1473 H1487 0.958 . S
C1473 H1488 0.961 . S
C1473 H1489 0.960 . S
H1474 C1458 0.931 . S
H1475 C1463 0.929 . S
H1476 C1464 0.960 . S
H1477 C1464 0.962 . S
H1478 C1464 0.960 . S
H1479 C1465 0.961 . S
H1480 C1465 0.961 . S
H1481 C1465 0.961 1_556 S
H1482 C1466 0.931 . S
H1483 C1471 0.930 . S
H1484 C1472 0.956 . S
H1485 C1472 0.961 . S
H1486 C1472 0.961 . S
H1487 C1473 0.958 . S
H1488 C1473 0.961 . S
H1489 C1473 0.960 . S
C1490 C1491 1.391 . S
C1490 C1492 1.394 . S
C1490 H1506 0.931 . S
C1491 C1490 1.391 . S
C1491 C1495 1.376 . S
C1492 C1490 1.394 . S
C1492 C1493 1.369 . S
C1492 C1496 1.531 1_556 S
C1493 C1492 1.369 . S
C1493 C1494 1.410 . S
C1493 C1501 1.503 . S
C1494 C1493 1.410 . S
C1494 C1495 1.392 . S
C1494 C1497 1.511 . S
C1495 C1491 1.376 . S
C1495 C1494 1.392 . S
C1495 H1507 0.929 . S
C1496 C1492 1.531 1_554 S
C1496 H1508 0.960 . S
C1496 H1509 0.962 1_554 S
C1496 H1510 0.960 . S
C1497 C1494 1.511 . S
C1497 H1511 0.961 . S
C1497 H1512 0.961 . S
C1497 H1513 0.961 . S
C1498 C1499 1.370 1_556 S
C1498 C1500 1.363 . S
C1498 H1514 0.931 . S
C1499 C1498 1.370 1_554 S
C1499 C1503 1.408 . S
C1500 C1498 1.363 . S
C1500 C1501 1.370 . S
C1500 C1504 1.524 . S
C1501 C1493 1.503 . S
C1501 C1500 1.370 . S
C1501 C1502 1.403 1_556 S
C1502 C1501 1.403 1_554 S
C1502 C1503 1.404 . S
C1502 C1505 1.539 . S
C1503 C1499 1.408 . S
C1503 C1502 1.404 . S
C1503 H1515 0.930 . S
C1504 C1500 1.524 . S
C1504 H1516 0.956 . S
C1504 H1517 0.961 . S
C1504 H1518 0.961 . S
C1505 C1502 1.539 . S
C1505 H1519 0.958 . S
C1505 H1520 0.961 . S
C1505 H1521 0.960 . S
H1506 C1490 0.931 . S
H1507 C1495 0.929 . S
H1508 C1496 0.960 . S
H1509 C1496 0.962 1_556 S
H1510 C1496 0.960 . S
H1511 C1497 0.961 . S
H1512 C1497 0.961 . S
H1513 C1497 0.961 . S
H1514 C1498 0.931 . S
H1515 C1503 0.930 . S
H1516 C1504 0.956 . S
H1517 C1504 0.961 . S
H1518 C1504 0.961 . S
H1519 C1505 0.958 . S
H1520 C1505 0.961 . S
H1521 C1505 0.960 . S
C1522 C1523 1.391 . S
C1522 C1524 1.394 . S
C1522 H1538 0.931 . S
C1523 C1522 1.391 . S
C1523 C1527 1.376 1_554 S
C1524 C1522 1.394 . S
C1524 C1525 1.369 1_554 S
C1524 C1528 1.531 . S
C1525 C1524 1.369 1_556 S
C1525 C1526 1.410 . S
C1525 C1533 1.503 . S
C1526 C1525 1.410 . S
C1526 C1527 1.392 . S
C1526 C1529 1.511 . S
C1527 C1523 1.376 1_556 S
C1527 C1526 1.392 . S
C1527 H1539 0.929 . S
C1528 C1524 1.531 . S
C1528 H1540 0.960 . S
C1528 H1541 0.962 . S
C1528 H1542 0.960 . S
C1529 C1526 1.511 . S
C1529 H1543 0.961 . S
C1529 H1544 0.961 . S
C1529 H1545 0.961 . S
C1530 C1531 1.370 . S
C1530 C1532 1.363 . S
C1530 H1546 0.931 . S
C1531 C1530 1.370 . S
C1531 C1535 1.408 . S
C1532 C1530 1.363 . S
C1532 C1533 1.370 . S
C1532 C1536 1.524 . S
C1533 C1525 1.503 . S
C1533 C1532 1.370 . S
C1533 C1534 1.403 . S
C1534 C1533 1.403 . S
C1534 C1535 1.404 . S
C1534 C1537 1.539 . S
C1535 C1531 1.408 . S
C1535 C1534 1.404 . S
C1535 H1547 0.930 . S
C1536 C1532 1.524 . S
C1536 H1548 0.956 . S
C1536 H1549 0.961 . S
C1536 H1550 0.961 . S
C1537 C1534 1.539 . S
C1537 H1551 0.958 . S
C1537 H1552 0.961 . S
C1537 H1553 0.960 . S
H1538 C1522 0.931 . S
H1539 C1527 0.929 . S
H1540 C1528 0.960 . S
H1541 C1528 0.962 . S
H1542 C1528 0.960 . S
H1543 C1529 0.961 . S
H1544 C1529 0.961 . S
H1545 C1529 0.961 . S
H1546 C1530 0.931 . S
H1547 C1535 0.930 . S
H1548 C1536 0.956 . S
H1549 C1536 0.961 . S
H1550 C1536 0.961 . S
H1551 C1537 0.958 . S
H1552 C1537 0.961 . S
H1553 C1537 0.960 . S
C1554 C1555 1.391 . S
C1554 C1556 1.394 . S
C1554 H1570 0.931 . S
C1555 C1554 1.391 . S
C1555 C1559 1.376 . S
C1556 C1554 1.394 . S
C1556 C1557 1.369 . S
C1556 C1560 1.531 1_554 S
C1557 C1556 1.369 . S
C1557 C1558 1.410 . S
C1557 C1565 1.503 . S
C1558 C1557 1.410 . S
C1558 C1559 1.392 . S
C1558 C1561 1.511 . S
C1559 C1555 1.376 . S
C1559 C1558 1.392 . S
C1559 H1571 0.929 . S
C1560 C1556 1.531 1_556 S
C1560 H1572 0.960 . S
C1560 H1573 0.962 1_556 S
C1560 H1574 0.960 . S
C1561 C1558 1.511 . S
C1561 H1575 0.961 . S
C1561 H1576 0.961 . S
C1561 H1577 0.961 . S
C1562 C1563 1.370 1_554 S
C1562 C1564 1.363 . S
C1562 H1578 0.931 . S
C1563 C1562 1.370 1_556 S
C1563 C1567 1.408 . S
C1564 C1562 1.363 . S
C1564 C1565 1.370 . S
C1564 C1568 1.524 . S
C1565 C1557 1.503 . S
C1565 C1564 1.370 . S
C1565 C1566 1.403 1_554 S
C1566 C1565 1.403 1_556 S
C1566 C1567 1.404 . S
C1566 C1569 1.539 . S
C1567 C1563 1.408 . S
C1567 C1566 1.404 . S
C1567 H1579 0.930 . S
C1568 C1564 1.524 . S
C1568 H1580 0.956 . S
C1568 H1581 0.961 . S
C1568 H1582 0.961 . S
C1569 C1566 1.539 . S
C1569 H1583 0.958 . S
C1569 H1584 0.961 . S
C1569 H1585 0.960 . S
H1570 C1554 0.931 . S
H1571 C1559 0.929 . S
H1572 C1560 0.960 . S
H1573 C1560 0.962 1_554 S
H1574 C1560 0.960 . S
H1575 C1561 0.961 . S
H1576 C1561 0.961 . S
H1577 C1561 0.961 . S
H1578 C1562 0.931 . S
H1579 C1567 0.930 . S
H1580 C1568 0.956 . S
H1581 C1568 0.961 . S
H1582 C1568 0.961 . S
H1583 C1569 0.958 . S
H1584 C1569 0.961 . S
H1585 C1569 0.960 . S
C1586 C1587 1.391 . S
C1586 C1588 1.394 . S
C1586 H1602 0.931 . S
C1587 C1586 1.391 . S
C1587 C1591 1.376 1_556 S
C1588 C1586 1.394 . S
C1588 C1589 1.369 1_556 S
C1588 C1592 1.531 . S
C1589 C1588 1.369 1_554 S
C1589 C1590 1.410 . S
C1589 C1597 1.503 . S
C1590 C1589 1.410 . S
C1590 C1591 1.392 . S
C1590 C1593 1.511 . S
C1591 C1587 1.376 1_554 S
C1591 C1590 1.392 . S
C1591 H1603 0.929 . S
C1592 C1588 1.531 . S
C1592 H1604 0.960 . S
C1592 H1605 0.962 . S
C1592 H1606 0.960 . S
C1593 C1590 1.511 . S
C1593 H1607 0.961 . S
C1593 H1608 0.961 . S
C1593 H1609 0.961 . S
C1594 C1595 1.370 . S
C1594 C1596 1.363 . S
C1594 H1610 0.931 . S
C1595 C1594 1.370 . S
C1595 C1599 1.408 . S
C1596 C1594 1.363 . S
C1596 C1597 1.370 . S
C1596 C1600 1.524 . S
C1597 C1589 1.503 . S
C1597 C1596 1.370 . S
C1597 C1598 1.403 . S
C1598 C1597 1.403 . S
C1598 C1599 1.404 . S
C1598 C1601 1.539 1_554 S
C1599 C1595 1.408 . S
C1599 C1598 1.404 . S
C1599 H1611 0.930 . S
C1600 C1596 1.524 . S
C1600 H1612 0.956 . S
C1600 H1613 0.961 . S
C1600 H1614 0.961 . S
C1601 C1598 1.539 1_556 S
C1601 H1615 0.958 . S
C1601 H1616 0.961 . S
C1601 H1617 0.960 . S
H1602 C1586 0.931 . S
H1603 C1591 0.929 . S
H1604 C1592 0.960 . S
H1605 C1592 0.962 . S
H1606 C1592 0.960 . S
H1607 C1593 0.961 . S
H1608 C1593 0.961 . S
H1609 C1593 0.961 . S
H1610 C1594 0.931 . S
H1611 C1599 0.930 . S
H1612 C1600 0.956 . S
H1613 C1600 0.961 . S
H1614 C1600 0.961 . S
H1615 C1601 0.958 . S
H1616 C1601 0.961 . S
H1617 C1601 0.960 . S
C1618 C1619 1.391 . S
C1618 C1620 1.394 . S
C1618 H1634 0.931 . S
C1619 C1618 1.391 . S
C1619 C1623 1.376 . S
C1620 C1618 1.394 . S
C1620 C1621 1.369 . S
C1620 C1624 1.531 . S
C1621 C1620 1.369 . S
C1621 C1622 1.410 . S
C1621 C1629 1.503 . S
C1622 C1621 1.410 . S
C1622 C1623 1.392 . S
C1622 C1625 1.511 . S
C1623 C1619 1.376 . S
C1623 C1622 1.392 . S
C1623 H1635 0.929 . S
C1624 C1620 1.531 . S
C1624 H1636 0.960 . S
C1624 H1637 0.962 1_554 S
C1624 H1638 0.960 . S
C1625 C1622 1.511 . S
C1625 H1639 0.961 . S
C1625 H1640 0.961 . S
C1625 H1641 0.961 . S
C1626 C1627 1.370 . S
C1626 C1628 1.363 . S
C1626 H1642 0.931 . S
C1627 C1626 1.370 . S
C1627 C1631 1.408 1_556 S
C1628 C1626 1.363 . S
C1628 C1629 1.370 1_556 S
C1628 C1632 1.524 . S
C1629 C1621 1.503 . S
C1629 C1628 1.370 1_554 S
C1629 C1630 1.403 . S
C1630 C1629 1.403 . S
C1630 C1631 1.404 . S
C1630 C1633 1.539 . S
C1631 C1627 1.408 1_554 S
C1631 C1630 1.404 . S
C1631 H1643 0.930 . S
C1632 C1628 1.524 . S
C1632 H1644 0.956 . S
C1632 H1645 0.961 . S
C1632 H1646 0.961 . S
C1633 C1630 1.539 . S
C1633 H1647 0.958 . S
C1633 H1648 0.961 . S
C1633 H1649 0.960 . S
H1634 C1618 0.931 . S
H1635 C1623 0.929 . S
H1636 C1624 0.960 . S
H1637 C1624 0.962 1_556 S
H1638 C1624 0.960 . S
H1639 C1625 0.961 . S
H1640 C1625 0.961 . S
H1641 C1625 0.961 . S
H1642 C1626 0.931 . S
H1643 C1631 0.930 . S
H1644 C1632 0.956 . S
H1645 C1632 0.961 . S
H1646 C1632 0.961 . S
H1647 C1633 0.958 . S
H1648 C1633 0.961 . S
H1649 C1633 0.960 . S
C1650 C1651 1.391 . S
C1650 C1652 1.394 . S
C1650 H1666 0.931 . S
C1651 C1650 1.391 . S
C1651 C1655 1.376 . S
C1652 C1650 1.394 . S
C1652 C1653 1.369 . S
C1652 C1656 1.531 . S
C1653 C1652 1.369 . S
C1653 C1654 1.410 . S
C1653 C1661 1.503 . S
C1654 C1653 1.410 . S
C1654 C1655 1.392 . S
C1654 C1657 1.511 . S
C1655 C1651 1.376 . S
C1655 C1654 1.392 . S
C1655 H1667 0.929 . S
C1656 C1652 1.531 . S
C1656 H1668 0.960 . S
C1656 H1669 0.962 . S
C1656 H1670 0.960 . S
C1657 C1654 1.511 . S
C1657 H1671 0.961 . S
C1657 H1672 0.961 . S
C1657 H1673 0.961 . S
C1658 C1659 1.370 . S
C1658 C1660 1.363 . S
C1658 H1674 0.931 . S
C1659 C1658 1.370 . S
C1659 C1663 1.408 . S
C1660 C1658 1.363 . S
C1660 C1661 1.370 . S
C1660 C1664 1.524 . S
C1661 C1653 1.503 . S
C1661 C1660 1.370 . S
C1661 C1662 1.403 . S
C1662 C1661 1.403 . S
C1662 C1663 1.404 . S
C1662 C1665 1.539 . S
C1663 C1659 1.408 . S
C1663 C1662 1.404 . S
C1663 H1675 0.930 . S
C1664 C1660 1.524 . S
C1664 H1676 0.956 . S
C1664 H1677 0.961 . S
C1664 H1678 0.961 . S
C1665 C1662 1.539 . S
C1665 H1679 0.958 . S
C1665 H1680 0.961 . S
C1665 H1681 0.960 . S
H1666 C1650 0.931 . S
H1667 C1655 0.929 . S
H1668 C1656 0.960 . S
H1669 C1656 0.962 . S
H1670 C1656 0.960 . S
H1671 C1657 0.961 . S
H1672 C1657 0.961 . S
H1673 C1657 0.961 . S
H1674 C1658 0.931 . S
H1675 C1663 0.930 . S
H1676 C1664 0.956 . S
H1677 C1664 0.961 . S
H1678 C1664 0.961 . S
H1679 C1665 0.958 . S
H1680 C1665 0.961 . S
H1681 C1665 0.960 . S
C1682 C1683 1.391 . S
C1682 C1684 1.394 . S
C1682 H1698 0.931 . S
C1683 C1682 1.391 . S
C1683 C1687 1.376 . S
C1684 C1682 1.394 . S
C1684 C1685 1.369 . S
C1684 C1688 1.531 . S
C1685 C1684 1.369 . S
C1685 C1686 1.410 . S
C1685 C1693 1.503 . S
C1686 C1685 1.410 . S
C1686 C1687 1.392 . S
C1686 C1689 1.511 . S
C1687 C1683 1.376 . S
C1687 C1686 1.392 . S
C1687 H1699 0.929 . S
C1688 C1684 1.531 . S
C1688 H1700 0.960 . S
C1688 H1701 0.962 . S
C1688 H1702 0.960 . S
C1689 C1686 1.511 . S
C1689 H1703 0.961 . S
C1689 H1704 0.961 . S
C1689 H1705 0.961 . S
C1690 C1691 1.370 . S
C1690 C1692 1.363 . S
C1690 H1706 0.931 . S
C1691 C1690 1.370 . S
C1691 C1695 1.408 . S
C1692 C1690 1.363 . S
C1692 C1693 1.370 . S
C1692 C1696 1.524 . S
C1693 C1685 1.503 . S
C1693 C1692 1.370 . S
C1693 C1694 1.403 . S
C1694 C1693 1.403 . S
C1694 C1695 1.404 . S
C1694 C1697 1.539 . S
C1695 C1691 1.408 . S
C1695 C1694 1.404 . S
C1695 H1707 0.930 . S
C1696 C1692 1.524 . S
C1696 H1708 0.956 . S
C1696 H1709 0.961 . S
C1696 H1710 0.961 . S
C1697 C1694 1.539 . S
C1697 H1711 0.958 . S
C1697 H1712 0.961 . S
C1697 H1713 0.960 . S
H1698 C1682 0.931 . S
H1699 C1687 0.929 . S
H1700 C1688 0.960 . S
H1701 C1688 0.962 . S
H1702 C1688 0.960 . S
H1703 C1689 0.961 . S
H1704 C1689 0.961 . S
H1705 C1689 0.961 . S
H1706 C1690 0.931 . S
H1707 C1695 0.930 . S
H1708 C1696 0.956 . S
H1709 C1696 0.961 . S
H1710 C1696 0.961 . S
H1711 C1697 0.958 . S
H1712 C1697 0.961 . S
H1713 C1697 0.960 . S
C1714 C1715 1.391 . S
C1714 C1716 1.394 . S
C1714 H1730 0.931 . S
C1715 C1714 1.391 . S
C1715 C1719 1.376 . S
C1716 C1714 1.394 . S
C1716 C1717 1.369 . S
C1716 C1720 1.531 . S
C1717 C1716 1.369 . S
C1717 C1718 1.410 . S
C1717 C1725 1.503 . S
C1718 C1717 1.410 . S
C1718 C1719 1.392 . S
C1718 C1721 1.511 . S
C1719 C1715 1.376 . S
C1719 C1718 1.392 . S
C1719 H1731 0.929 . S
C1720 C1716 1.531 . S
C1720 H1732 0.960 . S
C1720 H1733 0.962 . S
C1720 H1734 0.960 . S
C1721 C1718 1.511 . S
C1721 H1735 0.961 . S
C1721 H1736 0.961 . S
C1721 H1737 0.961 . S
C1722 C1723 1.370 . S
C1722 C1724 1.363 . S
C1722 H1738 0.931 . S
C1723 C1722 1.370 . S
C1723 C1727 1.408 . S
C1724 C1722 1.363 . S
C1724 C1725 1.370 . S
C1724 C1728 1.524 . S
C1725 C1717 1.503 . S
C1725 C1724 1.370 . S
C1725 C1726 1.403 . S
C1726 C1725 1.403 . S
C1726 C1727 1.404 . S
C1726 C1729 1.539 . S
C1727 C1723 1.408 . S
C1727 C1726 1.404 . S
C1727 H1739 0.930 . S
C1728 C1724 1.524 . S
C1728 H1740 0.956 . S
C1728 H1741 0.961 . S
C1728 H1742 0.961 . S
C1729 C1726 1.539 . S
C1729 H1743 0.958 . S
C1729 H1744 0.961 . S
C1729 H1745 0.960 . S
H1730 C1714 0.931 . S
H1731 C1719 0.929 . S
H1732 C1720 0.960 . S
H1733 C1720 0.962 . S
H1734 C1720 0.960 . S
H1735 C1721 0.961 . S
H1736 C1721 0.961 . S
H1737 C1721 0.961 . S
H1738 C1722 0.931 . S
H1739 C1727 0.930 . S
H1740 C1728 0.956 . S
H1741 C1728 0.961 . S
H1742 C1728 0.961 . S
H1743 C1729 0.958 . S
H1744 C1729 0.961 . S
H1745 C1729 0.960 . S
C1746 C1747 1.391 . S
C1746 C1748 1.394 . S
C1746 H1762 0.931 . S
C1747 C1746 1.391 . S
C1747 C1751 1.376 . S
C1748 C1746 1.394 . S
C1748 C1749 1.369 . S
C1748 C1752 1.531 . S
C1749 C1748 1.369 . S
C1749 C1750 1.410 . S
C1749 C1757 1.503 . S
C1750 C1749 1.410 . S
C1750 C1751 1.392 . S
C1750 C1753 1.511 . S
C1751 C1747 1.376 . S
C1751 C1750 1.392 . S
C1751 H1763 0.929 . S
C1752 C1748 1.531 . S
C1752 H1764 0.960 . S
C1752 H1765 0.962 . S
C1752 H1766 0.960 . S
C1753 C1750 1.511 . S
C1753 H1767 0.961 . S
C1753 H1768 0.961 . S
C1753 H1769 0.961 . S
C1754 C1755 1.370 . S
C1754 C1756 1.363 . S
C1754 H1770 0.931 . S
C1755 C1754 1.370 . S
C1755 C1759 1.408 . S
C1756 C1754 1.363 . S
C1756 C1757 1.370 . S
C1756 C1760 1.524 . S
C1757 C1749 1.503 . S
C1757 C1756 1.370 . S
C1757 C1758 1.403 . S
C1758 C1757 1.403 . S
C1758 C1759 1.404 . S
C1758 C1761 1.539 . S
C1759 C1755 1.408 . S
C1759 C1758 1.404 . S
C1759 H1771 0.930 . S
C1760 C1756 1.524 . S
C1760 H1772 0.956 . S
C1760 H1773 0.961 . S
C1760 H1774 0.961 . S
C1761 C1758 1.539 . S
C1761 H1775 0.958 . S
C1761 H1776 0.961 . S
C1761 H1777 0.960 . S
H1762 C1746 0.931 . S
H1763 C1751 0.929 . S
H1764 C1752 0.960 . S
H1765 C1752 0.962 . S
H1766 C1752 0.960 . S
H1767 C1753 0.961 . S
H1768 C1753 0.961 . S
H1769 C1753 0.961 . S
H1770 C1754 0.931 . S
H1771 C1759 0.930 . S
H1772 C1760 0.956 . S
H1773 C1760 0.961 . S
H1774 C1760 0.961 . S
H1775 C1761 0.958 . S
H1776 C1761 0.961 . S
H1777 C1761 0.960 . S
C1778 C1779 1.391 . S
C1778 C1780 1.394 . S
C1778 H1794 0.931 . S
C1779 C1778 1.391 . S
C1779 C1783 1.376 . S
C1780 C1778 1.394 . S
C1780 C1781 1.369 . S
C1780 C1784 1.531 . S
C1781 C1780 1.369 . S
C1781 C1782 1.410 . S
C1781 C1789 1.503 . S
C1782 C1781 1.410 . S
C1782 C1783 1.392 . S
C1782 C1785 1.511 . S
C1783 C1779 1.376 . S
C1783 C1782 1.392 . S
C1783 H1795 0.929 . S
C1784 C1780 1.531 . S
C1784 H1796 0.960 . S
C1784 H1797 0.962 . S
C1784 H1798 0.960 . S
C1785 C1782 1.511 . S
C1785 H1799 0.961 . S
C1785 H1800 0.961 . S
C1785 H1801 0.961 . S
C1786 C1787 1.370 . S
C1786 C1788 1.363 . S
C1786 H1802 0.931 . S
C1787 C1786 1.370 . S
C1787 C1791 1.408 . S
C1788 C1786 1.363 . S
C1788 C1789 1.370 . S
C1788 C1792 1.524 . S
C1789 C1781 1.503 . S
C1789 C1788 1.370 . S
C1789 C1790 1.403 . S
C1790 C1789 1.403 . S
C1790 C1791 1.404 . S
C1790 C1793 1.539 . S
C1791 C1787 1.408 . S
C1791 C1790 1.404 . S
C1791 H1803 0.930 . S
C1792 C1788 1.524 . S
C1792 H1804 0.956 . S
C1792 H1805 0.961 . S
C1792 H1806 0.961 . S
C1793 C1790 1.539 . S
C1793 H1807 0.958 . S
C1793 H1808 0.961 . S
C1793 H1809 0.960 . S
H1794 C1778 0.931 . S
H1795 C1783 0.929 . S
H1796 C1784 0.960 . S
H1797 C1784 0.962 . S
H1798 C1784 0.960 . S
H1799 C1785 0.961 . S
H1800 C1785 0.961 . S
H1801 C1785 0.961 . S
H1802 C1786 0.931 . S
H1803 C1791 0.930 . S
H1804 C1792 0.956 . S
H1805 C1792 0.961 . S
H1806 C1792 0.961 . S
H1807 C1793 0.958 . S
H1808 C1793 0.961 . S
H1809 C1793 0.960 . S
C1810 C1811 1.391 . S
C1810 C1812 1.394 . S
C1810 H1826 0.931 . S
C1811 C1810 1.391 . S
C1811 C1815 1.376 . S
C1812 C1810 1.394 . S
C1812 C1813 1.369 . S
C1812 C1816 1.531 . S
C1813 C1812 1.369 . S
C1813 C1814 1.410 . S
C1813 C1821 1.503 . S
C1814 C1813 1.410 . S
C1814 C1815 1.392 . S
C1814 C1817 1.511 . S
C1815 C1811 1.376 . S
C1815 C1814 1.392 . S
C1815 H1827 0.929 . S
C1816 C1812 1.531 . S
C1816 H1828 0.960 . S
C1816 H1829 0.962 . S
C1816 H1830 0.960 . S
C1817 C1814 1.511 . S
C1817 H1831 0.961 . S
C1817 H1832 0.961 . S
C1817 H1833 0.961 . S
C1818 C1819 1.370 . S
C1818 C1820 1.363 . S
C1818 H1834 0.931 . S
C1819 C1818 1.370 . S
C1819 C1823 1.408 . S
C1820 C1818 1.363 . S
C1820 C1821 1.370 . S
C1820 C1824 1.524 . S
C1821 C1813 1.503 . S
C1821 C1820 1.370 . S
C1821 C1822 1.403 . S
C1822 C1821 1.403 . S
C1822 C1823 1.404 . S
C1822 C1825 1.539 . S
C1823 C1819 1.408 . S
C1823 C1822 1.404 . S
C1823 H1835 0.930 . S
C1824 C1820 1.524 . S
C1824 H1836 0.956 . S
C1824 H1837 0.961 . S
C1824 H1838 0.961 . S
C1825 C1822 1.539 . S
C1825 H1839 0.958 . S
C1825 H1840 0.961 . S
C1825 H1841 0.960 . S
H1826 C1810 0.931 . S
H1827 C1815 0.929 . S
H1828 C1816 0.960 . S
H1829 C1816 0.962 . S
H1830 C1816 0.960 . S
H1831 C1817 0.961 . S
H1832 C1817 0.961 . S
H1833 C1817 0.961 . S
H1834 C1818 0.931 . S
H1835 C1823 0.930 . S
H1836 C1824 0.956 . S
H1837 C1824 0.961 . S
H1838 C1824 0.961 . S
H1839 C1825 0.958 . S
H1840 C1825 0.961 . S
H1841 C1825 0.960 . S
C1842 C1843 1.391 . S
C1842 C1844 1.394 . S
C1842 H1858 0.931 . S
C1843 C1842 1.391 . S
C1843 C1847 1.376 . S
C1844 C1842 1.394 . S
C1844 C1845 1.369 . S
C1844 C1848 1.531 . S
C1845 C1844 1.369 . S
C1845 C1846 1.410 . S
C1845 C1853 1.503 . S
C1846 C1845 1.410 . S
C1846 C1847 1.392 . S
C1846 C1849 1.511 . S
C1847 C1843 1.376 . S
C1847 C1846 1.392 . S
C1847 H1859 0.929 . S
C1848 C1844 1.531 . S
C1848 H1860 0.960 . S
C1848 H1861 0.962 . S
C1848 H1862 0.960 . S
C1849 C1846 1.511 . S
C1849 H1863 0.961 . S
C1849 H1864 0.961 . S
C1849 H1865 0.961 . S
C1850 C1851 1.370 . S
C1850 C1852 1.363 . S
C1850 H1866 0.931 . S
C1851 C1850 1.370 . S
C1851 C1855 1.408 . S
C1852 C1850 1.363 . S
C1852 C1853 1.370 . S
C1852 C1856 1.524 . S
C1853 C1845 1.503 . S
C1853 C1852 1.370 . S
C1853 C1854 1.403 . S
C1854 C1853 1.403 . S
C1854 C1855 1.404 . S
C1854 C1857 1.539 . S
C1855 C1851 1.408 . S
C1855 C1854 1.404 . S
C1855 H1867 0.930 . S
C1856 C1852 1.524 . S
C1856 H1868 0.956 . S
C1856 H1869 0.961 . S
C1856 H1870 0.961 . S
C1857 C1854 1.539 . S
C1857 H1871 0.958 . S
C1857 H1872 0.961 . S
C1857 H1873 0.960 . S
H1858 C1842 0.931 . S
H1859 C1847 0.929 . S
H1860 C1848 0.960 . S
H1861 C1848 0.962 . S
H1862 C1848 0.960 . S
H1863 C1849 0.961 . S
H1864 C1849 0.961 . S
H1865 C1849 0.961 . S
H1866 C1850 0.931 . S
H1867 C1855 0.930 . S
H1868 C1856 0.956 . S
H1869 C1856 0.961 . S
H1870 C1856 0.961 . S
H1871 C1857 0.958 . S
H1872 C1857 0.961 . S
H1873 C1857 0.960 . S
C1874 C1875 1.391 . S
C1874 C1876 1.394 . S
C1874 H1890 0.931 . S
C1875 C1874 1.391 . S
C1875 C1879 1.376 . S
C1876 C1874 1.394 . S
C1876 C1877 1.369 . S
C1876 C1880 1.531 . S
C1877 C1876 1.369 . S
C1877 C1878 1.410 . S
C1877 C1885 1.503 . S
C1878 C1877 1.410 . S
C1878 C1879 1.392 . S
C1878 C1881 1.511 . S
C1879 C1875 1.376 . S
C1879 C1878 1.392 . S
C1879 H1891 0.929 . S
C1880 C1876 1.531 . S
C1880 H1892 0.960 . S
C1880 H1893 0.962 . S
C1880 H1894 0.960 . S
C1881 C1878 1.511 . S
C1881 H1895 0.961 . S
C1881 H1896 0.961 . S
C1881 H1897 0.961 . S
C1882 C1883 1.370 . S
C1882 C1884 1.363 . S
C1882 H1898 0.931 . S
C1883 C1882 1.370 . S
C1883 C1887 1.408 . S
C1884 C1882 1.363 . S
C1884 C1885 1.370 . S
C1884 C1888 1.524 . S
C1885 C1877 1.503 . S
C1885 C1884 1.370 . S
C1885 C1886 1.403 . S
C1886 C1885 1.403 . S
C1886 C1887 1.404 . S
C1886 C1889 1.539 . S
C1887 C1883 1.408 . S
C1887 C1886 1.404 . S
C1887 H1899 0.930 . S
C1888 C1884 1.524 . S
C1888 H1900 0.956 . S
C1888 H1901 0.961 . S
C1888 H1902 0.961 . S
C1889 C1886 1.539 . S
C1889 H1903 0.958 . S
C1889 H1904 0.961 . S
C1889 H1905 0.960 . S
H1890 C1874 0.931 . S
H1891 C1879 0.929 . S
H1892 C1880 0.960 . S
H1893 C1880 0.962 . S
H1894 C1880 0.960 . S
H1895 C1881 0.961 . S
H1896 C1881 0.961 . S
H1897 C1881 0.961 . S
H1898 C1882 0.931 . S
H1899 C1887 0.930 . S
H1900 C1888 0.956 . S
H1901 C1888 0.961 . S
H1902 C1888 0.961 . S
H1903 C1889 0.958 . S
H1904 C1889 0.961 . S
H1905 C1889 0.960 . S
C1906 C1907 1.391 . S
C1906 C1908 1.394 . S
C1906 H1922 0.931 . S
C1907 C1906 1.391 . S
C1907 C1911 1.376 . S
C1908 C1906 1.394 . S
C1908 C1909 1.369 . S
C1908 C1912 1.531 . S
C1909 C1908 1.369 . S
C1909 C1910 1.410 . S
C1909 C1917 1.503 . S
C1910 C1909 1.410 . S
C1910 C1911 1.392 . S
C1910 C1913 1.511 . S
C1911 C1907 1.376 . S
C1911 C1910 1.392 . S
C1911 H1923 0.929 . S
C1912 C1908 1.531 . S
C1912 H1924 0.960 . S
C1912 H1925 0.962 . S
C1912 H1926 0.960 . S
C1913 C1910 1.511 . S
C1913 H1927 0.961 . S
C1913 H1928 0.961 . S
C1913 H1929 0.961 . S
C1914 C1915 1.370 . S
C1914 C1916 1.363 . S
C1914 H1930 0.931 . S
C1915 C1914 1.370 . S
C1915 C1919 1.408 . S
C1916 C1914 1.363 . S
C1916 C1917 1.370 . S
C1916 C1920 1.524 . S
C1917 C1909 1.503 . S
C1917 C1916 1.370 . S
C1917 C1918 1.403 . S
C1918 C1917 1.403 . S
C1918 C1919 1.404 . S
C1918 C1921 1.539 . S
C1919 C1915 1.408 . S
C1919 C1918 1.404 . S
C1919 H1931 0.930 . S
C1920 C1916 1.524 . S
C1920 H1932 0.956 . S
C1920 H1933 0.961 . S
C1920 H1934 0.961 . S
C1921 C1918 1.539 . S
C1921 H1935 0.958 . S
C1921 H1936 0.961 . S
C1921 H1937 0.960 . S
H1922 C1906 0.931 . S
H1923 C1911 0.929 . S
H1924 C1912 0.960 . S
H1925 C1912 0.962 . S
H1926 C1912 0.960 . S
H1927 C1913 0.961 . S
H1928 C1913 0.961 . S
H1929 C1913 0.961 . S
H1930 C1914 0.931 . S
H1931 C1919 0.930 . S
H1932 C1920 0.956 . S
H1933 C1920 0.961 . S
H1934 C1920 0.961 . S
H1935 C1921 0.958 . S
H1936 C1921 0.961 . S
H1937 C1921 0.960 . S
C1938 C1939 1.391 . S
C1938 C1940 1.394 . S
C1938 H1954 0.931 . S
C1939 C1938 1.391 . S
C1939 C1943 1.376 . S
C1940 C1938 1.394 . S
C1940 C1941 1.369 . S
C1940 C1944 1.531 . S
C1941 C1940 1.369 . S
C1941 C1942 1.410 . S
C1941 C1949 1.503 . S
C1942 C1941 1.410 . S
C1942 C1943 1.392 . S
C1942 C1945 1.511 . S
C1943 C1939 1.376 . S
C1943 C1942 1.392 . S
C1943 H1955 0.929 . S
C1944 C1940 1.531 . S
C1944 H1956 0.960 . S
C1944 H1957 0.962 . S
C1944 H1958 0.960 . S
C1945 C1942 1.511 . S
C1945 H1959 0.961 . S
C1945 H1960 0.961 . S
C1945 H1961 0.961 . S
C1946 C1947 1.370 . S
C1946 C1948 1.363 . S
C1946 H1962 0.931 . S
C1947 C1946 1.370 . S
C1947 C1951 1.408 . S
C1948 C1946 1.363 . S
C1948 C1949 1.370 . S
C1948 C1952 1.524 . S
C1949 C1941 1.503 . S
C1949 C1948 1.370 . S
C1949 C1950 1.403 . S
C1950 C1949 1.403 . S
C1950 C1951 1.404 . S
C1950 C1953 1.539 . S
C1951 C1947 1.408 . S
C1951 C1950 1.404 . S
C1951 H1963 0.930 . S
C1952 C1948 1.524 . S
C1952 H1964 0.956 . S
C1952 H1965 0.961 . S
C1952 H1966 0.961 . S
C1953 C1950 1.539 . S
C1953 H1967 0.958 . S
C1953 H1968 0.961 . S
C1953 H1969 0.960 . S
H1954 C1938 0.931 . S
H1955 C1943 0.929 . S
H1956 C1944 0.960 . S
H1957 C1944 0.962 . S
H1958 C1944 0.960 . S
H1959 C1945 0.961 . S
H1960 C1945 0.961 . S
H1961 C1945 0.961 . S
H1962 C1946 0.931 . S
H1963 C1951 0.930 . S
H1964 C1952 0.956 . S
H1965 C1952 0.961 . S
H1966 C1952 0.961 . S
H1967 C1953 0.958 . S
H1968 C1953 0.961 . S
H1969 C1953 0.960 . S
C1970 C1971 1.391 . S
C1970 C1972 1.394 . S
C1970 H1986 0.931 . S
C1971 C1970 1.391 . S
C1971 C1975 1.376 . S
C1972 C1970 1.394 . S
C1972 C1973 1.369 . S
C1972 C1976 1.531 . S
C1973 C1972 1.369 . S
C1973 C1974 1.410 . S
C1973 C1981 1.503 . S
C1974 C1973 1.410 . S
C1974 C1975 1.392 . S
C1974 C1977 1.511 . S
C1975 C1971 1.376 . S
C1975 C1974 1.392 . S
C1975 H1987 0.929 . S
C1976 C1972 1.531 . S
C1976 H1988 0.960 . S
C1976 H1989 0.962 . S
C1976 H1990 0.960 . S
C1977 C1974 1.511 . S
C1977 H1991 0.961 . S
C1977 H1992 0.961 . S
C1977 H1993 0.961 . S
C1978 C1979 1.370 . S
C1978 C1980 1.363 . S
C1978 H1994 0.931 . S
C1979 C1978 1.370 . S
C1979 C1983 1.408 . S
C1980 C1978 1.363 . S
C1980 C1981 1.370 . S
C1980 C1984 1.524 . S
C1981 C1973 1.503 . S
C1981 C1980 1.370 . S
C1981 C1982 1.403 . S
C1982 C1981 1.403 . S
C1982 C1983 1.404 . S
C1982 C1985 1.539 . S
C1983 C1979 1.408 . S
C1983 C1982 1.404 . S
C1983 H1995 0.930 . S
C1984 C1980 1.524 . S
C1984 H1996 0.956 . S
C1984 H1997 0.961 . S
C1984 H1998 0.961 . S
C1985 C1982 1.539 . S
C1985 H1999 0.958 . S
C1985 H2000 0.961 . S
C1985 H2001 0.960 . S
H1986 C1970 0.931 . S
H1987 C1975 0.929 . S
H1988 C1976 0.960 . S
H1989 C1976 0.962 . S
H1990 C1976 0.960 . S
H1991 C1977 0.961 . S
H1992 C1977 0.961 . S
H1993 C1977 0.961 . S
H1994 C1978 0.931 . S
H1995 C1983 0.930 . S
H1996 C1984 0.956 . S
H1997 C1984 0.961 . S
H1998 C1984 0.961 . S
H1999 C1985 0.958 . S
H2000 C1985 0.961 . S
H2001 C1985 0.960 . S
C2002 C2003 1.391 . S
C2002 C2004 1.394 . S
C2002 H2018 0.931 . S
C2003 C2002 1.391 . S
C2003 C2007 1.376 . S
C2004 C2002 1.394 . S
C2004 C2005 1.369 . S
C2004 C2008 1.531 . S
C2005 C2004 1.369 . S
C2005 C2006 1.410 . S
C2005 C2013 1.503 . S
C2006 C2005 1.410 . S
C2006 C2007 1.392 . S
C2006 C2009 1.511 . S
C2007 C2003 1.376 . S
C2007 C2006 1.392 . S
C2007 H2019 0.929 . S
C2008 C2004 1.531 . S
C2008 H2020 0.960 . S
C2008 H2021 0.962 . S
C2008 H2022 0.960 . S
C2009 C2006 1.511 . S
C2009 H2023 0.961 . S
C2009 H2024 0.961 . S
C2009 H2025 0.961 . S
C2010 C2011 1.370 . S
C2010 C2012 1.363 . S
C2010 H2026 0.931 . S
C2011 C2010 1.370 . S
C2011 C2015 1.408 . S
C2012 C2010 1.363 . S
C2012 C2013 1.370 . S
C2012 C2016 1.524 . S
C2013 C2005 1.503 . S
C2013 C2012 1.370 . S
C2013 C2014 1.403 . S
C2014 C2013 1.403 . S
C2014 C2015 1.404 . S
C2014 C2017 1.539 . S
C2015 C2011 1.408 . S
C2015 C2014 1.404 . S
C2015 H2027 0.930 . S
C2016 C2012 1.524 . S
C2016 H2028 0.956 . S
C2016 H2029 0.961 . S
C2016 H2030 0.961 . S
C2017 C2014 1.539 . S
C2017 H2031 0.958 . S
C2017 H2032 0.961 . S
C2017 H2033 0.960 . S
H2018 C2002 0.931 . S
H2019 C2007 0.929 . S
H2020 C2008 0.960 . S
H2021 C2008 0.962 . S
H2022 C2008 0.960 . S
H2023 C2009 0.961 . S
H2024 C2009 0.961 . S
H2025 C2009 0.961 . S
H2026 C2010 0.931 . S
H2027 C2015 0.930 . S
H2028 C2016 0.956 . S
H2029 C2016 0.961 . S
H2030 C2016 0.961 . S
H2031 C2017 0.958 . S
H2032 C2017 0.961 . S
H2033 C2017 0.960 . S
C595 C28 0.993 . S
C603 C248 1.039 . S
C627 C61 1.036 . S
C635 C281 1.029 . S
C659 C94 1.016 . S
C667 C215 1.027 . S
C691 C545 1.030 . S
C699 C127 0.993 . S
C723 C160 1.010 . S
C731 C578 1.027 . S
C755 C193 0.967 . S
C763 C512 1.037 . S
C787 C226 0.969 . S
C795 C446 1.030 . S
C819 C479 1.022 . S
C827 C259 1.024 . S
C851 C413 1.017 . S
C859 C292 1.013 . S
C883 C325 0.965 . S
C891 C149 1.042 . S
C915 C358 0.993 . S
C923 C182 1.045 . S
C947 C391 1.034 . S
C955 C116 1.042 . S
C979 C424 0.968 . S
C987 C50 1.041 . S
C1011 C457 0.970 . S
C1019 C83 1.035 . S
C1043 C17 1.051 . S
C1051 C490 1.019 . S
C1075 C347 1.036 . S
C1083 C523 1.025 . S
C1107 C556 1.033 . S
C1115 C380 1.037 . S
C1139 C589 1.051 . S
C1147 C314 1.031 . S
C1171 N509 1.772 . S
C1179 N14 1.753 . S
C1203 N542 1.754 . S
C1211 N47 1.764 . S
C1235 N80 1.742 . S
C1243 N575 1.765 . S
C1267 N113 1.759 . S
C1275 N212 1.762 . S
C1299 N146 1.738 . S
C1307 N245 1.766 . S
C1331 N278 1.726 . S
C1339 N179 1.773 . S
C1363 N311 1.748 . S
C1371 N410 1.766 . S
C1395 N443 1.732 . S
C1403 N344 1.772 . S
C1427 N476 1.754 . S
C1435 N377 1.760 . S
C1459 N5 1.528 . S
C1467 C140 1.510 . S
C1491 C173 1.484 . S
C1499 N38 1.518 . S
C1523 N71 1.480 . S
C1531 C107 1.523 . S
C1555 C41 1.505 . S
C1563 N104 1.505 . S
C1587 N137 1.527 . S
C1595 C74 1.501 . S
C1619 C8 1.532 . S
C1627 N170 1.511 . S
C1651 N203 1.533 . S
C1659 C338 1.507 . S
C1683 C371 1.492 . S
C1691 N236 1.514 . S
C1715 C305 1.489 . S
C1723 N269 1.516 . S
C1747 N302 1.529 . S
C1755 C239 1.501 . S
C1779 C272 1.481 . S
C1787 N335 1.521 . S
C1811 N368 1.481 . S
C1819 C206 1.521 . S
C1843 C536 1.530 . S
C1851 N401 1.509 . S
C1875 C569 1.529 . S
C1883 N434 1.501 . S
C1907 C503 1.533 . S
C1915 N467 1.501 . S
C1939 C437 1.522 . S
C1947 N500 1.501 . S
C1971 C470 1.494 . S
C1979 N533 1.509 . S
C2003 N566 1.482 . S
C2011 C404 1.518 . S
