# Generated by pormake.
# Topology vby, (6)-cn, num edge types: 1
# Building blocks:
#     Node 0, Type 0, BuildingBlock: NUHQIS_clean_sbu_0, # of connection points: 6
#     Node 1, Type 0, BuildingBlock: NUHQIS_clean_sbu_0, # of connection points: 6
#     Node 2, Type 0, BuildingBlock: NUHQIS_clean_sbu_0, # of connection points: 6
#     Node 3, Type 0, BuildingBlock: NUHQIS_clean_sbu_0, # of connection points: 6
#     Node 4, Type 0, BuildingBlock: NUHQIS_clean_sbu_0, # of connection points: 6
#     Node 5, Type 0, BuildingBlock: NUHQIS_clean_sbu_0, # of connection points: 6
#     Node 6, Type 0, BuildingBlock: NUHQIS_clean_sbu_0, # of connection points: 6
#     Node 7, Type 0, BuildingBlock: NUHQIS_clean_sbu_0, # of connection points: 6
#     Edge 8, Type (0, 0), BuildingBlock: MIFKUJ_clean_linker_0, # of connection points: 2
#     Edge 9, Type (0, 0), BuildingBlock: MIFKUJ_clean_linker_0, # of connection points: 2
#     Edge 10, Type (0, 0), BuildingBlock: MIFKUJ_clean_linker_0, # of connection points: 2
#     Edge 11, Type (0, 0), BuildingBlock: MIFKUJ_clean_linker_0, # of connection points: 2
#     Edge 12, Type (0, 0), BuildingBlock: MIFKUJ_clean_linker_0, # of connection points: 2
#     Edge 13, Type (0, 0), BuildingBlock: MIFKUJ_clean_linker_0, # of connection points: 2
#     Edge 14, Type (0, 0), BuildingBlock: MIFKUJ_clean_linker_0, # of connection points: 2
#     Edge 15, Type (0, 0), BuildingBlock: MIFKUJ_clean_linker_0, # of connection points: 2
#     Edge 16, Type (0, 0), BuildingBlock: MIFKUJ_clean_linker_0, # of connection points: 2
#     Edge 17, Type (0, 0), BuildingBlock: MIFKUJ_clean_linker_0, # of connection points: 2
#     Edge 18, Type (0, 0), BuildingBlock: MIFKUJ_clean_linker_0, # of connection points: 2
#     Edge 19, Type (0, 0), BuildingBlock: MIFKUJ_clean_linker_0, # of connection points: 2
#     Edge 20, Type (0, 0), BuildingBlock: MIFKUJ_clean_linker_0, # of connection points: 2
#     Edge 21, Type (0, 0), BuildingBlock: MIFKUJ_clean_linker_0, # of connection points: 2
#     Edge 22, Type (0, 0), BuildingBlock: MIFKUJ_clean_linker_0, # of connection points: 2
#     Edge 23, Type (0, 0), BuildingBlock: MIFKUJ_clean_linker_0, # of connection points: 2
#     Edge 24, Type (0, 0), BuildingBlock: MIFKUJ_clean_linker_0, # of connection points: 2
#     Edge 25, Type (0, 0), BuildingBlock: MIFKUJ_clean_linker_0, # of connection points: 2
#     Edge 26, Type (0, 0), BuildingBlock: MIFKUJ_clean_linker_0, # of connection points: 2
#     Edge 27, Type (0, 0), BuildingBlock: MIFKUJ_clean_linker_0, # of connection points: 2
#     Edge 28, Type (0, 0), BuildingBlock: MIFKUJ_clean_linker_0, # of connection points: 2
#     Edge 29, Type (0, 0), BuildingBlock: MIFKUJ_clean_linker_0, # of connection points: 2
#     Edge 30, Type (0, 0), BuildingBlock: MIFKUJ_clean_linker_0, # of connection points: 2
#     Edge 31, Type (0, 0), BuildingBlock: MIFKUJ_clean_linker_0, # of connection points: 2
# Relax obj value: 0.193
# Max RMSD: 0.225
# Mean RMSD: 0.213
data_MOF--net-vby--node1-NUHQIS_clean_sbu_0--edge1-MIFKUJ_clean_linker_0
_symmetry_space_group_name_H-M    P1
_symmetry_Int_Tables_number       1
_symmetry_cell_setting            triclinic
loop_
_symmetry_equiv_pos_as_xyz
'x, y, z'
_cell_length_a     19.955411
_cell_length_b     122.59199
_cell_length_c     39.069441
_cell_angle_alpha  86.091457
_cell_angle_beta   89.389703
_cell_angle_gamma 89.86503
loop_
_atom_site_label
_atom_site_type_symbol
_atom_site_fract_x
_atom_site_fract_y
_atom_site_fract_z
_atom_type_partial_charge
Tb0 Tb 0.09949 0.39588 0.0153 0.0
Eu1 Eu 0.09283 0.36872 0.01608 0.0
C2 C 0.08531 0.38144 0.08333 0.0
C3 C 0.23274 0.38159 0.01614 0.0
C4 C 0.08373 0.42757 0.00897 0.0
C5 C 1.03139 0.44394 0.0295 0.0
C6 C 0.04495 0.43271 0.0335 0.0
C7 C 0.10616 0.43385 0.97963 0.0
C8 C 0.09265 0.44508 0.97564 0.0
C9 C 0.05675 0.45034 0.001 0.0
C10 C 0.11135 0.41643 0.01698 0.0
O11 O 0.06752 0.39188 0.96443 0.0
O12 O 0.12217 0.37546 0.96305 0.0
O13 O 0.98766 0.37465 0.00514 0.0
O14 O 0.99246 0.39234 0.02219 0.0
C15 C 0.09277 0.38395 0.94719 0.0
O16 O 0.06875 0.35372 0.99129 0.0
O17 O 0.1057 0.35279 0.04347 0.0
O18 O 0.05516 0.37398 0.06668 0.0
O19 O 0.12242 0.38893 0.06673 0.0
O20 O 0.20133 0.39048 0.00421 0.0
O21 O 0.20014 0.37277 0.02771 0.0
C22 C 0.95845 0.38378 0.01319 0.0
O23 O 0.083 0.41015 0.04121 0.0
O24 O 0.13353 0.41086 0.99192 0.0
C25 C 0.12283 0.33705 0.01134 0.0
C26 C 0.17818 0.31592 0.00574 0.0
C27 C 0.12039 0.31922 0.98744 0.0
C28 C 0.09305 0.32964 0.99029 0.0
C29 C 0.18192 0.33394 0.02876 0.0
C30 C 0.20928 0.32349 0.02597 0.0
C31 C 0.08697 0.34733 0.01768 0.0
H32 H 1.00415 0.44771 0.04973 0.0
H33 H 1.02791 0.42819 0.05674 0.0
H34 H 0.13696 0.4302 0.96046 0.0
H35 H 0.11207 0.4497 0.9531 0.0
H36 H 0.09452 0.31359 0.97198 0.0
H37 H 0.04702 0.33178 0.97694 0.0
H38 H 0.20604 0.33946 0.04527 0.0
H39 H 0.25434 0.32129 0.04004 0.0
Tb40 Tb 0.96986 0.62263 0.98764 0.0
Eu41 Eu 0.97437 0.64996 0.98651 0.0
C42 C 0.97625 0.63471 0.05589 0.0
C43 C 0.83498 0.6367 0.98704 0.0
C44 C 0.98796 0.59096 0.9938 0.0
C45 C 0.97906 0.57347 0.0272 0.0
C46 C 0.96559 0.58469 0.02318 0.0
C47 C 1.02673 0.58581 0.96929 0.0
C48 C 0.04025 0.57458 0.97332 0.0
C49 C 1.01487 0.56819 0.00183 0.0
C50 C 0.9602 0.60208 0.98562 0.0
O51 O 0.94609 0.62951 0.93631 0.0
O52 O 1.01256 0.64451 0.93616 0.0
O53 O 0.08016 0.64435 -0.00338 0.0
O54 O 0.0769 0.62634 0.98232 0.0
C55 C 0.98291 0.63699 0.91961 0.0
O56 O 0.96369 0.66569 0.95716 0.0
O57 O 0.99468 0.66522 0.01042 0.0
O58 O 0.9483 0.64338 0.04022 0.0
O59 O 1.0002 0.62667 0.03868 0.0
O60 O 0.86703 0.6277 -0.00258 0.0
O61 O 0.86651 0.64579 0.97699 0.0
C62 C 0.11015 0.63514 0.98996 0.0
O63 O 0.93607 0.60756 0.01045 0.0
O64 O 0.98944 0.60844 0.96186 0.0
C65 C 0.94765 0.68203 0.98609 0.0
C66 C 0.89719 0.70338 0.99285 0.0
C67 C 0.93641 0.70099 0.96421 0.0
C68 C 0.96126 0.69046 0.96091 0.0
C69 C 0.90706 0.68425 0.01441 0.0
C70 C 0.88174 0.69485 0.01767 0.0
C71 C 0.9808 0.67136 0.98275 0.0
H72 H 0.95964 0.56885 0.04976 0.0
H73 H 0.93481 0.58835 0.04235 0.0
H74 H 0.04369 0.59032 0.94602 0.0
H75 H 0.06743 0.5708 0.95309 0.0
H76 H 0.94827 0.7073 0.94432 0.0
H77 H 0.99249 0.68893 0.93886 0.0
H78 H 0.89598 0.67789 0.03424 0.0
H79 H 0.85181 0.69643 0.04009 0.0
Tb80 Tb 0.09885 0.64778 0.48569 0.0
Eu81 Eu 0.10607 0.62057 0.48767 0.0
C82 C 0.09645 0.63535 0.41911 0.0
C83 C 0.96438 0.63358 0.48826 0.0
C84 C 0.13233 0.67869 0.48656 0.0
C85 C 0.17436 0.6961 0.46111 0.0
C86 C 0.1469 0.68575 0.45761 0.0
C87 C 0.14731 0.68214 0.51923 0.0
C88 C 0.17492 0.69253 0.52276 0.0
C89 C 0.18785 0.69972 0.49374 0.0
C90 C 0.09415 0.66851 0.48199 0.0
O91 O 0.12362 0.64178 0.53793 0.0
O92 O 0.07001 0.62523 0.53939 0.0
O93 O 0.20915 0.62645 0.50031 0.0
O94 O 0.20422 0.64399 0.47562 0.0
C95 C 0.09373 0.63351 0.55513 0.0
O96 O 0.1373 0.6048 0.51217 0.0
O97 O 0.09257 0.60554 0.46162 0.0
O98 O 0.13331 0.62774 0.43483 0.0
O99 O 0.06453 0.64248 0.43682 0.0
O100 O 0.99553 0.64255 0.49613 0.0
O101 O 0.99665 0.62474 0.47984 0.0
C102 C 0.23859 0.63551 0.48837 0.0
O103 O 0.11203 0.66271 0.45667 0.0
O104 O 0.07615 0.66235 0.50906 0.0
C105 C 0.0914 0.58802 0.49359 0.0
C106 C 0.0644 0.56524 0.50055 0.0
C107 C 0.09846 0.57039 0.52636 0.0
C108 C 0.11198 0.58163 0.52286 0.0
C109 C 0.05475 0.58297 0.4685 0.0
C110 C 0.04122 0.57174 0.47199 0.0
C111 C 0.11795 0.59928 0.48662 0.0
H112 H 0.18245 0.70143 0.43819 0.0
H113 H 0.13478 0.68342 0.43215 0.0
H114 H 0.1362 0.67695 0.54212 0.0
H115 H 0.18539 0.69497 0.54828 0.0
H116 H 0.11619 0.5657 0.54895 0.0
H117 H 0.14108 0.58521 0.54248 0.0
H118 H 0.03913 0.58759 0.44531 0.0
H119 H 1.0155 0.56806 0.4514 0.0
Tb120 Tb 0.96434 0.39309 0.51649 0.0
Eu121 Eu 0.96914 0.36565 0.51938 0.0
C122 C 0.97557 0.38061 0.44905 0.0
C123 C 0.82984 0.37906 0.51677 0.0
C124 C 0.98308 0.42474 0.50937 0.0
C125 C 0.97751 0.44217 0.47543 0.0
C126 C 0.96298 0.43098 0.4797 0.0
C127 C 1.02056 0.42987 0.53397 0.0
C128 C 1.0351 0.44106 0.5297 0.0
C129 C 1.0121 0.44743 0.50084 0.0
C130 C 0.95432 0.41369 0.51763 0.0
O131 O 0.9379 0.3865 0.56798 0.0
O132 O 1.00426 0.3714 0.56953 0.0
O133 O 0.07576 0.37111 0.51042 0.0
O134 O 0.07133 0.38942 0.52174 0.0
C135 C 0.97419 0.37915 0.58531 0.0
O136 O 0.95482 0.35005 0.54927 0.0
O137 O 0.9921 0.35022 0.49676 0.0
O138 O 0.94783 0.37192 0.46497 0.0
O139 O 0.99768 0.38879 0.46592 0.0
O140 O 0.86253 0.38796 0.50585 0.0
O141 O 0.86081 0.37005 0.52798 0.0
C142 C 0.10508 0.38045 0.51572 0.0
O143 O 0.93226 0.40812 0.49277 0.0
O144 O 0.98148 0.40738 0.54192 0.0
C145 C 0.94403 0.33346 0.52109 0.0
C146 C 0.89488 0.31206 0.51423 0.0
C147 C 0.9391 0.31421 0.54073 0.0
C148 C 0.96324 0.32476 0.54409 0.0
C149 C 0.89878 0.33148 0.49492 0.0
C150 C 0.87413 0.32086 0.49163 0.0
C151 C 0.97547 0.34423 0.52447 0.0
H152 H 0.95992 0.44677 0.45261 0.0
H153 H 0.93321 0.42735 0.46045 0.0
H154 H 0.03574 0.42539 0.55746 0.0
H155 H 0.0612 0.44482 0.55 0.0
H156 H 0.9552 0.3077 0.55896 0.0
H157 H 0.99804 0.32611 0.56449 0.0
H158 H 0.88334 0.33806 0.47683 0.0
H159 H 0.84029 0.31948 0.47088 0.0
Tb160 Tb 0.59954 0.89591 0.01635 0.0
Eu161 Eu 0.59523 0.86857 0.01651 0.0
C162 C 0.58581 0.8812 0.08398 0.0
C163 C 0.73454 0.88193 0.01644 0.0
C164 C 0.58215 0.9276 0.01594 0.0
C165 C 0.5675 0.94509 0.04114 0.0
C166 C 0.58259 0.93394 0.0445 0.0
C167 C 0.56414 0.93259 0.98388 0.0
C168 C 0.54846 0.9438 0.9805 0.0
C169 C 0.55116 0.95025 0.00902 0.0
C170 C 0.60998 0.91639 0.02006 0.0
O171 O 0.57008 0.89197 0.96496 0.0
O172 O 0.62335 0.87539 0.96345 0.0
O173 O 0.48938 0.87431 0.00706 0.0
O174 O 0.4926 0.89226 0.02198 0.0
C175 C 0.59495 0.88399 0.94772 0.0
O176 O 0.56817 0.85357 0.99238 0.0
O177 O 0.61287 0.85263 0.04302 0.0
O178 O 0.55724 0.87359 0.06735 0.0
O179 O 0.62263 0.88873 0.06748 0.0
O180 O 0.70252 0.89097 0.00645 0.0
O181 O 0.70306 0.8728 0.02604 0.0
C182 C 0.45937 0.88348 0.0141 0.0
O183 O 0.5861 0.90976 0.04468 0.0
O184 O 0.627 0.91129 0.99302 0.0
C185 C 0.62293 0.83678 0.01071 0.0
C186 C 0.67441 0.81543 0.00471 0.0
C187 C 0.61144 0.81845 0.99121 0.0
C188 C 0.58607 0.82898 0.99422 0.0
C189 C 0.68705 0.83397 0.02307 0.0
C190 C 0.71262 0.8234 0.01999 0.0
C191 C 0.58979 0.84719 0.01807 0.0
H192 H 0.57161 0.94973 0.06362 0.0
H193 H 0.59756 0.93035 0.06938 0.0
H194 H 0.56392 0.92793 0.9613 0.0
H195 H 0.53523 0.94742 0.95544 0.0
H196 H 0.58116 0.81259 0.97874 0.0
H197 H 0.53641 0.83093 0.98462 0.0
H198 H 0.71652 0.8398 0.03607 0.0
H199 H 0.76113 0.82135 0.03082 0.0
Tb200 Tb 0.46945 0.12275 0.98914 0.0
Eu201 Eu 0.47369 0.15016 0.98921 0.0
C202 C 0.47802 0.13436 0.05846 0.0
C203 C 0.33501 0.13684 0.98966 0.0
C204 C 0.48254 0.09101 0.99453 0.0
C205 C 0.45542 0.07267 0.01862 0.0
C206 C 0.44159 0.08387 0.01509 0.0
C207 C 0.53946 0.08673 0.9786 0.0
C208 C 0.55349 0.07549 0.98222 0.0
C209 C 0.51066 0.06826 0.00158 0.0
C210 C 0.45819 0.10227 0.98546 0.0
O211 O 0.44869 0.12981 0.93756 0.0
O212 O 0.51291 0.14508 0.93872 0.0
O213 O 0.58048 0.14478 -0.00337 0.0
O214 O 0.57698 0.12631 0.98688 0.0
C215 C 0.48495 0.13754 0.92161 0.0
O216 O 0.4636 0.16594 0.96022 0.0
O217 O 0.49075 0.16538 0.014 0.0
O218 O 0.45346 0.14344 0.04348 0.0
O219 O 0.49818 0.12613 0.04094 0.0
O220 O 0.36742 0.12793 0.00041 0.0
O221 O 0.36645 0.14585 0.97882 0.0
C222 C 0.61008 0.13536 0.99218 0.0
O223 O 0.43022 0.1077 0.00937 0.0
O224 O 0.49249 0.10862 0.96361 0.0
C225 C 0.4414 0.18201 0.98943 0.0
C226 C 0.38384 0.20298 0.99502 0.0
C227 C 0.42005 0.20052 0.96543 0.0
C228 C 0.44834 0.19018 0.96271 0.0
C229 C 0.40455 0.18432 0.01894 0.0
C230 C 0.37598 0.19472 0.02168 0.0
C231 C 0.47766 0.17158 0.98634 0.0
H232 H 0.42062 0.0674 0.03332 0.0
H233 H 0.39664 0.08688 0.02712 0.0
H234 H 0.57175 0.09198 0.96228 0.0
H235 H 0.59709 0.07244 0.96915 0.0
H236 H 0.42842 0.20668 0.94465 0.0
H237 H 0.47724 0.18864 0.93989 0.0
H238 H 0.39857 0.17818 0.04 0.0
H239 H 0.34788 0.19628 0.0447 0.0
Tb240 Tb 0.61291 0.14754 0.48284 0.0
Eu241 Eu 0.61512 0.12017 0.49602 0.0
C242 C 0.5958 0.132 0.42192 0.0
C243 C 0.47671 0.13387 0.49018 0.0
C244 C 0.63263 0.17893 0.47752 0.0
C245 C 0.62486 0.19865 0.46651 0.0
C246 C 0.60363 0.18813 0.46029 0.0
C247 C 0.68331 0.18039 0.50143 0.0
C248 C 0.70466 0.19099 0.5078 0.0
C249 C 0.67566 0.20028 0.49034 0.0
C250 C 0.60985 0.16805 0.46862 0.0
O251 O 0.59878 0.14456 0.53814 0.0
O252 O 0.63808 0.12686 0.54666 0.0
O253 O 0.72027 0.12596 0.483 0.0
O254 O 0.71521 0.14366 0.4988 0.0
C255 C 0.61737 0.13608 0.55841 0.0
O256 O 0.59234 0.10497 0.52676 0.0
O257 O 0.65218 0.10452 0.48011 0.0
O258 O 0.57564 0.12383 0.44287 0.0
O259 O 0.62639 0.14052 0.43326 0.0
O260 O 0.5097 0.14225 0.47527 0.0
O261 O 0.50753 0.12516 0.50396 0.0
C262 C 0.7498 0.13496 0.49132 0.0
O263 O 0.65417 0.1615 0.45637 0.0
O264 O 0.56744 0.16282 0.48927 0.0
C265 C 0.59768 0.08781 0.50045 0.0
C266 C 0.5683 0.06542 0.4937 0.0
C267 C 0.56284 0.06997 0.52574 0.0
C268 C 0.57748 0.08101 0.52904 0.0
C269 C 0.60082 0.08341 0.46813 0.0
C270 C 0.58616 0.07235 0.46481 0.0
C271 C 0.62435 0.09884 0.50593 0.0
H272 H 0.60225 0.20551 0.45198 0.0
H273 H 0.56486 0.18717 0.44151 0.0
H274 H 0.70647 0.17338 0.51494 0.0
H275 H 0.74352 0.19191 0.52651 0.0
H276 H 0.55022 0.0649 0.54867 0.0
H277 H 0.57573 0.08411 0.55435 0.0
H278 H 0.61667 0.08841 0.44558 0.0
H279 H 0.58997 0.06918 0.43966 0.0
Tb280 Tb 0.46629 0.89329 0.51729 0.0
Eu281 Eu 0.47054 0.86589 0.51934 0.0
C282 C 0.47524 0.88103 0.44942 0.0
C283 C 0.3315 0.8794 0.51749 0.0
C284 C 0.4852 0.92496 0.51404 0.0
C285 C 0.50637 0.94142 0.47678 0.0
C286 C 0.49214 0.93018 0.48098 0.0
C287 C 0.49534 0.93109 0.54261 0.0
C288 C 0.50897 0.94228 0.53844 0.0
C289 C 0.51286 0.94765 0.50553 0.0
C290 C 0.45658 0.91382 0.51987 0.0
O291 O 0.4402 0.88642 0.56856 0.0
O292 O 0.50709 0.87142 0.56953 0.0
O293 O 0.57711 0.87131 0.50968 0.0
O294 O 0.57322 0.88952 0.52222 0.0
C295 C 0.47729 0.87913 0.5856 0.0
O296 O 0.45493 0.85026 0.54862 0.0
O297 O 0.49273 0.85049 0.49626 0.0
O298 O 0.44756 0.87234 0.46532 0.0
O299 O 0.49828 0.88914 0.46635 0.0
O300 O 0.36414 0.88832 0.5067 0.0
O301 O 0.36253 0.87038 0.5285 0.0
C302 C 0.60674 0.8806 0.51537 0.0
O303 O 0.43762 0.90854 0.49376 0.0
O304 O 0.48127 0.90731 0.54438 0.0
C305 C 0.43702 0.83409 0.51904 0.0
C306 C 0.38351 0.8129 0.51225 0.0
C307 C 0.3971 0.81658 0.54479 0.0
C308 C 0.42357 0.82701 0.54809 0.0
C309 C 0.42205 0.83056 0.48647 0.0
C310 C 0.39547 0.8201 0.48313 0.0
C311 C 0.47349 0.84444 0.52341 0.0
H312 H 0.50888 0.94533 0.45109 0.0
H313 H 0.48382 0.92572 0.45842 0.0
H314 H 0.48951 0.92733 0.56839 0.0
H315 H 0.51465 0.94681 0.56109 0.0
H316 H 0.38974 0.81126 0.56779 0.0
H317 H 0.43564 0.82942 0.57349 0.0
H318 H 0.43224 0.83577 0.46351 0.0
H319 H 0.38488 0.81761 0.45768 0.0
H320 H 0.3172 0.36861 0.05619 0.0
H321 H 0.43974 0.36933 0.0577 0.0
H322 H 0.43927 0.39486 0.97594 0.0
H323 H 0.31702 0.39455 0.97568 0.0
H324 H 0.53524 0.36536 0.01826 0.0
H325 H 0.56977 0.41166 0.97836 0.0
H326 H 0.51042 0.42909 0.98482 0.0
H327 H 0.4107 0.41525 0.0755 0.0
H328 H 0.4701 0.39779 0.06986 0.0
H329 H 0.874 0.37318 0.97228 0.0
H330 H 0.75164 0.3732 0.9732 0.0
H331 H 0.75221 0.39489 0.05572 0.0
H332 H 0.8749 0.3954 0.05332 0.0
H333 H 0.65611 0.40066 0.01833 0.0
H334 H 0.72191 0.36568 0.06693 0.0
H335 H 0.78155 0.348 0.07033 0.0
H336 H 0.6806 0.33877 0.98022 0.0
H337 H 0.62099 0.35646 0.97601 0.0
C338 C 0.34329 0.37439 0.0386 0.0
C339 C 0.30725 0.38159 0.01605 0.0
C340 C 0.4135 0.37479 0.03942 0.0
C341 C 0.44938 0.3823 0.01739 0.0
C342 C 0.41326 0.38922 0.99401 0.0
C343 C 0.34314 0.38899 0.9937 0.0
C344 C 0.52431 0.38284 0.01864 0.0
C345 C 0.56149 0.3731 0.01834 0.0
C346 C 0.55934 0.39287 0.01965 0.0
C347 C 0.52392 0.40339 0.02346 0.0
C348 C 0.53538 0.41235 -0.00025 0.0
C349 C 0.50169 0.42224 0.00326 0.0
C350 C 0.45666 0.42327 0.03049 0.0
C351 C 0.44541 0.41443 0.05435 0.0
C352 C 0.47902 0.40454 0.05099 0.0
C353 C 0.84798 0.378 0.99051 0.0
C354 C 0.88412 0.38424 0.01287 0.0
C355 C 0.77784 0.37794 0.99123 0.0
C356 C 0.74199 0.38381 0.01518 0.0
C357 C 0.7782 0.39025 0.03704 0.0
C358 C 0.84846 0.39054 0.0357 0.0
C359 C 0.66705 0.3832 0.01746 0.0
C360 C 0.62986 0.39293 0.01836 0.0
C361 C 0.63202 0.37311 0.01846 0.0
C362 C 0.66742 0.36243 0.021 0.0
C363 C 0.71273 0.3599 0.04773 0.0
C364 C 0.7465 0.34988 0.04981 0.0
C365 C 0.73498 0.34228 0.02546 0.0
C366 C 0.68952 0.34467 -0.00097 0.0
C367 C 0.65567 0.35469 -0.00319 0.0
H368 H 0.7612 0.33452 0.02711 0.0
H369 H 0.43058 0.43092 0.03313 0.0
H370 H 0.19586 0.65229 0.99574 0.0
H371 H 0.31801 0.65209 0.99505 0.0
H372 H 0.31696 0.61732 0.98444 0.0
H373 H 0.19401 0.61742 0.98509 0.0
H374 H 0.40933 0.62374 0.03295 0.0
H375 H 0.35031 0.63386 0.91615 0.0
H376 H 0.29147 0.64472 0.87024 0.0
H377 H 0.38847 0.67387 0.89936 0.0
H378 H 0.44714 0.6632 0.94581 0.0
H379 H 0.75325 0.61879 0.99075 0.0
H380 H 0.63114 0.61829 0.99089 0.0
H381 H 0.62493 0.65356 0.98461 0.0
H382 H 0.74761 0.65411 0.98318 0.0
H383 H 0.53494 0.64655 0.94433 0.0
H384 H 0.59174 0.63712 0.06144 0.0
H385 H 0.6487 0.62683 0.10919 0.0
H386 H 0.55493 0.59718 0.08207 0.0
H387 H 0.49808 0.60727 0.03384 0.0
C388 C 0.22129 0.64457 0.99334 0.0
C389 C 0.18475 0.63487 0.99035 0.0
C390 C 0.29134 0.64448 0.99283 0.0
C391 C 0.32674 0.63471 0.98936 0.0
C392 C 0.29068 0.62496 0.98706 0.0
C393 C 0.22036 0.62504 0.98732 0.0
C394 C 0.40135 0.63475 0.98791 0.0
C395 C 0.43691 0.62859 0.01329 0.0
C396 C 0.43729 0.64134 0.96283 0.0
C397 C 0.40268 0.64775 0.93465 0.0
C398 C 0.35874 0.6426 0.91292 0.0
C399 C 0.32546 0.64872 0.88678 0.0
C400 C 0.33612 0.65998 0.88193 0.0
C401 C 0.38022 0.66514 0.90316 0.0
C402 C 0.41355 0.65906 0.92938 0.0
C403 C 0.72604 0.62646 0.98949 0.0
C404 C 0.76043 0.6365 0.98716 0.0
C405 C 0.65595 0.62616 0.98974 0.0
C406 C 0.61833 0.63588 0.98846 0.0
C407 C 0.65257 0.64593 0.98574 0.0
C408 C 0.72282 0.64624 0.98499 0.0
C409 C 0.54345 0.63556 0.98953 0.0
C410 C 0.50766 0.64168 0.96403 0.0
C411 C 0.50728 0.62902 0.01475 0.0
C412 C 0.54116 0.62294 0.04383 0.0
C413 C 0.58364 0.62839 0.06551 0.0
C414 C 0.61585 0.6226 0.09268 0.0
C415 C 0.60558 0.61135 0.0986 0.0
C416 C 0.56291 0.60589 0.07742 0.0
C417 C 0.53063 0.61164 0.05018 0.0
H418 H 0.63058 0.60688 0.11965 0.0
H419 H 0.31029 0.66471 0.86169 0.0
H420 H 0.88023 0.62107 0.45231 0.0
H421 H 0.75777 0.62181 0.45057 0.0
H422 H 0.75759 0.64639 0.52463 0.0
H423 H 0.87996 0.64607 0.52498 0.0
H424 H 0.6626 0.61732 0.49116 0.0
H425 H 0.62573 0.66316 0.51696 0.0
H426 H 0.68457 0.68073 0.50558 0.0
H427 H 0.78617 0.66812 0.41921 0.0
H428 H 0.72729 0.65053 0.42979 0.0
H429 H 0.32279 0.62443 0.53298 0.0
H430 H 0.44509 0.62454 0.53268 0.0
H431 H 0.44528 0.64721 0.44314 0.0
H432 H 0.32251 0.64761 0.44471 0.0
H433 H 0.54037 0.65263 0.47956 0.0
H434 H 0.47715 0.61813 0.44121 0.0
H435 H 0.41848 0.60041 0.44285 0.0
H436 H 0.51772 0.59013 0.53659 0.0
H437 H 0.57634 0.60785 0.53575 0.0
C438 C 0.85402 0.62664 0.46819 0.0
C439 C 0.88991 0.63358 0.48856 0.0
C440 C 0.78385 0.62705 0.46723 0.0
C441 C 0.7478 0.6343 0.48697 0.0
C442 C 0.78374 0.64096 0.50828 0.0
C443 C 0.8539 0.64072 0.50866 0.0
C444 C 0.67286 0.63484 0.48545 0.0
C445 C 0.63605 0.62506 0.48857 0.0
C446 C 0.63748 0.64489 0.4812 0.0
C447 C 0.67257 0.65549 0.4744 0.0
C448 C 0.66042 0.66415 0.49546 0.0
C449 C 0.69382 0.67411 0.48916 0.0
C450 C 0.73924 0.67553 0.46176 0.0
C451 C 0.75117 0.667 0.44051 0.0
C452 C 0.71784 0.65703 0.44666 0.0
C453 C 0.34891 0.62948 0.5133 0.0
C454 C 0.31294 0.63596 0.48872 0.0
C455 C 0.41905 0.62947 0.51297 0.0
C456 C 0.45513 0.63565 0.48733 0.0
C457 C 0.4191 0.64232 0.46317 0.0
C458 C 0.34879 0.64254 0.46403 0.0
C459 C 0.53012 0.63511 0.48569 0.0
C460 C 0.56693 0.64489 0.48206 0.0
C461 C 0.56556 0.62504 0.48803 0.0
C462 C 0.53068 0.61435 0.48856 0.0
C463 C 0.48614 0.61211 0.46228 0.0
C464 C 0.45294 0.60207 0.46305 0.0
C465 C 0.46425 0.59416 0.48985 0.0
C466 C 0.50895 0.59627 0.51587 0.0
C467 C 0.54223 0.60631 0.51524 0.0
H468 H 0.43848 0.58639 0.49041 0.0
H469 H 0.7651 0.68324 0.45695 0.0
H470 H 0.74784 0.39683 0.50494 0.0
H471 H 0.6255 0.39729 0.50423 0.0
H472 H 0.61969 0.36236 0.52607 0.0
H473 H 0.74244 0.3618 0.52689 0.0
H474 H 0.53236 0.36965 0.47389 0.0
H475 H 0.58603 0.37872 0.58856 0.0
H476 H 0.64242 0.3892 0.63157 0.0
H477 H 0.54807 0.4187 0.59048 0.0
H478 H 0.49184 0.40842 0.5469 0.0
H479 H 0.19127 0.36307 0.51824 0.0
H480 H 0.31322 0.36329 0.51771 0.0
H481 H 0.3111 0.39856 0.51102 0.0
H482 H 0.18826 0.3984 0.51264 0.0
H483 H 0.40342 0.39164 0.55399 0.0
H484 H 0.34875 0.3833 0.44021 0.0
H485 H 0.29329 0.37351 0.39529 0.0
H486 H 0.39016 0.34365 0.43136 0.0
H487 H 0.4455 0.35324 0.47682 0.0
C488 C 0.72075 0.38922 0.50957 0.0
C489 C 0.75526 0.37927 0.51606 0.0
C490 C 0.65065 0.38952 0.50927 0.0
C491 C 0.61331 0.37988 0.51537 0.0
C492 C 0.64745 0.36991 0.52135 0.0
C493 C 0.71768 0.36961 0.52194 0.0
C494 C 0.53868 0.38022 0.51549 0.0
C495 C 0.50406 0.37434 0.4917 0.0
C496 C 0.50182 0.38664 0.53793 0.0
C497 C 0.53525 0.39282 0.56426 0.0
C498 C 0.57773 0.38746 0.58852 0.0
C499 C 0.60958 0.39336 0.61304 0.0
C500 C 0.59897 0.40462 0.6137 0.0
C501 C 0.55632 0.40999 0.58991 0.0
C502 C 0.5244 0.40412 0.56532 0.0
C503 C 0.21649 0.3709 0.51653 0.0
C504 C 0.17966 0.38073 0.51525 0.0
C505 C 0.28654 0.37101 0.51606 0.0
C506 C 0.3218 0.38094 0.51362 0.0
C507 C 0.28524 0.39078 0.51277 0.0
C508 C 0.21492 0.39068 0.51363 0.0
C509 C 0.39666 0.38099 0.51249 0.0
C510 C 0.43147 0.38696 0.53607 0.0
C511 C 0.43377 0.37476 0.48953 0.0
C512 C 0.40081 0.36897 0.46212 0.0
C513 C 0.35786 0.37463 0.43872 0.0
C514 C 0.3265 0.36912 0.41314 0.0
C515 C 0.33807 0.35796 0.41053 0.0
C516 C 0.38118 0.3523 0.43344 0.0
C517 C 0.41262 0.35777 0.4591 0.0
H518 H 0.31374 0.35371 0.3907 0.0
H519 H 0.62369 0.40917 0.63269 0.0
H520 H 0.81607 0.8998 0.01639 0.0
H521 H 0.93821 0.9003 0.01651 0.0
H522 H 0.9445 0.86513 0.01561 0.0
H523 H 0.82183 0.86456 0.01696 0.0
H524 H 1.0344 0.8711 0.05706 0.0
H525 H 0.97782 0.88331 0.94183 0.0
H526 H 0.92107 0.89471 0.89639 0.0
H527 H 1.01503 0.92342 0.93078 0.0
H528 H 0.07168 0.91221 0.97672 0.0
H529 H 0.37379 0.86652 0.00511 0.0
H530 H 0.25168 0.8667 0.00576 0.0
H531 H 0.25239 0.90107 0.0229 0.0
H532 H 0.3753 0.90101 0.02218 0.0
H533 H 0.16025 0.89581 0.97365 0.0
H534 H 0.21909 0.88288 0.0884 0.0
H535 H 0.27759 0.87094 0.13184 0.0
H536 H 0.18028 0.84282 0.09547 0.0
H537 H 0.12191 0.85457 0.05146 0.0
C538 C 0.84336 0.89216 0.01614 0.0
C539 C 0.80902 0.88214 0.01645 0.0
C540 C 0.91344 0.89246 0.01602 0.0
C541 C 0.9511 0.88277 0.01533 0.0
C542 C 0.91686 0.87273 0.01603 0.0
C543 C 0.84663 0.87241 0.01673 0.0
C544 C 1.02599 0.8831 0.01436 0.0
C545 C 0.06172 0.8764 0.03846 0.0
C546 C 0.06225 0.89018 0.99063 0.0
C547 C 1.02849 0.89693 0.96292 0.0
C548 C 0.98602 0.89207 0.93984 0.0
C549 C 0.95392 0.89849 0.91398 0.0
C550 C 0.9643 0.90978 0.91076 0.0
C551 C 1.00697 0.91467 0.93334 0.0
C552 C 0.03913 0.90829 0.95927 0.0
C553 C 0.34831 0.87416 0.00897 0.0
C554 C 0.38476 0.88375 0.01374 0.0
C555 C 0.27825 0.87422 0.00946 0.0
C556 C 0.24275 0.88386 0.01477 0.0
C557 C 0.27873 0.89352 0.01886 0.0
C558 C 0.34904 0.89346 0.01854 0.0
C559 C 0.16813 0.88379 0.01618 0.0
C560 C 0.13262 0.89053 0.9922 0.0
C561 C 0.13209 0.87667 0.03974 0.0
C562 C 0.16656 0.8696 0.06645 0.0
C563 C 0.21051 0.87414 0.08951 0.0
C564 C 0.2436 0.86741 0.11426 0.0
C565 C 0.23276 0.85613 0.11637 0.0
C566 C 0.18866 0.85156 0.09379 0.0
C567 C 0.15551 0.85825 0.06896 0.0
H568 H 0.25845 0.85093 0.13554 0.0
H569 H 0.93939 0.91474 0.89072 0.0
H570 H 0.25272 0.1195 0.00793 0.0
H571 H 0.13049 0.11909 0.009 0.0
H572 H 0.12494 0.15321 0.97415 0.0
H573 H 0.24762 0.15375 0.97331 0.0
H574 H 1.03533 0.14863 0.02583 0.0
H575 H 0.0936 0.13343 0.91931 0.0
H576 H 0.15135 0.12076 0.8824 0.0
H577 H 0.05582 0.09345 0.93748 0.0
H578 H 0.99818 0.10595 0.97504 0.0
H579 H 0.69508 0.15258 0.97984 0.0
H580 H 0.81709 0.15249 0.9797 0.0
H581 H 0.81668 0.1177 0.00541 0.0
H582 H 0.69378 0.11767 0.00412 0.0
H583 H 0.91006 0.12228 0.95999 0.0
H584 H 0.84657 0.13775 0.06501 0.0
H585 H 0.78746 0.15064 0.10062 0.0
H586 H 0.89363 0.17752 0.04934 0.0
H587 H 0.95181 0.16487 0.01256 0.0
C588 C 0.22574 0.12694 0.00047 0.0
C589 C 0.26036 0.13666 0.99041 0.0
C590 C 0.15564 0.12667 0.00097 0.0
C591 C 0.11832 0.13608 0.99128 0.0
C592 C 0.15259 0.14584 0.98167 0.0
C593 C 0.22283 0.14612 0.9811 0.0
C594 C 0.04361 0.13575 0.99129 0.0
C595 C 1.00786 0.14296 0.01111 0.0
C596 C 1.0077 0.12815 0.97285 0.0
C597 C 0.04211 0.12062 0.95021 0.0
C598 C 0.08532 0.12472 0.92372 0.0
C599 C 0.11796 0.11757 0.90265 0.0
C600 C 0.10741 0.1063 0.90765 0.0
C601 C 0.06403 0.10217 0.93367 0.0
C602 C 1.03132 0.10929 0.95484 0.0
C603 C 0.72079 0.1449 0.98561 0.0
C604 C 0.68453 0.13514 0.99232 0.0
C605 C 0.79082 0.14487 0.98566 0.0
C606 C 0.82655 0.13514 0.99336 0.0
C607 C 0.79047 0.12534 -0.00041 0.0
C608 C 0.72017 0.12533 -0.00109 0.0
C609 C 0.90138 0.13521 0.99446 0.0
C610 C 0.9373 0.12793 0.97488 0.0
C611 C 0.93743 0.14275 0.01323 0.0
C612 C 0.90324 0.15035 0.03581 0.0
C613 C 0.85705 0.14641 0.06115 0.0
C614 C 0.82371 0.15368 0.08156 0.0
C615 C 0.83691 0.16487 0.07733 0.0
C616 C 0.88345 0.16884 0.05261 0.0
C617 C 0.91655 0.16163 0.03191 0.0
H618 H 0.81107 0.17047 0.0932 0.0
H619 H 0.13272 0.10078 0.89131 0.0
H620 H 0.38933 0.11726 0.50995 0.0
H621 H 0.26675 0.11778 0.51026 0.0
H622 H 0.27144 0.15156 0.47172 0.0
H623 H 0.39405 0.15114 0.47131 0.0
H624 H 0.17927 0.14765 0.52544 0.0
H625 H 0.24067 0.1318 0.41967 0.0
H626 H 0.29812 0.11825 0.38581 0.0
H627 H 0.18395 0.09242 0.43788 0.0
H628 H 0.12755 0.10574 0.47303 0.0
H629 H 0.83304 0.15284 0.48503 0.0
H630 H 0.95571 0.153 0.48416 0.0
H631 H 0.95789 0.11781 0.50003 0.0
H632 H 0.83565 0.1176 0.49904 0.0
H633 H 0.04845 0.12273 0.45702 0.0
H634 H 0.99449 0.13669 0.56539 0.0
H635 H 0.94065 0.14889 0.6052 0.0
H636 H 0.04056 0.17655 0.55444 0.0
H637 H 0.09437 0.16453 0.51403 0.0
C638 C 0.36446 0.12481 0.50152 0.0
C639 C 0.40194 0.13414 0.49044 0.0
C640 C 0.29421 0.12509 0.50165 0.0
C641 C 0.25967 0.13469 0.49077 0.0
C642 C 0.29684 0.14406 0.4802 0.0
C643 C 0.3671 0.14377 0.47983 0.0
C644 C 0.18485 0.13495 0.49013 0.0
C645 C 0.15059 0.1423 0.51013 0.0
C646 C 0.14728 0.12774 0.471 0.0
C647 C 0.18024 0.11978 0.44924 0.0
C648 C 0.22814 0.12323 0.42412 0.0
C649 C 0.2605 0.11559 0.40467 0.0
C650 C 0.24454 0.1045 0.4096 0.0
C651 C 0.19626 0.10102 0.43407 0.0
C652 C 0.16419 0.1086 0.45383 0.0
C653 C 0.85973 0.14514 0.48845 0.0
C654 C 0.8244 0.13521 0.49215 0.0
C655 C 0.93011 0.14524 0.48815 0.0
C656 C 0.96691 0.13542 0.49258 0.0
C657 C 0.93134 0.12551 0.49644 0.0
C658 C 0.86116 0.1254 0.496 0.0
C659 C 0.04217 0.13539 0.49264 0.0
C660 C 0.07675 0.1281 0.4724 0.0
C661 C 0.08006 0.14248 0.51219 0.0
C662 C 0.04788 0.14973 0.53646 0.0
C663 C 1.00459 0.14538 0.56256 0.0
C664 C 0.97415 0.15226 0.58526 0.0
C665 C 0.98702 0.16349 0.58229 0.0
C666 C 1.03054 0.16785 0.55667 0.0
C667 C 0.06107 0.16101 0.53388 0.0
H668 H 0.9634 0.1688 0.59988 0.0
H669 H 0.26961 0.09861 0.39447 0.0
H670 H 0.69303 0.86328 0.51287 0.0
H671 H 0.81522 0.86352 0.51275 0.0
H672 H 0.81298 0.89859 0.51593 0.0
H673 H 0.69002 0.89846 0.51613 0.0
H674 H 0.90685 0.89088 0.46814 0.0
H675 H 0.84467 0.8837 0.587 0.0
H676 H 0.78484 0.87389 0.63529 0.0
H677 H 0.88376 0.84401 0.61289 0.0
H678 H 0.94344 0.85362 0.56412 0.0
H679 H 0.24904 0.89723 0.50878 0.0
H680 H 0.12686 0.89762 0.50807 0.0
H681 H 0.12222 0.86244 0.52315 0.0
H682 H 0.24473 0.86202 0.52501 0.0
H683 H 1.03058 0.87045 0.56161 0.0
H684 H 0.09088 0.87665 0.44323 0.0
H685 H 0.14914 0.88557 0.39286 0.0
H686 H 0.05333 0.91605 0.41127 0.0
H687 H 0.99515 0.90735 0.46204 0.0
C688 C 0.71821 0.87108 0.51345 0.0
C689 C 0.68135 0.88086 0.51463 0.0
C690 C 0.78828 0.87118 0.51349 0.0
C691 C 0.82333 0.88106 0.51461 0.0
C692 C 0.78695 0.89087 0.5151 0.0
C693 C 0.71664 0.89077 0.51536 0.0
C694 C 0.89791 0.88105 0.51572 0.0
C695 C 0.93402 0.88656 0.48882 0.0
C696 C 0.93332 0.87512 0.54215 0.0
C697 C 0.89809 0.86936 0.57173 0.0
C698 C 0.85331 0.87502 0.59222 0.0
C699 C 0.81947 0.8695 0.6197 0.0
C700 C 0.83038 0.85833 0.62711 0.0
C701 C 0.87531 0.85267 0.60711 0.0
C702 C 0.9092 0.85815 0.57956 0.0
C703 C 0.22217 0.88956 0.51186 0.0
C704 C 0.25696 0.87958 0.51681 0.0
C705 C 0.15207 0.88979 0.51127 0.0
C706 C 0.11491 0.88005 0.51496 0.0
C707 C 0.14952 0.87008 0.52018 0.0
C708 C 0.21971 0.86985 0.52117 0.0
C709 C 0.04008 0.88028 0.51393 0.0
C710 C 1.00373 0.8748 0.54088 0.0
C711 C 1.00448 0.88611 0.48726 0.0
C712 C 0.03916 0.89137 0.45665 0.0
C713 C 0.0826 0.88527 0.43669 0.0
C714 C 0.11556 0.89029 0.40804 0.0
C715 C 0.10508 0.90137 0.39893 0.0
C716 C 0.06147 0.90746 0.41839 0.0
C717 C 1.02844 0.90249 0.44708 0.0
H718 H 0.13065 0.90524 0.37675 0.0
H719 H 0.80412 0.85407 0.64838 0.0
H720 H 0.91979 0.55298 0.0224 0.0
H721 H 0.9276 0.53311 0.02266 0.0
H722 H 0.13124 0.53582 0.98503 0.0
H723 H 0.12383 0.55578 0.98474 0.0
H724 H 0.06311 0.5216 0.95022 0.0
H725 H 0.0945 0.52719 0.06925 0.0
H726 H 0.06703 0.53429 0.12527 0.0
H727 H 0.88116 0.51665 0.12892 0.0
H728 H 0.90709 0.50956 0.07267 0.0
H729 H 0.15161 0.46559 0.98042 0.0
H730 H 0.1435 0.48546 0.98009 0.0
H731 H 0.93991 0.48267 0.01775 0.0
H732 H 0.94762 0.46272 0.01808 0.0
H733 H 1.0078 0.49693 0.05251 0.0
H734 H 0.97635 0.49132 0.93357 0.0
H735 H 1.00363 0.48422 0.87753 0.0
H736 H 0.18939 0.50189 0.87367 0.0
H737 H 0.16364 0.50898 0.92995 0.0
C738 C 0.96675 0.54937 0.01476 0.0
C739 C 1.02137 0.55602 0.00378 0.0
C740 C 0.97105 0.53797 0.01482 0.0
C741 C 1.03026 0.53292 0.0042 0.0
C742 C 0.08498 0.53952 0.99331 0.0
C743 C 0.08065 0.55093 0.99314 0.0
C744 C 1.03435 0.52077 0.00362 0.0
C745 C 0.05199 0.51621 0.97275 0.0
C746 C 1.0181 0.5137 0.03271 0.0
C747 C 1.00247 0.51793 0.06659 0.0
C748 C 0.04753 0.52489 0.08187 0.0
C749 C 1.03228 0.5289 0.11369 0.0
C750 C 0.97231 0.52595 0.1306 0.0
C751 C 0.92755 0.51895 0.11577 0.0
C752 C 0.94253 0.51492 0.08394 0.0
C753 C 0.10461 0.46918 0.98805 0.0
C754 C 0.05009 0.46251 -0.00095 0.0
C755 C 0.10012 0.48057 0.98795 0.0
C756 C 0.04085 0.48561 -0.00144 0.0
C757 C 0.98623 0.47899 0.00947 0.0
C758 C 0.99073 0.46758 0.00967 0.0
C759 C 0.03659 0.49775 -0.00088 0.0
C760 C 1.01892 0.50232 0.02999 0.0
C761 C 0.0528 0.50483 0.97002 0.0
C762 C 0.06833 0.5006 0.93613 0.0
C763 C 1.02326 0.49363 0.9209 0.0
C764 C 0.0384 0.48962 0.88907 0.0
C765 C 0.09828 0.49258 0.87209 0.0
C766 C 0.14306 0.49959 0.88687 0.0
C767 C 0.12819 0.50361 0.91872 0.0
H768 H 0.10991 0.48947 0.84745 0.0
H769 H 0.9606 0.52906 0.15523 0.0
H770 H 0.12086 0.45955 0.51856 0.0
H771 H 0.12972 0.47946 0.51837 0.0
H772 H 0.92977 0.4828 0.47816 0.0
H773 H 0.92038 0.46294 0.47842 0.0
H774 H 1.01084 0.49767 0.44653 0.0
H775 H 0.96149 0.48547 0.56342 0.0
H776 H 0.97812 0.47457 0.61808 0.0
H777 H 0.17306 0.48874 0.62752 0.0
H778 H 0.15797 0.49962 0.57264 0.0
H779 H 0.95606 0.55315 0.48217 0.0
H780 H 0.94735 0.53324 0.48195 0.0
H781 H 0.14724 0.52985 0.52222 0.0
H782 H 0.15646 0.54971 0.52238 0.0
H783 H 0.06609 0.515 0.55379 0.0
H784 H 0.11523 0.52723 0.43682 0.0
H785 H 0.09832 0.53813 0.3822 0.0
H786 H 0.90339 0.52394 0.37295 0.0
H787 H 0.91878 0.51305 0.4278 0.0
C788 C 0.07869 0.46451 0.50972 0.0
C789 C 1.01986 0.45959 0.49856 0.0
C790 C 0.08383 0.47591 0.50963 0.0
C791 C 1.03006 0.48267 0.49868 0.0
C792 C 0.97199 0.47779 0.4867 0.0
C793 C 0.96685 0.46641 0.48672 0.0
C794 C 1.03381 0.49478 0.50012 0.0
C795 C 1.0221 0.50146 0.4701 0.0
C796 C 0.04978 0.49977 0.53067 0.0
C797 C 0.05886 0.49327 0.56375 0.0
C798 C 1.00811 0.4862 0.57702 0.0
C799 C 1.01723 0.48004 0.60806 0.0
C800 C 0.07668 0.48094 0.62622 0.0
C801 C 0.12708 0.48804 0.61341 0.0
C802 C 0.11825 0.49421 0.58235 0.0
C803 C 0.99828 0.54817 0.49089 0.0
C804 C 0.05701 0.55308 0.50224 0.0
C805 C 0.99322 0.53678 0.49075 0.0
C806 C 0.04698 0.53001 0.50166 0.0
C807 C 0.10502 0.53487 0.51372 0.0
C808 C 0.11007 0.54625 0.51394 0.0
C809 C 0.04318 0.5179 0.50019 0.0
C810 C 0.05485 0.51122 0.53021 0.0
C811 C 1.02714 0.51291 0.46965 0.0
C812 C 1.0179 0.51941 0.43659 0.0
C813 C 0.06856 0.52649 0.42327 0.0
C814 C 0.05928 0.53266 0.39225 0.0
C815 C 0.99975 0.53175 0.37416 0.0
C816 C 0.94944 0.52465 0.38702 0.0
C817 C 0.95843 0.51847 0.41806 0.0
H818 H 0.99266 0.53653 0.35015 0.0
H819 H 0.08364 0.47616 0.65025 0.0
H820 H 0.49138 0.96341 0.05491 0.0
H821 H 0.48565 0.98327 0.05189 0.0
H822 H 0.57799 0.98467 0.95135 0.0
H823 H 0.58828 0.96477 0.95521 0.0
H824 H 0.63272 0.99932 0.98596 0.0
H825 H 0.40483 0.99014 0.96588 0.0
H826 H 0.2967 0.98077 0.97673 0.0
H827 H 0.27722 0.99526 0.07335 0.0
H828 H 0.3857 1.00461 0.06329 0.0
H829 H 0.55253 0.05598 0.94901 0.0
H830 H 0.56041 0.03609 0.94895 0.0
H831 H 0.49627 0.03304 0.05487 0.0
H832 H 0.48977 0.05294 0.05548 0.0
H833 H 0.42614 0.01943 0.01501 0.0
H834 H 0.65736 0.0284 0.03371 0.0
H835 H 0.7641 0.03796 0.02055 0.0
H836 H 0.77431 0.02403 0.92273 0.0
H837 H 0.66711 0.0145 0.93512 0.0
C838 C 0.51092 0.9679 0.03217 0.0
C839 C 0.54068 0.96238 0.00539 0.0
C840 C 0.5067 0.97931 0.03026 0.0
C841 C 0.53056 0.98556 0.00118 0.0
C842 C 0.55904 0.98008 0.97408 0.0
C843 C 0.56411 0.96865 0.97615 0.0
C844 C 0.52808 0.99777 -0.00028 0.0
C845 C 0.58714 1.0037 0.99175 0.0
C846 C 0.4691 1.00358 0.00787 0.0
C847 C 0.4037 0.998 0.01395 0.0
C848 C 0.37772 0.99127 0.98955 0.0
C849 C 0.31632 0.98597 0.99554 0.0
C850 C 0.28019 0.9874 0.02574 0.0
C851 C 0.3053 0.99416 0.04998 0.0
C852 C 0.3667 0.99947 0.04413 0.0
C853 C 0.54145 0.05112 0.97256 0.0
C854 C 0.52051 0.05614 0.00227 0.0
C855 C 0.54562 0.03971 0.9724 0.0
C856 C 0.52902 0.03304 0.00192 0.0
C857 C 0.50897 0.038 0.03172 0.0
C858 C 0.50513 0.0494 0.03198 0.0
C859 C 0.53071 0.0209 0.0015 0.0
C860 C 0.4715 0.01501 0.00909 0.0
C861 C 0.58926 0.01515 0.9926 0.0
C862 C 0.65388 0.02083 0.98521 0.0
C863 C 0.6821 0.02745 0.00928 0.0
C864 C 0.74273 0.03285 0.00198 0.0
C865 C 0.77588 0.03163 0.97079 0.0
C866 C 0.74854 0.02498 0.94686 0.0
C867 C 0.68788 0.01957 0.95402 0.0
H868 H 0.82282 0.03582 0.96518 0.0
H869 H 0.23268 0.98329 0.03033 0.0
H870 H 0.64121 0.05166 0.45491 0.0
H871 H 0.63131 0.03182 0.45376 0.0
H872 H 0.46644 0.03199 0.52596 0.0
H873 H 0.4754 0.05185 0.52693 0.0
H874 H 0.55762 0.01655 0.54517 0.0
H875 H 0.44146 0.02778 0.44116 0.0
H876 H 0.42883 0.03754 0.38429 0.0
H877 H 0.5968 0.01997 0.34581 0.0
H878 H 0.61101 0.0102 0.40261 0.0
H879 H 0.44272 0.96261 0.53998 0.0
H880 H 0.45278 0.98247 0.53499 0.0
H881 H 0.60686 0.98016 0.4575 0.0
H882 H 0.59562 0.96015 0.46187 0.0
H883 H 0.52695 0.99668 0.44001 0.0
H884 H 0.64371 0.98529 0.54245 0.0
H885 H 0.65967 0.97556 0.59913 0.0
H886 H 0.49626 0.99352 0.64053 0.0
H887 H 0.4787 1.00326 0.58397 0.0
C888 C 0.60192 0.04753 0.47004 0.0
C889 C 0.55909 0.05341 0.49102 0.0
C890 C 0.59649 0.03615 0.46944 0.0
C891 C 0.54793 0.03038 0.48966 0.0
C892 C 0.50451 0.03624 0.51023 0.0
C893 C 0.50983 0.04761 0.51082 0.0
C894 C 0.54394 0.01821 0.49049 0.0
C895 C 0.54999 0.01222 0.52222 0.0
C896 C 0.53639 0.01251 0.46043 0.0
C897 C 0.5277 0.01834 0.42623 0.0
C898 C 0.47604 0.02606 0.42065 0.0
C899 C 0.46853 0.03158 0.38841 0.0
C900 C 0.51209 0.0294 0.36148 0.0
C901 C 0.56315 0.02166 0.36671 0.0
C902 C 0.57091 0.01612 0.39891 0.0
C903 C 0.47912 0.96631 0.52202 0.0
C904 C 0.51909 0.95979 0.50167 0.0
C905 C 0.48489 0.97769 0.5192 0.0
C906 C 0.5317 0.98287 0.49643 0.0
C907 C 0.57062 0.97639 0.47541 0.0
C908 C 0.56424 0.96496 0.47793 0.0
C909 C 0.53973 0.995 0.4948 0.0
C910 C 0.5347 1.001 0.46296 0.0
C911 C 0.54884 1.00073 0.52475 0.0
C912 C 0.55955 0.99494 0.55889 0.0
C913 C 0.61089 0.98712 0.56359 0.0
C914 C 0.62026 0.9816 0.5957 0.0
C915 C 0.57891 0.9839 0.62339 0.0
C916 C 0.52822 0.99174 0.61905 0.0
C917 C 0.51858 0.99727 0.58698 0.0
H918 H 0.58623 0.97963 0.64823 0.0
H919 H 0.5062 0.03368 0.33654 0.0
H920 H 0.18743 0.30323 0.95057 0.0
H921 H 0.2212 0.28405 0.9504 0.0
H922 H 0.25991 0.28341 0.0589 0.0
H923 H 0.22586 0.30258 0.05933 0.0
H924 H 0.357 0.27276 0.026 0.0
H925 H 0.11637 0.27245 0.02909 0.0
H926 H 1.00314 0.27775 0.0094 0.0
H927 H 0.04403 0.26474 0.91203 0.0
H928 H 0.1579 0.2595 0.93097 0.0
H929 H 0.38037 0.21499 0.05205 0.0
H930 H 0.34317 0.23389 0.05574 0.0
H931 H 0.29197 0.23564 0.94853 0.0
H932 H 0.32597 0.21662 0.94504 0.0
H933 H 0.19985 0.2457 0.98279 0.0
H934 H 0.44074 0.24654 0.97833 0.0
H935 H 0.55494 0.24143 -0.00303 0.0
H936 H 0.51479 0.25359 0.09565 0.0
H937 H 0.39998 0.25864 0.07773 0.0
C938 C 0.20295 0.29901 0.97444 0.0
C939 C 0.2035 0.30446 0.005 0.0
C940 C 0.2223 0.28803 0.9743 0.0
C941 C 0.24214 0.28221 0.00475 0.0
C942 C 0.24473 0.28771 0.03508 0.0
C943 C 0.2255 0.2987 0.03524 0.0
C944 C 0.25921 0.27036 0.00506 0.0
C945 C 0.32227 0.26682 0.017 0.0
C946 C 0.2145 0.26261 0.99269 0.0
C947 C 0.14586 0.26567 0.98135 0.0
C948 C 0.10137 0.27079 0.00339 0.0
C949 C 0.03706 0.27377 0.99238 0.0
C950 C 1.01645 0.27161 0.95946 0.0
C951 C 0.06008 0.26642 0.93751 0.0
C952 C 0.12449 0.26344 0.94838 0.0
C953 C 0.3601 0.21932 0.02938 0.0
C954 C 0.35681 0.21426 -0.00185 0.0
C955 C 0.3396 0.2302 0.03143 0.0
C956 C 0.31597 0.23631 0.00223 0.0
C957 C 0.31045 0.23116 0.97137 0.0
C958 C 0.33054 0.22028 0.96935 0.0
C959 C 0.29791 0.2481 0.00352 0.0
C960 C 0.23458 0.25163 0.99189 0.0
C961 C 0.3425 0.25585 0.01604 0.0
C962 C 0.41156 0.25286 0.02681 0.0
C963 C 0.45611 0.24805 0.00409 0.0
C964 C 0.52097 0.24518 0.01451 0.0
C965 C 0.54205 0.24716 0.04751 0.0
C966 C 0.49835 0.25205 0.07012 0.0
C967 C 0.4334 0.25492 0.05984 0.0
H968 H 0.59228 0.24493 0.05553 0.0
H969 H 0.96664 0.27393 0.95098 0.0
H970 H 0.60172 0.79667 0.01779 0.0
H971 H 0.64013 0.77777 0.01696 0.0
H972 H 0.8399 0.78901 0.99064 0.0
H973 H 0.80136 0.80803 0.99065 0.0
H974 H 0.80174 0.77251 0.95178 0.0
H975 H 0.80231 0.77897 0.07155 0.0
H976 H 0.75418 0.7846 0.126 0.0
H977 H 0.60306 0.75981 0.12324 0.0
H978 H 0.64975 0.75412 0.06849 0.0
H979 H 0.96988 0.72217 0.98176 0.0
H980 H 0.93194 0.741 0.98516 0.0
H981 H 0.73502 0.72949 0.01632 0.0
H982 H 0.77311 0.71052 0.01322 0.0
H983 H 0.77088 0.74613 0.05278 0.0
H984 H 0.76831 0.7397 0.93334 0.0
H985 H 0.81449 0.73403 0.87851 0.0
H986 H 0.96645 0.75873 0.87994 0.0
H987 H 0.92173 0.76446 0.93505 0.0
C988 C 0.65374 0.79515 0.0115 0.0
C989 C 0.6984 0.8039 0.00417 0.0
C990 C 0.67579 0.78432 0.01139 0.0
C991 C 0.7431 0.78194 0.0041 0.0
C992 C 0.78777 0.79064 -0.00354 0.0
C993 C 0.76577 0.8015 -0.0033 0.0
C994 C 0.7665 0.77039 0.00406 0.0
C995 C 0.7959 0.76679 0.97403 0.0
C996 C 0.75716 0.76281 0.03275 0.0
C997 C 0.72915 0.76619 0.06575 0.0
C998 C 0.75849 0.77477 0.08241 0.0
C999 C 0.73153 0.77797 0.11335 0.0
C1000 C 0.67549 0.77259 0.12803 0.0
C1001 C 0.64641 0.76398 0.11182 0.0
C1002 C 0.67314 0.76076 0.08085 0.0
C1003 C 0.91836 0.72363 0.98919 0.0
C1004 C 0.87428 0.71483 -0.0032 0.0
C1005 C 0.8967 0.73442 0.99112 0.0
C1006 C 0.83018 0.73671 0.00032 0.0
C1007 C 0.78651 0.72794 0.009 0.0
C1008 C 0.80834 0.7171 0.00728 0.0
C1009 C 0.80637 0.74825 0.00051 0.0
C1010 C 0.77679 0.75185 0.03052 0.0
C1011 C 0.81522 0.75582 0.97173 0.0
C1012 C 0.84203 0.75244 0.93849 0.0
C1013 C 0.81187 0.74387 0.92209 0.0
C1014 C 0.83774 0.74065 0.89094 0.0
C1015 C 0.89347 0.74599 0.87579 0.0
C1016 C 0.92333 0.75459 0.89173 0.0
C1017 C 0.89771 0.75783 0.9229 0.0
H1018 H 0.91343 0.74349 0.85168 0.0
H1019 H 0.65469 0.77507 0.15199 0.0
H1020 H 0.27846 0.71158 0.45284 0.0
H1021 H 0.31104 0.73066 0.45605 0.0
H1022 H 0.18651 0.73284 0.54623 0.0
H1023 H 0.15139 0.71388 0.54233 0.0
H1024 H 0.16782 0.75024 0.50367 0.0
H1025 H 0.36093 0.73145 0.55025 0.0
H1026 H 0.45468 0.71829 0.55124 0.0
H1027 H 0.5377 0.73466 0.45982 0.0
H1028 H 0.44392 0.74783 0.45802 0.0
H1029 H 0.29394 0.80095 0.55351 0.0
H1030 H 0.26192 0.78184 0.55044 0.0
H1031 H 0.38585 0.77973 0.46002 0.0
H1032 H 0.42034 0.79873 0.46375 0.0
H1033 H 0.40495 0.76229 0.5027 0.0
H1034 H 0.21177 0.78107 0.45612 0.0
H1035 H 0.11798 0.79422 0.45512 0.0
H1036 H 1.03509 0.77787 0.54659 0.0
H1037 H 0.1289 0.76471 0.54839 0.0
C1038 C 0.25775 0.71611 0.47334 0.0
C1039 C 0.21214 0.71113 0.49731 0.0
C1040 C 0.27703 0.72702 0.47535 0.0
C1041 C 0.25184 0.73322 0.5016 0.0
C1042 C 0.20685 0.72825 0.52577 0.0
C1043 C 0.18735 0.71734 0.52371 0.0
C1044 C 0.27081 0.74496 0.50325 0.0
C1045 C 0.21971 0.75285 0.50397 0.0
C1046 C 0.33849 0.74845 0.50274 0.0
C1047 C 0.39505 0.74056 0.50383 0.0
C1048 C 0.3989 0.73219 0.53021 0.0
C1049 C 0.4521 0.72474 0.53094 0.0
C1050 C 0.50202 0.72562 0.50556 0.0
C1051 C 0.49895 0.73398 0.47944 0.0
C1052 C 0.44582 0.74144 0.47857 0.0
C1053 C 0.31466 0.79643 0.533 0.0
C1054 C 0.35987 0.80145 0.50889 0.0
C1055 C 0.29571 0.7855 0.53108 0.0
C1056 C 0.32086 0.77931 0.50479 0.0
C1057 C 0.36555 0.78431 0.48051 0.0
C1058 C 0.3847 0.79524 0.48247 0.0
C1059 C 0.30195 0.76758 0.50313 0.0
C1060 C 0.35306 0.75969 0.5024 0.0
C1061 C 0.23428 0.76408 0.50365 0.0
C1062 C 0.17772 0.77197 0.50256 0.0
C1063 C 0.17382 0.78033 0.47617 0.0
C1064 C 0.1206 0.78778 0.47543 0.0
C1065 C 0.0707 0.7869 0.50083 0.0
C1066 C 0.07383 0.77855 0.52696 0.0
C1067 C 0.12697 0.77109 0.52783 0.0
H1068 H 1.02955 0.79267 0.50021 0.0
H1069 H 0.54316 0.71985 0.50618 0.0
H1070 H 0.7681 0.30486 0.50038 0.0
H1071 H 0.73081 0.28593 0.49654 0.0
H1072 H 0.93238 0.27449 0.5156 0.0
H1073 H 0.97005 0.29334 0.51887 0.0
H1074 H 0.87516 0.26384 0.46485 0.0
H1075 H 0.81505 0.27289 0.57916 0.0
H1076 H 0.76072 0.28382 0.62234 0.0
H1077 H 0.56817 0.27787 0.57932 0.0
H1078 H 0.6215 0.26702 0.53556 0.0
H1079 H 0.804 0.20754 0.50089 0.0
H1080 H 0.84117 0.22633 0.50635 0.0
H1081 H 0.637 0.23764 0.49653 0.0
H1082 H 0.59916 0.21887 0.49287 0.0
H1083 H 0.69572 0.24847 0.54253 0.0
H1084 H 0.75354 0.23969 0.42807 0.0
H1085 H 0.80617 0.22899 0.38378 0.0
H1086 H 1.00036 0.23469 0.4253 0.0
H1087 H 0.94876 0.24531 0.47014 0.0
C1088 C 0.80456 0.29832 0.50341 0.0
C1089 C 0.87197 0.30063 0.51022 0.0
C1090 C 0.7831 0.28749 0.50149 0.0
C1091 C 0.82862 0.27875 0.50622 0.0
C1092 C 0.89622 0.28107 0.51202 0.0
C1093 C 0.91758 0.29186 0.51414 0.0
C1094 C 0.80602 0.26717 0.50552 0.0
C1095 C 0.83646 0.26044 0.48211 0.0
C1096 C 0.75451 0.26276 0.5275 0.0
C1097 C 0.72234 0.26924 0.55388 0.0
C1098 C 0.76118 0.27398 0.57874 0.0
C1099 C 0.73056 0.28015 0.60335 0.0
C1100 C 0.66106 0.28156 0.60352 0.0
C1101 C 0.62201 0.27678 0.57913 0.0
C1102 C 0.6524 0.27062 0.55443 0.0
C1103 C 0.7668 0.21399 0.50047 0.0
C1104 C 0.69853 0.21163 0.49604 0.0
C1105 C 0.78827 0.22478 0.50316 0.0
C1106 C 0.74215 0.2335 0.50111 0.0
C1107 C 0.6738 0.23112 0.49791 0.0
C1108 C 0.65227 0.22034 0.49547 0.0
C1109 C 0.76479 0.2451 0.50179 0.0
C1110 C 0.7344 0.25184 0.52522 0.0
C1111 C 0.81605 0.24955 0.47965 0.0
C1112 C 0.84722 0.2432 0.45266 0.0
C1113 C 0.80742 0.23859 0.4279 0.0
C1114 C 0.83707 0.23255 0.40268 0.0
C1115 C 0.90655 0.23113 0.40179 0.0
C1116 C 0.94654 0.23578 0.42606 0.0
C1117 C 0.91713 0.24182 0.45137 0.0
H1118 H 0.92941 0.22646 0.38224 0.0
H1119 H 0.63744 0.28634 0.62259 0.0
H1120 H 0.1254 0.39704 0.12582 0.0
H1121 H 0.10701 0.39719 0.18778 0.0
H1122 H 1.00829 0.36591 0.18827 0.0
H1123 H 1.02503 0.36582 0.12632 0.0
H1124 H 0.93892 0.37904 0.2255 0.0
H1125 H 0.17101 0.36879 0.21812 0.0
H1126 H 0.28864 0.37074 0.1987 0.0
H1127 H 0.30203 0.40144 0.2449 0.0
H1128 H 0.18415 0.39975 0.2642 0.0
H1129 H 0.94069 0.36511 0.40506 0.0
H1130 H 0.95947 0.36562 0.34308 0.0
H1131 H 0.04974 0.39749 0.34519 0.0
H1132 H 1.03202 0.39701 0.40723 0.0
H1133 H 0.12323 0.38451 0.30675 0.0
H1134 H 0.89124 0.3945 0.31496 0.0
H1135 H 0.77377 0.39242 0.33449 0.0
H1136 H 0.76054 0.36197 0.2868 0.0
H1137 H 0.87828 0.3638 0.26738 0.0
C1138 C 0.10011 0.39016 0.13914 0.0
C1139 C 0.07685 0.3814 0.12109 0.0
C1140 C 0.0898 0.39024 0.17462 0.0
C1141 C 0.05685 0.3815 0.19284 0.0
C1142 C 1.03377 0.37275 0.17483 0.0
C1143 C 0.0436 0.3727 0.13937 0.0
C1144 C 0.04511 0.38154 0.23053 0.0
C1145 C 0.97942 0.38009 0.24328 0.0
C1146 C 0.09758 0.38319 0.25375 0.0
C1147 C 0.16855 0.38419 0.2423 0.0
C1148 C 0.19889 0.376 0.22391 0.0
C1149 C 0.26563 0.37705 0.21297 0.0
C1150 C 0.30273 0.38622 0.22048 0.0
C1151 C 0.2732 0.39435 0.23905 0.0
C1152 C 0.20645 0.39334 0.25003 0.0
C1153 C 0.96426 0.37226 0.39238 0.0
C1154 C 0.98466 0.38103 0.41121 0.0
C1155 C 0.97479 0.37255 0.35687 0.0
C1156 C 1.00548 0.38164 0.33938 0.0
C1157 C 1.02597 0.39039 0.3581 0.0
C1158 C 1.01552 0.39012 0.39361 0.0
C1159 C 1.01716 0.38194 0.30167 0.0
C1160 C 0.08279 0.38347 0.28893 0.0
C1161 C 0.96468 0.38034 0.27845 0.0
C1162 C 0.89379 0.37924 0.29 0.0
C1163 C 0.86345 0.38732 0.30886 0.0
C1164 C 0.79678 0.38619 0.31987 0.0
C1165 C 0.75977 0.37705 0.31196 0.0
C1166 C 0.7893 0.36904 0.29294 0.0
C1167 C 0.85598 0.37012 0.2819 0.0
H1168 H 0.70816 0.37619 0.32051 0.0
H1169 H 0.35439 0.38702 0.21198 0.0
H1170 H 0.04491 0.61952 0.09657 0.0
H1171 H 0.0644 0.61949 0.15814 0.0
H1172 H 0.94634 0.64889 0.16259 0.0
H1173 H 0.92778 0.64912 0.10082 0.0
H1174 H 0.05805 0.65069 0.1973 0.0
H1175 H 0.88647 0.6235 0.19361 0.0
H1176 H 0.83328 0.60681 0.17485 0.0
H1177 H 0.99804 0.58749 0.21492 0.0
H1178 H 0.05268 0.60409 0.23352 0.0
H1179 H 1.02194 0.6497 0.37849 0.0
H1180 H 1.00188 0.64937 0.31704 0.0
H1181 H 0.12808 0.62087 0.3129 0.0
H1182 H 0.14784 0.62105 0.37457 0.0
H1183 H 1.0129 0.61852 0.27821 0.0
H1184 H 0.18378 0.64589 0.28212 0.0
H1185 H 0.23551 0.66265 0.30127 0.0
H1186 H 0.06982 0.68171 0.26104 0.0
H1187 H 1.01662 0.66504 0.24206 0.0
C1188 C 1.02259 0.62594 0.11063 0.0
C1189 C 0.98465 0.63432 0.09367 0.0
C1190 C 1.03364 0.62589 0.14593 0.0
C1191 C 1.00632 0.63413 0.16516 0.0
C1192 C 0.96799 0.64245 0.14834 0.0
C1193 C 0.95722 0.64254 0.113 0.0
C1194 C 1.01932 0.63426 0.20258 0.0
C1195 C 0.04723 0.64371 0.21504 0.0
C1196 C 1.00684 0.62506 0.2257 0.0
C1197 C 0.97397 0.61506 0.21466 0.0
C1198 C 0.91161 0.61571 0.19819 0.0
C1199 C 0.88115 0.60626 0.18762 0.0
C1200 C 0.91235 0.5961 0.19361 0.0
C1201 C 0.97398 0.59537 0.21026 0.0
C1202 C 1.00468 0.60479 0.22085 0.0
C1203 C 0.04578 0.64338 0.36454 0.0
C1204 C 0.0867 0.63541 0.3815 0.0
C1205 C 1.03437 0.64323 0.32933 0.0
C1206 C 0.06395 0.63516 0.31025 0.0
C1207 C 0.10477 0.62719 0.32709 0.0
C1208 C 0.11625 0.62733 0.36234 0.0
C1209 C 0.0514 0.63495 0.27285 0.0
C1210 C 1.02366 0.6255 0.26042 0.0
C1211 C 0.06381 0.64415 0.24977 0.0
C1212 C 0.09593 0.6542 0.26095 0.0
C1213 C 0.15814 0.65364 0.27758 0.0
C1214 C 0.18777 0.66313 0.28837 0.0
C1215 C 0.1559 0.67323 0.28245 0.0
C1216 C 0.09441 0.67388 0.26564 0.0
C1217 C 0.06453 0.66441 0.25483 0.0
H1218 H 0.17891 0.68057 0.29083 0.0
H1219 H 0.88869 0.5888 0.18541 0.0
H1220 H 0.93223 0.62231 0.8768 0.0
H1221 H 0.95128 0.62178 0.81499 0.0
H1222 H 0.07431 0.65065 0.81537 0.0
H1223 H 0.05492 0.65133 0.87703 0.0
H1224 H 0.99051 0.65177 0.76129 0.0
H1225 H 0.14527 0.62557 0.81271 0.0
H1226 H 0.17806 0.60955 0.85047 0.0
H1227 H 0.05075 0.58902 0.79466 0.0
H1228 H 1.01644 0.60496 0.75685 0.0
H1229 H 0.14223 0.64853 0.59747 0.0
H1230 H 0.12457 0.64902 0.65935 0.0
H1231 H 1.00774 0.61944 0.66014 0.0
H1232 H 1.0263 0.61875 0.59844 0.0
H1233 H 0.08857 0.61869 0.71381 0.0
H1234 H 0.93307 0.64477 0.66263 0.0
H1235 H 0.89881 0.66075 0.62508 0.0
H1236 H 1.02571 0.68146 0.68048 0.0
H1237 H 0.06146 0.66556 0.71808 0.0
C1238 C 0.96311 0.62858 0.86374 0.0
C1239 C 0.9922 0.63684 0.88193 0.0
C1240 C 0.9742 0.62823 0.82841 0.0
C1241 C 1.01489 0.6361 0.8106 0.0
C1242 C 0.04282 0.64449 0.82856 0.0
C1243 C 1.03178 0.64484 0.86387 0.0
C1244 C 1.02892 0.63555 0.77332 0.0
C1245 C 1.01274 0.64459 0.75094 0.0
C1246 C 0.05661 0.62609 0.75972 0.0
C1247 C 0.07781 0.61648 0.78215 0.0
C1248 C 0.12392 0.61765 0.80863 0.0
C1249 C 0.14283 0.60859 0.83002 0.0
C1250 C 0.11638 0.59828 0.82502 0.0
C1251 C 0.07114 0.59701 0.79853 0.0
C1252 C 0.05198 0.60606 0.77709 0.0
C1253 C 0.113 0.6421 0.61079 0.0
C1254 C 0.08547 0.63363 0.5929 0.0
C1255 C 0.10269 0.64242 0.64619 0.0
C1256 C 0.06395 0.63435 0.66437 0.0
C1257 C 0.03768 0.62576 0.64669 0.0
C1258 C 0.04826 0.6254 0.61135 0.0
C1259 C 0.05014 0.63492 0.70171 0.0
C1260 C 0.06635 0.62588 0.72411 0.0
C1261 C 1.02231 0.64437 0.71533 0.0
C1262 C 1.00042 0.65396 0.69296 0.0
C1263 C 0.95402 0.65272 0.66666 0.0
C1264 C 0.93429 0.66176 0.64538 0.0
C1265 C 0.9602 0.67211 0.65034 0.0
C1266 C 1.00575 0.67343 0.67665 0.0
C1267 C 1.02572 0.66441 0.69797 0.0
H1268 H 0.94489 0.6791 0.63383 0.0
H1269 H 0.13104 0.59127 0.84162 0.0
H1270 H 0.03926 0.36463 0.62972 0.0
H1271 H 0.05696 0.36596 0.69103 0.0
H1272 H 0.94673 0.39631 0.68734 0.0
H1273 H 0.92915 0.3951 0.62579 0.0
H1274 H 0.06248 0.39764 0.72321 0.0
H1275 H 0.87558 0.37328 0.7224 0.0
H1276 H 0.81279 0.35717 0.70605 0.0
H1277 H 0.96345 0.33594 0.75169 0.0
H1278 H 1.02768 0.35194 0.7679 0.0
H1279 H 1.03051 0.39963 0.90523 0.0
H1280 H 1.00972 0.39927 0.84375 0.0
H1281 H 0.11353 0.3684 0.84223 0.0
H1282 H 0.13388 0.36862 0.90368 0.0
H1283 H 0.99703 0.36777 0.80905 0.0
H1284 H 0.18528 0.39211 0.80861 0.0
H1285 H 0.24864 0.4082 0.82463 0.0
H1286 H 0.09575 0.42945 0.78126 0.0
H1287 H 1.03098 0.41347 0.76539 0.0
C1288 C 1.01842 0.37157 0.64191 0.0
C1289 C 0.98253 0.37974 0.62281 0.0
C1290 C 1.02846 0.3723 0.67703 0.0
C1291 C 1.00269 0.38119 0.69387 0.0
C1292 C 0.96699 0.38938 0.67489 0.0
C1293 C 0.95672 0.38864 0.63974 0.0
C1294 C 1.01396 0.38198 0.73116 0.0
C1295 C 0.04725 0.39119 0.74206 0.0
C1296 C 0.99538 0.37346 0.75567 0.0
C1297 C 0.95675 0.36382 0.74609 0.0
C1298 C 0.8956 0.36518 0.72872 0.0
C1299 C 0.8597 0.35607 0.71951 0.0
C1300 C 0.8842 0.34554 0.72775 0.0
C1301 C 0.94458 0.3441 0.74529 0.0
C1302 C 0.98072 0.35319 0.75453 0.0
C1303 C 0.04942 0.3928 0.8918 0.0
C1304 C 0.08391 0.38416 0.90947 0.0
C1305 C 0.03761 0.39262 0.85659 0.0
C1306 C 0.06037 0.38383 0.83829 0.0
C1307 C 0.09539 0.37526 0.8558 0.0
C1308 C 0.10721 0.37543 0.89096 0.0
C1309 C 0.0461 0.38339 0.80112 0.0
C1310 C 1.01213 0.37424 0.79024 0.0
C1311 C 0.06408 0.39196 0.77666 0.0
C1312 C 0.10294 0.40159 0.78615 0.0
C1313 C 0.16489 0.40021 0.80276 0.0
C1314 C 0.20111 0.40931 0.81176 0.0
C1315 C 0.17614 0.41984 0.80406 0.0
C1316 C 0.11497 0.42129 0.78726 0.0
C1317 C 0.07851 0.41221 0.77823 0.0
H1318 H 0.20427 0.42688 0.81104 0.0
H1319 H 0.85633 0.3385 0.72061 0.0
H1320 H 0.62567 0.89684 0.12629 0.0
H1321 H 0.60566 0.89723 0.18804 0.0
H1322 H 0.50431 0.86616 0.18875 0.0
H1323 H 0.52278 0.86583 0.12694 0.0
H1324 H 0.43561 0.87968 0.22572 0.0
H1325 H 0.66642 0.86856 0.21896 0.0
H1326 H 0.78432 0.87005 0.19968 0.0
H1327 H 0.80155 0.90085 0.245 0.0
H1328 H 0.68342 0.89961 0.26417 0.0
H1329 H 0.4373 0.86575 0.40535 0.0
H1330 H 0.45485 0.8663 0.34329 0.0
H1331 H 0.54882 0.89789 0.3454 0.0
H1332 H 0.53225 0.89737 0.40754 0.0
H1333 H 0.6206 0.88462 0.30703 0.0
H1334 H 0.39045 0.89544 0.31537 0.0
H1335 H 0.27299 0.89377 0.33528 0.0
H1336 H 0.25458 0.86345 0.28729 0.0
H1337 H 0.37229 0.86485 0.26754 0.0
C1338 C 0.59944 0.89006 0.1396 0.0
C1339 C 0.57612 0.88128 0.12165 0.0
C1340 C 0.58816 0.89028 0.17496 0.0
C1341 C 0.55409 0.88166 0.19319 0.0
C1342 C 0.53069 0.87291 0.17529 0.0
C1343 C 0.54156 0.87271 0.13993 0.0
C1344 C 0.54212 0.8818 0.23083 0.0
C1345 C 0.4762 0.88062 0.24353 0.0
C1346 C 0.59477 0.8833 0.25407 0.0
C1347 C 0.66589 0.88404 0.2427 0.0
C1348 C 0.69521 0.87569 0.22459 0.0
C1349 C 0.7621 0.87648 0.21372 0.0
C1350 C 0.80035 0.88555 0.22103 0.0
C1351 C 0.77183 0.89383 0.23932 0.0
C1352 C 0.70494 0.89308 0.25021 0.0
C1353 C 0.46138 0.87286 0.39266 0.0
C1354 C 0.48325 0.88153 0.41152 0.0
C1355 C 0.47119 0.87317 0.3571 0.0
C1356 C 0.50265 0.88218 0.33961 0.0
C1357 C 0.52443 0.89085 0.35834 0.0
C1358 C 0.51466 0.89055 0.39389 0.0
C1359 C 0.5142 0.88245 0.3019 0.0
C1360 C 0.58001 0.88371 0.2892 0.0
C1361 C 0.46147 0.881 0.27868 0.0
C1362 C 0.39043 0.8802 0.29025 0.0
C1363 C 0.36152 0.88837 0.30928 0.0
C1364 C 0.29487 0.88748 0.32051 0.0
C1365 C 0.25641 0.8785 0.31263 0.0
C1366 C 0.28446 0.8704 0.29341 0.0
C1367 C 0.35113 0.87124 0.28217 0.0
H1368 H 0.20483 0.87783 0.32136 0.0
H1369 H 0.85213 0.88615 0.21259 0.0
H1370 H 0.48653 0.15108 0.10105 0.0
H1371 H 0.50541 0.14974 0.16309 0.0
H1372 H 0.5042 0.11459 0.16361 0.0
H1373 H 0.48747 0.11582 0.10133 0.0
H1374 H 0.41547 0.13177 0.21834 0.0
H1375 H 0.62754 0.11527 0.17747 0.0
H1376 H 0.72601 0.1155 0.13871 0.0
H1377 H 0.77796 0.14752 0.16789 0.0
H1378 H 0.67876 0.14756 0.20621 0.0
H1379 H 0.52214 0.11708 0.38905 0.0
H1380 H 0.4999 0.11697 0.32762 0.0
H1381 H 0.61911 0.1461 0.30875 0.0
H1382 H 0.64192 0.14625 0.37002 0.0
H1383 H 0.64782 0.13154 0.26248 0.0
H1384 H 0.45118 0.14765 0.30786 0.0
H1385 H 0.35223 0.14927 0.34551 0.0
H1386 H 0.26912 0.12015 0.30804 0.0
H1387 H 0.36814 0.11826 0.27047 0.0
C1388 C 0.49 0.14306 0.11435 0.0
C1389 C 0.48574 0.13355 0.09625 0.0
C1390 C 0.50091 0.14232 0.14975 0.0
C1391 C 0.50673 0.13207 0.16775 0.0
C1392 C 0.50051 0.12256 0.15003 0.0
C1393 C 0.49095 0.12329 0.11449 0.0
C1394 C 0.52026 0.13138 0.20502 0.0
C1395 C 0.46614 0.1315 0.22817 0.0
C1396 C 0.58635 0.13144 0.21755 0.0
C1397 C 0.64523 0.13149 0.19419 0.0
C1398 C 0.65935 0.12243 0.17516 0.0
C1399 C 0.71541 0.12249 0.15338 0.0
C1400 C 0.75808 0.13153 0.15073 0.0
C1401 C 0.74474 0.14054 0.16986 0.0
C1402 C 0.68857 0.14053 0.19157 0.0
C1403 C 0.54391 0.12344 0.37185 0.0
C1404 C 0.58385 0.13168 0.38455 0.0
C1405 C 0.53081 0.1234 0.33673 0.0
C1406 C 0.55736 0.13158 0.31358 0.0
C1407 C 0.59808 0.13971 0.32611 0.0
C1408 C 0.61093 0.13979 0.36121 0.0
C1409 C 0.54292 0.13168 0.27628 0.0
C1410 C 0.59694 0.1316 0.25296 0.0
C1411 C 0.47656 0.13176 0.26366 0.0
C1412 C 0.41743 0.13276 0.2866 0.0
C1413 C 0.41215 0.14153 0.30789 0.0
C1414 C 0.35596 0.14252 0.32914 0.0
C1415 C 0.30439 0.13483 0.32911 0.0
C1416 C 0.30905 0.12611 0.30795 0.0
C1417 C 0.36521 0.12508 0.28669 0.0
H1418 H 0.26083 0.13563 0.3455 0.0
H1419 H 0.80162 0.13155 0.13397 0.0
H1420 H 0.46232 0.12107 0.87912 0.0
H1421 H 0.48603 0.1212 0.81738 0.0
H1422 H 0.55457 0.15453 0.81724 0.0
H1423 H 0.53166 0.15445 0.87888 0.0
H1424 H 0.46849 0.15041 0.76169 0.0
H1425 H 0.66722 0.13549 0.81731 0.0
H1426 H 0.7277 0.12258 0.85717 0.0
H1427 H 0.65757 0.09563 0.80277 0.0
H1428 H 0.59582 0.10837 0.76287 0.0
H1429 H 0.61678 0.15426 0.59576 0.0
H1430 H 0.59788 0.15493 0.65762 0.0
H1431 H 0.57812 0.11979 0.66737 0.0
H1432 H 0.60069 0.11906 0.60617 0.0
H1433 H 0.6402 0.12517 0.71915 0.0
H1434 H 0.43894 0.13879 0.6652 0.0
H1435 H 0.37096 0.15078 0.62592 0.0
H1436 H 0.43508 0.17885 0.67682 0.0
H1437 H 0.50414 0.16704 0.71614 0.0
C1438 C 0.48197 0.12845 0.8659 0.0
C1439 C 0.49532 0.13774 0.88394 0.0
C1440 C 0.49571 0.1285 0.83067 0.0
C1441 C 0.52247 0.13786 0.81281 0.0
C1442 C 0.53398 0.14723 0.83054 0.0
C1443 C 0.52107 0.14715 0.8658 0.0
C1444 C 0.54009 0.1378 0.77581 0.0
C1445 C 0.50655 0.14499 0.75233 0.0
C1446 C 0.58852 0.13053 0.76362 0.0
C1447 C 0.62642 0.12288 0.7873 0.0
C1448 C 0.66431 0.12681 0.814 0.0
C1449 C 0.69888 0.11952 0.83657 0.0
C1450 C 0.69635 0.10829 0.83255 0.0
C1451 C 0.65942 0.10433 0.80587 0.0
C1452 C 0.62469 0.11158 0.78325 0.0
C1453 C 0.60899 0.14668 0.61121 0.0
C1454 C 0.61019 0.13661 0.59606 0.0
C1455 C 0.59761 0.14707 0.64657 0.0
C1456 C 0.58496 0.13743 0.66728 0.0
C1457 C 0.58765 0.12736 0.65216 0.0
C1458 C 0.60059 0.12695 0.61705 0.0
C1459 C 0.56818 0.13775 0.70454 0.0
C1460 C 0.60201 0.13061 0.72825 0.0
C1461 C 0.51897 0.14493 0.71685 0.0
C1462 C 0.47722 0.15204 0.69337 0.0
C1463 C 0.43886 0.14753 0.66787 0.0
C1464 C 0.4001 0.15429 0.64562 0.0
C1465 C 0.39885 0.16558 0.64881 0.0
C1466 C 0.43619 0.17011 0.67434 0.0
C1467 C 0.47511 0.16339 0.69663 0.0
H1468 H 0.36882 0.1708 0.63156 0.0
H1469 H 0.72312 0.10266 0.85007 0.0
H1470 H 0.54694 0.86498 0.62929 0.0
H1471 H 0.56567 0.86632 0.69054 0.0
H1472 H 0.44833 0.89595 0.68814 0.0
H1473 H 0.42979 0.89473 0.62669 0.0
H1474 H 0.56365 0.89795 0.72365 0.0
H1475 H 0.38322 0.87226 0.72273 0.0
H1476 H 0.32507 0.85574 0.70611 0.0
H1477 H 0.48183 0.83559 0.75089 0.0
H1478 H 0.54143 0.85201 0.76736 0.0
H1479 H 0.53054 0.89947 0.90584 0.0
H1480 H 0.51071 0.89912 0.84424 0.0
H1481 H 0.62071 0.86884 0.8424 0.0
H1482 H 0.63998 0.86903 0.90391 0.0
H1483 H 0.50577 0.86753 0.80902 0.0
H1484 H 0.68736 0.89314 0.80904 0.0
H1485 H 0.74639 0.90963 0.82534 0.0
H1486 H 0.58846 0.92987 0.78219 0.0
H1487 H 0.52801 0.91348 0.76605 0.0
C1488 C 0.52477 0.87176 0.64176 0.0
C1489 C 0.48654 0.87971 0.62306 0.0
C1490 C 0.53543 0.8725 0.67684 0.0
C1491 C 0.5079 0.88118 0.69403 0.0
C1492 C 0.46998 0.88917 0.67542 0.0
C1493 C 0.45917 0.88842 0.64032 0.0
C1494 C 0.51931 0.88196 0.73134 0.0
C1495 C 0.5501 0.89137 0.7424 0.0
C1496 C 0.50296 0.87328 0.75572 0.0
C1497 C 0.46709 0.86338 0.746 0.0
C1498 C 0.40556 0.86431 0.7288 0.0
C1499 C 0.37229 0.85496 0.71945 0.0
C1500 C 0.39982 0.84462 0.72737 0.0
C1501 C 0.4606 0.84361 0.74474 0.0
C1502 C 0.49411 0.85293 0.75412 0.0
C1503 C 0.55104 0.89278 0.8923 0.0
C1504 C 0.58684 0.88428 0.90992 0.0
C1505 C 0.53978 0.89261 0.85702 0.0
C1506 C 0.5645 0.88398 0.8386 0.0
C1507 C 0.60098 0.87556 0.85605 0.0
C1508 C 0.61217 0.87572 0.89127 0.0
C1509 C 0.55065 0.88349 0.80138 0.0
C1510 C 0.51925 0.87413 0.79032 0.0
C1511 C 0.56654 0.89221 0.77702 0.0
C1512 C 0.60282 0.90208 0.78667 0.0
C1513 C 0.66494 0.9011 0.80329 0.0
C1514 C 0.69871 0.91043 0.81245 0.0
C1515 C 0.6711 0.92079 0.8049 0.0
C1516 C 0.60974 0.92184 0.78808 0.0
C1517 C 0.57572 0.91254 0.77889 0.0
H1518 H 0.69733 0.928 0.812 0.0
H1519 H 0.37399 0.83739 0.7201 0.0
loop_
_geom_bond_atom_site_label_1
_geom_bond_atom_site_label_2
_geom_bond_distance
_geom_bond_site_symmetry_2
_ccdc_geom_bond_type
Tb0 C10 2.828 . S
Tb0 O11 2.347 1_554 S
Tb0 O14 2.366 1_455 S
Tb0 O19 2.418 . S
Tb0 O20 2.384 . S
Tb0 O23 2.479 . S
Tb0 O24 2.471 1_554 S
Eu1 O12 2.388 1_554 S
Eu1 O13 2.384 1_455 S
Eu1 O16 2.468 1_554 S
Eu1 O17 2.488 . S
Eu1 O18 2.372 . S
Eu1 O21 2.365 1_554 S
Eu1 C31 2.828 . S
C2 O18 1.259 . S
C2 O19 1.265 . S
C3 O20 1.255 . S
C3 O21 1.265 1_554 S
C4 C6 1.380 1_556 S
C4 C7 1.374 . S
C4 C10 1.505 1_656 S
C5 C6 1.384 . S
C5 C9 1.387 1_554 S
C5 H32 0.930 . S
C6 C4 1.380 1_554 S
C6 C5 1.384 . S
C6 H33 0.935 . S
C7 C4 1.374 . S
C7 C8 1.390 . S
C7 H34 0.930 . S
C8 C7 1.390 . S
C8 C9 1.391 . S
C8 H35 0.930 . S
C9 C5 1.387 1_556 S
C9 C8 1.391 . S
C10 Tb0 2.828 . S
C10 C4 1.505 1_454 S
C10 O23 1.259 . S
C10 O24 1.228 1_554 S
O11 Tb0 2.347 1_556 S
O11 C15 1.259 . S
O12 Eu1 2.388 1_556 S
O12 C15 1.265 . S
O13 Eu1 2.384 1_655 S
O13 C22 1.257 . S
O14 Tb0 2.366 1_655 S
O14 C22 1.265 . S
C15 O11 1.259 . S
C15 O12 1.265 . S
O16 Eu1 2.468 1_556 S
O16 C31 1.238 1_556 S
O17 Eu1 2.488 . S
O17 C31 1.247 . S
O18 Eu1 2.372 . S
O18 C2 1.259 . S
O19 Tb0 2.418 . S
O19 C2 1.265 . S
O20 Tb0 2.384 . S
O20 C3 1.255 . S
O21 Eu1 2.365 1_556 S
O21 C3 1.265 1_556 S
C22 O13 1.257 . S
C22 O14 1.265 . S
O23 Tb0 2.479 . S
O23 C10 1.259 . S
O24 Tb0 2.471 1_556 S
O24 C10 1.228 1_556 S
C25 C28 1.380 1_554 S
C25 C29 1.374 . S
C25 C31 1.507 . S
C26 C27 1.387 1_554 S
C26 C30 1.391 . S
C27 C26 1.387 1_556 S
C27 C28 1.384 . S
C27 H36 0.930 . S
C28 C25 1.380 1_556 S
C28 C27 1.384 . S
C28 H37 0.931 . S
C29 C25 1.374 . S
C29 C30 1.390 . S
C29 H38 0.930 . S
C30 C26 1.391 . S
C30 C29 1.390 . S
C30 H39 0.930 . S
C31 Eu1 2.828 . S
C31 O16 1.238 1_554 S
C31 O17 1.247 . S
C31 C25 1.507 . S
H32 C5 0.930 . S
H33 C6 0.935 . S
H34 C7 0.930 . S
H35 C8 0.930 . S
H36 C27 0.930 . S
H37 C28 0.931 . S
H38 C29 0.930 . S
H39 C30 0.930 . S
Tb40 C50 2.825 . S
Tb40 O51 2.347 1_554 S
Tb40 O54 2.366 1_655 S
Tb40 O59 2.418 . S
Tb40 O60 2.384 . S
Tb40 O63 2.479 . S
Tb40 O64 2.471 1_554 S
Eu41 O52 2.418 . S
Eu41 O53 2.384 1_655 S
Eu41 O56 2.479 . S
Eu41 O57 2.471 1_556 S
Eu41 O58 2.347 1_556 S
Eu41 O61 2.366 . S
Eu41 C71 2.825 1_556 S
C42 O58 1.259 . S
C42 O59 1.265 . S
C43 O60 1.255 . S
C43 O61 1.265 1_554 S
C44 C46 1.380 . S
C44 C47 1.374 1_554 S
C44 C50 1.507 1_455 S
C45 C46 1.384 . S
C45 C49 1.387 1_554 S
C45 H72 0.930 . S
C46 C44 1.380 . S
C46 C45 1.384 . S
C46 H73 0.935 . S
C47 C44 1.374 1_556 S
C47 C48 1.390 . S
C47 H74 0.930 . S
C48 C47 1.390 . S
C48 C49 1.391 . S
C48 H75 0.930 . S
C49 C45 1.387 1_556 S
C49 C48 1.391 . S
C50 Tb40 2.825 . S
C50 C44 1.507 1_655 S
C50 O63 1.238 . S
C50 O64 1.247 1_554 S
O51 Tb40 2.347 1_556 S
O51 C55 1.259 . S
O52 Eu41 2.418 . S
O52 C55 1.265 . S
O53 Eu41 2.384 1_455 S
O53 C62 1.255 1_556 S
O54 Tb40 2.366 1_455 S
O54 C62 1.265 . S
C55 O51 1.259 . S
C55 O52 1.265 . S
O56 Eu41 2.479 . S
O56 C71 1.238 1_556 S
O57 Eu41 2.471 1_554 S
O57 C71 1.247 . S
O58 Eu41 2.347 1_554 S
O58 C42 1.259 . S
O59 Tb40 2.418 . S
O59 C42 1.265 . S
O60 Tb40 2.384 . S
O60 C43 1.255 . S
O61 Eu41 2.366 . S
O61 C43 1.265 1_556 S
C62 O53 1.255 1_554 S
C62 O54 1.265 . S
O63 Tb40 2.479 . S
O63 C50 1.238 . S
O64 Tb40 2.471 1_556 S
O64 C50 1.247 1_556 S
C65 C68 1.380 1_554 S
C65 C69 1.374 . S
C65 C71 1.507 . S
C66 C67 1.387 1_554 S
C66 C70 1.391 . S
C67 C66 1.387 1_556 S
C67 C68 1.384 . S
C67 H76 0.930 . S
C68 C65 1.380 1_556 S
C68 C67 1.384 . S
C68 H77 0.931 . S
C69 C65 1.374 . S
C69 C70 1.390 . S
C69 H78 0.930 . S
C70 C66 1.391 . S
C70 C69 1.390 . S
C70 H79 0.930 . S
C71 Eu41 2.825 1_554 S
C71 O56 1.238 1_554 S
C71 O57 1.247 . S
C71 C65 1.507 . S
H72 C45 0.930 . S
H73 C46 0.935 . S
H74 C47 0.930 . S
H75 C48 0.930 . S
H76 C67 0.930 . S
H77 C68 0.931 . S
H78 C69 0.930 . S
H79 C70 0.930 . S
Tb80 C90 2.825 . S
Tb80 O91 2.347 . S
Tb80 O94 2.366 . S
Tb80 O99 2.418 . S
Tb80 O100 2.384 1_455 S
Tb80 O103 2.479 . S
Tb80 O104 2.471 . S
Eu81 O92 2.418 . S
Eu81 O93 2.384 . S
Eu81 O96 2.479 . S
Eu81 O97 2.471 . S
Eu81 O98 2.347 . S
Eu81 O101 2.366 1_455 S
Eu81 C111 2.825 . S
C82 O98 1.259 . S
C82 O99 1.265 . S
C83 O100 1.255 . S
C83 O101 1.265 . S
C84 C86 1.380 . S
C84 C87 1.374 . S
C84 C90 1.507 . S
C85 C86 1.384 . S
C85 C89 1.387 . S
C85 H112 0.930 . S
C86 C84 1.380 . S
C86 C85 1.384 . S
C86 H113 0.931 . S
C87 C84 1.374 . S
C87 C88 1.390 . S
C87 H114 0.930 . S
C88 C87 1.390 . S
C88 C89 1.391 . S
C88 H115 0.930 . S
C89 C85 1.387 . S
C89 C88 1.391 . S
C90 Tb80 2.825 . S
C90 C84 1.507 . S
C90 O103 1.238 . S
C90 O104 1.247 . S
O91 Tb80 2.347 . S
O91 C95 1.259 . S
O92 Eu81 2.418 . S
O92 C95 1.265 . S
O93 Eu81 2.384 . S
O93 C102 1.255 . S
O94 Tb80 2.366 . S
O94 C102 1.265 . S
C95 O91 1.259 . S
C95 O92 1.265 . S
O96 Eu81 2.479 . S
O96 C111 1.238 . S
O97 Eu81 2.471 . S
O97 C111 1.247 . S
O98 Eu81 2.347 . S
O98 C82 1.259 . S
O99 Tb80 2.418 . S
O99 C82 1.265 . S
O100 Tb80 2.384 1_655 S
O100 C83 1.255 . S
O101 Eu81 2.366 1_655 S
O101 C83 1.265 . S
C102 O93 1.255 . S
C102 O94 1.265 . S
O103 Tb80 2.479 . S
O103 C90 1.238 . S
O104 Tb80 2.471 . S
O104 C90 1.247 . S
C105 C108 1.380 . S
C105 C109 1.374 . S
C105 C111 1.507 1_655 S
C106 C107 1.387 . S
C106 C110 1.391 . S
C107 C106 1.387 . S
C107 C108 1.384 . S
C107 H116 0.930 . S
C108 C105 1.380 . S
C108 C107 1.384 . S
C108 H117 0.931 . S
C109 C105 1.374 . S
C109 C110 1.390 . S
C109 H118 0.930 . S
C110 C106 1.391 . S
C110 C109 1.390 . S
C110 H119 0.930 . S
C111 Eu81 2.825 . S
C111 O96 1.238 . S
C111 O97 1.247 . S
C111 C105 1.507 1_455 S
H112 C85 0.930 . S
H113 C86 0.931 . S
H114 C87 0.930 . S
H115 C88 0.930 . S
H116 C107 0.930 . S
H117 C108 0.931 . S
H118 C109 0.930 . S
H119 C110 0.930 . S
Tb120 C130 2.825 . S
Tb120 O131 2.347 . S
Tb120 O134 2.366 1_655 S
Tb120 O139 2.418 . S
Tb120 O140 2.384 . S
Tb120 O143 2.479 . S
Tb120 O144 2.471 . S
Eu121 O132 2.418 . S
Eu121 O133 2.384 1_655 S
Eu121 O136 2.479 . S
Eu121 O137 2.471 . S
Eu121 O138 2.347 . S
Eu121 O141 2.366 . S
Eu121 C151 2.825 . S
C122 O138 1.259 . S
C122 O139 1.265 . S
C123 O140 1.255 . S
C123 O141 1.265 . S
C124 C126 1.380 . S
C124 C127 1.374 . S
C124 C130 1.507 1_455 S
C125 C126 1.384 . S
C125 C129 1.387 . S
C125 H152 0.930 . S
C126 C124 1.380 . S
C126 C125 1.384 . S
C126 H153 0.931 . S
C127 C124 1.374 . S
C127 C128 1.390 . S
C127 H154 0.930 . S
C128 C127 1.390 . S
C128 C129 1.391 . S
C128 H155 0.930 . S
C129 C125 1.387 . S
C129 C128 1.391 . S
C130 Tb120 2.825 . S
C130 C124 1.507 1_655 S
C130 O143 1.238 . S
C130 O144 1.247 . S
O131 Tb120 2.347 . S
O131 C135 1.259 . S
O132 Eu121 2.418 . S
O132 C135 1.265 . S
O133 Eu121 2.384 1_455 S
O133 C142 1.255 . S
O134 Tb120 2.366 1_455 S
O134 C142 1.265 . S
C135 O131 1.259 . S
C135 O132 1.265 . S
O136 Eu121 2.479 . S
O136 C151 1.238 . S
O137 Eu121 2.471 . S
O137 C151 1.247 . S
O138 Eu121 2.347 . S
O138 C122 1.259 . S
O139 Tb120 2.418 . S
O139 C122 1.265 . S
O140 Tb120 2.384 . S
O140 C123 1.255 . S
O141 Eu121 2.366 . S
O141 C123 1.265 . S
C142 O133 1.255 . S
C142 O134 1.265 . S
O143 Tb120 2.479 . S
O143 C130 1.238 . S
O144 Tb120 2.471 . S
O144 C130 1.247 . S
C145 C148 1.380 . S
C145 C149 1.374 . S
C145 C151 1.507 . S
C146 C147 1.387 . S
C146 C150 1.391 . S
C147 C146 1.387 . S
C147 C148 1.384 . S
C147 H156 0.930 . S
C148 C145 1.380 . S
C148 C147 1.384 . S
C148 H157 0.931 . S
C149 C145 1.374 . S
C149 C150 1.390 . S
C149 H158 0.930 . S
C150 C146 1.391 . S
C150 C149 1.390 . S
C150 H159 0.930 . S
C151 Eu121 2.825 . S
C151 O136 1.238 . S
C151 O137 1.247 . S
C151 C145 1.507 . S
H152 C125 0.930 . S
H153 C126 0.931 . S
H154 C127 0.930 . S
H155 C128 0.930 . S
H156 C147 0.930 . S
H157 C148 0.931 . S
H158 C149 0.930 . S
H159 C150 0.930 . S
Tb160 C170 2.828 . S
Tb160 O171 2.347 1_554 S
Tb160 O174 2.366 . S
Tb160 O179 2.418 . S
Tb160 O180 2.384 . S
Tb160 O183 2.479 . S
Tb160 O184 2.471 1_554 S
Eu161 O172 2.388 1_554 S
Eu161 O173 2.384 . S
Eu161 O176 2.468 1_554 S
Eu161 O177 2.488 . S
Eu161 O178 2.372 . S
Eu161 O181 2.365 1_554 S
Eu161 C191 2.828 . S
C162 O178 1.259 . S
C162 O179 1.265 . S
C163 O180 1.255 . S
C163 O181 1.265 1_554 S
C164 C166 1.380 1_556 S
C164 C167 1.374 . S
C164 C170 1.505 1_556 S
C165 C166 1.384 . S
C165 C169 1.387 1_554 S
C165 H192 0.930 . S
C166 C164 1.380 1_554 S
C166 C165 1.384 . S
C166 H193 0.931 . S
C167 C164 1.374 . S
C167 C168 1.390 . S
C167 H194 0.930 . S
C168 C167 1.390 . S
C168 C169 1.391 . S
C168 H195 0.930 . S
C169 C165 1.387 1_556 S
C169 C168 1.391 . S
C170 Tb160 2.828 . S
C170 C164 1.505 1_554 S
C170 O183 1.259 . S
C170 O184 1.228 1_554 S
O171 Tb160 2.347 1_556 S
O171 C175 1.259 . S
O172 Eu161 2.388 1_556 S
O172 C175 1.265 . S
O173 Eu161 2.384 . S
O173 C182 1.257 . S
O174 Tb160 2.366 . S
O174 C182 1.265 . S
C175 O171 1.259 . S
C175 O172 1.265 . S
O176 Eu161 2.468 1_556 S
O176 C191 1.238 1_556 S
O177 Eu161 2.488 . S
O177 C191 1.247 . S
O178 Eu161 2.372 . S
O178 C162 1.259 . S
O179 Tb160 2.418 . S
O179 C162 1.265 . S
O180 Tb160 2.384 . S
O180 C163 1.255 . S
O181 Eu161 2.365 1_556 S
O181 C163 1.265 1_556 S
C182 O173 1.257 . S
C182 O174 1.265 . S
O183 Tb160 2.479 . S
O183 C170 1.259 . S
O184 Tb160 2.471 1_556 S
O184 C170 1.228 1_556 S
C185 C188 1.380 1_554 S
C185 C189 1.374 . S
C185 C191 1.507 . S
C186 C187 1.387 1_554 S
C186 C190 1.391 . S
C187 C186 1.387 1_556 S
C187 C188 1.384 . S
C187 H196 0.930 . S
C188 C185 1.380 1_556 S
C188 C187 1.384 . S
C188 H197 0.931 . S
C189 C185 1.374 . S
C189 C190 1.390 . S
C189 H198 0.930 . S
C190 C186 1.391 . S
C190 C189 1.390 . S
C190 H199 0.930 . S
C191 Eu161 2.828 . S
C191 O176 1.238 1_554 S
C191 O177 1.247 . S
C191 C185 1.507 . S
H192 C165 0.930 . S
H193 C166 0.931 . S
H194 C167 0.930 . S
H195 C168 0.930 . S
H196 C187 0.930 . S
H197 C188 0.931 . S
H198 C189 0.930 . S
H199 C190 0.930 . S
Tb200 C210 2.825 . S
Tb200 O211 2.347 1_554 S
Tb200 O214 2.366 . S
Tb200 O219 2.418 . S
Tb200 O220 2.384 . S
Tb200 O223 2.479 . S
Tb200 O224 2.471 1_554 S
Eu201 O212 2.418 . S
Eu201 O213 2.384 . S
Eu201 O216 2.479 . S
Eu201 O217 2.471 1_556 S
Eu201 O218 2.347 1_556 S
Eu201 O221 2.366 . S
Eu201 C231 2.825 1_556 S
C202 O218 1.259 . S
C202 O219 1.265 . S
C203 O220 1.255 . S
C203 O221 1.265 1_554 S
C204 C206 1.380 . S
C204 C207 1.374 1_554 S
C204 C210 1.507 . S
C205 C206 1.384 . S
C205 C209 1.387 1_554 S
C205 H232 0.930 . S
C206 C204 1.380 . S
C206 C205 1.384 . S
C206 H233 0.931 . S
C207 C204 1.374 1_556 S
C207 C208 1.390 . S
C207 H234 0.930 . S
C208 C207 1.390 . S
C208 C209 1.391 . S
C208 H235 0.930 . S
C209 C205 1.387 1_556 S
C209 C208 1.391 . S
C210 Tb200 2.825 . S
C210 C204 1.507 . S
C210 O223 1.238 . S
C210 O224 1.247 1_554 S
O211 Tb200 2.347 1_556 S
O211 C215 1.259 . S
O212 Eu201 2.418 . S
O212 C215 1.265 . S
O213 Eu201 2.384 . S
O213 C222 1.255 1_556 S
O214 Tb200 2.366 . S
O214 C222 1.265 . S
C215 O211 1.259 . S
C215 O212 1.265 . S
O216 Eu201 2.479 . S
O216 C231 1.238 1_556 S
O217 Eu201 2.471 1_554 S
O217 C231 1.247 . S
O218 Eu201 2.347 1_554 S
O218 C202 1.259 . S
O219 Tb200 2.418 . S
O219 C202 1.265 . S
O220 Tb200 2.384 . S
O220 C203 1.255 . S
O221 Eu201 2.366 . S
O221 C203 1.265 1_556 S
C222 O213 1.255 1_554 S
C222 O214 1.265 . S
O223 Tb200 2.479 . S
O223 C210 1.238 . S
O224 Tb200 2.471 1_556 S
O224 C210 1.247 1_556 S
C225 C228 1.380 1_554 S
C225 C229 1.374 . S
C225 C231 1.507 . S
C226 C227 1.387 1_554 S
C226 C230 1.391 . S
C227 C226 1.387 1_556 S
C227 C228 1.384 . S
C227 H236 0.930 . S
C228 C225 1.380 1_556 S
C228 C227 1.384 . S
C228 H237 0.931 . S
C229 C225 1.374 . S
C229 C230 1.390 . S
C229 H238 0.930 . S
C230 C226 1.391 . S
C230 C229 1.390 . S
C230 H239 0.930 . S
C231 Eu201 2.825 1_554 S
C231 O216 1.238 1_554 S
C231 O217 1.247 . S
C231 C225 1.507 . S
H232 C205 0.930 . S
H233 C206 0.931 . S
H234 C207 0.930 . S
H235 C208 0.930 . S
H236 C227 0.930 . S
H237 C228 0.931 . S
H238 C229 0.930 . S
H239 C230 0.930 . S
Tb240 C250 2.825 . S
Tb240 O251 2.347 . S
Tb240 O254 2.366 . S
Tb240 O259 2.418 . S
Tb240 O260 2.384 . S
Tb240 O263 2.479 . S
Tb240 O264 2.471 . S
Eu241 O252 2.418 . S
Eu241 O253 2.384 . S
Eu241 O256 2.479 . S
Eu241 O257 2.471 . S
Eu241 O258 2.347 . S
Eu241 O261 2.366 . S
Eu241 C271 2.825 . S
C242 O258 1.259 . S
C242 O259 1.265 . S
C243 O260 1.255 . S
C243 O261 1.265 . S
C244 C246 1.380 . S
C244 C247 1.374 . S
C244 C250 1.507 . S
C245 C246 1.384 . S
C245 C249 1.387 . S
C245 H272 0.930 . S
C246 C244 1.380 . S
C246 C245 1.384 . S
C246 H273 0.931 . S
C247 C244 1.374 . S
C247 C248 1.390 . S
C247 H274 0.930 . S
C248 C247 1.390 . S
C248 C249 1.391 . S
C248 H275 0.930 . S
C249 C245 1.387 . S
C249 C248 1.391 . S
C250 Tb240 2.825 . S
C250 C244 1.507 . S
C250 O263 1.238 . S
C250 O264 1.247 . S
O251 Tb240 2.347 . S
O251 C255 1.259 . S
O252 Eu241 2.418 . S
O252 C255 1.265 . S
O253 Eu241 2.384 . S
O253 C262 1.255 . S
O254 Tb240 2.366 . S
O254 C262 1.265 . S
C255 O251 1.259 . S
C255 O252 1.265 . S
O256 Eu241 2.479 . S
O256 C271 1.238 . S
O257 Eu241 2.471 . S
O257 C271 1.247 . S
O258 Eu241 2.347 . S
O258 C242 1.259 . S
O259 Tb240 2.418 . S
O259 C242 1.265 . S
O260 Tb240 2.384 . S
O260 C243 1.255 . S
O261 Eu241 2.366 . S
O261 C243 1.265 . S
C262 O253 1.255 . S
C262 O254 1.265 . S
O263 Tb240 2.479 . S
O263 C250 1.238 . S
O264 Tb240 2.471 . S
O264 C250 1.247 . S
C265 C268 1.380 . S
C265 C269 1.374 . S
C265 C271 1.507 . S
C266 C267 1.387 . S
C266 C270 1.391 . S
C267 C266 1.387 . S
C267 C268 1.384 . S
C267 H276 0.930 . S
C268 C265 1.380 . S
C268 C267 1.384 . S
C268 H277 0.931 . S
C269 C265 1.374 . S
C269 C270 1.390 . S
C269 H278 0.930 . S
C270 C266 1.391 . S
C270 C269 1.390 . S
C270 H279 0.930 . S
C271 Eu241 2.825 . S
C271 O256 1.238 . S
C271 O257 1.247 . S
C271 C265 1.507 . S
H272 C245 0.930 . S
H273 C246 0.931 . S
H274 C247 0.930 . S
H275 C248 0.930 . S
H276 C267 0.930 . S
H277 C268 0.931 . S
H278 C269 0.930 . S
H279 C270 0.930 . S
Tb280 C290 2.825 . S
Tb280 O291 2.347 . S
Tb280 O294 2.366 . S
Tb280 O299 2.418 . S
Tb280 O300 2.384 . S
Tb280 O303 2.479 . S
Tb280 O304 2.471 . S
Eu281 O292 2.418 . S
Eu281 O293 2.384 . S
Eu281 O296 2.479 . S
Eu281 O297 2.471 . S
Eu281 O298 2.347 . S
Eu281 O301 2.366 . S
Eu281 C311 2.825 . S
C282 O298 1.259 . S
C282 O299 1.265 . S
C283 O300 1.255 . S
C283 O301 1.265 . S
C284 C286 1.380 . S
C284 C287 1.374 . S
C284 C290 1.507 . S
C285 C286 1.384 . S
C285 C289 1.387 . S
C285 H312 0.930 . S
C286 C284 1.380 . S
C286 C285 1.384 . S
C286 H313 0.931 . S
C287 C284 1.374 . S
C287 C288 1.390 . S
C287 H314 0.930 . S
C288 C287 1.390 . S
C288 C289 1.391 . S
C288 H315 0.930 . S
C289 C285 1.387 . S
C289 C288 1.391 . S
C290 Tb280 2.825 . S
C290 C284 1.507 . S
C290 O303 1.238 . S
C290 O304 1.247 . S
O291 Tb280 2.347 . S
O291 C295 1.259 . S
O292 Eu281 2.418 . S
O292 C295 1.265 . S
O293 Eu281 2.384 . S
O293 C302 1.255 . S
O294 Tb280 2.366 . S
O294 C302 1.265 . S
C295 O291 1.259 . S
C295 O292 1.265 . S
O296 Eu281 2.479 . S
O296 C311 1.238 . S
O297 Eu281 2.471 . S
O297 C311 1.247 . S
O298 Eu281 2.347 . S
O298 C282 1.259 . S
O299 Tb280 2.418 . S
O299 C282 1.265 . S
O300 Tb280 2.384 . S
O300 C283 1.255 . S
O301 Eu281 2.366 . S
O301 C283 1.265 . S
C302 O293 1.255 . S
C302 O294 1.265 . S
O303 Tb280 2.479 . S
O303 C290 1.238 . S
O304 Tb280 2.471 . S
O304 C290 1.247 . S
C305 C308 1.380 . S
C305 C309 1.374 . S
C305 C311 1.507 . S
C306 C307 1.387 . S
C306 C310 1.391 . S
C307 C306 1.387 . S
C307 C308 1.384 . S
C307 H316 0.930 . S
C308 C305 1.380 . S
C308 C307 1.384 . S
C308 H317 0.931 . S
C309 C305 1.374 . S
C309 C310 1.390 . S
C309 H318 0.930 . S
C310 C306 1.391 . S
C310 C309 1.390 . S
C310 H319 0.930 . S
C311 Eu281 2.825 . S
C311 O296 1.238 . S
C311 O297 1.247 . S
C311 C305 1.507 . S
H312 C285 0.930 . S
H313 C286 0.931 . S
H314 C287 0.930 . S
H315 C288 0.930 . S
H316 C307 0.930 . S
H317 C308 0.931 . S
H318 C309 0.930 . S
H319 C310 0.930 . S
H320 C338 0.951 . S
H321 C340 0.951 . S
H322 C342 0.950 . S
H323 C343 0.950 . S
H324 C345 0.950 . S
H325 C348 0.950 . S
H326 C349 0.950 . S
H327 C351 0.950 . S
H328 C352 0.950 . S
H329 C353 0.951 . S
H330 C355 0.951 . S
H331 C357 0.950 . S
H332 C358 0.950 . S
H333 C360 0.950 . S
H334 C363 0.950 1_554 S
H335 C364 0.950 . S
H336 C366 0.950 . S
H337 C367 0.950 . S
C338 H320 0.951 . S
C338 C339 1.366 . S
C338 C340 1.388 . S
C339 C338 1.366 . S
C339 C343 1.385 1_554 S
C340 H321 0.951 . S
C340 C338 1.388 . S
C340 C341 1.366 . S
C341 C340 1.366 . S
C341 C342 1.414 1_554 S
C341 C344 1.499 . S
C342 H322 0.950 . S
C342 C341 1.414 1_556 S
C342 C343 1.374 . S
C343 H323 0.950 . S
C343 C339 1.385 1_556 S
C343 C342 1.374 . S
C344 C341 1.499 . S
C344 C345 1.373 1_554 S
C344 C346 1.389 . S
C345 H324 0.950 . S
C345 C344 1.373 1_556 S
C345 C361 1.377 . S
C346 C344 1.389 . S
C346 C347 1.524 . S
C346 C360 1.377 . S
C347 C346 1.524 . S
C347 C348 1.397 . S
C347 C352 1.363 . S
C348 H325 0.950 . S
C348 C347 1.397 . S
C348 C349 1.334 . S
C349 H326 0.950 . S
C349 C348 1.334 . S
C349 C350 1.287 . S
C350 C349 1.287 . S
C350 C351 1.524 . S
C350 H369 0.913 . S
C351 H327 0.950 . S
C351 C350 1.524 . S
C351 C352 1.415 . S
C352 H328 0.950 . S
C352 C347 1.363 . S
C352 C351 1.415 . S
C353 H329 0.951 . S
C353 C354 1.366 1_556 S
C353 C355 1.388 . S
C354 C353 1.366 1_554 S
C354 C358 1.385 . S
C355 H330 0.951 . S
C355 C353 1.388 . S
C355 C356 1.366 1_556 S
C356 C355 1.366 1_554 S
C356 C357 1.414 . S
C356 C359 1.499 . S
C357 H331 0.950 . S
C357 C356 1.414 . S
C357 C358 1.374 . S
C358 H332 0.950 . S
C358 C354 1.385 . S
C358 C357 1.374 . S
C359 C356 1.499 . S
C359 C360 1.373 . S
C359 C361 1.389 1_554 S
C360 H333 0.950 . S
C360 C346 1.377 . S
C360 C359 1.373 . S
C361 C345 1.377 . S
C361 C359 1.389 1_556 S
C361 C362 1.524 . S
C362 C361 1.524 . S
C362 C363 1.397 . S
C362 C367 1.363 . S
C363 H334 0.950 1_556 S
C363 C362 1.397 . S
C363 C364 1.334 . S
C364 H335 0.950 . S
C364 C363 1.334 . S
C364 C365 1.287 . S
C365 C364 1.287 . S
C365 C366 1.524 . S
C365 H368 0.999 . S
C366 H336 0.950 . S
C366 C365 1.524 . S
C366 C367 1.415 . S
C367 H337 0.950 . S
C367 C362 1.363 . S
C367 C366 1.415 . S
H368 C365 0.999 . S
H369 C350 0.913 . S
H370 C388 0.951 . S
H371 C390 0.951 . S
H372 C392 0.950 . S
H373 C393 0.950 . S
H374 C395 0.950 . S
H375 C398 0.950 . S
H376 C399 0.950 . S
H377 C401 0.950 . S
H378 C402 0.950 . S
H379 C403 0.951 . S
H380 C405 0.951 . S
H381 C407 0.950 . S
H382 C408 0.950 . S
H383 C410 0.950 . S
H384 C413 0.950 . S
H385 C414 0.950 . S
H386 C416 0.950 . S
H387 C417 0.950 . S
C388 H370 0.951 . S
C388 C389 1.366 . S
C388 C390 1.388 . S
C389 C388 1.366 . S
C389 C393 1.385 1_554 S
C390 H371 0.951 . S
C390 C388 1.388 . S
C390 C391 1.366 . S
C391 C390 1.366 . S
C391 C392 1.414 1_554 S
C391 C394 1.499 . S
C392 H372 0.950 . S
C392 C391 1.414 1_556 S
C392 C393 1.374 . S
C393 H373 0.950 . S
C393 C389 1.385 1_556 S
C393 C392 1.374 . S
C394 C391 1.499 . S
C394 C395 1.373 . S
C394 C396 1.389 1_554 S
C395 H374 0.950 . S
C395 C394 1.373 . S
C395 C411 1.377 . S
C396 C394 1.389 1_556 S
C396 C397 1.524 . S
C396 C410 1.377 . S
C397 C396 1.524 . S
C397 C398 1.397 . S
C397 C402 1.363 . S
C398 H375 0.950 . S
C398 C397 1.397 . S
C398 C399 1.334 . S
C399 H376 0.950 . S
C399 C398 1.334 . S
C399 C400 1.287 . S
C400 C399 1.287 . S
C400 C401 1.524 . S
C400 H419 0.913 . S
C401 H377 0.950 . S
C401 C400 1.524 . S
C401 C402 1.415 . S
C402 H378 0.950 . S
C402 C397 1.363 . S
C402 C401 1.415 . S
C403 H379 0.951 . S
C403 C404 1.366 1_556 S
C403 C405 1.388 . S
C404 C403 1.366 1_554 S
C404 C408 1.385 . S
C405 H380 0.951 . S
C405 C403 1.388 . S
C405 C406 1.366 1_556 S
C406 C405 1.366 1_554 S
C406 C407 1.414 . S
C406 C409 1.499 . S
C407 H381 0.950 . S
C407 C406 1.414 . S
C407 C408 1.374 . S
C408 H382 0.950 . S
C408 C404 1.385 . S
C408 C407 1.374 . S
C409 C406 1.499 . S
C409 C410 1.373 1_554 S
C409 C411 1.389 . S
C410 H383 0.950 . S
C410 C396 1.377 . S
C410 C409 1.373 1_556 S
C411 C395 1.377 . S
C411 C409 1.389 . S
C411 C412 1.524 . S
C412 C411 1.524 . S
C412 C413 1.397 . S
C412 C417 1.363 . S
C413 H384 0.950 . S
C413 C412 1.397 . S
C413 C414 1.334 . S
C414 H385 0.950 . S
C414 C413 1.334 . S
C414 C415 1.287 . S
C415 C414 1.287 . S
C415 C416 1.524 . S
C415 H418 0.999 . S
C416 H386 0.950 . S
C416 C415 1.524 . S
C416 C417 1.415 . S
C417 H387 0.950 . S
C417 C412 1.363 . S
C417 C416 1.415 . S
H418 C415 0.999 . S
H419 C400 0.913 . S
H420 C438 0.951 . S
H421 C440 0.951 . S
H422 C442 0.950 . S
H423 C443 0.950 . S
H424 C445 0.950 . S
H425 C448 0.950 . S
H426 C449 0.950 . S
H427 C451 0.950 . S
H428 C452 0.950 . S
H429 C453 0.951 . S
H430 C455 0.951 . S
H431 C457 0.950 . S
H432 C458 0.950 . S
H433 C460 0.950 . S
H434 C463 0.950 . S
H435 C464 0.950 . S
H436 C466 0.950 . S
H437 C467 0.950 . S
C438 H420 0.951 . S
C438 C439 1.366 . S
C438 C440 1.388 . S
C439 C438 1.366 . S
C439 C443 1.385 . S
C440 H421 0.951 . S
C440 C438 1.388 . S
C440 C441 1.366 . S
C441 C440 1.366 . S
C441 C442 1.414 . S
C441 C444 1.499 . S
C442 H422 0.950 . S
C442 C441 1.414 . S
C442 C443 1.374 . S
C443 H423 0.950 . S
C443 C439 1.385 . S
C443 C442 1.374 . S
C444 C441 1.499 . S
C444 C445 1.373 . S
C444 C446 1.389 . S
C445 H424 0.950 . S
C445 C444 1.373 . S
C445 C461 1.377 . S
C446 C444 1.389 . S
C446 C447 1.524 . S
C446 C460 1.377 . S
C447 C446 1.524 . S
C447 C448 1.397 . S
C447 C452 1.363 . S
C448 H425 0.950 . S
C448 C447 1.397 . S
C448 C449 1.334 . S
C449 H426 0.950 . S
C449 C448 1.334 . S
C449 C450 1.287 . S
C450 C449 1.287 . S
C450 C451 1.524 . S
C450 H469 0.913 . S
C451 H427 0.950 . S
C451 C450 1.524 . S
C451 C452 1.415 . S
C452 H428 0.950 . S
C452 C447 1.363 . S
C452 C451 1.415 . S
C453 H429 0.951 . S
C453 C454 1.366 . S
C453 C455 1.388 . S
C454 C453 1.366 . S
C454 C458 1.385 . S
C455 H430 0.951 . S
C455 C453 1.388 . S
C455 C456 1.366 . S
C456 C455 1.366 . S
C456 C457 1.414 . S
C456 C459 1.499 . S
C457 H431 0.950 . S
C457 C456 1.414 . S
C457 C458 1.374 . S
C458 H432 0.950 . S
C458 C454 1.385 . S
C458 C457 1.374 . S
C459 C456 1.499 . S
C459 C460 1.373 . S
C459 C461 1.389 . S
C460 H433 0.950 . S
C460 C446 1.377 . S
C460 C459 1.373 . S
C461 C445 1.377 . S
C461 C459 1.389 . S
C461 C462 1.524 . S
C462 C461 1.524 . S
C462 C463 1.397 . S
C462 C467 1.363 . S
C463 H434 0.950 . S
C463 C462 1.397 . S
C463 C464 1.334 . S
C464 H435 0.950 . S
C464 C463 1.334 . S
C464 C465 1.287 . S
C465 C464 1.287 . S
C465 C466 1.524 . S
C465 H468 0.999 . S
C466 H436 0.950 . S
C466 C465 1.524 . S
C466 C467 1.415 . S
C467 H437 0.950 . S
C467 C462 1.363 . S
C467 C466 1.415 . S
H468 C465 0.999 . S
H469 C450 0.913 . S
H470 C488 0.951 . S
H471 C490 0.951 . S
H472 C492 0.950 . S
H473 C493 0.950 . S
H474 C495 0.950 . S
H475 C498 0.950 . S
H476 C499 0.950 . S
H477 C501 0.950 . S
H478 C502 0.950 . S
H479 C503 0.951 . S
H480 C505 0.951 . S
H481 C507 0.950 . S
H482 C508 0.950 . S
H483 C510 0.950 . S
H484 C513 0.950 . S
H485 C514 0.950 . S
H486 C516 0.950 . S
H487 C517 0.950 . S
C488 H470 0.951 . S
C488 C489 1.366 . S
C488 C490 1.388 . S
C489 C488 1.366 . S
C489 C493 1.385 . S
C490 H471 0.951 . S
C490 C488 1.388 . S
C490 C491 1.366 . S
C491 C490 1.366 . S
C491 C492 1.414 . S
C491 C494 1.499 . S
C492 H472 0.950 . S
C492 C491 1.414 . S
C492 C493 1.374 . S
C493 H473 0.950 . S
C493 C489 1.385 . S
C493 C492 1.374 . S
C494 C491 1.499 . S
C494 C495 1.373 . S
C494 C496 1.389 . S
C495 H474 0.950 . S
C495 C494 1.373 . S
C495 C511 1.377 . S
C496 C494 1.389 . S
C496 C497 1.524 . S
C496 C510 1.377 . S
C497 C496 1.524 . S
C497 C498 1.397 . S
C497 C502 1.363 . S
C498 H475 0.950 . S
C498 C497 1.397 . S
C498 C499 1.334 . S
C499 H476 0.950 . S
C499 C498 1.334 . S
C499 C500 1.287 . S
C500 C499 1.287 . S
C500 C501 1.524 . S
C500 H519 0.913 . S
C501 H477 0.950 . S
C501 C500 1.524 . S
C501 C502 1.415 . S
C502 H478 0.950 . S
C502 C497 1.363 . S
C502 C501 1.415 . S
C503 H479 0.951 . S
C503 C504 1.366 . S
C503 C505 1.388 . S
C504 C503 1.366 . S
C504 C508 1.385 . S
C505 H480 0.951 . S
C505 C503 1.388 . S
C505 C506 1.366 . S
C506 C505 1.366 . S
C506 C507 1.414 . S
C506 C509 1.499 . S
C507 H481 0.950 . S
C507 C506 1.414 . S
C507 C508 1.374 . S
C508 H482 0.950 . S
C508 C504 1.385 . S
C508 C507 1.374 . S
C509 C506 1.499 . S
C509 C510 1.373 . S
C509 C511 1.389 . S
C510 H483 0.950 . S
C510 C496 1.377 . S
C510 C509 1.373 . S
C511 C495 1.377 . S
C511 C509 1.389 . S
C511 C512 1.524 . S
C512 C511 1.524 . S
C512 C513 1.397 . S
C512 C517 1.363 . S
C513 H484 0.950 . S
C513 C512 1.397 . S
C513 C514 1.334 . S
C514 H485 0.950 . S
C514 C513 1.334 . S
C514 C515 1.287 . S
C515 C514 1.287 . S
C515 C516 1.524 . S
C515 H518 0.999 . S
C516 H486 0.950 . S
C516 C515 1.524 . S
C516 C517 1.415 . S
C517 H487 0.950 . S
C517 C512 1.363 . S
C517 C516 1.415 . S
H518 C515 0.999 . S
H519 C500 0.913 . S
H520 C538 0.951 . S
H521 C540 0.951 . S
H522 C542 0.950 . S
H523 C543 0.950 . S
H524 C545 0.950 . S
H525 C548 0.950 1_556 S
H526 C549 0.950 . S
H527 C551 0.950 . S
H528 C552 0.961 . S
H529 C553 0.951 . S
H530 C555 0.951 . S
H531 C557 0.950 . S
H532 C558 0.950 . S
H533 C560 0.950 . S
H534 C563 0.950 1_554 S
H535 C564 0.950 . S
H536 C566 0.950 . S
H537 C567 0.950 . S
C538 H520 0.951 . S
C538 C539 1.366 . S
C538 C540 1.388 . S
C539 C538 1.366 . S
C539 C543 1.385 1_554 S
C540 H521 0.951 . S
C540 C538 1.388 . S
C540 C541 1.366 . S
C541 C540 1.366 . S
C541 C542 1.414 1_554 S
C541 C544 1.499 . S
C542 H522 0.950 . S
C542 C541 1.414 1_556 S
C542 C543 1.374 . S
C543 H523 0.950 . S
C543 C539 1.385 1_556 S
C543 C542 1.374 . S
C544 C541 1.499 . S
C544 C545 1.373 1_654 S
C544 C546 1.389 1_655 S
C545 H524 0.950 . S
C545 C544 1.373 1_456 S
C545 C561 1.377 . S
C546 C544 1.389 1_455 S
C546 C547 1.524 1_455 S
C546 C560 1.377 . S
C547 C546 1.524 1_655 S
C547 C548 1.397 . S
C547 C552 1.360 1_655 S
C548 H525 0.950 1_554 S
C548 C547 1.397 . S
C548 C549 1.334 . S
C549 H526 0.950 . S
C549 C548 1.334 . S
C549 C550 1.287 . S
C550 C549 1.287 . S
C550 C551 1.524 . S
C550 H569 0.913 . S
C551 H527 0.950 . S
C551 C550 1.524 . S
C551 C552 1.408 1_655 S
C552 H528 0.961 . S
C552 C547 1.360 1_455 S
C552 C551 1.408 1_455 S
C553 H529 0.951 . S
C553 C554 1.366 1_556 S
C553 C555 1.388 . S
C554 C553 1.366 1_554 S
C554 C558 1.385 . S
C555 H530 0.951 . S
C555 C553 1.388 . S
C555 C556 1.366 1_556 S
C556 C555 1.366 1_554 S
C556 C557 1.414 . S
C556 C559 1.499 . S
C557 H531 0.950 . S
C557 C556 1.414 . S
C557 C558 1.374 . S
C558 H532 0.950 . S
C558 C554 1.385 . S
C558 C557 1.374 . S
C559 C556 1.499 . S
C559 C560 1.373 . S
C559 C561 1.389 1_554 S
C560 H533 0.950 . S
C560 C546 1.377 . S
C560 C559 1.373 . S
C561 C545 1.377 . S
C561 C559 1.389 1_556 S
C561 C562 1.524 . S
C562 C561 1.524 . S
C562 C563 1.397 . S
C562 C567 1.363 . S
C563 H534 0.950 1_556 S
C563 C562 1.397 . S
C563 C564 1.334 . S
C564 H535 0.950 . S
C564 C563 1.334 . S
C564 C565 1.287 . S
C565 C564 1.287 . S
C565 C566 1.524 . S
C565 H568 0.999 . S
C566 H536 0.950 . S
C566 C565 1.524 . S
C566 C567 1.415 . S
C567 H537 0.950 . S
C567 C562 1.363 . S
C567 C566 1.415 . S
H568 C565 0.999 . S
H569 C550 0.913 . S
H570 C588 0.951 1_556 S
H571 C590 0.954 . S
H572 C592 0.950 . S
H573 C593 0.950 . S
H574 C595 0.950 . S
H575 C598 0.950 . S
H576 C599 0.950 . S
H577 C601 0.950 . S
H578 C602 0.950 . S
H579 C603 0.951 . S
H580 C605 0.951 . S
H581 C607 0.947 1_556 S
H582 C608 0.949 1_556 S
H583 C610 0.950 . S
H584 C613 0.950 . S
H585 C614 0.950 . S
H586 C616 0.950 . S
H587 C617 0.950 . S
C588 H570 0.951 1_554 S
C588 C589 1.365 . S
C588 C590 1.387 1_554 S
C589 C588 1.365 . S
C589 C593 1.385 . S
C590 H571 0.954 . S
C590 C588 1.387 1_556 S
C590 C591 1.363 1_556 S
C591 C590 1.363 1_554 S
C591 C592 1.414 . S
C591 C594 1.499 . S
C592 H572 0.950 . S
C592 C591 1.414 . S
C592 C593 1.374 . S
C593 H573 0.950 . S
C593 C589 1.385 . S
C593 C592 1.374 . S
C594 C591 1.499 . S
C594 C595 1.373 1_455 S
C594 C596 1.389 1_454 S
C595 H574 0.950 . S
C595 C594 1.373 1_655 S
C595 C611 1.377 . S
C596 C594 1.389 1_656 S
C596 C597 1.524 1_655 S
C596 C610 1.377 . S
C597 C596 1.524 1_455 S
C597 C598 1.397 . S
C597 C602 1.363 1_455 S
C598 H575 0.950 . S
C598 C597 1.397 . S
C598 C599 1.334 . S
C599 H576 0.950 . S
C599 C598 1.334 . S
C599 C600 1.287 . S
C600 C599 1.287 . S
C600 C601 1.524 . S
C600 H619 0.913 . S
C601 H577 0.950 . S
C601 C600 1.524 . S
C601 C602 1.415 1_455 S
C602 H578 0.950 . S
C602 C597 1.363 1_655 S
C602 C601 1.415 1_655 S
C603 H579 0.951 . S
C603 C604 1.366 . S
C603 C605 1.388 . S
C604 C603 1.366 . S
C604 C608 1.385 . S
C605 H580 0.951 . S
C605 C603 1.388 . S
C605 C606 1.366 . S
C606 C605 1.366 . S
C606 C607 1.414 . S
C606 C609 1.499 . S
C607 H581 0.947 1_554 S
C607 C606 1.414 . S
C607 C608 1.374 . S
C608 H582 0.949 1_554 S
C608 C604 1.385 . S
C608 C607 1.374 . S
C609 C606 1.499 . S
C609 C610 1.373 1_554 S
C609 C611 1.389 . S
C610 H583 0.950 . S
C610 C596 1.377 . S
C610 C609 1.373 1_556 S
C611 C595 1.377 . S
C611 C609 1.389 . S
C611 C612 1.524 . S
C612 C611 1.524 . S
C612 C613 1.397 . S
C612 C617 1.363 . S
C613 H584 0.950 . S
C613 C612 1.397 . S
C613 C614 1.334 . S
C614 H585 0.950 . S
C614 C613 1.334 . S
C614 C615 1.287 . S
C615 C614 1.287 . S
C615 C616 1.524 . S
C615 H618 0.999 . S
C616 H586 0.950 . S
C616 C615 1.524 . S
C616 C617 1.415 . S
C617 H587 0.950 . S
C617 C612 1.363 . S
C617 C616 1.415 . S
H618 C615 0.999 . S
H619 C600 0.913 . S
H620 C638 0.951 . S
H621 C640 0.951 . S
H622 C642 0.950 . S
H623 C643 0.950 . S
H624 C645 0.950 . S
H625 C648 0.950 . S
H626 C649 0.950 . S
H627 C651 0.950 . S
H628 C652 0.950 . S
H629 C653 0.951 . S
H630 C655 0.951 . S
H631 C657 0.950 . S
H632 C658 0.950 . S
H633 C660 0.950 1_655 S
H634 C663 0.950 . S
H635 C664 0.950 . S
H636 C666 0.950 . S
H637 C667 0.950 . S
C638 H620 0.951 . S
C638 C639 1.366 . S
C638 C640 1.388 . S
C639 C638 1.366 . S
C639 C643 1.385 . S
C640 H621 0.951 . S
C640 C638 1.388 . S
C640 C641 1.366 . S
C641 C640 1.366 . S
C641 C642 1.414 . S
C641 C644 1.499 . S
C642 H622 0.950 . S
C642 C641 1.414 . S
C642 C643 1.374 . S
C643 H623 0.950 . S
C643 C639 1.385 . S
C643 C642 1.374 . S
C644 C641 1.499 . S
C644 C645 1.373 . S
C644 C646 1.389 . S
C645 H624 0.950 . S
C645 C644 1.373 . S
C645 C661 1.377 . S
C646 C644 1.389 . S
C646 C647 1.524 . S
C646 C660 1.377 . S
C647 C646 1.524 . S
C647 C648 1.397 . S
C647 C652 1.363 . S
C648 H625 0.950 . S
C648 C647 1.397 . S
C648 C649 1.334 . S
C649 H626 0.950 . S
C649 C648 1.334 . S
C649 C650 1.287 . S
C650 C649 1.287 . S
C650 C651 1.524 . S
C650 H669 0.913 . S
C651 H627 0.950 . S
C651 C650 1.524 . S
C651 C652 1.415 . S
C652 H628 0.950 . S
C652 C647 1.363 . S
C652 C651 1.415 . S
C653 H629 0.951 . S
C653 C654 1.366 . S
C653 C655 1.388 . S
C654 C653 1.366 . S
C654 C658 1.385 . S
C655 H630 0.951 . S
C655 C653 1.388 . S
C655 C656 1.366 . S
C656 C655 1.366 . S
C656 C657 1.414 . S
C656 C659 1.499 . S
C657 H631 0.950 . S
C657 C656 1.414 . S
C657 C658 1.374 . S
C658 H632 0.950 . S
C658 C654 1.385 . S
C658 C657 1.374 . S
C659 C656 1.499 . S
C659 C660 1.373 1_655 S
C659 C661 1.389 1_655 S
C660 H633 0.950 1_455 S
C660 C646 1.377 . S
C660 C659 1.373 1_455 S
C661 C645 1.377 . S
C661 C659 1.389 1_455 S
C661 C662 1.524 . S
C662 C661 1.524 . S
C662 C663 1.397 1_455 S
C662 C667 1.363 . S
C663 H634 0.950 . S
C663 C662 1.397 1_655 S
C663 C664 1.334 . S
C664 H635 0.950 . S
C664 C663 1.334 . S
C664 C665 1.287 . S
C665 C664 1.287 . S
C665 C666 1.524 1_655 S
C665 H668 0.999 . S
C666 H636 0.950 . S
C666 C665 1.524 1_455 S
C666 C667 1.415 . S
C667 H637 0.950 . S
C667 C662 1.363 . S
C667 C666 1.415 . S
H668 C665 0.999 . S
H669 C650 0.913 . S
H670 C688 0.951 . S
H671 C690 0.951 . S
H672 C692 0.950 . S
H673 C693 0.950 . S
H674 C695 0.950 . S
H675 C698 0.950 . S
H676 C699 0.950 . S
H677 C701 0.950 . S
H678 C702 0.950 . S
H679 C703 0.951 . S
H680 C705 0.951 . S
H681 C707 0.950 . S
H682 C708 0.950 . S
H683 C710 0.950 . S
H684 C713 0.950 . S
H685 C714 0.950 . S
H686 C716 0.950 . S
H687 C717 0.939 1_655 S
C688 H670 0.951 . S
C688 C689 1.366 . S
C688 C690 1.388 . S
C689 C688 1.366 . S
C689 C693 1.385 . S
C690 H671 0.951 . S
C690 C688 1.388 . S
C690 C691 1.366 . S
C691 C690 1.366 . S
C691 C692 1.414 . S
C691 C694 1.499 . S
C692 H672 0.950 . S
C692 C691 1.414 . S
C692 C693 1.374 . S
C693 H673 0.950 . S
C693 C689 1.385 . S
C693 C692 1.374 . S
C694 C691 1.499 . S
C694 C695 1.373 . S
C694 C696 1.389 . S
C695 H674 0.950 . S
C695 C694 1.373 . S
C695 C711 1.377 . S
C696 C694 1.389 . S
C696 C697 1.524 . S
C696 C710 1.377 . S
C697 C696 1.524 . S
C697 C698 1.397 . S
C697 C702 1.363 . S
C698 H675 0.950 . S
C698 C697 1.397 . S
C698 C699 1.334 . S
C699 H676 0.950 . S
C699 C698 1.334 . S
C699 C700 1.287 . S
C700 C699 1.287 . S
C700 C701 1.524 . S
C700 H719 0.913 . S
C701 H677 0.950 . S
C701 C700 1.524 . S
C701 C702 1.415 . S
C702 H678 0.950 . S
C702 C697 1.363 . S
C702 C701 1.415 . S
C703 H679 0.951 . S
C703 C704 1.366 . S
C703 C705 1.388 . S
C704 C703 1.366 . S
C704 C708 1.385 . S
C705 H680 0.951 . S
C705 C703 1.388 . S
C705 C706 1.366 . S
C706 C705 1.366 . S
C706 C707 1.414 . S
C706 C709 1.499 . S
C707 H681 0.950 . S
C707 C706 1.414 . S
C707 C708 1.374 . S
C708 H682 0.950 . S
C708 C704 1.385 . S
C708 C707 1.374 . S
C709 C706 1.499 . S
C709 C710 1.373 1_455 S
C709 C711 1.389 1_455 S
C710 H683 0.950 . S
C710 C696 1.377 . S
C710 C709 1.373 1_655 S
C711 C695 1.377 . S
C711 C709 1.389 1_655 S
C711 C712 1.524 1_655 S
C712 C711 1.524 1_455 S
C712 C713 1.397 . S
C712 C717 1.365 . S
C713 H684 0.950 . S
C713 C712 1.397 . S
C713 C714 1.334 . S
C714 H685 0.950 . S
C714 C713 1.334 . S
C714 C715 1.287 . S
C715 C714 1.287 . S
C715 C716 1.524 . S
C715 H718 0.999 . S
C716 H686 0.950 . S
C716 C715 1.524 . S
C716 C717 1.423 . S
C717 H687 0.939 1_455 S
C717 C712 1.365 . S
C717 C716 1.423 . S
H718 C715 0.999 . S
H719 C700 0.913 . S
H720 C738 0.951 1_655 S
H721 C740 0.954 . S
H722 C742 0.950 . S
H723 C743 0.950 . S
H724 C745 0.950 . S
H725 C748 0.950 . S
H726 C749 0.950 1_455 S
H727 C751 0.950 . S
H728 C752 0.950 . S
H729 C753 0.951 1_455 S
H730 C755 0.957 . S
H731 C757 0.950 . S
H732 C758 0.950 . S
H733 C760 0.950 . S
H734 C763 0.950 . S
H735 C764 0.950 1_655 S
H736 C766 0.950 . S
H737 C767 0.950 . S
C738 H720 0.951 1_455 S
C738 C739 1.366 . S
C738 C740 1.387 1_455 S
C739 C738 1.366 . S
C739 C743 1.385 . S
C740 H721 0.954 . S
C740 C738 1.387 1_655 S
C740 C741 1.364 1_655 S
C741 C740 1.364 1_455 S
C741 C742 1.414 . S
C741 C744 1.499 . S
C742 H722 0.950 . S
C742 C741 1.414 . S
C742 C743 1.374 . S
C743 H723 0.950 . S
C743 C739 1.385 . S
C743 C742 1.374 . S
C744 C741 1.499 . S
C744 C745 1.373 . S
C744 C746 1.389 1_456 S
C745 H724 0.950 . S
C745 C744 1.373 . S
C745 C761 1.377 . S
C746 C744 1.389 1_654 S
C746 C747 1.524 . S
C746 C760 1.377 . S
C747 C746 1.524 . S
C747 C748 1.397 1_655 S
C747 C752 1.363 . S
C748 H725 0.950 . S
C748 C747 1.397 1_455 S
C748 C749 1.334 1_455 S
C749 H726 0.950 1_655 S
C749 C748 1.334 1_655 S
C749 C750 1.287 . S
C750 C749 1.287 . S
C750 C751 1.524 . S
C750 H769 0.913 . S
C751 H727 0.950 . S
C751 C750 1.524 . S
C751 C752 1.415 . S
C752 H728 0.950 . S
C752 C747 1.363 . S
C752 C751 1.415 . S
C753 H729 0.951 1_655 S
C753 C754 1.366 . S
C753 C755 1.386 1_655 S
C754 C753 1.366 . S
C754 C758 1.385 . S
C755 H730 0.957 . S
C755 C753 1.386 1_455 S
C755 C756 1.361 1_455 S
C756 C755 1.361 1_655 S
C756 C757 1.414 . S
C756 C759 1.499 . S
C757 H731 0.950 . S
C757 C756 1.414 . S
C757 C758 1.374 . S
C758 H732 0.950 . S
C758 C754 1.385 . S
C758 C757 1.374 . S
C759 C756 1.499 . S
C759 C760 1.373 1_556 S
C759 C761 1.389 1_655 S
C760 H733 0.950 . S
C760 C746 1.377 . S
C760 C759 1.373 1_554 S
C761 C745 1.377 . S
C761 C759 1.389 1_455 S
C761 C762 1.524 . S
C762 C761 1.524 . S
C762 C763 1.397 1_455 S
C762 C767 1.363 . S
C763 H734 0.950 . S
C763 C762 1.397 1_655 S
C763 C764 1.334 1_655 S
C764 H735 0.950 1_455 S
C764 C763 1.334 1_455 S
C764 C765 1.287 . S
C765 C764 1.287 . S
C765 C766 1.524 . S
C765 H768 0.999 . S
C766 H736 0.950 . S
C766 C765 1.524 . S
C766 C767 1.415 . S
C767 H737 0.950 . S
C767 C762 1.363 . S
C767 C766 1.415 . S
H768 C765 0.999 . S
H769 C750 0.913 . S
H770 C788 0.951 . S
H771 C790 0.951 . S
H772 C792 0.950 1_655 S
H773 C793 0.950 . S
H774 C795 0.951 . S
H775 C798 0.950 . S
H776 C799 0.946 1_655 S
H777 C801 0.950 . S
H778 C802 0.950 . S
H779 C803 0.951 . S
H780 C805 0.951 . S
H781 C807 0.950 1_455 S
H782 C808 0.950 . S
H783 C810 0.951 . S
H784 C813 0.950 . S
H785 C814 0.946 1_455 S
H786 C816 0.950 . S
H787 C817 0.950 . S
C788 H770 0.951 . S
C788 C789 1.366 . S
C788 C790 1.388 . S
C789 C788 1.366 . S
C789 C793 1.385 . S
C790 H771 0.951 . S
C790 C788 1.388 . S
C790 C791 1.366 . S
C791 C790 1.366 . S
C791 C792 1.414 . S
C791 C794 1.499 . S
C792 H772 0.950 1_455 S
C792 C791 1.414 . S
C792 C793 1.374 . S
C793 H773 0.950 . S
C793 C789 1.385 . S
C793 C792 1.374 . S
C794 C791 1.499 . S
C794 C795 1.370 1_455 S
C794 C796 1.389 . S
C795 H774 0.951 . S
C795 C794 1.370 1_655 S
C795 C811 1.380 . S
C796 C794 1.389 . S
C796 C797 1.524 . S
C796 C810 1.380 . S
C797 C796 1.524 . S
C797 C798 1.397 1_455 S
C797 C802 1.363 . S
C798 H775 0.950 . S
C798 C797 1.397 1_655 S
C798 C799 1.333 1_655 S
C799 H776 0.946 1_455 S
C799 C798 1.333 1_455 S
C799 C800 1.292 . S
C800 C799 1.292 . S
C800 C801 1.524 . S
C800 H819 0.913 . S
C801 H777 0.950 . S
C801 C800 1.524 . S
C801 C802 1.415 . S
C802 H778 0.950 . S
C802 C797 1.363 . S
C802 C801 1.415 . S
C803 H779 0.951 . S
C803 C804 1.366 . S
C803 C805 1.388 . S
C804 C803 1.366 . S
C804 C808 1.385 . S
C805 H780 0.951 . S
C805 C803 1.388 . S
C805 C806 1.366 . S
C806 C805 1.366 . S
C806 C807 1.414 . S
C806 C809 1.499 . S
C807 H781 0.950 1_655 S
C807 C806 1.414 . S
C807 C808 1.374 . S
C808 H782 0.950 . S
C808 C804 1.385 . S
C808 C807 1.374 . S
C809 C806 1.499 . S
C809 C810 1.370 1_655 S
C809 C811 1.389 . S
C810 H783 0.951 . S
C810 C796 1.380 . S
C810 C809 1.370 1_455 S
C811 C795 1.380 . S
C811 C809 1.389 . S
C811 C812 1.524 . S
C812 C811 1.524 . S
C812 C813 1.397 1_655 S
C812 C817 1.363 . S
C813 H784 0.950 . S
C813 C812 1.397 1_455 S
C813 C814 1.333 1_455 S
C814 H785 0.946 1_655 S
C814 C813 1.333 1_655 S
C814 C815 1.292 . S
C815 C814 1.292 . S
C815 C816 1.524 . S
C815 H818 0.999 . S
C816 H786 0.950 . S
C816 C815 1.524 . S
C816 C817 1.415 . S
C817 H787 0.950 . S
C817 C812 1.363 . S
C817 C816 1.415 . S
H818 C815 0.999 . S
H819 C800 0.913 . S
H820 C838 0.951 . S
H821 C840 0.951 . S
H822 C842 0.950 . S
H823 C843 0.950 . S
H824 C845 0.950 . S
H825 C848 0.950 1_556 S
H826 C849 0.950 . S
H827 C851 0.950 . S
H828 C852 0.950 . S
H829 C853 0.951 . S
H830 C855 0.951 . S
H831 C857 0.950 . S
H832 C858 0.950 . S
H833 C860 0.950 . S
H834 C863 0.950 . S
H835 C864 0.950 . S
H836 C866 0.950 . S
H837 C867 0.950 . S
C838 H820 0.951 . S
C838 C839 1.366 1_554 S
C838 C840 1.388 . S
C839 C838 1.366 1_556 S
C839 C843 1.385 . S
C840 H821 0.951 . S
C840 C838 1.388 . S
C840 C841 1.366 1_554 S
C841 C840 1.366 1_556 S
C841 C842 1.414 . S
C841 C844 1.499 . S
C842 H822 0.950 . S
C842 C841 1.414 . S
C842 C843 1.374 . S
C843 H823 0.950 . S
C843 C839 1.385 . S
C843 C842 1.374 . S
C844 C841 1.499 . S
C844 C845 1.373 . S
C844 C846 1.389 1_556 S
C845 H824 0.950 . S
C845 C844 1.373 . S
C845 C861 1.377 1_565 S
C846 C844 1.389 1_554 S
C846 C847 1.524 . S
C846 C860 1.377 1_565 S
C847 C846 1.524 . S
C847 C848 1.397 . S
C847 C852 1.363 . S
C848 H825 0.950 1_554 S
C848 C847 1.397 . S
C848 C849 1.334 . S
C849 H826 0.950 . S
C849 C848 1.334 . S
C849 C850 1.287 . S
C850 C849 1.287 . S
C850 C851 1.524 . S
C850 H869 0.913 . S
C851 H827 0.950 . S
C851 C850 1.524 . S
C851 C852 1.415 . S
C852 H828 0.950 . S
C852 C847 1.363 . S
C852 C851 1.415 . S
C853 H829 0.951 . S
C853 C854 1.366 . S
C853 C855 1.388 . S
C854 C853 1.366 . S
C854 C858 1.385 1_556 S
C855 H830 0.951 . S
C855 C853 1.388 . S
C855 C856 1.366 . S
C856 C855 1.366 . S
C856 C857 1.414 1_556 S
C856 C859 1.499 . S
C857 H831 0.950 . S
C857 C856 1.414 1_554 S
C857 C858 1.374 . S
C858 H832 0.950 . S
C858 C854 1.385 1_554 S
C858 C857 1.374 . S
C859 C856 1.499 . S
C859 C860 1.373 1_556 S
C859 C861 1.389 . S
C860 H833 0.950 . S
C860 C846 1.377 1_545 S
C860 C859 1.373 1_554 S
C861 C845 1.377 1_545 S
C861 C859 1.389 . S
C861 C862 1.524 . S
C862 C861 1.524 . S
C862 C863 1.397 . S
C862 C867 1.363 . S
C863 H834 0.950 . S
C863 C862 1.397 . S
C863 C864 1.334 . S
C864 H835 0.950 . S
C864 C863 1.334 . S
C864 C865 1.287 . S
C865 C864 1.287 . S
C865 C866 1.524 . S
C865 H868 0.999 . S
C866 H836 0.950 . S
C866 C865 1.524 . S
C866 C867 1.415 . S
C867 H837 0.950 . S
C867 C862 1.363 . S
C867 C866 1.415 . S
H868 C865 0.999 . S
H869 C850 0.913 . S
H870 C888 0.951 . S
H871 C890 0.951 . S
H872 C892 0.950 . S
H873 C893 0.950 . S
H874 C895 0.950 . S
H875 C898 0.950 . S
H876 C899 0.950 . S
H877 C901 0.950 . S
H878 C902 0.950 . S
H879 C903 0.951 . S
H880 C905 0.951 . S
H881 C907 0.950 . S
H882 C908 0.950 . S
H883 C910 0.950 . S
H884 C913 0.950 . S
H885 C914 0.950 . S
H886 C916 0.950 . S
H887 C917 0.950 . S
C888 H870 0.951 . S
C888 C889 1.366 . S
C888 C890 1.388 . S
C889 C888 1.366 . S
C889 C893 1.385 . S
C890 H871 0.951 . S
C890 C888 1.388 . S
C890 C891 1.366 . S
C891 C890 1.366 . S
C891 C892 1.414 . S
C891 C894 1.499 . S
C892 H872 0.950 . S
C892 C891 1.414 . S
C892 C893 1.374 . S
C893 H873 0.950 . S
C893 C889 1.385 . S
C893 C892 1.374 . S
C894 C891 1.499 . S
C894 C895 1.373 . S
C894 C896 1.389 . S
C895 H874 0.950 . S
C895 C894 1.373 . S
C895 C911 1.377 1_545 S
C896 C894 1.389 . S
C896 C897 1.524 . S
C896 C910 1.377 1_545 S
C897 C896 1.524 . S
C897 C898 1.397 . S
C897 C902 1.363 . S
C898 H875 0.950 . S
C898 C897 1.397 . S
C898 C899 1.334 . S
C899 H876 0.950 . S
C899 C898 1.334 . S
C899 C900 1.287 . S
C900 C899 1.287 . S
C900 C901 1.524 . S
C900 H919 0.913 . S
C901 H877 0.950 . S
C901 C900 1.524 . S
C901 C902 1.415 . S
C902 H878 0.950 . S
C902 C897 1.363 . S
C902 C901 1.415 . S
C903 H879 0.951 . S
C903 C904 1.366 . S
C903 C905 1.388 . S
C904 C903 1.366 . S
C904 C908 1.385 . S
C905 H880 0.951 . S
C905 C903 1.388 . S
C905 C906 1.366 . S
C906 C905 1.366 . S
C906 C907 1.414 . S
C906 C909 1.499 . S
C907 H881 0.950 . S
C907 C906 1.414 . S
C907 C908 1.374 . S
C908 H882 0.950 . S
C908 C904 1.385 . S
C908 C907 1.374 . S
C909 C906 1.499 . S
C909 C910 1.373 . S
C909 C911 1.389 . S
C910 H883 0.950 . S
C910 C896 1.377 1_565 S
C910 C909 1.373 . S
C911 C895 1.377 1_565 S
C911 C909 1.389 . S
C911 C912 1.524 . S
C912 C911 1.524 . S
C912 C913 1.397 . S
C912 C917 1.363 . S
C913 H884 0.950 . S
C913 C912 1.397 . S
C913 C914 1.334 . S
C914 H885 0.950 . S
C914 C913 1.334 . S
C914 C915 1.287 . S
C915 C914 1.287 . S
C915 C916 1.524 . S
C915 H918 0.999 . S
C916 H886 0.950 . S
C916 C915 1.524 . S
C916 C917 1.415 . S
C917 H887 0.950 . S
C917 C912 1.363 . S
C917 C916 1.415 . S
H918 C915 0.999 . S
H919 C900 0.913 . S
H920 C938 0.950 . S
H921 C940 0.951 . S
H922 C942 0.950 . S
H923 C943 0.950 . S
H924 C945 0.950 . S
H925 C948 0.950 . S
H926 C949 0.950 . S
H927 C951 0.950 . S
H928 C952 0.950 . S
H929 C953 0.951 . S
H930 C955 0.951 . S
H931 C957 0.950 . S
H932 C958 0.950 . S
H933 C960 0.950 1_556 S
H934 C963 0.950 . S
H935 C964 0.950 . S
H936 C966 0.950 . S
H937 C967 0.950 . S
C938 H920 0.950 . S
C938 C939 1.367 1_556 S
C938 C940 1.388 . S
C939 C938 1.367 1_554 S
C939 C943 1.385 . S
C940 H921 0.951 . S
C940 C938 1.388 . S
C940 C941 1.366 1_556 S
C941 C940 1.366 1_554 S
C941 C942 1.414 . S
C941 C944 1.499 . S
C942 H922 0.950 . S
C942 C941 1.414 . S
C942 C943 1.374 . S
C943 H923 0.950 . S
C943 C939 1.385 . S
C943 C942 1.374 . S
C944 C941 1.499 . S
C944 C945 1.373 . S
C944 C946 1.389 . S
C945 H924 0.950 . S
C945 C944 1.373 . S
C945 C961 1.377 . S
C946 C944 1.389 . S
C946 C947 1.524 1_554 S
C946 C960 1.377 . S
C947 C946 1.524 1_556 S
C947 C948 1.397 1_556 S
C947 C952 1.363 . S
C948 H925 0.950 . S
C948 C947 1.397 1_554 S
C948 C949 1.334 1_554 S
C949 H926 0.950 . S
C949 C948 1.334 1_556 S
C949 C950 1.287 . S
C950 C949 1.287 . S
C950 C951 1.524 . S
C950 H969 0.913 . S
C951 H927 0.950 . S
C951 C950 1.524 . S
C951 C952 1.415 . S
C952 H928 0.950 . S
C952 C947 1.363 . S
C952 C951 1.415 . S
C953 H929 0.951 . S
C953 C954 1.366 . S
C953 C955 1.388 . S
C954 C953 1.366 . S
C954 C958 1.385 1_554 S
C955 H930 0.951 . S
C955 C953 1.388 . S
C955 C956 1.366 . S
C956 C955 1.366 . S
C956 C957 1.414 1_554 S
C956 C959 1.499 . S
C957 H931 0.950 . S
C957 C956 1.414 1_556 S
C957 C958 1.374 . S
C958 H932 0.950 . S
C958 C954 1.385 1_556 S
C958 C957 1.374 . S
C959 C956 1.499 . S
C959 C960 1.373 . S
C959 C961 1.389 . S
C960 H933 0.950 1_554 S
C960 C946 1.377 . S
C960 C959 1.373 . S
C961 C945 1.377 . S
C961 C959 1.389 . S
C961 C962 1.524 . S
C962 C961 1.524 . S
C962 C963 1.397 . S
C962 C967 1.363 . S
C963 H934 0.950 . S
C963 C962 1.397 . S
C963 C964 1.334 . S
C964 H935 0.950 . S
C964 C963 1.334 . S
C964 C965 1.287 . S
C965 C964 1.287 . S
C965 C966 1.524 . S
C965 H968 0.999 . S
C966 H936 0.950 . S
C966 C965 1.524 . S
C966 C967 1.415 . S
C967 H937 0.950 . S
C967 C962 1.363 . S
C967 C966 1.415 . S
H968 C965 0.999 . S
H969 C950 0.913 . S
H970 C988 0.951 . S
H971 C990 0.951 . S
H972 C992 0.950 . S
H973 C993 0.950 . S
H974 C995 0.937 1_556 S
H975 C998 0.950 . S
H976 C999 0.950 . S
H977 C1001 0.950 . S
H978 C1002 0.950 . S
H979 C1003 0.951 . S
H980 C1005 0.951 . S
H981 C1007 0.950 . S
H982 C1008 0.950 . S
H983 C1010 0.950 . S
H984 C1013 0.950 . S
H985 C1014 0.950 . S
H986 C1016 0.950 . S
H987 C1017 0.950 . S
C988 H970 0.951 . S
C988 C989 1.366 . S
C988 C990 1.388 . S
C989 C988 1.366 . S
C989 C993 1.385 . S
C990 H971 0.951 . S
C990 C988 1.388 . S
C990 C991 1.366 . S
C991 C990 1.366 . S
C991 C992 1.414 . S
C991 C994 1.499 . S
C992 H972 0.950 . S
C992 C991 1.414 . S
C992 C993 1.374 . S
C993 H973 0.950 . S
C993 C989 1.385 . S
C993 C992 1.374 . S
C994 C991 1.499 . S
C994 C995 1.390 . S
C994 C996 1.389 . S
C995 H974 0.937 1_554 S
C995 C994 1.390 . S
C995 C1011 1.373 1_554 S
C996 C994 1.389 . S
C996 C997 1.524 . S
C996 C1010 1.377 . S
C997 C996 1.524 . S
C997 C998 1.397 . S
C997 C1002 1.363 . S
C998 H975 0.950 . S
C998 C997 1.397 . S
C998 C999 1.334 . S
C999 H976 0.950 . S
C999 C998 1.334 . S
C999 C1000 1.287 . S
C1000 C999 1.287 . S
C1000 C1001 1.524 . S
C1000 H1019 0.913 . S
C1001 H977 0.950 . S
C1001 C1000 1.524 . S
C1001 C1002 1.415 . S
C1002 H978 0.950 . S
C1002 C997 1.363 . S
C1002 C1001 1.415 . S
C1003 H979 0.951 . S
C1003 C1004 1.366 . S
C1003 C1005 1.388 . S
C1004 C1003 1.366 . S
C1004 C1008 1.385 . S
C1005 H980 0.951 . S
C1005 C1003 1.388 . S
C1005 C1006 1.366 . S
C1006 C1005 1.366 . S
C1006 C1007 1.414 . S
C1006 C1009 1.499 . S
C1007 H981 0.950 . S
C1007 C1006 1.414 . S
C1007 C1008 1.374 . S
C1008 H982 0.950 . S
C1008 C1004 1.385 . S
C1008 C1007 1.374 . S
C1009 C1006 1.499 . S
C1009 C1010 1.373 . S
C1009 C1011 1.389 1_554 S
C1010 H983 0.950 . S
C1010 C996 1.377 . S
C1010 C1009 1.373 . S
C1011 C995 1.373 1_556 S
C1011 C1009 1.389 1_556 S
C1011 C1012 1.524 . S
C1012 C1011 1.524 . S
C1012 C1013 1.397 . S
C1012 C1017 1.363 . S
C1013 H984 0.950 . S
C1013 C1012 1.397 . S
C1013 C1014 1.334 . S
C1014 H985 0.950 . S
C1014 C1013 1.334 . S
C1014 C1015 1.287 . S
C1015 C1014 1.287 . S
C1015 C1016 1.524 . S
C1015 H1018 0.999 . S
C1016 H986 0.950 . S
C1016 C1015 1.524 . S
C1016 C1017 1.415 . S
C1017 H987 0.950 . S
C1017 C1012 1.363 . S
C1017 C1016 1.415 . S
H1018 C1015 0.999 . S
H1019 C1000 0.913 . S
H1020 C1038 0.951 . S
H1021 C1040 0.951 . S
H1022 C1042 0.950 . S
H1023 C1043 0.950 . S
H1024 C1045 0.950 . S
H1025 C1048 0.950 . S
H1026 C1049 0.950 . S
H1027 C1051 0.950 . S
H1028 C1052 0.950 . S
H1029 C1053 0.951 . S
H1030 C1055 0.951 . S
H1031 C1057 0.950 . S
H1032 C1058 0.950 . S
H1033 C1060 0.950 . S
H1034 C1063 0.950 . S
H1035 C1064 0.950 . S
H1036 C1066 0.950 . S
H1037 C1067 0.950 . S
C1038 H1020 0.951 . S
C1038 C1039 1.366 . S
C1038 C1040 1.388 . S
C1039 C1038 1.366 . S
C1039 C1043 1.385 . S
C1040 H1021 0.951 . S
C1040 C1038 1.388 . S
C1040 C1041 1.366 . S
C1041 C1040 1.366 . S
C1041 C1042 1.414 . S
C1041 C1044 1.499 . S
C1042 H1022 0.950 . S
C1042 C1041 1.414 . S
C1042 C1043 1.374 . S
C1043 H1023 0.950 . S
C1043 C1039 1.385 . S
C1043 C1042 1.374 . S
C1044 C1041 1.499 . S
C1044 C1045 1.373 . S
C1044 C1046 1.389 . S
C1045 H1024 0.950 . S
C1045 C1044 1.373 . S
C1045 C1061 1.377 . S
C1046 C1044 1.389 . S
C1046 C1047 1.524 . S
C1046 C1060 1.377 . S
C1047 C1046 1.524 . S
C1047 C1048 1.397 . S
C1047 C1052 1.363 . S
C1048 H1025 0.950 . S
C1048 C1047 1.397 . S
C1048 C1049 1.334 . S
C1049 H1026 0.950 . S
C1049 C1048 1.334 . S
C1049 C1050 1.287 . S
C1050 C1049 1.287 . S
C1050 C1051 1.524 . S
C1050 H1069 0.913 . S
C1051 H1027 0.950 . S
C1051 C1050 1.524 . S
C1051 C1052 1.415 . S
C1052 H1028 0.950 . S
C1052 C1047 1.363 . S
C1052 C1051 1.415 . S
C1053 H1029 0.951 . S
C1053 C1054 1.366 . S
C1053 C1055 1.388 . S
C1054 C1053 1.366 . S
C1054 C1058 1.385 . S
C1055 H1030 0.951 . S
C1055 C1053 1.388 . S
C1055 C1056 1.366 . S
C1056 C1055 1.366 . S
C1056 C1057 1.414 . S
C1056 C1059 1.499 . S
C1057 H1031 0.950 . S
C1057 C1056 1.414 . S
C1057 C1058 1.374 . S
C1058 H1032 0.950 . S
C1058 C1054 1.385 . S
C1058 C1057 1.374 . S
C1059 C1056 1.499 . S
C1059 C1060 1.373 . S
C1059 C1061 1.389 . S
C1060 H1033 0.950 . S
C1060 C1046 1.377 . S
C1060 C1059 1.373 . S
C1061 C1045 1.377 . S
C1061 C1059 1.389 . S
C1061 C1062 1.524 . S
C1062 C1061 1.524 . S
C1062 C1063 1.397 . S
C1062 C1067 1.363 . S
C1063 H1034 0.950 . S
C1063 C1062 1.397 . S
C1063 C1064 1.334 . S
C1064 H1035 0.950 . S
C1064 C1063 1.334 . S
C1064 C1065 1.287 . S
C1065 C1064 1.287 . S
C1065 C1066 1.524 . S
C1065 H1068 0.999 . S
C1066 H1036 0.950 . S
C1066 C1065 1.524 . S
C1066 C1067 1.415 . S
C1067 H1037 0.950 . S
C1067 C1062 1.363 . S
C1067 C1066 1.415 . S
H1068 C1065 0.999 . S
H1069 C1050 0.913 . S
H1070 C1088 0.951 . S
H1071 C1090 0.951 . S
H1072 C1092 0.950 . S
H1073 C1093 0.950 . S
H1074 C1095 0.950 . S
H1075 C1098 0.950 . S
H1076 C1099 0.950 . S
H1077 C1101 0.950 . S
H1078 C1102 0.950 . S
H1079 C1103 0.951 . S
H1080 C1105 0.951 . S
H1081 C1107 0.950 . S
H1082 C1108 0.950 . S
H1083 C1110 0.950 . S
H1084 C1113 0.950 . S
H1085 C1114 0.950 . S
H1086 C1116 0.950 . S
H1087 C1117 0.950 . S
C1088 H1070 0.951 . S
C1088 C1089 1.366 . S
C1088 C1090 1.388 . S
C1089 C1088 1.366 . S
C1089 C1093 1.385 . S
C1090 H1071 0.951 . S
C1090 C1088 1.388 . S
C1090 C1091 1.366 . S
C1091 C1090 1.366 . S
C1091 C1092 1.414 . S
C1091 C1094 1.499 . S
C1092 H1072 0.950 . S
C1092 C1091 1.414 . S
C1092 C1093 1.374 . S
C1093 H1073 0.950 . S
C1093 C1089 1.385 . S
C1093 C1092 1.374 . S
C1094 C1091 1.499 . S
C1094 C1095 1.373 . S
C1094 C1096 1.389 . S
C1095 H1074 0.950 . S
C1095 C1094 1.373 . S
C1095 C1111 1.377 . S
C1096 C1094 1.389 . S
C1096 C1097 1.524 . S
C1096 C1110 1.377 . S
C1097 C1096 1.524 . S
C1097 C1098 1.397 . S
C1097 C1102 1.363 . S
C1098 H1075 0.950 . S
C1098 C1097 1.397 . S
C1098 C1099 1.334 . S
C1099 H1076 0.950 . S
C1099 C1098 1.334 . S
C1099 C1100 1.287 . S
C1100 C1099 1.287 . S
C1100 C1101 1.524 . S
C1100 H1119 0.913 . S
C1101 H1077 0.950 . S
C1101 C1100 1.524 . S
C1101 C1102 1.415 . S
C1102 H1078 0.950 . S
C1102 C1097 1.363 . S
C1102 C1101 1.415 . S
C1103 H1079 0.951 . S
C1103 C1104 1.366 . S
C1103 C1105 1.388 . S
C1104 C1103 1.366 . S
C1104 C1108 1.385 . S
C1105 H1080 0.951 . S
C1105 C1103 1.388 . S
C1105 C1106 1.366 . S
C1106 C1105 1.366 . S
C1106 C1107 1.414 . S
C1106 C1109 1.499 . S
C1107 H1081 0.950 . S
C1107 C1106 1.414 . S
C1107 C1108 1.374 . S
C1108 H1082 0.950 . S
C1108 C1104 1.385 . S
C1108 C1107 1.374 . S
C1109 C1106 1.499 . S
C1109 C1110 1.373 . S
C1109 C1111 1.389 . S
C1110 H1083 0.950 . S
C1110 C1096 1.377 . S
C1110 C1109 1.373 . S
C1111 C1095 1.377 . S
C1111 C1109 1.389 . S
C1111 C1112 1.524 . S
C1112 C1111 1.524 . S
C1112 C1113 1.397 . S
C1112 C1117 1.363 . S
C1113 H1084 0.950 . S
C1113 C1112 1.397 . S
C1113 C1114 1.334 . S
C1114 H1085 0.950 . S
C1114 C1113 1.334 . S
C1114 C1115 1.287 . S
C1115 C1114 1.287 . S
C1115 C1116 1.524 . S
C1115 H1118 0.999 . S
C1116 H1086 0.950 . S
C1116 C1115 1.524 . S
C1116 C1117 1.415 . S
C1117 H1087 0.950 . S
C1117 C1112 1.363 . S
C1117 C1116 1.415 . S
H1118 C1115 0.999 . S
H1119 C1100 0.913 . S
H1120 C1138 0.951 . S
H1121 C1140 0.951 . S
H1122 C1142 0.950 . S
H1123 C1143 0.950 . S
H1124 C1145 0.950 . S
H1125 C1148 0.950 . S
H1126 C1149 0.950 . S
H1127 C1151 0.950 . S
H1128 C1152 0.950 . S
H1129 C1153 0.951 . S
H1130 C1155 0.951 . S
H1131 C1157 0.950 . S
H1132 C1158 0.950 . S
H1133 C1160 0.950 . S
H1134 C1163 0.950 . S
H1135 C1164 0.950 . S
H1136 C1166 0.950 . S
H1137 C1167 0.950 . S
C1138 H1120 0.951 . S
C1138 C1139 1.366 . S
C1138 C1140 1.388 . S
C1139 C1138 1.366 . S
C1139 C1143 1.385 . S
C1140 H1121 0.951 . S
C1140 C1138 1.388 . S
C1140 C1141 1.366 . S
C1141 C1140 1.366 . S
C1141 C1142 1.414 . S
C1141 C1144 1.499 . S
C1142 H1122 0.950 . S
C1142 C1141 1.414 . S
C1142 C1143 1.374 . S
C1143 H1123 0.950 . S
C1143 C1139 1.385 . S
C1143 C1142 1.374 . S
C1144 C1141 1.499 . S
C1144 C1145 1.373 1_455 S
C1144 C1146 1.389 . S
C1145 H1124 0.950 . S
C1145 C1144 1.373 1_655 S
C1145 C1161 1.377 . S
C1146 C1144 1.389 . S
C1146 C1147 1.524 . S
C1146 C1160 1.377 . S
C1147 C1146 1.524 . S
C1147 C1148 1.397 . S
C1147 C1152 1.363 . S
C1148 H1125 0.950 . S
C1148 C1147 1.397 . S
C1148 C1149 1.334 . S
C1149 H1126 0.950 . S
C1149 C1148 1.334 . S
C1149 C1150 1.287 . S
C1150 C1149 1.287 . S
C1150 C1151 1.524 . S
C1150 H1169 0.913 . S
C1151 H1127 0.950 . S
C1151 C1150 1.524 . S
C1151 C1152 1.415 . S
C1152 H1128 0.950 . S
C1152 C1147 1.363 . S
C1152 C1151 1.415 . S
C1153 H1129 0.951 . S
C1153 C1154 1.366 . S
C1153 C1155 1.388 . S
C1154 C1153 1.366 . S
C1154 C1158 1.385 . S
C1155 H1130 0.951 . S
C1155 C1153 1.388 . S
C1155 C1156 1.366 . S
C1156 C1155 1.366 . S
C1156 C1157 1.414 . S
C1156 C1159 1.499 . S
C1157 H1131 0.950 . S
C1157 C1156 1.414 . S
C1157 C1158 1.374 . S
C1158 H1132 0.950 . S
C1158 C1154 1.385 . S
C1158 C1157 1.374 . S
C1159 C1156 1.499 . S
C1159 C1160 1.373 1_655 S
C1159 C1161 1.389 . S
C1160 H1133 0.950 . S
C1160 C1146 1.377 . S
C1160 C1159 1.373 1_455 S
C1161 C1145 1.377 . S
C1161 C1159 1.389 . S
C1161 C1162 1.524 . S
C1162 C1161 1.524 . S
C1162 C1163 1.397 . S
C1162 C1167 1.363 . S
C1163 H1134 0.950 . S
C1163 C1162 1.397 . S
C1163 C1164 1.334 . S
C1164 H1135 0.950 . S
C1164 C1163 1.334 . S
C1164 C1165 1.287 . S
C1165 C1164 1.287 . S
C1165 C1166 1.524 . S
C1165 H1168 0.999 . S
C1166 H1136 0.950 . S
C1166 C1165 1.524 . S
C1166 C1167 1.415 . S
C1167 H1137 0.950 . S
C1167 C1162 1.363 . S
C1167 C1166 1.415 . S
H1168 C1165 0.999 . S
H1169 C1150 0.913 . S
H1170 C1188 0.951 . S
H1171 C1190 0.951 . S
H1172 C1192 0.950 . S
H1173 C1193 0.950 . S
H1174 C1195 0.950 . S
H1175 C1198 0.950 1_655 S
H1176 C1199 0.950 1_655 S
H1177 C1201 0.950 . S
H1178 C1202 0.950 . S
H1179 C1203 0.951 . S
H1180 C1205 0.951 . S
H1181 C1207 0.950 . S
H1182 C1208 0.950 . S
H1183 C1210 0.950 . S
H1184 C1213 0.950 . S
H1185 C1214 0.950 1_455 S
H1186 C1216 0.950 . S
H1187 C1217 0.950 . S
C1188 H1170 0.951 . S
C1188 C1189 1.366 1_455 S
C1188 C1190 1.388 . S
C1189 C1188 1.366 1_655 S
C1189 C1193 1.385 . S
C1190 H1171 0.951 . S
C1190 C1188 1.388 . S
C1190 C1191 1.366 1_455 S
C1191 C1190 1.366 1_655 S
C1191 C1192 1.414 . S
C1191 C1194 1.499 . S
C1192 H1172 0.950 . S
C1192 C1191 1.414 . S
C1192 C1193 1.374 . S
C1193 H1173 0.950 . S
C1193 C1189 1.385 . S
C1193 C1192 1.374 . S
C1194 C1191 1.499 . S
C1194 C1195 1.373 . S
C1194 C1196 1.389 1_655 S
C1195 H1174 0.950 . S
C1195 C1194 1.373 . S
C1195 C1211 1.377 . S
C1196 C1194 1.389 1_455 S
C1196 C1197 1.524 . S
C1196 C1210 1.377 . S
C1197 C1196 1.524 . S
C1197 C1198 1.397 . S
C1197 C1202 1.363 . S
C1198 H1175 0.950 1_455 S
C1198 C1197 1.397 . S
C1198 C1199 1.334 . S
C1199 H1176 0.950 1_455 S
C1199 C1198 1.334 . S
C1199 C1200 1.287 . S
C1200 C1199 1.287 . S
C1200 C1201 1.524 . S
C1200 H1219 0.913 . S
C1201 H1177 0.950 . S
C1201 C1200 1.524 . S
C1201 C1202 1.415 . S
C1202 H1178 0.950 . S
C1202 C1197 1.363 . S
C1202 C1201 1.415 . S
C1203 H1179 0.951 . S
C1203 C1204 1.366 1_655 S
C1203 C1205 1.388 . S
C1204 C1203 1.366 1_455 S
C1204 C1208 1.385 . S
C1205 H1180 0.951 . S
C1205 C1203 1.388 . S
C1205 C1206 1.366 1_655 S
C1206 C1205 1.366 1_455 S
C1206 C1207 1.414 . S
C1206 C1209 1.499 . S
C1207 H1181 0.950 . S
C1207 C1206 1.414 . S
C1207 C1208 1.374 . S
C1208 H1182 0.950 . S
C1208 C1204 1.385 . S
C1208 C1207 1.374 . S
C1209 C1206 1.499 . S
C1209 C1210 1.373 . S
C1209 C1211 1.389 1_455 S
C1210 H1183 0.950 . S
C1210 C1196 1.377 . S
C1210 C1209 1.373 . S
C1211 C1195 1.377 . S
C1211 C1209 1.389 1_655 S
C1211 C1212 1.524 . S
C1212 C1211 1.524 . S
C1212 C1213 1.397 1_655 S
C1212 C1217 1.363 . S
C1213 H1184 0.950 . S
C1213 C1212 1.397 1_455 S
C1213 C1214 1.334 1_455 S
C1214 H1185 0.950 1_655 S
C1214 C1213 1.334 1_655 S
C1214 C1215 1.287 . S
C1215 C1214 1.287 . S
C1215 C1216 1.524 . S
C1215 H1218 0.999 . S
C1216 H1186 0.950 . S
C1216 C1215 1.524 . S
C1216 C1217 1.415 . S
C1217 H1187 0.950 . S
C1217 C1212 1.363 . S
C1217 C1216 1.415 . S
H1218 C1215 0.999 . S
H1219 C1200 0.913 . S
H1220 C1238 0.951 . S
H1221 C1240 0.951 . S
H1222 C1242 0.950 . S
H1223 C1243 0.950 . S
H1224 C1245 0.950 . S
H1225 C1248 0.943 1_455 S
H1226 C1249 0.950 . S
H1227 C1251 0.950 . S
H1228 C1252 0.950 . S
H1229 C1253 0.951 . S
H1230 C1255 0.951 . S
H1231 C1257 0.950 . S
H1232 C1258 0.950 . S
H1233 C1260 0.950 . S
H1234 C1263 0.950 1_655 S
H1235 C1264 0.950 . S
H1236 C1266 0.950 . S
H1237 C1267 0.950 . S
C1238 H1220 0.951 . S
C1238 C1239 1.366 . S
C1238 C1240 1.388 . S
C1239 C1238 1.366 . S
C1239 C1243 1.385 1_655 S
C1240 H1221 0.951 . S
C1240 C1238 1.388 . S
C1240 C1241 1.366 . S
C1241 C1240 1.366 . S
C1241 C1242 1.414 1_655 S
C1241 C1244 1.499 . S
C1242 H1222 0.950 . S
C1242 C1241 1.414 1_455 S
C1242 C1243 1.374 . S
C1243 H1223 0.950 . S
C1243 C1239 1.385 1_455 S
C1243 C1242 1.374 . S
C1244 C1241 1.499 . S
C1244 C1245 1.373 1_655 S
C1244 C1246 1.389 . S
C1245 H1224 0.950 . S
C1245 C1244 1.373 1_455 S
C1245 C1261 1.377 . S
C1246 C1244 1.389 . S
C1246 C1247 1.524 . S
C1246 C1260 1.377 . S
C1247 C1246 1.524 . S
C1247 C1248 1.397 . S
C1247 C1252 1.363 . S
C1248 H1225 0.943 1_655 S
C1248 C1247 1.397 . S
C1248 C1249 1.334 . S
C1249 H1226 0.950 . S
C1249 C1248 1.334 . S
C1249 C1250 1.287 . S
C1250 C1249 1.287 . S
C1250 C1251 1.524 . S
C1250 H1269 0.913 . S
C1251 H1227 0.950 . S
C1251 C1250 1.524 . S
C1251 C1252 1.415 . S
C1252 H1228 0.950 . S
C1252 C1247 1.363 . S
C1252 C1251 1.415 . S
C1253 H1229 0.951 . S
C1253 C1254 1.366 . S
C1253 C1255 1.388 . S
C1254 C1253 1.366 . S
C1254 C1258 1.385 1_455 S
C1255 H1230 0.951 . S
C1255 C1253 1.388 . S
C1255 C1256 1.366 . S
C1256 C1255 1.366 . S
C1256 C1257 1.414 1_455 S
C1256 C1259 1.499 . S
C1257 H1231 0.950 . S
C1257 C1256 1.414 1_655 S
C1257 C1258 1.374 . S
C1258 H1232 0.950 . S
C1258 C1254 1.385 1_655 S
C1258 C1257 1.374 . S
C1259 C1256 1.499 . S
C1259 C1260 1.373 1_455 S
C1259 C1261 1.389 . S
C1260 H1233 0.950 . S
C1260 C1246 1.377 . S
C1260 C1259 1.373 1_655 S
C1261 C1245 1.377 . S
C1261 C1259 1.389 . S
C1261 C1262 1.524 . S
C1262 C1261 1.524 . S
C1262 C1263 1.397 . S
C1262 C1267 1.363 . S
C1263 H1234 0.950 1_455 S
C1263 C1262 1.397 . S
C1263 C1264 1.334 . S
C1264 H1235 0.950 . S
C1264 C1263 1.334 . S
C1264 C1265 1.287 . S
C1265 C1264 1.287 . S
C1265 C1266 1.524 . S
C1265 H1268 0.999 . S
C1266 H1236 0.950 . S
C1266 C1265 1.524 . S
C1266 C1267 1.415 . S
C1267 H1237 0.950 . S
C1267 C1262 1.363 . S
C1267 C1266 1.415 . S
H1268 C1265 0.999 . S
H1269 C1250 0.913 . S
H1270 C1288 0.951 . S
H1271 C1290 0.951 . S
H1272 C1292 0.950 . S
H1273 C1293 0.950 . S
H1274 C1295 0.950 . S
H1275 C1298 0.950 . S
H1276 C1299 0.950 . S
H1277 C1301 0.950 . S
H1278 C1302 0.950 . S
H1279 C1303 0.951 . S
H1280 C1305 0.951 . S
H1281 C1307 0.950 . S
H1282 C1308 0.950 . S
H1283 C1310 0.950 . S
H1284 C1313 0.950 . S
H1285 C1314 0.950 . S
H1286 C1316 0.950 . S
H1287 C1317 0.950 . S
C1288 H1270 0.951 . S
C1288 C1289 1.366 . S
C1288 C1290 1.388 . S
C1289 C1288 1.366 . S
C1289 C1293 1.385 . S
C1290 H1271 0.951 . S
C1290 C1288 1.388 . S
C1290 C1291 1.366 . S
C1291 C1290 1.366 . S
C1291 C1292 1.414 . S
C1291 C1294 1.499 . S
C1292 H1272 0.950 . S
C1292 C1291 1.414 . S
C1292 C1293 1.374 . S
C1293 H1273 0.950 . S
C1293 C1289 1.385 . S
C1293 C1292 1.374 . S
C1294 C1291 1.499 . S
C1294 C1295 1.373 1_655 S
C1294 C1296 1.389 . S
C1295 H1274 0.950 . S
C1295 C1294 1.373 1_455 S
C1295 C1311 1.377 . S
C1296 C1294 1.389 . S
C1296 C1297 1.524 . S
C1296 C1310 1.377 . S
C1297 C1296 1.524 . S
C1297 C1298 1.397 . S
C1297 C1302 1.363 . S
C1298 H1275 0.950 . S
C1298 C1297 1.397 . S
C1298 C1299 1.334 . S
C1299 H1276 0.950 . S
C1299 C1298 1.334 . S
C1299 C1300 1.287 . S
C1300 C1299 1.287 . S
C1300 C1301 1.524 . S
C1300 H1319 0.913 . S
C1301 H1277 0.950 . S
C1301 C1300 1.524 . S
C1301 C1302 1.415 . S
C1302 H1278 0.950 . S
C1302 C1297 1.363 . S
C1302 C1301 1.415 . S
C1303 H1279 0.951 . S
C1303 C1304 1.366 . S
C1303 C1305 1.388 . S
C1304 C1303 1.366 . S
C1304 C1308 1.385 . S
C1305 H1280 0.951 . S
C1305 C1303 1.388 . S
C1305 C1306 1.366 . S
C1306 C1305 1.366 . S
C1306 C1307 1.414 . S
C1306 C1309 1.499 . S
C1307 H1281 0.950 . S
C1307 C1306 1.414 . S
C1307 C1308 1.374 . S
C1308 H1282 0.950 . S
C1308 C1304 1.385 . S
C1308 C1307 1.374 . S
C1309 C1306 1.499 . S
C1309 C1310 1.373 1_455 S
C1309 C1311 1.389 . S
C1310 H1283 0.950 . S
C1310 C1296 1.377 . S
C1310 C1309 1.373 1_655 S
C1311 C1295 1.377 . S
C1311 C1309 1.389 . S
C1311 C1312 1.524 . S
C1312 C1311 1.524 . S
C1312 C1313 1.397 . S
C1312 C1317 1.363 . S
C1313 H1284 0.950 . S
C1313 C1312 1.397 . S
C1313 C1314 1.334 . S
C1314 H1285 0.950 . S
C1314 C1313 1.334 . S
C1314 C1315 1.287 . S
C1315 C1314 1.287 . S
C1315 C1316 1.524 . S
C1315 H1318 0.999 . S
C1316 H1286 0.950 . S
C1316 C1315 1.524 . S
C1316 C1317 1.415 . S
C1317 H1287 0.950 . S
C1317 C1312 1.363 . S
C1317 C1316 1.415 . S
H1318 C1315 0.999 . S
H1319 C1300 0.913 . S
H1320 C1338 0.951 . S
H1321 C1340 0.951 . S
H1322 C1342 0.950 . S
H1323 C1343 0.950 . S
H1324 C1345 0.950 . S
H1325 C1348 0.950 . S
H1326 C1349 0.950 . S
H1327 C1351 0.950 . S
H1328 C1352 0.950 . S
H1329 C1353 0.951 . S
H1330 C1355 0.951 . S
H1331 C1357 0.950 . S
H1332 C1358 0.950 . S
H1333 C1360 0.950 . S
H1334 C1363 0.950 . S
H1335 C1364 0.950 . S
H1336 C1366 0.950 . S
H1337 C1367 0.950 . S
C1338 H1320 0.951 . S
C1338 C1339 1.366 . S
C1338 C1340 1.388 . S
C1339 C1338 1.366 . S
C1339 C1343 1.385 . S
C1340 H1321 0.951 . S
C1340 C1338 1.388 . S
C1340 C1341 1.366 . S
C1341 C1340 1.366 . S
C1341 C1342 1.414 . S
C1341 C1344 1.499 . S
C1342 H1322 0.950 . S
C1342 C1341 1.414 . S
C1342 C1343 1.374 . S
C1343 H1323 0.950 . S
C1343 C1339 1.385 . S
C1343 C1342 1.374 . S
C1344 C1341 1.499 . S
C1344 C1345 1.373 . S
C1344 C1346 1.389 . S
C1345 H1324 0.950 . S
C1345 C1344 1.373 . S
C1345 C1361 1.377 . S
C1346 C1344 1.389 . S
C1346 C1347 1.524 . S
C1346 C1360 1.377 . S
C1347 C1346 1.524 . S
C1347 C1348 1.397 . S
C1347 C1352 1.363 . S
C1348 H1325 0.950 . S
C1348 C1347 1.397 . S
C1348 C1349 1.334 . S
C1349 H1326 0.950 . S
C1349 C1348 1.334 . S
C1349 C1350 1.287 . S
C1350 C1349 1.287 . S
C1350 C1351 1.524 . S
C1350 H1369 0.913 . S
C1351 H1327 0.950 . S
C1351 C1350 1.524 . S
C1351 C1352 1.415 . S
C1352 H1328 0.950 . S
C1352 C1347 1.363 . S
C1352 C1351 1.415 . S
C1353 H1329 0.951 . S
C1353 C1354 1.366 . S
C1353 C1355 1.388 . S
C1354 C1353 1.366 . S
C1354 C1358 1.385 . S
C1355 H1330 0.951 . S
C1355 C1353 1.388 . S
C1355 C1356 1.366 . S
C1356 C1355 1.366 . S
C1356 C1357 1.414 . S
C1356 C1359 1.499 . S
C1357 H1331 0.950 . S
C1357 C1356 1.414 . S
C1357 C1358 1.374 . S
C1358 H1332 0.950 . S
C1358 C1354 1.385 . S
C1358 C1357 1.374 . S
C1359 C1356 1.499 . S
C1359 C1360 1.373 . S
C1359 C1361 1.389 . S
C1360 H1333 0.950 . S
C1360 C1346 1.377 . S
C1360 C1359 1.373 . S
C1361 C1345 1.377 . S
C1361 C1359 1.389 . S
C1361 C1362 1.524 . S
C1362 C1361 1.524 . S
C1362 C1363 1.397 . S
C1362 C1367 1.363 . S
C1363 H1334 0.950 . S
C1363 C1362 1.397 . S
C1363 C1364 1.334 . S
C1364 H1335 0.950 . S
C1364 C1363 1.334 . S
C1364 C1365 1.287 . S
C1365 C1364 1.287 . S
C1365 C1366 1.524 . S
C1365 H1368 0.999 . S
C1366 H1336 0.950 . S
C1366 C1365 1.524 . S
C1366 C1367 1.415 . S
C1367 H1337 0.950 . S
C1367 C1362 1.363 . S
C1367 C1366 1.415 . S
H1368 C1365 0.999 . S
H1369 C1350 0.913 . S
H1370 C1388 0.951 . S
H1371 C1390 0.951 . S
H1372 C1392 0.950 . S
H1373 C1393 0.950 . S
H1374 C1395 0.950 . S
H1375 C1398 0.950 . S
H1376 C1399 0.950 . S
H1377 C1401 0.950 . S
H1378 C1402 0.950 . S
H1379 C1403 0.951 . S
H1380 C1405 0.951 . S
H1381 C1407 0.950 . S
H1382 C1408 0.950 . S
H1383 C1410 0.950 . S
H1384 C1413 0.950 . S
H1385 C1414 0.950 . S
H1386 C1416 0.950 . S
H1387 C1417 0.950 . S
C1388 H1370 0.951 . S
C1388 C1389 1.366 . S
C1388 C1390 1.388 . S
C1389 C1388 1.366 . S
C1389 C1393 1.385 . S
C1390 H1371 0.951 . S
C1390 C1388 1.388 . S
C1390 C1391 1.366 . S
C1391 C1390 1.366 . S
C1391 C1392 1.414 . S
C1391 C1394 1.499 . S
C1392 H1372 0.950 . S
C1392 C1391 1.414 . S
C1392 C1393 1.374 . S
C1393 H1373 0.950 . S
C1393 C1389 1.385 . S
C1393 C1392 1.374 . S
C1394 C1391 1.499 . S
C1394 C1395 1.373 . S
C1394 C1396 1.389 . S
C1395 H1374 0.950 . S
C1395 C1394 1.373 . S
C1395 C1411 1.377 . S
C1396 C1394 1.389 . S
C1396 C1397 1.524 . S
C1396 C1410 1.377 . S
C1397 C1396 1.524 . S
C1397 C1398 1.397 . S
C1397 C1402 1.363 . S
C1398 H1375 0.950 . S
C1398 C1397 1.397 . S
C1398 C1399 1.334 . S
C1399 H1376 0.950 . S
C1399 C1398 1.334 . S
C1399 C1400 1.287 . S
C1400 C1399 1.287 . S
C1400 C1401 1.524 . S
C1400 H1419 0.913 . S
C1401 H1377 0.950 . S
C1401 C1400 1.524 . S
C1401 C1402 1.415 . S
C1402 H1378 0.950 . S
C1402 C1397 1.363 . S
C1402 C1401 1.415 . S
C1403 H1379 0.951 . S
C1403 C1404 1.366 . S
C1403 C1405 1.388 . S
C1404 C1403 1.366 . S
C1404 C1408 1.385 . S
C1405 H1380 0.951 . S
C1405 C1403 1.388 . S
C1405 C1406 1.366 . S
C1406 C1405 1.366 . S
C1406 C1407 1.414 . S
C1406 C1409 1.499 . S
C1407 H1381 0.950 . S
C1407 C1406 1.414 . S
C1407 C1408 1.374 . S
C1408 H1382 0.950 . S
C1408 C1404 1.385 . S
C1408 C1407 1.374 . S
C1409 C1406 1.499 . S
C1409 C1410 1.373 . S
C1409 C1411 1.389 . S
C1410 H1383 0.950 . S
C1410 C1396 1.377 . S
C1410 C1409 1.373 . S
C1411 C1395 1.377 . S
C1411 C1409 1.389 . S
C1411 C1412 1.524 . S
C1412 C1411 1.524 . S
C1412 C1413 1.397 . S
C1412 C1417 1.363 . S
C1413 H1384 0.950 . S
C1413 C1412 1.397 . S
C1413 C1414 1.334 . S
C1414 H1385 0.950 . S
C1414 C1413 1.334 . S
C1414 C1415 1.287 . S
C1415 C1414 1.287 . S
C1415 C1416 1.524 . S
C1415 H1418 0.999 . S
C1416 H1386 0.950 . S
C1416 C1415 1.524 . S
C1416 C1417 1.415 . S
C1417 H1387 0.950 . S
C1417 C1412 1.363 . S
C1417 C1416 1.415 . S
H1418 C1415 0.999 . S
H1419 C1400 0.913 . S
H1420 C1438 0.951 . S
H1421 C1440 0.951 . S
H1422 C1442 0.950 . S
H1423 C1443 0.950 . S
H1424 C1445 0.950 . S
H1425 C1448 0.950 . S
H1426 C1449 0.950 . S
H1427 C1451 0.950 . S
H1428 C1452 0.950 . S
H1429 C1453 0.951 . S
H1430 C1455 0.951 . S
H1431 C1457 0.950 . S
H1432 C1458 0.950 . S
H1433 C1460 0.950 . S
H1434 C1463 0.950 . S
H1435 C1464 0.950 . S
H1436 C1466 0.950 . S
H1437 C1467 0.950 . S
C1438 H1420 0.951 . S
C1438 C1439 1.366 . S
C1438 C1440 1.388 . S
C1439 C1438 1.366 . S
C1439 C1443 1.385 . S
C1440 H1421 0.951 . S
C1440 C1438 1.388 . S
C1440 C1441 1.366 . S
C1441 C1440 1.366 . S
C1441 C1442 1.414 . S
C1441 C1444 1.499 . S
C1442 H1422 0.950 . S
C1442 C1441 1.414 . S
C1442 C1443 1.374 . S
C1443 H1423 0.950 . S
C1443 C1439 1.385 . S
C1443 C1442 1.374 . S
C1444 C1441 1.499 . S
C1444 C1445 1.373 . S
C1444 C1446 1.389 . S
C1445 H1424 0.950 . S
C1445 C1444 1.373 . S
C1445 C1461 1.377 . S
C1446 C1444 1.389 . S
C1446 C1447 1.524 . S
C1446 C1460 1.377 . S
C1447 C1446 1.524 . S
C1447 C1448 1.397 . S
C1447 C1452 1.363 . S
C1448 H1425 0.950 . S
C1448 C1447 1.397 . S
C1448 C1449 1.334 . S
C1449 H1426 0.950 . S
C1449 C1448 1.334 . S
C1449 C1450 1.287 . S
C1450 C1449 1.287 . S
C1450 C1451 1.524 . S
C1450 H1469 0.913 . S
C1451 H1427 0.950 . S
C1451 C1450 1.524 . S
C1451 C1452 1.415 . S
C1452 H1428 0.950 . S
C1452 C1447 1.363 . S
C1452 C1451 1.415 . S
C1453 H1429 0.951 . S
C1453 C1454 1.366 . S
C1453 C1455 1.388 . S
C1454 C1453 1.366 . S
C1454 C1458 1.385 . S
C1455 H1430 0.951 . S
C1455 C1453 1.388 . S
C1455 C1456 1.366 . S
C1456 C1455 1.366 . S
C1456 C1457 1.414 . S
C1456 C1459 1.499 . S
C1457 H1431 0.950 . S
C1457 C1456 1.414 . S
C1457 C1458 1.374 . S
C1458 H1432 0.950 . S
C1458 C1454 1.385 . S
C1458 C1457 1.374 . S
C1459 C1456 1.499 . S
C1459 C1460 1.373 . S
C1459 C1461 1.389 . S
C1460 H1433 0.950 . S
C1460 C1446 1.377 . S
C1460 C1459 1.373 . S
C1461 C1445 1.377 . S
C1461 C1459 1.389 . S
C1461 C1462 1.524 . S
C1462 C1461 1.524 . S
C1462 C1463 1.397 . S
C1462 C1467 1.363 . S
C1463 H1434 0.950 . S
C1463 C1462 1.397 . S
C1463 C1464 1.334 . S
C1464 H1435 0.950 . S
C1464 C1463 1.334 . S
C1464 C1465 1.287 . S
C1465 C1464 1.287 . S
C1465 C1466 1.524 . S
C1465 H1468 0.999 . S
C1466 H1436 0.950 . S
C1466 C1465 1.524 . S
C1466 C1467 1.415 . S
C1467 H1437 0.950 . S
C1467 C1462 1.363 . S
C1467 C1466 1.415 . S
H1468 C1465 0.999 . S
H1469 C1450 0.913 . S
H1470 C1488 0.951 . S
H1471 C1490 0.951 . S
H1472 C1492 0.950 . S
H1473 C1493 0.950 . S
H1474 C1495 0.950 . S
H1475 C1498 0.950 . S
H1476 C1499 0.950 . S
H1477 C1501 0.950 . S
H1478 C1502 0.950 . S
H1479 C1503 0.951 . S
H1480 C1505 0.951 . S
H1481 C1507 0.950 . S
H1482 C1508 0.950 . S
H1483 C1510 0.950 . S
H1484 C1513 0.950 . S
H1485 C1514 0.950 . S
H1486 C1516 0.950 . S
H1487 C1517 0.950 . S
C1488 H1470 0.951 . S
C1488 C1489 1.366 . S
C1488 C1490 1.388 . S
C1489 C1488 1.366 . S
C1489 C1493 1.385 . S
C1490 H1471 0.951 . S
C1490 C1488 1.388 . S
C1490 C1491 1.366 . S
C1491 C1490 1.366 . S
C1491 C1492 1.414 . S
C1491 C1494 1.499 . S
C1492 H1472 0.950 . S
C1492 C1491 1.414 . S
C1492 C1493 1.374 . S
C1493 H1473 0.950 . S
C1493 C1489 1.385 . S
C1493 C1492 1.374 . S
C1494 C1491 1.499 . S
C1494 C1495 1.373 . S
C1494 C1496 1.389 . S
C1495 H1474 0.950 . S
C1495 C1494 1.373 . S
C1495 C1511 1.377 . S
C1496 C1494 1.389 . S
C1496 C1497 1.524 . S
C1496 C1510 1.377 . S
C1497 C1496 1.524 . S
C1497 C1498 1.397 . S
C1497 C1502 1.363 . S
C1498 H1475 0.950 . S
C1498 C1497 1.397 . S
C1498 C1499 1.334 . S
C1499 H1476 0.950 . S
C1499 C1498 1.334 . S
C1499 C1500 1.287 . S
C1500 C1499 1.287 . S
C1500 C1501 1.524 . S
C1500 H1519 0.913 . S
C1501 H1477 0.950 . S
C1501 C1500 1.524 . S
C1501 C1502 1.415 . S
C1502 H1478 0.950 . S
C1502 C1497 1.363 . S
C1502 C1501 1.415 . S
C1503 H1479 0.951 . S
C1503 C1504 1.366 . S
C1503 C1505 1.388 . S
C1504 C1503 1.366 . S
C1504 C1508 1.385 . S
C1505 H1480 0.951 . S
C1505 C1503 1.388 . S
C1505 C1506 1.366 . S
C1506 C1505 1.366 . S
C1506 C1507 1.414 . S
C1506 C1509 1.499 . S
C1507 H1481 0.950 . S
C1507 C1506 1.414 . S
C1507 C1508 1.374 . S
C1508 H1482 0.950 . S
C1508 C1504 1.385 . S
C1508 C1507 1.374 . S
C1509 C1506 1.499 . S
C1509 C1510 1.373 . S
C1509 C1511 1.389 . S
C1510 H1483 0.950 . S
C1510 C1496 1.377 . S
C1510 C1509 1.373 . S
C1511 C1495 1.377 . S
C1511 C1509 1.389 . S
C1511 C1512 1.524 . S
C1512 C1511 1.524 . S
C1512 C1513 1.397 . S
C1512 C1517 1.363 . S
C1513 H1484 0.950 . S
C1513 C1512 1.397 . S
C1513 C1514 1.334 . S
C1514 H1485 0.950 . S
C1514 C1513 1.334 . S
C1514 C1515 1.287 . S
C1515 C1514 1.287 . S
C1515 C1516 1.524 . S
C1515 H1518 0.999 . S
C1516 H1486 0.950 . S
C1516 C1515 1.524 . S
C1516 C1517 1.415 . S
C1517 H1487 0.950 . S
C1517 C1512 1.363 . S
C1517 C1516 1.415 . S
H1518 C1515 0.999 . S
H1519 C1500 0.913 . S
C339 C3 2.361 . S
C354 C22 2.361 . S
C389 C62 2.357 . S
C404 C43 2.357 . S
C439 C83 2.358 . S
C454 C102 2.358 . S
C489 C123 2.358 . S
C504 C142 2.358 . S
C539 C163 2.361 . S
C554 C182 2.361 . S
C589 C203 2.357 . S
C604 C222 2.357 . S
C639 C243 2.358 . S
C654 C262 2.358 . S
C689 C302 2.358 . S
C704 C283 2.358 . S
C739 C49 2.413 . S
C754 C9 2.400 . S
C789 C129 2.390 . S
C804 C106 2.390 . S
C839 C169 2.400 . S
C854 C209 2.412 . S
C889 C266 2.391 . S
C904 C289 2.391 . S
C939 C26 1.730 . S
C954 C226 1.741 . S
C989 C186 1.730 . S
C1004 C66 1.740 . S
C1039 C89 1.714 . S
C1054 C306 1.714 . S
C1089 C146 1.715 . S
C1104 C249 1.715 . S
C1139 C2 1.532 . S
C1154 C122 1.550 . S
C1189 C42 1.580 . S
C1204 C82 1.568 . S
C1239 C55 1.532 . S
C1254 C95 1.543 . S
C1289 C135 1.588 . S
C1304 C15 1.570 . S
C1339 C162 1.532 . S
C1354 C282 1.550 . S
C1389 C202 1.580 . S
C1404 C242 1.568 . S
C1439 C215 1.532 . S
C1454 C255 1.543 . S
C1489 C295 1.588 . S
C1504 C175 1.570 . S
