# Generated by pormake.
# Topology zfy, (5)-cn, num edge types: 1
# Building blocks:
#     Node 0, Type 0, BuildingBlock: BEQFEK_clean_sbu_0, # of connection points: 5
#     Node 1, Type 0, BuildingBlock: BEQFEK_clean_sbu_0, # of connection points: 5
#     Node 2, Type 0, BuildingBlock: BEQFEK_clean_sbu_0, # of connection points: 5
#     Node 3, Type 0, BuildingBlock: BEQFEK_clean_sbu_0, # of connection points: 5
#     Node 4, Type 0, BuildingBlock: BEQFEK_clean_sbu_0, # of connection points: 5
#     Node 5, Type 0, BuildingBlock: BEQFEK_clean_sbu_0, # of connection points: 5
#     Node 6, Type 0, BuildingBlock: BEQFEK_clean_sbu_0, # of connection points: 5
#     Node 7, Type 0, BuildingBlock: BEQFEK_clean_sbu_0, # of connection points: 5
#     Node 8, Type 0, BuildingBlock: BEQFEK_clean_sbu_0, # of connection points: 5
#     Node 9, Type 0, BuildingBlock: BEQFEK_clean_sbu_0, # of connection points: 5
#     Node 10, Type 0, BuildingBlock: BEQFEK_clean_sbu_0, # of connection points: 5
#     Node 11, Type 0, BuildingBlock: BEQFEK_clean_sbu_0, # of connection points: 5
#     Node 12, Type 0, BuildingBlock: BEQFEK_clean_sbu_0, # of connection points: 5
#     Node 13, Type 0, BuildingBlock: BEQFEK_clean_sbu_0, # of connection points: 5
#     Node 14, Type 0, BuildingBlock: BEQFEK_clean_sbu_0, # of connection points: 5
#     Node 15, Type 0, BuildingBlock: BEQFEK_clean_sbu_0, # of connection points: 5
#     Edge 16, Type (0, 0), BuildingBlock: OJICUG_clean_linker_0, # of connection points: 2
#     Edge 17, Type (0, 0), BuildingBlock: OJICUG_clean_linker_0, # of connection points: 2
#     Edge 18, Type (0, 0), BuildingBlock: OJICUG_clean_linker_0, # of connection points: 2
#     Edge 19, Type (0, 0), BuildingBlock: OJICUG_clean_linker_0, # of connection points: 2
#     Edge 20, Type (0, 0), BuildingBlock: OJICUG_clean_linker_0, # of connection points: 2
#     Edge 21, Type (0, 0), BuildingBlock: OJICUG_clean_linker_0, # of connection points: 2
#     Edge 22, Type (0, 0), BuildingBlock: OJICUG_clean_linker_0, # of connection points: 2
#     Edge 23, Type (0, 0), BuildingBlock: OJICUG_clean_linker_0, # of connection points: 2
#     Edge 24, Type (0, 0), BuildingBlock: OJICUG_clean_linker_0, # of connection points: 2
#     Edge 25, Type (0, 0), BuildingBlock: OJICUG_clean_linker_0, # of connection points: 2
#     Edge 26, Type (0, 0), BuildingBlock: OJICUG_clean_linker_0, # of connection points: 2
#     Edge 27, Type (0, 0), BuildingBlock: OJICUG_clean_linker_0, # of connection points: 2
#     Edge 28, Type (0, 0), BuildingBlock: OJICUG_clean_linker_0, # of connection points: 2
#     Edge 29, Type (0, 0), BuildingBlock: OJICUG_clean_linker_0, # of connection points: 2
#     Edge 30, Type (0, 0), BuildingBlock: OJICUG_clean_linker_0, # of connection points: 2
#     Edge 31, Type (0, 0), BuildingBlock: OJICUG_clean_linker_0, # of connection points: 2
#     Edge 32, Type (0, 0), BuildingBlock: OJICUG_clean_linker_0, # of connection points: 2
#     Edge 33, Type (0, 0), BuildingBlock: OJICUG_clean_linker_0, # of connection points: 2
#     Edge 34, Type (0, 0), BuildingBlock: OJICUG_clean_linker_0, # of connection points: 2
#     Edge 35, Type (0, 0), BuildingBlock: OJICUG_clean_linker_0, # of connection points: 2
#     Edge 36, Type (0, 0), BuildingBlock: OJICUG_clean_linker_0, # of connection points: 2
#     Edge 37, Type (0, 0), BuildingBlock: OJICUG_clean_linker_0, # of connection points: 2
#     Edge 38, Type (0, 0), BuildingBlock: OJICUG_clean_linker_0, # of connection points: 2
#     Edge 39, Type (0, 0), BuildingBlock: OJICUG_clean_linker_0, # of connection points: 2
#     Edge 40, Type (0, 0), BuildingBlock: OJICUG_clean_linker_0, # of connection points: 2
#     Edge 41, Type (0, 0), BuildingBlock: OJICUG_clean_linker_0, # of connection points: 2
#     Edge 42, Type (0, 0), BuildingBlock: OJICUG_clean_linker_0, # of connection points: 2
#     Edge 43, Type (0, 0), BuildingBlock: OJICUG_clean_linker_0, # of connection points: 2
#     Edge 44, Type (0, 0), BuildingBlock: OJICUG_clean_linker_0, # of connection points: 2
#     Edge 45, Type (0, 0), BuildingBlock: OJICUG_clean_linker_0, # of connection points: 2
#     Edge 46, Type (0, 0), BuildingBlock: OJICUG_clean_linker_0, # of connection points: 2
#     Edge 47, Type (0, 0), BuildingBlock: OJICUG_clean_linker_0, # of connection points: 2
#     Edge 48, Type (0, 0), BuildingBlock: OJICUG_clean_linker_0, # of connection points: 2
#     Edge 49, Type (0, 0), BuildingBlock: OJICUG_clean_linker_0, # of connection points: 2
#     Edge 50, Type (0, 0), BuildingBlock: OJICUG_clean_linker_0, # of connection points: 2
#     Edge 51, Type (0, 0), BuildingBlock: OJICUG_clean_linker_0, # of connection points: 2
#     Edge 52, Type (0, 0), BuildingBlock: OJICUG_clean_linker_0, # of connection points: 2
#     Edge 53, Type (0, 0), BuildingBlock: OJICUG_clean_linker_0, # of connection points: 2
#     Edge 54, Type (0, 0), BuildingBlock: OJICUG_clean_linker_0, # of connection points: 2
#     Edge 55, Type (0, 0), BuildingBlock: OJICUG_clean_linker_0, # of connection points: 2
# Relax obj value: 0.232
# Max RMSD: 0.146
# Mean RMSD: 0.146
data_MOF--net-zfy--node1-BEQFEK_clean_sbu_0--edge1-OJICUG_clean_linker_0
_symmetry_space_group_name_H-M    P1
_symmetry_Int_Tables_number       1
_symmetry_cell_setting            triclinic
loop_
_symmetry_equiv_pos_as_xyz
'x, y, z'
_cell_length_a     42.173072
_cell_length_b     42.18167
_cell_length_c     20.815602
_cell_angle_alpha  89.996829
_cell_angle_beta   90.128215
_cell_angle_gamma 89.804971
loop_
_atom_site_label
_atom_site_type_symbol
_atom_site_fract_x
_atom_site_fract_y
_atom_site_fract_z
_atom_type_partial_charge
Co0 Co 0.32175 0.16382 0.12033 0.0
Co1 Co 0.31513 0.21914 0.02031 0.0
C2 C 0.30274 0.22977 0.16036 0.0
O3 O 0.30977 0.20109 0.17315 0.0
O4 O 0.30563 0.24064 0.10353 0.0
C5 C 0.36053 0.12998 0.20755 0.0
O6 O 0.37819 0.15545 0.20232 0.0
C7 C 0.33758 0.27594 0.95304 0.0
C8 C 0.31502 0.27081 0.85786 0.0
C9 C 0.33668 0.28909 0.89171 0.0
N10 N 0.31796 0.25082 0.95451 0.0
N11 N 0.30404 0.24832 0.89785 0.0
C12 C 0.35945 0.28437 0.00708 0.0
H13 H 0.36143 0.26441 0.04163 0.0
H14 H 0.38328 0.29057 0.98848 0.0
H15 H 0.34976 0.30529 0.0328 0.0
C16 C 0.3777 0.14946 0.04051 0.0
N17 N 0.35435 0.16944 0.05882 0.0
N18 N 0.35292 0.19334 0.01829 0.0
C19 C 0.37638 0.18974 0.97428 0.0
C20 C 0.39308 0.16204 0.98782 0.0
C21 C 0.38084 0.11576 0.0625 0.0
H22 H 0.35795 0.10671 0.0807 0.0
H23 H 0.39923 0.11437 0.10041 0.0
H24 H 0.38857 0.10016 0.0225 0.0
O25 O 0.28341 0.15175 0.07468 0.0
O26 O 0.27695 0.19161 0.00513 0.0
H27 H 0.35946 0.21221 0.88858 0.0
H28 H 0.40127 0.20268 0.88706 0.0
C29 C 0.38146 0.21098 0.91771 0.0
H30 H 0.38731 0.23508 0.93483 0.0
H31 H 0.28834 0.23025 0.88544 0.0
O32 O 0.33388 0.12921 0.17905 0.0
C33 C 0.26764 0.16568 0.03075 0.0
Co34 Co 0.61333 0.56959 0.36284 0.0
Co35 Co 0.55716 0.56173 0.26487 0.0
C36 C 0.54989 0.54852 0.40762 0.0
O37 O 0.57835 0.55651 0.42044 0.0
O38 O 0.53872 0.55099 0.35073 0.0
C39 C 0.65478 0.59314 0.46505 0.0
O40 O 0.6292 0.5982 0.49951 0.0
C41 C 0.49976 0.58594 0.20081 0.0
C42 C 0.50195 0.56109 0.10759 0.0
C43 C 0.48555 0.58456 0.14048 0.0
N44 N 0.52378 0.56482 0.20255 0.0
N45 N 0.52445 0.54954 0.14719 0.0
C46 C 0.49348 0.60953 0.25298 0.0
H47 H 0.51376 0.61048 0.28702 0.0
H48 H 0.489 0.63338 0.23228 0.0
H49 H 0.47201 0.60225 0.27982 0.0
C50 C 0.62086 0.62973 0.29301 0.0
N51 N 0.60372 0.60365 0.30664 0.0
N52 N 0.58161 0.60002 0.26266 0.0
C53 C 0.5845 0.62356 0.21875 0.0
C54 C 0.6093 0.64332 0.23698 0.0
C55 C 0.65133 0.6379 0.32598 0.0
H56 H 0.668 0.61776 0.32058 0.0
H57 H 0.64673 0.642 0.37769 0.0
H58 H 0.66284 0.65921 0.30579 0.0
O59 O 0.62446 0.53202 0.31278 0.0
O60 O 0.58465 0.52462 0.24401 0.0
H61 H 0.56456 0.60212 0.13448 0.0
H62 H 0.57586 0.64313 0.12376 0.0
C63 C 0.56571 0.62572 0.15778 0.0
H64 H 0.54132 0.63363 0.1691 0.0
H65 H 0.54147 0.53256 0.13504 0.0
O66 O 0.65225 0.58021 0.41031 0.0
C67 C 0.6111 0.51612 0.26858 0.0
Co68 Co 0.20269 0.86474 0.61233 0.0
Co69 Co 0.21261 0.81023 0.51219 0.0
C70 C 0.22533 0.80237 0.65672 0.0
O71 O 0.21605 0.8303 0.6709 0.0
O72 O 0.22374 0.79203 0.59902 0.0
C73 C 0.18215 0.90776 0.71462 0.0
O74 O 0.18292 0.88351 0.75421 0.0
C75 C 0.18602 0.75423 0.44968 0.0
C76 C 0.21118 0.75356 0.35682 0.0
C77 C 0.1869 0.73914 0.3906 0.0
N78 N 0.20858 0.77672 0.4507 0.0
N79 N 0.22395 0.77577 0.39544 0.0
C80 C 0.16142 0.75033 0.50063 0.0
H81 H 0.16522 0.76749 0.54033 0.0
H82 H 0.13748 0.75389 0.47949 0.0
H83 H 0.16251 0.72581 0.51982 0.0
C84 C 0.14241 0.87104 0.54376 0.0
N85 N 0.16888 0.85427 0.5567 0.0
N86 N 0.17453 0.83476 0.50898 0.0
C87 C 0.15265 0.83982 0.46233 0.0
C88 C 0.13163 0.86329 0.48275 0.0
C89 C 0.12816 0.89503 0.58809 0.0
H90 H 0.13097 0.88719 0.63862 0.0
H91 H 0.10257 0.8985 0.57759 0.0
H92 H 0.14041 0.91794 0.5815 0.0
O93 O 0.24074 0.87608 0.5624 0.0
O94 O 0.24926 0.83744 0.49145 0.0
H95 H 0.14249 0.84161 0.36038 0.0
H96 H 0.14389 0.80258 0.39521 0.0
C97 C 0.15494 0.8264 0.39593 0.0
H98 H 0.18015 0.82397 0.3818 0.0
H99 H 0.24185 0.79156 0.38262 0.0
O100 O 0.19067 0.90404 0.65678 0.0
C101 C 0.25714 0.86356 0.51781 0.0
Co102 Co 0.9152 0.45279 0.87646 0.0
Co103 Co 0.96705 0.46067 0.77046 0.0
C104 C 0.97999 0.47339 0.91187 0.0
O105 O 0.95287 0.46328 0.92866 0.0
O106 O 0.98834 0.47301 0.85308 0.0
C107 C 0.88155 0.41459 0.9645 0.0
O108 O 0.90704 0.39674 0.95976 0.0
C109 C 0.02408 0.43618 0.70791 0.0
C110 C 0.02572 0.46313 0.61713 0.0
C111 C 0.04088 0.43916 0.65108 0.0
N112 N 0.99976 0.45694 0.7071 0.0
N113 N 1.00105 0.47321 0.65291 0.0
C114 C 0.03152 0.41465 0.76313 0.0
H115 H 0.01511 0.41907 0.80377 0.0
H116 H 0.02948 0.38955 0.74807 0.0
H117 H 0.05637 0.41849 0.77889 0.0
C118 C 0.89995 0.39676 0.79605 0.0
N119 N 0.91987 0.42024 0.81367 0.0
N120 N 0.94283 0.42222 0.77121 0.0
C121 C 0.9387 0.3992 0.72644 0.0
C122 C 0.91165 0.382 0.7416 0.0
C123 C 0.86676 0.3931 0.82044 0.0
H124 H 0.85754 0.41586 0.83923 0.0
H125 H 0.86655 0.37474 0.8584 0.0
H126 H 0.85056 0.38509 0.78165 0.0
O127 O 0.90328 0.49211 0.83299 0.0
O128 O 0.93717 0.49675 0.75104 0.0
H129 H 0.95965 0.41833 0.64118 0.0
H130 H 0.9493 0.37685 0.63486 0.0
C131 C 0.95852 0.39547 0.66733 0.0
H132 H 0.98283 0.38846 0.6814 0.0
H133 H 0.98474 0.49071 0.63977 0.0
O134 O 0.88079 0.44108 0.93554 0.0
C135 C 0.91341 0.50669 0.78365 0.0
Co136 Co 0.70206 0.85966 0.88629 0.0
Co137 Co 0.71293 0.80577 0.98728 0.0
C138 C 0.72352 0.79699 0.84227 0.0
O139 O 0.7141 0.82484 0.82764 0.0
O140 O 0.72276 0.78711 0.90036 0.0
C141 C 0.68052 0.90371 0.78581 0.0
O142 O 0.6799 0.87984 0.74529 0.0
C143 C 0.68635 0.7506 0.05181 0.0
C144 C 0.71267 0.74988 0.14359 0.0
C145 C 0.68767 0.73579 0.11119 0.0
N146 N 0.70932 0.77262 0.0494 0.0
N147 N 0.72537 0.77166 0.10398 0.0
C148 C 0.66104 0.74702 0.00194 0.0
H149 H 0.6636 0.76519 0.96374 0.0
H150 H 0.63732 0.74912 0.02462 0.0
H151 H 0.66279 0.7231 0.9801 0.0
C152 C 0.64278 0.86688 0.95745 0.0
N153 N 0.66896 0.84985 0.94376 0.0
N154 N 0.67517 0.83069 0.99183 0.0
C155 C 0.65398 0.83626 0.03937 0.0
C156 C 0.63284 0.85969 0.01921 0.0
C157 C 0.62804 0.89065 0.91318 0.0
H158 H 0.63027 0.88258 0.86271 0.0
H159 H 0.60258 0.89419 0.92464 0.0
H160 H 0.64033 0.9136 0.9189 0.0
O161 O 0.74103 0.87056 0.93386 0.0
O162 O 0.75013 0.83255 0.00592 0.0
H163 H 0.64518 0.83884 0.14165 0.0
H164 H 0.64583 0.79957 0.10793 0.0
C165 C 0.65706 0.82329 0.10602 0.0
H166 H 0.68243 0.82074 0.11906 0.0
H167 H 0.74371 0.78717 0.11572 0.0
O168 O 0.69006 0.89923 0.84285 0.0
C169 C 0.75795 0.85827 0.97804 0.0
Co170 Co 0.41284 0.45827 0.6355 0.0
Co171 Co 0.46777 0.46453 0.73631 0.0
C172 C 0.47893 0.47625 0.59621 0.0
O173 O 0.45024 0.46956 0.58312 0.0
O174 O 0.48957 0.47357 0.6533 0.0
C175 C 0.38027 0.42081 0.54537 0.0
O176 O 0.4065 0.40401 0.54914 0.0
C177 C 0.52413 0.44076 0.80329 0.0
C178 C 0.52032 0.46418 0.89777 0.0
C179 C 0.53776 0.44166 0.86422 0.0
N180 N 0.49955 0.4612 0.80181 0.0
N181 N 0.49783 0.47562 0.858 0.0
C182 C 0.53156 0.41829 0.74969 0.0
H183 H 0.51132 0.41683 0.71564 0.0
H184 H 0.53717 0.39436 0.76882 0.0
H185 H 0.55257 0.42708 0.72319 0.0
C186 C 0.39856 0.40183 0.71427 0.0
N187 N 0.4183 0.42543 0.69686 0.0
N188 N 0.4418 0.42704 0.73842 0.0
C189 C 0.43803 0.40368 0.78261 0.0
C190 C 0.41075 0.38672 0.76788 0.0
C191 C 0.36542 0.39782 0.68958 0.0
H192 H 0.35574 0.42063 0.6719 0.0
H193 H 0.36555 0.38001 0.65053 0.0
H194 H 0.34945 0.38892 0.72783 0.0
O195 O 0.40083 0.49672 0.68105 0.0
O196 O 0.44042 0.50295 0.75136 0.0
H197 H 0.46028 0.42147 0.86779 0.0
H198 H 0.44952 0.3801 0.87242 0.0
C199 C 0.45863 0.39899 0.84047 0.0
H200 H 0.48268 0.39192 0.82485 0.0
H201 H 0.48028 0.49202 0.87028 0.0
O202 O 0.3784 0.44671 0.5762 0.0
C203 C 0.41456 0.5124 0.72525 0.0
Co204 Co 0.82562 0.16525 0.38319 0.0
Co205 Co 0.81266 0.21603 0.48942 0.0
C206 C 0.80077 0.22645 0.34369 0.0
O207 O 0.81304 0.20016 0.32643 0.0
O208 O 0.80014 0.2347 0.40289 0.0
C209 C 0.84688 0.1221 0.2807 0.0
O210 O 0.84577 0.14584 0.23989 0.0
C211 C 0.83776 0.27192 0.55564 0.0
C212 C 0.81001 0.27248 0.64537 0.0
C213 C 0.83517 0.28712 0.61462 0.0
N214 N 0.8154 0.24925 0.55212 0.0
N215 N 0.79854 0.2501 0.60552 0.0
C216 C 0.86337 0.27613 0.5068 0.0
H217 H 0.863 0.2566 0.4711 0.0
H218 H 0.88687 0.27711 0.53085 0.0
H219 H 0.8596 0.29888 0.48114 0.0
C220 C 0.88515 0.15874 0.45434 0.0
N221 N 0.85841 0.17514 0.44174 0.0
N222 N 0.85164 0.19318 0.49116 0.0
C223 C 0.873 0.18745 0.53843 0.0
C224 C 0.89489 0.16509 0.51675 0.0
C225 C 0.90062 0.13638 0.40822 0.0
H226 H 0.8977 0.14516 0.35834 0.0
H227 H 0.92627 0.13375 0.41915 0.0
H228 H 0.88937 0.11282 0.4124 0.0
O229 O 0.78648 0.15315 0.42852 0.0
O230 O 0.77816 0.18611 0.51052 0.0
H231 H 0.84386 0.20126 0.61823 0.0
H232 H 0.88099 0.18275 0.64075 0.0
C233 C 0.86934 0.19901 0.60601 0.0
H234 H 0.88048 0.2227 0.61037 0.0
H235 H 0.78033 0.23428 0.61621 0.0
O236 O 0.83854 0.1264 0.33846 0.0
C237 C 0.77039 0.1621 0.47683 0.0
Co238 Co 0.11358 0.57264 0.14029 0.0
Co239 Co 0.05868 0.56282 0.23913 0.0
C240 C 0.05136 0.54885 0.09581 0.0
O241 O 0.07923 0.55819 0.08178 0.0
O242 O 0.0409 0.55088 0.15317 0.0
C243 C 0.15423 0.59623 0.03775 0.0
O244 O 0.12857 0.59884 0.00221 0.0
C245 C 1.00176 0.58909 0.29857 0.0
C246 C 0.99679 0.56011 0.38622 0.0
C247 C 0.98402 0.5861 0.35435 0.0
N248 N 0.02433 0.56646 0.2984 0.0
N249 N 0.02101 0.54897 0.35058 0.0
C250 C 0.99715 0.61254 0.24535 0.0
H251 H 1.00657 0.60284 0.19963 0.0
H252 H 1.01028 0.63461 0.25638 0.0
H253 H 0.97165 0.61859 0.23986 0.0
C254 C 0.1189 0.6335 0.20899 0.0
N255 N 0.10279 0.6067 0.19576 0.0
N256 N 0.08207 0.60154 0.24157 0.0
C257 C 0.08532 0.62432 0.28697 0.0
C258 C 0.10853 0.64559 0.26732 0.0
C259 C 0.14764 0.64394 0.17281 0.0
H260 H 0.1667 0.62621 0.18032 0.0
H261 H 0.14192 0.64542 0.12094 0.0
H262 H 0.15662 0.66724 0.18891 0.0
O263 O 0.12584 0.53541 0.19164 0.0
O264 O 0.08691 0.52665 0.26166 0.0
H265 H 0.06714 0.59914 0.36865 0.0
H266 H 0.08165 0.63842 0.38705 0.0
C267 C 0.06906 0.62384 0.35092 0.0
H268 H 0.0449 0.63384 0.3458 0.0
H269 H 0.03588 0.53009 0.36285 0.0
O270 O 0.15223 0.58453 0.09368 0.0
C271 C 0.11348 0.51917 0.23649 0.0
Co272 Co 0.8245 0.66532 0.6178 0.0
Co273 Co 0.81033 0.71579 0.51085 0.0
C274 C 0.79851 0.72652 0.65613 0.0
O275 O 0.81102 0.70034 0.6737 0.0
O276 O 0.79773 0.73464 0.59687 0.0
C277 C 0.84851 0.62299 0.72023 0.0
O278 O 0.84864 0.64715 0.76007 0.0
C279 C 0.83417 0.77183 0.44342 0.0
C280 C 0.80642 0.7712 0.35343 0.0
C281 C 0.8313 0.78655 0.38395 0.0
N282 N 0.81227 0.74874 0.4474 0.0
N283 N 0.7954 0.74889 0.39385 0.0
C284 C 0.85973 0.77683 0.49229 0.0
H285 H 0.85973 0.75755 0.52854 0.0
H286 H 0.88319 0.77806 0.46836 0.0
H287 H 0.85557 0.79968 0.51729 0.0
C288 C 0.8839 0.6599 0.54627 0.0
N289 N 0.857 0.67593 0.55921 0.0
N290 N 0.84976 0.69386 0.50977 0.0
C291 C 0.87093 0.68834 0.46224 0.0
C292 C 0.89319 0.66634 0.48378 0.0
C293 C 0.89955 0.63708 0.59131 0.0
H294 H 0.89738 0.64569 0.64142 0.0
H295 H 0.92503 0.63411 0.57931 0.0
H296 H 0.8879 0.61373 0.58699 0.0
O297 O 0.78573 0.65202 0.57194 0.0
O298 O 0.77661 0.6849 0.49002 0.0
H299 H 0.8791 0.68373 0.35998 0.0
H300 H 0.87646 0.72367 0.38979 0.0
C301 C 0.86662 0.69944 0.39446 0.0
H302 H 0.84104 0.7003 0.38214 0.0
H303 H 0.77752 0.73262 0.38343 0.0
O304 O 0.83845 0.62676 0.66332 0.0
C305 C 0.76948 0.6606 0.52339 0.0
Co306 Co 0.11261 0.07518 0.87896 0.0
Co307 Co 0.06169 0.06715 0.77071 0.0
C308 C 0.04839 0.05238 0.91135 0.0
O309 O 0.07501 0.06319 0.92977 0.0
O310 O 0.04047 0.05322 0.85223 0.0
C311 C 0.14583 0.11312 0.96884 0.0
O312 O 0.12038 0.13103 0.96409 0.0
C313 C 1.0047 0.09085 0.70534 0.0
C314 C 1.00625 0.0658 0.61233 0.0
C315 C 0.98961 0.08876 0.64617 0.0
N316 N 0.02956 0.07072 0.70574 0.0
N317 N 0.03009 0.05551 0.65026 0.0
C318 C 0.99543 0.11125 0.76114 0.0
H319 H 1.00556 0.10169 0.8064 0.0
H320 H 1.00462 0.1356 0.75428 0.0
H321 H 0.96921 0.11276 0.76474 0.0
C322 C 0.12762 0.13172 0.80009 0.0
N323 N 0.10766 0.10818 0.81708 0.0
N324 N 0.08506 0.10603 0.77362 0.0
C325 C 0.0895 0.12893 0.72877 0.0
C326 C 0.11634 0.14628 0.74494 0.0
C327 C 0.16071 0.13534 0.82537 0.0
H328 H 0.16988 0.11254 0.84408 0.0
H329 H 0.16072 0.15358 0.86357 0.0
H330 H 0.1771 0.14348 0.78717 0.0
O331 O 0.12569 0.03666 0.83413 0.0
O332 O 0.09255 0.03223 0.75062 0.0
H333 H 0.07107 0.10923 0.64152 0.0
H334 H 0.07963 0.15117 0.63659 0.0
C335 C 0.07065 0.13203 0.66802 0.0
H336 H 0.04582 0.13793 0.67983 0.0
H337 H 0.04728 0.03881 0.63755 0.0
O338 O 0.1466 0.08679 0.93931 0.0
C339 C 0.11631 0.02249 0.78362 0.0
Co340 Co 0.7068 0.36307 0.11866 0.0
Co341 Co 0.71251 0.30816 0.01749 0.0
C342 C 0.72542 0.29675 0.15732 0.0
O343 O 0.71858 0.32541 0.17059 0.0
O344 O 0.72246 0.28613 0.10024 0.0
C345 C 0.66817 0.39613 0.2062 0.0
O346 O 0.651 0.37033 0.20081 0.0
C347 C 0.68993 0.25175 0.94855 0.0
C348 C 0.70847 0.26016 0.85094 0.0
C349 C 0.68868 0.24046 0.88587 0.0
N350 N 0.70899 0.27731 0.95008 0.0
N351 N 0.72062 0.28168 0.89187 0.0
C352 C 0.66994 0.24139 0.00394 0.0
H353 H 0.66852 0.26037 0.04076 0.0
H354 H 0.64575 0.23501 0.98733 0.0
H355 H 0.68083 0.22004 0.02609 0.0
C356 C 0.65058 0.37813 0.0399 0.0
N357 N 0.67391 0.35794 0.05753 0.0
N358 N 0.67472 0.334 0.01706 0.0
C359 C 0.65073 0.33772 0.97403 0.0
C360 C 0.6345 0.3656 0.98797 0.0
C361 C 0.64808 0.41195 0.06141 0.0
H362 H 0.67106 0.42061 0.08012 0.0
H363 H 0.6295 0.41385 0.09865 0.0
H364 H 0.64083 0.42754 0.02095 0.0
O365 O 0.74491 0.37528 0.07284 0.0
O366 O 0.75063 0.3358 0.00221 0.0
H367 H 0.66559 0.31611 0.88615 0.0
H368 H 0.62358 0.32418 0.88992 0.0
C369 C 0.64458 0.31641 0.91799 0.0
H370 H 0.64013 0.29208 0.93548 0.0
H371 H 0.73519 0.30061 0.87917 0.0
O372 O 0.69482 0.39734 0.17804 0.0
C373 C 0.76024 0.36156 0.02816 0.0
Co374 Co 0.41192 0.95613 0.37018 0.0
Co375 Co 0.46709 0.96127 0.26992 0.0
C376 C 0.47741 0.97481 0.41082 0.0
O377 O 0.4489 0.96774 0.42447 0.0
O378 O 0.48777 0.97183 0.35367 0.0
C379 C 0.37748 0.92026 0.46022 0.0
O380 O 0.40367 0.90328 0.45985 0.0
C381 C 0.52341 0.93474 0.2067 0.0
C382 C 0.52536 0.96207 0.11639 0.0
C383 C 0.53981 0.93728 0.14918 0.0
N384 N 0.49994 0.95649 0.20711 0.0
N385 N 0.50147 0.97297 0.15323 0.0
C386 C 0.53046 0.91274 0.26138 0.0
H387 H 0.51918 0.92139 0.30618 0.0
H388 H 0.52105 0.88882 0.25072 0.0
H389 H 0.55648 0.91051 0.26826 0.0
C390 C 0.3976 0.89905 0.29249 0.0
N391 N 0.41753 0.92253 0.3101 0.0
N392 N 0.44081 0.92413 0.26822 0.0
C393 C 0.43653 0.90121 0.22328 0.0
C394 C 0.40936 0.8842 0.23828 0.0
C395 C 0.36452 0.89509 0.31721 0.0
H396 H 0.35466 0.91806 0.33339 0.0
H397 H 0.36488 0.87785 0.35726 0.0
H398 H 0.34853 0.88553 0.27953 0.0
O399 O 0.40079 0.99429 0.32189 0.0
O400 O 0.44014 0.99941 0.25092 0.0
H401 H 0.45847 0.9211 0.13974 0.0
H402 H 0.44523 0.88072 0.1292 0.0
C403 C 0.4559 0.89773 0.16348 0.0
H404 H 0.47973 0.8887 0.17614 0.0
H405 H 0.48573 0.99113 0.14091 0.0
O406 O 0.37642 0.94571 0.42774 0.0
C407 C 0.41438 1.00926 0.27659 0.0
Co408 Co 0.20626 0.36394 0.38755 0.0
Co409 Co 0.2161 0.30997 0.48962 0.0
C410 C 0.22781 0.29993 0.34692 0.0
O411 O 0.21895 0.32794 0.33259 0.0
O412 O 0.22624 0.2898 0.40463 0.0
C413 C 0.1746 0.40023 0.28977 0.0
O414 O 0.16168 0.373 0.27399 0.0
C415 C 0.191 0.25455 0.55719 0.0
C416 C 0.2187 0.25471 0.64727 0.0
C417 C 0.19363 0.23977 0.61661 0.0
N418 N 0.2132 0.27734 0.5534 0.0
N419 N 0.23007 0.27689 0.60696 0.0
C420 C 0.16546 0.24992 0.50813 0.0
H421 H 0.16501 0.26992 0.47349 0.0
H422 H 0.14206 0.24769 0.53197 0.0
H423 H 0.17013 0.22766 0.48134 0.0
C424 C 0.14779 0.37402 0.46299 0.0
N425 N 0.17304 0.35593 0.44703 0.0
N426 N 0.17829 0.33528 0.49321 0.0
C427 C 0.1571 0.34044 0.54099 0.0
C428 C 0.13713 0.36527 0.52335 0.0
C429 C 0.13447 0.40006 0.4222 0.0
H430 H 0.1284 0.39016 0.37463 0.0
H431 H 0.1124 0.41025 0.44245 0.0
H432 H 0.15229 0.41912 0.41665 0.0
O433 O 0.24469 0.37603 0.43543 0.0
O434 O 0.25318 0.33747 0.50685 0.0
H435 H 0.18442 0.32355 0.6211 0.0
H436 H 0.14632 0.34 0.64269 0.0
C437 C 0.15925 0.32576 0.60633 0.0
H438 H 0.14864 0.30176 0.6048 0.0
H439 H 0.24824 0.29283 0.61737 0.0
O440 O 0.19513 0.40099 0.33436 0.0
C441 C 0.26121 0.36341 0.47993 0.0
Co442 Co 0.9121 0.95194 0.12118 0.0
Co443 Co 0.96336 0.95941 0.229 0.0
C444 C 0.97667 0.97348 0.08808 0.0
O445 O 0.94983 0.96309 0.06995 0.0
O446 O 0.98469 0.97264 0.14715 0.0
C447 C 0.87897 0.91459 0.03103 0.0
O448 O 0.90489 0.89728 0.03467 0.0
C449 C 0.02015 0.93527 0.29455 0.0
C450 C 0.01942 0.96123 0.38657 0.0
C451 C 0.03562 0.93781 0.35321 0.0
N452 N 0.9955 0.95566 0.29391 0.0
N453 N 0.99543 0.97137 0.34883 0.0
C454 C 0.02901 0.91436 0.23927 0.0
H455 H 0.01652 0.92194 0.19487 0.0
H456 H 0.02242 0.88949 0.24978 0.0
H457 H 0.05506 0.91499 0.23183 0.0
C458 C 0.89656 0.89555 0.20046 0.0
N459 N 0.91663 0.919 0.18346 0.0
N460 N 0.93932 0.92093 0.22677 0.0
C461 C 0.9348 0.89801 0.27154 0.0
C462 C 0.90781 0.88086 0.25551 0.0
C463 C 0.86355 0.89191 0.17485 0.0
H464 H 0.85441 0.9147 0.156 0.0
H465 H 0.86367 0.87367 0.13668 0.0
H466 H 0.84708 0.88376 0.2129 0.0
O467 O 0.89989 0.9909 0.16533 0.0
O468 O 0.93327 0.99506 0.24849 0.0
H469 H 0.95416 0.91734 0.35832 0.0
H470 H 0.9448 0.87558 0.36345 0.0
C471 C 0.95395 0.89454 0.3318 0.0
H472 H 0.97858 0.88818 0.31926 0.0
H473 H 0.97854 0.98843 0.36122 0.0
O474 O 0.8778 0.94068 0.06129 0.0
C475 C 0.90969 1.00516 0.21539 0.0
Co476 Co 0.32123 0.66632 0.87739 0.0
Co477 Co 0.31264 0.71793 0.98429 0.0
C478 C 0.30002 0.73146 0.84337 0.0
O479 O 0.31008 0.70422 0.82677 0.0
O480 O 0.30042 0.74001 0.90215 0.0
C481 C 0.36057 0.63357 0.78945 0.0
O482 O 0.37827 0.65894 0.79615 0.0
C483 C 0.33442 0.77465 0.05259 0.0
C484 C 0.31305 0.76841 0.1484 0.0
C485 C 0.33402 0.78731 0.11434 0.0
N486 N 0.31523 0.74919 0.05106 0.0
N487 N 0.30197 0.74604 0.10811 0.0
C488 C 0.3557 0.78373 0.99821 0.0
H489 H 0.35738 0.76417 0.9627 0.0
H490 H 0.3797 0.78979 0.01632 0.0
H491 H 0.34571 0.80492 0.97378 0.0
C492 C 0.37689 0.65086 0.9584 0.0
N493 N 0.35348 0.67097 0.94064 0.0
N494 N 0.35149 0.694 0.98309 0.0
C495 C 0.3746 0.68977 0.02781 0.0
C496 C 0.39165 0.66251 0.01285 0.0
C497 C 0.38039 0.61757 0.9342 0.0
H498 H 0.35772 0.60873 0.91439 0.0
H499 H 0.39912 0.61694 0.89709 0.0
H500 H 0.38785 0.60131 0.97339 0.0
O501 O 0.28226 0.6534 0.91994 0.0
O502 O 0.27719 0.68736 0.00181 0.0
H503 H 0.35665 0.70933 0.11541 0.0
H504 H 0.39879 0.70141 0.11682 0.0
C505 C 0.37873 0.70971 0.08666 0.0
H506 H 0.3837 0.73442 0.07225 0.0
H507 H 0.28677 0.72758 0.12056 0.0
O508 O 0.33379 0.63262 0.81714 0.0
C509 C 0.26768 0.66342 0.96936 0.0
Co510 Co 0.61192 0.07377 0.63228 0.0
Co511 Co 0.56046 0.06331 0.73823 0.0
C512 C 0.54956 0.05003 0.59404 0.0
O513 O 0.57621 0.0613 0.57663 0.0
O514 O 0.5412 0.05029 0.65308 0.0
C515 C 0.65373 0.09719 0.52981 0.0
O516 O 0.62859 0.10219 0.49376 0.0
C517 C 0.50353 0.08753 0.80276 0.0
C518 C 0.50539 0.06237 0.89566 0.0
C519 C 0.48911 0.08599 0.86274 0.0
N520 N 0.52745 0.0663 0.80115 0.0
N521 N 0.52799 0.05089 0.85637 0.0
C522 C 0.49752 0.11134 0.75082 0.0
H523 H 0.51763 0.11196 0.71656 0.0
H524 H 0.49367 0.13523 0.77183 0.0
H525 H 0.47579 0.1046 0.72408 0.0
C526 C 0.61996 0.13396 0.7029 0.0
N527 N 0.60331 0.10735 0.69063 0.0
N528 N 0.58329 0.1024 0.7378 0.0
C529 C 0.58737 0.12525 0.78275 0.0
C530 C 0.61064 0.14616 0.76185 0.0
C531 C 0.64804 0.14428 0.66452 0.0
H532 H 0.66704 0.12629 0.66984 0.0
H533 H 0.64125 0.14616 0.61323 0.0
H534 H 0.65765 0.16736 0.68046 0.0
O535 O 0.62373 0.03514 0.6788 0.0
O536 O 0.59054 0.02856 0.76077 0.0
H537 H 0.57152 0.10133 0.8677 0.0
H538 H 0.58283 0.14221 0.88083 0.0
C539 C 0.57138 0.12553 0.8469 0.0
H540 H 0.54646 0.13327 0.84068 0.0
H541 H 0.5449 0.03379 0.86858 0.0
O542 O 0.65053 0.08468 0.58474 0.0
C543 C 0.61453 0.01986 0.72786 0.0
C544 C 0.46843 0.11623 0.95678 0.0
C545 C 0.46538 0.10778 0.89177 0.0
H546 H 0.44838 0.14084 0.03702 0.0
C547 C 0.43925 0.11943 0.85673 0.0
H548 H 0.48835 0.10782 0.98507 0.0
C549 C 0.41624 0.13844 0.88678 0.0
C550 C 0.41919 0.1463 0.95212 0.0
H551 H 0.43582 0.11279 0.80701 0.0
H552 H 0.39552 0.1458 0.85973 0.0
C553 C 0.4457 0.13533 0.98645 0.0
C554 C 0.63125 0.69804 0.22903 0.0
C555 C 0.62505 0.66873 0.19971 0.0
H556 H 0.65653 0.74199 0.2242 0.0
C557 C 0.63776 0.66252 0.1386 0.0
H558 H 0.62183 0.70327 0.27627 0.0
C559 C 0.65713 0.68491 0.10828 0.0
C560 C 0.66466 0.71345 0.13937 0.0
H561 H 0.63394 0.63982 0.11562 0.0
H562 H 0.66749 0.67923 0.06212 0.0
C563 C 0.65121 0.72002 0.19954 0.0
C564 C 0.10983 0.91518 0.44414 0.0
C565 C 0.1085 0.88187 0.44384 0.0
H566 H 0.08765 0.95883 0.41604 0.0
C567 C 0.08441 0.86692 0.40853 0.0
H568 H 0.12868 0.92743 0.46916 0.0
C569 C 0.0613 0.88505 0.37647 0.0
C570 C 0.06192 0.91838 0.37948 0.0
H571 H 0.08284 0.8413 0.40757 0.0
H572 H 0.04215 0.87295 0.35211 0.0
C573 C 0.08656 0.93321 0.41316 0.0
C574 C 0.88499 0.32941 0.73906 0.0
C575 C 0.89543 0.35629 0.70553 0.0
H576 H 0.85772 0.28672 0.73658 0.0
C577 C 0.88686 0.35984 0.64061 0.0
H578 H 0.89101 0.32625 0.7893 0.0
C579 C 0.868 0.33696 0.61009 0.0
C580 C 0.85694 0.31049 0.64435 0.0
H581 H 0.89357 0.38089 0.61424 0.0
H582 H 0.86094 0.34073 0.56066 0.0
C583 C 0.8658 0.30691 0.709 0.0
C584 C 0.58642 0.86479 0.09471 0.0
C585 C 0.61065 0.87896 0.05869 0.0
H586 H 0.54465 0.87217 0.15157 0.0
C587 C 0.61291 0.9122 0.0579 0.0
H588 H 0.58416 0.83923 0.09605 0.0
C589 C 0.59038 0.93097 0.08904 0.0
C590 C 0.56549 0.91696 0.12323 0.0
H591 H 0.6319 0.92382 0.03221 0.0
H592 H 0.59219 0.95653 0.08571 0.0
C593 C 0.56399 0.88366 0.12681 0.0
C594 C 0.36735 0.34052 0.89737 0.0
C595 C 0.35758 0.31356 0.86286 0.0
H596 H 0.39194 0.38508 0.89432 0.0
C597 C 0.36722 0.31024 0.79861 0.0
H598 H 0.35969 0.34422 0.94636 0.0
C599 C 0.38581 0.3334 0.76927 0.0
C600 C 0.39513 0.36054 0.80323 0.0
H601 H 0.36024 0.28975 0.77067 0.0
H602 H 0.39232 0.33046 0.71928 0.0
C603 C 0.38591 0.36387 0.86771 0.0
C604 C 0.93992 0.09416 0.58223 0.0
C605 C 0.96355 0.10846 0.61964 0.0
H606 H 0.89889 0.10073 0.52334 0.0
C607 C 0.9635 0.14169 0.62622 0.0
H608 H 0.93931 0.06864 0.57656 0.0
C609 C 0.94075 0.16026 0.59414 0.0
C610 C 0.9177 0.14588 0.55517 0.0
H611 H 0.98186 0.15344 0.65359 0.0
H612 H 0.9418 0.18584 0.59808 0.0
C613 C 0.91701 0.11261 0.55116 0.0
C614 C 0.12764 0.7013 0.27823 0.0
C615 C 0.12448 0.67089 0.30481 0.0
H616 H 0.15049 0.74658 0.28427 0.0
C617 C 0.14025 0.66382 0.36269 0.0
H618 H 0.11587 0.70722 0.23347 0.0
C619 C 0.15949 0.68655 0.39248 0.0
C620 C 0.16391 0.71632 0.36383 0.0
H621 H 0.13887 0.6403 0.38332 0.0
H622 H 0.17214 0.68034 0.43606 0.0
C623 C 0.14752 0.72367 0.30699 0.0
C624 C 0.91185 0.61328 0.44619 0.0
C625 C 0.91489 0.64644 0.44467 0.0
H626 H 0.93136 0.56839 0.41873 0.0
C627 C 0.93931 0.65992 0.4082 0.0
H628 H 0.8927 0.60225 0.47247 0.0
C629 C 0.96125 0.64041 0.3763 0.0
C630 C 0.95894 0.60716 0.38032 0.0
H631 H 0.94209 0.68542 0.40632 0.0
H632 H 0.98078 0.6514 0.35126 0.0
C633 C 0.9338 0.59388 0.41499 0.0
C634 C 0.14195 0.16731 0.64406 0.0
C635 C 0.13302 0.1715 0.70855 0.0
H636 H 0.16816 0.18572 0.56403 0.0
C637 C 0.14339 0.19863 0.74141 0.0
H638 H 0.13532 0.14604 0.61828 0.0
C639 C 0.16276 0.22082 0.71105 0.0
C640 C 0.17187 0.21664 0.64676 0.0
H641 H 0.13711 0.20226 0.79133 0.0
H642 H 0.17075 0.24125 0.73807 0.0
C643 C 0.16095 0.18988 0.61319 0.0
C644 C 0.55912 0.41161 0.95815 0.0
C645 C 0.56189 0.42018 0.89315 0.0
H646 H 0.57956 0.38691 0.03809 0.0
C647 C 0.588 0.40874 0.85795 0.0
H648 H 0.53928 0.41986 0.98665 0.0
C649 C 0.61105 0.38958 0.8876 0.0
C650 C 0.60832 0.38156 0.95284 0.0
H651 H 0.59134 0.41553 0.80833 0.0
H652 H 0.63163 0.38218 0.86034 0.0
C653 C 0.58201 0.39252 0.98754 0.0
C654 C 0.38483 0.8307 0.23582 0.0
C655 C 0.39331 0.85832 0.20259 0.0
H656 H 0.35962 0.78683 0.23393 0.0
C657 C 0.38277 0.86239 0.13902 0.0
H658 H 0.39227 0.82725 0.2852 0.0
C659 C 0.36392 0.83919 0.10942 0.0
C660 C 0.35507 0.8117 0.14318 0.0
H661 H 0.38803 0.88401 0.11315 0.0
H662 H 0.35533 0.84338 0.06115 0.0
C663 C 0.36591 0.80773 0.20659 0.0
C664 C 0.11761 0.41635 0.57014 0.0
C665 C 0.11447 0.38331 0.56401 0.0
H666 H 0.09643 0.4599 0.60188 0.0
C667 C 0.08846 0.36831 0.59279 0.0
H668 H 0.13777 0.42844 0.54943 0.0
C669 C 0.06509 0.38633 0.62402 0.0
C670 C 0.06743 0.41957 0.62682 0.0
H671 H 0.08551 0.3429 0.58861 0.0
H672 H 0.04439 0.3744 0.64274 0.0
C673 C 0.09409 0.43434 0.60031 0.0
C674 C 0.88075 0.82845 0.25869 0.0
C675 C 0.89115 0.85552 0.29171 0.0
H676 H 0.85365 0.78565 0.26198 0.0
C677 C 0.88241 0.8595 0.35636 0.0
H678 H 0.88688 0.82497 0.20865 0.0
C679 C 0.8636 0.83676 0.38724 0.0
C680 C 0.85273 0.80999 0.35361 0.0
H681 H 0.88906 0.88072 0.3823 0.0
H682 H 0.8565 0.84082 0.43649 0.0
C683 C 0.86161 0.80607 0.28911 0.0
C684 C 0.46629 0.61587 0.04656 0.0
C685 C 0.46228 0.60668 0.11091 0.0
H686 H 0.4475 0.64155 0.96627 0.0
C687 C 0.43572 0.61798 0.14476 0.0
H688 H 0.48659 0.60775 0.01926 0.0
C689 C 0.41318 0.63737 0.11408 0.0
C690 C 0.4171 0.64603 0.04937 0.0
H691 H 0.43165 0.61081 0.19396 0.0
H692 H 0.3921 0.64445 0.14008 0.0
C693 C 0.44406 0.6354 0.01631 0.0
C694 C 0.63047 0.20167 0.77201 0.0
C695 C 0.62731 0.17129 0.79859 0.0
H696 H 0.65276 0.24712 0.77847 0.0
C697 C 0.64318 0.1642 0.85634 0.0
H698 H 0.61853 0.20765 0.72746 0.0
C699 C 0.66244 0.18695 0.88616 0.0
C700 C 0.66662 0.21689 0.85792 0.0
H701 H 0.64166 0.14071 0.87711 0.0
H702 H 0.67506 0.18069 0.92974 0.0
C703 C 0.65019 0.22411 0.80095 0.0
C704 C 0.27921 0.23593 0.27073 0.0
C705 C 0.28546 0.24876 0.20958 0.0
H706 H 0.25562 0.24137 0.36113 0.0
C707 C 0.27145 0.27801 0.19334 0.0
H708 H 0.28921 0.21329 0.28483 0.0
C709 C 0.25169 0.29389 0.23684 0.0
C710 C 0.24541 0.28105 0.29798 0.0
H711 H 0.27528 0.28847 0.14648 0.0
H712 H 0.24166 0.31651 0.22268 0.0
C713 C 0.25949 0.25184 0.31429 0.0
C714 C 0.52805 0.50557 0.56211 0.0
C715 C 0.49825 0.49272 0.54665 0.0
H716 H 0.56732 0.53382 0.53141 0.0
C717 C 0.48525 0.49932 0.4857 0.0
H718 H 0.53867 0.50139 0.60879 0.0
C719 C 0.50144 0.51837 0.44169 0.0
C720 C 0.53117 0.53135 0.45717 0.0
H721 H 0.46221 0.49018 0.47215 0.0
H722 H 0.49071 0.52262 0.39514 0.0
C723 C 0.54429 0.52462 0.51797 0.0
C724 C 0.24763 0.79534 0.76846 0.0
C725 C 0.243 0.78354 0.70581 0.0
H726 H 0.26969 0.78874 0.8605 0.0
C727 C 0.25853 0.75527 0.68838 0.0
H728 H 0.23642 0.81724 0.7835 0.0
C729 C 0.27809 0.73928 0.73213 0.0
C730 C 0.28263 0.75093 0.79489 0.0
H731 H 0.25596 0.74561 0.64044 0.0
H732 H 0.28927 0.7174 0.71683 0.0
C733 C 0.26713 0.77922 0.81245 0.0
C734 C 0.98792 0.49625 0.0222 0.0
C735 C 0.9996 0.49086 0.95983 0.0
H736 H 0.99434 0.51925 0.1128 0.0
C737 C 0.02814 0.50564 0.9419 0.0
H738 H 0.96587 0.48567 0.03774 0.0
C739 C 0.04446 0.52528 0.98512 0.0
C740 C 0.03259 0.53081 0.04733 0.0
H741 H 0.03771 0.50239 0.8941 0.0
H742 H 0.06652 0.53594 0.96983 0.0
C743 C 1.0041 0.51597 0.06516 0.0
C744 C 0.76412 0.77326 0.68617 0.0
C745 C 0.78038 0.74544 0.70422 0.0
H746 H 0.73296 0.81092 0.71469 0.0
C747 C 0.77637 0.73399 0.76722 0.0
H748 H 0.76627 0.78261 0.63793 0.0
C749 C 0.75678 0.74991 0.81093 0.0
C750 C 0.74072 0.77786 0.79314 0.0
H751 H 0.7881 0.71244 0.78283 0.0
H752 H 0.75475 0.74052 0.85918 0.0
C753 C 0.74462 0.78929 0.73006 0.0
C754 C 0.75787 0.24911 0.18925 0.0
C755 C 0.74248 0.27747 0.20654 0.0
H756 H 0.7889 0.21141 0.21779 0.0
C757 C 0.74717 0.28934 0.26912 0.0
H758 H 0.75525 0.23942 0.14135 0.0
C759 C 0.76683 0.2734 0.31298 0.0
C760 C 0.78249 0.24522 0.29542 0.0
H761 H 0.736 0.31128 0.28411 0.0
H762 H 0.76958 0.28313 0.36081 0.0
C763 C 0.77766 0.23328 0.23295 0.0
C764 C 0.98562 0.99683 0.97821 0.0
C765 C 0.99621 0.99194 0.04169 0.0
H766 H 0.99305 0.02018 0.8881 0.0
C767 C 0.02347 1.00819 0.06243 0.0
H768 H 0.96452 0.9851 0.96058 0.0
C769 C 0.03959 0.02875 0.02101 0.0
C770 C 0.02897 0.03368 0.95755 0.0
H771 H 0.03216 1.00543 0.11112 0.0
H772 H 0.06068 0.0405 0.03867 0.0
C773 C 1.00175 0.01739 0.93677 0.0
C774 C 0.52571 1.00631 0.44153 0.0
C775 C 0.49693 0.99203 0.45935 0.0
H776 H 0.56426 0.03632 0.4688 0.0
C777 C 0.48516 0.99783 0.52155 0.0
H778 H 0.53539 1.0028 0.39389 0.0
C779 C 0.50164 0.01742 0.56454 0.0
C780 C 0.53028 0.03191 0.54647 0.0
H781 H 0.46291 0.98758 0.5369 0.0
H782 H 0.49196 0.02103 0.61215 0.0
C783 C 0.54208 0.02601 0.48435 0.0
C784 C 0.18052 0.15976 0.99134 0.0
C785 C 0.17605 0.12673 0.99122 0.0
H786 H 0.21359 0.19798 1.001 0.0
C787 C 0.20198 0.10675 0.00414 0.0
H788 H 0.16102 0.17574 0.98091 0.0
C789 C 0.23187 0.1195 0.01614 0.0
C790 C 0.23655 0.15241 0.01386 0.0
H791 H 0.19924 0.08122 0.00408 0.0
H792 H 0.25145 0.10357 0.02639 0.0
C793 C 0.21065 0.17248 0.00157 0.0
C794 C 0.65864 0.48194 0.25323 0.0
C795 C 0.62556 0.48563 0.25082 0.0
H796 H 0.69812 0.4505 0.24135 0.0
C797 C 0.60647 0.4592 0.238 0.0
H798 H 0.67383 0.50194 0.26388 0.0
C799 C 0.62031 0.42951 0.22765 0.0
C800 C 0.65348 0.42601 0.22796 0.0
H801 H 0.58087 0.46135 0.2373 0.0
H802 H 0.60504 0.40959 0.21693 0.0
C803 C 0.6725 0.45248 0.24111 0.0
C804 C 0.29095 0.91125 0.50225 0.0
C805 C 0.28774 0.87815 0.50217 0.0
H806 H 0.32215 0.95067 0.48892 0.0
C807 C 0.31464 0.85903 0.4932 0.0
H808 H 0.27054 0.92643 0.51008 0.0
C809 C 0.34432 0.87283 0.48405 0.0
C810 C 0.34739 0.90597 0.48142 0.0
H811 H 0.31281 0.83342 0.49447 0.0
H812 H 0.3646 0.85748 0.4763 0.0
C813 C 0.32046 0.92507 0.49094 0.0
C814 C 0.87471 0.58694 0.80018 0.0
C815 C 0.86417 0.59268 0.73727 0.0
H816 H 0.89849 0.55478 0.86393 0.0
C817 C 0.87011 0.56971 0.68949 0.0
H818 H 0.87045 0.60404 0.83804 0.0
C819 C 0.88722 0.54218 0.70379 0.0
C820 C 0.89755 0.53655 0.76662 0.0
H821 H 0.86179 0.573 0.64074 0.0
H822 H 0.89162 0.52494 0.66623 0.0
C823 C 0.89086 0.55889 0.81488 0.0
C824 C 0.81562 0.85346 0.00164 0.0
C825 C 0.78888 0.87271 0.99164 0.0
H826 H 0.86563 0.85167 0.01841 0.0
C827 C 0.79247 0.90574 0.9888 0.0
H828 H 0.81349 0.82787 0.00244 0.0
C829 C 0.82217 0.91941 0.9987 0.0
C830 C 0.84891 0.90021 0.00975 0.0
H831 H 0.7722 0.92101 0.98009 0.0
H832 H 0.82412 0.94502 0.99884 0.0
C833 C 0.84549 0.86708 0.00948 0.0
C834 C 0.42071 0.56906 0.75714 0.0
C835 C 0.40095 0.54338 0.7424 0.0
H836 H 0.42342 0.61838 0.78055 0.0
C837 C 0.36803 0.54816 0.73855 0.0
H838 H 0.44622 0.56607 0.75908 0.0
C839 C 0.35497 0.57789 0.75131 0.0
C840 C 0.37464 0.60359 0.76665 0.0
H841 H 0.35233 0.52875 0.72654 0.0
H842 H 0.32942 0.58067 0.75005 0.0
C843 C 0.40769 0.59907 0.76821 0.0
C844 C 0.73662 0.12987 0.54912 0.0
C845 C 0.74093 0.14519 0.49033 0.0
H846 H 0.70643 0.10091 0.60614 0.0
C847 C 0.71744 0.1431 0.44262 0.0
H848 H 0.75482 0.13075 0.58589 0.0
C849 C 0.68924 0.12685 0.45454 0.0
C850 C 0.68458 0.11171 0.51379 0.0
H851 H 0.72066 0.15463 0.39657 0.0
H852 H 0.67105 0.12645 0.41776 0.0
C853 C 0.70894 0.11274 0.56031 0.0
C854 C 0.16197 0.48757 0.26029 0.0
C855 C 0.1289 0.48907 0.25329 0.0
H856 H 0.20247 0.45792 0.27771 0.0
C857 C 0.11118 0.46101 0.25439 0.0
H858 H 0.1761 0.50895 0.25848 0.0
C859 C 0.12636 0.43177 0.26213 0.0
C860 C 0.15937 0.4303 0.27104 0.0
H861 H 0.08571 0.46163 0.24751 0.0
H862 H 0.11213 0.41046 0.26337 0.0
C863 C 0.17703 0.45845 0.27034 0.0
C864 C 0.70986 0.60999 0.43689 0.0
C865 C 0.68527 0.60809 0.48254 0.0
H866 H 0.75539 0.62936 0.41326 0.0
C867 C 0.68927 0.62289 0.54238 0.0
H868 H 0.70788 0.59843 0.39066 0.0
C869 C 0.71699 0.63973 0.55572 0.0
C870 C 0.74065 0.64276 0.5088 0.0
H871 H 0.67088 0.62181 0.57855 0.0
H872 H 0.71966 0.65104 0.60216 0.0
C873 C 0.73704 0.62772 0.44947 0.0
C874 C 0.14235 0.98809 0.70194 0.0
C875 C 0.13304 0.99331 0.76548 0.0
H876 H 0.16707 0.95789 0.63683 0.0
C877 C 0.14112 0.97104 0.81305 0.0
H878 H 0.13684 1.0053 0.66486 0.0
C879 C 0.1575 0.94335 0.79693 0.0
C880 C 0.16682 0.93794 0.73323 0.0
H881 H 0.13425 0.97481 0.8626 0.0
H882 H 0.16271 0.9262 0.83425 0.0
C883 C 0.15967 0.96095 0.68618 0.0
C884 C 0.81698 0.35499 0.99728 0.0
C885 C 0.79115 0.37495 0.01052 0.0
H886 H 0.86645 0.3519 0.97545 0.0
C887 C 0.79576 0.40788 0.01295 0.0
H888 H 0.81409 0.32948 0.99652 0.0
C889 C 0.82552 0.42074 1.00035 0.0
C890 C 0.8514 0.40085 0.9867 0.0
H891 H 0.77623 0.42372 0.02386 0.0
H892 H 0.82821 0.44627 1.00056 0.0
C893 C 0.847 0.36781 0.98646 0.0
C894 C 0.36781 0.04474 0.26026 0.0
C895 C 0.40076 0.03999 0.25755 0.0
H896 H 0.32922 0.07714 0.24668 0.0
C897 C 0.42054 0.06554 0.24221 0.0
H898 H 0.3521 0.02542 0.27265 0.0
C899 C 0.40753 0.09543 0.22977 0.0
C900 C 0.37448 0.09996 0.23054 0.0
H901 H 0.44606 0.06257 0.24106 0.0
H902 H 0.4233 0.11467 0.21728 0.0
C903 C 0.35476 0.07435 0.24606 0.0
C904 C 0.29501 0.4112 0.49423 0.0
C905 C 0.29169 0.37812 0.4963 0.0
H906 H 0.32594 0.45077 0.50822 0.0
C907 C 0.31827 0.35912 0.50948 0.0
H908 H 0.27485 0.42629 0.48338 0.0
C909 C 0.34772 0.37302 0.52104 0.0
C910 C 0.35079 0.40619 0.52174 0.0
H911 H 0.31638 0.33351 0.51002 0.0
H912 H 0.36773 0.35781 0.53221 0.0
C913 C 0.32423 0.42515 0.50777 0.0
C914 C 0.8686 0.06886 0.31105 0.0
C915 C 0.86175 0.09154 0.26314 0.0
H916 H 0.89032 0.02415 0.33382 0.0
C917 C 0.87062 0.08524 0.19951 0.0
H918 H 0.86152 0.0726 0.36041 0.0
C919 C 0.88616 0.05696 0.18427 0.0
C920 C 0.89384 0.03495 0.23262 0.0
H921 H 0.86562 0.10212 0.16157 0.0
H922 H 0.89267 0.05249 0.13475 0.0
C923 C 0.88509 0.0411 0.29612 0.0
C924 C 0.18765 0.6246 0.95687 0.0
C925 C 0.18399 0.61205 0.01883 0.0
H926 H 0.21753 0.65071 0.89277 0.0
C927 C 0.20833 0.61664 0.06445 0.0
H928 H 0.16943 0.62144 0.9207 0.0
C929 C 0.23509 0.63446 0.04926 0.0
C930 C 0.23856 0.64691 0.98748 0.0
H931 H 0.2066 0.60684 0.11234 0.0
H932 H 0.25341 0.63783 0.08517 0.0
C933 C 0.21497 0.6415 0.94107 0.0
C934 C 0.63779 0.96846 0.6941 0.0
C935 C 0.63135 0.99036 0.74327 0.0
H936 H 0.65813 0.92355 0.66901 0.0
C937 C 0.64243 0.98452 0.80546 0.0
H938 H 0.62956 0.97279 0.64551 0.0
C939 C 0.65986 0.95705 0.81833 0.0
C940 C 0.6653 0.93433 0.7698 0.0
H941 H 0.63822 1.00147 0.84363 0.0
H942 H 0.66865 0.95348 0.86668 0.0
C943 C 0.65425 0.94044 0.70741 0.0
loop_
_geom_bond_atom_site_label_1
_geom_bond_atom_site_label_2
_geom_bond_distance
_geom_bond_site_symmetry_2
_ccdc_geom_bond_type
Co0 O3 1.970 . S
Co0 N17 1.989 . S
Co0 O25 1.967 . S
Co0 O32 1.920 . S
Co1 O4 1.966 . S
Co1 N10 2.022 1_554 S
Co1 N18 1.993 . S
Co1 O26 1.941 1_554 S
C2 O3 1.258 . S
C2 O4 1.263 . S
O3 Co0 1.970 . S
O3 C2 1.258 . S
O4 Co1 1.966 . S
O4 C2 1.263 . S
C5 O6 1.235 . S
C5 O32 1.289 . S
O6 C5 1.235 . S
C7 C9 1.400 . S
C7 N10 1.351 . S
C7 C12 1.501 1_556 S
C8 C9 1.387 . S
C8 N11 1.341 . S
C9 C7 1.400 . S
C9 C8 1.387 . S
N10 Co1 2.022 1_556 S
N10 C7 1.351 . S
N10 N11 1.365 . S
N11 C8 1.341 . S
N11 N10 1.365 . S
N11 H31 0.862 . S
C12 C7 1.501 1_554 S
C12 H13 0.961 . S
C12 H14 0.961 . S
C12 H15 0.960 . S
H13 C12 0.961 . S
H14 C12 0.961 . S
H15 C12 0.960 . S
C16 N17 1.342 . S
C16 C20 1.401 1_554 S
C16 C21 1.499 . S
N17 Co0 1.989 . S
N17 C16 1.342 . S
N17 N18 1.388 . S
N18 Co1 1.993 . S
N18 N17 1.388 . S
N18 C19 1.346 1_554 S
C19 N18 1.346 1_556 S
C19 C20 1.396 . S
C19 C29 1.510 . S
C20 C16 1.401 1_556 S
C20 C19 1.396 . S
C21 C16 1.499 . S
C21 H22 0.959 . S
C21 H23 0.960 . S
C21 H24 0.961 . S
H22 C21 0.959 . S
H23 C21 0.960 . S
H24 C21 0.961 . S
O25 Co0 1.967 . S
O25 C33 1.258 . S
O26 Co1 1.941 1_556 S
O26 C33 1.266 1_556 S
H27 C29 0.959 . S
H28 C29 0.961 . S
C29 C19 1.510 . S
C29 H27 0.959 . S
C29 H28 0.961 . S
C29 H30 0.960 . S
H30 C29 0.960 . S
H31 N11 0.862 . S
O32 Co0 1.920 . S
O32 C5 1.289 . S
C33 O25 1.258 . S
C33 O26 1.266 1_554 S
Co34 O37 1.970 . S
Co34 N51 1.989 . S
Co34 O59 1.967 . S
Co34 O66 1.920 . S
Co35 O38 1.966 . S
Co35 N44 2.022 . S
Co35 N52 1.993 . S
Co35 O60 1.941 . S
C36 O37 1.258 . S
C36 O38 1.263 . S
O37 Co34 1.970 . S
O37 C36 1.258 . S
O38 Co35 1.966 . S
O38 C36 1.263 . S
C39 O40 1.235 . S
C39 O66 1.289 . S
O40 C39 1.235 . S
C41 C43 1.400 . S
C41 N44 1.351 . S
C41 C46 1.501 . S
C42 C43 1.387 . S
C42 N45 1.341 . S
C43 C41 1.400 . S
C43 C42 1.387 . S
N44 Co35 2.022 . S
N44 C41 1.351 . S
N44 N45 1.365 . S
N45 C42 1.341 . S
N45 N44 1.365 . S
N45 H65 0.862 . S
C46 C41 1.501 . S
C46 H47 0.961 . S
C46 H48 0.961 . S
C46 H49 0.960 . S
H47 C46 0.961 . S
H48 C46 0.961 . S
H49 C46 0.960 . S
C50 N51 1.342 . S
C50 C54 1.401 . S
C50 C55 1.499 . S
N51 Co34 1.989 . S
N51 C50 1.342 . S
N51 N52 1.388 . S
N52 Co35 1.993 . S
N52 N51 1.388 . S
N52 C53 1.346 . S
C53 N52 1.346 . S
C53 C54 1.396 . S
C53 C63 1.510 . S
C54 C50 1.401 . S
C54 C53 1.396 . S
C55 C50 1.499 . S
C55 H56 0.959 . S
C55 H57 0.960 . S
C55 H58 0.961 . S
H56 C55 0.959 . S
H57 C55 0.960 . S
H58 C55 0.961 . S
O59 Co34 1.967 . S
O59 C67 1.258 . S
O60 Co35 1.941 . S
O60 C67 1.266 . S
H61 C63 0.959 . S
H62 C63 0.961 . S
C63 C53 1.510 . S
C63 H61 0.959 . S
C63 H62 0.961 . S
C63 H64 0.960 . S
H64 C63 0.960 . S
H65 N45 0.862 . S
O66 Co34 1.920 . S
O66 C39 1.289 . S
C67 O59 1.258 . S
C67 O60 1.266 . S
Co68 O71 1.970 . S
Co68 N85 1.989 . S
Co68 O93 1.967 . S
Co68 O100 1.920 . S
Co69 O72 1.966 . S
Co69 N78 2.022 . S
Co69 N86 1.993 . S
Co69 O94 1.941 . S
C70 O71 1.258 . S
C70 O72 1.263 . S
O71 Co68 1.970 . S
O71 C70 1.258 . S
O72 Co69 1.966 . S
O72 C70 1.263 . S
C73 O74 1.235 . S
C73 O100 1.289 . S
O74 C73 1.235 . S
C75 C77 1.400 . S
C75 N78 1.351 . S
C75 C80 1.501 . S
C76 C77 1.387 . S
C76 N79 1.341 . S
C77 C75 1.400 . S
C77 C76 1.387 . S
N78 Co69 2.022 . S
N78 C75 1.351 . S
N78 N79 1.365 . S
N79 C76 1.341 . S
N79 N78 1.365 . S
N79 H99 0.862 . S
C80 C75 1.501 . S
C80 H81 0.961 . S
C80 H82 0.961 . S
C80 H83 0.960 . S
H81 C80 0.961 . S
H82 C80 0.961 . S
H83 C80 0.960 . S
C84 N85 1.342 . S
C84 C88 1.401 . S
C84 C89 1.499 . S
N85 Co68 1.989 . S
N85 C84 1.342 . S
N85 N86 1.388 . S
N86 Co69 1.993 . S
N86 N85 1.388 . S
N86 C87 1.346 . S
C87 N86 1.346 . S
C87 C88 1.396 . S
C87 C97 1.510 . S
C88 C84 1.401 . S
C88 C87 1.396 . S
C89 C84 1.499 . S
C89 H90 0.959 . S
C89 H91 0.960 . S
C89 H92 0.961 . S
H90 C89 0.959 . S
H91 C89 0.960 . S
H92 C89 0.961 . S
O93 Co68 1.967 . S
O93 C101 1.258 . S
O94 Co69 1.941 . S
O94 C101 1.266 . S
H95 C97 0.959 . S
H96 C97 0.961 . S
C97 C87 1.510 . S
C97 H95 0.959 . S
C97 H96 0.961 . S
C97 H98 0.960 . S
H98 C97 0.960 . S
H99 N79 0.862 . S
O100 Co68 1.920 . S
O100 C73 1.289 . S
C101 O93 1.258 . S
C101 O94 1.266 . S
Co102 O105 1.970 . S
Co102 N119 1.989 . S
Co102 O127 1.967 . S
Co102 O134 1.920 . S
Co103 O106 1.966 . S
Co103 N112 2.022 . S
Co103 N120 1.993 . S
Co103 O128 1.941 . S
C104 O105 1.258 . S
C104 O106 1.263 . S
O105 Co102 1.970 . S
O105 C104 1.258 . S
O106 Co103 1.966 . S
O106 C104 1.263 . S
C107 O108 1.235 . S
C107 O134 1.289 . S
O108 C107 1.235 . S
C109 C111 1.400 . S
C109 N112 1.351 1_455 S
C109 C114 1.501 . S
C110 C111 1.387 . S
C110 N113 1.341 1_455 S
C111 C109 1.400 . S
C111 C110 1.387 . S
N112 Co103 2.022 . S
N112 C109 1.351 1_655 S
N112 N113 1.365 . S
N113 C110 1.341 1_655 S
N113 N112 1.365 . S
N113 H133 0.862 . S
C114 C109 1.501 . S
C114 H115 0.961 . S
C114 H116 0.961 . S
C114 H117 0.960 . S
H115 C114 0.961 . S
H116 C114 0.961 . S
H117 C114 0.960 . S
C118 N119 1.342 . S
C118 C122 1.401 . S
C118 C123 1.499 . S
N119 Co102 1.989 . S
N119 C118 1.342 . S
N119 N120 1.388 . S
N120 Co103 1.993 . S
N120 N119 1.388 . S
N120 C121 1.346 . S
C121 N120 1.346 . S
C121 C122 1.396 . S
C121 C131 1.510 . S
C122 C118 1.401 . S
C122 C121 1.396 . S
C123 C118 1.499 . S
C123 H124 0.959 . S
C123 H125 0.960 . S
C123 H126 0.961 . S
H124 C123 0.959 . S
H125 C123 0.960 . S
H126 C123 0.961 . S
O127 Co102 1.967 . S
O127 C135 1.258 . S
O128 Co103 1.941 . S
O128 C135 1.266 . S
H129 C131 0.959 . S
H130 C131 0.961 . S
C131 C121 1.510 . S
C131 H129 0.959 . S
C131 H130 0.961 . S
C131 H132 0.960 . S
H132 C131 0.960 . S
H133 N113 0.862 . S
O134 Co102 1.920 . S
O134 C107 1.289 . S
C135 O127 1.258 . S
C135 O128 1.266 . S
Co136 O139 1.970 . S
Co136 N153 1.989 . S
Co136 O161 1.967 . S
Co136 O168 1.920 . S
Co137 O140 1.966 . S
Co137 N146 2.022 1_556 S
Co137 N154 1.993 . S
Co137 O162 1.941 1_556 S
C138 O139 1.258 . S
C138 O140 1.263 . S
O139 Co136 1.970 . S
O139 C138 1.258 . S
O140 Co137 1.966 . S
O140 C138 1.263 . S
C141 O142 1.235 . S
C141 O168 1.289 . S
O142 C141 1.235 . S
C143 C145 1.400 . S
C143 N146 1.351 . S
C143 C148 1.501 1_554 S
C144 C145 1.387 . S
C144 N147 1.341 . S
C145 C143 1.400 . S
C145 C144 1.387 . S
N146 Co137 2.022 1_554 S
N146 C143 1.351 . S
N146 N147 1.365 . S
N147 C144 1.341 . S
N147 N146 1.365 . S
N147 H167 0.862 . S
C148 C143 1.501 1_556 S
C148 H149 0.961 . S
C148 H150 0.961 . S
C148 H151 0.960 . S
H149 C148 0.961 . S
H150 C148 0.961 . S
H151 C148 0.960 . S
C152 N153 1.342 . S
C152 C156 1.401 1_556 S
C152 C157 1.499 . S
N153 Co136 1.989 . S
N153 C152 1.342 . S
N153 N154 1.388 . S
N154 Co137 1.993 . S
N154 N153 1.388 . S
N154 C155 1.346 1_556 S
C155 N154 1.346 1_554 S
C155 C156 1.396 . S
C155 C165 1.510 . S
C156 C152 1.401 1_554 S
C156 C155 1.396 . S
C157 C152 1.499 . S
C157 H158 0.959 . S
C157 H159 0.960 . S
C157 H160 0.961 . S
H158 C157 0.959 . S
H159 C157 0.960 . S
H160 C157 0.961 . S
O161 Co136 1.967 . S
O161 C169 1.258 . S
O162 Co137 1.941 1_554 S
O162 C169 1.266 1_554 S
H163 C165 0.959 . S
H164 C165 0.961 . S
C165 C155 1.510 . S
C165 H163 0.959 . S
C165 H164 0.961 . S
C165 H166 0.960 . S
H166 C165 0.960 . S
H167 N147 0.862 . S
O168 Co136 1.920 . S
O168 C141 1.289 . S
C169 O161 1.258 . S
C169 O162 1.266 1_556 S
Co170 O173 1.970 . S
Co170 N187 1.989 . S
Co170 O195 1.967 . S
Co170 O202 1.920 . S
Co171 O174 1.966 . S
Co171 N180 2.022 . S
Co171 N188 1.993 . S
Co171 O196 1.941 . S
C172 O173 1.258 . S
C172 O174 1.263 . S
O173 Co170 1.970 . S
O173 C172 1.258 . S
O174 Co171 1.966 . S
O174 C172 1.263 . S
C175 O176 1.235 . S
C175 O202 1.289 . S
O176 C175 1.235 . S
C177 C179 1.400 . S
C177 N180 1.351 . S
C177 C182 1.501 . S
C178 C179 1.387 . S
C178 N181 1.341 . S
C179 C177 1.400 . S
C179 C178 1.387 . S
N180 Co171 2.022 . S
N180 C177 1.351 . S
N180 N181 1.365 . S
N181 C178 1.341 . S
N181 N180 1.365 . S
N181 H201 0.862 . S
C182 C177 1.501 . S
C182 H183 0.961 . S
C182 H184 0.961 . S
C182 H185 0.960 . S
H183 C182 0.961 . S
H184 C182 0.961 . S
H185 C182 0.960 . S
C186 N187 1.342 . S
C186 C190 1.401 . S
C186 C191 1.499 . S
N187 Co170 1.989 . S
N187 C186 1.342 . S
N187 N188 1.388 . S
N188 Co171 1.993 . S
N188 N187 1.388 . S
N188 C189 1.346 . S
C189 N188 1.346 . S
C189 C190 1.396 . S
C189 C199 1.510 . S
C190 C186 1.401 . S
C190 C189 1.396 . S
C191 C186 1.499 . S
C191 H192 0.959 . S
C191 H193 0.960 . S
C191 H194 0.961 . S
H192 C191 0.959 . S
H193 C191 0.960 . S
H194 C191 0.961 . S
O195 Co170 1.967 . S
O195 C203 1.258 . S
O196 Co171 1.941 . S
O196 C203 1.266 . S
H197 C199 0.959 . S
H198 C199 0.961 . S
C199 C189 1.510 . S
C199 H197 0.959 . S
C199 H198 0.961 . S
C199 H200 0.960 . S
H200 C199 0.960 . S
H201 N181 0.862 . S
O202 Co170 1.920 . S
O202 C175 1.289 . S
C203 O195 1.258 . S
C203 O196 1.266 . S
Co204 O207 1.970 . S
Co204 N221 1.989 . S
Co204 O229 1.967 . S
Co204 O236 1.920 . S
Co205 O208 1.966 . S
Co205 N214 2.022 . S
Co205 N222 1.993 . S
Co205 O230 1.941 . S
C206 O207 1.258 . S
C206 O208 1.263 . S
O207 Co204 1.970 . S
O207 C206 1.258 . S
O208 Co205 1.966 . S
O208 C206 1.263 . S
C209 O210 1.235 . S
C209 O236 1.289 . S
O210 C209 1.235 . S
C211 C213 1.400 . S
C211 N214 1.351 . S
C211 C216 1.501 . S
C212 C213 1.387 . S
C212 N215 1.341 . S
C213 C211 1.400 . S
C213 C212 1.387 . S
N214 Co205 2.022 . S
N214 C211 1.351 . S
N214 N215 1.365 . S
N215 C212 1.341 . S
N215 N214 1.365 . S
N215 H235 0.862 . S
C216 C211 1.501 . S
C216 H217 0.961 . S
C216 H218 0.961 . S
C216 H219 0.960 . S
H217 C216 0.961 . S
H218 C216 0.961 . S
H219 C216 0.960 . S
C220 N221 1.342 . S
C220 C224 1.401 . S
C220 C225 1.499 . S
N221 Co204 1.989 . S
N221 C220 1.342 . S
N221 N222 1.388 . S
N222 Co205 1.993 . S
N222 N221 1.388 . S
N222 C223 1.346 . S
C223 N222 1.346 . S
C223 C224 1.396 . S
C223 C233 1.510 . S
C224 C220 1.401 . S
C224 C223 1.396 . S
C225 C220 1.499 . S
C225 H226 0.959 . S
C225 H227 0.960 . S
C225 H228 0.961 . S
H226 C225 0.959 . S
H227 C225 0.960 . S
H228 C225 0.961 . S
O229 Co204 1.967 . S
O229 C237 1.258 . S
O230 Co205 1.941 . S
O230 C237 1.266 . S
H231 C233 0.959 . S
H232 C233 0.961 . S
C233 C223 1.510 . S
C233 H231 0.959 . S
C233 H232 0.961 . S
C233 H234 0.960 . S
H234 C233 0.960 . S
H235 N215 0.862 . S
O236 Co204 1.920 . S
O236 C209 1.289 . S
C237 O229 1.258 . S
C237 O230 1.266 . S
Co238 O241 1.970 . S
Co238 N255 1.989 . S
Co238 O263 1.967 . S
Co238 O270 1.920 . S
Co239 O242 1.966 . S
Co239 N248 2.022 . S
Co239 N256 1.993 . S
Co239 O264 1.941 . S
C240 O241 1.258 . S
C240 O242 1.263 . S
O241 Co238 1.970 . S
O241 C240 1.258 . S
O242 Co239 1.966 . S
O242 C240 1.263 . S
C243 O244 1.235 . S
C243 O270 1.289 . S
O244 C243 1.235 . S
C245 C247 1.400 . S
C245 N248 1.351 1_655 S
C245 C250 1.501 . S
C246 C247 1.387 . S
C246 N249 1.341 1_655 S
C247 C245 1.400 . S
C247 C246 1.387 . S
N248 Co239 2.022 . S
N248 C245 1.351 1_455 S
N248 N249 1.365 . S
N249 C246 1.341 1_455 S
N249 N248 1.365 . S
N249 H269 0.862 . S
C250 C245 1.501 . S
C250 H251 0.961 . S
C250 H252 0.961 . S
C250 H253 0.960 . S
H251 C250 0.961 . S
H252 C250 0.961 . S
H253 C250 0.960 . S
C254 N255 1.342 . S
C254 C258 1.401 . S
C254 C259 1.499 . S
N255 Co238 1.989 . S
N255 C254 1.342 . S
N255 N256 1.388 . S
N256 Co239 1.993 . S
N256 N255 1.388 . S
N256 C257 1.346 . S
C257 N256 1.346 . S
C257 C258 1.396 . S
C257 C267 1.510 . S
C258 C254 1.401 . S
C258 C257 1.396 . S
C259 C254 1.499 . S
C259 H260 0.959 . S
C259 H261 0.960 . S
C259 H262 0.961 . S
H260 C259 0.959 . S
H261 C259 0.960 . S
H262 C259 0.961 . S
O263 Co238 1.967 . S
O263 C271 1.258 . S
O264 Co239 1.941 . S
O264 C271 1.266 . S
H265 C267 0.959 . S
H266 C267 0.961 . S
C267 C257 1.510 . S
C267 H265 0.959 . S
C267 H266 0.961 . S
C267 H268 0.960 . S
H268 C267 0.960 . S
H269 N249 0.862 . S
O270 Co238 1.920 . S
O270 C243 1.289 . S
C271 O263 1.258 . S
C271 O264 1.266 . S
Co272 O275 1.970 . S
Co272 N289 1.989 . S
Co272 O297 1.967 . S
Co272 O304 1.920 . S
Co273 O276 1.966 . S
Co273 N282 2.022 . S
Co273 N290 1.993 . S
Co273 O298 1.941 . S
C274 O275 1.258 . S
C274 O276 1.263 . S
O275 Co272 1.970 . S
O275 C274 1.258 . S
O276 Co273 1.966 . S
O276 C274 1.263 . S
C277 O278 1.235 . S
C277 O304 1.289 . S
O278 C277 1.235 . S
C279 C281 1.400 . S
C279 N282 1.351 . S
C279 C284 1.501 . S
C280 C281 1.387 . S
C280 N283 1.341 . S
C281 C279 1.400 . S
C281 C280 1.387 . S
N282 Co273 2.022 . S
N282 C279 1.351 . S
N282 N283 1.365 . S
N283 C280 1.341 . S
N283 N282 1.365 . S
N283 H303 0.862 . S
C284 C279 1.501 . S
C284 H285 0.961 . S
C284 H286 0.961 . S
C284 H287 0.960 . S
H285 C284 0.961 . S
H286 C284 0.961 . S
H287 C284 0.960 . S
C288 N289 1.342 . S
C288 C292 1.401 . S
C288 C293 1.499 . S
N289 Co272 1.989 . S
N289 C288 1.342 . S
N289 N290 1.388 . S
N290 Co273 1.993 . S
N290 N289 1.388 . S
N290 C291 1.346 . S
C291 N290 1.346 . S
C291 C292 1.396 . S
C291 C301 1.510 . S
C292 C288 1.401 . S
C292 C291 1.396 . S
C293 C288 1.499 . S
C293 H294 0.959 . S
C293 H295 0.960 . S
C293 H296 0.961 . S
H294 C293 0.959 . S
H295 C293 0.960 . S
H296 C293 0.961 . S
O297 Co272 1.967 . S
O297 C305 1.258 . S
O298 Co273 1.941 . S
O298 C305 1.266 . S
H299 C301 0.959 . S
H300 C301 0.961 . S
C301 C291 1.510 . S
C301 H299 0.959 . S
C301 H300 0.961 . S
C301 H302 0.960 . S
H302 C301 0.960 . S
H303 N283 0.862 . S
O304 Co272 1.920 . S
O304 C277 1.289 . S
C305 O297 1.258 . S
C305 O298 1.266 . S
Co306 O309 1.970 . S
Co306 N323 1.989 . S
Co306 O331 1.967 . S
Co306 O338 1.920 . S
Co307 O310 1.966 . S
Co307 N316 2.022 . S
Co307 N324 1.993 . S
Co307 O332 1.941 . S
C308 O309 1.258 . S
C308 O310 1.263 . S
O309 Co306 1.970 . S
O309 C308 1.258 . S
O310 Co307 1.966 . S
O310 C308 1.263 . S
C311 O312 1.235 . S
C311 O338 1.289 . S
O312 C311 1.235 . S
C313 C315 1.400 . S
C313 N316 1.351 1_655 S
C313 C318 1.501 . S
C314 C315 1.387 . S
C314 N317 1.341 1_655 S
C315 C313 1.400 . S
C315 C314 1.387 . S
N316 Co307 2.022 . S
N316 C313 1.351 1_455 S
N316 N317 1.365 . S
N317 C314 1.341 1_455 S
N317 N316 1.365 . S
N317 H337 0.862 . S
C318 C313 1.501 . S
C318 H319 0.961 . S
C318 H320 0.961 . S
C318 H321 0.960 . S
H319 C318 0.961 . S
H320 C318 0.961 . S
H321 C318 0.960 . S
C322 N323 1.342 . S
C322 C326 1.401 . S
C322 C327 1.499 . S
N323 Co306 1.989 . S
N323 C322 1.342 . S
N323 N324 1.388 . S
N324 Co307 1.993 . S
N324 N323 1.388 . S
N324 C325 1.346 . S
C325 N324 1.346 . S
C325 C326 1.396 . S
C325 C335 1.510 . S
C326 C322 1.401 . S
C326 C325 1.396 . S
C327 C322 1.499 . S
C327 H328 0.959 . S
C327 H329 0.960 . S
C327 H330 0.961 . S
H328 C327 0.959 . S
H329 C327 0.960 . S
H330 C327 0.961 . S
O331 Co306 1.967 . S
O331 C339 1.258 . S
O332 Co307 1.941 . S
O332 C339 1.266 . S
H333 C335 0.959 . S
H334 C335 0.961 . S
C335 C325 1.510 . S
C335 H333 0.959 . S
C335 H334 0.961 . S
C335 H336 0.960 . S
H336 C335 0.960 . S
H337 N317 0.862 . S
O338 Co306 1.920 . S
O338 C311 1.289 . S
C339 O331 1.258 . S
C339 O332 1.266 . S
Co340 O343 1.970 . S
Co340 N357 1.989 . S
Co340 O365 1.967 . S
Co340 O372 1.920 . S
Co341 O344 1.966 . S
Co341 N350 2.022 1_554 S
Co341 N358 1.993 . S
Co341 O366 1.941 1_554 S
C342 O343 1.258 . S
C342 O344 1.263 . S
O343 Co340 1.970 . S
O343 C342 1.258 . S
O344 Co341 1.966 . S
O344 C342 1.263 . S
C345 O346 1.235 . S
C345 O372 1.289 . S
O346 C345 1.235 . S
C347 C349 1.400 . S
C347 N350 1.351 . S
C347 C352 1.501 1_556 S
C348 C349 1.387 . S
C348 N351 1.341 . S
C349 C347 1.400 . S
C349 C348 1.387 . S
N350 Co341 2.022 1_556 S
N350 C347 1.351 . S
N350 N351 1.365 . S
N351 C348 1.341 . S
N351 N350 1.365 . S
N351 H371 0.862 . S
C352 C347 1.501 1_554 S
C352 H353 0.961 . S
C352 H354 0.961 . S
C352 H355 0.960 . S
H353 C352 0.961 . S
H354 C352 0.961 . S
H355 C352 0.960 . S
C356 N357 1.342 . S
C356 C360 1.401 1_554 S
C356 C361 1.499 . S
N357 Co340 1.989 . S
N357 C356 1.342 . S
N357 N358 1.388 . S
N358 Co341 1.993 . S
N358 N357 1.388 . S
N358 C359 1.346 1_554 S
C359 N358 1.346 1_556 S
C359 C360 1.396 . S
C359 C369 1.510 . S
C360 C356 1.401 1_556 S
C360 C359 1.396 . S
C361 C356 1.499 . S
C361 H362 0.959 . S
C361 H363 0.960 . S
C361 H364 0.961 . S
H362 C361 0.959 . S
H363 C361 0.960 . S
H364 C361 0.961 . S
O365 Co340 1.967 . S
O365 C373 1.258 . S
O366 Co341 1.941 1_556 S
O366 C373 1.266 1_556 S
H367 C369 0.959 . S
H368 C369 0.961 . S
C369 C359 1.510 . S
C369 H367 0.959 . S
C369 H368 0.961 . S
C369 H370 0.960 . S
H370 C369 0.960 . S
H371 N351 0.862 . S
O372 Co340 1.920 . S
O372 C345 1.289 . S
C373 O365 1.258 . S
C373 O366 1.266 1_554 S
Co374 O377 1.970 . S
Co374 N391 1.989 . S
Co374 O399 1.967 . S
Co374 O406 1.920 . S
Co375 O378 1.966 . S
Co375 N384 2.022 . S
Co375 N392 1.993 . S
Co375 O400 1.941 . S
C376 O377 1.258 . S
C376 O378 1.263 . S
O377 Co374 1.970 . S
O377 C376 1.258 . S
O378 Co375 1.966 . S
O378 C376 1.263 . S
C379 O380 1.235 . S
C379 O406 1.289 . S
O380 C379 1.235 . S
C381 C383 1.400 . S
C381 N384 1.351 . S
C381 C386 1.501 . S
C382 C383 1.387 . S
C382 N385 1.341 . S
C383 C381 1.400 . S
C383 C382 1.387 . S
N384 Co375 2.022 . S
N384 C381 1.351 . S
N384 N385 1.365 . S
N385 C382 1.341 . S
N385 N384 1.365 . S
N385 H405 0.862 . S
C386 C381 1.501 . S
C386 H387 0.961 . S
C386 H388 0.961 . S
C386 H389 0.960 . S
H387 C386 0.961 . S
H388 C386 0.961 . S
H389 C386 0.960 . S
C390 N391 1.342 . S
C390 C394 1.401 . S
C390 C395 1.499 . S
N391 Co374 1.989 . S
N391 C390 1.342 . S
N391 N392 1.388 . S
N392 Co375 1.993 . S
N392 N391 1.388 . S
N392 C393 1.346 . S
C393 N392 1.346 . S
C393 C394 1.396 . S
C393 C403 1.510 . S
C394 C390 1.401 . S
C394 C393 1.396 . S
C395 C390 1.499 . S
C395 H396 0.959 . S
C395 H397 0.960 . S
C395 H398 0.961 . S
H396 C395 0.959 . S
H397 C395 0.960 . S
H398 C395 0.961 . S
O399 Co374 1.967 . S
O399 C407 1.258 . S
O400 Co375 1.941 . S
O400 C407 1.266 . S
H401 C403 0.959 . S
H402 C403 0.961 . S
C403 C393 1.510 . S
C403 H401 0.959 . S
C403 H402 0.961 . S
C403 H404 0.960 . S
H404 C403 0.960 . S
H405 N385 0.862 . S
O406 Co374 1.920 . S
O406 C379 1.289 . S
C407 O399 1.258 . S
C407 O400 1.266 . S
Co408 O411 1.970 . S
Co408 N425 1.989 . S
Co408 O433 1.967 . S
Co408 O440 1.920 . S
Co409 O412 1.966 . S
Co409 N418 2.022 . S
Co409 N426 1.993 . S
Co409 O434 1.941 . S
C410 O411 1.258 . S
C410 O412 1.263 . S
O411 Co408 1.970 . S
O411 C410 1.258 . S
O412 Co409 1.966 . S
O412 C410 1.263 . S
C413 O414 1.235 . S
C413 O440 1.289 . S
O414 C413 1.235 . S
C415 C417 1.400 . S
C415 N418 1.351 . S
C415 C420 1.501 . S
C416 C417 1.387 . S
C416 N419 1.341 . S
C417 C415 1.400 . S
C417 C416 1.387 . S
N418 Co409 2.022 . S
N418 C415 1.351 . S
N418 N419 1.365 . S
N419 C416 1.341 . S
N419 N418 1.365 . S
N419 H439 0.862 . S
C420 C415 1.501 . S
C420 H421 0.961 . S
C420 H422 0.961 . S
C420 H423 0.960 . S
H421 C420 0.961 . S
H422 C420 0.961 . S
H423 C420 0.960 . S
C424 N425 1.342 . S
C424 C428 1.401 . S
C424 C429 1.499 . S
N425 Co408 1.989 . S
N425 C424 1.342 . S
N425 N426 1.388 . S
N426 Co409 1.993 . S
N426 N425 1.388 . S
N426 C427 1.346 . S
C427 N426 1.346 . S
C427 C428 1.396 . S
C427 C437 1.510 . S
C428 C424 1.401 . S
C428 C427 1.396 . S
C429 C424 1.499 . S
C429 H430 0.959 . S
C429 H431 0.960 . S
C429 H432 0.961 . S
H430 C429 0.959 . S
H431 C429 0.960 . S
H432 C429 0.961 . S
O433 Co408 1.967 . S
O433 C441 1.258 . S
O434 Co409 1.941 . S
O434 C441 1.266 . S
H435 C437 0.959 . S
H436 C437 0.961 . S
C437 C427 1.510 . S
C437 H435 0.959 . S
C437 H436 0.961 . S
C437 H438 0.960 . S
H438 C437 0.960 . S
H439 N419 0.862 . S
O440 Co408 1.920 . S
O440 C413 1.289 . S
C441 O433 1.258 . S
C441 O434 1.266 . S
Co442 O445 1.970 . S
Co442 N459 1.989 . S
Co442 O467 1.967 . S
Co442 O474 1.920 . S
Co443 O446 1.966 . S
Co443 N452 2.022 . S
Co443 N460 1.993 . S
Co443 O468 1.941 . S
C444 O445 1.258 . S
C444 O446 1.263 . S
O445 Co442 1.970 . S
O445 C444 1.258 . S
O446 Co443 1.966 . S
O446 C444 1.263 . S
C447 O448 1.235 . S
C447 O474 1.289 . S
O448 C447 1.235 . S
C449 C451 1.400 . S
C449 N452 1.351 1_455 S
C449 C454 1.501 . S
C450 C451 1.387 . S
C450 N453 1.341 1_455 S
C451 C449 1.400 . S
C451 C450 1.387 . S
N452 Co443 2.022 . S
N452 C449 1.351 1_655 S
N452 N453 1.365 . S
N453 C450 1.341 1_655 S
N453 N452 1.365 . S
N453 H473 0.862 . S
C454 C449 1.501 . S
C454 H455 0.961 . S
C454 H456 0.961 . S
C454 H457 0.960 . S
H455 C454 0.961 . S
H456 C454 0.961 . S
H457 C454 0.960 . S
C458 N459 1.342 . S
C458 C462 1.401 . S
C458 C463 1.499 . S
N459 Co442 1.989 . S
N459 C458 1.342 . S
N459 N460 1.388 . S
N460 Co443 1.993 . S
N460 N459 1.388 . S
N460 C461 1.346 . S
C461 N460 1.346 . S
C461 C462 1.396 . S
C461 C471 1.510 . S
C462 C458 1.401 . S
C462 C461 1.396 . S
C463 C458 1.499 . S
C463 H464 0.959 . S
C463 H465 0.960 . S
C463 H466 0.961 . S
H464 C463 0.959 . S
H465 C463 0.960 . S
H466 C463 0.961 . S
O467 Co442 1.967 . S
O467 C475 1.258 . S
O468 Co443 1.941 . S
O468 C475 1.266 . S
H469 C471 0.959 . S
H470 C471 0.961 . S
C471 C461 1.510 . S
C471 H469 0.959 . S
C471 H470 0.961 . S
C471 H472 0.960 . S
H472 C471 0.960 . S
H473 N453 0.862 . S
O474 Co442 1.920 . S
O474 C447 1.289 . S
C475 O467 1.258 . S
C475 O468 1.266 . S
Co476 O479 1.970 . S
Co476 N493 1.989 . S
Co476 O501 1.967 . S
Co476 O508 1.920 . S
Co477 O480 1.966 . S
Co477 N486 2.022 1_556 S
Co477 N494 1.993 . S
Co477 O502 1.941 1_556 S
C478 O479 1.258 . S
C478 O480 1.263 . S
O479 Co476 1.970 . S
O479 C478 1.258 . S
O480 Co477 1.966 . S
O480 C478 1.263 . S
C481 O482 1.235 . S
C481 O508 1.289 . S
O482 C481 1.235 . S
C483 C485 1.400 . S
C483 N486 1.351 . S
C483 C488 1.501 1_554 S
C484 C485 1.387 . S
C484 N487 1.341 . S
C485 C483 1.400 . S
C485 C484 1.387 . S
N486 Co477 2.022 1_554 S
N486 C483 1.351 . S
N486 N487 1.365 . S
N487 C484 1.341 . S
N487 N486 1.365 . S
N487 H507 0.862 . S
C488 C483 1.501 1_556 S
C488 H489 0.961 . S
C488 H490 0.961 . S
C488 H491 0.960 . S
H489 C488 0.961 . S
H490 C488 0.961 . S
H491 C488 0.960 . S
C492 N493 1.342 . S
C492 C496 1.401 1_556 S
C492 C497 1.499 . S
N493 Co476 1.989 . S
N493 C492 1.342 . S
N493 N494 1.388 . S
N494 Co477 1.993 . S
N494 N493 1.388 . S
N494 C495 1.346 1_556 S
C495 N494 1.346 1_554 S
C495 C496 1.396 . S
C495 C505 1.510 . S
C496 C492 1.401 1_554 S
C496 C495 1.396 . S
C497 C492 1.499 . S
C497 H498 0.959 . S
C497 H499 0.960 . S
C497 H500 0.961 . S
H498 C497 0.959 . S
H499 C497 0.960 . S
H500 C497 0.961 . S
O501 Co476 1.967 . S
O501 C509 1.258 . S
O502 Co477 1.941 1_554 S
O502 C509 1.266 1_554 S
H503 C505 0.959 . S
H504 C505 0.961 . S
C505 C495 1.510 . S
C505 H503 0.959 . S
C505 H504 0.961 . S
C505 H506 0.960 . S
H506 C505 0.960 . S
H507 N487 0.862 . S
O508 Co476 1.920 . S
O508 C481 1.289 . S
C509 O501 1.258 . S
C509 O502 1.266 1_556 S
Co510 O513 1.970 . S
Co510 N527 1.989 . S
Co510 O535 1.967 . S
Co510 O542 1.920 . S
Co511 O514 1.966 . S
Co511 N520 2.022 . S
Co511 N528 1.993 . S
Co511 O536 1.941 . S
C512 O513 1.258 . S
C512 O514 1.263 . S
O513 Co510 1.970 . S
O513 C512 1.258 . S
O514 Co511 1.966 . S
O514 C512 1.263 . S
C515 O516 1.235 . S
C515 O542 1.289 . S
O516 C515 1.235 . S
C517 C519 1.400 . S
C517 N520 1.351 . S
C517 C522 1.501 . S
C518 C519 1.387 . S
C518 N521 1.341 . S
C519 C517 1.400 . S
C519 C518 1.387 . S
N520 Co511 2.022 . S
N520 C517 1.351 . S
N520 N521 1.365 . S
N521 C518 1.341 . S
N521 N520 1.365 . S
N521 H541 0.862 . S
C522 C517 1.501 . S
C522 H523 0.961 . S
C522 H524 0.961 . S
C522 H525 0.960 . S
H523 C522 0.961 . S
H524 C522 0.961 . S
H525 C522 0.960 . S
C526 N527 1.342 . S
C526 C530 1.401 . S
C526 C531 1.499 . S
N527 Co510 1.989 . S
N527 C526 1.342 . S
N527 N528 1.388 . S
N528 Co511 1.993 . S
N528 N527 1.388 . S
N528 C529 1.346 . S
C529 N528 1.346 . S
C529 C530 1.396 . S
C529 C539 1.510 . S
C530 C526 1.401 . S
C530 C529 1.396 . S
C531 C526 1.499 . S
C531 H532 0.959 . S
C531 H533 0.960 . S
C531 H534 0.961 . S
H532 C531 0.959 . S
H533 C531 0.960 . S
H534 C531 0.961 . S
O535 Co510 1.967 . S
O535 C543 1.258 . S
O536 Co511 1.941 . S
O536 C543 1.266 . S
H537 C539 0.959 . S
H538 C539 0.961 . S
C539 C529 1.510 . S
C539 H537 0.959 . S
C539 H538 0.961 . S
C539 H540 0.960 . S
H540 C539 0.960 . S
H541 N521 0.862 . S
O542 Co510 1.920 . S
O542 C515 1.289 . S
C543 O535 1.258 . S
C543 O536 1.266 . S
C544 C545 1.387 . S
C544 H548 0.950 . S
C544 C553 1.390 . S
C545 C544 1.387 . S
C545 C547 1.387 . S
H546 C553 0.950 1_554 S
C547 C545 1.387 . S
C547 C549 1.390 . S
C547 H551 0.950 . S
H548 C544 0.950 . S
C549 C547 1.390 . S
C549 C550 1.387 . S
C549 H552 0.950 . S
C550 C549 1.387 . S
C550 C553 1.387 . S
H551 C547 0.950 . S
H552 C549 0.950 . S
C553 C544 1.390 . S
C553 H546 0.950 1_556 S
C553 C550 1.387 . S
C554 C555 1.387 . S
C554 H558 0.950 . S
C554 C563 1.390 . S
C555 C554 1.387 . S
C555 C557 1.387 . S
H556 C563 0.950 . S
C557 C555 1.387 . S
C557 C559 1.390 . S
C557 H561 0.950 . S
H558 C554 0.950 . S
C559 C557 1.390 . S
C559 C560 1.387 . S
C559 H562 0.950 . S
C560 C559 1.387 . S
C560 C563 1.387 . S
H561 C557 0.950 . S
H562 C559 0.950 . S
C563 C554 1.390 . S
C563 H556 0.950 . S
C563 C560 1.387 . S
C564 C565 1.387 . S
C564 H568 0.950 . S
C564 C573 1.390 . S
C565 C564 1.387 . S
C565 C567 1.387 . S
H566 C573 0.950 . S
C567 C565 1.387 . S
C567 C569 1.390 . S
C567 H571 0.950 . S
H568 C564 0.950 . S
C569 C567 1.390 . S
C569 C570 1.387 . S
C569 H572 0.950 . S
C570 C569 1.387 . S
C570 C573 1.387 . S
H571 C567 0.950 . S
H572 C569 0.950 . S
C573 C564 1.390 . S
C573 H566 0.950 . S
C573 C570 1.387 . S
C574 C575 1.387 . S
C574 H578 0.950 . S
C574 C583 1.390 . S
C575 C574 1.387 . S
C575 C577 1.387 . S
H576 C583 0.950 . S
C577 C575 1.387 . S
C577 C579 1.390 . S
C577 H581 0.950 . S
H578 C574 0.950 . S
C579 C577 1.390 . S
C579 C580 1.387 . S
C579 H582 0.950 . S
C580 C579 1.387 . S
C580 C583 1.387 . S
H581 C577 0.950 . S
H582 C579 0.950 . S
C583 C574 1.390 . S
C583 H576 0.950 . S
C583 C580 1.387 . S
C584 C585 1.387 . S
C584 H588 0.950 . S
C584 C593 1.390 . S
C585 C584 1.387 . S
C585 C587 1.387 . S
H586 C593 0.950 . S
C587 C585 1.387 . S
C587 C589 1.390 . S
C587 H591 0.950 . S
H588 C584 0.950 . S
C589 C587 1.390 . S
C589 C590 1.387 . S
C589 H592 0.950 . S
C590 C589 1.387 . S
C590 C593 1.387 . S
H591 C587 0.950 . S
H592 C589 0.950 . S
C593 C584 1.390 . S
C593 H586 0.950 . S
C593 C590 1.387 . S
C594 C595 1.387 . S
C594 H598 0.950 . S
C594 C603 1.390 . S
C595 C594 1.387 . S
C595 C597 1.387 . S
H596 C603 0.950 . S
C597 C595 1.387 . S
C597 C599 1.390 . S
C597 H601 0.950 . S
H598 C594 0.950 . S
C599 C597 1.390 . S
C599 C600 1.387 . S
C599 H602 0.950 . S
C600 C599 1.387 . S
C600 C603 1.387 . S
H601 C597 0.950 . S
H602 C599 0.950 . S
C603 C594 1.390 . S
C603 H596 0.950 . S
C603 C600 1.387 . S
C604 C605 1.387 . S
C604 H608 0.950 . S
C604 C613 1.390 . S
C605 C604 1.387 . S
C605 C607 1.387 . S
H606 C613 0.950 . S
C607 C605 1.387 . S
C607 C609 1.390 . S
C607 H611 0.950 . S
H608 C604 0.950 . S
C609 C607 1.390 . S
C609 C610 1.387 . S
C609 H612 0.950 . S
C610 C609 1.387 . S
C610 C613 1.387 . S
H611 C607 0.950 . S
H612 C609 0.950 . S
C613 C604 1.390 . S
C613 H606 0.950 . S
C613 C610 1.387 . S
C614 C615 1.387 . S
C614 H618 0.950 . S
C614 C623 1.390 . S
C615 C614 1.387 . S
C615 C617 1.387 . S
H616 C623 0.950 . S
C617 C615 1.387 . S
C617 C619 1.390 . S
C617 H621 0.950 . S
H618 C614 0.950 . S
C619 C617 1.390 . S
C619 C620 1.387 . S
C619 H622 0.950 . S
C620 C619 1.387 . S
C620 C623 1.387 . S
H621 C617 0.950 . S
H622 C619 0.950 . S
C623 C614 1.390 . S
C623 H616 0.950 . S
C623 C620 1.387 . S
C624 C625 1.387 . S
C624 H628 0.950 . S
C624 C633 1.390 . S
C625 C624 1.387 . S
C625 C627 1.387 . S
H626 C633 0.950 . S
C627 C625 1.387 . S
C627 C629 1.390 . S
C627 H631 0.950 . S
H628 C624 0.950 . S
C629 C627 1.390 . S
C629 C630 1.387 . S
C629 H632 0.950 . S
C630 C629 1.387 . S
C630 C633 1.387 . S
H631 C627 0.950 . S
H632 C629 0.950 . S
C633 C624 1.390 . S
C633 H626 0.950 . S
C633 C630 1.387 . S
C634 C635 1.387 . S
C634 H638 0.950 . S
C634 C643 1.390 . S
C635 C634 1.387 . S
C635 C637 1.387 . S
H636 C643 0.950 . S
C637 C635 1.387 . S
C637 C639 1.390 . S
C637 H641 0.950 . S
H638 C634 0.950 . S
C639 C637 1.390 . S
C639 C640 1.387 . S
C639 H642 0.950 . S
C640 C639 1.387 . S
C640 C643 1.387 . S
H641 C637 0.950 . S
H642 C639 0.950 . S
C643 C634 1.390 . S
C643 H636 0.950 . S
C643 C640 1.387 . S
C644 C645 1.387 . S
C644 H648 0.950 . S
C644 C653 1.390 . S
C645 C644 1.387 . S
C645 C647 1.387 . S
H646 C653 0.950 1_554 S
C647 C645 1.387 . S
C647 C649 1.390 . S
C647 H651 0.950 . S
H648 C644 0.950 . S
C649 C647 1.390 . S
C649 C650 1.387 . S
C649 H652 0.950 . S
C650 C649 1.387 . S
C650 C653 1.387 . S
H651 C647 0.950 . S
H652 C649 0.950 . S
C653 C644 1.390 . S
C653 H646 0.950 1_556 S
C653 C650 1.387 . S
C654 C655 1.387 . S
C654 H658 0.950 . S
C654 C663 1.390 . S
C655 C654 1.387 . S
C655 C657 1.387 . S
H656 C663 0.950 . S
C657 C655 1.387 . S
C657 C659 1.390 . S
C657 H661 0.950 . S
H658 C654 0.950 . S
C659 C657 1.390 . S
C659 C660 1.387 . S
C659 H662 0.950 . S
C660 C659 1.387 . S
C660 C663 1.387 . S
H661 C657 0.950 . S
H662 C659 0.950 . S
C663 C654 1.390 . S
C663 H656 0.950 . S
C663 C660 1.387 . S
C664 C665 1.387 . S
C664 H668 0.950 . S
C664 C673 1.390 . S
C665 C664 1.387 . S
C665 C667 1.387 . S
H666 C673 0.950 . S
C667 C665 1.387 . S
C667 C669 1.390 . S
C667 H671 0.950 . S
H668 C664 0.950 . S
C669 C667 1.390 . S
C669 C670 1.387 . S
C669 H672 0.950 . S
C670 C669 1.387 . S
C670 C673 1.387 . S
H671 C667 0.950 . S
H672 C669 0.950 . S
C673 C664 1.390 . S
C673 H666 0.950 . S
C673 C670 1.387 . S
C674 C675 1.387 . S
C674 H678 0.950 . S
C674 C683 1.390 . S
C675 C674 1.387 . S
C675 C677 1.387 . S
H676 C683 0.950 . S
C677 C675 1.387 . S
C677 C679 1.390 . S
C677 H681 0.950 . S
H678 C674 0.950 . S
C679 C677 1.390 . S
C679 C680 1.387 . S
C679 H682 0.950 . S
C680 C679 1.387 . S
C680 C683 1.387 . S
H681 C677 0.950 . S
H682 C679 0.950 . S
C683 C674 1.390 . S
C683 H676 0.950 . S
C683 C680 1.387 . S
C684 C685 1.387 . S
C684 H688 0.950 . S
C684 C693 1.390 . S
C685 C684 1.387 . S
C685 C687 1.387 . S
H686 C693 0.950 1_556 S
C687 C685 1.387 . S
C687 C689 1.390 . S
C687 H691 0.950 . S
H688 C684 0.950 . S
C689 C687 1.390 . S
C689 C690 1.387 . S
C689 H692 0.950 . S
C690 C689 1.387 . S
C690 C693 1.387 . S
H691 C687 0.950 . S
H692 C689 0.950 . S
C693 C684 1.390 . S
C693 H686 0.950 1_554 S
C693 C690 1.387 . S
C694 C695 1.387 . S
C694 H698 0.950 . S
C694 C703 1.390 . S
C695 C694 1.387 . S
C695 C697 1.387 . S
H696 C703 0.950 . S
C697 C695 1.387 . S
C697 C699 1.390 . S
C697 H701 0.950 . S
H698 C694 0.950 . S
C699 C697 1.390 . S
C699 C700 1.387 . S
C699 H702 0.950 . S
C700 C699 1.387 . S
C700 C703 1.387 . S
H701 C697 0.950 . S
H702 C699 0.950 . S
C703 C694 1.390 . S
C703 H696 0.950 . S
C703 C700 1.387 . S
C704 C705 1.387 . S
C704 H708 0.950 . S
C704 C713 1.390 . S
C705 C704 1.387 . S
C705 C707 1.387 . S
H706 C713 0.950 . S
C707 C705 1.387 . S
C707 C709 1.390 . S
C707 H711 0.950 . S
H708 C704 0.950 . S
C709 C707 1.390 . S
C709 C710 1.387 . S
C709 H712 0.950 . S
C710 C709 1.387 . S
C710 C713 1.387 . S
H711 C707 0.950 . S
H712 C709 0.950 . S
C713 C704 1.390 . S
C713 H706 0.950 . S
C713 C710 1.387 . S
C714 C715 1.387 . S
C714 H718 0.950 . S
C714 C723 1.390 . S
C715 C714 1.387 . S
C715 C717 1.387 . S
H716 C723 0.950 . S
C717 C715 1.387 . S
C717 C719 1.390 . S
C717 H721 0.950 . S
H718 C714 0.950 . S
C719 C717 1.390 . S
C719 C720 1.387 . S
C719 H722 0.950 . S
C720 C719 1.387 . S
C720 C723 1.387 . S
H721 C717 0.950 . S
H722 C719 0.950 . S
C723 C714 1.390 . S
C723 H716 0.950 . S
C723 C720 1.387 . S
C724 C725 1.387 . S
C724 H728 0.950 . S
C724 C733 1.390 . S
C725 C724 1.387 . S
C725 C727 1.387 . S
H726 C733 0.950 . S
C727 C725 1.387 . S
C727 C729 1.390 . S
C727 H731 0.950 . S
H728 C724 0.950 . S
C729 C727 1.390 . S
C729 C730 1.387 . S
C729 H732 0.950 . S
C730 C729 1.387 . S
C730 C733 1.387 . S
H731 C727 0.950 . S
H732 C729 0.950 . S
C733 C724 1.390 . S
C733 H726 0.950 . S
C733 C730 1.387 . S
C734 C735 1.387 1_554 S
C734 H738 0.950 . S
C734 C743 1.390 1_655 S
C735 C734 1.387 1_556 S
C735 C737 1.387 . S
H736 C743 0.950 . S
C737 C735 1.387 . S
C737 C739 1.390 1_655 S
C737 H741 0.950 . S
H738 C734 0.950 . S
C739 C737 1.390 1_455 S
C739 C740 1.387 1_556 S
C739 H742 0.950 . S
C740 C739 1.387 1_554 S
C740 C743 1.387 . S
H741 C737 0.950 . S
H742 C739 0.950 . S
C743 C734 1.390 1_455 S
C743 H736 0.950 . S
C743 C740 1.387 . S
C744 C745 1.387 . S
C744 H748 0.950 . S
C744 C753 1.390 . S
C745 C744 1.387 . S
C745 C747 1.387 . S
H746 C753 0.950 . S
C747 C745 1.387 . S
C747 C749 1.390 . S
C747 H751 0.950 . S
H748 C744 0.950 . S
C749 C747 1.390 . S
C749 C750 1.387 . S
C749 H752 0.950 . S
C750 C749 1.387 . S
C750 C753 1.387 . S
H751 C747 0.950 . S
H752 C749 0.950 . S
C753 C744 1.390 . S
C753 H746 0.950 . S
C753 C750 1.387 . S
C754 C755 1.387 . S
C754 H758 0.950 . S
C754 C763 1.390 . S
C755 C754 1.387 . S
C755 C757 1.387 . S
H756 C763 0.950 . S
C757 C755 1.387 . S
C757 C759 1.390 . S
C757 H761 0.950 . S
H758 C754 0.950 . S
C759 C757 1.390 . S
C759 C760 1.387 . S
C759 H762 0.950 . S
C760 C759 1.387 . S
C760 C763 1.387 . S
H761 C757 0.950 . S
H762 C759 0.950 . S
C763 C754 1.390 . S
C763 H756 0.950 . S
C763 C760 1.387 . S
C764 C765 1.387 1_556 S
C764 H768 0.950 . S
C764 C773 1.390 1_565 S
C765 C764 1.387 1_554 S
C765 C767 1.387 1_655 S
H766 C773 0.950 . S
C767 C765 1.387 1_455 S
C767 C769 1.390 1_565 S
C767 H771 0.950 . S
H768 C764 0.950 . S
C769 C767 1.390 1_545 S
C769 C770 1.387 1_554 S
C769 H772 0.950 . S
C770 C769 1.387 1_556 S
C770 C773 1.387 1_455 S
H771 C767 0.950 . S
H772 C769 0.950 . S
C773 C764 1.390 1_545 S
C773 H766 0.950 . S
C773 C770 1.387 1_655 S
C774 C775 1.387 . S
C774 H778 0.950 . S
C774 C783 1.390 . S
C775 C774 1.387 . S
C775 C777 1.387 1_565 S
H776 C783 0.950 . S
C777 C775 1.387 1_545 S
C777 C779 1.390 . S
C777 H781 0.950 . S
H778 C774 0.950 . S
C779 C777 1.390 . S
C779 C780 1.387 . S
C779 H782 0.950 . S
C780 C779 1.387 . S
C780 C783 1.387 1_545 S
H781 C777 0.950 . S
H782 C779 0.950 . S
C783 C774 1.390 . S
C783 H776 0.950 . S
C783 C780 1.387 1_565 S
C784 C785 1.387 . S
C784 H788 0.950 . S
C784 C793 1.390 1_556 S
C785 C784 1.387 . S
C785 C787 1.387 . S
H786 C793 0.950 . S
C787 C785 1.387 . S
C787 C789 1.390 . S
C787 H791 0.950 . S
H788 C784 0.950 . S
C789 C787 1.390 . S
C789 C790 1.387 . S
C789 H792 0.950 . S
C790 C789 1.387 . S
C790 C793 1.387 1_556 S
H791 C787 0.950 . S
H792 C789 0.950 . S
C793 C784 1.390 1_554 S
C793 H786 0.950 . S
C793 C790 1.387 1_554 S
C794 C795 1.387 . S
C794 H798 0.950 . S
C794 C803 1.390 . S
C795 C794 1.387 . S
C795 C797 1.387 . S
H796 C803 0.950 . S
C797 C795 1.387 . S
C797 C799 1.390 . S
C797 H801 0.950 . S
H798 C794 0.950 . S
C799 C797 1.390 . S
C799 C800 1.387 . S
C799 H802 0.950 . S
C800 C799 1.387 . S
C800 C803 1.387 . S
H801 C797 0.950 . S
H802 C799 0.950 . S
C803 C794 1.390 . S
C803 H796 0.950 . S
C803 C800 1.387 . S
C804 C805 1.387 . S
C804 H808 0.950 . S
C804 C813 1.390 . S
C805 C804 1.387 . S
C805 C807 1.387 . S
H806 C813 0.950 . S
C807 C805 1.387 . S
C807 C809 1.390 . S
C807 H811 0.950 . S
H808 C804 0.950 . S
C809 C807 1.390 . S
C809 C810 1.387 . S
C809 H812 0.950 . S
C810 C809 1.387 . S
C810 C813 1.387 . S
H811 C807 0.950 . S
H812 C809 0.950 . S
C813 C804 1.390 . S
C813 H806 0.950 . S
C813 C810 1.387 . S
C814 C815 1.387 . S
C814 H818 0.950 . S
C814 C823 1.390 . S
C815 C814 1.387 . S
C815 C817 1.387 . S
H816 C823 0.950 . S
C817 C815 1.387 . S
C817 C819 1.390 . S
C817 H821 0.950 . S
H818 C814 0.950 . S
C819 C817 1.390 . S
C819 C820 1.387 . S
C819 H822 0.950 . S
C820 C819 1.387 . S
C820 C823 1.387 . S
H821 C817 0.950 . S
H822 C819 0.950 . S
C823 C814 1.390 . S
C823 H816 0.950 . S
C823 C820 1.387 . S
C824 C825 1.387 1_556 S
C824 H828 0.950 . S
C824 C833 1.390 . S
C825 C824 1.387 1_554 S
C825 C827 1.387 . S
H826 C833 0.950 . S
C827 C825 1.387 . S
C827 C829 1.390 . S
C827 H831 0.950 . S
H828 C824 0.950 . S
C829 C827 1.390 . S
C829 C830 1.387 . S
C829 H832 0.950 . S
C830 C829 1.387 . S
C830 C833 1.387 1_554 S
H831 C827 0.950 . S
H832 C829 0.950 . S
C833 C824 1.390 . S
C833 H826 0.950 . S
C833 C830 1.387 1_556 S
C834 C835 1.387 . S
C834 H838 0.950 . S
C834 C843 1.390 . S
C835 C834 1.387 . S
C835 C837 1.387 . S
H836 C843 0.950 . S
C837 C835 1.387 . S
C837 C839 1.390 . S
C837 H841 0.950 . S
H838 C834 0.950 . S
C839 C837 1.390 . S
C839 C840 1.387 . S
C839 H842 0.950 . S
C840 C839 1.387 . S
C840 C843 1.387 . S
H841 C837 0.950 . S
H842 C839 0.950 . S
C843 C834 1.390 . S
C843 H836 0.950 . S
C843 C840 1.387 . S
C844 C845 1.387 . S
C844 H848 0.950 . S
C844 C853 1.390 . S
C845 C844 1.387 . S
C845 C847 1.387 . S
H846 C853 0.950 . S
C847 C845 1.387 . S
C847 C849 1.390 . S
C847 H851 0.950 . S
H848 C844 0.950 . S
C849 C847 1.390 . S
C849 C850 1.387 . S
C849 H852 0.950 . S
C850 C849 1.387 . S
C850 C853 1.387 . S
H851 C847 0.950 . S
H852 C849 0.950 . S
C853 C844 1.390 . S
C853 H846 0.950 . S
C853 C850 1.387 . S
C854 C855 1.387 . S
C854 H858 0.950 . S
C854 C863 1.390 . S
C855 C854 1.387 . S
C855 C857 1.387 . S
H856 C863 0.950 . S
C857 C855 1.387 . S
C857 C859 1.390 . S
C857 H861 0.950 . S
H858 C854 0.950 . S
C859 C857 1.390 . S
C859 C860 1.387 . S
C859 H862 0.950 . S
C860 C859 1.387 . S
C860 C863 1.387 . S
H861 C857 0.950 . S
H862 C859 0.950 . S
C863 C854 1.390 . S
C863 H856 0.950 . S
C863 C860 1.387 . S
C864 C865 1.387 . S
C864 H868 0.950 . S
C864 C873 1.390 . S
C865 C864 1.387 . S
C865 C867 1.387 . S
H866 C873 0.950 . S
C867 C865 1.387 . S
C867 C869 1.390 . S
C867 H871 0.950 . S
H868 C864 0.950 . S
C869 C867 1.390 . S
C869 C870 1.387 . S
C869 H872 0.950 . S
C870 C869 1.387 . S
C870 C873 1.387 . S
H871 C867 0.950 . S
H872 C869 0.950 . S
C873 C864 1.390 . S
C873 H866 0.950 . S
C873 C870 1.387 . S
C874 C875 1.387 . S
C874 H878 0.950 . S
C874 C883 1.390 . S
C875 C874 1.387 . S
C875 C877 1.387 . S
H876 C883 0.950 . S
C877 C875 1.387 . S
C877 C879 1.390 . S
C877 H881 0.950 . S
H878 C874 0.950 . S
C879 C877 1.390 . S
C879 C880 1.387 . S
C879 H882 0.950 . S
C880 C879 1.387 . S
C880 C883 1.387 . S
H881 C877 0.950 . S
H882 C879 0.950 . S
C883 C874 1.390 . S
C883 H876 0.950 . S
C883 C880 1.387 . S
C884 C885 1.387 . S
C884 H888 0.950 . S
C884 C893 1.390 . S
C885 C884 1.387 . S
C885 C887 1.387 1_556 S
H886 C893 0.950 . S
C887 C885 1.387 1_554 S
C887 C889 1.390 . S
C887 H891 0.950 . S
H888 C884 0.950 . S
C889 C887 1.390 . S
C889 C890 1.387 1_554 S
C889 H892 0.950 . S
C890 C889 1.387 1_556 S
C890 C893 1.387 . S
H891 C887 0.950 . S
H892 C889 0.950 . S
C893 C884 1.390 . S
C893 H886 0.950 . S
C893 C890 1.387 . S
C894 C895 1.387 . S
C894 H898 0.950 . S
C894 C903 1.390 . S
C895 C894 1.387 . S
C895 C897 1.387 . S
H896 C903 0.950 . S
C897 C895 1.387 . S
C897 C899 1.390 . S
C897 H901 0.950 . S
H898 C894 0.950 . S
C899 C897 1.390 . S
C899 C900 1.387 . S
C899 H902 0.950 . S
C900 C899 1.387 . S
C900 C903 1.387 . S
H901 C897 0.950 . S
H902 C899 0.950 . S
C903 C894 1.390 . S
C903 H896 0.950 . S
C903 C900 1.387 . S
C904 C905 1.387 . S
C904 H908 0.950 . S
C904 C913 1.390 . S
C905 C904 1.387 . S
C905 C907 1.387 . S
H906 C913 0.950 . S
C907 C905 1.387 . S
C907 C909 1.390 . S
C907 H911 0.950 . S
H908 C904 0.950 . S
C909 C907 1.390 . S
C909 C910 1.387 . S
C909 H912 0.950 . S
C910 C909 1.387 . S
C910 C913 1.387 . S
H911 C907 0.950 . S
H912 C909 0.950 . S
C913 C904 1.390 . S
C913 H906 0.950 . S
C913 C910 1.387 . S
C914 C915 1.387 . S
C914 H918 0.950 . S
C914 C923 1.390 . S
C915 C914 1.387 . S
C915 C917 1.387 . S
H916 C923 0.950 . S
C917 C915 1.387 . S
C917 C919 1.390 . S
C917 H921 0.950 . S
H918 C914 0.950 . S
C919 C917 1.390 . S
C919 C920 1.387 . S
C919 H922 0.950 . S
C920 C919 1.387 . S
C920 C923 1.387 . S
H921 C917 0.950 . S
H922 C919 0.950 . S
C923 C914 1.390 . S
C923 H916 0.950 . S
C923 C920 1.387 . S
C924 C925 1.387 1_556 S
C924 H928 0.950 . S
C924 C933 1.390 . S
C925 C924 1.387 1_554 S
C925 C927 1.387 . S
H926 C933 0.950 . S
C927 C925 1.387 . S
C927 C929 1.390 . S
C927 H931 0.950 . S
H928 C924 0.950 . S
C929 C927 1.390 . S
C929 C930 1.387 . S
C929 H932 0.950 . S
C930 C929 1.387 . S
C930 C933 1.387 1_554 S
H931 C927 0.950 . S
H932 C929 0.950 . S
C933 C924 1.390 . S
C933 H926 0.950 . S
C933 C930 1.387 1_556 S
C934 C935 1.387 . S
C934 H938 0.950 . S
C934 C943 1.390 . S
C935 C934 1.387 . S
C935 C937 1.387 . S
H936 C943 0.950 . S
C937 C935 1.387 . S
C937 C939 1.390 . S
C937 H941 0.950 . S
H938 C934 0.950 . S
C939 C937 1.390 . S
C939 C940 1.387 . S
C939 H942 0.950 . S
C940 C939 1.387 . S
C940 C943 1.387 . S
H941 C937 0.950 . S
H942 C939 0.950 . S
C943 C934 1.390 . S
C943 H936 0.950 . S
C943 C940 1.387 . S
C545 C519 1.411 . S
C550 C20 1.504 . S
C555 C54 1.503 . S
C560 C145 1.410 . S
C565 C88 1.504 . S
C570 C451 1.412 . S
C575 C122 1.503 . S
C580 C213 1.408 . S
C585 C156 1.503 . S
C590 C383 1.412 . S
C595 C9 1.409 . S
C600 C190 1.503 . S
C605 C315 1.407 . S
C610 C224 1.502 . S
C615 C258 1.502 . S
C620 C77 1.411 . S
C625 C292 1.503 . S
C630 C247 1.412 . S
C635 C326 1.501 . S
C640 C417 1.409 . S
C645 C179 1.411 . S
C650 C360 1.504 . S
C655 C394 1.503 . S
C660 C485 1.409 . S
C665 C428 1.502 . S
C670 C111 1.407 . S
C675 C462 1.501 . S
C680 C281 1.408 . S
C685 C43 1.408 . S
C690 C496 1.501 . S
C695 C530 1.502 . S
C700 C349 1.410 . S
C705 C2 2.197 . S
C710 C410 2.197 . S
C715 C172 2.197 . S
C720 C36 2.197 . S
C725 C70 2.197 . S
C730 C478 2.197 . S
C735 C104 2.197 . S
C740 C240 2.197 . S
C745 C274 2.197 . S
C750 C138 2.197 . S
C755 C342 2.198 . S
C760 C206 2.198 . S
C765 C444 2.197 . S
C770 C308 2.197 . S
C775 C376 2.198 . S
C780 C512 2.198 . S
C785 C311 1.364 . S
C790 C33 1.466 1_556 S
C795 C67 1.467 . S
C800 C345 1.368 . S
C805 C101 1.466 . S
C810 C379 1.365 . S
C815 C277 1.364 . S
C820 C135 1.466 . S
C825 C169 1.467 1_554 S
C830 C447 1.368 . S
C835 C203 1.467 . S
C840 C481 1.368 . S
C845 C237 1.465 . S
C850 C515 1.364 . S
C855 C271 1.466 . S
C860 C413 1.364 . S
C865 C39 1.368 . S
C870 C305 1.467 . S
C875 C339 1.467 1_565 S
C880 C73 1.368 . S
C885 C373 1.466 1_556 S
C890 C107 1.366 . S
C895 C407 1.467 1_545 S
C900 C5 1.368 . S
C905 C441 1.466 . S
C910 C175 1.366 . S
C915 C209 1.364 . S
C920 C475 1.465 1_545 S
C925 C243 1.368 . S
C930 C509 1.467 1_554 S
C935 C543 1.467 1_565 S
C940 C141 1.368 . S
