# Generated by pormake.
# Topology kag, (6)-cn, num edge types: 1
# Building blocks:
#     Node 0, Type 0, BuildingBlock: JUFBIX_clean_sbu_0, # of connection points: 6
#     Node 1, Type 0, BuildingBlock: JUFBIX_clean_sbu_0, # of connection points: 6
#     Node 2, Type 0, BuildingBlock: JUFBIX_clean_sbu_0, # of connection points: 6
#     Edge 3, Type (0, 0), BuildingBlock: UVAHIK_clean_linker_0, # of connection points: 2
#     Edge 4, Type (0, 0), BuildingBlock: UVAHIK_clean_linker_0, # of connection points: 2
#     Edge 5, Type (0, 0), BuildingBlock: UVAHIK_clean_linker_0, # of connection points: 2
#     Edge 6, Type (0, 0), BuildingBlock: UVAHIK_clean_linker_0, # of connection points: 2
#     Edge 7, Type (0, 0), BuildingBlock: UVAHIK_clean_linker_0, # of connection points: 2
#     Edge 8, Type (0, 0), BuildingBlock: UVAHIK_clean_linker_0, # of connection points: 2
#     Edge 9, Type (0, 0), BuildingBlock: UVAHIK_clean_linker_0, # of connection points: 2
#     Edge 10, Type (0, 0), BuildingBlock: UVAHIK_clean_linker_0, # of connection points: 2
#     Edge 11, Type (0, 0), BuildingBlock: UVAHIK_clean_linker_0, # of connection points: 2
# Relax obj value: 0.227
# Max RMSD: 0.215
# Mean RMSD: 0.152
data_MOF--net-kag--node1-JUFBIX_clean_sbu_0--edge1-UVAHIK_clean_linker_0
_symmetry_space_group_name_H-M    P1
_symmetry_Int_Tables_number       1
_symmetry_cell_setting            triclinic
loop_
_symmetry_equiv_pos_as_xyz
'x, y, z'
_cell_length_a     38.85238
_cell_length_b     46.607748
_cell_length_c     19.487355
_cell_angle_alpha  90.269467
_cell_angle_beta   92.990101
_cell_angle_gamma 120.38468
loop_
_atom_site_label
_atom_site_type_symbol
_atom_site_fract_x
_atom_site_fract_y
_atom_site_fract_z
_atom_type_partial_charge
Co0 Co 0.98011 0.46737 0.99721 0.0
C1 C 0.99361 0.49564 0.86883 0.0
Co2 Co 0.00904 0.52199 0.00134 0.0
C3 C 0.92359 0.39878 0.01979 0.0
C4 C 0.96959 0.40414 0.95606 0.0
N5 N 0.95722 0.42175 0.99177 0.0
N6 N 0.91426 0.36746 0.00265 0.0
C7 C 0.94327 0.37075 0.96275 0.0
H8 H 0.90608 0.40498 0.05156 0.0
H9 H -0.0045 0.41489 0.92566 0.0
C10 C -0.00445 0.49373 0.12973 0.0
N11 N 0.03177 0.56759 0.00688 0.0
C12 C 0.06543 0.59093 0.97947 0.0
C13 C 0.0184 0.5848 0.04144 0.0
N14 N 0.0736 0.62203 0.99559 0.0
C15 C 0.04399 0.61826 0.03443 0.0
C16 C 0.9258 0.48887 0.99553 0.0
O17 O 0.98089 0.46657 0.09467 0.0
O18 O 0.00964 0.52096 0.09872 0.0
O19 O 0.95753 0.51717 0.99805 0.0
O20 O 0.92854 0.46286 0.99418 0.0
O21 O 0.00835 0.52281 0.90389 0.0
H22 H 0.99214 0.57373 0.07098 0.0
H23 H 0.08366 0.58519 0.94855 0.0
O24 O 0.97943 0.4684 0.89982 0.0
O25 O 0.03164 0.47217 0.00028 0.0
O26 O 0.06055 0.52651 0.00453 0.0
C27 C 0.06334 0.50052 0.00297 0.0
H28 H 0.94454 0.35053 0.93784 0.0
H29 H 0.04175 0.63826 0.05811 0.0
Co30 Co 0.51187 0.98329 0.99736 0.0
C31 C 0.49645 -0.00087 0.86595 0.0
Co32 Co 0.47502 0.00705 0.99433 0.0
C33 C 0.53591 0.93471 0.02313 0.0
C34 C 0.57906 0.97635 0.96949 0.0
N35 N 0.54356 0.96413 0.99776 0.0
N36 N 0.56521 0.92805 0.01168 0.0
C37 C 0.59247 0.95431 0.97809 0.0
H38 H 0.50919 0.9184 0.04906 0.0
H39 H 0.59383 -0.00052 0.94289 0.0
C40 C 0.49044 0.99122 0.12574 0.0
N41 N 0.44334 0.02622 0.99393 0.0
C42 C 0.45115 0.05574 0.9689 0.0
C43 C 0.40778 0.01398 0.02201 0.0
N44 N 0.42191 0.06246 0.98042 0.0
C45 C 0.39451 0.03613 0.01366 0.0
C46 C 0.43103 0.93817 0.97965 0.0
O47 O 0.50962 0.98028 0.09439 0.0
O48 O 0.47284 0.00373 0.09132 0.0
O49 O 0.42882 0.9644 0.98213 0.0
O50 O 0.46512 0.9406 0.98553 0.0
O51 O 0.47745 0.01023 0.89734 0.0
H52 H 0.3929 0.99079 0.04836 0.0
H53 H 0.47797 0.07209 0.94324 0.0
O54 O 0.51388 0.98646 0.90033 0.0
O55 O 0.55827 0.02616 0.00922 0.0
O56 O 0.52154 0.04957 0.00655 0.0
C57 C 0.55575 0.05225 0.01211 0.0
H58 H 0.61949 0.95688 0.95881 0.0
H59 H 0.36751 0.03359 0.03293 0.0
Co60 Co 0.47659 0.46845 0.99751 0.0
C61 C 0.49509 0.49708 0.12994 0.0
Co62 Co 0.51396 0.52328 0.0017 0.0
C63 C 0.45181 0.39947 0.96993 0.0
C64 C 0.40935 0.40497 0.02568 0.0
N65 N 0.44453 0.42256 0.9964 0.0
N66 N 0.42264 0.36816 0.98175 0.0
C67 C 0.39579 0.37157 0.01662 0.0
H68 H 0.47826 0.40556 0.94315 0.0
H69 H 0.39499 0.41574 0.05353 0.0
C70 C 0.49547 0.49466 0.86927 0.0
N71 N 0.54599 0.56919 0.00281 0.0
C72 C 0.53847 0.59224 0.02878 0.0
C73 C 0.58124 0.58684 0.97378 0.0
N74 N 0.56754 0.62357 0.01683 0.0
C75 C 0.5946 0.62022 0.98245 0.0
C76 C 0.55747 0.49077 0.00813 0.0
O77 O 0.47672 0.46749 0.90018 0.0
O78 O 0.51382 0.52196 0.90429 0.0
O79 O 0.56017 0.51908 0.00828 0.0
O80 O 0.5231 0.46472 0.00406 0.0
O81 O 0.51384 0.52425 0.09903 0.0
H82 H 0.59577 0.57612 0.94627 0.0
H83 H 0.5119 0.5861 0.0552 0.0
O84 O 0.47673 0.46978 0.09492 0.0
O85 O 0.43043 0.47263 0.9909 0.0
O86 O 0.46739 0.52699 0.99516 0.0
C87 C 0.43304 0.50091 0.99105 0.0
H88 H 0.36906 0.35144 0.03665 0.0
H89 H 0.6213 0.64038 0.9624 0.0
C90 C 0.00934 0.52557 0.75799 0.0
C91 C 0.99334 0.49559 0.79289 0.0
C92 C 0.00951 0.5254 0.68627 0.0
C93 C 0.96089 0.47084 0.53108 0.0
H94 H 0.05497 0.53692 0.44397 0.0
C95 C 0.97985 0.4638 0.24056 0.0
C96 C -0.00417 0.49377 0.20567 0.0
C97 C 0.9797 0.46396 0.31228 0.0
C98 C 0.02831 0.51851 0.46748 0.0
H99 H 0.96495 0.44192 0.7798 0.0
H100 H 0.96556 0.44171 0.65493 0.0
H101 H 0.0541 0.53752 0.56898 0.0
H102 H 0.02418 0.54744 0.21876 0.0
H103 H 0.02359 0.54764 0.34364 0.0
H104 H 0.9351 0.45183 0.42957 0.0
C105 C 0.97753 0.46531 0.68288 0.0
C106 C 0.0278 0.51887 0.53911 0.0
C107 C 0.97738 0.46546 0.75452 0.0
C108 C 0.01177 0.5239 0.24404 0.0
C109 C 0.01164 0.52405 0.31569 0.0
C110 C 0.9614 0.47048 0.45945 0.0
C111 C 0.99365 0.49527 0.64791 0.0
C112 C 0.99408 0.49504 0.57173 0.0
C113 C -0.00446 0.49409 0.35065 0.0
C114 C -0.00489 0.49431 0.42682 0.0
H115 H 0.0218 0.5492 0.78603 0.0
H116 H 0.02171 0.54888 0.66082 0.0
H117 H 0.93422 0.45243 0.55458 0.0
H118 H 0.96741 0.44017 0.21252 0.0
H119 H 0.96752 0.44048 0.33773 0.0
C120 C 0.46908 0.0033 0.23602 0.0
C121 C 0.48963 0.9905 0.2016 0.0
C122 C 0.46957 0.00393 0.30776 0.0
C123 C 0.52778 0.00266 0.46227 0.0
H124 H 0.43193 0.98123 0.55437 0.0
C125 C 0.51774 0.98699 0.75565 0.0
C126 C 0.49725 -0.00017 0.79009 0.0
C127 C 0.51724 0.98636 0.68392 0.0
C128 C 0.45908 0.98768 0.52943 0.0
H129 H 0.52629 0.96782 0.21562 0.0
H130 H 0.5268 0.96862 0.34088 0.0
H131 H 0.42947 0.97812 0.42913 0.0
H132 H 0.46066 0.02259 0.7761 0.0
H133 H 0.46013 0.02178 0.65083 0.0
H134 H 0.55738 0.01222 0.56257 0.0
C135 C 0.51077 0.9786 0.31235 0.0
C136 C 0.45765 0.98585 0.45764 0.0
C137 C 0.51025 0.97794 0.24054 0.0
C138 C 0.47666 0.01244 0.75117 0.0
C139 C 0.47613 0.01177 0.67936 0.0
C140 C 0.5292 0.00448 0.53405 0.0
C141 C 0.49062 0.99178 0.34681 0.0
C142 C 0.49199 0.99332 0.4232 0.0
C143 C 0.49623 -0.00145 0.64488 0.0
C144 C 0.49486 -0.00298 0.5685 0.0
H145 H 0.45296 0.01325 0.20762 0.0
H146 H 0.45413 0.0146 0.33267 0.0
H147 H 0.55492 0.00911 0.43733 0.0
H148 H 0.53383 0.97701 0.78403 0.0
H149 H 0.53264 0.97566 0.65899 0.0
C150 C 0.5165 0.52483 0.75953 0.0
C151 C 0.49577 0.4947 0.79338 0.0
C152 C 0.51652 0.52503 0.68788 0.0
C153 C 0.46028 0.47464 0.53169 0.0
H154 H 0.55795 0.53336 0.44375 0.0
C155 C 0.47408 0.46691 0.23968 0.0
C156 C 0.49481 0.49705 0.20583 0.0
C157 C 0.47408 0.46672 0.31134 0.0
C158 C 0.53032 0.5171 0.46752 0.0
H159 H 0.45901 0.44108 0.77848 0.0
H160 H 0.45933 0.44143 0.65332 0.0
H161 H 0.55842 0.53259 0.5689 0.0
H162 H 0.53158 0.55066 0.22073 0.0
H163 H 0.53128 0.55031 0.34589 0.0
H164 H 0.43219 0.45916 0.43032 0.0
C165 C 0.47517 0.46494 0.68225 0.0
C166 C 0.5306 0.51664 0.53923 0.0
C167 C 0.47517 0.46474 0.75398 0.0
C168 C 0.51542 0.52701 0.24523 0.0
C169 C 0.51544 0.5268 0.31697 0.0
C170 C 0.46001 0.4751 0.45999 0.0
C171 C 0.4958 0.4951 0.64838 0.0
C172 C 0.49558 0.49541 0.57214 0.0
C173 C 0.49481 0.49664 0.35083 0.0
C174 C 0.49503 0.49634 0.42707 0.0
H175 H 0.5326 0.54837 0.78834 0.0
H176 H 0.53228 0.5487 0.66336 0.0
H177 H 0.43266 0.45839 0.55546 0.0
H178 H 0.45797 0.44337 0.21088 0.0
H179 H 0.45832 0.44304 0.33586 0.0
C180 C 0.10513 0.47393 0.99732 0.0
C181 C 0.10277 0.50297 0.0019 0.0
C182 C 0.14202 0.47593 0.99351 0.0
C183 C 0.25005 0.531 0.03139 0.0
H184 H 0.25737 0.47048 0.90374 0.0
C185 C 0.39881 0.53436 0.99076 0.0
C186 C 0.39645 0.50326 0.98774 0.0
C187 C 0.36401 0.5363 0.98921 0.0
C188 C 0.25575 0.48738 0.94 0.0
H189 H 0.13738 0.55695 0.00687 0.0
H190 H 0.20204 0.5604 0.00015 0.0
H191 H 0.19475 0.47034 0.90811 0.0
H192 H 0.35573 0.44983 0.98056 0.0
H193 H 0.29527 0.45324 0.9784 0.0
H194 H 0.31101 0.54772 0.06385 0.0
C195 C 0.17524 0.5361 -0.00011 0.0
C196 C 0.21988 0.48729 0.94251 0.0
C197 C 0.13822 0.53411 0.00351 0.0
C198 C 0.35863 0.4742 0.9827 0.0
C199 C 0.32393 0.47615 0.98104 0.0
C200 C 0.286 0.53106 0.02893 0.0
C201 C 0.17746 0.507 0.99424 0.0
C202 C 0.21643 0.50874 0.98892 0.0
C203 C 0.32619 0.50719 0.98438 0.0
C204 C 0.28904 0.50889 0.98389 0.0
H205 H 0.07842 0.44954 0.99616 0.0
H206 H 0.14279 0.45305 0.99041 0.0
H207 H 0.24821 0.54764 0.06805 0.0
H208 H 0.42753 0.55723 0.99464 0.0
H209 H 0.36671 0.56059 0.99126 0.0
C210 C 0.58944 0.11415 0.02743 0.0
C211 C 0.59221 0.08534 0.02134 0.0
C212 C 0.62396 0.14549 0.03465 0.0
C213 C 0.73288 0.18778 0.0796 0.0
H214 H 0.73575 0.2581 0.97 0.0
C215 C 0.87883 0.30687 0.01912 0.0
C216 C 0.87877 0.33698 0.01781 0.0
C217 C 0.84367 0.27693 0.0286 0.0
C218 C 0.73523 0.2389 0.00179 0.0
H219 H 0.6333 0.06674 0.01878 0.0
H220 H 0.69348 0.12145 0.03018 0.0
H221 H 0.67444 0.20426 0.9692 0.0
H222 H 0.84185 0.35932 0.02702 0.0
H223 H 0.78063 0.30712 0.04448 0.0
H224 H 0.7941 0.22236 0.11087 0.0
C225 C 0.66467 0.11981 0.03051 0.0
C226 C 0.70009 0.20804 0.00135 0.0
C227 C 0.63017 0.08847 0.02347 0.0
C228 C 0.84303 0.33663 0.0283 0.0
C229 C 0.80785 0.30668 0.03757 0.0
C230 C 0.7681 0.21866 0.0799 0.0
C231 C 0.66195 0.14868 0.03574 0.0
C232 C 0.69863 0.18202 0.03968 0.0
C233 C 0.80768 0.27647 0.03676 0.0
C234 C 0.76973 0.24443 0.04045 0.0
H235 H 0.56061 0.11256 0.02636 0.0
H236 H 0.62089 0.16724 0.03944 0.0
H237 H 0.7325 0.16839 0.11053 0.0
H238 H 0.90599 0.30641 0.01204 0.0
H239 H 0.84441 0.25401 0.02723 0.0
C240 C 0.53031 0.86739 0.0293 0.0
C241 C 0.56602 0.89814 0.02676 0.0
C242 C 0.53125 0.83804 0.03828 0.0
C243 C 0.59635 0.80349 0.01088 0.0
H244 H 0.52158 0.73104 0.11872 0.0
C245 C 0.60439 0.6844 0.03954 0.0
C246 C 0.56797 0.65411 0.03127 0.0
C247 C 0.60491 0.7144 0.04771 0.0
C248 C 0.54249 0.75099 0.08806 0.0
H249 H 0.63066 0.92233 0.03554 0.0
H250 H 0.63235 0.87123 0.05147 0.0
H251 H 0.52108 0.78328 0.11755 0.0
H252 H 0.50347 0.63158 0.02676 0.0
H253 H 0.50435 0.68394 0.04066 0.0
H254 H 0.61736 0.77123 0.98038 0.0
C255 C 0.6036 0.8697 0.045 0.0
C256 C 0.5422 0.78089 0.0874 0.0
C257 C 0.60265 0.89899 0.03588 0.0
C258 C 0.53204 0.65441 0.03374 0.0
C259 C 0.53255 0.68446 0.04174 0.0
C260 C 0.59663 0.77367 0.01152 0.0
C261 C 0.56792 0.8388 0.04505 0.0
C262 C 0.56903 0.80743 0.04852 0.0
C263 C 0.569 0.71486 0.0476 0.0
C264 C 0.5696 0.74699 0.04983 0.0
H265 H 0.50159 0.8658 0.02171 0.0
H266 H 0.50322 0.81462 0.03734 0.0
H267 H 0.6169 0.82317 0.9793 0.0
H268 H 0.63255 0.68493 0.03916 0.0
H269 H 0.63351 0.73731 0.0535 0.0
C270 C 0.85089 0.45552 0.99561 0.0
C271 C 0.88646 0.48657 0.99662 0.0
C272 C 0.81399 0.45376 -0.0007 0.0
C273 C 0.77011 0.5033 0.05589 0.0
H274 H 0.67849 0.44281 0.93556 0.0
C275 C 0.63189 0.51723 0.01592 0.0
C276 C 0.59398 0.48827 0.01133 0.0
C277 C 0.66646 0.51508 0.01746 0.0
C278 C 0.70364 0.4595 0.9702 0.0
H279 H 0.9111 0.54006 0.00128 0.0
H280 H 0.84696 0.53692 0.00715 0.0
H281 H 0.74097 0.44237 0.93137 0.0
H282 H 0.56259 0.43428 0.00511 0.0
H283 H 0.62316 0.43058 0.00832 0.0
H284 H 0.73309 0.52066 0.09438 0.0
C285 C 0.84755 0.51395 0.0045 0.0
C286 C 0.73941 0.45925 0.96776 0.0
C287 C 0.88431 0.51573 0.00062 0.0
C288 C 0.59139 0.45708 0.00864 0.0
C289 C 0.62605 0.45494 0.01008 0.0
C290 C 0.73443 0.50352 0.05839 0.0
C291 C 0.81201 0.48299 0.00442 0.0
C292 C 0.7732 0.48152 0.00985 0.0
C293 C 0.66397 0.48394 0.01446 0.0
C294 C 0.70096 0.48199 0.01487 0.0
H295 H 0.85157 0.4326 0.99271 0.0
H296 H 0.7871 0.42954 -0.00048 0.0
H297 H 0.79539 0.52028 0.09 0.0
H298 H 0.63496 0.54165 0.0178 0.0
H299 H 0.6952 0.53791 0.01976 0.0
C300 C 0.10612 0.68196 0.97418 0.0
C301 C 0.10831 0.65291 0.97994 0.0
C302 C 0.14043 0.71252 0.96498 0.0
C303 C 0.24578 0.75219 0.91844 0.0
H304 H 0.25782 0.82557 0.03233 0.0
C305 C 0.39587 0.87589 0.97051 0.0
C306 C 0.39418 0.9053 0.97112 0.0
C307 C 0.3607 0.84487 0.96502 0.0
C308 C 0.25471 0.80546 -0.00049 0.0
H309 H 0.14795 0.6329 0.97873 0.0
H310 H 0.20806 0.68636 0.96342 0.0
H311 H 0.19665 0.77182 0.03291 0.0
H312 H 0.35437 0.9253 0.96457 0.0
H313 H 0.29323 0.8713 0.95469 0.0
H314 H 0.30441 0.786 0.88613 0.0
C315 C 0.17971 0.68546 0.96498 0.0
C316 C 0.21961 0.77466 -0.00029 0.0
C317 C 0.14529 0.65483 0.97381 0.0
C318 C 0.35672 0.90311 0.96474 0.0
C319 C 0.32166 0.87217 0.95935 0.0
C320 C 0.28105 0.78309 0.91838 0.0
C321 C 0.17775 0.71473 0.9618 0.0
C322 C 0.21472 0.74766 0.95924 0.0
C323 C 0.32324 0.84273 0.96024 0.0
C324 C 0.28582 0.81001 0.95898 0.0
H325 H 0.07788 0.68109 0.97741 0.0
H326 H 0.1378 0.73452 0.96121 0.0
H327 H 0.24274 0.73194 0.88622 0.0
H328 H 0.42431 0.87678 0.97528 0.0
H329 H 0.3628 0.82257 0.96643 0.0
C330 C 0.45764 0.33701 0.96366 0.0
C331 C 0.42189 0.33755 0.96656 0.0
C332 C 0.4568 0.30686 0.95495 0.0
C333 C 0.39204 0.2176 0.98379 0.0
H334 H 0.46715 0.20781 0.87685 0.0
C335 C 0.38486 0.09189 0.95692 0.0
C336 C 0.42136 0.09253 0.9659 0.0
C337 C 0.38417 0.12133 0.94835 0.0
C338 C 0.44614 0.21024 0.90724 0.0
H339 H 0.35727 0.30709 0.95866 0.0
H340 H 0.35573 0.25454 0.94304 0.0
H341 H 0.4672 0.26028 0.87681 0.0
H342 H 0.48583 0.12462 0.97128 0.0
H343 H 0.48466 0.17603 0.95656 0.0
H344 H 0.37135 0.16791 0.01514 0.0
C345 C 0.38445 0.27733 0.94906 0.0
C346 C 0.44617 0.24028 0.90722 0.0
C347 C 0.3853 0.30743 0.95797 0.0
C348 C 0.45721 0.12319 0.96377 0.0
C349 C 0.45653 0.15268 0.95531 0.0
C350 C 0.392 0.18764 0.98378 0.0
C351 C 0.42019 0.27661 0.94877 0.0
C352 C 0.41924 0.24434 0.94581 0.0
C353 C 0.41998 0.15213 0.94869 0.0
C354 C 0.41916 0.18364 0.94582 0.0
H355 H 0.48632 0.35972 0.97086 0.0
H356 H 0.48488 0.30717 0.95572 0.0
H357 H 0.37143 0.22008 0.01519 0.0
H358 H 0.35675 0.06862 0.95698 0.0
H359 H 0.35551 0.11997 0.942 0.0
loop_
_geom_bond_atom_site_label_1
_geom_bond_atom_site_label_2
_geom_bond_distance
_geom_bond_site_symmetry_2
_ccdc_geom_bond_type
Co0 N5 2.057 1_554 S
Co0 O17 2.021 . S
Co0 O20 2.062 . S
Co0 O24 2.117 1_554 S
Co0 O25 2.020 1_655 S
C1 O21 1.259 . S
C1 O24 1.258 1_455 S
Co2 N11 2.057 1_556 S
Co2 O18 2.117 1_556 S
Co2 O19 2.020 1_455 S
Co2 O21 2.021 . S
Co2 O26 2.062 . S
C3 N5 1.316 1_554 S
C3 N6 1.347 1_554 S
C3 H8 0.931 . S
C4 N5 1.375 . S
C4 C7 1.350 . S
C4 H9 0.930 . S
N5 Co0 2.057 1_556 S
N5 C3 1.316 1_556 S
N5 C4 1.375 . S
N6 C3 1.347 1_556 S
N6 C7 1.373 . S
C7 C4 1.350 . S
C7 N6 1.373 . S
C7 H28 0.931 . S
H8 C3 0.931 . S
H9 C4 0.930 . S
C10 O17 1.262 . S
C10 O18 1.253 1_655 S
N11 Co2 2.057 1_554 S
N11 C12 1.316 1_554 S
N11 C13 1.375 . S
C12 N11 1.316 1_556 S
C12 N14 1.347 1_556 S
C12 H23 0.931 . S
C13 N11 1.375 . S
C13 C15 1.350 . S
C13 H22 0.930 . S
N14 C12 1.347 1_554 S
N14 C15 1.373 . S
C15 C13 1.350 . S
C15 N14 1.373 . S
C15 H29 0.931 . S
C16 O19 1.256 1_554 S
C16 O20 1.255 . S
O17 Co0 2.021 . S
O17 C10 1.262 . S
O18 Co2 2.117 1_554 S
O18 C10 1.253 1_455 S
O19 Co2 2.020 1_655 S
O19 C16 1.256 1_556 S
O20 Co0 2.062 . S
O20 C16 1.255 . S
O21 C1 1.259 . S
O21 Co2 2.021 . S
H22 C13 0.930 . S
H23 C12 0.931 . S
O24 Co0 2.117 1_556 S
O24 C1 1.258 1_655 S
O25 Co0 2.020 1_455 S
O25 C27 1.253 1_554 S
O26 Co2 2.062 . S
O26 C27 1.256 . S
C27 O25 1.253 1_556 S
C27 O26 1.256 . S
H28 C7 0.931 . S
H29 C15 0.931 . S
Co30 N35 2.057 1_554 S
Co30 O47 2.021 . S
Co30 O50 2.062 . S
Co30 O54 2.117 1_554 S
Co30 O55 2.020 1_565 S
C31 O51 1.259 . S
C31 O54 1.258 1_545 S
Co32 N41 2.057 1_556 S
Co32 O48 2.117 1_556 S
Co32 O49 2.020 1_545 S
Co32 O51 2.021 . S
Co32 O56 2.062 . S
C33 N35 1.316 1_554 S
C33 N36 1.347 1_554 S
C33 H38 0.931 . S
C34 N35 1.375 . S
C34 C37 1.350 . S
C34 H39 0.930 . S
N35 Co30 2.057 1_556 S
N35 C33 1.316 1_556 S
N35 C34 1.375 . S
N36 C33 1.347 1_556 S
N36 C37 1.373 . S
C37 C34 1.350 . S
C37 N36 1.373 . S
C37 H58 0.931 . S
H38 C33 0.931 . S
H39 C34 0.930 . S
C40 O47 1.259 . S
C40 O48 1.258 1_565 S
N41 Co32 2.057 1_554 S
N41 C42 1.316 1_554 S
N41 C43 1.375 . S
C42 N41 1.316 1_556 S
C42 N44 1.347 1_556 S
C42 H53 0.931 . S
C43 N41 1.375 . S
C43 C45 1.350 . S
C43 H52 0.930 . S
N44 C42 1.347 1_554 S
N44 C45 1.373 . S
C45 C43 1.350 . S
C45 N44 1.373 . S
C45 H59 0.931 . S
C46 O49 1.256 . S
C46 O50 1.254 1_556 S
O47 Co30 2.021 . S
O47 C40 1.259 . S
O48 Co32 2.117 1_554 S
O48 C40 1.258 1_545 S
O49 Co32 2.020 1_565 S
O49 C46 1.256 . S
O50 Co30 2.062 . S
O50 C46 1.254 1_554 S
O51 C31 1.259 . S
O51 Co32 2.021 . S
H52 C43 0.930 . S
H53 C42 0.931 . S
O54 Co30 2.117 1_556 S
O54 C31 1.258 1_565 S
O55 Co30 2.020 1_545 S
O55 C57 1.257 . S
O56 Co32 2.062 . S
O56 C57 1.254 1_556 S
C57 O55 1.257 . S
C57 O56 1.254 1_554 S
H58 C37 0.931 . S
H59 C45 0.931 . S
Co60 N65 2.057 1_556 S
Co60 O77 2.021 . S
Co60 O80 2.062 . S
Co60 O84 2.117 1_556 S
Co60 O85 2.020 . S
C61 O81 1.259 . S
C61 O84 1.258 . S
Co62 N71 2.057 1_554 S
Co62 O78 2.117 1_554 S
Co62 O79 2.020 . S
Co62 O81 2.021 . S
Co62 O86 2.062 . S
C63 N65 1.316 1_556 S
C63 N66 1.347 1_556 S
C63 H68 0.931 . S
C64 N65 1.375 . S
C64 C67 1.350 . S
C64 H69 0.930 . S
N65 Co60 2.057 1_554 S
N65 C63 1.316 1_554 S
N65 C64 1.375 . S
N66 C63 1.347 1_554 S
N66 C67 1.373 . S
C67 C64 1.350 . S
C67 N66 1.373 . S
C67 H88 0.931 . S
H68 C63 0.931 . S
H69 C64 0.930 . S
C70 O77 1.259 . S
C70 O78 1.258 . S
N71 Co62 2.057 1_556 S
N71 C72 1.316 1_556 S
N71 C73 1.375 . S
C72 N71 1.316 1_554 S
C72 N74 1.347 1_554 S
C72 H83 0.931 . S
C73 N71 1.375 . S
C73 C75 1.350 . S
C73 H82 0.930 . S
N74 C72 1.347 1_556 S
N74 C75 1.373 . S
C75 C73 1.350 . S
C75 N74 1.373 . S
C75 H89 0.931 . S
C76 O79 1.256 . S
C76 O80 1.254 1_554 S
O77 Co60 2.021 . S
O77 C70 1.259 . S
O78 Co62 2.117 1_556 S
O78 C70 1.258 . S
O79 Co62 2.020 . S
O79 C76 1.256 . S
O80 Co60 2.062 . S
O80 C76 1.254 1_556 S
O81 C61 1.259 . S
O81 Co62 2.021 . S
H82 C73 0.930 . S
H83 C72 0.931 . S
O84 Co60 2.117 1_554 S
O84 C61 1.258 . S
O85 Co60 2.020 . S
O85 C87 1.256 . S
O86 Co62 2.062 . S
O86 C87 1.255 1_554 S
C87 O85 1.256 . S
C87 O86 1.255 1_556 S
H88 C67 0.931 . S
H89 C75 0.931 . S
C90 C91 1.351 . S
C90 C92 1.327 . S
C90 H115 0.950 . S
C91 C90 1.351 . S
C91 C107 1.347 1_455 S
C92 C90 1.327 . S
C92 C111 1.430 . S
C92 H116 0.950 . S
C93 C110 1.574 . S
C93 C112 1.368 1_655 S
C93 H117 0.949 . S
H94 C98 0.949 . S
C95 C96 1.347 . S
C95 C97 1.327 . S
C95 H118 0.950 . S
C96 C95 1.347 . S
C96 C108 1.350 1_655 S
C97 C95 1.327 . S
C97 C113 1.430 1_655 S
C97 H119 0.950 . S
C98 H94 0.949 . S
C98 C106 1.574 . S
C98 C114 1.368 . S
H99 C107 0.950 . S
H100 C105 0.950 . S
H101 C106 0.949 . S
H102 C108 0.950 . S
H103 C109 0.950 . S
H104 C110 0.949 . S
C105 H100 0.950 . S
C105 C107 1.327 . S
C105 C111 1.427 1_655 S
C106 C98 1.574 . S
C106 H101 0.949 . S
C106 C112 1.369 . S
C107 C91 1.347 1_655 S
C107 H99 0.950 . S
C107 C105 1.327 . S
C108 C96 1.350 1_455 S
C108 H102 0.950 . S
C108 C109 1.327 . S
C109 H103 0.950 . S
C109 C108 1.327 . S
C109 C113 1.427 . S
C110 C93 1.574 . S
C110 H104 0.949 . S
C110 C114 1.369 1_655 S
C111 C92 1.430 . S
C111 C105 1.427 1_455 S
C111 C112 1.523 . S
C112 C93 1.368 1_455 S
C112 C106 1.369 . S
C112 C111 1.523 . S
C113 C97 1.430 1_455 S
C113 C109 1.427 . S
C113 C114 1.523 . S
C114 C98 1.368 . S
C114 C110 1.369 1_455 S
C114 C113 1.523 . S
H115 C90 0.950 . S
H116 C92 0.950 . S
H117 C93 0.949 . S
H118 C95 0.950 . S
H119 C97 0.950 . S
C120 C121 1.349 1_545 S
C120 C122 1.327 . S
C120 H145 0.950 . S
C121 C120 1.349 1_565 S
C121 C137 1.349 . S
C122 C120 1.327 . S
C122 C141 1.408 1_545 S
C122 H146 0.950 . S
C123 C140 1.574 . S
C123 C142 1.374 . S
C123 H147 0.949 . S
H124 C128 0.949 . S
C125 C126 1.349 1_565 S
C125 C127 1.327 . S
C125 H148 0.950 . S
C126 C125 1.349 1_545 S
C126 C138 1.349 . S
C127 C125 1.327 . S
C127 C143 1.401 1_565 S
C127 H149 0.950 . S
C128 H124 0.949 . S
C128 C136 1.574 . S
C128 C144 1.383 . S
H129 C137 0.950 . S
H130 C135 0.950 . S
H131 C136 0.949 . S
H132 C138 0.950 . S
H133 C139 0.950 . S
H134 C140 0.949 . S
C135 H130 0.950 . S
C135 C137 1.327 . S
C135 C141 1.449 . S
C136 C128 1.574 . S
C136 H131 0.949 . S
C136 C142 1.362 1_545 S
C137 C121 1.349 . S
C137 H129 0.950 . S
C137 C135 1.327 . S
C138 C126 1.349 . S
C138 H132 0.950 . S
C138 C139 1.327 . S
C139 H133 0.950 . S
C139 C138 1.327 . S
C139 C143 1.457 . S
C140 C123 1.574 . S
C140 H134 0.949 . S
C140 C144 1.354 1_565 S
C141 C122 1.408 1_565 S
C141 C135 1.449 . S
C141 C142 1.523 . S
C142 C123 1.374 . S
C142 C136 1.362 1_565 S
C142 C141 1.523 . S
C143 C127 1.401 1_545 S
C143 C139 1.457 . S
C143 C144 1.523 . S
C144 C128 1.383 . S
C144 C140 1.354 1_545 S
C144 C143 1.523 . S
H145 C120 0.950 . S
H146 C122 0.950 . S
H147 C123 0.949 . S
H148 C125 0.950 . S
H149 C127 0.950 . S
C150 C151 1.349 . S
C150 C152 1.327 . S
C150 H175 0.950 . S
C151 C150 1.349 . S
C151 C167 1.349 . S
C152 C150 1.327 . S
C152 C171 1.429 . S
C152 H176 0.950 . S
C153 C170 1.574 . S
C153 C172 1.368 . S
C153 H177 0.949 . S
H154 C158 0.949 . S
C155 C156 1.349 . S
C155 C157 1.327 . S
C155 H178 0.950 . S
C156 C155 1.349 . S
C156 C168 1.349 . S
C157 C155 1.327 . S
C157 C173 1.429 . S
C157 H179 0.950 . S
C158 H154 0.949 . S
C158 C166 1.574 . S
C158 C174 1.368 . S
H159 C167 0.950 . S
H160 C165 0.950 . S
H161 C166 0.949 . S
H162 C168 0.950 . S
H163 C169 0.950 . S
H164 C170 0.949 . S
C165 H160 0.950 . S
C165 C167 1.327 . S
C165 C171 1.429 . S
C166 C158 1.574 . S
C166 H161 0.949 . S
C166 C172 1.368 . S
C167 C151 1.349 . S
C167 H159 0.950 . S
C167 C165 1.327 . S
C168 C156 1.349 . S
C168 H162 0.950 . S
C168 C169 1.327 . S
C169 H163 0.950 . S
C169 C168 1.327 . S
C169 C173 1.429 . S
C170 C153 1.574 . S
C170 H164 0.949 . S
C170 C174 1.368 . S
C171 C152 1.429 . S
C171 C165 1.429 . S
C171 C172 1.523 . S
C172 C153 1.368 . S
C172 C166 1.368 . S
C172 C171 1.523 . S
C173 C157 1.429 . S
C173 C169 1.429 . S
C173 C174 1.523 . S
C174 C158 1.368 . S
C174 C170 1.368 . S
C174 C173 1.523 . S
H175 C150 0.950 . S
H176 C152 0.950 . S
H177 C153 0.949 . S
H178 C155 0.950 . S
H179 C157 0.950 . S
C180 C181 1.349 . S
C180 C182 1.327 . S
C180 H205 0.950 . S
C181 C180 1.349 . S
C181 C197 1.349 1_556 S
C182 C180 1.327 . S
C182 C201 1.434 . S
C182 H206 0.950 . S
C183 C200 1.574 . S
C183 C202 1.360 1_554 S
C183 H207 0.949 . S
H184 C188 0.949 . S
C185 C186 1.349 1_554 S
C185 C187 1.327 . S
C185 H208 0.950 . S
C186 C185 1.349 1_556 S
C186 C198 1.349 . S
C187 C185 1.327 . S
C187 C203 1.429 1_554 S
C187 H209 0.950 . S
C188 H184 0.949 . S
C188 C196 1.574 . S
C188 C204 1.383 . S
H189 C197 0.950 . S
H190 C195 0.950 . S
H191 C196 0.949 . S
H192 C198 0.950 . S
H193 C199 0.950 . S
H194 C200 0.949 . S
C195 H190 0.950 . S
C195 C197 1.327 . S
C195 C201 1.423 1_554 S
C196 C188 1.574 . S
C196 H191 0.949 . S
C196 C202 1.378 . S
C197 C181 1.349 1_554 S
C197 H189 0.950 . S
C197 C195 1.327 . S
C198 C186 1.349 . S
C198 H192 0.950 . S
C198 C199 1.327 . S
C199 H193 0.950 . S
C199 C198 1.327 . S
C199 C203 1.429 . S
C200 C183 1.574 . S
C200 H194 0.949 . S
C200 C204 1.353 1_554 S
C201 C182 1.434 . S
C201 C195 1.423 1_556 S
C201 C202 1.523 . S
C202 C183 1.360 1_556 S
C202 C196 1.378 . S
C202 C201 1.523 . S
C203 C187 1.429 1_556 S
C203 C199 1.429 . S
C203 C204 1.524 . S
C204 C188 1.383 . S
C204 C200 1.353 1_556 S
C204 C203 1.524 . S
H205 C180 0.950 . S
H206 C182 0.950 . S
H207 C183 0.949 . S
H208 C185 0.950 . S
H209 C187 0.950 . S
C210 C211 1.349 1_556 S
C210 C212 1.327 . S
C210 H235 0.950 . S
C211 C210 1.349 1_554 S
C211 C227 1.349 . S
C212 C210 1.327 . S
C212 C231 1.429 1_556 S
C212 H236 0.950 . S
C213 C230 1.574 . S
C213 C232 1.368 . S
C213 H237 0.949 . S
H214 C218 0.949 . S
C215 C216 1.354 . S
C215 C217 1.327 . S
C215 H238 0.950 . S
C216 C215 1.354 . S
C216 C228 1.344 1_554 S
C217 C215 1.327 . S
C217 C233 1.437 . S
C217 H239 0.950 . S
C218 H214 0.949 . S
C218 C226 1.574 . S
C218 C234 1.368 1_556 S
H219 C227 0.950 . S
H220 C225 0.950 . S
H221 C226 0.949 . S
H222 C228 0.950 . S
H223 C229 0.950 . S
H224 C230 0.949 . S
C225 H220 0.950 . S
C225 C227 1.327 . S
C225 C231 1.429 . S
C226 C218 1.574 . S
C226 H221 0.949 . S
C226 C232 1.368 1_556 S
C227 C211 1.349 . S
C227 H219 0.950 . S
C227 C225 1.327 . S
C228 C216 1.344 1_556 S
C228 H222 0.950 . S
C228 C229 1.327 . S
C229 H223 0.950 . S
C229 C228 1.327 . S
C229 C233 1.419 1_556 S
C230 C213 1.574 . S
C230 H224 0.949 . S
C230 C234 1.368 . S
C231 C212 1.429 1_554 S
C231 C225 1.429 . S
C231 C232 1.523 . S
C232 C213 1.368 . S
C232 C226 1.368 1_554 S
C232 C231 1.523 . S
C233 C217 1.437 . S
C233 C229 1.419 1_554 S
C233 C234 1.524 . S
C234 C218 1.368 1_554 S
C234 C230 1.368 . S
C234 C233 1.524 . S
H235 C210 0.950 . S
H236 C212 0.950 . S
H237 C213 0.949 . S
H238 C215 0.950 . S
H239 C217 0.950 . S
C240 C241 1.349 . S
C240 C242 1.327 . S
C240 H265 0.950 . S
C241 C240 1.349 . S
C241 C257 1.349 1_554 S
C242 C240 1.327 . S
C242 C261 1.429 . S
C242 H266 0.950 . S
C243 C260 1.574 . S
C243 C262 1.368 1_556 S
C243 H267 0.949 . S
H244 C248 0.949 . S
C245 C246 1.349 1_556 S
C245 C247 1.327 . S
C245 H268 0.950 . S
C246 C245 1.349 1_554 S
C246 C258 1.349 . S
C247 C245 1.327 . S
C247 C263 1.429 1_556 S
C247 H269 0.950 . S
C248 H244 0.949 . S
C248 C256 1.574 . S
C248 C264 1.368 . S
H249 C257 0.950 . S
H250 C255 0.950 . S
H251 C256 0.949 . S
H252 C258 0.950 . S
H253 C259 0.950 . S
H254 C260 0.949 . S
C255 H250 0.950 . S
C255 C257 1.327 . S
C255 C261 1.429 1_556 S
C256 C248 1.574 . S
C256 H251 0.949 . S
C256 C262 1.368 . S
C257 C241 1.349 1_556 S
C257 H249 0.950 . S
C257 C255 1.327 . S
C258 C246 1.349 . S
C258 H252 0.950 . S
C258 C259 1.327 . S
C259 H253 0.950 . S
C259 C258 1.327 . S
C259 C263 1.429 . S
C260 C243 1.574 . S
C260 H254 0.949 . S
C260 C264 1.368 1_556 S
C261 C242 1.429 . S
C261 C255 1.429 1_554 S
C261 C262 1.523 . S
C262 C243 1.368 1_554 S
C262 C256 1.368 . S
C262 C261 1.523 . S
C263 C247 1.429 1_554 S
C263 C259 1.429 . S
C263 C264 1.523 . S
C264 C248 1.368 . S
C264 C260 1.368 1_554 S
C264 C263 1.523 . S
H265 C240 0.950 . S
H266 C242 0.950 . S
H267 C243 0.949 . S
H268 C245 0.950 . S
H269 C247 0.950 . S
C270 C271 1.349 . S
C270 C272 1.327 . S
C270 H295 0.950 . S
C271 C270 1.349 . S
C271 C287 1.349 1_554 S
C272 C270 1.327 . S
C272 C291 1.429 . S
C272 H296 0.950 . S
C273 C290 1.573 . S
C273 C292 1.368 1_556 S
C273 H297 0.950 . S
H274 C278 0.949 . S
C275 C276 1.349 . S
C275 C277 1.327 1_554 S
C275 H298 0.950 1_554 S
C276 C275 1.349 . S
C276 C288 1.349 . S
C277 C275 1.327 1_556 S
C277 C293 1.429 1_556 S
C277 H299 0.950 . S
C278 H274 0.949 . S
C278 C286 1.574 . S
C278 C294 1.368 . S
H279 C287 0.950 . S
H280 C285 0.950 . S
H281 C286 0.949 . S
H282 C288 0.950 . S
H283 C289 0.950 . S
H284 C290 0.949 . S
C285 H280 0.950 . S
C285 C287 1.327 . S
C285 C291 1.428 1_556 S
C286 C278 1.574 . S
C286 H281 0.949 . S
C286 C292 1.369 . S
C287 C271 1.349 1_556 S
C287 H279 0.950 . S
C287 C285 1.327 . S
C288 C276 1.349 . S
C288 H282 0.950 . S
C288 C289 1.327 . S
C289 H283 0.950 . S
C289 C288 1.327 . S
C289 C293 1.429 . S
C290 C273 1.573 . S
C290 H284 0.949 . S
C290 C294 1.368 1_556 S
C291 C272 1.429 . S
C291 C285 1.428 1_554 S
C291 C292 1.523 . S
C292 C273 1.368 1_554 S
C292 C286 1.369 . S
C292 C291 1.523 . S
C293 C277 1.429 1_554 S
C293 C289 1.429 . S
C293 C294 1.523 . S
C294 C278 1.368 . S
C294 C290 1.368 1_554 S
C294 C293 1.523 . S
H295 C270 0.950 . S
H296 C272 0.950 . S
H297 C273 0.950 . S
H298 C275 0.950 1_556 S
H299 C277 0.950 . S
C300 C301 1.351 . S
C300 C302 1.327 . S
C300 H325 0.950 . S
C301 C300 1.351 . S
C301 C317 1.347 1_556 S
C302 C300 1.327 . S
C302 C321 1.434 . S
C302 H326 0.950 . S
C303 C320 1.574 . S
C303 C322 1.360 1_554 S
C303 H327 0.949 . S
H304 C308 0.949 . S
C305 C306 1.349 1_554 S
C305 C307 1.327 . S
C305 H328 0.950 . S
C306 C305 1.349 1_556 S
C306 C318 1.349 . S
C307 C305 1.327 . S
C307 C323 1.429 1_554 S
C307 H329 0.950 . S
C308 H304 0.949 . S
C308 C316 1.574 . S
C308 C324 1.368 . S
H309 C317 0.950 . S
H310 C315 0.950 . S
H311 C316 0.949 . S
H312 C318 0.950 . S
H313 C319 0.950 . S
H314 C320 0.949 . S
C315 H310 0.950 . S
C315 C317 1.327 . S
C315 C321 1.423 1_554 S
C316 C308 1.574 . S
C316 H311 0.949 . S
C316 C322 1.377 . S
C317 C301 1.347 1_554 S
C317 H309 0.950 . S
C317 C315 1.327 . S
C318 C306 1.349 . S
C318 H312 0.950 . S
C318 C319 1.327 . S
C319 H313 0.950 . S
C319 C318 1.327 . S
C319 C323 1.429 . S
C320 C303 1.574 . S
C320 H314 0.949 . S
C320 C324 1.368 1_554 S
C321 C302 1.434 . S
C321 C315 1.423 1_556 S
C321 C322 1.523 . S
C322 C303 1.360 1_556 S
C322 C316 1.377 . S
C322 C321 1.523 . S
C323 C307 1.429 1_556 S
C323 C319 1.429 . S
C323 C324 1.523 . S
C324 C308 1.368 . S
C324 C320 1.368 1_556 S
C324 C323 1.523 . S
H325 C300 0.950 . S
H326 C302 0.950 . S
H327 C303 0.949 . S
H328 C305 0.950 . S
H329 C307 0.950 . S
C330 C331 1.349 . S
C330 C332 1.327 . S
C330 H355 0.950 . S
C331 C330 1.349 . S
C331 C347 1.349 1_556 S
C332 C330 1.327 . S
C332 C351 1.429 . S
C332 H356 0.950 . S
C333 C350 1.574 . S
C333 C352 1.368 1_554 S
C333 H357 0.949 . S
H334 C338 0.949 . S
C335 C336 1.349 1_554 S
C335 C337 1.327 . S
C335 H358 0.950 . S
C336 C335 1.349 1_556 S
C336 C348 1.349 . S
C337 C335 1.327 . S
C337 C353 1.429 1_554 S
C337 H359 0.950 . S
C338 H334 0.949 . S
C338 C346 1.574 . S
C338 C354 1.368 . S
H339 C347 0.950 . S
H340 C345 0.950 . S
H341 C346 0.949 . S
H342 C348 0.950 . S
H343 C349 0.950 . S
H344 C350 0.949 . S
C345 H340 0.950 . S
C345 C347 1.327 . S
C345 C351 1.429 1_554 S
C346 C338 1.574 . S
C346 H341 0.949 . S
C346 C352 1.368 . S
C347 C331 1.349 1_554 S
C347 H339 0.950 . S
C347 C345 1.327 . S
C348 C336 1.349 . S
C348 H342 0.950 . S
C348 C349 1.327 . S
C349 H343 0.950 . S
C349 C348 1.327 . S
C349 C353 1.429 . S
C350 C333 1.574 . S
C350 H344 0.949 . S
C350 C354 1.368 1_554 S
C351 C332 1.429 . S
C351 C345 1.429 1_556 S
C351 C352 1.523 . S
C352 C333 1.368 1_556 S
C352 C346 1.368 . S
C352 C351 1.523 . S
C353 C337 1.429 1_556 S
C353 C349 1.429 . S
C353 C354 1.523 . S
C354 C338 1.368 . S
C354 C350 1.368 1_556 S
C354 C353 1.523 . S
H355 C330 0.950 . S
H356 C332 0.950 . S
H357 C333 0.949 . S
H358 C335 0.950 . S
H359 C337 0.950 . S
C91 C1 1.496 . S
C96 C10 1.499 . S
C121 C40 1.500 . S
C126 C31 1.500 . S
C151 C70 1.500 . S
C156 C61 1.500 . S
C181 C27 1.499 . S
C186 C87 1.487 . S
C211 C57 1.017 . S
C216 N6 1.006 1_554 S
C241 N36 0.645 1_554 S
C246 N74 0.649 1_554 S
C271 C16 1.498 . S
C276 C76 1.495 . S
C301 N14 1.008 1_556 S
C306 C46 1.017 . S
C331 N66 0.645 1_556 S
C336 N44 0.641 1_556 S
