# Generated by pormake.
# Topology mon, (4)-cn, num edge types: 1
# Building blocks:
#     Node 0, Type 0, BuildingBlock: QUQFOY_clean_sbu_3, # of connection points: 4
#     Node 1, Type 0, BuildingBlock: QUQFOY_clean_sbu_3, # of connection points: 4
#     Node 2, Type 0, BuildingBlock: QUQFOY_clean_sbu_3, # of connection points: 4
#     Node 3, Type 0, BuildingBlock: QUQFOY_clean_sbu_3, # of connection points: 4
#     Node 4, Type 0, BuildingBlock: QUQFOY_clean_sbu_3, # of connection points: 4
#     Node 5, Type 0, BuildingBlock: QUQFOY_clean_sbu_3, # of connection points: 4
#     Node 6, Type 0, BuildingBlock: QUQFOY_clean_sbu_3, # of connection points: 4
#     Node 7, Type 0, BuildingBlock: QUQFOY_clean_sbu_3, # of connection points: 4
#     Node 8, Type 0, BuildingBlock: QUQFOY_clean_sbu_3, # of connection points: 4
#     Node 9, Type 0, BuildingBlock: QUQFOY_clean_sbu_3, # of connection points: 4
#     Node 10, Type 0, BuildingBlock: QUQFOY_clean_sbu_3, # of connection points: 4
#     Node 11, Type 0, BuildingBlock: QUQFOY_clean_sbu_3, # of connection points: 4
#     Node 12, Type 0, BuildingBlock: QUQFOY_clean_sbu_3, # of connection points: 4
#     Node 13, Type 0, BuildingBlock: QUQFOY_clean_sbu_3, # of connection points: 4
#     Node 14, Type 0, BuildingBlock: QUQFOY_clean_sbu_3, # of connection points: 4
#     Node 15, Type 0, BuildingBlock: QUQFOY_clean_sbu_3, # of connection points: 4
#     Edge 16, Type (0, 0), None
#     Edge 17, Type (0, 0), None
#     Edge 18, Type (0, 0), None
#     Edge 19, Type (0, 0), None
#     Edge 20, Type (0, 0), None
#     Edge 21, Type (0, 0), None
#     Edge 22, Type (0, 0), None
#     Edge 23, Type (0, 0), None
#     Edge 24, Type (0, 0), None
#     Edge 25, Type (0, 0), None
#     Edge 26, Type (0, 0), None
#     Edge 27, Type (0, 0), None
#     Edge 28, Type (0, 0), None
#     Edge 29, Type (0, 0), None
#     Edge 30, Type (0, 0), None
#     Edge 31, Type (0, 0), None
#     Edge 32, Type (0, 0), None
#     Edge 33, Type (0, 0), None
#     Edge 34, Type (0, 0), None
#     Edge 35, Type (0, 0), None
#     Edge 36, Type (0, 0), None
#     Edge 37, Type (0, 0), None
#     Edge 38, Type (0, 0), None
#     Edge 39, Type (0, 0), None
#     Edge 40, Type (0, 0), None
#     Edge 41, Type (0, 0), None
#     Edge 42, Type (0, 0), None
#     Edge 43, Type (0, 0), None
#     Edge 44, Type (0, 0), None
#     Edge 45, Type (0, 0), None
#     Edge 46, Type (0, 0), None
#     Edge 47, Type (0, 0), None
# Relax obj value: 0.180
# Max RMSD: 0.176
# Mean RMSD: 0.176
data_MOF--net-mon--node1-QUQFOY_clean_sbu_3--edge1-none
_symmetry_space_group_name_H-M    P1
_symmetry_Int_Tables_number       1
_symmetry_cell_setting            triclinic
loop_
_symmetry_equiv_pos_as_xyz
'x, y, z'
_cell_length_a     16.926885
_cell_length_b     16.927944
_cell_length_c     44.191541
_cell_angle_alpha  90.000697
_cell_angle_beta   89.999968
_cell_angle_gamma 90.001084
loop_
_atom_site_label
_atom_site_type_symbol
_atom_site_fract_x
_atom_site_fract_y
_atom_site_fract_z
_atom_type_partial_charge
C0 C 0.1292 0.90185 0.5368 0.0
O1 O 0.14658 0.86684 0.51237 0.0
Cd2 Cd 0.03124 0.8492 0.48341 0.0
O3 O 0.06761 0.94526 0.53831 0.0
Cd4 Cd 0.96457 0.00716 0.50525 0.0
C5 C 0.88256 0.85592 0.5394 0.0
O6 O 0.01665 -0.03007 0.45676 0.0
O7 O 0.88978 -0.01657 0.45753 0.0
O8 O 0.03561 0.13192 0.51041 0.0
C9 C 0.95243 -0.02659 0.44225 0.0
O10 O 0.93357 0.81898 0.52358 0.0
C11 C -0.02578 0.17411 0.51352 0.0
O12 O 0.87353 0.93018 0.5366 0.0
O13 O 0.90801 0.13867 0.51388 0.0
C14 C 0.29223 0.86977 0.7868 0.0
O15 O 0.32726 0.88715 0.76237 0.0
Cd16 Cd 0.3449 0.77184 0.7334 0.0
O17 O 0.24881 0.80819 0.7883 0.0
Cd18 Cd 0.18692 0.70515 0.75524 0.0
C19 C 0.33817 0.62314 0.78938 0.0
O20 O 0.22415 0.75729 0.70675 0.0
O21 O 0.21063 0.63042 0.70751 0.0
O22 O 0.06215 0.77619 0.76041 0.0
C23 C 0.22067 0.69309 0.69223 0.0
O24 O 0.37511 0.67415 0.77356 0.0
C25 C 0.01996 0.7148 0.76351 0.0
O26 O 0.2639 0.61411 0.78658 0.0
O27 O 0.05539 0.64859 0.76386 0.0
C28 C 0.32407 0.03287 0.0368 0.0
O29 O 0.30669 0.06787 0.01237 0.0
Cd30 Cd 0.42203 0.08552 -0.01659 0.0
O31 O 0.38566 -0.01054 0.03831 0.0
Cd32 Cd 0.4887 0.92756 0.00525 0.0
C33 C 0.57071 0.0788 0.0394 0.0
O34 O 0.43662 0.96478 -0.04324 0.0
O35 O 0.56349 0.95128 -0.04247 0.0
O36 O 0.41766 0.80279 0.01041 0.0
C37 C 0.50084 0.96131 -0.05775 0.0
O38 O 0.5197 0.11574 0.02358 0.0
C39 C 0.47905 0.76061 0.01352 0.0
O40 O 0.57973 0.00454 0.0366 0.0
O41 O 0.54526 0.79605 0.01388 0.0
C42 C 0.16104 0.06495 0.2868 0.0
O43 O 0.12601 0.04756 0.26237 0.0
Cd44 Cd 0.10837 0.16288 0.2334 0.0
O45 O 0.20446 0.12653 0.2883 0.0
Cd46 Cd 0.26635 0.22956 0.25524 0.0
C47 C 0.1151 0.31158 0.28938 0.0
O48 O 0.22912 0.17743 0.20675 0.0
O49 O 0.24264 0.30429 0.20751 0.0
O50 O 0.39112 0.15853 0.26041 0.0
C51 C 0.2326 0.24163 0.19223 0.0
O52 O 0.07816 0.26057 0.27356 0.0
C53 C 0.43331 0.21992 0.26351 0.0
O54 O 0.18936 0.3206 0.28658 0.0
O55 O 0.39788 0.28613 0.26386 0.0
C56 C 0.12899 0.03279 0.31491 0.0
O57 O 0.14645 0.06778 0.33934 0.0
Cd58 Cd 0.03116 0.08551 0.36831 0.0
O59 O 0.06737 -0.01058 0.31341 0.0
Cd60 Cd 0.96439 0.92755 0.3465 0.0
C61 C 0.88237 0.0788 0.31236 0.0
O62 O 0.01658 0.96479 0.39497 0.0
O63 O 0.88971 0.95129 0.39424 0.0
O64 O 0.03541 0.80278 0.34132 0.0
C65 C 0.95239 0.96133 0.4095 0.0
O66 O 0.93343 0.11572 0.32817 0.0
C67 C -0.02598 0.7606 0.33823 0.0
O68 O 0.87332 0.00454 0.31517 0.0
O69 O 0.9078 0.79603 0.33789 0.0
C70 C 0.16136 0.86978 0.56491 0.0
O71 O 0.12636 0.88722 0.58934 0.0
Cd72 Cd 0.10861 0.77191 0.6183 0.0
O73 O 0.20471 0.80816 0.5634 0.0
Cd74 Cd 0.26656 0.70515 0.59648 0.0
C75 C 0.11531 0.62317 0.56234 0.0
O76 O 0.22932 0.75729 0.64497 0.0
O77 O 0.24279 0.63042 0.64421 0.0
O78 O 0.39134 0.77617 0.59133 0.0
C79 C 0.23276 0.69309 0.65948 0.0
O80 O 0.07838 0.67421 0.57814 0.0
C81 C 0.43353 0.71478 0.58823 0.0
O82 O 0.18957 0.61411 0.56514 0.0
O83 O 0.39809 0.64858 0.58787 0.0
C84 C 0.32427 0.90193 0.81491 0.0
O85 O 0.30681 0.86694 0.83934 0.0
Cd86 Cd 0.42211 0.84921 0.86831 0.0
O87 O 0.3859 0.94529 0.81341 0.0
Cd88 Cd 0.48888 0.00717 0.8465 0.0
C89 C 0.57089 0.85592 0.81236 0.0
O90 O 0.43668 -0.03006 0.89497 0.0
O91 O 0.56356 -0.01657 0.89424 0.0
O92 O 0.41786 0.13194 0.84132 0.0
C93 C 0.50088 -0.02661 0.9095 0.0
O94 O 0.51984 0.819 0.82817 0.0
C95 C 0.47925 0.17412 0.83823 0.0
O96 O 0.57995 0.93017 0.81517 0.0
O97 O 0.54546 0.13869 0.83789 0.0
C98 C 0.29191 0.06494 0.06491 0.0
O99 O 0.32691 0.0475 0.08934 0.0
Cd100 Cd 0.34466 0.16281 0.1183 0.0
O101 O 0.24856 0.12656 0.0634 0.0
Cd102 Cd 0.1867 0.22957 0.09648 0.0
C103 C 0.33796 0.31155 0.06234 0.0
O104 O 0.22395 0.17743 0.14497 0.0
O105 O 0.21047 0.3043 0.14421 0.0
O106 O 0.06192 0.15855 0.09133 0.0
C107 C 0.22051 0.24163 0.15948 0.0
O108 O 0.37488 0.26051 0.07814 0.0
C109 C 0.01974 0.21994 0.08823 0.0
O110 O 0.2637 0.32061 0.06514 0.0
O111 O 0.05518 0.28615 0.08788 0.0
C112 C 0.66101 0.36981 0.06494 0.0
O113 O 0.62598 0.38719 0.08938 0.0
Cd114 Cd 0.60834 0.27187 0.11834 0.0
O115 O 0.70443 0.30823 0.06344 0.0
Cd116 Cd 0.76631 0.2052 0.09651 0.0
C117 C 0.61507 0.12317 0.06237 0.0
O118 O 0.72909 0.25733 0.145 0.0
O119 O 0.7426 0.13046 0.14424 0.0
O120 O 0.89109 0.27624 0.09134 0.0
C121 C 0.73257 0.19313 0.15951 0.0
O122 O 0.57813 0.17418 0.07818 0.0
C123 C 0.93327 0.21485 0.08824 0.0
O124 O 0.68934 0.11415 0.06516 0.0
O125 O 0.89784 0.14864 0.08788 0.0
C126 C 0.79226 0.56491 0.56494 0.0
O127 O 0.82729 0.54753 0.58938 0.0
Cd128 Cd 0.84493 0.66285 0.61834 0.0
O129 O 0.74884 0.62649 0.56344 0.0
Cd130 Cd 0.68695 0.72952 0.59651 0.0
C131 C 0.8382 0.81155 0.56237 0.0
O132 O 0.72418 0.67739 0.64499 0.0
O133 O 0.71066 0.80426 0.64424 0.0
O134 O 0.56218 0.65848 0.59134 0.0
C135 C 0.72069 0.74159 0.65951 0.0
O136 O 0.87514 0.76054 0.57818 0.0
C137 C 0.51999 0.71987 0.58824 0.0
O138 O 0.76393 0.82057 0.56516 0.0
O139 O 0.55543 0.78608 0.58788 0.0
C140 C 0.79201 0.3698 0.28684 0.0
O141 O 0.827 0.38721 0.2624 0.0
Cd142 Cd 0.8447 0.27191 0.23344 0.0
O143 O 0.74862 0.3082 0.28834 0.0
Cd144 Cd 0.68674 0.20518 0.25527 0.0
C145 C 0.83799 0.12318 0.2894 0.0
O146 O 0.72396 0.25733 0.20678 0.0
O147 O 0.71048 0.13046 0.20753 0.0
O148 O 0.56196 0.27621 0.26042 0.0
C149 C 0.72051 0.19312 0.19226 0.0
O150 O 0.87492 0.1742 0.27359 0.0
C151 C 0.51977 0.21482 0.26352 0.0
O152 O 0.76373 0.11414 0.2866 0.0
O153 O 0.55521 0.14862 0.26388 0.0
C154 C 0.66125 0.56492 0.78684 0.0
O155 O 0.62626 0.5475 0.7624 0.0
Cd156 Cd 0.60857 0.66281 0.73344 0.0
O157 O 0.70464 0.62652 0.78834 0.0
Cd158 Cd 0.76653 0.72953 0.75527 0.0
C159 C 0.61528 0.81154 0.7894 0.0
O160 O 0.7293 0.67739 0.70678 0.0
O161 O 0.74279 0.80426 0.70754 0.0
O162 O 0.8913 0.6585 0.76042 0.0
C163 C 0.73276 0.7416 0.69226 0.0
O164 O 0.57834 0.76051 0.77359 0.0
C165 C 0.93349 0.71989 0.76352 0.0
O166 O 0.68954 0.82058 0.7866 0.0
O167 O 0.89806 0.7861 0.76388 0.0
C168 C 0.62896 0.40197 0.03684 0.0
O169 O 0.64642 0.36698 0.01241 0.0
Cd170 Cd 0.53113 0.34925 -0.01657 0.0
O171 O 0.56733 0.44533 0.03834 0.0
Cd172 Cd 0.46435 0.5072 0.00525 0.0
C173 C 0.38234 0.35594 0.03938 0.0
O174 O 0.51654 0.46998 -0.04323 0.0
O175 O 0.38967 0.48345 -0.04249 0.0
O176 O 0.53536 0.63197 0.01043 0.0
C177 C 0.45235 0.47343 -0.05775 0.0
O178 O 0.43339 0.31902 0.02357 0.0
C179 C 0.47396 0.67415 0.01351 0.0
O180 O 0.37328 0.43019 0.03658 0.0
O181 O 0.40775 0.63871 0.01386 0.0
C182 C 0.82431 0.53275 0.53684 0.0
O183 O 0.80685 0.56774 0.5124 0.0
Cd184 Cd 0.92214 0.58546 0.48343 0.0
O185 O 0.88594 0.48939 0.53834 0.0
Cd186 Cd -0.01108 0.42752 0.50525 0.0
C187 C 0.07093 0.57878 0.53937 0.0
O188 O 0.93672 0.46473 0.45677 0.0
O189 O 0.0636 0.45127 0.45751 0.0
O190 O 0.91791 0.30275 0.51043 0.0
C191 C 0.00092 0.46128 0.44225 0.0
O192 O 0.01988 0.6157 0.52357 0.0
C193 C -0.02069 0.26057 0.51351 0.0
O194 O 0.07998 0.50453 0.53658 0.0
O195 O 0.04552 0.296 0.51386 0.0
C196 C 0.62917 0.53278 0.81494 0.0
O197 O 0.64658 0.5678 0.83937 0.0
Cd198 Cd 0.53124 0.58551 0.86833 0.0
O199 O 0.56755 0.4894 0.81343 0.0
Cd200 Cd 0.46452 0.42753 0.8465 0.0
C201 C 0.38254 0.57877 0.81235 0.0
O202 O 0.51661 0.46479 0.89499 0.0
O203 O 0.38974 0.45127 0.89422 0.0
O204 O 0.53555 0.30276 0.84135 0.0
C205 C 0.45239 0.46134 0.90949 0.0
O206 O 0.43356 0.61571 0.82816 0.0
C207 C 0.47416 0.26058 0.83824 0.0
O208 O 0.37349 0.50451 0.81515 0.0
O209 O 0.40795 0.29601 0.83787 0.0
C210 C 0.8241 0.40194 0.31494 0.0
O211 O 0.80669 0.36692 0.33938 0.0
Cd212 Cd 0.92203 0.34921 0.36833 0.0
O213 O 0.88571 0.44532 0.31343 0.0
Cd214 Cd -0.01125 0.50719 0.3465 0.0
C215 C 0.07073 0.35595 0.31235 0.0
O216 O 0.93666 0.46993 0.39499 0.0
O217 O 0.06353 0.48345 0.39422 0.0
O218 O 0.91771 0.63196 0.34135 0.0
C219 C 0.00088 0.47338 0.40949 0.0
O220 O 0.01971 0.31901 0.32816 0.0
C221 C -0.02089 0.67414 0.33824 0.0
O222 O 0.07977 0.4302 0.31515 0.0
O223 O 0.04532 0.63871 0.33787 0.0
loop_
_geom_bond_atom_site_label_1
_geom_bond_atom_site_label_2
_geom_bond_distance
_geom_bond_site_symmetry_2
_ccdc_geom_bond_type
C0 O1 1.306 . S
C0 O3 1.160 1_565 S
O1 C0 1.306 . S
O1 Cd2 2.228 . S
Cd2 O1 2.228 . S
Cd2 O6 2.273 . S
Cd2 O10 2.277 1_455 S
O3 C0 1.160 1_545 S
O3 Cd4 2.203 1_455 S
Cd4 O3 2.203 1_655 S
Cd4 O6 2.411 1_645 S
Cd4 O7 2.333 . S
Cd4 O8 2.352 1_655 S
Cd4 O12 2.277 1_545 S
Cd4 O13 2.356 . S
C5 O10 1.209 . S
C5 O12 1.226 . S
O6 Cd2 2.273 . S
O6 Cd4 2.411 1_465 S
O6 C9 1.320 1_465 S
O7 Cd4 2.333 . S
O7 C9 1.214 . S
O8 Cd4 2.352 1_455 S
O8 C11 1.258 . S
C9 O6 1.320 1_645 S
C9 O7 1.214 . S
O10 Cd2 2.277 1_655 S
O10 C5 1.209 . S
C11 O8 1.258 . S
C11 O13 1.282 1_455 S
O12 Cd4 2.277 1_565 S
O12 C5 1.226 . S
O13 Cd4 2.356 . S
O13 C11 1.282 1_655 S
C14 O15 1.306 . S
C14 O17 1.160 . S
O15 C14 1.306 . S
O15 Cd16 2.228 . S
Cd16 O15 2.228 . S
Cd16 O20 2.273 . S
Cd16 O24 2.277 . S
O17 C14 1.160 . S
O17 Cd18 2.203 . S
Cd18 O17 2.203 . S
Cd18 O20 2.411 . S
Cd18 O21 2.333 . S
Cd18 O22 2.352 . S
Cd18 O26 2.277 . S
Cd18 O27 2.356 . S
C19 O24 1.209 . S
C19 O26 1.226 . S
O20 Cd16 2.273 . S
O20 Cd18 2.411 . S
O20 C23 1.320 . S
O21 Cd18 2.333 . S
O21 C23 1.214 . S
O22 Cd18 2.352 . S
O22 C25 1.258 . S
C23 O20 1.320 . S
C23 O21 1.214 . S
O24 Cd16 2.277 . S
O24 C19 1.209 . S
C25 O22 1.258 . S
C25 O27 1.282 . S
O26 Cd18 2.277 . S
O26 C19 1.226 . S
O27 Cd18 2.356 . S
O27 C25 1.282 . S
C28 O29 1.306 . S
C28 O31 1.160 1_545 S
O29 C28 1.306 . S
O29 Cd30 2.228 . S
Cd30 O29 2.228 . S
Cd30 O34 2.273 . S
Cd30 O38 2.277 . S
O31 C28 1.160 1_565 S
O31 Cd32 2.203 . S
Cd32 O31 2.203 . S
Cd32 O34 2.411 1_565 S
Cd32 O35 2.333 . S
Cd32 O36 2.352 . S
Cd32 O40 2.277 1_565 S
Cd32 O41 2.356 . S
C33 O38 1.209 . S
C33 O40 1.226 . S
O34 Cd30 2.273 . S
O34 Cd32 2.411 1_545 S
O34 C37 1.320 1_545 S
O35 Cd32 2.333 . S
O35 C37 1.214 . S
O36 Cd32 2.352 . S
O36 C39 1.258 . S
C37 O34 1.320 1_565 S
C37 O35 1.214 . S
O38 Cd30 2.277 . S
O38 C33 1.209 . S
C39 O36 1.258 . S
C39 O41 1.282 . S
O40 Cd32 2.277 1_545 S
O40 C33 1.226 . S
O41 Cd32 2.356 . S
O41 C39 1.282 . S
C42 O43 1.306 . S
C42 O45 1.160 . S
O43 C42 1.306 . S
O43 Cd44 2.228 . S
Cd44 O43 2.228 . S
Cd44 O48 2.273 . S
Cd44 O52 2.277 . S
O45 C42 1.160 . S
O45 Cd46 2.203 . S
Cd46 O45 2.203 . S
Cd46 O48 2.411 . S
Cd46 O49 2.333 . S
Cd46 O50 2.352 . S
Cd46 O54 2.277 . S
Cd46 O55 2.356 . S
C47 O52 1.209 . S
C47 O54 1.226 . S
O48 Cd44 2.273 . S
O48 Cd46 2.411 . S
O48 C51 1.320 . S
O49 Cd46 2.333 . S
O49 C51 1.214 . S
O50 Cd46 2.352 . S
O50 C53 1.258 . S
C51 O48 1.320 . S
C51 O49 1.214 . S
O52 Cd44 2.277 . S
O52 C47 1.209 . S
C53 O50 1.258 . S
C53 O55 1.282 . S
O54 Cd46 2.277 . S
O54 C47 1.226 . S
O55 Cd46 2.356 . S
O55 C53 1.282 . S
C56 O57 1.306 . S
C56 O59 1.160 1_545 S
O57 C56 1.306 . S
O57 Cd58 2.228 . S
Cd58 O57 2.228 . S
Cd58 O62 2.273 . S
Cd58 O66 2.277 1_455 S
O59 C56 1.160 1_565 S
O59 Cd60 2.203 1_455 S
Cd60 O59 2.203 1_655 S
Cd60 O62 2.411 1_665 S
Cd60 O63 2.333 . S
Cd60 O64 2.352 1_655 S
Cd60 O68 2.277 1_565 S
Cd60 O69 2.356 . S
C61 O66 1.209 . S
C61 O68 1.226 . S
O62 Cd58 2.273 . S
O62 Cd60 2.411 1_445 S
O62 C65 1.320 1_445 S
O63 Cd60 2.333 . S
O63 C65 1.214 . S
O64 Cd60 2.352 1_455 S
O64 C67 1.258 . S
C65 O62 1.320 1_665 S
C65 O63 1.214 . S
O66 Cd58 2.277 1_655 S
O66 C61 1.209 . S
C67 O64 1.258 . S
C67 O69 1.282 1_455 S
O68 Cd60 2.277 1_545 S
O68 C61 1.226 . S
O69 Cd60 2.356 . S
O69 C67 1.282 1_655 S
C70 O71 1.306 . S
C70 O73 1.160 . S
O71 C70 1.306 . S
O71 Cd72 2.228 . S
Cd72 O71 2.228 . S
Cd72 O76 2.273 . S
Cd72 O80 2.277 . S
O73 C70 1.160 . S
O73 Cd74 2.203 . S
Cd74 O73 2.203 . S
Cd74 O76 2.411 . S
Cd74 O77 2.333 . S
Cd74 O78 2.352 . S
Cd74 O82 2.277 . S
Cd74 O83 2.356 . S
C75 O80 1.209 . S
C75 O82 1.226 . S
O76 Cd72 2.273 . S
O76 Cd74 2.411 . S
O76 C79 1.320 . S
O77 Cd74 2.333 . S
O77 C79 1.214 . S
O78 Cd74 2.352 . S
O78 C81 1.258 . S
C79 O76 1.320 . S
C79 O77 1.214 . S
O80 Cd72 2.277 . S
O80 C75 1.209 . S
C81 O78 1.258 . S
C81 O83 1.282 . S
O82 Cd74 2.277 . S
O82 C75 1.226 . S
O83 Cd74 2.356 . S
O83 C81 1.282 . S
C84 O85 1.306 . S
C84 O87 1.160 1_565 S
O85 C84 1.306 . S
O85 Cd86 2.228 . S
Cd86 O85 2.228 . S
Cd86 O90 2.273 . S
Cd86 O94 2.277 . S
O87 C84 1.160 1_545 S
O87 Cd88 2.203 . S
Cd88 O87 2.203 . S
Cd88 O90 2.411 1_545 S
Cd88 O91 2.333 . S
Cd88 O92 2.352 . S
Cd88 O96 2.277 1_545 S
Cd88 O97 2.356 . S
C89 O94 1.209 . S
C89 O96 1.226 . S
O90 Cd86 2.273 . S
O90 Cd88 2.411 1_565 S
O90 C93 1.320 1_565 S
O91 Cd88 2.333 . S
O91 C93 1.214 . S
O92 Cd88 2.352 . S
O92 C95 1.258 . S
C93 O90 1.320 1_545 S
C93 O91 1.214 . S
O94 Cd86 2.277 . S
O94 C89 1.209 . S
C95 O92 1.258 . S
C95 O97 1.282 . S
O96 Cd88 2.277 1_565 S
O96 C89 1.226 . S
O97 Cd88 2.356 . S
O97 C95 1.282 . S
C98 O99 1.306 . S
C98 O101 1.160 . S
O99 C98 1.306 . S
O99 Cd100 2.228 . S
Cd100 O99 2.228 . S
Cd100 O104 2.273 . S
Cd100 O108 2.277 . S
O101 C98 1.160 . S
O101 Cd102 2.203 . S
Cd102 O101 2.203 . S
Cd102 O104 2.411 . S
Cd102 O105 2.333 . S
Cd102 O106 2.352 . S
Cd102 O110 2.277 . S
Cd102 O111 2.356 . S
C103 O108 1.209 . S
C103 O110 1.226 . S
O104 Cd100 2.273 . S
O104 Cd102 2.411 . S
O104 C107 1.320 . S
O105 Cd102 2.333 . S
O105 C107 1.214 . S
O106 Cd102 2.352 . S
O106 C109 1.258 . S
C107 O104 1.320 . S
C107 O105 1.214 . S
O108 Cd100 2.277 . S
O108 C103 1.209 . S
C109 O106 1.258 . S
C109 O111 1.282 . S
O110 Cd102 2.277 . S
O110 C103 1.226 . S
O111 Cd102 2.356 . S
O111 C109 1.282 . S
C112 O113 1.306 . S
C112 O115 1.160 . S
O113 C112 1.306 . S
O113 Cd114 2.228 . S
Cd114 O113 2.228 . S
Cd114 O118 2.273 . S
Cd114 O122 2.277 . S
O115 C112 1.160 . S
O115 Cd116 2.203 . S
Cd116 O115 2.203 . S
Cd116 O118 2.411 . S
Cd116 O119 2.333 . S
Cd116 O120 2.352 . S
Cd116 O124 2.277 . S
Cd116 O125 2.356 . S
C117 O122 1.209 . S
C117 O124 1.226 . S
O118 Cd114 2.273 . S
O118 Cd116 2.411 . S
O118 C121 1.320 . S
O119 Cd116 2.333 . S
O119 C121 1.214 . S
O120 Cd116 2.352 . S
O120 C123 1.258 . S
C121 O118 1.320 . S
C121 O119 1.214 . S
O122 Cd114 2.277 . S
O122 C117 1.209 . S
C123 O120 1.258 . S
C123 O125 1.282 . S
O124 Cd116 2.277 . S
O124 C117 1.226 . S
O125 Cd116 2.356 . S
O125 C123 1.282 . S
C126 O127 1.306 . S
C126 O129 1.160 . S
O127 C126 1.306 . S
O127 Cd128 2.228 . S
Cd128 O127 2.228 . S
Cd128 O132 2.273 . S
Cd128 O136 2.277 . S
O129 C126 1.160 . S
O129 Cd130 2.203 . S
Cd130 O129 2.203 . S
Cd130 O132 2.411 . S
Cd130 O133 2.333 . S
Cd130 O134 2.352 . S
Cd130 O138 2.277 . S
Cd130 O139 2.356 . S
C131 O136 1.209 . S
C131 O138 1.226 . S
O132 Cd128 2.273 . S
O132 Cd130 2.411 . S
O132 C135 1.320 . S
O133 Cd130 2.333 . S
O133 C135 1.214 . S
O134 Cd130 2.352 . S
O134 C137 1.258 . S
C135 O132 1.320 . S
C135 O133 1.214 . S
O136 Cd128 2.277 . S
O136 C131 1.209 . S
C137 O134 1.258 . S
C137 O139 1.282 . S
O138 Cd130 2.277 . S
O138 C131 1.226 . S
O139 Cd130 2.356 . S
O139 C137 1.282 . S
C140 O141 1.306 . S
C140 O143 1.160 . S
O141 C140 1.306 . S
O141 Cd142 2.228 . S
Cd142 O141 2.228 . S
Cd142 O146 2.273 . S
Cd142 O150 2.277 . S
O143 C140 1.160 . S
O143 Cd144 2.203 . S
Cd144 O143 2.203 . S
Cd144 O146 2.411 . S
Cd144 O147 2.333 . S
Cd144 O148 2.352 . S
Cd144 O152 2.277 . S
Cd144 O153 2.356 . S
C145 O150 1.209 . S
C145 O152 1.226 . S
O146 Cd142 2.273 . S
O146 Cd144 2.411 . S
O146 C149 1.320 . S
O147 Cd144 2.333 . S
O147 C149 1.214 . S
O148 Cd144 2.352 . S
O148 C151 1.258 . S
C149 O146 1.320 . S
C149 O147 1.214 . S
O150 Cd142 2.277 . S
O150 C145 1.209 . S
C151 O148 1.258 . S
C151 O153 1.282 . S
O152 Cd144 2.277 . S
O152 C145 1.226 . S
O153 Cd144 2.356 . S
O153 C151 1.282 . S
C154 O155 1.306 . S
C154 O157 1.160 . S
O155 C154 1.306 . S
O155 Cd156 2.228 . S
Cd156 O155 2.228 . S
Cd156 O160 2.273 . S
Cd156 O164 2.277 . S
O157 C154 1.160 . S
O157 Cd158 2.203 . S
Cd158 O157 2.203 . S
Cd158 O160 2.411 . S
Cd158 O161 2.333 . S
Cd158 O162 2.352 . S
Cd158 O166 2.277 . S
Cd158 O167 2.356 . S
C159 O164 1.209 . S
C159 O166 1.226 . S
O160 Cd156 2.273 . S
O160 Cd158 2.411 . S
O160 C163 1.320 . S
O161 Cd158 2.333 . S
O161 C163 1.214 . S
O162 Cd158 2.352 . S
O162 C165 1.258 . S
C163 O160 1.320 . S
C163 O161 1.214 . S
O164 Cd156 2.277 . S
O164 C159 1.209 . S
C165 O162 1.258 . S
C165 O167 1.282 . S
O166 Cd158 2.277 . S
O166 C159 1.226 . S
O167 Cd158 2.356 . S
O167 C165 1.282 . S
C168 O169 1.306 . S
C168 O171 1.160 . S
O169 C168 1.306 . S
O169 Cd170 2.228 . S
Cd170 O169 2.228 . S
Cd170 O174 2.273 . S
Cd170 O178 2.277 . S
O171 C168 1.160 . S
O171 Cd172 2.203 . S
Cd172 O171 2.203 . S
Cd172 O174 2.411 . S
Cd172 O175 2.333 . S
Cd172 O176 2.352 . S
Cd172 O180 2.277 . S
Cd172 O181 2.356 . S
C173 O178 1.209 . S
C173 O180 1.226 . S
O174 Cd170 2.273 . S
O174 Cd172 2.411 . S
O174 C177 1.320 . S
O175 Cd172 2.333 . S
O175 C177 1.214 . S
O176 Cd172 2.352 . S
O176 C179 1.258 . S
C177 O174 1.320 . S
C177 O175 1.214 . S
O178 Cd170 2.277 . S
O178 C173 1.209 . S
C179 O176 1.258 . S
C179 O181 1.282 . S
O180 Cd172 2.277 . S
O180 C173 1.226 . S
O181 Cd172 2.356 . S
O181 C179 1.282 . S
C182 O183 1.306 . S
C182 O185 1.160 . S
O183 C182 1.306 . S
O183 Cd184 2.228 . S
Cd184 O183 2.228 . S
Cd184 O188 2.273 . S
Cd184 O192 2.277 1_655 S
O185 C182 1.160 . S
O185 Cd186 2.203 1_655 S
Cd186 O185 2.203 1_455 S
Cd186 O188 2.411 1_455 S
Cd186 O189 2.333 . S
Cd186 O190 2.352 1_455 S
Cd186 O194 2.277 . S
Cd186 O195 2.356 . S
C187 O192 1.209 . S
C187 O194 1.226 . S
O188 Cd184 2.273 . S
O188 Cd186 2.411 1_655 S
O188 C191 1.320 1_655 S
O189 Cd186 2.333 . S
O189 C191 1.214 . S
O190 Cd186 2.352 1_655 S
O190 C193 1.258 . S
C191 O188 1.320 1_455 S
C191 O189 1.214 . S
O192 Cd184 2.277 1_455 S
O192 C187 1.209 . S
C193 O190 1.258 . S
C193 O195 1.282 1_655 S
O194 Cd186 2.277 . S
O194 C187 1.226 . S
O195 Cd186 2.356 . S
O195 C193 1.282 1_455 S
C196 O197 1.306 . S
C196 O199 1.160 . S
O197 C196 1.306 . S
O197 Cd198 2.228 . S
Cd198 O197 2.228 . S
Cd198 O202 2.273 . S
Cd198 O206 2.277 . S
O199 C196 1.160 . S
O199 Cd200 2.203 . S
Cd200 O199 2.203 . S
Cd200 O202 2.411 . S
Cd200 O203 2.333 . S
Cd200 O204 2.352 . S
Cd200 O208 2.277 . S
Cd200 O209 2.356 . S
C201 O206 1.209 . S
C201 O208 1.226 . S
O202 Cd198 2.273 . S
O202 Cd200 2.411 . S
O202 C205 1.320 . S
O203 Cd200 2.333 . S
O203 C205 1.214 . S
O204 Cd200 2.352 . S
O204 C207 1.258 . S
C205 O202 1.320 . S
C205 O203 1.214 . S
O206 Cd198 2.277 . S
O206 C201 1.209 . S
C207 O204 1.258 . S
C207 O209 1.282 . S
O208 Cd200 2.277 . S
O208 C201 1.226 . S
O209 Cd200 2.356 . S
O209 C207 1.282 . S
C210 O211 1.306 . S
C210 O213 1.160 . S
O211 C210 1.306 . S
O211 Cd212 2.228 . S
Cd212 O211 2.228 . S
Cd212 O216 2.273 . S
Cd212 O220 2.277 1_655 S
O213 C210 1.160 . S
O213 Cd214 2.203 1_655 S
Cd214 O213 2.203 1_455 S
Cd214 O216 2.411 1_455 S
Cd214 O217 2.333 . S
Cd214 O218 2.352 1_455 S
Cd214 O222 2.277 . S
Cd214 O223 2.356 . S
C215 O220 1.209 . S
C215 O222 1.226 . S
O216 Cd212 2.273 . S
O216 Cd214 2.411 1_655 S
O216 C219 1.320 1_655 S
O217 Cd214 2.333 . S
O217 C219 1.214 . S
O218 Cd214 2.352 1_655 S
O218 C221 1.258 . S
C219 O216 1.320 1_455 S
C219 O217 1.214 . S
O220 Cd212 2.277 1_455 S
O220 C215 1.209 . S
C221 O218 1.258 . S
C221 O223 1.282 1_655 S
O222 Cd214 2.277 . S
O222 C215 1.226 . S
O223 Cd214 2.356 . S
O223 C221 1.282 1_455 S
C11 C193 1.440 1_455 S
C165 C25 1.440 1_655 S
C179 C39 1.440 . S
C151 C53 1.440 . S
C67 C221 1.440 1_455 S
C81 C137 1.440 . S
C207 C95 1.440 . S
C109 C123 1.440 1_455 S
C65 C9 1.707 1_565 S
C23 C79 1.708 . S
C37 C93 1.707 1_564 S
C107 C51 1.708 . S
C121 C149 1.708 . S
C135 C163 1.708 . S
C205 C177 1.707 1_556 S
C191 C219 1.708 . S
C70 C0 1.633 . S
C14 C84 1.633 . S
C28 C98 1.633 . S
C56 C42 1.633 . S
C61 C145 1.412 . S
C33 C117 1.412 . S
C159 C89 1.412 . S
C131 C5 1.412 . S
C112 C168 1.633 . S
C140 C210 1.633 . S
C182 C126 1.633 . S
C154 C196 1.633 . S
C201 C19 1.412 . S
C187 C75 1.411 . S
C215 C47 1.411 . S
C173 C103 1.412 . S
