# Generated by pormake.
# Topology wgs, (5)-cn, num edge types: 1
# Building blocks:
#     Node 0, Type 0, BuildingBlock: BEQFEK_clean_sbu_0, # of connection points: 5
#     Node 1, Type 0, BuildingBlock: BEQFEK_clean_sbu_0, # of connection points: 5
#     Node 2, Type 0, BuildingBlock: BEQFEK_clean_sbu_0, # of connection points: 5
#     Node 3, Type 0, BuildingBlock: BEQFEK_clean_sbu_0, # of connection points: 5
#     Node 4, Type 0, BuildingBlock: BEQFEK_clean_sbu_0, # of connection points: 5
#     Node 5, Type 0, BuildingBlock: BEQFEK_clean_sbu_0, # of connection points: 5
#     Node 6, Type 0, BuildingBlock: BEQFEK_clean_sbu_0, # of connection points: 5
#     Node 7, Type 0, BuildingBlock: BEQFEK_clean_sbu_0, # of connection points: 5
#     Node 8, Type 0, BuildingBlock: BEQFEK_clean_sbu_0, # of connection points: 5
#     Node 9, Type 0, BuildingBlock: BEQFEK_clean_sbu_0, # of connection points: 5
#     Node 10, Type 0, BuildingBlock: BEQFEK_clean_sbu_0, # of connection points: 5
#     Node 11, Type 0, BuildingBlock: BEQFEK_clean_sbu_0, # of connection points: 5
#     Node 12, Type 0, BuildingBlock: BEQFEK_clean_sbu_0, # of connection points: 5
#     Node 13, Type 0, BuildingBlock: BEQFEK_clean_sbu_0, # of connection points: 5
#     Node 14, Type 0, BuildingBlock: BEQFEK_clean_sbu_0, # of connection points: 5
#     Node 15, Type 0, BuildingBlock: BEQFEK_clean_sbu_0, # of connection points: 5
#     Node 16, Type 0, BuildingBlock: BEQFEK_clean_sbu_0, # of connection points: 5
#     Node 17, Type 0, BuildingBlock: BEQFEK_clean_sbu_0, # of connection points: 5
#     Node 18, Type 0, BuildingBlock: BEQFEK_clean_sbu_0, # of connection points: 5
#     Node 19, Type 0, BuildingBlock: BEQFEK_clean_sbu_0, # of connection points: 5
#     Node 20, Type 0, BuildingBlock: BEQFEK_clean_sbu_0, # of connection points: 5
#     Node 21, Type 0, BuildingBlock: BEQFEK_clean_sbu_0, # of connection points: 5
#     Node 22, Type 0, BuildingBlock: BEQFEK_clean_sbu_0, # of connection points: 5
#     Node 23, Type 0, BuildingBlock: BEQFEK_clean_sbu_0, # of connection points: 5
#     Node 24, Type 0, BuildingBlock: BEQFEK_clean_sbu_0, # of connection points: 5
#     Node 25, Type 0, BuildingBlock: BEQFEK_clean_sbu_0, # of connection points: 5
#     Node 26, Type 0, BuildingBlock: BEQFEK_clean_sbu_0, # of connection points: 5
#     Node 27, Type 0, BuildingBlock: BEQFEK_clean_sbu_0, # of connection points: 5
#     Node 28, Type 0, BuildingBlock: BEQFEK_clean_sbu_0, # of connection points: 5
#     Node 29, Type 0, BuildingBlock: BEQFEK_clean_sbu_0, # of connection points: 5
#     Node 30, Type 0, BuildingBlock: BEQFEK_clean_sbu_0, # of connection points: 5
#     Node 31, Type 0, BuildingBlock: BEQFEK_clean_sbu_0, # of connection points: 5
#     Edge 32, Type (0, 0), BuildingBlock: ZUJKAS_clean_linker_0, # of connection points: 2
#     Edge 33, Type (0, 0), BuildingBlock: ZUJKAS_clean_linker_0, # of connection points: 2
#     Edge 34, Type (0, 0), BuildingBlock: ZUJKAS_clean_linker_0, # of connection points: 2
#     Edge 35, Type (0, 0), BuildingBlock: ZUJKAS_clean_linker_0, # of connection points: 2
#     Edge 36, Type (0, 0), BuildingBlock: ZUJKAS_clean_linker_0, # of connection points: 2
#     Edge 37, Type (0, 0), BuildingBlock: ZUJKAS_clean_linker_0, # of connection points: 2
#     Edge 38, Type (0, 0), BuildingBlock: ZUJKAS_clean_linker_0, # of connection points: 2
#     Edge 39, Type (0, 0), BuildingBlock: ZUJKAS_clean_linker_0, # of connection points: 2
#     Edge 40, Type (0, 0), BuildingBlock: ZUJKAS_clean_linker_0, # of connection points: 2
#     Edge 41, Type (0, 0), BuildingBlock: ZUJKAS_clean_linker_0, # of connection points: 2
#     Edge 42, Type (0, 0), BuildingBlock: ZUJKAS_clean_linker_0, # of connection points: 2
#     Edge 43, Type (0, 0), BuildingBlock: ZUJKAS_clean_linker_0, # of connection points: 2
#     Edge 44, Type (0, 0), BuildingBlock: ZUJKAS_clean_linker_0, # of connection points: 2
#     Edge 45, Type (0, 0), BuildingBlock: ZUJKAS_clean_linker_0, # of connection points: 2
#     Edge 46, Type (0, 0), BuildingBlock: ZUJKAS_clean_linker_0, # of connection points: 2
#     Edge 47, Type (0, 0), BuildingBlock: ZUJKAS_clean_linker_0, # of connection points: 2
#     Edge 48, Type (0, 0), BuildingBlock: ZUJKAS_clean_linker_0, # of connection points: 2
#     Edge 49, Type (0, 0), BuildingBlock: ZUJKAS_clean_linker_0, # of connection points: 2
#     Edge 50, Type (0, 0), BuildingBlock: ZUJKAS_clean_linker_0, # of connection points: 2
#     Edge 51, Type (0, 0), BuildingBlock: ZUJKAS_clean_linker_0, # of connection points: 2
#     Edge 52, Type (0, 0), BuildingBlock: ZUJKAS_clean_linker_0, # of connection points: 2
#     Edge 53, Type (0, 0), BuildingBlock: ZUJKAS_clean_linker_0, # of connection points: 2
#     Edge 54, Type (0, 0), BuildingBlock: ZUJKAS_clean_linker_0, # of connection points: 2
#     Edge 55, Type (0, 0), BuildingBlock: ZUJKAS_clean_linker_0, # of connection points: 2
#     Edge 56, Type (0, 0), BuildingBlock: ZUJKAS_clean_linker_0, # of connection points: 2
#     Edge 57, Type (0, 0), BuildingBlock: ZUJKAS_clean_linker_0, # of connection points: 2
#     Edge 58, Type (0, 0), BuildingBlock: ZUJKAS_clean_linker_0, # of connection points: 2
#     Edge 59, Type (0, 0), BuildingBlock: ZUJKAS_clean_linker_0, # of connection points: 2
#     Edge 60, Type (0, 0), BuildingBlock: ZUJKAS_clean_linker_0, # of connection points: 2
#     Edge 61, Type (0, 0), BuildingBlock: ZUJKAS_clean_linker_0, # of connection points: 2
#     Edge 62, Type (0, 0), BuildingBlock: ZUJKAS_clean_linker_0, # of connection points: 2
#     Edge 63, Type (0, 0), BuildingBlock: ZUJKAS_clean_linker_0, # of connection points: 2
#     Edge 64, Type (0, 0), BuildingBlock: ZUJKAS_clean_linker_0, # of connection points: 2
#     Edge 65, Type (0, 0), BuildingBlock: ZUJKAS_clean_linker_0, # of connection points: 2
#     Edge 66, Type (0, 0), BuildingBlock: ZUJKAS_clean_linker_0, # of connection points: 2
#     Edge 67, Type (0, 0), BuildingBlock: ZUJKAS_clean_linker_0, # of connection points: 2
#     Edge 68, Type (0, 0), BuildingBlock: ZUJKAS_clean_linker_0, # of connection points: 2
#     Edge 69, Type (0, 0), BuildingBlock: ZUJKAS_clean_linker_0, # of connection points: 2
#     Edge 70, Type (0, 0), BuildingBlock: ZUJKAS_clean_linker_0, # of connection points: 2
#     Edge 71, Type (0, 0), BuildingBlock: ZUJKAS_clean_linker_0, # of connection points: 2
#     Edge 72, Type (0, 0), BuildingBlock: ZUJKAS_clean_linker_0, # of connection points: 2
#     Edge 73, Type (0, 0), BuildingBlock: ZUJKAS_clean_linker_0, # of connection points: 2
#     Edge 74, Type (0, 0), BuildingBlock: ZUJKAS_clean_linker_0, # of connection points: 2
#     Edge 75, Type (0, 0), BuildingBlock: ZUJKAS_clean_linker_0, # of connection points: 2
#     Edge 76, Type (0, 0), BuildingBlock: ZUJKAS_clean_linker_0, # of connection points: 2
#     Edge 77, Type (0, 0), BuildingBlock: ZUJKAS_clean_linker_0, # of connection points: 2
#     Edge 78, Type (0, 0), BuildingBlock: ZUJKAS_clean_linker_0, # of connection points: 2
#     Edge 79, Type (0, 0), BuildingBlock: ZUJKAS_clean_linker_0, # of connection points: 2
#     Edge 80, Type (0, 0), BuildingBlock: ZUJKAS_clean_linker_0, # of connection points: 2
#     Edge 81, Type (0, 0), BuildingBlock: ZUJKAS_clean_linker_0, # of connection points: 2
#     Edge 82, Type (0, 0), BuildingBlock: ZUJKAS_clean_linker_0, # of connection points: 2
#     Edge 83, Type (0, 0), BuildingBlock: ZUJKAS_clean_linker_0, # of connection points: 2
#     Edge 84, Type (0, 0), BuildingBlock: ZUJKAS_clean_linker_0, # of connection points: 2
#     Edge 85, Type (0, 0), BuildingBlock: ZUJKAS_clean_linker_0, # of connection points: 2
#     Edge 86, Type (0, 0), BuildingBlock: ZUJKAS_clean_linker_0, # of connection points: 2
#     Edge 87, Type (0, 0), BuildingBlock: ZUJKAS_clean_linker_0, # of connection points: 2
#     Edge 88, Type (0, 0), BuildingBlock: ZUJKAS_clean_linker_0, # of connection points: 2
#     Edge 89, Type (0, 0), BuildingBlock: ZUJKAS_clean_linker_0, # of connection points: 2
#     Edge 90, Type (0, 0), BuildingBlock: ZUJKAS_clean_linker_0, # of connection points: 2
#     Edge 91, Type (0, 0), BuildingBlock: ZUJKAS_clean_linker_0, # of connection points: 2
#     Edge 92, Type (0, 0), BuildingBlock: ZUJKAS_clean_linker_0, # of connection points: 2
#     Edge 93, Type (0, 0), BuildingBlock: ZUJKAS_clean_linker_0, # of connection points: 2
#     Edge 94, Type (0, 0), BuildingBlock: ZUJKAS_clean_linker_0, # of connection points: 2
#     Edge 95, Type (0, 0), BuildingBlock: ZUJKAS_clean_linker_0, # of connection points: 2
#     Edge 96, Type (0, 0), BuildingBlock: ZUJKAS_clean_linker_0, # of connection points: 2
#     Edge 97, Type (0, 0), BuildingBlock: ZUJKAS_clean_linker_0, # of connection points: 2
#     Edge 98, Type (0, 0), BuildingBlock: ZUJKAS_clean_linker_0, # of connection points: 2
#     Edge 99, Type (0, 0), BuildingBlock: ZUJKAS_clean_linker_0, # of connection points: 2
#     Edge 100, Type (0, 0), BuildingBlock: ZUJKAS_clean_linker_0, # of connection points: 2
#     Edge 101, Type (0, 0), BuildingBlock: ZUJKAS_clean_linker_0, # of connection points: 2
#     Edge 102, Type (0, 0), BuildingBlock: ZUJKAS_clean_linker_0, # of connection points: 2
#     Edge 103, Type (0, 0), BuildingBlock: ZUJKAS_clean_linker_0, # of connection points: 2
#     Edge 104, Type (0, 0), BuildingBlock: ZUJKAS_clean_linker_0, # of connection points: 2
#     Edge 105, Type (0, 0), BuildingBlock: ZUJKAS_clean_linker_0, # of connection points: 2
#     Edge 106, Type (0, 0), BuildingBlock: ZUJKAS_clean_linker_0, # of connection points: 2
#     Edge 107, Type (0, 0), BuildingBlock: ZUJKAS_clean_linker_0, # of connection points: 2
#     Edge 108, Type (0, 0), BuildingBlock: ZUJKAS_clean_linker_0, # of connection points: 2
#     Edge 109, Type (0, 0), BuildingBlock: ZUJKAS_clean_linker_0, # of connection points: 2
#     Edge 110, Type (0, 0), BuildingBlock: ZUJKAS_clean_linker_0, # of connection points: 2
#     Edge 111, Type (0, 0), BuildingBlock: ZUJKAS_clean_linker_0, # of connection points: 2
# Relax obj value: 0.119
# Max RMSD: 0.165
# Mean RMSD: 0.165
data_MOF--net-wgs--node1-BEQFEK_clean_sbu_0--edge1-ZUJKAS_clean_linker_0
_symmetry_space_group_name_H-M    P1
_symmetry_Int_Tables_number       1
_symmetry_cell_setting            triclinic
loop_
_symmetry_equiv_pos_as_xyz
'x, y, z'
_cell_length_a     36.763993
_cell_length_b     36.762244
_cell_length_c     189.97907
_cell_angle_alpha  89.999127
_cell_angle_beta   90.000752
_cell_angle_gamma 90.005087
loop_
_atom_site_label
_atom_site_type_symbol
_atom_site_fract_x
_atom_site_fract_y
_atom_site_fract_z
_atom_type_partial_charge
Co0 Co 0.33523 0.0506 0.32355 0.0
Co1 Co 0.33211 0.04513 0.30706 0.0
C2 C 0.38997 0.08824 0.31448 0.0
O3 O 0.37777 0.07964 0.32054 0.0
O4 O 0.37508 0.07648 0.30886 0.0
C5 C 0.36051 0.04711 0.33812 0.0
O6 O 0.39362 0.04424 0.33558 0.0
C7 C 0.35341 0.02827 0.29229 0.0
C8 C 0.29964 0.03153 0.28713 0.0
C9 C 0.33622 0.02585 0.28579 0.0
N10 N 0.32797 0.03511 0.29723 0.0
N11 N 0.29594 0.03675 0.29409 0.0
C12 C 0.39336 0.02627 0.29374 0.0
H13 H 0.39984 0.03744 0.29901 0.0
H14 H 0.40214 0.99742 0.29363 0.0
H15 H 0.40874 0.0412 0.28963 0.0
C16 C 0.33658 0.97022 0.32211 0.0
N17 N 0.33546 0.00393 0.31935 0.0
N18 N 0.33406 0.00155 0.31244 0.0
C19 C 0.33414 0.96617 0.31058 0.0
C20 C 0.33599 0.94515 0.31665 0.0
C21 C 0.33936 0.96254 0.32982 0.0
H22 H 0.31553 0.97445 0.33257 0.0
H23 H 0.36413 0.97584 0.33193 0.0
H24 H 0.3409 0.93298 0.33094 0.0
O25 O 0.29121 0.07831 0.32102 0.0
O26 O 0.2887 0.07453 0.30941 0.0
H27 H 0.30756 0.96776 0.30056 0.0
H28 H 0.32399 0.9233 0.30297 0.0
C29 C 0.32998 0.95285 0.30318 0.0
H30 H 0.35546 0.95827 0.30024 0.0
H31 H 0.27152 0.04212 0.2967 0.0
O32 O 0.33358 0.04845 0.33394 0.0
C33 C 0.27595 0.08613 0.31522 0.0
Co34 Co 0.20162 0.08286 0.57392 0.0
Co35 Co 0.20653 0.07987 0.55739 0.0
C36 C 0.16258 0.13684 0.56468 0.0
O37 O 0.17119 0.1243 0.57072 0.0
O38 O 0.17502 0.12282 0.55903 0.0
C39 C 0.19568 0.10779 0.58843 0.0
O40 O 0.18536 0.13908 0.58575 0.0
C41 C 0.21684 0.09846 0.54232 0.0
C42 C 0.23068 0.04434 0.53801 0.0
C43 C 0.22527 0.08031 0.53611 0.0
N44 N 0.21749 0.07418 0.54763 0.0
N45 N 0.22588 0.04198 0.545 0.0
C46 C 0.20513 0.13715 0.54321 0.0
H47 H 0.17659 0.13756 0.54508 0.0
H48 H 0.22211 0.15035 0.54731 0.0
H49 H 0.2067 0.15275 0.53823 0.0
C50 C 0.28171 0.08496 0.5724 0.0
N51 N 0.24795 0.08385 0.56966 0.0
N52 N 0.25012 0.08297 0.56274 0.0
C53 C 0.28544 0.08382 0.56086 0.0
C54 C 0.30665 0.08498 0.56691 0.0
C55 C 0.28952 0.08345 0.58012 0.0
H56 H 0.27346 0.06119 0.58255 0.0
H57 H 0.28077 0.10937 0.58259 0.0
H58 H 0.3188 0.07891 0.58121 0.0
O59 O 0.17509 0.03805 0.57156 0.0
O60 O 0.17715 0.03647 0.55992 0.0
H61 H 0.29435 0.05748 0.55099 0.0
H62 H 0.32785 0.09178 0.55309 0.0
C63 C 0.29858 0.08461 0.55341 0.0
H64 H 0.28271 0.10487 0.55037 0.0
H65 H 0.22789 0.01824 0.54799 0.0
O66 O 0.20493 0.08209 0.58433 0.0
C67 C 0.16658 0.02316 0.56575 0.0
Co68 Co 0.16567 0.95014 0.82379 0.0
Co69 Co 0.17102 0.95119 0.80728 0.0
C70 C 0.11371 0.90802 0.81493 0.0
O71 O 0.12465 0.91856 0.82096 0.0
O72 O 0.12899 0.91895 0.80929 0.0
C73 C 0.13991 0.95184 0.8383 0.0
O74 O 0.1072 0.94677 0.83569 0.0
C75 C 0.14858 0.96614 0.79258 0.0
C76 C 0.20065 0.95735 0.78702 0.0
C77 C 0.16437 0.96577 0.78593 0.0
N78 N 0.17449 0.95829 0.79735 0.0
N79 N 0.20553 0.95329 0.79398 0.0
C80 C 0.10925 0.97137 0.79433 0.0
H81 H 0.10342 0.96251 0.79978 0.0
H82 H 0.10225 0.00062 0.79387 0.0
H83 H 0.09198 0.95609 0.79055 0.0
C84 C 0.16158 0.02971 0.82151 0.0
N85 N 0.16407 0.99543 0.81908 0.0
N86 N 0.16721 0.99615 0.81218 0.0
C87 C 0.16738 0.03106 0.81001 0.0
C88 C 0.1635 0.0535 0.81585 0.0
C89 C 0.15679 0.03915 0.82912 0.0
H90 H 0.13503 0.02197 0.83141 0.0
H91 H 0.14956 0.0682 0.82984 0.0
H92 H 0.1824 0.03317 0.83199 0.0
O93 O 0.21101 0.9236 0.82167 0.0
O94 O 0.21526 0.92405 0.81005 0.0
H95 H 0.18399 0.07136 0.80233 0.0
H96 H 0.1491 0.04022 0.79949 0.0
C97 C 0.17452 0.04274 0.80259 0.0
H98 H 0.19548 0.02502 0.80018 0.0
H99 H 0.23001 0.94647 0.79644 0.0
O100 O 0.16676 0.95557 0.83415 0.0
C101 C 0.22747 0.9147 0.81604 0.0
Co102 Co 0.29769 0.91205 0.07383 0.0
Co103 Co 0.29494 0.9186 0.05736 0.0
C104 C 0.33858 0.86055 0.06455 0.0
O105 O 0.32879 0.87147 0.07063 0.0
O106 O 0.32706 0.87592 0.05895 0.0
C107 C 0.30262 0.88562 0.0882 0.0
O108 O 0.31387 0.85494 0.0854 0.0
C109 C 0.27961 0.89831 0.04264 0.0
C110 C 0.27585 0.9525 0.03766 0.0
C111 C 0.27308 0.91561 0.03625 0.0
N112 N 0.2858 0.92391 0.04755 0.0
N113 N 0.28379 0.95619 0.04452 0.0
C114 C 0.2775 0.85851 0.04422 0.0
H115 H 0.27085 0.85413 0.04985 0.0
H116 H 0.25675 0.84515 0.04085 0.0
H117 H 0.30433 0.84588 0.04314 0.0
C118 C 0.21805 0.90823 0.07193 0.0
N119 N 0.252 0.91093 0.06935 0.0
N120 N 0.25051 0.9142 0.06246 0.0
C121 C 0.21534 0.914 0.06044 0.0
C122 C 0.19361 0.91001 0.06638 0.0
C123 C 0.20953 0.90351 0.07958 0.0
H124 H 0.21545 0.92929 0.0824 0.0
H125 H 0.22726 0.88206 0.08183 0.0
H126 H 0.18063 0.89594 0.08042 0.0
O127 O 0.32396 0.95757 0.07183 0.0
O128 O 0.32292 0.96228 0.06021 0.0
H129 H 0.21777 0.94409 0.0508 0.0
H130 H 0.17328 0.9265 0.05278 0.0
C131 C 0.20283 0.92065 0.05305 0.0
H132 H 0.20881 0.89631 0.0498 0.0
H133 H 0.28729 0.9808 0.04718 0.0
O134 O 0.29307 0.91164 0.08421 0.0
C135 C 0.33268 0.97419 0.06621 0.0
Co136 Co 0.33622 0.94777 0.17649 0.0
Co137 Co 0.33478 0.95283 0.19297 0.0
C138 C 0.391 0.90884 0.18554 0.0
O139 O 0.37802 0.91762 0.17955 0.0
O140 O 0.37731 0.92101 0.19124 0.0
C141 C 0.36108 0.95447 0.16185 0.0
O142 O 0.39348 0.96267 0.1643 0.0
C143 C 0.35622 0.96519 0.2078 0.0
C144 C 0.30329 0.98089 0.21241 0.0
C145 C 0.33968 0.97593 0.21404 0.0
N146 N 0.33066 0.96402 0.20273 0.0
N147 N 0.2991 0.97316 0.20554 0.0
C148 C 0.39587 0.95904 0.2065 0.0
H149 H 0.40289 0.96644 0.201 0.0
H150 H 0.41269 0.97521 0.21021 0.0
H151 H 0.40209 0.92977 0.20727 0.0
C152 C 0.33834 0.02822 0.17793 0.0
N153 N 0.33755 0.99439 0.18066 0.0
N154 N 0.33764 0.99648 0.18757 0.0
C155 C 0.33902 0.03178 0.18947 0.0
C156 C 0.33938 0.05305 0.18343 0.0
C157 C 0.33565 0.03647 0.17024 0.0
H158 H 0.31646 0.01732 0.16768 0.0
H159 H 0.36281 0.03289 0.16779 0.0
H160 H 0.32634 0.06477 0.16931 0.0
O161 O 0.29155 0.92164 0.17904 0.0
O162 O 0.29075 0.92378 0.19068 0.0
H163 H 0.31485 0.04066 0.19955 0.0
H164 H 0.34876 0.07409 0.1972 0.0
C165 C 0.34143 0.04486 0.19692 0.0
H166 H 0.36235 0.02898 0.19977 0.0
H167 H 0.27473 0.97463 0.20274 0.0
O168 O 0.33497 0.94908 0.1661 0.0
C169 C 0.27693 0.91335 0.18488 0.0
Co170 Co 0.29989 0.08821 0.42628 0.0
Co171 Co 0.29864 0.07955 0.44272 0.0
C172 C 0.3418 0.13849 0.43564 0.0
O173 O 0.3314 0.12842 0.42954 0.0
O174 O 0.33079 0.12236 0.44119 0.0
C175 C 0.30375 0.11499 0.41187 0.0
O176 O 0.31512 0.14581 0.41459 0.0
C177 C 0.28396 0.09795 0.45757 0.0
C178 C 0.28045 0.04307 0.46227 0.0
C179 C 0.27747 0.07974 0.46386 0.0
N180 N 0.29027 0.07305 0.45253 0.0
N181 N 0.28847 0.04036 0.45539 0.0
C182 C 0.28153 0.13793 0.4562 0.0
H183 H 0.27509 0.14305 0.45058 0.0
H184 H 0.26053 0.1506 0.45961 0.0
H185 H 0.30818 0.15066 0.4574 0.0
C186 C 0.22043 0.09224 0.42847 0.0
N187 N 0.2546 0.08898 0.43092 0.0
N188 N 0.25372 0.08474 0.4378 0.0
C189 C 0.21874 0.08482 0.43994 0.0
C190 C 0.19649 0.08979 0.4341 0.0
C191 C 0.21125 0.09816 0.42088 0.0
H192 H 0.2293 0.11943 0.41866 0.0
H193 H 0.18247 0.10654 0.4202 0.0
H194 H 0.21618 0.0726 0.41793 0.0
O195 O 0.32602 0.04236 0.42802 0.0
O196 O 0.32597 0.03597 0.4396 0.0
H197 H 0.22208 0.05355 0.44942 0.0
H198 H 0.17734 0.07101 0.44764 0.0
C199 C 0.20681 0.07714 0.44733 0.0
H200 H 0.21279 0.10113 0.45067 0.0
H201 H 0.292 0.01613 0.45261 0.0
O202 O 0.29448 0.08912 0.41592 0.0
C203 C 0.33504 0.02482 0.43351 0.0
Co204 Co 0.16623 0.05166 0.67692 0.0
Co205 Co 0.16729 0.04786 0.69343 0.0
C206 C 0.11152 0.09161 0.6859 0.0
O207 O 0.12461 0.08253 0.67993 0.0
O208 O 0.12491 0.07949 0.69163 0.0
C209 C 0.14095 0.04255 0.66235 0.0
O210 O 0.10889 0.03399 0.66491 0.0
C211 C 0.1463 0.03651 0.70833 0.0
C212 C 0.1995 0.02153 0.71291 0.0
C213 C 0.16313 0.02633 0.71458 0.0
N214 N 0.17168 0.0375 0.70323 0.0
N215 N 0.2034 0.0288 0.70602 0.0
C216 C 0.10655 0.04221 0.70706 0.0
H217 H 0.09956 0.0352 0.70154 0.0
H218 H 0.09002 0.02544 0.71072 0.0
H219 H 0.0999 0.07129 0.70793 0.0
C220 C 0.16406 0.97117 0.67865 0.0
N221 N 0.16482 0.00529 0.68124 0.0
N222 N 0.16424 0.00385 0.68817 0.0
C223 C 0.16227 0.96877 0.69019 0.0
C224 C 0.16233 0.94686 0.68424 0.0
C225 C 0.16743 0.96212 0.671 0.0
H226 H 0.18605 0.98161 0.66838 0.0
H227 H 0.14026 0.96435 0.66849 0.0
H228 H 0.17781 0.93407 0.67022 0.0
O229 O 0.21107 0.07782 0.67936 0.0
O230 O 0.2112 0.07681 0.69101 0.0
H231 H 0.18471 0.96023 0.70044 0.0
H232 H 0.14998 0.92771 0.69804 0.0
C233 C 0.15839 0.95662 0.69767 0.0
H234 H 0.13761 0.97347 0.70035 0.0
H235 H 0.22768 0.02729 0.70318 0.0
O236 O 0.16712 0.04927 0.66651 0.0
C237 C 0.22533 0.0867 0.6852 0.0
Co238 Co 0.20075 0.91495 0.92665 0.0
Co239 Co 0.20361 0.91589 0.94318 0.0
C240 C 0.15996 0.86037 0.93543 0.0
O241 O 0.16951 0.87345 0.92949 0.0
O242 O 0.17174 0.87368 0.94119 0.0
C243 C 0.20423 0.89025 0.91203 0.0
O244 O 0.20431 0.85688 0.9145 0.0
C245 C 0.21305 0.89411 0.95807 0.0
C246 C 0.22245 0.94778 0.96301 0.0
C247 C 0.21901 0.91109 0.9645 0.0
N248 N 0.21308 0.91976 0.95302 0.0
N249 N 0.2189 0.95169 0.95601 0.0
C250 C 0.20419 0.855 0.95674 0.0
H251 H 0.17455 0.85254 0.95576 0.0
H252 H 0.21854 0.84552 0.95194 0.0
H253 H 0.21133 0.83747 0.96128 0.0
C254 C 0.28074 0.91177 0.92853 0.0
N255 N 0.24661 0.91283 0.9311 0.0
N256 N 0.24783 0.91283 0.93802 0.0
C257 C 0.28285 0.9114 0.94009 0.0
C258 C 0.30489 0.91078 0.93415 0.0
C259 C 0.28973 0.91432 0.92087 0.0
H260 H 0.27259 0.93549 0.91836 0.0
H261 H 0.28346 0.88793 0.91831 0.0
H262 H 0.3188 0.921 0.92 0.0
O263 O 0.17471 0.95984 0.92912 0.0
O264 O 0.17533 0.96015 0.94076 0.0
H265 H 0.28936 0.93607 0.9502 0.0
H266 H 0.32421 0.9031 0.94807 0.0
C267 C 0.29484 0.90958 0.94761 0.0
H268 H 0.27906 0.88831 0.9504 0.0
H269 H 0.21983 0.97629 0.95326 0.0
O270 O 0.20434 0.91692 0.91628 0.0
C271 C 0.16578 0.9743 0.93494 0.0
Co272 Co 0.65383 0.95556 0.67572 0.0
Co273 Co 0.66224 0.95598 0.69213 0.0
C274 C 0.60154 0.91597 0.68513 0.0
O275 O 0.61223 0.92597 0.67905 0.0
O276 O 0.61802 0.92619 0.69069 0.0
C277 C 0.64603 0.93162 0.66202 0.0
O278 O 0.64308 0.90106 0.66556 0.0
C279 C 0.64488 0.9672 0.70711 0.0
C280 C 0.69939 0.96181 0.71191 0.0
C281 C 0.66299 0.96671 0.7135 0.0
N282 N 0.66957 0.96274 0.70196 0.0
N283 N 0.70209 0.95982 0.70486 0.0
C284 C 0.6047 0.9686 0.70592 0.0
H285 H 0.59314 0.94107 0.70678 0.0
H286 H 0.59865 0.97723 0.70045 0.0
H287 H 0.59157 0.98747 0.7097 0.0
C288 C 0.65593 0.03518 0.67799 0.0
N289 N 0.656 0.00078 0.68041 0.0
N290 N 0.65947 0.00117 0.6873 0.0
C291 C 0.66169 0.03595 0.6895 0.0
C292 C 0.65946 0.05869 0.68367 0.0
C293 C 0.65539 0.04477 0.67033 0.0
H294 H 0.67573 0.028 0.66749 0.0
H295 H 0.62821 0.03821 0.66813 0.0
H296 H 0.66142 0.07396 0.66943 0.0
O297 O 0.69854 0.92696 0.67724 0.0
O298 O 0.70406 0.92649 0.68885 0.0
H299 H 0.69118 0.03608 0.6992 0.0
H300 H 0.66475 0.07697 0.6977 0.0
C301 C 0.66535 0.04701 0.69705 0.0
H302 H 0.64265 0.03511 0.70011 0.0
H303 H 0.72607 0.95549 0.70204 0.0
O304 O 0.64983 0.9612 0.6654 0.0
C305 C 0.71513 0.91688 0.68278 0.0
Co306 Co 0.80004 0.91781 0.42619 0.0
Co307 Co 0.79153 0.91904 0.44261 0.0
C308 C 0.83575 0.86197 0.43546 0.0
O309 O 0.82849 0.8752 0.42941 0.0
O310 O 0.82278 0.87589 0.44107 0.0
C311 C 0.79649 0.89202 0.41168 0.0
O312 O 0.79027 0.85953 0.4143 0.0
C313 C 0.77593 0.89754 0.4573 0.0
C314 C 0.76169 0.95087 0.46191 0.0
C315 C 0.76515 0.91427 0.46352 0.0
N316 N 0.77862 0.92321 0.45228 0.0
N317 N 0.77026 0.95498 0.45509 0.0
C318 C 0.78089 0.85776 0.45596 0.0
H319 H 0.80975 0.85042 0.45692 0.0
H320 H 0.7743 0.85128 0.4504 0.0
H321 H 0.7634 0.84137 0.45951 0.0
C322 C 0.71936 0.91681 0.42703 0.0
N323 N 0.7526 0.91732 0.43001 0.0
N324 N 0.74905 0.91725 0.4369 0.0
C325 C 0.71338 0.91632 0.43853 0.0
C326 C 0.6934 0.9161 0.43233 0.0
C327 C 0.71275 0.91909 0.41927 0.0
H328 H 0.73182 0.9389 0.41687 0.0
H329 H 0.7179 0.89205 0.41687 0.0
H330 H 0.68439 0.92741 0.41808 0.0
O331 O 0.82703 0.96175 0.42898 0.0
O332 O 0.82177 0.96245 0.44058 0.0
H333 H 0.70335 0.9405 0.44857 0.0
H334 H 0.66927 0.9078 0.44593 0.0
C335 C 0.69876 0.91415 0.44587 0.0
H336 H 0.71338 0.89265 0.44881 0.0
H337 H 0.77009 0.9795 0.45231 0.0
O338 O 0.79999 0.91899 0.4158 0.0
C339 C 0.83415 0.97606 0.43491 0.0
Co340 Co 0.83527 0.0504 0.17634 0.0
Co341 Co 0.83417 0.04425 0.1928 0.0
C342 C 0.89081 0.08795 0.18544 0.0
O343 O 0.87765 0.07965 0.17944 0.0
O344 O 0.87701 0.07567 0.19111 0.0
C345 C 0.86028 0.04123 0.16179 0.0
O346 O 0.89128 0.02928 0.16433 0.0
C347 C 0.85572 0.03187 0.20759 0.0
C348 C 0.80186 0.02353 0.21252 0.0
C349 C 0.83866 0.02574 0.21399 0.0
N350 N 0.83001 0.03315 0.20255 0.0
N351 N 0.79796 0.0279 0.20553 0.0
C352 C 0.89505 0.03979 0.20629 0.0
H353 H 0.89873 0.06967 0.20591 0.0
H354 H 0.90362 0.02763 0.2012 0.0
H355 H 0.91253 0.02953 0.2106 0.0
C356 C 0.83516 0.96957 0.17767 0.0
N357 N 0.8357 0.00336 0.18043 0.0
N358 N 0.83629 0.00098 0.18734 0.0
C359 C 0.83679 0.96563 0.1892 0.0
C360 C 0.83596 0.94453 0.18314 0.0
C361 C 0.83095 0.96153 0.16999 0.0
H362 H 0.81346 0.98236 0.16748 0.0
H363 H 0.85811 0.96224 0.16745 0.0
H364 H 0.81886 0.93423 0.16914 0.0
O365 O 0.79109 0.07745 0.17896 0.0
O366 O 0.79033 0.07353 0.19058 0.0
H367 H 0.81294 0.95771 0.19934 0.0
H368 H 0.84543 0.92296 0.19691 0.0
C369 C 0.83916 0.95244 0.19664 0.0
H370 H 0.8608 0.96758 0.19945 0.0
H371 H 0.77331 0.02808 0.20281 0.0
O372 O 0.83461 0.04968 0.16595 0.0
C373 C 0.7766 0.08504 0.18485 0.0
Co374 Co 0.70088 0.08522 0.92643 0.0
Co375 Co 0.70273 0.08174 0.94293 0.0
C376 C 0.65929 0.13827 0.93537 0.0
O377 O 0.66927 0.12623 0.92938 0.0
O378 O 0.67079 0.12406 0.94107 0.0
C379 C 0.6993 0.11117 0.91197 0.0
O380 O 0.69081 0.143 0.91465 0.0
C381 C 0.71296 0.10268 0.95781 0.0
C382 C 0.72054 0.04869 0.96273 0.0
C383 C 0.71879 0.08551 0.96423 0.0
N384 N 0.71159 0.07703 0.95277 0.0
N385 N 0.71622 0.04488 0.95575 0.0
C386 C 0.70581 0.14214 0.95647 0.0
H387 H 0.72254 0.15153 0.95196 0.0
H388 H 0.71127 0.15919 0.96116 0.0
H389 H 0.67685 0.14554 0.95498 0.0
C390 C 0.78067 0.08819 0.92851 0.0
N391 N 0.74642 0.08684 0.931 0.0
N392 N 0.74728 0.08555 0.93792 0.0
C393 C 0.7822 0.08624 0.94006 0.0
C394 C 0.80454 0.08786 0.93417 0.0
C395 C 0.78996 0.08699 0.92084 0.0
H396 H 0.7747 0.06456 0.91828 0.0
H397 H 0.78128 0.11284 0.91834 0.0
H398 H 0.81949 0.08293 0.91996 0.0
O399 O 0.6747 0.03989 0.92859 0.0
O400 O 0.67496 0.03766 0.94023 0.0
H401 H 0.7868 0.05952 0.95002 0.0
H402 H 0.82352 0.0909 0.94817 0.0
C403 C 0.79388 0.08609 0.94761 0.0
H404 H 0.77915 0.10771 0.9505 0.0
H405 H 0.71607 0.02027 0.95301 0.0
O406 O 0.70598 0.08468 0.91607 0.0
C407 C 0.66565 0.02444 0.93431 0.0
Co408 Co 0.66158 0.04969 0.82376 0.0
Co409 Co 0.66246 0.04625 0.80727 0.0
C410 C 0.60563 0.08832 0.81494 0.0
O411 O 0.61905 0.07932 0.82089 0.0
O412 O 0.61928 0.07686 0.80919 0.0
C413 C 0.63746 0.04202 0.83844 0.0
O414 O 0.60459 0.03538 0.83604 0.0
C415 C 0.64203 0.03479 0.79235 0.0
C416 C 0.69667 0.03204 0.78751 0.0
C417 C 0.65992 0.03151 0.78595 0.0
N418 N 0.66727 0.03726 0.79746 0.0
N419 N 0.69979 0.03536 0.79452 0.0
C420 C 0.60204 0.03864 0.79357 0.0
H421 H 0.5948 0.02828 0.79888 0.0
H422 H 0.58619 0.02406 0.78949 0.0
H423 H 0.59475 0.06791 0.79333 0.0
C424 C 0.66062 0.96934 0.82195 0.0
N425 N 0.66097 0.00347 0.81937 0.0
N426 N 0.6609 0.0021 0.81245 0.0
C427 C 0.66027 0.96704 0.8104 0.0
C428 C 0.66008 0.9451 0.81635 0.0
C429 C 0.66304 0.96032 0.82962 0.0
H430 H 0.68255 0.9789 0.83224 0.0
H431 H 0.63594 0.96429 0.83207 0.0
H432 H 0.67181 0.93178 0.83046 0.0
O433 O 0.70563 0.07738 0.8213 0.0
O434 O 0.70577 0.07563 0.80967 0.0
H435 H 0.68442 0.96218 0.80021 0.0
H436 H 0.65385 0.92529 0.80241 0.0
C437 C 0.65858 0.95499 0.80288 0.0
H438 H 0.63615 0.96947 0.80017 0.0
H439 H 0.72421 0.03706 0.79731 0.0
O440 O 0.66344 0.04693 0.83414 0.0
C441 C 0.71973 0.08618 0.81544 0.0
Co442 Co 0.70089 0.90542 0.57326 0.0
Co443 Co 0.70184 0.91282 0.55682 0.0
C444 C 0.65953 0.85402 0.56392 0.0
O445 O 0.66988 0.86472 0.56998 0.0
O446 O 0.67036 0.86979 0.55833 0.0
C447 C 0.67639 0.8993 0.58696 0.0
O448 O 0.6458 0.89721 0.58341 0.0
C449 C 0.7123 0.89388 0.54192 0.0
C450 C 0.7156 0.94841 0.53705 0.0
C451 C 0.71605 0.91159 0.53551 0.0
N452 N 0.7099 0.91919 0.54701 0.0
N453 N 0.71204 0.95169 0.54407 0.0
C454 C 0.70778 0.85398 0.54321 0.0
H455 H 0.67833 0.84784 0.54367 0.0
H456 H 0.72096 0.84637 0.54826 0.0
H457 H 0.71906 0.83742 0.53886 0.0
C458 C 0.78059 0.90478 0.57106 0.0
N459 N 0.74623 0.9057 0.56862 0.0
N460 N 0.74678 0.9085 0.56171 0.0
C461 C 0.78163 0.90921 0.55953 0.0
C462 C 0.80425 0.90693 0.56537 0.0
C463 C 0.7901 0.90489 0.57872 0.0
H464 H 0.77355 0.92571 0.58148 0.0
H465 H 0.78321 0.87801 0.58102 0.0
H466 H 0.81935 0.91065 0.5796 0.0
O467 O 0.67413 0.95103 0.57159 0.0
O468 O 0.67379 0.95602 0.55997 0.0
H469 H 0.78443 0.93804 0.54977 0.0
H470 H 0.82274 0.90814 0.55133 0.0
C471 C 0.79294 0.91142 0.55197 0.0
H472 H 0.77913 0.88968 0.54895 0.0
H473 H 0.71051 0.97613 0.54684 0.0
O474 O 0.70614 0.90185 0.58359 0.0
C475 C 0.66467 0.96773 0.56603 0.0
Co476 Co 0.82729 0.94581 0.32313 0.0
Co477 Co 0.82516 0.95309 0.30668 0.0
C478 C 0.88212 0.90864 0.31389 0.0
O479 O 0.86938 0.91648 0.31995 0.0
O480 O 0.86795 0.92136 0.30829 0.0
C481 C 0.85406 0.94482 0.3375 0.0
O482 O 0.8866 0.9421 0.3347 0.0
C483 C 0.8474 0.9681 0.29204 0.0
C484 C 0.79423 0.98061 0.28718 0.0
C485 C 0.83107 0.97798 0.28572 0.0
N486 N 0.8213 0.96512 0.29697 0.0
N487 N 0.78961 0.97244 0.29402 0.0
C488 C 0.88715 0.96433 0.29356 0.0
H489 H 0.8955 0.93575 0.29261 0.0
H490 H 0.89277 0.97101 0.29915 0.0
H491 H 0.90339 0.98241 0.29009 0.0
C492 C 0.82987 0.02621 0.32205 0.0
N493 N 0.8284 0.99284 0.31914 0.0
N494 N 0.82772 0.996 0.31224 0.0
C495 C 0.82883 0.03158 0.31054 0.0
C496 C 0.83021 0.05188 0.3167 0.0
C497 C 0.82893 0.03309 0.32981 0.0
H498 H 0.80702 0.01659 0.33225 0.0
H499 H 0.85516 0.02438 0.33216 0.0
H500 H 0.82426 0.06223 0.33103 0.0
O501 O 0.78285 0.91908 0.32049 0.0
O502 O 0.78134 0.92379 0.30888 0.0
H503 H 0.80362 0.03989 0.30053 0.0
H504 H 0.83513 0.07546 0.303 0.0
C505 C 0.82991 0.04576 0.30316 0.0
H506 H 0.85177 0.03175 0.3002 0.0
H507 H 0.76483 0.97218 0.2967 0.0
O508 O 0.82647 0.94773 0.33352 0.0
C509 C 0.768 0.91187 0.31461 0.0
Co510 Co 0.79869 0.08868 0.07362 0.0
Co511 Co 0.79304 0.08679 0.05713 0.0
C512 C 0.83699 0.14348 0.06444 0.0
O513 O 0.8285 0.13056 0.07045 0.0
O514 O 0.82469 0.12961 0.05876 0.0
C515 C 0.80775 0.11255 0.08805 0.0
O516 O 0.8211 0.14247 0.08529 0.0
C517 C 0.77945 0.10724 0.0423 0.0
C518 C 0.7647 0.05373 0.03782 0.0
C519 C 0.76867 0.09015 0.03612 0.0
N520 N 0.78158 0.08196 0.0474 0.0
N521 N 0.77301 0.05004 0.04467 0.0
C522 C 0.78474 0.14708 0.04352 0.0
H523 H 0.81374 0.15402 0.04262 0.0
H524 H 0.77779 0.15412 0.04904 0.0
H525 H 0.76773 0.16334 0.03986 0.0
C526 C 0.7185 0.08998 0.07227 0.0
N527 N 0.75213 0.08963 0.06946 0.0
N528 N 0.74965 0.08947 0.06255 0.0
C529 C 0.71422 0.09008 0.06074 0.0
C530 C 0.69329 0.09025 0.06682 0.0
C531 C 0.71108 0.0874 0.07999 0.0
H532 H 0.7275 0.06502 0.08229 0.0
H533 H 0.71968 0.11309 0.08257 0.0
H534 H 0.6819 0.08241 0.08111 0.0
O535 O 0.82542 0.04414 0.07112 0.0
O536 O 0.8222 0.04308 0.05949 0.0
H537 H 0.70544 0.06474 0.05076 0.0
H538 H 0.67119 0.09789 0.05308 0.0
C539 C 0.70064 0.09143 0.05331 0.0
H540 H 0.71575 0.11252 0.05035 0.0
H541 H 0.77229 0.02579 0.04752 0.0
O542 O 0.79563 0.08776 0.08402 0.0
C543 C 0.83333 0.02949 0.06525 0.0
Co544 Co 0.83527 0.55158 0.82333 0.0
Co545 Co 0.83021 0.54821 0.80685 0.0
C546 C 0.88818 0.59137 0.81416 0.0
O547 O 0.87647 0.5821 0.82022 0.0
O548 O 0.87322 0.57978 0.80853 0.0
C549 C 0.86185 0.55208 0.83778 0.0
O550 O 0.89439 0.55703 0.83509 0.0
C551 C 0.85113 0.53158 0.79219 0.0
C552 C 0.79717 0.52991 0.78707 0.0
C553 C 0.83401 0.52565 0.78576 0.0
N554 N 0.82545 0.53884 0.79704 0.0
N555 N 0.79332 0.53802 0.79393 0.0
C556 C 0.89069 0.52804 0.79389 0.0
H557 H 0.89441 0.52187 0.79956 0.0
H558 H 0.9034 0.50637 0.79064 0.0
H559 H 0.9045 0.55421 0.79273 0.0
C560 C 0.83865 0.4718 0.82156 0.0
N561 N 0.83638 0.50567 0.81892 0.0
N562 N 0.83366 0.50393 0.81202 0.0
C563 C 0.83376 0.46868 0.81006 0.0
C564 C 0.83716 0.44717 0.81604 0.0
C565 C 0.84291 0.46354 0.82923 0.0
H566 H 0.86524 0.48033 0.83143 0.0
H567 H 0.84908 0.4344 0.83016 0.0
H568 H 0.81749 0.47098 0.83203 0.0
O569 O 0.79005 0.57794 0.82114 0.0
O570 O 0.78653 0.57663 0.80952 0.0
H571 H 0.80495 0.47135 0.80027 0.0
H572 H 0.82094 0.4265 0.80246 0.0
C573 C 0.82764 0.45588 0.80267 0.0
H574 H 0.85255 0.46086 0.79952 0.0
H575 H 0.76869 0.54255 0.79652 0.0
O576 O 0.8348 0.5477 0.83371 0.0
C577 C 0.77401 0.58653 0.81546 0.0
Co578 Co 0.69605 0.58277 0.07292 0.0
Co579 Co 0.70246 0.58426 0.05642 0.0
C580 C 0.65813 0.63935 0.06409 0.0
O581 O 0.66626 0.62526 0.07003 0.0
O582 O 0.67082 0.62665 0.05835 0.0
C583 C 0.70289 0.60595 0.08762 0.0
O584 O 0.71079 0.63851 0.08521 0.0
C585 C 0.71379 0.60697 0.04162 0.0
C586 C 0.72565 0.55377 0.0367 0.0
C587 C 0.7212 0.59036 0.03521 0.0
N588 N 0.71394 0.5812 0.04665 0.0
N589 N 0.72129 0.54957 0.04367 0.0
C590 C 0.70327 0.64569 0.04292 0.0
H591 H 0.67336 0.64708 0.04363 0.0
H592 H 0.71616 0.65549 0.04785 0.0
H593 H 0.71087 0.66362 0.03847 0.0
C594 C 0.77674 0.5846 0.07163 0.0
N595 N 0.74303 0.58456 0.06884 0.0
N596 N 0.74554 0.58604 0.06193 0.0
C597 C 0.7809 0.58766 0.06011 0.0
C598 C 0.80187 0.58665 0.06618 0.0
C599 C 0.7846 0.58015 0.07931 0.0
H600 H 0.76506 0.56073 0.08168 0.0
H601 H 0.78134 0.60683 0.08196 0.0
H602 H 0.81272 0.57022 0.08021 0.0
O603 O 0.66959 0.5387 0.07003 0.0
O604 O 0.67331 0.54005 0.05841 0.0
H605 H 0.79028 0.56532 0.04989 0.0
H606 H 0.82341 0.59905 0.05251 0.0
C607 C 0.79422 0.59146 0.0527 0.0
H608 H 0.77822 0.6127 0.04995 0.0
H609 H 0.72258 0.52494 0.0464 0.0
O610 O 0.69726 0.58009 0.08332 0.0
C611 C 0.662 0.52523 0.06405 0.0
Co612 Co 0.66503 0.44727 0.32313 0.0
Co613 Co 0.67233 0.44862 0.30666 0.0
C614 C 0.61435 0.40504 0.31387 0.0
O615 O 0.62492 0.41538 0.31994 0.0
O616 O 0.62987 0.41628 0.30827 0.0
C617 C 0.63826 0.44271 0.33749 0.0
O618 O 0.60813 0.43012 0.33468 0.0
C619 C 0.65276 0.46213 0.29182 0.0
C620 C 0.70722 0.46696 0.28698 0.0
C621 C 0.67039 0.46866 0.28547 0.0
N622 N 0.67811 0.45698 0.29682 0.0
N623 N 0.71057 0.4596 0.29388 0.0
C624 C 0.6128 0.46337 0.29327 0.0
H625 H 0.60778 0.47032 0.29887 0.0
H626 H 0.59921 0.48352 0.2898 0.0
H627 H 0.60092 0.43615 0.29222 0.0
C628 C 0.65974 0.52671 0.32093 0.0
N629 N 0.66357 0.49257 0.31848 0.0
N630 N 0.66708 0.49345 0.31159 0.0
C631 C 0.66586 0.52838 0.30943 0.0
C632 C 0.66095 0.5506 0.31528 0.0
C633 C 0.65407 0.53585 0.32853 0.0
H634 H 0.63294 0.51772 0.33077 0.0
H635 H 0.64563 0.56459 0.32923 0.0
H636 H 0.67974 0.53094 0.33145 0.0
O637 O 0.71096 0.42138 0.3213 0.0
O638 O 0.71615 0.42139 0.30969 0.0
H639 H 0.67691 0.57004 0.30162 0.0
H640 H 0.64777 0.53331 0.29879 0.0
C641 C 0.67198 0.54035 0.30199 0.0
H642 H 0.69583 0.52593 0.29978 0.0
H643 H 0.73505 0.45696 0.29662 0.0
O644 O 0.66409 0.45285 0.3335 0.0
C645 C 0.72792 0.41233 0.31574 0.0
Co646 Co 0.80115 0.4049 0.57343 0.0
Co647 Co 0.79636 0.40977 0.55696 0.0
C648 C 0.83976 0.35171 0.56397 0.0
O649 O 0.83084 0.36355 0.57003 0.0
O650 O 0.8279 0.36663 0.55836 0.0
C651 C 0.8277 0.39967 0.58712 0.0
O652 O 0.85811 0.39751 0.58351 0.0
C653 C 0.78288 0.39145 0.54203 0.0
C654 C 0.77128 0.44598 0.53768 0.0
C655 C 0.77368 0.40955 0.53585 0.0
N656 N 0.78567 0.41617 0.54723 0.0
N657 N 0.77893 0.44868 0.54457 0.0
C658 C 0.7861 0.35131 0.54316 0.0
H659 H 0.77925 0.34433 0.54869 0.0
H660 H 0.76789 0.33624 0.53953 0.0
H661 H 0.81459 0.34284 0.54215 0.0
C662 C 0.72105 0.40446 0.57193 0.0
N663 N 0.7548 0.40498 0.56918 0.0
N664 N 0.75264 0.40631 0.56227 0.0
C665 C 0.7173 0.40636 0.56039 0.0
C666 C 0.69609 0.4053 0.56644 0.0
C667 C 0.71331 0.40593 0.57966 0.0
H668 H 0.73065 0.42701 0.58215 0.0
H669 H 0.72042 0.37935 0.58206 0.0
H670 H 0.68433 0.41214 0.58075 0.0
O671 O 0.82818 0.44992 0.57135 0.0
O672 O 0.82537 0.453 0.55971 0.0
H673 H 0.71002 0.4334 0.55054 0.0
H674 H 0.6745 0.40109 0.5526 0.0
C675 C 0.70412 0.40655 0.55294 0.0
H676 H 0.71871 0.38541 0.5499 0.0
H677 H 0.77912 0.4727 0.5475 0.0
O678 O 0.79777 0.40209 0.58381 0.0
C679 C 0.8363 0.46557 0.56559 0.0
Co680 Co 0.84478 0.45419 0.67608 0.0
Co681 Co 0.83796 0.45808 0.69254 0.0
C682 C 0.89713 0.41544 0.68567 0.0
O683 O 0.88595 0.42461 0.67957 0.0
O684 O 0.88153 0.42699 0.69123 0.0
C685 C 0.85311 0.42834 0.6624 0.0
O686 O 0.85668 0.39801 0.66599 0.0
C687 C 0.85609 0.47205 0.70743 0.0
C688 C 0.8013 0.47967 0.71197 0.0
C689 C 0.83795 0.47951 0.71369 0.0
N690 N 0.8312 0.46805 0.7023 0.0
N691 N 0.79853 0.47246 0.70506 0.0
C692 C 0.89624 0.47149 0.70616 0.0
H693 H 0.90223 0.47866 0.7006 0.0
H694 H 0.91038 0.49077 0.70972 0.0
H695 H 0.90671 0.44366 0.70716 0.0
C696 C 0.84381 0.53407 0.67769 0.0
N697 N 0.84376 0.50027 0.68041 0.0
N698 N 0.84118 0.50218 0.68731 0.0
C699 C 0.83965 0.53748 0.68921 0.0
C700 C 0.84125 0.55887 0.68318 0.0
C701 C 0.84317 0.54192 0.66996 0.0
H702 H 0.82213 0.52482 0.6674 0.0
H703 H 0.86987 0.53447 0.66765 0.0
H704 H 0.83739 0.57096 0.66885 0.0
O705 O 0.79976 0.42678 0.67797 0.0
O706 O 0.79539 0.42846 0.6896 0.0
H707 H 0.81038 0.54222 0.69889 0.0
H708 H 0.83997 0.5804 0.69705 0.0
C709 C 0.83703 0.55044 0.69666 0.0
H710 H 0.85875 0.53754 0.69983 0.0
H711 H 0.77436 0.47088 0.7022 0.0
O712 O 0.84853 0.45798 0.66572 0.0
C713 C 0.78361 0.41793 0.68363 0.0
Co714 Co 0.8007 0.58497 0.92615 0.0
Co715 Co 0.79815 0.5799 0.94262 0.0
C716 C 0.84102 0.63783 0.93522 0.0
O717 O 0.83135 0.62628 0.92917 0.0
O718 O 0.82974 0.62276 0.94086 0.0
C719 C 0.7993 0.61124 0.91164 0.0
O720 O 0.80167 0.64423 0.91426 0.0
C721 C 0.78261 0.60156 0.95727 0.0
C722 C 0.77967 0.54783 0.96246 0.0
C723 C 0.77632 0.58481 0.96372 0.0
N724 N 0.78919 0.57556 0.95246 0.0
N725 N 0.78768 0.54357 0.95561 0.0
C726 C 0.77989 0.64115 0.95554 0.0
H727 H 0.77335 0.64486 0.94988 0.0
H728 H 0.75883 0.65449 0.95884 0.0
H729 H 0.80648 0.65434 0.95661 0.0
C730 C 0.72086 0.58841 0.92807 0.0
N731 N 0.75492 0.58605 0.93063 0.0
N732 N 0.75361 0.58338 0.93753 0.0
C733 C 0.7185 0.58367 0.93959 0.0
C734 C 0.69659 0.58711 0.93366 0.0
C735 C 0.71212 0.59267 0.92042 0.0
H736 H 0.72849 0.61525 0.91821 0.0
H737 H 0.68285 0.59848 0.91956 0.0
H738 H 0.71975 0.5674 0.91759 0.0
O739 O 0.82733 0.53986 0.92833 0.0
O740 O 0.82639 0.53611 0.93995 0.0
H741 H 0.72148 0.55482 0.94936 0.0
H742 H 0.67673 0.5715 0.94732 0.0
C743 C 0.70619 0.57776 0.94701 0.0
H744 H 0.71182 0.60259 0.95014 0.0
H745 H 0.79155 0.51874 0.95305 0.0
O746 O 0.79682 0.58418 0.91577 0.0
C747 C 0.83615 0.52374 0.93399 0.0
Co748 Co 0.66185 0.54551 0.17586 0.0
Co749 Co 0.66882 0.54567 0.19238 0.0
C750 C 0.61071 0.58821 0.18483 0.0
O751 O 0.62108 0.57719 0.17879 0.0
O752 O 0.6265 0.57771 0.19045 0.0
C753 C 0.63625 0.54776 0.16139 0.0
O754 O 0.60521 0.55887 0.16405 0.0
C755 C 0.64885 0.53263 0.20733 0.0
C756 C 0.70248 0.53967 0.2124 0.0
C757 C 0.6662 0.53275 0.21383 0.0
N758 N 0.67391 0.53918 0.20231 0.0
N759 N 0.70587 0.54315 0.20539 0.0
C760 C 0.60901 0.52864 0.20592 0.0
H761 H 0.60208 0.53837 0.20057 0.0
H762 H 0.60141 0.49951 0.20629 0.0
H763 H 0.59306 0.54383 0.20992 0.0
C764 C 0.65749 0.46618 0.17839 0.0
N765 N 0.66081 0.50061 0.18071 0.0
N766 N 0.6646 0.5004 0.1876 0.0
C767 C 0.66444 0.46567 0.18988 0.0
C768 C 0.65961 0.44282 0.18412 0.0
C769 C 0.65138 0.45626 0.17085 0.0
H770 H 0.67719 0.45978 0.1679 0.0
H771 H 0.63089 0.47481 0.16851 0.0
H772 H 0.6419 0.42775 0.17029 0.0
O773 O 0.70713 0.57269 0.17774 0.0
O774 O 0.71245 0.57292 0.18934 0.0
H775 H 0.69351 0.47189 0.19959 0.0
H776 H 0.68051 0.42571 0.19767 0.0
C777 C 0.67184 0.45454 0.19732 0.0
H778 H 0.64676 0.45818 0.20049 0.0
H779 H 0.73 0.54882 0.20271 0.0
O780 O 0.6621 0.5391 0.1655 0.0
C781 C 0.72397 0.58215 0.18328 0.0
Co782 Co 0.69932 0.41351 0.42596 0.0
Co783 Co 0.70552 0.41497 0.44244 0.0
C784 C 0.66198 0.35797 0.43511 0.0
O785 O 0.67 0.37119 0.4291 0.0
O786 O 0.67454 0.37174 0.44077 0.0
C787 C 0.70657 0.3888 0.41131 0.0
O788 O 0.71637 0.35685 0.41376 0.0
C789 C 0.71835 0.39382 0.45725 0.0
C790 C 0.72649 0.44785 0.46212 0.0
C791 C 0.72456 0.41107 0.46364 0.0
N792 N 0.71676 0.41941 0.45219 0.0
N793 N 0.72189 0.45155 0.45514 0.0
C794 C 0.71058 0.35442 0.45599 0.0
H795 H 0.68075 0.35071 0.45551 0.0
H796 H 0.72319 0.34568 0.45096 0.0
H797 H 0.72044 0.3371 0.46036 0.0
C798 C 0.77997 0.41388 0.42724 0.0
N799 N 0.74628 0.41327 0.43003 0.0
N800 N 0.74881 0.4133 0.43695 0.0
C801 C 0.78422 0.41345 0.43877 0.0
C802 C 0.80516 0.41392 0.43269 0.0
C803 C 0.78766 0.41729 0.41953 0.0
H804 H 0.76751 0.43569 0.41705 0.0
H805 H 0.78521 0.3901 0.41705 0.0
H806 H 0.81544 0.42795 0.41856 0.0
O807 O 0.67243 0.45772 0.42857 0.0
O808 O 0.67536 0.45827 0.4402 0.0
H809 H 0.79173 0.43854 0.44881 0.0
H810 H 0.82731 0.40681 0.44646 0.0
C811 C 0.79766 0.41221 0.4462 0.0
H812 H 0.78319 0.39044 0.44911 0.0
H813 H 0.7215 0.47614 0.45239 0.0
O814 O 0.70003 0.41465 0.41556 0.0
C815 C 0.66424 0.47201 0.43444 0.0
Co816 Co 0.16728 0.44736 0.17649 0.0
Co817 Co 0.17101 0.44926 0.19301 0.0
C818 C 0.11409 0.40624 0.18551 0.0
O819 O 0.12608 0.41622 0.17951 0.0
O820 O 0.12852 0.41749 0.19121 0.0
C821 C 0.1408 0.45573 0.16199 0.0
O822 O 0.10809 0.46076 0.16459 0.0
C823 C 0.15097 0.46033 0.20795 0.0
C824 C 0.20497 0.47192 0.21255 0.0
C825 C 0.16841 0.46906 0.21423 0.0
N826 N 0.17621 0.45833 0.20283 0.0
N827 N 0.2084 0.46498 0.20564 0.0
C828 C 0.11097 0.45698 0.20667 0.0
H829 H 0.10446 0.46407 0.20113 0.0
H830 H 0.09548 0.47492 0.21029 0.0
H831 H 0.10254 0.42841 0.20761 0.0
C832 C 0.16514 0.52741 0.17855 0.0
N833 N 0.16617 0.49309 0.18103 0.0
N834 N 0.16729 0.49389 0.18796 0.0
C835 C 0.16663 0.52882 0.1901 0.0
C836 C 0.16534 0.55121 0.18423 0.0
C837 C 0.16668 0.53701 0.1709 0.0
H838 H 0.18655 0.5192 0.16818 0.0
H839 H 0.13954 0.53232 0.16852 0.0
H840 H 0.1745 0.56585 0.1701 0.0
O841 O 0.21248 0.42107 0.17865 0.0
O842 O 0.21496 0.42121 0.19029 0.0
H843 H 0.19288 0.53411 0.20009 0.0
H844 H 0.16073 0.57003 0.1982 0.0
C845 C 0.16623 0.54051 0.19765 0.0
H846 H 0.14482 0.52535 0.20051 0.0
H847 H 0.2327 0.46537 0.20279 0.0
O848 O 0.16759 0.45123 0.16612 0.0
C849 C 0.22803 0.41194 0.18435 0.0
Co850 Co 0.30031 0.41503 0.92667 0.0
Co851 Co 0.2947 0.41441 0.94317 0.0
C852 C 0.33902 0.35915 0.93551 0.0
O853 O 0.33037 0.37286 0.92957 0.0
O854 O 0.32666 0.37207 0.94126 0.0
C855 C 0.29866 0.39084 0.91205 0.0
O856 O 0.29863 0.3575 0.91454 0.0
C857 C 0.28172 0.39219 0.95796 0.0
C858 C 0.26523 0.4449 0.96257 0.0
C859 C 0.27032 0.40852 0.96418 0.0
N860 N 0.2831 0.41787 0.95292 0.0
N861 N 0.27351 0.4493 0.95573 0.0
C862 C 0.28836 0.35263 0.95666 0.0
H863 H 0.28153 0.34565 0.95113 0.0
H864 H 0.27204 0.3356 0.9603 0.0
H865 H 0.31761 0.34668 0.95752 0.0
C866 C 0.22004 0.41241 0.92802 0.0
N867 N 0.2537 0.41309 0.93081 0.0
N868 N 0.25128 0.41221 0.93772 0.0
C869 C 0.21588 0.41056 0.93954 0.0
C870 C 0.19492 0.41077 0.93346 0.0
C871 C 0.21236 0.4156 0.9203 0.0
H872 H 0.22983 0.43706 0.91798 0.0
H873 H 0.21919 0.38946 0.9177 0.0
H874 H 0.18342 0.42222 0.91927 0.0
O875 O 0.32678 0.45924 0.92944 0.0
O876 O 0.32373 0.45861 0.94107 0.0
H877 H 0.20628 0.43382 0.94968 0.0
H878 H 0.1732 0.39993 0.94714 0.0
C879 C 0.20241 0.40744 0.94695 0.0
H880 H 0.21825 0.38639 0.94978 0.0
H881 H 0.27204 0.47372 0.95294 0.0
O882 O 0.29806 0.41755 0.91629 0.0
C883 C 0.33474 0.47307 0.93538 0.0
Co884 Co 0.32874 0.55331 0.6771 0.0
Co885 Co 0.32978 0.5496 0.69359 0.0
C886 C 0.38391 0.59416 0.68579 0.0
O887 O 0.37017 0.5848 0.6799 0.0
O888 O 0.37146 0.58191 0.69158 0.0
C889 C 0.3537 0.5454 0.66259 0.0
O890 O 0.38611 0.5388 0.66521 0.0
C891 C 0.35357 0.53762 0.70828 0.0
C892 C 0.30129 0.52276 0.71326 0.0
C893 C 0.33805 0.5271 0.71463 0.0
N894 N 0.3271 0.5392 0.7034 0.0
N895 N 0.29593 0.53062 0.70643 0.0
C896 C 0.39306 0.54295 0.70669 0.0
H897 H 0.40021 0.57194 0.70756 0.0
H898 H 0.39877 0.53609 0.70111 0.0
H899 H 0.4102 0.52589 0.71019 0.0
C900 C 0.33211 0.47298 0.67879 0.0
N901 N 0.33149 0.50705 0.68141 0.0
N902 N 0.33269 0.50556 0.68833 0.0
C903 C 0.33473 0.47044 0.69033 0.0
C904 C 0.33426 0.44862 0.68437 0.0
C905 C 0.328 0.46404 0.67115 0.0
H906 H 0.3083 0.48292 0.66867 0.0
H907 H 0.35468 0.46745 0.6685 0.0
H908 H 0.31859 0.43564 0.67038 0.0
O909 O 0.28371 0.5787 0.67973 0.0
O910 O 0.28509 0.57783 0.69139 0.0
H911 H 0.3124 0.46263 0.70061 0.0
H912 H 0.34577 0.42885 0.69814 0.0
C913 C 0.33845 0.45806 0.6978 0.0
H914 H 0.35995 0.47411 0.70045 0.0
H915 H 0.27104 0.52945 0.70379 0.0
O916 O 0.32705 0.55066 0.66672 0.0
C917 C 0.27006 0.5874 0.68564 0.0
Co918 Co 0.20072 0.59768 0.42654 0.0
Co919 Co 0.20023 0.58809 0.443 0.0
C920 C 0.15832 0.64759 0.43593 0.0
O921 O 0.1695 0.63805 0.42986 0.0
O922 O 0.16849 0.63087 0.44146 0.0
C923 C 0.17725 0.6039 0.41278 0.0
O924 O 0.14641 0.60431 0.41628 0.0
C925 C 0.21123 0.60409 0.45821 0.0
C926 C 0.20964 0.54838 0.46257 0.0
C927 C 0.21305 0.58459 0.46447 0.0
N928 N 0.2071 0.58033 0.45287 0.0
N929 N 0.20633 0.54713 0.45553 0.0
C930 C 0.21168 0.64457 0.45737 0.0
H931 H 0.20077 0.65271 0.45218 0.0
H932 H 0.24011 0.65446 0.45773 0.0
H933 H 0.19572 0.65766 0.46163 0.0
C934 C 0.28015 0.59756 0.42903 0.0
N935 N 0.24559 0.59671 0.43137 0.0
N936 N 0.24555 0.59278 0.43825 0.0
C937 C 0.28022 0.59103 0.44053 0.0
C938 C 0.30332 0.59402 0.43477 0.0
C939 C 0.29024 0.59847 0.4214 0.0
H940 H 0.27437 0.57757 0.41852 0.0
H941 H 0.28286 0.62541 0.41919 0.0
H942 H 0.31967 0.59348 0.42058 0.0
O943 O 0.17345 0.55208 0.42795 0.0
O944 O 0.17253 0.54533 0.43954 0.0
H945 H 0.28064 0.56027 0.45008 0.0
H946 H 0.32077 0.58813 0.44882 0.0
C947 C 0.2909 0.5867 0.44808 0.0
H948 H 0.27819 0.60865 0.45122 0.0
H949 H 0.20302 0.52355 0.45254 0.0
O950 O 0.20688 0.60229 0.41622 0.0
C951 C 0.16361 0.53461 0.43341 0.0
Co952 Co 0.1571 0.55141 0.32377 0.0
Co953 Co 0.16488 0.54765 0.3073 0.0
C954 C 0.10635 0.59175 0.31428 0.0
O955 O 0.11645 0.58192 0.32041 0.0
O956 O 0.12247 0.58025 0.30877 0.0
C957 C 0.14954 0.57664 0.33755 0.0
O958 O 0.14474 0.60701 0.33402 0.0
C959 C 0.14623 0.53132 0.29244 0.0
C960 C 0.20017 0.53763 0.28745 0.0
C961 C 0.164 0.53033 0.28598 0.0
N962 N 0.17092 0.53888 0.29747 0.0
N963 N 0.20309 0.54235 0.29444 0.0
C964 C 0.10629 0.52756 0.29376 0.0
H965 H 0.09908 0.53745 0.29908 0.0
H966 H 0.09855 0.49847 0.29339 0.0
H967 H 0.09068 0.54274 0.28971 0.0
C968 C 0.15409 0.47152 0.32197 0.0
N969 N 0.15662 0.5054 0.31933 0.0
N970 N 0.16027 0.50357 0.31245 0.0
C971 C 0.16069 0.46832 0.31049 0.0
C972 C 0.15649 0.44683 0.31646 0.0
C973 C 0.14899 0.4633 0.32962 0.0
H974 H 0.12789 0.48155 0.33185 0.0
H975 H 0.14082 0.43459 0.33048 0.0
H976 H 0.17484 0.4687 0.33245 0.0
O977 O 0.20263 0.57826 0.32187 0.0
O978 O 0.20841 0.57526 0.31028 0.0
H979 H 0.19043 0.47213 0.30082 0.0
H980 H 0.17666 0.42655 0.30305 0.0
C981 C 0.16838 0.45555 0.30316 0.0
H982 H 0.14358 0.45895 0.29991 0.0
H983 H 0.227 0.54865 0.29714 0.0
O984 O 0.15444 0.54724 0.33415 0.0
C985 C 0.21975 0.58606 0.31625 0.0
Co986 Co 0.19949 0.41527 0.07362 0.0
Co987 Co 0.1999 0.42085 0.05709 0.0
C988 C 0.157 0.36344 0.06478 0.0
O989 O 0.16783 0.37424 0.0708 0.0
O990 O 0.16766 0.37885 0.05913 0.0
C991 C 0.19748 0.39067 0.08815 0.0
O992 O 0.18774 0.35897 0.08557 0.0
C993 C 0.21396 0.39884 0.04231 0.0
C994 C 0.20764 0.45175 0.03692 0.0
C995 C 0.21465 0.41526 0.03572 0.0
N996 N 0.20694 0.42462 0.04716 0.0
N997 N 0.20336 0.45614 0.0439 0.0
C998 C 0.21771 0.35921 0.04395 0.0
H999 H 0.20717 0.35303 0.04928 0.0
H1000 H 0.24687 0.35155 0.0438 0.0
H1001 H 0.20311 0.34268 0.03995 0.0
C1002 C 0.27894 0.41065 0.07121 0.0
N1003 N 0.24457 0.41368 0.06884 0.0
N1004 N 0.24498 0.41683 0.06194 0.0
C1005 C 0.27977 0.41644 0.05971 0.0
C1006 C 0.30244 0.41216 0.0655 0.0
C1007 C 0.2887 0.40565 0.07879 0.0
H1008 H 0.27053 0.38499 0.08119 0.0
H1009 H 0.31741 0.39694 0.07943 0.0
H1010 H 0.28442 0.43169 0.08163 0.0
O1011 O 0.17271 0.46051 0.07154 0.0
O1012 O 0.17284 0.46501 0.05993 0.0
H1013 H 0.32007 0.43181 0.05193 0.0
H1014 H 0.28762 0.39796 0.04916 0.0
C1015 C 0.29119 0.42326 0.05226 0.0
H1016 H 0.27401 0.44482 0.0499 0.0
H1017 H 0.19752 0.48066 0.04642 0.0
O1018 O 0.20537 0.41648 0.08398 0.0
C1019 C 0.16358 0.47706 0.06594 0.0
Co1020 Co 0.33415 0.45047 0.82369 0.0
Co1021 Co 0.33538 0.4553 0.80716 0.0
C1022 C 0.39003 0.41099 0.81509 0.0
O1023 O 0.3764 0.42006 0.82101 0.0
O1024 O 0.37714 0.4231 0.80932 0.0
C1025 C 0.3583 0.45462 0.83825 0.0
O1026 O 0.39144 0.4563 0.83569 0.0
C1027 C 0.35841 0.46927 0.79233 0.0
C1028 C 0.30439 0.47277 0.78727 0.0
C1029 C 0.34131 0.47405 0.78587 0.0
N1030 N 0.33257 0.46546 0.79731 0.0
N1031 N 0.30043 0.46778 0.79423 0.0
C1032 C 0.39843 0.46672 0.79367 0.0
H1033 H 0.40402 0.45353 0.79879 0.0
H1034 H 0.41014 0.49452 0.79381 0.0
H1035 H 0.41198 0.45141 0.78937 0.0
C1036 C 0.33704 0.53074 0.82213 0.0
N1037 N 0.33641 0.49689 0.81942 0.0
N1038 N 0.33714 0.49894 0.8125 0.0
C1039 C 0.33832 0.53421 0.81059 0.0
C1040 C 0.33834 0.55553 0.81663 0.0
C1041 C 0.33404 0.53895 0.82983 0.0
H1042 H 0.31263 0.52165 0.83222 0.0
H1043 H 0.36025 0.53234 0.83242 0.0
H1044 H 0.32744 0.56797 0.83079 0.0
O1045 O 0.28999 0.42374 0.8209 0.0
O1046 O 0.29104 0.42668 0.80927 0.0
H1047 H 0.315 0.53959 0.80034 0.0
H1048 H 0.34457 0.5769 0.80279 0.0
C1049 C 0.34042 0.54707 0.80313 0.0
H1050 H 0.36341 0.53335 0.80046 0.0
H1051 H 0.27568 0.46541 0.79688 0.0
O1052 O 0.33138 0.45339 0.83407 0.0
C1053 C 0.27637 0.41574 0.81495 0.0
Co1054 Co 0.29906 0.58172 0.57411 0.0
Co1055 Co 0.29615 0.57499 0.55765 0.0
C1056 C 0.3395 0.63346 0.56478 0.0
O1057 O 0.32993 0.62254 0.57087 0.0
O1058 O 0.32791 0.61796 0.5592 0.0
C1059 C 0.30267 0.60821 0.58853 0.0
O1060 O 0.31242 0.63958 0.58581 0.0
C1061 C 0.28071 0.59442 0.54288 0.0
C1062 C 0.27699 0.53987 0.53804 0.0
C1063 C 0.27414 0.57665 0.53654 0.0
N1064 N 0.28699 0.56918 0.54786 0.0
N1065 N 0.28501 0.53668 0.54491 0.0
C1066 C 0.27855 0.63432 0.54435 0.0
H1067 H 0.27209 0.6391 0.54998 0.0
H1068 H 0.25767 0.64738 0.54097 0.0
H1069 H 0.30532 0.64695 0.5432 0.0
C1070 C 0.2193 0.58537 0.57223 0.0
N1071 N 0.25325 0.58246 0.56964 0.0
N1072 N 0.25174 0.57915 0.56275 0.0
C1073 C 0.21658 0.57958 0.56073 0.0
C1074 C 0.19486 0.58376 0.56666 0.0
C1075 C 0.2108 0.5905 0.57986 0.0
H1076 H 0.22844 0.61218 0.58206 0.0
H1077 H 0.18188 0.59796 0.5807 0.0
H1078 H 0.21689 0.56493 0.58273 0.0
O1079 O 0.32573 0.53639 0.57212 0.0
O1080 O 0.3245 0.53165 0.56051 0.0
H1081 H 0.17443 0.56756 0.55307 0.0
H1082 H 0.21007 0.59774 0.55012 0.0
C1083 C 0.20401 0.57329 0.55333 0.0
H1084 H 0.21883 0.54987 0.55105 0.0
H1085 H 0.28857 0.51226 0.54763 0.0
O1086 O 0.29452 0.58196 0.58448 0.0
C1087 C 0.3345 0.51984 0.5665 0.0
H1088 H 0.3812 0.89658 0.3103 0.0
H1089 H 0.37545 0.82988 0.3102 0.0
H1090 H 0.2821 0.83747 0.32386 0.0
H1091 H 0.28762 0.904 0.32393 0.0
H1092 H 0.3633 0.77559 0.32389 0.0
H1093 H 0.25664 0.78672 0.30317 0.0
H1094 H 0.29168 0.8207 0.3043 0.0
H1095 H 0.25464 0.81829 0.31042 0.0
C1096 C 0.35979 0.88382 0.31334 0.0
C1097 C 0.33482 0.90511 0.31712 0.0
C1098 C 0.35667 0.84591 0.31331 0.0
C1099 C 0.32845 0.82902 0.31704 0.0
C1100 C 0.30418 0.85019 0.32099 0.0
H1101 H 0.2441 0.62375 0.32774 0.0
H1102 H 0.28025 0.67921 0.3276 0.0
C1103 C 0.30736 0.88803 0.32104 0.0
C1104 C 0.32207 0.78961 0.31632 0.0
H1105 H 0.2649 0.72924 0.30843 0.0
C1106 C 0.34214 0.76522 0.32046 0.0
C1107 C 0.29482 0.77641 0.31176 0.0
C1108 C 0.27321 0.80172 0.30711 0.0
C1109 C 0.33447 0.72775 0.32036 0.0
C1110 C 0.30581 0.71475 0.31607 0.0
C1111 C 0.28695 0.73916 0.31171 0.0
C1112 C 0.29218 0.67688 0.31645 0.0
C1113 C 0.35679 0.70255 0.32489 0.0
C1114 C 0.28766 0.65649 0.31026 0.0
C1115 C 0.26658 0.62487 0.31031 0.0
C1116 C 0.24947 0.61323 0.31654 0.0
C1117 C 0.25678 0.63194 0.32284 0.0
C1118 C 0.27773 0.66363 0.32279 0.0
H1119 H 0.38434 0.71388 0.32588 0.0
H1120 H 0.34314 0.69917 0.33006 0.0
H1121 H 0.35963 0.67531 0.32242 0.0
H1122 H 0.29856 0.66628 0.30532 0.0
H1123 H 0.26176 0.61099 0.30536 0.0
H1124 H 0.34962 0.03395 0.56089 0.0
H1125 H 0.4158 0.02801 0.56181 0.0
H1126 H 0.41989 0.12376 0.5749 0.0
H1127 H 0.35331 0.12993 0.57395 0.0
H1128 H 0.47545 0.11529 0.56256 0.0
H1129 H 0.46633 0.00042 0.58149 0.0
H1130 H 0.43683 0.99722 0.57396 0.0
H1131 H 0.42997 0.0329 0.58027 0.0
C1132 C 0.36471 0.05389 0.56391 0.0
C1133 C 0.34663 0.08234 0.56736 0.0
C1134 C 0.40237 0.05044 0.56444 0.0
C1135 C 0.42251 0.07538 0.56844 0.0
C1136 C 0.40466 0.1043 0.5718 0.0
H1137 H 0.64146 0.00221 0.57797 0.0
H1138 H 0.58672 0.03923 0.57921 0.0
C1139 C 0.36682 0.10767 0.57128 0.0
C1140 C 0.46206 0.06998 0.56926 0.0
H1141 H 0.52319 0.00918 0.57578 0.0
C1142 C 0.48614 0.09253 0.56555 0.0
C1143 C 0.47574 0.04062 0.57324 0.0
C1144 C 0.45098 0.0165 0.57752 0.0
C1145 C 0.52363 0.08505 0.56539 0.0
C1146 C 0.53699 0.05406 0.56897 0.0
C1147 C 0.51301 0.03292 0.57302 0.0
C1148 C 0.57465 0.04043 0.56807 0.0
C1149 C 0.5484 0.10995 0.5613 0.0
C1150 C 0.58695 0.03017 0.56136 0.0
C1151 C 0.61838 0.00915 0.56062 0.0
C1152 C 0.63773 0.99754 0.5666 0.0
C1153 C 0.62703 0.01041 0.57326 0.0
C1154 C 0.59573 0.03162 0.57398 0.0
H1155 H 0.53722 0.13801 0.56107 0.0
H1156 H 0.57604 0.11095 0.56364 0.0
H1157 H 0.55076 0.09982 0.55581 0.0
H1158 H 0.5708 0.03599 0.55672 0.0
H1159 H 0.62582 -0.00026 0.55541 0.0
H1160 H 0.20773 0.09578 0.82385 0.0
H1161 H 0.21398 0.16208 0.82344 0.0
H1162 H 0.13014 0.16767 0.8076 0.0
H1163 H 0.12341 0.10118 0.80808 0.0
H1164 H 0.23272 0.19886 0.81054 0.0
H1165 H 0.10334 0.24922 0.82226 0.0
H1166 H 0.12064 0.20401 0.82393 0.0
H1167 H 0.10013 0.21446 0.81561 0.0
C1168 C 0.1901 0.11127 0.8204 0.0
C1169 C 0.16502 0.09361 0.81601 0.0
C1170 C 0.19375 0.14902 0.82015 0.0
C1171 C 0.17226 0.16969 0.81554 0.0
C1172 C 0.14654 0.1522 0.81127 0.0
H1173 H 0.24541 0.38558 0.80319 0.0
H1174 H 0.21169 0.32834 0.80271 0.0
C1175 C 0.14293 0.11435 0.8115 0.0
C1176 C 0.17942 0.20904 0.81478 0.0
H1177 H 0.14471 0.29352 0.81809 0.0
C1178 C 0.2134 0.2196 0.81214 0.0
C1179 C 0.15408 0.23582 0.81688 0.0
C1180 C 0.11752 0.22555 0.81987 0.0
C1181 C 0.22313 0.25632 0.81167 0.0
C1182 C 0.19792 0.28324 0.8138 0.0
C1183 C 0.16368 0.27276 0.81637 0.0
C1184 C 0.20859 0.32197 0.81401 0.0
C1185 C 0.2609 0.26598 0.80915 0.0
C1186 C 0.21565 0.33843 0.82052 0.0
C1187 C 0.23482 0.37118 0.82083 0.0
C1188 C 0.24734 0.38785 0.81461 0.0
C1189 C 0.23662 0.37326 0.80808 0.0
C1190 C 0.21738 0.34051 0.80779 0.0
H1191 H 0.27899 0.24181 0.80887 0.0
H1192 H 0.25917 0.27805 0.80381 0.0
H1193 H 0.27358 0.28639 0.81269 0.0
H1194 H 0.20889 0.32455 0.82538 0.0
H1195 H 0.2422 0.38186 0.82594 0.0
H1196 H 0.15295 0.95549 0.07439 0.0
H1197 H 0.08674 0.96291 0.0742 0.0
H1198 H 0.07808 0.87717 0.05879 0.0
H1199 H 0.14448 0.86929 0.05906 0.0
H1200 H 0.04999 0.98103 0.06131 0.0
H1201 H 0.99637 0.85457 0.07366 0.0
H1202 H 0.04214 0.87076 0.07518 0.0
H1203 H 0.03075 0.84946 0.06698 0.0
C1204 C 0.13679 0.93769 0.0711 0.0
C1205 C 0.15356 0.91185 0.06674 0.0
C1206 C 0.0991 0.94199 0.07097 0.0
C1207 C 0.0776 0.92037 0.06653 0.0
C1208 C 0.09419 0.89371 0.06233 0.0
H1209 H 0.86372 0.99672 0.0537 0.0
H1210 H 0.9204 0.96199 0.05349 0.0
C1211 C 0.13199 0.88944 0.06245 0.0
C1212 C 0.03845 0.92853 0.06578 0.0
H1213 H 0.9531 0.8964 0.06924 0.0
C1214 C 0.02877 0.96245 0.063 0.0
C1215 C 0.01102 0.90416 0.06801 0.0
C1216 C 0.02035 0.86773 0.07117 0.0
C1217 C 0.99231 0.97306 0.06248 0.0
C1218 C 0.96476 0.94879 0.06471 0.0
C1219 C 0.97435 0.91463 0.06744 0.0
C1220 C 0.92629 0.96037 0.06481 0.0
C1221 C 0.98363 0.01074 0.05978 0.0
C1222 C 0.90976 0.96869 0.07126 0.0
C1223 C 0.87733 0.98844 0.07141 0.0
C1224 C 0.86106 0.00027 0.06511 0.0
C1225 C 0.87573 0.98845 0.05866 0.0
C1226 C 0.90815 0.96862 0.05852 0.0
H1227 H 0.00823 0.02821 0.05945 0.0
H1228 H 0.97166 0.00866 0.05444 0.0
H1229 H 0.96343 0.02432 0.06325 0.0
H1230 H 0.92334 0.96237 0.07617 0.0
H1231 H 0.86658 0.99669 0.07647 0.0
H1232 H 0.25623 0.37168 0.19516 0.0
H1233 H 0.29233 0.31644 0.19403 0.0
H1234 H 0.30335 0.33531 0.17173 0.0
H1235 H 0.26656 0.3903 0.17278 0.0
H1236 H 0.2709 0.27185 0.17449 0.0
H1237 H 0.39509 0.28166 0.19076 0.0
H1238 H 0.35551 0.29533 0.1956 0.0
H1239 H 0.36964 0.32129 0.18803 0.0
C1240 C 0.26738 0.36485 0.19005 0.0
C1241 C 0.25797 0.38507 0.18404 0.0
C1242 C 0.28829 0.33328 0.18942 0.0
C1243 C 0.30062 0.32174 0.18279 0.0
C1244 C 0.2941 0.34373 0.17689 0.0
H1245 H 0.38333 0.0985 0.17588 0.0
H1246 H 0.37904 0.16528 0.17508 0.0
C1247 C 0.27302 0.37515 0.1775 0.0
C1248 C 0.31387 0.28398 0.18186 0.0
H1249 H 0.37186 0.22053 0.18869 0.0
C1250 C 0.29359 0.26089 0.17746 0.0
C1251 C 0.34342 0.26961 0.18574 0.0
C1252 C 0.36738 0.29341 0.19024 0.0
C1253 C 0.30067 0.22352 0.17717 0.0
C1254 C 0.32856 0.20886 0.1814 0.0
C1255 C 0.35028 0.23202 0.18549 0.0
C1256 C 0.33291 0.16918 0.1821 0.0
C1257 C 0.27727 0.19955 0.17258 0.0
C1258 C 0.30843 0.14971 0.18632 0.0
C1259 C 0.31078 0.11194 0.18677 0.0
C1260 C 0.33764 0.09309 0.18301 0.0
C1261 C 0.36234 0.1126 0.17881 0.0
C1262 C 0.36007 0.15055 0.17838 0.0
H1263 H 0.261 0.21561 0.16875 0.0
H1264 H 0.29438 0.1798 0.16964 0.0
H1265 H 0.25829 0.1838 0.17595 0.0
H1266 H 0.2872 0.16378 0.18919 0.0
H1267 H 0.29123 0.09738 0.18998 0.0
H1268 H 0.15445 0.04623 0.42594 0.0
H1269 H 0.08817 0.03972 0.4263 0.0
H1270 H 0.0821 0.12277 0.44229 0.0
H1271 H 0.14858 0.12975 0.44186 0.0
H1272 H 0.05175 0.01999 0.43917 0.0
H1273 H 6e-05 0.14959 0.42776 0.0
H1274 H 0.04541 0.13281 0.42604 0.0
H1275 H 0.03487 0.15277 0.43441 0.0
C1276 C 0.13885 0.06364 0.42941 0.0
C1277 C 0.15638 0.08847 0.43387 0.0
C1278 C 0.10111 0.05984 0.42963 0.0
C1279 C 0.08032 0.08098 0.43428 0.0
C1280 C 0.09767 0.10661 0.4386 0.0
H1281 H 0.86494 0.00613 0.4467 0.0
H1282 H 0.92226 0.03974 0.44718 0.0
C1283 C 0.13551 0.11037 0.43839 0.0
C1284 C 0.04104 0.07344 0.43506 0.0
H1285 H 0.9562 0.10768 0.43191 0.0
C1286 C 0.03082 0.03923 0.43764 0.0
C1287 C 0.014 0.09869 0.43304 0.0
C1288 C 0.0239 0.13551 0.43011 0.0
C1289 C 0.99419 0.02919 0.43812 0.0
C1290 C 0.96702 0.0543 0.43607 0.0
C1291 C 0.97716 0.08877 0.43357 0.0
C1292 C 0.92836 0.04335 0.43588 0.0
C1293 C 0.98488 0.99122 0.44058 0.0
C1294 C 0.91179 0.03651 0.42937 0.0
C1295 C 0.87902 0.01739 0.42907 0.0
C1296 C 0.8624 0.00473 0.43528 0.0
C1297 C 0.87718 0.0151 0.44181 0.0
C1298 C 0.90998 0.03426 0.44211 0.0
H1299 H 0.0092 0.97332 0.44081 0.0
H1300 H 0.97287 0.99259 0.44593 0.0
H1301 H 0.96452 0.97855 0.43702 0.0
H1302 H 0.92555 0.04349 0.42451 0.0
H1303 H 0.86819 0.01027 0.42395 0.0
H1304 H 0.20666 0.90177 0.6916 0.0
H1305 H 0.20839 0.8352 0.69126 0.0
H1306 H 0.12251 0.83474 0.67581 0.0
H1307 H 0.12007 0.90166 0.67625 0.0
H1308 H 0.13302 0.78163 0.69195 0.0
H1309 H 0.22721 0.77936 0.66893 0.0
H1310 H 0.22952 0.81629 0.67518 0.0
H1311 H 0.19075 0.81215 0.66953 0.0
C1312 C 0.1878 0.88745 0.68821 0.0
C1313 C 0.1631 0.90668 0.68398 0.0
C1314 C 0.18884 0.84955 0.68801 0.0
C1315 C 0.16539 0.83031 0.68355 0.0
C1316 C 0.14061 0.84931 0.67931 0.0
H1317 H 0.22452 0.60622 0.67486 0.0
H1318 H 0.18726 0.66111 0.67415 0.0
C1319 C 0.13946 0.88735 0.67953 0.0
C1320 C 0.16863 0.79041 0.68312 0.0
H1321 H 0.21863 0.7246 0.67506 0.0
C1322 C 0.15116 0.76887 0.68818 0.0
C1323 C 0.192 0.77409 0.67816 0.0
C1324 C 0.21104 0.79643 0.67261 0.0
C1325 C 0.1578 0.73129 0.6886 0.0
C1326 C 0.18323 0.71529 0.68394 0.0
C1327 C 0.19908 0.73673 0.67863 0.0
C1328 C 0.1973 0.67777 0.6849 0.0
C1329 C 0.13794 0.70933 0.69409 0.0
C1330 C 0.21393 0.66793 0.69128 0.0
C1331 C 0.23485 0.63629 0.69173 0.0
C1332 C 0.24018 0.61436 0.68576 0.0
C1333 C 0.22116 0.62271 0.67954 0.0
C1334 C 0.19987 0.6541 0.67913 0.0
H1335 H 0.1107 0.72112 0.69519 0.0
H1336 H 0.1345 0.68057 0.69244 0.0
H1337 H 0.15364 0.70993 0.69908 0.0
H1338 H 0.21314 0.68605 0.69577 0.0
H1339 H 0.24925 0.63077 0.69659 0.0
H1340 H 0.64164 0.98716 0.92273 0.0
H1341 H 0.58527 0.95223 0.92189 0.0
H1342 H 0.57064 0.9608 0.94434 0.0
H1343 H 0.62718 0.99526 0.94528 0.0
H1344 H 0.54318 0.89353 0.938 0.0
H1345 H 0.49618 0.02056 0.92482 0.0
H1346 H 0.53447 0.99801 0.92088 0.0
H1347 H 0.53887 0.01797 0.92946 0.0
C1348 C 0.62709 0.98064 0.92753 0.0
C1349 C 0.63842 0.9948 0.93405 0.0
C1350 C 0.59487 0.96068 0.92703 0.0
C1351 C 0.57348 0.95478 0.93303 0.0
C1352 C 0.58674 0.9653 0.93964 0.0
H1353 H 0.34748 0.96009 0.94078 0.0
H1354 H 0.41373 0.96578 0.9402 0.0
C1355 C 0.61908 0.98508 0.94016 0.0
C1356 C 0.53504 0.94356 0.93233 0.0
H1357 H 0.4525 0.97559 0.92693 0.0
C1358 C 0.52334 0.91111 0.93549 0.0
C1359 C 0.50928 0.96698 0.92914 0.0
C1360 C 0.5201 0.00297 0.92592 0.0
C1361 C 0.48625 0.90177 0.93565 0.0
C1362 C 0.46059 0.92553 0.93257 0.0
C1363 C 0.47243 0.95744 0.92926 0.0
C1364 C 0.421 0.91976 0.93324 0.0
C1365 C 0.47448 0.86749 0.93937 0.0
C1366 C 0.4033 0.89197 0.9295 0.0
C1367 C 0.3654 0.8887 0.92984 0.0
C1368 C 0.34493 0.91316 0.93391 0.0
C1369 C 0.36279 0.94068 0.93768 0.0
C1370 C 0.40051 0.94399 0.93733 0.0
H1371 H 0.49738 0.85406 0.94216 0.0
H1372 H 0.45265 0.87369 0.94322 0.0
H1373 H 0.46319 0.84809 0.93546 0.0
H1374 H 0.41869 0.87336 0.92624 0.0
H1375 H 0.35206 0.86726 0.9269 0.0
H1376 H 0.74921 0.39146 0.67193 0.0
H1377 H 0.71308 0.33589 0.67118 0.0
H1378 H 0.71767 0.32457 0.69376 0.0
H1379 H 0.75306 0.38044 0.69458 0.0
H1380 H 0.74357 0.27304 0.67505 0.0
H1381 H 0.61525 0.29034 0.68984 0.0
H1382 H 0.64228 0.32852 0.68692 0.0
H1383 H 0.6539 0.30469 0.69489 0.0
C1384 C 0.74153 0.37783 0.67676 0.0
C1385 C 0.75446 0.39016 0.68331 0.0
C1386 C 0.72085 0.34604 0.67632 0.0
C1387 C 0.71262 0.32606 0.68241 0.0
C1388 C 0.72306 0.33983 0.689 0.0
H1389 H 0.71538 0.09797 0.68903 0.0
H1390 H 0.7245 0.16389 0.68834 0.0
C1391 C 0.74355 0.37176 0.68946 0.0
C1392 C 0.69896 0.28824 0.68181 0.0
H1393 H 0.63674 0.22838 0.68846 0.0
C1394 C 0.71978 0.26348 0.67788 0.0
C1395 C 0.66786 0.27573 0.68547 0.0
C1396 C 0.64334 0.30133 0.68946 0.0
C1397 C 0.71142 0.22633 0.67778 0.0
C1398 C 0.68179 0.2135 0.68181 0.0
C1399 C 0.65976 0.23835 0.68545 0.0
C1400 C 0.67477 0.17412 0.68257 0.0
C1401 C 0.73484 0.20095 0.67349 0.0
C1402 C 0.64338 0.15831 0.67969 0.0
C1403 C 0.63812 0.12067 0.68011 0.0
C1404 C 0.66401 0.09856 0.68346 0.0
C1405 C 0.69496 0.11457 0.68647 0.0
C1406 C 0.70026 0.15208 0.68604 0.0
H1407 H 0.7502 0.21577 0.66935 0.0
H1408 H 0.75482 0.18745 0.67701 0.0
H1409 H 0.7181 0.17949 0.67095 0.0
H1410 H 0.62341 0.17497 0.67701 0.0
H1411 H 0.61399 0.10877 0.67778 0.0
H1412 H 0.64923 0.87124 0.4247 0.0
H1413 H 0.58256 0.8752 0.42352 0.0
H1414 H 0.58193 0.96905 0.43714 0.0
H1415 H 0.64817 0.96526 0.4383 0.0
H1416 H 0.52639 0.88027 0.4361 0.0
H1417 H 0.53077 0.99615 0.41733 0.0
H1418 H 0.56813 0.96465 0.41838 0.0
H1419 H 0.56063 -0.00029 0.4248 0.0
C1420 C 0.63467 0.89265 0.42742 0.0
C1421 C 0.65351 0.91795 0.43159 0.0
C1422 C 0.59679 0.89475 0.42678 0.0
C1423 C 0.57759 0.92241 0.43025 0.0
C1424 C 0.59643 0.94754 0.43443 0.0
H1425 H 0.37489 0.99243 0.44393 0.0
H1426 H 0.42997 0.95658 0.44233 0.0
C1427 C 0.63411 0.94533 0.4351 0.0
C1428 C 0.53789 0.92617 0.42942 0.0
H1429 H 0.47449 0.98517 0.42311 0.0
C1430 C 0.51479 0.90272 0.43315 0.0
C1431 C 0.52304 0.95515 0.42549 0.0
C1432 C 0.54682 0.98027 0.42122 0.0
C1433 C 0.4771 0.90899 0.4334 0.0
C1434 C 0.46255 0.93968 0.4299 0.0
C1435 C 0.48557 0.96165 0.4258 0.0
C1436 C 0.42474 0.9524 0.431 0.0
C1437 C 0.45339 0.88325 0.43754 0.0
C1438 C 0.4028 0.96107 0.4252 0.0
C1439 C 0.37147 0.98203 0.42609 0.0
C1440 C 0.36161 0.9948 0.4328 0.0
C1441 C 0.3817 0.9831 0.43868 0.0
C1442 C 0.41317 0.96232 0.43778 0.0
H1443 H 0.46534 0.85549 0.43767 0.0
H1444 H 0.45132 0.89304 0.44305 0.0
H1445 H 0.42556 0.88163 0.43529 0.0
H1446 H 0.41124 0.9537 0.41992 0.0
H1447 H 0.35641 0.99026 0.42145 0.0
H1448 H 0.78748 0.90157 0.18995 0.0
H1449 H 0.78105 0.83546 0.18913 0.0
H1450 H 0.86971 0.83146 0.17427 0.0
H1451 H 0.87663 0.8979 0.17518 0.0
H1452 H 0.76713 0.79721 0.17615 0.0
H1453 H 0.8941 0.752 0.18956 0.0
H1454 H 0.87518 0.79688 0.19083 0.0
H1455 H 0.89803 0.78596 0.18276 0.0
C1456 C 0.80591 0.8865 0.18659 0.0
C1457 C 0.83272 0.90458 0.18267 0.0
C1458 C 0.80215 0.84885 0.1861 0.0
C1459 C 0.82519 0.82864 0.18171 0.0
C1460 C 0.85206 0.84659 0.17778 0.0
H1461 H 0.75618 0.60823 0.1713 0.0
H1462 H 0.78966 0.66536 0.17021 0.0
C1463 C 0.85579 0.88441 0.17825 0.0
C1464 C 0.81933 0.78904 0.18101 0.0
H1465 H 0.85399 0.7062 0.18563 0.0
C1466 C 0.78629 0.77723 0.17813 0.0
C1467 C 0.84439 0.76327 0.18365 0.0
C1468 C 0.8799 0.77493 0.18692 0.0
C1469 C 0.77703 0.7403 0.17801 0.0
C1470 C 0.80185 0.71442 0.18073 0.0
C1471 C 0.83532 0.72613 0.18347 0.0
C1472 C 0.79134 0.67576 0.18141 0.0
C1473 C 0.73998 0.72945 0.17528 0.0
C1474 C 0.78372 0.66151 0.18809 0.0
C1475 C 0.76478 0.62874 0.18875 0.0
C1476 C 0.75302 0.60991 0.18272 0.0
C1477 C 0.76433 0.62231 0.17606 0.0
C1478 C 0.78343 0.65499 0.17541 0.0
H1479 H 0.72178 0.75329 0.17455 0.0
H1480 H 0.74307 0.71573 0.17012 0.0
H1481 H 0.7266 0.71009 0.17895 0.0
H1482 H 0.78983 0.67711 0.19279 0.0
H1483 H 0.75684 0.61983 0.19396 0.0
H1484 H 0.12568 -4e-05 0.94601 0.0
H1485 H 0.06898 0.03424 0.94517 0.0
H1486 H 0.08656 0.0495 0.92293 0.0
H1487 H 0.14307 0.01476 0.92368 0.0
H1488 H 0.04187 0.10307 0.93944 0.0
H1489 H 0.99758 0.97995 0.92463 0.0
H1490 H 0.0396 0.9814 0.92952 0.0
H1491 H 0.03626 0.00377 0.92114 0.0
C1492 C 0.11819 0.01159 0.94098 0.0
C1493 C 0.13842 0.00382 0.93488 0.0
C1494 C 0.08575 0.03124 0.94051 0.0
C1495 C 0.07329 0.04358 0.93396 0.0
C1496 C 0.09552 0.03961 0.92801 0.0
H1497 H 0.85283 0.13321 0.92766 0.0
H1498 H 0.91952 0.1269 0.92725 0.0
C1499 C 0.12782 0.01977 0.92846 0.0
C1500 C 0.03488 0.05478 0.93318 0.0
H1501 H 0.9534 0.02422 0.92692 0.0
C1502 C 0.02252 0.08621 0.93663 0.0
C1503 C 0.00974 0.03227 0.92959 0.0
C1504 C 0.02123 0.9973 0.92605 0.0
C1505 C 0.9854 0.0954 0.93666 0.0
C1506 C 0.96035 0.07257 0.93315 0.0
C1507 C 0.97286 0.04169 0.92957 0.0
C1508 C 0.92064 0.07811 0.93362 0.0
C1509 C 0.9729 0.12847 0.94068 0.0
C1510 C 0.89946 0.05256 0.93726 0.0
C1511 C 0.86173 0.056 0.93746 0.0
C1512 C 0.84455 0.08498 0.934 0.0
C1513 C 0.86567 0.11065 0.93036 0.0
C1514 C 0.90359 0.10724 0.93017 0.0
H1515 H 0.9952 0.14086 0.94382 0.0
H1516 H 0.96257 0.14916 0.93692 0.0
H1517 H 0.95021 0.12118 0.94427 0.0
H1518 H 0.91218 0.02975 0.9399 0.0
H1519 H 0.84589 0.03571 0.94024 0.0
H1520 H 0.73616 0.609 0.82706 0.0
H1521 H 0.69914 0.66387 0.82802 0.0
H1522 H 0.7088 0.68104 0.80564 0.0
H1523 H 0.74508 0.62587 0.80459 0.0
H1524 H 0.73108 0.72716 0.82502 0.0
H1525 H 0.60612 0.71567 0.80901 0.0
H1526 H 0.63194 0.67635 0.81178 0.0
H1527 H 0.64555 0.70194 0.80413 0.0
C1528 C 0.72936 0.62374 0.8223 0.0
C1529 C 0.74406 0.61338 0.81576 0.0
C1530 C 0.70814 0.6551 0.82286 0.0
C1531 C 0.70118 0.67659 0.81691 0.0
C1532 C 0.71319 0.66458 0.81029 0.0
H1533 H 0.70932 0.90178 0.80985 0.0
H1534 H 0.71412 0.83537 0.81052 0.0
C1535 C 0.73421 0.63306 0.80971 0.0
C1536 C 0.6878 0.71435 0.81776 0.0
H1537 H 0.62899 0.77703 0.81094 0.0
C1538 C 0.70817 0.73781 0.82207 0.0
C1539 C 0.65797 0.72831 0.81391 0.0
C1540 C 0.63393 0.70411 0.80951 0.0
C1541 C 0.70083 0.77514 0.82231 0.0
C1542 C 0.67261 0.78939 0.81811 0.0
C1543 C 0.65085 0.76586 0.8141 0.0
C1544 C 0.66769 0.829 0.8174 0.0
C1545 C 0.72421 0.79944 0.82684 0.0
C1546 C 0.63981 0.84708 0.82102 0.0
C1547 C 0.63711 0.885 0.82066 0.0
C1548 C 0.66208 0.90506 0.81663 0.0
C1549 C 0.68958 0.88677 0.81293 0.0
C1550 C 0.69236 0.849 0.81332 0.0
H1551 H 0.74043 0.78366 0.83072 0.0
H1552 H 0.74326 0.81488 0.82343 0.0
H1553 H 0.70712 0.81944 0.82971 0.0
H1554 H 0.62067 0.83194 0.82422 0.0
H1555 H 0.61564 0.89868 0.82353 0.0
H1556 H 0.12822 0.99639 0.55454 0.0
H1557 H 0.07093 0.96295 0.55514 0.0
H1558 H 0.08354 0.95123 0.57758 0.0
H1559 H 0.14063 0.98515 0.57708 0.0
H1560 H 0.04253 0.8954 0.56092 0.0
H1561 H 0.99487 0.0198 0.57488 0.0
H1562 H 0.03798 0.01789 0.57037 0.0
H1563 H 0.03274 0.99655 0.57881 0.0
C1564 C 0.11947 0.98575 0.55958 0.0
C1565 C 0.13856 0.99423 0.56579 0.0
C1566 C 0.08669 0.96659 0.55991 0.0
C1567 C 0.07269 0.95545 0.56643 0.0
C1568 C 0.09368 0.96022 0.57252 0.0
H1569 H 0.85352 0.86187 0.57167 0.0
H1570 H 0.91995 0.86978 0.57221 0.0
C1571 C 0.12633 0.97957 0.57221 0.0
C1572 C 0.03415 0.94424 0.56695 0.0
H1573 H 0.95147 0.97465 0.57261 0.0
C1574 C 0.02259 0.9124 0.56354 0.0
C1575 C 0.00824 0.96693 0.57028 0.0
C1576 C 0.01886 0.00236 0.57375 0.0
C1577 C 0.98557 0.90287 0.56332 0.0
C1578 C 0.95976 0.92574 0.56661 0.0
C1579 C 0.97145 0.95714 0.57012 0.0
C1580 C 0.92015 0.91935 0.56606 0.0
C1581 C 0.9741 0.86929 0.55933 0.0
C1582 C 0.89844 0.94483 0.56251 0.0
C1583 C 0.8608 0.9405 0.56225 0.0
C1584 C 0.84421 0.91066 0.56555 0.0
C1585 C 0.86587 0.88506 0.56909 0.0
C1586 C 0.90368 0.88939 0.56935 0.0
H1587 H 0.99666 0.85781 0.55614 0.0
H1588 H 0.96501 0.84821 0.56313 0.0
H1589 H 0.95085 0.87552 0.5558 0.0
H1590 H 0.91067 0.96828 0.55999 0.0
H1591 H 0.84455 0.96081 0.55957 0.0
H1592 H 0.87778 0.09583 0.32373 0.0
H1593 H 0.87502 0.1626 0.32482 0.0
H1594 H 0.77742 0.16383 0.31222 0.0
H1595 H 0.78005 0.09746 0.31115 0.0
H1596 H 0.86832 0.21819 0.31252 0.0
H1597 H 0.75522 0.21651 0.3319 0.0
H1598 H 0.78532 0.17822 0.3306 0.0
H1599 H 0.74934 0.187 0.32444 0.0
C1600 C 0.85581 0.11054 0.32121 0.0
C1601 C 0.82909 0.09184 0.31736 0.0
C1602 C 0.85437 0.14848 0.3218 0.0
C1603 C 0.82598 0.16789 0.31861 0.0
C1604 C 0.79946 0.14917 0.31473 0.0
H1605 H 0.75878 0.37226 0.30518 0.0
H1606 H 0.7937 0.3165 0.30662 0.0
C1607 C 0.80101 0.11143 0.31411 0.0
C1608 C 0.82301 0.2077 0.31941 0.0
H1609 H 0.76624 0.27245 0.32598 0.0
C1610 C 0.84649 0.23029 0.31556 0.0
C1611 C 0.79487 0.22322 0.32346 0.0
C1612 C 0.76986 0.20008 0.32789 0.0
C1613 C 0.84102 0.26811 0.31532 0.0
C1614 C 0.81111 0.28336 0.31897 0.0
C1615 C 0.78916 0.26083 0.32317 0.0
C1616 C 0.79913 0.32148 0.31793 0.0
C1617 C 0.86677 0.29121 0.31107 0.0
C1618 C 0.7915 0.34354 0.32377 0.0
C1619 C 0.77104 0.37528 0.32297 0.0
C1620 C 0.75776 0.38544 0.31631 0.0
C1621 C 0.76853 0.36523 0.31038 0.0
C1622 C 0.78878 0.33335 0.31119 0.0
H1623 H 0.89425 0.27868 0.31082 0.0
H1624 H 0.85642 0.2934 0.3056 0.0
H1625 H 0.86923 0.31904 0.31329 0.0
H1626 H 0.79924 0.3349 0.32901 0.0
H1627 H 0.76353 0.39042 0.32765 0.0
H1628 H 0.6513 0.0391 0.06061 0.0
H1629 H 0.5852 0.03237 0.06134 0.0
H1630 H 0.57936 0.12599 0.07498 0.0
H1631 H 0.64587 0.13314 0.07417 0.0
H1632 H 0.54579 0.02282 0.07436 0.0
H1633 H 0.50137 0.14429 0.05906 0.0
H1634 H 0.54646 0.12524 0.05821 0.0
H1635 H 0.5346 0.15073 0.06592 0.0
C1636 C 0.63583 0.05845 0.0637 0.0
C1637 C 0.6534 0.0867 0.06731 0.0
C1638 C 0.5982 0.05455 0.06413 0.0
C1639 C 0.57748 0.07891 0.06815 0.0
C1640 C 0.59492 0.10725 0.07177 0.0
H1641 H 0.35627 0.00998 0.07799 0.0
H1642 H 0.41267 0.04467 0.07909 0.0
C1643 C 0.63275 0.11112 0.07135 0.0
C1644 C 0.53785 0.07304 0.06876 0.0
H1645 H 0.45547 0.10482 0.06317 0.0
C1646 C 0.52593 0.04097 0.07201 0.0
C1647 C 0.51227 0.09676 0.06564 0.0
C1648 C 0.52408 0.13116 0.06197 0.0
C1649 C 0.48912 0.03123 0.07201 0.0
C1650 C 0.46345 0.05463 0.06879 0.0
C1651 C 0.47522 0.08725 0.0657 0.0
C1652 C 0.42509 0.04328 0.06797 0.0
C1653 C 0.47829 0.99503 0.07514 0.0
C1654 C 0.41215 0.03353 0.06129 0.0
C1655 C 0.37977 0.01395 0.06062 0.0
C1656 C 0.36004 0.00364 0.06664 0.0
C1657 C 0.37111 0.01697 0.07325 0.0
C1658 C 0.40336 0.03677 0.0739 0.0
H1659 H 0.50222 0.97748 0.07625 0.0
H1660 H 0.4637 -0.00032 0.08018 0.0
H1661 H 0.45972 0.98014 0.07154 0.0
H1662 H 0.4285 0.03853 0.05664 0.0
H1663 H 0.3719 0.00438 0.05545 0.0
H1664 H 0.79111 0.40671 0.82397 0.0
H1665 H 0.78405 0.34046 0.82389 0.0
H1666 H 0.87093 0.33145 0.80873 0.0
H1667 H 0.87847 0.3979 0.80889 0.0
H1668 H 0.76705 0.30277 0.81108 0.0
H1669 H 0.89316 0.25091 0.82383 0.0
H1670 H 0.87664 0.29669 0.82518 0.0
H1671 H 0.89844 0.28478 0.81706 0.0
C1672 C 0.80922 0.39047 0.82075 0.0
C1673 C 0.83534 0.40714 0.81645 0.0
C1674 C 0.80512 0.35276 0.82069 0.0
C1675 C 0.8272 0.33115 0.81635 0.0
C1676 C 0.85405 0.34766 0.81219 0.0
H1677 H 0.75311 0.11601 0.80391 0.0
H1678 H 0.78755 0.17284 0.80365 0.0
C1679 C 0.85812 0.38548 0.81225 0.0
C1680 C 0.81937 0.2919 0.81569 0.0
H1681 H 0.85188 0.20704 0.81944 0.0
C1682 C 0.78567 0.28179 0.81286 0.0
C1683 C 0.8438 0.26481 0.81804 0.0
C1684 C 0.88001 0.27461 0.82124 0.0
C1685 C 0.77532 0.24524 0.81242 0.0
C1686 C 0.79965 0.21803 0.81478 0.0
C1687 C 0.8336 0.22803 0.81755 0.0
C1688 C 0.78833 0.1795 0.81495 0.0
C1689 C 0.73786 0.2361 0.80967 0.0
C1690 C 0.77963 0.16337 0.82142 0.0
C1691 C 0.76002 0.13086 0.8216 0.0
C1692 C 0.74873 0.11412 0.81531 0.0
C1693 C 0.76094 0.12842 0.80885 0.0
C1694 C 0.78062 0.16091 0.80868 0.0
H1695 H 0.72024 0.26056 0.80924 0.0
H1696 H 0.74031 0.22377 0.80436 0.0
H1697 H 0.72422 0.21606 0.81316 0.0
H1698 H 0.78552 0.17733 0.82631 0.0
H1699 H 0.75144 0.12041 0.82667 0.0
H1700 H 0.13925 0.51171 0.07779 0.0
H1701 H 0.08251 0.54582 0.0789 0.0
H1702 H 0.06814 0.54197 0.05639 0.0
H1703 H 0.12504 0.50834 0.0552 0.0
H1704 H 0.03981 0.60748 0.06328 0.0
H1705 H 0.99427 0.47705 0.07537 0.0
H1706 H 0.03226 0.49921 0.0795 0.0
H1707 H 0.03695 0.48117 0.07076 0.0
C1708 C 0.12468 0.51912 0.07305 0.0
C1709 C 0.13619 0.50648 0.06642 0.0
C1710 C 0.09224 0.5386 0.0737 0.0
C1711 C 0.07082 0.54555 0.06775 0.0
C1712 C 0.08426 0.53663 0.06106 0.0
H1713 H 0.84589 0.53973 0.05925 0.0
H1714 H 0.91211 0.53462 0.06008 0.0
C1715 C 0.1168 0.51732 0.06039 0.0
C1716 C 0.03224 0.55612 0.06852 0.0
H1717 H 0.94998 0.52173 0.07354 0.0
C1718 C 0.02016 0.58909 0.06562 0.0
C1719 C 0.00672 0.53167 0.07148 0.0
C1720 C 0.01796 0.49515 0.07441 0.0
C1721 C 0.98296 0.59793 0.0655 0.0
C1722 C 0.95755 0.57313 0.06834 0.0
C1723 C 0.96973 0.54069 0.0714 0.0
C1724 C 0.91791 0.57838 0.06762 0.0
C1725 C 0.97078 0.63284 0.06206 0.0
C1726 C 0.8994 0.60463 0.07161 0.0
C1727 C 0.86151 0.60755 0.07113 0.0
C1728 C 0.84187 0.58432 0.06666 0.0
C1729 C 0.86055 0.55823 0.06267 0.0
C1730 C 0.89825 0.55525 0.06315 0.0
H1731 H 0.99366 0.64755 0.05951 0.0
H1732 H 0.94962 0.62708 0.05804 0.0
H1733 H 0.95846 0.6509 0.06609 0.0
H1734 H 0.91417 0.62238 0.07515 0.0
H1735 H 0.84755 0.62788 0.07425 0.0
H1736 H 0.73366 0.88418 0.30298 0.0
H1737 H 0.69804 0.82817 0.30245 0.0
H1738 H 0.70208 0.81967 0.32508 0.0
H1739 H 0.73695 0.87582 0.32568 0.0
H1740 H 0.73033 0.7665 0.30678 0.0
H1741 H 0.60064 0.7824 0.32118 0.0
H1742 H 0.62668 0.82086 0.31806 0.0
H1743 H 0.63852 0.79882 0.32621 0.0
C1744 C 0.72589 0.87112 0.30786 0.0
C1745 C 0.73871 0.8842 0.31437 0.0
C1746 C 0.70551 0.83908 0.30755 0.0
C1747 C 0.69736 0.81972 0.31372 0.0
C1748 C 0.70743 0.83441 0.32025 0.0
H1749 H 0.70376 0.595 0.32313 0.0
H1750 H 0.70729 0.66158 0.32257 0.0
C1751 C 0.7277 0.86648 0.32058 0.0
C1752 C 0.68473 0.7815 0.3133 0.0
H1753 H 0.62429 0.72084 0.32031 0.0
C1754 C 0.70666 0.75671 0.30961 0.0
C1755 C 0.65393 0.76865 0.31702 0.0
C1756 C 0.6284 0.79418 0.32078 0.0
C1757 C 0.69968 0.71929 0.30982 0.0
C1758 C 0.6702 0.70633 0.31386 0.0
C1759 C 0.64713 0.73104 0.31728 0.0
C1760 C 0.66452 0.66694 0.31482 0.0
C1761 C 0.72457 0.69362 0.30592 0.0
C1762 C 0.63882 0.64829 0.31074 0.0
C1763 C 0.63683 0.61033 0.31105 0.0
C1764 C 0.66044 0.59073 0.31545 0.0
C1765 C 0.68514 0.60961 0.31973 0.0
C1766 C 0.68719 0.64749 0.31941 0.0
H1767 H 0.74272 0.70818 0.30219 0.0
H1768 H 0.74175 0.67873 0.30977 0.0
H1769 H 0.70844 0.67318 0.30296 0.0
H1770 H 0.62126 0.66297 0.30715 0.0
H1771 H 0.61745 0.59621 0.30773 0.0
H1772 H 0.35952 0.48489 0.57827 0.0
H1773 H 0.41628 0.45068 0.57924 0.0
H1774 H 0.42999 0.45583 0.55672 0.0
H1775 H 0.37302 0.48945 0.55566 0.0
H1776 H 0.45795 0.39029 0.56317 0.0
H1777 H 0.50524 0.51788 0.57608 0.0
H1778 H 0.46728 0.49549 0.58016 0.0
H1779 H 0.46227 0.51493 0.57154 0.0
C1780 C 0.37399 0.47779 0.57349 0.0
C1781 C 0.36219 0.49068 0.5669 0.0
C1782 C 0.40645 0.45828 0.57407 0.0
C1783 C 0.42768 0.45164 0.56807 0.0
C1784 C 0.41405 0.46095 0.56142 0.0
H1785 H 0.65406 0.45716 0.56044 0.0
H1786 H 0.58797 0.46386 0.56122 0.0
C1787 C 0.38145 0.48023 0.56083 0.0
C1788 C 0.46617 0.44049 0.56877 0.0
H1789 H 0.54881 0.47262 0.5741 0.0
C1790 C 0.47783 0.40794 0.56564 0.0
C1791 C 0.492 0.46401 0.57191 0.0
C1792 C 0.4813 0.50017 0.57507 0.0
C1793 C 0.5149 0.3986 0.56546 0.0
C1794 C 0.54065 0.4224 0.56851 0.0
C1795 C 0.52885 0.45442 0.5718 0.0
C1796 C 0.58026 0.41654 0.56784 0.0
C1797 C 0.52651 0.36428 0.56174 0.0
C1798 C 0.59772 0.38776 0.57132 0.0
C1799 C 0.63553 0.38388 0.57086 0.0
C1800 C 0.65617 0.40874 0.56691 0.0
C1801 C 0.6386 0.43744 0.56344 0.0
C1802 C 0.60097 0.44133 0.5639 0.0
H1803 H 0.50376 0.3515 0.55879 0.0
H1804 H 0.54907 0.37012 0.55802 0.0
H1805 H 0.53667 0.34441 0.56567 0.0
H1806 H 0.58221 0.3687 0.57446 0.0
H1807 H 0.64865 0.36154 0.57358 0.0
H1808 H 0.74848 0.8796 0.69344 0.0
H1809 H 0.78414 0.82409 0.69233 0.0
H1810 H 0.78285 0.83487 0.66972 0.0
H1811 H 0.74639 0.89011 0.67077 0.0
H1812 H 0.7546 0.77165 0.67389 0.0
H1813 H 0.88585 0.79133 0.68753 0.0
H1814 H 0.84837 0.80531 0.69293 0.0
H1815 H 0.85756 0.82902 0.68483 0.0
C1816 C 0.75669 0.87087 0.68823 0.0
C1817 C 0.7441 0.88905 0.68219 0.0
C1818 C 0.77737 0.83916 0.68761 0.0
C1819 C 0.78633 0.82537 0.68094 0.0
C1820 C 0.77628 0.84507 0.67492 0.0
H1821 H 0.88549 0.60782 0.67661 0.0
H1822 H 0.87573 0.67382 0.67542 0.0
C1823 C 0.75542 0.87667 0.67553 0.0
C1824 C 0.80041 0.78775 0.68026 0.0
H1825 H 0.86445 0.72897 0.68661 0.0
C1826 C 0.77906 0.76253 0.67655 0.0
C1827 C 0.8324 0.7758 0.68369 0.0
C1828 C 0.85754 0.80191 0.68741 0.0
C1829 C 0.7877 0.72544 0.67651 0.0
C1830 C 0.81817 0.71317 0.68036 0.0
C1831 C 0.84079 0.7385 0.68374 0.0
C1832 C 0.82532 0.67392 0.6813 0.0
C1833 C 0.7636 0.6995 0.67249 0.0
C1834 C 0.80049 0.65251 0.68508 0.0
C1835 C 0.80598 0.61514 0.68574 0.0
C1836 C 0.83648 0.59863 0.68267 0.0
C1837 C 0.86171 0.62011 0.67899 0.0
C1838 C 0.85625 0.65764 0.67834 0.0
H1839 H 0.74755 0.71379 0.66838 0.0
H1840 H 0.77991 0.67772 0.66995 0.0
H1841 H 0.74422 0.68648 0.67619 0.0
H1842 H 0.77663 0.66472 0.68745 0.0
H1843 H 0.78608 0.59902 0.68857 0.0
H1844 H 0.65478 0.54147 0.92589 0.0
H1845 H 0.58849 0.53497 0.92627 0.0
H1846 H 0.58207 0.62207 0.94144 0.0
H1847 H 0.6485 0.6291 0.94095 0.0
H1848 H 0.55212 0.51771 0.93898 0.0
H1849 H 0.49978 0.64561 0.92703 0.0
H1850 H 0.54551 0.62931 0.92554 0.0
H1851 H 0.53392 0.65039 0.93376 0.0
C1852 C 0.63909 0.55977 0.92917 0.0
C1853 C 0.65649 0.58579 0.93338 0.0
C1854 C 0.60135 0.55598 0.9294 0.0
C1855 C 0.58043 0.57825 0.93383 0.0
C1856 C 0.59769 0.60504 0.9379 0.0
H1857 H 0.3665 0.50329 0.94706 0.0
H1858 H 0.42368 0.5372 0.94731 0.0
C1859 C 0.63552 0.60883 0.93766 0.0
C1860 C 0.54118 0.57076 0.93469 0.0
H1861 H 0.45612 0.60481 0.93169 0.0
C1862 C 0.53111 0.53682 0.93743 0.0
C1863 C 0.514 0.59581 0.93265 0.0
C1864 C 0.52363 0.63228 0.92953 0.0
C1865 C 0.49451 0.52686 0.93806 0.0
C1866 C 0.4672 0.55184 0.93601 0.0
C1867 C 0.47719 0.58602 0.93335 0.0
C1868 C 0.42849 0.54098 0.93599 0.0
C1869 C 0.48542 0.48908 0.94065 0.0
C1870 C 0.41113 0.53429 0.92955 0.0
C1871 C 0.3784 0.51507 0.92938 0.0
C1872 C 0.36263 0.50211 0.93565 0.0
C1873 C 0.37811 0.51244 0.94213 0.0
C1874 C 0.41084 0.53176 0.94229 0.0
H1875 H 0.50969 0.47109 0.94079 0.0
H1876 H 0.47427 0.49083 0.94607 0.0
H1877 H 0.46448 0.47627 0.93725 0.0
H1878 H 0.42429 0.5414 0.92464 0.0
H1879 H 0.36701 0.50802 0.9243 0.0
H1880 H 0.74028 0.11064 0.19644 0.0
H1881 H 0.70256 0.16527 0.19704 0.0
H1882 H 0.70992 0.17701 0.17449 0.0
H1883 H 0.74664 0.12216 0.17382 0.0
H1884 H 0.73127 0.22873 0.19348 0.0
H1885 H 0.60703 0.20924 0.17761 0.0
H1886 H 0.63441 0.17148 0.18061 0.0
H1887 H 0.64661 0.19601 0.17274 0.0
C1888 C 0.73285 0.12414 0.19158 0.0
C1889 C 0.74694 0.11228 0.18509 0.0
C1890 C 0.71126 0.15539 0.19194 0.0
C1891 C 0.70328 0.17522 0.18581 0.0
C1892 C 0.715 0.16184 0.17928 0.0
H1893 H 0.70052 0.39815 0.17592 0.0
H1894 H 0.70489 0.33169 0.17662 0.0
C1895 C 0.73636 0.13051 0.17891 0.0
C1896 C 0.68867 0.21272 0.18632 0.0
H1897 H 0.62841 0.27183 0.17877 0.0
C1898 C 0.70818 0.2379 0.1904 0.0
C1899 C 0.65862 0.22481 0.18228 0.0
C1900 C 0.63528 0.19882 0.17813 0.0
C1901 C 0.69978 0.27503 0.19025 0.0
C1902 C 0.6713 0.2873 0.18588 0.0
C1903 C 0.6505 0.26216 0.18206 0.0
C1904 C 0.66485 0.32653 0.1849 0.0
C1905 C 0.72234 0.30131 0.19451 0.0
C1906 C 0.64049 0.34524 0.18926 0.0
C1907 C 0.63792 0.38313 0.18886 0.0
C1908 C 0.65972 0.40264 0.1841 0.0
C1909 C 0.68318 0.38365 0.17958 0.0
C1910 C 0.68572 0.34583 0.17998 0.0
H1911 H 0.74146 0.28714 0.19812 0.0
H1912 H 0.7383 0.31892 0.19091 0.0
H1913 H 0.70434 0.31926 0.19767 0.0
H1914 H 0.62438 0.33066 0.19311 0.0
H1915 H 0.61949 0.39729 0.19237 0.0
H1916 H 0.12615 0.49939 0.44383 0.0
H1917 H 0.07066 0.46394 0.44241 0.0
H1918 H 0.08294 0.46816 0.41984 0.0
H1919 H 0.1382 0.50427 0.4212 0.0
H1920 H 0.01982 0.49746 0.42416 0.0
H1921 H 0.03658 0.36322 0.43686 0.0
H1922 H 0.0513 0.39955 0.44248 0.0
H1923 H 0.07487 0.39116 0.43433 0.0
C1924 C 0.1178 0.4918 0.43857 0.0
C1925 C 0.13634 0.50521 0.43263 0.0
C1926 C 0.0861 0.47125 0.43776 0.0
C1927 C 0.07266 0.46331 0.43102 0.0
C1928 C 0.09285 0.47396 0.4251 0.0
H1929 H 0.85235 0.3723 0.42506 0.0
H1930 H 0.91863 0.38048 0.42397 0.0
C1931 C 0.12446 0.49463 0.42589 0.0
C1932 C 0.03486 0.45001 0.43017 0.0
H1933 H 0.97468 0.38576 0.43593 0.0
C1934 C 0.01016 0.4726 0.4266 0.0
C1935 C 0.02221 0.41756 0.43334 0.0
C1936 C 0.04774 0.39131 0.43691 0.0
C1937 C 0.97292 0.46468 0.42646 0.0
C1938 C 0.96 0.43359 0.43003 0.0
C1939 C 0.98476 0.40982 0.43326 0.0
C1940 C 0.92061 0.42715 0.43089 0.0
C1941 C 0.94744 0.49024 0.42268 0.0
C1942 C 0.90018 0.45047 0.43519 0.0
C1943 C 0.86268 0.44586 0.43581 0.0
C1944 C 0.84503 0.41781 0.43215 0.0
C1945 C 0.86551 0.39418 0.4279 0.0
C1946 C 0.90319 0.3987 0.42731 0.0
H1947 H 0.96214 0.50784 0.41887 0.0
H1948 H 0.92604 0.47484 0.41982 0.0
H1949 H 0.93384 0.50807 0.42659 0.0
H1950 H 0.91327 0.47251 0.43801 0.0
H1951 H 0.84735 0.46459 0.43906 0.0
H1952 H 0.25207 0.87326 0.19603 0.0
H1953 H 0.21823 0.81622 0.19528 0.0
H1954 H 0.20204 0.8332 0.17305 0.0
H1955 H 0.23626 0.89006 0.17371 0.0
H1956 H 0.14904 0.78847 0.18954 0.0
H1957 H 0.27278 0.74484 0.17485 0.0
H1958 H 0.27098 0.78686 0.17974 0.0
H1959 H 0.2488 0.78338 0.17134 0.0
C1960 C 0.24029 0.86556 0.19102 0.0
C1961 C 0.24764 0.88574 0.1849 0.0
C1962 C 0.22091 0.83293 0.19061 0.0
C1963 C 0.20842 0.82023 0.18408 0.0
C1964 C 0.212 0.84237 0.17811 0.0
H1965 H 0.12077 0.59933 0.17747 0.0
H1966 H 0.1268 0.66605 0.17711 0.0
C1967 C 0.23156 0.87486 0.17851 0.0
C1968 C 0.19755 0.78171 0.18334 0.0
H1969 H 0.22872 0.70037 0.17712 0.0
C1970 C 0.16609 0.7692 0.18675 0.0
C1971 C 0.2203 0.75669 0.17977 0.0
C1972 C 0.25526 0.76838 0.17626 0.0
C1973 C 0.15707 0.73203 0.18677 0.0
C1974 C 0.18012 0.7071 0.18328 0.0
C1975 C 0.21107 0.71975 0.17975 0.0
C1976 C 0.17468 0.66737 0.18373 0.0
C1977 C 0.12389 0.71934 0.19073 0.0
C1978 C 0.19982 0.64631 0.1875 0.0
C1979 C 0.19652 0.60856 0.18767 0.0
C1980 C 0.1681 0.59124 0.18407 0.0
C1981 C 0.14288 0.61226 0.18029 0.0
C1982 C 0.14613 0.6502 0.18012 0.0
H1983 H 0.11103 0.74164 0.19379 0.0
H1984 H 0.10359 0.7085 0.18695 0.0
H1985 H 0.13126 0.69695 0.19439 0.0
H1986 H 0.22221 0.65913 0.19025 0.0
H1987 H 0.21651 0.59281 0.19055 0.0
H1988 H 0.85873 0.48648 0.92233 0.0
H1989 H 0.91371 0.44966 0.92129 0.0
H1990 H 0.93096 0.45841 0.94369 0.0
H1991 H 0.8757 0.4945 0.9448 0.0
H1992 H 0.9771 0.48131 0.92432 0.0
H1993 H 0.96546 0.35586 0.94017 0.0
H1994 H 0.92617 0.38184 0.93745 0.0
H1995 H 0.9518 0.39511 0.94511 0.0
C1996 C 0.87353 0.47953 0.92707 0.0
C1997 C 0.86313 0.49391 0.93364 0.0
C1998 C 0.90495 0.45843 0.92647 0.0
C1999 C 0.92648 0.45124 0.93241 0.0
C2000 C 0.91448 0.46297 0.93905 0.0
H2001 H 0.15064 0.45894 0.93999 0.0
H2002 H 0.08431 0.46346 0.93911 0.0
C2003 C 0.8829 0.48387 0.93967 0.0
C2004 C 0.96422 0.43784 0.93153 0.0
H2005 H 0.02687 0.37886 0.93832 0.0
C2006 C 0.98772 0.45831 0.92725 0.0
C2007 C 0.97816 0.40788 0.93535 0.0
C2008 C 0.95394 0.38371 0.93972 0.0
C2009 C 0.02506 0.45099 0.92701 0.0
C2010 C 0.03928 0.42265 0.93119 0.0
C2011 C 0.01572 0.40078 0.93517 0.0
C2012 C 0.07889 0.41796 0.93197 0.0
C2013 C 0.04944 0.47455 0.92254 0.0
C2014 C 0.09749 0.39073 0.92826 0.0
C2015 C 0.1354 0.3882 0.92874 0.0
C2016 C 0.15491 0.41271 0.93298 0.0
C2017 C 0.13608 0.43959 0.93674 0.0
C2018 C 0.09835 0.4422 0.93624 0.0
H2019 H 0.03371 0.49108 0.9187 0.0
H2020 H 0.06497 0.49332 0.92599 0.0
H2021 H 0.06936 0.45755 0.91962 0.0
H2022 H 0.08276 0.37193 0.92492 0.0
H2023 H 0.14949 0.36718 0.92582 0.0
H2024 H 0.24766 0.12942 0.69616 0.0
H2025 H 0.28163 0.18623 0.69521 0.0
H2026 H 0.30303 0.16411 0.67331 0.0
H2027 H 0.26826 0.10758 0.67415 0.0
H2028 H 0.35001 0.21256 0.69057 0.0
H2029 H 0.23628 0.25348 0.67287 0.0
H2030 H 0.2351 0.21217 0.67798 0.0
H2031 H 0.26202 0.21453 0.67009 0.0
C2032 C 0.2605 0.136 0.69119 0.0
C2033 C 0.25451 0.11443 0.68519 0.0
C2034 C 0.27994 0.16854 0.69066 0.0
C2035 C 0.29392 0.17978 0.68414 0.0
C2036 C 0.29167 0.15625 0.67834 0.0
H2037 H 0.37633 0.40242 0.67657 0.0
H2038 H 0.37199 0.33555 0.67607 0.0
C2039 C 0.27191 0.1239 0.67885 0.0
C2040 C 0.30573 0.21799 0.68322 0.0
H2041 H 0.27903 0.29823 0.67577 0.0
C2042 C 0.33494 0.2312 0.68724 0.0
C2043 C 0.28557 0.24233 0.67895 0.0
C2044 C 0.25281 0.23014 0.67476 0.0
C2045 C 0.34399 0.26834 0.68721 0.0
C2046 C 0.32331 0.29255 0.68306 0.0
C2047 C 0.29492 0.27927 0.67888 0.0
C2048 C 0.32787 0.3323 0.68357 0.0
C2049 C 0.37446 0.28196 0.69181 0.0
C2050 C 0.30431 0.35217 0.68791 0.0
C2051 C 0.3066 0.38999 0.68817 0.0
C2052 C 0.33248 0.40852 0.68409 0.0
C2053 C 0.35613 0.3886 0.67975 0.0
C2054 C 0.35385 0.3506 0.67949 0.0
H2055 H 0.3887 0.25949 0.69459 0.0
H2056 H 0.39449 0.29714 0.68857 0.0
H2057 H 0.36341 0.30117 0.69579 0.0
H2058 H 0.28385 0.33838 0.69103 0.0
H2059 H 0.28777 0.40484 0.69148 0.0
H2060 H 0.62528 0.49647 0.44577 0.0
H2061 H 0.56836 0.53064 0.44532 0.0
H2062 H 0.58241 0.54705 0.42302 0.0
H2063 H 0.63908 0.51237 0.42337 0.0
H2064 H 0.54127 0.59963 0.4401 0.0
H2065 H 0.49258 0.4796 0.4249 0.0
H2066 H 0.53547 0.47977 0.42951 0.0
H2067 H 0.531 0.50314 0.42125 0.0
C2068 C 0.61691 0.50826 0.4408 0.0
C2069 C 0.63627 0.50095 0.43457 0.0
C2070 C 0.58435 0.52783 0.44056 0.0
C2071 C 0.57086 0.54055 0.43411 0.0
C2072 C 0.59213 0.53682 0.42803 0.0
H2073 H 0.35405 0.63965 0.42911 0.0
H2074 H 0.42036 0.63053 0.42872 0.0
C2075 C 0.62453 0.51704 0.42825 0.0
C2076 C 0.53254 0.55249 0.4336 0.0
H2077 H 0.44984 0.52509 0.4274 0.0
C2078 C 0.52126 0.58366 0.43726 0.0
C2079 C 0.50652 0.53113 0.42998 0.0
C2080 C 0.51678 0.49638 0.42623 0.0
C2081 C 0.4844 0.59382 0.43746 0.0
C2082 C 0.45848 0.5723 0.43387 0.0
C2083 C 0.46992 0.54157 0.43011 0.0
C2084 C 0.41896 0.57933 0.43434 0.0
C2085 C 0.4732 0.62658 0.44172 0.0
C2086 C 0.39639 0.55335 0.43753 0.0
C2087 C 0.35882 0.55837 0.4377 0.0
C2088 C 0.34319 0.58944 0.43468 0.0
C2089 C 0.36569 0.61553 0.43148 0.0
C2090 C 0.40342 0.6105 0.43131 0.0
H2091 H 0.49563 0.63668 0.44512 0.0
H2092 H 0.46506 0.64883 0.4381 0.0
H2093 H 0.4494 0.61998 0.44509 0.0
H2094 H 0.40789 0.52898 0.43985 0.0
H2095 H 0.3419 0.5377 0.44011 0.0
H2096 H 0.24315 0.1173 0.30375 0.0
H2097 H 0.20878 0.1742 0.30366 0.0
H2098 H 0.20979 0.17623 0.32634 0.0
H2099 H 0.24388 0.11928 0.32652 0.0
H2100 H 0.14311 0.20625 0.31927 0.0
H2101 H 0.27575 0.26169 0.30997 0.0
H2102 H 0.25657 0.22511 0.3049 0.0
H2103 H 0.2716 0.21686 0.31374 0.0
C2104 C 0.2351 0.12917 0.30873 0.0
C2105 C 0.24703 0.11417 0.31515 0.0
C2106 C 0.21546 0.16171 0.30866 0.0
C2107 C 0.20743 0.1796 0.31499 0.0
C2108 C 0.21591 0.16281 0.3214 0.0
H2109 H 0.20081 0.40638 0.32478 0.0
H2110 H 0.20845 0.34017 0.32466 0.0
C2111 C 0.23553 0.13029 0.32149 0.0
C2112 C 0.19593 0.2181 0.31495 0.0
H2113 H 0.22848 0.30344 0.31178 0.0
C2114 C 0.16152 0.22757 0.31757 0.0
C2115 C 0.22041 0.24572 0.31285 0.0
C2116 C 0.25827 0.23708 0.31025 0.0
C2117 C 0.15098 0.26423 0.31814 0.0
C2118 C 0.17554 0.29173 0.31604 0.0
C2119 C 0.20976 0.28216 0.31338 0.0
C2120 C 0.16715 0.33085 0.31674 0.0
C2121 C 0.11419 0.27345 0.32116 0.0
C2122 C 0.14113 0.34732 0.31238 0.0
C2123 C 0.13675 0.38511 0.31246 0.0
C2124 C 0.15838 0.40679 0.31688 0.0
C2125 C 0.18357 0.39014 0.32139 0.0
C2126 C 0.188 0.35245 0.3213 0.0
H2127 H 0.10077 0.24939 0.32357 0.0
H2128 H 0.11676 0.29512 0.3252 0.0
H2129 H 0.0964 0.28396 0.3169 0.0
H2130 H 0.1252 0.33113 0.30875 0.0
H2131 H 0.11712 0.39749 0.30894 0.0
H2132 H 0.62828 0.49025 0.07495 0.0
H2133 H 0.57252 0.45478 0.07429 0.0
H2134 H 0.57708 0.45809 0.05162 0.0
H2135 H 0.63271 0.49427 0.05221 0.0
H2136 H 0.51586 0.48836 0.0568 0.0
H2137 H 0.53579 0.35414 0.06935 0.0
H2138 H 0.55292 0.39046 0.07471 0.0
H2139 H 0.57334 0.3816 0.06626 0.0
C2140 C 0.61817 0.4825 0.06981 0.0
C2141 C 0.63464 0.49572 0.06364 0.0
C2142 C 0.58633 0.46188 0.06945 0.0
C2143 C 0.57065 0.4537 0.06291 0.0
C2144 C 0.58879 0.46407 0.05672 0.0
H2145 H 0.34816 0.37031 0.05766 0.0
H2146 H 0.4147 0.37571 0.0568 0.0
C2147 C 0.62062 0.48478 0.05708 0.0
C2148 C 0.53253 0.44075 0.06259 0.0
H2149 H 0.4739 0.37715 0.06917 0.0
C2150 C 0.50684 0.46362 0.05937 0.0
C2151 C 0.52073 0.40854 0.06597 0.0
C2152 C 0.54723 0.3821 0.0692 0.0
C2153 C 0.46958 0.4561 0.05974 0.0
C2154 C 0.45769 0.42509 0.06347 0.0
C2155 C 0.48327 0.40117 0.06639 0.0
C2156 C 0.41856 0.41843 0.06459 0.0
C2157 C 0.44298 0.48191 0.05633 0.0
C2158 C 0.39914 0.44021 0.06935 0.0
C2159 C 0.36137 0.43722 0.06983 0.0
C2160 C 0.34258 0.41246 0.06555 0.0
C2161 C 0.36221 0.38971 0.06098 0.0
C2162 C 0.40005 0.39262 0.06051 0.0
H2163 H 0.45663 0.50089 0.05262 0.0
H2164 H 0.42169 0.46657 0.05343 0.0
H2165 H 0.42927 0.49823 0.06046 0.0
H2166 H 0.41312 0.46035 0.07251 0.0
H2167 H 0.34674 0.45524 0.07334 0.0
H2168 H 0.38335 0.60104 0.82389 0.0
H2169 H 0.37878 0.66776 0.8248 0.0
H2170 H 0.28465 0.66603 0.81126 0.0
H2171 H 0.28904 0.59967 0.81037 0.0
H2172 H 0.37185 0.72351 0.81203 0.0
H2173 H 0.25782 0.717 0.83122 0.0
H2174 H 0.29014 0.68039 0.83012 0.0
H2175 H 0.25459 0.68691 0.82377 0.0
C2176 C 0.36182 0.6151 0.82111 0.0
C2177 C 0.33655 0.59554 0.81706 0.0
C2178 C 0.35937 0.65301 0.82159 0.0
C2179 C 0.33141 0.67156 0.81809 0.0
C2180 C 0.30642 0.65204 0.81399 0.0
H2181 H 0.25817 0.87588 0.80529 0.0
H2182 H 0.29399 0.8205 0.80646 0.0
C2183 C 0.30897 0.6143 0.81347 0.0
C2184 C 0.3269 0.7112 0.81889 0.0
H2185 H 0.26811 0.7737 0.82561 0.0
C2186 C 0.34962 0.73473 0.81509 0.0
C2187 C 0.29821 0.72554 0.82296 0.0
C2188 C 0.27386 0.70127 0.8273 0.0
C2189 C 0.34298 0.77238 0.81495 0.0
C2190 C 0.31268 0.78646 0.81864 0.0
C2191 C 0.29136 0.76297 0.82277 0.0
C2192 C 0.2998 0.82439 0.81778 0.0
C2193 C 0.368 0.79657 0.81075 0.0
C2194 C 0.29203 0.84567 0.82372 0.0
C2195 C 0.27108 0.87718 0.82308 0.0
C2196 C 0.25743 0.88788 0.81648 0.0
C2197 C 0.26819 0.86842 0.81045 0.0
C2198 C 0.28895 0.83677 0.81111 0.0
H2199 H 0.39576 0.78474 0.81041 0.0
H2200 H 0.35733 0.79916 0.80531 0.0
H2201 H 0.36988 0.82418 0.81309 0.0
H2202 H 0.30013 0.8366 0.82891 0.0
H2203 H 0.26358 0.89173 0.82782 0.0
H2204 H 0.87234 0.49359 0.57696 0.0
H2205 H 0.92767 0.5299 0.57671 0.0
H2206 H 0.91852 0.54057 0.55418 0.0
H2207 H 0.86335 0.50359 0.55434 0.0
H2208 H 0.98134 0.50895 0.55813 0.0
H2209 H 0.96134 0.6337 0.57392 0.0
H2210 H 0.94634 0.59377 0.57851 0.0
H2211 H 0.92374 0.60735 0.57052 0.0
C2212 C 0.88135 0.50458 0.57196 0.0
C2213 C 0.86369 0.49514 0.56565 0.0
C2214 C 0.91295 0.52565 0.57184 0.0
C2215 C 0.9272 0.53807 0.56543 0.0
C2216 C 0.90794 0.53129 0.55919 0.0
H2217 H 0.14728 0.62606 0.55933 0.0
H2218 H 0.08065 0.62008 0.55893 0.0
C2219 C 0.87638 0.51011 0.55929 0.0
C2220 C 0.96496 0.55209 0.56513 0.0
H2221 H 0.02362 0.6129 0.57264 0.0
C2222 C 0.99038 0.53217 0.56118 0.0
C2223 C 0.97681 0.58229 0.56914 0.0
C2224 C 0.95052 0.60572 0.57321 0.0
C2225 C 0.02749 0.54057 0.5614 0.0
C2226 C 0.03951 0.56947 0.56569 0.0
C2227 C 0.01414 0.5905 0.56941 0.0
C2228 C 0.07869 0.57661 0.56659 0.0
C2229 C 0.05393 0.51779 0.55721 0.0
C2230 C 0.09921 0.55449 0.5711 0.0
C2231 C 0.13702 0.55775 0.57131 0.0
C2232 C 0.15476 0.58311 0.56699 0.0
C2233 C 0.13405 0.60619 0.56267 0.0
C2234 C 0.09617 0.60297 0.56247 0.0
H2235 H 0.03989 0.49933 0.55346 0.0
H2236 H 0.07287 0.53556 0.55423 0.0
H2237 H 0.07047 0.50103 0.56087 0.0
H2238 H 0.08603 0.53384 0.57428 0.0
H2239 H 0.1525 0.53949 0.57464 0.0
H2240 H 0.58825 0.37183 0.30197 0.0
H2241 H 0.5503 0.31728 0.30137 0.0
H2242 H 0.54026 0.3173 0.32398 0.0
H2243 H 0.5783 0.37158 0.32467 0.0
H2244 H 0.5662 0.2508 0.31795 0.0
H2245 H 0.44025 0.30076 0.3049 0.0
H2246 H 0.48243 0.31257 0.30069 0.0
H2247 H 0.47201 0.33093 0.30921 0.0
C2248 C 0.57739 0.3607 0.30681 0.0
C2249 C 0.58654 0.376 0.31337 0.0
C2250 C 0.55564 0.32955 0.30645 0.0
C2251 C 0.54251 0.31336 0.31264 0.0
C2252 C 0.55023 0.32943 0.31916 0.0
H2253 H 0.42502 0.123 0.32525 0.0
H2254 H 0.46545 0.17536 0.32438 0.0
C2255 C 0.57189 0.36055 0.31953 0.0
C2256 C 0.52311 0.27816 0.31238 0.0
H2257 H 0.44469 0.23751 0.3069 0.0
C2258 C 0.53962 0.24783 0.31553 0.0
C2259 C 0.4887 0.27442 0.30916 0.0
C2260 C 0.46955 0.30639 0.30583 0.0
C2261 C 0.52249 0.21375 0.31558 0.0
C2262 C 0.48765 0.21017 0.31251 0.0
C2263 C 0.47146 0.24035 0.30923 0.0
C2264 C 0.46652 0.17598 0.31299 0.0
C2265 C 0.54197 0.18186 0.31887 0.0
C2266 C 0.45382 0.15882 0.30687 0.0
C2267 C 0.43048 0.12891 0.30734 0.0
C2268 C 0.41919 0.11584 0.31396 0.0
C2269 C 0.43321 0.13223 0.32007 0.0
C2270 C 0.45649 0.16212 0.31959 0.0
H2271 H 0.57188 0.18618 0.31898 0.0
H2272 H 0.53259 0.17856 0.32438 0.0
H2273 H 0.53614 0.15626 0.31598 0.0
H2274 H 0.46122 0.16918 0.30173 0.0
H2275 H 0.42022 0.11696 0.30252 0.0
H2276 H 0.13244 0.16653 0.55279 0.0
H2277 H 0.07748 0.20357 0.55207 0.0
H2278 H 0.07136 0.20686 0.57472 0.0
H2279 H 0.12618 0.16964 0.57553 0.0
H2280 H 0.00754 0.18074 0.5678 0.0
H2281 H 0.05597 0.3116 0.55648 0.0
H2282 H 0.07041 0.27121 0.55194 0.0
H2283 H 0.0862 0.27969 0.56073 0.0
C2284 C 0.11998 0.17578 0.55763 0.0
C2285 C 0.13369 0.16484 0.56422 0.0
C2286 C 0.08855 0.19704 0.5572 0.0
C2287 C 0.07045 0.20794 0.56334 0.0
C2288 C 0.085 0.19865 0.56992 0.0
H2289 H 0.87246 0.31517 0.57477 0.0
H2290 H 0.92635 0.27681 0.57413 0.0
C2291 C 0.11643 0.17746 0.57037 0.0
C2292 C 0.03467 0.22616 0.56292 0.0
H2293 H 0.99236 0.30397 0.55758 0.0
C2294 C 0.00417 0.20771 0.56557 0.0
C2295 C 0.03042 0.26108 0.55994 0.0
C2296 C 0.06247 0.28229 0.55715 0.0
C2297 C 0.96942 0.22337 0.56535 0.0
C2298 C 0.96525 0.25866 0.56251 0.0
C2299 C 0.99565 0.27684 0.55974 0.0
C2300 C 0.93011 0.27825 0.56277 0.0
C2301 C 0.93747 0.20186 0.56809 0.0
C2302 C 0.91416 0.29164 0.55658 0.0
C2303 C 0.8833 0.3138 0.55692 0.0
C2304 C 0.86813 0.32324 0.56347 0.0
C2305 C 0.88332 0.30842 0.56964 0.0
C2306 C 0.91411 0.28631 0.56928 0.0
H2307 H 0.94305 0.17216 0.56802 0.0
H2308 H 0.93209 0.20984 0.57363 0.0
H2309 H 0.91256 0.20728 0.56496 0.0
H2310 H 0.9262 0.28576 0.5515 0.0
H2311 H 0.87235 0.32477 0.55207 0.0
H2312 H 0.92421 0.62437 0.82501 0.0
H2313 H 0.96361 0.67762 0.82436 0.0
H2314 H 0.9567 0.67589 0.8017 0.0
H2315 H 0.91669 0.62279 0.80228 0.0
H2316 H 0.03 0.69126 0.81761 0.0
H2317 H 0.91867 0.77756 0.80692 0.0
H2318 H 0.91051 0.73317 0.81065 0.0
H2319 H 0.92877 0.73732 0.80192 0.0
C2320 C 0.93136 0.63495 0.81987 0.0
C2321 C 0.91683 0.61958 0.8137 0.0
C2322 C 0.95389 0.66543 0.81952 0.0
C2323 C 0.9623 0.68114 0.813 0.0
C2324 C 0.94976 0.66462 0.8068 0.0
H2325 H 0.0847 0.87715 0.80307 0.0
H2326 H 0.04673 0.82261 0.80242 0.0
C2327 C 0.92714 0.63411 0.80714 0.0
C2328 C 0.98304 0.7156 0.81276 0.0
H2329 H 0.97601 0.80549 0.80839 0.0
C2330 C 0.01826 0.71622 0.81558 0.0
C2331 C 0.96752 0.74811 0.81012 0.0
C2332 C 0.92919 0.74929 0.80728 0.0
C2333 C 0.03848 0.74853 0.81584 0.0
C2334 C 0.02277 0.7811 0.81329 0.0
C2335 C 0.98781 0.78042 0.81036 0.0
C2336 C 0.04234 0.81614 0.8137 0.0
C2337 C 0.07661 0.74756 0.81878 0.0
C2338 C 0.05103 0.83128 0.82026 0.0
C2339 C 0.07259 0.86247 0.82066 0.0
C2340 C 0.08583 0.87904 0.8145 0.0
C2341 C 0.07518 0.86496 0.80792 0.0
C2342 C 0.05354 0.83378 0.80753 0.0
H2343 H 0.08761 0.71942 0.81897 0.0
H2344 H 0.09521 0.7647 0.81558 0.0
H2345 H 0.07637 0.75848 0.82422 0.0
H2346 H 0.04197 0.81836 0.82508 0.0
H2347 H 0.08004 0.87268 0.82581 0.0
H2348 H 0.3709 0.82313 0.0753 0.0
H2349 H 0.4257 0.78582 0.07466 0.0
H2350 H 0.42773 0.79827 0.0521 0.0
H2351 H 0.37263 0.83552 0.05265 0.0
H2352 H 0.44473 0.72614 0.05728 0.0
H2353 H 0.52517 0.83483 0.07034 0.0
H2354 H 0.48498 0.82106 0.07501 0.0
H2355 H 0.48076 0.84289 0.06659 0.0
C2356 C 0.38258 0.81754 0.07018 0.0
C2357 C 0.36761 0.83277 0.06403 0.0
C2358 C 0.41404 0.79639 0.06984 0.0
C2359 C 0.43114 0.79014 0.06335 0.0
C2360 C 0.41505 0.80319 0.05716 0.0
H2361 H 0.62991 0.67296 0.05243 0.0
H2362 H 0.57636 0.71224 0.05191 0.0
C2363 C 0.38353 0.82439 0.05749 0.0
C2364 C 0.46661 0.7713 0.0631 0.0
H2365 H 0.5547 0.7781 0.06863 0.0
C2366 C 0.46888 0.73753 0.05971 0.0
C2367 C 0.49799 0.78647 0.06626 0.0
C2368 C 0.49736 0.82346 0.0697 0.0
C2369 C 0.50157 0.71782 0.0596 0.0
C2370 C 0.53285 0.73276 0.06285 0.0
C2371 C 0.53067 0.76681 0.06614 0.0
C2372 C 0.56762 0.71261 0.06317 0.0
C2373 C 0.50206 0.68066 0.05622 0.0
C2374 C 0.58152 0.70154 0.0697 0.0
C2375 C 0.6123 0.67937 0.07003 0.0
C2376 C 0.62976 0.66791 0.06382 0.0
C2377 C 0.61701 0.68099 0.05731 0.0
C2378 C 0.58623 0.70321 0.05699 0.0
H2379 H 0.47417 0.66988 0.05537 0.0
H2380 H 0.51571 0.68248 0.05102 0.0
H2381 H 0.51745 0.661 0.05951 0.0
H2382 H 0.56768 0.70884 0.07453 0.0
H2383 H 0.62144 0.67001 0.07513 0.0
H2384 H 0.57585 0.62239 0.17395 0.0
H2385 H 0.53874 0.67738 0.1746 0.0
H2386 H 0.54656 0.67611 0.19724 0.0
H2387 H 0.58357 0.62089 0.19668 0.0
H2388 H 0.47548 0.69393 0.19157 0.0
H2389 H 0.58713 0.77613 0.17992 0.0
H2390 H 0.57424 0.73665 0.17493 0.0
H2391 H 0.59431 0.73117 0.18348 0.0
C2392 C 0.56925 0.63338 0.17908 0.0
C2393 C 0.58311 0.61745 0.18526 0.0
C2394 C 0.54824 0.66496 0.17943 0.0
C2395 C 0.54073 0.68115 0.18595 0.0
C2396 C 0.55246 0.66413 0.19215 0.0
H2397 H 0.42165 0.87838 0.1973 0.0
H2398 H 0.4607 0.82458 0.19779 0.0
C2399 C 0.57354 0.63255 0.19181 0.0
C2400 C 0.52193 0.71664 0.18628 0.0
H2401 H 0.53037 0.80572 0.18147 0.0
C2402 C 0.48748 0.71846 0.18941 0.0
C2403 C 0.53791 0.74851 0.18347 0.0
C2404 C 0.57557 0.74828 0.18031 0.0
C2405 C 0.46795 0.75124 0.18961 0.0
C2406 C 0.48374 0.78305 0.18673 0.0
C2407 C 0.51844 0.78129 0.18369 0.0
C2408 C 0.4638 0.81798 0.18649 0.0
C2409 C 0.4301 0.75129 0.19269 0.0
C2410 C 0.45435 0.83315 0.17998 0.0
C2411 C 0.43234 0.86404 0.17967 0.0
C2412 C 0.41941 0.88035 0.18588 0.0
C2413 C 0.43086 0.86636 0.19241 0.0
C2414 C 0.45294 0.83545 0.19271 0.0
H2415 H 0.41901 0.72332 0.19325 0.0
H2416 H 0.43086 0.76389 0.198 0.0
H2417 H 0.41124 0.76744 0.18937 0.0
H2418 H 0.46279 0.82022 0.17512 0.0
H2419 H 0.42427 0.87417 0.17455 0.0
H2420 H 0.63326 0.32669 0.44698 0.0
H2421 H 0.57901 0.28849 0.44771 0.0
H2422 H 0.5713 0.28724 0.42507 0.0
H2423 H 0.6254 0.32553 0.42425 0.0
H2424 H 0.50744 0.31178 0.43237 0.0
H2425 H 0.55926 0.18024 0.44282 0.0
H2426 H 0.57359 0.22046 0.44744 0.0
H2427 H 0.58845 0.21307 0.43856 0.0
C2428 C 0.62059 0.31763 0.44214 0.0
C2429 C 0.63362 0.32942 0.43555 0.0
C2430 C 0.58959 0.29574 0.44258 0.0
C2431 C 0.57124 0.28509 0.43644 0.0
C2432 C 0.58514 0.29526 0.42986 0.0
H2433 H 0.37365 0.17678 0.42495 0.0
H2434 H 0.42738 0.21537 0.42565 0.0
C2435 C 0.61615 0.31706 0.42941 0.0
C2436 C 0.53583 0.26614 0.43688 0.0
H2437 H 0.49551 0.18658 0.44183 0.0
C2438 C 0.50477 0.28438 0.43444 0.0
C2439 C 0.5325 0.23065 0.43966 0.0
C2440 C 0.56519 0.20972 0.44223 0.0
C2441 C 0.47036 0.26797 0.43465 0.0
C2442 C 0.46712 0.23211 0.43726 0.0
C2443 C 0.49809 0.21412 0.43984 0.0
C2444 C 0.43232 0.21188 0.43698 0.0
C2445 C 0.43778 0.28931 0.43214 0.0
C2446 C 0.41714 0.19716 0.44313 0.0
C2447 C 0.38639 0.17485 0.44275 0.0
C2448 C 0.37052 0.16661 0.4362 0.0
C2449 C 0.38504 0.1826 0.43009 0.0
C2450 C 0.41574 0.20484 0.43047 0.0
H2451 H 0.44278 0.31908 0.43241 0.0
H2452 H 0.43213 0.28224 0.42657 0.0
H2453 H 0.41323 0.28281 0.43531 0.0
H2454 H 0.42962 0.20223 0.4482 0.0
H2455 H 0.37596 0.16299 0.44757 0.0
H2456 H 0.08118 0.12902 0.67491 0.0
H2457 H 0.04381 0.18379 0.6756 0.0
H2458 H 0.0412 0.17501 0.69822 0.0
H2459 H 0.07902 0.12041 0.69763 0.0
H2460 H 0.97539 0.19878 0.68155 0.0
H2461 H 0.08608 0.27601 0.69479 0.0
H2462 H 0.09362 0.23251 0.69063 0.0
H2463 H 0.07237 0.23482 0.69913 0.0
C2464 C 0.07226 0.13834 0.68004 0.0
C2465 C 0.08356 0.12056 0.68622 0.0
C2466 C 0.05095 0.16972 0.68041 0.0
C2467 C 0.04058 0.18389 0.68697 0.0
C2468 C 0.04973 0.16495 0.69312 0.0
H2469 H 0.92178 0.38135 0.6976 0.0
H2470 H 0.95833 0.32576 0.69815 0.0
C2471 C 0.07111 0.13358 0.69276 0.0
C2472 C 0.02142 0.21923 0.68732 0.0
H2473 H 0.0306 0.30705 0.69295 0.0
C2474 C 0.98739 0.22244 0.68405 0.0
C2475 C 0.03729 0.25002 0.69059 0.0
C2476 C 0.07448 0.24844 0.69394 0.0
C2477 C 0.96868 0.25567 0.68397 0.0
C2478 C 0.98477 0.28655 0.68714 0.0
C2479 C 0.01851 0.28327 0.69051 0.0
C2480 C 0.96691 0.32255 0.68691 0.0
C2481 C 0.93171 0.25743 0.68053 0.0
C2482 C 0.96126 0.33994 0.68044 0.0
C2483 C 0.94053 0.37168 0.68009 0.0
C2484 C 0.92511 0.38662 0.68622 0.0
C2485 C 0.93308 0.3705 0.69277 0.0
C2486 C 0.95387 0.33869 0.6931 0.0
H2487 H 0.91958 0.22996 0.67986 0.0
H2488 H 0.91275 0.27442 0.68368 0.0
H2489 H 0.9344 0.26998 0.67525 0.0
H2490 H 0.97181 0.32823 0.67562 0.0
H2491 H 0.93524 0.3835 0.67497 0.0
H2492 H 0.87435 0.67343 0.92434 0.0
H2493 H 0.92817 0.71214 0.92498 0.0
H2494 H 0.92633 0.70546 0.94764 0.0
H2495 H 0.87267 0.66623 0.94708 0.0
H2496 H 0.94294 0.77852 0.93179 0.0
H2497 H 0.02732 0.66542 0.94235 0.0
H2498 H 0.98283 0.65814 0.93859 0.0
H2499 H 0.9872 0.67589 0.94736 0.0
C2500 C 0.88502 0.68053 0.92948 0.0
C2501 C 0.86947 0.66626 0.93566 0.0
C2502 C 0.91582 0.70264 0.92982 0.0
C2503 C 0.93166 0.71087 0.93634 0.0
C2504 C 0.91495 0.69865 0.94254 0.0
H2505 H 0.1282 0.82965 0.94705 0.0
H2506 H 0.07348 0.79194 0.94735 0.0
C2507 C 0.88412 0.67647 0.94221 0.0
C2508 C 0.96647 0.731 0.93659 0.0
H2509 H 0.05605 0.72254 0.94108 0.0
C2510 C 0.96767 0.76634 0.93383 0.0
C2511 C 0.99866 0.71488 0.93924 0.0
C2512 C 0.99921 0.67639 0.942 0.0
C2513 C 0.00025 0.78618 0.93368 0.0
C2514 C 0.03249 0.76992 0.93625 0.0
C2515 C 0.03124 0.73477 0.9391 0.0
C2516 C 0.06773 0.78923 0.93603 0.0
C2517 C -0.00016 0.82453 0.93084 0.0
C2518 C 0.08339 0.79875 0.92956 0.0
C2519 C 0.11472 0.82019 0.92936 0.0
C2520 C 0.13095 0.83243 0.93564 0.0
C2521 C 0.11638 0.82087 0.94212 0.0
C2522 C 0.08504 0.79938 0.94231 0.0
H2523 H 0.97184 0.83585 0.93063 0.0
H2524 H 0.017 0.84271 0.93412 0.0
H2525 H 0.01105 0.82457 0.92542 0.0
H2526 H 0.07076 0.79047 0.92467 0.0
H2527 H 0.12533 0.82832 0.92428 0.0
H2528 H 0.57432 0.88427 0.69708 0.0
H2529 H 0.53556 0.83032 0.69776 0.0
H2530 H 0.52601 0.82921 0.67514 0.0
H2531 H 0.56429 0.88331 0.67439 0.0
H2532 H 0.46068 0.81289 0.68231 0.0
H2533 H 0.57708 0.73038 0.69206 0.0
H2534 H 0.56657 0.77011 0.69718 0.0
H2535 H 0.58287 0.77514 0.68832 0.0
C2536 C 0.56348 0.87297 0.69225 0.0
C2537 C 0.57284 0.88786 0.68567 0.0
C2538 C 0.54157 0.84198 0.69266 0.0
C2539 C 0.52878 0.82534 0.68649 0.0
C2540 C 0.53597 0.8415 0.67996 0.0
H2541 H 0.41374 0.63019 0.67458 0.0
H2542 H 0.45051 0.68548 0.67493 0.0
C2543 C 0.55782 0.87249 0.67954 0.0
C2544 C 0.50939 0.79012 0.68679 0.0
H2545 H 0.52046 0.70048 0.69102 0.0
C2546 C 0.47368 0.78831 0.68422 0.0
C2547 C 0.52659 0.75813 0.68927 0.0
C2548 C 0.56549 0.75827 0.69181 0.0
C2549 C 0.45454 0.75532 0.68411 0.0
C2550 C 0.47188 0.72329 0.68652 0.0
C2551 C 0.5074 0.72514 0.68916 0.0
C2552 C 0.45337 0.68762 0.6863 0.0
C2553 C 0.41578 0.75505 0.68149 0.0
C2554 C 0.44457 0.66954 0.69257 0.0
C2555 C 0.42372 0.63777 0.6924 0.0
C2556 C 0.41144 0.62354 0.68594 0.0
C2557 C 0.42244 0.64052 0.67965 0.0
C2558 C 0.44324 0.67227 0.67983 0.0
H2559 H 0.40379 0.78279 0.68143 0.0
H2560 H 0.41519 0.74431 0.67603 0.0
H2561 H 0.3985 0.7372 0.68481 0.0
H2562 H 0.45253 0.68085 0.6976 0.0
H2563 H 0.41593 0.62531 0.69734 0.0
H2564 H 0.87109 0.8274 0.42471 0.0
H2565 H 0.9244 0.78834 0.42562 0.0
H2566 H 0.91756 0.79211 0.44827 0.0
H2567 H 0.86434 0.83178 0.44744 0.0
H2568 H 0.98524 0.81145 0.44314 0.0
H2569 H 0.93944 0.68242 0.43097 0.0
H2570 H 0.93021 0.72136 0.42557 0.0
H2571 H 0.908 0.71685 0.43397 0.0
C2572 C 0.88035 0.81934 0.4299 0.0
C2573 C 0.86353 0.83296 0.436 0.0
C2574 C 0.91079 0.79683 0.4304 0.0
C2575 C 0.92478 0.78716 0.43701 0.0
C2576 C 0.90709 0.79924 0.44312 0.0
H2577 H 0.12486 0.67276 0.44787 0.0
H2578 H 0.06929 0.7091 0.44851 0.0
C2579 C 0.8766 0.8218 0.44263 0.0
C2580 C 0.95978 0.76745 0.43749 0.0
H2581 H 0.00381 0.69102 0.43194 0.0
C2582 C 0.98925 0.78489 0.44078 0.0
C2583 C 0.96487 0.73291 0.43438 0.0
C2584 C 0.93385 0.71212 0.43108 0.0
C2585 C 0.02405 0.76922 0.44081 0.0
C2586 C 0.02929 0.73515 0.43754 0.0
C2587 C -0.00031 0.71736 0.43439 0.0
C2588 C 0.06527 0.71732 0.43726 0.0
C2589 C 0.05518 0.78967 0.44415 0.0
C2590 C 0.08168 0.71052 0.43073 0.0
C2591 C 0.11341 0.68979 0.43033 0.0
C2592 C 0.1291 0.67515 0.43647 0.0
C2593 C 0.11354 0.68361 0.44304 0.0
C2594 C 0.0818 0.70443 0.44342 0.0
H2595 H 0.04823 0.81863 0.44514 0.0
H2596 H 0.06207 0.77683 0.44926 0.0
H2597 H 0.07973 0.7885 0.44075 0.0
H2598 H 0.06927 0.72031 0.42592 0.0
H2599 H 0.12462 0.68385 0.42519 0.0
H2600 H 0.08534 0.37378 0.19725 0.0
H2601 H 0.04761 0.31901 0.19765 0.0
H2602 H 0.04201 0.3181 0.17498 0.0
H2603 H 0.07986 0.37262 0.1745 0.0
H2604 H 0.97709 0.30189 0.19178 0.0
H2605 H 0.08861 0.21882 0.18033 0.0
H2606 H 0.096 0.26369 0.18392 0.0
H2607 H 0.07647 0.25845 0.17531 0.0
C2608 C 0.07565 0.3623 0.19235 0.0
C2609 C 0.08608 0.37733 0.18584 0.0
C2610 C 0.05415 0.33097 0.19259 0.0
C2611 C 0.04285 0.31415 0.18634 0.0
C2612 C 0.05119 0.33034 0.17986 0.0
H2613 H 0.92477 0.12252 0.1745 0.0
H2614 H 0.96377 0.17614 0.17517 0.0
C2615 C 0.07264 0.36164 0.1796 0.0
C2616 C 0.02364 0.27886 0.18657 0.0
H2617 H 0.03137 0.18985 0.18166 0.0
C2618 C 0.98896 0.2773 0.18962 0.0
C2619 C 0.03943 0.2469 0.18376 0.0
C2620 C 0.07731 0.24679 0.1807 0.0
C2621 C 0.96906 0.24473 0.18973 0.0
C2622 C 0.98467 0.21286 0.18684 0.0
C2623 C 0.01957 0.21434 0.18388 0.0
C2624 C 0.96443 0.17812 0.18654 0.0
C2625 C 0.93103 0.24498 0.19273 0.0
C2626 C 0.95322 0.16061 0.19273 0.0
C2627 C 0.9309 0.1299 0.19238 0.0
C2628 C 0.91952 0.11614 0.18583 0.0
C2629 C 0.93278 0.13248 0.17964 0.0
C2630 C 0.95506 0.16318 0.18 0.0
H2631 H 0.9202 0.27305 0.19329 0.0
H2632 H 0.9122 0.2291 0.18934 0.0
H2633 H 0.93136 0.23223 0.19802 0.0
H2634 H 0.9609 0.17131 0.19783 0.0
H2635 H 0.92141 0.1179 0.19725 0.0
H2636 H 0.37091 0.32862 0.94715 0.0
H2637 H 0.42562 0.29075 0.94742 0.0
H2638 H 0.42728 0.28828 0.92473 0.0
H2639 H 0.37285 0.32626 0.92438 0.0
H2640 H 0.44307 0.22103 0.94119 0.0
H2641 H 0.52627 0.33434 0.93044 0.0
H2642 H 0.48129 0.34113 0.93402 0.0
H2643 H 0.48682 0.32281 0.92532 0.0
C2644 C 0.38251 0.31956 0.94221 0.0
C2645 C 0.36775 0.33094 0.93574 0.0
C2646 C 0.41382 0.29799 0.94238 0.0
C2647 C 0.43086 0.28755 0.93609 0.0
C2648 C 0.41489 0.2968 0.92964 0.0
H2649 H 0.62517 0.17216 0.92436 0.0
H2650 H 0.57071 0.21011 0.92488 0.0
C2651 C 0.38364 0.31832 0.92945 0.0
C2652 C 0.46618 0.26837 0.93627 0.0
H2653 H 0.55541 0.27711 0.93157 0.0
C2654 C 0.46771 0.23328 0.93913 0.0
C2655 C 0.4982 0.28463 0.93359 0.0
C2656 C 0.49832 0.32292 0.93072 0.0
C2657 C 0.50036 0.2135 0.93921 0.0
C2658 C 0.53233 0.22964 0.93647 0.0
C2659 C 0.53084 0.26489 0.93367 0.0
C2660 C 0.56731 0.20981 0.93625 0.0
C2661 C 0.50013 0.1751 0.94202 0.0
C2662 C 0.58424 0.19839 0.94248 0.0
C2663 C 0.6154 0.17669 0.94222 0.0
C2664 C 0.63026 0.16617 0.9357 0.0
C2665 C 0.6144 0.17956 0.92947 0.0
C2666 C 0.58323 0.20121 0.92975 0.0
H2667 H 0.47211 0.16397 0.94241 0.0
H2668 H 0.51655 0.15684 0.93862 0.0
H2669 H 0.51228 0.17488 0.94737 0.0
H2670 H 0.57279 0.20547 0.94756 0.0
H2671 H 0.62696 0.16708 0.94711 0.0
H2672 H 0.57164 0.12103 0.82608 0.0
H2673 H 0.53343 0.1753 0.82576 0.0
H2674 H 0.53773 0.17518 0.80308 0.0
H2675 H 0.57566 0.12067 0.80332 0.0
H2676 H 0.5583 0.24077 0.81982 0.0
H2677 H 0.42988 0.19477 0.80723 0.0
H2678 H 0.46206 0.1635 0.81111 0.0
H2679 H 0.47061 0.18267 0.80257 0.0
C2680 C 0.56381 0.13198 0.82101 0.0
C2681 C 0.57698 0.1166 0.81472 0.0
C2682 C 0.54205 0.16308 0.82084 0.0
C2683 C 0.53277 0.17919 0.8144 0.0
C2684 C 0.5442 0.16287 0.8081 0.0
H2685 H 0.42121 0.37973 0.80347 0.0
H2686 H 0.45945 0.32536 0.80317 0.0
C2687 C 0.56597 0.13173 0.80826 0.0
C2688 C 0.51416 0.21484 0.8143 0.0
H2689 H 0.43748 0.25838 0.80872 0.0
C2690 C 0.5318 0.24464 0.81742 0.0
C2691 C 0.47982 0.21977 0.8111 0.0
C2692 C 0.45926 0.18846 0.80786 0.0
C2693 C 0.51608 0.27938 0.8174 0.0
C2694 C 0.48157 0.28425 0.81427 0.0
C2695 C 0.46405 0.25453 0.81109 0.0
C2696 C 0.46232 0.31957 0.81448 0.0
C2697 C 0.53675 0.31064 0.82064 0.0
C2698 C 0.45196 0.33471 0.82096 0.0
C2699 C 0.43022 0.36582 0.82116 0.0
C2700 C 0.41816 0.38219 0.81489 0.0
C2701 C 0.42998 0.36785 0.80841 0.0
C2702 C 0.45172 0.3367 0.80821 0.0
H2703 H 0.56634 0.30477 0.82098 0.0
H2704 H 0.53282 0.33603 0.81757 0.0
H2705 H 0.52656 0.31539 0.82606 0.0
H2706 H 0.45939 0.32157 0.82585 0.0
H2707 H 0.42159 0.37604 0.82624 0.0
H2708 H 0.37082 0.66073 0.55278 0.0
H2709 H 0.4257 0.69823 0.55201 0.0
H2710 H 0.42895 0.70638 0.57464 0.0
H2711 H 0.37431 0.66892 0.5755 0.0
H2712 H 0.44372 0.77025 0.55789 0.0
H2713 H 0.52732 0.6574 0.56872 0.0
H2714 H 0.48219 0.65047 0.56521 0.0
H2715 H 0.48803 0.66943 0.57385 0.0
C2716 C 0.38281 0.67097 0.55759 0.0
C2717 C 0.3684 0.66138 0.56421 0.0
C2718 C 0.4142 0.69233 0.55714 0.0
C2719 C 0.43167 0.70429 0.56327 0.0
C2720 C 0.41613 0.69676 0.56985 0.0
H2721 H 0.62574 0.81844 0.57474 0.0
H2722 H 0.57162 0.7802 0.57405 0.0
C2723 C 0.38477 0.67551 0.57032 0.0
C2724 C 0.46709 0.72315 0.56285 0.0
H2725 H 0.55659 0.71441 0.56732 0.0
C2726 C 0.4685 0.75805 0.55989 0.0
C2727 C 0.49926 0.70692 0.56545 0.0
C2728 C 0.49939 0.66886 0.56844 0.0
C2729 C 0.50118 0.77779 0.55971 0.0
C2730 C 0.5333 0.76175 0.56241 0.0
C2731 C 0.53194 0.72656 0.56524 0.0
C2732 C 0.56816 0.78184 0.56268 0.0
C2733 C 0.50076 0.81612 0.55686 0.0
C2734 C 0.58499 0.79416 0.5565 0.0
C2735 C 0.61598 0.81611 0.55687 0.0
C2736 C 0.63077 0.82591 0.56344 0.0
C2737 C 0.61505 0.81159 0.5696 0.0
C2738 C 0.58404 0.78976 0.56921 0.0
H2739 H 0.47269 0.82717 0.55649 0.0
H2740 H 0.51721 0.83451 0.56023 0.0
H2741 H 0.51274 0.81627 0.5515 0.0
H2742 H 0.57362 0.78758 0.5514 0.0
H2743 H 0.62749 0.82644 0.55202 0.0
H2744 H 0.08113 0.62404 0.30221 0.0
H2745 H 0.04379 0.67901 0.30138 0.0
H2746 H 0.03209 0.68057 0.32395 0.0
H2747 H 0.0694 0.62589 0.32488 0.0
H2748 H 0.97116 0.69634 0.30676 0.0
H2749 H 0.0811 0.77958 0.31873 0.0
H2750 H 0.08897 0.73473 0.31516 0.0
H2751 H 0.06842 0.7399 0.32368 0.0
C2752 C 0.07015 0.63571 0.307 0.0
C2753 C 0.07867 0.62079 0.31362 0.0
C2754 C 0.0489 0.66714 0.3065 0.0
C2755 C 0.036 0.68416 0.31262 0.0
C2756 C 0.04249 0.66813 0.31919 0.0
H2757 H 0.91636 0.87292 0.32464 0.0
H2758 H 0.9561 0.82 0.32371 0.0
C2759 C 0.06364 0.63674 0.3197 0.0
C2760 C 0.01701 0.71949 0.31218 0.0
H2761 H 0.02375 0.80832 0.31724 0.0
C2762 C 0.98269 0.72095 0.30899 0.0
C2763 C 0.03238 0.75144 0.31507 0.0
C2764 C 0.06989 0.75159 0.3183 0.0
C2765 C 0.96257 0.75339 0.30886 0.0
C2766 C 0.97765 0.78522 0.31188 0.0
C2767 C 0.01235 0.78388 0.31493 0.0
C2768 C 0.95682 0.81956 0.31232 0.0
C2769 C 0.9248 0.753 0.30574 0.0
C2770 C 0.94533 0.8377 0.30622 0.0
C2771 C 0.92254 0.86802 0.30672 0.0
C2772 C 0.911 0.88072 0.31335 0.0
C2773 C 0.92449 0.86376 0.31945 0.0
C2774 C 0.9472 0.83347 0.31894 0.0
H2775 H 0.91439 0.72487 0.30502 0.0
H2776 H 0.90549 0.76818 0.30915 0.0
H2777 H 0.92536 0.76643 0.30051 0.0
H2778 H 0.9532 0.82783 0.30107 0.0
H2779 H 0.9129 0.88059 0.30192 0.0
H2780 H 0.12225 0.32946 0.07569 0.0
H2781 H 0.06843 0.29085 0.07502 0.0
H2782 H 0.07194 0.29559 0.05235 0.0
H2783 H 0.1256 0.33474 0.05294 0.0
H2784 H 0.00463 0.31383 0.05788 0.0
H2785 H 0.05446 0.18482 0.0695 0.0
H2786 H 0.06359 0.2238 0.0749 0.0
H2787 H 0.08482 0.21996 0.0664 0.0
C2788 C 0.11209 0.32175 0.07055 0.0
C2789 C 0.12821 0.33536 0.06437 0.0
C2790 C 0.08135 0.29954 0.07018 0.0
C2791 C 0.06637 0.29018 0.06363 0.0
C2792 C 0.08315 0.30251 0.05745 0.0
H2793 H 0.86873 0.17231 0.05263 0.0
H2794 H 0.923 0.21067 0.05214 0.0
C2795 C 0.11389 0.32478 0.05781 0.0
C2796 C 0.03162 0.26993 0.06328 0.0
H2797 H 0.99006 0.19163 0.06858 0.0
C2798 C 0.00147 0.28694 0.06015 0.0
C2799 C 0.02765 0.23493 0.06626 0.0
C2800 C 0.05943 0.21463 0.0694 0.0
C2801 C 0.96711 0.27029 0.06011 0.0
C2802 C 0.96303 0.23564 0.06322 0.0
C2803 C 0.99329 0.21839 0.06625 0.0
C2804 C 0.92764 0.21657 0.06344 0.0
C2805 C 0.93526 0.29027 0.05693 0.0
C2806 C 0.91201 0.20771 0.06994 0.0
C2807 C 0.88108 0.18577 0.07025 0.0
C2808 C 0.86537 0.17199 0.06404 0.0
C2809 C 0.88007 0.18248 0.05751 0.0
C2810 C 0.91106 0.20447 0.05721 0.0
H2811 H 0.94116 0.31965 0.05618 0.0
H2812 H 0.92889 0.27831 0.05171 0.0
H2813 H 0.91074 0.28749 0.0603 0.0
H2814 H 0.92445 0.21686 0.0748 0.0
H2815 H 0.87048 0.17837 0.07537 0.0
H2816 H 0.40622 0.02896 0.34897 0.0
H2817 H 0.3955 0.03769 0.36161 0.0
H2818 H 0.29126 0.08618 0.35703 0.0
H2819 H 0.30101 0.07602 0.34451 0.0
H2820 H 0.38691 0.09695 0.36906 0.0
H2821 H 0.26137 0.01548 0.37171 0.0
H2822 H 0.28902 0.01423 0.36388 0.0
H2823 H 0.25613 0.05002 0.36514 0.0
C2824 C 0.38086 0.04108 0.35068 0.0
C2825 C 0.3543 0.05142 0.34576 0.0
C2826 C 0.37478 0.04611 0.35789 0.0
C2827 C 0.3422 0.06188 0.36029 0.0
C2828 C 0.31602 0.0728 0.35535 0.0
H2829 H 0.31575 0.1647 0.40136 0.0
H2830 H 0.32435 0.15229 0.3888 0.0
C2831 C 0.32177 0.06718 0.34818 0.0
C2832 C 0.33609 0.06837 0.36791 0.0
H2833 H 0.27411 0.05699 0.38111 0.0
C2834 C 0.3624 0.08791 0.37171 0.0
C2835 C 0.30435 0.05614 0.37141 0.0
C2836 C 0.27635 0.03247 0.36783 0.0
C2837 C 0.35755 0.09615 0.37887 0.0
C2838 C 0.32485 0.08571 0.38225 0.0
C2839 C 0.29888 0.06559 0.37849 0.0
C2840 C 0.31764 0.09396 0.38978 0.0
C2841 C 0.38792 0.11517 0.38275 0.0
C2842 C 0.30912 0.06561 0.39444 0.0
C2843 C 0.30331 0.07274 0.40156 0.0
C2844 C 0.3062 0.10838 0.4042 0.0
C2845 C 0.31367 0.13693 0.3995 0.0
C2846 C 0.31896 0.12981 0.39233 0.0
H2847 H 0.4145 0.11132 0.38006 0.0
H2848 H 0.38224 0.14479 0.38291 0.0
H2849 H 0.39036 0.10507 0.38823 0.0
H2850 H 0.3077 0.03776 0.39259 0.0
H2851 H 0.29762 0.05007 0.40504 0.0
H2852 H 0.20428 0.04305 0.59527 0.0
H2853 H 0.19405 0.03021 0.60771 0.0
H2854 H 0.17098 0.14364 0.61143 0.0
H2855 H 0.18001 0.15658 0.59891 0.0
H2856 H 0.22659 0.05261 0.61931 0.0
H2857 H 0.08258 0.09665 0.61998 0.0
H2858 H 0.10748 0.09132 0.61186 0.0
H2859 H 0.11256 0.13203 0.61704 0.0
C2860 C 0.1971 0.06535 0.59873 0.0
C2861 C 0.19265 0.10083 0.59608 0.0
C2862 C 0.19122 0.05793 0.60584 0.0
C2863 C 0.18093 0.08579 0.61048 0.0
C2864 C 0.17783 0.1215 0.60792 0.0
H2865 H 0.19716 0.07648 0.65574 0.0
H2866 H 0.2061 0.08513 0.64315 0.0
C2867 C 0.18335 0.12892 0.60077 0.0
C2868 C 0.1739 0.07733 0.618 0.0
H2869 H 0.11068 0.08534 0.63108 0.0
C2870 C 0.20116 0.0596 0.62188 0.0
C2871 C 0.1404 0.08565 0.62131 0.0
C2872 C 0.10894 0.1021 0.61732 0.0
C2873 C 0.19621 0.05075 0.629 0.0
C2874 C 0.16352 0.06097 0.63241 0.0
C2875 C 0.13589 0.07787 0.62849 0.0
C2876 C 0.15787 0.05533 0.64007 0.0
C2877 C 0.2259 0.02999 0.63274 0.0
C2878 C 0.127 0.03682 0.64257 0.0
C2879 C 0.12137 0.03245 0.64982 0.0
C2880 C 0.14664 0.04636 0.65467 0.0
C2881 C 0.17742 0.06495 0.65214 0.0
C2882 C 0.18273 0.06973 0.64493 0.0
H2883 H 0.24246 0.01382 0.62898 0.0
H2884 H 0.24439 0.04953 0.63538 0.0
H2885 H 0.21456 0.01129 0.63677 0.0
H2886 H 0.10729 0.02571 0.63892 0.0
H2887 H 0.09737 0.01809 0.65161 0.0
H2888 H 0.08966 0.95457 0.84895 0.0
H2889 H 0.10084 0.94737 0.86159 0.0
H2890 H 0.21556 0.93439 0.85752 0.0
H2891 H 0.20486 0.943 0.84498 0.0
H2892 H 0.12667 0.89099 0.86857 0.0
H2893 H 0.21935 0.00715 0.87302 0.0
H2894 H 0.1938 0.0019 0.86498 0.0
H2895 H 0.23602 0.97782 0.86622 0.0
C2896 C 0.11731 0.95072 0.85077 0.0
C2897 C 0.14638 0.94966 0.84597 0.0
C2898 C 0.12366 0.94652 0.85799 0.0
C2899 C 0.15914 0.94097 0.86053 0.0
C2900 C 0.18812 0.93975 0.85573 0.0
H2901 H 0.21037 0.84168 0.90112 0.0
H2902 H 0.20022 0.85354 0.88858 0.0
C2903 C 0.18189 0.94448 0.84854 0.0
C2904 C 0.16576 0.93459 0.86814 0.0
H2905 H 0.21827 0.96156 0.88201 0.0
C2906 C 0.14647 0.90664 0.87153 0.0
C2907 C 0.19129 0.95527 0.87203 0.0
C2908 C 0.21098 0.98745 0.86889 0.0
C2909 C 0.15239 0.89841 0.87865 0.0
C2910 C 0.17925 0.91788 0.88244 0.0
C2911 C 0.19812 0.94621 0.87908 0.0
C2912 C 0.18711 0.91053 0.88998 0.0
C2913 C 0.12917 0.86953 0.88207 0.0
C2914 C 0.18478 0.93891 0.89489 0.0
C2915 C 0.19136 0.93239 0.90201 0.0
C2916 C 0.20016 0.89724 0.9044 0.0
C2917 C 0.20332 0.86896 0.89945 0.0
C2918 C 0.19719 0.87565 0.89229 0.0
H2919 H 0.10343 0.86511 0.87913 0.0
H2920 H 0.14428 0.84342 0.88213 0.0
H2921 H 0.12234 0.8769 0.88759 0.0
H2922 H 0.17724 0.96608 0.89324 0.0
H2923 H 0.18866 0.95484 0.90567 0.0
H2924 H 0.31744 0.8355 0.09849 0.0
H2925 H 0.32528 0.84684 0.1111 0.0
H2926 H 0.30294 0.96077 0.1078 0.0
H2927 H 0.29387 0.94954 0.09529 0.0
H2928 H 0.37457 0.88852 0.11758 0.0
H2929 H 0.23702 0.93956 0.12407 0.0
H2930 H 0.24714 0.91751 0.11582 0.0
H2931 H 0.25759 0.96495 0.11707 0.0
C2932 C 0.31366 0.86286 0.10047 0.0
C2933 C 0.30482 0.89156 0.09589 0.0
C2934 C 0.31827 0.86932 0.10767 0.0
C2935 C 0.31419 0.90457 0.11042 0.0
C2936 C 0.30528 0.9332 0.10585 0.0
H2937 H 0.40387 0.97649 0.1508 0.0
H2938 H 0.39328 0.96541 0.13823 0.0
C2939 C 0.30028 0.92672 0.09868 0.0
C2940 C 0.32085 0.91179 0.11799 0.0
H2941 H 0.28332 0.95029 0.13263 0.0
C2942 C 0.35453 0.90178 0.12089 0.0
C2943 C 0.29455 0.92877 0.12232 0.0
C2944 C 0.25693 0.93797 0.11968 0.0
C2945 C 0.36279 0.90859 0.12799 0.0
C2946 C 0.33705 0.92694 0.13224 0.0
C2947 C 0.30326 0.93666 0.12935 0.0
C2948 C 0.34364 0.93469 0.1398 0.0
C2949 C 0.39861 0.89518 0.13087 0.0
C2950 C 0.31861 0.92238 0.14484 0.0
C2951 C 0.32412 0.92943 0.15197 0.0
C2952 C 0.35502 0.94868 0.15424 0.0
C2953 C 0.37999 0.96132 0.14921 0.0
C2954 C 0.37412 0.95473 0.14203 0.0
H2955 H 0.41016 0.87302 0.12758 0.0
H2956 H 0.41843 0.91793 0.13091 0.0
H2957 H 0.39555 0.88499 0.13634 0.0
H2958 H 0.29486 0.90694 0.14326 0.0
H2959 H 0.3044 0.91917 0.15571 0.0
H2960 H 0.63391 0.87366 0.6534 0.0
H2961 H 0.64146 0.8708 0.64065 0.0
H2962 H 0.67115 0.98429 0.64028 0.0
H2963 H 0.66298 0.98763 0.65307 0.0
H2964 H 0.62382 0.96601 0.62967 0.0
H2965 H 0.73879 0.86876 0.63049 0.0
H2966 H 0.69948 0.85248 0.63512 0.0
H2967 H 0.72277 0.89248 0.63821 0.0
C2968 C 0.64195 0.89809 0.65061 0.0
C2969 C 0.64814 0.93081 0.65425 0.0
C2970 C 0.64651 0.89631 0.64333 0.0
C2971 C 0.65775 0.92708 0.63955 0.0
C2972 C 0.66282 0.96013 0.64312 0.0
H2973 H 0.73278 0.91517 0.5959 0.0
H2974 H 0.72964 0.92387 0.60867 0.0
C2975 C 0.65808 0.962 0.65042 0.0
C2976 C 0.66375 0.92468 0.63186 0.0
H2977 H 0.71039 0.87741 0.61929 0.0
C2978 C 0.64295 0.94687 0.6274 0.0
C2979 C 0.68925 0.90018 0.62891 0.0
C2980 C 0.71413 0.87739 0.63343 0.0
C2981 C 0.64598 0.94425 0.62006 0.0
C2982 C 0.6699 0.9182 0.61711 0.0
C2983 C 0.6917 0.89699 0.62156 0.0
C2984 C 0.67209 0.91203 0.60942 0.0
C2985 C 0.62367 0.96956 0.61553 0.0
C2986 C 0.64103 0.90151 0.60564 0.0
C2987 C 0.6427 0.89666 0.59837 0.0
C2988 C 0.67559 0.90181 0.59473 0.0
C2989 C 0.70702 0.91106 0.59855 0.0
C2990 C 0.70526 0.91611 0.60584 0.0
H2991 H 0.61568 0.99447 0.61846 0.0
H2992 H 0.63884 0.97776 0.61073 0.0
H2993 H 0.59839 0.95546 0.61387 0.0
H2994 H 0.6154 0.89719 0.60833 0.0
H2995 H 0.61808 0.88917 0.59559 0.0
H2996 H 0.7899 0.94131 0.34468 0.0
H2997 H 0.78102 0.93315 0.35729 0.0
H2998 H 0.89719 0.93401 0.36045 0.0
H2999 H 0.90645 0.94124 0.34775 0.0
H3000 H 0.86461 0.87884 0.36754 0.0
H3001 H 0.79117 0.00754 0.37274 0.0
H3002 H 0.76998 0.98099 0.36597 0.0
H3003 H 0.81493 0.99911 0.36459 0.0
C3004 C 0.81363 0.94009 0.34805 0.0
C3005 C 0.84892 0.94207 0.34521 0.0
C3006 C 0.80846 0.93561 0.35527 0.0
C3007 C 0.8384 0.9336 0.35983 0.0
C3008 C 0.8737 0.93569 0.35703 0.0
H3009 H 0.82375 0.95185 0.40509 0.0
H3010 H 0.83461 0.96043 0.39255 0.0
C3011 C 0.87893 0.93992 0.34978 0.0
C3012 C 0.83276 0.928 0.36748 0.0
H3013 H 0.78905 0.96276 0.38182 0.0
C3014 C 0.84831 0.8973 0.37068 0.0
C3015 C 0.81181 0.95233 0.37158 0.0
C3016 C 0.79633 0.98703 0.36856 0.0
C3017 C 0.84304 0.88997 0.37786 0.0
C3018 C 0.82081 0.9135 0.3819 0.0
C3019 C 0.80569 0.94446 0.3787 0.0
C3020 C 0.81408 0.90755 0.38951 0.0
C3021 C 0.862 0.85756 0.38107 0.0
C3022 C 0.79847 0.87506 0.39198 0.0
C3023 C 0.79259 0.86985 0.39919 0.0
C3024 C 0.80159 0.89734 0.40403 0.0
C3025 C 0.81641 0.93012 0.40151 0.0
C3026 C 0.82268 0.9351 0.39433 0.0
H3027 H 0.88562 0.84873 0.37785 0.0
H3028 H 0.87168 0.8637 0.38648 0.0
H3029 H 0.84265 0.83445 0.38137 0.0
H3030 H 0.79069 0.8538 0.38833 0.0
H3031 H 0.78085 0.84444 0.40097 0.0
H3032 H 0.79116 0.05007 0.09514 0.0
H3033 H 0.80002 0.03731 0.10761 0.0
H3034 H 0.83867 0.14683 0.11085 0.0
H3035 H 0.83087 0.15959 0.0983 0.0
H3036 H 0.88242 0.09743 0.11709 0.0
H3037 H 0.73899 0.06885 0.12411 0.0
H3038 H 0.75507 0.04091 0.11702 0.0
H3039 H 0.75174 0.08938 0.11584 0.0
C3040 C 0.8012 0.07162 0.0985 0.0
C3041 C 0.81021 0.10592 0.09572 0.0
C3042 C 0.80609 0.06429 0.10565 0.0
C3043 C 0.8195 0.09126 0.11019 0.0
C3044 C 0.82817 0.12566 0.10744 0.0
H3045 H 0.81033 0.08463 0.15544 0.0
H3046 H 0.80254 0.0961 0.14291 0.0
C3047 C 0.82356 0.13294 0.10028 0.0
C3048 C 0.8257 0.08317 0.11774 0.0
H3049 H 0.78362 0.05292 0.13263 0.0
C3050 C 0.8608 0.08788 0.12051 0.0
C3051 C 0.79739 0.07101 0.1222 0.0
C3052 C 0.75861 0.06759 0.11966 0.0
C3053 C 0.86841 0.08067 0.12762 0.0
C3054 C 0.84034 0.06739 0.13202 0.0
C3055 C 0.80524 0.06273 0.12924 0.0
C3056 C 0.846 0.06015 0.13963 0.0
C3057 C 0.90617 0.08839 0.13036 0.0
C3058 C 0.87294 0.03588 0.14199 0.0
C3059 C 0.87791 0.02972 0.1492 0.0
C3060 C 0.85541 0.04706 0.15415 0.0
C3061 C 0.82802 0.0707 0.15176 0.0
C3062 C 0.82352 0.0773 0.14459 0.0
H3063 H 0.92107 0.10769 0.1269 0.0
H3064 H 0.90523 0.09993 0.13575 0.0
H3065 H 0.92189 0.06265 0.13053 0.0
H3066 H 0.88997 0.02154 0.13826 0.0
H3067 H 0.89899 0.0111 0.1509 0.0
H3068 H 0.59352 0.02283 0.84953 0.0
H3069 H 0.60489 0.03347 0.86208 0.0
H3070 H 0.70721 0.08464 0.857 0.0
H3071 H 0.6968 0.07285 0.84456 0.0
H3072 H 0.7154 0.0412 0.86778 0.0
H3073 H 0.5943 0.12784 0.87242 0.0
H3074 H 0.58301 0.08339 0.86921 0.0
H3075 H 0.60836 0.11424 0.86372 0.0
C3076 C 0.61845 0.03626 0.8511 0.0
C3077 C 0.64418 0.04707 0.84605 0.0
C3078 C 0.62479 0.0426 0.85827 0.0
C3079 C 0.65657 0.06056 0.86048 0.0
C3080 C 0.68245 0.07085 0.85543 0.0
H3081 H 0.68884 0.16135 0.90149 0.0
H3082 H 0.68071 0.14948 0.8889 0.0
C3083 C 0.67642 0.06405 0.84831 0.0
C3084 C 0.6635 0.06841 0.86803 0.0
H3085 H 0.62854 0.11088 0.88251 0.0
C3086 C 0.69643 0.05653 0.87099 0.0
C3087 C 0.63907 0.089 0.87219 0.0
C3088 C 0.60439 0.10469 0.86921 0.0
C3089 C 0.70551 0.06443 0.878 0.0
C3090 C 0.68043 0.08372 0.88224 0.0
C3091 C 0.64764 0.09588 0.87927 0.0
C3092 C 0.68739 0.09114 0.8898 0.0
C3093 C 0.74228 0.05274 0.88072 0.0
C3094 C 0.69394 0.06236 0.89447 0.0
C3095 C 0.69907 0.06909 0.90163 0.0
C3096 C 0.69706 0.10475 0.9043 0.0
C3097 C 0.69065 0.13361 0.8996 0.0
C3098 C 0.68587 0.12685 0.89241 0.0
H3099 H 0.76213 0.04924 0.87636 0.0
H3100 H 0.75345 0.07279 0.88452 0.0
H3101 H 0.73955 0.02615 0.88343 0.0
H3102 H 0.69428 0.03451 0.89261 0.0
H3103 H 0.70359 0.04616 0.9051 0.0
H3104 H 0.91279 0.55138 0.84833 0.0
H3105 H 0.90213 0.55877 0.86098 0.0
H3106 H 0.7869 0.5687 0.85713 0.0
H3107 H 0.79712 0.55992 0.84459 0.0
H3108 H 0.87495 0.61454 0.86802 0.0
H3109 H 0.78619 0.49548 0.8726 0.0
H3110 H 0.81125 0.50157 0.86452 0.0
H3111 H 0.76833 0.52429 0.86582 0.0
C3112 C 0.88516 0.55463 0.8502 0.0
C3113 C 0.8558 0.55474 0.84546 0.0
C3114 C 0.8791 0.55895 0.85742 0.0
C3115 C 0.84363 0.56364 0.86003 0.0
C3116 C 0.81437 0.56401 0.85529 0.0
H3117 H 0.79242 0.66048 0.90087 0.0
H3118 H 0.80231 0.64952 0.88829 0.0
C3119 C 0.82032 0.55919 0.8481 0.0
C3120 C 0.83722 0.56975 0.86765 0.0
H3121 H 0.78627 0.54097 0.8816 0.0
C3122 C 0.8558 0.59825 0.87101 0.0
C3123 C 0.81256 0.54822 0.87158 0.0
C3124 C 0.79377 0.51545 0.86846 0.0
C3125 C 0.85004 0.60616 0.87816 0.0
C3126 C 0.824 0.5858 0.88199 0.0
C3127 C 0.80581 0.55698 0.87864 0.0
C3128 C 0.81637 0.59265 0.88955 0.0
C3129 C 0.8726 0.63566 0.88155 0.0
C3130 C 0.81924 0.56402 0.8944 0.0
C3131 C 0.81265 0.56998 0.90154 0.0
C3132 C 0.80341 0.60484 0.904 0.0
C3133 C 0.79984 0.63341 0.89914 0.0
C3134 C 0.80583 0.62725 0.89196 0.0
H3135 H 0.89811 0.64075 0.87857 0.0
H3136 H 0.85681 0.66137 0.88161 0.0
H3137 H 0.87984 0.6285 0.88705 0.0
H3138 H 0.82717 0.53706 0.89268 0.0
H3139 H 0.81576 0.54737 0.90514 0.0
H3140 H 0.72408 0.6497 0.09858 0.0
H3141 H 0.71561 0.6384 0.1112 0.0
H3142 H 0.66182 0.53702 0.10645 0.0
H3143 H 0.67133 0.5474 0.09393 0.0
H3144 H 0.65525 0.63153 0.11871 0.0
H3145 H 0.73316 0.5034 0.1209 0.0
H3146 H 0.73518 0.53187 0.11317 0.0
H3147 H 0.69828 0.50017 0.11434 0.0
C3148 C 0.71079 0.62485 0.10024 0.0
C3149 C 0.69867 0.59932 0.09526 0.0
C3150 C 0.70593 0.61843 0.10744 0.0
C3151 C 0.68873 0.58649 0.10979 0.0
C3152 C 0.67619 0.56129 0.1048 0.0
H3153 H 0.58669 0.55977 0.15086 0.0
H3154 H 0.59916 0.56828 0.13831 0.0
C3155 C 0.68145 0.56741 0.09763 0.0
C3156 C 0.68247 0.58009 0.11741 0.0
H3157 H 0.69311 0.51716 0.13047 0.0
C3158 C 0.6638 0.60665 0.1213 0.0
C3159 C 0.69406 0.54785 0.12082 0.0
C3160 C 0.71662 0.5194 0.1171 0.0
C3161 C 0.65576 0.60157 0.12846 0.0
C3162 C 0.66563 0.56848 0.13176 0.0
C3163 C 0.68497 0.54225 0.12791 0.0
C3164 C 0.65741 0.56104 0.13928 0.0
C3165 C 0.63747 0.63208 0.13243 0.0
C3166 C 0.68569 0.55224 0.14394 0.0
C3167 C 0.67855 0.54658 0.15107 0.0
C3168 C 0.64295 0.54982 0.15371 0.0
C3169 C 0.61445 0.55742 0.14901 0.0
C3170 C 0.62159 0.56264 0.14184 0.0
H3171 H 0.6416 0.65871 0.12978 0.0
H3172 H 0.60777 0.62685 0.13265 0.0
H3173 H 0.64793 0.63408 0.1379 0.0
H3174 H 0.71351 0.55057 0.14208 0.0
H3175 H 0.70117 0.54074 0.15455 0.0
H3176 H 0.66912 0.44398 0.40512 0.0
H3177 H 0.65693 0.45299 0.39264 0.0
H3178 H 0.71942 0.35696 0.38771 0.0
H3179 H 0.73053 0.34688 0.40028 0.0
H3180 H 0.70018 0.46616 0.38203 0.0
H3181 H 0.62807 0.33633 0.37696 0.0
H3182 H 0.63915 0.35152 0.38573 0.0
H3183 H 0.67314 0.32983 0.38035 0.0
C3184 C 0.68026 0.42467 0.40139 0.0
C3185 C 0.70065 0.39457 0.40369 0.0
C3186 C 0.67324 0.42988 0.39425 0.0
C3187 C 0.6867 0.40534 0.38923 0.0
C3188 C 0.70786 0.3757 0.39149 0.0
H3189 H 0.70147 0.45452 0.34467 0.0
H3190 H 0.7125 0.44649 0.35722 0.0
C3191 C 0.71444 0.37011 0.39867 0.0
C3192 C 0.67895 0.41155 0.38165 0.0
H3193 H 0.64268 0.37228 0.36695 0.0
C3194 C 0.68748 0.44564 0.37874 0.0
C3195 C 0.66179 0.38504 0.37738 0.0
C3196 C 0.64965 0.34878 0.38028 0.0
C3197 C 0.67961 0.45389 0.3717 0.0
C3198 C 0.66385 0.42687 0.36736 0.0
C3199 C 0.655 0.39289 0.37027 0.0
C3200 C 0.65669 0.43308 0.35976 0.0
C3201 C 0.6875 0.49177 0.36904 0.0
C3202 C 0.62175 0.4275 0.35697 0.0
C3203 C 0.61543 0.43153 0.34975 0.0
C3204 C 0.64395 0.44127 0.3452 0.0
C3205 C 0.67878 0.44737 0.34803 0.0
C3206 C 0.68513 0.44297 0.35523 0.0
H3207 H 0.68815 0.51183 0.37341 0.0
H3208 H 0.7146 0.49207 0.36647 0.0
H3209 H 0.66686 0.50069 0.36514 0.0
H3210 H 0.59942 0.41973 0.36037 0.0
H3211 H 0.58833 0.42655 0.34773 0.0
H3212 H 0.8356 0.48374 0.65336 0.0
H3213 H 0.82913 0.48023 0.64054 0.0
H3214 H 0.86161 0.36752 0.64105 0.0
H3215 H 0.86739 0.37053 0.65384 0.0
H3216 H 0.87806 0.46362 0.63019 0.0
H3217 H 0.76611 0.36273 0.63038 0.0
H3218 H 0.78051 0.38656 0.6382 0.0
H3219 H 0.80547 0.34756 0.63513 0.0
C3220 C 0.84144 0.45823 0.65074 0.0
C3221 C 0.85167 0.42731 0.65462 0.0
C3222 C 0.83769 0.45627 0.64342 0.0
C3223 C 0.84409 0.42339 0.63987 0.0
C3224 C 0.85555 0.39288 0.64371 0.0
H3225 H 0.88664 0.39081 0.59567 0.0
H3226 H 0.88931 0.39746 0.60844 0.0
C3227 C 0.85909 0.39474 0.65102 0.0
C3228 C 0.83918 0.42098 0.63214 0.0
H3229 H 0.79488 0.37343 0.6193 0.0
C3230 C 0.8597 0.44408 0.62781 0.0
C3231 C 0.81471 0.39592 0.62904 0.0
C3232 C 0.79016 0.37205 0.63343 0.0
C3233 C 0.85725 0.44203 0.62045 0.0
C3234 C 0.83424 0.41562 0.61735 0.0
C3235 C 0.81287 0.39331 0.62169 0.0
C3236 C 0.83223 0.41049 0.60962 0.0
C3237 C 0.87908 0.46841 0.61606 0.0
C3238 C 0.79892 0.41412 0.60608 0.0
C3239 C 0.79719 0.40986 0.59877 0.0
C3240 C 0.82877 0.40186 0.59489 0.0
C3241 C 0.86188 0.39731 0.59849 0.0
C3242 C 0.86353 0.40137 0.60579 0.0
H3243 H 0.88644 0.49313 0.61911 0.0
H3244 H 0.9047 0.4551 0.61436 0.0
H3245 H 0.86382 0.47685 0.61129 0.0
H3246 H 0.77438 0.42083 0.60895 0.0
H3247 H 0.77126 0.41348 0.59615 0.0
H3248 H 0.20073 0.42949 0.15529 0.0
H3249 H 0.20988 0.42121 0.14271 0.0
H3250 H 0.1039 0.46692 0.13861 0.0
H3251 H 0.09389 0.47408 0.15131 0.0
H3252 H 0.11427 0.40744 0.13099 0.0
H3253 H 0.2356 0.49489 0.12813 0.0
H3254 H 0.24272 0.46053 0.13467 0.0
H3255 H 0.20827 0.49472 0.13602 0.0
C3256 C 0.17942 0.43815 0.15172 0.0
C3257 C 0.14663 0.45267 0.1543 0.0
C3258 C 0.18484 0.4336 0.14451 0.0
C3259 C 0.15797 0.44421 0.13969 0.0
C3260 C 0.12514 0.45878 0.14224 0.0
H3261 H 0.20002 0.45655 0.09474 0.0
H3262 H 0.18941 0.46948 0.10716 0.0
C3263 C 0.11947 0.46291 0.14948 0.0
C3264 C 0.16368 0.43846 0.13204 0.0
H3265 H 0.22434 0.45289 0.11872 0.0
C3266 C 0.13815 0.41769 0.12829 0.0
C3267 C 0.19457 0.45228 0.12847 0.0
C3268 C 0.22161 0.47717 0.13202 0.0
C3269 C 0.14311 0.40958 0.12113 0.0
C3270 C 0.1751 0.42157 0.11768 0.0
C3271 C 0.20015 0.44312 0.12139 0.0
C3272 C 0.18262 0.41311 0.11018 0.0
C3273 C 0.11364 0.38885 0.11732 0.0
C3274 C 0.18328 0.377 0.10775 0.0
C3275 C 0.18892 0.3695 0.10061 0.0
C3276 C 0.19474 0.39796 0.0958 0.0
C3277 C 0.19564 0.43396 0.0983 0.0
C3278 C 0.18951 0.44143 0.10541 0.0
H3279 H 0.08697 0.39153 0.12002 0.0
H3280 H 0.11057 0.3985 0.11181 0.0
H3281 H 0.12079 0.35954 0.11721 0.0
H3282 H 0.17919 0.3546 0.11136 0.0
H3283 H 0.1884 0.34147 0.09885 0.0
H3284 H 0.29472 0.43806 0.8449 0.0
H3285 H 0.28477 0.42887 0.85745 0.0
H3286 H 0.39719 0.45483 0.86158 0.0
H3287 H 0.40775 0.46299 0.84894 0.0
H3288 H 0.37645 0.39516 0.86861 0.0
H3289 H 0.27385 0.50318 0.87275 0.0
H3290 H 0.2606 0.47213 0.86594 0.0
H3291 H 0.30046 0.50001 0.8648 0.0
C3292 C 0.31732 0.4422 0.84847 0.0
C3293 C 0.35204 0.45142 0.84592 0.0
C3294 C 0.31149 0.43712 0.85566 0.0
C3295 C 0.34003 0.44184 0.86048 0.0
C3296 C 0.37471 0.45125 0.85796 0.0
H3297 H 0.31078 0.45596 0.9056 0.0
H3298 H 0.32135 0.46733 0.89314 0.0
C3299 C 0.38069 0.45598 0.85074 0.0
C3300 C 0.33392 0.43537 0.86809 0.0
H3301 H 0.27945 0.45897 0.88191 0.0
C3302 C 0.35543 0.40931 0.87154 0.0
C3303 C 0.30676 0.45413 0.87193 0.0
C3304 C 0.28437 0.48418 0.86868 0.0
C3305 C 0.35013 0.40106 0.87868 0.0
C3306 C 0.32185 0.41862 0.88243 0.0
C3307 C 0.30075 0.4451 0.87901 0.0
C3308 C 0.31465 0.41117 0.88998 0.0
C3309 C 0.37542 0.3742 0.88217 0.0
C3310 C 0.30665 0.37585 0.89235 0.0
C3311 C 0.30093 0.36914 0.89952 0.0
C3312 C 0.30253 0.39775 0.90441 0.0
C3313 C 0.30937 0.43324 0.90198 0.0
C3314 C 0.31543 0.43983 0.89484 0.0
H3315 H 0.40132 0.37128 0.87921 0.0
H3316 H 0.38188 0.38258 0.88764 0.0
H3317 H 0.36214 0.34712 0.88234 0.0
H3318 H 0.3049 0.35346 0.88866 0.0
H3319 H 0.29542 0.34156 0.90122 0.0
H3320 H 0.31316 0.65847 0.59901 0.0
H3321 H 0.32114 0.64665 0.6116 0.0
H3322 H 0.30719 0.53168 0.60792 0.0
H3323 H 0.29788 0.54333 0.59543 0.0
H3324 H 0.27153 0.55149 0.61927 0.0
H3325 H 0.41139 0.60711 0.6207 0.0
H3326 H 0.37898 0.63991 0.61762 0.0
H3327 H 0.38818 0.59989 0.61246 0.0
C3328 C 0.31159 0.63071 0.60089 0.0
C3329 C 0.30508 0.60184 0.59621 0.0
C3330 C 0.3165 0.62395 0.60808 0.0
C3331 C 0.31568 0.58817 0.61068 0.0
C3332 C 0.3082 0.55948 0.60603 0.0
H3333 H 0.39972 0.52484 0.65194 0.0
H3334 H 0.39028 0.53263 0.63925 0.0
C3335 C 0.30284 0.56622 0.59888 0.0
C3336 C 0.32224 0.58039 0.61824 0.0
H3337 H 0.38299 0.59277 0.63163 0.0
C3338 C 0.29599 0.56038 0.62196 0.0
C3339 C 0.35453 0.59126 0.62172 0.0
C3340 C 0.38505 0.61038 0.61791 0.0
C3341 C 0.30079 0.55153 0.62908 0.0
C3342 C 0.33217 0.56409 0.63266 0.0
C3343 C 0.35877 0.58347 0.62891 0.0
C3344 C 0.3375 0.55821 0.64031 0.0
C3345 C 0.27245 0.52821 0.63265 0.0
C3346 C 0.31117 0.57024 0.64512 0.0
C3347 C 0.31624 0.56533 0.65233 0.0
C3348 C 0.34817 0.54902 0.65492 0.0
C3349 C 0.37481 0.53741 0.65011 0.0
C3350 C 0.36947 0.5419 0.64287 0.0
H3351 H 0.25754 0.51113 0.62878 0.0
H3352 H 0.28484 0.51011 0.63667 0.0
H3353 H 0.25226 0.54603 0.63529 0.0
H3354 H 0.28684 0.58393 0.64331 0.0
H3355 H 0.29538 0.57506 0.65589 0.0
H3356 H 0.11848 0.60968 0.40412 0.0
H3357 H 0.11682 0.60327 0.39135 0.0
H3358 H 0.23306 0.58762 0.391 0.0
H3359 H 0.23511 0.59457 0.40383 0.0
H3360 H 0.20866 0.63419 0.38054 0.0
H3361 H 0.12752 0.50722 0.3808 0.0
H3362 H 0.10647 0.54347 0.38564 0.0
H3363 H 0.14924 0.52515 0.38858 0.0
C3364 C 0.14376 0.60497 0.40134 0.0
C3365 C 0.17691 0.60235 0.405 0.0
C3366 C 0.1427 0.60106 0.39404 0.0
C3367 C 0.17468 0.59412 0.39025 0.0
C3368 C 0.20802 0.59261 0.39384 0.0
H3369 H 0.17193 0.52212 0.34638 0.0
H3370 H 0.18021 0.52556 0.35916 0.0
C3371 C 0.20914 0.59664 0.40117 0.0
C3372 C 0.17312 0.58879 0.38253 0.0
H3373 H 0.13245 0.53777 0.36974 0.0
C3374 C 0.19226 0.61294 0.37817 0.0
C3375 C 0.15223 0.56063 0.37945 0.0
C3376 C 0.13299 0.5324 0.38386 0.0
C3377 C 0.19003 0.61048 0.37081 0.0
C3378 C 0.16742 0.58362 0.36774 0.0
C3379 C 0.14935 0.55866 0.3721 0.0
C3380 C 0.16176 0.5813 0.36002 0.0
C3381 C 0.21212 0.63653 0.3664 0.0
C3382 C 0.14773 0.61114 0.3563 0.0
C3383 C 0.14319 0.60934 0.34902 0.0
C3384 C 0.15208 0.57744 0.34531 0.0
C3385 C 0.16489 0.5471 0.34908 0.0
C3386 C 0.1697 0.54904 0.35638 0.0
H3387 H 0.23581 0.64732 0.36938 0.0
H3388 H 0.22219 0.62325 0.36153 0.0
H3389 H 0.19481 0.65997 0.36488 0.0
H3390 H 0.14038 0.63592 0.35904 0.0
H3391 H 0.1329 0.63305 0.34628 0.0
H3392 H 0.32205 0.029 0.22326 0.0
H3393 H 0.34245 0.0358 0.2354 0.0
H3394 H 0.41298 0.94287 0.233 0.0
H3395 H 0.39208 0.93555 0.2208 0.0
H3396 H 0.36701 0.93834 0.24451 0.0
H3397 H 0.43602 0.07159 0.24456 0.0
H3398 H 0.39285 0.07422 0.2402 0.0
H3399 H 0.42826 0.04597 0.23658 0.0
C3400 C 0.34242 0.01041 0.22528 0.0
C3401 C 0.3558 0.98203 0.22107 0.0
C3402 C 0.35434 0.01454 0.23219 0.0
C3403 C 0.37983 0.99033 0.23506 0.0
C3404 C 0.39377 0.96223 0.23084 0.0
H3405 H 0.39256 0.98103 0.28164 0.0
H3406 H 0.41411 0.97073 0.26957 0.0
C3407 C 0.38199 0.95822 0.22387 0.0
C3408 C 0.38798 0.9922 0.24269 0.0
H3409 H 0.40744 0.05356 0.25562 0.0
C3410 C 0.37695 0.96307 0.24696 0.0
C3411 C 0.40116 0.0244 0.24586 0.0
C3412 C 0.41561 0.05565 0.24154 0.0
C3413 C 0.37538 0.96663 0.25431 0.0
C3414 C 0.38553 4e-05 0.25743 0.0
C3415 C 0.39945 0.02805 0.2532 0.0
C3416 C 0.37618 0.00848 0.26483 0.0
C3417 C 0.36006 0.93577 0.25863 0.0
C3418 C 0.34847 0.03374 0.26615 0.0
C3419 C 0.33637 0.03983 0.273 0.0
C3420 C 0.35197 0.02106 0.27869 0.0
C3421 C 0.38054 0.99651 0.27739 0.0
C3422 C 0.39261 0.99028 0.2705 0.0
H3423 H 0.35015 0.91298 0.25531 0.0
H3424 H 0.38145 0.92513 0.2622 0.0
H3425 H 0.3372 0.94561 0.26195 0.0
H3426 H 0.33537 0.04797 0.26185 0.0
H3427 H 0.31437 0.05896 0.27383 0.0
H3428 H 0.19638 0.04873 0.52457 0.0
H3429 H 0.20359 0.06712 0.51229 0.0
H3430 H 0.26571 0.16074 0.51884 0.0
H3431 H 0.25934 0.14178 0.53119 0.0
H3432 H 0.18506 0.1333 0.50513 0.0
H3433 H 0.33419 0.10535 0.50531 0.0
H3434 H 0.30461 0.08935 0.51223 0.0
H3435 H 0.31663 0.13659 0.51175 0.0
C3436 C 0.21126 0.07344 0.5234 0.0
C3437 C 0.22686 0.09412 0.52882 0.0
C3438 C 0.21523 0.084 0.51639 0.0
C3439 C 0.23527 0.1152 0.51466 0.0
C3440 C 0.25026 0.13648 0.52007 0.0
H3441 H 0.30477 0.14039 0.47052 0.0
H3442 H 0.29264 0.15977 0.48267 0.0
C3443 C 0.24622 0.1259 0.52712 0.0
C3444 C 0.24188 0.12357 0.50715 0.0
H3445 H 0.30684 0.11612 0.49439 0.0
C3446 C 0.2118 0.13031 0.50279 0.0
C3447 C 0.27684 0.11993 0.50411 0.0
C3448 C 0.31001 0.11223 0.50855 0.0
C3449 C 0.21543 0.13137 0.49544 0.0
C3450 C 0.24991 0.12495 0.49239 0.0
C3451 C 0.28042 0.12095 0.49676 0.0
C3452 C 0.25402 0.11673 0.4848 0.0
C3453 C 0.18209 0.13803 0.491 0.0
C3454 C 0.23637 0.08618 0.48199 0.0
C3455 C 0.24327 0.0751 0.4751 0.0
C3456 C 0.26788 0.0944 0.47086 0.0
C3457 C 0.285 0.12552 0.47361 0.0
C3458 C 0.27828 0.13648 0.48055 0.0
H3459 H 0.16167 0.15455 0.49389 0.0
H3460 H 0.18911 0.15213 0.48601 0.0
H3461 H 0.16929 0.11154 0.48969 0.0
H3462 H 0.21828 0.06999 0.48522 0.0
H3463 H 0.22983 0.05092 0.47314 0.0
H3464 H 0.11348 0.01673 0.78195 0.0
H3465 H 0.09148 0.0287 0.76997 0.0
H3466 H 0.15738 0.9404 0.76217 0.0
H3467 H 0.17884 0.92803 0.77407 0.0
H3468 H 0.13702 0.04823 0.75901 0.0
H3469 H 0.06181 0.92386 0.7518 0.0
H3470 H 0.07109 0.93611 0.76084 0.0
H3471 H 0.10498 0.91295 0.75566 0.0
C3472 C 0.12224 0.99911 0.77771 0.0
C3473 C 0.14748 0.9711 0.77895 0.0
C3474 C 0.10985 0.00614 0.77087 0.0
C3475 C 0.1222 0.98496 0.7652 0.0
C3476 C 0.14669 0.95646 0.76648 0.0
H3477 H 0.18277 0.97462 0.72395 0.0
H3478 H 0.16235 0.96754 0.73609 0.0
C3479 C 0.15924 0.94965 0.77327 0.0
C3480 C 0.11361 0.99492 0.75783 0.0
H3481 H 0.09083 0.95635 0.7421 0.0
C3482 C 0.12584 0.02867 0.75532 0.0
C3483 C 0.09883 0.96941 0.75305 0.0
C3484 C 0.08308 0.93371 0.7555 0.0
C3485 C 0.12701 0.03616 0.74808 0.0
C3486 C 0.11518 0.0093 0.74326 0.0
C3487 C 0.10011 0.9768 0.74581 0.0
C3488 C 0.12378 0.01193 0.73566 0.0
C3489 C 0.14363 0.07147 0.7456 0.0
C3490 C 0.10831 0.03885 0.73136 0.0
C3491 C 0.12006 0.04302 0.72439 0.0
C3492 C 0.14732 0.02021 0.72164 0.0
C3493 C 0.16179 0.99263 0.72592 0.0
C3494 C 0.15001 0.98842 0.73284 0.0
H3495 H 0.15502 0.0877 0.75002 0.0
H3496 H 0.16566 0.06606 0.74175 0.0
H3497 H 0.12255 0.08807 0.74293 0.0
H3498 H 0.0879 0.05716 0.73344 0.0
H3499 H 0.10893 0.06498 0.72127 0.0
H3500 H 0.30012 0.85342 0.03005 0.0
H3501 H 0.28893 0.83228 0.01799 0.0
H3502 H 0.21639 0.92276 0.01458 0.0
H3503 H 0.22681 0.94352 0.02661 0.0
H3504 H 0.19151 0.85338 0.00896 0.0
H3505 H 0.33323 0.88967 0.00113 0.0
H3506 H 0.32692 0.85922 0.00845 0.0
H3507 H 0.31342 0.90593 0.00923 0.0
C3508 C 0.28104 0.8682 0.02679 0.0
C3509 C 0.26412 0.90001 0.02929 0.0
C3510 C 0.27498 0.85631 0.01988 0.0
C3511 C 0.25202 0.87612 0.01539 0.0
C3512 C 0.23414 0.90705 0.01797 0.0
H3513 H 0.18264 0.93552 0.97588 0.0
H3514 H 0.18953 0.91594 0.98809 0.0
C3515 C 0.24027 0.91898 0.02483 0.0
C3516 C 0.24822 0.86687 0.00785 0.0
H3517 H 0.2918 0.87723 0.99212 0.0
C3518 C 0.21362 0.85776 0.00528 0.0
C3519 C 0.27718 0.87233 0.00306 0.0
C3520 C 0.31482 0.88248 0.00556 0.0
C3521 C 0.20669 0.85616 0.99802 0.0
C3522 C 0.23492 0.8646 0.99324 0.0
C3523 C 0.27017 0.8709 0.9958 0.0
C3524 C 0.22748 0.87257 0.98573 0.0
C3525 C 0.16886 0.84675 0.99555 0.0
C3526 C 0.24685 0.85498 0.98033 0.0
C3527 C 0.24297 0.8663 0.97333 0.0
C3528 C 0.21989 0.8955 0.97165 0.0
C3529 C 0.20022 0.91263 0.97704 0.0
C3530 C 0.20391 0.90124 0.984 0.0
H3531 H 0.15489 0.82868 0.99938 0.0
H3532 H 0.1526 0.87208 0.99509 0.0
H3533 H 0.16937 0.83316 0.99033 0.0
H3534 H 0.26572 0.83327 0.98157 0.0
H3535 H 0.25929 0.85342 0.96929 0.0
H3536 H 0.61209 0.9811 0.78085 0.0
H3537 H 0.59898 0.96902 0.76837 0.0
H3538 H 0.66274 0.06269 0.76249 0.0
H3539 H 0.67626 0.07444 0.7749 0.0
H3540 H 0.57196 0.01233 0.75597 0.0
H3541 H 0.71712 0.97104 0.75472 0.0
H3542 H 0.69324 0.97706 0.76294 0.0
H3543 H 0.70981 0.01593 0.75818 0.0
C3544 C 0.62212 -0.00022 0.7769 0.0
C3545 C 0.64503 0.02874 0.77879 0.0
C3546 C 0.61474 0.99282 0.76979 0.0
C3547 C 0.63023 0.01479 0.76454 0.0
C3548 C 0.65077 0.04532 0.76648 0.0
H3549 H 0.62287 0.02156 0.71924 0.0
H3550 H 0.6083 0.02974 0.73174 0.0
C3551 C 0.65845 0.05201 0.77354 0.0
C3552 C 0.62952 0.00328 0.75709 0.0
H3553 H 0.686 0.9762 0.74388 0.0
C3554 C 0.59674 0.00412 0.75331 0.0
C3555 C 0.6618 0.99193 0.75369 0.0
C3556 C 0.69745 0.98855 0.75759 0.0
C3557 C 0.59572 0.99499 0.74611 0.0
C3558 C 0.62844 0.98536 0.74265 0.0
C3559 C 0.66091 0.98363 0.74652 0.0
C3560 C 0.63056 0.9778 0.73498 0.0
C3561 C 0.5597 0.9955 0.74232 0.0
C3562 C 0.64773 0.9459 0.73264 0.0
C3563 C 0.65668 0.94163 0.72555 0.0
C3564 C 0.64802 0.96886 0.72067 0.0
C3565 C 0.62905 -0.00012 0.72291 0.0
C3566 C 0.6206 0.00447 0.73004 0.0
H3567 H 0.53665 0.99189 0.74603 0.0
H3568 H 0.55625 0.0222 0.73968 0.0
H3569 H 0.55835 0.97384 0.73825 0.0
H3570 H 0.65581 0.92504 0.73635 0.0
H3571 H 0.67148 0.91757 0.72392 0.0
H3572 H 0.71394 0.93522 0.47289 0.0
H3573 H 0.70673 0.91522 0.48506 0.0
H3574 H 0.7938 0.83789 0.48231 0.0
H3575 H 0.80195 0.85863 0.47014 0.0
H3576 H 0.69336 0.84585 0.49135 0.0
H3577 H 0.82861 0.90381 0.49853 0.0
H3578 H 0.80682 0.9142 0.49027 0.0
H3579 H 0.82725 0.87042 0.49162 0.0
C3580 C 0.73132 0.91367 0.47485 0.0
C3581 C 0.75836 0.89837 0.47055 0.0
C3582 C 0.72703 0.90213 0.48178 0.0
C3583 C 0.74989 0.87528 0.48459 0.0
C3584 C 0.77604 0.85883 0.48025 0.0
H3585 H 0.76311 0.85951 0.53072 0.0
H3586 H 0.77107 0.83937 0.51848 0.0
C3587 C 0.78035 0.8704 0.47327 0.0
C3588 C 0.74774 0.86719 0.49221 0.0
H3589 H 0.79042 0.88605 0.50773 0.0
C3590 C 0.71485 0.8539 0.49494 0.0
C3591 C 0.77593 0.8775 0.49687 0.0
C3592 C 0.81163 0.89248 0.49422 0.0
C3593 C 0.70862 0.85265 0.50222 0.0
C3594 C 0.73576 0.86558 0.50686 0.0
C3595 C 0.76963 0.87626 0.50415 0.0
C3596 C 0.72795 0.8733 0.51435 0.0
C3597 C 0.67255 0.83872 0.50487 0.0
C3598 C 0.70117 0.89902 0.51606 0.0
C3599 C 0.69662 0.91043 0.52301 0.0
C3600 C 0.7186 0.89618 0.52837 0.0
C3601 C 0.74503 0.86998 0.5267 0.0
C3602 C 0.74976 0.85868 0.51972 0.0
H3603 H 0.66057 0.81871 0.50115 0.0
H3604 H 0.67535 0.82574 0.51012 0.0
H3605 H 0.65327 0.86183 0.50534 0.0
H3606 H 0.68478 0.91147 0.51198 0.0
H3607 H 0.67642 0.93104 0.52417 0.0
H3608 H 0.80946 0.02777 0.27613 0.0
H3609 H 0.83108 0.03531 0.26408 0.0
H3610 H 0.91122 0.95139 0.26741 0.0
H3611 H 0.88886 0.94283 0.27945 0.0
H3612 H 0.90069 0.05145 0.25825 0.0
H3613 H 0.85017 0.91366 0.25076 0.0
H3614 H 0.83737 0.93499 0.25895 0.0
H3615 H 0.88226 0.9166 0.25788 0.0
C3616 C 0.83193 0.01113 0.27432 0.0
C3617 C 0.84759 0.98488 0.27875 0.0
C3618 C 0.84439 0.01562 0.26745 0.0
C3619 C 0.87257 0.99375 0.26484 0.0
C3620 C 0.88927 0.96837 0.26932 0.0
H3621 H 0.89405 0.98243 0.21874 0.0
H3622 H 0.91425 0.97525 0.23101 0.0
C3623 C 0.87675 0.96384 0.27623 0.0
C3624 C 0.88195 0.99616 0.25728 0.0
H3625 H 0.86737 0.95272 0.24166 0.0
C3626 C 0.8942 0.02961 0.25462 0.0
C3627 C 0.8737 0.96751 0.25257 0.0
C3628 C 0.85996 0.93117 0.25514 0.0
C3629 C 0.89619 0.03592 0.24735 0.0
C3630 C 0.88515 0.00825 0.24265 0.0
C3631 C 0.87573 0.97389 0.24529 0.0
C3632 C 0.87749 0.01595 0.23515 0.0
C3633 C 0.90867 0.07265 0.24477 0.0
C3634 C 0.85022 0.04114 0.23343 0.0
C3635 C 0.8387 0.04515 0.22649 0.0
C3636 C 0.8544 0.02424 0.22112 0.0
C3637 C 0.8823 -0.00041 0.22278 0.0
C3638 C 0.89366 0.99533 0.22977 0.0
H3639 H 0.92763 0.08554 0.24858 0.0
H3640 H 0.92237 0.07052 0.23957 0.0
H3641 H 0.88472 0.09079 0.2442 0.0
H3642 H 0.83664 0.05658 0.23752 0.0
H3643 H 0.81683 0.06399 0.22533 0.0
H3644 H 0.76116 0.14266 0.96857 0.0
H3645 H 0.77013 0.16377 0.98072 0.0
H3646 H 0.69422 0.08271 0.98806 0.0
H3647 H 0.68465 0.06218 0.97596 0.0
H3648 H 0.68698 0.15405 0.99456 0.0
H3649 H 0.82869 0.09969 0.99477 0.0
H3650 H 0.81639 0.1315 0.98798 0.0
H3651 H 0.79642 0.08698 0.98805 0.0
C3652 C 0.74563 0.13017 0.97276 0.0
C3653 C 0.72177 0.10121 0.97134 0.0
C3654 C 0.75108 0.14193 0.9797 0.0
C3655 C 0.73293 0.12467 0.98527 0.0
C3656 C 0.70834 0.09649 0.98382 0.0
H3657 H 0.71537 0.0707 0.02708 0.0
H3658 H 0.70721 0.09025 0.01492 0.0
C3659 C 0.703 0.0847 0.97692 0.0
C3660 C 0.74102 0.13358 0.9927 0.0
H3661 H 0.80352 0.11683 0.00557 0.0
C3662 C 0.71273 0.1467 0.99696 0.0
C3663 C 0.77473 0.12423 0.9958 0.0
C3664 C 0.80588 0.10964 0.99146 0.0
C3665 C 0.71654 0.14862 0.00429 0.0
C3666 C 0.74921 0.13646 0.00744 0.0
C3667 C 0.77846 0.12604 0.00314 0.0
C3668 C 0.75169 0.12885 0.01507 0.0
C3669 C 0.68505 0.16233 0.00863 0.0
C3670 C 0.77969 0.14378 0.01919 0.0
C3671 C 0.78449 0.13247 0.02617 0.0
C3672 C 0.7616 0.10579 0.02909 0.0
C3673 C 0.73328 0.09145 0.02498 0.0
C3674 C 0.72835 0.10289 0.01805 0.0
H3675 H 0.6684 0.18214 0.00561 0.0
H3676 H 0.66721 0.1391 0.01005 0.0
H3677 H 0.69456 0.17548 0.01357 0.0
H3678 H 0.79838 0.16337 0.01695 0.0
H3679 H 0.80711 0.14331 0.02916 0.0
H3680 H 0.80316 0.48338 0.77577 0.0
H3681 H 0.82368 0.47326 0.76376 0.0
H3682 H 0.92009 0.53676 0.76783 0.0
H3683 H 0.89884 0.54828 0.77984 0.0
H3684 H 0.88731 0.55869 0.75612 0.0
H3685 H 0.89907 0.40969 0.7548 0.0
H3686 H 0.85561 0.42153 0.75839 0.0
H3687 H 0.89652 0.43372 0.76308 0.0
C3688 C 0.82905 0.49473 0.77416 0.0
C3689 C 0.84959 0.51621 0.7788 0.0
C3690 C 0.841 0.48853 0.7673 0.0
C3691 C 0.8739 0.50346 0.76493 0.0
C3692 C 0.89492 0.52443 0.76958 0.0
H3693 H 0.89834 0.44944 0.7201 0.0
H3694 H 0.91836 0.45835 0.73227 0.0
C3695 C 0.88289 0.53071 0.77648 0.0
C3696 C 0.88353 0.5005 0.75736 0.0
H3697 H 0.88205 0.43997 0.74376 0.0
C3698 C 0.88715 0.53265 0.75343 0.0
C3699 C 0.88434 0.4666 0.75384 0.0
C3700 C 0.88411 0.43098 0.75778 0.0
C3701 C 0.88799 0.53191 0.74605 0.0
C3702 C 0.88416 0.49824 0.74252 0.0
C3703 C 0.88418 0.4659 0.74645 0.0
C3704 C 0.87538 0.4962 0.7349 0.0
C3705 C 0.89173 0.56736 0.74212 0.0
C3706 C 0.8446 0.51445 0.73233 0.0
C3707 C 0.83343 0.50979 0.72538 0.0
C3708 C 0.85261 0.48657 0.72083 0.0
C3709 C 0.88365 0.46847 0.72337 0.0
C3710 C 0.89493 0.47325 0.73036 0.0
H3711 H 0.90832 0.58711 0.74517 0.0
H3712 H 0.90448 0.56339 0.73688 0.0
H3713 H 0.86438 0.57954 0.74137 0.0
H3714 H 0.82831 0.53134 0.73578 0.0
H3715 H 0.80923 0.52388 0.7236 0.0
H3716 H 0.80211 0.64811 0.96971 0.0
H3717 H 0.79037 0.67017 0.98169 0.0
H3718 H 0.71943 0.5787 0.98538 0.0
H3719 H 0.73036 0.55704 0.97343 0.0
H3720 H 0.69323 0.64777 0.99079 0.0
H3721 H 0.83574 0.61531 0.99872 0.0
H3722 H 0.82869 0.64515 0.99134 0.0
H3723 H 0.81638 0.59807 0.99065 0.0
C3724 C 0.78325 0.6333 0.97301 0.0
C3725 C 0.76695 0.60095 0.97062 0.0
C3726 C 0.77688 0.64572 0.97987 0.0
C3727 C 0.75424 0.62589 0.98442 0.0
C3728 C 0.73693 0.59443 0.98194 0.0
H3729 H 0.68608 0.56504 0.02376 0.0
H3730 H 0.69275 0.58515 0.01159 0.0
C3731 C 0.74336 0.58199 0.97513 0.0
C3732 C 0.75023 0.63565 0.99194 0.0
H3733 H 0.79386 0.62677 0.0077 0.0
C3734 C 0.7154 0.64406 0.99449 0.0
C3735 C 0.77927 0.63108 0.99674 0.0
C3736 C 0.81717 0.62176 0.99428 0.0
C3737 C 0.70835 0.64565 0.00174 0.0
C3738 C 0.7367 0.63795 0.00654 0.0
C3739 C 0.77214 0.63252 0.004 0.0
C3740 C 0.72929 0.6296 0.01403 0.0
C3741 C 0.67026 0.65412 0.00419 0.0
C3742 C 0.74794 0.64763 0.01947 0.0
C3743 C 0.74417 0.63603 0.02645 0.0
C3744 C 0.72195 0.60608 0.02807 0.0
C3745 C 0.703 0.58848 0.02265 0.0
C3746 C 0.70655 0.60017 0.0157 0.0
H3747 H 0.65591 0.67182 0.00034 0.0
H3748 H 0.65463 0.62839 0.00463 0.0
H3749 H 0.67036 0.66773 0.0094 0.0
H3750 H 0.76617 0.66994 0.01827 0.0
H3751 H 0.75991 0.64933 0.03053 0.0
H3752 H 0.61253 0.48575 0.21835 0.0
H3753 H 0.59256 0.47565 0.23051 0.0
H3754 H 0.66763 0.55792 0.23765 0.0
H3755 H 0.68689 0.56871 0.22557 0.0
H3756 H 0.6371 0.45196 0.2411 0.0
H3757 H 0.57734 0.58359 0.24881 0.0
H3758 H 0.58396 0.57087 0.23971 0.0
H3759 H 0.62083 0.59011 0.24474 0.0
C3760 C 0.6238 0.50255 0.22248 0.0
C3761 C 0.65088 0.52846 0.22099 0.0
C3762 C 0.61257 0.49655 0.22943 0.0
C3763 C 0.62801 0.51659 0.23498 0.0
C3764 C 0.65453 0.54287 0.23345 0.0
H3765 H 0.69735 0.51601 0.27592 0.0
H3766 H 0.67688 0.5261 0.26386 0.0
C3767 C 0.66582 0.54873 0.22655 0.0
C3768 C 0.6201 0.50757 0.24243 0.0
H3769 H 0.60464 0.54806 0.25831 0.0
C3770 C 0.62888 0.47259 0.24485 0.0
C3771 C 0.60916 0.53447 0.24731 0.0
C3772 C 0.59691 0.57174 0.24499 0.0
C3773 C 0.63032 0.46482 0.25209 0.0
C3774 C 0.62245 0.4927 0.25698 0.0
C3775 C 0.61089 0.52681 0.25454 0.0
C3776 C 0.6316 0.4887 0.26452 0.0
C3777 C 0.64297 0.42774 0.25446 0.0
C3778 C 0.61244 0.46477 0.26893 0.0
C3779 C 0.6241 0.45898 0.27587 0.0
C3780 C 0.65507 0.47704 0.27846 0.0
C3781 C 0.67345 0.50168 0.27407 0.0
C3782 C 0.6617 0.5076 0.26719 0.0
H3783 H 0.65091 0.41007 0.24997 0.0
H3784 H 0.66659 0.43045 0.25806 0.0
H3785 H 0.62078 0.41407 0.2574 0.0
H3786 H 0.5891 0.44998 0.26696 0.0
H3787 H 0.60983 0.4393 0.27908 0.0
H3788 H 0.76773 0.35548 0.46838 0.0
H3789 H 0.77507 0.33527 0.48064 0.0
H3790 H 0.69482 0.4138 0.48723 0.0
H3791 H 0.68718 0.43357 0.47505 0.0
H3792 H 0.79825 0.38133 0.49139 0.0
H3793 H 0.66438 0.32279 0.49813 0.0
H3794 H 0.67953 0.32839 0.48914 0.0
H3795 H 0.65998 0.3661 0.49387 0.0
C3796 C 0.75084 0.36746 0.47243 0.0
C3797 C 0.72637 0.39555 0.47079 0.0
C3798 C 0.75521 0.3561 0.47942 0.0
C3799 C 0.73491 0.37249 0.48482 0.0
C3800 C 0.71001 0.40006 0.48313 0.0
H3801 H 0.72462 0.43447 0.52641 0.0
H3802 H 0.7168 0.41583 0.51418 0.0
C3803 C 0.70587 0.41155 0.47619 0.0
C3804 C 0.74244 0.36439 0.49232 0.0
H3805 H 0.69916 0.34775 0.50787 0.0
C3806 C 0.77696 0.37297 0.49499 0.0
C3807 C 0.71461 0.35336 0.49699 0.0
C3808 C 0.67765 0.34177 0.49437 0.0
C3809 C 0.78346 0.37397 0.50227 0.0
C3810 C 0.75477 0.36558 0.50697 0.0
C3811 C 0.72105 0.35436 0.50426 0.0
C3812 C 0.75759 0.37346 0.51459 0.0
C3813 C 0.82009 0.38669 0.50489 0.0
C3814 C 0.78266 0.35531 0.51892 0.0
C3815 C 0.78733 0.36609 0.52593 0.0
C3816 C 0.76677 0.39497 0.52872 0.0
C3817 C 0.7409 0.41218 0.52441 0.0
C3818 C 0.73625 0.40143 0.51744 0.0
H3819 H 0.83762 0.39696 0.50056 0.0
H3820 H 0.81675 0.40866 0.50885 0.0
H3821 H 0.83437 0.36369 0.50747 0.0
H3822 H 0.79922 0.33348 0.51682 0.0
H3823 H 0.80804 0.35282 0.52906 0.0
H3824 H 0.19131 0.5189 0.22369 0.0
H3825 H 0.17106 0.52696 0.23582 0.0
H3826 H 0.09098 0.44248 0.233 0.0
H3827 H 0.11177 0.43365 0.22084 0.0
H3828 H 0.09991 0.54283 0.24164 0.0
H3829 H 0.15503 0.40781 0.24977 0.0
H3830 H 0.16772 0.42871 0.24154 0.0
H3831 H 0.12324 0.4094 0.24257 0.0
C3832 C 0.16917 0.50221 0.22563 0.0
C3833 C 0.153 0.4758 0.2213 0.0
C3834 C 0.1575 0.50699 0.23254 0.0
C3835 C 0.12967 0.48521 0.23531 0.0
C3836 C 0.11263 0.45944 0.23096 0.0
H3837 H 0.11164 0.48178 0.28156 0.0
H3838 H 0.0919 0.47061 0.26941 0.0
C3839 C 0.12426 0.45472 0.224 0.0
C3840 C 0.12075 0.48847 0.24288 0.0
H3841 H 0.13838 0.44825 0.25871 0.0
C3842 C 0.10751 0.52186 0.24537 0.0
C3843 C 0.13042 0.46095 0.24774 0.0
C3844 C 0.14506 0.42468 0.24532 0.0
C3845 C 0.10588 0.5293 0.25261 0.0
C3846 C 0.11844 0.50291 0.25745 0.0
C3847 C 0.1289 0.46848 0.25498 0.0
C3848 C 0.12634 0.51222 0.26488 0.0
C3849 C 0.09208 0.56591 0.255 0.0
C3850 C 0.15225 0.53918 0.26635 0.0
C3851 C 0.16348 0.54556 0.27324 0.0
C3852 C 0.14899 0.52521 0.27883 0.0
C3853 C 0.12253 0.49861 0.27739 0.0
C3854 C 0.11143 0.49201 0.27045 0.0
H3855 H 0.07214 0.57723 0.25119 0.0
H3856 H 0.07908 0.56418 0.26026 0.0
H3857 H 0.11526 0.58519 0.25533 0.0
H3858 H 0.16486 0.55442 0.26212 0.0
H3859 H 0.18406 0.56608 0.27419 0.0
H3860 H 0.31063 0.3567 0.97113 0.0
H3861 H 0.3025 0.3362 0.98334 0.0
H3862 H 0.20816 0.40522 0.98528 0.0
H3863 H 0.21583 0.42527 0.97315 0.0
H3864 H 0.3052 0.38331 0.99473 0.0
H3865 H 0.1734 0.31158 0.9946 0.0
H3866 H 0.19955 0.31916 0.98667 0.0
H3867 H 0.17031 0.35431 0.99008 0.0
C3868 C 0.28751 0.36652 0.9741 0.0
C3869 C 0.26359 0.39226 0.97118 0.0
C3870 C 0.28302 0.35496 0.98107 0.0
C3871 C 0.25431 0.36864 0.98517 0.0
C3872 C 0.22992 0.39354 0.98217 0.0
H3873 H 0.18063 0.43458 0.02368 0.0
H3874 H 0.19267 0.41306 0.01176 0.0
C3875 C 0.23454 0.40527 0.97525 0.0
C3876 C 0.25198 0.36102 0.99281 0.0
H3877 H 0.18997 0.34135 0.00562 0.0
C3878 C 0.28049 0.37305 0.99714 0.0
C3879 C 0.21979 0.34748 0.99593 0.0
C3880 C 0.1892 0.33204 0.99156 0.0
C3881 C 0.27628 0.37522 0.00447 0.0
C3882 C 0.24284 0.36457 0.00753 0.0
C3883 C 0.2155 0.34971 0.00325 0.0
C3884 C 0.2337 0.37408 0.01489 0.0
C3885 C 0.30645 0.39162 0.00883 0.0
C3886 C 0.25235 0.35882 0.02062 0.0
C3887 C 0.24556 0.37122 0.02747 0.0
C3888 C 0.2199 0.39892 0.02867 0.0
C3889 C 0.2006 0.41326 0.02292 0.0
C3890 C 0.2073 0.40085 0.01612 0.0
H3891 H 0.32899 0.4023 0.00553 0.0
H3892 H 0.29576 0.41415 0.01213 0.0
H3893 H 0.31774 0.37061 0.01241 0.0
H3894 H 0.27275 0.33801 0.01978 0.0
H3895 H 0.2615 0.36021 0.03175 0.0
H3896 H 0.3931 0.56543 0.72106 0.0
H3897 H 0.41653 0.55646 0.73305 0.0
H3898 H 0.34372 0.46553 0.73578 0.0
H3899 H 0.32088 0.47389 0.72386 0.0
H3900 H 0.37405 0.56187 0.74488 0.0
H3901 H 0.43713 0.42594 0.7442 0.0
H3902 H 0.42859 0.45206 0.73631 0.0
H3903 H 0.39303 0.42487 0.74018 0.0
C3904 C 0.38302 0.54282 0.72415 0.0
C3905 C 0.35549 0.52005 0.72151 0.0
C3906 C 0.39627 0.53786 0.731 0.0
C3907 C 0.38244 0.50984 0.73525 0.0
C3908 C 0.35557 0.48666 0.73254 0.0
H3909 H 0.31623 0.44384 0.77387 0.0
H3910 H 0.33757 0.45415 0.76187 0.0
C3911 C 0.34223 0.49173 0.72574 0.0
C3912 C 0.39207 0.50719 0.74281 0.0
H3913 H 0.41019 0.44396 0.75547 0.0
C3914 C 0.38316 0.53652 0.74721 0.0
C3915 C 0.40421 0.47419 0.74583 0.0
C3916 C 0.41666 0.44264 0.74136 0.0
C3917 C 0.38243 0.53248 0.75456 0.0
C3918 C 0.39118 0.49833 0.75753 0.0
C3919 C 0.40324 0.47004 0.75316 0.0
C3920 C 0.38176 0.48969 0.76491 0.0
C3921 C 0.36931 0.5637 0.75905 0.0
C3922 C 0.4 0.50582 0.7706 0.0
C3923 C 0.3878 0.49992 0.7775 0.0
C3924 C 0.35723 0.47784 0.77876 0.0
C3925 C 0.33981 0.46102 0.77305 0.0
C3926 C 0.35208 0.46672 0.7662 0.0
H3927 H 0.36105 0.58761 0.75585 0.0
H3928 H 0.34579 0.55498 0.7623 0.0
H3929 H 0.39135 0.57227 0.76268 0.0
H3930 H 0.42298 0.52364 0.7697 0.0
H3931 H 0.40129 0.51386 0.78178 0.0
H3932 H 0.17936 0.55739 0.47597 0.0
H3933 H 0.18817 0.57467 0.48825 0.0
H3934 H 0.2637 0.65823 0.4819 0.0
H3935 H 0.25564 0.64038 0.46956 0.0
H3936 H 0.29051 0.61302 0.49224 0.0
H3937 H 0.15386 0.66124 0.49984 0.0
H3938 H 0.15162 0.61815 0.49544 0.0
H3939 H 0.16806 0.6575 0.49077 0.0
C3940 C 0.19744 0.57982 0.47718 0.0
C3941 C 0.21632 0.59792 0.47179 0.0
C3942 C 0.20215 0.58993 0.48419 0.0
C3943 C 0.22591 0.61833 0.48598 0.0
C3944 C 0.2447 0.63671 0.48061 0.0
H3945 H 0.30087 0.63842 0.53014 0.0
H3946 H 0.28912 0.65873 0.51804 0.0
C3947 C 0.23983 0.62668 0.47356 0.0
C3948 C 0.23372 0.62567 0.49349 0.0
H3949 H 0.19124 0.63697 0.50931 0.0
C3950 C 0.2691 0.61931 0.49598 0.0
C3951 C 0.20575 0.63408 0.49834 0.0
C3952 C 0.16778 0.64352 0.49595 0.0
C3953 C 0.27654 0.61792 0.50322 0.0
C3954 C 0.24788 0.6235 0.50807 0.0
C3955 C 0.21311 0.63252 0.50558 0.0
C3956 C 0.25219 0.61463 0.51562 0.0
C3957 C 0.31432 0.60782 0.50564 0.0
C3958 C 0.2345 0.58384 0.5183 0.0
C3959 C 0.24094 0.57239 0.52518 0.0
C3960 C 0.26492 0.59172 0.52955 0.0
C3961 C 0.28169 0.62338 0.52695 0.0
C3962 C 0.27532 0.63479 0.52002 0.0
H3963 H 0.33243 0.60046 0.50118 0.0
H3964 H 0.32664 0.63118 0.50847 0.0
H3965 H 0.31313 0.58452 0.50935 0.0
H3966 H 0.2166 0.56788 0.51498 0.0
H3967 H 0.22759 0.54794 0.52704 0.0
loop_
_geom_bond_atom_site_label_1
_geom_bond_atom_site_label_2
_geom_bond_distance
_geom_bond_site_symmetry_2
_ccdc_geom_bond_type
Co0 O3 1.970 . S
Co0 N17 1.989 . S
Co0 O25 1.967 . S
Co0 O32 1.920 . S
Co1 O4 1.966 . S
Co1 N10 2.022 . S
Co1 N18 1.993 . S
Co1 O26 1.941 . S
C2 O3 1.258 . S
C2 O4 1.263 . S
O3 Co0 1.970 . S
O3 C2 1.258 . S
O4 Co1 1.966 . S
O4 C2 1.263 . S
C5 O6 1.235 . S
C5 O32 1.289 . S
O6 C5 1.235 . S
C7 C9 1.400 . S
C7 N10 1.351 . S
C7 C12 1.501 . S
C8 C9 1.387 . S
C8 N11 1.341 . S
C9 C7 1.400 . S
C9 C8 1.387 . S
N10 Co1 2.022 . S
N10 C7 1.351 . S
N10 N11 1.365 . S
N11 C8 1.341 . S
N11 N10 1.365 . S
N11 H31 0.862 . S
C12 C7 1.501 . S
C12 H13 0.961 . S
C12 H14 0.961 . S
C12 H15 0.960 . S
H13 C12 0.961 . S
H14 C12 0.961 . S
H15 C12 0.960 . S
C16 N17 1.342 . S
C16 C20 1.401 1_545 S
C16 C21 1.499 1_545 S
N17 Co0 1.989 . S
N17 C16 1.342 . S
N17 N18 1.388 . S
N18 Co1 1.993 . S
N18 N17 1.388 . S
N18 C19 1.341 1_545 S
C19 N18 1.341 1_565 S
C19 C20 1.399 . S
C19 C29 1.512 . S
C20 C16 1.401 1_565 S
C20 C19 1.399 . S
C21 C16 1.499 1_565 S
C21 H22 0.959 1_565 S
C21 H23 0.960 . S
C21 H24 0.961 . S
H22 C21 0.959 1_545 S
H23 C21 0.960 . S
H24 C21 0.961 . S
O25 Co0 1.967 . S
O25 C33 1.258 . S
O26 Co1 1.941 . S
O26 C33 1.266 . S
H27 C29 0.959 . S
H28 C29 0.961 . S
C29 C19 1.512 . S
C29 H27 0.959 . S
C29 H28 0.961 . S
C29 H30 0.960 1_565 S
H30 C29 0.960 1_545 S
H31 N11 0.862 . S
O32 Co0 1.920 . S
O32 C5 1.289 . S
C33 O25 1.258 . S
C33 O26 1.266 . S
Co34 O37 1.970 . S
Co34 N51 1.989 . S
Co34 O59 1.967 . S
Co34 O66 1.920 . S
Co35 O38 1.966 . S
Co35 N44 2.022 . S
Co35 N52 1.993 . S
Co35 O60 1.941 . S
C36 O37 1.258 . S
C36 O38 1.263 . S
O37 Co34 1.970 . S
O37 C36 1.258 . S
O38 Co35 1.966 . S
O38 C36 1.263 . S
C39 O40 1.235 . S
C39 O66 1.289 . S
O40 C39 1.235 . S
C41 C43 1.400 . S
C41 N44 1.351 . S
C41 C46 1.501 . S
C42 C43 1.387 . S
C42 N45 1.341 . S
C43 C41 1.400 . S
C43 C42 1.387 . S
N44 Co35 2.022 . S
N44 C41 1.351 . S
N44 N45 1.365 . S
N45 C42 1.341 . S
N45 N44 1.365 . S
N45 H65 0.862 . S
C46 C41 1.501 . S
C46 H47 0.961 . S
C46 H48 0.961 . S
C46 H49 0.960 . S
H47 C46 0.961 . S
H48 C46 0.961 . S
H49 C46 0.960 . S
C50 N51 1.342 . S
C50 C54 1.401 . S
C50 C55 1.499 . S
N51 Co34 1.989 . S
N51 C50 1.342 . S
N51 N52 1.388 . S
N52 Co35 1.993 . S
N52 N51 1.388 . S
N52 C53 1.346 . S
C53 N52 1.346 . S
C53 C54 1.396 . S
C53 C63 1.510 . S
C54 C50 1.401 . S
C54 C53 1.396 . S
C55 C50 1.499 . S
C55 H56 0.959 . S
C55 H57 0.960 . S
C55 H58 0.961 . S
H56 C55 0.959 . S
H57 C55 0.960 . S
H58 C55 0.961 . S
O59 Co34 1.967 . S
O59 C67 1.258 . S
O60 Co35 1.941 . S
O60 C67 1.266 . S
H61 C63 0.959 . S
H62 C63 0.961 . S
C63 C53 1.510 . S
C63 H61 0.959 . S
C63 H62 0.961 . S
C63 H64 0.960 . S
H64 C63 0.960 . S
H65 N45 0.862 . S
O66 Co34 1.920 . S
O66 C39 1.289 . S
C67 O59 1.258 . S
C67 O60 1.266 . S
Co68 O71 1.970 . S
Co68 N85 1.989 . S
Co68 O93 1.967 . S
Co68 O100 1.920 . S
Co69 O72 1.966 . S
Co69 N78 2.022 . S
Co69 N86 1.993 . S
Co69 O94 1.941 . S
C70 O71 1.258 . S
C70 O72 1.263 . S
O71 Co68 1.970 . S
O71 C70 1.258 . S
O72 Co69 1.966 . S
O72 C70 1.263 . S
C73 O74 1.235 . S
C73 O100 1.289 . S
O74 C73 1.235 . S
C75 C77 1.400 . S
C75 N78 1.351 . S
C75 C80 1.501 . S
C76 C77 1.387 . S
C76 N79 1.341 . S
C77 C75 1.400 . S
C77 C76 1.387 . S
N78 Co69 2.022 . S
N78 C75 1.351 . S
N78 N79 1.365 . S
N79 C76 1.341 . S
N79 N78 1.365 . S
N79 H99 0.862 . S
C80 C75 1.501 . S
C80 H81 0.961 . S
C80 H82 0.961 . S
C80 H83 0.960 . S
H81 C80 0.961 . S
H82 C80 0.961 . S
H83 C80 0.960 . S
C84 N85 1.342 . S
C84 C88 1.401 1_565 S
C84 C89 1.499 1_565 S
N85 Co68 1.989 . S
N85 C84 1.342 . S
N85 N86 1.388 . S
N86 Co69 1.993 . S
N86 N85 1.388 . S
N86 C87 1.341 1_565 S
C87 N86 1.341 1_545 S
C87 C88 1.398 . S
C87 C97 1.512 . S
C88 C84 1.401 1_545 S
C88 C87 1.398 . S
C89 C84 1.499 1_545 S
C89 H90 0.959 1_545 S
C89 H91 0.960 . S
C89 H92 0.961 . S
H90 C89 0.959 1_565 S
H91 C89 0.960 . S
H92 C89 0.961 . S
O93 Co68 1.967 . S
O93 C101 1.258 . S
O94 Co69 1.941 . S
O94 C101 1.266 . S
H95 C97 0.959 . S
H96 C97 0.961 . S
C97 C87 1.512 . S
C97 H95 0.959 . S
C97 H96 0.961 . S
C97 H98 0.960 1_545 S
H98 C97 0.960 1_565 S
H99 N79 0.862 . S
O100 Co68 1.920 . S
O100 C73 1.289 . S
C101 O93 1.258 . S
C101 O94 1.266 . S
Co102 O105 1.970 . S
Co102 N119 1.989 . S
Co102 O127 1.967 . S
Co102 O134 1.920 . S
Co103 O106 1.966 . S
Co103 N112 2.022 . S
Co103 N120 1.993 . S
Co103 O128 1.941 . S
C104 O105 1.258 . S
C104 O106 1.263 . S
O105 Co102 1.970 . S
O105 C104 1.258 . S
O106 Co103 1.966 . S
O106 C104 1.263 . S
C107 O108 1.235 . S
C107 O134 1.289 . S
O108 C107 1.235 . S
C109 C111 1.400 . S
C109 N112 1.351 . S
C109 C114 1.501 . S
C110 C111 1.387 . S
C110 N113 1.341 . S
C111 C109 1.400 . S
C111 C110 1.387 . S
N112 Co103 2.022 . S
N112 C109 1.351 . S
N112 N113 1.365 . S
N113 C110 1.341 . S
N113 N112 1.365 . S
N113 H133 0.862 . S
C114 C109 1.501 . S
C114 H115 0.961 . S
C114 H116 0.961 . S
C114 H117 0.960 . S
H115 C114 0.961 . S
H116 C114 0.961 . S
H117 C114 0.960 . S
C118 N119 1.342 . S
C118 C122 1.401 . S
C118 C123 1.499 . S
N119 Co102 1.989 . S
N119 C118 1.342 . S
N119 N120 1.388 . S
N120 Co103 1.993 . S
N120 N119 1.388 . S
N120 C121 1.346 . S
C121 N120 1.346 . S
C121 C122 1.396 . S
C121 C131 1.510 . S
C122 C118 1.401 . S
C122 C121 1.396 . S
C123 C118 1.499 . S
C123 H124 0.959 . S
C123 H125 0.960 . S
C123 H126 0.961 . S
H124 C123 0.959 . S
H125 C123 0.960 . S
H126 C123 0.961 . S
O127 Co102 1.967 . S
O127 C135 1.258 . S
O128 Co103 1.941 . S
O128 C135 1.266 . S
H129 C131 0.959 . S
H130 C131 0.961 . S
C131 C121 1.510 . S
C131 H129 0.959 . S
C131 H130 0.961 . S
C131 H132 0.960 . S
H132 C131 0.960 . S
H133 N113 0.862 . S
O134 Co102 1.920 . S
O134 C107 1.289 . S
C135 O127 1.258 . S
C135 O128 1.266 . S
Co136 O139 1.970 . S
Co136 N153 1.989 . S
Co136 O161 1.967 . S
Co136 O168 1.920 . S
Co137 O140 1.966 . S
Co137 N146 2.022 . S
Co137 N154 1.993 . S
Co137 O162 1.941 . S
C138 O139 1.258 . S
C138 O140 1.263 . S
O139 Co136 1.970 . S
O139 C138 1.258 . S
O140 Co137 1.966 . S
O140 C138 1.263 . S
C141 O142 1.235 . S
C141 O168 1.289 . S
O142 C141 1.235 . S
C143 C145 1.400 . S
C143 N146 1.351 . S
C143 C148 1.501 . S
C144 C145 1.387 . S
C144 N147 1.341 . S
C145 C143 1.400 . S
C145 C144 1.387 . S
N146 Co137 2.022 . S
N146 C143 1.351 . S
N146 N147 1.365 . S
N147 C144 1.341 . S
N147 N146 1.365 . S
N147 H167 0.862 . S
C148 C143 1.501 . S
C148 H149 0.961 . S
C148 H150 0.961 . S
C148 H151 0.960 . S
H149 C148 0.961 . S
H150 C148 0.961 . S
H151 C148 0.960 . S
C152 N153 1.342 . S
C152 C156 1.401 1_565 S
C152 C157 1.499 1_565 S
N153 Co136 1.989 . S
N153 C152 1.342 . S
N153 N154 1.388 . S
N154 Co137 1.993 . S
N154 N153 1.388 . S
N154 C155 1.341 1_565 S
C155 N154 1.341 1_545 S
C155 C156 1.399 . S
C155 C165 1.512 . S
C156 C152 1.401 1_545 S
C156 C155 1.399 . S
C157 C152 1.499 1_545 S
C157 H158 0.959 1_545 S
C157 H159 0.960 . S
C157 H160 0.961 . S
H158 C157 0.959 1_565 S
H159 C157 0.960 . S
H160 C157 0.961 . S
O161 Co136 1.967 . S
O161 C169 1.258 . S
O162 Co137 1.941 . S
O162 C169 1.266 . S
H163 C165 0.959 . S
H164 C165 0.961 . S
C165 C155 1.512 . S
C165 H163 0.959 . S
C165 H164 0.961 . S
C165 H166 0.960 1_545 S
H166 C165 0.960 1_565 S
H167 N147 0.862 . S
O168 Co136 1.920 . S
O168 C141 1.289 . S
C169 O161 1.258 . S
C169 O162 1.266 . S
Co170 O173 1.970 . S
Co170 N187 1.989 . S
Co170 O195 1.967 . S
Co170 O202 1.920 . S
Co171 O174 1.966 . S
Co171 N180 2.022 . S
Co171 N188 1.993 . S
Co171 O196 1.941 . S
C172 O173 1.258 . S
C172 O174 1.263 . S
O173 Co170 1.970 . S
O173 C172 1.258 . S
O174 Co171 1.966 . S
O174 C172 1.263 . S
C175 O176 1.235 . S
C175 O202 1.289 . S
O176 C175 1.235 . S
C177 C179 1.400 . S
C177 N180 1.351 . S
C177 C182 1.501 . S
C178 C179 1.387 . S
C178 N181 1.341 . S
C179 C177 1.400 . S
C179 C178 1.387 . S
N180 Co171 2.022 . S
N180 C177 1.351 . S
N180 N181 1.365 . S
N181 C178 1.341 . S
N181 N180 1.365 . S
N181 H201 0.862 . S
C182 C177 1.501 . S
C182 H183 0.961 . S
C182 H184 0.961 . S
C182 H185 0.960 . S
H183 C182 0.961 . S
H184 C182 0.961 . S
H185 C182 0.960 . S
C186 N187 1.342 . S
C186 C190 1.401 . S
C186 C191 1.499 . S
N187 Co170 1.989 . S
N187 C186 1.342 . S
N187 N188 1.388 . S
N188 Co171 1.993 . S
N188 N187 1.388 . S
N188 C189 1.346 . S
C189 N188 1.346 . S
C189 C190 1.396 . S
C189 C199 1.510 . S
C190 C186 1.401 . S
C190 C189 1.396 . S
C191 C186 1.499 . S
C191 H192 0.959 . S
C191 H193 0.960 . S
C191 H194 0.961 . S
H192 C191 0.959 . S
H193 C191 0.960 . S
H194 C191 0.961 . S
O195 Co170 1.967 . S
O195 C203 1.258 . S
O196 Co171 1.941 . S
O196 C203 1.266 . S
H197 C199 0.959 . S
H198 C199 0.961 . S
C199 C189 1.510 . S
C199 H197 0.959 . S
C199 H198 0.961 . S
C199 H200 0.960 . S
H200 C199 0.960 . S
H201 N181 0.862 . S
O202 Co170 1.920 . S
O202 C175 1.289 . S
C203 O195 1.258 . S
C203 O196 1.266 . S
Co204 O207 1.970 . S
Co204 N221 1.989 . S
Co204 O229 1.967 . S
Co204 O236 1.920 . S
Co205 O208 1.966 . S
Co205 N214 2.022 . S
Co205 N222 1.993 . S
Co205 O230 1.941 . S
C206 O207 1.258 . S
C206 O208 1.263 . S
O207 Co204 1.970 . S
O207 C206 1.258 . S
O208 Co205 1.966 . S
O208 C206 1.263 . S
C209 O210 1.235 . S
C209 O236 1.289 . S
O210 C209 1.235 . S
C211 C213 1.400 . S
C211 N214 1.351 . S
C211 C216 1.501 . S
C212 C213 1.387 . S
C212 N215 1.341 . S
C213 C211 1.400 . S
C213 C212 1.387 . S
N214 Co205 2.022 . S
N214 C211 1.351 . S
N214 N215 1.365 . S
N215 C212 1.341 . S
N215 N214 1.365 . S
N215 H235 0.862 . S
C216 C211 1.501 . S
C216 H217 0.961 . S
C216 H218 0.961 . S
C216 H219 0.960 . S
H217 C216 0.961 . S
H218 C216 0.961 . S
H219 C216 0.960 . S
C220 N221 1.342 . S
C220 C224 1.401 1_545 S
C220 C225 1.499 1_545 S
N221 Co204 1.989 . S
N221 C220 1.342 . S
N221 N222 1.388 . S
N222 Co205 1.993 . S
N222 N221 1.388 . S
N222 C223 1.341 1_545 S
C223 N222 1.341 1_565 S
C223 C224 1.398 . S
C223 C233 1.512 . S
C224 C220 1.401 1_565 S
C224 C223 1.398 . S
C225 C220 1.499 1_565 S
C225 H226 0.959 1_565 S
C225 H227 0.960 . S
C225 H228 0.961 . S
H226 C225 0.959 1_545 S
H227 C225 0.960 . S
H228 C225 0.961 . S
O229 Co204 1.967 . S
O229 C237 1.258 . S
O230 Co205 1.941 . S
O230 C237 1.266 . S
H231 C233 0.959 . S
H232 C233 0.961 . S
C233 C223 1.512 . S
C233 H231 0.959 . S
C233 H232 0.961 . S
C233 H234 0.960 1_565 S
H234 C233 0.960 1_545 S
H235 N215 0.862 . S
O236 Co204 1.920 . S
O236 C209 1.289 . S
C237 O229 1.258 . S
C237 O230 1.266 . S
Co238 O241 1.970 . S
Co238 N255 1.989 . S
Co238 O263 1.967 . S
Co238 O270 1.920 . S
Co239 O242 1.966 . S
Co239 N248 2.022 . S
Co239 N256 1.993 . S
Co239 O264 1.941 . S
C240 O241 1.258 . S
C240 O242 1.263 . S
O241 Co238 1.970 . S
O241 C240 1.258 . S
O242 Co239 1.966 . S
O242 C240 1.263 . S
C243 O244 1.235 . S
C243 O270 1.289 . S
O244 C243 1.235 . S
C245 C247 1.400 . S
C245 N248 1.351 . S
C245 C250 1.501 . S
C246 C247 1.387 . S
C246 N249 1.341 . S
C247 C245 1.400 . S
C247 C246 1.387 . S
N248 Co239 2.022 . S
N248 C245 1.351 . S
N248 N249 1.365 . S
N249 C246 1.341 . S
N249 N248 1.365 . S
N249 H269 0.862 . S
C250 C245 1.501 . S
C250 H251 0.961 . S
C250 H252 0.961 . S
C250 H253 0.960 . S
H251 C250 0.961 . S
H252 C250 0.961 . S
H253 C250 0.960 . S
C254 N255 1.342 . S
C254 C258 1.401 . S
C254 C259 1.499 . S
N255 Co238 1.989 . S
N255 C254 1.342 . S
N255 N256 1.388 . S
N256 Co239 1.993 . S
N256 N255 1.388 . S
N256 C257 1.346 . S
C257 N256 1.346 . S
C257 C258 1.396 . S
C257 C267 1.510 . S
C258 C254 1.401 . S
C258 C257 1.396 . S
C259 C254 1.499 . S
C259 H260 0.959 . S
C259 H261 0.960 . S
C259 H262 0.961 . S
H260 C259 0.959 . S
H261 C259 0.960 . S
H262 C259 0.961 . S
O263 Co238 1.967 . S
O263 C271 1.258 . S
O264 Co239 1.941 . S
O264 C271 1.266 . S
H265 C267 0.959 . S
H266 C267 0.961 . S
C267 C257 1.510 . S
C267 H265 0.959 . S
C267 H266 0.961 . S
C267 H268 0.960 . S
H268 C267 0.960 . S
H269 N249 0.862 . S
O270 Co238 1.920 . S
O270 C243 1.289 . S
C271 O263 1.258 . S
C271 O264 1.266 . S
Co272 O275 1.970 . S
Co272 N289 1.989 . S
Co272 O297 1.967 . S
Co272 O304 1.920 . S
Co273 O276 1.966 . S
Co273 N282 2.022 . S
Co273 N290 1.993 . S
Co273 O298 1.941 . S
C274 O275 1.258 . S
C274 O276 1.263 . S
O275 Co272 1.970 . S
O275 C274 1.258 . S
O276 Co273 1.966 . S
O276 C274 1.263 . S
C277 O278 1.235 . S
C277 O304 1.289 . S
O278 C277 1.235 . S
C279 C281 1.400 . S
C279 N282 1.351 . S
C279 C284 1.501 . S
C280 C281 1.387 . S
C280 N283 1.341 . S
C281 C279 1.400 . S
C281 C280 1.387 . S
N282 Co273 2.022 . S
N282 C279 1.351 . S
N282 N283 1.365 . S
N283 C280 1.341 . S
N283 N282 1.365 . S
N283 H303 0.862 . S
C284 C279 1.501 . S
C284 H285 0.961 . S
C284 H286 0.961 . S
C284 H287 0.960 . S
H285 C284 0.961 . S
H286 C284 0.961 . S
H287 C284 0.960 . S
C288 N289 1.342 . S
C288 C292 1.401 1_565 S
C288 C293 1.499 1_565 S
N289 Co272 1.989 . S
N289 C288 1.342 . S
N289 N290 1.388 . S
N290 Co273 1.993 . S
N290 N289 1.388 . S
N290 C291 1.341 1_565 S
C291 N290 1.341 1_545 S
C291 C292 1.399 . S
C291 C301 1.512 . S
C292 C288 1.401 1_545 S
C292 C291 1.399 . S
C293 C288 1.499 1_545 S
C293 H294 0.959 1_545 S
C293 H295 0.960 . S
C293 H296 0.961 . S
H294 C293 0.959 1_565 S
H295 C293 0.960 . S
H296 C293 0.961 . S
O297 Co272 1.967 . S
O297 C305 1.258 . S
O298 Co273 1.941 . S
O298 C305 1.266 . S
H299 C301 0.959 . S
H300 C301 0.961 . S
C301 C291 1.512 . S
C301 H299 0.959 . S
C301 H300 0.961 . S
C301 H302 0.960 1_545 S
H302 C301 0.960 1_565 S
H303 N283 0.862 . S
O304 Co272 1.920 . S
O304 C277 1.289 . S
C305 O297 1.258 . S
C305 O298 1.266 . S
Co306 O309 1.970 . S
Co306 N323 1.989 . S
Co306 O331 1.967 . S
Co306 O338 1.920 . S
Co307 O310 1.966 . S
Co307 N316 2.022 . S
Co307 N324 1.993 . S
Co307 O332 1.941 . S
C308 O309 1.258 . S
C308 O310 1.263 . S
O309 Co306 1.970 . S
O309 C308 1.258 . S
O310 Co307 1.966 . S
O310 C308 1.263 . S
C311 O312 1.235 . S
C311 O338 1.289 . S
O312 C311 1.235 . S
C313 C315 1.400 . S
C313 N316 1.351 . S
C313 C318 1.501 . S
C314 C315 1.387 . S
C314 N317 1.341 . S
C315 C313 1.400 . S
C315 C314 1.387 . S
N316 Co307 2.022 . S
N316 C313 1.351 . S
N316 N317 1.365 . S
N317 C314 1.341 . S
N317 N316 1.365 . S
N317 H337 0.862 . S
C318 C313 1.501 . S
C318 H319 0.961 . S
C318 H320 0.961 . S
C318 H321 0.960 . S
H319 C318 0.961 . S
H320 C318 0.961 . S
H321 C318 0.960 . S
C322 N323 1.342 . S
C322 C326 1.401 . S
C322 C327 1.499 . S
N323 Co306 1.989 . S
N323 C322 1.342 . S
N323 N324 1.388 . S
N324 Co307 1.993 . S
N324 N323 1.388 . S
N324 C325 1.346 . S
C325 N324 1.346 . S
C325 C326 1.396 . S
C325 C335 1.510 . S
C326 C322 1.401 . S
C326 C325 1.396 . S
C327 C322 1.499 . S
C327 H328 0.959 . S
C327 H329 0.960 . S
C327 H330 0.961 . S
H328 C327 0.959 . S
H329 C327 0.960 . S
H330 C327 0.961 . S
O331 Co306 1.967 . S
O331 C339 1.258 . S
O332 Co307 1.941 . S
O332 C339 1.266 . S
H333 C335 0.959 . S
H334 C335 0.961 . S
C335 C325 1.510 . S
C335 H333 0.959 . S
C335 H334 0.961 . S
C335 H336 0.960 . S
H336 C335 0.960 . S
H337 N317 0.862 . S
O338 Co306 1.920 . S
O338 C311 1.289 . S
C339 O331 1.258 . S
C339 O332 1.266 . S
Co340 O343 1.970 . S
Co340 N357 1.989 . S
Co340 O365 1.967 . S
Co340 O372 1.920 . S
Co341 O344 1.966 . S
Co341 N350 2.022 . S
Co341 N358 1.993 . S
Co341 O366 1.941 . S
C342 O343 1.258 . S
C342 O344 1.263 . S
O343 Co340 1.970 . S
O343 C342 1.258 . S
O344 Co341 1.966 . S
O344 C342 1.263 . S
C345 O346 1.235 . S
C345 O372 1.289 . S
O346 C345 1.235 . S
C347 C349 1.400 . S
C347 N350 1.351 . S
C347 C352 1.501 . S
C348 C349 1.387 . S
C348 N351 1.341 . S
C349 C347 1.400 . S
C349 C348 1.387 . S
N350 Co341 2.022 . S
N350 C347 1.351 . S
N350 N351 1.365 . S
N351 C348 1.341 . S
N351 N350 1.365 . S
N351 H371 0.862 . S
C352 C347 1.501 . S
C352 H353 0.961 . S
C352 H354 0.961 . S
C352 H355 0.960 . S
H353 C352 0.961 . S
H354 C352 0.961 . S
H355 C352 0.960 . S
C356 N357 1.342 . S
C356 C360 1.401 1_545 S
C356 C361 1.499 1_545 S
N357 Co340 1.989 . S
N357 C356 1.342 . S
N357 N358 1.388 . S
N358 Co341 1.993 . S
N358 N357 1.388 . S
N358 C359 1.341 1_545 S
C359 N358 1.341 1_565 S
C359 C360 1.398 . S
C359 C369 1.512 . S
C360 C356 1.401 1_565 S
C360 C359 1.398 . S
C361 C356 1.499 1_565 S
C361 H362 0.959 1_565 S
C361 H363 0.960 . S
C361 H364 0.961 . S
H362 C361 0.959 1_545 S
H363 C361 0.960 . S
H364 C361 0.961 . S
O365 Co340 1.967 . S
O365 C373 1.258 . S
O366 Co341 1.941 . S
O366 C373 1.266 . S
H367 C369 0.959 . S
H368 C369 0.961 . S
C369 C359 1.512 . S
C369 H367 0.959 . S
C369 H368 0.961 . S
C369 H370 0.960 1_565 S
H370 C369 0.960 1_545 S
H371 N351 0.862 . S
O372 Co340 1.920 . S
O372 C345 1.289 . S
C373 O365 1.258 . S
C373 O366 1.266 . S
Co374 O377 1.970 . S
Co374 N391 1.989 . S
Co374 O399 1.967 . S
Co374 O406 1.920 . S
Co375 O378 1.966 . S
Co375 N384 2.022 . S
Co375 N392 1.993 . S
Co375 O400 1.941 . S
C376 O377 1.258 . S
C376 O378 1.263 . S
O377 Co374 1.970 . S
O377 C376 1.258 . S
O378 Co375 1.966 . S
O378 C376 1.263 . S
C379 O380 1.235 . S
C379 O406 1.289 . S
O380 C379 1.235 . S
C381 C383 1.400 . S
C381 N384 1.351 . S
C381 C386 1.501 . S
C382 C383 1.387 . S
C382 N385 1.341 . S
C383 C381 1.400 . S
C383 C382 1.387 . S
N384 Co375 2.022 . S
N384 C381 1.351 . S
N384 N385 1.365 . S
N385 C382 1.341 . S
N385 N384 1.365 . S
N385 H405 0.862 . S
C386 C381 1.501 . S
C386 H387 0.961 . S
C386 H388 0.961 . S
C386 H389 0.960 . S
H387 C386 0.961 . S
H388 C386 0.961 . S
H389 C386 0.960 . S
C390 N391 1.342 . S
C390 C394 1.401 . S
C390 C395 1.499 . S
N391 Co374 1.989 . S
N391 C390 1.342 . S
N391 N392 1.388 . S
N392 Co375 1.993 . S
N392 N391 1.388 . S
N392 C393 1.346 . S
C393 N392 1.346 . S
C393 C394 1.396 . S
C393 C403 1.510 . S
C394 C390 1.401 . S
C394 C393 1.396 . S
C395 C390 1.499 . S
C395 H396 0.959 . S
C395 H397 0.960 . S
C395 H398 0.961 . S
H396 C395 0.959 . S
H397 C395 0.960 . S
H398 C395 0.961 . S
O399 Co374 1.967 . S
O399 C407 1.258 . S
O400 Co375 1.941 . S
O400 C407 1.266 . S
H401 C403 0.959 . S
H402 C403 0.961 . S
C403 C393 1.510 . S
C403 H401 0.959 . S
C403 H402 0.961 . S
C403 H404 0.960 . S
H404 C403 0.960 . S
H405 N385 0.862 . S
O406 Co374 1.920 . S
O406 C379 1.289 . S
C407 O399 1.258 . S
C407 O400 1.266 . S
Co408 O411 1.970 . S
Co408 N425 1.989 . S
Co408 O433 1.967 . S
Co408 O440 1.920 . S
Co409 O412 1.966 . S
Co409 N418 2.022 . S
Co409 N426 1.993 . S
Co409 O434 1.941 . S
C410 O411 1.258 . S
C410 O412 1.263 . S
O411 Co408 1.970 . S
O411 C410 1.258 . S
O412 Co409 1.966 . S
O412 C410 1.263 . S
C413 O414 1.235 . S
C413 O440 1.289 . S
O414 C413 1.235 . S
C415 C417 1.400 . S
C415 N418 1.351 . S
C415 C420 1.501 . S
C416 C417 1.387 . S
C416 N419 1.341 . S
C417 C415 1.400 . S
C417 C416 1.387 . S
N418 Co409 2.022 . S
N418 C415 1.351 . S
N418 N419 1.365 . S
N419 C416 1.341 . S
N419 N418 1.365 . S
N419 H439 0.862 . S
C420 C415 1.501 . S
C420 H421 0.961 . S
C420 H422 0.961 . S
C420 H423 0.960 . S
H421 C420 0.961 . S
H422 C420 0.961 . S
H423 C420 0.960 . S
C424 N425 1.342 . S
C424 C428 1.401 1_545 S
C424 C429 1.499 1_545 S
N425 Co408 1.989 . S
N425 C424 1.342 . S
N425 N426 1.388 . S
N426 Co409 1.993 . S
N426 N425 1.388 . S
N426 C427 1.341 1_545 S
C427 N426 1.341 1_565 S
C427 C428 1.399 . S
C427 C437 1.512 . S
C428 C424 1.401 1_565 S
C428 C427 1.399 . S
C429 C424 1.499 1_565 S
C429 H430 0.959 1_565 S
C429 H431 0.960 . S
C429 H432 0.961 . S
H430 C429 0.959 1_545 S
H431 C429 0.960 . S
H432 C429 0.961 . S
O433 Co408 1.967 . S
O433 C441 1.258 . S
O434 Co409 1.941 . S
O434 C441 1.266 . S
H435 C437 0.959 . S
H436 C437 0.961 . S
C437 C427 1.512 . S
C437 H435 0.959 . S
C437 H436 0.961 . S
C437 H438 0.960 1_565 S
H438 C437 0.960 1_545 S
H439 N419 0.862 . S
O440 Co408 1.920 . S
O440 C413 1.289 . S
C441 O433 1.258 . S
C441 O434 1.266 . S
Co442 O445 1.970 . S
Co442 N459 1.989 . S
Co442 O467 1.967 . S
Co442 O474 1.920 . S
Co443 O446 1.966 . S
Co443 N452 2.022 . S
Co443 N460 1.993 . S
Co443 O468 1.941 . S
C444 O445 1.258 . S
C444 O446 1.263 . S
O445 Co442 1.970 . S
O445 C444 1.258 . S
O446 Co443 1.966 . S
O446 C444 1.263 . S
C447 O448 1.235 . S
C447 O474 1.289 . S
O448 C447 1.235 . S
C449 C451 1.400 . S
C449 N452 1.351 . S
C449 C454 1.501 . S
C450 C451 1.387 . S
C450 N453 1.341 . S
C451 C449 1.400 . S
C451 C450 1.387 . S
N452 Co443 2.022 . S
N452 C449 1.351 . S
N452 N453 1.365 . S
N453 C450 1.341 . S
N453 N452 1.365 . S
N453 H473 0.862 . S
C454 C449 1.501 . S
C454 H455 0.961 . S
C454 H456 0.961 . S
C454 H457 0.960 . S
H455 C454 0.961 . S
H456 C454 0.961 . S
H457 C454 0.960 . S
C458 N459 1.342 . S
C458 C462 1.401 . S
C458 C463 1.499 . S
N459 Co442 1.989 . S
N459 C458 1.342 . S
N459 N460 1.388 . S
N460 Co443 1.993 . S
N460 N459 1.388 . S
N460 C461 1.346 . S
C461 N460 1.346 . S
C461 C462 1.396 . S
C461 C471 1.510 . S
C462 C458 1.401 . S
C462 C461 1.396 . S
C463 C458 1.499 . S
C463 H464 0.959 . S
C463 H465 0.960 . S
C463 H466 0.961 . S
H464 C463 0.959 . S
H465 C463 0.960 . S
H466 C463 0.961 . S
O467 Co442 1.967 . S
O467 C475 1.258 . S
O468 Co443 1.941 . S
O468 C475 1.266 . S
H469 C471 0.959 . S
H470 C471 0.961 . S
C471 C461 1.510 . S
C471 H469 0.959 . S
C471 H470 0.961 . S
C471 H472 0.960 . S
H472 C471 0.960 . S
H473 N453 0.862 . S
O474 Co442 1.920 . S
O474 C447 1.289 . S
C475 O467 1.258 . S
C475 O468 1.266 . S
Co476 O479 1.970 . S
Co476 N493 1.989 . S
Co476 O501 1.967 . S
Co476 O508 1.920 . S
Co477 O480 1.966 . S
Co477 N486 2.022 . S
Co477 N494 1.993 . S
Co477 O502 1.941 . S
C478 O479 1.258 . S
C478 O480 1.263 . S
O479 Co476 1.970 . S
O479 C478 1.258 . S
O480 Co477 1.966 . S
O480 C478 1.263 . S
C481 O482 1.235 . S
C481 O508 1.289 . S
O482 C481 1.235 . S
C483 C485 1.400 . S
C483 N486 1.351 . S
C483 C488 1.501 . S
C484 C485 1.387 . S
C484 N487 1.341 . S
C485 C483 1.400 . S
C485 C484 1.387 . S
N486 Co477 2.022 . S
N486 C483 1.351 . S
N486 N487 1.365 . S
N487 C484 1.341 . S
N487 N486 1.365 . S
N487 H507 0.862 . S
C488 C483 1.501 . S
C488 H489 0.961 . S
C488 H490 0.961 . S
C488 H491 0.960 . S
H489 C488 0.961 . S
H490 C488 0.961 . S
H491 C488 0.960 . S
C492 N493 1.342 . S
C492 C496 1.401 1_565 S
C492 C497 1.499 1_565 S
N493 Co476 1.989 . S
N493 C492 1.342 . S
N493 N494 1.388 . S
N494 Co477 1.993 . S
N494 N493 1.388 . S
N494 C495 1.341 1_565 S
C495 N494 1.341 1_545 S
C495 C496 1.398 . S
C495 C505 1.512 . S
C496 C492 1.401 1_545 S
C496 C495 1.398 . S
C497 C492 1.499 1_545 S
C497 H498 0.959 1_545 S
C497 H499 0.960 . S
C497 H500 0.961 . S
H498 C497 0.959 1_565 S
H499 C497 0.960 . S
H500 C497 0.961 . S
O501 Co476 1.967 . S
O501 C509 1.258 . S
O502 Co477 1.941 . S
O502 C509 1.266 . S
H503 C505 0.959 . S
H504 C505 0.961 . S
C505 C495 1.512 . S
C505 H503 0.959 . S
C505 H504 0.961 . S
C505 H506 0.960 1_545 S
H506 C505 0.960 1_565 S
H507 N487 0.862 . S
O508 Co476 1.920 . S
O508 C481 1.289 . S
C509 O501 1.258 . S
C509 O502 1.266 . S
Co510 O513 1.970 . S
Co510 N527 1.989 . S
Co510 O535 1.967 . S
Co510 O542 1.920 . S
Co511 O514 1.966 . S
Co511 N520 2.022 . S
Co511 N528 1.993 . S
Co511 O536 1.941 . S
C512 O513 1.258 . S
C512 O514 1.263 . S
O513 Co510 1.970 . S
O513 C512 1.258 . S
O514 Co511 1.966 . S
O514 C512 1.263 . S
C515 O516 1.235 . S
C515 O542 1.289 . S
O516 C515 1.235 . S
C517 C519 1.400 . S
C517 N520 1.351 . S
C517 C522 1.501 . S
C518 C519 1.387 . S
C518 N521 1.341 . S
C519 C517 1.400 . S
C519 C518 1.387 . S
N520 Co511 2.022 . S
N520 C517 1.351 . S
N520 N521 1.365 . S
N521 C518 1.341 . S
N521 N520 1.365 . S
N521 H541 0.862 . S
C522 C517 1.501 . S
C522 H523 0.961 . S
C522 H524 0.961 . S
C522 H525 0.960 . S
H523 C522 0.961 . S
H524 C522 0.961 . S
H525 C522 0.960 . S
C526 N527 1.342 . S
C526 C530 1.401 . S
C526 C531 1.499 . S
N527 Co510 1.989 . S
N527 C526 1.342 . S
N527 N528 1.388 . S
N528 Co511 1.993 . S
N528 N527 1.388 . S
N528 C529 1.346 . S
C529 N528 1.346 . S
C529 C530 1.396 . S
C529 C539 1.510 . S
C530 C526 1.401 . S
C530 C529 1.396 . S
C531 C526 1.499 . S
C531 H532 0.959 . S
C531 H533 0.960 . S
C531 H534 0.961 . S
H532 C531 0.959 . S
H533 C531 0.960 . S
H534 C531 0.961 . S
O535 Co510 1.967 . S
O535 C543 1.258 . S
O536 Co511 1.941 . S
O536 C543 1.266 . S
H537 C539 0.959 . S
H538 C539 0.961 . S
C539 C529 1.510 . S
C539 H537 0.959 . S
C539 H538 0.961 . S
C539 H540 0.960 . S
H540 C539 0.960 . S
H541 N521 0.862 . S
O542 Co510 1.920 . S
O542 C515 1.289 . S
C543 O535 1.258 . S
C543 O536 1.266 . S
Co544 O547 1.970 . S
Co544 N561 1.989 . S
Co544 O569 1.967 . S
Co544 O576 1.920 . S
Co545 O548 1.966 . S
Co545 N554 2.022 . S
Co545 N562 1.993 . S
Co545 O570 1.941 . S
C546 O547 1.258 . S
C546 O548 1.263 . S
O547 Co544 1.970 . S
O547 C546 1.258 . S
O548 Co545 1.966 . S
O548 C546 1.263 . S
C549 O550 1.235 . S
C549 O576 1.289 . S
O550 C549 1.235 . S
C551 C553 1.400 . S
C551 N554 1.351 . S
C551 C556 1.501 . S
C552 C553 1.387 . S
C552 N555 1.341 . S
C553 C551 1.400 . S
C553 C552 1.387 . S
N554 Co545 2.022 . S
N554 C551 1.351 . S
N554 N555 1.365 . S
N555 C552 1.341 . S
N555 N554 1.365 . S
N555 H575 0.862 . S
C556 C551 1.501 . S
C556 H557 0.961 . S
C556 H558 0.961 . S
C556 H559 0.960 . S
H557 C556 0.961 . S
H558 C556 0.961 . S
H559 C556 0.960 . S
C560 N561 1.342 . S
C560 C564 1.401 . S
C560 C565 1.499 . S
N561 Co544 1.989 . S
N561 C560 1.342 . S
N561 N562 1.388 . S
N562 Co545 1.993 . S
N562 N561 1.388 . S
N562 C563 1.346 . S
C563 N562 1.346 . S
C563 C564 1.396 . S
C563 C573 1.510 . S
C564 C560 1.401 . S
C564 C563 1.396 . S
C565 C560 1.499 . S
C565 H566 0.959 . S
C565 H567 0.960 . S
C565 H568 0.961 . S
H566 C565 0.959 . S
H567 C565 0.960 . S
H568 C565 0.961 . S
O569 Co544 1.967 . S
O569 C577 1.258 . S
O570 Co545 1.941 . S
O570 C577 1.266 . S
H571 C573 0.959 . S
H572 C573 0.961 . S
C573 C563 1.510 . S
C573 H571 0.959 . S
C573 H572 0.961 . S
C573 H574 0.960 . S
H574 C573 0.960 . S
H575 N555 0.862 . S
O576 Co544 1.920 . S
O576 C549 1.289 . S
C577 O569 1.258 . S
C577 O570 1.266 . S
Co578 O581 1.970 . S
Co578 N595 1.989 . S
Co578 O603 1.967 . S
Co578 O610 1.920 . S
Co579 O582 1.966 . S
Co579 N588 2.022 . S
Co579 N596 1.993 . S
Co579 O604 1.941 . S
C580 O581 1.258 . S
C580 O582 1.263 . S
O581 Co578 1.970 . S
O581 C580 1.258 . S
O582 Co579 1.966 . S
O582 C580 1.263 . S
C583 O584 1.235 . S
C583 O610 1.289 . S
O584 C583 1.235 . S
C585 C587 1.400 . S
C585 N588 1.351 . S
C585 C590 1.501 . S
C586 C587 1.387 . S
C586 N589 1.341 . S
C587 C585 1.400 . S
C587 C586 1.387 . S
N588 Co579 2.022 . S
N588 C585 1.351 . S
N588 N589 1.365 . S
N589 C586 1.341 . S
N589 N588 1.365 . S
N589 H609 0.862 . S
C590 C585 1.501 . S
C590 H591 0.961 . S
C590 H592 0.961 . S
C590 H593 0.960 . S
H591 C590 0.961 . S
H592 C590 0.961 . S
H593 C590 0.960 . S
C594 N595 1.342 . S
C594 C598 1.401 . S
C594 C599 1.499 . S
N595 Co578 1.989 . S
N595 C594 1.342 . S
N595 N596 1.388 . S
N596 Co579 1.993 . S
N596 N595 1.388 . S
N596 C597 1.346 . S
C597 N596 1.346 . S
C597 C598 1.396 . S
C597 C607 1.510 . S
C598 C594 1.401 . S
C598 C597 1.396 . S
C599 C594 1.499 . S
C599 H600 0.959 . S
C599 H601 0.960 . S
C599 H602 0.961 . S
H600 C599 0.959 . S
H601 C599 0.960 . S
H602 C599 0.961 . S
O603 Co578 1.967 . S
O603 C611 1.258 . S
O604 Co579 1.941 . S
O604 C611 1.266 . S
H605 C607 0.959 . S
H606 C607 0.961 . S
C607 C597 1.510 . S
C607 H605 0.959 . S
C607 H606 0.961 . S
C607 H608 0.960 . S
H608 C607 0.960 . S
H609 N589 0.862 . S
O610 Co578 1.920 . S
O610 C583 1.289 . S
C611 O603 1.258 . S
C611 O604 1.266 . S
Co612 O615 1.970 . S
Co612 N629 1.989 . S
Co612 O637 1.967 . S
Co612 O644 1.920 . S
Co613 O616 1.966 . S
Co613 N622 2.022 . S
Co613 N630 1.993 . S
Co613 O638 1.941 . S
C614 O615 1.258 . S
C614 O616 1.263 . S
O615 Co612 1.970 . S
O615 C614 1.258 . S
O616 Co613 1.966 . S
O616 C614 1.263 . S
C617 O618 1.235 . S
C617 O644 1.289 . S
O618 C617 1.235 . S
C619 C621 1.400 . S
C619 N622 1.351 . S
C619 C624 1.501 . S
C620 C621 1.387 . S
C620 N623 1.341 . S
C621 C619 1.400 . S
C621 C620 1.387 . S
N622 Co613 2.022 . S
N622 C619 1.351 . S
N622 N623 1.365 . S
N623 C620 1.341 . S
N623 N622 1.365 . S
N623 H643 0.862 . S
C624 C619 1.501 . S
C624 H625 0.961 . S
C624 H626 0.961 . S
C624 H627 0.960 . S
H625 C624 0.961 . S
H626 C624 0.961 . S
H627 C624 0.960 . S
C628 N629 1.342 . S
C628 C632 1.401 . S
C628 C633 1.499 . S
N629 Co612 1.989 . S
N629 C628 1.342 . S
N629 N630 1.388 . S
N630 Co613 1.993 . S
N630 N629 1.388 . S
N630 C631 1.346 . S
C631 N630 1.346 . S
C631 C632 1.396 . S
C631 C641 1.510 . S
C632 C628 1.401 . S
C632 C631 1.396 . S
C633 C628 1.499 . S
C633 H634 0.959 . S
C633 H635 0.960 . S
C633 H636 0.961 . S
H634 C633 0.959 . S
H635 C633 0.960 . S
H636 C633 0.961 . S
O637 Co612 1.967 . S
O637 C645 1.258 . S
O638 Co613 1.941 . S
O638 C645 1.266 . S
H639 C641 0.959 . S
H640 C641 0.961 . S
C641 C631 1.510 . S
C641 H639 0.959 . S
C641 H640 0.961 . S
C641 H642 0.960 . S
H642 C641 0.960 . S
H643 N623 0.862 . S
O644 Co612 1.920 . S
O644 C617 1.289 . S
C645 O637 1.258 . S
C645 O638 1.266 . S
Co646 O649 1.970 . S
Co646 N663 1.989 . S
Co646 O671 1.967 . S
Co646 O678 1.920 . S
Co647 O650 1.966 . S
Co647 N656 2.022 . S
Co647 N664 1.993 . S
Co647 O672 1.941 . S
C648 O649 1.258 . S
C648 O650 1.263 . S
O649 Co646 1.970 . S
O649 C648 1.258 . S
O650 Co647 1.966 . S
O650 C648 1.263 . S
C651 O652 1.235 . S
C651 O678 1.289 . S
O652 C651 1.235 . S
C653 C655 1.400 . S
C653 N656 1.351 . S
C653 C658 1.501 . S
C654 C655 1.387 . S
C654 N657 1.341 . S
C655 C653 1.400 . S
C655 C654 1.387 . S
N656 Co647 2.022 . S
N656 C653 1.351 . S
N656 N657 1.365 . S
N657 C654 1.341 . S
N657 N656 1.365 . S
N657 H677 0.862 . S
C658 C653 1.501 . S
C658 H659 0.961 . S
C658 H660 0.961 . S
C658 H661 0.960 . S
H659 C658 0.961 . S
H660 C658 0.961 . S
H661 C658 0.960 . S
C662 N663 1.342 . S
C662 C666 1.401 . S
C662 C667 1.499 . S
N663 Co646 1.989 . S
N663 C662 1.342 . S
N663 N664 1.388 . S
N664 Co647 1.993 . S
N664 N663 1.388 . S
N664 C665 1.346 . S
C665 N664 1.346 . S
C665 C666 1.396 . S
C665 C675 1.510 . S
C666 C662 1.401 . S
C666 C665 1.396 . S
C667 C662 1.499 . S
C667 H668 0.959 . S
C667 H669 0.960 . S
C667 H670 0.961 . S
H668 C667 0.959 . S
H669 C667 0.960 . S
H670 C667 0.961 . S
O671 Co646 1.967 . S
O671 C679 1.258 . S
O672 Co647 1.941 . S
O672 C679 1.266 . S
H673 C675 0.959 . S
H674 C675 0.961 . S
C675 C665 1.510 . S
C675 H673 0.959 . S
C675 H674 0.961 . S
C675 H676 0.960 . S
H676 C675 0.960 . S
H677 N657 0.862 . S
O678 Co646 1.920 . S
O678 C651 1.289 . S
C679 O671 1.258 . S
C679 O672 1.266 . S
Co680 O683 1.970 . S
Co680 N697 1.989 . S
Co680 O705 1.967 . S
Co680 O712 1.920 . S
Co681 O684 1.966 . S
Co681 N690 2.022 . S
Co681 N698 1.993 . S
Co681 O706 1.941 . S
C682 O683 1.258 . S
C682 O684 1.263 . S
O683 Co680 1.970 . S
O683 C682 1.258 . S
O684 Co681 1.966 . S
O684 C682 1.263 . S
C685 O686 1.235 . S
C685 O712 1.289 . S
O686 C685 1.235 . S
C687 C689 1.400 . S
C687 N690 1.351 . S
C687 C692 1.501 . S
C688 C689 1.387 . S
C688 N691 1.341 . S
C689 C687 1.400 . S
C689 C688 1.387 . S
N690 Co681 2.022 . S
N690 C687 1.351 . S
N690 N691 1.365 . S
N691 C688 1.341 . S
N691 N690 1.365 . S
N691 H711 0.862 . S
C692 C687 1.501 . S
C692 H693 0.961 . S
C692 H694 0.961 . S
C692 H695 0.960 . S
H693 C692 0.961 . S
H694 C692 0.961 . S
H695 C692 0.960 . S
C696 N697 1.342 . S
C696 C700 1.401 . S
C696 C701 1.499 . S
N697 Co680 1.989 . S
N697 C696 1.342 . S
N697 N698 1.388 . S
N698 Co681 1.993 . S
N698 N697 1.388 . S
N698 C699 1.346 . S
C699 N698 1.346 . S
C699 C700 1.396 . S
C699 C709 1.510 . S
C700 C696 1.401 . S
C700 C699 1.396 . S
C701 C696 1.499 . S
C701 H702 0.959 . S
C701 H703 0.960 . S
C701 H704 0.961 . S
H702 C701 0.959 . S
H703 C701 0.960 . S
H704 C701 0.961 . S
O705 Co680 1.967 . S
O705 C713 1.258 . S
O706 Co681 1.941 . S
O706 C713 1.266 . S
H707 C709 0.959 . S
H708 C709 0.961 . S
C709 C699 1.510 . S
C709 H707 0.959 . S
C709 H708 0.961 . S
C709 H710 0.960 . S
H710 C709 0.960 . S
H711 N691 0.862 . S
O712 Co680 1.920 . S
O712 C685 1.289 . S
C713 O705 1.258 . S
C713 O706 1.266 . S
Co714 O717 1.970 . S
Co714 N731 1.989 . S
Co714 O739 1.967 . S
Co714 O746 1.920 . S
Co715 O718 1.966 . S
Co715 N724 2.022 . S
Co715 N732 1.993 . S
Co715 O740 1.941 . S
C716 O717 1.258 . S
C716 O718 1.263 . S
O717 Co714 1.970 . S
O717 C716 1.258 . S
O718 Co715 1.966 . S
O718 C716 1.263 . S
C719 O720 1.235 . S
C719 O746 1.289 . S
O720 C719 1.235 . S
C721 C723 1.400 . S
C721 N724 1.351 . S
C721 C726 1.501 . S
C722 C723 1.387 . S
C722 N725 1.341 . S
C723 C721 1.400 . S
C723 C722 1.387 . S
N724 Co715 2.022 . S
N724 C721 1.351 . S
N724 N725 1.365 . S
N725 C722 1.341 . S
N725 N724 1.365 . S
N725 H745 0.862 . S
C726 C721 1.501 . S
C726 H727 0.961 . S
C726 H728 0.961 . S
C726 H729 0.960 . S
H727 C726 0.961 . S
H728 C726 0.961 . S
H729 C726 0.960 . S
C730 N731 1.342 . S
C730 C734 1.401 . S
C730 C735 1.499 . S
N731 Co714 1.989 . S
N731 C730 1.342 . S
N731 N732 1.388 . S
N732 Co715 1.993 . S
N732 N731 1.388 . S
N732 C733 1.346 . S
C733 N732 1.346 . S
C733 C734 1.396 . S
C733 C743 1.510 . S
C734 C730 1.401 . S
C734 C733 1.396 . S
C735 C730 1.499 . S
C735 H736 0.959 . S
C735 H737 0.960 . S
C735 H738 0.961 . S
H736 C735 0.959 . S
H737 C735 0.960 . S
H738 C735 0.961 . S
O739 Co714 1.967 . S
O739 C747 1.258 . S
O740 Co715 1.941 . S
O740 C747 1.266 . S
H741 C743 0.959 . S
H742 C743 0.961 . S
C743 C733 1.510 . S
C743 H741 0.959 . S
C743 H742 0.961 . S
C743 H744 0.960 . S
H744 C743 0.960 . S
H745 N725 0.862 . S
O746 Co714 1.920 . S
O746 C719 1.289 . S
C747 O739 1.258 . S
C747 O740 1.266 . S
Co748 O751 1.970 . S
Co748 N765 1.989 . S
Co748 O773 1.967 . S
Co748 O780 1.920 . S
Co749 O752 1.966 . S
Co749 N758 2.022 . S
Co749 N766 1.993 . S
Co749 O774 1.941 . S
C750 O751 1.258 . S
C750 O752 1.263 . S
O751 Co748 1.970 . S
O751 C750 1.258 . S
O752 Co749 1.966 . S
O752 C750 1.263 . S
C753 O754 1.235 . S
C753 O780 1.289 . S
O754 C753 1.235 . S
C755 C757 1.400 . S
C755 N758 1.351 . S
C755 C760 1.501 . S
C756 C757 1.387 . S
C756 N759 1.341 . S
C757 C755 1.400 . S
C757 C756 1.387 . S
N758 Co749 2.022 . S
N758 C755 1.351 . S
N758 N759 1.365 . S
N759 C756 1.341 . S
N759 N758 1.365 . S
N759 H779 0.862 . S
C760 C755 1.501 . S
C760 H761 0.961 . S
C760 H762 0.961 . S
C760 H763 0.960 . S
H761 C760 0.961 . S
H762 C760 0.961 . S
H763 C760 0.960 . S
C764 N765 1.342 . S
C764 C768 1.401 . S
C764 C769 1.499 . S
N765 Co748 1.989 . S
N765 C764 1.342 . S
N765 N766 1.388 . S
N766 Co749 1.993 . S
N766 N765 1.388 . S
N766 C767 1.346 . S
C767 N766 1.346 . S
C767 C768 1.396 . S
C767 C777 1.510 . S
C768 C764 1.401 . S
C768 C767 1.396 . S
C769 C764 1.499 . S
C769 H770 0.959 . S
C769 H771 0.960 . S
C769 H772 0.961 . S
H770 C769 0.959 . S
H771 C769 0.960 . S
H772 C769 0.961 . S
O773 Co748 1.967 . S
O773 C781 1.258 . S
O774 Co749 1.941 . S
O774 C781 1.266 . S
H775 C777 0.959 . S
H776 C777 0.961 . S
C777 C767 1.510 . S
C777 H775 0.959 . S
C777 H776 0.961 . S
C777 H778 0.960 . S
H778 C777 0.960 . S
H779 N759 0.862 . S
O780 Co748 1.920 . S
O780 C753 1.289 . S
C781 O773 1.258 . S
C781 O774 1.266 . S
Co782 O785 1.970 . S
Co782 N799 1.989 . S
Co782 O807 1.967 . S
Co782 O814 1.920 . S
Co783 O786 1.966 . S
Co783 N792 2.022 . S
Co783 N800 1.993 . S
Co783 O808 1.941 . S
C784 O785 1.258 . S
C784 O786 1.263 . S
O785 Co782 1.970 . S
O785 C784 1.258 . S
O786 Co783 1.966 . S
O786 C784 1.263 . S
C787 O788 1.235 . S
C787 O814 1.289 . S
O788 C787 1.235 . S
C789 C791 1.400 . S
C789 N792 1.351 . S
C789 C794 1.501 . S
C790 C791 1.387 . S
C790 N793 1.341 . S
C791 C789 1.400 . S
C791 C790 1.387 . S
N792 Co783 2.022 . S
N792 C789 1.351 . S
N792 N793 1.365 . S
N793 C790 1.341 . S
N793 N792 1.365 . S
N793 H813 0.862 . S
C794 C789 1.501 . S
C794 H795 0.961 . S
C794 H796 0.961 . S
C794 H797 0.960 . S
H795 C794 0.961 . S
H796 C794 0.961 . S
H797 C794 0.960 . S
C798 N799 1.342 . S
C798 C802 1.401 . S
C798 C803 1.499 . S
N799 Co782 1.989 . S
N799 C798 1.342 . S
N799 N800 1.388 . S
N800 Co783 1.993 . S
N800 N799 1.388 . S
N800 C801 1.346 . S
C801 N800 1.346 . S
C801 C802 1.396 . S
C801 C811 1.510 . S
C802 C798 1.401 . S
C802 C801 1.396 . S
C803 C798 1.499 . S
C803 H804 0.959 . S
C803 H805 0.960 . S
C803 H806 0.961 . S
H804 C803 0.959 . S
H805 C803 0.960 . S
H806 C803 0.961 . S
O807 Co782 1.967 . S
O807 C815 1.258 . S
O808 Co783 1.941 . S
O808 C815 1.266 . S
H809 C811 0.959 . S
H810 C811 0.961 . S
C811 C801 1.510 . S
C811 H809 0.959 . S
C811 H810 0.961 . S
C811 H812 0.960 . S
H812 C811 0.960 . S
H813 N793 0.862 . S
O814 Co782 1.920 . S
O814 C787 1.289 . S
C815 O807 1.258 . S
C815 O808 1.266 . S
Co816 O819 1.970 . S
Co816 N833 1.989 . S
Co816 O841 1.967 . S
Co816 O848 1.920 . S
Co817 O820 1.966 . S
Co817 N826 2.022 . S
Co817 N834 1.993 . S
Co817 O842 1.941 . S
C818 O819 1.258 . S
C818 O820 1.263 . S
O819 Co816 1.970 . S
O819 C818 1.258 . S
O820 Co817 1.966 . S
O820 C818 1.263 . S
C821 O822 1.235 . S
C821 O848 1.289 . S
O822 C821 1.235 . S
C823 C825 1.400 . S
C823 N826 1.351 . S
C823 C828 1.501 . S
C824 C825 1.387 . S
C824 N827 1.341 . S
C825 C823 1.400 . S
C825 C824 1.387 . S
N826 Co817 2.022 . S
N826 C823 1.351 . S
N826 N827 1.365 . S
N827 C824 1.341 . S
N827 N826 1.365 . S
N827 H847 0.862 . S
C828 C823 1.501 . S
C828 H829 0.961 . S
C828 H830 0.961 . S
C828 H831 0.960 . S
H829 C828 0.961 . S
H830 C828 0.961 . S
H831 C828 0.960 . S
C832 N833 1.342 . S
C832 C836 1.401 . S
C832 C837 1.499 . S
N833 Co816 1.989 . S
N833 C832 1.342 . S
N833 N834 1.388 . S
N834 Co817 1.993 . S
N834 N833 1.388 . S
N834 C835 1.346 . S
C835 N834 1.346 . S
C835 C836 1.396 . S
C835 C845 1.510 . S
C836 C832 1.401 . S
C836 C835 1.396 . S
C837 C832 1.499 . S
C837 H838 0.959 . S
C837 H839 0.960 . S
C837 H840 0.961 . S
H838 C837 0.959 . S
H839 C837 0.960 . S
H840 C837 0.961 . S
O841 Co816 1.967 . S
O841 C849 1.258 . S
O842 Co817 1.941 . S
O842 C849 1.266 . S
H843 C845 0.959 . S
H844 C845 0.961 . S
C845 C835 1.510 . S
C845 H843 0.959 . S
C845 H844 0.961 . S
C845 H846 0.960 . S
H846 C845 0.960 . S
H847 N827 0.862 . S
O848 Co816 1.920 . S
O848 C821 1.289 . S
C849 O841 1.258 . S
C849 O842 1.266 . S
Co850 O853 1.970 . S
Co850 N867 1.989 . S
Co850 O875 1.967 . S
Co850 O882 1.920 . S
Co851 O854 1.966 . S
Co851 N860 2.022 . S
Co851 N868 1.993 . S
Co851 O876 1.941 . S
C852 O853 1.258 . S
C852 O854 1.263 . S
O853 Co850 1.970 . S
O853 C852 1.258 . S
O854 Co851 1.966 . S
O854 C852 1.263 . S
C855 O856 1.235 . S
C855 O882 1.289 . S
O856 C855 1.235 . S
C857 C859 1.400 . S
C857 N860 1.351 . S
C857 C862 1.501 . S
C858 C859 1.387 . S
C858 N861 1.341 . S
C859 C857 1.400 . S
C859 C858 1.387 . S
N860 Co851 2.022 . S
N860 C857 1.351 . S
N860 N861 1.365 . S
N861 C858 1.341 . S
N861 N860 1.365 . S
N861 H881 0.862 . S
C862 C857 1.501 . S
C862 H863 0.961 . S
C862 H864 0.961 . S
C862 H865 0.960 . S
H863 C862 0.961 . S
H864 C862 0.961 . S
H865 C862 0.960 . S
C866 N867 1.342 . S
C866 C870 1.401 . S
C866 C871 1.499 . S
N867 Co850 1.989 . S
N867 C866 1.342 . S
N867 N868 1.388 . S
N868 Co851 1.993 . S
N868 N867 1.388 . S
N868 C869 1.346 . S
C869 N868 1.346 . S
C869 C870 1.396 . S
C869 C879 1.510 . S
C870 C866 1.401 . S
C870 C869 1.396 . S
C871 C866 1.499 . S
C871 H872 0.959 . S
C871 H873 0.960 . S
C871 H874 0.961 . S
H872 C871 0.959 . S
H873 C871 0.960 . S
H874 C871 0.961 . S
O875 Co850 1.967 . S
O875 C883 1.258 . S
O876 Co851 1.941 . S
O876 C883 1.266 . S
H877 C879 0.959 . S
H878 C879 0.961 . S
C879 C869 1.510 . S
C879 H877 0.959 . S
C879 H878 0.961 . S
C879 H880 0.960 . S
H880 C879 0.960 . S
H881 N861 0.862 . S
O882 Co850 1.920 . S
O882 C855 1.289 . S
C883 O875 1.258 . S
C883 O876 1.266 . S
Co884 O887 1.970 . S
Co884 N901 1.989 . S
Co884 O909 1.967 . S
Co884 O916 1.920 . S
Co885 O888 1.966 . S
Co885 N894 2.022 . S
Co885 N902 1.993 . S
Co885 O910 1.941 . S
C886 O887 1.258 . S
C886 O888 1.263 . S
O887 Co884 1.970 . S
O887 C886 1.258 . S
O888 Co885 1.966 . S
O888 C886 1.263 . S
C889 O890 1.235 . S
C889 O916 1.289 . S
O890 C889 1.235 . S
C891 C893 1.400 . S
C891 N894 1.351 . S
C891 C896 1.501 . S
C892 C893 1.387 . S
C892 N895 1.341 . S
C893 C891 1.400 . S
C893 C892 1.387 . S
N894 Co885 2.022 . S
N894 C891 1.351 . S
N894 N895 1.365 . S
N895 C892 1.341 . S
N895 N894 1.365 . S
N895 H915 0.862 . S
C896 C891 1.501 . S
C896 H897 0.961 . S
C896 H898 0.961 . S
C896 H899 0.960 . S
H897 C896 0.961 . S
H898 C896 0.961 . S
H899 C896 0.960 . S
C900 N901 1.342 . S
C900 C904 1.401 . S
C900 C905 1.499 . S
N901 Co884 1.989 . S
N901 C900 1.342 . S
N901 N902 1.388 . S
N902 Co885 1.993 . S
N902 N901 1.388 . S
N902 C903 1.346 . S
C903 N902 1.346 . S
C903 C904 1.396 . S
C903 C913 1.510 . S
C904 C900 1.401 . S
C904 C903 1.396 . S
C905 C900 1.499 . S
C905 H906 0.959 . S
C905 H907 0.960 . S
C905 H908 0.961 . S
H906 C905 0.959 . S
H907 C905 0.960 . S
H908 C905 0.961 . S
O909 Co884 1.967 . S
O909 C917 1.258 . S
O910 Co885 1.941 . S
O910 C917 1.266 . S
H911 C913 0.959 . S
H912 C913 0.961 . S
C913 C903 1.510 . S
C913 H911 0.959 . S
C913 H912 0.961 . S
C913 H914 0.960 . S
H914 C913 0.960 . S
H915 N895 0.862 . S
O916 Co884 1.920 . S
O916 C889 1.289 . S
C917 O909 1.258 . S
C917 O910 1.266 . S
Co918 O921 1.970 . S
Co918 N935 1.989 . S
Co918 O943 1.967 . S
Co918 O950 1.920 . S
Co919 O922 1.966 . S
Co919 N928 2.022 . S
Co919 N936 1.993 . S
Co919 O944 1.941 . S
C920 O921 1.258 . S
C920 O922 1.263 . S
O921 Co918 1.970 . S
O921 C920 1.258 . S
O922 Co919 1.966 . S
O922 C920 1.263 . S
C923 O924 1.235 . S
C923 O950 1.289 . S
O924 C923 1.235 . S
C925 C927 1.400 . S
C925 N928 1.351 . S
C925 C930 1.501 . S
C926 C927 1.387 . S
C926 N929 1.341 . S
C927 C925 1.400 . S
C927 C926 1.387 . S
N928 Co919 2.022 . S
N928 C925 1.351 . S
N928 N929 1.365 . S
N929 C926 1.341 . S
N929 N928 1.365 . S
N929 H949 0.862 . S
C930 C925 1.501 . S
C930 H931 0.961 . S
C930 H932 0.961 . S
C930 H933 0.960 . S
H931 C930 0.961 . S
H932 C930 0.961 . S
H933 C930 0.960 . S
C934 N935 1.342 . S
C934 C938 1.401 . S
C934 C939 1.499 . S
N935 Co918 1.989 . S
N935 C934 1.342 . S
N935 N936 1.388 . S
N936 Co919 1.993 . S
N936 N935 1.388 . S
N936 C937 1.346 . S
C937 N936 1.346 . S
C937 C938 1.396 . S
C937 C947 1.510 . S
C938 C934 1.401 . S
C938 C937 1.396 . S
C939 C934 1.499 . S
C939 H940 0.959 . S
C939 H941 0.960 . S
C939 H942 0.961 . S
H940 C939 0.959 . S
H941 C939 0.960 . S
H942 C939 0.961 . S
O943 Co918 1.967 . S
O943 C951 1.258 . S
O944 Co919 1.941 . S
O944 C951 1.266 . S
H945 C947 0.959 . S
H946 C947 0.961 . S
C947 C937 1.510 . S
C947 H945 0.959 . S
C947 H946 0.961 . S
C947 H948 0.960 . S
H948 C947 0.960 . S
H949 N929 0.862 . S
O950 Co918 1.920 . S
O950 C923 1.289 . S
C951 O943 1.258 . S
C951 O944 1.266 . S
Co952 O955 1.970 . S
Co952 N969 1.989 . S
Co952 O977 1.967 . S
Co952 O984 1.920 . S
Co953 O956 1.966 . S
Co953 N962 2.022 . S
Co953 N970 1.993 . S
Co953 O978 1.941 . S
C954 O955 1.258 . S
C954 O956 1.263 . S
O955 Co952 1.970 . S
O955 C954 1.258 . S
O956 Co953 1.966 . S
O956 C954 1.263 . S
C957 O958 1.235 . S
C957 O984 1.289 . S
O958 C957 1.235 . S
C959 C961 1.400 . S
C959 N962 1.351 . S
C959 C964 1.501 . S
C960 C961 1.387 . S
C960 N963 1.341 . S
C961 C959 1.400 . S
C961 C960 1.387 . S
N962 Co953 2.022 . S
N962 C959 1.351 . S
N962 N963 1.365 . S
N963 C960 1.341 . S
N963 N962 1.365 . S
N963 H983 0.862 . S
C964 C959 1.501 . S
C964 H965 0.961 . S
C964 H966 0.961 . S
C964 H967 0.960 . S
H965 C964 0.961 . S
H966 C964 0.961 . S
H967 C964 0.960 . S
C968 N969 1.342 . S
C968 C972 1.401 . S
C968 C973 1.499 . S
N969 Co952 1.989 . S
N969 C968 1.342 . S
N969 N970 1.388 . S
N970 Co953 1.993 . S
N970 N969 1.388 . S
N970 C971 1.346 . S
C971 N970 1.346 . S
C971 C972 1.396 . S
C971 C981 1.510 . S
C972 C968 1.401 . S
C972 C971 1.396 . S
C973 C968 1.499 . S
C973 H974 0.959 . S
C973 H975 0.960 . S
C973 H976 0.961 . S
H974 C973 0.959 . S
H975 C973 0.960 . S
H976 C973 0.961 . S
O977 Co952 1.967 . S
O977 C985 1.258 . S
O978 Co953 1.941 . S
O978 C985 1.266 . S
H979 C981 0.959 . S
H980 C981 0.961 . S
C981 C971 1.510 . S
C981 H979 0.959 . S
C981 H980 0.961 . S
C981 H982 0.960 . S
H982 C981 0.960 . S
H983 N963 0.862 . S
O984 Co952 1.920 . S
O984 C957 1.289 . S
C985 O977 1.258 . S
C985 O978 1.266 . S
Co986 O989 1.970 . S
Co986 N1003 1.989 . S
Co986 O1011 1.967 . S
Co986 O1018 1.920 . S
Co987 O990 1.966 . S
Co987 N996 2.022 . S
Co987 N1004 1.993 . S
Co987 O1012 1.941 . S
C988 O989 1.258 . S
C988 O990 1.263 . S
O989 Co986 1.970 . S
O989 C988 1.258 . S
O990 Co987 1.966 . S
O990 C988 1.263 . S
C991 O992 1.235 . S
C991 O1018 1.289 . S
O992 C991 1.235 . S
C993 C995 1.400 . S
C993 N996 1.351 . S
C993 C998 1.501 . S
C994 C995 1.387 . S
C994 N997 1.341 . S
C995 C993 1.400 . S
C995 C994 1.387 . S
N996 Co987 2.022 . S
N996 C993 1.351 . S
N996 N997 1.365 . S
N997 C994 1.341 . S
N997 N996 1.365 . S
N997 H1017 0.862 . S
C998 C993 1.501 . S
C998 H999 0.961 . S
C998 H1000 0.961 . S
C998 H1001 0.960 . S
H999 C998 0.961 . S
H1000 C998 0.961 . S
H1001 C998 0.960 . S
C1002 N1003 1.342 . S
C1002 C1006 1.401 . S
C1002 C1007 1.499 . S
N1003 Co986 1.989 . S
N1003 C1002 1.342 . S
N1003 N1004 1.388 . S
N1004 Co987 1.993 . S
N1004 N1003 1.388 . S
N1004 C1005 1.346 . S
C1005 N1004 1.346 . S
C1005 C1006 1.396 . S
C1005 C1015 1.510 . S
C1006 C1002 1.401 . S
C1006 C1005 1.396 . S
C1007 C1002 1.499 . S
C1007 H1008 0.959 . S
C1007 H1009 0.960 . S
C1007 H1010 0.961 . S
H1008 C1007 0.959 . S
H1009 C1007 0.960 . S
H1010 C1007 0.961 . S
O1011 Co986 1.967 . S
O1011 C1019 1.258 . S
O1012 Co987 1.941 . S
O1012 C1019 1.266 . S
H1013 C1015 0.959 . S
H1014 C1015 0.961 . S
C1015 C1005 1.510 . S
C1015 H1013 0.959 . S
C1015 H1014 0.961 . S
C1015 H1016 0.960 . S
H1016 C1015 0.960 . S
H1017 N997 0.862 . S
O1018 Co986 1.920 . S
O1018 C991 1.289 . S
C1019 O1011 1.258 . S
C1019 O1012 1.266 . S
Co1020 O1023 1.970 . S
Co1020 N1037 1.989 . S
Co1020 O1045 1.967 . S
Co1020 O1052 1.920 . S
Co1021 O1024 1.966 . S
Co1021 N1030 2.022 . S
Co1021 N1038 1.993 . S
Co1021 O1046 1.941 . S
C1022 O1023 1.258 . S
C1022 O1024 1.263 . S
O1023 Co1020 1.970 . S
O1023 C1022 1.258 . S
O1024 Co1021 1.966 . S
O1024 C1022 1.263 . S
C1025 O1026 1.235 . S
C1025 O1052 1.289 . S
O1026 C1025 1.235 . S
C1027 C1029 1.400 . S
C1027 N1030 1.351 . S
C1027 C1032 1.501 . S
C1028 C1029 1.387 . S
C1028 N1031 1.341 . S
C1029 C1027 1.400 . S
C1029 C1028 1.387 . S
N1030 Co1021 2.022 . S
N1030 C1027 1.351 . S
N1030 N1031 1.365 . S
N1031 C1028 1.341 . S
N1031 N1030 1.365 . S
N1031 H1051 0.862 . S
C1032 C1027 1.501 . S
C1032 H1033 0.961 . S
C1032 H1034 0.961 . S
C1032 H1035 0.960 . S
H1033 C1032 0.961 . S
H1034 C1032 0.961 . S
H1035 C1032 0.960 . S
C1036 N1037 1.342 . S
C1036 C1040 1.401 . S
C1036 C1041 1.499 . S
N1037 Co1020 1.989 . S
N1037 C1036 1.342 . S
N1037 N1038 1.388 . S
N1038 Co1021 1.993 . S
N1038 N1037 1.388 . S
N1038 C1039 1.346 . S
C1039 N1038 1.346 . S
C1039 C1040 1.396 . S
C1039 C1049 1.510 . S
C1040 C1036 1.401 . S
C1040 C1039 1.396 . S
C1041 C1036 1.499 . S
C1041 H1042 0.959 . S
C1041 H1043 0.960 . S
C1041 H1044 0.961 . S
H1042 C1041 0.959 . S
H1043 C1041 0.960 . S
H1044 C1041 0.961 . S
O1045 Co1020 1.967 . S
O1045 C1053 1.258 . S
O1046 Co1021 1.941 . S
O1046 C1053 1.266 . S
H1047 C1049 0.959 . S
H1048 C1049 0.961 . S
C1049 C1039 1.510 . S
C1049 H1047 0.959 . S
C1049 H1048 0.961 . S
C1049 H1050 0.960 . S
H1050 C1049 0.960 . S
H1051 N1031 0.862 . S
O1052 Co1020 1.920 . S
O1052 C1025 1.289 . S
C1053 O1045 1.258 . S
C1053 O1046 1.266 . S
Co1054 O1057 1.970 . S
Co1054 N1071 1.989 . S
Co1054 O1079 1.967 . S
Co1054 O1086 1.920 . S
Co1055 O1058 1.966 . S
Co1055 N1064 2.022 . S
Co1055 N1072 1.993 . S
Co1055 O1080 1.941 . S
C1056 O1057 1.258 . S
C1056 O1058 1.263 . S
O1057 Co1054 1.970 . S
O1057 C1056 1.258 . S
O1058 Co1055 1.966 . S
O1058 C1056 1.263 . S
C1059 O1060 1.235 . S
C1059 O1086 1.289 . S
O1060 C1059 1.235 . S
C1061 C1063 1.400 . S
C1061 N1064 1.351 . S
C1061 C1066 1.501 . S
C1062 C1063 1.387 . S
C1062 N1065 1.341 . S
C1063 C1061 1.400 . S
C1063 C1062 1.387 . S
N1064 Co1055 2.022 . S
N1064 C1061 1.351 . S
N1064 N1065 1.365 . S
N1065 C1062 1.341 . S
N1065 N1064 1.365 . S
N1065 H1085 0.862 . S
C1066 C1061 1.501 . S
C1066 H1067 0.961 . S
C1066 H1068 0.961 . S
C1066 H1069 0.960 . S
H1067 C1066 0.961 . S
H1068 C1066 0.961 . S
H1069 C1066 0.960 . S
C1070 N1071 1.342 . S
C1070 C1074 1.401 . S
C1070 C1075 1.499 . S
N1071 Co1054 1.989 . S
N1071 C1070 1.342 . S
N1071 N1072 1.388 . S
N1072 Co1055 1.993 . S
N1072 N1071 1.388 . S
N1072 C1073 1.346 . S
C1073 N1072 1.346 . S
C1073 C1074 1.396 . S
C1073 C1083 1.510 . S
C1074 C1070 1.401 . S
C1074 C1073 1.396 . S
C1075 C1070 1.499 . S
C1075 H1076 0.959 . S
C1075 H1077 0.960 . S
C1075 H1078 0.961 . S
H1076 C1075 0.959 . S
H1077 C1075 0.960 . S
H1078 C1075 0.961 . S
O1079 Co1054 1.967 . S
O1079 C1087 1.258 . S
O1080 Co1055 1.941 . S
O1080 C1087 1.266 . S
H1081 C1083 0.959 . S
H1082 C1083 0.961 . S
C1083 C1073 1.510 . S
C1083 H1081 0.959 . S
C1083 H1082 0.961 . S
C1083 H1084 0.960 . S
H1084 C1083 0.960 . S
H1085 N1065 0.862 . S
O1086 Co1054 1.920 . S
O1086 C1059 1.289 . S
C1087 O1079 1.258 . S
C1087 O1080 1.266 . S
H1088 C1096 0.929 . S
H1089 C1098 0.930 . S
H1090 C1100 0.930 . S
H1091 C1103 0.929 . S
H1092 C1106 0.930 . S
H1093 C1108 0.960 . S
H1094 C1108 0.960 . S
H1095 C1108 0.960 . S
C1096 H1088 0.929 . S
C1096 C1097 1.377 . S
C1096 C1098 1.384 . S
C1097 C1096 1.377 . S
C1097 C1103 1.390 . S
C1098 H1089 0.930 . S
C1098 C1096 1.384 . S
C1098 C1099 1.372 . S
C1099 C1098 1.372 . S
C1099 C1100 1.400 . S
C1099 C1104 1.490 . S
C1100 H1090 0.930 . S
C1100 C1099 1.400 . S
C1100 C1103 1.386 . S
H1101 C1117 0.930 . S
H1102 C1118 0.931 . S
C1103 H1091 0.929 . S
C1103 C1097 1.390 . S
C1103 C1100 1.386 . S
C1104 C1099 1.490 . S
C1104 C1106 1.395 . S
C1104 C1107 1.403 . S
H1105 C1111 0.930 . S
C1106 H1092 0.930 . S
C1106 C1104 1.395 . S
C1106 C1109 1.403 . S
C1107 C1104 1.403 . S
C1107 C1108 1.524 . S
C1107 C1111 1.400 . S
C1108 H1093 0.960 . S
C1108 H1094 0.960 . S
C1108 H1095 0.960 . S
C1108 C1107 1.524 . S
C1109 C1106 1.403 . S
C1109 C1110 1.392 . S
C1109 C1113 1.495 . S
C1110 C1109 1.392 . S
C1110 C1111 1.385 . S
C1110 C1112 1.478 . S
C1111 H1105 0.930 . S
C1111 C1107 1.400 . S
C1111 C1110 1.385 . S
C1112 C1110 1.478 . S
C1112 C1114 1.381 . S
C1112 C1118 1.383 . S
C1113 C1109 1.495 . S
C1113 H1119 0.959 . S
C1113 H1120 0.961 . S
C1113 H1121 0.960 . S
C1114 C1112 1.381 . S
C1114 C1115 1.394 . S
C1114 H1122 0.930 . S
C1115 C1114 1.394 . S
C1115 C1116 1.383 . S
C1115 H1123 0.929 . S
C1116 C1115 1.383 . S
C1116 C1117 1.377 . S
C1117 H1101 0.930 . S
C1117 C1116 1.377 . S
C1117 C1118 1.379 . S
C1118 H1102 0.931 . S
C1118 C1112 1.383 . S
C1118 C1117 1.379 . S
H1119 C1113 0.959 . S
H1120 C1113 0.961 . S
H1121 C1113 0.960 . S
H1122 C1114 0.930 . S
H1123 C1115 0.929 . S
H1124 C1132 0.929 . S
H1125 C1134 0.930 . S
H1126 C1136 0.930 . S
H1127 C1139 0.929 . S
H1128 C1142 0.930 . S
H1129 C1144 0.960 . S
H1130 C1144 0.960 . S
H1131 C1144 0.960 . S
C1132 H1124 0.929 . S
C1132 C1133 1.377 . S
C1132 C1134 1.384 . S
C1133 C1132 1.377 . S
C1133 C1139 1.390 . S
C1134 H1125 0.930 . S
C1134 C1132 1.384 . S
C1134 C1135 1.372 . S
C1135 C1134 1.372 . S
C1135 C1136 1.400 . S
C1135 C1140 1.490 . S
C1136 H1126 0.930 . S
C1136 C1135 1.400 . S
C1136 C1139 1.386 . S
H1137 C1153 0.930 . S
H1138 C1154 0.931 . S
C1139 H1127 0.929 . S
C1139 C1133 1.390 . S
C1139 C1136 1.386 . S
C1140 C1135 1.490 . S
C1140 C1142 1.395 . S
C1140 C1143 1.403 1_545 S
H1141 C1147 0.930 . S
C1142 H1128 0.930 . S
C1142 C1140 1.395 . S
C1142 C1145 1.403 . S
C1143 C1140 1.403 1_565 S
C1143 C1144 1.524 . S
C1143 C1147 1.400 . S
C1144 H1129 0.960 . S
C1144 H1130 0.960 . S
C1144 H1131 0.960 . S
C1144 C1143 1.524 . S
C1145 C1142 1.403 . S
C1145 C1146 1.378 1_545 S
C1145 C1149 1.495 . S
C1146 C1145 1.378 1_565 S
C1146 C1147 1.395 . S
C1146 C1148 1.483 . S
C1147 H1141 0.930 . S
C1147 C1143 1.400 . S
C1147 C1146 1.395 . S
C1148 C1146 1.483 . S
C1148 C1150 1.381 . S
C1148 C1154 1.383 . S
C1149 C1145 1.495 . S
C1149 H1155 0.959 . S
C1149 H1156 0.961 . S
C1149 H1157 0.960 . S
C1150 C1148 1.381 . S
C1150 C1151 1.394 . S
C1150 H1158 0.930 . S
C1151 C1150 1.394 . S
C1151 C1152 1.383 . S
C1151 H1159 0.929 . S
C1152 C1151 1.383 . S
C1152 C1153 1.377 . S
C1153 H1137 0.930 . S
C1153 C1152 1.377 . S
C1153 C1154 1.379 . S
C1154 H1138 0.931 . S
C1154 C1148 1.383 . S
C1154 C1153 1.379 . S
H1155 C1149 0.959 . S
H1156 C1149 0.961 . S
H1157 C1149 0.960 . S
H1158 C1150 0.930 . S
H1159 C1151 0.929 . S
H1160 C1168 0.929 . S
H1161 C1170 0.930 . S
H1162 C1172 0.930 . S
H1163 C1175 0.929 . S
H1164 C1178 0.930 . S
H1165 C1180 0.960 . S
H1166 C1180 0.960 . S
H1167 C1180 0.960 . S
C1168 H1160 0.929 . S
C1168 C1169 1.377 . S
C1168 C1170 1.384 . S
C1169 C1168 1.377 . S
C1169 C1175 1.390 . S
C1170 H1161 0.930 . S
C1170 C1168 1.384 . S
C1170 C1171 1.372 . S
C1171 C1170 1.372 . S
C1171 C1172 1.400 . S
C1171 C1176 1.490 . S
C1172 H1162 0.930 . S
C1172 C1171 1.400 . S
C1172 C1175 1.386 . S
H1173 C1189 0.930 . S
H1174 C1190 0.931 . S
C1175 H1163 0.929 . S
C1175 C1169 1.390 . S
C1175 C1172 1.386 . S
C1176 C1171 1.490 . S
C1176 C1178 1.395 . S
C1176 C1179 1.403 . S
H1177 C1183 0.930 . S
C1178 H1164 0.930 . S
C1178 C1176 1.395 . S
C1178 C1181 1.403 . S
C1179 C1176 1.403 . S
C1179 C1180 1.524 . S
C1179 C1183 1.400 . S
C1180 H1165 0.960 . S
C1180 H1166 0.960 . S
C1180 H1167 0.960 . S
C1180 C1179 1.524 . S
C1181 C1178 1.403 . S
C1181 C1182 1.392 . S
C1181 C1185 1.495 . S
C1182 C1181 1.392 . S
C1182 C1183 1.385 . S
C1182 C1184 1.478 . S
C1183 H1177 0.930 . S
C1183 C1179 1.400 . S
C1183 C1182 1.385 . S
C1184 C1182 1.478 . S
C1184 C1186 1.381 . S
C1184 C1190 1.383 . S
C1185 C1181 1.495 . S
C1185 H1191 0.959 . S
C1185 H1192 0.961 . S
C1185 H1193 0.960 . S
C1186 C1184 1.381 . S
C1186 C1187 1.394 . S
C1186 H1194 0.930 . S
C1187 C1186 1.394 . S
C1187 C1188 1.383 . S
C1187 H1195 0.929 . S
C1188 C1187 1.383 . S
C1188 C1189 1.377 . S
C1189 H1173 0.930 . S
C1189 C1188 1.377 . S
C1189 C1190 1.379 . S
C1190 H1174 0.931 . S
C1190 C1184 1.383 . S
C1190 C1189 1.379 . S
H1191 C1185 0.959 . S
H1192 C1185 0.961 . S
H1193 C1185 0.960 . S
H1194 C1186 0.930 . S
H1195 C1187 0.929 . S
H1196 C1204 0.929 . S
H1197 C1206 0.930 1_545 S
H1198 C1208 0.930 . S
H1199 C1211 0.929 . S
H1200 C1214 0.930 . S
H1201 C1216 0.960 . S
H1202 C1216 0.960 . S
H1203 C1216 0.960 . S
C1204 H1196 0.929 . S
C1204 C1205 1.377 . S
C1204 C1206 1.384 . S
C1205 C1204 1.377 . S
C1205 C1211 1.390 . S
C1206 H1197 0.930 1_565 S
C1206 C1204 1.384 . S
C1206 C1207 1.372 . S
C1207 C1206 1.372 . S
C1207 C1208 1.400 . S
C1207 C1212 1.490 . S
C1208 H1198 0.930 . S
C1208 C1207 1.400 . S
C1208 C1211 1.386 . S
H1209 C1225 0.930 1_565 S
H1210 C1226 0.931 1_565 S
C1211 H1199 0.929 . S
C1211 C1205 1.390 . S
C1211 C1208 1.386 . S
C1212 C1207 1.490 . S
C1212 C1214 1.395 1_565 S
C1212 C1215 1.403 . S
H1213 C1219 0.930 . S
C1214 H1200 0.930 . S
C1214 C1212 1.395 1_545 S
C1214 C1217 1.403 . S
C1215 C1212 1.403 . S
C1215 C1216 1.524 . S
C1215 C1219 1.400 . S
C1216 H1201 0.960 . S
C1216 H1202 0.960 . S
C1216 H1203 0.960 . S
C1216 C1215 1.524 . S
C1217 C1214 1.403 . S
C1217 C1218 1.392 . S
C1217 C1221 1.495 . S
C1218 C1217 1.392 . S
C1218 C1219 1.385 1_545 S
C1218 C1220 1.478 1_455 S
C1219 H1213 0.930 . S
C1219 C1215 1.400 . S
C1219 C1218 1.385 1_565 S
C1220 C1218 1.478 1_655 S
C1220 C1222 1.381 . S
C1220 C1226 1.383 . S
C1221 C1217 1.495 . S
C1221 H1227 0.959 . S
C1221 H1228 0.961 . S
C1221 H1229 0.960 . S
C1222 C1220 1.381 . S
C1222 C1223 1.394 . S
C1222 H1230 0.930 . S
C1223 C1222 1.394 . S
C1223 C1224 1.383 . S
C1223 H1231 0.929 . S
C1224 C1223 1.383 . S
C1224 C1225 1.377 . S
C1225 H1209 0.930 1_545 S
C1225 C1224 1.377 . S
C1225 C1226 1.379 . S
C1226 H1210 0.931 1_545 S
C1226 C1220 1.383 . S
C1226 C1225 1.379 . S
H1227 C1221 0.959 . S
H1228 C1221 0.961 . S
H1229 C1221 0.960 . S
H1230 C1222 0.930 . S
H1231 C1223 0.929 . S
H1232 C1240 0.929 . S
H1233 C1242 0.930 . S
H1234 C1244 0.930 . S
H1235 C1247 0.929 . S
H1236 C1250 0.930 . S
H1237 C1252 0.960 . S
H1238 C1252 0.960 . S
H1239 C1252 0.960 . S
C1240 H1232 0.929 . S
C1240 C1241 1.377 . S
C1240 C1242 1.384 . S
C1241 C1240 1.377 . S
C1241 C1247 1.390 . S
C1242 H1233 0.930 . S
C1242 C1240 1.384 . S
C1242 C1243 1.372 . S
C1243 C1242 1.372 . S
C1243 C1244 1.400 . S
C1243 C1248 1.490 . S
C1244 H1234 0.930 . S
C1244 C1243 1.400 . S
C1244 C1247 1.386 . S
H1245 C1261 0.930 . S
H1246 C1262 0.931 . S
C1247 H1235 0.929 . S
C1247 C1241 1.390 . S
C1247 C1244 1.386 . S
C1248 C1243 1.490 . S
C1248 C1250 1.395 . S
C1248 C1251 1.403 . S
H1249 C1255 0.930 . S
C1250 H1236 0.930 . S
C1250 C1248 1.395 . S
C1250 C1253 1.403 . S
C1251 C1248 1.403 . S
C1251 C1252 1.524 . S
C1251 C1255 1.400 . S
C1252 H1237 0.960 . S
C1252 H1238 0.960 . S
C1252 H1239 0.960 . S
C1252 C1251 1.524 . S
C1253 C1250 1.403 . S
C1253 C1254 1.392 . S
C1253 C1257 1.495 . S
C1254 C1253 1.392 . S
C1254 C1255 1.385 . S
C1254 C1256 1.478 . S
C1255 H1249 0.930 . S
C1255 C1251 1.400 . S
C1255 C1254 1.385 . S
C1256 C1254 1.478 . S
C1256 C1258 1.381 . S
C1256 C1262 1.383 . S
C1257 C1253 1.495 . S
C1257 H1263 0.959 . S
C1257 H1264 0.961 . S
C1257 H1265 0.960 . S
C1258 C1256 1.381 . S
C1258 C1259 1.394 . S
C1258 H1266 0.930 . S
C1259 C1258 1.394 . S
C1259 C1260 1.383 . S
C1259 H1267 0.929 . S
C1260 C1259 1.383 . S
C1260 C1261 1.377 . S
C1261 H1245 0.930 . S
C1261 C1260 1.377 . S
C1261 C1262 1.379 . S
C1262 H1246 0.931 . S
C1262 C1256 1.383 . S
C1262 C1261 1.379 . S
H1263 C1257 0.959 . S
H1264 C1257 0.961 . S
H1265 C1257 0.960 . S
H1266 C1258 0.930 . S
H1267 C1259 0.929 . S
H1268 C1276 0.929 . S
H1269 C1278 0.930 1_565 S
H1270 C1280 0.930 . S
H1271 C1283 0.929 . S
H1272 C1286 0.930 . S
H1273 C1288 0.960 . S
H1274 C1288 0.960 . S
H1275 C1288 0.960 . S
C1276 H1268 0.929 . S
C1276 C1277 1.377 . S
C1276 C1278 1.384 . S
C1277 C1276 1.377 . S
C1277 C1283 1.390 . S
C1278 H1269 0.930 1_545 S
C1278 C1276 1.384 . S
C1278 C1279 1.372 . S
C1279 C1278 1.372 . S
C1279 C1280 1.400 . S
C1279 C1284 1.490 . S
C1280 H1270 0.930 . S
C1280 C1279 1.400 . S
C1280 C1283 1.386 . S
H1281 C1297 0.930 . S
H1282 C1298 0.931 1_545 S
C1283 H1271 0.929 . S
C1283 C1277 1.390 . S
C1283 C1280 1.386 . S
C1284 C1279 1.490 . S
C1284 C1286 1.395 1_545 S
C1284 C1287 1.403 . S
H1285 C1291 0.930 . S
C1286 H1272 0.930 . S
C1286 C1284 1.395 1_565 S
C1286 C1289 1.403 . S
C1287 C1284 1.403 . S
C1287 C1288 1.524 . S
C1287 C1291 1.400 . S
C1288 H1273 0.960 . S
C1288 H1274 0.960 . S
C1288 H1275 0.960 . S
C1288 C1287 1.524 . S
C1289 C1286 1.403 . S
C1289 C1290 1.392 . S
C1289 C1293 1.495 . S
C1290 C1289 1.392 . S
C1290 C1291 1.385 1_565 S
C1290 C1292 1.478 1_455 S
C1291 H1285 0.930 . S
C1291 C1287 1.400 . S
C1291 C1290 1.385 1_545 S
C1292 C1290 1.478 1_655 S
C1292 C1294 1.381 . S
C1292 C1298 1.383 . S
C1293 C1289 1.495 . S
C1293 H1299 0.959 . S
C1293 H1300 0.961 . S
C1293 H1301 0.960 . S
C1294 C1292 1.381 . S
C1294 C1295 1.394 . S
C1294 H1302 0.930 . S
C1295 C1294 1.394 . S
C1295 C1296 1.383 . S
C1295 H1303 0.929 . S
C1296 C1295 1.383 . S
C1296 C1297 1.377 . S
C1297 H1281 0.930 . S
C1297 C1296 1.377 . S
C1297 C1298 1.379 . S
C1298 H1282 0.931 1_565 S
C1298 C1292 1.383 . S
C1298 C1297 1.379 . S
H1299 C1293 0.959 . S
H1300 C1293 0.961 . S
H1301 C1293 0.960 . S
H1302 C1294 0.930 . S
H1303 C1295 0.929 . S
H1304 C1312 0.929 . S
H1305 C1314 0.930 . S
H1306 C1316 0.930 . S
H1307 C1319 0.929 . S
H1308 C1322 0.930 . S
H1309 C1324 0.960 . S
H1310 C1324 0.960 . S
H1311 C1324 0.960 . S
C1312 H1304 0.929 . S
C1312 C1313 1.377 . S
C1312 C1314 1.384 . S
C1313 C1312 1.377 . S
C1313 C1319 1.390 . S
C1314 H1305 0.930 . S
C1314 C1312 1.384 . S
C1314 C1315 1.372 . S
C1315 C1314 1.372 . S
C1315 C1316 1.400 . S
C1315 C1320 1.490 . S
C1316 H1306 0.930 . S
C1316 C1315 1.400 . S
C1316 C1319 1.386 . S
H1317 C1333 0.930 . S
H1318 C1334 0.931 . S
C1319 H1307 0.929 . S
C1319 C1313 1.390 . S
C1319 C1316 1.386 . S
C1320 C1315 1.490 . S
C1320 C1322 1.395 . S
C1320 C1323 1.403 . S
H1321 C1327 0.930 . S
C1322 H1308 0.930 . S
C1322 C1320 1.395 . S
C1322 C1325 1.403 . S
C1323 C1320 1.403 . S
C1323 C1324 1.524 . S
C1323 C1327 1.400 . S
C1324 H1309 0.960 . S
C1324 H1310 0.960 . S
C1324 H1311 0.960 . S
C1324 C1323 1.524 . S
C1325 C1322 1.403 . S
C1325 C1326 1.392 . S
C1325 C1329 1.495 . S
C1326 C1325 1.392 . S
C1326 C1327 1.385 . S
C1326 C1328 1.478 . S
C1327 H1321 0.930 . S
C1327 C1323 1.400 . S
C1327 C1326 1.385 . S
C1328 C1326 1.478 . S
C1328 C1330 1.381 . S
C1328 C1334 1.383 . S
C1329 C1325 1.495 . S
C1329 H1335 0.959 . S
C1329 H1336 0.961 . S
C1329 H1337 0.960 . S
C1330 C1328 1.381 . S
C1330 C1331 1.394 . S
C1330 H1338 0.930 . S
C1331 C1330 1.394 . S
C1331 C1332 1.383 . S
C1331 H1339 0.929 . S
C1332 C1331 1.383 . S
C1332 C1333 1.377 . S
C1333 H1317 0.930 . S
C1333 C1332 1.377 . S
C1333 C1334 1.379 . S
C1334 H1318 0.931 . S
C1334 C1328 1.383 . S
C1334 C1333 1.379 . S
H1335 C1329 0.959 . S
H1336 C1329 0.961 . S
H1337 C1329 0.960 . S
H1338 C1330 0.930 . S
H1339 C1331 0.929 . S
H1340 C1348 0.929 . S
H1341 C1350 0.930 . S
H1342 C1352 0.930 . S
H1343 C1355 0.929 . S
H1344 C1358 0.930 . S
H1345 C1360 0.960 . S
H1346 C1360 0.960 . S
H1347 C1360 0.960 . S
C1348 H1340 0.929 . S
C1348 C1349 1.377 . S
C1348 C1350 1.384 . S
C1349 C1348 1.377 . S
C1349 C1355 1.390 . S
C1350 H1341 0.930 . S
C1350 C1348 1.384 . S
C1350 C1351 1.372 . S
C1351 C1350 1.372 . S
C1351 C1352 1.400 . S
C1351 C1356 1.490 . S
C1352 H1342 0.930 . S
C1352 C1351 1.400 . S
C1352 C1355 1.386 . S
H1353 C1369 0.930 . S
H1354 C1370 0.931 . S
C1355 H1343 0.929 . S
C1355 C1349 1.390 . S
C1355 C1352 1.386 . S
C1356 C1351 1.490 . S
C1356 C1358 1.395 1_545 S
C1356 C1359 1.403 . S
H1357 C1363 0.930 . S
C1358 H1344 0.930 . S
C1358 C1356 1.395 1_565 S
C1358 C1361 1.403 . S
C1359 C1356 1.403 . S
C1359 C1360 1.524 . S
C1359 C1363 1.400 . S
C1360 H1345 0.960 . S
C1360 H1346 0.960 . S
C1360 H1347 0.960 . S
C1360 C1359 1.524 . S
C1361 C1358 1.403 . S
C1361 C1362 1.392 . S
C1361 C1365 1.495 . S
C1362 C1361 1.392 . S
C1362 C1363 1.385 1_565 S
C1362 C1364 1.478 . S
C1363 H1357 0.930 . S
C1363 C1359 1.400 . S
C1363 C1362 1.385 1_545 S
C1364 C1362 1.478 . S
C1364 C1366 1.381 . S
C1364 C1370 1.383 . S
C1365 C1361 1.495 . S
C1365 H1371 0.959 . S
C1365 H1372 0.961 . S
C1365 H1373 0.960 . S
C1366 C1364 1.381 . S
C1366 C1367 1.394 . S
C1366 H1374 0.930 . S
C1367 C1366 1.394 . S
C1367 C1368 1.383 . S
C1367 H1375 0.929 . S
C1368 C1367 1.383 . S
C1368 C1369 1.377 . S
C1369 H1353 0.930 . S
C1369 C1368 1.377 . S
C1369 C1370 1.379 . S
C1370 H1354 0.931 . S
C1370 C1364 1.383 . S
C1370 C1369 1.379 . S
H1371 C1365 0.959 . S
H1372 C1365 0.961 . S
H1373 C1365 0.960 . S
H1374 C1366 0.930 . S
H1375 C1367 0.929 . S
H1376 C1384 0.929 . S
H1377 C1386 0.930 . S
H1378 C1388 0.930 . S
H1379 C1391 0.929 . S
H1380 C1394 0.930 . S
H1381 C1396 0.960 . S
H1382 C1396 0.960 . S
H1383 C1396 0.960 . S
C1384 H1376 0.929 . S
C1384 C1385 1.377 . S
C1384 C1386 1.384 . S
C1385 C1384 1.377 . S
C1385 C1391 1.390 . S
C1386 H1377 0.930 . S
C1386 C1384 1.384 . S
C1386 C1387 1.372 . S
C1387 C1386 1.372 . S
C1387 C1388 1.400 . S
C1387 C1392 1.490 . S
C1388 H1378 0.930 . S
C1388 C1387 1.400 . S
C1388 C1391 1.386 . S
H1389 C1405 0.930 . S
H1390 C1406 0.931 . S
C1391 H1379 0.929 . S
C1391 C1385 1.390 . S
C1391 C1388 1.386 . S
C1392 C1387 1.490 . S
C1392 C1394 1.395 . S
C1392 C1395 1.403 . S
H1393 C1399 0.930 . S
C1394 H1380 0.930 . S
C1394 C1392 1.395 . S
C1394 C1397 1.403 . S
C1395 C1392 1.403 . S
C1395 C1396 1.524 . S
C1395 C1399 1.400 . S
C1396 H1381 0.960 . S
C1396 H1382 0.960 . S
C1396 H1383 0.960 . S
C1396 C1395 1.524 . S
C1397 C1394 1.403 . S
C1397 C1398 1.392 . S
C1397 C1401 1.495 . S
C1398 C1397 1.392 . S
C1398 C1399 1.385 . S
C1398 C1400 1.478 . S
C1399 H1393 0.930 . S
C1399 C1395 1.400 . S
C1399 C1398 1.385 . S
C1400 C1398 1.478 . S
C1400 C1402 1.381 . S
C1400 C1406 1.383 . S
C1401 C1397 1.495 . S
C1401 H1407 0.959 . S
C1401 H1408 0.961 . S
C1401 H1409 0.960 . S
C1402 C1400 1.381 . S
C1402 C1403 1.394 . S
C1402 H1410 0.930 . S
C1403 C1402 1.394 . S
C1403 C1404 1.383 . S
C1403 H1411 0.929 . S
C1404 C1403 1.383 . S
C1404 C1405 1.377 . S
C1405 H1389 0.930 . S
C1405 C1404 1.377 . S
C1405 C1406 1.379 . S
C1406 H1390 0.931 . S
C1406 C1400 1.383 . S
C1406 C1405 1.379 . S
H1407 C1401 0.959 . S
H1408 C1401 0.961 . S
H1409 C1401 0.960 . S
H1410 C1402 0.930 . S
H1411 C1403 0.929 . S
H1412 C1420 0.929 . S
H1413 C1422 0.930 . S
H1414 C1424 0.930 . S
H1415 C1427 0.929 . S
H1416 C1430 0.930 . S
H1417 C1432 0.960 . S
H1418 C1432 0.960 . S
H1419 C1432 0.960 . S
C1420 H1412 0.929 . S
C1420 C1421 1.377 . S
C1420 C1422 1.384 . S
C1421 C1420 1.377 . S
C1421 C1427 1.390 . S
C1422 H1413 0.930 . S
C1422 C1420 1.384 . S
C1422 C1423 1.372 . S
C1423 C1422 1.372 . S
C1423 C1424 1.400 . S
C1423 C1428 1.490 . S
C1424 H1414 0.930 . S
C1424 C1423 1.400 . S
C1424 C1427 1.386 . S
H1425 C1441 0.930 . S
H1426 C1442 0.931 . S
C1427 H1415 0.929 . S
C1427 C1421 1.390 . S
C1427 C1424 1.386 . S
C1428 C1423 1.490 . S
C1428 C1430 1.395 . S
C1428 C1431 1.403 1_565 S
H1429 C1435 0.930 . S
C1430 H1416 0.930 . S
C1430 C1428 1.395 . S
C1430 C1433 1.403 . S
C1431 C1428 1.403 1_545 S
C1431 C1432 1.524 . S
C1431 C1435 1.400 . S
C1432 H1417 0.960 . S
C1432 H1418 0.960 . S
C1432 H1419 0.960 . S
C1432 C1431 1.524 . S
C1433 C1430 1.403 . S
C1433 C1434 1.396 . S
C1433 C1437 1.495 . S
C1434 C1433 1.396 . S
C1434 C1435 1.382 1_565 S
C1434 C1436 1.476 1_565 S
C1435 H1429 0.930 . S
C1435 C1431 1.400 . S
C1435 C1434 1.382 1_545 S
C1436 C1434 1.476 1_545 S
C1436 C1438 1.381 . S
C1436 C1442 1.383 . S
C1437 C1433 1.495 . S
C1437 H1443 0.959 . S
C1437 H1444 0.961 . S
C1437 H1445 0.960 . S
C1438 C1436 1.381 . S
C1438 C1439 1.394 . S
C1438 H1446 0.930 . S
C1439 C1438 1.394 . S
C1439 C1440 1.383 . S
C1439 H1447 0.929 . S
C1440 C1439 1.383 . S
C1440 C1441 1.377 . S
C1441 H1425 0.930 . S
C1441 C1440 1.377 . S
C1441 C1442 1.379 . S
C1442 H1426 0.931 . S
C1442 C1436 1.383 . S
C1442 C1441 1.379 . S
H1443 C1437 0.959 . S
H1444 C1437 0.961 . S
H1445 C1437 0.960 . S
H1446 C1438 0.930 . S
H1447 C1439 0.929 . S
H1448 C1456 0.929 . S
H1449 C1458 0.930 . S
H1450 C1460 0.930 . S
H1451 C1463 0.929 . S
H1452 C1466 0.930 . S
H1453 C1468 0.960 . S
H1454 C1468 0.960 . S
H1455 C1468 0.960 . S
C1456 H1448 0.929 . S
C1456 C1457 1.377 . S
C1456 C1458 1.384 . S
C1457 C1456 1.377 . S
C1457 C1463 1.390 . S
C1458 H1449 0.930 . S
C1458 C1456 1.384 . S
C1458 C1459 1.372 . S
C1459 C1458 1.372 . S
C1459 C1460 1.400 . S
C1459 C1464 1.490 . S
C1460 H1450 0.930 . S
C1460 C1459 1.400 . S
C1460 C1463 1.386 . S
H1461 C1477 0.930 . S
H1462 C1478 0.931 . S
C1463 H1451 0.929 . S
C1463 C1457 1.390 . S
C1463 C1460 1.386 . S
C1464 C1459 1.490 . S
C1464 C1466 1.395 . S
C1464 C1467 1.403 . S
H1465 C1471 0.930 . S
C1466 H1452 0.930 . S
C1466 C1464 1.395 . S
C1466 C1469 1.403 . S
C1467 C1464 1.403 . S
C1467 C1468 1.524 . S
C1467 C1471 1.400 . S
C1468 H1453 0.960 . S
C1468 H1454 0.960 . S
C1468 H1455 0.960 . S
C1468 C1467 1.524 . S
C1469 C1466 1.403 . S
C1469 C1470 1.392 . S
C1469 C1473 1.495 . S
C1470 C1469 1.392 . S
C1470 C1471 1.385 . S
C1470 C1472 1.478 . S
C1471 H1465 0.930 . S
C1471 C1467 1.400 . S
C1471 C1470 1.385 . S
C1472 C1470 1.478 . S
C1472 C1474 1.381 . S
C1472 C1478 1.383 . S
C1473 C1469 1.495 . S
C1473 H1479 0.959 . S
C1473 H1480 0.961 . S
C1473 H1481 0.960 . S
C1474 C1472 1.381 . S
C1474 C1475 1.394 . S
C1474 H1482 0.930 . S
C1475 C1474 1.394 . S
C1475 C1476 1.383 . S
C1475 H1483 0.929 . S
C1476 C1475 1.383 . S
C1476 C1477 1.377 . S
C1477 H1461 0.930 . S
C1477 C1476 1.377 . S
C1477 C1478 1.379 . S
C1478 H1462 0.931 . S
C1478 C1472 1.383 . S
C1478 C1477 1.379 . S
H1479 C1473 0.959 . S
H1480 C1473 0.961 . S
H1481 C1473 0.960 . S
H1482 C1474 0.930 . S
H1483 C1475 0.929 . S
H1484 C1492 0.929 . S
H1485 C1494 0.930 . S
H1486 C1496 0.930 . S
H1487 C1499 0.929 . S
H1488 C1502 0.930 . S
H1489 C1504 0.960 . S
H1490 C1504 0.960 . S
H1491 C1504 0.960 . S
C1492 H1484 0.929 . S
C1492 C1493 1.377 . S
C1492 C1494 1.384 . S
C1493 C1492 1.377 . S
C1493 C1499 1.390 . S
C1494 H1485 0.930 . S
C1494 C1492 1.384 . S
C1494 C1495 1.372 . S
C1495 C1494 1.372 . S
C1495 C1496 1.400 . S
C1495 C1500 1.490 1_455 S
C1496 H1486 0.930 . S
C1496 C1495 1.400 . S
C1496 C1499 1.386 . S
H1497 C1513 0.930 . S
H1498 C1514 0.931 . S
C1499 H1487 0.929 . S
C1499 C1493 1.390 . S
C1499 C1496 1.386 . S
C1500 C1495 1.490 1_655 S
C1500 C1502 1.395 1_565 S
C1500 C1503 1.403 . S
H1501 C1507 0.930 . S
C1502 H1488 0.930 . S
C1502 C1500 1.395 1_545 S
C1502 C1505 1.403 . S
C1503 C1500 1.403 . S
C1503 C1504 1.524 . S
C1503 C1507 1.400 . S
C1504 H1489 0.960 . S
C1504 H1490 0.960 . S
C1504 H1491 0.960 . S
C1504 C1503 1.524 . S
C1505 C1502 1.403 . S
C1505 C1506 1.392 . S
C1505 C1509 1.495 . S
C1506 C1505 1.392 . S
C1506 C1507 1.385 1_545 S
C1506 C1508 1.478 . S
C1507 H1501 0.930 . S
C1507 C1503 1.400 . S
C1507 C1506 1.385 1_565 S
C1508 C1506 1.478 . S
C1508 C1510 1.381 . S
C1508 C1514 1.383 . S
C1509 C1505 1.495 . S
C1509 H1515 0.959 . S
C1509 H1516 0.961 . S
C1509 H1517 0.960 . S
C1510 C1508 1.381 . S
C1510 C1511 1.394 . S
C1510 H1518 0.930 . S
C1511 C1510 1.394 . S
C1511 C1512 1.383 . S
C1511 H1519 0.929 . S
C1512 C1511 1.383 . S
C1512 C1513 1.377 . S
C1513 H1497 0.930 . S
C1513 C1512 1.377 . S
C1513 C1514 1.379 . S
C1514 H1498 0.931 . S
C1514 C1508 1.383 . S
C1514 C1513 1.379 . S
H1515 C1509 0.959 . S
H1516 C1509 0.961 . S
H1517 C1509 0.960 . S
H1518 C1510 0.930 . S
H1519 C1511 0.929 . S
H1520 C1528 0.929 . S
H1521 C1530 0.930 . S
H1522 C1532 0.930 . S
H1523 C1535 0.929 . S
H1524 C1538 0.930 . S
H1525 C1540 0.960 . S
H1526 C1540 0.960 . S
H1527 C1540 0.960 . S
C1528 H1520 0.929 . S
C1528 C1529 1.377 . S
C1528 C1530 1.384 . S
C1529 C1528 1.377 . S
C1529 C1535 1.390 . S
C1530 H1521 0.930 . S
C1530 C1528 1.384 . S
C1530 C1531 1.372 . S
C1531 C1530 1.372 . S
C1531 C1532 1.400 . S
C1531 C1536 1.490 . S
C1532 H1522 0.930 . S
C1532 C1531 1.400 . S
C1532 C1535 1.386 . S
H1533 C1549 0.930 . S
H1534 C1550 0.931 . S
C1535 H1523 0.929 . S
C1535 C1529 1.390 . S
C1535 C1532 1.386 . S
C1536 C1531 1.490 . S
C1536 C1538 1.395 . S
C1536 C1539 1.403 . S
H1537 C1543 0.930 . S
C1538 H1524 0.930 . S
C1538 C1536 1.395 . S
C1538 C1541 1.403 . S
C1539 C1536 1.403 . S
C1539 C1540 1.524 . S
C1539 C1543 1.400 . S
C1540 H1525 0.960 . S
C1540 H1526 0.960 . S
C1540 H1527 0.960 . S
C1540 C1539 1.524 . S
C1541 C1538 1.403 . S
C1541 C1542 1.392 . S
C1541 C1545 1.495 . S
C1542 C1541 1.392 . S
C1542 C1543 1.385 . S
C1542 C1544 1.478 . S
C1543 H1537 0.930 . S
C1543 C1539 1.400 . S
C1543 C1542 1.385 . S
C1544 C1542 1.478 . S
C1544 C1546 1.381 . S
C1544 C1550 1.383 . S
C1545 C1541 1.495 . S
C1545 H1551 0.959 . S
C1545 H1552 0.961 . S
C1545 H1553 0.960 . S
C1546 C1544 1.381 . S
C1546 C1547 1.394 . S
C1546 H1554 0.930 . S
C1547 C1546 1.394 . S
C1547 C1548 1.383 . S
C1547 H1555 0.929 . S
C1548 C1547 1.383 . S
C1548 C1549 1.377 . S
C1549 H1533 0.930 . S
C1549 C1548 1.377 . S
C1549 C1550 1.379 . S
C1550 H1534 0.931 . S
C1550 C1544 1.383 . S
C1550 C1549 1.379 . S
H1551 C1545 0.959 . S
H1552 C1545 0.961 . S
H1553 C1545 0.960 . S
H1554 C1546 0.930 . S
H1555 C1547 0.929 . S
H1556 C1564 0.929 . S
H1557 C1566 0.930 . S
H1558 C1568 0.930 . S
H1559 C1571 0.929 . S
H1560 C1574 0.930 . S
H1561 C1576 0.960 . S
H1562 C1576 0.960 . S
H1563 C1576 0.960 . S
C1564 H1556 0.929 . S
C1564 C1565 1.377 . S
C1564 C1566 1.384 . S
C1565 C1564 1.377 . S
C1565 C1571 1.390 . S
C1566 H1557 0.930 . S
C1566 C1564 1.384 . S
C1566 C1567 1.372 . S
C1567 C1566 1.372 . S
C1567 C1568 1.400 . S
C1567 C1572 1.490 1_455 S
C1568 H1558 0.930 . S
C1568 C1567 1.400 . S
C1568 C1571 1.386 . S
H1569 C1585 0.930 . S
H1570 C1586 0.931 . S
C1571 H1559 0.929 . S
C1571 C1565 1.390 . S
C1571 C1568 1.386 . S
C1572 C1567 1.490 1_655 S
C1572 C1574 1.395 1_545 S
C1572 C1575 1.403 . S
H1573 C1579 0.930 . S
C1574 H1560 0.930 . S
C1574 C1572 1.395 1_565 S
C1574 C1577 1.403 . S
C1575 C1572 1.403 . S
C1575 C1576 1.524 . S
C1575 C1579 1.400 . S
C1576 H1561 0.960 . S
C1576 H1562 0.960 . S
C1576 H1563 0.960 . S
C1576 C1575 1.524 . S
C1577 C1574 1.403 . S
C1577 C1578 1.392 . S
C1577 C1581 1.495 . S
C1578 C1577 1.392 . S
C1578 C1579 1.385 1_565 S
C1578 C1580 1.478 . S
C1579 H1573 0.930 . S
C1579 C1575 1.400 . S
C1579 C1578 1.385 1_545 S
C1580 C1578 1.478 . S
C1580 C1582 1.381 . S
C1580 C1586 1.383 . S
C1581 C1577 1.495 . S
C1581 H1587 0.959 . S
C1581 H1588 0.961 . S
C1581 H1589 0.960 . S
C1582 C1580 1.381 . S
C1582 C1583 1.394 . S
C1582 H1590 0.930 . S
C1583 C1582 1.394 . S
C1583 C1584 1.383 . S
C1583 H1591 0.929 . S
C1584 C1583 1.383 . S
C1584 C1585 1.377 . S
C1585 H1569 0.930 . S
C1585 C1584 1.377 . S
C1585 C1586 1.379 . S
C1586 H1570 0.931 . S
C1586 C1580 1.383 . S
C1586 C1585 1.379 . S
H1587 C1581 0.959 . S
H1588 C1581 0.961 . S
H1589 C1581 0.960 . S
H1590 C1582 0.930 . S
H1591 C1583 0.929 . S
H1592 C1600 0.929 . S
H1593 C1602 0.930 . S
H1594 C1604 0.930 . S
H1595 C1607 0.929 . S
H1596 C1610 0.930 . S
H1597 C1612 0.960 . S
H1598 C1612 0.960 . S
H1599 C1612 0.960 . S
C1600 H1592 0.929 . S
C1600 C1601 1.377 . S
C1600 C1602 1.384 . S
C1601 C1600 1.377 . S
C1601 C1607 1.390 . S
C1602 H1593 0.930 . S
C1602 C1600 1.384 . S
C1602 C1603 1.372 . S
C1603 C1602 1.372 . S
C1603 C1604 1.400 . S
C1603 C1608 1.490 . S
C1604 H1594 0.930 . S
C1604 C1603 1.400 . S
C1604 C1607 1.386 . S
H1605 C1621 0.930 . S
H1606 C1622 0.931 . S
C1607 H1595 0.929 . S
C1607 C1601 1.390 . S
C1607 C1604 1.386 . S
C1608 C1603 1.490 . S
C1608 C1610 1.395 . S
C1608 C1611 1.403 . S
H1609 C1615 0.930 . S
C1610 H1596 0.930 . S
C1610 C1608 1.395 . S
C1610 C1613 1.403 . S
C1611 C1608 1.403 . S
C1611 C1612 1.524 . S
C1611 C1615 1.400 . S
C1612 H1597 0.960 . S
C1612 H1598 0.960 . S
C1612 H1599 0.960 . S
C1612 C1611 1.524 . S
C1613 C1610 1.403 . S
C1613 C1614 1.392 . S
C1613 C1617 1.495 . S
C1614 C1613 1.392 . S
C1614 C1615 1.385 . S
C1614 C1616 1.478 . S
C1615 H1609 0.930 . S
C1615 C1611 1.400 . S
C1615 C1614 1.385 . S
C1616 C1614 1.478 . S
C1616 C1618 1.381 . S
C1616 C1622 1.383 . S
C1617 C1613 1.495 . S
C1617 H1623 0.959 . S
C1617 H1624 0.961 . S
C1617 H1625 0.960 . S
C1618 C1616 1.381 . S
C1618 C1619 1.394 . S
C1618 H1626 0.930 . S
C1619 C1618 1.394 . S
C1619 C1620 1.383 . S
C1619 H1627 0.929 . S
C1620 C1619 1.383 . S
C1620 C1621 1.377 . S
C1621 H1605 0.930 . S
C1621 C1620 1.377 . S
C1621 C1622 1.379 . S
C1622 H1606 0.931 . S
C1622 C1616 1.383 . S
C1622 C1621 1.379 . S
H1623 C1617 0.959 . S
H1624 C1617 0.961 . S
H1625 C1617 0.960 . S
H1626 C1618 0.930 . S
H1627 C1619 0.929 . S
H1628 C1636 0.929 . S
H1629 C1638 0.930 1_565 S
H1630 C1640 0.930 . S
H1631 C1643 0.929 . S
H1632 C1646 0.930 . S
H1633 C1648 0.960 . S
H1634 C1648 0.960 . S
H1635 C1648 0.960 . S
C1636 H1628 0.929 . S
C1636 C1637 1.377 . S
C1636 C1638 1.384 . S
C1637 C1636 1.377 . S
C1637 C1643 1.390 . S
C1638 H1629 0.930 1_545 S
C1638 C1636 1.384 . S
C1638 C1639 1.372 . S
C1639 C1638 1.372 . S
C1639 C1640 1.400 . S
C1639 C1644 1.490 . S
C1640 H1630 0.930 . S
C1640 C1639 1.400 . S
C1640 C1643 1.386 . S
H1641 C1657 0.930 . S
H1642 C1658 0.931 1_545 S
C1643 H1631 0.929 . S
C1643 C1637 1.390 . S
C1643 C1640 1.386 . S
C1644 C1639 1.490 . S
C1644 C1646 1.395 1_545 S
C1644 C1647 1.403 . S
H1645 C1651 0.930 . S
C1646 H1632 0.930 . S
C1646 C1644 1.395 1_565 S
C1646 C1649 1.403 . S
C1647 C1644 1.403 . S
C1647 C1648 1.524 . S
C1647 C1651 1.400 . S
C1648 H1633 0.960 . S
C1648 H1634 0.960 . S
C1648 H1635 0.960 . S
C1648 C1647 1.524 . S
C1649 C1646 1.403 . S
C1649 C1650 1.392 . S
C1649 C1653 1.495 . S
C1650 C1649 1.392 . S
C1650 C1651 1.385 1_565 S
C1650 C1652 1.478 . S
C1651 H1645 0.930 . S
C1651 C1647 1.400 . S
C1651 C1650 1.385 1_545 S
C1652 C1650 1.478 . S
C1652 C1654 1.381 . S
C1652 C1658 1.383 . S
C1653 C1649 1.495 . S
C1653 H1659 0.959 . S
C1653 H1660 0.961 . S
C1653 H1661 0.960 . S
C1654 C1652 1.381 . S
C1654 C1655 1.394 . S
C1654 H1662 0.930 . S
C1655 C1654 1.394 . S
C1655 C1656 1.383 . S
C1655 H1663 0.929 . S
C1656 C1655 1.383 . S
C1656 C1657 1.377 . S
C1657 H1641 0.930 . S
C1657 C1656 1.377 . S
C1657 C1658 1.379 . S
C1658 H1642 0.931 1_565 S
C1658 C1652 1.383 . S
C1658 C1657 1.379 . S
H1659 C1653 0.959 . S
H1660 C1653 0.961 . S
H1661 C1653 0.960 . S
H1662 C1654 0.930 . S
H1663 C1655 0.929 . S
H1664 C1672 0.929 . S
H1665 C1674 0.930 . S
H1666 C1676 0.930 . S
H1667 C1679 0.929 . S
H1668 C1682 0.930 . S
H1669 C1684 0.960 . S
H1670 C1684 0.960 . S
H1671 C1684 0.960 . S
C1672 H1664 0.929 . S
C1672 C1673 1.377 . S
C1672 C1674 1.384 . S
C1673 C1672 1.377 . S
C1673 C1679 1.390 . S
C1674 H1665 0.930 . S
C1674 C1672 1.384 . S
C1674 C1675 1.372 . S
C1675 C1674 1.372 . S
C1675 C1676 1.400 . S
C1675 C1680 1.490 . S
C1676 H1666 0.930 . S
C1676 C1675 1.400 . S
C1676 C1679 1.386 . S
H1677 C1693 0.930 . S
H1678 C1694 0.931 . S
C1679 H1667 0.929 . S
C1679 C1673 1.390 . S
C1679 C1676 1.386 . S
C1680 C1675 1.490 . S
C1680 C1682 1.395 . S
C1680 C1683 1.403 . S
H1681 C1687 0.930 . S
C1682 H1668 0.930 . S
C1682 C1680 1.395 . S
C1682 C1685 1.403 . S
C1683 C1680 1.403 . S
C1683 C1684 1.524 . S
C1683 C1687 1.400 . S
C1684 H1669 0.960 . S
C1684 H1670 0.960 . S
C1684 H1671 0.960 . S
C1684 C1683 1.524 . S
C1685 C1682 1.403 . S
C1685 C1686 1.392 . S
C1685 C1689 1.495 . S
C1686 C1685 1.392 . S
C1686 C1687 1.385 . S
C1686 C1688 1.478 . S
C1687 H1681 0.930 . S
C1687 C1683 1.400 . S
C1687 C1686 1.385 . S
C1688 C1686 1.478 . S
C1688 C1690 1.381 . S
C1688 C1694 1.383 . S
C1689 C1685 1.495 . S
C1689 H1695 0.959 . S
C1689 H1696 0.961 . S
C1689 H1697 0.960 . S
C1690 C1688 1.381 . S
C1690 C1691 1.394 . S
C1690 H1698 0.930 . S
C1691 C1690 1.394 . S
C1691 C1692 1.383 . S
C1691 H1699 0.929 . S
C1692 C1691 1.383 . S
C1692 C1693 1.377 . S
C1693 H1677 0.930 . S
C1693 C1692 1.377 . S
C1693 C1694 1.379 . S
C1694 H1678 0.931 . S
C1694 C1688 1.383 . S
C1694 C1693 1.379 . S
H1695 C1689 0.959 . S
H1696 C1689 0.961 . S
H1697 C1689 0.960 . S
H1698 C1690 0.930 . S
H1699 C1691 0.929 . S
H1700 C1708 0.929 . S
H1701 C1710 0.930 . S
H1702 C1712 0.930 . S
H1703 C1715 0.929 . S
H1704 C1718 0.930 . S
H1705 C1720 0.960 . S
H1706 C1720 0.960 . S
H1707 C1720 0.960 . S
C1708 H1700 0.929 . S
C1708 C1709 1.377 . S
C1708 C1710 1.384 . S
C1709 C1708 1.377 . S
C1709 C1715 1.390 . S
C1710 H1701 0.930 . S
C1710 C1708 1.384 . S
C1710 C1711 1.372 . S
C1711 C1710 1.372 . S
C1711 C1712 1.400 . S
C1711 C1716 1.490 1_455 S
C1712 H1702 0.930 . S
C1712 C1711 1.400 . S
C1712 C1715 1.386 . S
H1713 C1729 0.930 . S
H1714 C1730 0.931 . S
C1715 H1703 0.929 . S
C1715 C1709 1.390 . S
C1715 C1712 1.386 . S
C1716 C1711 1.490 1_655 S
C1716 C1718 1.395 . S
C1716 C1719 1.403 . S
H1717 C1723 0.930 . S
C1718 H1704 0.930 . S
C1718 C1716 1.395 . S
C1718 C1721 1.403 . S
C1719 C1716 1.403 . S
C1719 C1720 1.524 . S
C1719 C1723 1.400 . S
C1720 H1705 0.960 . S
C1720 H1706 0.960 . S
C1720 H1707 0.960 . S
C1720 C1719 1.524 . S
C1721 C1718 1.403 . S
C1721 C1722 1.392 . S
C1721 C1725 1.495 . S
C1722 C1721 1.392 . S
C1722 C1723 1.385 . S
C1722 C1724 1.478 . S
C1723 H1717 0.930 . S
C1723 C1719 1.400 . S
C1723 C1722 1.385 . S
C1724 C1722 1.478 . S
C1724 C1726 1.381 . S
C1724 C1730 1.383 . S
C1725 C1721 1.495 . S
C1725 H1731 0.959 . S
C1725 H1732 0.961 . S
C1725 H1733 0.960 . S
C1726 C1724 1.381 . S
C1726 C1727 1.394 . S
C1726 H1734 0.930 . S
C1727 C1726 1.394 . S
C1727 C1728 1.383 . S
C1727 H1735 0.929 . S
C1728 C1727 1.383 . S
C1728 C1729 1.377 . S
C1729 H1713 0.930 . S
C1729 C1728 1.377 . S
C1729 C1730 1.379 . S
C1730 H1714 0.931 . S
C1730 C1724 1.383 . S
C1730 C1729 1.379 . S
H1731 C1725 0.959 . S
H1732 C1725 0.961 . S
H1733 C1725 0.960 . S
H1734 C1726 0.930 . S
H1735 C1727 0.929 . S
H1736 C1744 0.929 . S
H1737 C1746 0.930 . S
H1738 C1748 0.930 . S
H1739 C1751 0.929 . S
H1740 C1754 0.930 . S
H1741 C1756 0.960 . S
H1742 C1756 0.960 . S
H1743 C1756 0.960 . S
C1744 H1736 0.929 . S
C1744 C1745 1.377 . S
C1744 C1746 1.384 . S
C1745 C1744 1.377 . S
C1745 C1751 1.390 . S
C1746 H1737 0.930 . S
C1746 C1744 1.384 . S
C1746 C1747 1.372 . S
C1747 C1746 1.372 . S
C1747 C1748 1.400 . S
C1747 C1752 1.490 . S
C1748 H1738 0.930 . S
C1748 C1747 1.400 . S
C1748 C1751 1.386 . S
H1749 C1765 0.930 . S
H1750 C1766 0.931 . S
C1751 H1739 0.929 . S
C1751 C1745 1.390 . S
C1751 C1748 1.386 . S
C1752 C1747 1.490 . S
C1752 C1754 1.395 . S
C1752 C1755 1.403 . S
H1753 C1759 0.930 . S
C1754 H1740 0.930 . S
C1754 C1752 1.395 . S
C1754 C1757 1.403 . S
C1755 C1752 1.403 . S
C1755 C1756 1.524 . S
C1755 C1759 1.400 . S
C1756 H1741 0.960 . S
C1756 H1742 0.960 . S
C1756 H1743 0.960 . S
C1756 C1755 1.524 . S
C1757 C1754 1.403 . S
C1757 C1758 1.392 . S
C1757 C1761 1.495 . S
C1758 C1757 1.392 . S
C1758 C1759 1.385 . S
C1758 C1760 1.478 . S
C1759 H1753 0.930 . S
C1759 C1755 1.400 . S
C1759 C1758 1.385 . S
C1760 C1758 1.478 . S
C1760 C1762 1.381 . S
C1760 C1766 1.383 . S
C1761 C1757 1.495 . S
C1761 H1767 0.959 . S
C1761 H1768 0.961 . S
C1761 H1769 0.960 . S
C1762 C1760 1.381 . S
C1762 C1763 1.394 . S
C1762 H1770 0.930 . S
C1763 C1762 1.394 . S
C1763 C1764 1.383 . S
C1763 H1771 0.929 . S
C1764 C1763 1.383 . S
C1764 C1765 1.377 . S
C1765 H1749 0.930 . S
C1765 C1764 1.377 . S
C1765 C1766 1.379 . S
C1766 H1750 0.931 . S
C1766 C1760 1.383 . S
C1766 C1765 1.379 . S
H1767 C1761 0.959 . S
H1768 C1761 0.961 . S
H1769 C1761 0.960 . S
H1770 C1762 0.930 . S
H1771 C1763 0.929 . S
H1772 C1780 0.929 . S
H1773 C1782 0.930 . S
H1774 C1784 0.930 . S
H1775 C1787 0.929 . S
H1776 C1790 0.930 . S
H1777 C1792 0.960 . S
H1778 C1792 0.960 . S
H1779 C1792 0.960 . S
C1780 H1772 0.929 . S
C1780 C1781 1.377 . S
C1780 C1782 1.384 . S
C1781 C1780 1.377 . S
C1781 C1787 1.390 . S
C1782 H1773 0.930 . S
C1782 C1780 1.384 . S
C1782 C1783 1.372 . S
C1783 C1782 1.372 . S
C1783 C1784 1.400 . S
C1783 C1788 1.490 . S
C1784 H1774 0.930 . S
C1784 C1783 1.400 . S
C1784 C1787 1.386 . S
H1785 C1801 0.930 . S
H1786 C1802 0.931 . S
C1787 H1775 0.929 . S
C1787 C1781 1.390 . S
C1787 C1784 1.386 . S
C1788 C1783 1.490 . S
C1788 C1790 1.395 . S
C1788 C1791 1.403 . S
H1789 C1795 0.930 . S
C1790 H1776 0.930 . S
C1790 C1788 1.395 . S
C1790 C1793 1.403 . S
C1791 C1788 1.403 . S
C1791 C1792 1.524 . S
C1791 C1795 1.400 . S
C1792 H1777 0.960 . S
C1792 H1778 0.960 . S
C1792 H1779 0.960 . S
C1792 C1791 1.524 . S
C1793 C1790 1.403 . S
C1793 C1794 1.392 . S
C1793 C1797 1.495 . S
C1794 C1793 1.392 . S
C1794 C1795 1.385 . S
C1794 C1796 1.478 . S
C1795 H1789 0.930 . S
C1795 C1791 1.400 . S
C1795 C1794 1.385 . S
C1796 C1794 1.478 . S
C1796 C1798 1.381 . S
C1796 C1802 1.383 . S
C1797 C1793 1.495 . S
C1797 H1803 0.959 . S
C1797 H1804 0.961 . S
C1797 H1805 0.960 . S
C1798 C1796 1.381 . S
C1798 C1799 1.394 . S
C1798 H1806 0.930 . S
C1799 C1798 1.394 . S
C1799 C1800 1.383 . S
C1799 H1807 0.929 . S
C1800 C1799 1.383 . S
C1800 C1801 1.377 . S
C1801 H1785 0.930 . S
C1801 C1800 1.377 . S
C1801 C1802 1.379 . S
C1802 H1786 0.931 . S
C1802 C1796 1.383 . S
C1802 C1801 1.379 . S
H1803 C1797 0.959 . S
H1804 C1797 0.961 . S
H1805 C1797 0.960 . S
H1806 C1798 0.930 . S
H1807 C1799 0.929 . S
H1808 C1816 0.929 . S
H1809 C1818 0.930 . S
H1810 C1820 0.930 . S
H1811 C1823 0.929 . S
H1812 C1826 0.930 . S
H1813 C1828 0.960 . S
H1814 C1828 0.960 . S
H1815 C1828 0.960 . S
C1816 H1808 0.929 . S
C1816 C1817 1.377 . S
C1816 C1818 1.384 . S
C1817 C1816 1.377 . S
C1817 C1823 1.390 . S
C1818 H1809 0.930 . S
C1818 C1816 1.384 . S
C1818 C1819 1.372 . S
C1819 C1818 1.372 . S
C1819 C1820 1.400 . S
C1819 C1824 1.490 . S
C1820 H1810 0.930 . S
C1820 C1819 1.400 . S
C1820 C1823 1.386 . S
H1821 C1837 0.930 . S
H1822 C1838 0.931 . S
C1823 H1811 0.929 . S
C1823 C1817 1.390 . S
C1823 C1820 1.386 . S
C1824 C1819 1.490 . S
C1824 C1826 1.395 . S
C1824 C1827 1.403 . S
H1825 C1831 0.930 . S
C1826 H1812 0.930 . S
C1826 C1824 1.395 . S
C1826 C1829 1.403 . S
C1827 C1824 1.403 . S
C1827 C1828 1.524 . S
C1827 C1831 1.400 . S
C1828 H1813 0.960 . S
C1828 H1814 0.960 . S
C1828 H1815 0.960 . S
C1828 C1827 1.524 . S
C1829 C1826 1.403 . S
C1829 C1830 1.392 . S
C1829 C1833 1.495 . S
C1830 C1829 1.392 . S
C1830 C1831 1.385 . S
C1830 C1832 1.478 . S
C1831 H1825 0.930 . S
C1831 C1827 1.400 . S
C1831 C1830 1.385 . S
C1832 C1830 1.478 . S
C1832 C1834 1.381 . S
C1832 C1838 1.383 . S
C1833 C1829 1.495 . S
C1833 H1839 0.959 . S
C1833 H1840 0.961 . S
C1833 H1841 0.960 . S
C1834 C1832 1.381 . S
C1834 C1835 1.394 . S
C1834 H1842 0.930 . S
C1835 C1834 1.394 . S
C1835 C1836 1.383 . S
C1835 H1843 0.929 . S
C1836 C1835 1.383 . S
C1836 C1837 1.377 . S
C1837 H1821 0.930 . S
C1837 C1836 1.377 . S
C1837 C1838 1.379 . S
C1838 H1822 0.931 . S
C1838 C1832 1.383 . S
C1838 C1837 1.379 . S
H1839 C1833 0.959 . S
H1840 C1833 0.961 . S
H1841 C1833 0.960 . S
H1842 C1834 0.930 . S
H1843 C1835 0.929 . S
H1844 C1852 0.929 . S
H1845 C1854 0.930 . S
H1846 C1856 0.930 . S
H1847 C1859 0.929 . S
H1848 C1862 0.930 . S
H1849 C1864 0.960 . S
H1850 C1864 0.960 . S
H1851 C1864 0.960 . S
C1852 H1844 0.929 . S
C1852 C1853 1.377 . S
C1852 C1854 1.384 . S
C1853 C1852 1.377 . S
C1853 C1859 1.390 . S
C1854 H1845 0.930 . S
C1854 C1852 1.384 . S
C1854 C1855 1.372 . S
C1855 C1854 1.372 . S
C1855 C1856 1.400 . S
C1855 C1860 1.490 . S
C1856 H1846 0.930 . S
C1856 C1855 1.400 . S
C1856 C1859 1.386 . S
H1857 C1873 0.930 . S
H1858 C1874 0.931 . S
C1859 H1847 0.929 . S
C1859 C1853 1.390 . S
C1859 C1856 1.386 . S
C1860 C1855 1.490 . S
C1860 C1862 1.395 . S
C1860 C1863 1.403 . S
H1861 C1867 0.930 . S
C1862 H1848 0.930 . S
C1862 C1860 1.395 . S
C1862 C1865 1.403 . S
C1863 C1860 1.403 . S
C1863 C1864 1.524 . S
C1863 C1867 1.400 . S
C1864 H1849 0.960 . S
C1864 H1850 0.960 . S
C1864 H1851 0.960 . S
C1864 C1863 1.524 . S
C1865 C1862 1.403 . S
C1865 C1866 1.392 . S
C1865 C1869 1.495 . S
C1866 C1865 1.392 . S
C1866 C1867 1.385 . S
C1866 C1868 1.478 . S
C1867 H1861 0.930 . S
C1867 C1863 1.400 . S
C1867 C1866 1.385 . S
C1868 C1866 1.478 . S
C1868 C1870 1.381 . S
C1868 C1874 1.383 . S
C1869 C1865 1.495 . S
C1869 H1875 0.959 . S
C1869 H1876 0.961 . S
C1869 H1877 0.960 . S
C1870 C1868 1.381 . S
C1870 C1871 1.394 . S
C1870 H1878 0.930 . S
C1871 C1870 1.394 . S
C1871 C1872 1.383 . S
C1871 H1879 0.929 . S
C1872 C1871 1.383 . S
C1872 C1873 1.377 . S
C1873 H1857 0.930 . S
C1873 C1872 1.377 . S
C1873 C1874 1.379 . S
C1874 H1858 0.931 . S
C1874 C1868 1.383 . S
C1874 C1873 1.379 . S
H1875 C1869 0.959 . S
H1876 C1869 0.961 . S
H1877 C1869 0.960 . S
H1878 C1870 0.930 . S
H1879 C1871 0.929 . S
H1880 C1888 0.929 . S
H1881 C1890 0.930 . S
H1882 C1892 0.930 . S
H1883 C1895 0.929 . S
H1884 C1898 0.930 . S
H1885 C1900 0.960 . S
H1886 C1900 0.960 . S
H1887 C1900 0.960 . S
C1888 H1880 0.929 . S
C1888 C1889 1.377 . S
C1888 C1890 1.384 . S
C1889 C1888 1.377 . S
C1889 C1895 1.390 . S
C1890 H1881 0.930 . S
C1890 C1888 1.384 . S
C1890 C1891 1.372 . S
C1891 C1890 1.372 . S
C1891 C1892 1.400 . S
C1891 C1896 1.490 . S
C1892 H1882 0.930 . S
C1892 C1891 1.400 . S
C1892 C1895 1.386 . S
H1893 C1909 0.930 . S
H1894 C1910 0.931 . S
C1895 H1883 0.929 . S
C1895 C1889 1.390 . S
C1895 C1892 1.386 . S
C1896 C1891 1.490 . S
C1896 C1898 1.395 . S
C1896 C1899 1.403 . S
H1897 C1903 0.930 . S
C1898 H1884 0.930 . S
C1898 C1896 1.395 . S
C1898 C1901 1.403 . S
C1899 C1896 1.403 . S
C1899 C1900 1.524 . S
C1899 C1903 1.400 . S
C1900 H1885 0.960 . S
C1900 H1886 0.960 . S
C1900 H1887 0.960 . S
C1900 C1899 1.524 . S
C1901 C1898 1.403 . S
C1901 C1902 1.392 . S
C1901 C1905 1.495 . S
C1902 C1901 1.392 . S
C1902 C1903 1.385 . S
C1902 C1904 1.478 . S
C1903 H1897 0.930 . S
C1903 C1899 1.400 . S
C1903 C1902 1.385 . S
C1904 C1902 1.478 . S
C1904 C1906 1.381 . S
C1904 C1910 1.383 . S
C1905 C1901 1.495 . S
C1905 H1911 0.959 . S
C1905 H1912 0.961 . S
C1905 H1913 0.960 . S
C1906 C1904 1.381 . S
C1906 C1907 1.394 . S
C1906 H1914 0.930 . S
C1907 C1906 1.394 . S
C1907 C1908 1.383 . S
C1907 H1915 0.929 . S
C1908 C1907 1.383 . S
C1908 C1909 1.377 . S
C1909 H1893 0.930 . S
C1909 C1908 1.377 . S
C1909 C1910 1.379 . S
C1910 H1894 0.931 . S
C1910 C1904 1.383 . S
C1910 C1909 1.379 . S
H1911 C1905 0.959 . S
H1912 C1905 0.961 . S
H1913 C1905 0.960 . S
H1914 C1906 0.930 . S
H1915 C1907 0.929 . S
H1916 C1924 0.929 . S
H1917 C1926 0.930 . S
H1918 C1928 0.930 . S
H1919 C1931 0.929 . S
H1920 C1934 0.930 . S
H1921 C1936 0.960 . S
H1922 C1936 0.960 1_455 S
H1923 C1936 0.960 1_455 S
C1924 H1916 0.929 . S
C1924 C1925 1.377 . S
C1924 C1926 1.384 . S
C1925 C1924 1.377 . S
C1925 C1931 1.390 . S
C1926 H1917 0.930 . S
C1926 C1924 1.384 . S
C1926 C1927 1.372 . S
C1927 C1926 1.372 . S
C1927 C1928 1.400 . S
C1927 C1932 1.490 1_455 S
C1928 H1918 0.930 . S
C1928 C1927 1.400 . S
C1928 C1931 1.386 . S
H1929 C1945 0.930 . S
H1930 C1946 0.931 . S
C1931 H1919 0.929 . S
C1931 C1925 1.390 . S
C1931 C1928 1.386 . S
C1932 C1927 1.490 1_655 S
C1932 C1934 1.395 . S
C1932 C1935 1.403 . S
H1933 C1939 0.930 . S
C1934 H1920 0.930 . S
C1934 C1932 1.395 . S
C1934 C1937 1.403 . S
C1935 C1932 1.403 . S
C1935 C1936 1.524 . S
C1935 C1939 1.400 . S
C1936 H1921 0.960 . S
C1936 H1922 0.960 1_655 S
C1936 H1923 0.960 1_655 S
C1936 C1935 1.524 . S
C1937 C1934 1.403 . S
C1937 C1938 1.392 . S
C1937 C1941 1.495 . S
C1938 C1937 1.392 . S
C1938 C1939 1.385 . S
C1938 C1940 1.478 . S
C1939 H1933 0.930 . S
C1939 C1935 1.400 . S
C1939 C1938 1.385 . S
C1940 C1938 1.478 . S
C1940 C1942 1.381 . S
C1940 C1946 1.383 . S
C1941 C1937 1.495 . S
C1941 H1947 0.959 . S
C1941 H1948 0.961 . S
C1941 H1949 0.960 . S
C1942 C1940 1.381 . S
C1942 C1943 1.394 . S
C1942 H1950 0.930 . S
C1943 C1942 1.394 . S
C1943 C1944 1.383 . S
C1943 H1951 0.929 . S
C1944 C1943 1.383 . S
C1944 C1945 1.377 . S
C1945 H1929 0.930 . S
C1945 C1944 1.377 . S
C1945 C1946 1.379 . S
C1946 H1930 0.931 . S
C1946 C1940 1.383 . S
C1946 C1945 1.379 . S
H1947 C1941 0.959 . S
H1948 C1941 0.961 . S
H1949 C1941 0.960 . S
H1950 C1942 0.930 . S
H1951 C1943 0.929 . S
H1952 C1960 0.929 . S
H1953 C1962 0.930 . S
H1954 C1964 0.930 . S
H1955 C1967 0.929 . S
H1956 C1970 0.930 . S
H1957 C1972 0.960 . S
H1958 C1972 0.960 . S
H1959 C1972 0.960 . S
C1960 H1952 0.929 . S
C1960 C1961 1.377 . S
C1960 C1962 1.384 . S
C1961 C1960 1.377 . S
C1961 C1967 1.390 . S
C1962 H1953 0.930 . S
C1962 C1960 1.384 . S
C1962 C1963 1.372 . S
C1963 C1962 1.372 . S
C1963 C1964 1.400 . S
C1963 C1968 1.490 . S
C1964 H1954 0.930 . S
C1964 C1963 1.400 . S
C1964 C1967 1.386 . S
H1965 C1981 0.930 . S
H1966 C1982 0.931 . S
C1967 H1955 0.929 . S
C1967 C1961 1.390 . S
C1967 C1964 1.386 . S
C1968 C1963 1.490 . S
C1968 C1970 1.395 . S
C1968 C1971 1.403 . S
H1969 C1975 0.930 . S
C1970 H1956 0.930 . S
C1970 C1968 1.395 . S
C1970 C1973 1.403 . S
C1971 C1968 1.403 . S
C1971 C1972 1.524 . S
C1971 C1975 1.400 . S
C1972 H1957 0.960 . S
C1972 H1958 0.960 . S
C1972 H1959 0.960 . S
C1972 C1971 1.524 . S
C1973 C1970 1.403 . S
C1973 C1974 1.392 . S
C1973 C1977 1.495 . S
C1974 C1973 1.392 . S
C1974 C1975 1.385 . S
C1974 C1976 1.478 . S
C1975 H1969 0.930 . S
C1975 C1971 1.400 . S
C1975 C1974 1.385 . S
C1976 C1974 1.478 . S
C1976 C1978 1.381 . S
C1976 C1982 1.383 . S
C1977 C1973 1.495 . S
C1977 H1983 0.959 . S
C1977 H1984 0.961 . S
C1977 H1985 0.960 . S
C1978 C1976 1.381 . S
C1978 C1979 1.394 . S
C1978 H1986 0.930 . S
C1979 C1978 1.394 . S
C1979 C1980 1.383 . S
C1979 H1987 0.929 . S
C1980 C1979 1.383 . S
C1980 C1981 1.377 . S
C1981 H1965 0.930 . S
C1981 C1980 1.377 . S
C1981 C1982 1.379 . S
C1982 H1966 0.931 . S
C1982 C1976 1.383 . S
C1982 C1981 1.379 . S
H1983 C1977 0.959 . S
H1984 C1977 0.961 . S
H1985 C1977 0.960 . S
H1986 C1978 0.930 . S
H1987 C1979 0.929 . S
H1988 C1996 0.929 . S
H1989 C1998 0.930 . S
H1990 C2000 0.930 . S
H1991 C2003 0.929 . S
H1992 C2006 0.930 . S
H1993 C2008 0.960 . S
H1994 C2008 0.960 1_655 S
H1995 C2008 0.960 . S
C1996 H1988 0.929 . S
C1996 C1997 1.377 . S
C1996 C1998 1.384 . S
C1997 C1996 1.377 . S
C1997 C2003 1.390 . S
C1998 H1989 0.930 . S
C1998 C1996 1.384 . S
C1998 C1999 1.372 . S
C1999 C1998 1.372 . S
C1999 C2000 1.400 . S
C1999 C2004 1.490 1_655 S
C2000 H1990 0.930 . S
C2000 C1999 1.400 . S
C2000 C2003 1.386 . S
H2001 C2017 0.930 . S
H2002 C2018 0.931 . S
C2003 H1991 0.929 . S
C2003 C1997 1.390 . S
C2003 C2000 1.386 . S
C2004 C1999 1.490 1_455 S
C2004 C2006 1.395 . S
C2004 C2007 1.403 . S
H2005 C2011 0.930 . S
C2006 H1992 0.930 . S
C2006 C2004 1.395 . S
C2006 C2009 1.403 . S
C2007 C2004 1.403 . S
C2007 C2008 1.524 . S
C2007 C2011 1.400 . S
C2008 H1993 0.960 . S
C2008 H1994 0.960 1_455 S
C2008 H1995 0.960 . S
C2008 C2007 1.524 . S
C2009 C2006 1.403 . S
C2009 C2010 1.392 . S
C2009 C2013 1.495 . S
C2010 C2009 1.392 . S
C2010 C2011 1.385 . S
C2010 C2012 1.478 . S
C2011 H2005 0.930 . S
C2011 C2007 1.400 . S
C2011 C2010 1.385 . S
C2012 C2010 1.478 . S
C2012 C2014 1.381 . S
C2012 C2018 1.383 . S
C2013 C2009 1.495 . S
C2013 H2019 0.959 . S
C2013 H2020 0.961 . S
C2013 H2021 0.960 . S
C2014 C2012 1.381 . S
C2014 C2015 1.394 . S
C2014 H2022 0.930 . S
C2015 C2014 1.394 . S
C2015 C2016 1.383 . S
C2015 H2023 0.929 . S
C2016 C2015 1.383 . S
C2016 C2017 1.377 . S
C2017 H2001 0.930 . S
C2017 C2016 1.377 . S
C2017 C2018 1.379 . S
C2018 H2002 0.931 . S
C2018 C2012 1.383 . S
C2018 C2017 1.379 . S
H2019 C2013 0.959 . S
H2020 C2013 0.961 . S
H2021 C2013 0.960 . S
H2022 C2014 0.930 . S
H2023 C2015 0.929 . S
H2024 C2032 0.929 . S
H2025 C2034 0.930 . S
H2026 C2036 0.930 . S
H2027 C2039 0.929 . S
H2028 C2042 0.930 . S
H2029 C2044 0.960 . S
H2030 C2044 0.960 . S
H2031 C2044 0.960 . S
C2032 H2024 0.929 . S
C2032 C2033 1.377 . S
C2032 C2034 1.384 . S
C2033 C2032 1.377 . S
C2033 C2039 1.390 . S
C2034 H2025 0.930 . S
C2034 C2032 1.384 . S
C2034 C2035 1.372 . S
C2035 C2034 1.372 . S
C2035 C2036 1.400 . S
C2035 C2040 1.490 . S
C2036 H2026 0.930 . S
C2036 C2035 1.400 . S
C2036 C2039 1.386 . S
H2037 C2053 0.930 . S
H2038 C2054 0.931 . S
C2039 H2027 0.929 . S
C2039 C2033 1.390 . S
C2039 C2036 1.386 . S
C2040 C2035 1.490 . S
C2040 C2042 1.395 . S
C2040 C2043 1.403 . S
H2041 C2047 0.930 . S
C2042 H2028 0.930 . S
C2042 C2040 1.395 . S
C2042 C2045 1.403 . S
C2043 C2040 1.403 . S
C2043 C2044 1.524 . S
C2043 C2047 1.400 . S
C2044 H2029 0.960 . S
C2044 H2030 0.960 . S
C2044 H2031 0.960 . S
C2044 C2043 1.524 . S
C2045 C2042 1.403 . S
C2045 C2046 1.392 . S
C2045 C2049 1.495 . S
C2046 C2045 1.392 . S
C2046 C2047 1.385 . S
C2046 C2048 1.478 . S
C2047 H2041 0.930 . S
C2047 C2043 1.400 . S
C2047 C2046 1.385 . S
C2048 C2046 1.478 . S
C2048 C2050 1.381 . S
C2048 C2054 1.383 . S
C2049 C2045 1.495 . S
C2049 H2055 0.959 . S
C2049 H2056 0.961 . S
C2049 H2057 0.960 . S
C2050 C2048 1.381 . S
C2050 C2051 1.394 . S
C2050 H2058 0.930 . S
C2051 C2050 1.394 . S
C2051 C2052 1.383 . S
C2051 H2059 0.929 . S
C2052 C2051 1.383 . S
C2052 C2053 1.377 . S
C2053 H2037 0.930 . S
C2053 C2052 1.377 . S
C2053 C2054 1.379 . S
C2054 H2038 0.931 . S
C2054 C2048 1.383 . S
C2054 C2053 1.379 . S
H2055 C2049 0.959 . S
H2056 C2049 0.961 . S
H2057 C2049 0.960 . S
H2058 C2050 0.930 . S
H2059 C2051 0.929 . S
H2060 C2068 0.929 . S
H2061 C2070 0.930 . S
H2062 C2072 0.930 . S
H2063 C2075 0.929 . S
H2064 C2078 0.930 . S
H2065 C2080 0.960 . S
H2066 C2080 0.960 . S
H2067 C2080 0.960 . S
C2068 H2060 0.929 . S
C2068 C2069 1.377 . S
C2068 C2070 1.384 . S
C2069 C2068 1.377 . S
C2069 C2075 1.390 . S
C2070 H2061 0.930 . S
C2070 C2068 1.384 . S
C2070 C2071 1.372 . S
C2071 C2070 1.372 . S
C2071 C2072 1.400 . S
C2071 C2076 1.490 . S
C2072 H2062 0.930 . S
C2072 C2071 1.400 . S
C2072 C2075 1.386 . S
H2073 C2089 0.930 . S
H2074 C2090 0.931 . S
C2075 H2063 0.929 . S
C2075 C2069 1.390 . S
C2075 C2072 1.386 . S
C2076 C2071 1.490 . S
C2076 C2078 1.395 . S
C2076 C2079 1.403 . S
H2077 C2083 0.930 . S
C2078 H2064 0.930 . S
C2078 C2076 1.395 . S
C2078 C2081 1.403 . S
C2079 C2076 1.403 . S
C2079 C2080 1.524 . S
C2079 C2083 1.400 . S
C2080 H2065 0.960 . S
C2080 H2066 0.960 . S
C2080 H2067 0.960 . S
C2080 C2079 1.524 . S
C2081 C2078 1.403 . S
C2081 C2082 1.392 . S
C2081 C2085 1.495 . S
C2082 C2081 1.392 . S
C2082 C2083 1.385 . S
C2082 C2084 1.478 . S
C2083 H2077 0.930 . S
C2083 C2079 1.400 . S
C2083 C2082 1.385 . S
C2084 C2082 1.478 . S
C2084 C2086 1.381 . S
C2084 C2090 1.383 . S
C2085 C2081 1.495 . S
C2085 H2091 0.959 . S
C2085 H2092 0.961 . S
C2085 H2093 0.960 . S
C2086 C2084 1.381 . S
C2086 C2087 1.394 . S
C2086 H2094 0.930 . S
C2087 C2086 1.394 . S
C2087 C2088 1.383 . S
C2087 H2095 0.929 . S
C2088 C2087 1.383 . S
C2088 C2089 1.377 . S
C2089 H2073 0.930 . S
C2089 C2088 1.377 . S
C2089 C2090 1.379 . S
C2090 H2074 0.931 . S
C2090 C2084 1.383 . S
C2090 C2089 1.379 . S
H2091 C2085 0.959 . S
H2092 C2085 0.961 . S
H2093 C2085 0.960 . S
H2094 C2086 0.930 . S
H2095 C2087 0.929 . S
H2096 C2104 0.929 . S
H2097 C2106 0.930 . S
H2098 C2108 0.930 . S
H2099 C2111 0.929 . S
H2100 C2114 0.930 . S
H2101 C2116 0.960 . S
H2102 C2116 0.960 . S
H2103 C2116 0.960 . S
C2104 H2096 0.929 . S
C2104 C2105 1.377 . S
C2104 C2106 1.384 . S
C2105 C2104 1.377 . S
C2105 C2111 1.390 . S
C2106 H2097 0.930 . S
C2106 C2104 1.384 . S
C2106 C2107 1.372 . S
C2107 C2106 1.372 . S
C2107 C2108 1.400 . S
C2107 C2112 1.490 . S
C2108 H2098 0.930 . S
C2108 C2107 1.400 . S
C2108 C2111 1.386 . S
H2109 C2125 0.930 . S
H2110 C2126 0.931 . S
C2111 H2099 0.929 . S
C2111 C2105 1.390 . S
C2111 C2108 1.386 . S
C2112 C2107 1.490 . S
C2112 C2114 1.395 . S
C2112 C2115 1.403 . S
H2113 C2119 0.930 . S
C2114 H2100 0.930 . S
C2114 C2112 1.395 . S
C2114 C2117 1.403 . S
C2115 C2112 1.403 . S
C2115 C2116 1.524 . S
C2115 C2119 1.400 . S
C2116 H2101 0.960 . S
C2116 H2102 0.960 . S
C2116 H2103 0.960 . S
C2116 C2115 1.524 . S
C2117 C2114 1.403 . S
C2117 C2118 1.392 . S
C2117 C2121 1.495 . S
C2118 C2117 1.392 . S
C2118 C2119 1.385 . S
C2118 C2120 1.478 . S
C2119 H2113 0.930 . S
C2119 C2115 1.400 . S
C2119 C2118 1.385 . S
C2120 C2118 1.478 . S
C2120 C2122 1.381 . S
C2120 C2126 1.383 . S
C2121 C2117 1.495 . S
C2121 H2127 0.959 . S
C2121 H2128 0.961 . S
C2121 H2129 0.960 . S
C2122 C2120 1.381 . S
C2122 C2123 1.394 . S
C2122 H2130 0.930 . S
C2123 C2122 1.394 . S
C2123 C2124 1.383 . S
C2123 H2131 0.929 . S
C2124 C2123 1.383 . S
C2124 C2125 1.377 . S
C2125 H2109 0.930 . S
C2125 C2124 1.377 . S
C2125 C2126 1.379 . S
C2126 H2110 0.931 . S
C2126 C2120 1.383 . S
C2126 C2125 1.379 . S
H2127 C2121 0.959 . S
H2128 C2121 0.961 . S
H2129 C2121 0.960 . S
H2130 C2122 0.930 . S
H2131 C2123 0.929 . S
H2132 C2140 0.929 . S
H2133 C2142 0.930 . S
H2134 C2144 0.930 . S
H2135 C2147 0.929 . S
H2136 C2150 0.930 . S
H2137 C2152 0.960 . S
H2138 C2152 0.960 . S
H2139 C2152 0.960 . S
C2140 H2132 0.929 . S
C2140 C2141 1.377 . S
C2140 C2142 1.384 . S
C2141 C2140 1.377 . S
C2141 C2147 1.390 . S
C2142 H2133 0.930 . S
C2142 C2140 1.384 . S
C2142 C2143 1.372 . S
C2143 C2142 1.372 . S
C2143 C2144 1.400 . S
C2143 C2148 1.490 . S
C2144 H2134 0.930 . S
C2144 C2143 1.400 . S
C2144 C2147 1.386 . S
H2145 C2161 0.930 . S
H2146 C2162 0.931 . S
C2147 H2135 0.929 . S
C2147 C2141 1.390 . S
C2147 C2144 1.386 . S
C2148 C2143 1.490 . S
C2148 C2150 1.395 . S
C2148 C2151 1.403 . S
H2149 C2155 0.930 . S
C2150 H2136 0.930 . S
C2150 C2148 1.395 . S
C2150 C2153 1.403 . S
C2151 C2148 1.403 . S
C2151 C2152 1.524 . S
C2151 C2155 1.400 . S
C2152 H2137 0.960 . S
C2152 H2138 0.960 . S
C2152 H2139 0.960 . S
C2152 C2151 1.524 . S
C2153 C2150 1.403 . S
C2153 C2154 1.392 . S
C2153 C2157 1.495 . S
C2154 C2153 1.392 . S
C2154 C2155 1.385 . S
C2154 C2156 1.478 . S
C2155 H2149 0.930 . S
C2155 C2151 1.400 . S
C2155 C2154 1.385 . S
C2156 C2154 1.478 . S
C2156 C2158 1.381 . S
C2156 C2162 1.383 . S
C2157 C2153 1.495 . S
C2157 H2163 0.959 . S
C2157 H2164 0.961 . S
C2157 H2165 0.960 . S
C2158 C2156 1.381 . S
C2158 C2159 1.394 . S
C2158 H2166 0.930 . S
C2159 C2158 1.394 . S
C2159 C2160 1.383 . S
C2159 H2167 0.929 . S
C2160 C2159 1.383 . S
C2160 C2161 1.377 . S
C2161 H2145 0.930 . S
C2161 C2160 1.377 . S
C2161 C2162 1.379 . S
C2162 H2146 0.931 . S
C2162 C2156 1.383 . S
C2162 C2161 1.379 . S
H2163 C2157 0.959 . S
H2164 C2157 0.961 . S
H2165 C2157 0.960 . S
H2166 C2158 0.930 . S
H2167 C2159 0.929 . S
H2168 C2176 0.929 . S
H2169 C2178 0.930 . S
H2170 C2180 0.930 . S
H2171 C2183 0.929 . S
H2172 C2186 0.930 . S
H2173 C2188 0.960 . S
H2174 C2188 0.960 . S
H2175 C2188 0.960 . S
C2176 H2168 0.929 . S
C2176 C2177 1.377 . S
C2176 C2178 1.384 . S
C2177 C2176 1.377 . S
C2177 C2183 1.390 . S
C2178 H2169 0.930 . S
C2178 C2176 1.384 . S
C2178 C2179 1.372 . S
C2179 C2178 1.372 . S
C2179 C2180 1.400 . S
C2179 C2184 1.490 . S
C2180 H2170 0.930 . S
C2180 C2179 1.400 . S
C2180 C2183 1.386 . S
H2181 C2197 0.930 . S
H2182 C2198 0.931 . S
C2183 H2171 0.929 . S
C2183 C2177 1.390 . S
C2183 C2180 1.386 . S
C2184 C2179 1.490 . S
C2184 C2186 1.395 . S
C2184 C2187 1.403 . S
H2185 C2191 0.930 . S
C2186 H2172 0.930 . S
C2186 C2184 1.395 . S
C2186 C2189 1.403 . S
C2187 C2184 1.403 . S
C2187 C2188 1.524 . S
C2187 C2191 1.400 . S
C2188 H2173 0.960 . S
C2188 H2174 0.960 . S
C2188 H2175 0.960 . S
C2188 C2187 1.524 . S
C2189 C2186 1.403 . S
C2189 C2190 1.392 . S
C2189 C2193 1.495 . S
C2190 C2189 1.392 . S
C2190 C2191 1.385 . S
C2190 C2192 1.478 . S
C2191 H2185 0.930 . S
C2191 C2187 1.400 . S
C2191 C2190 1.385 . S
C2192 C2190 1.478 . S
C2192 C2194 1.381 . S
C2192 C2198 1.383 . S
C2193 C2189 1.495 . S
C2193 H2199 0.959 . S
C2193 H2200 0.961 . S
C2193 H2201 0.960 . S
C2194 C2192 1.381 . S
C2194 C2195 1.394 . S
C2194 H2202 0.930 . S
C2195 C2194 1.394 . S
C2195 C2196 1.383 . S
C2195 H2203 0.929 . S
C2196 C2195 1.383 . S
C2196 C2197 1.377 . S
C2197 H2181 0.930 . S
C2197 C2196 1.377 . S
C2197 C2198 1.379 . S
C2198 H2182 0.931 . S
C2198 C2192 1.383 . S
C2198 C2197 1.379 . S
H2199 C2193 0.959 . S
H2200 C2193 0.961 . S
H2201 C2193 0.960 . S
H2202 C2194 0.930 . S
H2203 C2195 0.929 . S
H2204 C2212 0.929 . S
H2205 C2214 0.930 . S
H2206 C2216 0.930 . S
H2207 C2219 0.929 . S
H2208 C2222 0.930 . S
H2209 C2224 0.975 . S
H2210 C2224 0.943 1_655 S
H2211 C2224 0.942 1_655 S
C2212 H2204 0.929 . S
C2212 C2213 1.377 . S
C2212 C2214 1.384 . S
C2213 C2212 1.377 . S
C2213 C2219 1.390 . S
C2214 H2205 0.930 . S
C2214 C2212 1.384 . S
C2214 C2215 1.372 . S
C2215 C2214 1.372 . S
C2215 C2216 1.400 . S
C2215 C2220 1.490 1_655 S
C2216 H2206 0.930 . S
C2216 C2215 1.400 . S
C2216 C2219 1.386 . S
H2217 C2233 0.930 . S
H2218 C2234 0.931 . S
C2219 H2207 0.929 . S
C2219 C2213 1.390 . S
C2219 C2216 1.386 . S
C2220 C2215 1.490 1_455 S
C2220 C2222 1.395 . S
C2220 C2223 1.403 . S
H2221 C2227 0.930 . S
C2222 H2208 0.930 . S
C2222 C2220 1.395 . S
C2222 C2225 1.403 . S
C2223 C2220 1.403 . S
C2223 C2224 1.545 . S
C2223 C2227 1.400 . S
C2224 H2209 0.975 . S
C2224 H2210 0.943 1_455 S
C2224 H2211 0.942 1_455 S
C2224 C2223 1.545 . S
C2225 C2222 1.403 . S
C2225 C2226 1.392 . S
C2225 C2229 1.495 . S
C2226 C2225 1.392 . S
C2226 C2227 1.385 . S
C2226 C2228 1.478 . S
C2227 H2221 0.930 . S
C2227 C2223 1.400 . S
C2227 C2226 1.385 . S
C2228 C2226 1.478 . S
C2228 C2230 1.381 . S
C2228 C2234 1.383 . S
C2229 C2225 1.495 . S
C2229 H2235 0.959 . S
C2229 H2236 0.961 . S
C2229 H2237 0.960 . S
C2230 C2228 1.381 . S
C2230 C2231 1.394 . S
C2230 H2238 0.930 . S
C2231 C2230 1.394 . S
C2231 C2232 1.383 . S
C2231 H2239 0.929 . S
C2232 C2231 1.383 . S
C2232 C2233 1.377 . S
C2233 H2217 0.930 . S
C2233 C2232 1.377 . S
C2233 C2234 1.379 . S
C2234 H2218 0.931 . S
C2234 C2228 1.383 . S
C2234 C2233 1.379 . S
H2235 C2229 0.959 . S
H2236 C2229 0.961 . S
H2237 C2229 0.960 . S
H2238 C2230 0.930 . S
H2239 C2231 0.929 . S
H2240 C2248 0.929 . S
H2241 C2250 0.930 . S
H2242 C2252 0.930 . S
H2243 C2255 0.929 . S
H2244 C2258 0.930 . S
H2245 C2260 0.960 . S
H2246 C2260 0.960 . S
H2247 C2260 0.960 . S
C2248 H2240 0.929 . S
C2248 C2249 1.377 . S
C2248 C2250 1.384 . S
C2249 C2248 1.377 . S
C2249 C2255 1.390 . S
C2250 H2241 0.930 . S
C2250 C2248 1.384 . S
C2250 C2251 1.372 . S
C2251 C2250 1.372 . S
C2251 C2252 1.400 . S
C2251 C2256 1.490 . S
C2252 H2242 0.930 . S
C2252 C2251 1.400 . S
C2252 C2255 1.386 . S
H2253 C2269 0.930 . S
H2254 C2270 0.931 . S
C2255 H2243 0.929 . S
C2255 C2249 1.390 . S
C2255 C2252 1.386 . S
C2256 C2251 1.490 . S
C2256 C2258 1.395 . S
C2256 C2259 1.403 . S
H2257 C2263 0.930 . S
C2258 H2244 0.930 . S
C2258 C2256 1.395 . S
C2258 C2261 1.403 . S
C2259 C2256 1.403 . S
C2259 C2260 1.524 . S
C2259 C2263 1.400 . S
C2260 H2245 0.960 . S
C2260 H2246 0.960 . S
C2260 H2247 0.960 . S
C2260 C2259 1.524 . S
C2261 C2258 1.403 . S
C2261 C2262 1.392 . S
C2261 C2265 1.495 . S
C2262 C2261 1.392 . S
C2262 C2263 1.385 . S
C2262 C2264 1.478 . S
C2263 H2257 0.930 . S
C2263 C2259 1.400 . S
C2263 C2262 1.385 . S
C2264 C2262 1.478 . S
C2264 C2266 1.381 . S
C2264 C2270 1.383 . S
C2265 C2261 1.495 . S
C2265 H2271 0.959 . S
C2265 H2272 0.961 . S
C2265 H2273 0.960 . S
C2266 C2264 1.381 . S
C2266 C2267 1.394 . S
C2266 H2274 0.930 . S
C2267 C2266 1.394 . S
C2267 C2268 1.383 . S
C2267 H2275 0.929 . S
C2268 C2267 1.383 . S
C2268 C2269 1.377 . S
C2269 H2253 0.930 . S
C2269 C2268 1.377 . S
C2269 C2270 1.379 . S
C2270 H2254 0.931 . S
C2270 C2264 1.383 . S
C2270 C2269 1.379 . S
H2271 C2265 0.959 . S
H2272 C2265 0.961 . S
H2273 C2265 0.960 . S
H2274 C2266 0.930 . S
H2275 C2267 0.929 . S
H2276 C2284 0.929 . S
H2277 C2286 0.930 . S
H2278 C2288 0.930 . S
H2279 C2291 0.929 . S
H2280 C2294 0.930 . S
H2281 C2296 0.960 . S
H2282 C2296 0.960 . S
H2283 C2296 0.960 . S
C2284 H2276 0.929 . S
C2284 C2285 1.377 . S
C2284 C2286 1.384 . S
C2285 C2284 1.377 . S
C2285 C2291 1.390 . S
C2286 H2277 0.930 . S
C2286 C2284 1.384 . S
C2286 C2287 1.372 . S
C2287 C2286 1.372 . S
C2287 C2288 1.400 . S
C2287 C2292 1.490 . S
C2288 H2278 0.930 . S
C2288 C2287 1.400 . S
C2288 C2291 1.386 . S
H2289 C2305 0.930 . S
H2290 C2306 0.931 . S
C2291 H2279 0.929 . S
C2291 C2285 1.390 . S
C2291 C2288 1.386 . S
C2292 C2287 1.490 . S
C2292 C2294 1.395 . S
C2292 C2295 1.403 . S
H2293 C2299 0.930 . S
C2294 H2280 0.930 . S
C2294 C2292 1.395 . S
C2294 C2297 1.403 1_455 S
C2295 C2292 1.403 . S
C2295 C2296 1.524 . S
C2295 C2299 1.400 1_455 S
C2296 H2281 0.960 . S
C2296 H2282 0.960 . S
C2296 H2283 0.960 . S
C2296 C2295 1.524 . S
C2297 C2294 1.403 1_655 S
C2297 C2298 1.392 . S
C2297 C2301 1.495 . S
C2298 C2297 1.392 . S
C2298 C2299 1.385 . S
C2298 C2300 1.478 . S
C2299 H2293 0.930 . S
C2299 C2295 1.400 1_655 S
C2299 C2298 1.385 . S
C2300 C2298 1.478 . S
C2300 C2302 1.381 . S
C2300 C2306 1.383 . S
C2301 C2297 1.495 . S
C2301 H2307 0.959 . S
C2301 H2308 0.961 . S
C2301 H2309 0.960 . S
C2302 C2300 1.381 . S
C2302 C2303 1.394 . S
C2302 H2310 0.930 . S
C2303 C2302 1.394 . S
C2303 C2304 1.383 . S
C2303 H2311 0.929 . S
C2304 C2303 1.383 . S
C2304 C2305 1.377 . S
C2305 H2289 0.930 . S
C2305 C2304 1.377 . S
C2305 C2306 1.379 . S
C2306 H2290 0.931 . S
C2306 C2300 1.383 . S
C2306 C2305 1.379 . S
H2307 C2301 0.959 . S
H2308 C2301 0.961 . S
H2309 C2301 0.960 . S
H2310 C2302 0.930 . S
H2311 C2303 0.929 . S
H2312 C2320 0.929 . S
H2313 C2322 0.930 . S
H2314 C2324 0.930 . S
H2315 C2327 0.929 . S
H2316 C2330 0.930 . S
H2317 C2332 0.960 . S
H2318 C2332 0.960 . S
H2319 C2332 0.960 . S
C2320 H2312 0.929 . S
C2320 C2321 1.377 . S
C2320 C2322 1.384 . S
C2321 C2320 1.377 . S
C2321 C2327 1.390 . S
C2322 H2313 0.930 . S
C2322 C2320 1.384 . S
C2322 C2323 1.372 . S
C2323 C2322 1.372 . S
C2323 C2324 1.400 . S
C2323 C2328 1.490 . S
C2324 H2314 0.930 . S
C2324 C2323 1.400 . S
C2324 C2327 1.386 . S
H2325 C2341 0.930 . S
H2326 C2342 0.931 . S
C2327 H2315 0.929 . S
C2327 C2321 1.390 . S
C2327 C2324 1.386 . S
C2328 C2323 1.490 . S
C2328 C2330 1.395 1_655 S
C2328 C2331 1.403 . S
H2329 C2335 0.930 . S
C2330 H2316 0.930 . S
C2330 C2328 1.395 1_455 S
C2330 C2333 1.403 . S
C2331 C2328 1.403 . S
C2331 C2332 1.524 . S
C2331 C2335 1.400 . S
C2332 H2317 0.960 . S
C2332 H2318 0.960 . S
C2332 H2319 0.960 . S
C2332 C2331 1.524 . S
C2333 C2330 1.403 . S
C2333 C2334 1.392 . S
C2333 C2337 1.495 . S
C2334 C2333 1.392 . S
C2334 C2335 1.385 1_455 S
C2334 C2336 1.478 . S
C2335 H2329 0.930 . S
C2335 C2331 1.400 . S
C2335 C2334 1.385 1_655 S
C2336 C2334 1.478 . S
C2336 C2338 1.381 . S
C2336 C2342 1.383 . S
C2337 C2333 1.495 . S
C2337 H2343 0.959 . S
C2337 H2344 0.961 . S
C2337 H2345 0.960 . S
C2338 C2336 1.381 . S
C2338 C2339 1.394 . S
C2338 H2346 0.930 . S
C2339 C2338 1.394 . S
C2339 C2340 1.383 . S
C2339 H2347 0.929 . S
C2340 C2339 1.383 . S
C2340 C2341 1.377 . S
C2341 H2325 0.930 . S
C2341 C2340 1.377 . S
C2341 C2342 1.379 . S
C2342 H2326 0.931 . S
C2342 C2336 1.383 . S
C2342 C2341 1.379 . S
H2343 C2337 0.959 . S
H2344 C2337 0.961 . S
H2345 C2337 0.960 . S
H2346 C2338 0.930 . S
H2347 C2339 0.929 . S
H2348 C2356 0.929 . S
H2349 C2358 0.930 . S
H2350 C2360 0.930 . S
H2351 C2363 0.929 . S
H2352 C2366 0.930 . S
H2353 C2368 0.960 . S
H2354 C2368 0.960 . S
H2355 C2368 0.960 . S
C2356 H2348 0.929 . S
C2356 C2357 1.377 . S
C2356 C2358 1.384 . S
C2357 C2356 1.377 . S
C2357 C2363 1.390 . S
C2358 H2349 0.930 . S
C2358 C2356 1.384 . S
C2358 C2359 1.372 . S
C2359 C2358 1.372 . S
C2359 C2360 1.400 . S
C2359 C2364 1.490 . S
C2360 H2350 0.930 . S
C2360 C2359 1.400 . S
C2360 C2363 1.386 . S
H2361 C2377 0.930 . S
H2362 C2378 0.931 . S
C2363 H2351 0.929 . S
C2363 C2357 1.390 . S
C2363 C2360 1.386 . S
C2364 C2359 1.490 . S
C2364 C2366 1.395 . S
C2364 C2367 1.403 . S
H2365 C2371 0.930 . S
C2366 H2352 0.930 . S
C2366 C2364 1.395 . S
C2366 C2369 1.403 . S
C2367 C2364 1.403 . S
C2367 C2368 1.524 . S
C2367 C2371 1.400 . S
C2368 H2353 0.960 . S
C2368 H2354 0.960 . S
C2368 H2355 0.960 . S
C2368 C2367 1.524 . S
C2369 C2366 1.403 . S
C2369 C2370 1.392 . S
C2369 C2373 1.495 . S
C2370 C2369 1.392 . S
C2370 C2371 1.385 . S
C2370 C2372 1.478 . S
C2371 H2365 0.930 . S
C2371 C2367 1.400 . S
C2371 C2370 1.385 . S
C2372 C2370 1.478 . S
C2372 C2374 1.381 . S
C2372 C2378 1.383 . S
C2373 C2369 1.495 . S
C2373 H2379 0.959 . S
C2373 H2380 0.961 . S
C2373 H2381 0.960 . S
C2374 C2372 1.381 . S
C2374 C2375 1.394 . S
C2374 H2382 0.930 . S
C2375 C2374 1.394 . S
C2375 C2376 1.383 . S
C2375 H2383 0.929 . S
C2376 C2375 1.383 . S
C2376 C2377 1.377 . S
C2377 H2361 0.930 . S
C2377 C2376 1.377 . S
C2377 C2378 1.379 . S
C2378 H2362 0.931 . S
C2378 C2372 1.383 . S
C2378 C2377 1.379 . S
H2379 C2373 0.959 . S
H2380 C2373 0.961 . S
H2381 C2373 0.960 . S
H2382 C2374 0.930 . S
H2383 C2375 0.929 . S
H2384 C2392 0.929 . S
H2385 C2394 0.930 . S
H2386 C2396 0.930 . S
H2387 C2399 0.929 . S
H2388 C2402 0.930 . S
H2389 C2404 0.960 . S
H2390 C2404 0.960 . S
H2391 C2404 0.960 . S
C2392 H2384 0.929 . S
C2392 C2393 1.377 . S
C2392 C2394 1.384 . S
C2393 C2392 1.377 . S
C2393 C2399 1.390 . S
C2394 H2385 0.930 . S
C2394 C2392 1.384 . S
C2394 C2395 1.372 . S
C2395 C2394 1.372 . S
C2395 C2396 1.400 . S
C2395 C2400 1.490 . S
C2396 H2386 0.930 . S
C2396 C2395 1.400 . S
C2396 C2399 1.386 . S
H2397 C2413 0.930 . S
H2398 C2414 0.931 . S
C2399 H2387 0.929 . S
C2399 C2393 1.390 . S
C2399 C2396 1.386 . S
C2400 C2395 1.490 . S
C2400 C2402 1.395 . S
C2400 C2403 1.403 . S
H2401 C2407 0.930 . S
C2402 H2388 0.930 . S
C2402 C2400 1.395 . S
C2402 C2405 1.403 . S
C2403 C2400 1.403 . S
C2403 C2404 1.524 . S
C2403 C2407 1.400 . S
C2404 H2389 0.960 . S
C2404 H2390 0.960 . S
C2404 H2391 0.960 . S
C2404 C2403 1.524 . S
C2405 C2402 1.403 . S
C2405 C2406 1.392 . S
C2405 C2409 1.495 . S
C2406 C2405 1.392 . S
C2406 C2407 1.385 . S
C2406 C2408 1.478 . S
C2407 H2401 0.930 . S
C2407 C2403 1.400 . S
C2407 C2406 1.385 . S
C2408 C2406 1.478 . S
C2408 C2410 1.381 . S
C2408 C2414 1.383 . S
C2409 C2405 1.495 . S
C2409 H2415 0.959 . S
C2409 H2416 0.961 . S
C2409 H2417 0.960 . S
C2410 C2408 1.381 . S
C2410 C2411 1.394 . S
C2410 H2418 0.930 . S
C2411 C2410 1.394 . S
C2411 C2412 1.383 . S
C2411 H2419 0.929 . S
C2412 C2411 1.383 . S
C2412 C2413 1.377 . S
C2413 H2397 0.930 . S
C2413 C2412 1.377 . S
C2413 C2414 1.379 . S
C2414 H2398 0.931 . S
C2414 C2408 1.383 . S
C2414 C2413 1.379 . S
H2415 C2409 0.959 . S
H2416 C2409 0.961 . S
H2417 C2409 0.960 . S
H2418 C2410 0.930 . S
H2419 C2411 0.929 . S
H2420 C2428 0.929 . S
H2421 C2430 0.930 . S
H2422 C2432 0.930 . S
H2423 C2435 0.929 . S
H2424 C2438 0.930 . S
H2425 C2440 0.960 . S
H2426 C2440 0.960 . S
H2427 C2440 0.960 . S
C2428 H2420 0.929 . S
C2428 C2429 1.377 . S
C2428 C2430 1.384 . S
C2429 C2428 1.377 . S
C2429 C2435 1.390 . S
C2430 H2421 0.930 . S
C2430 C2428 1.384 . S
C2430 C2431 1.372 . S
C2431 C2430 1.372 . S
C2431 C2432 1.400 . S
C2431 C2436 1.490 . S
C2432 H2422 0.930 . S
C2432 C2431 1.400 . S
C2432 C2435 1.386 . S
H2433 C2449 0.930 . S
H2434 C2450 0.931 . S
C2435 H2423 0.929 . S
C2435 C2429 1.390 . S
C2435 C2432 1.386 . S
C2436 C2431 1.490 . S
C2436 C2438 1.395 . S
C2436 C2439 1.403 . S
H2437 C2443 0.930 . S
C2438 H2424 0.930 . S
C2438 C2436 1.395 . S
C2438 C2441 1.403 . S
C2439 C2436 1.403 . S
C2439 C2440 1.524 . S
C2439 C2443 1.400 . S
C2440 H2425 0.960 . S
C2440 H2426 0.960 . S
C2440 H2427 0.960 . S
C2440 C2439 1.524 . S
C2441 C2438 1.403 . S
C2441 C2442 1.392 . S
C2441 C2445 1.495 . S
C2442 C2441 1.392 . S
C2442 C2443 1.385 . S
C2442 C2444 1.478 . S
C2443 H2437 0.930 . S
C2443 C2439 1.400 . S
C2443 C2442 1.385 . S
C2444 C2442 1.478 . S
C2444 C2446 1.381 . S
C2444 C2450 1.383 . S
C2445 C2441 1.495 . S
C2445 H2451 0.959 . S
C2445 H2452 0.961 . S
C2445 H2453 0.960 . S
C2446 C2444 1.381 . S
C2446 C2447 1.394 . S
C2446 H2454 0.930 . S
C2447 C2446 1.394 . S
C2447 C2448 1.383 . S
C2447 H2455 0.929 . S
C2448 C2447 1.383 . S
C2448 C2449 1.377 . S
C2449 H2433 0.930 . S
C2449 C2448 1.377 . S
C2449 C2450 1.379 . S
C2450 H2434 0.931 . S
C2450 C2444 1.383 . S
C2450 C2449 1.379 . S
H2451 C2445 0.959 . S
H2452 C2445 0.961 . S
H2453 C2445 0.960 . S
H2454 C2446 0.930 . S
H2455 C2447 0.929 . S
H2456 C2464 0.929 . S
H2457 C2466 0.930 . S
H2458 C2468 0.930 . S
H2459 C2471 0.929 . S
H2460 C2474 0.930 . S
H2461 C2476 0.960 . S
H2462 C2476 0.960 . S
H2463 C2476 0.960 . S
C2464 H2456 0.929 . S
C2464 C2465 1.377 . S
C2464 C2466 1.384 . S
C2465 C2464 1.377 . S
C2465 C2471 1.390 . S
C2466 H2457 0.930 . S
C2466 C2464 1.384 . S
C2466 C2467 1.372 . S
C2467 C2466 1.372 . S
C2467 C2468 1.400 . S
C2467 C2472 1.490 . S
C2468 H2458 0.930 . S
C2468 C2467 1.400 . S
C2468 C2471 1.386 . S
H2469 C2485 0.930 . S
H2470 C2486 0.931 . S
C2471 H2459 0.929 . S
C2471 C2465 1.390 . S
C2471 C2468 1.386 . S
C2472 C2467 1.490 . S
C2472 C2474 1.395 1_455 S
C2472 C2475 1.403 . S
H2473 C2479 0.930 . S
C2474 H2460 0.930 . S
C2474 C2472 1.395 1_655 S
C2474 C2477 1.403 . S
C2475 C2472 1.403 . S
C2475 C2476 1.524 . S
C2475 C2479 1.400 . S
C2476 H2461 0.960 . S
C2476 H2462 0.960 . S
C2476 H2463 0.960 . S
C2476 C2475 1.524 . S
C2477 C2474 1.403 . S
C2477 C2478 1.392 . S
C2477 C2481 1.495 . S
C2478 C2477 1.392 . S
C2478 C2479 1.385 1_655 S
C2478 C2480 1.478 . S
C2479 H2473 0.930 . S
C2479 C2475 1.400 . S
C2479 C2478 1.385 1_455 S
C2480 C2478 1.478 . S
C2480 C2482 1.381 . S
C2480 C2486 1.383 . S
C2481 C2477 1.495 . S
C2481 H2487 0.959 . S
C2481 H2488 0.961 . S
C2481 H2489 0.960 . S
C2482 C2480 1.381 . S
C2482 C2483 1.394 . S
C2482 H2490 0.930 . S
C2483 C2482 1.394 . S
C2483 C2484 1.383 . S
C2483 H2491 0.929 . S
C2484 C2483 1.383 . S
C2484 C2485 1.377 . S
C2485 H2469 0.930 . S
C2485 C2484 1.377 . S
C2485 C2486 1.379 . S
C2486 H2470 0.931 . S
C2486 C2480 1.383 . S
C2486 C2485 1.379 . S
H2487 C2481 0.959 . S
H2488 C2481 0.961 . S
H2489 C2481 0.960 . S
H2490 C2482 0.930 . S
H2491 C2483 0.929 . S
H2492 C2500 0.929 . S
H2493 C2502 0.930 . S
H2494 C2504 0.930 . S
H2495 C2507 0.929 . S
H2496 C2510 0.930 . S
H2497 C2512 0.960 1_455 S
H2498 C2512 0.960 . S
H2499 C2512 0.960 . S
C2500 H2492 0.929 . S
C2500 C2501 1.377 . S
C2500 C2502 1.384 . S
C2501 C2500 1.377 . S
C2501 C2507 1.390 . S
C2502 H2493 0.930 . S
C2502 C2500 1.384 . S
C2502 C2503 1.372 . S
C2503 C2502 1.372 . S
C2503 C2504 1.400 . S
C2503 C2508 1.490 . S
C2504 H2494 0.930 . S
C2504 C2503 1.400 . S
C2504 C2507 1.386 . S
H2505 C2521 0.930 . S
H2506 C2522 0.931 . S
C2507 H2495 0.929 . S
C2507 C2501 1.390 . S
C2507 C2504 1.386 . S
C2508 C2503 1.490 . S
C2508 C2510 1.395 . S
C2508 C2511 1.403 . S
H2509 C2515 0.930 . S
C2510 H2496 0.930 . S
C2510 C2508 1.395 . S
C2510 C2513 1.403 1_655 S
C2511 C2508 1.403 . S
C2511 C2512 1.524 . S
C2511 C2515 1.400 1_655 S
C2512 H2497 0.960 1_655 S
C2512 H2498 0.960 . S
C2512 H2499 0.960 . S
C2512 C2511 1.524 . S
C2513 C2510 1.403 1_455 S
C2513 C2514 1.392 . S
C2513 C2517 1.495 . S
C2514 C2513 1.392 . S
C2514 C2515 1.385 . S
C2514 C2516 1.478 . S
C2515 H2509 0.930 . S
C2515 C2511 1.400 1_455 S
C2515 C2514 1.385 . S
C2516 C2514 1.478 . S
C2516 C2518 1.381 . S
C2516 C2522 1.383 . S
C2517 C2513 1.495 . S
C2517 H2523 0.959 1_455 S
C2517 H2524 0.961 . S
C2517 H2525 0.960 . S
C2518 C2516 1.381 . S
C2518 C2519 1.394 . S
C2518 H2526 0.930 . S
C2519 C2518 1.394 . S
C2519 C2520 1.383 . S
C2519 H2527 0.929 . S
C2520 C2519 1.383 . S
C2520 C2521 1.377 . S
C2521 H2505 0.930 . S
C2521 C2520 1.377 . S
C2521 C2522 1.379 . S
C2522 H2506 0.931 . S
C2522 C2516 1.383 . S
C2522 C2521 1.379 . S
H2523 C2517 0.959 1_655 S
H2524 C2517 0.961 . S
H2525 C2517 0.960 . S
H2526 C2518 0.930 . S
H2527 C2519 0.929 . S
H2528 C2536 0.929 . S
H2529 C2538 0.930 . S
H2530 C2540 0.930 . S
H2531 C2543 0.929 . S
H2532 C2546 0.930 . S
H2533 C2548 0.960 . S
H2534 C2548 0.960 . S
H2535 C2548 0.960 . S
C2536 H2528 0.929 . S
C2536 C2537 1.377 . S
C2536 C2538 1.384 . S
C2537 C2536 1.377 . S
C2537 C2543 1.390 . S
C2538 H2529 0.930 . S
C2538 C2536 1.384 . S
C2538 C2539 1.372 . S
C2539 C2538 1.372 . S
C2539 C2540 1.400 . S
C2539 C2544 1.490 . S
C2540 H2530 0.930 . S
C2540 C2539 1.400 . S
C2540 C2543 1.386 . S
H2541 C2557 0.930 . S
H2542 C2558 0.931 . S
C2543 H2531 0.929 . S
C2543 C2537 1.390 . S
C2543 C2540 1.386 . S
C2544 C2539 1.490 . S
C2544 C2546 1.395 . S
C2544 C2547 1.403 . S
H2545 C2551 0.930 . S
C2546 H2532 0.930 . S
C2546 C2544 1.395 . S
C2546 C2549 1.403 . S
C2547 C2544 1.403 . S
C2547 C2548 1.524 . S
C2547 C2551 1.400 . S
C2548 H2533 0.960 . S
C2548 H2534 0.960 . S
C2548 H2535 0.960 . S
C2548 C2547 1.524 . S
C2549 C2546 1.403 . S
C2549 C2550 1.392 . S
C2549 C2553 1.495 . S
C2550 C2549 1.392 . S
C2550 C2551 1.385 . S
C2550 C2552 1.478 . S
C2551 H2545 0.930 . S
C2551 C2547 1.400 . S
C2551 C2550 1.385 . S
C2552 C2550 1.478 . S
C2552 C2554 1.381 . S
C2552 C2558 1.383 . S
C2553 C2549 1.495 . S
C2553 H2559 0.959 . S
C2553 H2560 0.961 . S
C2553 H2561 0.960 . S
C2554 C2552 1.381 . S
C2554 C2555 1.394 . S
C2554 H2562 0.930 . S
C2555 C2554 1.394 . S
C2555 C2556 1.383 . S
C2555 H2563 0.929 . S
C2556 C2555 1.383 . S
C2556 C2557 1.377 . S
C2557 H2541 0.930 . S
C2557 C2556 1.377 . S
C2557 C2558 1.379 . S
C2558 H2542 0.931 . S
C2558 C2552 1.383 . S
C2558 C2557 1.379 . S
H2559 C2553 0.959 . S
H2560 C2553 0.961 . S
H2561 C2553 0.960 . S
H2562 C2554 0.930 . S
H2563 C2555 0.929 . S
H2564 C2572 0.929 . S
H2565 C2574 0.930 . S
H2566 C2576 0.930 . S
H2567 C2579 0.929 . S
H2568 C2582 0.930 . S
H2569 C2584 0.960 . S
H2570 C2584 0.960 . S
H2571 C2584 0.960 . S
C2572 H2564 0.929 . S
C2572 C2573 1.377 . S
C2572 C2574 1.384 . S
C2573 C2572 1.377 . S
C2573 C2579 1.390 . S
C2574 H2565 0.930 . S
C2574 C2572 1.384 . S
C2574 C2575 1.372 . S
C2575 C2574 1.372 . S
C2575 C2576 1.400 . S
C2575 C2580 1.490 . S
C2576 H2566 0.930 . S
C2576 C2575 1.400 . S
C2576 C2579 1.386 . S
H2577 C2593 0.930 . S
H2578 C2594 0.931 . S
C2579 H2567 0.929 . S
C2579 C2573 1.390 . S
C2579 C2576 1.386 . S
C2580 C2575 1.490 . S
C2580 C2582 1.395 . S
C2580 C2583 1.403 . S
H2581 C2587 0.930 . S
C2582 H2568 0.930 . S
C2582 C2580 1.395 . S
C2582 C2585 1.403 1_655 S
C2583 C2580 1.403 . S
C2583 C2584 1.524 . S
C2583 C2587 1.400 1_655 S
C2584 H2569 0.960 . S
C2584 H2570 0.960 . S
C2584 H2571 0.960 . S
C2584 C2583 1.524 . S
C2585 C2582 1.403 1_455 S
C2585 C2586 1.392 . S
C2585 C2589 1.495 . S
C2586 C2585 1.392 . S
C2586 C2587 1.385 . S
C2586 C2588 1.478 . S
C2587 H2581 0.930 . S
C2587 C2583 1.400 1_455 S
C2587 C2586 1.385 . S
C2588 C2586 1.478 . S
C2588 C2590 1.381 . S
C2588 C2594 1.383 . S
C2589 C2585 1.495 . S
C2589 H2595 0.959 . S
C2589 H2596 0.961 . S
C2589 H2597 0.960 . S
C2590 C2588 1.381 . S
C2590 C2591 1.394 . S
C2590 H2598 0.930 . S
C2591 C2590 1.394 . S
C2591 C2592 1.383 . S
C2591 H2599 0.929 . S
C2592 C2591 1.383 . S
C2592 C2593 1.377 . S
C2593 H2577 0.930 . S
C2593 C2592 1.377 . S
C2593 C2594 1.379 . S
C2594 H2578 0.931 . S
C2594 C2588 1.383 . S
C2594 C2593 1.379 . S
H2595 C2589 0.959 . S
H2596 C2589 0.961 . S
H2597 C2589 0.960 . S
H2598 C2590 0.930 . S
H2599 C2591 0.929 . S
H2600 C2608 0.929 . S
H2601 C2610 0.930 . S
H2602 C2612 0.930 . S
H2603 C2615 0.929 . S
H2604 C2618 0.930 . S
H2605 C2620 0.960 . S
H2606 C2620 0.960 . S
H2607 C2620 0.960 . S
C2608 H2600 0.929 . S
C2608 C2609 1.377 . S
C2608 C2610 1.384 . S
C2609 C2608 1.377 . S
C2609 C2615 1.390 . S
C2610 H2601 0.930 . S
C2610 C2608 1.384 . S
C2610 C2611 1.372 . S
C2611 C2610 1.372 . S
C2611 C2612 1.400 . S
C2611 C2616 1.490 . S
C2612 H2602 0.930 . S
C2612 C2611 1.400 . S
C2612 C2615 1.386 . S
H2613 C2629 0.930 . S
H2614 C2630 0.931 . S
C2615 H2603 0.929 . S
C2615 C2609 1.390 . S
C2615 C2612 1.386 . S
C2616 C2611 1.490 . S
C2616 C2618 1.395 1_455 S
C2616 C2619 1.403 . S
H2617 C2623 0.930 . S
C2618 H2604 0.930 . S
C2618 C2616 1.395 1_655 S
C2618 C2621 1.403 . S
C2619 C2616 1.403 . S
C2619 C2620 1.524 . S
C2619 C2623 1.400 . S
C2620 H2605 0.960 . S
C2620 H2606 0.960 . S
C2620 H2607 0.960 . S
C2620 C2619 1.524 . S
C2621 C2618 1.403 . S
C2621 C2622 1.392 . S
C2621 C2625 1.495 . S
C2622 C2621 1.392 . S
C2622 C2623 1.385 1_655 S
C2622 C2624 1.478 . S
C2623 H2617 0.930 . S
C2623 C2619 1.400 . S
C2623 C2622 1.385 1_455 S
C2624 C2622 1.478 . S
C2624 C2626 1.381 . S
C2624 C2630 1.383 . S
C2625 C2621 1.495 . S
C2625 H2631 0.959 . S
C2625 H2632 0.961 . S
C2625 H2633 0.960 . S
C2626 C2624 1.381 . S
C2626 C2627 1.394 . S
C2626 H2634 0.930 . S
C2627 C2626 1.394 . S
C2627 C2628 1.383 . S
C2627 H2635 0.929 . S
C2628 C2627 1.383 . S
C2628 C2629 1.377 . S
C2629 H2613 0.930 . S
C2629 C2628 1.377 . S
C2629 C2630 1.379 . S
C2630 H2614 0.931 . S
C2630 C2624 1.383 . S
C2630 C2629 1.379 . S
H2631 C2625 0.959 . S
H2632 C2625 0.961 . S
H2633 C2625 0.960 . S
H2634 C2626 0.930 . S
H2635 C2627 0.929 . S
H2636 C2644 0.929 . S
H2637 C2646 0.930 . S
H2638 C2648 0.930 . S
H2639 C2651 0.929 . S
H2640 C2654 0.930 . S
H2641 C2656 0.960 . S
H2642 C2656 0.960 . S
H2643 C2656 0.960 . S
C2644 H2636 0.929 . S
C2644 C2645 1.377 . S
C2644 C2646 1.384 . S
C2645 C2644 1.377 . S
C2645 C2651 1.390 . S
C2646 H2637 0.930 . S
C2646 C2644 1.384 . S
C2646 C2647 1.372 . S
C2647 C2646 1.372 . S
C2647 C2648 1.400 . S
C2647 C2652 1.490 . S
C2648 H2638 0.930 . S
C2648 C2647 1.400 . S
C2648 C2651 1.386 . S
H2649 C2665 0.930 . S
H2650 C2666 0.931 . S
C2651 H2639 0.929 . S
C2651 C2645 1.390 . S
C2651 C2648 1.386 . S
C2652 C2647 1.490 . S
C2652 C2654 1.395 . S
C2652 C2655 1.403 . S
H2653 C2659 0.930 . S
C2654 H2640 0.930 . S
C2654 C2652 1.395 . S
C2654 C2657 1.403 . S
C2655 C2652 1.403 . S
C2655 C2656 1.524 . S
C2655 C2659 1.400 . S
C2656 H2641 0.960 . S
C2656 H2642 0.960 . S
C2656 H2643 0.960 . S
C2656 C2655 1.524 . S
C2657 C2654 1.403 . S
C2657 C2658 1.392 . S
C2657 C2661 1.495 . S
C2658 C2657 1.392 . S
C2658 C2659 1.385 . S
C2658 C2660 1.478 . S
C2659 H2653 0.930 . S
C2659 C2655 1.400 . S
C2659 C2658 1.385 . S
C2660 C2658 1.478 . S
C2660 C2662 1.381 . S
C2660 C2666 1.383 . S
C2661 C2657 1.495 . S
C2661 H2667 0.959 . S
C2661 H2668 0.961 . S
C2661 H2669 0.960 . S
C2662 C2660 1.381 . S
C2662 C2663 1.394 . S
C2662 H2670 0.930 . S
C2663 C2662 1.394 . S
C2663 C2664 1.383 . S
C2663 H2671 0.929 . S
C2664 C2663 1.383 . S
C2664 C2665 1.377 . S
C2665 H2649 0.930 . S
C2665 C2664 1.377 . S
C2665 C2666 1.379 . S
C2666 H2650 0.931 . S
C2666 C2660 1.383 . S
C2666 C2665 1.379 . S
H2667 C2661 0.959 . S
H2668 C2661 0.961 . S
H2669 C2661 0.960 . S
H2670 C2662 0.930 . S
H2671 C2663 0.929 . S
H2672 C2680 0.929 . S
H2673 C2682 0.930 . S
H2674 C2684 0.930 . S
H2675 C2687 0.929 . S
H2676 C2690 0.930 . S
H2677 C2692 0.960 . S
H2678 C2692 0.960 . S
H2679 C2692 0.960 . S
C2680 H2672 0.929 . S
C2680 C2681 1.377 . S
C2680 C2682 1.384 . S
C2681 C2680 1.377 . S
C2681 C2687 1.390 . S
C2682 H2673 0.930 . S
C2682 C2680 1.384 . S
C2682 C2683 1.372 . S
C2683 C2682 1.372 . S
C2683 C2684 1.400 . S
C2683 C2688 1.490 . S
C2684 H2674 0.930 . S
C2684 C2683 1.400 . S
C2684 C2687 1.386 . S
H2685 C2701 0.930 . S
H2686 C2702 0.931 . S
C2687 H2675 0.929 . S
C2687 C2681 1.390 . S
C2687 C2684 1.386 . S
C2688 C2683 1.490 . S
C2688 C2690 1.395 . S
C2688 C2691 1.403 . S
H2689 C2695 0.930 . S
C2690 H2676 0.930 . S
C2690 C2688 1.395 . S
C2690 C2693 1.403 . S
C2691 C2688 1.403 . S
C2691 C2692 1.524 . S
C2691 C2695 1.400 . S
C2692 H2677 0.960 . S
C2692 H2678 0.960 . S
C2692 H2679 0.960 . S
C2692 C2691 1.524 . S
C2693 C2690 1.403 . S
C2693 C2694 1.392 . S
C2693 C2697 1.495 . S
C2694 C2693 1.392 . S
C2694 C2695 1.385 . S
C2694 C2696 1.478 . S
C2695 H2689 0.930 . S
C2695 C2691 1.400 . S
C2695 C2694 1.385 . S
C2696 C2694 1.478 . S
C2696 C2698 1.381 . S
C2696 C2702 1.383 . S
C2697 C2693 1.495 . S
C2697 H2703 0.959 . S
C2697 H2704 0.961 . S
C2697 H2705 0.960 . S
C2698 C2696 1.381 . S
C2698 C2699 1.394 . S
C2698 H2706 0.930 . S
C2699 C2698 1.394 . S
C2699 C2700 1.383 . S
C2699 H2707 0.929 . S
C2700 C2699 1.383 . S
C2700 C2701 1.377 . S
C2701 H2685 0.930 . S
C2701 C2700 1.377 . S
C2701 C2702 1.379 . S
C2702 H2686 0.931 . S
C2702 C2696 1.383 . S
C2702 C2701 1.379 . S
H2703 C2697 0.959 . S
H2704 C2697 0.961 . S
H2705 C2697 0.960 . S
H2706 C2698 0.930 . S
H2707 C2699 0.929 . S
H2708 C2716 0.929 . S
H2709 C2718 0.930 . S
H2710 C2720 0.930 . S
H2711 C2723 0.929 . S
H2712 C2726 0.930 . S
H2713 C2728 0.960 . S
H2714 C2728 0.960 . S
H2715 C2728 0.960 . S
C2716 H2708 0.929 . S
C2716 C2717 1.377 . S
C2716 C2718 1.384 . S
C2717 C2716 1.377 . S
C2717 C2723 1.390 . S
C2718 H2709 0.930 . S
C2718 C2716 1.384 . S
C2718 C2719 1.372 . S
C2719 C2718 1.372 . S
C2719 C2720 1.400 . S
C2719 C2724 1.490 . S
C2720 H2710 0.930 . S
C2720 C2719 1.400 . S
C2720 C2723 1.386 . S
H2721 C2737 0.930 . S
H2722 C2738 0.931 . S
C2723 H2711 0.929 . S
C2723 C2717 1.390 . S
C2723 C2720 1.386 . S
C2724 C2719 1.490 . S
C2724 C2726 1.395 . S
C2724 C2727 1.403 . S
H2725 C2731 0.930 . S
C2726 H2712 0.930 . S
C2726 C2724 1.395 . S
C2726 C2729 1.403 . S
C2727 C2724 1.403 . S
C2727 C2728 1.524 . S
C2727 C2731 1.400 . S
C2728 H2713 0.960 . S
C2728 H2714 0.960 . S
C2728 H2715 0.960 . S
C2728 C2727 1.524 . S
C2729 C2726 1.403 . S
C2729 C2730 1.392 . S
C2729 C2733 1.495 . S
C2730 C2729 1.392 . S
C2730 C2731 1.385 . S
C2730 C2732 1.478 . S
C2731 H2725 0.930 . S
C2731 C2727 1.400 . S
C2731 C2730 1.385 . S
C2732 C2730 1.478 . S
C2732 C2734 1.381 . S
C2732 C2738 1.383 . S
C2733 C2729 1.495 . S
C2733 H2739 0.959 . S
C2733 H2740 0.961 . S
C2733 H2741 0.960 . S
C2734 C2732 1.381 . S
C2734 C2735 1.394 . S
C2734 H2742 0.930 . S
C2735 C2734 1.394 . S
C2735 C2736 1.383 . S
C2735 H2743 0.929 . S
C2736 C2735 1.383 . S
C2736 C2737 1.377 . S
C2737 H2721 0.930 . S
C2737 C2736 1.377 . S
C2737 C2738 1.379 . S
C2738 H2722 0.931 . S
C2738 C2732 1.383 . S
C2738 C2737 1.379 . S
H2739 C2733 0.959 . S
H2740 C2733 0.961 . S
H2741 C2733 0.960 . S
H2742 C2734 0.930 . S
H2743 C2735 0.929 . S
H2744 C2752 0.929 . S
H2745 C2754 0.930 . S
H2746 C2756 0.930 1_655 S
H2747 C2759 0.929 . S
H2748 C2762 0.930 . S
H2749 C2764 0.960 1_655 S
H2750 C2764 0.960 . S
H2751 C2764 0.960 1_655 S
C2752 H2744 0.929 . S
C2752 C2753 1.377 . S
C2752 C2754 1.384 . S
C2753 C2752 1.377 . S
C2753 C2759 1.390 . S
C2754 H2745 0.930 . S
C2754 C2752 1.384 . S
C2754 C2755 1.372 . S
C2755 C2754 1.372 . S
C2755 C2756 1.400 . S
C2755 C2760 1.490 . S
C2756 H2746 0.930 1_455 S
C2756 C2755 1.400 . S
C2756 C2759 1.386 . S
H2757 C2773 0.930 . S
H2758 C2774 0.931 . S
C2759 H2747 0.929 . S
C2759 C2753 1.390 . S
C2759 C2756 1.386 . S
C2760 C2755 1.490 . S
C2760 C2762 1.395 . S
C2760 C2763 1.403 . S
H2761 C2767 0.930 . S
C2762 H2748 0.930 . S
C2762 C2760 1.395 . S
C2762 C2765 1.405 . S
C2763 C2760 1.403 . S
C2763 C2764 1.524 . S
C2763 C2767 1.400 1_455 S
C2764 H2749 0.960 1_455 S
C2764 H2750 0.960 . S
C2764 H2751 0.960 1_455 S
C2764 C2763 1.524 . S
C2765 C2762 1.405 . S
C2765 C2766 1.391 1_455 S
C2765 C2769 1.495 1_455 S
C2766 C2765 1.391 1_655 S
C2766 C2767 1.385 . S
C2766 C2768 1.478 . S
C2767 H2761 0.930 . S
C2767 C2763 1.400 1_655 S
C2767 C2766 1.385 . S
C2768 C2766 1.478 . S
C2768 C2770 1.381 . S
C2768 C2774 1.383 . S
C2769 C2765 1.495 1_655 S
C2769 H2775 0.959 1_655 S
C2769 H2776 0.961 . S
C2769 H2777 0.960 1_655 S
C2770 C2768 1.381 . S
C2770 C2771 1.394 . S
C2770 H2778 0.930 1_655 S
C2771 C2770 1.394 . S
C2771 C2772 1.383 . S
C2771 H2779 0.929 . S
C2772 C2771 1.383 . S
C2772 C2773 1.377 . S
C2773 H2757 0.930 . S
C2773 C2772 1.377 . S
C2773 C2774 1.379 . S
C2774 H2758 0.931 . S
C2774 C2768 1.383 . S
C2774 C2773 1.379 . S
H2775 C2769 0.959 1_455 S
H2776 C2769 0.961 . S
H2777 C2769 0.960 1_455 S
H2778 C2770 0.930 1_455 S
H2779 C2771 0.929 . S
H2780 C2788 0.929 . S
H2781 C2790 0.930 . S
H2782 C2792 0.930 . S
H2783 C2795 0.929 . S
H2784 C2798 0.930 . S
H2785 C2800 0.960 . S
H2786 C2800 0.960 . S
H2787 C2800 0.960 . S
C2788 H2780 0.929 . S
C2788 C2789 1.377 . S
C2788 C2790 1.384 . S
C2789 C2788 1.377 . S
C2789 C2795 1.390 . S
C2790 H2781 0.930 . S
C2790 C2788 1.384 . S
C2790 C2791 1.372 . S
C2791 C2790 1.372 . S
C2791 C2792 1.400 . S
C2791 C2796 1.490 . S
C2792 H2782 0.930 . S
C2792 C2791 1.400 . S
C2792 C2795 1.386 . S
H2793 C2809 0.930 . S
H2794 C2810 0.931 . S
C2795 H2783 0.929 . S
C2795 C2789 1.390 . S
C2795 C2792 1.386 . S
C2796 C2791 1.490 . S
C2796 C2798 1.395 . S
C2796 C2799 1.403 . S
H2797 C2803 0.930 . S
C2798 H2784 0.930 . S
C2798 C2796 1.395 . S
C2798 C2801 1.403 1_455 S
C2799 C2796 1.403 . S
C2799 C2800 1.524 . S
C2799 C2803 1.400 1_455 S
C2800 H2785 0.960 . S
C2800 H2786 0.960 . S
C2800 H2787 0.960 . S
C2800 C2799 1.524 . S
C2801 C2798 1.403 1_655 S
C2801 C2802 1.392 . S
C2801 C2805 1.495 . S
C2802 C2801 1.392 . S
C2802 C2803 1.385 . S
C2802 C2804 1.478 . S
C2803 H2797 0.930 . S
C2803 C2799 1.400 1_655 S
C2803 C2802 1.385 . S
C2804 C2802 1.478 . S
C2804 C2806 1.381 . S
C2804 C2810 1.383 . S
C2805 C2801 1.495 . S
C2805 H2811 0.959 . S
C2805 H2812 0.961 . S
C2805 H2813 0.960 . S
C2806 C2804 1.381 . S
C2806 C2807 1.394 . S
C2806 H2814 0.930 . S
C2807 C2806 1.394 . S
C2807 C2808 1.383 . S
C2807 H2815 0.929 . S
C2808 C2807 1.383 . S
C2808 C2809 1.377 . S
C2809 H2793 0.930 . S
C2809 C2808 1.377 . S
C2809 C2810 1.379 . S
C2810 H2794 0.931 . S
C2810 C2804 1.383 . S
C2810 C2809 1.379 . S
H2811 C2805 0.959 . S
H2812 C2805 0.961 . S
H2813 C2805 0.960 . S
H2814 C2806 0.930 . S
H2815 C2807 0.929 . S
H2816 C2824 0.929 . S
H2817 C2826 0.930 . S
H2818 C2828 0.930 . S
H2819 C2831 0.929 . S
H2820 C2834 0.930 . S
H2821 C2836 0.960 . S
H2822 C2836 0.960 . S
H2823 C2836 0.960 . S
C2824 H2816 0.929 . S
C2824 C2825 1.377 . S
C2824 C2826 1.384 . S
C2825 C2824 1.377 . S
C2825 C2831 1.390 . S
C2826 H2817 0.930 . S
C2826 C2824 1.384 . S
C2826 C2827 1.372 . S
C2827 C2826 1.372 . S
C2827 C2828 1.400 . S
C2827 C2832 1.490 . S
C2828 H2818 0.930 . S
C2828 C2827 1.400 . S
C2828 C2831 1.386 . S
H2829 C2845 0.930 . S
H2830 C2846 0.931 . S
C2831 H2819 0.929 . S
C2831 C2825 1.390 . S
C2831 C2828 1.386 . S
C2832 C2827 1.490 . S
C2832 C2834 1.395 . S
C2832 C2835 1.403 . S
H2833 C2839 0.930 . S
C2834 H2820 0.930 . S
C2834 C2832 1.395 . S
C2834 C2837 1.403 . S
C2835 C2832 1.403 . S
C2835 C2836 1.524 . S
C2835 C2839 1.400 . S
C2836 H2821 0.960 . S
C2836 H2822 0.960 . S
C2836 H2823 0.960 . S
C2836 C2835 1.524 . S
C2837 C2834 1.403 . S
C2837 C2838 1.392 . S
C2837 C2841 1.495 . S
C2838 C2837 1.392 . S
C2838 C2839 1.385 . S
C2838 C2840 1.478 . S
C2839 H2833 0.930 . S
C2839 C2835 1.400 . S
C2839 C2838 1.385 . S
C2840 C2838 1.478 . S
C2840 C2842 1.381 . S
C2840 C2846 1.383 . S
C2841 C2837 1.495 . S
C2841 H2847 0.959 . S
C2841 H2848 0.961 . S
C2841 H2849 0.960 . S
C2842 C2840 1.381 . S
C2842 C2843 1.394 . S
C2842 H2850 0.930 . S
C2843 C2842 1.394 . S
C2843 C2844 1.383 . S
C2843 H2851 0.929 . S
C2844 C2843 1.383 . S
C2844 C2845 1.377 . S
C2845 H2829 0.930 . S
C2845 C2844 1.377 . S
C2845 C2846 1.379 . S
C2846 H2830 0.931 . S
C2846 C2840 1.383 . S
C2846 C2845 1.379 . S
H2847 C2841 0.959 . S
H2848 C2841 0.961 . S
H2849 C2841 0.960 . S
H2850 C2842 0.930 . S
H2851 C2843 0.929 . S
H2852 C2860 0.929 . S
H2853 C2862 0.930 . S
H2854 C2864 0.930 . S
H2855 C2867 0.929 . S
H2856 C2870 0.930 . S
H2857 C2872 0.960 . S
H2858 C2872 0.960 . S
H2859 C2872 0.960 . S
C2860 H2852 0.929 . S
C2860 C2861 1.377 . S
C2860 C2862 1.384 . S
C2861 C2860 1.377 . S
C2861 C2867 1.390 . S
C2862 H2853 0.930 . S
C2862 C2860 1.384 . S
C2862 C2863 1.372 . S
C2863 C2862 1.372 . S
C2863 C2864 1.400 . S
C2863 C2868 1.490 . S
C2864 H2854 0.930 . S
C2864 C2863 1.400 . S
C2864 C2867 1.386 . S
H2865 C2881 0.930 . S
H2866 C2882 0.931 . S
C2867 H2855 0.929 . S
C2867 C2861 1.390 . S
C2867 C2864 1.386 . S
C2868 C2863 1.490 . S
C2868 C2870 1.395 . S
C2868 C2871 1.403 . S
H2869 C2875 0.930 . S
C2870 H2856 0.930 . S
C2870 C2868 1.395 . S
C2870 C2873 1.403 . S
C2871 C2868 1.403 . S
C2871 C2872 1.524 . S
C2871 C2875 1.400 . S
C2872 H2857 0.960 . S
C2872 H2858 0.960 . S
C2872 H2859 0.960 . S
C2872 C2871 1.524 . S
C2873 C2870 1.403 . S
C2873 C2874 1.392 . S
C2873 C2877 1.495 . S
C2874 C2873 1.392 . S
C2874 C2875 1.385 . S
C2874 C2876 1.478 . S
C2875 H2869 0.930 . S
C2875 C2871 1.400 . S
C2875 C2874 1.385 . S
C2876 C2874 1.478 . S
C2876 C2878 1.381 . S
C2876 C2882 1.383 . S
C2877 C2873 1.495 . S
C2877 H2883 0.959 . S
C2877 H2884 0.961 . S
C2877 H2885 0.960 . S
C2878 C2876 1.381 . S
C2878 C2879 1.394 . S
C2878 H2886 0.930 . S
C2879 C2878 1.394 . S
C2879 C2880 1.383 . S
C2879 H2887 0.929 . S
C2880 C2879 1.383 . S
C2880 C2881 1.377 . S
C2881 H2865 0.930 . S
C2881 C2880 1.377 . S
C2881 C2882 1.379 . S
C2882 H2866 0.931 . S
C2882 C2876 1.383 . S
C2882 C2881 1.379 . S
H2883 C2877 0.959 . S
H2884 C2877 0.961 . S
H2885 C2877 0.960 . S
H2886 C2878 0.930 . S
H2887 C2879 0.929 . S
H2888 C2896 0.929 . S
H2889 C2898 0.930 . S
H2890 C2900 0.930 . S
H2891 C2903 0.929 . S
H2892 C2906 0.930 . S
H2893 C2908 0.960 . S
H2894 C2908 0.960 . S
H2895 C2908 0.960 . S
C2896 H2888 0.929 . S
C2896 C2897 1.377 . S
C2896 C2898 1.384 . S
C2897 C2896 1.377 . S
C2897 C2903 1.390 . S
C2898 H2889 0.930 . S
C2898 C2896 1.384 . S
C2898 C2899 1.372 . S
C2899 C2898 1.372 . S
C2899 C2900 1.400 . S
C2899 C2904 1.490 . S
C2900 H2890 0.930 . S
C2900 C2899 1.400 . S
C2900 C2903 1.386 . S
H2901 C2917 0.930 . S
H2902 C2918 0.931 . S
C2903 H2891 0.929 . S
C2903 C2897 1.390 . S
C2903 C2900 1.386 . S
C2904 C2899 1.490 . S
C2904 C2906 1.395 . S
C2904 C2907 1.403 . S
H2905 C2911 0.930 . S
C2906 H2892 0.930 . S
C2906 C2904 1.395 . S
C2906 C2909 1.403 . S
C2907 C2904 1.403 . S
C2907 C2908 1.524 . S
C2907 C2911 1.400 . S
C2908 H2893 0.960 . S
C2908 H2894 0.960 . S
C2908 H2895 0.960 . S
C2908 C2907 1.524 . S
C2909 C2906 1.403 . S
C2909 C2910 1.392 . S
C2909 C2913 1.495 . S
C2910 C2909 1.392 . S
C2910 C2911 1.385 . S
C2910 C2912 1.478 . S
C2911 H2905 0.930 . S
C2911 C2907 1.400 . S
C2911 C2910 1.385 . S
C2912 C2910 1.478 . S
C2912 C2914 1.381 . S
C2912 C2918 1.383 . S
C2913 C2909 1.495 . S
C2913 H2919 0.959 . S
C2913 H2920 0.961 . S
C2913 H2921 0.960 . S
C2914 C2912 1.381 . S
C2914 C2915 1.394 . S
C2914 H2922 0.930 . S
C2915 C2914 1.394 . S
C2915 C2916 1.383 . S
C2915 H2923 0.929 . S
C2916 C2915 1.383 . S
C2916 C2917 1.377 . S
C2917 H2901 0.930 . S
C2917 C2916 1.377 . S
C2917 C2918 1.379 . S
C2918 H2902 0.931 . S
C2918 C2912 1.383 . S
C2918 C2917 1.379 . S
H2919 C2913 0.959 . S
H2920 C2913 0.961 . S
H2921 C2913 0.960 . S
H2922 C2914 0.930 . S
H2923 C2915 0.929 . S
H2924 C2932 0.929 . S
H2925 C2934 0.930 . S
H2926 C2936 0.930 . S
H2927 C2939 0.929 . S
H2928 C2942 0.930 . S
H2929 C2944 0.960 . S
H2930 C2944 0.960 . S
H2931 C2944 0.960 . S
C2932 H2924 0.929 . S
C2932 C2933 1.377 . S
C2932 C2934 1.384 . S
C2933 C2932 1.377 . S
C2933 C2939 1.390 . S
C2934 H2925 0.930 . S
C2934 C2932 1.384 . S
C2934 C2935 1.372 . S
C2935 C2934 1.372 . S
C2935 C2936 1.400 . S
C2935 C2940 1.490 . S
C2936 H2926 0.930 . S
C2936 C2935 1.400 . S
C2936 C2939 1.386 . S
H2937 C2953 0.930 . S
H2938 C2954 0.931 . S
C2939 H2927 0.929 . S
C2939 C2933 1.390 . S
C2939 C2936 1.386 . S
C2940 C2935 1.490 . S
C2940 C2942 1.395 . S
C2940 C2943 1.403 . S
H2941 C2947 0.930 . S
C2942 H2928 0.930 . S
C2942 C2940 1.395 . S
C2942 C2945 1.403 . S
C2943 C2940 1.403 . S
C2943 C2944 1.524 . S
C2943 C2947 1.400 . S
C2944 H2929 0.960 . S
C2944 H2930 0.960 . S
C2944 H2931 0.960 . S
C2944 C2943 1.524 . S
C2945 C2942 1.403 . S
C2945 C2946 1.392 . S
C2945 C2949 1.495 . S
C2946 C2945 1.392 . S
C2946 C2947 1.385 . S
C2946 C2948 1.478 . S
C2947 H2941 0.930 . S
C2947 C2943 1.400 . S
C2947 C2946 1.385 . S
C2948 C2946 1.478 . S
C2948 C2950 1.381 . S
C2948 C2954 1.383 . S
C2949 C2945 1.495 . S
C2949 H2955 0.959 . S
C2949 H2956 0.961 . S
C2949 H2957 0.960 . S
C2950 C2948 1.381 . S
C2950 C2951 1.394 . S
C2950 H2958 0.930 . S
C2951 C2950 1.394 . S
C2951 C2952 1.383 . S
C2951 H2959 0.929 . S
C2952 C2951 1.383 . S
C2952 C2953 1.377 . S
C2953 H2937 0.930 . S
C2953 C2952 1.377 . S
C2953 C2954 1.379 . S
C2954 H2938 0.931 . S
C2954 C2948 1.383 . S
C2954 C2953 1.379 . S
H2955 C2949 0.959 . S
H2956 C2949 0.961 . S
H2957 C2949 0.960 . S
H2958 C2950 0.930 . S
H2959 C2951 0.929 . S
H2960 C2968 0.929 . S
H2961 C2970 0.930 . S
H2962 C2972 0.930 . S
H2963 C2975 0.929 . S
H2964 C2978 0.930 . S
H2965 C2980 0.960 . S
H2966 C2980 0.960 . S
H2967 C2980 0.960 . S
C2968 H2960 0.929 . S
C2968 C2969 1.377 . S
C2968 C2970 1.384 . S
C2969 C2968 1.377 . S
C2969 C2975 1.390 . S
C2970 H2961 0.930 . S
C2970 C2968 1.384 . S
C2970 C2971 1.372 . S
C2971 C2970 1.372 . S
C2971 C2972 1.400 . S
C2971 C2976 1.490 . S
C2972 H2962 0.930 . S
C2972 C2971 1.400 . S
C2972 C2975 1.386 . S
H2973 C2989 0.930 . S
H2974 C2990 0.931 . S
C2975 H2963 0.929 . S
C2975 C2969 1.390 . S
C2975 C2972 1.386 . S
C2976 C2971 1.490 . S
C2976 C2978 1.395 . S
C2976 C2979 1.403 . S
H2977 C2983 0.930 . S
C2978 H2964 0.930 . S
C2978 C2976 1.395 . S
C2978 C2981 1.403 . S
C2979 C2976 1.403 . S
C2979 C2980 1.524 . S
C2979 C2983 1.400 . S
C2980 H2965 0.960 . S
C2980 H2966 0.960 . S
C2980 H2967 0.960 . S
C2980 C2979 1.524 . S
C2981 C2978 1.403 . S
C2981 C2982 1.392 . S
C2981 C2985 1.495 . S
C2982 C2981 1.392 . S
C2982 C2983 1.385 . S
C2982 C2984 1.478 . S
C2983 H2977 0.930 . S
C2983 C2979 1.400 . S
C2983 C2982 1.385 . S
C2984 C2982 1.478 . S
C2984 C2986 1.381 . S
C2984 C2990 1.383 . S
C2985 C2981 1.495 . S
C2985 H2991 0.959 . S
C2985 H2992 0.961 . S
C2985 H2993 0.960 . S
C2986 C2984 1.381 . S
C2986 C2987 1.394 . S
C2986 H2994 0.930 . S
C2987 C2986 1.394 . S
C2987 C2988 1.383 . S
C2987 H2995 0.929 . S
C2988 C2987 1.383 . S
C2988 C2989 1.377 . S
C2989 H2973 0.930 . S
C2989 C2988 1.377 . S
C2989 C2990 1.379 . S
C2990 H2974 0.931 . S
C2990 C2984 1.383 . S
C2990 C2989 1.379 . S
H2991 C2985 0.959 . S
H2992 C2985 0.961 . S
H2993 C2985 0.960 . S
H2994 C2986 0.930 . S
H2995 C2987 0.929 . S
H2996 C3004 0.929 . S
H2997 C3006 0.930 . S
H2998 C3008 0.930 . S
H2999 C3011 0.929 . S
H3000 C3014 0.930 . S
H3001 C3016 0.960 . S
H3002 C3016 0.960 . S
H3003 C3016 0.960 . S
C3004 H2996 0.929 . S
C3004 C3005 1.377 . S
C3004 C3006 1.384 . S
C3005 C3004 1.377 . S
C3005 C3011 1.390 . S
C3006 H2997 0.930 . S
C3006 C3004 1.384 . S
C3006 C3007 1.372 . S
C3007 C3006 1.372 . S
C3007 C3008 1.400 . S
C3007 C3012 1.490 . S
C3008 H2998 0.930 . S
C3008 C3007 1.400 . S
C3008 C3011 1.386 . S
H3009 C3025 0.930 . S
H3010 C3026 0.931 . S
C3011 H2999 0.929 . S
C3011 C3005 1.390 . S
C3011 C3008 1.386 . S
C3012 C3007 1.490 . S
C3012 C3014 1.395 . S
C3012 C3015 1.403 . S
H3013 C3019 0.930 . S
C3014 H3000 0.930 . S
C3014 C3012 1.395 . S
C3014 C3017 1.403 . S
C3015 C3012 1.403 . S
C3015 C3016 1.524 . S
C3015 C3019 1.400 . S
C3016 H3001 0.960 . S
C3016 H3002 0.960 . S
C3016 H3003 0.960 . S
C3016 C3015 1.524 . S
C3017 C3014 1.403 . S
C3017 C3018 1.392 . S
C3017 C3021 1.495 . S
C3018 C3017 1.392 . S
C3018 C3019 1.385 . S
C3018 C3020 1.478 . S
C3019 H3013 0.930 . S
C3019 C3015 1.400 . S
C3019 C3018 1.385 . S
C3020 C3018 1.478 . S
C3020 C3022 1.381 . S
C3020 C3026 1.383 . S
C3021 C3017 1.495 . S
C3021 H3027 0.959 . S
C3021 H3028 0.961 . S
C3021 H3029 0.960 . S
C3022 C3020 1.381 . S
C3022 C3023 1.394 . S
C3022 H3030 0.930 . S
C3023 C3022 1.394 . S
C3023 C3024 1.383 . S
C3023 H3031 0.929 . S
C3024 C3023 1.383 . S
C3024 C3025 1.377 . S
C3025 H3009 0.930 . S
C3025 C3024 1.377 . S
C3025 C3026 1.379 . S
C3026 H3010 0.931 . S
C3026 C3020 1.383 . S
C3026 C3025 1.379 . S
H3027 C3021 0.959 . S
H3028 C3021 0.961 . S
H3029 C3021 0.960 . S
H3030 C3022 0.930 . S
H3031 C3023 0.929 . S
H3032 C3040 0.929 . S
H3033 C3042 0.930 . S
H3034 C3044 0.930 . S
H3035 C3047 0.929 . S
H3036 C3050 0.930 . S
H3037 C3052 0.960 . S
H3038 C3052 0.960 . S
H3039 C3052 0.960 . S
C3040 H3032 0.929 . S
C3040 C3041 1.377 . S
C3040 C3042 1.384 . S
C3041 C3040 1.377 . S
C3041 C3047 1.390 . S
C3042 H3033 0.930 . S
C3042 C3040 1.384 . S
C3042 C3043 1.372 . S
C3043 C3042 1.372 . S
C3043 C3044 1.400 . S
C3043 C3048 1.490 . S
C3044 H3034 0.930 . S
C3044 C3043 1.400 . S
C3044 C3047 1.386 . S
H3045 C3061 0.930 . S
H3046 C3062 0.931 . S
C3047 H3035 0.929 . S
C3047 C3041 1.390 . S
C3047 C3044 1.386 . S
C3048 C3043 1.490 . S
C3048 C3050 1.395 . S
C3048 C3051 1.403 . S
H3049 C3055 0.930 . S
C3050 H3036 0.930 . S
C3050 C3048 1.395 . S
C3050 C3053 1.403 . S
C3051 C3048 1.403 . S
C3051 C3052 1.524 . S
C3051 C3055 1.400 . S
C3052 H3037 0.960 . S
C3052 H3038 0.960 . S
C3052 H3039 0.960 . S
C3052 C3051 1.524 . S
C3053 C3050 1.403 . S
C3053 C3054 1.392 . S
C3053 C3057 1.495 . S
C3054 C3053 1.392 . S
C3054 C3055 1.385 . S
C3054 C3056 1.478 . S
C3055 H3049 0.930 . S
C3055 C3051 1.400 . S
C3055 C3054 1.385 . S
C3056 C3054 1.478 . S
C3056 C3058 1.381 . S
C3056 C3062 1.383 . S
C3057 C3053 1.495 . S
C3057 H3063 0.959 . S
C3057 H3064 0.961 . S
C3057 H3065 0.960 . S
C3058 C3056 1.381 . S
C3058 C3059 1.394 . S
C3058 H3066 0.930 . S
C3059 C3058 1.394 . S
C3059 C3060 1.383 . S
C3059 H3067 0.929 . S
C3060 C3059 1.383 . S
C3060 C3061 1.377 . S
C3061 H3045 0.930 . S
C3061 C3060 1.377 . S
C3061 C3062 1.379 . S
C3062 H3046 0.931 . S
C3062 C3056 1.383 . S
C3062 C3061 1.379 . S
H3063 C3057 0.959 . S
H3064 C3057 0.961 . S
H3065 C3057 0.960 . S
H3066 C3058 0.930 . S
H3067 C3059 0.929 . S
H3068 C3076 0.929 . S
H3069 C3078 0.930 . S
H3070 C3080 0.930 . S
H3071 C3083 0.929 . S
H3072 C3086 0.930 . S
H3073 C3088 0.960 . S
H3074 C3088 0.960 . S
H3075 C3088 0.960 . S
C3076 H3068 0.929 . S
C3076 C3077 1.377 . S
C3076 C3078 1.384 . S
C3077 C3076 1.377 . S
C3077 C3083 1.390 . S
C3078 H3069 0.930 . S
C3078 C3076 1.384 . S
C3078 C3079 1.372 . S
C3079 C3078 1.372 . S
C3079 C3080 1.400 . S
C3079 C3084 1.490 . S
C3080 H3070 0.930 . S
C3080 C3079 1.400 . S
C3080 C3083 1.386 . S
H3081 C3097 0.930 . S
H3082 C3098 0.931 . S
C3083 H3071 0.929 . S
C3083 C3077 1.390 . S
C3083 C3080 1.386 . S
C3084 C3079 1.490 . S
C3084 C3086 1.395 . S
C3084 C3087 1.403 . S
H3085 C3091 0.930 . S
C3086 H3072 0.930 . S
C3086 C3084 1.395 . S
C3086 C3089 1.403 . S
C3087 C3084 1.403 . S
C3087 C3088 1.524 . S
C3087 C3091 1.400 . S
C3088 H3073 0.960 . S
C3088 H3074 0.960 . S
C3088 H3075 0.960 . S
C3088 C3087 1.524 . S
C3089 C3086 1.403 . S
C3089 C3090 1.392 . S
C3089 C3093 1.495 . S
C3090 C3089 1.392 . S
C3090 C3091 1.385 . S
C3090 C3092 1.478 . S
C3091 H3085 0.930 . S
C3091 C3087 1.400 . S
C3091 C3090 1.385 . S
C3092 C3090 1.478 . S
C3092 C3094 1.381 . S
C3092 C3098 1.383 . S
C3093 C3089 1.495 . S
C3093 H3099 0.959 . S
C3093 H3100 0.961 . S
C3093 H3101 0.960 . S
C3094 C3092 1.381 . S
C3094 C3095 1.394 . S
C3094 H3102 0.930 . S
C3095 C3094 1.394 . S
C3095 C3096 1.383 . S
C3095 H3103 0.929 . S
C3096 C3095 1.383 . S
C3096 C3097 1.377 . S
C3097 H3081 0.930 . S
C3097 C3096 1.377 . S
C3097 C3098 1.379 . S
C3098 H3082 0.931 . S
C3098 C3092 1.383 . S
C3098 C3097 1.379 . S
H3099 C3093 0.959 . S
H3100 C3093 0.961 . S
H3101 C3093 0.960 . S
H3102 C3094 0.930 . S
H3103 C3095 0.929 . S
H3104 C3112 0.929 . S
H3105 C3114 0.930 . S
H3106 C3116 0.930 . S
H3107 C3119 0.929 . S
H3108 C3122 0.930 . S
H3109 C3124 0.960 . S
H3110 C3124 0.960 . S
H3111 C3124 0.960 . S
C3112 H3104 0.929 . S
C3112 C3113 1.377 . S
C3112 C3114 1.384 . S
C3113 C3112 1.377 . S
C3113 C3119 1.390 . S
C3114 H3105 0.930 . S
C3114 C3112 1.384 . S
C3114 C3115 1.372 . S
C3115 C3114 1.372 . S
C3115 C3116 1.400 . S
C3115 C3120 1.490 . S
C3116 H3106 0.930 . S
C3116 C3115 1.400 . S
C3116 C3119 1.386 . S
H3117 C3133 0.930 . S
H3118 C3134 0.931 . S
C3119 H3107 0.929 . S
C3119 C3113 1.390 . S
C3119 C3116 1.386 . S
C3120 C3115 1.490 . S
C3120 C3122 1.395 . S
C3120 C3123 1.403 . S
H3121 C3127 0.930 . S
C3122 H3108 0.930 . S
C3122 C3120 1.395 . S
C3122 C3125 1.403 . S
C3123 C3120 1.403 . S
C3123 C3124 1.524 . S
C3123 C3127 1.400 . S
C3124 H3109 0.960 . S
C3124 H3110 0.960 . S
C3124 H3111 0.960 . S
C3124 C3123 1.524 . S
C3125 C3122 1.403 . S
C3125 C3126 1.392 . S
C3125 C3129 1.495 . S
C3126 C3125 1.392 . S
C3126 C3127 1.385 . S
C3126 C3128 1.478 . S
C3127 H3121 0.930 . S
C3127 C3123 1.400 . S
C3127 C3126 1.385 . S
C3128 C3126 1.478 . S
C3128 C3130 1.381 . S
C3128 C3134 1.383 . S
C3129 C3125 1.495 . S
C3129 H3135 0.959 . S
C3129 H3136 0.961 . S
C3129 H3137 0.960 . S
C3130 C3128 1.381 . S
C3130 C3131 1.394 . S
C3130 H3138 0.930 . S
C3131 C3130 1.394 . S
C3131 C3132 1.383 . S
C3131 H3139 0.929 . S
C3132 C3131 1.383 . S
C3132 C3133 1.377 . S
C3133 H3117 0.930 . S
C3133 C3132 1.377 . S
C3133 C3134 1.379 . S
C3134 H3118 0.931 . S
C3134 C3128 1.383 . S
C3134 C3133 1.379 . S
H3135 C3129 0.959 . S
H3136 C3129 0.961 . S
H3137 C3129 0.960 . S
H3138 C3130 0.930 . S
H3139 C3131 0.929 . S
H3140 C3148 0.929 . S
H3141 C3150 0.930 . S
H3142 C3152 0.930 . S
H3143 C3155 0.929 . S
H3144 C3158 0.930 . S
H3145 C3160 0.960 . S
H3146 C3160 0.960 . S
H3147 C3160 0.960 . S
C3148 H3140 0.929 . S
C3148 C3149 1.377 . S
C3148 C3150 1.384 . S
C3149 C3148 1.377 . S
C3149 C3155 1.390 . S
C3150 H3141 0.930 . S
C3150 C3148 1.384 . S
C3150 C3151 1.372 . S
C3151 C3150 1.372 . S
C3151 C3152 1.400 . S
C3151 C3156 1.490 . S
C3152 H3142 0.930 . S
C3152 C3151 1.400 . S
C3152 C3155 1.386 . S
H3153 C3169 0.930 . S
H3154 C3170 0.931 . S
C3155 H3143 0.929 . S
C3155 C3149 1.390 . S
C3155 C3152 1.386 . S
C3156 C3151 1.490 . S
C3156 C3158 1.395 . S
C3156 C3159 1.403 . S
H3157 C3163 0.930 . S
C3158 H3144 0.930 . S
C3158 C3156 1.395 . S
C3158 C3161 1.403 . S
C3159 C3156 1.403 . S
C3159 C3160 1.524 . S
C3159 C3163 1.400 . S
C3160 H3145 0.960 . S
C3160 H3146 0.960 . S
C3160 H3147 0.960 . S
C3160 C3159 1.524 . S
C3161 C3158 1.403 . S
C3161 C3162 1.392 . S
C3161 C3165 1.495 . S
C3162 C3161 1.392 . S
C3162 C3163 1.385 . S
C3162 C3164 1.478 . S
C3163 H3157 0.930 . S
C3163 C3159 1.400 . S
C3163 C3162 1.385 . S
C3164 C3162 1.478 . S
C3164 C3166 1.381 . S
C3164 C3170 1.383 . S
C3165 C3161 1.495 . S
C3165 H3171 0.959 . S
C3165 H3172 0.961 . S
C3165 H3173 0.960 . S
C3166 C3164 1.381 . S
C3166 C3167 1.394 . S
C3166 H3174 0.930 . S
C3167 C3166 1.394 . S
C3167 C3168 1.383 . S
C3167 H3175 0.929 . S
C3168 C3167 1.383 . S
C3168 C3169 1.377 . S
C3169 H3153 0.930 . S
C3169 C3168 1.377 . S
C3169 C3170 1.379 . S
C3170 H3154 0.931 . S
C3170 C3164 1.383 . S
C3170 C3169 1.379 . S
H3171 C3165 0.959 . S
H3172 C3165 0.961 . S
H3173 C3165 0.960 . S
H3174 C3166 0.930 . S
H3175 C3167 0.929 . S
H3176 C3184 0.929 . S
H3177 C3186 0.930 . S
H3178 C3188 0.930 . S
H3179 C3191 0.929 . S
H3180 C3194 0.930 . S
H3181 C3196 0.960 . S
H3182 C3196 0.960 . S
H3183 C3196 0.960 . S
C3184 H3176 0.929 . S
C3184 C3185 1.377 . S
C3184 C3186 1.384 . S
C3185 C3184 1.377 . S
C3185 C3191 1.390 . S
C3186 H3177 0.930 . S
C3186 C3184 1.384 . S
C3186 C3187 1.372 . S
C3187 C3186 1.372 . S
C3187 C3188 1.400 . S
C3187 C3192 1.490 . S
C3188 H3178 0.930 . S
C3188 C3187 1.400 . S
C3188 C3191 1.386 . S
H3189 C3205 0.930 . S
H3190 C3206 0.931 . S
C3191 H3179 0.929 . S
C3191 C3185 1.390 . S
C3191 C3188 1.386 . S
C3192 C3187 1.490 . S
C3192 C3194 1.395 . S
C3192 C3195 1.403 . S
H3193 C3199 0.930 . S
C3194 H3180 0.930 . S
C3194 C3192 1.395 . S
C3194 C3197 1.403 . S
C3195 C3192 1.403 . S
C3195 C3196 1.524 . S
C3195 C3199 1.400 . S
C3196 H3181 0.960 . S
C3196 H3182 0.960 . S
C3196 H3183 0.960 . S
C3196 C3195 1.524 . S
C3197 C3194 1.403 . S
C3197 C3198 1.392 . S
C3197 C3201 1.495 . S
C3198 C3197 1.392 . S
C3198 C3199 1.385 . S
C3198 C3200 1.478 . S
C3199 H3193 0.930 . S
C3199 C3195 1.400 . S
C3199 C3198 1.385 . S
C3200 C3198 1.478 . S
C3200 C3202 1.381 . S
C3200 C3206 1.383 . S
C3201 C3197 1.495 . S
C3201 H3207 0.959 . S
C3201 H3208 0.961 . S
C3201 H3209 0.960 . S
C3202 C3200 1.381 . S
C3202 C3203 1.394 . S
C3202 H3210 0.930 . S
C3203 C3202 1.394 . S
C3203 C3204 1.383 . S
C3203 H3211 0.929 . S
C3204 C3203 1.383 . S
C3204 C3205 1.377 . S
C3205 H3189 0.930 . S
C3205 C3204 1.377 . S
C3205 C3206 1.379 . S
C3206 H3190 0.931 . S
C3206 C3200 1.383 . S
C3206 C3205 1.379 . S
H3207 C3201 0.959 . S
H3208 C3201 0.961 . S
H3209 C3201 0.960 . S
H3210 C3202 0.930 . S
H3211 C3203 0.929 . S
H3212 C3220 0.929 . S
H3213 C3222 0.930 . S
H3214 C3224 0.930 . S
H3215 C3227 0.929 . S
H3216 C3230 0.930 . S
H3217 C3232 0.960 . S
H3218 C3232 0.960 . S
H3219 C3232 0.960 . S
C3220 H3212 0.929 . S
C3220 C3221 1.377 . S
C3220 C3222 1.384 . S
C3221 C3220 1.377 . S
C3221 C3227 1.390 . S
C3222 H3213 0.930 . S
C3222 C3220 1.384 . S
C3222 C3223 1.372 . S
C3223 C3222 1.372 . S
C3223 C3224 1.400 . S
C3223 C3228 1.490 . S
C3224 H3214 0.930 . S
C3224 C3223 1.400 . S
C3224 C3227 1.386 . S
H3225 C3241 0.930 . S
H3226 C3242 0.931 . S
C3227 H3215 0.929 . S
C3227 C3221 1.390 . S
C3227 C3224 1.386 . S
C3228 C3223 1.490 . S
C3228 C3230 1.395 . S
C3228 C3231 1.403 . S
H3229 C3235 0.930 . S
C3230 H3216 0.930 . S
C3230 C3228 1.395 . S
C3230 C3233 1.403 . S
C3231 C3228 1.403 . S
C3231 C3232 1.524 . S
C3231 C3235 1.400 . S
C3232 H3217 0.960 . S
C3232 H3218 0.960 . S
C3232 H3219 0.960 . S
C3232 C3231 1.524 . S
C3233 C3230 1.403 . S
C3233 C3234 1.392 . S
C3233 C3237 1.495 . S
C3234 C3233 1.392 . S
C3234 C3235 1.385 . S
C3234 C3236 1.478 . S
C3235 H3229 0.930 . S
C3235 C3231 1.400 . S
C3235 C3234 1.385 . S
C3236 C3234 1.478 . S
C3236 C3238 1.381 . S
C3236 C3242 1.383 . S
C3237 C3233 1.495 . S
C3237 H3243 0.959 . S
C3237 H3244 0.961 . S
C3237 H3245 0.960 . S
C3238 C3236 1.381 . S
C3238 C3239 1.394 . S
C3238 H3246 0.930 . S
C3239 C3238 1.394 . S
C3239 C3240 1.383 . S
C3239 H3247 0.929 . S
C3240 C3239 1.383 . S
C3240 C3241 1.377 . S
C3241 H3225 0.930 . S
C3241 C3240 1.377 . S
C3241 C3242 1.379 . S
C3242 H3226 0.931 . S
C3242 C3236 1.383 . S
C3242 C3241 1.379 . S
H3243 C3237 0.959 . S
H3244 C3237 0.961 . S
H3245 C3237 0.960 . S
H3246 C3238 0.930 . S
H3247 C3239 0.929 . S
H3248 C3256 0.929 . S
H3249 C3258 0.930 . S
H3250 C3260 0.930 . S
H3251 C3263 0.929 . S
H3252 C3266 0.930 . S
H3253 C3268 0.960 . S
H3254 C3268 0.960 . S
H3255 C3268 0.960 . S
C3256 H3248 0.929 . S
C3256 C3257 1.377 . S
C3256 C3258 1.384 . S
C3257 C3256 1.377 . S
C3257 C3263 1.390 . S
C3258 H3249 0.930 . S
C3258 C3256 1.384 . S
C3258 C3259 1.372 . S
C3259 C3258 1.372 . S
C3259 C3260 1.400 . S
C3259 C3264 1.490 . S
C3260 H3250 0.930 . S
C3260 C3259 1.400 . S
C3260 C3263 1.386 . S
H3261 C3277 0.930 . S
H3262 C3278 0.931 . S
C3263 H3251 0.929 . S
C3263 C3257 1.390 . S
C3263 C3260 1.386 . S
C3264 C3259 1.490 . S
C3264 C3266 1.395 . S
C3264 C3267 1.403 . S
H3265 C3271 0.930 . S
C3266 H3252 0.930 . S
C3266 C3264 1.395 . S
C3266 C3269 1.403 . S
C3267 C3264 1.403 . S
C3267 C3268 1.524 . S
C3267 C3271 1.400 . S
C3268 H3253 0.960 . S
C3268 H3254 0.960 . S
C3268 H3255 0.960 . S
C3268 C3267 1.524 . S
C3269 C3266 1.403 . S
C3269 C3270 1.392 . S
C3269 C3273 1.495 . S
C3270 C3269 1.392 . S
C3270 C3271 1.385 . S
C3270 C3272 1.478 . S
C3271 H3265 0.930 . S
C3271 C3267 1.400 . S
C3271 C3270 1.385 . S
C3272 C3270 1.478 . S
C3272 C3274 1.381 . S
C3272 C3278 1.383 . S
C3273 C3269 1.495 . S
C3273 H3279 0.959 . S
C3273 H3280 0.961 . S
C3273 H3281 0.960 . S
C3274 C3272 1.381 . S
C3274 C3275 1.394 . S
C3274 H3282 0.930 . S
C3275 C3274 1.394 . S
C3275 C3276 1.383 . S
C3275 H3283 0.929 . S
C3276 C3275 1.383 . S
C3276 C3277 1.377 . S
C3277 H3261 0.930 . S
C3277 C3276 1.377 . S
C3277 C3278 1.379 . S
C3278 H3262 0.931 . S
C3278 C3272 1.383 . S
C3278 C3277 1.379 . S
H3279 C3273 0.959 . S
H3280 C3273 0.961 . S
H3281 C3273 0.960 . S
H3282 C3274 0.930 . S
H3283 C3275 0.929 . S
H3284 C3292 0.929 . S
H3285 C3294 0.930 . S
H3286 C3296 0.930 . S
H3287 C3299 0.929 . S
H3288 C3302 0.930 . S
H3289 C3304 0.960 . S
H3290 C3304 0.960 . S
H3291 C3304 0.960 . S
C3292 H3284 0.929 . S
C3292 C3293 1.377 . S
C3292 C3294 1.384 . S
C3293 C3292 1.377 . S
C3293 C3299 1.390 . S
C3294 H3285 0.930 . S
C3294 C3292 1.384 . S
C3294 C3295 1.372 . S
C3295 C3294 1.372 . S
C3295 C3296 1.400 . S
C3295 C3300 1.490 . S
C3296 H3286 0.930 . S
C3296 C3295 1.400 . S
C3296 C3299 1.386 . S
H3297 C3313 0.930 . S
H3298 C3314 0.931 . S
C3299 H3287 0.929 . S
C3299 C3293 1.390 . S
C3299 C3296 1.386 . S
C3300 C3295 1.490 . S
C3300 C3302 1.395 . S
C3300 C3303 1.403 . S
H3301 C3307 0.930 . S
C3302 H3288 0.930 . S
C3302 C3300 1.395 . S
C3302 C3305 1.403 . S
C3303 C3300 1.403 . S
C3303 C3304 1.524 . S
C3303 C3307 1.400 . S
C3304 H3289 0.960 . S
C3304 H3290 0.960 . S
C3304 H3291 0.960 . S
C3304 C3303 1.524 . S
C3305 C3302 1.403 . S
C3305 C3306 1.392 . S
C3305 C3309 1.495 . S
C3306 C3305 1.392 . S
C3306 C3307 1.385 . S
C3306 C3308 1.478 . S
C3307 H3301 0.930 . S
C3307 C3303 1.400 . S
C3307 C3306 1.385 . S
C3308 C3306 1.478 . S
C3308 C3310 1.381 . S
C3308 C3314 1.383 . S
C3309 C3305 1.495 . S
C3309 H3315 0.959 . S
C3309 H3316 0.961 . S
C3309 H3317 0.960 . S
C3310 C3308 1.381 . S
C3310 C3311 1.394 . S
C3310 H3318 0.930 . S
C3311 C3310 1.394 . S
C3311 C3312 1.383 . S
C3311 H3319 0.929 . S
C3312 C3311 1.383 . S
C3312 C3313 1.377 . S
C3313 H3297 0.930 . S
C3313 C3312 1.377 . S
C3313 C3314 1.379 . S
C3314 H3298 0.931 . S
C3314 C3308 1.383 . S
C3314 C3313 1.379 . S
H3315 C3309 0.959 . S
H3316 C3309 0.961 . S
H3317 C3309 0.960 . S
H3318 C3310 0.930 . S
H3319 C3311 0.929 . S
H3320 C3328 0.929 . S
H3321 C3330 0.930 . S
H3322 C3332 0.930 . S
H3323 C3335 0.929 . S
H3324 C3338 0.930 . S
H3325 C3340 0.960 . S
H3326 C3340 0.960 . S
H3327 C3340 0.960 . S
C3328 H3320 0.929 . S
C3328 C3329 1.377 . S
C3328 C3330 1.384 . S
C3329 C3328 1.377 . S
C3329 C3335 1.390 . S
C3330 H3321 0.930 . S
C3330 C3328 1.384 . S
C3330 C3331 1.372 . S
C3331 C3330 1.372 . S
C3331 C3332 1.400 . S
C3331 C3336 1.490 . S
C3332 H3322 0.930 . S
C3332 C3331 1.400 . S
C3332 C3335 1.386 . S
H3333 C3349 0.930 . S
H3334 C3350 0.931 . S
C3335 H3323 0.929 . S
C3335 C3329 1.390 . S
C3335 C3332 1.386 . S
C3336 C3331 1.490 . S
C3336 C3338 1.395 . S
C3336 C3339 1.403 . S
H3337 C3343 0.930 . S
C3338 H3324 0.930 . S
C3338 C3336 1.395 . S
C3338 C3341 1.403 . S
C3339 C3336 1.403 . S
C3339 C3340 1.524 . S
C3339 C3343 1.400 . S
C3340 H3325 0.960 . S
C3340 H3326 0.960 . S
C3340 H3327 0.960 . S
C3340 C3339 1.524 . S
C3341 C3338 1.403 . S
C3341 C3342 1.392 . S
C3341 C3345 1.495 . S
C3342 C3341 1.392 . S
C3342 C3343 1.385 . S
C3342 C3344 1.478 . S
C3343 H3337 0.930 . S
C3343 C3339 1.400 . S
C3343 C3342 1.385 . S
C3344 C3342 1.478 . S
C3344 C3346 1.381 . S
C3344 C3350 1.383 . S
C3345 C3341 1.495 . S
C3345 H3351 0.959 . S
C3345 H3352 0.961 . S
C3345 H3353 0.960 . S
C3346 C3344 1.381 . S
C3346 C3347 1.394 . S
C3346 H3354 0.930 . S
C3347 C3346 1.394 . S
C3347 C3348 1.383 . S
C3347 H3355 0.929 . S
C3348 C3347 1.383 . S
C3348 C3349 1.377 . S
C3349 H3333 0.930 . S
C3349 C3348 1.377 . S
C3349 C3350 1.379 . S
C3350 H3334 0.931 . S
C3350 C3344 1.383 . S
C3350 C3349 1.379 . S
H3351 C3345 0.959 . S
H3352 C3345 0.961 . S
H3353 C3345 0.960 . S
H3354 C3346 0.930 . S
H3355 C3347 0.929 . S
H3356 C3364 0.929 . S
H3357 C3366 0.930 . S
H3358 C3368 0.930 . S
H3359 C3371 0.929 . S
H3360 C3374 0.930 . S
H3361 C3376 0.960 . S
H3362 C3376 0.960 . S
H3363 C3376 0.960 . S
C3364 H3356 0.929 . S
C3364 C3365 1.377 . S
C3364 C3366 1.384 . S
C3365 C3364 1.377 . S
C3365 C3371 1.390 . S
C3366 H3357 0.930 . S
C3366 C3364 1.384 . S
C3366 C3367 1.372 . S
C3367 C3366 1.372 . S
C3367 C3368 1.400 . S
C3367 C3372 1.490 . S
C3368 H3358 0.930 . S
C3368 C3367 1.400 . S
C3368 C3371 1.386 . S
H3369 C3385 0.930 . S
H3370 C3386 0.931 . S
C3371 H3359 0.929 . S
C3371 C3365 1.390 . S
C3371 C3368 1.386 . S
C3372 C3367 1.490 . S
C3372 C3374 1.395 . S
C3372 C3375 1.403 . S
H3373 C3379 0.930 . S
C3374 H3360 0.930 . S
C3374 C3372 1.395 . S
C3374 C3377 1.403 . S
C3375 C3372 1.403 . S
C3375 C3376 1.524 . S
C3375 C3379 1.400 . S
C3376 H3361 0.960 . S
C3376 H3362 0.960 . S
C3376 H3363 0.960 . S
C3376 C3375 1.524 . S
C3377 C3374 1.403 . S
C3377 C3378 1.392 . S
C3377 C3381 1.495 . S
C3378 C3377 1.392 . S
C3378 C3379 1.385 . S
C3378 C3380 1.478 . S
C3379 H3373 0.930 . S
C3379 C3375 1.400 . S
C3379 C3378 1.385 . S
C3380 C3378 1.478 . S
C3380 C3382 1.381 . S
C3380 C3386 1.383 . S
C3381 C3377 1.495 . S
C3381 H3387 0.959 . S
C3381 H3388 0.961 . S
C3381 H3389 0.960 . S
C3382 C3380 1.381 . S
C3382 C3383 1.394 . S
C3382 H3390 0.930 . S
C3383 C3382 1.394 . S
C3383 C3384 1.383 . S
C3383 H3391 0.929 . S
C3384 C3383 1.383 . S
C3384 C3385 1.377 . S
C3385 H3369 0.930 . S
C3385 C3384 1.377 . S
C3385 C3386 1.379 . S
C3386 H3370 0.931 . S
C3386 C3380 1.383 . S
C3386 C3385 1.379 . S
H3387 C3381 0.959 . S
H3388 C3381 0.961 . S
H3389 C3381 0.960 . S
H3390 C3382 0.930 . S
H3391 C3383 0.929 . S
H3392 C3400 0.929 . S
H3393 C3402 0.930 1_545 S
H3394 C3404 0.930 . S
H3395 C3407 0.929 . S
H3396 C3410 0.930 . S
H3397 C3412 0.960 . S
H3398 C3412 0.960 . S
H3399 C3412 0.960 . S
C3400 H3392 0.929 . S
C3400 C3401 1.377 . S
C3400 C3402 1.384 . S
C3401 C3400 1.377 . S
C3401 C3407 1.390 . S
C3402 H3393 0.930 1_565 S
C3402 C3400 1.384 . S
C3402 C3403 1.372 . S
C3403 C3402 1.372 . S
C3403 C3404 1.400 . S
C3403 C3408 1.490 . S
C3404 H3394 0.930 . S
C3404 C3403 1.400 . S
C3404 C3407 1.386 . S
H3405 C3421 0.927 1_565 S
H3406 C3422 0.940 . S
C3407 H3395 0.929 . S
C3407 C3401 1.390 . S
C3407 C3404 1.386 . S
C3408 C3403 1.490 . S
C3408 C3410 1.395 . S
C3408 C3411 1.403 1_565 S
H3409 C3415 0.930 . S
C3410 H3396 0.930 . S
C3410 C3408 1.395 . S
C3410 C3413 1.403 . S
C3411 C3408 1.403 1_545 S
C3411 C3412 1.524 . S
C3411 C3415 1.400 . S
C3412 H3397 0.960 . S
C3412 H3398 0.960 . S
C3412 H3399 0.960 . S
C3412 C3411 1.524 . S
C3413 C3410 1.403 . S
C3413 C3414 1.392 1_565 S
C3413 C3417 1.495 . S
C3414 C3413 1.392 1_545 S
C3414 C3415 1.385 . S
C3414 C3416 1.478 . S
C3415 H3409 0.930 . S
C3415 C3411 1.400 . S
C3415 C3414 1.385 . S
C3416 C3414 1.478 . S
C3416 C3418 1.381 . S
C3416 C3422 1.377 1_545 S
C3417 C3413 1.495 . S
C3417 H3423 0.959 . S
C3417 H3424 0.961 . S
C3417 H3425 0.960 . S
C3418 C3416 1.381 . S
C3418 C3419 1.394 . S
C3418 H3426 0.930 . S
C3419 C3418 1.394 . S
C3419 C3420 1.383 . S
C3419 H3427 0.929 . S
C3420 C3419 1.383 . S
C3420 C3421 1.377 . S
C3421 H3405 0.927 1_545 S
C3421 C3420 1.377 . S
C3421 C3422 1.376 1_545 S
C3422 H3406 0.940 . S
C3422 C3416 1.377 1_565 S
C3422 C3421 1.376 1_565 S
H3423 C3417 0.959 . S
H3424 C3417 0.961 . S
H3425 C3417 0.960 . S
H3426 C3418 0.930 . S
H3427 C3419 0.929 . S
H3428 C3436 0.929 . S
H3429 C3438 0.930 . S
H3430 C3440 0.930 . S
H3431 C3443 0.929 . S
H3432 C3446 0.930 . S
H3433 C3448 0.960 . S
H3434 C3448 0.960 . S
H3435 C3448 0.960 . S
C3436 H3428 0.929 . S
C3436 C3437 1.377 . S
C3436 C3438 1.384 . S
C3437 C3436 1.377 . S
C3437 C3443 1.390 . S
C3438 H3429 0.930 . S
C3438 C3436 1.384 . S
C3438 C3439 1.372 . S
C3439 C3438 1.372 . S
C3439 C3440 1.400 . S
C3439 C3444 1.490 . S
C3440 H3430 0.930 . S
C3440 C3439 1.400 . S
C3440 C3443 1.386 . S
H3441 C3457 0.930 . S
H3442 C3458 0.931 . S
C3443 H3431 0.929 . S
C3443 C3437 1.390 . S
C3443 C3440 1.386 . S
C3444 C3439 1.490 . S
C3444 C3446 1.395 . S
C3444 C3447 1.403 . S
H3445 C3451 0.930 . S
C3446 H3432 0.930 . S
C3446 C3444 1.395 . S
C3446 C3449 1.403 . S
C3447 C3444 1.403 . S
C3447 C3448 1.524 . S
C3447 C3451 1.400 . S
C3448 H3433 0.960 . S
C3448 H3434 0.960 . S
C3448 H3435 0.960 . S
C3448 C3447 1.524 . S
C3449 C3446 1.403 . S
C3449 C3450 1.392 . S
C3449 C3453 1.495 . S
C3450 C3449 1.392 . S
C3450 C3451 1.385 . S
C3450 C3452 1.478 . S
C3451 H3445 0.930 . S
C3451 C3447 1.400 . S
C3451 C3450 1.385 . S
C3452 C3450 1.478 . S
C3452 C3454 1.381 . S
C3452 C3458 1.383 . S
C3453 C3449 1.495 . S
C3453 H3459 0.959 . S
C3453 H3460 0.961 . S
C3453 H3461 0.960 . S
C3454 C3452 1.381 . S
C3454 C3455 1.394 . S
C3454 H3462 0.930 . S
C3455 C3454 1.394 . S
C3455 C3456 1.383 . S
C3455 H3463 0.929 . S
C3456 C3455 1.383 . S
C3456 C3457 1.377 . S
C3457 H3441 0.930 . S
C3457 C3456 1.377 . S
C3457 C3458 1.379 . S
C3458 H3442 0.931 . S
C3458 C3452 1.383 . S
C3458 C3457 1.379 . S
H3459 C3453 0.959 . S
H3460 C3453 0.961 . S
H3461 C3453 0.960 . S
H3462 C3454 0.930 . S
H3463 C3455 0.929 . S
H3464 C3472 0.929 1_545 S
H3465 C3474 0.930 . S
H3466 C3476 0.930 . S
H3467 C3479 0.929 . S
H3468 C3482 0.930 . S
H3469 C3484 0.960 . S
H3470 C3484 0.960 . S
H3471 C3484 0.960 . S
C3472 H3464 0.929 1_565 S
C3472 C3473 1.377 . S
C3472 C3474 1.384 1_565 S
C3473 C3472 1.377 . S
C3473 C3479 1.390 . S
C3474 H3465 0.930 . S
C3474 C3472 1.384 1_545 S
C3474 C3475 1.372 1_545 S
C3475 C3474 1.372 1_565 S
C3475 C3476 1.400 . S
C3475 C3480 1.490 . S
C3476 H3466 0.930 . S
C3476 C3475 1.400 . S
C3476 C3479 1.386 . S
H3477 C3493 0.930 . S
H3478 C3494 0.931 1_565 S
C3479 H3467 0.929 . S
C3479 C3473 1.390 . S
C3479 C3476 1.386 . S
C3480 C3475 1.490 . S
C3480 C3482 1.395 1_565 S
C3480 C3483 1.403 . S
H3481 C3487 0.930 . S
C3482 H3468 0.930 . S
C3482 C3480 1.395 1_545 S
C3482 C3485 1.403 . S
C3483 C3480 1.403 . S
C3483 C3484 1.524 . S
C3483 C3487 1.400 . S
C3484 H3469 0.960 . S
C3484 H3470 0.960 . S
C3484 H3471 0.960 . S
C3484 C3483 1.524 . S
C3485 C3482 1.403 . S
C3485 C3486 1.392 . S
C3485 C3489 1.495 . S
C3486 C3485 1.392 . S
C3486 C3487 1.385 1_545 S
C3486 C3488 1.478 . S
C3487 H3481 0.930 . S
C3487 C3483 1.400 . S
C3487 C3486 1.385 1_565 S
C3488 C3486 1.478 . S
C3488 C3490 1.381 . S
C3488 C3494 1.383 . S
C3489 C3485 1.495 . S
C3489 H3495 0.959 . S
C3489 H3496 0.961 . S
C3489 H3497 0.960 . S
C3490 C3488 1.381 . S
C3490 C3491 1.394 . S
C3490 H3498 0.930 . S
C3491 C3490 1.394 . S
C3491 C3492 1.383 . S
C3491 H3499 0.929 . S
C3492 C3491 1.383 . S
C3492 C3493 1.377 . S
C3493 H3477 0.930 . S
C3493 C3492 1.377 . S
C3493 C3494 1.379 . S
C3494 H3478 0.931 1_545 S
C3494 C3488 1.383 . S
C3494 C3493 1.379 . S
H3495 C3489 0.959 . S
H3496 C3489 0.961 . S
H3497 C3489 0.960 . S
H3498 C3490 0.930 . S
H3499 C3491 0.929 . S
H3500 C3508 0.929 . S
H3501 C3510 0.930 . S
H3502 C3512 0.930 . S
H3503 C3515 0.929 . S
H3504 C3518 0.930 . S
H3505 C3520 1.035 . S
H3506 C3520 0.960 . S
H3507 C3520 0.960 . S
C3508 H3500 0.929 . S
C3508 C3509 1.377 . S
C3508 C3510 1.384 . S
C3509 C3508 1.377 . S
C3509 C3515 1.390 . S
C3510 H3501 0.930 . S
C3510 C3508 1.384 . S
C3510 C3511 1.372 . S
C3511 C3510 1.372 . S
C3511 C3512 1.400 . S
C3511 C3516 1.490 . S
C3512 H3502 0.930 . S
C3512 C3511 1.400 . S
C3512 C3515 1.386 . S
H3513 C3529 0.930 . S
H3514 C3530 0.931 . S
C3515 H3503 0.929 . S
C3515 C3509 1.390 . S
C3515 C3512 1.386 . S
C3516 C3511 1.490 . S
C3516 C3518 1.395 . S
C3516 C3519 1.403 . S
H3517 C3523 0.930 . S
C3518 H3504 0.930 . S
C3518 C3516 1.395 . S
C3518 C3521 1.403 1_554 S
C3519 C3516 1.403 . S
C3519 C3520 1.524 . S
C3519 C3523 1.400 1_554 S
C3520 H3505 1.035 . S
C3520 H3506 0.960 . S
C3520 H3507 0.960 . S
C3520 C3519 1.524 . S
C3521 C3518 1.403 1_556 S
C3521 C3522 1.392 . S
C3521 C3525 1.495 . S
C3522 C3521 1.392 . S
C3522 C3523 1.385 . S
C3522 C3524 1.478 . S
C3523 H3517 0.930 . S
C3523 C3519 1.400 1_556 S
C3523 C3522 1.385 . S
C3524 C3522 1.478 . S
C3524 C3526 1.381 . S
C3524 C3530 1.383 . S
C3525 C3521 1.495 . S
C3525 H3531 1.078 . S
C3525 H3532 0.961 . S
C3525 H3533 0.960 . S
C3526 C3524 1.381 . S
C3526 C3527 1.394 . S
C3526 H3534 0.930 . S
C3527 C3526 1.394 . S
C3527 C3528 1.383 . S
C3527 H3535 0.929 . S
C3528 C3527 1.383 . S
C3528 C3529 1.377 . S
C3529 H3513 0.930 . S
C3529 C3528 1.377 . S
C3529 C3530 1.379 . S
C3530 H3514 0.931 . S
C3530 C3524 1.383 . S
C3530 C3529 1.379 . S
H3531 C3525 1.078 . S
H3532 C3525 0.961 . S
H3533 C3525 0.960 . S
H3534 C3526 0.930 . S
H3535 C3527 0.929 . S
H3536 C3544 0.929 . S
H3537 C3546 0.930 . S
H3538 C3548 0.930 . S
H3539 C3551 0.929 . S
H3540 C3554 0.930 . S
H3541 C3556 0.960 . S
H3542 C3556 0.960 . S
H3543 C3556 0.960 . S
C3544 H3536 0.929 . S
C3544 C3545 1.377 1_565 S
C3544 C3546 1.384 . S
C3545 C3544 1.377 1_545 S
C3545 C3551 1.390 . S
C3546 H3537 0.930 . S
C3546 C3544 1.384 . S
C3546 C3547 1.372 1_565 S
C3547 C3546 1.372 1_545 S
C3547 C3548 1.400 . S
C3547 C3552 1.490 . S
C3548 H3538 0.930 . S
C3548 C3547 1.400 . S
C3548 C3551 1.386 . S
H3549 C3565 0.930 . S
H3550 C3566 0.931 . S
C3551 H3539 0.929 . S
C3551 C3545 1.390 . S
C3551 C3548 1.386 . S
C3552 C3547 1.490 . S
C3552 C3554 1.395 1_545 S
C3552 C3555 1.403 . S
H3553 C3559 0.930 . S
C3554 H3540 0.930 . S
C3554 C3552 1.395 1_565 S
C3554 C3557 1.403 . S
C3555 C3552 1.403 . S
C3555 C3556 1.524 . S
C3555 C3559 1.400 . S
C3556 H3541 0.960 . S
C3556 H3542 0.960 . S
C3556 H3543 0.960 . S
C3556 C3555 1.524 . S
C3557 C3554 1.403 . S
C3557 C3558 1.392 . S
C3557 C3561 1.495 . S
C3558 C3557 1.392 . S
C3558 C3559 1.385 1_565 S
C3558 C3560 1.478 . S
C3559 H3553 0.930 . S
C3559 C3555 1.400 . S
C3559 C3558 1.385 1_545 S
C3560 C3558 1.478 . S
C3560 C3562 1.381 . S
C3560 C3566 1.383 1_565 S
C3561 C3557 1.495 . S
C3561 H3567 0.959 . S
C3561 H3568 0.961 . S
C3561 H3569 0.960 . S
C3562 C3560 1.381 . S
C3562 C3563 1.394 . S
C3562 H3570 0.930 . S
C3563 C3562 1.394 . S
C3563 C3564 1.383 . S
C3563 H3571 0.929 . S
C3564 C3563 1.383 . S
C3564 C3565 1.377 1_565 S
C3565 H3549 0.930 . S
C3565 C3564 1.377 1_545 S
C3565 C3566 1.379 . S
C3566 H3550 0.931 . S
C3566 C3560 1.383 1_545 S
C3566 C3565 1.379 . S
H3567 C3561 0.959 . S
H3568 C3561 0.961 . S
H3569 C3561 0.960 . S
H3570 C3562 0.930 . S
H3571 C3563 0.929 . S
H3572 C3580 0.929 . S
H3573 C3582 0.930 . S
H3574 C3584 0.930 . S
H3575 C3587 0.929 . S
H3576 C3590 0.930 . S
H3577 C3592 0.960 . S
H3578 C3592 0.960 . S
H3579 C3592 0.960 . S
C3580 H3572 0.929 . S
C3580 C3581 1.377 . S
C3580 C3582 1.384 . S
C3581 C3580 1.377 . S
C3581 C3587 1.390 . S
C3582 H3573 0.930 . S
C3582 C3580 1.384 . S
C3582 C3583 1.372 . S
C3583 C3582 1.372 . S
C3583 C3584 1.400 . S
C3583 C3588 1.490 . S
C3584 H3574 0.930 . S
C3584 C3583 1.400 . S
C3584 C3587 1.386 . S
H3585 C3601 0.930 . S
H3586 C3602 0.931 . S
C3587 H3575 0.929 . S
C3587 C3581 1.390 . S
C3587 C3584 1.386 . S
C3588 C3583 1.490 . S
C3588 C3590 1.395 . S
C3588 C3591 1.403 . S
H3589 C3595 0.930 . S
C3590 H3576 0.930 . S
C3590 C3588 1.395 . S
C3590 C3593 1.403 . S
C3591 C3588 1.403 . S
C3591 C3592 1.524 . S
C3591 C3595 1.400 . S
C3592 H3577 0.960 . S
C3592 H3578 0.960 . S
C3592 H3579 0.960 . S
C3592 C3591 1.524 . S
C3593 C3590 1.403 . S
C3593 C3594 1.392 . S
C3593 C3597 1.495 . S
C3594 C3593 1.392 . S
C3594 C3595 1.385 . S
C3594 C3596 1.478 . S
C3595 H3589 0.930 . S
C3595 C3591 1.400 . S
C3595 C3594 1.385 . S
C3596 C3594 1.478 . S
C3596 C3598 1.381 . S
C3596 C3602 1.383 . S
C3597 C3593 1.495 . S
C3597 H3603 0.959 . S
C3597 H3604 0.961 . S
C3597 H3605 0.960 . S
C3598 C3596 1.381 . S
C3598 C3599 1.394 . S
C3598 H3606 0.930 . S
C3599 C3598 1.394 . S
C3599 C3600 1.383 . S
C3599 H3607 0.929 . S
C3600 C3599 1.383 . S
C3600 C3601 1.377 . S
C3601 H3585 0.930 . S
C3601 C3600 1.377 . S
C3601 C3602 1.379 . S
C3602 H3586 0.931 . S
C3602 C3596 1.383 . S
C3602 C3601 1.379 . S
H3603 C3597 0.959 . S
H3604 C3597 0.961 . S
H3605 C3597 0.960 . S
H3606 C3598 0.930 . S
H3607 C3599 0.929 . S
H3608 C3616 0.929 . S
H3609 C3618 0.930 . S
H3610 C3620 0.930 . S
H3611 C3623 0.929 . S
H3612 C3626 0.930 . S
H3613 C3628 0.960 . S
H3614 C3628 0.960 . S
H3615 C3628 0.960 . S
C3616 H3608 0.929 . S
C3616 C3617 1.377 1_545 S
C3616 C3618 1.384 . S
C3617 C3616 1.377 1_565 S
C3617 C3623 1.390 . S
C3618 H3609 0.930 . S
C3618 C3616 1.384 . S
C3618 C3619 1.372 1_545 S
C3619 C3618 1.372 1_565 S
C3619 C3620 1.400 . S
C3619 C3624 1.490 . S
C3620 H3610 0.930 . S
C3620 C3619 1.400 . S
C3620 C3623 1.386 . S
H3621 C3637 0.938 . S
H3622 C3638 0.931 . S
C3623 H3611 0.929 . S
C3623 C3617 1.390 . S
C3623 C3620 1.386 . S
C3624 C3619 1.490 . S
C3624 C3626 1.395 1_565 S
C3624 C3627 1.403 . S
H3625 C3631 0.930 . S
C3626 H3612 0.930 . S
C3626 C3624 1.395 1_545 S
C3626 C3629 1.403 . S
C3627 C3624 1.403 . S
C3627 C3628 1.524 . S
C3627 C3631 1.400 . S
C3628 H3613 0.960 . S
C3628 H3614 0.960 . S
C3628 H3615 0.960 . S
C3628 C3627 1.524 . S
C3629 C3626 1.403 . S
C3629 C3630 1.392 . S
C3629 C3633 1.495 . S
C3630 C3629 1.392 . S
C3630 C3631 1.385 1_545 S
C3630 C3632 1.478 . S
C3631 H3625 0.930 . S
C3631 C3627 1.400 . S
C3631 C3630 1.385 1_565 S
C3632 C3630 1.478 . S
C3632 C3634 1.381 . S
C3632 C3638 1.383 1_545 S
C3633 C3629 1.495 . S
C3633 H3639 0.959 . S
C3633 H3640 0.961 . S
C3633 H3641 0.960 . S
C3634 C3632 1.381 . S
C3634 C3635 1.394 . S
C3634 H3642 0.930 . S
C3635 C3634 1.394 . S
C3635 C3636 1.383 . S
C3635 H3643 0.929 . S
C3636 C3635 1.383 . S
C3636 C3637 1.367 1_545 S
C3637 H3621 0.938 . S
C3637 C3636 1.367 1_565 S
C3637 C3638 1.381 . S
C3638 H3622 0.931 . S
C3638 C3632 1.383 1_565 S
C3638 C3637 1.381 . S
H3639 C3633 0.959 . S
H3640 C3633 0.961 . S
H3641 C3633 0.960 . S
H3642 C3634 0.930 . S
H3643 C3635 0.929 . S
H3644 C3652 0.929 . S
H3645 C3654 0.930 . S
H3646 C3656 0.930 . S
H3647 C3659 0.929 . S
H3648 C3662 0.930 . S
H3649 C3664 0.960 . S
H3650 C3664 0.960 . S
H3651 C3664 0.960 . S
C3652 H3644 0.929 . S
C3652 C3653 1.377 . S
C3652 C3654 1.384 . S
C3653 C3652 1.377 . S
C3653 C3659 1.390 . S
C3654 H3645 0.930 . S
C3654 C3652 1.384 . S
C3654 C3655 1.372 . S
C3655 C3654 1.372 . S
C3655 C3656 1.400 . S
C3655 C3660 1.490 . S
C3656 H3646 0.930 . S
C3656 C3655 1.400 . S
C3656 C3659 1.386 . S
H3657 C3673 0.930 . S
H3658 C3674 0.931 . S
C3659 H3647 0.929 . S
C3659 C3653 1.390 . S
C3659 C3656 1.386 . S
C3660 C3655 1.490 . S
C3660 C3662 1.395 . S
C3660 C3663 1.403 . S
H3661 C3667 0.930 . S
C3662 H3648 0.930 . S
C3662 C3660 1.395 . S
C3662 C3665 1.403 1_556 S
C3663 C3660 1.403 . S
C3663 C3664 1.524 . S
C3663 C3667 1.400 1_556 S
C3664 H3649 0.960 . S
C3664 H3650 0.960 . S
C3664 H3651 0.960 . S
C3664 C3663 1.524 . S
C3665 C3662 1.403 1_554 S
C3665 C3666 1.392 . S
C3665 C3669 1.495 . S
C3666 C3665 1.392 . S
C3666 C3667 1.385 . S
C3666 C3668 1.478 . S
C3667 H3661 0.930 . S
C3667 C3663 1.400 1_554 S
C3667 C3666 1.385 . S
C3668 C3666 1.478 . S
C3668 C3670 1.381 . S
C3668 C3674 1.383 . S
C3669 C3665 1.495 . S
C3669 H3675 0.959 . S
C3669 H3676 0.961 . S
C3669 H3677 0.960 . S
C3670 C3668 1.381 . S
C3670 C3671 1.394 . S
C3670 H3678 0.930 . S
C3671 C3670 1.394 . S
C3671 C3672 1.383 . S
C3671 H3679 0.929 . S
C3672 C3671 1.383 . S
C3672 C3673 1.377 . S
C3673 H3657 0.930 . S
C3673 C3672 1.377 . S
C3673 C3674 1.379 . S
C3674 H3658 0.931 . S
C3674 C3668 1.383 . S
C3674 C3673 1.379 . S
H3675 C3669 0.959 . S
H3676 C3669 0.961 . S
H3677 C3669 0.960 . S
H3678 C3670 0.930 . S
H3679 C3671 0.929 . S
H3680 C3688 0.929 . S
H3681 C3690 0.930 . S
H3682 C3692 0.930 . S
H3683 C3695 0.929 . S
H3684 C3698 0.930 . S
H3685 C3700 0.960 . S
H3686 C3700 0.960 . S
H3687 C3700 0.960 . S
C3688 H3680 0.929 . S
C3688 C3689 1.377 . S
C3688 C3690 1.384 . S
C3689 C3688 1.377 . S
C3689 C3695 1.390 . S
C3690 H3681 0.930 . S
C3690 C3688 1.384 . S
C3690 C3691 1.372 . S
C3691 C3690 1.372 . S
C3691 C3692 1.400 . S
C3691 C3696 1.490 . S
C3692 H3682 0.930 . S
C3692 C3691 1.400 . S
C3692 C3695 1.386 . S
H3693 C3709 0.930 . S
H3694 C3710 0.931 . S
C3695 H3683 0.929 . S
C3695 C3689 1.390 . S
C3695 C3692 1.386 . S
C3696 C3691 1.490 . S
C3696 C3698 1.395 . S
C3696 C3699 1.403 . S
H3697 C3703 0.930 . S
C3698 H3684 0.930 . S
C3698 C3696 1.395 . S
C3698 C3701 1.403 . S
C3699 C3696 1.403 . S
C3699 C3700 1.524 . S
C3699 C3703 1.400 . S
C3700 H3685 0.960 . S
C3700 H3686 0.960 . S
C3700 H3687 0.960 . S
C3700 C3699 1.524 . S
C3701 C3698 1.403 . S
C3701 C3702 1.392 . S
C3701 C3705 1.495 . S
C3702 C3701 1.392 . S
C3702 C3703 1.385 . S
C3702 C3704 1.478 . S
C3703 H3697 0.930 . S
C3703 C3699 1.400 . S
C3703 C3702 1.385 . S
C3704 C3702 1.478 . S
C3704 C3706 1.381 . S
C3704 C3710 1.383 . S
C3705 C3701 1.495 . S
C3705 H3711 0.959 . S
C3705 H3712 0.961 . S
C3705 H3713 0.960 . S
C3706 C3704 1.381 . S
C3706 C3707 1.394 . S
C3706 H3714 0.930 . S
C3707 C3706 1.394 . S
C3707 C3708 1.383 . S
C3707 H3715 0.929 . S
C3708 C3707 1.383 . S
C3708 C3709 1.377 . S
C3709 H3693 0.930 . S
C3709 C3708 1.377 . S
C3709 C3710 1.379 . S
C3710 H3694 0.931 . S
C3710 C3704 1.383 . S
C3710 C3709 1.379 . S
H3711 C3705 0.959 . S
H3712 C3705 0.961 . S
H3713 C3705 0.960 . S
H3714 C3706 0.930 . S
H3715 C3707 0.929 . S
H3716 C3724 0.929 . S
H3717 C3726 0.930 . S
H3718 C3728 0.930 . S
H3719 C3731 0.929 . S
H3720 C3734 0.930 . S
H3721 C3736 0.907 1_554 S
H3722 C3736 0.960 . S
H3723 C3736 0.960 . S
C3724 H3716 0.929 . S
C3724 C3725 1.377 . S
C3724 C3726 1.384 . S
C3725 C3724 1.377 . S
C3725 C3731 1.390 . S
C3726 H3717 0.930 . S
C3726 C3724 1.384 . S
C3726 C3727 1.372 . S
C3727 C3726 1.372 . S
C3727 C3728 1.400 . S
C3727 C3732 1.490 . S
C3728 H3718 0.930 . S
C3728 C3727 1.400 . S
C3728 C3731 1.386 . S
H3729 C3745 0.930 . S
H3730 C3746 0.931 . S
C3731 H3719 0.929 . S
C3731 C3725 1.390 . S
C3731 C3728 1.386 . S
C3732 C3727 1.490 . S
C3732 C3734 1.395 . S
C3732 C3735 1.403 . S
H3733 C3739 0.930 . S
C3734 H3720 0.930 . S
C3734 C3732 1.395 . S
C3734 C3737 1.403 1_556 S
C3735 C3732 1.403 . S
C3735 C3736 1.524 . S
C3735 C3739 1.400 1_556 S
C3736 H3721 0.907 1_556 S
C3736 H3722 0.960 . S
C3736 H3723 0.960 . S
C3736 C3735 1.524 . S
C3737 C3734 1.403 1_554 S
C3737 C3738 1.392 . S
C3737 C3741 1.495 . S
C3738 C3737 1.392 . S
C3738 C3739 1.385 . S
C3738 C3740 1.478 . S
C3739 H3733 0.930 . S
C3739 C3735 1.400 1_554 S
C3739 C3738 1.385 . S
C3740 C3738 1.478 . S
C3740 C3742 1.381 . S
C3740 C3746 1.383 . S
C3741 C3737 1.495 . S
C3741 H3747 0.923 1_554 S
C3741 H3748 0.961 . S
C3741 H3749 0.960 . S
C3742 C3740 1.381 . S
C3742 C3743 1.394 . S
C3742 H3750 0.930 . S
C3743 C3742 1.394 . S
C3743 C3744 1.383 . S
C3743 H3751 0.929 . S
C3744 C3743 1.383 . S
C3744 C3745 1.377 . S
C3745 H3729 0.930 . S
C3745 C3744 1.377 . S
C3745 C3746 1.379 . S
C3746 H3730 0.931 . S
C3746 C3740 1.383 . S
C3746 C3745 1.379 . S
H3747 C3741 0.923 1_556 S
H3748 C3741 0.961 . S
H3749 C3741 0.960 . S
H3750 C3742 0.930 . S
H3751 C3743 0.929 . S
H3752 C3760 0.929 . S
H3753 C3762 0.930 . S
H3754 C3764 0.930 . S
H3755 C3767 0.929 . S
H3756 C3770 0.930 . S
H3757 C3772 0.960 . S
H3758 C3772 0.960 . S
H3759 C3772 0.960 . S
C3760 H3752 0.929 . S
C3760 C3761 1.377 . S
C3760 C3762 1.384 . S
C3761 C3760 1.377 . S
C3761 C3767 1.390 . S
C3762 H3753 0.930 . S
C3762 C3760 1.384 . S
C3762 C3763 1.372 . S
C3763 C3762 1.372 . S
C3763 C3764 1.400 . S
C3763 C3768 1.490 . S
C3764 H3754 0.930 . S
C3764 C3763 1.400 . S
C3764 C3767 1.386 . S
H3765 C3781 0.930 . S
H3766 C3782 0.931 . S
C3767 H3755 0.929 . S
C3767 C3761 1.390 . S
C3767 C3764 1.386 . S
C3768 C3763 1.490 . S
C3768 C3770 1.395 . S
C3768 C3771 1.403 . S
H3769 C3775 0.930 . S
C3770 H3756 0.930 . S
C3770 C3768 1.395 . S
C3770 C3773 1.403 . S
C3771 C3768 1.403 . S
C3771 C3772 1.524 . S
C3771 C3775 1.400 . S
C3772 H3757 0.960 . S
C3772 H3758 0.960 . S
C3772 H3759 0.960 . S
C3772 C3771 1.524 . S
C3773 C3770 1.403 . S
C3773 C3774 1.392 . S
C3773 C3777 1.495 . S
C3774 C3773 1.392 . S
C3774 C3775 1.385 . S
C3774 C3776 1.478 . S
C3775 H3769 0.930 . S
C3775 C3771 1.400 . S
C3775 C3774 1.385 . S
C3776 C3774 1.478 . S
C3776 C3778 1.381 . S
C3776 C3782 1.383 . S
C3777 C3773 1.495 . S
C3777 H3783 0.959 . S
C3777 H3784 0.961 . S
C3777 H3785 0.960 . S
C3778 C3776 1.381 . S
C3778 C3779 1.394 . S
C3778 H3786 0.930 . S
C3779 C3778 1.394 . S
C3779 C3780 1.383 . S
C3779 H3787 0.929 . S
C3780 C3779 1.383 . S
C3780 C3781 1.377 . S
C3781 H3765 0.930 . S
C3781 C3780 1.377 . S
C3781 C3782 1.379 . S
C3782 H3766 0.931 . S
C3782 C3776 1.383 . S
C3782 C3781 1.379 . S
H3783 C3777 0.959 . S
H3784 C3777 0.961 . S
H3785 C3777 0.960 . S
H3786 C3778 0.930 . S
H3787 C3779 0.929 . S
H3788 C3796 0.929 . S
H3789 C3798 0.930 . S
H3790 C3800 0.930 . S
H3791 C3803 0.929 . S
H3792 C3806 0.930 . S
H3793 C3808 0.960 . S
H3794 C3808 0.960 . S
H3795 C3808 0.960 . S
C3796 H3788 0.929 . S
C3796 C3797 1.377 . S
C3796 C3798 1.384 . S
C3797 C3796 1.377 . S
C3797 C3803 1.390 . S
C3798 H3789 0.930 . S
C3798 C3796 1.384 . S
C3798 C3799 1.372 . S
C3799 C3798 1.372 . S
C3799 C3800 1.400 . S
C3799 C3804 1.490 . S
C3800 H3790 0.930 . S
C3800 C3799 1.400 . S
C3800 C3803 1.386 . S
H3801 C3817 0.930 . S
H3802 C3818 0.931 . S
C3803 H3791 0.929 . S
C3803 C3797 1.390 . S
C3803 C3800 1.386 . S
C3804 C3799 1.490 . S
C3804 C3806 1.395 . S
C3804 C3807 1.403 . S
H3805 C3811 0.930 . S
C3806 H3792 0.930 . S
C3806 C3804 1.395 . S
C3806 C3809 1.403 . S
C3807 C3804 1.403 . S
C3807 C3808 1.524 . S
C3807 C3811 1.400 . S
C3808 H3793 0.960 . S
C3808 H3794 0.960 . S
C3808 H3795 0.960 . S
C3808 C3807 1.524 . S
C3809 C3806 1.403 . S
C3809 C3810 1.392 . S
C3809 C3813 1.495 . S
C3810 C3809 1.392 . S
C3810 C3811 1.385 . S
C3810 C3812 1.478 . S
C3811 H3805 0.930 . S
C3811 C3807 1.400 . S
C3811 C3810 1.385 . S
C3812 C3810 1.478 . S
C3812 C3814 1.381 . S
C3812 C3818 1.383 . S
C3813 C3809 1.495 . S
C3813 H3819 0.959 . S
C3813 H3820 0.961 . S
C3813 H3821 0.960 . S
C3814 C3812 1.381 . S
C3814 C3815 1.394 . S
C3814 H3822 0.930 . S
C3815 C3814 1.394 . S
C3815 C3816 1.383 . S
C3815 H3823 0.929 . S
C3816 C3815 1.383 . S
C3816 C3817 1.377 . S
C3817 H3801 0.930 . S
C3817 C3816 1.377 . S
C3817 C3818 1.379 . S
C3818 H3802 0.931 . S
C3818 C3812 1.383 . S
C3818 C3817 1.379 . S
H3819 C3813 0.959 . S
H3820 C3813 0.961 . S
H3821 C3813 0.960 . S
H3822 C3814 0.930 . S
H3823 C3815 0.929 . S
H3824 C3832 0.929 . S
H3825 C3834 0.930 . S
H3826 C3836 0.930 . S
H3827 C3839 0.929 . S
H3828 C3842 0.930 . S
H3829 C3844 0.960 . S
H3830 C3844 0.960 . S
H3831 C3844 0.960 . S
C3832 H3824 0.929 . S
C3832 C3833 1.377 . S
C3832 C3834 1.384 . S
C3833 C3832 1.377 . S
C3833 C3839 1.390 . S
C3834 H3825 0.930 . S
C3834 C3832 1.384 . S
C3834 C3835 1.372 . S
C3835 C3834 1.372 . S
C3835 C3836 1.400 . S
C3835 C3840 1.490 . S
C3836 H3826 0.930 . S
C3836 C3835 1.400 . S
C3836 C3839 1.386 . S
H3837 C3853 0.930 . S
H3838 C3854 0.931 . S
C3839 H3827 0.929 . S
C3839 C3833 1.390 . S
C3839 C3836 1.386 . S
C3840 C3835 1.490 . S
C3840 C3842 1.395 . S
C3840 C3843 1.403 . S
H3841 C3847 0.930 . S
C3842 H3828 0.930 . S
C3842 C3840 1.395 . S
C3842 C3845 1.403 . S
C3843 C3840 1.403 . S
C3843 C3844 1.524 . S
C3843 C3847 1.400 . S
C3844 H3829 0.960 . S
C3844 H3830 0.960 . S
C3844 H3831 0.960 . S
C3844 C3843 1.524 . S
C3845 C3842 1.403 . S
C3845 C3846 1.392 . S
C3845 C3849 1.495 . S
C3846 C3845 1.392 . S
C3846 C3847 1.385 . S
C3846 C3848 1.478 . S
C3847 H3841 0.930 . S
C3847 C3843 1.400 . S
C3847 C3846 1.385 . S
C3848 C3846 1.478 . S
C3848 C3850 1.381 . S
C3848 C3854 1.383 . S
C3849 C3845 1.495 . S
C3849 H3855 0.959 . S
C3849 H3856 0.961 . S
C3849 H3857 0.960 . S
C3850 C3848 1.381 . S
C3850 C3851 1.394 . S
C3850 H3858 0.930 . S
C3851 C3850 1.394 . S
C3851 C3852 1.383 . S
C3851 H3859 0.929 . S
C3852 C3851 1.383 . S
C3852 C3853 1.377 . S
C3853 H3837 0.930 . S
C3853 C3852 1.377 . S
C3853 C3854 1.379 . S
C3854 H3838 0.931 . S
C3854 C3848 1.383 . S
C3854 C3853 1.379 . S
H3855 C3849 0.959 . S
H3856 C3849 0.961 . S
H3857 C3849 0.960 . S
H3858 C3850 0.930 . S
H3859 C3851 0.929 . S
H3860 C3868 0.929 . S
H3861 C3870 0.930 . S
H3862 C3872 0.930 . S
H3863 C3875 0.929 . S
H3864 C3878 0.930 . S
H3865 C3880 0.960 . S
H3866 C3880 0.960 . S
H3867 C3880 0.960 . S
C3868 H3860 0.929 . S
C3868 C3869 1.377 . S
C3868 C3870 1.384 . S
C3869 C3868 1.377 . S
C3869 C3875 1.390 . S
C3870 H3861 0.930 . S
C3870 C3868 1.384 . S
C3870 C3871 1.372 . S
C3871 C3870 1.372 . S
C3871 C3872 1.400 . S
C3871 C3876 1.490 . S
C3872 H3862 0.930 . S
C3872 C3871 1.400 . S
C3872 C3875 1.386 . S
H3873 C3889 0.930 . S
H3874 C3890 0.931 . S
C3875 H3863 0.929 . S
C3875 C3869 1.390 . S
C3875 C3872 1.386 . S
C3876 C3871 1.490 . S
C3876 C3878 1.395 . S
C3876 C3879 1.403 . S
H3877 C3883 0.930 . S
C3878 H3864 0.930 . S
C3878 C3876 1.395 . S
C3878 C3881 1.403 1_556 S
C3879 C3876 1.403 . S
C3879 C3880 1.524 . S
C3879 C3883 1.400 1_556 S
C3880 H3865 0.960 . S
C3880 H3866 0.960 . S
C3880 H3867 0.960 . S
C3880 C3879 1.524 . S
C3881 C3878 1.403 1_554 S
C3881 C3882 1.392 . S
C3881 C3885 1.495 . S
C3882 C3881 1.392 . S
C3882 C3883 1.385 . S
C3882 C3884 1.478 . S
C3883 H3877 0.930 . S
C3883 C3879 1.400 1_554 S
C3883 C3882 1.385 . S
C3884 C3882 1.478 . S
C3884 C3886 1.381 . S
C3884 C3890 1.383 . S
C3885 C3881 1.495 . S
C3885 H3891 0.959 . S
C3885 H3892 0.961 . S
C3885 H3893 0.960 . S
C3886 C3884 1.381 . S
C3886 C3887 1.394 . S
C3886 H3894 0.930 . S
C3887 C3886 1.394 . S
C3887 C3888 1.383 . S
C3887 H3895 0.929 . S
C3888 C3887 1.383 . S
C3888 C3889 1.377 . S
C3889 H3873 0.930 . S
C3889 C3888 1.377 . S
C3889 C3890 1.379 . S
C3890 H3874 0.931 . S
C3890 C3884 1.383 . S
C3890 C3889 1.379 . S
H3891 C3885 0.959 . S
H3892 C3885 0.961 . S
H3893 C3885 0.960 . S
H3894 C3886 0.930 . S
H3895 C3887 0.929 . S
H3896 C3904 0.929 . S
H3897 C3906 0.930 . S
H3898 C3908 0.930 . S
H3899 C3911 0.929 . S
H3900 C3914 0.930 . S
H3901 C3916 0.960 . S
H3902 C3916 0.960 . S
H3903 C3916 0.960 . S
C3904 H3896 0.929 . S
C3904 C3905 1.377 . S
C3904 C3906 1.384 . S
C3905 C3904 1.377 . S
C3905 C3911 1.390 . S
C3906 H3897 0.930 . S
C3906 C3904 1.384 . S
C3906 C3907 1.372 . S
C3907 C3906 1.372 . S
C3907 C3908 1.400 . S
C3907 C3912 1.490 . S
C3908 H3898 0.930 . S
C3908 C3907 1.400 . S
C3908 C3911 1.386 . S
H3909 C3925 0.930 . S
H3910 C3926 0.931 . S
C3911 H3899 0.929 . S
C3911 C3905 1.390 . S
C3911 C3908 1.386 . S
C3912 C3907 1.490 . S
C3912 C3914 1.395 . S
C3912 C3915 1.403 . S
H3913 C3919 0.930 . S
C3914 H3900 0.930 . S
C3914 C3912 1.395 . S
C3914 C3917 1.403 . S
C3915 C3912 1.403 . S
C3915 C3916 1.524 . S
C3915 C3919 1.400 . S
C3916 H3901 0.960 . S
C3916 H3902 0.960 . S
C3916 H3903 0.960 . S
C3916 C3915 1.524 . S
C3917 C3914 1.403 . S
C3917 C3918 1.392 . S
C3917 C3921 1.495 . S
C3918 C3917 1.392 . S
C3918 C3919 1.385 . S
C3918 C3920 1.478 . S
C3919 H3913 0.930 . S
C3919 C3915 1.400 . S
C3919 C3918 1.385 . S
C3920 C3918 1.478 . S
C3920 C3922 1.381 . S
C3920 C3926 1.383 . S
C3921 C3917 1.495 . S
C3921 H3927 0.959 . S
C3921 H3928 0.961 . S
C3921 H3929 0.960 . S
C3922 C3920 1.381 . S
C3922 C3923 1.394 . S
C3922 H3930 0.930 . S
C3923 C3922 1.394 . S
C3923 C3924 1.383 . S
C3923 H3931 0.929 . S
C3924 C3923 1.383 . S
C3924 C3925 1.377 . S
C3925 H3909 0.930 . S
C3925 C3924 1.377 . S
C3925 C3926 1.379 . S
C3926 H3910 0.931 . S
C3926 C3920 1.383 . S
C3926 C3925 1.379 . S
H3927 C3921 0.959 . S
H3928 C3921 0.961 . S
H3929 C3921 0.960 . S
H3930 C3922 0.930 . S
H3931 C3923 0.929 . S
H3932 C3940 0.929 . S
H3933 C3942 0.930 . S
H3934 C3944 0.930 . S
H3935 C3947 0.929 . S
H3936 C3950 0.930 . S
H3937 C3952 0.960 . S
H3938 C3952 0.960 . S
H3939 C3952 0.960 . S
C3940 H3932 0.929 . S
C3940 C3941 1.377 . S
C3940 C3942 1.384 . S
C3941 C3940 1.377 . S
C3941 C3947 1.390 . S
C3942 H3933 0.930 . S
C3942 C3940 1.384 . S
C3942 C3943 1.372 . S
C3943 C3942 1.372 . S
C3943 C3944 1.400 . S
C3943 C3948 1.490 . S
C3944 H3934 0.930 . S
C3944 C3943 1.400 . S
C3944 C3947 1.386 . S
H3945 C3961 0.930 . S
H3946 C3962 0.931 . S
C3947 H3935 0.929 . S
C3947 C3941 1.390 . S
C3947 C3944 1.386 . S
C3948 C3943 1.490 . S
C3948 C3950 1.395 . S
C3948 C3951 1.403 . S
H3949 C3955 0.930 . S
C3950 H3936 0.930 . S
C3950 C3948 1.395 . S
C3950 C3953 1.403 . S
C3951 C3948 1.403 . S
C3951 C3952 1.524 . S
C3951 C3955 1.400 . S
C3952 H3937 0.960 . S
C3952 H3938 0.960 . S
C3952 H3939 0.960 . S
C3952 C3951 1.524 . S
C3953 C3950 1.403 . S
C3953 C3954 1.392 . S
C3953 C3957 1.495 . S
C3954 C3953 1.392 . S
C3954 C3955 1.385 . S
C3954 C3956 1.478 . S
C3955 H3949 0.930 . S
C3955 C3951 1.400 . S
C3955 C3954 1.385 . S
C3956 C3954 1.478 . S
C3956 C3958 1.381 . S
C3956 C3962 1.383 . S
C3957 C3953 1.495 . S
C3957 H3963 0.959 . S
C3957 H3964 0.961 . S
C3957 H3965 0.960 . S
C3958 C3956 1.381 . S
C3958 C3959 1.394 . S
C3958 H3966 0.930 . S
C3959 C3958 1.394 . S
C3959 C3960 1.383 . S
C3959 H3967 0.929 . S
C3960 C3959 1.383 . S
C3960 C3961 1.377 . S
C3961 H3945 0.930 . S
C3961 C3960 1.377 . S
C3961 C3962 1.379 . S
C3962 H3946 0.931 . S
C3962 C3956 1.383 . S
C3962 C3961 1.379 . S
H3963 C3957 0.959 . S
H3964 C3957 0.961 . S
H3965 C3957 0.960 . S
H3966 C3958 0.930 . S
H3967 C3959 0.929 . S
C1097 C20 1.204 . S
C1116 C985 1.202 . S
C1133 C54 1.207 . S
C1152 C475 1.208 . S
C1169 C88 1.205 . S
C1188 C1053 1.164 . S
C1205 C122 1.206 . S
C1224 C543 1.171 . S
C1241 C849 1.186 . S
C1260 C156 1.208 . S
C1277 C190 1.206 . S
C1296 C339 1.167 . S
C1313 C224 1.208 . S
C1332 C917 1.194 . S
C1349 C407 1.186 . S
C1368 C258 1.195 . S
C1385 C713 1.192 . S
C1404 C292 1.211 . S
C1421 C326 1.207 . S
C1440 C203 1.210 . S
C1457 C360 1.205 . S
C1476 C781 1.165 . S
C1493 C271 1.186 . S
C1512 C394 1.195 . S
C1529 C577 1.192 . S
C1548 C428 1.204 . S
C1565 C67 1.186 . S
C1584 C462 1.195 . S
C1601 C496 1.205 . S
C1620 C645 1.197 . S
C1637 C530 1.205 . S
C1656 C135 1.170 . S
C1673 C564 1.206 . S
C1692 C441 1.167 . S
C1709 C1019 1.190 . S
C1728 C598 1.195 . S
C1745 C509 1.194 . S
C1764 C632 1.205 . S
C1781 C1087 1.189 . S
C1800 C666 1.195 . S
C1817 C305 1.192 . S
C1836 C700 1.210 . S
C1853 C734 1.206 . S
C1872 C883 1.165 . S
C1889 C373 1.194 . S
C1908 C768 1.202 . S
C1925 C951 1.190 . S
C1944 C802 1.211 . S
C1961 C169 1.186 . S
C1980 C836 1.203 . S
C1997 C747 1.194 . S
C2016 C870 1.208 . S
C2033 C237 1.185 . S
C2052 C904 1.200 . S
C2069 C815 1.184 . S
C2088 C938 1.196 . S
C2105 C33 1.189 . S
C2124 C972 1.197 . S
C2141 C611 1.191 . S
C2160 C1006 1.211 . S
C2177 C1040 1.206 . S
C2196 C101 1.204 . S
C2213 C679 1.191 . S
C2232 C1074 1.211 . S
C2249 C614 0.540 . S
C2268 C2 0.576 . S
C2285 C36 0.553 . S
C2304 C648 0.618 . S
C2321 C546 0.535 . S
C2340 C70 0.470 . S
C2357 C104 0.551 . S
C2376 C580 0.513 . S
C2393 C750 0.539 . S
C2412 C138 0.473 . S
C2429 C784 0.553 . S
C2448 C172 0.618 . S
C2465 C206 0.534 . S
C2484 C682 0.470 . S
C2501 C716 0.531 . S
C2520 C240 0.481 . S
C2537 C274 0.548 . S
C2556 C886 0.474 . S
C2573 C308 0.544 . S
C2592 C920 0.618 . S
C2609 C818 0.532 . S
C2628 C342 0.502 . S
C2645 C852 0.534 . S
C2664 C376 0.491 . S
C2681 C410 0.561 . S
C2700 C1022 0.597 . S
C2717 C1056 0.532 . S
C2736 C444 0.509 . S
C2753 C954 0.532 . S
C2772 C478 0.569 . S
C2789 C988 0.542 . S
C2808 C512 0.613 . S
C2825 C5 1.526 . S
C2844 C175 1.525 . S
C2861 C39 1.526 . S
C2880 C209 1.525 . S
C2897 C73 1.526 . S
C2916 C243 1.523 . S
C2933 C107 1.525 . S
C2952 C141 1.520 . S
C2969 C277 1.526 . S
C2988 C447 1.525 . S
C3005 C481 1.526 . S
C3024 C311 1.521 . S
C3041 C515 1.526 . S
C3060 C345 1.520 . S
C3077 C413 1.525 . S
C3096 C379 1.522 . S
C3113 C549 1.525 . S
C3132 C719 1.521 . S
C3149 C583 1.526 . S
C3168 C753 1.524 . S
C3185 C787 1.526 . S
C3204 C617 1.521 . S
C3221 C685 1.526 . S
C3240 C651 1.525 . S
C3257 C821 1.526 . S
C3276 C991 1.523 . S
C3293 C1025 1.526 . S
C3312 C855 1.522 . S
C3329 C1059 1.525 . S
C3348 C889 1.525 . S
C3365 C923 1.526 . S
C3384 C957 1.524 . S
C3401 C145 1.435 . S
C3420 C9 1.414 . S
C3437 C43 1.432 . S
C3456 C179 1.432 . S
C3473 C77 1.441 . S
C3492 C213 1.412 . S
C3509 C111 1.434 . S
C3528 C247 1.449 . S
C3545 C417 1.431 . S
C3564 C281 1.458 . S
C3581 C315 1.430 . S
C3600 C451 1.450 . S
C3617 C485 1.430 . S
C3636 C349 1.453 . S
C3653 C383 1.433 . S
C3672 C519 1.462 . S
C3689 C553 1.431 . S
C3708 C689 1.432 . S
C3725 C723 1.437 . S
C3744 C587 1.434 . S
C3761 C757 1.438 . S
C3780 C621 1.427 . S
C3797 C791 1.440 . S
C3816 C655 1.412 . S
C3833 C825 1.428 . S
C3852 C961 1.414 . S
C3869 C859 1.441 . S
C3888 C995 1.421 . S
C3905 C893 1.441 . S
C3924 C1029 1.433 . S
C3941 C927 1.428 . S
C3960 C1063 1.411 . S
