# Generated by pormake.
# Topology sml, (6)-cn, num edge types: 1
# Building blocks:
#     Node 0, Type 0, BuildingBlock: IZENUY_clean_sbu_0, # of connection points: 6
#     Node 1, Type 0, BuildingBlock: IZENUY_clean_sbu_0, # of connection points: 6
#     Node 2, Type 0, BuildingBlock: IZENUY_clean_sbu_0, # of connection points: 6
#     Node 3, Type 0, BuildingBlock: IZENUY_clean_sbu_0, # of connection points: 6
#     Node 4, Type 0, BuildingBlock: IZENUY_clean_sbu_0, # of connection points: 6
#     Node 5, Type 0, BuildingBlock: IZENUY_clean_sbu_0, # of connection points: 6
#     Edge 6, Type (0, 0), BuildingBlock: XUDNAN_clean_linker_2, # of connection points: 2
#     Edge 7, Type (0, 0), BuildingBlock: XUDNAN_clean_linker_2, # of connection points: 2
#     Edge 8, Type (0, 0), BuildingBlock: XUDNAN_clean_linker_2, # of connection points: 2
#     Edge 9, Type (0, 0), BuildingBlock: XUDNAN_clean_linker_2, # of connection points: 2
#     Edge 10, Type (0, 0), BuildingBlock: XUDNAN_clean_linker_2, # of connection points: 2
#     Edge 11, Type (0, 0), BuildingBlock: XUDNAN_clean_linker_2, # of connection points: 2
#     Edge 12, Type (0, 0), BuildingBlock: XUDNAN_clean_linker_2, # of connection points: 2
#     Edge 13, Type (0, 0), BuildingBlock: XUDNAN_clean_linker_2, # of connection points: 2
#     Edge 14, Type (0, 0), BuildingBlock: XUDNAN_clean_linker_2, # of connection points: 2
#     Edge 15, Type (0, 0), BuildingBlock: XUDNAN_clean_linker_2, # of connection points: 2
#     Edge 16, Type (0, 0), BuildingBlock: XUDNAN_clean_linker_2, # of connection points: 2
#     Edge 17, Type (0, 0), BuildingBlock: XUDNAN_clean_linker_2, # of connection points: 2
#     Edge 18, Type (0, 0), BuildingBlock: XUDNAN_clean_linker_2, # of connection points: 2
#     Edge 19, Type (0, 0), BuildingBlock: XUDNAN_clean_linker_2, # of connection points: 2
#     Edge 20, Type (0, 0), BuildingBlock: XUDNAN_clean_linker_2, # of connection points: 2
#     Edge 21, Type (0, 0), BuildingBlock: XUDNAN_clean_linker_2, # of connection points: 2
#     Edge 22, Type (0, 0), BuildingBlock: XUDNAN_clean_linker_2, # of connection points: 2
#     Edge 23, Type (0, 0), BuildingBlock: XUDNAN_clean_linker_2, # of connection points: 2
# Relax obj value: 0.327
# Max RMSD: 0.283
# Mean RMSD: 0.283
data_MOF--net-sml--node1-IZENUY_clean_sbu_0--edge1-XUDNAN_clean_linker_2
_symmetry_space_group_name_H-M    P1
_symmetry_Int_Tables_number       1
_symmetry_cell_setting            triclinic
loop_
_symmetry_equiv_pos_as_xyz
'x, y, z'
_cell_length_a     40.411546
_cell_length_b     40.368568
_cell_length_c     14.763851
_cell_angle_alpha  89.88884
_cell_angle_beta   90.211243
_cell_angle_gamma 120.02183
loop_
_atom_site_label
_atom_site_type_symbol
_atom_site_fract_x
_atom_site_fract_y
_atom_site_fract_z
_atom_type_partial_charge
Fe0 Fe 0.27131 0.4593 0.03492 0.0
Fe1 Fe 0.20056 0.3828 0.98348 0.0
O2 O 0.22585 0.43374 0.98252 0.0
Fe3 Fe 0.206 0.45933 0.93002 0.0
O4 O 0.20758 0.48394 0.03425 0.0
O5 O 0.26692 0.50103 0.06583 0.0
O6 O 0.25044 0.43906 0.14275 0.0
C7 C 0.22992 0.40391 0.15988 0.0
C8 C 0.28563 0.50326 0.88609 0.0
O9 O 0.21784 0.3792 0.09696 0.0
C10 C 0.18828 0.40188 0.80697 0.0
O11 O 0.28495 0.42289 0.01325 0.0
O12 O 0.23907 0.38094 0.92627 0.0
O13 O 0.25248 0.49921 0.89316 0.0
O14 O 0.29416 0.48145 0.9289 0.0
C15 C 0.14249 0.39769 0.0164 0.0
O16 O 0.17895 0.37775 0.87065 0.0
O17 O 0.20355 0.43715 0.82297 0.0
C18 C 0.27326 0.39735 0.95261 0.0
O19 O 0.16016 0.38081 0.04028 0.0
O20 O 0.15622 0.42424 0.95806 0.0
C21 C 0.23874 0.50643 0.0728 0.0
Fe22 Fe 0.83135 0.27163 0.40728 0.0
Fe23 Fe 0.83553 0.19995 0.35539 0.0
O24 O 0.81076 0.22608 0.35508 0.0
Fe25 Fe 0.76534 0.2069 0.30291 0.0
O26 O 0.74287 0.20789 0.40825 0.0
O27 O 0.78555 0.26714 0.44076 0.0
O28 O 0.83137 0.25084 0.51466 0.0
C29 C 0.8451 0.22955 0.53169 0.0
C30 C 0.80077 0.28703 0.26212 0.0
O31 O 0.85662 0.21649 0.46883 0.0
C32 C 0.80453 0.18942 0.17888 0.0
O33 O 0.88106 0.28498 0.3835 0.0
O34 O 0.87628 0.23823 0.2986 0.0
O35 O 0.77175 0.25378 0.26887 0.0
O36 O 0.83154 0.2948 0.30167 0.0
C37 C 0.76239 0.14186 0.38545 0.0
O38 O 0.81861 0.17906 0.24228 0.0
O39 O 0.7851 0.20527 0.19529 0.0
C40 C 0.89448 0.27256 0.32384 0.0
O41 O 0.79664 0.1594 0.41167 0.0
O42 O 0.75024 0.15662 0.32796 0.0
C43 C 0.75202 0.23887 0.44844 0.0
Fe44 Fe 0.5716 0.75214 0.61783 0.0
Fe45 Fe 0.57292 0.81793 0.72289 0.0
O46 O 0.59781 0.79748 0.67059 0.0
Fe47 Fe 0.6487 0.82207 0.67063 0.0
O48 O 0.64947 0.7827 0.72801 0.0
O49 O 0.60713 0.73734 0.64075 0.0
O50 O 0.54851 0.72905 0.72309 0.0
C51 C 0.52718 0.73826 0.76522 0.0
C52 C 0.62767 0.79306 0.49411 0.0
O53 O 0.53225 0.77182 0.75812 0.0
C54 C 0.63534 0.88146 0.63855 0.0
O55 O 0.53087 0.75796 0.58498 0.0
O56 O 0.54901 0.81753 0.61813 0.0
O57 O 0.65224 0.80491 0.55737 0.0
O58 O 0.5925 0.77298 0.51062 0.0
C59 C 0.62972 0.83399 0.84677 0.0
O60 O 0.60885 0.8676 0.69672 0.0
O61 O 0.65177 0.86344 0.61392 0.0
C62 C 0.52668 0.78691 0.5772 0.0
O63 O 0.59452 0.81918 0.83033 0.0
O64 O 0.65386 0.84342 0.78343 0.0
C65 C 0.63258 0.74843 0.7017 0.0
Fe66 Fe 0.83138 0.57004 0.96127 0.0
Fe67 Fe 0.76675 0.56349 0.08394 0.0
O68 O 0.8085 0.5913 0.01952 0.0
Fe69 Fe 0.82773 0.64139 0.01193 0.0
O70 O 0.87695 0.65212 -0.00368 0.0
O71 O 0.87562 0.5985 0.0263 0.0
O72 O 0.81861 0.53176 0.04364 0.0
C73 C 0.80626 0.52652 0.12397 0.0
C74 C 0.83334 0.62437 0.83856 0.0
O75 O 0.78981 0.5438 0.15446 0.0
C76 C 0.7494 0.61464 0.00473 0.0
O77 O 0.78832 0.54002 0.89463 0.0
O78 O 0.7477 0.52201 0.00881 0.0
O79 O 0.8189 0.63793 0.89177 0.0
O80 O 0.84762 0.60459 0.86719 0.0
C81 C 0.81234 0.62903 0.19099 0.0
O82 O 0.73987 0.58003 0.01604 0.0
O83 O 0.78245 0.64059 0.02691 0.0
C84 C 0.75567 0.51799 0.92825 0.0
O85 O 0.77974 0.60076 0.17115 0.0
O86 O 0.83719 0.64654 0.13115 0.0
C87 C 0.89274 0.63461 0.02956 0.0
Fe88 Fe 0.28586 0.8279 0.25662 0.0
Fe89 Fe 0.21652 0.76368 0.35379 0.0
O90 O 0.24003 0.81013 0.30485 0.0
Fe91 Fe 0.21792 0.83862 0.30499 0.0
O92 O 0.25732 0.87729 0.36419 0.0
O93 O 0.30367 0.87857 0.28467 0.0
O94 O 0.30592 0.82416 0.3634 0.0
C95 C 0.2948 0.79252 0.40226 0.0
C96 C 0.25009 0.84905 0.12992 0.0
O97 O 0.26106 0.765 0.38936 0.0
C98 C 0.15523 0.7688 0.27244 0.0
O99 O 0.27676 0.7805 0.21946 0.0
O100 O 0.21592 0.74117 0.24699 0.0
O101 O 0.23627 0.85993 0.19258 0.0
O102 O 0.26845 0.83219 0.14777 0.0
C103 C 0.20546 0.80688 0.48023 0.0
O104 O 0.16728 0.75337 0.32838 0.0
O105 O 0.17668 0.80249 0.24584 0.0
C106 C 0.2465 0.74849 0.20736 0.0
O107 O 0.21691 0.78377 0.46244 0.0
O108 O 0.1959 0.82204 0.41758 0.0
C109 C 0.29183 0.89376 0.34131 0.0
Fe110 Fe 0.47315 0.21721 0.69462 0.0
Fe111 Fe 0.39465 0.20566 0.63806 0.0
O112 O 0.44538 0.23358 0.63806 0.0
Fe113 Fe 0.46852 0.27785 0.58039 0.0
O114 O 0.4907 0.30341 0.68333 0.0
O115 O 0.51274 0.26587 0.72457 0.0
O116 O 0.4513 0.21647 0.80093 0.0
C117 C 0.41586 0.19839 0.81619 0.0
C118 C 0.51704 0.24675 0.54602 0.0
O119 O 0.39166 0.18625 0.75222 0.0
C120 C 0.413 0.23224 0.45999 0.0
O121 O 0.43948 0.16597 0.67357 0.0
O122 O 0.39549 0.1658 0.58515 0.0
O123 O 0.51116 0.27477 0.54968 0.0
O124 O 0.49645 0.21686 0.5908 0.0
C125 C 0.40497 0.27727 0.66172 0.0
O126 O 0.38887 0.2202 0.52362 0.0
O127 O 0.44799 0.25436 0.47522 0.0
C128 C 0.41351 0.14994 0.61399 0.0
O129 O 0.39032 0.24357 0.69108 0.0
O130 O 0.43055 0.28948 0.60115 0.0
C131 C 0.51504 0.29846 0.72538 0.0
H132 H 0.33244 0.25745 0.71333 0.0
H133 H 0.44774 0.35386 0.69389 0.0
H134 H 0.42695 0.39519 0.76901 0.0
H135 H 0.28539 0.31298 0.66482 0.0
H136 H 0.24617 0.28492 0.74029 0.0
H137 H 0.27039 0.26337 0.68487 0.0
H138 H 0.28374 0.24288 0.84103 0.0
H139 H 0.25993 0.26471 0.897 0.0
H140 H 0.30844 0.2786 0.92719 0.0
H141 H 0.39428 0.42444 0.85706 0.0
H142 H 0.35049 0.44185 0.93249 0.0
H143 H 0.25559 0.32756 0.88274 0.0
C144 C 0.35319 0.28735 0.72431 0.0
C145 C 0.39169 0.30259 0.69823 0.0
C146 C 0.41804 0.34183 0.71291 0.0
C147 C 0.40655 0.3654 0.75596 0.0
C148 C 0.36844 0.34937 0.78205 0.0
C149 C 0.34198 0.31146 0.76499 0.0
C150 C 0.30253 0.30156 0.79715 0.0
C151 C 0.27447 0.29004 0.71701 0.0
C152 C 0.28782 0.27008 0.86992 0.0
C153 C 0.31106 0.3396 0.83679 0.0
C154 C 0.3493 0.36671 0.82833 0.0
C155 C 0.3642 0.40357 0.86313 0.0
C156 C 0.33921 0.41311 0.90639 0.0
C157 C 0.29972 0.38608 0.91318 0.0
C158 C 0.28561 0.34887 0.87794 0.0
H159 H 0.09013 0.32649 0.07696 0.0
H160 H 0.11046 0.44219 0.04885 0.0
H161 H 0.04974 0.4233 0.12865 0.0
H162 H 0.98782 0.27951 0.03736 0.0
H163 H 0.97739 0.24159 0.11682 0.0
H164 H 0.02244 0.26462 0.05817 0.0
H165 H 0.05818 0.28064 0.21223 0.0
H166 H 1.01326 0.25802 0.27142 0.0
H167 H 0.04842 0.307 0.2961 0.0
H168 H 0.98855 0.39225 0.21997 0.0
H169 H 0.92771 0.3497 0.29859 0.0
H170 H 0.94581 0.2536 0.25682 0.0
C171 C 0.08167 0.34778 0.08722 0.0
C172 C 0.10489 0.38579 0.05708 0.0
C173 C 0.09283 0.41283 0.07096 0.0
C174 C 0.05859 0.40243 0.11668 0.0
C175 C 0.03654 0.36477 0.14657 0.0
C176 C 0.04729 0.33771 0.13091 0.0
C177 C 1.01801 0.2989 0.16732 0.0
C178 C 1.00037 0.26942 0.09032 0.0
C179 C 0.03553 0.28536 0.24115 0.0
C180 C 0.98924 0.30837 0.20675 0.0
C181 C 1.00065 0.3466 0.19523 0.0
C182 C 0.97919 0.36221 0.22868 0.0
C183 C 0.94486 0.33793 0.27372 0.0
C184 C 0.93214 0.29845 0.28349 0.0
C185 C 0.95477 0.28364 0.24977 0.0
H186 H 0.78159 0.08876 0.44102 0.0
H187 H 0.68497 0.10657 0.40621 0.0
H188 H 0.64196 0.04197 0.46826 0.0
H189 H 0.73094 0.98892 0.37392 0.0
H190 H 0.75593 0.97538 0.45376 0.0
H191 H 0.77902 0.02318 0.40819 0.0
H192 H 0.79151 0.05089 0.57096 0.0
H193 H 0.76834 1.00318 0.61703 0.0
H194 H 0.75193 0.03574 0.64777 0.0
H195 H 0.61025 0.97688 0.54206 0.0
H196 H 0.59089 0.91345 0.60821 0.0
H197 H 0.70731 0.93599 0.58372 0.0
C198 C 0.75137 0.07903 0.44648 0.0
C199 C 0.73656 0.10268 0.4193 0.0
C200 C 0.69682 0.08881 0.42639 0.0
C201 C 0.67225 0.05226 0.46186 0.0
C202 C 0.68778 0.02972 0.48841 0.0
C203 C 0.72633 0.04233 0.47985 0.0
C204 C 0.73558 1.01201 0.51072 0.0
C205 C 0.75129 0.99911 0.43194 0.0
C206 C 0.76349 0.02632 0.59142 0.0
C207 C 0.69628 0.98051 0.53902 0.0
C208 C 0.66919 0.99148 0.52657 0.0
C209 C 0.63115 0.96785 0.55128 0.0
C210 C 0.62047 0.93198 0.58917 0.0
C211 C 0.64757 0.91982 0.60065 0.0
C212 C 0.68592 0.94441 0.57481 0.0
H213 H 0.69175 0.76428 0.81871 0.0
H214 H 0.59797 0.67086 0.67355 0.0
H215 H 0.61507 0.62545 0.74188 0.0
H216 H 0.75801 0.73064 0.79357 0.0
H217 H 0.77889 0.74665 0.90427 0.0
H218 H 0.75832 0.77119 0.84549 0.0
H219 H 0.71428 0.76047 0.98294 0.0
H220 H 0.73452 0.7356 0.04183 0.0
H221 H 0.6836 0.71258 0.02428 0.0
H222 H 0.6433 0.59008 0.82639 0.0
H223 H 0.68245 0.56902 0.91178 0.0
H224 H 0.75746 0.68603 -0.00068 0.0
C225 C 0.67475 0.73429 0.8011 0.0
C226 C 0.64352 0.72123 0.74045 0.0
C227 C 0.62213 0.68167 0.71942 0.0
C228 C 0.63152 0.65559 0.75826 0.0
C229 C 0.6624 0.66944 0.81804 0.0
C230 C 0.68379 0.70794 0.83884 0.0
C231 C 0.71625 0.71581 0.90289 0.0
C232 C 0.75516 0.74265 0.8589 0.0
C233 C 0.71188 0.73207 -0.00666 0.0
C234 C 0.70998 0.67579 0.91454 0.0
C235 C 0.67863 0.64931 0.86576 0.0
C236 C 0.66783 0.61059 0.86511 0.0
C237 C 0.6901 0.59883 0.9142 0.0
C238 C 0.72294 0.62577 0.96267 0.0
C239 C 0.73247 0.66461 0.9634 0.0
H240 H 0.10259 0.69333 0.22518 0.0
H241 H 0.11542 0.80559 0.26782 0.0
H242 H 0.04931 0.78147 0.21821 0.0
H243 H 0.04779 0.67257 0.02316 0.0
H244 H 1.0161 0.6225 0.04611 0.0
H245 H 0.06355 0.6466 0.0938 0.0
H246 H 0.03541 0.62592 0.25475 0.0
H247 H 0.98784 0.60151 0.20746 0.0
H248 H 1.00006 0.6373 0.29391 0.0
H249 H 0.98559 0.74897 0.15546 0.0
H250 H 0.92383 0.708 0.0834 0.0
H251 H 0.94764 0.61421 0.07636 0.0
C252 C 0.09101 0.7124 0.22567 0.0
C253 C 0.11411 0.75136 0.25049 0.0
C254 C 0.09833 0.77575 0.24872 0.0
C255 C 0.06073 0.7623 0.22094 0.0
C256 C 0.03899 0.72426 0.19474 0.0
C257 C 0.05311 0.69938 0.19692 0.0
C258 C 0.02343 0.66036 0.15981 0.0
C259 C 0.03864 0.6499 0.07572 0.0
C260 C 1.01094 0.62944 0.23338 0.0
C261 C 0.99105 0.6678 0.13509 0.0
C262 C 1.00101 0.70492 0.15679 0.0
C263 C 0.97724 0.71973 0.13856 0.0
C264 C 0.94218 0.69613 0.09679 0.0
C265 C 0.93075 0.65781 0.07327 0.0
C266 C 0.95549 0.6433 0.09354 0.0
H267 H 0.3434 0.09511 0.55356 0.0
H268 H 0.45919 0.11797 0.59609 0.0
H269 H 0.4416 0.05519 0.52741 0.0
H270 H 0.29704 0.99422 0.60848 0.0
H271 H 0.25976 0.98138 0.52545 0.0
H272 H 0.28205 0.02795 0.57753 0.0
H273 H 0.29914 0.05957 0.41866 0.0
H274 H 0.27724 1.01312 0.36611 0.0
H275 H 0.32629 0.04788 0.34163 0.0
H276 H 0.41115 0.99057 0.44472 0.0
H277 H 0.36914 0.92754 0.37253 0.0
H278 H 0.27313 0.94685 0.39458 0.0
C279 C 0.36504 0.08685 0.54882 0.0
C280 C 0.40268 0.11137 0.57985 0.0
C281 C 0.43011 0.09943 0.57321 0.0
C282 C 0.42043 0.06397 0.53382 0.0
C283 C 0.38306 0.04063 0.50283 0.0
C284 C 0.3557 0.05142 0.51147 0.0
C285 C 0.31734 0.02098 0.47542 0.0
C286 C 0.28728 1.0052 0.55125 0.0
C287 C 0.30425 0.03632 0.39572 0.0
C288 C 0.32732 0.99142 0.44419 0.0
C289 C 0.36542 1.00329 0.45942 0.0
C290 C 0.38121 0.98092 0.43328 0.0
C291 C 0.35726 0.94532 0.39188 0.0
C292 C 0.31792 0.9323 0.37844 0.0
C293 C 0.30303 0.95588 0.40474 0.0
H294 H 0.19287 0.44414 0.65971 0.0
H295 H 0.17448 0.33254 0.73809 0.0
H296 H 0.1777 0.31756 0.57664 0.0
H297 H 0.14152 0.41582 0.43994 0.0
H298 H 0.17616 0.46031 0.38849 0.0
H299 H 0.16562 0.45871 0.50743 0.0
H300 H 0.23769 0.48768 0.54453 0.0
H301 H 0.24836 0.48874 0.42619 0.0
H302 H 0.26252 0.46383 0.50475 0.0
H303 H 0.18964 0.31825 0.40486 0.0
H304 H 0.20906 0.33484 0.2439 0.0
H305 H 0.22268 0.44718 0.28795 0.0
C306 C 0.18853 0.41611 0.64315 0.0
C307 C 0.18326 0.38945 0.71139 0.0
C308 C 0.17807 0.35324 0.68666 0.0
C309 C 0.17998 0.34455 0.5952 0.0
C310 C 0.18679 0.37229 0.52986 0.0
C311 C 0.1906 0.40721 0.55317 0.0
C312 C 0.20116 0.43371 0.47293 0.0
C313 C 0.1692 0.44264 0.4509 0.0
C314 C 0.23972 0.47064 0.48805 0.0
C315 C 0.20408 0.40889 0.40102 0.0
C316 C 0.19502 0.37326 0.43387 0.0
C317 C 0.19658 0.34602 0.37855 0.0
C318 C 0.20774 0.35566 0.28759 0.0
C319 C 0.21796 0.39247 0.25431 0.0
C320 C 0.21571 0.41904 0.31192 0.0
H321 H 0.76876 0.19694 0.03135 0.0
H322 H 0.85786 0.17252 0.11068 0.0
H323 H 0.87583 0.17485 0.94942 0.0
H324 H 0.74325 0.1453 0.81304 0.0
H325 H 0.73584 0.18146 0.76073 0.0
H326 H 0.72669 0.17143 0.87985 0.0
H327 H 0.77296 0.24314 0.91555 0.0
H328 H 0.78272 0.25325 0.79699 0.0
H329 H 0.82151 0.26565 0.87532 0.0
H330 H 0.8874 0.18628 0.77748 0.0
H331 H 0.89099 0.20567 0.61599 0.0
H332 H 0.79604 0.22522 0.65973 0.0
C333 C 0.7915 0.19116 0.01507 0.0
C334 C 0.81181 0.18441 0.08342 0.0
C335 C 0.84161 0.17732 0.05908 0.0
C336 C 0.85206 0.17869 0.96776 0.0
C337 C 0.8322 0.18688 0.90223 0.0
C338 C 0.8023 0.19264 0.92525 0.0
C339 C 0.78742 0.20427 0.8448 0.0
C340 C 0.74584 0.17379 0.82334 0.0
C341 C 0.79143 0.24392 0.85907 0.0
C342 C 0.81433 0.20541 0.77307 0.0
C343 C 0.83963 0.1947 0.80617 0.0
C344 C 0.86756 0.19452 0.75093 0.0
C345 C 0.86952 0.20567 0.6597 0.0
C346 C 0.84424 0.21754 0.62622 0.0
C347 C 0.81626 0.21698 0.6838 0.0
H348 H 0.58522 0.80164 0.3659 0.0
H349 H 0.69621 0.8122 0.41066 0.0
H350 H 0.71276 0.83099 0.24929 0.0
H351 H 0.56733 0.76064 0.15218 0.0
H352 H 0.54418 0.78594 0.11037 0.0
H353 H 0.54334 0.77618 0.22937 0.0
H354 H 0.57322 0.84857 0.26424 0.0
H355 H 0.57445 0.85864 0.14497 0.0
H356 H 0.61766 0.88242 0.2115 0.0
H357 H 0.71339 0.84262 0.07736 0.0
H358 H 0.69837 0.84593 0.91573 0.0
H359 H 0.5881 0.83052 -0.00644 0.0
C360 C 0.61308 0.80787 0.34203 0.0
C361 C 0.63926 0.80491 0.39984 0.0
C362 C 0.67571 0.81412 0.36675 0.0
C363 C 0.68532 0.82492 0.27559 0.0
C364 C 0.65843 0.82715 0.22003 0.0
C365 C 0.62321 0.81919 0.25281 0.0
C366 C 0.59857 0.82234 0.18042 0.0
C367 C 0.56118 0.784 0.16732 0.0
C368 C 0.59052 0.85494 0.20156 0.0
C369 C 0.62473 0.83192 0.10024 0.0
C370 C 0.65931 0.83499 0.1238 0.0
C371 C 0.68669 0.84096 0.0586 0.0
C372 C 0.67799 0.84294 0.96709 0.0
C373 C 0.64214 0.83867 0.94225 0.0
C374 C 0.61585 0.83415 0.01026 0.0
H375 H 0.77697 0.6087 0.71894 0.0
H376 H 0.89999 0.66431 0.74781 0.0
H377 H 0.90758 0.68134 0.58494 0.0
H378 H 0.77362 0.56381 0.51821 0.0
H379 H 0.73451 0.56712 0.46885 0.0
H380 H 0.73899 0.56644 0.5899 0.0
H381 H 0.73871 0.63041 0.60158 0.0
H382 H 0.7343 0.63132 0.48014 0.0
H383 H 0.77297 0.67137 0.53784 0.0
H384 H 0.90173 0.68705 0.42043 0.0
H385 H 0.88358 0.67437 0.25991 0.0
H386 H 0.76374 0.61018 0.33539 0.0
C387 C 0.8054 0.62532 0.69076 0.0
C388 C 0.83801 0.63591 0.74425 0.0
C389 C 0.87491 0.65642 0.70649 0.0
C390 C 0.8794 0.66644 0.61484 0.0
C391 C 0.84661 0.65518 0.56286 0.0
C392 C 0.81029 0.63465 0.59906 0.0
C393 C 0.77987 0.62098 0.5263 0.0
C394 C 0.75534 0.577 0.5258 0.0
C395 C 0.755 0.63965 0.53712 0.0
C396 C 0.80483 0.63583 0.44319 0.0
C397 C 0.84314 0.65652 0.46618 0.0
C398 C 0.87185 0.67135 0.40136 0.0
C399 C 0.8612 0.66396 0.31039 0.0
C400 C 0.82222 0.64126 0.28552 0.0
C401 C 0.7937 0.62777 0.35267 0.0
H402 H 0.24829 0.80137 0.6134 0.0
H403 H 0.16708 0.83977 0.56192 0.0
H404 H 0.17265 0.86005 0.72299 0.0
H405 H 0.21735 0.76369 0.8314 0.0
H406 H 0.26498 0.77944 0.87266 0.0
H407 H 0.25424 0.76912 0.7543 0.0
H408 H 0.30909 0.83726 0.71413 0.0
H409 H 0.31973 0.84798 0.83262 0.0
H410 H 0.30938 0.87835 0.76268 0.0
H411 H 0.1854 0.87216 0.8957 0.0
H412 H 0.20368 0.87478 0.05735 0.0
H413 H 0.27914 0.83168 0.98395 0.0
C414 C 0.23131 0.81375 0.63568 0.0
C415 C 0.2067 0.81839 0.57567 0.0
C416 C 0.18583 0.83564 0.60726 0.0
C417 C 0.18896 0.84734 0.69835 0.0
C418 C 0.21365 0.84223 0.75573 0.0
C419 C 0.2346 0.82605 0.72478 0.0
C420 C 0.25915 0.82333 0.79813 0.0
C421 C 0.24825 0.78142 0.81512 0.0
C422 C 0.30186 0.84822 0.77552 0.0
C423 C 0.24814 0.83957 0.87662 0.0
C424 C 0.222 0.85052 0.85166 0.0
C425 C 0.20625 0.86414 0.91547 0.0
C426 C 0.2169 0.86567 0.00705 0.0
C427 C 0.24302 0.85365 0.03346 0.0
C428 C 0.25935 0.84142 0.96647 0.0
H429 H 0.45621 0.22345 0.33608 0.0
H430 H 0.34367 0.20949 0.37591 0.0
H431 H 0.32779 0.18982 0.21475 0.0
H432 H 0.47402 0.26558 0.1281 0.0
H433 H 0.49888 0.24237 0.08455 0.0
H434 H 0.49844 0.2499 0.20421 0.0
H435 H 0.47028 0.17724 0.23265 0.0
H436 H 0.47053 0.16939 0.11258 0.0
H437 H 0.42683 0.1433 0.17589 0.0
H438 H 0.32856 0.18008 0.04404 0.0
H439 H 0.34571 0.18164 0.88249 0.0
H440 H 0.45729 0.20071 0.96273 0.0
C441 C 0.42805 0.21598 0.31124 0.0
C442 C 0.40129 0.21848 0.36718 0.0
C443 C 0.36454 0.20785 0.33321 0.0
C444 C 0.3553 0.19652 0.24228 0.0
C445 C 0.38291 0.19519 0.18817 0.0
C446 C 0.41838 0.20428 0.22217 0.0
C447 C 0.44427 0.20343 0.15033 0.0
C448 C 0.48103 0.24264 0.14128 0.0
C449 C 0.4535 0.17142 0.16899 0.0
C450 C 0.41866 0.1944 0.06895 0.0
C451 C 0.3831 0.18901 0.09168 0.0
C452 C 0.356 0.18348 0.02574 0.0
C453 C 0.36596 0.18439 0.93436 0.0
C454 C 0.40282 0.19131 0.91063 0.0
C455 C 0.42887 0.19525 0.97897 0.0
H456 H 0.18701 0.52934 0.12115 0.0
H457 H 0.30802 0.57154 0.07866 0.0
H458 H 0.32134 0.63749 0.09651 0.0
H459 H 0.18176 0.60454 0.00616 0.0
H460 H 0.14998 0.60786 0.08624 0.0
H461 H 0.14892 0.56307 0.07065 0.0
H462 H 0.16101 0.56007 0.24214 0.0
H463 H 0.1613 0.60442 0.25847 0.0
H464 H 0.20148 0.60001 0.29544 0.0
H465 H 0.32185 0.69869 0.10867 0.0
H466 H 0.31148 0.75224 0.14309 0.0
H467 H 0.19084 0.67217 0.18827 0.0
C468 C 0.21633 0.55247 0.11705 0.0
C469 C 0.24642 0.5451 0.09871 0.0
C470 C 0.28445 0.5762 0.09367 0.0
C471 C 0.29234 0.61393 0.1027 0.0
C472 C 0.26206 0.62027 0.1183 0.0
C473 C 0.22495 0.59055 0.12779 0.0
C474 C 0.19813 0.60571 0.1484 0.0
C475 C 0.16791 0.59463 0.07337 0.0
C476 C 0.17938 0.59173 0.24167 0.0
C477 C 0.22608 0.64851 0.14856 0.0
C478 C 0.26263 0.65608 0.12935 0.0
C479 C 0.29343 0.6932 0.12468 0.0
C480 C 0.28712 0.72349 0.1439 0.0
C481 C 0.25036 0.7166 0.16911 0.0
C482 C 0.21926 0.67851 0.16912 0.0
H483 H 0.67524 0.18714 0.46991 0.0
H484 H 0.75929 0.30826 0.4881 0.0
H485 H 0.70768 0.32327 0.50249 0.0
H486 H 0.60664 0.19597 0.34026 0.0
H487 H 0.56556 0.15917 0.39887 0.0
H488 H 0.60892 0.15692 0.39348 0.0
H489 H 0.61127 0.15401 0.56865 0.0
H490 H 0.56733 0.15512 0.5744 0.0
H491 H 0.60895 0.19018 0.6352 0.0
H492 H 0.64743 0.326 0.50188 0.0
H493 H 0.58216 0.31531 0.51837 0.0
H494 H 0.53687 0.19251 0.50792 0.0
C495 C 0.68282 0.21673 0.4789 0.0
C496 C 0.7214 0.24646 0.47733 0.0
C497 C 0.73004 0.28486 0.48935 0.0
C498 C 0.70089 0.2938 0.49664 0.0
C499 C 0.66323 0.26403 0.49362 0.0
C500 C 0.65406 0.2262 0.4877 0.0
C501 C 0.61116 0.19967 0.48843 0.0
C502 C 0.59727 0.17658 0.39998 0.0
C503 C 0.59896 0.17319 0.57164 0.0
C504 C 0.59778 0.22858 0.49511 0.0
C505 C 0.62831 0.26555 0.49646 0.0
C506 C 0.62325 0.29717 0.50165 0.0
C507 C 0.586 0.2908 0.51004 0.0
C508 C 0.55441 0.25307 0.51463 0.0
C509 C 0.56044 0.22167 0.50442 0.0
H510 H 0.3599 0.52276 0.84686 0.0
H511 H 0.2829 0.56859 0.85808 0.0
H512 H 0.33724 0.63351 0.83754 0.0
H513 H 0.43663 0.59692 0.96632 0.0
H514 H 0.47395 0.59833 0.89702 0.0
H515 H 0.42898 0.55446 0.90787 0.0
H516 H 0.42015 0.55024 0.73357 0.0
H517 H 0.46557 0.59356 0.72204 0.0
H518 H 0.42325 0.5904 0.67242 0.0
H519 H 0.39948 0.69347 0.83171 0.0
H520 H 0.46544 0.74524 0.80877 0.0
H521 H 0.50313 0.66168 0.79168 0.0
C522 C 0.35441 0.54638 0.84285 0.0
C523 C 0.31707 0.54047 0.8541 0.0
C524 C 0.31109 0.57217 0.84882 0.0
C525 C 0.34185 0.60931 0.83815 0.0
C526 C 0.37836 0.61428 0.83111 0.0
C527 C 0.3848 0.58374 0.83059 0.0
C528 C 0.42702 0.59731 0.8201 0.0
C529 C 0.44254 0.58608 0.90277 0.0
C530 C 0.43443 0.58198 0.73176 0.0
C531 C 0.44321 0.64024 0.81591 0.0
C532 C 0.41457 0.64925 0.82391 0.0
C533 C 0.42217 0.68684 0.8242 0.0
C534 C 0.45991 0.7161 0.81193 0.0
C535 C 0.48962 0.70763 0.79793 0.0
C536 C 0.48114 0.66913 0.80219 0.0
H537 H 0.85276 0.35847 0.19628 0.0
H538 H 0.73464 0.2886 0.28077 0.0
H539 H 0.726 0.34465 0.27134 0.0
H540 H 0.87319 0.44491 0.30863 0.0
H541 H 0.90078 0.47616 0.21733 0.0
H542 H 0.89863 0.43081 0.23221 0.0
H543 H 0.87403 0.41132 0.06762 0.0
H544 H 0.87711 0.45701 0.0516 0.0
H545 H 0.83261 0.41354 0.0306 0.0
H546 H 0.73096 0.40895 0.26188 0.0
H547 H 0.74474 0.47389 0.21942 0.0
H548 H 0.85747 0.50112 0.1281 0.0
C549 C 0.82496 0.35493 0.21131 0.0
C550 C 0.79443 0.31915 0.23923 0.0
C551 C 0.75841 0.3156 0.25835 0.0
C552 C 0.75329 0.34741 0.25433 0.0
C553 C 0.78421 0.38249 0.22914 0.0
C554 C 0.81898 0.38625 0.20517 0.0
C555 C 0.84668 0.42672 0.17452 0.0
C556 C 0.8819 0.44576 0.23692 0.0
C557 C 0.85827 0.42716 0.07518 0.0
C558 C 0.82202 0.44502 0.18524 0.0
C559 C 0.78642 0.41922 0.21904 0.0
C560 C 0.75869 0.42942 0.23505 0.0
C561 C 0.76693 0.4665 0.21187 0.0
C562 C 0.80226 0.49252 0.1714 0.0
C563 C 0.83041 0.48186 0.15999 0.0
H564 H 0.36872 0.84432 0.45293 0.0
H565 H 0.28744 0.7225 0.43475 0.0
H566 H 0.33859 0.70857 0.47291 0.0
H567 H 0.44701 0.84243 0.35474 0.0
H568 H 0.48274 0.87757 0.42918 0.0
H569 H 0.43953 0.87869 0.40585 0.0
H570 H 0.42496 0.87504 0.57747 0.0
H571 H 0.46854 0.87472 0.60147 0.0
H572 H 0.42366 0.83699 0.64431 0.0
H573 H 0.39895 0.70761 0.49856 0.0
H574 H 0.46323 0.71904 0.53456 0.0
H575 H 0.50593 0.8415 0.54302 0.0
C576 C 0.36153 0.8147 0.45867 0.0
C577 C 0.32399 0.78451 0.44076 0.0
C578 C 0.31582 0.74615 0.44878 0.0
C579 C 0.34477 0.73791 0.46971 0.0
C580 C 0.38166 0.7683 0.48371 0.0
C581 C 0.39004 0.80591 0.4806 0.0
C582 C 0.43216 0.83312 0.4989 0.0
C583 C 0.45148 0.8595 0.41729 0.0
C584 C 0.43765 0.85633 0.58571 0.0
C585 C 0.44618 0.80487 0.51138 0.0
C586 C 0.41656 0.76769 0.50138 0.0
C587 C 0.42233 0.73657 0.5075 0.0
C588 C 0.45914 0.74347 0.52723 0.0
C589 C 0.4898 0.78122 0.54179 0.0
C590 C 0.48319 0.81233 0.53229 0.0
H591 H 0.70424 0.44743 -0.00816 0.0
H592 H 0.7388 0.51664 0.74801 0.0
H593 H 0.68178 0.46608 0.66813 0.0
H594 H 0.66519 0.35352 0.87447 0.0
H595 H 0.62723 0.32985 0.95579 0.0
H596 H 0.67242 0.36991 -0.00979 0.0
H597 H 0.63724 0.40417 0.05035 0.0
H598 H 0.59205 0.36461 0.01484 0.0
H599 H 0.60675 0.41222 0.97499 0.0
H600 H 0.6171 0.41275 0.62317 0.0
H601 H 0.55311 0.35599 0.60695 0.0
H602 H 0.56214 0.31823 0.87648 0.0
C603 C 0.70017 0.45152 0.92098 0.0
C604 C 0.72578 0.48582 0.87566 0.0
C605 C 0.71969 0.49036 0.78328 0.0
C606 C 0.68731 0.46192 0.73779 0.0
C607 C 0.66197 0.42891 0.78536 0.0
C608 C 0.6685 0.42315 0.87426 0.0
C609 C 0.63643 0.38551 0.91053 0.0
C610 C 0.65121 0.35807 0.93412 0.0
C611 C 0.61698 0.39205 -0.00749 0.0
C612 C 0.61002 0.37151 0.82906 0.0
C613 C 0.62532 0.39717 0.75789 0.0
C614 C 0.6052 0.39218 0.67776 0.0
C615 C 0.56872 0.36003 0.66964 0.0
C616 C 0.55275 0.33285 0.74062 0.0
C617 C 0.57384 0.33847 0.82112 0.0
loop_
_geom_bond_atom_site_label_1
_geom_bond_atom_site_label_2
_geom_bond_distance
_geom_bond_site_symmetry_2
_ccdc_geom_bond_type
Fe0 O2 1.918 1_554 S
Fe0 O5 1.997 . S
Fe0 O6 2.002 . S
Fe0 O11 1.976 . S
Fe0 O14 1.996 1_554 S
Fe1 O2 1.918 1_554 S
Fe1 O9 1.998 . S
Fe1 O12 1.996 1_554 S
Fe1 O16 1.974 1_554 S
Fe1 O19 2.003 . S
O2 Fe0 1.918 1_556 S
O2 Fe1 1.918 1_556 S
O2 Fe3 1.918 . S
Fe3 O2 1.918 . S
Fe3 O4 2.002 1_556 S
Fe3 O13 1.976 . S
Fe3 O17 1.996 . S
Fe3 O20 1.997 . S
O4 Fe3 2.002 1_554 S
O4 C21 1.295 . S
O5 Fe0 1.997 . S
O5 C21 1.235 . S
O6 Fe0 2.002 . S
O6 C7 1.295 . S
C7 O6 1.295 . S
C7 O9 1.235 . S
C8 O13 1.287 . S
C8 O14 1.255 . S
O9 Fe1 1.998 . S
O9 C7 1.235 . S
C10 O16 1.287 . S
C10 O17 1.255 . S
O11 Fe0 1.976 . S
O11 C18 1.287 . S
O12 Fe1 1.996 1_556 S
O12 C18 1.255 1_556 S
O13 Fe3 1.976 . S
O13 C8 1.287 . S
O14 Fe0 1.996 1_556 S
O14 C8 1.255 . S
C15 O19 1.297 . S
C15 O20 1.231 1_554 S
O16 Fe1 1.974 1_556 S
O16 C10 1.287 . S
O17 Fe3 1.996 . S
O17 C10 1.255 . S
C18 O11 1.287 . S
C18 O12 1.255 1_554 S
O19 Fe1 2.003 . S
O19 C15 1.297 . S
O20 Fe3 1.997 . S
O20 C15 1.231 1_556 S
C21 O4 1.295 . S
C21 O5 1.235 . S
Fe22 O24 1.918 . S
Fe22 O27 1.997 . S
Fe22 O28 2.002 . S
Fe22 O33 1.976 . S
Fe22 O36 1.996 . S
Fe23 O24 1.918 . S
Fe23 O31 1.997 . S
Fe23 O34 1.996 . S
Fe23 O38 1.976 . S
Fe23 O41 2.002 . S
O24 Fe22 1.918 . S
O24 Fe23 1.918 . S
O24 Fe25 1.918 . S
Fe25 O24 1.918 . S
Fe25 O26 2.002 . S
Fe25 O35 1.976 . S
Fe25 O39 1.996 . S
Fe25 O42 1.997 . S
O26 Fe25 2.002 . S
O26 C43 1.295 . S
O27 Fe22 1.997 . S
O27 C43 1.235 . S
O28 Fe22 2.002 . S
O28 C29 1.295 . S
C29 O28 1.295 . S
C29 O31 1.235 . S
C30 O35 1.287 . S
C30 O36 1.255 . S
O31 Fe23 1.997 . S
O31 C29 1.235 . S
C32 O38 1.287 . S
C32 O39 1.255 . S
O33 Fe22 1.976 . S
O33 C40 1.287 . S
O34 Fe23 1.996 . S
O34 C40 1.255 . S
O35 Fe25 1.976 . S
O35 C30 1.287 . S
O36 Fe22 1.996 . S
O36 C30 1.255 . S
C37 O41 1.295 . S
C37 O42 1.235 . S
O38 Fe23 1.976 . S
O38 C32 1.287 . S
O39 Fe25 1.996 . S
O39 C32 1.255 . S
C40 O33 1.287 . S
C40 O34 1.255 . S
O41 Fe23 2.002 . S
O41 C37 1.295 . S
O42 Fe25 1.997 . S
O42 C37 1.235 . S
C43 O26 1.295 . S
C43 O27 1.235 . S
Fe44 O46 1.918 . S
Fe44 O49 1.997 . S
Fe44 O50 2.002 . S
Fe44 O55 1.976 . S
Fe44 O58 1.996 . S
Fe45 O46 1.918 . S
Fe45 O53 1.997 . S
Fe45 O56 1.996 . S
Fe45 O60 1.976 . S
Fe45 O63 2.002 . S
O46 Fe44 1.918 . S
O46 Fe45 1.918 . S
O46 Fe47 1.918 . S
Fe47 O46 1.918 . S
Fe47 O48 2.002 . S
Fe47 O57 1.976 . S
Fe47 O61 1.996 . S
Fe47 O64 1.997 . S
O48 Fe47 2.002 . S
O48 C65 1.295 . S
O49 Fe44 1.997 . S
O49 C65 1.235 . S
O50 Fe44 2.002 . S
O50 C51 1.295 . S
C51 O50 1.295 . S
C51 O53 1.235 . S
C52 O57 1.287 . S
C52 O58 1.255 . S
O53 Fe45 1.997 . S
O53 C51 1.235 . S
C54 O60 1.287 . S
C54 O61 1.255 . S
O55 Fe44 1.976 . S
O55 C62 1.287 . S
O56 Fe45 1.996 . S
O56 C62 1.255 . S
O57 Fe47 1.976 . S
O57 C52 1.287 . S
O58 Fe44 1.996 . S
O58 C52 1.255 . S
C59 O63 1.295 . S
C59 O64 1.235 . S
O60 Fe45 1.976 . S
O60 C54 1.287 . S
O61 Fe47 1.996 . S
O61 C54 1.255 . S
C62 O55 1.287 . S
C62 O56 1.255 . S
O63 Fe45 2.002 . S
O63 C59 1.295 . S
O64 Fe47 1.997 . S
O64 C59 1.235 . S
C65 O48 1.295 . S
C65 O49 1.235 . S
Fe66 O68 1.918 . S
Fe66 O71 1.997 . S
Fe66 O72 2.002 1_556 S
Fe66 O77 1.976 . S
Fe66 O80 1.996 . S
Fe67 O68 1.918 1_554 S
Fe67 O75 1.997 . S
Fe67 O78 1.996 1_554 S
Fe67 O82 1.976 . S
Fe67 O85 2.002 . S
O68 Fe66 1.918 . S
O68 Fe67 1.918 1_556 S
O68 Fe69 1.918 1_556 S
Fe69 O68 1.918 1_554 S
Fe69 O70 2.003 . S
Fe69 O79 1.974 1_554 S
Fe69 O83 1.996 1_554 S
Fe69 O86 1.998 . S
O70 Fe69 2.003 . S
O70 C87 1.297 . S
O71 Fe66 1.997 . S
O71 C87 1.231 1_556 S
O72 Fe66 2.002 1_554 S
O72 C73 1.295 . S
C73 O72 1.295 . S
C73 O75 1.235 . S
C74 O79 1.287 . S
C74 O80 1.255 . S
O75 Fe67 1.997 . S
O75 C73 1.235 . S
C76 O82 1.287 . S
C76 O83 1.255 1_554 S
O77 Fe66 1.976 . S
O77 C84 1.287 . S
O78 Fe67 1.996 1_556 S
O78 C84 1.255 . S
O79 Fe69 1.974 1_556 S
O79 C74 1.287 . S
O80 Fe66 1.996 . S
O80 C74 1.255 . S
C81 O85 1.295 . S
C81 O86 1.235 . S
O82 Fe67 1.976 . S
O82 C76 1.287 . S
O83 Fe69 1.996 1_556 S
O83 C76 1.255 1_556 S
C84 O77 1.287 . S
C84 O78 1.255 . S
O85 Fe67 2.002 . S
O85 C81 1.295 . S
O86 Fe69 1.998 . S
O86 C81 1.235 . S
C87 O70 1.297 . S
C87 O71 1.231 1_554 S
Fe88 O90 1.918 . S
Fe88 O93 1.997 . S
Fe88 O94 2.002 . S
Fe88 O99 1.976 . S
Fe88 O102 1.996 . S
Fe89 O90 1.918 . S
Fe89 O97 1.997 . S
Fe89 O100 1.996 . S
Fe89 O104 1.976 . S
Fe89 O107 2.002 . S
O90 Fe88 1.918 . S
O90 Fe89 1.918 . S
O90 Fe91 1.918 . S
Fe91 O90 1.918 . S
Fe91 O92 2.002 . S
Fe91 O101 1.976 . S
Fe91 O105 1.996 . S
Fe91 O108 1.997 . S
O92 Fe91 2.002 . S
O92 C109 1.295 . S
O93 Fe88 1.997 . S
O93 C109 1.235 . S
O94 Fe88 2.002 . S
O94 C95 1.295 . S
C95 O94 1.295 . S
C95 O97 1.235 . S
C96 O101 1.287 . S
C96 O102 1.255 . S
O97 Fe89 1.997 . S
O97 C95 1.235 . S
C98 O104 1.287 . S
C98 O105 1.255 . S
O99 Fe88 1.976 . S
O99 C106 1.287 . S
O100 Fe89 1.996 . S
O100 C106 1.255 . S
O101 Fe91 1.976 . S
O101 C96 1.287 . S
O102 Fe88 1.996 . S
O102 C96 1.255 . S
C103 O107 1.295 . S
C103 O108 1.235 . S
O104 Fe89 1.976 . S
O104 C98 1.287 . S
O105 Fe91 1.996 . S
O105 C98 1.255 . S
C106 O99 1.287 . S
C106 O100 1.255 . S
O107 Fe89 2.002 . S
O107 C103 1.295 . S
O108 Fe91 1.997 . S
O108 C103 1.235 . S
C109 O92 1.295 . S
C109 O93 1.235 . S
Fe110 O112 1.918 . S
Fe110 O115 1.997 . S
Fe110 O116 2.002 . S
Fe110 O121 1.976 . S
Fe110 O124 1.996 . S
Fe111 O112 1.918 . S
Fe111 O119 1.997 . S
Fe111 O122 1.996 . S
Fe111 O126 1.976 . S
Fe111 O129 2.002 . S
O112 Fe110 1.918 . S
O112 Fe111 1.918 . S
O112 Fe113 1.918 . S
Fe113 O112 1.918 . S
Fe113 O114 2.002 . S
Fe113 O123 1.976 . S
Fe113 O127 1.996 . S
Fe113 O130 1.997 . S
O114 Fe113 2.002 . S
O114 C131 1.295 . S
O115 Fe110 1.997 . S
O115 C131 1.235 . S
O116 Fe110 2.002 . S
O116 C117 1.295 . S
C117 O116 1.295 . S
C117 O119 1.235 . S
C118 O123 1.287 . S
C118 O124 1.255 . S
O119 Fe111 1.997 . S
O119 C117 1.235 . S
C120 O126 1.287 . S
C120 O127 1.255 . S
O121 Fe110 1.976 . S
O121 C128 1.287 . S
O122 Fe111 1.996 . S
O122 C128 1.255 . S
O123 Fe113 1.976 . S
O123 C118 1.287 . S
O124 Fe110 1.996 . S
O124 C118 1.255 . S
C125 O129 1.295 . S
C125 O130 1.235 . S
O126 Fe111 1.976 . S
O126 C120 1.287 . S
O127 Fe113 1.996 . S
O127 C120 1.255 . S
C128 O121 1.287 . S
C128 O122 1.255 . S
O129 Fe111 2.002 . S
O129 C125 1.295 . S
O130 Fe113 1.997 . S
O130 C125 1.235 . S
C131 O114 1.295 . S
C131 O115 1.235 . S
H132 C144 0.930 . S
H133 C146 0.930 . S
H134 C147 0.930 . S
H135 C151 0.959 . S
H136 C151 0.959 . S
H137 C151 0.961 . S
H138 C152 0.960 . S
H139 C152 0.961 . S
H140 C152 0.959 . S
H141 C155 0.929 . S
H142 C156 0.931 1_554 S
H143 C158 0.930 . S
C144 H132 0.930 . S
C144 C145 1.399 . S
C144 C149 1.399 . S
C145 C144 1.399 . S
C145 C146 1.376 . S
C146 H133 0.930 . S
C146 C145 1.376 . S
C146 C147 1.388 . S
C147 H134 0.930 . S
C147 C146 1.388 . S
C147 C148 1.390 . S
C148 C147 1.390 . S
C148 C149 1.394 . S
C148 C154 1.465 . S
C149 C144 1.399 . S
C149 C148 1.394 . S
C149 C150 1.516 . S
C150 C149 1.516 . S
C150 C151 1.502 . S
C150 C152 1.561 . S
C150 C153 1.526 . S
C151 H135 0.959 . S
C151 H136 0.959 . S
C151 H137 0.961 . S
C151 C150 1.502 . S
C152 H138 0.960 . S
C152 H139 0.961 . S
C152 H140 0.959 . S
C152 C150 1.561 . S
C153 C150 1.526 . S
C153 C154 1.396 . S
C153 C158 1.390 . S
C154 C148 1.465 . S
C154 C153 1.396 . S
C154 C155 1.399 . S
C155 H141 0.929 . S
C155 C154 1.399 . S
C155 C156 1.385 . S
C156 H142 0.931 1_556 S
C156 C155 1.385 . S
C156 C157 1.389 . S
C157 C156 1.389 . S
C157 C158 1.387 . S
C158 H143 0.930 . S
C158 C153 1.390 . S
C158 C157 1.387 . S
H159 C171 0.930 . S
H160 C173 0.930 1_556 S
H161 C174 0.930 . S
H162 C178 0.959 . S
H163 C178 0.959 . S
H164 C178 0.961 . S
H165 C179 0.960 . S
H166 C179 0.961 . S
H167 C179 0.959 . S
H168 C182 0.929 . S
H169 C183 0.931 . S
H170 C185 0.930 . S
C171 H159 0.930 . S
C171 C172 1.399 . S
C171 C176 1.399 . S
C172 C171 1.399 . S
C172 C173 1.376 . S
C173 H160 0.930 1_554 S
C173 C172 1.376 . S
C173 C174 1.388 . S
C174 H161 0.930 . S
C174 C173 1.388 . S
C174 C175 1.390 . S
C175 C174 1.390 . S
C175 C176 1.394 . S
C175 C181 1.465 1_455 S
C176 C171 1.399 . S
C176 C175 1.394 . S
C176 C177 1.516 . S
C177 C176 1.516 . S
C177 C178 1.502 . S
C177 C179 1.561 . S
C177 C180 1.526 1_455 S
C178 H162 0.959 . S
C178 H163 0.959 . S
C178 H164 0.961 . S
C178 C177 1.502 . S
C179 H165 0.960 . S
C179 H166 0.961 . S
C179 H167 0.959 . S
C179 C177 1.561 . S
C180 C177 1.526 1_655 S
C180 C181 1.396 . S
C180 C185 1.390 . S
C181 C175 1.465 1_655 S
C181 C180 1.396 . S
C181 C182 1.399 . S
C182 H168 0.929 . S
C182 C181 1.399 . S
C182 C183 1.385 . S
C183 H169 0.931 . S
C183 C182 1.385 . S
C183 C184 1.389 . S
C184 C183 1.389 . S
C184 C185 1.387 . S
C185 H170 0.930 . S
C185 C180 1.390 . S
C185 C184 1.387 . S
H186 C198 0.930 . S
H187 C200 0.930 . S
H188 C201 0.930 . S
H189 C205 0.959 . S
H190 C205 0.959 . S
H191 C205 0.962 . S
H192 C206 0.960 . S
H193 C206 0.961 . S
H194 C206 0.959 . S
H195 C209 0.929 . S
H196 C210 0.931 . S
H197 C212 0.930 . S
C198 H186 0.930 . S
C198 C199 1.399 . S
C198 C203 1.399 . S
C199 C198 1.399 . S
C199 C200 1.376 . S
C200 H187 0.930 . S
C200 C199 1.376 . S
C200 C201 1.388 . S
C201 H188 0.930 . S
C201 C200 1.388 . S
C201 C202 1.390 . S
C202 C201 1.390 . S
C202 C203 1.394 . S
C202 C208 1.465 1_545 S
C203 C198 1.399 . S
C203 C202 1.394 . S
C203 C204 1.516 1_545 S
C204 C203 1.516 1_565 S
C204 C205 1.502 . S
C204 C206 1.561 . S
C204 C207 1.526 . S
C205 H189 0.959 . S
C205 H190 0.959 . S
C205 H191 0.962 . S
C205 C204 1.502 . S
C206 H192 0.960 . S
C206 H193 0.961 . S
C206 H194 0.959 . S
C206 C204 1.561 . S
C207 C204 1.526 . S
C207 C208 1.396 . S
C207 C212 1.390 . S
C208 C202 1.465 1_565 S
C208 C207 1.396 . S
C208 C209 1.399 . S
C209 H195 0.929 . S
C209 C208 1.399 . S
C209 C210 1.385 . S
C210 H196 0.931 . S
C210 C209 1.385 . S
C210 C211 1.389 . S
C211 C210 1.389 . S
C211 C212 1.387 . S
C212 H197 0.930 . S
C212 C207 1.390 . S
C212 C211 1.387 . S
H213 C225 0.930 . S
H214 C227 0.930 . S
H215 C228 0.930 . S
H216 C232 0.959 . S
H217 C232 0.959 . S
H218 C232 0.961 . S
H219 C233 0.960 . S
H220 C233 0.961 1_554 S
H221 C233 0.959 1_554 S
H222 C236 0.929 . S
H223 C237 0.931 . S
H224 C239 0.930 . S
C225 H213 0.930 . S
C225 C226 1.399 . S
C225 C230 1.399 . S
C226 C225 1.399 . S
C226 C227 1.376 . S
C227 H214 0.930 . S
C227 C226 1.376 . S
C227 C228 1.388 . S
C228 H215 0.930 . S
C228 C227 1.388 . S
C228 C229 1.390 . S
C229 C228 1.390 . S
C229 C230 1.394 . S
C229 C235 1.465 . S
C230 C225 1.399 . S
C230 C229 1.394 . S
C230 C231 1.516 . S
C231 C230 1.516 . S
C231 C232 1.502 . S
C231 C233 1.561 . S
C231 C234 1.526 . S
C232 H216 0.959 . S
C232 H217 0.959 . S
C232 H218 0.961 . S
C232 C231 1.502 . S
C233 H219 0.960 . S
C233 H220 0.961 1_556 S
C233 H221 0.959 1_556 S
C233 C231 1.561 . S
C234 C231 1.526 . S
C234 C235 1.396 . S
C234 C239 1.390 . S
C235 C229 1.465 . S
C235 C234 1.396 . S
C235 C236 1.399 . S
C236 H222 0.929 . S
C236 C235 1.399 . S
C236 C237 1.385 . S
C237 H223 0.931 . S
C237 C236 1.385 . S
C237 C238 1.389 . S
C238 C237 1.389 . S
C238 C239 1.387 . S
C239 H224 0.930 . S
C239 C234 1.390 . S
C239 C238 1.387 . S
H240 C252 0.930 . S
H241 C254 0.930 . S
H242 C255 0.930 1_655 S
H243 C259 0.959 . S
H244 C259 0.959 1_556 S
H245 C259 0.961 . S
H246 C260 0.960 . S
H247 C260 0.961 1_655 S
H248 C260 0.959 1_655 S
H249 C263 0.929 . S
H250 C264 0.931 . S
H251 C266 0.930 1_556 S
C252 H240 0.930 . S
C252 C253 1.399 . S
C252 C257 1.399 . S
C253 C252 1.399 . S
C253 C254 1.376 . S
C254 H241 0.930 . S
C254 C253 1.376 . S
C254 C255 1.388 . S
C255 H242 0.930 1_455 S
C255 C254 1.388 . S
C255 C256 1.390 . S
C256 C255 1.390 . S
C256 C257 1.394 . S
C256 C262 1.465 1_455 S
C257 C252 1.399 . S
C257 C256 1.394 . S
C257 C258 1.516 . S
C258 C257 1.516 . S
C258 C259 1.502 . S
C258 C260 1.561 . S
C258 C261 1.526 1_455 S
C259 H243 0.959 . S
C259 H244 0.959 1_554 S
C259 H245 0.961 . S
C259 C258 1.502 . S
C260 H246 0.960 . S
C260 H247 0.961 1_455 S
C260 H248 0.959 1_455 S
C260 C258 1.561 . S
C261 C258 1.526 1_655 S
C261 C262 1.396 . S
C261 C266 1.390 . S
C262 C256 1.465 1_655 S
C262 C261 1.396 . S
C262 C263 1.399 . S
C263 H249 0.929 . S
C263 C262 1.399 . S
C263 C264 1.385 . S
C264 H250 0.931 . S
C264 C263 1.385 . S
C264 C265 1.389 . S
C265 C264 1.389 . S
C265 C266 1.387 . S
C266 H251 0.930 1_554 S
C266 C261 1.390 . S
C266 C265 1.387 . S
H267 C279 0.930 . S
H268 C281 0.930 . S
H269 C282 0.930 . S
H270 C286 0.959 . S
H271 C286 0.959 . S
H272 C286 0.961 . S
H273 C287 0.960 . S
H274 C287 0.961 . S
H275 C287 0.959 . S
H276 C290 0.929 . S
H277 C291 0.931 . S
H278 C293 0.930 . S
C279 H267 0.930 . S
C279 C280 1.399 . S
C279 C284 1.399 . S
C280 C279 1.399 . S
C280 C281 1.376 . S
C281 H268 0.930 . S
C281 C280 1.376 . S
C281 C282 1.388 . S
C282 H269 0.930 . S
C282 C281 1.388 . S
C282 C283 1.390 . S
C283 C282 1.390 . S
C283 C284 1.394 . S
C283 C289 1.465 1_545 S
C284 C279 1.399 . S
C284 C283 1.394 . S
C284 C285 1.516 1_545 S
C285 C284 1.516 1_565 S
C285 C286 1.502 . S
C285 C287 1.561 . S
C285 C288 1.526 . S
C286 H270 0.959 . S
C286 H271 0.959 . S
C286 H272 0.961 . S
C286 C285 1.502 . S
C287 H273 0.960 . S
C287 H274 0.961 . S
C287 H275 0.959 . S
C287 C285 1.561 . S
C288 C285 1.526 . S
C288 C289 1.396 . S
C288 C293 1.390 . S
C289 C283 1.465 1_565 S
C289 C288 1.396 . S
C289 C290 1.399 . S
C290 H276 0.929 . S
C290 C289 1.399 . S
C290 C291 1.385 . S
C291 H277 0.931 . S
C291 C290 1.385 . S
C291 C292 1.389 . S
C292 C291 1.389 . S
C292 C293 1.387 . S
C293 H278 0.930 . S
C293 C288 1.390 . S
C293 C292 1.387 . S
H294 C306 0.930 . S
H295 C308 0.930 . S
H296 C309 0.930 . S
H297 C313 0.959 . S
H298 C313 0.959 . S
H299 C313 0.961 . S
H300 C314 0.960 . S
H301 C314 0.961 . S
H302 C314 0.959 . S
H303 C317 0.929 . S
H304 C318 0.931 . S
H305 C320 0.930 . S
C306 H294 0.930 . S
C306 C307 1.399 . S
C306 C311 1.399 . S
C307 C306 1.399 . S
C307 C308 1.376 . S
C308 H295 0.930 . S
C308 C307 1.376 . S
C308 C309 1.388 . S
C309 H296 0.930 . S
C309 C308 1.388 . S
C309 C310 1.390 . S
C310 C309 1.390 . S
C310 C311 1.394 . S
C310 C316 1.465 . S
C311 C306 1.399 . S
C311 C310 1.394 . S
C311 C312 1.516 . S
C312 C311 1.516 . S
C312 C313 1.502 . S
C312 C314 1.561 . S
C312 C315 1.526 . S
C313 H297 0.959 . S
C313 H298 0.959 . S
C313 H299 0.961 . S
C313 C312 1.502 . S
C314 H300 0.960 . S
C314 H301 0.961 . S
C314 H302 0.959 . S
C314 C312 1.561 . S
C315 C312 1.526 . S
C315 C316 1.396 . S
C315 C320 1.390 . S
C316 C310 1.465 . S
C316 C315 1.396 . S
C316 C317 1.399 . S
C317 H303 0.929 . S
C317 C316 1.399 . S
C317 C318 1.385 . S
C318 H304 0.931 . S
C318 C317 1.385 . S
C318 C319 1.389 . S
C319 C318 1.389 . S
C319 C320 1.387 . S
C320 H305 0.930 . S
C320 C315 1.390 . S
C320 C319 1.387 . S
H321 C333 0.930 . S
H322 C335 0.930 . S
H323 C336 0.930 . S
H324 C340 0.959 . S
H325 C340 0.959 . S
H326 C340 0.961 . S
H327 C341 0.960 . S
H328 C341 0.961 . S
H329 C341 0.959 . S
H330 C344 0.929 . S
H331 C345 0.931 . S
H332 C347 0.930 . S
C333 H321 0.930 . S
C333 C334 1.399 . S
C333 C338 1.399 1_554 S
C334 C333 1.399 . S
C334 C335 1.376 . S
C335 H322 0.930 . S
C335 C334 1.376 . S
C335 C336 1.388 1_554 S
C336 H323 0.930 . S
C336 C335 1.388 1_556 S
C336 C337 1.390 . S
C337 C336 1.390 . S
C337 C338 1.394 . S
C337 C343 1.465 . S
C338 C333 1.399 1_556 S
C338 C337 1.394 . S
C338 C339 1.516 . S
C339 C338 1.516 . S
C339 C340 1.502 . S
C339 C341 1.561 . S
C339 C342 1.526 . S
C340 H324 0.959 . S
C340 H325 0.959 . S
C340 H326 0.961 . S
C340 C339 1.502 . S
C341 H327 0.960 . S
C341 H328 0.961 . S
C341 H329 0.959 . S
C341 C339 1.561 . S
C342 C339 1.526 . S
C342 C343 1.396 . S
C342 C347 1.390 . S
C343 C337 1.465 . S
C343 C342 1.396 . S
C343 C344 1.399 . S
C344 H330 0.929 . S
C344 C343 1.399 . S
C344 C345 1.385 . S
C345 H331 0.931 . S
C345 C344 1.385 . S
C345 C346 1.389 . S
C346 C345 1.389 . S
C346 C347 1.387 . S
C347 H332 0.930 . S
C347 C342 1.390 . S
C347 C346 1.387 . S
H348 C360 0.930 . S
H349 C362 0.930 . S
H350 C363 0.930 . S
H351 C367 0.959 . S
H352 C367 0.959 . S
H353 C367 0.961 . S
H354 C368 0.960 . S
H355 C368 0.961 . S
H356 C368 0.959 . S
H357 C371 0.929 . S
H358 C372 0.931 . S
H359 C374 0.930 1_556 S
C360 H348 0.930 . S
C360 C361 1.399 . S
C360 C365 1.399 . S
C361 C360 1.399 . S
C361 C362 1.376 . S
C362 H349 0.930 . S
C362 C361 1.376 . S
C362 C363 1.388 . S
C363 H350 0.930 . S
C363 C362 1.388 . S
C363 C364 1.390 . S
C364 C363 1.390 . S
C364 C365 1.394 . S
C364 C370 1.465 . S
C365 C360 1.399 . S
C365 C364 1.394 . S
C365 C366 1.516 . S
C366 C365 1.516 . S
C366 C367 1.502 . S
C366 C368 1.561 . S
C366 C369 1.526 . S
C367 H351 0.959 . S
C367 H352 0.959 . S
C367 H353 0.961 . S
C367 C366 1.502 . S
C368 H354 0.960 . S
C368 H355 0.961 . S
C368 H356 0.959 . S
C368 C366 1.561 . S
C369 C366 1.526 . S
C369 C370 1.396 . S
C369 C374 1.390 . S
C370 C364 1.465 . S
C370 C369 1.396 . S
C370 C371 1.399 . S
C371 H357 0.929 . S
C371 C370 1.399 . S
C371 C372 1.385 1_554 S
C372 H358 0.931 . S
C372 C371 1.385 1_556 S
C372 C373 1.389 . S
C373 C372 1.389 . S
C373 C374 1.387 1_556 S
C374 H359 0.930 1_554 S
C374 C369 1.390 . S
C374 C373 1.387 1_554 S
H375 C387 0.930 . S
H376 C389 0.930 . S
H377 C390 0.930 . S
H378 C394 0.959 . S
H379 C394 0.959 . S
H380 C394 0.961 . S
H381 C395 0.960 . S
H382 C395 0.961 . S
H383 C395 0.959 . S
H384 C398 0.929 . S
H385 C399 0.931 . S
H386 C401 0.930 . S
C387 H375 0.930 . S
C387 C388 1.399 . S
C387 C392 1.399 . S
C388 C387 1.399 . S
C388 C389 1.376 . S
C389 H376 0.930 . S
C389 C388 1.376 . S
C389 C390 1.388 . S
C390 H377 0.930 . S
C390 C389 1.388 . S
C390 C391 1.390 . S
C391 C390 1.390 . S
C391 C392 1.394 . S
C391 C397 1.465 . S
C392 C387 1.399 . S
C392 C391 1.394 . S
C392 C393 1.516 . S
C393 C392 1.516 . S
C393 C394 1.502 . S
C393 C395 1.561 . S
C393 C396 1.526 . S
C394 H378 0.959 . S
C394 H379 0.959 . S
C394 H380 0.961 . S
C394 C393 1.502 . S
C395 H381 0.960 . S
C395 H382 0.961 . S
C395 H383 0.959 . S
C395 C393 1.561 . S
C396 C393 1.526 . S
C396 C397 1.396 . S
C396 C401 1.390 . S
C397 C391 1.465 . S
C397 C396 1.396 . S
C397 C398 1.399 . S
C398 H384 0.929 . S
C398 C397 1.399 . S
C398 C399 1.385 . S
C399 H385 0.931 . S
C399 C398 1.385 . S
C399 C400 1.389 . S
C400 C399 1.389 . S
C400 C401 1.387 . S
C401 H386 0.930 . S
C401 C396 1.390 . S
C401 C400 1.387 . S
H402 C414 0.930 . S
H403 C416 0.930 . S
H404 C417 0.930 . S
H405 C421 0.959 . S
H406 C421 0.959 . S
H407 C421 0.961 . S
H408 C422 0.960 . S
H409 C422 0.961 . S
H410 C422 0.959 . S
H411 C425 0.929 . S
H412 C426 0.931 . S
H413 C428 0.929 1_554 S
C414 H402 0.930 . S
C414 C415 1.399 . S
C414 C419 1.399 . S
C415 C414 1.399 . S
C415 C416 1.376 . S
C416 H403 0.930 . S
C416 C415 1.376 . S
C416 C417 1.388 . S
C417 H404 0.930 . S
C417 C416 1.388 . S
C417 C418 1.390 . S
C418 C417 1.390 . S
C418 C419 1.394 . S
C418 C424 1.465 . S
C419 C414 1.399 . S
C419 C418 1.394 . S
C419 C420 1.516 . S
C420 C419 1.516 . S
C420 C421 1.502 . S
C420 C422 1.561 . S
C420 C423 1.526 . S
C421 H405 0.959 . S
C421 H406 0.959 . S
C421 H407 0.961 . S
C421 C420 1.502 . S
C422 H408 0.960 . S
C422 H409 0.961 . S
C422 H410 0.959 . S
C422 C420 1.561 . S
C423 C420 1.526 . S
C423 C424 1.396 . S
C423 C428 1.395 . S
C424 C418 1.465 . S
C424 C423 1.396 . S
C424 C425 1.399 . S
C425 H411 0.929 . S
C425 C424 1.399 . S
C425 C426 1.385 1_556 S
C426 H412 0.931 . S
C426 C425 1.385 1_554 S
C426 C427 1.389 . S
C427 C426 1.389 . S
C427 C428 1.382 1_554 S
C428 H413 0.929 1_556 S
C428 C423 1.395 . S
C428 C427 1.382 1_556 S
H429 C441 0.930 . S
H430 C443 0.930 . S
H431 C444 0.930 . S
H432 C448 0.959 . S
H433 C448 0.959 . S
H434 C448 0.961 . S
H435 C449 0.960 . S
H436 C449 0.961 . S
H437 C449 0.959 . S
H438 C452 0.929 . S
H439 C453 0.931 . S
H440 C455 0.930 1_556 S
C441 H429 0.930 . S
C441 C442 1.399 . S
C441 C446 1.399 . S
C442 C441 1.399 . S
C442 C443 1.376 . S
C443 H430 0.930 . S
C443 C442 1.376 . S
C443 C444 1.388 . S
C444 H431 0.930 . S
C444 C443 1.388 . S
C444 C445 1.390 . S
C445 C444 1.390 . S
C445 C446 1.394 . S
C445 C451 1.465 . S
C446 C441 1.399 . S
C446 C445 1.394 . S
C446 C447 1.516 . S
C447 C446 1.516 . S
C447 C448 1.502 . S
C447 C449 1.561 . S
C447 C450 1.526 . S
C448 H432 0.959 . S
C448 H433 0.959 . S
C448 H434 0.961 . S
C448 C447 1.502 . S
C449 H435 0.960 . S
C449 H436 0.961 . S
C449 H437 0.959 . S
C449 C447 1.561 . S
C450 C447 1.526 . S
C450 C451 1.396 . S
C450 C455 1.390 . S
C451 C445 1.465 . S
C451 C450 1.396 . S
C451 C452 1.399 . S
C452 H438 0.929 . S
C452 C451 1.399 . S
C452 C453 1.385 1_554 S
C453 H439 0.931 . S
C453 C452 1.385 1_556 S
C453 C454 1.389 . S
C454 C453 1.389 . S
C454 C455 1.387 1_556 S
C455 H440 0.930 1_554 S
C455 C450 1.390 . S
C455 C454 1.387 1_554 S
H456 C468 0.930 . S
H457 C470 0.936 . S
H458 C471 0.930 1_556 S
H459 C475 0.959 . S
H460 C475 0.959 . S
H461 C475 0.961 . S
H462 C476 0.960 . S
H463 C476 0.961 . S
H464 C476 0.959 . S
H465 C479 0.929 . S
H466 C480 0.931 . S
H467 C482 0.930 . S
C468 H456 0.930 . S
C468 C469 1.399 . S
C468 C473 1.399 . S
C469 C468 1.399 . S
C469 C470 1.376 . S
C470 H457 0.936 . S
C470 C469 1.376 . S
C470 C471 1.388 . S
C471 H458 0.930 1_554 S
C471 C470 1.388 . S
C471 C472 1.390 . S
C472 C471 1.390 . S
C472 C473 1.394 . S
C472 C478 1.465 . S
C473 C468 1.399 . S
C473 C472 1.394 . S
C473 C474 1.516 . S
C474 C473 1.516 . S
C474 C475 1.502 . S
C474 C476 1.561 . S
C474 C477 1.526 . S
C475 H459 0.959 . S
C475 H460 0.959 . S
C475 H461 0.961 . S
C475 C474 1.502 . S
C476 H462 0.960 . S
C476 H463 0.961 . S
C476 H464 0.959 . S
C476 C474 1.561 . S
C477 C474 1.526 . S
C477 C478 1.396 . S
C477 C482 1.390 . S
C478 C472 1.465 . S
C478 C477 1.396 . S
C478 C479 1.399 . S
C479 H465 0.929 . S
C479 C478 1.399 . S
C479 C480 1.385 . S
C480 H466 0.931 . S
C480 C479 1.385 . S
C480 C481 1.389 . S
C481 C480 1.389 . S
C481 C482 1.387 . S
C482 H467 0.930 . S
C482 C477 1.390 . S
C482 C481 1.387 . S
H483 C495 0.930 . S
H484 C497 0.930 . S
H485 C498 0.930 . S
H486 C502 0.959 . S
H487 C502 0.959 . S
H488 C502 0.961 . S
H489 C503 0.960 . S
H490 C503 0.961 . S
H491 C503 0.959 . S
H492 C506 0.929 . S
H493 C507 0.931 . S
H494 C509 0.930 . S
C495 H483 0.930 . S
C495 C496 1.399 . S
C495 C500 1.399 . S
C496 C495 1.399 . S
C496 C497 1.376 . S
C497 H484 0.930 . S
C497 C496 1.376 . S
C497 C498 1.388 . S
C498 H485 0.930 . S
C498 C497 1.388 . S
C498 C499 1.390 . S
C499 C498 1.390 . S
C499 C500 1.394 . S
C499 C505 1.465 . S
C500 C495 1.399 . S
C500 C499 1.394 . S
C500 C501 1.516 . S
C501 C500 1.516 . S
C501 C502 1.502 . S
C501 C503 1.561 . S
C501 C504 1.526 . S
C502 H486 0.959 . S
C502 H487 0.959 . S
C502 H488 0.961 . S
C502 C501 1.502 . S
C503 H489 0.960 . S
C503 H490 0.961 . S
C503 H491 0.959 . S
C503 C501 1.561 . S
C504 C501 1.526 . S
C504 C505 1.396 . S
C504 C509 1.390 . S
C505 C499 1.465 . S
C505 C504 1.396 . S
C505 C506 1.399 . S
C506 H492 0.929 . S
C506 C505 1.399 . S
C506 C507 1.385 . S
C507 H493 0.931 . S
C507 C506 1.385 . S
C507 C508 1.389 . S
C508 C507 1.389 . S
C508 C509 1.387 . S
C509 H494 0.930 . S
C509 C504 1.390 . S
C509 C508 1.387 . S
H510 C522 0.930 . S
H511 C524 0.930 . S
H512 C525 0.930 . S
H513 C529 0.959 . S
H514 C529 0.959 . S
H515 C529 0.961 . S
H516 C530 0.960 . S
H517 C530 0.961 . S
H518 C530 0.959 . S
H519 C533 0.929 . S
H520 C534 0.931 . S
H521 C536 0.930 . S
C522 H510 0.930 . S
C522 C523 1.399 . S
C522 C527 1.399 . S
C523 C522 1.399 . S
C523 C524 1.376 . S
C524 H511 0.930 . S
C524 C523 1.376 . S
C524 C525 1.388 . S
C525 H512 0.930 . S
C525 C524 1.388 . S
C525 C526 1.390 . S
C526 C525 1.390 . S
C526 C527 1.394 . S
C526 C532 1.465 . S
C527 C522 1.399 . S
C527 C526 1.394 . S
C527 C528 1.516 . S
C528 C527 1.516 . S
C528 C529 1.502 . S
C528 C530 1.561 1_556 S
C528 C531 1.526 . S
C529 H513 0.959 . S
C529 H514 0.959 . S
C529 H515 0.961 . S
C529 C528 1.502 . S
C530 H516 0.960 . S
C530 H517 0.961 . S
C530 H518 0.959 . S
C530 C528 1.561 1_554 S
C531 C528 1.526 . S
C531 C532 1.396 . S
C531 C536 1.390 . S
C532 C526 1.465 . S
C532 C531 1.396 . S
C532 C533 1.399 . S
C533 H519 0.929 . S
C533 C532 1.399 . S
C533 C534 1.385 . S
C534 H520 0.931 . S
C534 C533 1.385 . S
C534 C535 1.389 . S
C535 C534 1.389 . S
C535 C536 1.387 . S
C536 H521 0.930 . S
C536 C531 1.390 . S
C536 C535 1.387 . S
H537 C549 0.930 . S
H538 C551 0.930 . S
H539 C552 0.930 . S
H540 C556 0.959 . S
H541 C556 0.959 1_556 S
H542 C556 0.961 1_556 S
H543 C557 0.960 . S
H544 C557 0.961 . S
H545 C557 0.959 1_554 S
H546 C560 0.929 . S
H547 C561 0.931 . S
H548 C563 0.930 . S
C549 H537 0.930 . S
C549 C550 1.399 . S
C549 C554 1.399 . S
C550 C549 1.399 . S
C550 C551 1.376 . S
C551 H538 0.930 . S
C551 C550 1.376 . S
C551 C552 1.388 . S
C552 H539 0.930 . S
C552 C551 1.388 . S
C552 C553 1.390 . S
C553 C552 1.390 . S
C553 C554 1.394 . S
C553 C559 1.465 . S
C554 C549 1.399 . S
C554 C553 1.394 . S
C554 C555 1.516 . S
C555 C554 1.516 . S
C555 C556 1.502 . S
C555 C557 1.561 1_554 S
C555 C558 1.526 . S
C556 H540 0.959 . S
C556 H541 0.959 1_554 S
C556 H542 0.961 1_554 S
C556 C555 1.502 . S
C557 H543 0.960 . S
C557 H544 0.961 . S
C557 H545 0.959 1_556 S
C557 C555 1.561 1_556 S
C558 C555 1.526 . S
C558 C559 1.396 . S
C558 C563 1.390 . S
C559 C553 1.465 . S
C559 C558 1.396 . S
C559 C560 1.399 . S
C560 H546 0.929 . S
C560 C559 1.399 . S
C560 C561 1.385 . S
C561 H547 0.931 . S
C561 C560 1.385 . S
C561 C562 1.389 . S
C562 C561 1.389 . S
C562 C563 1.387 . S
C563 H548 0.930 . S
C563 C558 1.390 . S
C563 C562 1.387 . S
H564 C576 0.930 . S
H565 C578 0.930 . S
H566 C579 0.930 . S
H567 C583 0.959 . S
H568 C583 0.959 . S
H569 C583 0.961 . S
H570 C584 0.960 . S
H571 C584 0.961 . S
H572 C584 0.959 . S
H573 C587 0.929 . S
H574 C588 0.931 . S
H575 C590 0.930 . S
C576 H564 0.930 . S
C576 C577 1.399 . S
C576 C581 1.399 . S
C577 C576 1.399 . S
C577 C578 1.376 . S
C578 H565 0.930 . S
C578 C577 1.376 . S
C578 C579 1.388 . S
C579 H566 0.930 . S
C579 C578 1.388 . S
C579 C580 1.390 . S
C580 C579 1.390 . S
C580 C581 1.394 . S
C580 C586 1.465 . S
C581 C576 1.399 . S
C581 C580 1.394 . S
C581 C582 1.516 . S
C582 C581 1.516 . S
C582 C583 1.502 . S
C582 C584 1.561 . S
C582 C585 1.526 . S
C583 H567 0.959 . S
C583 H568 0.959 . S
C583 H569 0.961 . S
C583 C582 1.502 . S
C584 H570 0.960 . S
C584 H571 0.961 . S
C584 H572 0.959 . S
C584 C582 1.561 . S
C585 C582 1.526 . S
C585 C586 1.396 . S
C585 C590 1.390 . S
C586 C580 1.465 . S
C586 C585 1.396 . S
C586 C587 1.399 . S
C587 H573 0.929 . S
C587 C586 1.399 . S
C587 C588 1.385 . S
C588 H574 0.931 . S
C588 C587 1.385 . S
C588 C589 1.389 . S
C589 C588 1.389 . S
C589 C590 1.387 . S
C590 H575 0.930 . S
C590 C585 1.390 . S
C590 C589 1.387 . S
H591 C603 0.930 . S
H592 C605 0.930 . S
H593 C606 0.930 . S
H594 C610 0.959 . S
H595 C610 0.959 1_554 S
H596 C610 0.961 1_554 S
H597 C611 0.960 . S
H598 C611 0.961 . S
H599 C611 0.959 . S
H600 C614 0.929 . S
H601 C615 0.931 . S
H602 C617 0.930 . S
C603 H591 0.930 . S
C603 C604 1.399 . S
C603 C608 1.399 . S
C604 C603 1.399 . S
C604 C605 1.376 . S
C605 H592 0.930 . S
C605 C604 1.376 . S
C605 C606 1.388 . S
C606 H593 0.930 . S
C606 C605 1.388 . S
C606 C607 1.390 . S
C607 C606 1.390 . S
C607 C608 1.394 . S
C607 C613 1.465 . S
C608 C603 1.399 . S
C608 C607 1.394 . S
C608 C609 1.516 . S
C609 C608 1.516 . S
C609 C610 1.502 . S
C609 C611 1.561 1_556 S
C609 C612 1.526 . S
C610 H594 0.959 . S
C610 H595 0.959 1_556 S
C610 H596 0.961 1_556 S
C610 C609 1.502 . S
C611 H597 0.960 . S
C611 H598 0.961 . S
C611 H599 0.959 . S
C611 C609 1.561 1_554 S
C612 C609 1.526 . S
C612 C613 1.396 . S
C612 C617 1.390 . S
C613 C607 1.465 . S
C613 C612 1.396 . S
C613 C614 1.399 . S
C614 H600 0.929 . S
C614 C613 1.399 . S
C614 C615 1.385 . S
C615 H601 0.931 . S
C615 C614 1.385 . S
C615 C616 1.389 . S
C616 C615 1.389 . S
C616 C617 1.387 . S
C617 H602 0.930 . S
C617 C612 1.390 . S
C617 C616 1.387 . S
C145 C125 1.671 . S
C157 C18 1.663 1_556 S
C172 C15 1.709 . S
C184 C40 1.654 . S
C199 C37 1.666 . S
C211 C54 1.672 . S
C226 C65 1.697 . S
C238 C76 1.671 1_556 S
C253 C98 1.687 . S
C265 C87 1.668 . S
C280 C128 1.636 . S
C292 C109 1.694 . S
C307 C10 0.981 . S
C319 C7 1.002 . S
C334 C32 0.912 . S
C346 C29 0.938 . S
C361 C52 0.988 . S
C373 C59 0.962 . S
C388 C74 0.955 . S
C400 C81 0.939 . S
C415 C103 0.982 . S
C427 C96 0.943 . S
C442 C120 0.997 . S
C454 C117 0.971 . S
C469 C21 1.189 . S
C481 C106 1.278 . S
C496 C43 1.259 . S
C508 C118 1.225 . S
C523 C8 1.265 . S
C535 C51 1.201 . S
C550 C30 1.217 . S
C562 C73 1.266 . S
C577 C95 1.242 . S
C589 C62 1.238 . S
C604 C84 1.269 . S
C616 C131 1.197 . S
