# Generated by pormake.
# Topology sml, (6)-cn, num edge types: 1
# Building blocks:
#     Node 0, Type 0, BuildingBlock: JUFBIX_clean_sbu_0, # of connection points: 6
#     Node 1, Type 0, BuildingBlock: JUFBIX_clean_sbu_0, # of connection points: 6
#     Node 2, Type 0, BuildingBlock: JUFBIX_clean_sbu_0, # of connection points: 6
#     Node 3, Type 0, BuildingBlock: JUFBIX_clean_sbu_0, # of connection points: 6
#     Node 4, Type 0, BuildingBlock: JUFBIX_clean_sbu_0, # of connection points: 6
#     Node 5, Type 0, BuildingBlock: JUFBIX_clean_sbu_0, # of connection points: 6
#     Edge 6, Type (0, 0), BuildingBlock: KIFKEQ_clean_linker_1, # of connection points: 2
#     Edge 7, Type (0, 0), BuildingBlock: KIFKEQ_clean_linker_1, # of connection points: 2
#     Edge 8, Type (0, 0), BuildingBlock: KIFKEQ_clean_linker_1, # of connection points: 2
#     Edge 9, Type (0, 0), BuildingBlock: KIFKEQ_clean_linker_1, # of connection points: 2
#     Edge 10, Type (0, 0), BuildingBlock: KIFKEQ_clean_linker_1, # of connection points: 2
#     Edge 11, Type (0, 0), BuildingBlock: KIFKEQ_clean_linker_1, # of connection points: 2
#     Edge 12, Type (0, 0), BuildingBlock: KIFKEQ_clean_linker_1, # of connection points: 2
#     Edge 13, Type (0, 0), BuildingBlock: KIFKEQ_clean_linker_1, # of connection points: 2
#     Edge 14, Type (0, 0), BuildingBlock: KIFKEQ_clean_linker_1, # of connection points: 2
#     Edge 15, Type (0, 0), BuildingBlock: KIFKEQ_clean_linker_1, # of connection points: 2
#     Edge 16, Type (0, 0), BuildingBlock: KIFKEQ_clean_linker_1, # of connection points: 2
#     Edge 17, Type (0, 0), BuildingBlock: KIFKEQ_clean_linker_1, # of connection points: 2
#     Edge 18, Type (0, 0), BuildingBlock: KIFKEQ_clean_linker_1, # of connection points: 2
#     Edge 19, Type (0, 0), BuildingBlock: KIFKEQ_clean_linker_1, # of connection points: 2
#     Edge 20, Type (0, 0), BuildingBlock: KIFKEQ_clean_linker_1, # of connection points: 2
#     Edge 21, Type (0, 0), BuildingBlock: KIFKEQ_clean_linker_1, # of connection points: 2
#     Edge 22, Type (0, 0), BuildingBlock: KIFKEQ_clean_linker_1, # of connection points: 2
#     Edge 23, Type (0, 0), BuildingBlock: KIFKEQ_clean_linker_1, # of connection points: 2
# Relax obj value: 0.290
# Max RMSD: 0.197
# Mean RMSD: 0.197
data_MOF--net-sml--node1-JUFBIX_clean_sbu_0--edge1-KIFKEQ_clean_linker_1
_symmetry_space_group_name_H-M    P1
_symmetry_Int_Tables_number       1
_symmetry_cell_setting            triclinic
loop_
_symmetry_equiv_pos_as_xyz
'x, y, z'
_cell_length_a     45.14703
_cell_length_b     45.079904
_cell_length_c     15.070104
_cell_angle_alpha  90.098058
_cell_angle_beta   89.898616
_cell_angle_gamma 119.86917
loop_
_atom_site_label
_atom_site_type_symbol
_atom_site_fract_x
_atom_site_fract_y
_atom_site_fract_z
_atom_type_partial_charge
Co0 Co 0.31792 0.48917 0.02659 0.0
C1 C 0.27156 0.5107 0.05503 0.0
Co2 Co 0.26477 0.44591 0.02796 0.0
C3 C 0.37831 0.55257 -0.02386 0.0
C4 C 0.38879 0.52447 0.07329 0.0
N5 N 0.36316 0.52399 0.02637 0.0
N6 N 0.41246 0.57083 -0.0105 0.0
C7 C 0.41901 0.55314 0.05094 0.0
H8 H 0.36447 0.55959 0.93011 0.0
H9 H 0.38581 0.50471 0.11906 0.0
C10 C 0.3124 0.42544 -0.00196 0.0
N11 N 0.21962 0.41059 0.02811 0.0
C12 C 0.19401 0.4057 0.08363 0.0
C13 C 0.20542 0.3839 0.97157 0.0
N14 N 0.1643 0.37698 0.06394 0.0
C15 C 0.17156 0.36326 -0.00667 0.0
C16 C 0.28841 0.47297 0.86074 0.0
O17 O 0.33252 0.45735 0.00648 0.0
O18 O 0.28044 0.41357 0.00798 0.0
O19 O 0.26282 0.45059 0.90386 0.0
O20 O 0.31546 0.49354 0.90214 0.0
O21 O 0.25007 0.47884 0.04799 0.0
H22 H 0.2189 0.37963 0.91814 0.0
H23 H 0.19716 0.42313 0.13698 0.0
O24 O 0.30319 0.52098 0.04595 0.0
O25 O 0.31973 0.4843 0.15177 0.0
O26 O 0.267 0.4415 0.1514 0.0
C27 C 0.29383 0.46181 0.19387 0.0
H28 H 0.44399 0.55972 0.07602 0.0
H29 H 0.15391 0.33962 0.96044 0.0
Co30 Co 0.78456 0.21987 0.42178 0.0
C31 C 0.83064 0.28825 0.3978 0.0
Co32 Co 0.83811 0.23071 0.42086 0.0
C33 C 0.72424 0.22228 0.47602 0.0
C34 C 0.71343 0.18463 0.37563 0.0
N35 N 0.73921 0.20928 0.42323 0.0
N36 N 0.69003 0.20658 0.46375 0.0
C37 C 0.68327 0.18293 0.40021 0.0
H38 H 0.73824 0.24269 0.52314 0.0
H39 H 0.71626 0.16827 0.32788 0.0
C40 C 0.79109 0.16202 0.44466 0.0
N41 N 0.88339 0.24084 0.41991 0.0
C42 C 0.90889 0.26184 0.36464 0.0
C43 C 0.89781 0.22834 0.47559 0.0
N44 N 0.93875 0.26299 0.38369 0.0
C45 C 0.9317 0.24183 0.45359 0.0
C46 C 0.81404 0.23249 0.58809 0.0
O47 O 0.77028 0.17307 0.43645 0.0
O48 O 0.823 0.18303 0.43931 0.0
O49 O 0.84013 0.23699 0.54495 0.0
O50 O 0.78674 0.22515 0.54671 0.0
O51 O 0.85231 0.27804 0.4024 0.0
H52 H 0.88447 0.21041 0.52861 0.0
H53 H 0.90556 0.27619 0.31196 0.0
O54 O 0.79906 0.26677 0.40718 0.0
O55 O 0.78305 0.21473 0.29647 0.0
O56 O 0.83576 0.2244 0.29712 0.0
C57 C 0.80905 0.21823 0.25453 0.0
H58 H 0.65819 0.16483 0.37515 0.0
H59 H 0.94951 0.2359 0.48583 0.0
Co60 Co 0.60743 0.86365 0.6985 0.0
C61 C 0.58502 0.79507 0.72217 0.0
Co62 Co 0.64981 0.85218 0.69861 0.0
C63 C 0.54398 0.86059 0.64854 0.0
C64 C 0.57205 0.89957 0.74476 0.0
N65 N 0.57269 0.87436 0.69818 0.0
N66 N 0.52545 0.87631 0.66195 0.0
C67 C 0.54315 0.90084 0.72278 0.0
H68 H 0.537 0.83951 0.60313 0.0
H69 H 0.59178 0.9165 0.79033 0.0
C70 C 0.67149 0.92112 0.67505 0.0
N71 N 0.685 0.84192 0.69851 0.0
C72 C 0.69096 0.82233 0.75562 0.0
C73 C 0.71115 0.85388 0.64036 0.0
N74 N 0.71997 0.82185 0.73568 0.0
C75 C 0.73261 0.84167 0.66296 0.0
C76 C 0.62389 0.85074 0.5318 0.0
O77 O 0.63975 0.91029 0.68347 0.0
O78 O 0.68231 0.89993 0.68017 0.0
O79 O 0.6454 0.84601 0.57456 0.0
O80 O 0.60407 0.85829 0.57356 0.0
O81 O 0.61676 0.80483 0.71687 0.0
H82 H 0.71455 0.87069 0.58536 0.0
H83 H 0.67474 0.80938 0.81198 0.0
O84 O 0.57529 0.81695 0.71358 0.0
O85 O 0.61127 0.86887 0.82368 0.0
O86 O 0.65384 0.85839 0.82245 0.0
C87 C 0.63356 0.86498 0.86533 0.0
H88 H 0.53636 0.91915 0.74793 0.0
H89 H 0.75571 0.84693 0.62812 0.0
Co90 Co 0.87467 0.59814 0.103 0.0
C91 C 0.80616 0.57537 0.0791 0.0
Co92 Co 0.86304 0.64045 0.10284 0.0
C93 C 0.87063 0.53405 0.15098 0.0
C94 C 0.91258 0.5641 0.06393 0.0
N95 N 0.88558 0.56352 0.10417 0.0
N96 N 0.88754 0.51652 0.14247 0.0
C97 C 0.91394 0.53534 0.08769 0.0
H98 H 0.84857 0.52629 0.1933 0.0
H99 H 0.93065 0.58459 0.02188 0.0
C100 C 0.93193 0.66249 0.12655 0.0
N101 N 0.85258 0.67555 0.10242 0.0
C102 C 0.83296 0.68135 0.04513 0.0
C103 C 0.86442 0.70179 0.16038 0.0
N104 N 0.83233 0.71035 0.0648 0.0
C105 C 0.8521 0.72315 0.13751 0.0
C106 C 0.86157 0.61462 0.26966 0.0
O107 O 0.92116 0.63071 0.1184 0.0
O108 O 0.91072 0.67325 0.12125 0.0
O109 O 0.85686 0.63616 0.2269 0.0
O110 O 0.86914 0.59479 0.22791 0.0
O111 O 0.81576 0.60713 0.08457 0.0
H112 H 0.88121 0.70532 0.21546 0.0
H113 H 0.82009 0.66503 -0.01114 0.0
O114 O 0.82812 0.56578 0.08756 0.0
O115 O 0.88009 0.60192 -0.02213 0.0
O116 O 0.86929 0.64434 -0.02099 0.0
C117 C 0.87604 0.62414 0.93618 0.0
H118 H 0.93298 0.52886 0.06682 0.0
H119 H 0.85724 0.74628 0.17216 0.0
Co120 Co 0.23071 0.77528 0.37538 0.0
C121 C 0.2992 0.82131 0.39943 0.0
Co122 Co 0.24199 0.82906 0.3759 0.0
C123 C 0.23328 0.71479 0.32257 0.0
C124 C 0.19528 0.70407 0.42172 0.0
N125 N 0.22008 0.72984 0.37441 0.0
N126 N 0.21756 0.68055 0.33516 0.0
C127 C 0.19369 0.67384 0.39791 0.0
H128 H 0.25386 0.72878 0.27594 0.0
H129 H 0.17877 0.70695 0.46879 0.0
C130 C 0.17318 0.78203 0.35221 0.0
N131 N 0.2521 0.87444 0.37618 0.0
C132 C 0.27182 0.89996 0.4331 0.0
C133 C 0.24 0.88864 0.31851 0.0
N134 N 0.27226 0.92947 0.41348 0.0
C135 C 0.25226 0.92233 0.34119 0.0
C136 C 0.24356 0.80466 0.20887 0.0
O137 O 0.18406 0.76107 0.36025 0.0
O138 O 0.1943 0.81397 0.35767 0.0
O139 O 0.24815 0.83085 0.25186 0.0
O140 O 0.23614 0.77733 0.25041 0.0
O141 O 0.2893 0.84325 0.39405 0.0
H142 H 0.22309 0.87526 0.26371 0.0
H143 H 0.28492 0.89668 0.48905 0.0
O144 O 0.27746 0.78973 0.39065 0.0
O145 O 0.22542 0.77386 0.50055 0.0
O146 O 0.23579 0.82689 0.49977 0.0
C147 C 0.22926 0.80004 0.54243 0.0
H148 H 0.17553 0.64875 0.42298 0.0
H149 H 0.24695 0.9402 0.30668 0.0
Co150 Co 0.50002 0.30681 0.77897 0.0
C151 C 0.52109 0.26001 0.7502 0.0
Co152 Co 0.45667 0.25362 0.7776 0.0
C153 C 0.56363 0.36729 0.82862 0.0
C154 C 0.53551 0.37767 0.73145 0.0
N155 N 0.535 0.35207 0.77872 0.0
N156 N 0.58195 0.40146 0.81465 0.0
C157 C 0.56423 0.40793 0.75321 0.0
H158 H 0.57064 0.35349 0.87486 0.0
H159 H 0.51573 0.37466 0.68581 0.0
C160 C 0.43658 0.30165 0.8076 0.0
N161 N 0.42111 0.20851 0.77804 0.0
C162 C 0.41482 0.18285 0.72086 0.0
C163 C 0.39508 0.19466 0.83658 0.0
N164 N 0.38573 0.1536 0.74114 0.0
C165 C 0.37336 0.16105 0.81413 0.0
C166 C 0.48392 0.27738 0.94481 0.0
O167 O 0.46846 0.32172 0.79903 0.0
O168 O 0.42466 0.26962 0.79791 0.0
O169 O 0.46156 0.25176 0.9017 0.0
O170 O 0.50447 0.30447 0.9034 0.0
O171 O 0.48925 0.23858 0.75714 0.0
H172 H 0.39199 0.20823 0.89182 0.0
H173 H 0.43089 0.18586 0.66428 0.0
O174 O 0.53152 0.29171 0.7596 0.0
O175 O 0.49508 0.30851 0.65378 0.0
O176 O 0.45212 0.25583 0.65418 0.0
C177 C 0.4725 0.28265 0.6117 0.0
H178 H 0.57082 0.4329 0.72774 0.0
H179 H 0.3503 0.14344 0.8493 0.0
H180 H 0.36627 0.27345 0.79635 0.0
H181 H 0.45828 0.36252 0.88771 0.0
H182 H 0.33285 0.30059 0.84187 0.0
H183 H 0.42544 0.38844 0.93583 0.0
H184 H 0.37188 0.44694 0.91163 0.0
H185 H 0.39789 0.4142 0.86304 0.0
H186 H 0.31253 0.322 0.968 0.0
H187 H 0.28524 0.35527 0.01399 0.0
C188 C 0.37927 0.29862 0.82639 0.0
C189 C 0.415 0.31616 0.83643 0.0
C190 C 0.36017 0.31405 0.85301 0.0
C191 C 0.37653 0.34705 0.89083 0.0
C192 C 0.41202 0.36357 0.90424 0.0
C193 C 0.43093 0.34857 0.87671 0.0
C194 C 0.35851 0.41969 0.9249 0.0
C195 C 0.32679 0.40384 0.96849 0.0
C196 C 0.37355 0.40085 0.8971 0.0
C197 C 0.3578 0.36554 0.91354 0.0
C198 C 0.3254 0.34919 0.9545 0.0
C199 C 0.30989 0.36821 -0.01864 0.0
H200 H 0.15285 0.38949 0.23385 0.0
H201 H 0.10141 0.33314 -0.00262 0.0
H202 H 0.09819 0.36494 0.31077 0.0
H203 H 0.04714 0.30741 0.0754 0.0
H204 H 0.94998 0.2875 0.21454 0.0
H205 H 1.00461 0.31817 0.13771 0.0
H206 H 0.05603 0.31136 0.37173 0.0
H207 H 1.00178 0.28225 0.4497 0.0
C208 C 0.12997 0.37202 0.19796 0.0
C209 C 0.13179 0.36326 0.10924 0.0
C210 C 0.09857 0.35759 0.24251 0.0
C211 C 0.06813 0.33398 0.19962 0.0
C212 C 0.06991 0.32572 0.11048 0.0
C213 C 0.10124 0.34018 0.06594 0.0
C214 C 0.97293 0.29295 0.25016 0.0
C215 C 0.97123 0.28211 0.33848 0.0
C216 C 1.00432 0.31024 0.20565 0.0
C217 C 0.03485 0.31716 0.24819 0.0
C218 C 0.03318 0.30685 0.33694 0.0
C219 C 1.00187 0.28965 0.38144 0.0
H220 H 0.72586 0.11014 0.42727 0.0
H221 H 0.82548 0.13159 0.51669 0.0
H222 H 0.70086 0.05246 0.48552 0.0
H223 H 0.80004 0.0733 0.5767 0.0
H224 H 0.73555 0.95114 0.59891 0.0
H225 H 0.76792 1.00947 0.53882 0.0
H226 H 0.69091 0.03105 0.63869 0.0
H227 H 0.65871 0.97337 0.69699 0.0
C228 C 0.74253 0.10243 0.45875 0.0
C229 C 0.77762 0.1256 0.46819 0.0
C230 C 0.72813 0.06938 0.49273 0.0
C231 C 0.74833 0.05855 0.53763 0.0
C232 C 0.78381 0.08096 0.54271 0.0
C233 C 0.79836 0.11428 0.50826 0.0
C234 C 0.72596 0.96864 0.60925 0.0
C235 C 0.69437 0.95753 0.65173 0.0
C236 C 0.74444 1.00196 0.57474 0.0
C237 C 0.73155 0.02458 0.58221 0.0
C238 C 0.70108 1.01397 0.62959 0.0
C239 C 0.68271 0.98092 0.6636 0.0
H240 H 0.68765 0.76373 0.83448 0.0
H241 H 0.78722 0.84176 0.74513 0.0
H242 H 0.71411 0.73559 0.91448 0.0
H243 H 0.8134 0.81345 0.82287 0.0
H244 H 0.85197 0.77763 0.05473 0.0
H245 H 0.82348 0.80357 -0.02318 0.0
H246 H 0.74595 0.70391 0.88601 0.0
H247 H 0.77428 0.67768 0.96618 0.0
C248 C 0.71512 0.77491 0.83198 0.0
C249 C 0.73527 0.80502 0.78323 0.0
C250 C 0.73025 0.75861 0.87705 0.0
C251 C 0.76589 0.77229 0.8752 0.0
C252 C 0.78593 0.80238 0.82647 0.0
C253 C 0.77084 0.81845 0.78105 0.0
C254 C 0.8287 0.76112 0.01893 0.0
C255 C 0.81541 0.72551 0.01705 0.0
C256 C 0.81252 0.77607 -0.02658 0.0
C257 C 0.78247 0.75586 0.92489 0.0
C258 C 0.76894 0.72018 0.92329 0.0
C259 C 0.78535 0.70519 0.96845 0.0
H260 H 0.14283 0.81666 0.28077 0.0
H261 H 0.12121 0.71684 0.37031 0.0
H262 H 0.08443 0.79133 0.22204 0.0
H263 H 0.06348 0.69198 0.31331 0.0
H264 H 0.98408 0.6498 0.10307 0.0
H265 H 0.04185 0.68208 0.16013 0.0
H266 H 1.02057 0.75918 0.26163 0.0
H267 H 0.9621 0.72669 0.2028 0.0
C268 C 0.12548 0.78952 0.28947 0.0
C269 C 0.13678 0.76868 0.32921 0.0
C270 C 0.0921 0.77504 0.25577 0.0
C271 C 0.06961 0.73954 0.26125 0.0
C272 C 0.08044 0.71926 0.30581 0.0
C273 C 0.11354 0.73358 0.33905 0.0
C274 C 0.9917 0.67383 0.13657 0.0
C275 C 0.96835 0.68547 0.14927 0.0
C276 C 1.02481 0.69225 0.16985 0.0
C277 C 0.03555 0.72277 0.21733 0.0
C278 C 1.01296 0.73565 0.22562 0.0
C279 C 0.97956 0.71711 0.19184 0.0
H280 H 0.41765 0.12738 0.64172 0.0
H281 H 0.3184 0.10661 0.73275 0.0
H282 H 0.39086 0.07276 0.56187 0.0
H283 H 0.29188 0.05204 0.65517 0.0
H284 H 0.25266 0.97719 0.42387 0.0
H285 H 0.28137 0.03173 0.50143 0.0
H286 H 0.35908 1.00952 0.59079 0.0
H287 H 0.33056 0.95491 0.51095 0.0
C288 C 0.39017 0.11124 0.64461 0.0
C289 C 0.37021 0.12143 0.69377 0.0
C290 C 0.37486 0.0798 0.59964 0.0
C291 C 0.33921 0.05804 0.60204 0.0
C292 C 0.31935 0.0683 0.65116 0.0
C293 C 0.33463 0.09949 0.69648 0.0
C294 C 0.27601 0.98397 0.45927 0.0
C295 C 0.28931 0.96162 0.46087 0.0
C296 C 0.29232 1.01515 0.50458 0.0
C297 C 0.32248 0.02499 0.5526 0.0
C298 C 0.33601 1.00281 0.5539 0.0
C299 C 0.31949 0.97138 0.50893 0.0
H300 H 0.33201 0.52311 0.74724 0.0
H301 H 0.24425 0.42127 0.75386 0.0
H302 H 0.33329 0.52013 0.58571 0.0
H303 H 0.24655 0.41745 0.59377 0.0
H304 H 0.23812 0.4327 0.30115 0.0
H305 H 0.23635 0.43697 0.46118 0.0
H306 H 0.34681 0.49412 0.46862 0.0
H307 H 0.34838 0.49135 0.30703 0.0
C308 C 0.31298 0.50013 0.71406 0.0
C309 C 0.28788 0.47254 0.76297 0.0
C310 C 0.31393 0.49823 0.62161 0.0
C311 C 0.29012 0.46847 0.5764 0.0
C312 C 0.2649 0.44103 0.62581 0.0
C313 C 0.26361 0.44317 0.71786 0.0
C314 C 0.26206 0.44591 0.33698 0.0
C315 C 0.29342 0.46159 0.29166 0.0
C316 C 0.26107 0.4483 0.42901 0.0
C317 C 0.29143 0.4659 0.47824 0.0
C318 C 0.32288 0.48094 0.43284 0.0
C319 C 0.32385 0.47904 0.34037 0.0
H320 H 0.86483 0.2456 0.14752 0.0
H321 H 0.75451 0.19224 0.14159 0.0
H322 H 0.86647 0.25091 -0.01275 0.0
H323 H 0.75598 0.19588 -0.02002 0.0
H324 H 0.76992 0.23848 0.70097 0.0
H325 H 0.76884 0.23494 0.86251 0.0
H326 H 0.8566 0.2204 0.85544 0.0
H327 H 0.85865 0.22578 0.69508 0.0
C328 C 0.84087 0.23438 0.11162 0.0
C329 C 0.80952 0.2184 0.15688 0.0
C330 C 0.84179 0.23734 0.01954 0.0
C331 C 0.81136 0.22384 0.97036 0.0
C332 C 0.77993 0.20718 0.01576 0.0
C333 C 0.77903 0.20475 0.10823 0.0
C334 C 0.78917 0.23493 0.73435 0.0
C335 C 0.8145 0.23265 0.68572 0.0
C336 C 0.78836 0.23252 0.82679 0.0
C337 C 0.81253 0.22721 0.87222 0.0
C338 C 0.83795 0.22513 0.82309 0.0
C339 C 0.8391 0.22813 0.73099 0.0
H340 H 0.57412 0.84544 0.41923 0.0
H341 H 0.67497 0.85686 0.42445 0.0
H342 H 0.57667 0.84898 0.25765 0.0
H343 H 0.67839 0.86224 0.26414 0.0
H344 H 0.66154 0.83708 0.97215 0.0
H345 H 0.65771 0.83177 0.13243 0.0
H346 H 0.60311 0.88796 0.14008 0.0
H347 H 0.60543 0.8916 -0.02152 0.0
C348 C 0.59681 0.84871 0.38571 0.0
C349 C 0.62423 0.85062 0.43416 0.0
C350 C 0.59846 0.85112 0.29325 0.0
C351 C 0.62782 0.85606 0.24765 0.0
C352 C 0.65512 0.85779 0.29661 0.0
C353 C 0.65321 0.85479 0.3887 0.0
C354 C 0.64896 0.84856 0.00813 0.0
C355 C 0.63386 0.86485 0.96298 0.0
C356 C 0.64684 0.8456 0.10022 0.0
C357 C 0.63009 0.85942 0.1495 0.0
C358 C 0.61561 0.87641 0.10421 0.0
C359 C 0.61723 0.87884 0.01175 0.0
H360 H 0.9026 0.59598 0.82277 0.0
H361 H 0.84817 0.65218 0.82953 0.0
H362 H 0.89891 0.59373 0.66115 0.0
H363 H 0.84282 0.64842 0.66929 0.0
H364 H 0.86771 0.66576 0.37718 0.0
H365 H 0.87319 0.66917 0.53748 0.0
H366 H 0.85992 0.56729 0.54367 0.0
H367 H 0.85627 0.56475 0.38211 0.0
C368 C 0.88986 0.60782 0.7896 0.0
C369 C 0.8759 0.62445 0.83851 0.0
C370 C 0.8874 0.60624 0.69713 0.0
C371 C 0.87043 0.62076 0.65197 0.0
C372 C 0.85664 0.63751 0.70139 0.0
C373 C 0.85962 0.6396 0.79347 0.0
C374 C 0.86566 0.64396 0.41286 0.0
C375 C 0.86146 0.61494 0.36732 0.0
C376 C 0.86872 0.64586 0.50495 0.0
C377 C 0.86702 0.61851 0.55383 0.0
C378 C 0.86204 0.58911 0.50814 0.0
C379 C 0.85956 0.58747 0.41569 0.0
H380 H 0.25705 0.85586 0.64962 0.0
H381 H 0.20275 0.74536 0.6552 0.0
H382 H 0.26238 0.85735 0.80989 0.0
H383 H 0.20642 0.7467 0.8168 0.0
H384 H 0.24892 0.76012 0.09583 0.0
H385 H 0.24536 0.75912 0.93426 0.0
H386 H 0.23197 0.84769 0.94169 0.0
H387 H 0.23737 0.84966 0.10197 0.0
C388 C 0.24563 0.83184 0.68544 0.0
C389 C 0.22939 0.80048 0.64008 0.0
C390 C 0.24859 0.83268 0.77751 0.0
C391 C 0.23484 0.80215 0.82659 0.0
C392 C 0.21791 0.77072 0.7811 0.0
C393 C 0.21547 0.7699 0.68864 0.0
C394 C 0.24562 0.77956 0.06252 0.0
C395 C 0.24367 0.8051 0.11123 0.0
C396 C 0.2432 0.7788 0.97007 0.0
C397 C 0.23821 0.80324 0.92472 0.0
C398 C 0.23645 0.82884 -0.02605 0.0
C399 C 0.23946 0.82994 0.06603 0.0
H400 H 0.44332 0.22691 0.5043 0.0
H401 H 0.50215 0.33731 0.49865 0.0
H402 H 0.44768 0.22517 0.34429 0.0
H403 H 0.505 0.33578 0.33708 0.0
H404 H 0.53398 0.32098 0.05846 0.0
H405 H 0.53094 0.32224 0.21999 0.0
H406 H 0.42836 0.23545 0.21162 0.0
H407 H 0.43225 0.23317 0.05158 0.0
C408 C 0.45658 0.25089 0.46851 0.0
C409 C 0.47229 0.28227 0.51391 0.0
C410 C 0.45903 0.24991 0.3765 0.0
C411 C 0.47671 0.28033 0.32733 0.0
C412 C 0.49176 0.31181 0.37279 0.0
C413 C 0.48981 0.31275 0.46526 0.0
C414 C 0.51101 0.30194 0.09157 0.0
C415 C 0.48348 0.27683 0.04258 0.0
C416 C 0.50907 0.30287 0.18403 0.0
C417 C 0.47932 0.27904 0.22916 0.0
C418 C 0.45193 0.25382 0.17966 0.0
C419 C 0.45411 0.25254 0.08763 0.0
H420 H 0.30956 0.58032 0.053 0.0
H421 H 0.20924 0.49713 0.11989 0.0
H422 H 0.29469 0.62107 0.11514 0.0
H423 H 0.19422 0.53817 0.18147 0.0
H424 H 0.20182 0.61712 0.39144 0.0
H425 H 0.21198 0.57567 0.31386 0.0
H426 H 0.25782 0.64639 0.09626 0.0
H427 H 0.24731 0.68783 0.17326 0.0
C428 C 0.28412 0.57075 0.07974 0.0
C429 C 0.26062 0.53543 0.08179 0.0
C430 C 0.27555 0.59417 0.11504 0.0
C431 C 0.24335 0.58287 0.15378 0.0
C432 C 0.2194 0.54764 0.15307 0.0
C433 C 0.22789 0.52416 0.11709 0.0
C434 C 0.21367 0.62379 0.32663 0.0
C435 C 0.22378 0.65601 0.28901 0.0
C436 C 0.21944 0.59992 0.282 0.0
C437 C 0.23561 0.60765 0.19872 0.0
C438 C 0.24561 0.63976 0.16077 0.0
C439 C 0.2397 0.66362 0.20523 0.0
H440 H 0.62666 0.19112 0.40869 0.0
H441 H 0.69746 0.2355 0.62691 0.0
H442 H 0.58538 0.20098 0.48802 0.0
H443 H 0.65619 0.2457 0.70568 0.0
H444 H 0.59061 0.29773 0.75269 0.0
H445 H 0.63111 0.28287 0.68915 0.0
H446 H 0.54802 0.1827 0.62062 0.0
H447 H 0.50724 0.19773 0.68362 0.0
C448 C 0.63338 0.20266 0.47387 0.0
C449 C 0.66558 0.21257 0.51099 0.0
C450 C 0.60961 0.20824 0.51951 0.0
C451 C 0.61743 0.22403 0.60332 0.0
C452 C 0.64951 0.2338 0.64079 0.0
C453 C 0.67326 0.22808 0.59532 0.0
C454 C 0.58095 0.27234 0.7252 0.0
C455 C 0.54566 0.24895 0.72291 0.0
C456 C 0.60423 0.26378 0.68908 0.0
C457 C 0.5928 0.23169 0.64928 0.0
C458 C 0.55759 0.2078 0.64984 0.0
C459 C 0.53426 0.21629 0.68663 0.0
H460 H 0.40584 0.59465 0.82908 0.0
H461 H 0.47552 0.6177 0.04853 0.0
H462 H 0.44783 0.64682 0.75463 0.0
H463 H 0.51748 0.66944 -0.02649 0.0
H464 H 0.51557 0.76488 0.71799 0.0
H465 H 0.47393 0.70915 0.77671 0.0
H466 H 0.55528 0.68882 0.84166 0.0
H467 H 0.59718 0.74493 0.78357 0.0
C468 C 0.42994 0.61083 0.86184 0.0
C469 C 0.43714 0.60181 0.94513 0.0
C470 C 0.45409 0.64069 0.81886 0.0
C471 C 0.48608 0.66216 0.85788 0.0
C472 C 0.49335 0.6531 0.94082 0.0
C473 C 0.46918 0.62339 -0.01604 0.0
C474 C 0.5246 0.74837 0.74368 0.0
C475 C 0.55973 0.75943 0.74651 0.0
C476 C 0.50067 0.71634 0.777 0.0
C477 C 0.5113 0.69466 0.81445 0.0
C478 C 0.54634 0.70516 0.81426 0.0
C479 C 0.57031 0.73716 0.7803 0.0
H480 H 0.79631 0.32292 0.42662 0.0
H481 H 0.88884 0.33388 0.31144 0.0
H482 H 0.81115 0.37963 0.37326 0.0
H483 H 0.90289 0.38972 0.25346 0.0
H484 H 0.93306 0.49998 0.20779 0.0
H485 H 0.92083 0.44678 0.28015 0.0
H486 H 0.81263 0.40821 0.24408 0.0
H487 H 0.82526 0.46229 0.17593 0.0
C488 C 0.81991 0.33756 0.39 0.0
C489 C 0.84144 0.324 0.37335 0.0
C490 C 0.82829 0.36998 0.35846 0.0
C491 C 0.85809 0.38939 0.30784 0.0
C492 C 0.88001 0.37599 0.29319 0.0
C493 C 0.87193 0.34383 0.32623 0.0
C494 C 0.9067 0.48005 0.21558 0.0
C495 C 0.88009 0.48515 0.18606 0.0
C496 C 0.89961 0.44943 0.25676 0.0
C497 C 0.86568 0.42282 0.26799 0.0
C498 C 0.83906 0.42817 0.23854 0.0
C499 C 0.84621 0.45909 0.19888 0.0
H500 H 0.32964 0.782 0.39802 0.0
H501 H 0.34922 0.88395 0.45851 0.0
H502 H 0.38563 0.79665 0.45599 0.0
H503 H 0.40553 0.89869 0.51585 0.0
H504 H 0.47858 0.89283 0.72109 0.0
H505 H 0.42615 0.88188 0.64798 0.0
H506 H 0.44772 0.83271 0.43131 0.0
H507 H 0.5006 0.84408 0.50375 0.0
C508 C 0.3461 0.80772 0.42248 0.0
C509 C 0.33488 0.83177 0.42395 0.0
C510 C 0.37828 0.81615 0.45539 0.0
C511 C 0.39996 0.84875 0.49113 0.0
C512 C 0.38923 0.8732 0.48982 0.0
C513 C 0.35709 0.86484 0.45628 0.0
C514 C 0.47253 0.88008 0.65738 0.0
C515 C 0.49406 0.8694 0.61862 0.0
C516 C 0.44238 0.87383 0.61533 0.0
C517 C 0.43281 0.85657 0.53359 0.0
C518 C 0.45422 0.84582 0.49466 0.0
C519 C 0.48452 0.85223 0.53651 0.0
H520 H 0.75583 0.58714 0.0175 0.0
H521 H 0.7763 0.50585 0.08397 0.0
H522 H 0.69981 0.54487 0.96001 0.0
H523 H 0.72065 0.46385 0.02588 0.0
H524 H 0.62864 0.4645 0.75455 0.0
H525 H 0.68038 0.50674 0.82873 0.0
H526 H 0.65839 0.43745 0.04842 0.0
H527 H 0.60618 0.39516 -0.02519 0.0
C528 C 0.7482 0.56027 0.02107 0.0
C529 C 0.77058 0.54988 0.05496 0.0
C530 C 0.71624 0.53608 -0.01253 0.0
C531 C 0.7059 0.50102 -0.01227 0.0
C532 C 0.72771 0.4906 0.02524 0.0
C533 C 0.7597 0.51474 0.05819 0.0
C534 C 0.63446 0.45829 0.81912 0.0
C535 C 0.61301 0.42627 0.85845 0.0
C536 C 0.66418 0.48262 0.86178 0.0
C537 C 0.67342 0.47556 0.94472 0.0
C538 C 0.65212 0.44357 -0.01581 0.0
C539 C 0.62223 0.41925 0.94169 0.0
loop_
_geom_bond_atom_site_label_1
_geom_bond_atom_site_label_2
_geom_bond_distance
_geom_bond_site_symmetry_2
_ccdc_geom_bond_type
Co0 N5 2.057 . S
Co0 O17 2.021 . S
Co0 O20 2.062 . S
Co0 O24 2.117 1_556 S
Co0 O25 2.020 1_556 S
C1 O21 1.259 . S
C1 O24 1.258 . S
Co2 N11 2.057 . S
Co2 O18 2.117 1_554 S
Co2 O19 2.020 1_554 S
Co2 O21 2.021 . S
Co2 O26 2.062 . S
C3 N5 1.316 . S
C3 N6 1.347 . S
C3 H8 0.931 . S
C4 N5 1.375 . S
C4 C7 1.350 . S
C4 H9 0.933 . S
N5 Co0 2.057 . S
N5 C3 1.316 . S
N5 C4 1.375 . S
N6 C3 1.347 . S
N6 C7 1.373 . S
C7 C4 1.350 . S
C7 N6 1.373 . S
C7 H28 0.931 . S
H8 C3 0.931 . S
H9 C4 0.933 . S
C10 O17 1.259 . S
C10 O18 1.258 . S
N11 Co2 2.057 . S
N11 C12 1.316 . S
N11 C13 1.375 . S
C12 N11 1.316 . S
C12 N14 1.347 . S
C12 H23 0.931 . S
C13 N11 1.375 . S
C13 C15 1.350 . S
C13 H22 0.934 . S
N14 C12 1.347 . S
N14 C15 1.373 . S
C15 C13 1.350 . S
C15 N14 1.373 . S
C15 H29 0.931 . S
C16 O19 1.256 . S
C16 O20 1.255 . S
O17 Co0 2.021 . S
O17 C10 1.259 . S
O18 Co2 2.117 1_556 S
O18 C10 1.258 . S
O19 Co2 2.020 1_556 S
O19 C16 1.256 . S
O20 Co0 2.062 . S
O20 C16 1.255 . S
O21 C1 1.259 . S
O21 Co2 2.021 . S
H22 C13 0.934 . S
H23 C12 0.931 . S
O24 Co0 2.117 1_554 S
O24 C1 1.258 . S
O25 Co0 2.020 1_554 S
O25 C27 1.256 . S
O26 Co2 2.062 . S
O26 C27 1.255 . S
C27 O25 1.256 . S
C27 O26 1.255 . S
H28 C7 0.931 . S
H29 C15 0.931 . S
Co30 N35 2.057 . S
Co30 O47 2.021 . S
Co30 O50 2.062 . S
Co30 O54 2.117 . S
Co30 O55 2.020 . S
C31 O51 1.259 . S
C31 O54 1.258 . S
Co32 N41 2.057 . S
Co32 O48 2.117 . S
Co32 O49 2.020 . S
Co32 O51 2.021 . S
Co32 O56 2.062 . S
C33 N35 1.316 . S
C33 N36 1.347 . S
C33 H38 0.931 . S
C34 N35 1.375 . S
C34 C37 1.350 . S
C34 H39 0.930 . S
N35 Co30 2.057 . S
N35 C33 1.316 . S
N35 C34 1.375 . S
N36 C33 1.347 . S
N36 C37 1.373 . S
C37 C34 1.350 . S
C37 N36 1.373 . S
C37 H58 0.931 . S
H38 C33 0.931 . S
H39 C34 0.930 . S
C40 O47 1.259 . S
C40 O48 1.258 . S
N41 Co32 2.057 . S
N41 C42 1.316 . S
N41 C43 1.375 . S
C42 N41 1.316 . S
C42 N44 1.347 . S
C42 H53 0.931 . S
C43 N41 1.375 . S
C43 C45 1.350 . S
C43 H52 0.930 . S
N44 C42 1.347 . S
N44 C45 1.373 . S
C45 C43 1.350 . S
C45 N44 1.373 . S
C45 H59 0.931 . S
C46 O49 1.256 . S
C46 O50 1.255 . S
O47 Co30 2.021 . S
O47 C40 1.259 . S
O48 Co32 2.117 . S
O48 C40 1.258 . S
O49 Co32 2.020 . S
O49 C46 1.256 . S
O50 Co30 2.062 . S
O50 C46 1.255 . S
O51 C31 1.259 . S
O51 Co32 2.021 . S
H52 C43 0.930 . S
H53 C42 0.931 . S
O54 Co30 2.117 . S
O54 C31 1.258 . S
O55 Co30 2.020 . S
O55 C57 1.256 . S
O56 Co32 2.062 . S
O56 C57 1.255 . S
C57 O55 1.256 . S
C57 O56 1.255 . S
H58 C37 0.931 . S
H59 C45 0.931 . S
Co60 N65 2.057 . S
Co60 O77 2.021 . S
Co60 O80 2.062 . S
Co60 O84 2.117 . S
Co60 O85 2.020 . S
C61 O81 1.259 . S
C61 O84 1.258 . S
Co62 N71 2.057 . S
Co62 O78 2.117 . S
Co62 O79 2.020 . S
Co62 O81 2.021 . S
Co62 O86 2.062 . S
C63 N65 1.316 . S
C63 N66 1.347 . S
C63 H68 0.931 . S
C64 N65 1.375 . S
C64 C67 1.350 . S
C64 H69 0.930 . S
N65 Co60 2.057 . S
N65 C63 1.316 . S
N65 C64 1.375 . S
N66 C63 1.347 . S
N66 C67 1.373 . S
C67 C64 1.350 . S
C67 N66 1.373 . S
C67 H88 0.931 . S
H68 C63 0.931 . S
H69 C64 0.930 . S
C70 O77 1.259 . S
C70 O78 1.258 . S
N71 Co62 2.057 . S
N71 C72 1.316 . S
N71 C73 1.375 . S
C72 N71 1.316 . S
C72 N74 1.347 . S
C72 H83 0.931 . S
C73 N71 1.375 . S
C73 C75 1.350 . S
C73 H82 0.930 . S
N74 C72 1.347 . S
N74 C75 1.373 . S
C75 C73 1.350 . S
C75 N74 1.373 . S
C75 H89 0.931 . S
C76 O79 1.256 . S
C76 O80 1.255 . S
O77 Co60 2.021 . S
O77 C70 1.259 . S
O78 Co62 2.117 . S
O78 C70 1.258 . S
O79 Co62 2.020 . S
O79 C76 1.256 . S
O80 Co60 2.062 . S
O80 C76 1.255 . S
O81 C61 1.259 . S
O81 Co62 2.021 . S
H82 C73 0.930 . S
H83 C72 0.931 . S
O84 Co60 2.117 . S
O84 C61 1.258 . S
O85 Co60 2.020 . S
O85 C87 1.256 . S
O86 Co62 2.062 . S
O86 C87 1.255 . S
C87 O85 1.256 . S
C87 O86 1.255 . S
H88 C67 0.931 . S
H89 C75 0.931 . S
Co90 N95 2.057 . S
Co90 O107 2.021 . S
Co90 O110 2.062 . S
Co90 O114 2.117 . S
Co90 O115 2.020 . S
C91 O111 1.259 . S
C91 O114 1.258 . S
Co92 N101 2.057 . S
Co92 O108 2.117 . S
Co92 O109 2.020 . S
Co92 O111 2.021 . S
Co92 O116 2.062 . S
C93 N95 1.316 . S
C93 N96 1.347 . S
C93 H98 0.931 . S
C94 N95 1.375 . S
C94 C97 1.350 . S
C94 H99 0.930 . S
N95 Co90 2.057 . S
N95 C93 1.316 . S
N95 C94 1.375 . S
N96 C93 1.347 . S
N96 C97 1.373 . S
C97 C94 1.350 . S
C97 N96 1.373 . S
C97 H118 0.931 . S
H98 C93 0.931 . S
H99 C94 0.930 . S
C100 O107 1.259 . S
C100 O108 1.258 . S
N101 Co92 2.057 . S
N101 C102 1.316 . S
N101 C103 1.375 . S
C102 N101 1.316 . S
C102 N104 1.347 . S
C102 H113 0.931 . S
C103 N101 1.375 . S
C103 C105 1.350 . S
C103 H112 0.930 . S
N104 C102 1.347 . S
N104 C105 1.373 . S
C105 C103 1.350 . S
C105 N104 1.373 . S
C105 H119 0.931 . S
C106 O109 1.256 . S
C106 O110 1.255 . S
O107 Co90 2.021 . S
O107 C100 1.259 . S
O108 Co92 2.117 . S
O108 C100 1.258 . S
O109 Co92 2.020 . S
O109 C106 1.256 . S
O110 Co90 2.062 . S
O110 C106 1.255 . S
O111 C91 1.259 . S
O111 Co92 2.021 . S
H112 C103 0.930 . S
H113 C102 0.931 . S
O114 Co90 2.117 . S
O114 C91 1.258 . S
O115 Co90 2.020 . S
O115 C117 1.256 . S
O116 Co92 2.062 . S
O116 C117 1.255 . S
C117 O115 1.256 . S
C117 O116 1.255 . S
H118 C97 0.931 . S
H119 C105 0.931 . S
Co120 N125 2.057 . S
Co120 O137 2.021 . S
Co120 O140 2.062 . S
Co120 O144 2.117 . S
Co120 O145 2.020 . S
C121 O141 1.259 . S
C121 O144 1.258 . S
Co122 N131 2.057 . S
Co122 O138 2.117 . S
Co122 O139 2.020 . S
Co122 O141 2.021 . S
Co122 O146 2.062 . S
C123 N125 1.316 . S
C123 N126 1.347 . S
C123 H128 0.931 . S
C124 N125 1.375 . S
C124 C127 1.350 . S
C124 H129 0.930 . S
N125 Co120 2.057 . S
N125 C123 1.316 . S
N125 C124 1.375 . S
N126 C123 1.347 . S
N126 C127 1.373 . S
C127 C124 1.350 . S
C127 N126 1.373 . S
C127 H148 0.931 . S
H128 C123 0.931 . S
H129 C124 0.930 . S
C130 O137 1.259 . S
C130 O138 1.258 . S
N131 Co122 2.057 . S
N131 C132 1.316 . S
N131 C133 1.375 . S
C132 N131 1.316 . S
C132 N134 1.347 . S
C132 H143 0.931 . S
C133 N131 1.375 . S
C133 C135 1.350 . S
C133 H142 0.930 . S
N134 C132 1.347 . S
N134 C135 1.373 . S
C135 C133 1.350 . S
C135 N134 1.373 . S
C135 H149 0.931 . S
C136 O139 1.256 . S
C136 O140 1.255 . S
O137 Co120 2.021 . S
O137 C130 1.259 . S
O138 Co122 2.117 . S
O138 C130 1.258 . S
O139 Co122 2.020 . S
O139 C136 1.256 . S
O140 Co120 2.062 . S
O140 C136 1.255 . S
O141 C121 1.259 . S
O141 Co122 2.021 . S
H142 C133 0.930 . S
H143 C132 0.931 . S
O144 Co120 2.117 . S
O144 C121 1.258 . S
O145 Co120 2.020 . S
O145 C147 1.256 . S
O146 Co122 2.062 . S
O146 C147 1.255 . S
C147 O145 1.256 . S
C147 O146 1.255 . S
H148 C127 0.931 . S
H149 C135 0.931 . S
Co150 N155 2.057 . S
Co150 O167 2.021 . S
Co150 O170 2.062 1_556 S
Co150 O174 2.117 . S
Co150 O175 2.020 . S
C151 O171 1.259 . S
C151 O174 1.258 . S
Co152 N161 2.057 . S
Co152 O168 2.117 . S
Co152 O169 2.020 . S
Co152 O171 2.021 . S
Co152 O176 2.062 . S
C153 N155 1.316 . S
C153 N156 1.347 . S
C153 H158 0.931 . S
C154 N155 1.375 . S
C154 C157 1.350 . S
C154 H159 0.930 . S
N155 Co150 2.057 . S
N155 C153 1.316 . S
N155 C154 1.375 . S
N156 C153 1.347 . S
N156 C157 1.373 . S
C157 C154 1.350 . S
C157 N156 1.373 . S
C157 H178 0.931 . S
H158 C153 0.931 . S
H159 C154 0.930 . S
C160 O167 1.259 . S
C160 O168 1.258 . S
N161 Co152 2.057 . S
N161 C162 1.316 . S
N161 C163 1.375 . S
C162 N161 1.316 . S
C162 N164 1.347 . S
C162 H173 0.931 . S
C163 N161 1.375 . S
C163 C165 1.350 . S
C163 H172 0.930 . S
N164 C162 1.347 . S
N164 C165 1.373 . S
C165 C163 1.350 . S
C165 N164 1.373 . S
C165 H179 0.931 . S
C166 O169 1.256 1_554 S
C166 O170 1.255 . S
O167 Co150 2.021 . S
O167 C160 1.259 . S
O168 Co152 2.117 . S
O168 C160 1.258 . S
O169 Co152 2.020 . S
O169 C166 1.256 1_556 S
O170 Co150 2.062 1_554 S
O170 C166 1.255 . S
O171 C151 1.259 . S
O171 Co152 2.021 . S
H172 C163 0.930 . S
H173 C162 0.931 . S
O174 Co150 2.117 . S
O174 C151 1.258 . S
O175 Co150 2.020 . S
O175 C177 1.256 . S
O176 Co152 2.062 . S
O176 C177 1.255 . S
C177 O175 1.256 . S
C177 O176 1.255 . S
H178 C157 0.931 . S
H179 C165 0.931 . S
H180 C188 0.950 . S
H181 C193 0.950 . S
H182 C190 0.950 . S
H183 C192 0.950 . S
H184 C194 0.950 . S
H185 C196 0.950 . S
H186 C198 0.950 . S
H187 C199 0.950 1_554 S
C188 H180 0.950 . S
C188 C189 1.386 . S
C188 C190 1.391 . S
C189 C188 1.386 . S
C189 C193 1.393 . S
C190 H182 0.950 . S
C190 C188 1.391 . S
C190 C191 1.400 . S
C191 C190 1.400 . S
C191 C192 1.398 . S
C191 C197 1.491 . S
C192 H183 0.950 . S
C192 C191 1.398 . S
C192 C193 1.391 . S
C193 H181 0.950 . S
C193 C189 1.393 . S
C193 C192 1.391 . S
C194 H184 0.950 . S
C194 C195 1.386 . S
C194 C196 1.391 . S
C195 C194 1.386 . S
C195 C199 1.393 . S
C196 H185 0.950 . S
C196 C194 1.391 . S
C196 C197 1.400 . S
C197 C191 1.491 . S
C197 C196 1.400 . S
C197 C198 1.398 . S
C198 H186 0.950 . S
C198 C197 1.398 . S
C198 C199 1.391 . S
C199 H187 0.950 1_556 S
C199 C195 1.393 . S
C199 C198 1.391 . S
H200 C208 0.950 . S
H201 C213 0.950 . S
H202 C210 0.950 . S
H203 C212 0.950 . S
H204 C214 0.950 . S
H205 C216 0.950 . S
H206 C218 0.950 . S
H207 C219 0.950 . S
C208 H200 0.950 . S
C208 C209 1.386 . S
C208 C210 1.391 . S
C209 C208 1.386 . S
C209 C213 1.393 . S
C210 H202 0.950 . S
C210 C208 1.391 . S
C210 C211 1.400 . S
C211 C210 1.400 . S
C211 C212 1.398 . S
C211 C217 1.491 . S
C212 H203 0.950 . S
C212 C211 1.398 . S
C212 C213 1.391 . S
C213 H201 0.950 . S
C213 C209 1.393 . S
C213 C212 1.391 . S
C214 H204 0.950 . S
C214 C215 1.386 . S
C214 C216 1.391 . S
C215 C214 1.386 . S
C215 C219 1.393 . S
C216 H205 0.950 . S
C216 C214 1.391 . S
C216 C217 1.400 1_655 S
C217 C211 1.491 . S
C217 C216 1.400 1_455 S
C217 C218 1.398 . S
C218 H206 0.950 . S
C218 C217 1.398 . S
C218 C219 1.391 1_455 S
C219 H207 0.950 . S
C219 C215 1.393 . S
C219 C218 1.391 1_655 S
H220 C228 0.950 . S
H221 C233 0.950 . S
H222 C230 0.950 . S
H223 C232 0.950 . S
H224 C234 0.950 . S
H225 C236 0.950 1_545 S
H226 C238 0.950 . S
H227 C239 0.950 . S
C228 H220 0.950 . S
C228 C229 1.386 . S
C228 C230 1.391 . S
C229 C228 1.386 . S
C229 C233 1.393 . S
C230 H222 0.950 . S
C230 C228 1.391 . S
C230 C231 1.400 . S
C231 C230 1.400 . S
C231 C232 1.398 . S
C231 C237 1.491 . S
C232 H223 0.950 . S
C232 C231 1.398 . S
C232 C233 1.391 . S
C233 H221 0.950 . S
C233 C229 1.393 . S
C233 C232 1.391 . S
C234 H224 0.950 . S
C234 C235 1.386 . S
C234 C236 1.391 . S
C235 C234 1.386 . S
C235 C239 1.393 . S
C236 H225 0.950 1_565 S
C236 C234 1.391 . S
C236 C237 1.400 1_565 S
C237 C231 1.491 . S
C237 C236 1.400 1_545 S
C237 C238 1.398 1_545 S
C238 H226 0.950 . S
C238 C237 1.398 1_565 S
C238 C239 1.391 . S
C239 H227 0.950 . S
C239 C235 1.393 . S
C239 C238 1.391 . S
H240 C248 0.950 . S
H241 C253 0.950 . S
H242 C250 0.950 . S
H243 C252 0.950 . S
H244 C254 0.950 . S
H245 C256 0.950 . S
H246 C258 0.950 . S
H247 C259 0.950 . S
C248 H240 0.950 . S
C248 C249 1.386 . S
C248 C250 1.391 . S
C249 C248 1.386 . S
C249 C253 1.393 . S
C250 H242 0.950 . S
C250 C248 1.391 . S
C250 C251 1.400 . S
C251 C250 1.400 . S
C251 C252 1.398 . S
C251 C257 1.491 . S
C252 H243 0.950 . S
C252 C251 1.398 . S
C252 C253 1.391 . S
C253 H241 0.950 . S
C253 C249 1.393 . S
C253 C252 1.391 . S
C254 H244 0.950 . S
C254 C255 1.386 1_556 S
C254 C256 1.391 . S
C255 C254 1.386 1_554 S
C255 C259 1.393 . S
C256 H245 0.950 . S
C256 C254 1.391 . S
C256 C257 1.400 . S
C257 C251 1.491 . S
C257 C256 1.400 . S
C257 C258 1.398 1_556 S
C258 H246 0.950 . S
C258 C257 1.398 1_554 S
C258 C259 1.391 . S
C259 H247 0.950 . S
C259 C255 1.393 . S
C259 C258 1.391 . S
H260 C268 0.950 . S
H261 C273 0.950 . S
H262 C270 0.950 . S
H263 C272 0.950 . S
H264 C274 0.950 . S
H265 C276 0.950 1_455 S
H266 C278 0.950 . S
H267 C279 0.950 . S
C268 H260 0.950 . S
C268 C269 1.386 . S
C268 C270 1.391 . S
C269 C268 1.386 . S
C269 C273 1.393 . S
C270 H262 0.950 . S
C270 C268 1.391 . S
C270 C271 1.400 . S
C271 C270 1.400 . S
C271 C272 1.398 . S
C271 C277 1.491 . S
C272 H263 0.950 . S
C272 C271 1.398 . S
C272 C273 1.391 . S
C273 H261 0.950 . S
C273 C269 1.393 . S
C273 C272 1.391 . S
C274 H264 0.950 . S
C274 C275 1.386 . S
C274 C276 1.391 . S
C275 C274 1.386 . S
C275 C279 1.393 . S
C276 H265 0.950 1_655 S
C276 C274 1.391 . S
C276 C277 1.400 1_655 S
C277 C271 1.491 . S
C277 C276 1.400 1_455 S
C277 C278 1.398 1_455 S
C278 H266 0.950 . S
C278 C277 1.398 1_655 S
C278 C279 1.391 . S
C279 H267 0.950 . S
C279 C275 1.393 . S
C279 C278 1.391 . S
H280 C288 0.950 . S
H281 C293 0.950 . S
H282 C290 0.950 . S
H283 C292 0.950 . S
H284 C294 0.950 . S
H285 C296 0.950 . S
H286 C298 0.950 1_545 S
H287 C299 0.950 . S
C288 H280 0.950 . S
C288 C289 1.386 . S
C288 C290 1.391 . S
C289 C288 1.386 . S
C289 C293 1.393 . S
C290 H282 0.950 . S
C290 C288 1.391 . S
C290 C291 1.400 . S
C291 C290 1.400 . S
C291 C292 1.398 . S
C291 C297 1.491 . S
C292 H283 0.950 . S
C292 C291 1.398 . S
C292 C293 1.391 . S
C293 H281 0.950 . S
C293 C289 1.393 . S
C293 C292 1.391 . S
C294 H284 0.950 . S
C294 C295 1.386 . S
C294 C296 1.391 . S
C295 C294 1.386 . S
C295 C299 1.393 . S
C296 H285 0.950 . S
C296 C294 1.391 . S
C296 C297 1.400 1_565 S
C297 C291 1.491 . S
C297 C296 1.400 1_545 S
C297 C298 1.398 1_545 S
C298 H286 0.950 1_565 S
C298 C297 1.398 1_565 S
C298 C299 1.391 . S
C299 H287 0.950 . S
C299 C295 1.393 . S
C299 C298 1.391 . S
H300 C308 0.950 . S
H301 C313 0.950 . S
H302 C310 0.950 . S
H303 C312 0.950 . S
H304 C314 0.950 . S
H305 C316 0.950 . S
H306 C318 0.950 . S
H307 C319 0.950 . S
C308 H300 0.950 . S
C308 C309 1.386 . S
C308 C310 1.391 . S
C309 C308 1.386 . S
C309 C313 1.393 . S
C310 H302 0.950 . S
C310 C308 1.391 . S
C310 C311 1.400 . S
C311 C310 1.400 . S
C311 C312 1.398 . S
C311 C317 1.491 . S
C312 H303 0.950 . S
C312 C311 1.398 . S
C312 C313 1.391 . S
C313 H301 0.950 . S
C313 C309 1.393 . S
C313 C312 1.391 . S
C314 H304 0.950 . S
C314 C315 1.386 . S
C314 C316 1.391 . S
C315 C314 1.386 . S
C315 C319 1.393 . S
C316 H305 0.950 . S
C316 C314 1.391 . S
C316 C317 1.400 . S
C317 C311 1.491 . S
C317 C316 1.400 . S
C317 C318 1.398 . S
C318 H306 0.950 . S
C318 C317 1.398 . S
C318 C319 1.391 . S
C319 H307 0.950 . S
C319 C315 1.393 . S
C319 C318 1.391 . S
H320 C328 0.950 . S
H321 C333 0.950 . S
H322 C330 0.950 . S
H323 C332 0.950 . S
H324 C334 0.950 . S
H325 C336 0.950 . S
H326 C338 0.950 . S
H327 C339 0.950 . S
C328 H320 0.950 . S
C328 C329 1.386 . S
C328 C330 1.391 . S
C329 C328 1.386 . S
C329 C333 1.393 . S
C330 H322 0.950 . S
C330 C328 1.391 . S
C330 C331 1.400 . S
C331 C330 1.400 . S
C331 C332 1.398 . S
C331 C337 1.491 1_554 S
C332 H323 0.950 . S
C332 C331 1.398 . S
C332 C333 1.391 . S
C333 H321 0.950 . S
C333 C329 1.393 . S
C333 C332 1.391 . S
C334 H324 0.950 . S
C334 C335 1.386 . S
C334 C336 1.391 . S
C335 C334 1.386 . S
C335 C339 1.393 . S
C336 H325 0.950 . S
C336 C334 1.391 . S
C336 C337 1.400 . S
C337 C331 1.491 1_556 S
C337 C336 1.400 . S
C337 C338 1.398 . S
C338 H326 0.950 . S
C338 C337 1.398 . S
C338 C339 1.391 . S
C339 H327 0.950 . S
C339 C335 1.393 . S
C339 C338 1.391 . S
H340 C348 0.950 . S
H341 C353 0.950 . S
H342 C350 0.950 . S
H343 C352 0.950 . S
H344 C354 0.950 . S
H345 C356 0.950 . S
H346 C358 0.950 . S
H347 C359 0.950 . S
C348 H340 0.950 . S
C348 C349 1.386 . S
C348 C350 1.391 . S
C349 C348 1.386 . S
C349 C353 1.393 . S
C350 H342 0.950 . S
C350 C348 1.391 . S
C350 C351 1.400 . S
C351 C350 1.400 . S
C351 C352 1.398 . S
C351 C357 1.491 . S
C352 H343 0.950 . S
C352 C351 1.398 . S
C352 C353 1.391 . S
C353 H341 0.950 . S
C353 C349 1.393 . S
C353 C352 1.391 . S
C354 H344 0.950 . S
C354 C355 1.386 . S
C354 C356 1.391 1_556 S
C355 C354 1.386 . S
C355 C359 1.393 . S
C356 H345 0.950 . S
C356 C354 1.391 1_554 S
C356 C357 1.400 . S
C357 C351 1.491 . S
C357 C356 1.400 . S
C357 C358 1.398 . S
C358 H346 0.950 . S
C358 C357 1.398 . S
C358 C359 1.391 1_554 S
C359 H347 0.950 . S
C359 C355 1.393 . S
C359 C358 1.391 1_556 S
H360 C368 0.950 . S
H361 C373 0.950 . S
H362 C370 0.950 . S
H363 C372 0.950 . S
H364 C374 0.950 . S
H365 C376 0.950 . S
H366 C378 0.950 . S
H367 C379 0.950 . S
C368 H360 0.950 . S
C368 C369 1.386 . S
C368 C370 1.391 . S
C369 C368 1.386 . S
C369 C373 1.393 . S
C370 H362 0.950 . S
C370 C368 1.391 . S
C370 C371 1.400 . S
C371 C370 1.400 . S
C371 C372 1.398 . S
C371 C377 1.491 . S
C372 H363 0.950 . S
C372 C371 1.398 . S
C372 C373 1.391 . S
C373 H361 0.950 . S
C373 C369 1.393 . S
C373 C372 1.391 . S
C374 H364 0.950 . S
C374 C375 1.386 . S
C374 C376 1.391 . S
C375 C374 1.386 . S
C375 C379 1.393 . S
C376 H365 0.950 . S
C376 C374 1.391 . S
C376 C377 1.400 . S
C377 C371 1.491 . S
C377 C376 1.400 . S
C377 C378 1.398 . S
C378 H366 0.950 . S
C378 C377 1.398 . S
C378 C379 1.391 . S
C379 H367 0.950 . S
C379 C375 1.393 . S
C379 C378 1.391 . S
H380 C388 0.950 . S
H381 C393 0.950 . S
H382 C390 0.950 . S
H383 C392 0.950 . S
H384 C394 0.950 . S
H385 C396 0.950 . S
H386 C398 0.950 . S
H387 C399 0.950 . S
C388 H380 0.950 . S
C388 C389 1.386 . S
C388 C390 1.391 . S
C389 C388 1.386 . S
C389 C393 1.393 . S
C390 H382 0.950 . S
C390 C388 1.391 . S
C390 C391 1.400 . S
C391 C390 1.400 . S
C391 C392 1.398 . S
C391 C397 1.491 . S
C392 H383 0.950 . S
C392 C391 1.398 . S
C392 C393 1.391 . S
C393 H381 0.950 . S
C393 C389 1.393 . S
C393 C392 1.391 . S
C394 H384 0.950 . S
C394 C395 1.386 . S
C394 C396 1.391 1_554 S
C395 C394 1.386 . S
C395 C399 1.393 . S
C396 H385 0.950 . S
C396 C394 1.391 1_556 S
C396 C397 1.400 . S
C397 C391 1.491 . S
C397 C396 1.400 . S
C397 C398 1.398 . S
C398 H386 0.950 . S
C398 C397 1.398 . S
C398 C399 1.391 1_556 S
C399 H387 0.950 . S
C399 C395 1.393 . S
C399 C398 1.391 1_554 S
H400 C408 0.950 . S
H401 C413 0.950 . S
H402 C410 0.950 . S
H403 C412 0.950 . S
H404 C414 0.950 . S
H405 C416 0.950 . S
H406 C418 0.950 . S
H407 C419 0.950 . S
C408 H400 0.950 . S
C408 C409 1.386 . S
C408 C410 1.391 . S
C409 C408 1.386 . S
C409 C413 1.393 . S
C410 H402 0.950 . S
C410 C408 1.391 . S
C410 C411 1.400 . S
C411 C410 1.400 . S
C411 C412 1.398 . S
C411 C417 1.491 . S
C412 H403 0.950 . S
C412 C411 1.398 . S
C412 C413 1.391 . S
C413 H401 0.950 . S
C413 C409 1.393 . S
C413 C412 1.391 . S
C414 H404 0.950 . S
C414 C415 1.386 . S
C414 C416 1.391 . S
C415 C414 1.386 . S
C415 C419 1.393 . S
C416 H405 0.950 . S
C416 C414 1.391 . S
C416 C417 1.400 . S
C417 C411 1.491 . S
C417 C416 1.400 . S
C417 C418 1.398 . S
C418 H406 0.950 . S
C418 C417 1.398 . S
C418 C419 1.391 . S
C419 H407 0.950 . S
C419 C415 1.393 . S
C419 C418 1.391 . S
H420 C428 0.950 1_556 S
H421 C433 0.950 . S
H422 C430 0.950 . S
H423 C432 0.950 . S
H424 C434 0.950 . S
H425 C436 0.950 . S
H426 C438 0.950 . S
H427 C439 0.950 . S
C428 H420 0.950 1_554 S
C428 C429 1.386 . S
C428 C430 1.391 . S
C429 C428 1.386 . S
C429 C433 1.393 . S
C430 H422 0.950 . S
C430 C428 1.391 . S
C430 C431 1.400 . S
C431 C430 1.400 . S
C431 C432 1.398 . S
C431 C437 1.491 . S
C432 H423 0.950 . S
C432 C431 1.398 . S
C432 C433 1.391 . S
C433 H421 0.950 . S
C433 C429 1.393 . S
C433 C432 1.391 . S
C434 H424 0.950 . S
C434 C435 1.386 . S
C434 C436 1.391 . S
C435 C434 1.386 . S
C435 C439 1.393 . S
C436 H425 0.950 . S
C436 C434 1.391 . S
C436 C437 1.400 . S
C437 C431 1.491 . S
C437 C436 1.400 . S
C437 C438 1.398 . S
C438 H426 0.950 . S
C438 C437 1.398 . S
C438 C439 1.391 . S
C439 H427 0.950 . S
C439 C435 1.393 . S
C439 C438 1.391 . S
H440 C448 0.950 . S
H441 C453 0.950 . S
H442 C450 0.950 . S
H443 C452 0.950 . S
H444 C454 0.950 . S
H445 C456 0.950 . S
H446 C458 0.950 . S
H447 C459 0.950 . S
C448 H440 0.950 . S
C448 C449 1.386 . S
C448 C450 1.391 . S
C449 C448 1.386 . S
C449 C453 1.393 . S
C450 H442 0.950 . S
C450 C448 1.391 . S
C450 C451 1.400 . S
C451 C450 1.400 . S
C451 C452 1.398 . S
C451 C457 1.491 . S
C452 H443 0.950 . S
C452 C451 1.398 . S
C452 C453 1.391 . S
C453 H441 0.950 . S
C453 C449 1.393 . S
C453 C452 1.391 . S
C454 H444 0.950 . S
C454 C455 1.386 . S
C454 C456 1.391 . S
C455 C454 1.386 . S
C455 C459 1.393 . S
C456 H445 0.950 . S
C456 C454 1.391 . S
C456 C457 1.400 . S
C457 C451 1.491 . S
C457 C456 1.400 . S
C457 C458 1.398 . S
C458 H446 0.950 . S
C458 C457 1.398 . S
C458 C459 1.391 . S
C459 H447 0.950 . S
C459 C455 1.393 . S
C459 C458 1.391 . S
H460 C468 0.950 . S
H461 C473 0.950 . S
H462 C470 0.950 . S
H463 C472 0.950 . S
H464 C474 0.950 . S
H465 C476 0.950 . S
H466 C478 0.950 . S
H467 C479 0.950 . S
C468 H460 0.950 . S
C468 C469 1.386 . S
C468 C470 1.391 . S
C469 C468 1.386 . S
C469 C473 1.393 . S
C470 H462 0.950 . S
C470 C468 1.391 . S
C470 C471 1.400 . S
C471 C470 1.400 . S
C471 C472 1.398 . S
C471 C477 1.491 . S
C472 H463 0.950 . S
C472 C471 1.398 . S
C472 C473 1.391 . S
C473 H461 0.950 . S
C473 C469 1.393 . S
C473 C472 1.391 . S
C474 H464 0.950 . S
C474 C475 1.386 . S
C474 C476 1.391 . S
C475 C474 1.386 . S
C475 C479 1.393 . S
C476 H465 0.950 . S
C476 C474 1.391 . S
C476 C477 1.400 . S
C477 C471 1.491 . S
C477 C476 1.400 . S
C477 C478 1.398 . S
C478 H466 0.950 . S
C478 C477 1.398 . S
C478 C479 1.391 . S
C479 H467 0.950 . S
C479 C475 1.393 . S
C479 C478 1.391 . S
H480 C488 0.950 . S
H481 C493 0.950 . S
H482 C490 0.950 . S
H483 C492 0.950 . S
H484 C494 0.950 . S
H485 C496 0.950 . S
H486 C498 0.950 . S
H487 C499 0.950 . S
C488 H480 0.950 . S
C488 C489 1.386 . S
C488 C490 1.391 . S
C489 C488 1.386 . S
C489 C493 1.393 . S
C490 H482 0.950 . S
C490 C488 1.391 . S
C490 C491 1.400 . S
C491 C490 1.400 . S
C491 C492 1.398 . S
C491 C497 1.491 . S
C492 H483 0.950 . S
C492 C491 1.398 . S
C492 C493 1.391 . S
C493 H481 0.950 . S
C493 C489 1.393 . S
C493 C492 1.391 . S
C494 H484 0.950 . S
C494 C495 1.386 . S
C494 C496 1.391 . S
C495 C494 1.386 . S
C495 C499 1.393 . S
C496 H485 0.950 . S
C496 C494 1.391 . S
C496 C497 1.400 . S
C497 C491 1.491 . S
C497 C496 1.400 . S
C497 C498 1.398 . S
C498 H486 0.950 . S
C498 C497 1.398 . S
C498 C499 1.391 . S
C499 H487 0.950 . S
C499 C495 1.393 . S
C499 C498 1.391 . S
H500 C508 0.950 . S
H501 C513 0.950 . S
H502 C510 0.950 . S
H503 C512 0.950 . S
H504 C514 0.950 . S
H505 C516 0.950 . S
H506 C518 0.950 . S
H507 C519 0.950 . S
C508 H500 0.950 . S
C508 C509 1.386 . S
C508 C510 1.391 . S
C509 C508 1.386 . S
C509 C513 1.393 . S
C510 H502 0.950 . S
C510 C508 1.391 . S
C510 C511 1.400 . S
C511 C510 1.400 . S
C511 C512 1.398 . S
C511 C517 1.491 . S
C512 H503 0.950 . S
C512 C511 1.398 . S
C512 C513 1.391 . S
C513 H501 0.950 . S
C513 C509 1.393 . S
C513 C512 1.391 . S
C514 H504 0.950 . S
C514 C515 1.386 . S
C514 C516 1.391 . S
C515 C514 1.386 . S
C515 C519 1.393 . S
C516 H505 0.950 . S
C516 C514 1.391 . S
C516 C517 1.400 . S
C517 C511 1.491 . S
C517 C516 1.400 . S
C517 C518 1.398 . S
C518 H506 0.950 . S
C518 C517 1.398 . S
C518 C519 1.391 . S
C519 H507 0.950 . S
C519 C515 1.393 . S
C519 C518 1.391 . S
H520 C528 0.950 . S
H521 C533 0.950 . S
H522 C530 0.950 . S
H523 C532 0.950 . S
H524 C534 0.950 . S
H525 C536 0.950 . S
H526 C538 0.950 . S
H527 C539 0.950 . S
C528 H520 0.950 . S
C528 C529 1.386 . S
C528 C530 1.391 . S
C529 C528 1.386 . S
C529 C533 1.393 . S
C530 H522 0.950 . S
C530 C528 1.391 . S
C530 C531 1.400 . S
C531 C530 1.400 . S
C531 C532 1.398 . S
C531 C537 1.491 . S
C532 H523 0.950 . S
C532 C531 1.398 . S
C532 C533 1.391 . S
C533 H521 0.950 . S
C533 C529 1.393 . S
C533 C532 1.391 . S
C534 H524 0.950 . S
C534 C535 1.386 . S
C534 C536 1.391 . S
C535 C534 1.386 . S
C535 C539 1.393 1_556 S
C536 H525 0.950 . S
C536 C534 1.391 . S
C536 C537 1.400 1_556 S
C537 C531 1.491 . S
C537 C536 1.400 1_554 S
C537 C538 1.398 . S
C538 H526 0.950 . S
C538 C537 1.398 . S
C538 C539 1.391 . S
C539 H527 0.950 . S
C539 C535 1.393 1_554 S
C539 C538 1.391 . S
C189 C160 1.611 . S
C195 C10 1.619 . S
C209 N14 1.487 . S
C215 N44 1.482 . S
C229 C40 1.621 . S
C235 C70 1.605 . S
C249 N74 1.487 . S
C255 N104 1.485 . S
C269 C130 1.621 . S
C275 C100 1.607 . S
C289 N164 1.486 . S
C295 N134 1.486 . S
C309 C16 1.014 . S
C315 C27 1.014 . S
C329 C57 1.029 . S
C335 C46 1.029 . S
C349 C76 1.013 . S
C355 C87 1.013 . S
C369 C117 1.017 1_556 S
C375 C106 1.017 . S
C389 C147 1.029 . S
C395 C136 1.029 . S
C409 C177 1.025 . S
C415 C166 1.025 . S
C429 C1 1.617 . S
C435 N126 1.471 . S
C449 N36 1.497 . S
C455 C151 1.614 . S
C469 N6 1.476 . S
C475 C61 1.613 . S
C489 C31 1.620 . S
C495 N96 1.493 . S
C509 C121 1.619 . S
C515 N66 1.478 . S
C529 C91 1.613 . S
C535 N156 1.486 . S
