# Generated by pormake.
# Topology wjf, (4)-cn, num edge types: 1
# Building blocks:
#     Node 0, Type 0, BuildingBlock: KUFVIS_clean_sbu_0, # of connection points: 4
#     Node 1, Type 0, BuildingBlock: KUFVIS_clean_sbu_0, # of connection points: 4
#     Node 2, Type 0, BuildingBlock: KUFVIS_clean_sbu_0, # of connection points: 4
#     Node 3, Type 0, BuildingBlock: KUFVIS_clean_sbu_0, # of connection points: 4
#     Node 4, Type 0, BuildingBlock: KUFVIS_clean_sbu_0, # of connection points: 4
#     Node 5, Type 0, BuildingBlock: KUFVIS_clean_sbu_0, # of connection points: 4
#     Node 6, Type 0, BuildingBlock: KUFVIS_clean_sbu_0, # of connection points: 4
#     Node 7, Type 0, BuildingBlock: KUFVIS_clean_sbu_0, # of connection points: 4
#     Node 8, Type 0, BuildingBlock: KUFVIS_clean_sbu_0, # of connection points: 4
#     Node 9, Type 0, BuildingBlock: KUFVIS_clean_sbu_0, # of connection points: 4
#     Node 10, Type 0, BuildingBlock: KUFVIS_clean_sbu_0, # of connection points: 4
#     Node 11, Type 0, BuildingBlock: KUFVIS_clean_sbu_0, # of connection points: 4
#     Edge 12, Type (0, 0), BuildingBlock: EZIPEK_clean_linker_0, # of connection points: 2
#     Edge 13, Type (0, 0), BuildingBlock: EZIPEK_clean_linker_0, # of connection points: 2
#     Edge 14, Type (0, 0), BuildingBlock: EZIPEK_clean_linker_0, # of connection points: 2
#     Edge 15, Type (0, 0), BuildingBlock: EZIPEK_clean_linker_0, # of connection points: 2
#     Edge 16, Type (0, 0), BuildingBlock: EZIPEK_clean_linker_0, # of connection points: 2
#     Edge 17, Type (0, 0), BuildingBlock: EZIPEK_clean_linker_0, # of connection points: 2
#     Edge 18, Type (0, 0), BuildingBlock: EZIPEK_clean_linker_0, # of connection points: 2
#     Edge 19, Type (0, 0), BuildingBlock: EZIPEK_clean_linker_0, # of connection points: 2
#     Edge 20, Type (0, 0), BuildingBlock: EZIPEK_clean_linker_0, # of connection points: 2
#     Edge 21, Type (0, 0), BuildingBlock: EZIPEK_clean_linker_0, # of connection points: 2
#     Edge 22, Type (0, 0), BuildingBlock: EZIPEK_clean_linker_0, # of connection points: 2
#     Edge 23, Type (0, 0), BuildingBlock: EZIPEK_clean_linker_0, # of connection points: 2
#     Edge 24, Type (0, 0), BuildingBlock: EZIPEK_clean_linker_0, # of connection points: 2
#     Edge 25, Type (0, 0), BuildingBlock: EZIPEK_clean_linker_0, # of connection points: 2
#     Edge 26, Type (0, 0), BuildingBlock: EZIPEK_clean_linker_0, # of connection points: 2
#     Edge 27, Type (0, 0), BuildingBlock: EZIPEK_clean_linker_0, # of connection points: 2
#     Edge 28, Type (0, 0), BuildingBlock: EZIPEK_clean_linker_0, # of connection points: 2
#     Edge 29, Type (0, 0), BuildingBlock: EZIPEK_clean_linker_0, # of connection points: 2
#     Edge 30, Type (0, 0), BuildingBlock: EZIPEK_clean_linker_0, # of connection points: 2
#     Edge 31, Type (0, 0), BuildingBlock: EZIPEK_clean_linker_0, # of connection points: 2
#     Edge 32, Type (0, 0), BuildingBlock: EZIPEK_clean_linker_0, # of connection points: 2
#     Edge 33, Type (0, 0), BuildingBlock: EZIPEK_clean_linker_0, # of connection points: 2
#     Edge 34, Type (0, 0), BuildingBlock: EZIPEK_clean_linker_0, # of connection points: 2
#     Edge 35, Type (0, 0), BuildingBlock: EZIPEK_clean_linker_0, # of connection points: 2
# Relax obj value: 0.143
# Max RMSD: 0.208
# Mean RMSD: 0.180
data_MOF--net-wjf--node1-KUFVIS_clean_sbu_0--edge1-EZIPEK_clean_linker_0
_symmetry_space_group_name_H-M    P1
_symmetry_Int_Tables_number       1
_symmetry_cell_setting            triclinic
loop_
_symmetry_equiv_pos_as_xyz
'x, y, z'
_cell_length_a     34.725354
_cell_length_b     36.99596
_cell_length_c     20.48704
_cell_angle_alpha  90.090315
_cell_angle_beta   90.031795
_cell_angle_gamma 118.09703
loop_
_atom_site_label
_atom_site_type_symbol
_atom_site_fract_x
_atom_site_fract_y
_atom_site_fract_z
_atom_type_partial_charge
Mn0 Mn 0.34929 0.39472 0.09939 0.0
Mn1 Mn 0.35072 0.47337 0.01832 0.0
C2 C 0.41848 0.45268 0.08737 0.0
C3 C 0.3326 0.3621 0.20027 0.0
C4 C 0.34148 0.39389 0.95599 0.0
O5 O 0.28574 0.37801 0.07613 0.0
O6 O 0.29764 0.44124 0.07057 0.0
C7 C 0.34518 0.5234 0.12721 0.0
N8 N 0.36464 0.52047 0.07115 0.0
C9 C 0.40518 0.59379 0.06186 0.0
C10 C 0.386 0.59762 0.11989 0.0
C11 C 0.35617 0.56225 0.15302 0.0
C12 C 0.39429 0.55424 0.03992 0.0
H13 H 0.32129 0.49632 0.15187 0.0
C14 C 0.27241 0.40355 0.06167 0.0
O15 O 0.33057 0.34192 0.1473 0.0
O16 O 0.3421 0.40021 0.19419 0.0
N17 N 0.40015 0.5087 0.96682 0.0
C18 C 0.41248 0.49997 0.90829 0.0
C19 C 0.4391 0.53185 0.86629 0.0
C20 C 0.45283 0.57262 0.88459 0.0
C21 C 0.44004 0.5812 0.94489 0.0
C22 C 0.41276 0.54805 0.98432 0.0
H23 H 0.39981 0.46899 0.89164 0.0
O24 O 0.41358 0.41887 0.11287 0.0
O25 O 0.38173 0.45319 0.07561 0.0
O26 O 0.35334 0.37999 0.00489 0.0
O27 O 0.33637 0.42602 0.95807 0.0
C28 C 0.45095 0.62128 0.96536 0.0
C29 C 0.43402 0.6276 0.02431 0.0
H30 H 0.39367 0.62755 0.13915 0.0
H31 H 0.34104 0.56494 0.19764 0.0
H32 H 0.44746 0.52489 0.81868 0.0
H33 H 0.47131 0.59704 0.85062 0.0
H34 H 0.47206 0.64743 0.93585 0.0
H35 H 0.44276 0.65854 0.0397 0.0
Mn36 Mn 0.9332 0.31268 0.41548 0.0
Mn37 Mn 0.04151 0.36389 0.38945 0.0
C38 C 0.95916 0.32349 0.31002 0.0
C39 C 0.86861 0.25129 0.41676 0.0
C40 C 0.98726 0.40672 0.41989 0.0
O41 O 0.9565 0.31071 0.50514 0.0
O42 O 0.02786 0.3456 0.4819 0.0
C43 C 0.05981 0.29436 0.41241 0.0
N44 N 0.0619 0.32488 0.37302 0.0
C45 C 0.10308 0.31027 0.29247 0.0
C46 C 0.10145 0.27877 0.33221 0.0
C47 C 0.0795 0.27064 0.39229 0.0
C48 C 0.08218 0.33241 0.31459 0.0
H49 H 0.04339 0.28821 0.45895 0.0
C50 C -0.00345 0.32695 0.52219 0.0
O51 O 0.8703 0.2842 0.44259 0.0
O52 O 0.90549 0.25259 0.40276 0.0
N53 N 0.06053 0.38283 0.30262 0.0
C54 C 0.06228 0.41636 0.27246 0.0
C55 C 0.08555 0.43014 0.21387 0.0
C56 C 0.10583 0.40888 0.18583 0.0
C57 C 0.10421 0.37489 0.21814 0.0
C58 C 0.08178 0.36329 0.27757 0.0
H59 H 0.04744 0.43341 0.29413 0.0
O60 O 0.92009 0.3166 0.3237 0.0
O61 O 0.98318 0.32443 0.35973 0.0
O62 O 0.95137 0.37401 0.43013 0.0
O63 O 0.02273 0.40636 0.40396 0.0
C64 C 0.12571 0.35327 0.19513 0.0
C65 C 0.12494 0.3208 0.23207 0.0
H66 H 0.11702 0.26071 0.31716 0.0
H67 H 0.07812 0.24639 0.42328 0.0
H68 H 0.08912 0.45787 0.19142 0.0
H69 H 0.12372 0.41973 0.14056 0.0
H70 H 0.14329 0.36175 0.14945 0.0
H71 H 0.1416 0.30438 0.21396 0.0
Mn72 Mn 0.62228 0.96377 0.75007 0.0
Mn73 Mn 0.52866 0.9166 0.6626 0.0
C74 C 0.57211 0.98913 0.75498 0.0
C75 C 0.66095 0.96994 0.84801 0.0
C76 C 0.61685 0.97508 0.60383 0.0
O77 O 0.62107 0.91055 0.71838 0.0
O78 O 0.5532 0.87871 0.67626 0.0
C79 C 0.47546 0.85516 0.76159 0.0
N80 N 0.48101 0.88587 0.7199 0.0
C81 C 0.4097 0.87773 0.74472 0.0
C82 C 0.40313 0.84598 0.78794 0.0
C83 C 0.4363 0.83485 0.79675 0.0
C84 C 0.44986 0.89756 0.71242 0.0
H85 H 0.50075 0.84629 0.76789 0.0
C86 C 0.58989 0.8803 0.68906 0.0
O87 O 0.6808 0.98412 0.793 0.0
O88 O 0.61874 0.94905 0.84454 0.0
N89 N 0.49936 0.94787 0.64323 0.0
C90 C 0.50895 0.97561 0.59424 0.0
C91 C 0.47743 0.9867 0.57396 0.0
C92 C 0.43711 0.97081 0.60613 0.0
C93 C 0.42749 0.94168 0.65545 0.0
C94 C 0.45926 0.92991 0.67093 0.0
H95 H 0.53961 0.98768 0.56851 0.0
O96 O 0.61183 0.01042 0.77543 0.0
O97 O 0.56203 0.9521 0.73543 0.0
O98 O 0.63885 0.98571 0.65688 0.0
O99 O 0.57645 0.94852 0.6005 0.0
C100 C 0.38675 0.92213 0.68714 0.0
C101 C 0.37799 0.89042 0.73222 0.0
H102 H 0.37277 0.82994 0.81455 0.0
H103 H 0.43152 0.81043 0.83009 0.0
H104 H 0.48401 0.0071 0.53287 0.0
H105 H 0.41324 0.98002 0.59079 0.0
H106 H 0.36174 0.93087 0.67665 0.0
H107 H 0.34658 0.87566 0.75639 0.0
Mn108 Mn 0.66776 0.63663 0.10525 0.0
Mn109 Mn 0.65524 0.57242 0.98006 0.0
C110 C 0.598 0.58405 0.08029 0.0
C111 C 0.67891 0.65102 0.21648 0.0
C112 C 0.6665 0.65801 0.96227 0.0
O113 O 0.73049 0.64921 0.08709 0.0
O114 O 0.71634 0.60205 0.00841 0.0
C115 C 0.67741 0.51353 0.04641 0.0
N116 N 0.6494 0.52118 0.00976 0.0
C117 C 0.60681 0.4498 0.98257 0.0
C118 C 0.63504 0.44106 0.02049 0.0
C119 C 0.67029 0.47306 0.05307 0.0
C120 C 0.61484 0.49053 0.97967 0.0
H121 H 0.7051 0.53819 0.0696 0.0
C122 C 0.74248 0.63115 0.04509 0.0
O123 O 0.68579 0.67982 0.17462 0.0
O124 O 0.66965 0.61533 0.19303 0.0
N125 N 0.59804 0.54135 0.94597 0.0
C126 C 0.57374 0.55521 0.91296 0.0
C127 C 0.53856 0.52783 0.87504 0.0
C128 C 0.52869 0.48651 0.87201 0.0
C129 C 0.55286 0.47244 0.90889 0.0
C130 C 0.58783 0.50133 0.94527 0.0
H131 H 0.58232 0.58711 0.91394 0.0
O132 O 0.6041 0.61547 0.11509 0.0
O133 O 0.63375 0.58313 0.06255 0.0
O134 O 0.66804 0.66827 0.02221 0.0
O135 O 0.66119 0.62325 0.94305 0.0
C136 C 0.54485 0.43137 0.90901 0.0
C137 C 0.57148 0.41994 0.94661 0.0
H138 H 0.63013 0.40999 0.02462 0.0
H139 H 0.69242 0.46667 0.0821 0.0
H140 H 0.52051 0.5389 0.84579 0.0
H141 H 0.50368 0.46636 0.83922 0.0
H142 H 0.5182 0.40831 0.88079 0.0
H143 H 0.56472 0.38822 0.9471 0.0
Mn144 Mn 0.05823 0.66696 0.39517 0.0
Mn145 Mn 0.94819 0.61541 0.39319 0.0
C146 C 0.02263 0.65509 0.29683 0.0
C147 C 0.12322 0.7281 0.39546 0.0
C148 C 0.0029 0.57134 0.3988 0.0
O149 O 0.04381 0.66863 0.49074 0.0
O150 O 0.97147 0.62787 0.48297 0.0
C151 C 0.93886 0.68579 0.44524 0.0
N152 N 0.93064 0.65734 0.39747 0.0
C153 C 0.89089 0.68371 0.3347 0.0
C154 C 0.89896 0.71321 0.38313 0.0
C155 C 0.92306 0.71422 0.43871 0.0
C156 C 0.90748 0.65611 0.34396 0.0
H157 H 0.95725 0.6869 0.48821 0.0
C158 C 0.00613 0.64863 0.516 0.0
O159 O 0.1225 0.69398 0.41289 0.0
O160 O 0.08598 0.72737 0.38655 0.0
N161 N 0.91904 0.60173 0.31064 0.0
C162 C 0.90979 0.56879 0.27186 0.0
C163 C 0.88645 0.56357 0.21377 0.0
C164 C 0.87083 0.59117 0.19817 0.0
C165 C 0.87692 0.62254 0.24171 0.0
C166 C 0.90107 0.62651 0.29829 0.0
H167 H 0.91903 0.54624 0.28611 0.0
O168 O 0.06342 0.66466 0.3006 0.0
O169 O 0.00329 0.65449 0.3521 0.0
O170 O 0.03963 0.60443 0.40336 0.0
O171 O 0.96628 0.57156 0.38914 0.0
C172 C 0.86035 0.65025 0.23088 0.0
C173 C 0.86726 0.68077 0.27739 0.0
H174 H 0.88683 0.73522 0.37815 0.0
H175 H 0.92945 0.73686 0.47645 0.0
H176 H 0.88001 0.53812 0.1816 0.0
H177 H 0.85402 0.58795 0.15303 0.0
H178 H 0.84272 0.64878 0.18666 0.0
H179 H 0.85433 0.70187 0.26852 0.0
Mn180 Mn 0.38192 0.05578 0.77595 0.0
Mn181 Mn 0.46364 0.11711 0.67876 0.0
C182 C 0.44146 0.04317 0.76627 0.0
C183 C 0.34753 0.03265 0.87785 0.0
C184 C 0.38416 0.04714 0.62664 0.0
O185 O 0.3699 0.10444 0.77071 0.0
O186 O 0.4168 0.13285 0.6886 0.0
C187 C 0.49429 0.18654 0.77233 0.0
N188 N 0.50302 0.16285 0.73018 0.0
C189 C 0.5803 0.20718 0.73937 0.0
C190 C 0.57219 0.23227 0.78252 0.0
C191 C 0.52897 0.22164 0.7996 0.0
C192 C 0.54444 0.17197 0.71538 0.0
H193 H 0.46121 0.17882 0.78482 0.0
C194 C 0.38525 0.12979 0.72385 0.0
O195 O 0.32543 0.02162 0.82369 0.0
O196 O 0.38825 0.05946 0.87297 0.0
N197 N 0.51338 0.1103 0.65809 0.0
C198 C 0.5154 0.08422 0.61314 0.0
C199 C 0.55601 0.0913 0.58807 0.0
C200 C 0.59411 0.12628 0.60753 0.0
C201 C 0.59128 0.15359 0.65228 0.0
C202 C 0.54987 0.14479 0.67542 0.0
H203 H 0.48584 0.05977 0.59398 0.0
O204 O 0.40198 0.01473 0.77497 0.0
O205 O 0.44583 0.08021 0.75665 0.0
O206 O 0.36262 0.04217 0.67936 0.0
O207 O 0.42508 0.07106 0.623 0.0
C208 C 0.62791 0.18935 0.67445 0.0
C209 C 0.62248 0.21581 0.71882 0.0
H210 H 0.59885 0.25971 0.80281 0.0
H211 H 0.52238 0.24074 0.83302 0.0
H212 H 0.55784 0.07073 0.55206 0.0
H213 H 0.62526 0.13236 0.58708 0.0
H214 H 0.6604 0.19668 0.65793 0.0
H215 H 0.65088 0.24298 0.73611 0.0
Mn216 Mn 0.60924 0.67627 0.60421 0.0
Mn217 Mn 0.66515 0.62367 0.62499 0.0
C218 C 0.62473 0.66392 0.7082 0.0
C219 C 0.60933 0.73933 0.60415 0.0
C220 C 0.56761 0.58188 0.59555 0.0
O221 O 0.63423 0.67967 0.51364 0.0
O222 O 0.66734 0.64092 0.53235 0.0
C223 C 0.75246 0.69348 0.5987 0.0
N224 N 0.72479 0.66338 0.63946 0.0
C225 C 0.78082 0.68266 0.72134 0.0
C226 C 0.80983 0.71387 0.68027 0.0
C227 C 0.79552 0.71938 0.61876 0.0
C228 C 0.73802 0.65832 0.69922 0.0
H229 H 0.74183 0.69771 0.55118 0.0
C230 C 0.65592 0.6618 0.49468 0.0
O231 O 0.57622 0.7067 0.58084 0.0
O232 O 0.64405 0.73639 0.61734 0.0
N233 N 0.66736 0.60514 0.71146 0.0
C234 C 0.6384 0.56934 0.73971 0.0
C235 C 0.64838 0.55772 0.79984 0.0
C236 C 0.68874 0.58241 0.82971 0.0
C237 C 0.71951 0.61752 0.79745 0.0
C238 C 0.70769 0.62736 0.73723 0.0
H239 H 0.60932 0.54852 0.71444 0.0
O240 O 0.59244 0.67096 0.69601 0.0
O241 O 0.64725 0.66323 0.65754 0.0
O242 O 0.56457 0.61497 0.58885 0.0
O243 O 0.60318 0.58153 0.61187 0.0
C244 C 0.76226 0.64167 0.82083 0.0
C245 C 0.79284 0.67443 0.78301 0.0
H246 H 0.8432 0.73364 0.69531 0.0
H247 H 0.81772 0.74336 0.58669 0.0
H248 H 0.62574 0.52889 0.82155 0.0
H249 H 0.69661 0.57297 0.87565 0.0
H250 H 0.77213 0.63468 0.86716 0.0
H251 H 0.82571 0.69268 0.80126 0.0
Mn252 Mn 0.95144 0.59994 0.89544 0.0
Mn253 Mn 0.88051 0.53109 0.99624 0.0
C254 C 0.95996 0.54118 0.91581 0.0
C255 C 0.96338 0.6236 0.78918 0.0
C256 C 0.95789 0.6137 0.03705 0.0
O257 O 0.90737 0.62054 0.92021 0.0
O258 O 0.85594 0.55882 0.94098 0.0
C259 C 0.81198 0.47106 0.90882 0.0
N260 N 0.84127 0.4794 0.95824 0.0
C261 C 0.81057 0.40787 0.98543 0.0
C262 C 0.78046 0.39847 0.93431 0.0
C263 C 0.78138 0.43019 0.89556 0.0
C264 C 0.84094 0.44904 0.99521 0.0
H265 H 0.81175 0.49539 0.88004 0.0
C266 C 0.8694 0.59697 0.94226 0.0
O267 O 0.98502 0.64761 0.83717 0.0
O268 O 0.9321 0.5876 0.80376 0.0
N269 N 0.90028 0.50089 0.04859 0.0
C270 C 0.9326 0.51519 0.09381 0.0
C271 C 0.936 0.4879 0.1371 0.0
C272 C 0.90626 0.44595 0.13373 0.0
C273 C 0.87411 0.43156 0.08505 0.0
C274 C 0.87224 0.46048 0.04317 0.0
H275 H 0.95476 0.54722 0.09823 0.0
O276 O 0.98863 0.57232 0.88392 0.0
O277 O 0.92458 0.54361 0.92927 0.0
O278 O 0.97864 0.6219 0.98333 0.0
O279 O 0.91949 0.58337 0.04421 0.0
C280 C 0.84325 0.38998 0.07734 0.0
C281 C 0.81157 0.3781 0.02733 0.0
H282 H 0.75643 0.36705 0.92448 0.0
H283 H 0.75809 0.4232 0.85626 0.0
H284 H 0.96109 0.49985 0.17364 0.0
H285 H 0.90802 0.42537 0.16937 0.0
H286 H 0.84376 0.3669 0.10929 0.0
H287 H 0.78828 0.34602 0.02135 0.0
Mn288 Mn 0.33622 0.94613 0.23842 0.0
Mn289 Mn 0.37329 0.89878 0.34115 0.0
C290 C 0.41065 0.96725 0.24025 0.0
C291 C 0.31706 0.96153 0.13565 0.0
C292 C 0.35059 0.9628 0.38543 0.0
O293 O 0.28061 0.89264 0.25187 0.0
O294 O 0.30843 0.87088 0.33262 0.0
C295 C 0.34608 0.82353 0.26181 0.0
N296 N 0.37681 0.85466 0.29792 0.0
C297 C 0.42359 0.8231 0.29768 0.0
C298 C 0.39239 0.79064 0.26049 0.0
C299 C 0.35365 0.79108 0.24192 0.0
C300 C 0.41469 0.8551 0.31443 0.0
H301 H 0.31602 0.82342 0.24876 0.0
C302 C 0.2764 0.86817 0.29833 0.0
O303 O 0.3051 0.97191 0.18952 0.0
O304 O 0.33591 0.93872 0.14158 0.0
N305 N 0.43415 0.91936 0.35893 0.0
C306 C 0.46061 0.95253 0.39578 0.0
C307 C 0.50092 0.95706 0.41793 0.0
C308 C 0.51249 0.92614 0.40565 0.0
C309 C 0.4839 0.89123 0.37043 0.0
C310 C 0.44479 0.88909 0.34776 0.0
H311 H 0.44999 0.9742 0.41111 0.0
O312 O 0.39492 0.99231 0.23165 0.0
O313 O 0.3822 0.92976 0.25753 0.0
O314 O 0.33121 0.96316 0.33279 0.0
O315 O 0.37183 0.94296 0.3916 0.0
C316 C 0.49294 0.85871 0.35611 0.0
C317 C 0.46308 0.82494 0.31893 0.0
H318 H 0.39785 0.76527 0.24588 0.0
H319 H 0.32939 0.76617 0.21321 0.0
H320 H 0.52239 0.98365 0.44636 0.0
H321 H 0.54304 0.92921 0.4243 0.0
H322 H 0.52308 0.85969 0.37257 0.0
H323 H 0.47072 0.80047 0.30723 0.0
Mn324 Mn 0.36807 0.32592 0.60046 0.0
Mn325 Mn 0.32107 0.38674 0.58375 0.0
C326 C 0.3515 0.35119 0.69168 0.0
C327 C 0.36202 0.26126 0.6202 0.0
C328 C 0.4183 0.41977 0.57426 0.0
O329 O 0.34784 0.31488 0.50639 0.0
O330 O 0.32612 0.36325 0.49779 0.0
C331 C 0.2333 0.32235 0.54413 0.0
N332 N 0.25957 0.351 0.5881 0.0
C333 C 0.19903 0.33446 0.6603 0.0
C334 C 0.17159 0.30394 0.61666 0.0
C335 C 0.18875 0.29819 0.55788 0.0
C336 C 0.24305 0.35794 0.64343 0.0
H337 H 0.24614 0.31842 0.49859 0.0
C338 C 0.33428 0.33567 0.47315 0.0
O339 O 0.39763 0.29061 0.59585 0.0
O340 O 0.32905 0.26812 0.62625 0.0
N341 N 0.31335 0.41054 0.66236 0.0
C342 C 0.34293 0.44421 0.69541 0.0
C343 C 0.33068 0.45522 0.75449 0.0
C344 C 0.28793 0.43202 0.77806 0.0
C345 C 0.25746 0.39884 0.74125 0.0
C346 C 0.2715 0.38954 0.68268 0.0
H347 H 0.37584 0.46196 0.67745 0.0
O348 O 0.38119 0.33961 0.69236 0.0
O349 O 0.33139 0.34772 0.63599 0.0
O350 O 0.41722 0.38448 0.5755 0.0
O351 O 0.38432 0.4246 0.58078 0.0
C352 C 0.21389 0.37414 0.76073 0.0
C353 C 0.18452 0.34237 0.72004 0.0
H354 H 0.13726 0.28511 0.62743 0.0
H355 H 0.1677 0.27525 0.52323 0.0
H356 H 0.35418 0.48127 0.78204 0.0
H357 H 0.2788 0.4402 0.82405 0.0
H358 H 0.20265 0.37875 0.8072 0.0
H359 H 0.15094 0.3241 0.73534 0.0
Mn360 Mn 0.02438 0.35733 0.91004 0.0
Mn361 Mn 0.0769 0.42507 0.03138 0.0
C362 C 0.00391 0.40784 0.93459 0.0
C363 C 0.02098 0.33836 0.80094 0.0
C364 C 0.0078 0.33723 0.05381 0.0
O365 O 0.07784 0.34951 0.92603 0.0
O366 O 0.11193 0.40019 0.99901 0.0
C367 C 0.15145 0.48765 0.95704 0.0
N368 N 0.1175 0.47758 0.99878 0.0
C369 C 0.14455 0.54778 0.03118 0.0
C370 C 0.17969 0.55911 0.988 0.0
C371 C 0.18279 0.52892 0.95001 0.0
C372 C 0.11298 0.50652 0.03292 0.0
H373 H 0.15447 0.4643 0.92985 0.0
C374 C 0.10971 0.37104 0.9635 0.0
O375 O 0.00194 0.31119 0.84616 0.0
O376 O 0.04316 0.37621 0.81975 0.0
N377 N 0.04834 0.4526 0.0708 0.0
C378 C 0.01405 0.43596 0.11268 0.0
C379 C 0.00988 0.46045 0.16136 0.0
C380 C 0.03992 0.50226 0.16472 0.0
C381 C 0.07335 0.51953 0.11833 0.0
C382 C 0.07688 0.49314 0.07256 0.0
H383 H 0.99224 0.40369 0.11202 0.0
O384 O 0.97874 0.3752 0.90155 0.0
O385 O 0.04161 0.41077 0.95103 0.0
O386 O -0.00297 0.32656 0.99468 0.0
O387 O 0.03684 0.3727 0.07141 0.0
C388 C 0.10558 0.561 0.11931 0.0
C389 C 0.14045 0.57538 0.07445 0.0
H390 H 0.20474 0.59074 0.98431 0.0
H391 H 0.20992 0.53727 0.91686 0.0
H392 H 0.98475 0.44685 0.19808 0.0
H393 H 0.03781 0.52017 0.20489 0.0
H394 H 0.1045 0.58199 0.15516 0.0
H395 H 0.16483 0.60736 0.07539 0.0
Mn396 Mn 0.66937 0.05155 0.20067 0.0
Mn397 Mn 0.62929 0.10522 0.28503 0.0
C398 C 0.59487 0.02982 0.20114 0.0
C399 C 0.69437 0.03523 0.10422 0.0
C400 C 0.64641 0.04181 0.34856 0.0
O401 O 0.72567 0.1037 0.22265 0.0
O402 O 0.69397 0.13065 0.28813 0.0
C403 C 0.66436 0.17189 0.18737 0.0
N404 N 0.63039 0.14475 0.22398 0.0
C405 C 0.58296 0.16968 0.18059 0.0
C406 C 0.61769 0.19837 0.14322 0.0
C407 C 0.65853 0.19927 0.14629 0.0
C408 C 0.59068 0.14279 0.21989 0.0
H409 H 0.69549 0.1724 0.18929 0.0
C410 C 0.72767 0.12981 0.2651 0.0
O411 O 0.7023 0.0245 0.16099 0.0
O412 O 0.67687 0.05935 0.10421 0.0
N413 N 0.56778 0.08699 0.29005 0.0
C414 C 0.53857 0.05964 0.33281 0.0
C415 C 0.49672 0.05647 0.3382 0.0
C416 C 0.48526 0.08133 0.29998 0.0
C417 C 0.51625 0.11028 0.25824 0.0
C418 C 0.55779 0.11286 0.25604 0.0
H419 H 0.54763 0.04124 0.36366 0.0
O420 O 0.61066 0.00603 0.18331 0.0
O421 O 0.62361 0.06787 0.21329 0.0
O422 O 0.6655 0.03598 0.29889 0.0
O423 O 0.62716 0.06408 0.34746 0.0
C424 C 0.5078 0.13733 0.21984 0.0
C425 C 0.54101 0.16671 0.18043 0.0
H426 H 0.61332 0.21969 0.11181 0.0
H427 H 0.68545 0.22105 0.11719 0.0
H428 H 0.47349 0.03586 0.3728 0.0
H429 H 0.45291 0.07857 0.30415 0.0
H430 H 0.47584 0.13575 0.22024 0.0
H431 H 0.53408 0.18716 0.15072 0.0
C432 C 0.29308 0.32104 0.29929 0.0
C433 C 0.33261 0.34552 0.26587 0.0
C434 C 0.37421 0.35602 0.36686 0.0
C435 C 0.33455 0.33287 0.40099 0.0
N436 N 0.2593 0.28146 0.39676 0.0
N437 N 0.41085 0.37435 0.26226 0.0
C438 C 0.29478 0.31157 0.36623 0.0
C439 C 0.37325 0.3591 0.29797 0.0
N440 N 0.25412 0.30809 0.26779 0.0
N441 N 0.41258 0.3764 0.40039 0.0
H442 H 0.41083 0.3755 0.21144 0.0
H443 H 0.44124 0.38153 0.28208 0.0
H444 H 0.41511 0.37305 0.45041 0.0
H445 H 0.44147 0.39824 0.37925 0.0
H446 H 0.22408 0.29405 0.29151 0.0
H447 H 0.25215 0.31339 0.21818 0.0
H448 H 0.23003 0.26278 0.37299 0.0
H449 H 0.26113 0.27234 0.44436 0.0
C450 C 0.97699 0.29257 0.63226 0.0
C451 C 0.00721 0.32512 0.59264 0.0
C452 C 0.05334 0.35227 0.68964 0.0
C453 C 0.01751 0.32793 0.73025 0.0
N454 N 0.94103 0.27653 0.73654 0.0
N455 N 0.07346 0.39162 0.5913 0.0
C456 C 0.97815 0.29805 0.70093 0.0
C457 C 0.04567 0.3564 0.62292 0.0
N458 N 0.94794 0.25611 0.605 0.0
N459 N 0.09469 0.37159 0.71459 0.0
H460 H 0.06836 0.39968 0.5449 0.0
H461 H 0.0994 0.41579 0.61511 0.0
H462 H 0.1016 0.36735 0.76271 0.0
H463 H 0.12219 0.38726 0.68528 0.0
H464 H 0.92735 0.23083 0.63304 0.0
H465 H 0.94877 0.24948 0.55567 0.0
H466 H 0.91108 0.25738 0.7147 0.0
H467 H 0.93857 0.28066 0.78624 0.0
C468 C 0.71773 0.02216 0.92576 0.0
C469 C 0.68312 0.98203 0.91373 0.0
C470 C 0.66794 0.97273 0.03152 0.0
C471 C 0.69694 0.01519 0.04199 0.0
N472 N 0.75098 0.08013 0.00042 0.0
N473 N 0.64049 0.91458 0.95696 0.0
C474 C 0.72273 0.03967 0.98953 0.0
C475 C 0.66308 0.95589 0.96749 0.0
N476 N 0.74717 0.04262 0.87765 0.0
N477 N 0.64223 0.94916 0.08134 0.0
H478 H 0.63851 0.90181 0.91077 0.0
H479 H 0.62819 0.89293 0.99411 0.0
H480 H 0.64492 0.95941 0.12926 0.0
H481 H 0.61626 0.9199 0.07473 0.0
H482 H 0.77459 0.07093 0.88428 0.0
H483 H 0.748 0.02887 0.83374 0.0
H484 H 0.76645 0.10129 0.96339 0.0
H485 H 0.75751 0.09303 0.04709 0.0
C486 C 0.63738 0.62435 0.32032 0.0
C487 C 0.6738 0.6558 0.28759 0.0
C488 C 0.69637 0.69439 0.39064 0.0
C489 C 0.66337 0.66019 0.42387 0.0
N490 N 0.60983 0.58845 0.42137 0.0
N491 N 0.74228 0.71822 0.2943 0.0
C492 C 0.63639 0.62383 0.38913 0.0
C493 C 0.70452 0.69038 0.32336 0.0
N494 N 0.60206 0.59629 0.28613 0.0
N495 N 0.71994 0.73047 0.42321 0.0
H496 H 0.74998 0.71552 0.24599 0.0
H497 H 0.76771 0.7418 0.31973 0.0
H498 H 0.7156 0.73393 0.47279 0.0
H499 H 0.74141 0.7576 0.40007 0.0
H500 H 0.57322 0.5753 0.30861 0.0
H501 H 0.59903 0.59732 0.23575 0.0
H502 H 0.59313 0.56026 0.3977 0.0
H503 H 0.60752 0.58629 0.47198 0.0
C504 C 0.98474 0.60303 0.68507 0.0
C505 C 0.97891 0.63299 0.72088 0.0
C506 C 0.00303 0.67815 0.62528 0.0
C507 C 0.00139 0.64524 0.58752 0.0
N508 N 0.98245 0.57346 0.57985 0.0
N509 N 0.97842 0.69799 0.72341 0.0
C510 C 0.98983 0.60687 0.6169 0.0
C511 C 0.98745 0.6706 0.69086 0.0
N512 N 0.98755 0.5717 0.71616 0.0
N513 N 0.01874 0.71621 0.59828 0.0
H514 H 0.96595 0.69298 0.77072 0.0
H515 H 0.97973 0.72396 0.70167 0.0
H516 H 0.02936 0.72238 0.55001 0.0
H517 H 0.0245 0.74223 0.62508 0.0
H518 H -0.00359 0.55177 0.69247 0.0
H519 H 0.98649 0.56856 0.76651 0.0
H520 H 0.96878 0.54382 0.59863 0.0
H521 H 0.98628 0.57452 0.5295 0.0
C522 C 0.33506 0.02252 0.06157 0.0
C523 C 0.31551 0.97927 0.07055 0.0
C524 C 0.31176 0.97001 0.95123 0.0
C525 C 0.32947 0.0131 0.94245 0.0
N526 N 0.34592 0.07845 0.98936 0.0
N527 N 0.27471 0.91194 0.02389 0.0
C528 C 0.33695 0.03862 0.99779 0.0
C529 C 0.30032 0.9531 0.01524 0.0
N530 N 0.35509 0.04864 0.1125 0.0
N531 N 0.30874 0.94535 0.89963 0.0
H532 H 0.26524 0.89878 0.07003 0.0
H533 H 0.25923 0.89171 0.98552 0.0
H534 H 0.31749 0.95603 0.85214 0.0
H535 H 0.30111 0.9147 0.90493 0.0
H536 H 0.37417 0.08014 0.10655 0.0
H537 H 0.35655 0.03897 0.15966 0.0
H538 H 0.34764 0.09754 0.02794 0.0
H539 H 0.34692 0.09092 0.94332 0.0
C540 C 0.15215 0.33997 0.0117 0.0
C541 C 0.14908 0.36598 0.96433 0.0
C542 C 0.22651 0.41345 0.97316 0.0
C543 C 0.22985 0.38989 0.02673 0.0
N544 N 0.19534 0.32905 0.09455 0.0
N545 N 0.18248 0.41789 0.88427 0.0
C546 C 0.19273 0.35203 0.04419 0.0
C547 C 0.18638 0.39928 0.93967 0.0
N548 N 0.11505 0.30532 0.02824 0.0
N549 N 0.26049 0.45021 0.95521 0.0
H550 H 0.15278 0.40699 0.85944 0.0
H551 H 0.20857 0.44093 0.85933 0.0
H552 H 0.2926 0.4609 0.96875 0.0
H553 H 0.2567 0.47171 0.92703 0.0
H554 H 0.11243 0.28586 0.06647 0.0
H555 H 0.08623 0.29585 0.00162 0.0
H556 H 0.17204 0.29905 0.10407 0.0
H557 H 0.22025 0.3403 0.12912 0.0
C558 C 0.81271 0.23077 0.3272 0.0
C559 C 0.82884 0.21938 0.38339 0.0
C560 C 0.78404 0.14674 0.35323 0.0
C561 C 0.76985 0.15876 0.29608 0.0
N562 N 0.7825 0.21118 0.21823 0.0
N563 N 0.83371 0.16663 0.44597 0.0
C564 C 0.78779 0.20053 0.28006 0.0
C565 C 0.81566 0.17727 0.39507 0.0
N566 N 0.82053 0.27027 0.3185 0.0
N567 N 0.76666 0.10606 0.36785 0.0
H568 H 0.85434 0.18793 0.48012 0.0
H569 H 0.82965 0.1372 0.45314 0.0
H570 H 0.74641 0.0832 0.33551 0.0
H571 H 0.77097 0.09496 0.41241 0.0
H572 H 0.80593 0.2789 0.28153 0.0
H573 H 0.83753 0.29381 0.35152 0.0
H574 H 0.79802 0.24118 0.20097 0.0
H575 H 0.76717 0.18911 0.18196 0.0
C576 C 0.60744 0.82301 0.71305 0.0
C577 C 0.59582 0.84475 0.66707 0.0
C578 C 0.59362 0.79764 0.57952 0.0
C579 C 0.60554 0.77613 0.62539 0.0
N580 N 0.62974 0.77156 0.735 0.0
N581 N 0.57048 0.84862 0.55794 0.0
C582 C 0.61434 0.78985 0.69176 0.0
C583 C 0.58682 0.83089 0.60074 0.0
N584 N 0.60787 0.83154 0.77824 0.0
N585 N 0.59195 0.78818 0.51458 0.0
H586 H 0.5685 0.87526 0.56761 0.0
H587 H 0.55659 0.83579 0.51313 0.0
H588 H 0.59734 0.76449 0.49698 0.0
H589 H 0.58926 0.80593 0.47728 0.0
H590 H 0.6103 0.81351 0.81527 0.0
H591 H 0.60137 0.85443 0.79645 0.0
H592 H 0.64388 0.78446 0.77968 0.0
H593 H 0.63088 0.74455 0.7258 0.0
C594 C 0.81489 0.66276 0.99231 0.0
C595 C 0.78775 0.63836 0.04292 0.0
C596 C 0.81733 0.59099 0.03433 0.0
C597 C 0.84324 0.61322 0.97898 0.0
N598 N 0.86871 0.67329 0.90921 0.0
N599 N 0.77446 0.59057 0.1282 0.0
C600 C 0.84355 0.65067 0.96014 0.0
C601 C 0.79351 0.60664 0.06948 0.0
N602 N 0.81035 0.69574 0.97244 0.0
N603 N 0.81331 0.55394 0.05283 0.0
H604 H 0.75708 0.60246 0.15424 0.0
H605 H 0.77874 0.56826 0.15331 0.0
H606 H 0.83722 0.54517 0.04638 0.0
H607 H 0.78688 0.53281 0.07991 0.0
H608 H 0.82483 0.71313 0.93111 0.0
H609 H 0.7911 0.70539 0.99882 0.0
H610 H 0.87523 0.70324 0.89966 0.0
H611 H 0.88288 0.66232 0.87519 0.0
C612 C 0.18405 0.76088 0.31401 0.0
C613 C 0.16361 0.76421 0.37247 0.0
C614 C 0.2125 0.83857 0.37444 0.0
C615 C 0.23269 0.83486 0.3164 0.0
N616 N 0.23029 0.79586 0.22144 0.0
N617 N 0.1546 0.80619 0.45477 0.0
C618 C 0.21621 0.79697 0.28335 0.0
C619 C 0.17666 0.80319 0.40148 0.0
N620 N 0.17314 0.72327 0.28772 0.0
N621 N 0.228 0.87612 0.40354 0.0
H622 H 0.13039 0.78064 0.47842 0.0
H623 H 0.15905 0.83375 0.47477 0.0
H624 H 0.25149 0.90287 0.38158 0.0
H625 H 0.21862 0.88103 0.4495 0.0
H626 H 0.19067 0.7187 0.25029 0.0
H627 H 0.14863 0.69587 0.30595 0.0
H628 H 0.21656 0.77007 0.19149 0.0
H629 H 0.25292 0.82212 0.19732 0.0
C630 C 0.3518 0.15471 0.64005 0.0
C631 C 0.36648 0.15696 0.70532 0.0
C632 C 0.3656 0.22222 0.71862 0.0
C633 C 0.36069 0.22405 0.64976 0.0
N634 N 0.34866 0.1917 0.54426 0.0
N635 N 0.38778 0.19307 0.80777 0.0
C636 C 0.35338 0.19004 0.61023 0.0
C637 C 0.37289 0.1905 0.74532 0.0
N638 N 0.33543 0.11828 0.6074 0.0
N639 N 0.3624 0.25016 0.75877 0.0
H640 H 0.39119 0.16943 0.83007 0.0
H641 H 0.39886 0.21946 0.83623 0.0
H642 H 0.35545 0.27285 0.74167 0.0
H643 H 0.36172 0.24804 0.80949 0.0
H644 H 0.32095 0.11347 0.56147 0.0
H645 H 0.3324 0.09171 0.62964 0.0
H646 H 0.34797 0.16955 0.51213 0.0
H647 H 0.3482 0.21664 0.52123 0.0
C648 C 0.38054 0.3931 0.78908 0.0
C649 C 0.34293 0.3654 0.7548 0.0
C650 C 0.30115 0.35338 0.85621 0.0
C651 C 0.34076 0.37728 0.89048 0.0
N652 N 0.419 0.40673 0.89054 0.0
N653 N 0.26832 0.31154 0.75998 0.0
C654 C 0.38067 0.39265 0.85735 0.0
C655 C 0.30315 0.34317 0.78941 0.0
N656 N 0.4161 0.42096 0.75612 0.0
N657 N 0.26214 0.34025 0.8873 0.0
H658 H 0.26902 0.30342 0.71141 0.0
H659 H 0.2399 0.29214 0.78495 0.0
H660 H 0.26015 0.34565 0.93688 0.0
H661 H 0.23223 0.3259 0.86308 0.0
H662 H 0.44281 0.44433 0.77968 0.0
H663 H 0.41552 0.42371 0.70572 0.0
H664 H 0.44721 0.41062 0.86701 0.0
H665 H 0.42113 0.40896 0.94114 0.0
C666 C 0.98777 0.29524 0.2199 0.0
C667 C 0.96859 0.31994 0.24048 0.0
C668 C 0.94828 0.32222 0.12701 0.0
C669 C 0.98029 0.31183 0.10703 0.0
N670 N 0.02647 0.28205 0.13206 0.0
N671 N 0.93235 0.3596 0.20903 0.0
C672 C -0.00143 0.29591 0.15289 0.0
C673 C 0.94857 0.33363 0.19274 0.0
N674 N 0.99303 0.2695 0.26229 0.0
N675 N 0.92101 0.32508 0.08186 0.0
H676 H 0.93763 0.37385 0.25445 0.0
H677 H 0.9186 0.37082 0.17483 0.0
H678 H 0.92179 0.31712 0.03314 0.0
H679 H 0.89521 0.33074 0.09415 0.0
H680 H 0.00405 0.24899 0.24763 0.0
H681 H 0.98222 0.26559 0.31043 0.0
H682 H 0.04391 0.27311 0.16366 0.0
H683 H 0.03213 0.28046 0.08239 0.0
C684 C 0.65181 0.03739 0.53198 0.0
C685 C 0.63804 0.99524 0.54187 0.0
C686 C 0.63929 0.98442 0.42416 0.0
C687 C 0.65029 0.02615 0.41374 0.0
N688 N 0.68414 0.09491 0.45796 0.0
N689 N 0.63812 0.93443 0.50169 0.0
C690 C 0.6622 0.05351 0.46788 0.0
C691 C 0.63796 0.97054 0.48912 0.0
N692 N 0.65314 0.06173 0.58299 0.0
N693 N 0.62796 0.95749 0.37321 0.0
H694 H 0.64059 0.92572 0.54932 0.0
H695 H 0.64132 0.91616 0.46559 0.0
H696 H 0.62927 0.96605 0.32465 0.0
H697 H 0.61449 0.92593 0.3796 0.0
H698 H 0.65857 0.09168 0.57742 0.0
H699 H 0.64715 0.05155 0.63097 0.0
H700 H 0.69755 0.11623 0.49556 0.0
H701 H 0.69331 0.10785 0.41176 0.0
C702 C 0.60683 0.65507 0.8263 0.0
C703 C 0.63958 0.66935 0.7771 0.0
C704 C 0.69512 0.69922 0.86258 0.0
C705 C 0.6619 0.68274 0.91004 0.0
N706 N 0.58863 0.66612 0.9362 0.0
N707 N 0.71281 0.72233 0.75096 0.0
C708 C 0.61863 0.66902 0.89096 0.0
C709 C 0.68342 0.69687 0.79553 0.0
N710 N 0.56493 0.62669 0.81248 0.0
N711 N 0.73755 0.71627 0.88205 0.0
H712 H 0.70479 0.72383 0.70245 0.0
H713 H 0.74402 0.74482 0.76385 0.0
H714 H 0.74571 0.71992 0.93153 0.0
H715 H 0.76362 0.72571 0.84966 0.0
H716 H 0.54176 0.61318 0.84895 0.0
H717 H 0.55485 0.6131 0.76677 0.0
H718 H 0.55624 0.65761 0.92445 0.0
H719 H 0.59825 0.67676 0.98378 0.0
C720 C 0.9827 0.66737 0.20206 0.0
C721 C 0.00293 0.64551 0.23078 0.0
C722 C 0.01239 0.62461 0.12191 0.0
C723 C 0.98132 0.63501 0.09705 0.0
N724 N 0.9393 0.67067 0.11077 0.0
N725 N 0.03232 0.59831 0.21494 0.0
C726 C 0.9669 0.65771 0.13648 0.0
C727 C 0.01602 0.62237 0.18975 0.0
N728 N 0.9806 0.69828 0.23556 0.0
N729 N 0.03952 0.6182 0.08108 0.0
H730 H 0.03561 0.59487 0.26475 0.0
H731 H 0.03814 0.57859 0.18542 0.0
H732 H 0.0417 0.62566 0.03186 0.0
H733 H 0.06468 0.61282 0.09787 0.0
H734 H 0.9694 0.7173 0.21484 0.0
H735 H 0.99283 0.70654 0.28282 0.0
H736 H 0.92595 0.68585 0.13787 0.0
H737 H 0.92914 0.66517 0.06212 0.0
C738 C 0.33103 0.96191 0.50325 0.0
C739 C 0.34729 0.98448 0.44448 0.0
C740 C 0.37403 0.04887 0.50558 0.0
C741 C 0.36175 0.02614 0.56493 0.0
N742 N 0.3131 0.96195 0.61721 0.0
N743 N 0.37557 0.0488 0.38692 0.0
C744 C 0.33497 0.98301 0.56289 0.0
C745 C 0.36543 0.0278 0.44465 0.0
N746 N 0.31354 0.92015 0.50267 0.0
N747 N 0.39516 0.09077 0.50807 0.0
H748 H 0.37233 0.03492 0.3416 0.0
H749 H 0.3851 0.07987 0.38276 0.0
H750 H 0.39821 0.10703 0.55104 0.0
H751 H 0.41033 0.10975 0.46853 0.0
H752 H 0.30769 0.90256 0.54473 0.0
H753 H 0.30705 0.90298 0.4599 0.0
H754 H 0.28961 0.93123 0.61626 0.0
H755 H 0.31433 0.97546 0.66211 0.0
C756 C 0.49887 0.47747 0.06646 0.0
C757 C 0.46381 0.48674 0.0771 0.0
C758 C 0.51682 0.55911 0.07507 0.0
C759 C 0.5523 0.54993 0.07296 0.0
N760 N 0.57228 0.49765 0.10229 0.0
N761 N 0.44852 0.53654 0.13058 0.0
C762 C 0.54234 0.50827 0.07849 0.0
C763 C 0.47481 0.52772 0.09185 0.0
N764 N 0.49129 0.43938 0.0472 0.0
N765 N 0.5229 0.59771 0.06388 0.0
H766 H 0.42036 0.51368 0.152 0.0
H767 H 0.45797 0.56616 0.14759 0.0
H768 H 0.55214 0.62101 0.04625 0.0
H769 H 0.4973 0.60486 0.06612 0.0
H770 H 0.51652 0.4322 0.03917 0.0
H771 H 0.46067 0.41644 0.03319 0.0
H772 H 0.56452 0.46733 0.11228 0.0
H773 H 0.60287 0.5191 0.11932 0.0
C774 C 0.97316 0.49745 0.36358 0.0
C775 C 0.00168 0.52988 0.40495 0.0
C776 C 0.02003 0.48039 0.45999 0.0
C777 C 0.98809 0.44771 0.42193 0.0
N778 N 0.92635 0.42498 0.34827 0.0
N779 N 0.0484 0.54992 0.50065 0.0
C780 C 0.96168 0.45609 0.3781 0.0
C781 C 0.02434 0.52084 0.45528 0.0
N782 N 0.96 0.50645 0.30624 0.0
N783 N 0.04605 0.47265 0.50151 0.0
H784 H 0.05351 0.57993 0.49955 0.0
H785 H 0.06073 0.54355 0.54291 0.0
H786 H 0.04032 0.44303 0.51231 0.0
H787 H 0.07406 0.49552 0.52331 0.0
H788 H 0.9389 0.4843 0.27399 0.0
H789 H 0.97485 0.53605 0.28768 0.0
H790 H 0.90309 0.42961 0.32274 0.0
H791 H 0.91728 0.39411 0.35374 0.0
C792 C 0.50074 0.97982 0.80118 0.0
C793 C 0.53992 0.00459 0.76687 0.0
C794 C 0.52202 0.06123 0.77661 0.0
C795 C 0.47769 0.03263 0.78189 0.0
N796 N 0.43032 0.96966 0.83871 0.0
N797 N 0.59252 0.07396 0.73652 0.0
C798 C 0.46823 0.99296 0.80581 0.0
C799 C 0.55221 0.04702 0.75924 0.0
N800 N 0.49678 0.94644 0.83522 0.0
N801 N 0.53589 0.10022 0.79807 0.0
H802 H 0.61418 0.06503 0.71645 0.0
H803 H 0.60352 0.10533 0.73431 0.0
H804 H 0.5143 0.1094 0.81831 0.0
H805 H 0.5688 0.12126 0.80367 0.0
H806 H 0.47077 0.92883 0.86584 0.0
H807 H 0.52158 0.93817 0.83778 0.0
H808 H 0.41807 0.93849 0.84755 0.0
H809 H 0.41273 0.9824 0.86167 0.0
C810 C 0.50302 0.52913 0.52826 0.0
C811 C 0.52774 0.54094 0.58718 0.0
C812 C 0.49007 0.46954 0.62395 0.0
C813 C 0.46097 0.45836 0.57036 0.0
N814 N 0.43856 0.47826 0.47132 0.0
N815 N 0.53014 0.5241 0.69968 0.0
C816 C 0.46717 0.48849 0.52234 0.0
C817 C 0.51732 0.51157 0.63728 0.0
N818 N 0.51394 0.55621 0.47776 0.0
N819 N 0.49191 0.44051 0.6629 0.0
H820 H 0.54667 0.55501 0.71249 0.0
H821 H 0.51979 0.50388 0.73887 0.0
H822 H 0.47321 0.40919 0.65468 0.0
H823 H 0.51519 0.44795 0.69978 0.0
H824 H 0.50071 0.54802 0.43111 0.0
H825 H 0.53815 0.58657 0.48135 0.0
H826 H 0.43772 0.49959 0.43905 0.0
H827 H 0.41434 0.44825 0.46288 0.0
C828 C 0.01315 0.51476 0.9411 0.0
C829 C 0.96915 0.50632 0.93064 0.0
C830 C 0.9479 0.4334 0.93821 0.0
C831 C 0.99245 0.44206 0.93894 0.0
N832 N 0.06426 0.49284 0.90398 0.0
N833 N 0.90034 0.45558 0.88645 0.0
C834 C 0.02464 0.48331 0.93055 0.0
C835 C 0.93758 0.46497 0.92046 0.0
N836 N 0.0446 0.5529 0.95816 0.0
N837 N 0.91533 0.39519 0.95218 0.0
H838 H 0.89423 0.47801 0.86543 0.0
H839 H 0.87844 0.4256 0.873 0.0
H840 H 0.92141 0.37211 0.97045 0.0
H841 H 0.88256 0.38818 0.95172 0.0
H842 H 0.07667 0.55932 0.96785 0.0
H843 H 0.0376 0.57663 0.96849 0.0
H844 H 0.08706 0.52289 0.89257 0.0
H845 H 0.07196 0.47077 0.88557 0.0
C846 C 0.5259 0.03285 0.17081 0.0
C847 C 0.54655 0.01274 0.2033 0.0
C848 C 0.47434 0.95342 0.21655 0.0
C849 C 0.45528 0.97929 0.21208 0.0
N850 N 0.45909 0.03601 0.14802 0.0
N851 N 0.53839 0.94904 0.24929 0.0
C852 C 0.47985 0.01711 0.17808 0.0
C853 C 0.52016 0.9714 0.22359 0.0
N854 N 0.54946 0.0645 0.12914 0.0
N855 N 0.44995 0.91272 0.20396 0.0
H856 H 0.57025 0.96222 0.26679 0.0
H857 H 0.52069 0.91777 0.25777 0.0
H858 H 0.41731 0.90022 0.18979 0.0
H859 H 0.46368 0.89318 0.19825 0.0
H860 H 0.536 0.07862 0.09987 0.0
H861 H 0.58256 0.07506 0.12003 0.0
H862 H 0.47486 0.06626 0.13212 0.0
H863 H 0.42629 0.02029 0.13461 0.0
loop_
_geom_bond_atom_site_label_1
_geom_bond_atom_site_label_2
_geom_bond_distance
_geom_bond_site_symmetry_2
_ccdc_geom_bond_type
Mn0 O5 2.095 . S
Mn0 O15 2.162 . S
Mn0 O16 2.297 . S
Mn0 O24 2.385 . S
Mn0 O25 2.209 . S
Mn0 O26 2.094 1_554 S
Mn1 O6 2.121 1_556 S
Mn1 N8 2.257 . S
Mn1 N17 2.282 . S
Mn1 O25 2.215 1_556 S
Mn1 O27 2.117 . S
C2 O24 1.234 . S
C2 O25 1.283 . S
C3 O15 1.281 . S
C3 O16 1.236 . S
C4 O26 1.240 . S
C4 O27 1.264 . S
O5 Mn0 2.095 . S
O5 C14 1.250 . S
O6 Mn1 2.121 1_554 S
O6 C14 1.258 . S
C7 N8 1.326 . S
C7 C11 1.460 . S
C7 H13 0.929 1_556 S
N8 Mn1 2.257 . S
N8 C7 1.326 . S
N8 C12 1.362 . S
C9 C10 1.258 . S
C9 C12 1.431 . S
C9 C29 1.449 . S
C10 C9 1.258 . S
C10 C11 1.477 . S
C10 H30 0.931 . S
C11 C7 1.460 . S
C11 C10 1.477 . S
C11 H31 0.930 1_556 S
C12 N8 1.362 . S
C12 C9 1.431 . S
C12 C22 1.476 . S
H13 C7 0.929 1_554 S
C14 O5 1.250 . S
C14 O6 1.258 . S
O15 Mn0 2.162 . S
O15 C3 1.281 . S
O16 Mn0 2.297 . S
O16 C3 1.236 . S
N17 Mn1 2.282 . S
N17 C18 1.328 . S
N17 C22 1.318 . S
C18 N17 1.328 . S
C18 C19 1.457 . S
C18 H23 0.929 . S
C19 C18 1.457 . S
C19 C20 1.291 . S
C19 H32 0.931 . S
C20 C19 1.291 . S
C20 C21 1.373 . S
C20 H33 0.929 . S
C21 C20 1.373 . S
C21 C22 1.396 . S
C21 C28 1.403 . S
C22 C12 1.476 . S
C22 N17 1.318 . S
C22 C21 1.396 . S
H23 C18 0.929 . S
O24 Mn0 2.385 . S
O24 C2 1.234 . S
O25 Mn0 2.209 . S
O25 Mn1 2.215 1_554 S
O25 C2 1.283 . S
O26 Mn0 2.094 1_556 S
O26 C4 1.240 . S
O27 Mn1 2.117 . S
O27 C4 1.264 . S
C28 C21 1.403 . S
C28 C29 1.399 . S
C28 H34 0.929 . S
C29 C9 1.449 . S
C29 C28 1.399 . S
C29 H35 0.930 . S
H30 C10 0.931 . S
H31 C11 0.930 1_554 S
H32 C19 0.931 . S
H33 C20 0.929 . S
H34 C28 0.929 . S
H35 C29 0.930 . S
Mn36 O41 2.095 . S
Mn36 O51 2.162 . S
Mn36 O52 2.297 . S
Mn36 O60 2.385 . S
Mn36 O61 2.209 1_655 S
Mn36 O62 2.094 . S
Mn37 O42 2.121 . S
Mn37 N44 2.257 . S
Mn37 N53 2.282 . S
Mn37 O61 2.215 . S
Mn37 O63 2.117 . S
C38 O60 1.234 . S
C38 O61 1.283 1_655 S
C39 O51 1.281 . S
C39 O52 1.236 . S
C40 O62 1.240 . S
C40 O63 1.264 1_655 S
O41 Mn36 2.095 . S
O41 C50 1.250 . S
O42 Mn37 2.121 . S
O42 C50 1.258 1_455 S
C43 N44 1.326 . S
C43 C47 1.460 . S
C43 H49 0.929 . S
N44 Mn37 2.257 . S
N44 C43 1.326 . S
N44 C48 1.362 . S
C45 C46 1.258 . S
C45 C48 1.431 . S
C45 C65 1.449 . S
C46 C45 1.258 . S
C46 C47 1.477 . S
C46 H66 0.931 . S
C47 C43 1.460 . S
C47 C46 1.477 . S
C47 H67 0.930 . S
C48 N44 1.362 . S
C48 C45 1.431 . S
C48 C58 1.476 . S
H49 C43 0.929 . S
C50 O41 1.250 . S
C50 O42 1.258 1_655 S
O51 Mn36 2.162 . S
O51 C39 1.281 . S
O52 Mn36 2.297 . S
O52 C39 1.236 . S
N53 Mn37 2.282 . S
N53 C54 1.328 . S
N53 C58 1.318 . S
C54 N53 1.328 . S
C54 C55 1.457 . S
C54 H59 0.929 . S
C55 C54 1.457 . S
C55 C56 1.291 . S
C55 H68 0.931 . S
C56 C55 1.291 . S
C56 C57 1.373 . S
C56 H69 0.929 . S
C57 C56 1.373 . S
C57 C58 1.396 . S
C57 C64 1.403 . S
C58 C48 1.476 . S
C58 N53 1.318 . S
C58 C57 1.396 . S
H59 C54 0.929 . S
O60 Mn36 2.385 . S
O60 C38 1.234 . S
O61 Mn36 2.209 1_455 S
O61 Mn37 2.215 . S
O61 C38 1.283 1_455 S
O62 Mn36 2.094 . S
O62 C40 1.240 . S
O63 Mn37 2.117 . S
O63 C40 1.264 1_455 S
C64 C57 1.403 . S
C64 C65 1.399 . S
C64 H70 0.929 . S
C65 C45 1.449 . S
C65 C64 1.399 . S
C65 H71 0.930 . S
H66 C46 0.931 . S
H67 C47 0.930 . S
H68 C55 0.931 . S
H69 C56 0.929 . S
H70 C64 0.929 . S
H71 C65 0.930 . S
Mn72 O77 2.095 . S
Mn72 O87 2.162 1_565 S
Mn72 O88 2.297 . S
Mn72 O96 2.385 1_565 S
Mn72 O97 2.209 . S
Mn72 O98 2.094 1_565 S
Mn73 O78 2.121 . S
Mn73 N80 2.257 . S
Mn73 N89 2.282 . S
Mn73 O97 2.215 . S
Mn73 O99 2.117 . S
C74 O96 1.234 1_565 S
C74 O97 1.283 . S
C75 O87 1.281 1_565 S
C75 O88 1.236 . S
C76 O98 1.240 1_565 S
C76 O99 1.264 . S
O77 Mn72 2.095 . S
O77 C86 1.250 . S
O78 Mn73 2.121 . S
O78 C86 1.258 . S
C79 N80 1.326 . S
C79 C83 1.460 . S
C79 H85 0.929 . S
N80 Mn73 2.257 . S
N80 C79 1.326 . S
N80 C84 1.362 . S
C81 C82 1.258 . S
C81 C84 1.431 . S
C81 C101 1.449 . S
C82 C81 1.258 . S
C82 C83 1.477 . S
C82 H102 0.931 . S
C83 C79 1.460 . S
C83 C82 1.477 . S
C83 H103 0.930 . S
C84 N80 1.362 . S
C84 C81 1.431 . S
C84 C94 1.476 . S
H85 C79 0.929 . S
C86 O77 1.250 . S
C86 O78 1.258 . S
O87 Mn72 2.162 1_545 S
O87 C75 1.281 1_545 S
O88 Mn72 2.297 . S
O88 C75 1.236 . S
N89 Mn73 2.282 . S
N89 C90 1.328 . S
N89 C94 1.318 . S
C90 N89 1.328 . S
C90 C91 1.457 1_565 S
C90 H95 0.929 1_565 S
C91 C90 1.457 1_545 S
C91 C92 1.291 1_545 S
C91 H104 0.931 . S
C92 C91 1.291 1_565 S
C92 C93 1.373 . S
C92 H105 0.929 . S
C93 C92 1.373 . S
C93 C94 1.396 . S
C93 C100 1.403 . S
C94 C84 1.476 . S
C94 N89 1.318 . S
C94 C93 1.396 . S
H95 C90 0.929 1_545 S
O96 Mn72 2.385 1_545 S
O96 C74 1.234 1_545 S
O97 Mn72 2.209 . S
O97 Mn73 2.215 . S
O97 C74 1.283 . S
O98 Mn72 2.094 1_545 S
O98 C76 1.240 1_545 S
O99 Mn73 2.117 . S
O99 C76 1.264 . S
C100 C93 1.403 . S
C100 C101 1.399 . S
C100 H106 0.929 . S
C101 C81 1.449 . S
C101 C100 1.399 . S
C101 H107 0.930 . S
H102 C82 0.931 . S
H103 C83 0.930 . S
H104 C91 0.931 . S
H105 C92 0.929 . S
H106 C100 0.929 . S
H107 C101 0.930 . S
Mn108 O113 2.095 . S
Mn108 O123 2.162 . S
Mn108 O124 2.297 . S
Mn108 O132 2.385 . S
Mn108 O133 2.209 . S
Mn108 O134 2.094 1_554 S
Mn109 O114 2.121 1_556 S
Mn109 N116 2.257 . S
Mn109 N125 2.282 . S
Mn109 O133 2.215 1_556 S
Mn109 O135 2.117 . S
C110 O132 1.234 . S
C110 O133 1.283 . S
C111 O123 1.281 . S
C111 O124 1.236 . S
C112 O134 1.240 . S
C112 O135 1.264 . S
O113 Mn108 2.095 . S
O113 C122 1.250 . S
O114 Mn109 2.121 1_554 S
O114 C122 1.258 . S
C115 N116 1.326 . S
C115 C119 1.460 . S
C115 H121 0.929 1_556 S
N116 Mn109 2.257 . S
N116 C115 1.326 . S
N116 C120 1.362 . S
C117 C118 1.258 . S
C117 C120 1.431 . S
C117 C137 1.449 . S
C118 C117 1.258 . S
C118 C119 1.477 . S
C118 H138 0.931 . S
C119 C115 1.460 . S
C119 C118 1.477 . S
C119 H139 0.930 1_556 S
C120 N116 1.362 . S
C120 C117 1.431 . S
C120 C130 1.476 . S
H121 C115 0.929 1_554 S
C122 O113 1.250 . S
C122 O114 1.258 . S
O123 Mn108 2.162 . S
O123 C111 1.281 . S
O124 Mn108 2.297 . S
O124 C111 1.236 . S
N125 Mn109 2.282 . S
N125 C126 1.328 . S
N125 C130 1.318 . S
C126 N125 1.328 . S
C126 C127 1.457 . S
C126 H131 0.929 . S
C127 C126 1.457 . S
C127 C128 1.291 . S
C127 H140 0.931 . S
C128 C127 1.291 . S
C128 C129 1.373 . S
C128 H141 0.929 . S
C129 C128 1.373 . S
C129 C130 1.396 . S
C129 C136 1.403 . S
C130 C120 1.476 . S
C130 N125 1.318 . S
C130 C129 1.396 . S
H131 C126 0.929 . S
O132 Mn108 2.385 . S
O132 C110 1.234 . S
O133 Mn108 2.209 . S
O133 Mn109 2.215 1_554 S
O133 C110 1.283 . S
O134 Mn108 2.094 1_556 S
O134 C112 1.240 . S
O135 Mn109 2.117 . S
O135 C112 1.264 . S
C136 C129 1.403 . S
C136 C137 1.399 . S
C136 H142 0.929 . S
C137 C117 1.449 . S
C137 C136 1.399 . S
C137 H143 0.930 . S
H138 C118 0.931 . S
H139 C119 0.930 1_554 S
H140 C127 0.931 . S
H141 C128 0.929 . S
H142 C136 0.929 . S
H143 C137 0.930 . S
Mn144 O149 2.095 . S
Mn144 O159 2.162 . S
Mn144 O160 2.297 . S
Mn144 O168 2.385 . S
Mn144 O169 2.209 1_455 S
Mn144 O170 2.094 . S
Mn145 O150 2.121 . S
Mn145 N152 2.257 . S
Mn145 N161 2.282 . S
Mn145 O169 2.215 . S
Mn145 O171 2.117 . S
C146 O168 1.234 . S
C146 O169 1.283 1_455 S
C147 O159 1.281 . S
C147 O160 1.236 . S
C148 O170 1.240 . S
C148 O171 1.264 1_455 S
O149 Mn144 2.095 . S
O149 C158 1.250 . S
O150 Mn145 2.121 . S
O150 C158 1.258 1_655 S
C151 N152 1.326 . S
C151 C155 1.460 . S
C151 H157 0.929 . S
N152 Mn145 2.257 . S
N152 C151 1.326 . S
N152 C156 1.362 . S
C153 C154 1.258 . S
C153 C156 1.431 . S
C153 C173 1.449 . S
C154 C153 1.258 . S
C154 C155 1.477 . S
C154 H174 0.931 . S
C155 C151 1.460 . S
C155 C154 1.477 . S
C155 H175 0.930 . S
C156 N152 1.362 . S
C156 C153 1.431 . S
C156 C166 1.476 . S
H157 C151 0.929 . S
C158 O149 1.250 . S
C158 O150 1.258 1_455 S
O159 Mn144 2.162 . S
O159 C147 1.281 . S
O160 Mn144 2.297 . S
O160 C147 1.236 . S
N161 Mn145 2.282 . S
N161 C162 1.328 . S
N161 C166 1.318 . S
C162 N161 1.328 . S
C162 C163 1.457 . S
C162 H167 0.929 . S
C163 C162 1.457 . S
C163 C164 1.291 . S
C163 H176 0.931 . S
C164 C163 1.291 . S
C164 C165 1.373 . S
C164 H177 0.929 . S
C165 C164 1.373 . S
C165 C166 1.396 . S
C165 C172 1.403 . S
C166 C156 1.476 . S
C166 N161 1.318 . S
C166 C165 1.396 . S
H167 C162 0.929 . S
O168 Mn144 2.385 . S
O168 C146 1.234 . S
O169 Mn144 2.209 1_655 S
O169 Mn145 2.215 . S
O169 C146 1.283 1_655 S
O170 Mn144 2.094 . S
O170 C148 1.240 . S
O171 Mn145 2.117 . S
O171 C148 1.264 1_655 S
C172 C165 1.403 . S
C172 C173 1.399 . S
C172 H178 0.929 . S
C173 C153 1.449 . S
C173 C172 1.399 . S
C173 H179 0.930 . S
H174 C154 0.931 . S
H175 C155 0.930 . S
H176 C163 0.931 . S
H177 C164 0.929 . S
H178 C172 0.929 . S
H179 C173 0.930 . S
Mn180 O185 2.095 . S
Mn180 O195 2.162 1_545 S
Mn180 O196 2.297 . S
Mn180 O204 2.385 1_545 S
Mn180 O205 2.209 . S
Mn180 O206 2.094 1_545 S
Mn181 O186 2.121 . S
Mn181 N188 2.257 . S
Mn181 N197 2.282 . S
Mn181 O205 2.215 . S
Mn181 O207 2.117 . S
C182 O204 1.234 1_545 S
C182 O205 1.283 . S
C183 O195 1.281 1_545 S
C183 O196 1.236 . S
C184 O206 1.240 1_545 S
C184 O207 1.264 . S
O185 Mn180 2.095 . S
O185 C194 1.250 . S
O186 Mn181 2.121 . S
O186 C194 1.258 . S
C187 N188 1.326 . S
C187 C191 1.460 . S
C187 H193 0.929 . S
N188 Mn181 2.257 . S
N188 C187 1.326 . S
N188 C192 1.362 . S
C189 C190 1.258 . S
C189 C192 1.431 . S
C189 C209 1.449 . S
C190 C189 1.258 . S
C190 C191 1.477 . S
C190 H210 0.931 . S
C191 C187 1.460 . S
C191 C190 1.477 . S
C191 H211 0.930 . S
C192 N188 1.362 . S
C192 C189 1.431 . S
C192 C202 1.476 . S
H193 C187 0.929 . S
C194 O185 1.250 . S
C194 O186 1.258 . S
O195 Mn180 2.162 1_565 S
O195 C183 1.281 1_565 S
O196 Mn180 2.297 . S
O196 C183 1.236 . S
N197 Mn181 2.282 . S
N197 C198 1.328 . S
N197 C202 1.318 . S
C198 N197 1.328 . S
C198 C199 1.457 1_545 S
C198 H203 0.929 1_545 S
C199 C198 1.457 1_565 S
C199 C200 1.291 1_565 S
C199 H212 0.931 . S
C200 C199 1.291 1_545 S
C200 C201 1.373 . S
C200 H213 0.929 . S
C201 C200 1.373 . S
C201 C202 1.396 . S
C201 C208 1.403 . S
C202 C192 1.476 . S
C202 N197 1.318 . S
C202 C201 1.396 . S
H203 C198 0.929 1_565 S
O204 Mn180 2.385 1_565 S
O204 C182 1.234 1_565 S
O205 Mn180 2.209 . S
O205 Mn181 2.215 . S
O205 C182 1.283 . S
O206 Mn180 2.094 1_565 S
O206 C184 1.240 1_565 S
O207 Mn181 2.117 . S
O207 C184 1.264 . S
C208 C201 1.403 . S
C208 C209 1.399 . S
C208 H214 0.929 . S
C209 C189 1.449 . S
C209 C208 1.399 . S
C209 H215 0.930 . S
H210 C190 0.931 . S
H211 C191 0.930 . S
H212 C199 0.931 . S
H213 C200 0.929 . S
H214 C208 0.929 . S
H215 C209 0.930 . S
Mn216 O221 2.095 . S
Mn216 O231 2.162 . S
Mn216 O232 2.297 . S
Mn216 O240 2.385 . S
Mn216 O241 2.209 . S
Mn216 O242 2.094 . S
Mn217 O222 2.121 . S
Mn217 N224 2.257 . S
Mn217 N233 2.282 . S
Mn217 O241 2.215 . S
Mn217 O243 2.117 . S
C218 O240 1.234 . S
C218 O241 1.283 . S
C219 O231 1.281 . S
C219 O232 1.236 . S
C220 O242 1.240 . S
C220 O243 1.264 . S
O221 Mn216 2.095 . S
O221 C230 1.250 . S
O222 Mn217 2.121 . S
O222 C230 1.258 . S
C223 N224 1.326 . S
C223 C227 1.460 . S
C223 H229 0.929 . S
N224 Mn217 2.257 . S
N224 C223 1.326 . S
N224 C228 1.362 . S
C225 C226 1.258 . S
C225 C228 1.431 . S
C225 C245 1.449 . S
C226 C225 1.258 . S
C226 C227 1.477 . S
C226 H246 0.931 . S
C227 C223 1.460 . S
C227 C226 1.477 . S
C227 H247 0.930 . S
C228 N224 1.362 . S
C228 C225 1.431 . S
C228 C238 1.476 . S
H229 C223 0.929 . S
C230 O221 1.250 . S
C230 O222 1.258 . S
O231 Mn216 2.162 . S
O231 C219 1.281 . S
O232 Mn216 2.297 . S
O232 C219 1.236 . S
N233 Mn217 2.282 . S
N233 C234 1.328 . S
N233 C238 1.318 . S
C234 N233 1.328 . S
C234 C235 1.457 . S
C234 H239 0.929 . S
C235 C234 1.457 . S
C235 C236 1.291 . S
C235 H248 0.931 . S
C236 C235 1.291 . S
C236 C237 1.373 . S
C236 H249 0.929 . S
C237 C236 1.373 . S
C237 C238 1.396 . S
C237 C244 1.403 . S
C238 C228 1.476 . S
C238 N233 1.318 . S
C238 C237 1.396 . S
H239 C234 0.929 . S
O240 Mn216 2.385 . S
O240 C218 1.234 . S
O241 Mn216 2.209 . S
O241 Mn217 2.215 . S
O241 C218 1.283 . S
O242 Mn216 2.094 . S
O242 C220 1.240 . S
O243 Mn217 2.117 . S
O243 C220 1.264 . S
C244 C237 1.403 . S
C244 C245 1.399 . S
C244 H250 0.929 . S
C245 C225 1.449 . S
C245 C244 1.399 . S
C245 H251 0.930 . S
H246 C226 0.931 . S
H247 C227 0.930 . S
H248 C235 0.931 . S
H249 C236 0.929 . S
H250 C244 0.929 . S
H251 C245 0.930 . S
Mn252 O257 2.095 . S
Mn252 O267 2.162 1_655 S
Mn252 O268 2.297 . S
Mn252 O276 2.385 1_655 S
Mn252 O277 2.209 . S
Mn252 O278 2.094 1_656 S
Mn253 O258 2.121 1_554 S
Mn253 N260 2.257 . S
Mn253 N269 2.282 . S
Mn253 O277 2.215 1_554 S
Mn253 O279 2.117 . S
C254 O276 1.234 1_655 S
C254 O277 1.283 . S
C255 O267 1.281 1_655 S
C255 O268 1.236 . S
C256 O278 1.240 . S
C256 O279 1.264 1_455 S
O257 Mn252 2.095 . S
O257 C266 1.250 . S
O258 Mn253 2.121 1_556 S
O258 C266 1.258 . S
C259 N260 1.326 . S
C259 C263 1.460 . S
C259 H265 0.929 1_554 S
N260 Mn253 2.257 . S
N260 C259 1.326 . S
N260 C264 1.362 . S
C261 C262 1.258 . S
C261 C264 1.431 . S
C261 C281 1.449 . S
C262 C261 1.258 . S
C262 C263 1.477 . S
C262 H282 0.931 . S
C263 C259 1.460 . S
C263 C262 1.477 . S
C263 H283 0.930 1_554 S
C264 N260 1.362 . S
C264 C261 1.431 . S
C264 C274 1.476 . S
H265 C259 0.929 1_556 S
C266 O257 1.250 . S
C266 O258 1.258 . S
O267 Mn252 2.162 1_455 S
O267 C255 1.281 1_455 S
O268 Mn252 2.297 . S
O268 C255 1.236 . S
N269 Mn253 2.282 . S
N269 C270 1.328 . S
N269 C274 1.318 . S
C270 N269 1.328 . S
C270 C271 1.457 1_655 S
C270 H275 0.929 1_655 S
C271 C270 1.457 1_455 S
C271 C272 1.291 1_455 S
C271 H284 0.931 . S
C272 C271 1.291 1_655 S
C272 C273 1.373 . S
C272 H285 0.929 . S
C273 C272 1.373 . S
C273 C274 1.396 . S
C273 C280 1.403 . S
C274 C264 1.476 . S
C274 N269 1.318 . S
C274 C273 1.396 . S
H275 C270 0.929 1_455 S
O276 Mn252 2.385 1_455 S
O276 C254 1.234 1_455 S
O277 Mn252 2.209 . S
O277 Mn253 2.215 1_556 S
O277 C254 1.283 . S
O278 Mn252 2.094 1_454 S
O278 C256 1.240 . S
O279 Mn253 2.117 . S
O279 C256 1.264 1_655 S
C280 C273 1.403 . S
C280 C281 1.399 . S
C280 H286 0.929 . S
C281 C261 1.449 . S
C281 C280 1.399 . S
C281 H287 0.930 . S
H282 C262 0.931 . S
H283 C263 0.930 1_556 S
H284 C271 0.931 . S
H285 C272 0.929 . S
H286 C280 0.929 . S
H287 C281 0.930 . S
Mn288 O293 2.095 . S
Mn288 O303 2.162 1_565 S
Mn288 O304 2.297 . S
Mn288 O312 2.385 1_565 S
Mn288 O313 2.209 . S
Mn288 O314 2.094 1_565 S
Mn289 O294 2.121 . S
Mn289 N296 2.257 . S
Mn289 N305 2.282 . S
Mn289 O313 2.215 . S
Mn289 O315 2.117 . S
C290 O312 1.234 1_565 S
C290 O313 1.283 . S
C291 O303 1.281 1_565 S
C291 O304 1.236 . S
C292 O314 1.240 1_565 S
C292 O315 1.264 . S
O293 Mn288 2.095 . S
O293 C302 1.250 . S
O294 Mn289 2.121 . S
O294 C302 1.258 . S
C295 N296 1.326 . S
C295 C299 1.460 . S
C295 H301 0.929 . S
N296 Mn289 2.257 . S
N296 C295 1.326 . S
N296 C300 1.362 . S
C297 C298 1.258 . S
C297 C300 1.431 . S
C297 C317 1.449 . S
C298 C297 1.258 . S
C298 C299 1.477 . S
C298 H318 0.931 . S
C299 C295 1.460 . S
C299 C298 1.477 . S
C299 H319 0.930 . S
C300 N296 1.362 . S
C300 C297 1.431 . S
C300 C310 1.476 . S
H301 C295 0.929 . S
C302 O293 1.250 . S
C302 O294 1.258 . S
O303 Mn288 2.162 1_545 S
O303 C291 1.281 1_545 S
O304 Mn288 2.297 . S
O304 C291 1.236 . S
N305 Mn289 2.282 . S
N305 C306 1.328 . S
N305 C310 1.318 . S
C306 N305 1.328 . S
C306 C307 1.457 1_565 S
C306 H311 0.929 1_565 S
C307 C306 1.457 1_545 S
C307 C308 1.291 1_545 S
C307 H320 0.931 . S
C308 C307 1.291 1_565 S
C308 C309 1.373 . S
C308 H321 0.929 . S
C309 C308 1.373 . S
C309 C310 1.396 . S
C309 C316 1.403 . S
C310 C300 1.476 . S
C310 N305 1.318 . S
C310 C309 1.396 . S
H311 C306 0.929 1_545 S
O312 Mn288 2.385 1_545 S
O312 C290 1.234 1_545 S
O313 Mn288 2.209 . S
O313 Mn289 2.215 . S
O313 C290 1.283 . S
O314 Mn288 2.094 1_545 S
O314 C292 1.240 1_545 S
O315 Mn289 2.117 . S
O315 C292 1.264 . S
C316 C309 1.403 . S
C316 C317 1.399 . S
C316 H322 0.929 . S
C317 C297 1.449 . S
C317 C316 1.399 . S
C317 H323 0.930 . S
H318 C298 0.931 . S
H319 C299 0.930 . S
H320 C307 0.931 . S
H321 C308 0.929 . S
H322 C316 0.929 . S
H323 C317 0.930 . S
Mn324 O329 2.095 . S
Mn324 O339 2.162 . S
Mn324 O340 2.297 . S
Mn324 O348 2.385 . S
Mn324 O349 2.209 . S
Mn324 O350 2.094 . S
Mn325 O330 2.121 . S
Mn325 N332 2.257 . S
Mn325 N341 2.282 . S
Mn325 O349 2.215 . S
Mn325 O351 2.117 . S
C326 O348 1.234 . S
C326 O349 1.283 . S
C327 O339 1.281 . S
C327 O340 1.236 . S
C328 O350 1.240 . S
C328 O351 1.264 . S
O329 Mn324 2.095 . S
O329 C338 1.250 . S
O330 Mn325 2.121 . S
O330 C338 1.258 . S
C331 N332 1.326 . S
C331 C335 1.460 . S
C331 H337 0.929 . S
N332 Mn325 2.257 . S
N332 C331 1.326 . S
N332 C336 1.362 . S
C333 C334 1.258 . S
C333 C336 1.431 . S
C333 C353 1.449 . S
C334 C333 1.258 . S
C334 C335 1.477 . S
C334 H354 0.931 . S
C335 C331 1.460 . S
C335 C334 1.477 . S
C335 H355 0.930 . S
C336 N332 1.362 . S
C336 C333 1.431 . S
C336 C346 1.476 . S
H337 C331 0.929 . S
C338 O329 1.250 . S
C338 O330 1.258 . S
O339 Mn324 2.162 . S
O339 C327 1.281 . S
O340 Mn324 2.297 . S
O340 C327 1.236 . S
N341 Mn325 2.282 . S
N341 C342 1.328 . S
N341 C346 1.318 . S
C342 N341 1.328 . S
C342 C343 1.457 . S
C342 H347 0.929 . S
C343 C342 1.457 . S
C343 C344 1.291 . S
C343 H356 0.931 . S
C344 C343 1.291 . S
C344 C345 1.373 . S
C344 H357 0.929 . S
C345 C344 1.373 . S
C345 C346 1.396 . S
C345 C352 1.403 . S
C346 C336 1.476 . S
C346 N341 1.318 . S
C346 C345 1.396 . S
H347 C342 0.929 . S
O348 Mn324 2.385 . S
O348 C326 1.234 . S
O349 Mn324 2.209 . S
O349 Mn325 2.215 . S
O349 C326 1.283 . S
O350 Mn324 2.094 . S
O350 C328 1.240 . S
O351 Mn325 2.117 . S
O351 C328 1.264 . S
C352 C345 1.403 . S
C352 C353 1.399 . S
C352 H358 0.929 . S
C353 C333 1.449 . S
C353 C352 1.399 . S
C353 H359 0.930 . S
H354 C334 0.931 . S
H355 C335 0.930 . S
H356 C343 0.931 . S
H357 C344 0.929 . S
H358 C352 0.929 . S
H359 C353 0.930 . S
Mn360 O365 2.095 . S
Mn360 O375 2.162 1_455 S
Mn360 O376 2.297 . S
Mn360 O384 2.385 1_455 S
Mn360 O385 2.209 . S
Mn360 O386 2.094 1_456 S
Mn361 O366 2.121 1_554 S
Mn361 N368 2.257 . S
Mn361 N377 2.282 . S
Mn361 O385 2.215 1_554 S
Mn361 O387 2.117 . S
C362 O384 1.234 1_455 S
C362 O385 1.283 . S
C363 O375 1.281 1_455 S
C363 O376 1.236 . S
C364 O386 1.240 . S
C364 O387 1.264 1_655 S
O365 Mn360 2.095 . S
O365 C374 1.250 . S
O366 Mn361 2.121 1_556 S
O366 C374 1.258 . S
C367 N368 1.326 . S
C367 C371 1.460 . S
C367 H373 0.929 1_554 S
N368 Mn361 2.257 . S
N368 C367 1.326 . S
N368 C372 1.362 . S
C369 C370 1.258 . S
C369 C372 1.431 . S
C369 C389 1.449 . S
C370 C369 1.258 . S
C370 C371 1.477 . S
C370 H390 0.931 . S
C371 C367 1.460 . S
C371 C370 1.477 . S
C371 H391 0.930 1_554 S
C372 N368 1.362 . S
C372 C369 1.431 . S
C372 C382 1.476 . S
H373 C367 0.929 1_556 S
C374 O365 1.250 . S
C374 O366 1.258 . S
O375 Mn360 2.162 1_655 S
O375 C363 1.281 1_655 S
O376 Mn360 2.297 . S
O376 C363 1.236 . S
N377 Mn361 2.282 . S
N377 C378 1.328 . S
N377 C382 1.318 . S
C378 N377 1.328 . S
C378 C379 1.457 1_455 S
C378 H383 0.929 1_455 S
C379 C378 1.457 1_655 S
C379 C380 1.291 1_655 S
C379 H392 0.931 . S
C380 C379 1.291 1_455 S
C380 C381 1.373 . S
C380 H393 0.929 . S
C381 C380 1.373 . S
C381 C382 1.396 . S
C381 C388 1.403 . S
C382 C372 1.476 . S
C382 N377 1.318 . S
C382 C381 1.396 . S
H383 C378 0.929 1_655 S
O384 Mn360 2.385 1_655 S
O384 C362 1.234 1_655 S
O385 Mn360 2.209 . S
O385 Mn361 2.215 1_556 S
O385 C362 1.283 . S
O386 Mn360 2.094 1_654 S
O386 C364 1.240 . S
O387 Mn361 2.117 . S
O387 C364 1.264 1_455 S
C388 C381 1.403 . S
C388 C389 1.399 . S
C388 H394 0.929 . S
C389 C369 1.449 . S
C389 C388 1.399 . S
C389 H395 0.930 . S
H390 C370 0.931 . S
H391 C371 0.930 1_556 S
H392 C379 0.931 . S
H393 C380 0.929 . S
H394 C388 0.929 . S
H395 C389 0.930 . S
Mn396 O401 2.095 . S
Mn396 O411 2.162 1_545 S
Mn396 O412 2.297 . S
Mn396 O420 2.385 1_545 S
Mn396 O421 2.209 . S
Mn396 O422 2.094 1_545 S
Mn397 O402 2.121 . S
Mn397 N404 2.257 . S
Mn397 N413 2.282 . S
Mn397 O421 2.215 . S
Mn397 O423 2.117 . S
C398 O420 1.234 1_545 S
C398 O421 1.283 . S
C399 O411 1.281 1_545 S
C399 O412 1.236 . S
C400 O422 1.240 1_545 S
C400 O423 1.264 . S
O401 Mn396 2.095 . S
O401 C410 1.250 . S
O402 Mn397 2.121 . S
O402 C410 1.258 . S
C403 N404 1.326 . S
C403 C407 1.460 . S
C403 H409 0.929 . S
N404 Mn397 2.257 . S
N404 C403 1.326 . S
N404 C408 1.362 . S
C405 C406 1.258 . S
C405 C408 1.431 . S
C405 C425 1.449 . S
C406 C405 1.258 . S
C406 C407 1.477 . S
C406 H426 0.931 . S
C407 C403 1.460 . S
C407 C406 1.477 . S
C407 H427 0.930 . S
C408 N404 1.362 . S
C408 C405 1.431 . S
C408 C418 1.476 . S
H409 C403 0.929 . S
C410 O401 1.250 . S
C410 O402 1.258 . S
O411 Mn396 2.162 1_565 S
O411 C399 1.281 1_565 S
O412 Mn396 2.297 . S
O412 C399 1.236 . S
N413 Mn397 2.282 . S
N413 C414 1.328 . S
N413 C418 1.318 . S
C414 N413 1.328 . S
C414 C415 1.457 1_545 S
C414 H419 0.929 1_545 S
C415 C414 1.457 1_565 S
C415 C416 1.291 1_565 S
C415 H428 0.931 . S
C416 C415 1.291 1_545 S
C416 C417 1.373 . S
C416 H429 0.929 . S
C417 C416 1.373 . S
C417 C418 1.396 . S
C417 C424 1.403 . S
C418 C408 1.476 . S
C418 N413 1.318 . S
C418 C417 1.396 . S
H419 C414 0.929 1_565 S
O420 Mn396 2.385 1_565 S
O420 C398 1.234 1_565 S
O421 Mn396 2.209 . S
O421 Mn397 2.215 . S
O421 C398 1.283 . S
O422 Mn396 2.094 1_565 S
O422 C400 1.240 1_565 S
O423 Mn397 2.117 . S
O423 C400 1.264 . S
C424 C417 1.403 . S
C424 C425 1.399 . S
C424 H430 0.929 . S
C425 C405 1.449 . S
C425 C424 1.399 . S
C425 H431 0.930 . S
H426 C406 0.931 . S
H427 C407 0.930 . S
H428 C415 0.931 . S
H429 C416 0.929 . S
H430 C424 0.929 . S
H431 C425 0.930 . S
C432 C433 1.363 . S
C432 C438 1.379 . S
C432 N440 1.356 . S
C433 C432 1.363 . S
C433 C439 1.363 . S
C434 C435 1.363 . S
C434 C439 1.379 . S
C434 N441 1.356 . S
C435 C434 1.363 . S
C435 C438 1.363 . S
N436 C438 1.356 . S
N436 H448 0.984 . S
N436 H449 0.985 . S
N437 C439 1.356 . S
N437 H442 0.984 . S
N437 H443 0.985 . S
C438 C432 1.379 . S
C438 C435 1.363 . S
C438 N436 1.356 . S
C439 C433 1.363 . S
C439 C434 1.379 . S
C439 N437 1.356 . S
N440 C432 1.356 . S
N440 H446 0.984 . S
N440 H447 0.984 . S
N441 C434 1.356 . S
N441 H444 0.984 . S
N441 H445 0.985 . S
H442 N437 0.984 . S
H443 N437 0.985 . S
H444 N441 0.984 . S
H445 N441 0.985 . S
H446 N440 0.984 . S
H447 N440 0.984 . S
H448 N436 0.984 . S
H449 N436 0.985 . S
C450 C451 1.363 . S
C450 C456 1.379 . S
C450 N458 1.356 . S
C451 C450 1.363 . S
C451 C457 1.363 1_655 S
C452 C453 1.363 1_455 S
C452 C457 1.379 . S
C452 N459 1.356 . S
C453 C452 1.363 1_655 S
C453 C456 1.363 . S
N454 C456 1.356 . S
N454 H466 0.984 . S
N454 H467 0.985 . S
N455 C457 1.356 . S
N455 H460 0.984 . S
N455 H461 0.985 . S
C456 C450 1.379 . S
C456 C453 1.363 . S
C456 N454 1.356 . S
C457 C451 1.363 1_455 S
C457 C452 1.379 . S
C457 N455 1.356 . S
N458 C450 1.356 . S
N458 H464 0.984 . S
N458 H465 0.984 . S
N459 C452 1.356 . S
N459 H462 0.984 . S
N459 H463 0.985 . S
H460 N455 0.984 . S
H461 N455 0.985 . S
H462 N459 0.984 . S
H463 N459 0.985 . S
H464 N458 0.984 . S
H465 N458 0.984 . S
H466 N454 0.984 . S
H467 N454 0.985 . S
C468 C469 1.363 1_545 S
C468 C474 1.379 1_556 S
C468 N476 1.356 . S
C469 C468 1.363 1_565 S
C469 C475 1.363 . S
C470 C471 1.363 1_565 S
C470 C475 1.379 1_554 S
C470 N477 1.356 . S
C471 C470 1.363 1_545 S
C471 C474 1.363 . S
N472 C474 1.356 . S
N472 H484 0.984 . S
N472 H485 0.985 . S
N473 C475 1.356 . S
N473 H478 0.984 . S
N473 H479 0.985 . S
C474 C468 1.379 1_554 S
C474 C471 1.363 . S
C474 N472 1.356 . S
C475 C469 1.363 . S
C475 C470 1.379 1_556 S
C475 N473 1.356 . S
N476 C468 1.356 . S
N476 H482 0.984 . S
N476 H483 0.984 . S
N477 C470 1.356 . S
N477 H480 0.984 . S
N477 H481 0.985 . S
H478 N473 0.984 . S
H479 N473 0.985 . S
H480 N477 0.984 . S
H481 N477 0.985 . S
H482 N476 0.984 . S
H483 N476 0.984 . S
H484 N472 0.984 . S
H485 N472 0.985 . S
C486 C487 1.363 . S
C486 C492 1.379 . S
C486 N494 1.356 . S
C487 C486 1.363 . S
C487 C493 1.363 . S
C488 C489 1.363 . S
C488 C493 1.379 . S
C488 N495 1.356 . S
C489 C488 1.363 . S
C489 C492 1.363 . S
N490 C492 1.356 . S
N490 H502 0.984 . S
N490 H503 0.985 . S
N491 C493 1.356 . S
N491 H496 0.984 . S
N491 H497 0.985 . S
C492 C486 1.379 . S
C492 C489 1.363 . S
C492 N490 1.356 . S
C493 C487 1.363 . S
C493 C488 1.379 . S
C493 N491 1.356 . S
N494 C486 1.356 . S
N494 H500 0.984 . S
N494 H501 0.984 . S
N495 C488 1.356 . S
N495 H498 0.984 . S
N495 H499 0.985 . S
H496 N491 0.984 . S
H497 N491 0.985 . S
H498 N495 0.984 . S
H499 N495 0.985 . S
H500 N494 0.984 . S
H501 N494 0.984 . S
H502 N490 0.984 . S
H503 N490 0.985 . S
C504 C505 1.363 . S
C504 C510 1.379 . S
C504 N512 1.356 . S
C505 C504 1.363 . S
C505 C511 1.369 . S
C506 C507 1.377 . S
C506 C511 1.379 . S
C506 N513 1.346 1_455 S
C507 C506 1.377 . S
C507 C510 1.363 . S
N508 C510 1.356 . S
N508 H520 0.984 . S
N508 H521 0.985 . S
N509 C511 1.352 1_655 S
N509 H514 0.984 . S
N509 H515 0.985 . S
C510 C504 1.379 . S
C510 C507 1.363 . S
C510 N508 1.356 . S
C511 C505 1.369 . S
C511 C506 1.379 . S
C511 N509 1.352 1_455 S
N512 C504 1.356 . S
N512 H518 0.984 . S
N512 H519 0.984 . S
N513 C506 1.346 1_655 S
N513 H516 0.985 . S
N513 H517 0.985 . S
H514 N509 0.984 . S
H515 N509 0.985 . S
H516 N513 0.985 . S
H517 N513 0.985 . S
H518 N512 0.984 . S
H519 N512 0.984 . S
H520 N508 0.984 . S
H521 N508 0.985 . S
C522 C523 1.363 1_545 S
C522 C528 1.379 1_554 S
C522 N530 1.356 . S
C523 C522 1.363 1_565 S
C523 C529 1.363 . S
C524 C525 1.363 1_565 S
C524 C529 1.379 1_556 S
C524 N531 1.356 . S
C525 C524 1.363 1_545 S
C525 C528 1.363 . S
N526 C528 1.356 . S
N526 H538 0.984 . S
N526 H539 0.985 . S
N527 C529 1.356 . S
N527 H532 0.984 . S
N527 H533 0.985 . S
C528 C522 1.379 1_556 S
C528 C525 1.363 . S
C528 N526 1.356 . S
C529 C523 1.363 . S
C529 C524 1.379 1_554 S
C529 N527 1.356 . S
N530 C522 1.356 . S
N530 H536 0.984 . S
N530 H537 0.984 . S
N531 C524 1.356 . S
N531 H534 0.984 . S
N531 H535 0.985 . S
H532 N527 0.984 . S
H533 N527 0.985 . S
H534 N531 0.984 . S
H535 N531 0.985 . S
H536 N530 0.984 . S
H537 N530 0.984 . S
H538 N526 0.984 . S
H539 N526 0.985 . S
C540 C541 1.363 1_554 S
C540 C546 1.379 . S
C540 N548 1.356 . S
C541 C540 1.363 1_556 S
C541 C547 1.363 . S
C542 C543 1.363 1_556 S
C542 C547 1.379 . S
C542 N549 1.356 . S
C543 C542 1.363 1_554 S
C543 C546 1.363 . S
N544 C546 1.356 . S
N544 H556 0.984 . S
N544 H557 0.985 . S
N545 C547 1.356 . S
N545 H550 0.984 . S
N545 H551 0.985 . S
C546 C540 1.379 . S
C546 C543 1.363 . S
C546 N544 1.356 . S
C547 C541 1.363 . S
C547 C542 1.379 . S
C547 N545 1.356 . S
N548 C540 1.356 . S
N548 H554 0.984 . S
N548 H555 0.984 1_554 S
N549 C542 1.356 . S
N549 H552 0.984 1_556 S
N549 H553 0.985 . S
H550 N545 0.984 . S
H551 N545 0.985 . S
H552 N549 0.984 1_554 S
H553 N549 0.985 . S
H554 N548 0.984 . S
H555 N548 0.984 1_556 S
H556 N544 0.984 . S
H557 N544 0.985 . S
C558 C559 1.363 . S
C558 C564 1.379 . S
C558 N566 1.356 . S
C559 C558 1.363 . S
C559 C565 1.363 . S
C560 C561 1.363 . S
C560 C565 1.379 . S
C560 N567 1.356 . S
C561 C560 1.363 . S
C561 C564 1.363 . S
N562 C564 1.356 . S
N562 H574 0.984 . S
N562 H575 0.985 . S
N563 C565 1.356 . S
N563 H568 0.984 . S
N563 H569 0.985 . S
C564 C558 1.379 . S
C564 C561 1.363 . S
C564 N562 1.356 . S
C565 C559 1.363 . S
C565 C560 1.379 . S
C565 N563 1.356 . S
N566 C558 1.356 . S
N566 H572 0.984 . S
N566 H573 0.984 . S
N567 C560 1.356 . S
N567 H570 0.984 . S
N567 H571 0.985 . S
H568 N563 0.984 . S
H569 N563 0.985 . S
H570 N567 0.984 . S
H571 N567 0.985 . S
H572 N566 0.984 . S
H573 N566 0.984 . S
H574 N562 0.984 . S
H575 N562 0.985 . S
C576 C577 1.363 . S
C576 C582 1.379 . S
C576 N584 1.356 . S
C577 C576 1.363 . S
C577 C583 1.363 . S
C578 C579 1.363 . S
C578 C583 1.379 . S
C578 N585 1.356 . S
C579 C578 1.363 . S
C579 C582 1.363 . S
N580 C582 1.356 . S
N580 H592 0.984 . S
N580 H593 0.985 . S
N581 C583 1.356 . S
N581 H586 0.984 . S
N581 H587 0.985 . S
C582 C576 1.379 . S
C582 C579 1.363 . S
C582 N580 1.356 . S
C583 C577 1.363 . S
C583 C578 1.379 . S
C583 N581 1.356 . S
N584 C576 1.356 . S
N584 H590 0.984 . S
N584 H591 0.984 . S
N585 C578 1.356 . S
N585 H588 0.984 . S
N585 H589 0.985 . S
H586 N581 0.984 . S
H587 N581 0.985 . S
H588 N585 0.984 . S
H589 N585 0.985 . S
H590 N584 0.984 . S
H591 N584 0.984 . S
H592 N580 0.984 . S
H593 N580 0.985 . S
C594 C595 1.363 1_556 S
C594 C600 1.379 . S
C594 N602 1.356 . S
C595 C594 1.363 1_554 S
C595 C601 1.363 . S
C596 C597 1.363 1_554 S
C596 C601 1.379 . S
C596 N603 1.356 . S
C597 C596 1.363 1_556 S
C597 C600 1.363 . S
N598 C600 1.356 . S
N598 H610 0.984 . S
N598 H611 0.985 . S
N599 C601 1.356 . S
N599 H604 0.984 . S
N599 H605 0.985 . S
C600 C594 1.379 . S
C600 C597 1.363 . S
C600 N598 1.356 . S
C601 C595 1.363 . S
C601 C596 1.379 . S
C601 N599 1.356 . S
N602 C594 1.356 . S
N602 H608 0.984 . S
N602 H609 0.984 1_556 S
N603 C596 1.356 . S
N603 H606 0.984 1_554 S
N603 H607 0.985 . S
H604 N599 0.984 . S
H605 N599 0.985 . S
H606 N603 0.984 1_556 S
H607 N603 0.985 . S
H608 N602 0.984 . S
H609 N602 0.984 1_554 S
H610 N598 0.984 . S
H611 N598 0.985 . S
C612 C613 1.363 . S
C612 C618 1.379 . S
C612 N620 1.356 . S
C613 C612 1.363 . S
C613 C619 1.363 . S
C614 C615 1.363 . S
C614 C619 1.379 . S
C614 N621 1.356 . S
C615 C614 1.363 . S
C615 C618 1.363 . S
N616 C618 1.356 . S
N616 H628 0.984 . S
N616 H629 0.985 . S
N617 C619 1.356 . S
N617 H622 0.984 . S
N617 H623 0.985 . S
C618 C612 1.379 . S
C618 C615 1.363 . S
C618 N616 1.356 . S
C619 C613 1.363 . S
C619 C614 1.379 . S
C619 N617 1.356 . S
N620 C612 1.356 . S
N620 H626 0.984 . S
N620 H627 0.984 . S
N621 C614 1.356 . S
N621 H624 0.984 . S
N621 H625 0.985 . S
H622 N617 0.984 . S
H623 N617 0.985 . S
H624 N621 0.984 . S
H625 N621 0.985 . S
H626 N620 0.984 . S
H627 N620 0.984 . S
H628 N616 0.984 . S
H629 N616 0.985 . S
C630 C631 1.363 . S
C630 C636 1.379 . S
C630 N638 1.356 . S
C631 C630 1.363 . S
C631 C637 1.363 . S
C632 C633 1.363 . S
C632 C637 1.379 . S
C632 N639 1.356 . S
C633 C632 1.363 . S
C633 C636 1.363 . S
N634 C636 1.356 . S
N634 H646 0.984 . S
N634 H647 0.985 . S
N635 C637 1.356 . S
N635 H640 0.984 . S
N635 H641 0.985 . S
C636 C630 1.379 . S
C636 C633 1.363 . S
C636 N634 1.356 . S
C637 C631 1.363 . S
C637 C632 1.379 . S
C637 N635 1.356 . S
N638 C630 1.356 . S
N638 H644 0.984 . S
N638 H645 0.984 . S
N639 C632 1.356 . S
N639 H642 0.984 . S
N639 H643 0.985 . S
H640 N635 0.984 . S
H641 N635 0.985 . S
H642 N639 0.984 . S
H643 N639 0.985 . S
H644 N638 0.984 . S
H645 N638 0.984 . S
H646 N634 0.984 . S
H647 N634 0.985 . S
C648 C649 1.363 . S
C648 C654 1.379 . S
C648 N656 1.356 . S
C649 C648 1.363 . S
C649 C655 1.363 . S
C650 C651 1.363 . S
C650 C655 1.379 . S
C650 N657 1.356 . S
C651 C650 1.363 . S
C651 C654 1.363 . S
N652 C654 1.356 . S
N652 H664 0.984 . S
N652 H665 0.985 . S
N653 C655 1.356 . S
N653 H658 0.984 . S
N653 H659 0.985 . S
C654 C648 1.379 . S
C654 C651 1.363 . S
C654 N652 1.356 . S
C655 C649 1.363 . S
C655 C650 1.379 . S
C655 N653 1.356 . S
N656 C648 1.356 . S
N656 H662 0.984 . S
N656 H663 0.984 . S
N657 C650 1.356 . S
N657 H660 0.984 . S
N657 H661 0.985 . S
H658 N653 0.984 . S
H659 N653 0.985 . S
H660 N657 0.984 . S
H661 N657 0.985 . S
H662 N656 0.984 . S
H663 N656 0.984 . S
H664 N652 0.984 . S
H665 N652 0.985 . S
C666 C667 1.363 . S
C666 C672 1.379 1_455 S
C666 N674 1.356 . S
C667 C666 1.363 . S
C667 C673 1.363 1_455 S
C668 C669 1.363 . S
C668 C673 1.379 . S
C668 N675 1.356 . S
C669 C668 1.363 . S
C669 C672 1.363 . S
N670 C672 1.356 . S
N670 H682 0.984 . S
N670 H683 0.985 . S
N671 C673 1.356 . S
N671 H676 0.984 1_655 S
N671 H677 0.985 . S
C672 C666 1.379 1_655 S
C672 C669 1.363 . S
C672 N670 1.356 . S
C673 C667 1.363 1_655 S
C673 C668 1.379 . S
C673 N671 1.356 . S
N674 C666 1.356 . S
N674 H680 0.984 . S
N674 H681 0.984 . S
N675 C668 1.356 . S
N675 H678 0.984 . S
N675 H679 0.985 . S
H676 N671 0.984 1_455 S
H677 N671 0.985 . S
H678 N675 0.984 . S
H679 N675 0.985 . S
H680 N674 0.984 . S
H681 N674 0.984 . S
H682 N670 0.984 . S
H683 N670 0.985 . S
C684 C685 1.363 . S
C684 C690 1.379 . S
C684 N692 1.356 . S
C685 C684 1.363 . S
C685 C691 1.363 1_545 S
C686 C687 1.363 . S
C686 C691 1.379 . S
C686 N693 1.356 . S
C687 C686 1.363 . S
C687 C690 1.363 1_565 S
N688 C690 1.356 . S
N688 H700 0.984 . S
N688 H701 0.985 . S
N689 C691 1.356 . S
N689 H694 0.984 . S
N689 H695 0.985 . S
C690 C684 1.379 . S
C690 C687 1.363 1_545 S
C690 N688 1.356 . S
C691 C685 1.363 1_565 S
C691 C686 1.379 . S
C691 N689 1.356 . S
N692 C684 1.356 . S
N692 H698 0.984 . S
N692 H699 0.984 . S
N693 C686 1.356 . S
N693 H696 0.984 . S
N693 H697 0.985 . S
H694 N689 0.984 . S
H695 N689 0.985 . S
H696 N693 0.984 . S
H697 N693 0.985 . S
H698 N692 0.984 . S
H699 N692 0.984 . S
H700 N688 0.984 . S
H701 N688 0.985 . S
C702 C703 1.363 . S
C702 C708 1.379 . S
C702 N710 1.356 . S
C703 C702 1.363 . S
C703 C709 1.363 . S
C704 C705 1.363 . S
C704 C709 1.379 . S
C704 N711 1.356 . S
C705 C704 1.363 . S
C705 C708 1.363 . S
N706 C708 1.356 . S
N706 H718 0.984 . S
N706 H719 0.985 . S
N707 C709 1.356 . S
N707 H712 0.984 . S
N707 H713 0.985 . S
C708 C702 1.379 . S
C708 C705 1.363 . S
C708 N706 1.356 . S
C709 C703 1.363 . S
C709 C704 1.379 . S
C709 N707 1.356 . S
N710 C702 1.356 . S
N710 H716 0.984 . S
N710 H717 0.984 . S
N711 C704 1.356 . S
N711 H714 0.984 . S
N711 H715 0.985 . S
H712 N707 0.984 . S
H713 N707 0.985 . S
H714 N711 0.984 . S
H715 N711 0.985 . S
H716 N710 0.984 . S
H717 N710 0.984 . S
H718 N706 0.984 . S
H719 N706 0.985 . S
C720 C721 1.362 1_455 S
C720 C726 1.378 . S
C720 N728 1.358 1_455 S
C721 C720 1.362 1_655 S
C721 C727 1.363 1_655 S
C722 C723 1.363 . S
C722 C727 1.379 . S
C722 N729 1.356 . S
C723 C722 1.363 . S
C723 C726 1.363 . S
N724 C726 1.356 . S
N724 H736 0.984 . S
N724 H737 0.985 . S
N725 C727 1.356 1_655 S
N725 H730 0.984 . S
N725 H731 0.969 1_655 S
C726 C720 1.378 . S
C726 C723 1.363 . S
C726 N724 1.356 . S
C727 C721 1.363 1_455 S
C727 C722 1.379 . S
C727 N725 1.356 1_455 S
N728 C720 1.358 1_655 S
N728 H734 0.984 . S
N728 H735 0.984 . S
N729 C722 1.356 . S
N729 H732 0.984 . S
N729 H733 0.985 . S
H730 N725 0.984 . S
H731 N725 0.969 1_455 S
H732 N729 0.984 . S
H733 N729 0.985 . S
H734 N728 0.984 . S
H735 N728 0.984 . S
H736 N724 0.984 . S
H737 N724 0.985 . S
C738 C739 1.363 1_565 S
C738 C744 1.379 . S
C738 N746 1.356 . S
C739 C738 1.363 1_545 S
C739 C745 1.363 . S
C740 C741 1.363 1_545 S
C740 C745 1.379 . S
C740 N747 1.356 . S
C741 C740 1.363 1_565 S
C741 C744 1.363 . S
N742 C744 1.356 . S
N742 H754 0.984 . S
N742 H755 0.985 . S
N743 C745 1.356 . S
N743 H748 0.984 . S
N743 H749 0.985 . S
C744 C738 1.379 . S
C744 C741 1.363 . S
C744 N742 1.356 . S
C745 C739 1.363 . S
C745 C740 1.379 . S
C745 N743 1.356 . S
N746 C738 1.356 . S
N746 H752 0.984 . S
N746 H753 0.984 . S
N747 C740 1.356 . S
N747 H750 0.984 . S
N747 H751 0.985 . S
H748 N743 0.984 . S
H749 N743 0.985 . S
H750 N747 0.984 . S
H751 N747 0.985 . S
H752 N746 0.984 . S
H753 N746 0.984 . S
H754 N742 0.984 . S
H755 N742 0.985 . S
C756 C757 1.363 . S
C756 C762 1.379 . S
C756 N764 1.356 1_554 S
C757 C756 1.363 . S
C757 C763 1.363 . S
C758 C759 1.363 . S
C758 C763 1.379 . S
C758 N765 1.356 . S
C759 C758 1.363 . S
C759 C762 1.363 . S
N760 C762 1.356 1_556 S
N760 H772 0.984 . S
N760 H773 0.985 . S
N761 C763 1.356 . S
N761 H766 0.984 . S
N761 H767 0.985 . S
C762 C756 1.379 . S
C762 C759 1.363 . S
C762 N760 1.356 1_554 S
C763 C757 1.363 . S
C763 C758 1.379 . S
C763 N761 1.356 . S
N764 C756 1.356 1_556 S
N764 H770 0.984 . S
N764 H771 0.984 . S
N765 C758 1.356 . S
N765 H768 0.984 . S
N765 H769 0.985 . S
H766 N761 0.984 . S
H767 N761 0.985 . S
H768 N765 0.984 . S
H769 N765 0.985 . S
H770 N764 0.984 . S
H771 N764 0.984 . S
H772 N760 0.984 . S
H773 N760 0.985 . S
C774 C775 1.363 1_655 S
C774 C780 1.379 . S
C774 N782 1.356 . S
C775 C774 1.363 1_455 S
C775 C781 1.363 . S
C776 C777 1.363 1_455 S
C776 C781 1.379 . S
C776 N783 1.356 . S
C777 C776 1.363 1_655 S
C777 C780 1.363 . S
N778 C780 1.356 . S
N778 H790 0.984 . S
N778 H791 0.985 . S
N779 C781 1.356 . S
N779 H784 0.984 . S
N779 H785 0.985 . S
C780 C774 1.379 . S
C780 C777 1.363 . S
C780 N778 1.356 . S
C781 C775 1.363 . S
C781 C776 1.379 . S
C781 N779 1.356 . S
N782 C774 1.356 . S
N782 H788 0.984 . S
N782 H789 0.984 1_655 S
N783 C776 1.356 . S
N783 H786 0.984 1_455 S
N783 H787 0.985 . S
H784 N779 0.984 . S
H785 N779 0.985 . S
H786 N783 0.984 1_655 S
H787 N783 0.985 . S
H788 N782 0.984 . S
H789 N782 0.984 1_455 S
H790 N778 0.984 . S
H791 N778 0.985 . S
C792 C793 1.363 . S
C792 C798 1.379 . S
C792 N800 1.356 . S
C793 C792 1.363 . S
C793 C799 1.363 1_565 S
C794 C795 1.363 . S
C794 C799 1.379 . S
C794 N801 1.356 . S
C795 C794 1.363 . S
C795 C798 1.363 1_545 S
N796 C798 1.356 . S
N796 H808 0.984 . S
N796 H809 0.973 1_565 S
N797 C799 1.356 . S
N797 H802 0.973 1_545 S
N797 H803 0.985 . S
C798 C792 1.379 . S
C798 C795 1.363 1_565 S
C798 N796 1.356 . S
C799 C793 1.363 1_545 S
C799 C794 1.379 . S
C799 N797 1.356 . S
N800 C792 1.356 . S
N800 H806 0.984 . S
N800 H807 0.984 . S
N801 C794 1.356 . S
N801 H804 0.984 . S
N801 H805 0.985 . S
H802 N797 0.973 1_565 S
H803 N797 0.985 . S
H804 N801 0.984 . S
H805 N801 0.985 . S
H806 N800 0.984 . S
H807 N800 0.984 . S
H808 N796 0.984 . S
H809 N796 0.973 1_545 S
C810 C811 1.363 . S
C810 C816 1.379 . S
C810 N818 1.356 . S
C811 C810 1.363 . S
C811 C817 1.363 . S
C812 C813 1.363 . S
C812 C817 1.379 . S
C812 N819 1.356 . S
C813 C812 1.363 . S
C813 C816 1.363 . S
N814 C816 1.356 . S
N814 H826 0.984 . S
N814 H827 0.985 . S
N815 C817 1.356 . S
N815 H820 0.984 . S
N815 H821 0.985 . S
C816 C810 1.379 . S
C816 C813 1.363 . S
C816 N814 1.356 . S
C817 C811 1.363 . S
C817 C812 1.379 . S
C817 N815 1.356 . S
N818 C810 1.356 . S
N818 H824 0.984 . S
N818 H825 0.984 . S
N819 C812 1.356 . S
N819 H822 0.984 . S
N819 H823 0.985 . S
H820 N815 0.984 . S
H821 N815 0.985 . S
H822 N819 0.984 . S
H823 N819 0.985 . S
H824 N818 0.984 . S
H825 N818 0.984 . S
H826 N814 0.984 . S
H827 N814 0.985 . S
C828 C829 1.363 1_455 S
C828 C834 1.379 . S
C828 N836 1.356 1_556 S
C829 C828 1.363 1_655 S
C829 C835 1.363 . S
C830 C831 1.363 1_655 S
C830 C835 1.379 . S
C830 N837 1.356 . S
C831 C830 1.363 1_455 S
C831 C834 1.363 . S
N832 C834 1.356 1_554 S
N832 H844 0.984 . S
N832 H845 0.985 . S
N833 C835 1.356 . S
N833 H838 0.984 . S
N833 H839 0.985 . S
C834 C828 1.379 . S
C834 C831 1.363 . S
C834 N832 1.356 1_556 S
C835 C829 1.363 . S
C835 C830 1.379 . S
C835 N833 1.356 . S
N836 C828 1.356 1_554 S
N836 H842 0.984 . S
N836 H843 0.984 . S
N837 C830 1.356 . S
N837 H840 0.984 . S
N837 H841 0.985 . S
H838 N833 0.984 . S
H839 N833 0.985 . S
H840 N837 0.984 . S
H841 N837 0.985 . S
H842 N836 0.984 . S
H843 N836 0.984 . S
H844 N832 0.984 . S
H845 N832 0.985 . S
C846 C847 1.363 . S
C846 C852 1.379 . S
C846 N854 1.356 . S
C847 C846 1.363 . S
C847 C853 1.363 1_545 S
C848 C849 1.363 . S
C848 C853 1.379 . S
C848 N855 1.356 . S
C849 C848 1.363 . S
C849 C852 1.363 1_565 S
N850 C852 1.356 . S
N850 H862 0.984 . S
N850 H863 0.984 1_545 S
N851 C853 1.356 . S
N851 H856 0.984 1_565 S
N851 H857 0.985 . S
C852 C846 1.379 . S
C852 C849 1.363 1_545 S
C852 N850 1.356 . S
C853 C847 1.363 1_565 S
C853 C848 1.379 . S
C853 N851 1.356 . S
N854 C846 1.356 . S
N854 H860 0.984 . S
N854 H861 0.984 . S
N855 C848 1.356 . S
N855 H858 0.984 . S
N855 H859 0.985 . S
H856 N851 0.984 1_545 S
H857 N851 0.985 . S
H858 N855 0.984 . S
H859 N855 0.985 . S
H860 N854 0.984 . S
H861 N854 0.984 . S
H862 N850 0.984 . S
H863 N850 0.984 1_565 S
C433 C3 1.631 . S
C435 C338 1.579 . S
C451 C50 1.579 . S
C453 C363 1.631 1_655 S
C469 C75 1.408 . S
C471 C399 1.408 . S
C487 C111 1.631 . S
C489 C230 1.579 . S
C505 C255 1.631 1_455 S
C507 C158 1.579 . S
C523 C291 1.408 . S
C525 C183 1.408 . S
C541 C374 1.420 . S
C543 C14 1.420 . S
C559 C39 1.522 . S
C561 C410 1.401 . S
C577 C86 1.401 . S
C579 C219 1.522 . S
C595 C122 1.420 . S
C597 C266 1.420 . S
C613 C147 1.522 . S
C615 C302 1.401 . S
C631 C194 1.401 . S
C633 C327 1.522 . S
C649 C326 1.046 . S
C651 C4 1.076 . S
C667 C38 1.046 1_455 S
C669 C364 1.076 . S
C685 C76 0.901 1_545 S
C687 C400 0.901 1_565 S
C703 C218 1.046 . S
C705 C112 1.076 . S
C721 C146 1.046 1_655 S
C723 C256 1.076 . S
C739 C292 0.901 1_545 S
C741 C184 0.901 1_565 S
C757 C2 1.570 . S
C759 C110 1.570 . S
C775 C148 1.364 . S
C777 C40 1.364 . S
C793 C74 1.458 . S
C795 C182 1.458 . S
C811 C220 1.364 . S
C813 C328 1.364 . S
C829 C254 1.570 . S
C831 C362 1.570 . S
C847 C398 1.458 . S
C849 C290 1.458 . S
