# Generated by pormake.
# Topology rac, (4)-cn, num edge types: 1
# Building blocks:
#     Node 0, Type 0, BuildingBlock: KUFVIS_clean_sbu_0, # of connection points: 4
#     Node 1, Type 0, BuildingBlock: KUFVIS_clean_sbu_0, # of connection points: 4
#     Node 2, Type 0, BuildingBlock: KUFVIS_clean_sbu_0, # of connection points: 4
#     Node 3, Type 0, BuildingBlock: KUFVIS_clean_sbu_0, # of connection points: 4
#     Node 4, Type 0, BuildingBlock: KUFVIS_clean_sbu_0, # of connection points: 4
#     Node 5, Type 0, BuildingBlock: KUFVIS_clean_sbu_0, # of connection points: 4
#     Node 6, Type 0, BuildingBlock: KUFVIS_clean_sbu_0, # of connection points: 4
#     Node 7, Type 0, BuildingBlock: KUFVIS_clean_sbu_0, # of connection points: 4
#     Edge 8, Type (0, 0), BuildingBlock: FUNLAD_clean_linker_0, # of connection points: 2
#     Edge 9, Type (0, 0), BuildingBlock: FUNLAD_clean_linker_0, # of connection points: 2
#     Edge 10, Type (0, 0), BuildingBlock: FUNLAD_clean_linker_0, # of connection points: 2
#     Edge 11, Type (0, 0), BuildingBlock: FUNLAD_clean_linker_0, # of connection points: 2
#     Edge 12, Type (0, 0), BuildingBlock: FUNLAD_clean_linker_0, # of connection points: 2
#     Edge 13, Type (0, 0), BuildingBlock: FUNLAD_clean_linker_0, # of connection points: 2
#     Edge 14, Type (0, 0), BuildingBlock: FUNLAD_clean_linker_0, # of connection points: 2
#     Edge 15, Type (0, 0), BuildingBlock: FUNLAD_clean_linker_0, # of connection points: 2
#     Edge 16, Type (0, 0), BuildingBlock: FUNLAD_clean_linker_0, # of connection points: 2
#     Edge 17, Type (0, 0), BuildingBlock: FUNLAD_clean_linker_0, # of connection points: 2
#     Edge 18, Type (0, 0), BuildingBlock: FUNLAD_clean_linker_0, # of connection points: 2
#     Edge 19, Type (0, 0), BuildingBlock: FUNLAD_clean_linker_0, # of connection points: 2
#     Edge 20, Type (0, 0), BuildingBlock: FUNLAD_clean_linker_0, # of connection points: 2
#     Edge 21, Type (0, 0), BuildingBlock: FUNLAD_clean_linker_0, # of connection points: 2
#     Edge 22, Type (0, 0), BuildingBlock: FUNLAD_clean_linker_0, # of connection points: 2
#     Edge 23, Type (0, 0), BuildingBlock: FUNLAD_clean_linker_0, # of connection points: 2
# Relax obj value: 0.211
# Max RMSD: 0.071
# Mean RMSD: 0.071
data_MOF--net-rac--node1-KUFVIS_clean_sbu_0--edge1-FUNLAD_clean_linker_0
_symmetry_space_group_name_H-M    P1
_symmetry_Int_Tables_number       1
_symmetry_cell_setting            triclinic
loop_
_symmetry_equiv_pos_as_xyz
'x, y, z'
_cell_length_a     47.443917
_cell_length_b     24.831855
_cell_length_c     42.971788
_cell_angle_alpha  90.065114
_cell_angle_beta   90.004635
_cell_angle_gamma 90.199159
loop_
_atom_site_label
_atom_site_type_symbol
_atom_site_fract_x
_atom_site_fract_y
_atom_site_fract_z
_atom_type_partial_charge
Mn0 Mn 0.37481 0.2814 0.04747 0.0
Mn1 Mn 0.31291 0.27177 0.08547 0.0
C2 C 0.33514 0.32304 0.02813 0.0
C3 C 0.41636 0.33254 0.04162 0.0
C4 C 0.33706 0.18114 0.04636 0.0
O5 O 0.38658 0.25633 0.09065 0.0
O6 O 0.34432 0.25742 0.11494 0.0
C7 C 0.31827 0.36437 0.12852 0.0
N8 N 0.3044 0.33904 0.10489 0.0
C9 C 0.26886 0.4079 0.10358 0.0
C10 C 0.28255 0.4343 0.12821 0.0
C11 C 0.30747 0.41264 0.14056 0.0
C12 C 0.28057 0.35983 0.09262 0.0
H13 H 0.33732 0.34767 0.13824 0.0
C14 C 0.37117 0.25156 0.11487 0.0
O15 O 0.41511 0.28299 0.0317 0.0
O16 O 0.39413 0.35093 0.05509 0.0
N17 N 0.28115 0.28599 0.05926 0.0
C18 C 0.27058 0.25572 0.03548 0.0
C19 C 0.2462 0.2728 0.01987 0.0
C20 C 0.23276 0.3205 0.0291 0.0
C21 C 0.24385 0.35065 0.05386 0.0
C22 C 0.26828 0.33177 0.06845 0.0
H23 H 0.28066 0.21888 0.02843 0.0
O24 O 0.3562 0.31284 0.00988 0.0
O25 O 0.33811 0.3081 0.05679 0.0
O26 O 0.35923 0.20526 0.03623 0.0
O27 O 0.31961 0.20197 0.06545 0.0
C28 C 0.23159 0.39869 0.06464 0.0
C29 C 0.24403 0.42721 0.0895 0.0
H30 H 0.27417 0.47116 0.1379 0.0
H31 H 0.31821 0.43294 0.15947 0.0
H32 H 0.23776 0.24919 0.00083 0.0
H33 H 0.21397 0.3336 0.01701 0.0
H34 H 0.21253 0.4139 0.05403 0.0
H35 H 0.23424 0.4639 0.09754 0.0
Mn36 Mn 0.13181 0.72657 0.04914 0.0
Mn37 Mn 0.19357 0.73213 0.08752 0.0
C38 C 0.1706 0.68161 0.03014 0.0
C39 C 0.08938 0.67803 0.04305 0.0
C40 C 0.17115 0.82443 0.04859 0.0
O41 O 0.12054 0.75401 0.09219 0.0
O42 O 0.16245 0.74775 0.11707 0.0
C43 C 0.18736 0.63885 0.12977 0.0
N44 N 0.20145 0.66422 0.10637 0.0
C45 C 0.23637 0.59424 0.1044 0.0
C46 C 0.22242 0.56769 0.12877 0.0
C47 C 0.19772 0.58991 0.14135 0.0
C48 C 0.2251 0.64295 0.0939 0.0
H49 H 0.16847 0.65603 0.13963 0.0
C50 C 0.13589 0.75718 0.11658 0.0
O51 O 0.0916 0.72731 0.03295 0.0
O52 O 0.11104 0.65869 0.05715 0.0
N53 N 0.22502 0.71727 0.06101 0.0
C54 C 0.23561 0.74744 0.03722 0.0
C55 C 0.25977 0.72983 0.02137 0.0
C56 C 0.27291 0.6817 0.03032 0.0
C57 C 0.26174 0.6516 0.05501 0.0
C58 C 0.23757 0.67104 0.06988 0.0
H59 H 0.2257 0.78459 0.0303 0.0
O60 O 0.14977 0.69284 0.0118 0.0
O61 O 0.16787 0.69725 0.05873 0.0
O62 O 0.14916 0.80114 0.03733 0.0
O63 O 0.18762 0.80258 0.06829 0.0
C64 C 0.27361 0.60302 0.0654 0.0
C65 C 0.26099 0.57441 0.09008 0.0
H66 H 0.23044 0.53026 0.13806 0.0
H67 H 0.18679 0.56952 0.16007 0.0
H68 H 0.26825 0.75334 0.00234 0.0
H69 H 0.29152 0.66817 0.01802 0.0
H70 H 0.29249 0.58742 0.05458 0.0
H71 H 0.27045 0.53724 0.09776 0.0
Mn72 Mn 0.37359 0.22451 0.45762 0.0
Mn73 Mn 0.31245 0.23326 0.41776 0.0
C74 C 0.33307 0.18597 0.47712 0.0
C75 C 0.41477 0.17423 0.46636 0.0
C76 C 0.33643 0.32526 0.45595 0.0
O77 O 0.38657 0.24593 0.41416 0.0
O78 O 0.34466 0.24646 0.38922 0.0
C79 C 0.31866 0.13921 0.37604 0.0
N80 N 0.30421 0.16537 0.39885 0.0
C81 C 0.26824 0.09684 0.3995 0.0
C82 C 0.2825 0.0697 0.3756 0.0
C83 C 0.30792 0.09076 0.36401 0.0
C84 C 0.27983 0.14523 0.41035 0.0
H85 H 0.33811 0.15543 0.36689 0.0
C86 C 0.37157 0.25102 0.38968 0.0
O87 O 0.41345 0.22481 0.47428 0.0
O88 O 0.39277 0.15427 0.45292 0.0
N89 N 0.27967 0.22039 0.44272 0.0
C90 C 0.26815 0.25222 0.46519 0.0
C91 C 0.24296 0.23623 0.4797 0.0
C92 C 0.22972 0.18799 0.47074 0.0
C93 C 0.24172 0.15634 0.44721 0.0
C94 C 0.26684 0.17437 0.43356 0.0
H95 H 0.2781 0.28948 0.47203 0.0
O96 O 0.35397 0.19676 0.49554 0.0
O97 O 0.33668 0.1979 0.44802 0.0
O98 O 0.35847 0.30161 0.46649 0.0
O99 O 0.31891 0.30364 0.43717 0.0
C100 C 0.22979 0.10754 0.43685 0.0
C101 C 0.24298 0.07794 0.41296 0.0
H102 H 0.27414 0.03281 0.36581 0.0
H103 H 0.31909 0.06988 0.34568 0.0
H104 H 0.23379 0.26103 0.49775 0.0
H105 H 0.21036 0.17564 0.48207 0.0
H106 H 0.21046 0.09239 0.44708 0.0
H107 H 0.23347 0.04066 0.40527 0.0
Mn108 Mn 0.13252 0.77751 0.45384 0.0
Mn109 Mn 0.19336 0.77231 0.41336 0.0
C110 C 0.17253 0.81798 0.47328 0.0
C111 C 0.09081 0.82617 0.46293 0.0
C112 C 0.17069 0.67839 0.45094 0.0
O113 O 0.11971 0.75457 0.41043 0.0
O114 O 0.16122 0.75932 0.38472 0.0
C115 C 0.18667 0.86824 0.37336 0.0
N116 N 0.20132 0.84112 0.39559 0.0
C117 C 0.237 0.91014 0.39746 0.0
C118 C 0.22252 0.93838 0.37419 0.0
C119 C 0.19717 0.91753 0.36226 0.0
C120 C 0.22565 0.86099 0.40738 0.0
H121 H 0.16726 0.85216 0.36401 0.0
C122 C 0.13452 0.75165 0.38566 0.0
O123 O 0.09275 0.7757 0.47087 0.0
O124 O 0.11239 0.84673 0.44904 0.0
N125 N 0.22604 0.78449 0.43856 0.0
C126 C 0.23756 0.7519 0.46065 0.0
C127 C 0.26269 0.76754 0.47543 0.0
C128 C 0.27583 0.81624 0.46718 0.0
C129 C 0.26378 0.84872 0.44411 0.0
C130 C 0.23876 0.83097 0.4301 0.0
H131 H 0.22763 0.71434 0.46703 0.0
O132 O 0.15176 0.80649 0.49169 0.0
O133 O 0.16899 0.80601 0.44414 0.0
O134 O 0.14901 0.70144 0.46286 0.0
O135 O 0.18722 0.701 0.43148 0.0
C136 C 0.27552 0.89815 0.43459 0.0
C137 C 0.26219 0.92873 0.41126 0.0
H138 H 0.23064 0.97602 0.36519 0.0
H139 H 0.18583 0.93925 0.34441 0.0
H140 H 0.27188 0.74217 0.49316 0.0
H141 H 0.29513 0.82834 0.47875 0.0
H142 H 0.29477 0.91311 0.44512 0.0
H143 H 0.27152 0.96653 0.40429 0.0
Mn144 Mn 0.6305 0.73124 0.95475 0.0
Mn145 Mn 0.69059 0.73857 0.91317 0.0
C146 C 0.67068 0.68989 0.97265 0.0
C147 C 0.58889 0.68111 0.96264 0.0
C148 C 0.6689 0.8306 0.95303 0.0
O149 O 0.61699 0.75608 0.91209 0.0
O150 O 0.65797 0.75252 0.88546 0.0
C151 C 0.68293 0.64487 0.87135 0.0
N152 N 0.69818 0.67105 0.89359 0.0
C153 C 0.735 0.6048 0.89109 0.0
C154 C 0.71983 0.57743 0.86791 0.0
C155 C 0.69358 0.59732 0.85819 0.0
C156 C 0.72326 0.65185 0.90343 0.0
H157 H 0.66291 0.6604 0.86353 0.0
C158 C 0.63128 0.75959 0.887 0.0
O159 O 0.59079 0.7307 0.97238 0.0
O160 O 0.61053 0.6621 0.94834 0.0
N161 N 0.72369 0.72494 0.93737 0.0
C162 C 0.73511 0.755 0.96076 0.0
C163 C 0.7607 0.73899 0.97425 0.0
C164 C 0.77449 0.69277 0.96323 0.0
C165 C 0.76246 0.6628 0.93892 0.0
C166 C 0.73674 0.68031 0.92667 0.0
H167 H 0.72475 0.79083 0.96914 0.0
O168 O 0.65024 0.70038 0.99168 0.0
O169 O 0.66671 0.70345 0.94385 0.0
O170 O 0.64727 0.80706 0.96496 0.0
O171 O 0.685 0.80882 0.93287 0.0
C172 C 0.77497 0.61624 0.92638 0.0
C173 C 0.76132 0.58737 0.9024 0.0
H174 H 0.7281 0.54113 0.85739 0.0
H175 H 0.68171 0.57631 0.84039 0.0
H176 H 0.76985 0.76237 0.99299 0.0
H177 H 0.79428 0.68065 0.97361 0.0
H178 H 0.79498 0.60195 0.93521 0.0
H179 H 0.77115 0.55155 0.89307 0.0
Mn180 Mn 0.87753 0.27968 0.95116 0.0
Mn181 Mn 0.8157 0.27118 0.91259 0.0
C182 C 0.83868 0.32664 0.9683 0.0
C183 C 0.91987 0.3286 0.95699 0.0
C184 C 0.83729 0.18296 0.95511 0.0
O185 O 0.88926 0.2494 0.90893 0.0
O186 O 0.84702 0.25008 0.88445 0.0
C187 C 0.82459 0.35882 0.86688 0.0
N188 N 0.80923 0.33672 0.89042 0.0
C189 C 0.77546 0.40877 0.88824 0.0
C190 C 0.79084 0.43215 0.86386 0.0
C191 C 0.81556 0.40715 0.85321 0.0
C192 C 0.7855 0.36063 0.90097 0.0
H193 H 0.84361 0.33974 0.85863 0.0
C194 C 0.87372 0.2422 0.88496 0.0
O195 O 0.91748 0.27997 0.96803 0.0
O196 O 0.89847 0.34697 0.94198 0.0
N197 N 0.78391 0.29148 0.9374 0.0
C198 C 0.77235 0.26544 0.96223 0.0
C199 C 0.74804 0.28631 0.97637 0.0
C200 C 0.73572 0.33347 0.96469 0.0
C201 C 0.74785 0.35934 0.93896 0.0
C202 C 0.77207 0.33663 0.92581 0.0
H203 H 0.7816 0.22907 0.9712 0.0
O204 O 0.85911 0.31639 0.98737 0.0
O205 O 0.84161 0.3082 0.94031 0.0
O206 O 0.86015 0.20589 0.96434 0.0
O207 O 0.82028 0.20347 0.93545 0.0
C208 C 0.73704 0.40712 0.9261 0.0
C209 C 0.75082 0.43178 0.90076 0.0
H210 H 0.78399 0.46948 0.85331 0.0
H211 H 0.82762 0.42509 0.83451 0.0
H212 H 0.73882 0.26607 0.99622 0.0
H213 H 0.71705 0.34961 0.97575 0.0
H214 H 0.71833 0.4256 0.93575 0.0
H215 H 0.74241 0.46868 0.89131 0.0
Mn216 Mn 0.63327 0.77674 0.54655 0.0
Mn217 Mn 0.69282 0.76934 0.58915 0.0
C218 C 0.6744 0.81434 0.52813 0.0
C219 C 0.59237 0.82699 0.53618 0.0
C220 C 0.66974 0.67563 0.55155 0.0
O221 O 0.61896 0.75624 0.58973 0.0
O222 O 0.65971 0.75994 0.61684 0.0
C223 C 0.68701 0.86679 0.6282 0.0
N224 N 0.70159 0.83818 0.60652 0.0
C225 C 0.7387 0.90443 0.60541 0.0
C226 C 0.7243 0.93408 0.62819 0.0
C227 C 0.69826 0.9154 0.63943 0.0
C228 C 0.72659 0.85597 0.59537 0.0
H229 H 0.66708 0.85234 0.63709 0.0
C230 C 0.63292 0.75411 0.61509 0.0
O231 O 0.59385 0.77629 0.52854 0.0
O232 O 0.61404 0.84708 0.55017 0.0
N233 N 0.72633 0.77851 0.56486 0.0
C234 C 0.73773 0.74461 0.54334 0.0
C235 C 0.76345 0.75821 0.52915 0.0
C236 C 0.77728 0.80622 0.53742 0.0
C237 C 0.76533 0.84009 0.55991 0.0
C238 C 0.73968 0.82441 0.5733 0.0
H239 H 0.72728 0.70756 0.53693 0.0
O240 O 0.65394 0.80353 0.50911 0.0
O241 O 0.66988 0.80344 0.55722 0.0
O242 O 0.64883 0.69961 0.53865 0.0
O243 O 0.68591 0.69776 0.57158 0.0
C244 C 0.77779 0.88892 0.56946 0.0
C245 C 0.76455 0.92091 0.59227 0.0
H246 H 0.73302 0.97116 0.63735 0.0
H247 H 0.68699 0.93824 0.65689 0.0
H248 H 0.77256 0.73177 0.51186 0.0
H249 H 0.79705 0.81671 0.52632 0.0
H250 H 0.79754 0.90229 0.55941 0.0
H251 H 0.77447 0.95816 0.59936 0.0
Mn252 Mn 0.87421 0.22326 0.54698 0.0
Mn253 Mn 0.81199 0.22993 0.58487 0.0
C254 C 0.83467 0.18249 0.52648 0.0
C255 C 0.91601 0.17428 0.53916 0.0
C256 C 0.83563 0.32222 0.54685 0.0
O257 O 0.8859 0.24628 0.59069 0.0
O258 O 0.8433 0.24619 0.61419 0.0
C259 C 0.8189 0.13718 0.6273 0.0
N260 N 0.80443 0.16207 0.60407 0.0
C261 C 0.76986 0.091 0.60262 0.0
C262 C 0.78416 0.06505 0.62689 0.0
C263 C 0.80887 0.08806 0.63913 0.0
C264 C 0.78073 0.14008 0.59197 0.0
H265 H 0.83785 0.15485 0.63687 0.0
C266 C 0.87015 0.25206 0.61455 0.0
O267 O 0.91436 0.22475 0.53116 0.0
O268 O 0.89407 0.15388 0.55247 0.0
N269 N 0.78001 0.21446 0.55914 0.0
C270 C 0.76842 0.24515 0.53622 0.0
C271 C 0.74383 0.22733 0.52115 0.0
C272 C 0.73124 0.17844 0.53001 0.0
C273 C 0.74328 0.14801 0.554 0.0
C274 C 0.76775 0.16789 0.56824 0.0
H275 H 0.77786 0.28289 0.52944 0.0
O276 O 0.85584 0.19406 0.50863 0.0
O277 O 0.83742 0.19508 0.55563 0.0
O278 O 0.85837 0.2996 0.53737 0.0
O279 O 0.8178 0.30002 0.56501 0.0
C280 C 0.73203 0.09861 0.56425 0.0
C281 C 0.74528 0.0702 0.58853 0.0
H282 H 0.77637 0.02758 0.63646 0.0
H283 H 0.82007 0.06812 0.65776 0.0
H284 H 0.73462 0.2512 0.50274 0.0
H285 H 0.71236 0.16465 0.51823 0.0
H286 H 0.71321 0.08206 0.55358 0.0
H287 H 0.73635 0.03235 0.59602 0.0
C288 C 0.31037 0.12393 0.00931 0.0
C289 C 0.32872 0.12739 0.03494 0.0
C290 C 0.29135 0.08068 0.00645 0.0
C291 C 0.29056 0.0398 0.02918 0.0
C292 C 0.3111 0.04071 0.05282 0.0
C293 C 0.32976 0.08416 0.05584 0.0
C294 C 0.26718 0.99932 0.03179 0.0
C295 C 0.24468 0.99454 0.01259 0.0
C296 C 0.22078 0.95762 0.02037 0.0
C297 C 0.20844 0.92447 0.9975 0.0
C298 C 0.1889 0.88422 0.0059 0.0
C299 C 0.1811 0.87739 0.03723 0.0
H300 H 0.21913 0.98011 0.06909 0.0
C301 C 0.19125 0.91436 0.05938 0.0
C302 C 0.21083 0.95392 0.0511 0.0
H303 H 0.1858 0.90977 0.08373 0.0
H304 H 0.30868 0.15739 0.99326 0.0
H305 H 0.27622 0.0817 0.98767 0.0
H306 H 0.31131 0.00977 0.07059 0.0
H307 H 0.34314 0.08642 0.07625 0.0
H308 H 0.26785 0.9732 0.05208 0.0
H309 H 0.24369 0.01674 0.99091 0.0
H310 H 0.21542 0.9271 0.97354 0.0
H311 H 0.18194 0.85557 0.98847 0.0
C312 C 0.1917 0.58972 0.43956 0.0
C313 C 0.18048 0.6252 0.46181 0.0
C314 C 0.21108 0.55031 0.44816 0.0
C315 C 0.21971 0.54531 0.4793 0.0
C316 C 0.20624 0.57675 0.50209 0.0
C317 C 0.18689 0.61684 0.49338 0.0
C318 C 0.24347 0.50888 0.48761 0.0
C319 C 0.26688 0.50653 0.46966 0.0
C320 C 0.29014 0.46625 0.47238 0.0
C321 C 0.31066 0.46527 0.44872 0.0
C322 C 0.32924 0.42193 0.44586 0.0
C323 C 0.32813 0.37905 0.46698 0.0
H324 H 0.27591 0.42501 0.51422 0.0
C325 C 0.30984 0.38266 0.49262 0.0
C326 C 0.29091 0.42576 0.49532 0.0
H327 H 0.30812 0.34939 0.50882 0.0
H328 H 0.18726 0.59543 0.41504 0.0
H329 H 0.2203 0.52536 0.43018 0.0
H330 H 0.2122 0.573 0.52633 0.0
H331 H 0.17903 0.64429 0.51094 0.0
H332 H 0.24148 0.48469 0.50847 0.0
H333 H 0.2683 0.53422 0.45011 0.0
H334 H 0.31089 0.49598 0.43082 0.0
H335 H 0.34259 0.41948 0.42545 0.0
C336 C 0.68978 0.91992 0.94223 0.0
C337 C 0.67909 0.88351 0.96434 0.0
C338 C 0.70941 0.95929 0.95071 0.0
C339 C 0.71887 0.9634 0.9816 0.0
C340 C 0.70602 0.93088 0.00439 0.0
C341 C 0.68641 0.89081 0.99579 0.0
C342 C 0.74279 1.00012 0.98968 0.0
C343 C 0.76566 0.00408 0.97094 0.0
C344 C 0.78916 0.04422 0.97385 0.0
C345 C 0.81097 0.04241 0.95164 0.0
C346 C 0.83 0.08525 0.94845 0.0
C347 C 0.82799 0.13064 0.96771 0.0
H348 H 0.77266 0.09074 0.01268 0.0
C349 C 0.8082 0.13014 0.99207 0.0
C350 C 0.78887 0.08747 0.99512 0.0
H351 H 0.80579 0.16526 0.00681 0.0
H352 H 0.68468 0.91505 0.91779 0.0
H353 H 0.71813 0.985 0.93275 0.0
H354 H 0.7126 0.93386 0.02846 0.0
H355 H 0.67902 0.86264 0.01323 0.0
H356 H 0.74158 0.02274 0.01122 0.0
H357 H 0.76663 0.97736 0.9509 0.0
H358 H 0.81198 0.00965 0.935 0.0
H359 H 0.84449 0.08517 0.92895 0.0
C360 C 0.69066 0.5869 0.56316 0.0
C361 C 0.67945 0.6222 0.54084 0.0
C362 C 0.71 0.54735 0.55462 0.0
C363 C 0.71859 0.54197 0.52349 0.0
C364 C 0.7051 0.57316 0.50064 0.0
C365 C 0.68578 0.6134 0.50927 0.0
C366 C 0.74232 0.5054 0.51521 0.0
C367 C 0.76572 0.50296 0.53317 0.0
C368 C 0.789 0.46272 0.53033 0.0
C369 C 0.80985 0.46232 0.55366 0.0
C370 C 0.82852 0.41911 0.55646 0.0
C371 C 0.82716 0.37575 0.53563 0.0
H372 H 0.77423 0.42045 0.489 0.0
C373 C 0.80849 0.37873 0.51029 0.0
C374 C 0.7895 0.42171 0.50764 0.0
H375 H 0.8066 0.34512 0.49431 0.0
H376 H 0.68625 0.59287 0.58767 0.0
H377 H 0.71922 0.52257 0.57266 0.0
H378 H 0.711 0.5691 0.47641 0.0
H379 H 0.67792 0.64064 0.49165 0.0
H380 H 0.74034 0.48128 0.49428 0.0
H381 H 0.76717 0.53066 0.55274 0.0
H382 H 0.81028 0.49341 0.57137 0.0
H383 H 0.84214 0.41714 0.57667 0.0
C384 C 0.37278 0.21355 0.16843 0.0
C385 C 0.38491 0.24631 0.14543 0.0
C386 C 0.38175 0.21744 0.19931 0.0
C387 C 0.40252 0.25526 0.20785 0.0
C388 C 0.41547 0.28635 0.18461 0.0
C389 C 0.40708 0.28126 0.15352 0.0
C390 C 0.40732 0.26862 0.24104 0.0
C391 C 0.40682 0.2311 0.26354 0.0
C392 C 0.40274 0.24491 0.29679 0.0
C393 C 0.41465 0.21221 0.3199 0.0
C394 C 0.40653 0.218 0.35104 0.0
C395 C 0.38566 0.25536 0.35928 0.0
H396 H 0.37338 0.31009 0.28815 0.0
C397 C 0.3747 0.28972 0.33643 0.0
C398 C 0.38342 0.28506 0.30551 0.0
H399 H 0.35831 0.31832 0.34224 0.0
H400 H 0.35543 0.1868 0.16275 0.0
H401 H 0.37092 0.19375 0.21678 0.0
H402 H 0.43125 0.3162 0.19071 0.0
H403 H 0.41639 0.30764 0.13625 0.0
H404 H 0.40924 0.31092 0.24727 0.0
H405 H 0.4073 0.18868 0.25729 0.0
H406 H 0.42929 0.1806 0.31366 0.0
H407 H 0.41488 0.19038 0.3682 0.0
C408 C 0.10024 0.77734 0.34434 0.0
C409 C 0.12049 0.74133 0.35576 0.0
C410 C 0.09155 0.77428 0.31322 0.0
C411 C 0.10262 0.73444 0.29342 0.0
C412 C 0.12116 0.69602 0.30568 0.0
C413 C 0.13042 0.70002 0.33643 0.0
C414 C 0.09764 0.73483 0.25937 0.0
C415 C 0.09928 0.78068 0.24277 0.0
C416 C 0.10472 0.77996 0.20881 0.0
C417 C 0.12577 0.81398 0.19692 0.0
C418 C 0.13499 0.80824 0.16625 0.0
C419 C 0.1226 0.76971 0.14663 0.0
H420 H 0.07478 0.71682 0.19728 0.0
C421 C 0.10003 0.73842 0.1577 0.0
C422 C 0.09133 0.74308 0.18874 0.0
H423 H 0.09035 0.70815 0.14295 0.0
H424 H 0.09255 0.80983 0.35886 0.0
H425 H 0.07695 0.80402 0.3044 0.0
H426 H 0.12994 0.66495 0.29088 0.0
H427 H 0.14618 0.67205 0.34481 0.0
H428 H 0.09811 0.69636 0.24727 0.0
H429 H 0.10212 0.81876 0.25491 0.0
H430 H 0.13635 0.84274 0.21193 0.0
H431 H 0.15248 0.83267 0.15815 0.0
C432 C 0.62752 0.79852 0.83391 0.0
C433 C 0.61633 0.76516 0.85718 0.0
C434 C 0.61788 0.79438 0.8033 0.0
C435 C 0.59735 0.75575 0.79529 0.0
C436 C 0.58518 0.72429 0.81889 0.0
C437 C 0.59427 0.72957 0.84974 0.0
C438 C 0.59236 0.7415 0.76223 0.0
C439 C 0.59325 0.77821 0.73928 0.0
C440 C 0.59827 0.76327 0.70635 0.0
C441 C 0.58751 0.79579 0.68246 0.0
C442 C 0.59677 0.7891 0.65176 0.0
C443 C 0.61762 0.75095 0.64479 0.0
H444 H 0.62678 0.69747 0.71677 0.0
C445 C 0.62741 0.71678 0.66836 0.0
C446 C 0.61756 0.72237 0.6988 0.0
H447 H 0.64378 0.68761 0.66352 0.0
H448 H 0.6448 0.82573 0.8391 0.0
H449 H 0.62817 0.81838 0.78557 0.0
H450 H 0.56961 0.6938 0.81321 0.0
H451 H 0.58571 0.70272 0.86724 0.0
H452 H 0.59042 0.69901 0.75645 0.0
H453 H 0.59279 0.82085 0.74502 0.0
H454 H 0.57294 0.828 0.68779 0.0
H455 H 0.58934 0.81657 0.63401 0.0
C456 C 0.90504 0.22923 0.65594 0.0
C457 C 0.88323 0.26235 0.64506 0.0
C458 C 0.9135 0.2319 0.68715 0.0
C459 C 0.90067 0.26864 0.70762 0.0
C460 C 0.88036 0.30433 0.69604 0.0
C461 C 0.87134 0.30056 0.66518 0.0
C462 C 0.90619 0.26806 0.74157 0.0
C463 C 0.90701 0.22173 0.75781 0.0
C464 C 0.90296 0.22112 0.79201 0.0
C465 C 0.88339 0.18481 0.80472 0.0
C466 C 0.87509 0.18949 0.83579 0.0
C467 C 0.88702 0.22927 0.85495 0.0
H468 H 0.93148 0.28713 0.80242 0.0
C469 C 0.90834 0.26271 0.84301 0.0
C470 C 0.91607 0.25907 0.81162 0.0
H471 H 0.91756 0.29413 0.85732 0.0
H472 H 0.91432 0.19913 0.64085 0.0
H473 H 0.92947 0.20437 0.69546 0.0
H474 H 0.87023 0.33305 0.71137 0.0
H475 H 0.85443 0.32639 0.65726 0.0
H476 H 0.90445 0.30604 0.75403 0.0
H477 H 0.90538 0.1836 0.74547 0.0
H478 H 0.87307 0.15517 0.79007 0.0
H479 H 0.85847 0.16355 0.84452 0.0
C480 C 0.45735 0.36697 0.00984 0.0
C481 C 0.44073 0.36913 0.03685 0.0
C482 C 0.47675 0.40843 0.00329 0.0
C483 C 0.48 0.45243 0.02386 0.0
C484 C 0.46454 0.45246 0.05167 0.0
C485 C 0.44496 0.41177 0.05791 0.0
C486 C 0.49917 0.49899 0.01747 0.0
C487 C 0.50579 0.51604 0.98858 0.0
C488 C 0.525 0.56246 0.98196 0.0
C489 C 0.53948 0.56295 0.95352 0.0
C490 C 0.55908 0.60336 0.94684 0.0
C491 C 0.56437 0.64521 0.96813 0.0
H492 H 0.51787 0.60781 0.02458 0.0
C493 C 0.54874 0.64693 0.99587 0.0
C494 C 0.52929 0.60575 0.00283 0.0
H495 H 0.5525 0.67856 0.01276 0.0
H496 H 0.45444 0.33473 0.99314 0.0
H497 H 0.48895 0.40603 0.98207 0.0
H498 H 0.46684 0.48522 0.06817 0.0
H499 H 0.43251 0.41447 0.079 0.0
H500 H 0.50724 0.52094 0.03746 0.0
H501 H 0.49759 0.49406 0.96866 0.0
H502 H 0.53639 0.53078 0.93678 0.0
H503 H 0.57075 0.60101 0.9252 0.0
C504 C 0.04952 0.64423 0.00928 0.0
C505 C 0.06482 0.64227 0.03725 0.0
C506 C 0.03037 0.60283 0.00168 0.0
C507 C 0.02604 0.55904 0.02211 0.0
C508 C 0.0401 0.55929 0.05082 0.0
C509 C 0.05943 0.59994 0.05814 0.0
C510 C 0.0072 0.51232 0.01468 0.0
C511 C 1.00147 0.49543 0.98549 0.0
C512 C 0.98272 0.44859 0.97807 0.0
C513 C 0.96873 0.44809 0.94932 0.0
C514 C 0.94955 0.4072 0.94197 0.0
C515 C 0.94422 0.36487 0.96289 0.0
H516 H 0.9895 0.40274 0.02052 0.0
C517 C 0.95943 0.36322 0.99092 0.0
C518 C 0.97844 0.40483 0.99854 0.0
H519 H 0.95563 0.33129 0.00757 0.0
H520 H 0.05338 0.67616 0.99266 0.0
H521 H 0.01926 0.60508 0.97974 0.0
H522 H 0.03696 0.52672 0.06724 0.0
H523 H 0.07089 0.5973 0.0799 0.0
H524 H 0.99861 0.49002 0.03424 0.0
H525 H 0.01006 0.51774 0.96594 0.0
H526 H 0.97184 0.48063 0.93287 0.0
H527 H 0.93818 0.40962 0.92014 0.0
C528 C 0.56763 0.91532 0.5401 0.0
C529 C 0.56821 0.8624 0.52833 0.0
C530 C 0.54652 0.95132 0.5313 0.0
C531 C 0.5254 0.9356 0.51018 0.0
C532 C 0.5254 0.88208 0.4992 0.0
C533 C 0.54662 0.84585 0.50809 0.0
C534 C 0.50277 0.97329 0.49969 0.0
C535 C 0.50483 0.02772 0.50103 0.0
C536 C 0.48215 0.0655 0.49079 0.0
C537 C 0.48236 0.11902 0.50177 0.0
C538 C 0.46103 0.15528 0.49331 0.0
C539 C 0.4391 0.1388 0.47352 0.0
H540 H 0.46013 0.00998 0.45995 0.0
C541 C 0.43946 0.08591 0.46168 0.0
C542 C 0.46069 0.04985 0.47005 0.0
H543 H 0.42308 0.07194 0.44604 0.0
H544 H 0.58372 0.92936 0.55608 0.0
H545 H 0.54688 0.99118 0.54143 0.0
H546 H 0.50921 0.86847 0.48322 0.0
H547 H 0.54642 0.80541 0.49863 0.0
H548 H 0.48385 0.95485 0.49028 0.0
H549 H 0.52378 0.04612 0.51039 0.0
H550 H 0.4988 0.13257 0.51746 0.0
H551 H 0.46139 0.1957 0.50281 0.0
C552 C 0.94104 0.08625 0.54349 0.0
C553 C 0.94036 0.13908 0.53164 0.0
C554 C 0.96188 0.04996 0.53422 0.0
C555 C 0.98263 0.06533 0.51257 0.0
C556 C 0.98265 0.11888 0.5017 0.0
C557 C 0.96171 0.15536 0.51104 0.0
C558 C 0.00471 0.02718 0.50118 0.0
C559 C 0.00236 0.97277 0.50233 0.0
C560 C 0.02441 0.93472 0.49074 0.0
C561 C 0.02471 0.88127 0.50175 0.0
C562 C 0.04559 0.8449 0.49208 0.0
C563 C 0.06653 0.86121 0.47098 0.0
H564 H 0.04479 0.9899 0.45846 0.0
C565 C 0.06552 0.91395 0.45904 0.0
C566 C 0.04475 0.95011 0.46864 0.0
H567 H 0.08111 0.9278 0.44243 0.0
H568 H 0.92512 0.07243 0.55971 0.0
H569 H 0.96155 0.01008 0.54427 0.0
H570 H 0.99856 0.13224 0.48534 0.0
H571 H 0.9618 0.19569 0.50148 0.0
H572 H 0.02343 0.04524 0.49108 0.0
H573 H 0.98369 0.95463 0.51247 0.0
H574 H 0.00909 0.8679 0.51846 0.0
H575 H 0.04576 0.80463 0.50173 0.0
C576 C 0.20658 0.63859 0.99603 0.0
C577 C 0.18891 0.63666 0.02212 0.0
C578 C 0.22277 0.59367 0.98814 0.0
C579 C 0.2204 0.54602 0.00559 0.0
C580 C 0.20192 0.5438 0.03092 0.0
C581 C 0.18645 0.58896 0.0393 0.0
C582 C 0.23827 0.49908 0.99933 0.0
C583 C 0.26632 0.50446 0.99864 0.0
C584 C 0.28441 0.45772 0.00449 0.0
C585 C 0.282 0.41008 0.98697 0.0
C586 C 0.29854 0.36542 0.99447 0.0
C587 C 0.31655 0.36763 0.02029 0.0
H588 H 0.30514 0.49635 0.04344 0.0
C589 C 0.31896 0.41529 0.03757 0.0
C590 C 0.30319 0.46018 0.02953 0.0
H591 H 0.33329 0.41796 0.05716 0.0
H592 H 0.20815 0.67491 0.98219 0.0
H593 H 0.237 0.59594 0.96846 0.0
H594 H 0.2 0.50759 0.04477 0.0
H595 H 0.17233 0.5865 0.05908 0.0
H596 H 0.22893 0.45921 0.00165 0.0
H597 H 0.27574 0.54437 0.00031 0.0
H598 H 0.26749 0.40764 0.96755 0.0
H599 H 0.29696 0.32909 0.98059 0.0
C600 C 0.31174 0.09639 0.47098 0.0
C601 C 0.31225 0.14589 0.48658 0.0
C602 C 0.29237 0.057 0.47945 0.0
C603 C 0.27314 0.06667 0.50363 0.0
C604 C 0.27395 0.11592 0.51964 0.0
C605 C 0.29398 0.155 0.51164 0.0
C606 C 0.25027 0.02784 0.50933 0.0
C607 C 0.25506 0.97463 0.50883 0.0
C608 C 0.2323 0.93605 0.50209 0.0
C609 C 0.21331 0.94678 0.47783 0.0
C610 C 0.19407 0.90772 0.46845 0.0
C611 C 0.19346 0.85752 0.48321 0.0
H612 H 0.24621 0.87692 0.53566 0.0
C613 C 0.21152 0.84731 0.50831 0.0
C614 C 0.23142 0.88605 0.51721 0.0
H615 H 0.21085 0.80892 0.52024 0.0
H616 H 0.32611 0.08845 0.45193 0.0
H617 H 0.29167 0.01988 0.46617 0.0
H618 H 0.25897 0.12424 0.53804 0.0
H619 H 0.29454 0.19288 0.52416 0.0
H620 H 0.22884 0.04309 0.5104 0.0
H621 H 0.27649 0.95935 0.50995 0.0
H622 H 0.21409 0.98455 0.46524 0.0
H623 H 0.17981 0.9165 0.44942 0.0
C624 C 0.69184 0.60144 0.96348 0.0
C625 C 0.69111 0.64875 0.98111 0.0
C626 C 0.7102 0.56041 0.97141 0.0
C627 C 0.72841 0.56621 0.99702 0.0
C628 C 0.72656 0.61232 0.01579 0.0
C629 C 0.70776 0.65346 0.00796 0.0
C630 C 0.75042 0.52558 0.00273 0.0
C631 C 0.76426 0.50469 0.9784 0.0
C632 C 0.7859 0.46281 0.98026 0.0
C633 C 0.80562 0.46074 0.95609 0.0
C634 C 0.82322 0.41669 0.95306 0.0
C635 C 0.82107 0.37357 0.97387 0.0
H636 H 0.7697 0.4218 0.02119 0.0
C637 C 0.80287 0.37687 0.99947 0.0
C638 C 0.78505 0.42137 0.00256 0.0
H639 H 0.8015 0.34412 0.01603 0.0
H640 H 0.67813 0.59616 0.94352 0.0
H641 H 0.71045 0.52441 0.95715 0.0
H642 H 0.74021 0.6172 0.03581 0.0
H643 H 0.70667 0.68927 0.02231 0.0
H644 H 0.75624 0.5153 0.02643 0.0
H645 H 0.75966 0.51948 0.9552 0.0
H646 H 0.80662 0.49231 0.93871 0.0
H647 H 0.83789 0.41545 0.93373 0.0
C648 C 0.7147 0.84128 0.49427 0.0
C649 C 0.6961 0.8527 0.51872 0.0
C650 C 0.73523 0.87909 0.48581 0.0
C651 C 0.73622 0.92936 0.50068 0.0
C652 C 0.71681 0.9412 0.52436 0.0
C653 C 0.69693 0.90308 0.53332 0.0
C654 C 0.75923 0.96746 0.49417 0.0
C655 C 0.75442 0.02061 0.49257 0.0
C656 C 0.77695 0.06006 0.49858 0.0
C657 C 0.77759 0.1091 0.48241 0.0
C658 C 0.79692 0.14918 0.49087 0.0
C659 C 0.81465 0.14126 0.51653 0.0
H660 H 0.79515 0.01462 0.53674 0.0
C661 C 0.8144 0.09191 0.53224 0.0
C662 C 0.79574 0.05153 0.52332 0.0
H663 H 0.8284 0.0849 0.55174 0.0
H664 H 0.71389 0.80271 0.48249 0.0
H665 H 0.75033 0.86912 0.46782 0.0
H666 H 0.71765 0.97919 0.53675 0.0
H667 H 0.6823 0.91279 0.55185 0.0
H668 H 0.78067 0.95215 0.4942 0.0
H669 H 0.733 0.03557 0.49037 0.0
H670 H 0.76294 0.11657 0.46357 0.0
H671 H 0.79731 0.18691 0.47825 0.0
loop_
_geom_bond_atom_site_label_1
_geom_bond_atom_site_label_2
_geom_bond_distance
_geom_bond_site_symmetry_2
_ccdc_geom_bond_type
Mn0 O5 2.095 . S
Mn0 O15 2.162 . S
Mn0 O16 2.297 . S
Mn0 O24 2.385 . S
Mn0 O25 2.209 . S
Mn0 O26 2.094 . S
Mn1 O6 2.121 . S
Mn1 N8 2.257 . S
Mn1 N17 2.282 . S
Mn1 O25 2.215 . S
Mn1 O27 2.117 . S
C2 O24 1.234 . S
C2 O25 1.283 . S
C3 O15 1.281 . S
C3 O16 1.236 . S
C4 O26 1.240 . S
C4 O27 1.264 . S
O5 Mn0 2.095 . S
O5 C14 1.250 . S
O6 Mn1 2.121 . S
O6 C14 1.258 . S
C7 N8 1.326 . S
C7 C11 1.460 . S
C7 H13 0.929 . S
N8 Mn1 2.257 . S
N8 C7 1.326 . S
N8 C12 1.362 . S
C9 C10 1.258 . S
C9 C12 1.431 . S
C9 C29 1.449 . S
C10 C9 1.258 . S
C10 C11 1.477 . S
C10 H30 0.931 . S
C11 C7 1.460 . S
C11 C10 1.477 . S
C11 H31 0.930 . S
C12 N8 1.362 . S
C12 C9 1.431 . S
C12 C22 1.476 . S
H13 C7 0.929 . S
C14 O5 1.250 . S
C14 O6 1.258 . S
O15 Mn0 2.162 . S
O15 C3 1.281 . S
O16 Mn0 2.297 . S
O16 C3 1.236 . S
N17 Mn1 2.282 . S
N17 C18 1.328 . S
N17 C22 1.318 . S
C18 N17 1.328 . S
C18 C19 1.457 . S
C18 H23 0.929 . S
C19 C18 1.457 . S
C19 C20 1.291 . S
C19 H32 0.931 1_554 S
C20 C19 1.291 . S
C20 C21 1.373 . S
C20 H33 0.929 . S
C21 C20 1.373 . S
C21 C22 1.396 . S
C21 C28 1.403 . S
C22 C12 1.476 . S
C22 N17 1.318 . S
C22 C21 1.396 . S
H23 C18 0.929 . S
O24 Mn0 2.385 . S
O24 C2 1.234 . S
O25 Mn0 2.209 . S
O25 Mn1 2.215 . S
O25 C2 1.283 . S
O26 Mn0 2.094 . S
O26 C4 1.240 . S
O27 Mn1 2.117 . S
O27 C4 1.264 . S
C28 C21 1.403 . S
C28 C29 1.399 . S
C28 H34 0.929 . S
C29 C9 1.449 . S
C29 C28 1.399 . S
C29 H35 0.930 . S
H30 C10 0.931 . S
H31 C11 0.930 . S
H32 C19 0.931 1_556 S
H33 C20 0.929 . S
H34 C28 0.929 . S
H35 C29 0.930 . S
Mn36 O41 2.095 . S
Mn36 O51 2.162 . S
Mn36 O52 2.297 . S
Mn36 O60 2.385 . S
Mn36 O61 2.209 . S
Mn36 O62 2.094 . S
Mn37 O42 2.121 . S
Mn37 N44 2.257 . S
Mn37 N53 2.282 . S
Mn37 O61 2.215 . S
Mn37 O63 2.117 . S
C38 O60 1.234 . S
C38 O61 1.283 . S
C39 O51 1.281 . S
C39 O52 1.236 . S
C40 O62 1.240 . S
C40 O63 1.264 . S
O41 Mn36 2.095 . S
O41 C50 1.250 . S
O42 Mn37 2.121 . S
O42 C50 1.258 . S
C43 N44 1.326 . S
C43 C47 1.460 . S
C43 H49 0.929 . S
N44 Mn37 2.257 . S
N44 C43 1.326 . S
N44 C48 1.362 . S
C45 C46 1.258 . S
C45 C48 1.431 . S
C45 C65 1.449 . S
C46 C45 1.258 . S
C46 C47 1.477 . S
C46 H66 0.931 . S
C47 C43 1.460 . S
C47 C46 1.477 . S
C47 H67 0.930 . S
C48 N44 1.362 . S
C48 C45 1.431 . S
C48 C58 1.476 . S
H49 C43 0.929 . S
C50 O41 1.250 . S
C50 O42 1.258 . S
O51 Mn36 2.162 . S
O51 C39 1.281 . S
O52 Mn36 2.297 . S
O52 C39 1.236 . S
N53 Mn37 2.282 . S
N53 C54 1.328 . S
N53 C58 1.318 . S
C54 N53 1.328 . S
C54 C55 1.457 . S
C54 H59 0.929 . S
C55 C54 1.457 . S
C55 C56 1.291 . S
C55 H68 0.931 1_554 S
C56 C55 1.291 . S
C56 C57 1.373 . S
C56 H69 0.929 . S
C57 C56 1.373 . S
C57 C58 1.396 . S
C57 C64 1.403 . S
C58 C48 1.476 . S
C58 N53 1.318 . S
C58 C57 1.396 . S
H59 C54 0.929 . S
O60 Mn36 2.385 . S
O60 C38 1.234 . S
O61 Mn36 2.209 . S
O61 Mn37 2.215 . S
O61 C38 1.283 . S
O62 Mn36 2.094 . S
O62 C40 1.240 . S
O63 Mn37 2.117 . S
O63 C40 1.264 . S
C64 C57 1.403 . S
C64 C65 1.399 . S
C64 H70 0.929 . S
C65 C45 1.449 . S
C65 C64 1.399 . S
C65 H71 0.930 . S
H66 C46 0.931 . S
H67 C47 0.930 . S
H68 C55 0.931 1_556 S
H69 C56 0.929 . S
H70 C64 0.929 . S
H71 C65 0.930 . S
Mn72 O77 2.095 . S
Mn72 O87 2.162 . S
Mn72 O88 2.297 . S
Mn72 O96 2.385 . S
Mn72 O97 2.209 . S
Mn72 O98 2.094 . S
Mn73 O78 2.121 . S
Mn73 N80 2.257 . S
Mn73 N89 2.282 . S
Mn73 O97 2.215 . S
Mn73 O99 2.117 . S
C74 O96 1.234 . S
C74 O97 1.283 . S
C75 O87 1.281 . S
C75 O88 1.236 . S
C76 O98 1.240 . S
C76 O99 1.264 . S
O77 Mn72 2.095 . S
O77 C86 1.250 . S
O78 Mn73 2.121 . S
O78 C86 1.258 . S
C79 N80 1.326 . S
C79 C83 1.460 . S
C79 H85 0.929 . S
N80 Mn73 2.257 . S
N80 C79 1.326 . S
N80 C84 1.362 . S
C81 C82 1.258 . S
C81 C84 1.431 . S
C81 C101 1.449 . S
C82 C81 1.258 . S
C82 C83 1.477 . S
C82 H102 0.931 . S
C83 C79 1.460 . S
C83 C82 1.477 . S
C83 H103 0.930 . S
C84 N80 1.362 . S
C84 C81 1.431 . S
C84 C94 1.476 . S
H85 C79 0.929 . S
C86 O77 1.250 . S
C86 O78 1.258 . S
O87 Mn72 2.162 . S
O87 C75 1.281 . S
O88 Mn72 2.297 . S
O88 C75 1.236 . S
N89 Mn73 2.282 . S
N89 C90 1.328 . S
N89 C94 1.318 . S
C90 N89 1.328 . S
C90 C91 1.457 . S
C90 H95 0.929 . S
C91 C90 1.457 . S
C91 C92 1.291 . S
C91 H104 0.931 . S
C92 C91 1.291 . S
C92 C93 1.373 . S
C92 H105 0.929 . S
C93 C92 1.373 . S
C93 C94 1.396 . S
C93 C100 1.403 . S
C94 C84 1.476 . S
C94 N89 1.318 . S
C94 C93 1.396 . S
H95 C90 0.929 . S
O96 Mn72 2.385 . S
O96 C74 1.234 . S
O97 Mn72 2.209 . S
O97 Mn73 2.215 . S
O97 C74 1.283 . S
O98 Mn72 2.094 . S
O98 C76 1.240 . S
O99 Mn73 2.117 . S
O99 C76 1.264 . S
C100 C93 1.403 . S
C100 C101 1.399 . S
C100 H106 0.929 . S
C101 C81 1.449 . S
C101 C100 1.399 . S
C101 H107 0.930 . S
H102 C82 0.931 . S
H103 C83 0.930 . S
H104 C91 0.931 . S
H105 C92 0.929 . S
H106 C100 0.929 . S
H107 C101 0.930 . S
Mn108 O113 2.095 . S
Mn108 O123 2.162 . S
Mn108 O124 2.297 . S
Mn108 O132 2.385 . S
Mn108 O133 2.209 . S
Mn108 O134 2.094 . S
Mn109 O114 2.121 . S
Mn109 N116 2.257 . S
Mn109 N125 2.282 . S
Mn109 O133 2.215 . S
Mn109 O135 2.117 . S
C110 O132 1.234 . S
C110 O133 1.283 . S
C111 O123 1.281 . S
C111 O124 1.236 . S
C112 O134 1.240 . S
C112 O135 1.264 . S
O113 Mn108 2.095 . S
O113 C122 1.250 . S
O114 Mn109 2.121 . S
O114 C122 1.258 . S
C115 N116 1.326 . S
C115 C119 1.460 . S
C115 H121 0.929 . S
N116 Mn109 2.257 . S
N116 C115 1.326 . S
N116 C120 1.362 . S
C117 C118 1.258 . S
C117 C120 1.431 . S
C117 C137 1.449 . S
C118 C117 1.258 . S
C118 C119 1.477 . S
C118 H138 0.931 . S
C119 C115 1.460 . S
C119 C118 1.477 . S
C119 H139 0.930 . S
C120 N116 1.362 . S
C120 C117 1.431 . S
C120 C130 1.476 . S
H121 C115 0.929 . S
C122 O113 1.250 . S
C122 O114 1.258 . S
O123 Mn108 2.162 . S
O123 C111 1.281 . S
O124 Mn108 2.297 . S
O124 C111 1.236 . S
N125 Mn109 2.282 . S
N125 C126 1.328 . S
N125 C130 1.318 . S
C126 N125 1.328 . S
C126 C127 1.457 . S
C126 H131 0.929 . S
C127 C126 1.457 . S
C127 C128 1.291 . S
C127 H140 0.931 . S
C128 C127 1.291 . S
C128 C129 1.373 . S
C128 H141 0.929 . S
C129 C128 1.373 . S
C129 C130 1.396 . S
C129 C136 1.403 . S
C130 C120 1.476 . S
C130 N125 1.318 . S
C130 C129 1.396 . S
H131 C126 0.929 . S
O132 Mn108 2.385 . S
O132 C110 1.234 . S
O133 Mn108 2.209 . S
O133 Mn109 2.215 . S
O133 C110 1.283 . S
O134 Mn108 2.094 . S
O134 C112 1.240 . S
O135 Mn109 2.117 . S
O135 C112 1.264 . S
C136 C129 1.403 . S
C136 C137 1.399 . S
C136 H142 0.929 . S
C137 C117 1.449 . S
C137 C136 1.399 . S
C137 H143 0.930 . S
H138 C118 0.931 . S
H139 C119 0.930 . S
H140 C127 0.931 . S
H141 C128 0.929 . S
H142 C136 0.929 . S
H143 C137 0.930 . S
Mn144 O149 2.095 . S
Mn144 O159 2.162 . S
Mn144 O160 2.297 . S
Mn144 O168 2.385 . S
Mn144 O169 2.209 . S
Mn144 O170 2.094 . S
Mn145 O150 2.121 . S
Mn145 N152 2.257 . S
Mn145 N161 2.282 . S
Mn145 O169 2.215 . S
Mn145 O171 2.117 . S
C146 O168 1.234 . S
C146 O169 1.283 . S
C147 O159 1.281 . S
C147 O160 1.236 . S
C148 O170 1.240 . S
C148 O171 1.264 . S
O149 Mn144 2.095 . S
O149 C158 1.250 . S
O150 Mn145 2.121 . S
O150 C158 1.258 . S
C151 N152 1.326 . S
C151 C155 1.460 . S
C151 H157 0.929 . S
N152 Mn145 2.257 . S
N152 C151 1.326 . S
N152 C156 1.362 . S
C153 C154 1.258 . S
C153 C156 1.431 . S
C153 C173 1.449 . S
C154 C153 1.258 . S
C154 C155 1.477 . S
C154 H174 0.931 . S
C155 C151 1.460 . S
C155 C154 1.477 . S
C155 H175 0.930 . S
C156 N152 1.362 . S
C156 C153 1.431 . S
C156 C166 1.476 . S
H157 C151 0.929 . S
C158 O149 1.250 . S
C158 O150 1.258 . S
O159 Mn144 2.162 . S
O159 C147 1.281 . S
O160 Mn144 2.297 . S
O160 C147 1.236 . S
N161 Mn145 2.282 . S
N161 C162 1.328 . S
N161 C166 1.318 . S
C162 N161 1.328 . S
C162 C163 1.457 . S
C162 H167 0.929 . S
C163 C162 1.457 . S
C163 C164 1.291 . S
C163 H176 0.931 1_556 S
C164 C163 1.291 . S
C164 C165 1.373 . S
C164 H177 0.929 . S
C165 C164 1.373 . S
C165 C166 1.396 . S
C165 C172 1.403 . S
C166 C156 1.476 . S
C166 N161 1.318 . S
C166 C165 1.396 . S
H167 C162 0.929 . S
O168 Mn144 2.385 . S
O168 C146 1.234 . S
O169 Mn144 2.209 . S
O169 Mn145 2.215 . S
O169 C146 1.283 . S
O170 Mn144 2.094 . S
O170 C148 1.240 . S
O171 Mn145 2.117 . S
O171 C148 1.264 . S
C172 C165 1.403 . S
C172 C173 1.399 . S
C172 H178 0.929 . S
C173 C153 1.449 . S
C173 C172 1.399 . S
C173 H179 0.930 . S
H174 C154 0.931 . S
H175 C155 0.930 . S
H176 C163 0.931 1_554 S
H177 C164 0.929 . S
H178 C172 0.929 . S
H179 C173 0.930 . S
Mn180 O185 2.095 . S
Mn180 O195 2.162 . S
Mn180 O196 2.297 . S
Mn180 O204 2.385 . S
Mn180 O205 2.209 . S
Mn180 O206 2.094 . S
Mn181 O186 2.121 . S
Mn181 N188 2.257 . S
Mn181 N197 2.282 . S
Mn181 O205 2.215 . S
Mn181 O207 2.117 . S
C182 O204 1.234 . S
C182 O205 1.283 . S
C183 O195 1.281 . S
C183 O196 1.236 . S
C184 O206 1.240 . S
C184 O207 1.264 . S
O185 Mn180 2.095 . S
O185 C194 1.250 . S
O186 Mn181 2.121 . S
O186 C194 1.258 . S
C187 N188 1.326 . S
C187 C191 1.460 . S
C187 H193 0.929 . S
N188 Mn181 2.257 . S
N188 C187 1.326 . S
N188 C192 1.362 . S
C189 C190 1.258 . S
C189 C192 1.431 . S
C189 C209 1.449 . S
C190 C189 1.258 . S
C190 C191 1.477 . S
C190 H210 0.931 . S
C191 C187 1.460 . S
C191 C190 1.477 . S
C191 H211 0.930 . S
C192 N188 1.362 . S
C192 C189 1.431 . S
C192 C202 1.476 . S
H193 C187 0.929 . S
C194 O185 1.250 . S
C194 O186 1.258 . S
O195 Mn180 2.162 . S
O195 C183 1.281 . S
O196 Mn180 2.297 . S
O196 C183 1.236 . S
N197 Mn181 2.282 . S
N197 C198 1.328 . S
N197 C202 1.318 . S
C198 N197 1.328 . S
C198 C199 1.457 . S
C198 H203 0.929 . S
C199 C198 1.457 . S
C199 C200 1.291 . S
C199 H212 0.931 1_556 S
C200 C199 1.291 . S
C200 C201 1.373 . S
C200 H213 0.929 . S
C201 C200 1.373 . S
C201 C202 1.396 . S
C201 C208 1.403 . S
C202 C192 1.476 . S
C202 N197 1.318 . S
C202 C201 1.396 . S
H203 C198 0.929 . S
O204 Mn180 2.385 . S
O204 C182 1.234 . S
O205 Mn180 2.209 . S
O205 Mn181 2.215 . S
O205 C182 1.283 . S
O206 Mn180 2.094 . S
O206 C184 1.240 . S
O207 Mn181 2.117 . S
O207 C184 1.264 . S
C208 C201 1.403 . S
C208 C209 1.399 . S
C208 H214 0.929 . S
C209 C189 1.449 . S
C209 C208 1.399 . S
C209 H215 0.930 . S
H210 C190 0.931 . S
H211 C191 0.930 . S
H212 C199 0.931 1_554 S
H213 C200 0.929 . S
H214 C208 0.929 . S
H215 C209 0.930 . S
Mn216 O221 2.095 . S
Mn216 O231 2.162 . S
Mn216 O232 2.297 . S
Mn216 O240 2.385 . S
Mn216 O241 2.209 . S
Mn216 O242 2.094 . S
Mn217 O222 2.121 . S
Mn217 N224 2.257 . S
Mn217 N233 2.282 . S
Mn217 O241 2.215 . S
Mn217 O243 2.117 . S
C218 O240 1.234 . S
C218 O241 1.283 . S
C219 O231 1.281 . S
C219 O232 1.236 . S
C220 O242 1.240 . S
C220 O243 1.264 . S
O221 Mn216 2.095 . S
O221 C230 1.250 . S
O222 Mn217 2.121 . S
O222 C230 1.258 . S
C223 N224 1.326 . S
C223 C227 1.460 . S
C223 H229 0.929 . S
N224 Mn217 2.257 . S
N224 C223 1.326 . S
N224 C228 1.362 . S
C225 C226 1.258 . S
C225 C228 1.431 . S
C225 C245 1.449 . S
C226 C225 1.258 . S
C226 C227 1.477 . S
C226 H246 0.931 . S
C227 C223 1.460 . S
C227 C226 1.477 . S
C227 H247 0.930 . S
C228 N224 1.362 . S
C228 C225 1.431 . S
C228 C238 1.476 . S
H229 C223 0.929 . S
C230 O221 1.250 . S
C230 O222 1.258 . S
O231 Mn216 2.162 . S
O231 C219 1.281 . S
O232 Mn216 2.297 . S
O232 C219 1.236 . S
N233 Mn217 2.282 . S
N233 C234 1.328 . S
N233 C238 1.318 . S
C234 N233 1.328 . S
C234 C235 1.457 . S
C234 H239 0.929 . S
C235 C234 1.457 . S
C235 C236 1.291 . S
C235 H248 0.931 . S
C236 C235 1.291 . S
C236 C237 1.373 . S
C236 H249 0.929 . S
C237 C236 1.373 . S
C237 C238 1.396 . S
C237 C244 1.403 . S
C238 C228 1.476 . S
C238 N233 1.318 . S
C238 C237 1.396 . S
H239 C234 0.929 . S
O240 Mn216 2.385 . S
O240 C218 1.234 . S
O241 Mn216 2.209 . S
O241 Mn217 2.215 . S
O241 C218 1.283 . S
O242 Mn216 2.094 . S
O242 C220 1.240 . S
O243 Mn217 2.117 . S
O243 C220 1.264 . S
C244 C237 1.403 . S
C244 C245 1.399 . S
C244 H250 0.929 . S
C245 C225 1.449 . S
C245 C244 1.399 . S
C245 H251 0.930 . S
H246 C226 0.931 . S
H247 C227 0.930 . S
H248 C235 0.931 . S
H249 C236 0.929 . S
H250 C244 0.929 . S
H251 C245 0.930 . S
Mn252 O257 2.095 . S
Mn252 O267 2.162 . S
Mn252 O268 2.297 . S
Mn252 O276 2.385 . S
Mn252 O277 2.209 . S
Mn252 O278 2.094 . S
Mn253 O258 2.121 . S
Mn253 N260 2.257 . S
Mn253 N269 2.282 . S
Mn253 O277 2.215 . S
Mn253 O279 2.117 . S
C254 O276 1.234 . S
C254 O277 1.283 . S
C255 O267 1.281 . S
C255 O268 1.236 . S
C256 O278 1.240 . S
C256 O279 1.264 . S
O257 Mn252 2.095 . S
O257 C266 1.250 . S
O258 Mn253 2.121 . S
O258 C266 1.258 . S
C259 N260 1.326 . S
C259 C263 1.460 . S
C259 H265 0.929 . S
N260 Mn253 2.257 . S
N260 C259 1.326 . S
N260 C264 1.362 . S
C261 C262 1.258 . S
C261 C264 1.431 . S
C261 C281 1.449 . S
C262 C261 1.258 . S
C262 C263 1.477 . S
C262 H282 0.931 . S
C263 C259 1.460 . S
C263 C262 1.477 . S
C263 H283 0.930 . S
C264 N260 1.362 . S
C264 C261 1.431 . S
C264 C274 1.476 . S
H265 C259 0.929 . S
C266 O257 1.250 . S
C266 O258 1.258 . S
O267 Mn252 2.162 . S
O267 C255 1.281 . S
O268 Mn252 2.297 . S
O268 C255 1.236 . S
N269 Mn253 2.282 . S
N269 C270 1.328 . S
N269 C274 1.318 . S
C270 N269 1.328 . S
C270 C271 1.457 . S
C270 H275 0.929 . S
C271 C270 1.457 . S
C271 C272 1.291 . S
C271 H284 0.931 . S
C272 C271 1.291 . S
C272 C273 1.373 . S
C272 H285 0.929 . S
C273 C272 1.373 . S
C273 C274 1.396 . S
C273 C280 1.403 . S
C274 C264 1.476 . S
C274 N269 1.318 . S
C274 C273 1.396 . S
H275 C270 0.929 . S
O276 Mn252 2.385 . S
O276 C254 1.234 . S
O277 Mn252 2.209 . S
O277 Mn253 2.215 . S
O277 C254 1.283 . S
O278 Mn252 2.094 . S
O278 C256 1.240 . S
O279 Mn253 2.117 . S
O279 C256 1.264 . S
C280 C273 1.403 . S
C280 C281 1.399 . S
C280 H286 0.929 . S
C281 C261 1.449 . S
C281 C280 1.399 . S
C281 H287 0.930 . S
H282 C262 0.931 . S
H283 C263 0.930 . S
H284 C271 0.931 . S
H285 C272 0.929 . S
H286 C280 0.929 . S
H287 C281 0.930 . S
C288 C289 1.386 . S
C288 C290 1.383 . S
C288 H304 0.951 1_554 S
C289 C288 1.386 . S
C289 C293 1.383 . S
C290 C288 1.383 . S
C290 C291 1.402 . S
C290 H305 0.951 1_554 S
C291 C290 1.402 . S
C291 C292 1.375 . S
C291 C294 1.481 . S
C292 C291 1.375 . S
C292 C293 1.367 . S
C292 H306 0.951 . S
C293 C289 1.383 . S
C293 C292 1.367 . S
C293 H307 0.950 . S
C294 C291 1.481 . S
C294 C295 1.297 1_545 S
C294 H308 0.950 . S
C295 C294 1.297 1_565 S
C295 C296 1.479 . S
C295 H309 0.950 . S
C296 C295 1.479 . S
C296 C297 1.387 . S
C296 C302 1.404 . S
C297 C296 1.387 . S
C297 C298 1.369 . S
C297 H310 0.938 1_554 S
C298 C297 1.369 . S
C298 C299 1.405 . S
C298 H311 0.938 1_554 S
C299 C298 1.405 . S
C299 C301 1.384 . S
H300 C302 0.949 . S
C301 C299 1.384 . S
C301 C302 1.385 . S
C301 H303 0.950 . S
C302 C296 1.404 . S
C302 H300 0.949 . S
C302 C301 1.385 . S
H303 C301 0.950 . S
H304 C288 0.951 1_556 S
H305 C290 0.951 1_556 S
H306 C292 0.951 . S
H307 C293 0.950 . S
H308 C294 0.950 . S
H309 C295 0.950 . S
H310 C297 0.938 1_556 S
H311 C298 0.938 1_556 S
C312 C313 1.386 . S
C312 C314 1.383 . S
C312 H328 0.951 . S
C313 C312 1.386 . S
C313 C317 1.383 . S
C314 C312 1.383 . S
C314 C315 1.402 . S
C314 H329 0.951 . S
C315 C314 1.402 . S
C315 C316 1.375 . S
C315 C318 1.481 . S
C316 C315 1.375 . S
C316 C317 1.367 . S
C316 H330 0.951 . S
C317 C313 1.383 . S
C317 C316 1.367 . S
C317 H331 0.950 . S
C318 C315 1.481 . S
C318 C319 1.297 . S
C318 H332 0.950 . S
C319 C318 1.297 . S
C319 C320 1.479 . S
C319 H333 0.950 . S
C320 C319 1.479 . S
C320 C321 1.375 . S
C320 C326 1.404 . S
C321 C320 1.375 . S
C321 C322 1.369 . S
C321 H334 0.950 . S
C322 C321 1.369 . S
C322 C323 1.392 . S
C322 H335 0.951 . S
C323 C322 1.392 . S
C323 C325 1.384 . S
H324 C326 0.949 . S
C325 C323 1.384 . S
C325 C326 1.385 . S
C325 H327 0.950 . S
C326 C320 1.404 . S
C326 H324 0.949 . S
C326 C325 1.385 . S
H327 C325 0.950 . S
H328 C312 0.951 . S
H329 C314 0.951 . S
H330 C316 0.951 . S
H331 C317 0.950 . S
H332 C318 0.950 . S
H333 C319 0.950 . S
H334 C321 0.950 . S
H335 C322 0.951 . S
C336 C337 1.386 . S
C336 C338 1.383 . S
C336 H352 0.951 . S
C337 C336 1.386 . S
C337 C341 1.383 . S
C338 C336 1.383 . S
C338 C339 1.402 . S
C338 H353 0.951 . S
C339 C338 1.402 . S
C339 C340 1.375 . S
C339 C342 1.481 1_565 S
C340 C339 1.375 . S
C340 C341 1.367 . S
C340 H354 0.951 1_556 S
C341 C337 1.383 . S
C341 C340 1.367 . S
C341 H355 0.950 1_556 S
C342 C339 1.481 1_545 S
C342 C343 1.297 . S
C342 H356 0.950 . S
C343 C342 1.297 . S
C343 C344 1.479 . S
C343 H357 0.950 1_545 S
C344 C343 1.479 . S
C344 C345 1.375 . S
C344 C350 1.404 . S
C345 C344 1.375 . S
C345 C346 1.369 . S
C345 H358 0.950 . S
C346 C345 1.369 . S
C346 C347 1.392 . S
C346 H359 0.951 . S
C347 C346 1.392 . S
C347 C349 1.384 . S
H348 C350 0.949 . S
C349 C347 1.384 . S
C349 C350 1.385 . S
C349 H351 0.950 1_556 S
C350 C344 1.404 . S
C350 H348 0.949 . S
C350 C349 1.385 . S
H351 C349 0.950 1_554 S
H352 C336 0.951 . S
H353 C338 0.951 . S
H354 C340 0.951 1_554 S
H355 C341 0.950 1_554 S
H356 C342 0.950 . S
H357 C343 0.950 1_565 S
H358 C345 0.950 . S
H359 C346 0.951 . S
C360 C361 1.386 . S
C360 C362 1.383 . S
C360 H376 0.951 . S
C361 C360 1.386 . S
C361 C365 1.383 . S
C362 C360 1.383 . S
C362 C363 1.402 . S
C362 H377 0.951 . S
C363 C362 1.402 . S
C363 C364 1.375 . S
C363 C366 1.481 . S
C364 C363 1.375 . S
C364 C365 1.367 . S
C364 H378 0.951 . S
C365 C361 1.383 . S
C365 C364 1.367 . S
C365 H379 0.950 . S
C366 C363 1.481 . S
C366 C367 1.297 . S
C366 H380 0.950 . S
C367 C366 1.297 . S
C367 C368 1.479 . S
C367 H381 0.950 . S
C368 C367 1.479 . S
C368 C369 1.375 . S
C368 C374 1.404 . S
C369 C368 1.375 . S
C369 C370 1.369 . S
C369 H382 0.950 . S
C370 C369 1.369 . S
C370 C371 1.392 . S
C370 H383 0.951 . S
C371 C370 1.392 . S
C371 C373 1.384 . S
H372 C374 0.949 . S
C373 C371 1.384 . S
C373 C374 1.385 . S
C373 H375 0.950 . S
C374 C368 1.404 . S
C374 H372 0.949 . S
C374 C373 1.385 . S
H375 C373 0.950 . S
H376 C360 0.951 . S
H377 C362 0.951 . S
H378 C364 0.951 . S
H379 C365 0.950 . S
H380 C366 0.950 . S
H381 C367 0.950 . S
H382 C369 0.950 . S
H383 C370 0.951 . S
C384 C385 1.386 . S
C384 C386 1.383 . S
C384 H400 0.951 . S
C385 C384 1.386 . S
C385 C389 1.383 . S
C386 C384 1.383 . S
C386 C387 1.402 . S
C386 H401 0.951 . S
C387 C386 1.402 . S
C387 C388 1.375 . S
C387 C390 1.481 . S
C388 C387 1.375 . S
C388 C389 1.367 . S
C388 H402 0.951 . S
C389 C385 1.383 . S
C389 C388 1.367 . S
C389 H403 0.950 . S
C390 C387 1.481 . S
C390 C391 1.297 . S
C390 H404 0.950 . S
C391 C390 1.297 . S
C391 C392 1.479 . S
C391 H405 0.950 . S
C392 C391 1.479 . S
C392 C393 1.375 . S
C392 C398 1.404 . S
C393 C392 1.375 . S
C393 C394 1.369 . S
C393 H406 0.950 . S
C394 C393 1.369 . S
C394 C395 1.392 . S
C394 H407 0.951 . S
C395 C394 1.392 . S
C395 C397 1.384 . S
H396 C398 0.949 . S
C397 C395 1.384 . S
C397 C398 1.385 . S
C397 H399 0.950 . S
C398 C392 1.404 . S
C398 H396 0.949 . S
C398 C397 1.385 . S
H399 C397 0.950 . S
H400 C384 0.951 . S
H401 C386 0.951 . S
H402 C388 0.951 . S
H403 C389 0.950 . S
H404 C390 0.950 . S
H405 C391 0.950 . S
H406 C393 0.950 . S
H407 C394 0.951 . S
C408 C409 1.386 . S
C408 C410 1.383 . S
C408 H424 0.951 . S
C409 C408 1.386 . S
C409 C413 1.383 . S
C410 C408 1.383 . S
C410 C411 1.402 . S
C410 H425 0.951 . S
C411 C410 1.402 . S
C411 C412 1.375 . S
C411 C414 1.481 . S
C412 C411 1.375 . S
C412 C413 1.367 . S
C412 H426 0.951 . S
C413 C409 1.383 . S
C413 C412 1.367 . S
C413 H427 0.950 . S
C414 C411 1.481 . S
C414 C415 1.297 . S
C414 H428 0.950 . S
C415 C414 1.297 . S
C415 C416 1.479 . S
C415 H429 0.950 . S
C416 C415 1.479 . S
C416 C417 1.375 . S
C416 C422 1.404 . S
C417 C416 1.375 . S
C417 C418 1.369 . S
C417 H430 0.950 . S
C418 C417 1.369 . S
C418 C419 1.392 . S
C418 H431 0.951 . S
C419 C418 1.392 . S
C419 C421 1.384 . S
H420 C422 0.949 . S
C421 C419 1.384 . S
C421 C422 1.385 . S
C421 H423 0.950 . S
C422 C416 1.404 . S
C422 H420 0.949 . S
C422 C421 1.385 . S
H423 C421 0.950 . S
H424 C408 0.951 . S
H425 C410 0.951 . S
H426 C412 0.951 . S
H427 C413 0.950 . S
H428 C414 0.950 . S
H429 C415 0.950 . S
H430 C417 0.950 . S
H431 C418 0.951 . S
C432 C433 1.386 . S
C432 C434 1.383 . S
C432 H448 0.951 . S
C433 C432 1.386 . S
C433 C437 1.383 . S
C434 C432 1.383 . S
C434 C435 1.402 . S
C434 H449 0.951 . S
C435 C434 1.402 . S
C435 C436 1.375 . S
C435 C438 1.481 . S
C436 C435 1.375 . S
C436 C437 1.367 . S
C436 H450 0.951 . S
C437 C433 1.383 . S
C437 C436 1.367 . S
C437 H451 0.950 . S
C438 C435 1.481 . S
C438 C439 1.297 . S
C438 H452 0.950 . S
C439 C438 1.297 . S
C439 C440 1.479 . S
C439 H453 0.950 . S
C440 C439 1.479 . S
C440 C441 1.375 . S
C440 C446 1.404 . S
C441 C440 1.375 . S
C441 C442 1.369 . S
C441 H454 0.950 . S
C442 C441 1.369 . S
C442 C443 1.392 . S
C442 H455 0.951 . S
C443 C442 1.392 . S
C443 C445 1.384 . S
H444 C446 0.949 . S
C445 C443 1.384 . S
C445 C446 1.385 . S
C445 H447 0.950 . S
C446 C440 1.404 . S
C446 H444 0.949 . S
C446 C445 1.385 . S
H447 C445 0.950 . S
H448 C432 0.951 . S
H449 C434 0.951 . S
H450 C436 0.951 . S
H451 C437 0.950 . S
H452 C438 0.950 . S
H453 C439 0.950 . S
H454 C441 0.950 . S
H455 C442 0.951 . S
C456 C457 1.386 . S
C456 C458 1.383 . S
C456 H472 0.951 . S
C457 C456 1.386 . S
C457 C461 1.383 . S
C458 C456 1.383 . S
C458 C459 1.402 . S
C458 H473 0.951 . S
C459 C458 1.402 . S
C459 C460 1.375 . S
C459 C462 1.481 . S
C460 C459 1.375 . S
C460 C461 1.367 . S
C460 H474 0.951 . S
C461 C457 1.383 . S
C461 C460 1.367 . S
C461 H475 0.950 . S
C462 C459 1.481 . S
C462 C463 1.297 . S
C462 H476 0.950 . S
C463 C462 1.297 . S
C463 C464 1.479 . S
C463 H477 0.950 . S
C464 C463 1.479 . S
C464 C465 1.375 . S
C464 C470 1.404 . S
C465 C464 1.375 . S
C465 C466 1.369 . S
C465 H478 0.950 . S
C466 C465 1.369 . S
C466 C467 1.392 . S
C466 H479 0.951 . S
C467 C466 1.392 . S
C467 C469 1.384 . S
H468 C470 0.949 . S
C469 C467 1.384 . S
C469 C470 1.385 . S
C469 H471 0.950 . S
C470 C464 1.404 . S
C470 H468 0.949 . S
C470 C469 1.385 . S
H471 C469 0.950 . S
H472 C456 0.951 . S
H473 C458 0.951 . S
H474 C460 0.951 . S
H475 C461 0.950 . S
H476 C462 0.950 . S
H477 C463 0.950 . S
H478 C465 0.950 . S
H479 C466 0.951 . S
C480 C481 1.386 1_556 S
C480 C482 1.383 . S
C480 H496 0.951 . S
C481 C480 1.386 1_554 S
C481 C485 1.383 . S
C482 C480 1.383 . S
C482 C483 1.402 1_556 S
C482 H497 0.951 . S
C483 C482 1.402 1_554 S
C483 C484 1.375 . S
C483 C486 1.481 . S
C484 C483 1.375 . S
C484 C485 1.367 . S
C484 H498 0.951 . S
C485 C481 1.383 . S
C485 C484 1.367 . S
C485 H499 0.950 . S
C486 C483 1.481 . S
C486 C487 1.297 1_554 S
C486 H500 0.950 . S
C487 C486 1.297 1_556 S
C487 C488 1.479 . S
C487 H501 0.950 . S
C488 C487 1.479 . S
C488 C489 1.375 . S
C488 C494 1.404 1_556 S
C489 C488 1.375 . S
C489 C490 1.369 . S
C489 H502 0.950 . S
C490 C489 1.369 . S
C490 C491 1.392 . S
C490 H503 0.951 . S
C491 C490 1.392 . S
C491 C493 1.384 1_556 S
H492 C494 0.949 . S
C493 C491 1.384 1_554 S
C493 C494 1.385 . S
C493 H495 0.950 . S
C494 C488 1.404 1_554 S
C494 H492 0.949 . S
C494 C493 1.385 . S
H495 C493 0.950 . S
H496 C480 0.951 . S
H497 C482 0.951 . S
H498 C484 0.951 . S
H499 C485 0.950 . S
H500 C486 0.950 . S
H501 C487 0.950 . S
H502 C489 0.950 . S
H503 C490 0.951 . S
C504 C505 1.386 1_556 S
C504 C506 1.383 . S
C504 H520 0.951 . S
C505 C504 1.386 1_554 S
C505 C509 1.383 . S
C506 C504 1.383 . S
C506 C507 1.402 1_556 S
C506 H521 0.951 . S
C507 C506 1.402 1_554 S
C507 C508 1.375 . S
C507 C510 1.481 . S
C508 C507 1.375 . S
C508 C509 1.367 . S
C508 H522 0.951 . S
C509 C505 1.383 . S
C509 C508 1.367 . S
C509 H523 0.950 . S
C510 C507 1.481 . S
C510 C511 1.284 1_454 S
C510 H524 0.950 . S
C511 C510 1.284 1_656 S
C511 C512 1.492 . S
C511 H525 0.952 . S
C512 C511 1.492 . S
C512 C513 1.375 . S
C512 C518 1.404 1_556 S
C513 C512 1.375 . S
C513 C514 1.369 . S
C513 H526 0.950 . S
C514 C513 1.369 . S
C514 C515 1.392 . S
C514 H527 0.951 . S
C515 C514 1.392 . S
C515 C517 1.384 1_556 S
H516 C518 0.981 . S
C517 C515 1.384 1_554 S
C517 C518 1.385 . S
C517 H519 0.950 . S
C518 C512 1.404 1_554 S
C518 H516 0.981 . S
C518 C517 1.385 . S
H519 C517 0.950 . S
H520 C504 0.951 . S
H521 C506 0.951 . S
H522 C508 0.951 . S
H523 C509 0.950 . S
H524 C510 0.950 . S
H525 C511 0.952 . S
H526 C513 0.950 . S
H527 C514 0.951 . S
C528 C529 1.386 . S
C528 C530 1.383 . S
C528 H544 0.951 . S
C529 C528 1.386 . S
C529 C533 1.383 . S
C530 C528 1.383 . S
C530 C531 1.402 . S
C530 H545 0.951 . S
C531 C530 1.402 . S
C531 C532 1.375 . S
C531 C534 1.481 . S
C532 C531 1.375 . S
C532 C533 1.367 . S
C532 H546 0.951 . S
C533 C529 1.383 . S
C533 C532 1.367 . S
C533 H547 0.950 . S
C534 C531 1.481 . S
C534 C535 1.297 1_565 S
C534 H548 0.950 . S
C535 C534 1.297 1_545 S
C535 C536 1.479 . S
C535 H549 0.950 . S
C536 C535 1.479 . S
C536 C537 1.375 . S
C536 C542 1.404 . S
C537 C536 1.375 . S
C537 C538 1.369 . S
C537 H550 0.950 . S
C538 C537 1.369 . S
C538 C539 1.392 . S
C538 H551 0.951 . S
C539 C538 1.392 . S
C539 C541 1.384 . S
H540 C542 0.949 . S
C541 C539 1.384 . S
C541 C542 1.385 . S
C541 H543 0.950 . S
C542 C536 1.404 . S
C542 H540 0.949 . S
C542 C541 1.385 . S
H543 C541 0.950 . S
H544 C528 0.951 . S
H545 C530 0.951 . S
H546 C532 0.951 . S
H547 C533 0.950 . S
H548 C534 0.950 . S
H549 C535 0.950 . S
H550 C537 0.950 . S
H551 C538 0.951 . S
C552 C553 1.386 . S
C552 C554 1.383 . S
C552 H568 0.951 . S
C553 C552 1.386 . S
C553 C557 1.383 . S
C554 C552 1.383 . S
C554 C555 1.402 . S
C554 H569 0.951 . S
C555 C554 1.402 . S
C555 C556 1.375 . S
C555 C558 1.481 . S
C556 C555 1.375 . S
C556 C557 1.367 . S
C556 H570 0.951 . S
C557 C553 1.383 . S
C557 C556 1.367 . S
C557 H571 0.950 . S
C558 C555 1.481 . S
C558 C559 1.297 1_545 S
C558 H572 0.950 1_655 S
C559 C558 1.297 1_565 S
C559 C560 1.479 1_655 S
C559 H573 0.950 . S
C560 C559 1.479 1_455 S
C560 C561 1.375 . S
C560 C566 1.404 . S
C561 C560 1.375 . S
C561 C562 1.369 . S
C561 H574 0.950 . S
C562 C561 1.369 . S
C562 C563 1.392 . S
C562 H575 0.951 . S
C563 C562 1.392 . S
C563 C565 1.384 . S
H564 C566 0.949 . S
C565 C563 1.384 . S
C565 C566 1.385 . S
C565 H567 0.950 . S
C566 C560 1.404 . S
C566 H564 0.949 . S
C566 C565 1.385 . S
H567 C565 0.950 . S
H568 C552 0.951 . S
H569 C554 0.951 . S
H570 C556 0.951 . S
H571 C557 0.950 . S
H572 C558 0.950 1_455 S
H573 C559 0.950 . S
H574 C561 0.950 . S
H575 C562 0.951 . S
C576 C577 1.386 . S
C576 C578 1.383 . S
C576 H592 0.951 1_554 S
C577 C576 1.386 . S
C577 C581 1.383 . S
C578 C576 1.383 . S
C578 C579 1.402 . S
C578 H593 0.951 . S
C579 C578 1.402 . S
C579 C580 1.375 . S
C579 C582 1.481 . S
C580 C579 1.375 . S
C580 C581 1.367 . S
C580 H594 0.951 . S
C581 C577 1.383 . S
C581 C580 1.367 . S
C581 H595 0.950 . S
C582 C579 1.481 . S
C582 C583 1.297 . S
C582 H596 0.950 . S
C583 C582 1.297 . S
C583 C584 1.479 . S
C583 H597 0.950 . S
C584 C583 1.479 . S
C584 C585 1.375 . S
C584 C590 1.404 . S
C585 C584 1.375 . S
C585 C586 1.369 . S
C585 H598 0.950 1_554 S
C586 C585 1.369 . S
C586 C587 1.392 . S
C586 H599 0.951 1_554 S
C587 C586 1.392 . S
C587 C589 1.384 . S
H588 C590 0.949 . S
C589 C587 1.384 . S
C589 C590 1.385 . S
C589 H591 0.950 . S
C590 C584 1.404 . S
C590 H588 0.949 . S
C590 C589 1.385 . S
H591 C589 0.950 . S
H592 C576 0.951 1_556 S
H593 C578 0.951 . S
H594 C580 0.951 . S
H595 C581 0.950 . S
H596 C582 0.950 . S
H597 C583 0.950 . S
H598 C585 0.950 1_556 S
H599 C586 0.951 1_556 S
C600 C601 1.386 . S
C600 C602 1.383 . S
C600 H616 0.951 . S
C601 C600 1.386 . S
C601 C605 1.383 . S
C602 C600 1.383 . S
C602 C603 1.402 . S
C602 H617 0.951 . S
C603 C602 1.402 . S
C603 C604 1.375 . S
C603 C606 1.481 . S
C604 C603 1.375 . S
C604 C605 1.367 . S
C604 H618 0.951 . S
C605 C601 1.383 . S
C605 C604 1.367 . S
C605 H619 0.950 . S
C606 C603 1.481 . S
C606 C607 1.297 1_545 S
C606 H620 0.950 . S
C607 C606 1.297 1_565 S
C607 C608 1.479 . S
C607 H621 0.950 . S
C608 C607 1.479 . S
C608 C609 1.375 . S
C608 C614 1.404 . S
C609 C608 1.375 . S
C609 C610 1.369 . S
C609 H622 0.950 . S
C610 C609 1.369 . S
C610 C611 1.392 . S
C610 H623 0.951 . S
C611 C610 1.392 . S
C611 C613 1.384 . S
H612 C614 0.949 . S
C613 C611 1.384 . S
C613 C614 1.385 . S
C613 H615 0.950 . S
C614 C608 1.404 . S
C614 H612 0.949 . S
C614 C613 1.385 . S
H615 C613 0.950 . S
H616 C600 0.951 . S
H617 C602 0.951 . S
H618 C604 0.951 . S
H619 C605 0.950 . S
H620 C606 0.950 . S
H621 C607 0.950 . S
H622 C609 0.950 . S
H623 C610 0.951 . S
C624 C625 1.386 . S
C624 C626 1.383 . S
C624 H640 0.951 . S
C625 C624 1.386 . S
C625 C629 1.383 1_556 S
C626 C624 1.383 . S
C626 C627 1.402 . S
C626 H641 0.951 . S
C627 C626 1.402 . S
C627 C628 1.375 1_556 S
C627 C630 1.481 . S
C628 C627 1.375 1_554 S
C628 C629 1.367 . S
C628 H642 0.951 . S
C629 C625 1.383 1_554 S
C629 C628 1.367 . S
C629 H643 0.950 . S
C630 C627 1.481 . S
C630 C631 1.297 . S
C630 H644 0.950 1_556 S
C631 C630 1.297 . S
C631 C632 1.479 . S
C631 H645 0.950 . S
C632 C631 1.479 . S
C632 C633 1.375 . S
C632 C638 1.404 . S
C633 C632 1.375 . S
C633 C634 1.369 . S
C633 H646 0.950 . S
C634 C633 1.369 . S
C634 C635 1.392 . S
C634 H647 0.951 . S
C635 C634 1.392 . S
C635 C637 1.392 . S
H636 C638 0.949 1_554 S
C637 C635 1.392 . S
C637 C638 1.385 . S
C637 H639 0.942 1_556 S
C638 C632 1.404 . S
C638 H636 0.949 1_556 S
C638 C637 1.385 . S
H639 C637 0.942 1_554 S
H640 C624 0.951 . S
H641 C626 0.951 . S
H642 C628 0.951 . S
H643 C629 0.950 . S
H644 C630 0.950 1_554 S
H645 C631 0.950 . S
H646 C633 0.950 . S
H647 C634 0.951 . S
C648 C649 1.386 . S
C648 C650 1.383 . S
C648 H664 0.951 . S
C649 C648 1.386 . S
C649 C653 1.383 . S
C650 C648 1.383 . S
C650 C651 1.402 . S
C650 H665 0.951 . S
C651 C650 1.402 . S
C651 C652 1.375 . S
C651 C654 1.481 . S
C652 C651 1.375 . S
C652 C653 1.367 . S
C652 H666 0.951 . S
C653 C649 1.383 . S
C653 C652 1.367 . S
C653 H667 0.950 . S
C654 C651 1.481 . S
C654 C655 1.297 1_565 S
C654 H668 0.950 . S
C655 C654 1.297 1_545 S
C655 C656 1.479 . S
C655 H669 0.950 . S
C656 C655 1.479 . S
C656 C657 1.375 . S
C656 C662 1.404 . S
C657 C656 1.375 . S
C657 C658 1.369 . S
C657 H670 0.950 . S
C658 C657 1.369 . S
C658 C659 1.392 . S
C658 H671 0.951 . S
C659 C658 1.392 . S
C659 C661 1.384 . S
H660 C662 0.949 . S
C661 C659 1.384 . S
C661 C662 1.385 . S
C661 H663 0.950 . S
C662 C656 1.404 . S
C662 H660 0.949 . S
C662 C661 1.385 . S
H663 C661 0.950 . S
H664 C648 0.951 . S
H665 C650 0.951 . S
H666 C652 0.951 . S
H667 C653 0.950 . S
H668 C654 0.950 . S
H669 C655 0.950 . S
H670 C657 0.950 . S
H671 C658 0.951 . S
C289 C4 1.420 . S
C299 C40 1.371 . S
C313 C112 1.416 . S
C323 C76 1.447 . S
C337 C148 1.458 . S
C347 C184 1.366 . S
C361 C220 1.461 . S
C371 C256 1.370 . S
C385 C14 1.500 . S
C395 C86 1.544 . S
C409 C122 1.479 . S
C419 C50 1.437 . S
C433 C158 1.494 . S
C443 C230 1.438 . S
C457 C266 1.502 . S
C467 C194 1.546 . S
C481 C3 1.360 . S
C491 C147 1.400 . S
C505 C39 1.363 . S
C515 C183 1.379 . S
C529 C219 1.387 . S
C539 C75 1.407 . S
C553 C255 1.399 . S
C563 C111 1.387 . S
C577 C38 0.905 . S
C587 C2 0.907 . S
C601 C74 0.915 . S
C611 C110 0.904 . S
C625 C146 0.912 . S
C635 C182 0.912 . S
C649 C218 0.905 . S
C659 C254 0.898 . S
