# Generated by pormake.
# Topology uoy, (4)-cn, num edge types: 1
# Building blocks:
#     Node 0, Type 0, BuildingBlock: GALJAG_clean_sbu_0, # of connection points: 4
#     Node 1, Type 0, BuildingBlock: GALJAG_clean_sbu_0, # of connection points: 4
#     Node 2, Type 0, BuildingBlock: GALJAG_clean_sbu_0, # of connection points: 4
#     Node 3, Type 0, BuildingBlock: GALJAG_clean_sbu_0, # of connection points: 4
#     Node 4, Type 0, BuildingBlock: GALJAG_clean_sbu_0, # of connection points: 4
#     Node 5, Type 0, BuildingBlock: GALJAG_clean_sbu_0, # of connection points: 4
#     Node 6, Type 0, BuildingBlock: GALJAG_clean_sbu_0, # of connection points: 4
#     Node 7, Type 0, BuildingBlock: GALJAG_clean_sbu_0, # of connection points: 4
#     Node 8, Type 0, BuildingBlock: GALJAG_clean_sbu_0, # of connection points: 4
#     Node 9, Type 0, BuildingBlock: GALJAG_clean_sbu_0, # of connection points: 4
#     Node 10, Type 0, BuildingBlock: GALJAG_clean_sbu_0, # of connection points: 4
#     Node 11, Type 0, BuildingBlock: GALJAG_clean_sbu_0, # of connection points: 4
#     Node 12, Type 0, BuildingBlock: GALJAG_clean_sbu_0, # of connection points: 4
#     Node 13, Type 0, BuildingBlock: GALJAG_clean_sbu_0, # of connection points: 4
#     Node 14, Type 0, BuildingBlock: GALJAG_clean_sbu_0, # of connection points: 4
#     Node 15, Type 0, BuildingBlock: GALJAG_clean_sbu_0, # of connection points: 4
#     Edge 16, Type (0, 0), BuildingBlock: MIFKUJ_clean_linker_0, # of connection points: 2
#     Edge 17, Type (0, 0), BuildingBlock: MIFKUJ_clean_linker_0, # of connection points: 2
#     Edge 18, Type (0, 0), BuildingBlock: MIFKUJ_clean_linker_0, # of connection points: 2
#     Edge 19, Type (0, 0), BuildingBlock: MIFKUJ_clean_linker_0, # of connection points: 2
#     Edge 20, Type (0, 0), BuildingBlock: MIFKUJ_clean_linker_0, # of connection points: 2
#     Edge 21, Type (0, 0), BuildingBlock: MIFKUJ_clean_linker_0, # of connection points: 2
#     Edge 22, Type (0, 0), BuildingBlock: MIFKUJ_clean_linker_0, # of connection points: 2
#     Edge 23, Type (0, 0), BuildingBlock: MIFKUJ_clean_linker_0, # of connection points: 2
#     Edge 24, Type (0, 0), BuildingBlock: MIFKUJ_clean_linker_0, # of connection points: 2
#     Edge 25, Type (0, 0), BuildingBlock: MIFKUJ_clean_linker_0, # of connection points: 2
#     Edge 26, Type (0, 0), BuildingBlock: MIFKUJ_clean_linker_0, # of connection points: 2
#     Edge 27, Type (0, 0), BuildingBlock: MIFKUJ_clean_linker_0, # of connection points: 2
#     Edge 28, Type (0, 0), BuildingBlock: MIFKUJ_clean_linker_0, # of connection points: 2
#     Edge 29, Type (0, 0), BuildingBlock: MIFKUJ_clean_linker_0, # of connection points: 2
#     Edge 30, Type (0, 0), BuildingBlock: MIFKUJ_clean_linker_0, # of connection points: 2
#     Edge 31, Type (0, 0), BuildingBlock: MIFKUJ_clean_linker_0, # of connection points: 2
#     Edge 32, Type (0, 0), BuildingBlock: MIFKUJ_clean_linker_0, # of connection points: 2
#     Edge 33, Type (0, 0), BuildingBlock: MIFKUJ_clean_linker_0, # of connection points: 2
#     Edge 34, Type (0, 0), BuildingBlock: MIFKUJ_clean_linker_0, # of connection points: 2
#     Edge 35, Type (0, 0), BuildingBlock: MIFKUJ_clean_linker_0, # of connection points: 2
#     Edge 36, Type (0, 0), BuildingBlock: MIFKUJ_clean_linker_0, # of connection points: 2
#     Edge 37, Type (0, 0), BuildingBlock: MIFKUJ_clean_linker_0, # of connection points: 2
#     Edge 38, Type (0, 0), BuildingBlock: MIFKUJ_clean_linker_0, # of connection points: 2
#     Edge 39, Type (0, 0), BuildingBlock: MIFKUJ_clean_linker_0, # of connection points: 2
#     Edge 40, Type (0, 0), BuildingBlock: MIFKUJ_clean_linker_0, # of connection points: 2
#     Edge 41, Type (0, 0), BuildingBlock: MIFKUJ_clean_linker_0, # of connection points: 2
#     Edge 42, Type (0, 0), BuildingBlock: MIFKUJ_clean_linker_0, # of connection points: 2
#     Edge 43, Type (0, 0), BuildingBlock: MIFKUJ_clean_linker_0, # of connection points: 2
#     Edge 44, Type (0, 0), BuildingBlock: MIFKUJ_clean_linker_0, # of connection points: 2
#     Edge 45, Type (0, 0), BuildingBlock: MIFKUJ_clean_linker_0, # of connection points: 2
#     Edge 46, Type (0, 0), BuildingBlock: MIFKUJ_clean_linker_0, # of connection points: 2
#     Edge 47, Type (0, 0), BuildingBlock: MIFKUJ_clean_linker_0, # of connection points: 2
# Relax obj value: 0.037
# Max RMSD: 0.056
# Mean RMSD: 0.056
data_MOF--net-uoy--node1-GALJAG_clean_sbu_0--edge1-MIFKUJ_clean_linker_0
_symmetry_space_group_name_H-M    P1
_symmetry_Int_Tables_number       1
_symmetry_cell_setting            triclinic
loop_
_symmetry_equiv_pos_as_xyz
'x, y, z'
_cell_length_a     35.796347
_cell_length_b     35.788409
_cell_length_c     142.83442
_cell_angle_alpha  90.003537
_cell_angle_beta   90.00453
_cell_angle_gamma 90.011704
loop_
_atom_site_label
_atom_site_type_symbol
_atom_site_fract_x
_atom_site_fract_y
_atom_site_fract_z
_atom_type_partial_charge
In0 In 0.24449 0.11661 0.18595 0.0
O1 O 0.24361 0.17153 0.17775 0.0
O2 O 0.24177 0.12061 0.17009 0.0
C3 C 0.24892 0.14123 0.20378 0.0
C4 C 0.17676 0.08331 0.18576 0.0
C5 C 0.31288 0.08554 0.18439 0.0
O6 O 0.24409 0.1632 0.19697 0.0
O7 O 0.25096 0.10717 0.20159 0.0
O8 O 0.28337 0.06617 0.18462 0.0
O9 O 0.30774 0.12036 0.18487 0.0
C10 C 0.24219 0.15584 0.16984 0.0
O11 O 0.20676 0.0652 0.18474 0.0
O12 O 0.18102 0.11799 0.1869 0.0
In13 In 0.88563 0.75655 0.4354 0.0
O14 O 0.93711 0.71856 0.43475 0.0
O15 O 0.88513 0.69411 0.43844 0.0
C16 C 0.92195 0.82147 0.43239 0.0
C17 C 0.8463 0.751 0.41933 0.0
C18 C 0.85677 0.7677 0.45269 0.0
O19 O 0.93857 0.7922 0.43508 0.0
O20 O 0.88726 0.81773 0.4311 0.0
O21 O 0.83948 0.74953 0.44648 0.0
O22 O 0.88816 0.77997 0.45018 0.0
C23 C 0.91948 0.68928 0.43694 0.0
O24 O 0.83185 0.7626 0.42686 0.0
O25 O 0.8803 0.74213 0.41995 0.0
In26 In 0.25047 0.38152 0.68626 0.0
O27 O 0.2565 0.32793 0.67766 0.0
O28 O 0.2499 0.37919 0.67034 0.0
C29 C 0.24583 0.35374 0.70379 0.0
C30 C 0.31757 0.41621 0.68645 0.0
C31 C 0.18179 0.41223 0.68512 0.0
O32 O 0.24932 0.33294 0.6967 0.0
O33 O 0.24501 0.38824 0.70201 0.0
O34 O 0.2112 0.43172 0.68547 0.0
O35 O 0.18712 0.37738 0.68527 0.0
C36 C 0.25409 0.34426 0.66985 0.0
O37 O 0.28732 0.43373 0.6853 0.0
O38 O 0.31388 0.38144 0.68749 0.0
In39 In 0.61486 0.74874 0.93572 0.0
O40 O 0.56315 0.78629 0.93476 0.0
O41 O 0.61452 0.81116 0.93881 0.0
C42 C 0.58245 0.68162 0.93288 0.0
C43 C 0.65396 0.75558 0.91965 0.0
C44 C 0.64223 0.73833 0.95316 0.0
O45 O 0.56373 0.71061 0.93477 0.0
O46 O 0.61727 0.6867 0.93233 0.0
O47 O 0.66163 0.75248 0.94668 0.0
O48 O 0.60931 0.72993 0.95085 0.0
C49 C 0.58028 0.8157 0.93709 0.0
O50 O 0.6694 0.74793 0.92736 0.0
O51 O 0.61905 0.75993 0.92008 0.0
In52 In 0.25123 0.38383 0.06485 0.0
O53 O 0.24554 0.33115 0.07378 0.0
O54 O 0.25268 0.38307 0.08078 0.0
C55 C 0.25431 0.35265 0.04764 0.0
C56 C 0.18326 0.41636 0.06465 0.0
C57 C 0.31868 0.41772 0.06565 0.0
O58 O 0.26114 0.33438 0.055 0.0
O59 O 0.24556 0.38636 0.04898 0.0
O60 O 0.28846 0.43568 0.06638 0.0
O61 O 0.31473 0.38304 0.06451 0.0
C62 C 0.24842 0.3482 0.08149 0.0
O63 O 0.21314 0.43493 0.0639 0.0
O64 O 0.18777 0.38155 0.06549 0.0
In65 In 0.61503 0.74548 0.31466 0.0
O66 O 0.56296 0.70842 0.3151 0.0
O67 O 0.61611 0.68194 0.31512 0.0
C68 C 0.58104 0.8128 0.3147 0.0
C69 C 0.65251 0.74536 0.33109 0.0
C70 C 0.64479 0.74776 0.2973 0.0
O71 O 0.56339 0.78278 0.31616 0.0
O72 O 0.61553 0.80872 0.31324 0.0
O73 O 0.66345 0.75555 0.30455 0.0
O74 O 0.61141 0.73825 0.29884 0.0
C75 C 0.58108 0.67815 0.31527 0.0
O76 O 0.66778 0.73642 0.32345 0.0
O77 O 0.61856 0.75428 0.33042 0.0
In78 In 0.25091 0.11419 0.56514 0.0
O79 O 0.25092 0.1681 0.57372 0.0
O80 O 0.26004 0.11683 0.58089 0.0
C81 C 0.24178 0.14263 0.54776 0.0
C82 C 0.31936 0.08272 0.56426 0.0
C83 C 0.18455 0.07932 0.56743 0.0
O84 O 0.24548 0.16315 0.55489 0.0
O85 O 0.24306 0.10805 0.54941 0.0
O86 O 0.21419 0.0618 0.56552 0.0
O87 O 0.18852 0.11417 0.56822 0.0
C88 C 0.25688 0.15187 0.58143 0.0
O89 O 0.29025 0.06414 0.56607 0.0
O90 O 0.31389 0.11709 0.56285 0.0
In91 In 0.88329 0.75646 0.81489 0.0
O92 O 0.83029 0.76443 0.82361 0.0
O93 O 0.88144 0.75461 0.83078 0.0
C94 C 0.85369 0.75104 0.79753 0.0
C95 C 0.91597 0.82438 0.81524 0.0
C96 C 0.91777 0.68937 0.81565 0.0
O97 O 0.83524 0.7432 0.80479 0.0
O98 O 0.88654 0.76211 0.79904 0.0
O99 O 0.93554 0.71946 0.8144 0.0
O100 O 0.88298 0.6933 0.81655 0.0
C101 C 0.84676 0.76043 0.83138 0.0
O102 O 0.93443 0.79442 0.81597 0.0
O103 O 0.88117 0.81998 0.81433 0.0
In104 In 0.75064 0.61669 0.68666 0.0
O105 O 0.71169 0.56618 0.687 0.0
O106 O 0.68717 0.62031 0.68646 0.0
C107 C 0.81725 0.58117 0.68605 0.0
C108 C 0.74834 0.65194 0.66995 0.0
C109 C 0.7553 0.64762 0.70389 0.0
O110 O 0.78661 0.56368 0.68584 0.0
O111 O 0.8141 0.61617 0.68654 0.0
O112 O 0.76359 0.66537 0.69654 0.0
O113 O 0.74411 0.61467 0.70252 0.0
C114 C 0.6821 0.58542 0.68675 0.0
O115 O 0.74516 0.66919 0.67762 0.0
O116 O 0.75254 0.61709 0.67072 0.0
In117 In 0.38127 0.24971 0.93666 0.0
O118 O 0.32774 0.24548 0.92796 0.0
O119 O 0.37926 0.25225 0.92076 0.0
C120 C 0.35128 0.25255 0.954 0.0
C121 C 0.41287 0.18131 0.93658 0.0
C122 C 0.41684 0.31629 0.93578 0.0
O123 O 0.3332 0.26187 0.94678 0.0
O124 O 0.38411 0.24143 0.95245 0.0
O125 O 0.43377 0.28568 0.93463 0.0
O126 O 0.38243 0.31311 0.93743 0.0
C127 C 0.34427 0.24879 0.92019 0.0
O128 O 0.43172 0.21089 0.93761 0.0
O129 O 0.37818 0.18631 0.93557 0.0
In130 In 0.74414 0.88189 0.18639 0.0
O131 O 0.7517 0.8292 0.17752 0.0
O132 O 0.74203 0.88059 0.17048 0.0
C133 C 0.74011 0.85092 0.20363 0.0
C134 C 0.81208 0.91431 0.18621 0.0
C135 C 0.67756 0.91744 0.18573 0.0
O136 O 0.72974 0.83384 0.19635 0.0
O137 O 0.75287 0.88323 0.2022 0.0
O138 O 0.7082 0.93492 0.18583 0.0
O139 O 0.68067 0.88238 0.18597 0.0
C140 C 0.74786 0.84595 0.1698 0.0
O141 O 0.78218 0.93308 0.18642 0.0
O142 O 0.8076 0.87931 0.18613 0.0
In143 In 0.11845 0.25536 0.43679 0.0
O144 O 0.06733 0.29362 0.43705 0.0
O145 O 0.12112 0.31883 0.43654 0.0
C146 C 0.08689 0.187 0.43546 0.0
C147 C 0.15647 0.25734 0.42049 0.0
C148 C 0.1438 0.25276 0.45455 0.0
O149 O 0.06863 0.21663 0.43398 0.0
O150 O 0.12067 0.192 0.4376 0.0
O151 O 0.1655 0.25043 0.44759 0.0
O152 O 0.10976 0.25683 0.45251 0.0
C153 C 0.08619 0.32346 0.43681 0.0
O154 O 0.17279 0.2582 0.42834 0.0
O155 O 0.12134 0.2556 0.42093 0.0
In156 In 0.7516 0.88028 0.56492 0.0
O157 O 0.71436 0.9322 0.56461 0.0
O158 O 0.68802 0.879 0.56474 0.0
C159 C 0.8198 0.91145 0.56679 0.0
C160 C 0.74951 0.8416 0.58113 0.0
C161 C 0.75608 0.85574 0.54709 0.0
O162 O 0.79004 0.93007 0.56771 0.0
O163 O 0.81505 0.87724 0.56501 0.0
O164 O 0.75001 0.83377 0.55385 0.0
O165 O 0.75929 0.88963 0.54935 0.0
C166 C 0.68413 0.91401 0.56459 0.0
O167 O 0.75123 0.82556 0.57326 0.0
O168 O 0.74873 0.87679 0.58077 0.0
In169 In 0.11921 0.25675 0.81473 0.0
O170 O 0.06777 0.21874 0.81486 0.0
O171 O 0.12129 0.19313 0.81485 0.0
C172 C 0.087 0.32495 0.81527 0.0
C173 C 0.15575 0.25731 0.83128 0.0
C174 C 0.14751 0.258 0.79722 0.0
O175 O 0.06847 0.29517 0.81628 0.0
O176 O 0.12157 0.32023 0.81405 0.0
O177 O 0.16809 0.256 0.80439 0.0
O178 O 0.11294 0.25893 0.79891 0.0
C179 C 0.08634 0.18874 0.81491 0.0
O180 O 0.17269 0.25685 0.82352 0.0
O181 O 0.12061 0.25745 0.83065 0.0
In182 In 0.75074 0.61829 0.06487 0.0
O183 O 0.75012 0.67309 0.07319 0.0
O184 O 0.75976 0.62244 0.08057 0.0
C185 C 0.74162 0.64312 0.04716 0.0
C186 C 0.81814 0.5845 0.06386 0.0
C187 C 0.6835 0.58583 0.06741 0.0
O188 O 0.75343 0.66416 0.05362 0.0
O189 O 0.73488 0.61002 0.04965 0.0
O190 O 0.71307 0.56708 0.06626 0.0
O191 O 0.68803 0.62082 0.06741 0.0
C192 C 0.75629 0.65746 0.08097 0.0
O193 O 0.78866 0.56697 0.06592 0.0
O194 O 0.81351 0.61883 0.06226 0.0
In195 In 0.38037 0.24519 0.31499 0.0
O196 O 0.32705 0.24687 0.32379 0.0
O197 O 0.37935 0.24751 0.33088 0.0
C198 C 0.35274 0.23978 0.29744 0.0
C199 C 0.41239 0.3135 0.31499 0.0
C200 C 0.41319 0.17754 0.31628 0.0
O201 O 0.33177 0.24275 0.30452 0.0
O202 O 0.38719 0.24003 0.29925 0.0
O203 O 0.43173 0.20726 0.31518 0.0
O204 O 0.37831 0.18207 0.31681 0.0
C205 C 0.34419 0.24786 0.33152 0.0
O206 O 0.43116 0.28379 0.31578 0.0
O207 O 0.37765 0.30867 0.31416 0.0
H208 H 0.25093 0.37988 0.09883 0.0
H209 H 0.2487 0.34823 0.11399 0.0
H210 H 0.24087 0.24166 0.09999 0.0
H211 H 0.24238 0.27326 0.08479 0.0
H212 H 0.19256 0.24558 0.11426 0.0
H213 H 0.32306 0.27147 0.10979 0.0
H214 H 0.3779 0.31115 0.10656 0.0
H215 H 0.35354 0.37745 0.13086 0.0
H216 H 0.29823 0.33846 0.13416 0.0
H217 H 0.23881 0.1273 0.15219 0.0
H218 H 0.23854 0.16157 0.13741 0.0
H219 H 0.24366 0.26588 0.1525 0.0
H220 H 0.24439 0.23162 0.16736 0.0
H221 H 0.29224 0.26472 0.13793 0.0
H222 H 0.16255 0.23754 0.14262 0.0
H223 H 0.10791 0.19757 0.14582 0.0
H224 H 0.13097 0.13336 0.12109 0.0
H225 H 0.18609 0.17263 0.11781 0.0
C226 C 0.24874 0.34969 0.09898 0.0
C227 C 0.24697 0.329 0.09063 0.0
C228 C 0.24761 0.33164 0.10765 0.0
C229 C 0.2451 0.29254 0.10812 0.0
C230 C 0.24288 0.27185 0.09979 0.0
C231 C 0.24385 0.28992 0.09111 0.0
C232 C 0.24462 0.27321 0.11731 0.0
C233 C 0.2146 0.24939 0.11939 0.0
C234 C 0.27289 0.27895 0.1241 0.0
C235 C 0.30629 0.30226 0.12217 0.0
C236 C 0.32924 0.29468 0.1144 0.0
C237 C 0.36043 0.31702 0.11256 0.0
C238 C 0.36914 0.34687 0.11848 0.0
C239 C 0.34673 0.35436 0.12627 0.0
C240 C 0.31548 0.33212 0.12813 0.0
C241 C 0.23978 0.15754 0.15237 0.0
C242 C 0.2415 0.17681 0.16093 0.0
C243 C 0.23948 0.17709 0.14391 0.0
C244 C 0.24063 0.21629 0.14385 0.0
C245 C 0.24265 0.23562 0.15239 0.0
C246 C 0.24296 0.21605 0.16087 0.0
C247 C 0.24029 0.23694 0.13485 0.0
C248 C 0.27015 0.26101 0.13281 0.0
C249 C 0.2119 0.23139 0.12809 0.0
C250 C 0.17865 0.20784 0.13002 0.0
C251 C 0.15614 0.21472 0.1379 0.0
C252 C 0.12505 0.19222 0.13973 0.0
C253 C 0.11602 0.16289 0.13368 0.0
C254 C 0.13802 0.15607 0.12578 0.0
C255 C 0.16916 0.17846 0.12393 0.0
H256 H 0.09194 0.1455 0.1351 0.0
H257 H 0.39329 0.36414 0.11705 0.0
H258 H 0.77504 0.77453 0.41575 0.0
H259 H 0.74181 0.77257 0.40078 0.0
H260 H 0.83733 0.72013 0.38785 0.0
H261 H 0.87091 0.72276 0.40273 0.0
H262 H 0.81146 0.77449 0.37709 0.0
H263 H 0.75769 0.6702 0.39348 0.0
H264 H 0.72608 0.63855 0.40661 0.0
H265 H 0.63082 0.71022 0.40327 0.0
H266 H 0.66207 0.74263 0.39019 0.0
H267 H 0.72316 0.72018 0.33469 0.0
H268 H 0.75584 0.71999 0.34974 0.0
H269 H 0.66007 0.77113 0.36288 0.0
H270 H 0.62696 0.77046 0.34791 0.0
H271 H 0.68614 0.71703 0.37354 0.0
H272 H 0.73989 0.82173 0.3573 0.0
H273 H 0.77139 0.85375 0.3442 0.0
H274 H 0.86655 0.7818 0.34732 0.0
H275 H 0.83541 0.74902 0.36037 0.0
C276 C 0.78885 0.76244 0.40972 0.0
C277 C 0.82553 0.74875 0.41041 0.0
C278 C 0.7698 0.7612 0.40118 0.0
C279 C 0.78694 0.74585 0.39321 0.0
C280 C 0.82355 0.73211 0.39391 0.0
C281 C 0.84266 0.73353 0.40242 0.0
C282 C 0.76713 0.74483 0.38408 0.0
C283 C 0.78427 0.76146 0.37628 0.0
C284 C 0.73127 0.72864 0.38307 0.0
C285 C 0.71237 0.70906 0.39091 0.0
C286 C 0.73011 0.67939 0.39559 0.0
C287 C 0.71224 0.66128 0.40302 0.0
C288 C 0.67651 0.67243 0.40579 0.0
C289 C 0.65852 0.70164 0.40112 0.0
C290 C 0.67629 0.71987 0.39369 0.0
C291 C 0.70913 0.73141 0.34079 0.0
C292 C 0.67257 0.74543 0.34013 0.0
C293 C 0.72786 0.73143 0.34938 0.0
C294 C 0.71059 0.746 0.35742 0.0
C295 C 0.67397 0.75976 0.35677 0.0
C296 C 0.65513 0.75947 0.34821 0.0
C297 C 0.73048 0.74669 0.36655 0.0
C298 C 0.71334 0.73002 0.37434 0.0
C299 C 0.76633 0.7629 0.36756 0.0
C300 C 0.78517 0.7827 0.35975 0.0
C301 C 0.76742 0.81257 0.35515 0.0
C302 C 0.78523 0.83088 0.34774 0.0
C303 C 0.82091 0.81975 0.34492 0.0
C304 C 0.8389 0.79036 0.34951 0.0
C305 C 0.8212 0.77193 0.35691 0.0
H306 H 0.83464 0.83396 0.33918 0.0
H307 H 0.66272 0.65837 0.41154 0.0
H308 H 0.24314 0.22581 0.58472 0.0
H309 H 0.24455 0.25835 0.59978 0.0
H310 H 0.27746 0.15607 0.6135 0.0
H311 H 0.27519 0.12324 0.5985 0.0
H312 H 0.224 0.18947 0.62309 0.0
H313 H 0.34031 0.22807 0.60935 0.0
H314 H 0.38078 0.25482 0.59709 0.0
H315 H 0.32222 0.35923 0.59902 0.0
H316 H 0.28107 0.33295 0.61122 0.0
H317 H 0.27135 0.27084 0.66685 0.0
H318 H 0.27404 0.23798 0.65183 0.0
H319 H 0.24248 0.33937 0.63752 0.0
H320 H 0.24084 0.37256 0.65246 0.0
H321 H 0.29643 0.30581 0.6283 0.0
H322 H 0.17929 0.26706 0.64172 0.0
H323 H 0.13834 0.24048 0.6539 0.0
H324 H 0.19796 0.13653 0.65248 0.0
H325 H 0.23959 0.16266 0.64036 0.0
C326 C 0.25086 0.21034 0.59094 0.0
C327 C 0.25911 0.17202 0.59044 0.0
C328 C 0.25181 0.22898 0.59954 0.0
C329 C 0.26153 0.20975 0.60777 0.0
C330 C 0.26989 0.17149 0.60725 0.0
C331 C 0.26869 0.15279 0.59867 0.0
C332 C 0.26201 0.2292 0.61695 0.0
C333 C 0.24028 0.21461 0.62427 0.0
C334 C 0.28253 0.2625 0.61843 0.0
C335 C 0.3074 0.27842 0.61114 0.0
C336 C 0.3359 0.25665 0.60711 0.0
C337 C 0.35898 0.27174 0.60018 0.0
C338 C 0.35402 0.30867 0.59726 0.0
C339 C 0.32601 0.33062 0.60129 0.0
C340 C 0.30283 0.31565 0.60821 0.0
C341 C 0.265 0.28608 0.66049 0.0
C342 C 0.25576 0.32421 0.66082 0.0
C343 C 0.26639 0.26726 0.65192 0.0
C344 C 0.25794 0.28608 0.64355 0.0
C345 C 0.24908 0.32426 0.64388 0.0
C346 C 0.24805 0.34316 0.65243 0.0
C347 C 0.25837 0.26611 0.63443 0.0
C348 C 0.28023 0.28061 0.62712 0.0
C349 C 0.23792 0.23275 0.63296 0.0
C350 C 0.21277 0.21694 0.6402 0.0
C351 C 0.18383 0.23862 0.64405 0.0
C352 C 0.16047 0.22362 0.65093 0.0
C353 C 0.16561 0.18687 0.65398 0.0
C354 C 0.19405 0.165 0.65012 0.0
C355 C 0.21751 0.17988 0.64324 0.0
H356 H 0.1475 0.17531 0.65931 0.0
H357 H 0.37191 0.3203 0.59189 0.0
H358 H 0.87676 0.75066 0.84873 0.0
H359 H 0.84437 0.75161 0.86378 0.0
H360 H 0.74016 0.77398 0.84969 0.0
H361 H 0.77253 0.77342 0.83456 0.0
H362 H 0.74906 0.81762 0.86522 0.0
H363 H 0.759 0.68744 0.85752 0.0
H364 H 0.79164 0.62961 0.85293 0.0
H365 H 0.85944 0.63585 0.87768 0.0
H366 H 0.82755 0.69405 0.88235 0.0
H367 H 0.62594 0.77151 0.90237 0.0
H368 H 0.65979 0.7744 0.88754 0.0
H369 H 0.76274 0.74911 0.90192 0.0
H370 H 0.72886 0.74568 0.9168 0.0
H371 H 0.75523 0.70765 0.88632 0.0
H372 H 0.74466 0.83725 0.8942 0.0
H373 H 0.71212 0.89512 0.8988 0.0
H374 H 0.6457 0.89018 0.8738 0.0
H375 H 0.67749 0.83195 0.8691 0.0
C376 C 0.84695 0.75585 0.84883 0.0
C377 C 0.82713 0.76181 0.84047 0.0
C378 C 0.82847 0.75626 0.85744 0.0
C379 C 0.78979 0.76243 0.85784 0.0
C380 C 0.77002 0.76909 0.84952 0.0
C381 C 0.78851 0.76866 0.84089 0.0
C382 C 0.77001 0.76166 0.86697 0.0
C383 C 0.74998 0.79342 0.86979 0.0
C384 C 0.77201 0.73039 0.87301 0.0
C385 C 0.79114 0.69531 0.87024 0.0
C386 C 0.78107 0.67665 0.86194 0.0
C387 C 0.7994 0.64377 0.85933 0.0
C388 C 0.82766 0.62911 0.86499 0.0
C389 C 0.83758 0.64726 0.87329 0.0
C390 C 0.81937 0.68018 0.87593 0.0
C391 C 0.65582 0.76672 0.90238 0.0
C392 C 0.67479 0.75843 0.91075 0.0
C393 C 0.67516 0.76855 0.89391 0.0
C394 C 0.71386 0.76238 0.89363 0.0
C395 C 0.73288 0.75404 0.90197 0.0
C396 C 0.71353 0.75219 0.91047 0.0
C397 C 0.73425 0.76363 0.88459 0.0
C398 C 0.75437 0.73192 0.88178 0.0
C399 C 0.73234 0.79496 0.87856 0.0
C400 C 0.71323 0.83004 0.88134 0.0
C401 C 0.72291 0.84833 0.88972 0.0
C402 C 0.70464 0.88123 0.89233 0.0
C403 C 0.6768 0.89627 0.88661 0.0
C404 C 0.66724 0.87847 0.87823 0.0
C405 C 0.6854 0.84554 0.87559 0.0
H406 H 0.66269 0.92174 0.88865 0.0
H407 H 0.84181 0.60365 0.86296 0.0
H408 H 0.75146 0.7659 0.5839 0.0
H409 H 0.75086 0.7326 0.5989 0.0
H410 H 0.74493 0.8378 0.61358 0.0
H411 H 0.74602 0.87115 0.59867 0.0
H412 H 0.79535 0.79266 0.62148 0.0
H413 H 0.66802 0.78228 0.61115 0.0
H414 H 0.61732 0.76629 0.60017 0.0
H415 H 0.65124 0.65122 0.6006 0.0
H416 H 0.7025 0.66664 0.61149 0.0
H417 H 0.74309 0.72686 0.66647 0.0
H418 H 0.74303 0.75803 0.65121 0.0
H419 H 0.75204 0.65113 0.63744 0.0
H420 H 0.75184 0.61979 0.65266 0.0
H421 H 0.70078 0.69577 0.62895 0.0
H422 H 0.8276 0.70617 0.63947 0.0
H423 H 0.87809 0.72228 0.6505 0.0
H424 H 0.84492 0.83754 0.64972 0.0
H425 H 0.79387 0.82202 0.63878 0.0
C426 C 0.74997 0.78187 0.59033 0.0
C427 C 0.74871 0.82111 0.59012 0.0
C428 C 0.74949 0.76284 0.59889 0.0
C429 C 0.74752 0.78272 0.60736 0.0
C430 C 0.74647 0.82189 0.60714 0.0
C431 C 0.74698 0.8409 0.59861 0.0
C432 C 0.74698 0.76287 0.61649 0.0
C433 C 0.77439 0.77181 0.62315 0.0
C434 C 0.72017 0.73503 0.61859 0.0
C435 C 0.68934 0.72569 0.61206 0.0
C436 C 0.66486 0.75363 0.60884 0.0
C437 C 0.63599 0.74466 0.60265 0.0
C438 C 0.63113 0.70778 0.59967 0.0
C439 C 0.65508 0.67978 0.6029 0.0
C440 C 0.68403 0.68862 0.60909 0.0
C441 C 0.745 0.71002 0.66019 0.0
C442 C 0.74761 0.67091 0.66076 0.0
C443 C 0.74509 0.72785 0.65148 0.0
C444 C 0.74792 0.7069 0.64319 0.0
C445 C 0.74989 0.66782 0.64374 0.0
C446 C 0.74988 0.64998 0.65245 0.0
C447 C 0.749 0.72576 0.63395 0.0
C448 C 0.72175 0.71661 0.62726 0.0
C449 C 0.77593 0.75344 0.63182 0.0
C450 C 0.80668 0.76287 0.63838 0.0
C451 C 0.83088 0.73491 0.64171 0.0
C452 C 0.85963 0.74394 0.64794 0.0
C453 C 0.86465 0.78089 0.65083 0.0
C454 C 0.84097 0.80891 0.64749 0.0
C455 C 0.81214 0.80002 0.64127 0.0
H456 H 0.88693 0.78783 0.65565 0.0
H457 H 0.60875 0.70089 0.59487 0.0
H458 H 0.37494 0.25123 0.90275 0.0
H459 H 0.34239 0.25313 0.88773 0.0
H460 H 0.23634 0.24998 0.90208 0.0
H461 H 0.26886 0.24725 0.91716 0.0
H462 H 0.23586 0.20428 0.88735 0.0
H463 H 0.27058 0.33156 0.89286 0.0
H464 H 0.31369 0.38321 0.89661 0.0
H465 H 0.37825 0.35853 0.87205 0.0
H466 H 0.33584 0.30636 0.86822 0.0
H467 H 0.12446 0.25829 0.84866 0.0
H468 H 0.15647 0.25757 0.86377 0.0
H469 H 0.26301 0.25556 0.84966 0.0
H470 H 0.23109 0.25673 0.83448 0.0
H471 H 0.26268 0.30456 0.86431 0.0
H472 H 0.22733 0.1765 0.85904 0.0
H473 H 0.1835 0.12528 0.85546 0.0
H474 H 0.11883 0.15268 0.87983 0.0
H475 H 0.162 0.20442 0.88348 0.0
C476 C 0.34468 0.2509 0.90271 0.0
C477 C 0.32442 0.24924 0.91113 0.0
C478 C 0.32611 0.25217 0.89412 0.0
C479 C 0.28691 0.25229 0.89378 0.0
C480 C 0.2666 0.25003 0.90218 0.0
C481 C 0.28519 0.24855 0.91078 0.0
C482 C 0.26719 0.25454 0.88466 0.0
C483 C 0.24133 0.22651 0.88237 0.0
C484 C 0.27489 0.28315 0.87808 0.0
C485 C 0.3002 0.31481 0.8803 0.0
C486 C 0.29412 0.33698 0.88829 0.0
C487 C 0.31841 0.36637 0.89043 0.0
C488 C 0.34874 0.37408 0.88459 0.0
C489 C 0.35477 0.35249 0.87658 0.0
C490 C 0.33059 0.32303 0.87441 0.0
C491 C 0.15471 0.25773 0.84877 0.0
C492 C 0.17529 0.25738 0.84039 0.0
C493 C 0.17295 0.25721 0.85741 0.0
C494 C 0.21211 0.25606 0.85784 0.0
C495 C 0.23276 0.25637 0.84948 0.0
C496 C 0.21451 0.25691 0.84083 0.0
C497 C 0.23144 0.25427 0.86702 0.0
C498 C 0.25721 0.28238 0.86931 0.0
C499 C 0.22352 0.22586 0.87362 0.0
C500 C 0.19771 0.19455 0.87148 0.0
C501 C 0.20361 0.17177 0.86359 0.0
C502 C 0.17891 0.14262 0.86156 0.0
C503 C 0.14834 0.13579 0.8674 0.0
C504 C 0.14249 0.15803 0.8753 0.0
C505 C 0.16708 0.18725 0.87737 0.0
H506 H 0.12924 0.11322 0.86581 0.0
H507 H 0.36753 0.39683 0.88626 0.0
H508 H 0.76802 0.62853 0.09834 0.0
H509 H 0.76865 0.66171 0.11327 0.0
H510 H 0.74944 0.76592 0.09889 0.0
H511 H 0.74908 0.7328 0.08384 0.0
H512 H 0.80235 0.77244 0.11291 0.0
H513 H 0.67826 0.72344 0.10945 0.0
H514 H 0.63107 0.6746 0.10655 0.0
H515 H 0.67023 0.61327 0.13045 0.0
H516 H 0.71805 0.66151 0.13342 0.0
H517 H 0.74258 0.87716 0.15244 0.0
H518 H 0.74631 0.84557 0.1373 0.0
H519 H 0.76242 0.74 0.15131 0.0
H520 H 0.75836 0.77145 0.16652 0.0
H521 H 0.71144 0.73472 0.13738 0.0
H522 H 0.83509 0.78371 0.14101 0.0
H523 H 0.88226 0.83248 0.14403 0.0
H524 H 0.8444 0.89363 0.11997 0.0
H525 H 0.79659 0.84549 0.11689 0.0
C526 C 0.76409 0.65853 0.09834 0.0
C527 C 0.75825 0.67806 0.08992 0.0
C528 C 0.76436 0.67743 0.10688 0.0
C529 C 0.75862 0.71619 0.1072 0.0
C530 C 0.75384 0.73597 0.09879 0.0
C531 C 0.75352 0.71703 0.09022 0.0
C532 C 0.75666 0.73575 0.11634 0.0
C533 C 0.78216 0.76458 0.11822 0.0
C534 C 0.73085 0.72487 0.12333 0.0
C535 C 0.70196 0.69592 0.1216 0.0
C536 C 0.677 0.6994 0.11405 0.0
C537 C 0.65011 0.67184 0.1124 0.0
C538 C 0.64771 0.6408 0.1183 0.0
C539 C 0.67215 0.6373 0.12588 0.0
C540 C 0.69913 0.66476 0.12755 0.0
C541 C 0.74697 0.84722 0.1523 0.0
C542 C 0.75023 0.82675 0.16066 0.0
C543 C 0.74927 0.82924 0.14364 0.0
C544 C 0.75505 0.7905 0.14318 0.0
C545 C 0.75803 0.76994 0.15152 0.0
C546 C 0.75578 0.78793 0.16019 0.0
C547 C 0.75721 0.77135 0.13399 0.0
C548 C 0.73168 0.7426 0.13209 0.0
C549 C 0.78304 0.7823 0.12699 0.0
C550 C 0.812 0.81115 0.12877 0.0
C551 C 0.83662 0.80769 0.13641 0.0
C552 C 0.86351 0.83521 0.13812 0.0
C553 C 0.86626 0.86618 0.13221 0.0
C554 C 0.8422 0.86965 0.12455 0.0
C555 C 0.81522 0.84224 0.12281 0.0
H556 H 0.88707 0.88746 0.13355 0.0
H557 H 0.62687 0.6195 0.11701 0.0
H558 H 0.12617 0.25838 0.40303 0.0
H559 H 0.15887 0.25763 0.38804 0.0
H560 H 0.26476 0.25611 0.40246 0.0
H561 H 0.23208 0.2575 0.41756 0.0
H562 H 0.2657 0.30401 0.38774 0.0
H563 H 0.22933 0.17669 0.39304 0.0
H564 H 0.18519 0.12586 0.39672 0.0
H565 H 0.12063 0.15287 0.37231 0.0
H566 H 0.1641 0.20424 0.36855 0.0
H567 H 0.37583 0.24906 0.34887 0.0
H568 H 0.34413 0.25131 0.364 0.0
H569 H 0.23732 0.25238 0.35 0.0
H570 H 0.26894 0.24956 0.3348 0.0
H571 H 0.23743 0.20451 0.3646 0.0
H572 H 0.27357 0.33191 0.35931 0.0
H573 H 0.31747 0.38297 0.35564 0.0
H574 H 0.38233 0.35594 0.38 0.0
H575 H 0.33911 0.30435 0.38375 0.0
C576 C 0.15643 0.25796 0.40302 0.0
C577 C 0.17659 0.25778 0.41147 0.0
C578 C 0.17507 0.2574 0.39445 0.0
C579 C 0.21424 0.25625 0.39413 0.0
C580 C 0.23451 0.25687 0.40255 0.0
C581 C 0.21583 0.25756 0.41116 0.0
C582 C 0.23388 0.25411 0.385 0.0
C583 C 0.25994 0.28197 0.38273 0.0
C584 C 0.22569 0.22579 0.37839 0.0
C585 C 0.1998 0.19454 0.38056 0.0
C586 C 0.20559 0.17195 0.38849 0.0
C587 C 0.1807 0.14302 0.39059 0.0
C588 C 0.15006 0.13621 0.38477 0.0
C589 C 0.14434 0.15821 0.37682 0.0
C590 C 0.16912 0.18722 0.37469 0.0
C591 C 0.34559 0.24981 0.349 0.0
C592 C 0.32484 0.24927 0.34065 0.0
C593 C 0.32752 0.25124 0.35766 0.0
C594 C 0.28837 0.25248 0.35813 0.0
C595 C 0.26756 0.25152 0.34979 0.0
C596 C 0.28564 0.25002 0.34112 0.0
C597 C 0.26919 0.25447 0.36732 0.0
C598 C 0.24322 0.22655 0.36961 0.0
C599 C 0.27747 0.28273 0.37394 0.0
C600 C 0.30328 0.31402 0.37176 0.0
C601 C 0.29734 0.33668 0.36385 0.0
C602 C 0.32208 0.36574 0.36176 0.0
C603 C 0.35272 0.37263 0.36757 0.0
C604 C 0.35861 0.35055 0.3755 0.0
C605 C 0.33398 0.32141 0.37762 0.0
H606 H 0.37186 0.39512 0.36593 0.0
H607 H 0.1308 0.11383 0.38641 0.0
H608 H 0.24091 0.21224 0.21066 0.0
H609 H 0.25227 0.23346 0.22673 0.0
H610 H 0.28031 0.12071 0.23483 0.0
H611 H 0.26795 0.09929 0.21892 0.0
H612 H 0.24142 0.15128 0.24811 0.0
H613 H 0.34816 0.18731 0.22974 0.0
H614 H 0.38101 0.21839 0.21671 0.0
H615 H 0.33999 0.32492 0.22597 0.0
H616 H 0.30652 0.29437 0.239 0.0
H617 H 0.39334 0.2258 0.28176 0.0
H618 H 0.37031 0.21356 0.266 0.0
H619 H 0.25714 0.23101 0.27545 0.0
H620 H 0.28011 0.24228 0.29138 0.0
H621 H 0.33449 0.2518 0.25344 0.0
H622 H 0.19895 0.17328 0.26317 0.0
H623 H 0.17339 0.13548 0.27613 0.0
H624 H 0.28436 0.10271 0.28407 0.0
H625 H 0.3105 0.13992 0.27109 0.0
C626 C 0.24919 0.19199 0.2159 0.0
C627 C 0.25372 0.15415 0.21353 0.0
C628 C 0.2558 0.20415 0.22507 0.0
C629 C 0.2676 0.17876 0.23197 0.0
C630 C 0.27115 0.14082 0.22964 0.0
C631 C 0.26422 0.12863 0.22053 0.0
C632 C 0.27768 0.19156 0.24154 0.0
C633 C 0.26155 0.17348 0.24927 0.0
C634 C 0.30439 0.2201 0.24308 0.0
C635 C 0.3245 0.23852 0.23527 0.0
C636 C 0.34593 0.21733 0.22895 0.0
C637 C 0.36469 0.23485 0.22158 0.0
C638 C 0.36249 0.2736 0.22049 0.0
C639 C 0.3416 0.29491 0.2268 0.0
C640 C 0.32275 0.27751 0.23419 0.0
C641 C 0.36354 0.2272 0.28049 0.0
C642 C 0.33849 0.23476 0.28782 0.0
C643 C 0.35042 0.22035 0.27145 0.0
C644 C 0.31197 0.22102 0.26954 0.0
C645 C 0.2869 0.22976 0.27679 0.0
C646 C 0.30003 0.23632 0.28588 0.0
C647 C 0.29848 0.21129 0.26001 0.0
C648 C 0.3139 0.23002 0.25228 0.0
C649 C 0.27207 0.18247 0.25847 0.0
C650 C 0.25665 0.15976 0.26624 0.0
C651 C 0.21785 0.15794 0.26768 0.0
C652 C 0.20328 0.13662 0.27502 0.0
C653 C 0.22725 0.11683 0.28094 0.0
C654 C 0.26584 0.11818 0.27951 0.0
C655 C 0.28054 0.13941 0.27216 0.0
H656 H 0.21591 0.10037 0.28663 0.0
H657 H 0.37704 0.28711 0.21478 0.0
H658 H 0.80448 0.72668 0.46218 0.0
H659 H 0.78358 0.7358 0.47837 0.0
H660 H 0.85397 0.83346 0.48056 0.0
H661 H 0.8763 0.8231 0.46465 0.0
H662 H 0.86222 0.79615 0.49531 0.0
H663 H 0.75336 0.83505 0.47797 0.0
H664 H 0.70172 0.82805 0.46667 0.0
H665 H 0.65888 0.73505 0.48234 0.0
H666 H 0.71056 0.74124 0.49368 0.0
H667 H 0.78174 0.89664 0.53244 0.0
H668 H 0.79444 0.87538 0.51652 0.0
H669 H 0.75457 0.76528 0.5236 0.0
H670 H 0.74227 0.78625 0.53972 0.0
H671 H 0.72916 0.80038 0.50497 0.0
H672 H 0.83855 0.76806 0.52311 0.0
H673 H 0.8888 0.78146 0.53444 0.0
H674 H 0.92934 0.86981 0.51682 0.0
H675 H 0.87895 0.85731 0.50545 0.0
C676 C 0.81525 0.75015 0.46614 0.0
C677 C 0.84202 0.77415 0.46219 0.0
C678 C 0.80318 0.75548 0.47537 0.0
C679 C 0.81688 0.78557 0.4807 0.0
C680 C 0.84311 0.8099 0.47665 0.0
C681 C 0.85578 0.80406 0.46753 0.0
C682 C 0.80512 0.79145 0.4906 0.0
C683 C 0.83306 0.79731 0.49736 0.0
C684 C 0.76711 0.79207 0.49341 0.0
C685 C 0.73606 0.78833 0.4866 0.0
C686 C 0.73309 0.81293 0.47896 0.0
C687 C 0.70378 0.80915 0.47256 0.0
C688 C 0.67711 0.78105 0.47377 0.0
C689 C 0.67961 0.75675 0.4814 0.0
C690 C 0.70888 0.7604 0.48782 0.0
C691 C 0.77536 0.86796 0.53061 0.0
C692 C 0.76117 0.84303 0.53733 0.0
C693 C 0.78264 0.8559 0.52152 0.0
C694 C 0.77553 0.8188 0.51893 0.0
C695 C 0.76014 0.79405 0.5255 0.0
C696 C 0.7533 0.80601 0.53468 0.0
C697 C 0.78623 0.80591 0.50947 0.0
C698 C 0.75822 0.7987 0.50285 0.0
C699 C 0.82411 0.80475 0.50672 0.0
C700 C 0.8548 0.81192 0.51347 0.0
C701 C 0.85801 0.79053 0.52169 0.0
C702 C 0.88654 0.79793 0.52811 0.0
C703 C 0.9122 0.82652 0.52636 0.0
C704 C 0.90944 0.84769 0.51817 0.0
C705 C 0.88092 0.84043 0.51173 0.0
H706 H 0.93426 0.83223 0.53134 0.0
H707 H 0.65444 0.77816 0.46881 0.0
H708 H 0.2284 0.39297 0.71949 0.0
H709 H 0.21959 0.36906 0.73531 0.0
H710 H 0.24628 0.25778 0.72578 0.0
H711 H 0.25398 0.28153 0.70979 0.0
H712 H 0.18882 0.25455 0.73671 0.0
H713 H 0.30856 0.30943 0.73932 0.0
H714 H 0.35708 0.35784 0.73757 0.0
H715 H 0.29497 0.43137 0.7555 0.0
H716 H 0.24578 0.38362 0.75726 0.0
H717 H 0.22046 0.25325 0.79157 0.0
H718 H 0.24484 0.26039 0.77563 0.0
H719 H 0.13273 0.27752 0.76537 0.0
H720 H 0.10829 0.26941 0.78117 0.0
H721 H 0.24433 0.31727 0.7644 0.0
H722 H 0.12232 0.24787 0.7435 0.0
H723 H 0.07898 0.19474 0.74522 0.0
H724 H 0.15594 0.1407 0.76389 0.0
H725 H 0.19999 0.19322 0.76218 0.0
C726 C 0.23262 0.36343 0.72076 0.0
C727 C 0.24198 0.33912 0.71341 0.0
C728 C 0.2278 0.34981 0.72983 0.0
C729 C 0.2329 0.31169 0.73179 0.0
C730 C 0.24233 0.28732 0.72445 0.0
C731 C 0.2468 0.30091 0.71533 0.0
C732 C 0.22672 0.29736 0.74143 0.0
C733 C 0.20117 0.26808 0.74276 0.0
C734 C 0.24369 0.31419 0.74934 0.0
C735 C 0.27336 0.34297 0.74837 0.0
C736 C 0.30512 0.336 0.74285 0.0
C737 C 0.33276 0.36332 0.74186 0.0
C738 C 0.32908 0.39768 0.74641 0.0
C739 C 0.29778 0.40475 0.75198 0.0
C740 C 0.27004 0.37754 0.75299 0.0
C741 C 0.20105 0.25813 0.78589 0.0
C742 C 0.16247 0.26066 0.7876 0.0
C743 C 0.215 0.26228 0.77679 0.0
C744 C 0.19061 0.26902 0.76927 0.0
C745 C 0.15208 0.27148 0.771 0.0
C746 C 0.13813 0.26706 0.78006 0.0
C747 C 0.20527 0.27551 0.75967 0.0
C748 C 0.2324 0.30334 0.75835 0.0
C749 C 0.19057 0.2566 0.75178 0.0
C750 C 0.16436 0.22466 0.75276 0.0
C751 C 0.1301 0.22456 0.74793 0.0
C752 C 0.10538 0.19457 0.74892 0.0
C753 C 0.11466 0.16441 0.75468 0.0
C754 C 0.14873 0.16414 0.75945 0.0
C755 C 0.17357 0.19404 0.75848 0.0
H756 H 0.09547 0.14123 0.75543 0.0
H757 H 0.3505 0.4188 0.74563 0.0
H758 H 0.69979 0.60905 0.03385 0.0
H759 H 0.68938 0.62889 0.01776 0.0
H760 H 0.76012 0.72496 0.02224 0.0
H761 H 0.76921 0.70592 0.0386 0.0
H762 H 0.70335 0.74533 0.01235 0.0
H763 H 0.79016 0.64615 0.00945 0.0
H764 H 0.8172 0.58364 0.01203 0.0
H765 H 0.7218 0.533 0.99895 0.0
H766 H 0.69391 0.59517 0.9964 0.0
H767 H 0.70382 0.76907 0.96156 0.0
H768 H 0.7271 0.75664 0.97746 0.0
H769 H 0.63732 0.67826 0.98187 0.0
H770 H 0.61346 0.69114 0.96616 0.0
H771 H 0.71405 0.65282 0.98661 0.0
H772 H 0.62631 0.75557 0.99132 0.0
H773 H 0.60314 0.81943 0.98843 0.0
H774 H 0.70801 0.86477 0.99761 0.0
H775 H 0.73198 0.80108 1.00042 0.0
C776 C 0.7132 0.63438 0.03141 0.0
C777 C 0.73555 0.65581 0.03745 0.0
C778 C 0.70743 0.64559 0.02218 0.0
C779 C 0.72475 0.67793 0.01868 0.0
C780 C 0.74668 0.69976 0.02475 0.0
C781 C 0.75191 0.68887 0.03408 0.0
C782 C 0.71909 0.68896 0.00873 0.0
C783 C 0.70647 0.72526 0.00672 0.0
C784 C 0.7231 0.66289 0.00132 0.0
C785 C 0.73983 0.62537 0.00279 0.0
C786 C 0.77483 0.62168 0.00718 0.0
C787 C 0.79032 0.5863 0.00863 0.0
C788 C 0.7712 0.55437 0.00567 0.0
C789 C 0.73658 0.55776 0.00124 0.0
C790 C 0.72093 0.59307 0.99977 0.0
C791 C 0.6891 0.74925 0.96594 0.0
C792 C 0.65681 0.73112 0.96265 0.0
C793 C 0.70236 0.74224 0.975 0.0
C794 C 0.68386 0.71656 0.9808 0.0
C795 C 0.65194 0.69814 0.97748 0.0
C796 C 0.6383 0.70564 0.96852 0.0
C797 C 0.69745 0.70857 0.99037 0.0
C798 C 0.71162 0.67289 0.99227 0.0
C799 C 0.69559 0.73537 0.99762 0.0
C800 C 0.68109 0.77358 0.99596 0.0
C801 C 0.64455 0.77914 0.99263 0.0
C802 C 0.63124 0.81531 0.99103 0.0
C803 C 0.65413 0.84614 0.99281 0.0
C804 C 0.69034 0.84086 0.99622 0.0
C805 C 0.70379 0.80475 0.99782 0.0
H806 H 0.64377 0.87411 0.99157 0.0
H807 H 0.78324 0.527 0.0068 0.0
H808 H 0.28779 0.28697 0.04273 0.0
H809 H 0.29955 0.26367 0.02686 0.0
H810 H 0.24166 0.3588 0.01534 0.0
H811 H 0.23021 0.38251 0.03117 0.0
H812 H 0.22496 0.28799 0.00638 0.0
H813 H 0.33029 0.36413 0.01608 0.0
H814 H 0.3814 0.38175 0.02679 0.0
H815 H 0.43041 0.273 0.02356 0.0
H816 H 0.37923 0.25456 0.01294 0.0
H817 H 0.29237 0.29511 0.95973 0.0
H818 H 0.27154 0.306 0.97579 0.0
H819 H 0.35468 0.22839 0.98588 0.0
H820 H 0.37676 0.219 0.96986 0.0
H821 H 0.35729 0.28597 0.99607 0.0
H822 H 0.25626 0.20956 0.98568 0.0
H823 H 0.20496 0.18913 0.97535 0.0
H824 H 0.1475 0.29267 0.98015 0.0
H825 H 0.1987 0.31396 0.99041 0.0
C826 C 0.27718 0.30266 0.03682 0.0
C827 C 0.25831 0.33666 0.03817 0.0
C828 C 0.28394 0.28935 0.02778 0.0
C829 C 0.27161 0.30966 0.01996 0.0
C830 C 0.25132 0.34274 0.0213 0.0
C831 C 0.24497 0.3563 0.03033 0.0
C832 C 0.28205 0.29786 0.01038 0.0
C833 C 0.25382 0.28772 0.00406 0.0
C834 C 0.31978 0.29663 0.00749 0.0
C835 C 0.35073 0.30784 0.0138 0.0
C836 C 0.3518 0.34388 0.01772 0.0
C837 C 0.38081 0.35403 0.02376 0.0
C838 C 0.40908 0.32847 0.02588 0.0
C839 C 0.40846 0.29274 0.02193 0.0
C840 C 0.37947 0.28243 0.0159 0.0
C841 C 0.30587 0.28008 0.96537 0.0
C842 C 0.33619 0.25626 0.96357 0.0
C843 C 0.29381 0.28612 0.97456 0.0
C844 C 0.31117 0.26767 0.98208 0.0
C845 C 0.34083 0.24304 0.98022 0.0
C846 C 0.35338 0.23759 0.97106 0.0
C847 C 0.30019 0.27588 0.99192 0.0
C848 C 0.32836 0.28562 0.99833 0.0
C849 C 0.2624 0.2762 0.99491 0.0
C850 C 0.2315 0.26348 0.98875 0.0
C851 C 0.23282 0.22809 0.98448 0.0
C852 C 0.20373 0.21634 0.97865 0.0
C853 C 0.17303 0.23962 0.97708 0.0
C854 C 0.17131 0.27468 0.98137 0.0
C855 C 0.20034 0.28658 0.9872 0.0
H856 H 0.15054 0.23047 0.97256 0.0
H857 H 0.43152 0.33638 0.03055 0.0
H858 H 0.71021 0.78093 0.29207 0.0
H859 H 0.73182 0.79359 0.27611 0.0
H860 H 0.63506 0.73709 0.265 0.0
H861 H 0.6131 0.72459 0.28094 0.0
H862 H 0.70361 0.72075 0.25536 0.0
H863 H 0.63127 0.82652 0.26628 0.0
H864 H 0.61589 0.87688 0.27742 0.0
H865 H 0.72507 0.9243 0.27367 0.0
H866 H 0.74129 0.87384 0.26261 0.0
H867 H 0.69539 0.79326 0.20915 0.0
H868 H 0.68438 0.77133 0.22512 0.0
H869 H 0.76528 0.85075 0.23548 0.0
H870 H 0.77489 0.87394 0.21957 0.0
H871 H 0.70814 0.85406 0.24589 0.0
H872 H 0.78091 0.75188 0.23446 0.0
H873 H 0.79881 0.70116 0.22367 0.0
H874 H 0.69382 0.64653 0.22859 0.0
H875 H 0.67508 0.69718 0.23932 0.0
C876 C 0.6938 0.77079 0.28623 0.0
C877 C 0.65986 0.752 0.28774 0.0
C878 C 0.70614 0.77808 0.27713 0.0
C879 C 0.68487 0.76648 0.2694 0.0
C880 C 0.65186 0.74622 0.27088 0.0
C881 C 0.6393 0.73926 0.27998 0.0
C882 C 0.69566 0.77764 0.25979 0.0
C883 C 0.70439 0.74984 0.25323 0.0
C884 C 0.69751 0.81564 0.25714 0.0
C885 C 0.68763 0.84619 0.2637 0.0
C886 C 0.6521 0.84751 0.26789 0.0
C887 C 0.64321 0.8761 0.27418 0.0
C888 C 0.66952 0.90372 0.27627 0.0
C889 C 0.70474 0.90286 0.27205 0.0
C890 C 0.71379 0.87429 0.26577 0.0
C891 C 0.71109 0.80572 0.21484 0.0
C892 C 0.73596 0.83529 0.21314 0.0
C893 C 0.70496 0.79303 0.22397 0.0
C894 C 0.72435 0.809 0.23154 0.0
C895 C 0.7499 0.83797 0.22978 0.0
C896 C 0.75547 0.85115 0.22068 0.0
C897 C 0.71638 0.79717 0.24133 0.0
C898 C 0.70791 0.8249 0.24796 0.0
C899 C 0.71525 0.75909 0.24406 0.0
C900 C 0.72647 0.72851 0.23763 0.0
C901 C 0.76153 0.72919 0.23319 0.0
C902 C 0.77184 0.70042 0.22709 0.0
C903 C 0.74743 0.67069 0.22543 0.0
C904 C 0.71269 0.6696 0.22988 0.0
C905 C 0.70222 0.69831 0.23598 0.0
H906 H 0.75547 0.64845 0.2207 0.0
H907 H 0.66259 0.92583 0.28114 0.0
H908 H 0.10267 0.26265 0.47036 0.0
H909 H 0.12163 0.25093 0.48651 0.0
H910 H 0.23211 0.22088 0.47705 0.0
H911 H 0.21343 0.23338 0.46084 0.0
H912 H 0.14117 0.18721 0.4938 0.0
H913 H 0.29525 0.23734 0.49467 0.0
H914 H 0.33463 0.28624 0.48754 0.0
H915 H 0.23806 0.35552 0.48349 0.0
H916 H 0.19819 0.30728 0.49071 0.0
H917 H 0.23442 0.10319 0.53156 0.0
H918 H 0.22001 0.12726 0.51597 0.0
H919 H 0.2189 0.2397 0.52686 0.0
H920 H 0.23392 0.21576 0.5425 0.0
H921 H 0.25322 0.23701 0.51 0.0
H922 H 0.13755 0.19418 0.52307 0.0
H923 H 0.09386 0.14988 0.53048 0.0
H924 H 0.10722 0.07417 0.5074 0.0
H925 H 0.15135 0.11784 0.4999 0.0
C926 C 0.13116 0.25402 0.47172 0.0
C927 C 0.15655 0.2488 0.46434 0.0
C928 C 0.14193 0.24726 0.48096 0.0
C929 C 0.1783 0.2351 0.48301 0.0
C930 C 0.20405 0.23075 0.47566 0.0
C931 C 0.19331 0.23775 0.4664 0.0
C932 C 0.18825 0.2245 0.49274 0.0
C933 C 0.16567 0.19819 0.49733 0.0
C934 C 0.21992 0.23914 0.49742 0.0
C935 C 0.2437 0.26851 0.49315 0.0
C936 C 0.28244 0.26307 0.49229 0.0
C937 C 0.30485 0.29066 0.48823 0.0
C938 C 0.28884 0.32391 0.48504 0.0
C939 C 0.2504 0.32969 0.48593 0.0
C940 C 0.22788 0.3022 0.48999 0.0
C941 C 0.23133 0.13307 0.53063 0.0
C942 C 0.23505 0.15759 0.53826 0.0
C943 C 0.22299 0.14677 0.52173 0.0
C944 C 0.21786 0.18522 0.52028 0.0
C945 C 0.22267 0.20992 0.52783 0.0
C946 C 0.23113 0.19621 0.53675 0.0
C947 C 0.2064 0.19938 0.51095 0.0
C948 C 0.22872 0.22617 0.50644 0.0
C949 C 0.17406 0.18574 0.50639 0.0
C950 C 0.14799 0.15915 0.51096 0.0
C951 C 0.13144 0.16793 0.51962 0.0
C952 C 0.10653 0.14296 0.52382 0.0
C953 C 0.0978 0.1092 0.51941 0.0
C954 C 0.11402 0.10032 0.5108 0.0
C955 C 0.13895 0.12518 0.50657 0.0
H956 H 0.07838 0.08996 0.52264 0.0
H957 H 0.30623 0.34523 0.48189 0.0
H958 H 0.72621 0.62136 0.72024 0.0
H959 H 0.7388 0.64412 0.73612 0.0
H960 H 0.80973 0.73053 0.72486 0.0
H961 H 0.79666 0.7084 0.70894 0.0
H962 H 0.84211 0.68346 0.73951 0.0
H963 H 0.73248 0.75767 0.73304 0.0
H964 H 0.667 0.76722 0.72824 0.0
H965 H 0.6298 0.69741 0.75085 0.0
H966 H 0.69513 0.68699 0.7557 0.0
H967 H 0.8832 0.77745 0.78127 0.0
H968 H 0.8624 0.7643 0.76533 0.0
H969 H 0.7715 0.69788 0.77616 0.0
H970 H 0.79149 0.71217 0.79217 0.0
H971 H 0.74824 0.73524 0.76154 0.0
H972 H 0.85309 0.6576 0.768 0.0
H973 H 0.91711 0.64221 0.77305 0.0
H974 H 0.96192 0.70983 0.75091 0.0
H975 H 0.89811 0.72616 0.74581 0.0
C976 C 0.74412 0.64549 0.72115 0.0
C977 C 0.76048 0.66314 0.71337 0.0
C978 C 0.75121 0.65847 0.73021 0.0
C979 C 0.77514 0.68899 0.73163 0.0
C980 C 0.79114 0.70696 0.72388 0.0
C981 C 0.78355 0.69439 0.71481 0.0
C982 C 0.785 0.70082 0.74125 0.0
C983 C 0.82181 0.6954 0.7443 0.0
C984 C 0.75802 0.7149 0.74756 0.0
C985 C 0.71873 0.72126 0.74467 0.0
C986 C 0.71036 0.74408 0.73693 0.0
C987 C 0.67327 0.74971 0.73422 0.0
C988 C 0.64426 0.73286 0.73922 0.0
C989 C 0.6523 0.71041 0.74697 0.0
C990 C 0.68935 0.70467 0.74971 0.0
C991 C 0.85856 0.76034 0.78026 0.0
C992 C 0.83911 0.74558 0.78795 0.0
C993 C 0.84681 0.75268 0.77114 0.0
C994 C 0.81587 0.72939 0.76953 0.0
C995 C 0.79554 0.71578 0.77722 0.0
C996 C 0.807 0.7239 0.78636 0.0
C997 C 0.80563 0.71829 0.75983 0.0
C998 C 0.76871 0.72356 0.75677 0.0
C999 C 0.83234 0.70322 0.75355 0.0
C1000 C 0.8708 0.69341 0.75658 0.0
C1001 C 0.87659 0.66943 0.76425 0.0
C1002 C 0.91284 0.66049 0.76712 0.0
C1003 C 0.94357 0.67508 0.76232 0.0
C1004 C 0.93809 0.69859 0.75463 0.0
C1005 C 0.90188 0.70769 0.75174 0.0
H1006 H 0.97161 0.6681 0.76455 0.0
H1007 H 0.61556 0.73725 0.73711 0.0
H1008 H 0.10897 0.11753 0.1871 0.0
H1009 H 0.04728 0.08834 0.18696 0.0
H1010 H 0.09841 0.97981 0.18402 0.0
H1011 H 0.16035 0.00898 0.184 0.0
H1012 H 0.0391 0.9867 0.17257 0.0
H1013 H 0.06421 0.00873 0.20507 0.0
H1014 H 0.08178 0.04599 0.2189 0.0
H1015 H 0.98767 0.11817 0.2144 0.0
H1016 H 0.96982 0.08162 0.20045 0.0
H1017 H 0.87958 0.87934 0.18501 0.0
H1018 H 0.94152 0.90814 0.18471 0.0
H1019 H 0.89116 0.01737 0.18667 0.0
H1020 H 0.82903 0.98869 0.18705 0.0
H1021 H 0.95014 0.00964 0.19859 0.0
H1022 H 0.92487 0.98672 0.16608 0.0
H1023 H 0.90699 0.94832 0.15246 0.0
H1024 H 0.00135 0.8767 0.15716 0.0
H1025 H 0.01951 0.91436 0.1709 0.0
C1026 C 0.1071 0.08744 0.18643 0.0
C1027 C 0.1395 0.0655 0.18561 0.0
C1028 C 0.07182 0.07079 0.18637 0.0
C1029 C 0.06823 0.03184 0.1856 0.0
C1030 C 0.10053 0.0099 0.18464 0.0
C1031 C 0.13588 0.02658 0.18466 0.0
C1032 C 0.03075 0.01408 0.18584 0.0
C1033 C 0.01983 0.9913 0.17832 0.0
C1034 C 0.00532 0.0207 0.19325 0.0
C1035 C 0.01589 0.04264 0.20166 0.0
C1036 C 0.04742 0.03272 0.20698 0.0
C1037 C 0.0574 0.05368 0.21485 0.0
C1038 C 0.03591 0.08449 0.21752 0.0
C1039 C 0.00432 0.09433 0.21232 0.0
C1040 C 0.99424 0.07348 0.20444 0.0
C1041 C 0.88169 0.9095 0.18537 0.0
C1042 C 0.84947 0.93179 0.18603 0.0
C1043 C 0.91708 0.92591 0.18516 0.0
C1044 C 0.92091 0.96491 0.18557 0.0
C1045 C 0.8888 0.98722 0.18633 0.0
C1046 C 0.85336 0.97082 0.18652 0.0
C1047 C 0.95847 0.98239 0.18531 0.0
C1048 C 0.96941 0.00508 0.19284 0.0
C1049 C 0.98392 0.97558 0.17792 0.0
C1050 C 0.97335 0.95317 0.16958 0.0
C1051 C 0.94167 0.96263 0.16425 0.0
C1052 C 0.9315 0.94102 0.1565 0.0
C1053 C 0.95296 0.91003 0.15396 0.0
C1054 C 0.98472 0.90068 0.15915 0.0
C1055 C 0.99499 0.92217 0.16691 0.0
H1056 H 0.94501 0.89331 0.14797 0.0
H1057 H 0.04368 0.10068 0.22361 0.0
H1058 H 0.0122 0.34094 0.43865 0.0
H1059 H 0.98406 0.40325 0.43889 0.0
H1060 H 0.09296 0.45288 0.43523 0.0
H1061 H 0.1213 0.39074 0.4352 0.0
H1062 H 0.05501 0.48979 0.44812 0.0
H1063 H 0.03007 0.44628 0.41699 0.0
H1064 H 0.00674 0.40261 0.40499 0.0
H1065 H 0.89553 0.41301 0.41595 0.0
H1066 H 0.9183 0.45638 0.42811 0.0
H1067 H 0.99333 0.67184 0.43465 0.0
H1068 H 0.02182 0.60959 0.43493 0.0
H1069 H 0.91404 0.56046 0.44051 0.0
H1070 H 0.88541 0.62247 0.4402 0.0
H1071 H 0.95138 0.52357 0.42667 0.0
H1072 H 0.97718 0.56793 0.45776 0.0
H1073 H 0.00119 0.61217 0.46955 0.0
H1074 H 0.11184 0.60087 0.45829 0.0
H1075 H 0.08838 0.55693 0.44635 0.0
C1076 C 0.03011 0.36514 0.43788 0.0
C1077 C 0.06893 0.36098 0.43687 0.0
C1078 C 0.01399 0.40073 0.43799 0.0
C1079 C 0.03635 0.43277 0.43697 0.0
C1080 C 0.07515 0.4286 0.43603 0.0
C1081 C 0.09129 0.39306 0.43598 0.0
C1082 C 0.01939 0.47065 0.43694 0.0
C1083 C 0.03268 0.49731 0.44334 0.0
C1084 C 0.98975 0.48029 0.43084 0.0
C1085 C 0.97596 0.45429 0.42352 0.0
C1086 C 0.00069 0.43903 0.41689 0.0
C1087 C 0.98756 0.41437 0.41005 0.0
C1088 C 0.9497 0.40496 0.40972 0.0
C1089 C 0.92486 0.42028 0.41622 0.0
C1090 C 0.93786 0.44493 0.42308 0.0
C1091 C 0.97577 0.64777 0.43598 0.0
C1092 C 0.93717 0.65201 0.43741 0.0
C1093 C 0.99208 0.61226 0.43616 0.0
C1094 C 0.97006 0.58043 0.4378 0.0
C1095 C 0.93152 0.58464 0.43923 0.0
C1096 C 0.91525 0.62011 0.43909 0.0
C1097 C 0.98701 0.54261 0.43784 0.0
C1098 C 0.97371 0.51599 0.43144 0.0
C1099 C 0.01676 0.53309 0.44391 0.0
C1100 C 0.03095 0.55944 0.4511 0.0
C1101 C 0.00658 0.57512 0.45775 0.0
C1102 C 0.0201 0.60009 0.46447 0.0
C1103 C 0.058 0.6094 0.46466 0.0
C1104 C 0.08248 0.59367 0.45813 0.0
C1105 C 0.06909 0.56871 0.45139 0.0
H1106 H 0.06842 0.62873 0.46987 0.0
H1107 H 0.93959 0.38587 0.40442 0.0
H1108 H 0.38566 0.38339 0.68865 0.0
H1109 H 0.44682 0.41364 0.68888 0.0
H1110 H 0.39432 0.52096 0.68485 0.0
H1111 H 0.33289 0.4907 0.68448 0.0
H1112 H 0.45462 0.51327 0.67375 0.0
H1113 H 0.42731 0.4958 0.70621 0.0
H1114 H 0.40882 0.4606 0.72031 0.0
H1115 H 0.50397 0.38871 0.71707 0.0
H1116 H 0.52275 0.42315 0.70287 0.0
H1117 H 0.61507 0.62123 0.68532 0.0
H1118 H 0.55269 0.59334 0.68538 0.0
H1119 H 0.60144 0.48376 0.68836 0.0
H1120 H 0.664 0.51152 0.68836 0.0
H1121 H 0.54232 0.4943 0.70023 0.0
H1122 H 0.56853 0.51161 0.6675 0.0
H1123 H 0.58663 0.54734 0.65345 0.0
H1124 H 0.49296 0.6206 0.65738 0.0
H1125 H 0.47459 0.58561 0.67154 0.0
C1126 C 0.38711 0.41344 0.68782 0.0
C1127 C 0.35448 0.43471 0.68658 0.0
C1128 C 0.42208 0.43071 0.68799 0.0
C1129 C 0.42512 0.46962 0.687 0.0
C1130 C 0.3926 0.4909 0.68565 0.0
C1131 C 0.35755 0.47361 0.68547 0.0
C1132 C 0.46231 0.48792 0.68729 0.0
C1133 C 0.47357 0.50961 0.6796 0.0
C1134 C 0.48733 0.48251 0.69485 0.0
C1135 C 0.47625 0.46186 0.70342 0.0
C1136 C 0.44414 0.47231 0.70846 0.0
C1137 C 0.43363 0.45252 0.71648 0.0
C1138 C 0.45515 0.42238 0.71957 0.0
C1139 C 0.4873 0.41204 0.71466 0.0
C1140 C 0.49791 0.43171 0.70663 0.0
C1141 C 0.61252 0.59119 0.68599 0.0
C1142 C 0.64442 0.56853 0.68681 0.0
C1143 C 0.57686 0.5753 0.68599 0.0
C1144 C 0.57245 0.53645 0.68679 0.0
C1145 C 0.60425 0.5138 0.68772 0.0
C1146 C 0.63994 0.52967 0.68769 0.0
C1147 C 0.53466 0.51945 0.68667 0.0
C1148 C 0.5233 0.49804 0.69439 0.0
C1149 C 0.5095 0.52523 0.67916 0.0
C1150 C 0.52042 0.54622 0.67063 0.0
C1151 C 0.55197 0.53553 0.66541 0.0
C1152 C 0.56224 0.55561 0.65742 0.0
C1153 C 0.54102 0.58628 0.65454 0.0
C1154 C 0.50941 0.59687 0.65963 0.0
C1155 C 0.49903 0.57691 0.66763 0.0
H1156 H 0.54901 0.60179 0.64835 0.0
H1157 H 0.44696 0.4071 0.72578 0.0
H1158 H 0.48552 0.16303 0.94022 0.0
H1159 H 0.51336 0.10062 0.94049 0.0
H1160 H 0.40676 0.05234 0.93322 0.0
H1161 H 0.37859 0.1146 0.93316 0.0
H1162 H 0.43885 0.0127 0.9466 0.0
H1163 H 0.4777 0.06219 0.91693 0.0
H1164 H 0.50627 0.10817 0.90625 0.0
H1165 H 0.61169 0.09531 0.92023 0.0
H1166 H 0.58361 0.04961 0.93108 0.0
H1167 H 0.50734 0.833 0.93336 0.0
H1168 H 0.47835 0.89499 0.9335 0.0
H1169 H 0.58329 0.94398 0.94188 0.0
H1170 H 0.6125 0.88225 0.94164 0.0
H1171 H 0.55168 0.98293 0.92787 0.0
H1172 H 0.51233 0.93311 0.95752 0.0
H1173 H 0.48345 0.88684 0.96806 0.0
H1174 H 0.37851 0.89988 0.95387 0.0
H1175 H 0.40691 0.94589 0.94315 0.0
C1176 C 0.46805 0.13911 0.93866 0.0
C1177 C 0.42991 0.14369 0.93664 0.0
C1178 C 0.48401 0.10346 0.93878 0.0
C1179 C 0.46226 0.07179 0.93675 0.0
C1180 C 0.4241 0.07634 0.9348 0.0
C1181 C 0.40807 0.11195 0.93474 0.0
C1182 C 0.47919 0.03388 0.93674 0.0
C1183 C 0.46322 0.00606 0.9424 0.0
C1184 C 0.51146 0.02537 0.93141 0.0
C1185 C 0.52845 0.05274 0.92487 0.0
C1186 C 0.5069 0.06937 0.91777 0.0
C1187 C 0.52302 0.09535 0.91168 0.0
C1188 C 0.56075 0.10473 0.91257 0.0
C1189 C 0.58246 0.08806 0.91955 0.0
C1190 C 0.56647 0.06209 0.92567 0.0
C1191 C 0.52416 0.85698 0.93527 0.0
C1192 C 0.56217 0.85278 0.9375 0.0
C1193 C 0.50754 0.89235 0.93538 0.0
C1194 C 0.5286 0.92409 0.93777 0.0
C1195 C 0.56653 0.91989 0.94001 0.0
C1196 C 0.58314 0.88458 0.9399 0.0
C1197 C 0.51138 0.96183 0.93774 0.0
C1198 C 0.5273 0.9896 0.93206 0.0
C1199 C 0.47901 0.97023 0.94302 0.0
C1200 C 0.46185 0.94267 0.94947 0.0
C1201 C 0.48318 0.92589 0.9566 0.0
C1202 C 0.46688 0.89975 0.96262 0.0
C1203 C 0.4292 0.89035 0.96162 0.0
C1204 C 0.40771 0.90715 0.95462 0.0
C1205 C 0.42388 0.93329 0.94858 0.0
H1206 H 0.41663 0.87011 0.96629 0.0
H1207 H 0.57317 0.12484 0.90785 0.0
H1208 H 0.11608 0.38249 0.0676 0.0
H1209 H 0.05412 0.41107 0.06729 0.0
H1210 H 0.10372 0.51794 0.06085 0.0
H1211 H 0.16596 0.4896 0.06138 0.0
H1212 H 0.05105 0.52571 0.07373 0.0
H1213 H 0.05965 0.46466 0.04392 0.0
H1214 H 0.07053 0.41191 0.03315 0.0
H1215 H 0.98066 0.35096 0.04594 0.0
H1216 H 0.96957 0.40317 0.05687 0.0
H1217 H 0.88484 0.61728 0.0597 0.0
H1218 H 0.94668 0.58833 0.05964 0.0
H1219 H 0.89759 0.48266 0.0674 0.0
H1220 H 0.83546 0.51141 0.06735 0.0
H1221 H 0.94983 0.47438 0.05377 0.0
H1222 H 0.94161 0.53585 0.08361 0.0
H1223 H 0.93077 0.58901 0.09425 0.0
H1224 H 0.02018 0.64971 0.08119 0.0
H1225 H 0.03122 0.59709 0.07038 0.0
C1226 C 0.11379 0.41208 0.06611 0.0
C1227 C 0.14585 0.4338 0.06448 0.0
C1228 C 0.07834 0.42835 0.06589 0.0
C1229 C 0.0742 0.46656 0.06391 0.0
C1230 C 0.10623 0.48839 0.06238 0.0
C1231 C 0.14175 0.47216 0.06266 0.0
C1232 C 0.03648 0.4838 0.06354 0.0
C1233 C 0.02909 0.51481 0.06926 0.0
C1234 C 0.00753 0.46906 0.05787 0.0
C1235 C 0.01401 0.4377 0.05127 0.0
C1236 C 0.04238 0.4399 0.04448 0.0
C1237 C 0.04856 0.41011 0.03834 0.0
C1238 C 0.02636 0.37807 0.03887 0.0
C1239 C 0.99787 0.37579 0.04554 0.0
C1240 C 0.9916 0.40548 0.0517 0.0
C1241 C 0.88719 0.58785 0.06137 0.0
C1242 C 0.85534 0.56663 0.06357 0.0
C1243 C 0.92256 0.57138 0.06137 0.0
C1244 C 0.9268 0.53345 0.06364 0.0
C1245 C 0.89495 0.512 0.06565 0.0
C1246 C 0.85951 0.52847 0.06565 0.0
C1247 C 0.96449 0.51626 0.06395 0.0
C1248 C 0.97184 0.48527 0.05823 0.0
C1249 C 0.99345 0.53107 0.0696 0.0
C1250 C 0.987 0.56266 0.07613 0.0
C1251 C 0.95878 0.56064 0.08296 0.0
C1252 C 0.95262 0.59066 0.08903 0.0
C1253 C 0.97471 0.62276 0.08838 0.0
C1254 C 0.00306 0.62485 0.08168 0.0
C1255 C 0.0093 0.59493 0.07558 0.0
H1256 H 0.9699 0.64597 0.09309 0.0
H1257 H 0.03119 0.35503 0.03412 0.0
H1258 H 0.61489 0.60997 0.315 0.0
H1259 H 0.58511 0.54854 0.3151 0.0
H1260 H 0.47661 0.60081 0.31613 0.0
H1261 H 0.50631 0.66256 0.3161 0.0
H1262 H 0.48156 0.54184 0.32823 0.0
H1263 H 0.50763 0.5654 0.29593 0.0
H1264 H 0.54636 0.58247 0.28231 0.0
H1265 H 0.61806 0.48858 0.28754 0.0
H1266 H 0.58005 0.47125 0.30128 0.0
H1267 H 0.37679 0.38083 0.31518 0.0
H1268 H 0.40512 0.44304 0.31548 0.0
H1269 H 0.51487 0.39331 0.31537 0.0
H1270 H 0.4867 0.3309 0.31507 0.0
H1271 H 0.50815 0.45141 0.30274 0.0
H1272 H 0.48116 0.42808 0.33516 0.0
H1273 H 0.44112 0.41091 0.34853 0.0
H1274 H 0.36971 0.50458 0.34285 0.0
H1275 H 0.40901 0.52199 0.32934 0.0
C1276 C 0.58468 0.60842 0.31526 0.0
C1277 C 0.56291 0.64107 0.31549 0.0
C1278 C 0.56771 0.57329 0.31529 0.0
C1279 C 0.52864 0.57012 0.31552 0.0
C1280 C 0.50681 0.60266 0.31593 0.0
C1281 C 0.5238 0.63788 0.31588 0.0
C1282 C 0.5107 0.53276 0.31523 0.0
C1283 C 0.48695 0.52225 0.3226 0.0
C1284 C 0.5183 0.50697 0.30796 0.0
C1285 C 0.54119 0.51725 0.29969 0.0
C1286 C 0.53183 0.54857 0.29422 0.0
C1287 C 0.55363 0.55826 0.28647 0.0
C1288 C 0.58471 0.53668 0.28408 0.0
C1289 C 0.594 0.5053 0.28941 0.0
C1290 C 0.57233 0.49551 0.29718 0.0
C1291 C 0.40696 0.38314 0.31522 0.0
C1292 C 0.42956 0.35103 0.31512 0.0
C1293 C 0.42308 0.41868 0.31542 0.0
C1294 C 0.46207 0.42274 0.31552 0.0
C1295 C 0.48472 0.39073 0.31531 0.0
C1296 C 0.4686 0.35515 0.31516 0.0
C1297 C 0.47922 0.46042 0.31576 0.0
C1298 C 0.50278 0.47101 0.30838 0.0
C1299 C 0.4713 0.48629 0.32299 0.0
C1300 C 0.44783 0.47611 0.33117 0.0
C1301 C 0.45675 0.44485 0.33671 0.0
C1302 C 0.43422 0.4351 0.34432 0.0
C1303 C 0.40283 0.45657 0.34652 0.0
C1304 C 0.394 0.48793 0.34113 0.0
C1305 C 0.41641 0.49777 0.3335 0.0
H1306 H 0.3854 0.44896 0.35241 0.0
H1307 H 0.60154 0.54422 0.27807 0.0
H1308 H 0.61615 0.88066 0.56652 0.0
H1309 H 0.55473 0.91033 0.56623 0.0
H1310 H 0.60669 0.01771 0.56179 0.0
H1311 H 0.6684 0.98821 0.56234 0.0
H1312 H 0.55262 0.02368 0.57425 0.0
H1313 H 0.56348 0.96922 0.54375 0.0
H1314 H 0.57498 0.91897 0.53229 0.0
H1315 H 0.48341 0.856 0.54362 0.0
H1316 H 0.47167 0.90567 0.55523 0.0
H1317 H 0.38583 0.11757 0.56088 0.0
H1318 H 0.44817 0.08958 0.56067 0.0
H1319 H 0.40029 0.98173 0.56685 0.0
H1320 H 0.33779 0.00949 0.56697 0.0
H1321 H 0.45269 0.97733 0.55316 0.0
H1322 H 0.44292 0.03216 0.58384 0.0
H1323 H 0.43153 0.08313 0.5951 0.0
H1324 H 0.52142 0.14644 0.58307 0.0
H1325 H 0.53302 0.09604 0.57165 0.0
C1326 C 0.61449 0.91059 0.56547 0.0
C1327 C 0.64705 0.93211 0.56441 0.0
C1328 C 0.57935 0.9275 0.56526 0.0
C1329 C 0.57602 0.96619 0.56383 0.0
C1330 C 0.60856 0.9878 0.56288 0.0
C1331 C 0.64378 0.97092 0.56317 0.0
C1332 C 0.5386 0.98407 0.56344 0.0
C1333 C 0.53096 0.0139 0.56953 0.0
C1334 C 0.51006 0.97087 0.55742 0.0
C1335 C 0.51692 0.94103 0.55041 0.0
C1336 C 0.54596 0.94454 0.54384 0.0
C1337 C 0.55249 0.91618 0.53731 0.0
C1338 C 0.52999 0.88428 0.53724 0.0
C1339 C 0.50084 0.88071 0.54368 0.0
C1340 C 0.49421 0.90898 0.55023 0.0
C1341 C 0.38858 0.08788 0.56218 0.0
C1342 C 0.35696 0.06572 0.56397 0.0
C1343 C 0.42422 0.07196 0.56209 0.0
C1344 C 0.4289 0.03365 0.56385 0.0
C1345 C 0.3973 0.01136 0.56549 0.0
C1346 C 0.36164 0.02727 0.56558 0.0
C1347 C 0.46674 0.01676 0.56398 0.0
C1348 C 0.47443 0.98714 0.55784 0.0
C1349 C 0.49537 0.03027 0.56992 0.0
C1350 C 0.48859 0.06048 0.57683 0.0
C1351 C 0.46008 0.05707 0.58355 0.0
C1352 C 0.45361 0.08584 0.58997 0.0
C1353 C 0.47567 0.11805 0.58979 0.0
C1354 C 0.50432 0.1215 0.5832 0.0
C1355 C 0.51087 0.09283 0.57676 0.0
H1356 H 0.47061 0.14029 0.59476 0.0
H1357 H 0.5351 0.86235 0.53218 0.0
H1358 H 0.0118 0.17204 0.81467 0.0
H1359 H 0.98299 0.11 0.81486 0.0
H1360 H 0.09221 0.05913 0.81572 0.0
H1361 H 0.12115 0.12101 0.81538 0.0
H1362 H 0.04843 0.024 0.80344 0.0
H1363 H 0.03763 0.06433 0.83533 0.0
H1364 H 0.0202 0.10696 0.84817 0.0
H1365 H 0.90479 0.09882 0.84022 0.0
H1366 H 0.9216 0.05651 0.82725 0.0
H1367 H 0.99039 0.84097 0.81633 0.0
H1368 H 0.01933 0.90297 0.81638 0.0
H1369 H 0.91044 0.95403 0.81445 0.0
H1370 H 0.88133 0.89217 0.81447 0.0
H1371 H 0.95416 0.98885 0.82734 0.0
H1372 H 0.96559 0.94834 0.79538 0.0
H1373 H 0.98352 0.90529 0.78268 0.0
H1374 H 0.09857 0.91339 0.79095 0.0
H1375 H 0.08124 0.9561 0.80379 0.0
C1376 C 0.02965 0.14762 0.81491 0.0
C1377 C 0.06872 0.15137 0.81503 0.0
C1378 C 0.01316 0.1122 0.81505 0.0
C1379 C 0.03544 0.0799 0.81541 0.0
C1380 C 0.07447 0.08363 0.81545 0.0
C1381 C 0.09096 0.11902 0.81528 0.0
C1382 C 0.01812 0.04219 0.81565 0.0
C1383 C 0.02819 0.01616 0.80874 0.0
C1384 C 0.99114 0.03218 0.82245 0.0
C1385 C 0.98093 0.05755 0.83026 0.0
C1386 C 0.00857 0.07186 0.83627 0.0
C1387 C 0.99879 0.09593 0.84358 0.0
C1388 C 0.96142 0.10567 0.84499 0.0
C1389 C 0.93373 0.09129 0.83911 0.0
C1390 C 0.94336 0.06724 0.83178 0.0
C1391 C 0.97264 0.86541 0.81592 0.0
C1392 C 0.93361 0.86173 0.81536 0.0
C1393 C 0.9892 0.9008 0.81592 0.0
C1394 C 0.96704 0.93311 0.81532 0.0
C1395 C 0.92805 0.92948 0.8149 0.0
C1396 C 0.91148 0.89412 0.81489 0.0
C1397 C 0.98449 0.97073 0.81513 0.0
C1398 C 0.97442 0.99673 0.82204 0.0
C1399 C 0.01156 0.98067 0.80835 0.0
C1400 C 0.02206 0.95512 0.80061 0.0
C1401 C 0.99467 0.9407 0.79454 0.0
C1402 C 0.00474 0.9164 0.7873 0.0
C1403 C 0.04215 0.90653 0.78602 0.0
C1404 C 0.06959 0.92102 0.79196 0.0
C1405 C 0.05967 0.9453 0.79921 0.0
H1406 H 0.04988 0.88771 0.78041 0.0
H1407 H 0.9539 0.1243 0.85066 0.0
H1408 H 0.60899 0.88459 0.18565 0.0
H1409 H 0.54806 0.91505 0.18492 0.0
H1410 H 0.60178 0.02292 0.1841 0.0
H1411 H 0.66309 0.99251 0.18496 0.0
H1412 H 0.54327 0.02263 0.19607 0.0
H1413 H 0.56481 0.98541 0.16436 0.0
H1414 H 0.5807 0.94187 0.15159 0.0
H1415 H 0.48623 0.87347 0.15863 0.0
H1416 H 0.47007 0.91633 0.17154 0.0
H1417 H 0.37952 0.12221 0.18349 0.0
H1418 H 0.44212 0.095 0.1832 0.0
H1419 H 0.39431 0.98437 0.18403 0.0
H1420 H 0.33147 0.01146 0.18417 0.0
H1421 H 0.45096 0.98824 0.17162 0.0
H1422 H 0.4308 0.02444 0.20366 0.0
H1423 H 0.41482 0.06814 0.2164 0.0
H1424 H 0.50684 0.13867 0.20867 0.0
H1425 H 0.52305 0.09563 0.19579 0.0
C1426 C 0.60788 0.91481 0.1853 0.0
C1427 C 0.64082 0.93619 0.18532 0.0
C1428 C 0.57302 0.93217 0.18485 0.0
C1429 C 0.57037 0.97124 0.18432 0.0
C1430 C 0.60321 0.99272 0.18446 0.0
C1431 C 0.63818 0.97534 0.18493 0.0
C1432 C 0.53323 0.9895 0.18374 0.0
C1433 C 0.52329 0.01557 0.19064 0.0
C1434 C 0.5069 0.97968 0.17676 0.0
C1435 C 0.51642 0.95393 0.16897 0.0
C1436 C 0.54758 0.96094 0.16323 0.0
C1437 C 0.55661 0.9364 0.15596 0.0
C1438 C 0.53454 0.90488 0.15431 0.0
C1439 C 0.50333 0.89788 0.15992 0.0
C1440 C 0.49419 0.92231 0.16721 0.0
C1441 C 0.38232 0.09208 0.18358 0.0
C1442 C 0.35061 0.06894 0.18389 0.0
C1443 C 0.41812 0.07658 0.18345 0.0
C1444 C 0.4229 0.03766 0.18373 0.0
C1445 C 0.39125 0.01448 0.18384 0.0
C1446 C 0.3554 0.02997 0.18393 0.0
C1447 C 0.46091 0.02114 0.18399 0.0
C1448 C 0.471 0.9954 0.17703 0.0
C1449 C 0.48738 0.03128 0.19091 0.0
C1450 C 0.4779 0.057 0.19871 0.0
C1451 C 0.44746 0.0494 0.20463 0.0
C1452 C 0.43839 0.07403 0.21188 0.0
C1453 C 0.45974 0.10621 0.21332 0.0
C1454 C 0.49029 0.11376 0.20753 0.0
C1455 C 0.49945 0.08924 0.20027 0.0
H1456 H 0.45266 0.12526 0.21894 0.0
H1457 H 0.54158 0.88591 0.14868 0.0
H1458 H 0.99372 0.83901 0.4372 0.0
H1459 H 0.02313 0.90079 0.4369 0.0
H1460 H 0.92255 0.94804 0.42523 0.0
H1461 H 0.89296 0.88638 0.42551 0.0
H1462 H 0.98716 0.97614 0.41689 0.0
H1463 H 0.93736 0.9566 0.44778 0.0
H1464 H 0.92851 0.92236 0.4626 0.0
H1465 H 0.04616 0.92935 0.4682 0.0
H1466 H 0.0558 0.96314 0.45334 0.0
H1467 H 0.01804 0.16776 0.42865 0.0
H1468 H 0.99149 0.10478 0.42735 0.0
H1469 H 0.0919 0.05833 0.43931 0.0
H1470 H 0.1186 0.12101 0.4406 0.0
H1471 H 0.02808 0.02953 0.44729 0.0
H1472 H 0.07817 0.05004 0.41667 0.0
H1473 H 0.08766 0.08398 0.40184 0.0
H1474 H 0.97057 0.07517 0.39569 0.0
H1475 H 0.96027 0.04165 0.41057 0.0
C1476 C 0.97802 0.86248 0.43448 0.0
C1477 C 0.94097 0.85793 0.43144 0.0
C1478 C 0.99481 0.89775 0.43433 0.0
C1479 C 0.97486 0.92903 0.43113 0.0
C1480 C 0.9384 0.92427 0.42773 0.0
C1481 C 0.92151 0.88906 0.42793 0.0
C1482 C 0.99131 0.96697 0.43176 0.0
C1483 C 0.99573 0.98802 0.42354 0.0
C1484 C 0.00311 0.98212 0.44042 0.0
C1485 C 0.99736 0.96204 0.4494 0.0
C1486 C 0.96139 0.95057 0.45214 0.0
C1487 C 0.95622 0.93128 0.46055 0.0
C1488 C 0.98677 0.9236 0.46633 0.0
C1489 C 0.02253 0.93527 0.46371 0.0
C1490 C 0.02787 0.9545 0.4553 0.0
C1491 C 0.03441 0.1441 0.431 0.0
C1492 C 0.07039 0.14926 0.43472 0.0
C1493 C 0.0193 0.10817 0.43022 0.0
C1494 C 0.03986 0.0769 0.43318 0.0
C1495 C 0.0756 0.08208 0.43699 0.0
C1496 C 0.09083 0.1179 0.43769 0.0
C1497 C 0.02399 0.03875 0.43242 0.0
C1498 C 0.0196 0.01767 0.44063 0.0
C1499 C 0.01231 0.0236 0.42375 0.0
C1500 C 0.01838 0.04368 0.41478 0.0
C1501 C 0.05438 0.05564 0.4122 0.0
C1502 C 0.05992 0.07474 0.40377 0.0
C1503 C 0.02972 0.08182 0.39784 0.0
C1504 C 0.99393 0.06972 0.4003 0.0
C1505 C 0.98822 0.05064 0.40873 0.0
H1506 H 0.03407 0.09661 0.39132 0.0
H1507 H 0.98271 0.90867 0.47284 0.0
H1508 H 0.16316 0.48623 0.68544 0.0
H1509 H 0.10042 0.51337 0.68543 0.0
H1510 H 0.05238 0.40292 0.68416 0.0
H1511 H 0.11506 0.37561 0.68408 0.0
H1512 H 0.01724 0.45068 0.67231 0.0
H1513 H 0.05407 0.44976 0.70457 0.0
H1514 H 0.09525 0.46273 0.71803 0.0
H1515 H 0.08632 0.58056 0.71282 0.0
H1516 H 0.04549 0.56827 0.69925 0.0
H1517 H 0.83198 0.5062 0.68486 0.0
H1518 H 0.89342 0.47595 0.68453 0.0
H1519 H 0.9468 0.58384 0.6862 0.0
H1520 H 0.88571 0.61412 0.68665 0.0
H1521 H 0.97844 0.53525 0.69807 0.0
H1522 H 0.94267 0.53608 0.66561 0.0
H1523 H 0.90163 0.52311 0.65213 0.0
H1524 H 0.90843 0.40543 0.65773 0.0
H1525 H 0.94913 0.41775 0.67133 0.0
C1526 C 0.13924 0.46775 0.68513 0.0
C1527 C 0.144 0.4288 0.6848 0.0
C1528 C 0.10341 0.48327 0.68516 0.0
C1529 C 0.07172 0.46013 0.68491 0.0
C1530 C 0.07644 0.42127 0.68438 0.0
C1531 C 0.11226 0.40572 0.68436 0.0
C1532 C 0.03367 0.47648 0.6853 0.0
C1533 C 0.00855 0.46876 0.67801 0.0
C1534 C 0.02258 0.50057 0.69265 0.0
C1535 C 0.04701 0.50807 0.70084 0.0
C1536 C 0.06112 0.47843 0.70625 0.0
C1537 C 0.08436 0.48566 0.71391 0.0
C1538 C 0.09347 0.52244 0.71626 0.0
C1539 C 0.07928 0.55208 0.71098 0.0
C1540 C 0.05606 0.545 0.70331 0.0
C1541 C 0.85685 0.52342 0.68515 0.0
C1542 C 0.85406 0.56251 0.68577 0.0
C1543 C 0.8919 0.50613 0.68492 0.0
C1544 C 0.92471 0.52768 0.68527 0.0
C1545 C 0.92189 0.56668 0.68594 0.0
C1546 C 0.88694 0.58394 0.68616 0.0
C1547 C 0.96208 0.50975 0.68503 0.0
C1548 C 0.98708 0.51711 0.69238 0.0
C1549 C 0.97301 0.48534 0.67773 0.0
C1550 C 0.94861 0.47787 0.66955 0.0
C1551 C 0.93516 0.50746 0.66401 0.0
C1552 C 0.91201 0.50022 0.65634 0.0
C1553 C 0.90234 0.46348 0.65409 0.0
C1554 C 0.91589 0.43388 0.65949 0.0
C1555 C 0.93902 0.44097 0.66718 0.0
H1556 H 0.88442 0.45793 0.64815 0.0
H1557 H 0.11146 0.52798 0.72219 0.0
H1558 H 0.38514 0.38467 0.93825 0.0
H1559 H 0.41481 0.44578 0.93677 0.0
H1560 H 0.51962 0.39266 0.93006 0.0
H1561 H 0.49009 0.33112 0.93166 0.0
H1562 H 0.52897 0.44877 0.94247 0.0
H1563 H 0.46774 0.43322 0.913 0.0
H1564 H 0.41492 0.41922 0.90248 0.0
H1565 H 0.35367 0.51192 0.91381 0.0
H1566 H 0.40591 0.52616 0.9245 0.0
H1567 H 0.61731 0.61635 0.92836 0.0
H1568 H 0.59008 0.55376 0.92779 0.0
H1569 H 0.48214 0.59945 0.93481 0.0
H1570 H 0.50913 0.66234 0.93524 0.0
H1571 H 0.47645 0.54587 0.92144 0.0
H1572 H 0.53652 0.55893 0.95146 0.0
H1573 H 0.58921 0.57244 0.96207 0.0
H1574 H 0.65275 0.48374 0.94957 0.0
H1575 H 0.60061 0.47005 0.9388 0.0
C1576 C 0.41452 0.38595 0.93646 0.0
C1577 C 0.43529 0.35311 0.93504 0.0
C1578 C 0.43139 0.42092 0.93557 0.0
C1579 C 0.46929 0.42381 0.93316 0.0
C1580 C 0.49029 0.39105 0.93188 0.0
C1581 C 0.4734 0.35596 0.93279 0.0
C1582 C 0.48694 0.46111 0.93213 0.0
C1583 C 0.51789 0.46979 0.93775 0.0
C1584 C 0.47199 0.48877 0.92611 0.0
C1585 C 0.44066 0.48057 0.91961 0.0
C1586 C 0.44291 0.45048 0.91329 0.0
C1587 C 0.41308 0.44251 0.90729 0.0
C1588 C 0.38093 0.46461 0.90749 0.0
C1589 C 0.37859 0.4948 0.91367 0.0
C1590 C 0.40832 0.50286 0.91969 0.0
C1591 C 0.58771 0.61312 0.92971 0.0
C1592 C 0.56537 0.64421 0.93191 0.0
C1593 C 0.57222 0.57731 0.92941 0.0
C1594 C 0.5342 0.57186 0.9314 0.0
C1595 C 0.51157 0.60301 0.93328 0.0
C1596 C 0.52703 0.6389 0.93355 0.0
C1597 C 0.51831 0.53358 0.93182 0.0
C1598 C 0.48767 0.52474 0.9261 0.0
C1599 C 0.53357 0.50573 0.93774 0.0
C1600 C 0.56481 0.51372 0.94427 0.0
C1601 C 0.56183 0.54248 0.95093 0.0
C1602 C 0.59158 0.55015 0.95698 0.0
C1603 C 0.62434 0.52902 0.95648 0.0
C1604 C 0.62738 0.50011 0.94995 0.0
C1605 C 0.59773 0.49237 0.94387 0.0
H1606 H 0.64734 0.535 0.96116 0.0
H1607 H 0.35786 0.45837 0.90284 0.0
H1608 H 0.66609 0.51162 0.06635 0.0
H1609 H 0.60381 0.48338 0.06662 0.0
H1610 H 0.55444 0.59232 0.07036 0.0
H1611 H 0.61664 0.62071 0.07018 0.0
H1612 H 0.52127 0.53996 0.0815 0.0
H1613 H 0.55507 0.55265 0.04911 0.0
H1614 H 0.59533 0.54461 0.03525 0.0
H1615 H 0.58756 0.42537 0.03799 0.0
H1616 H 0.54769 0.43272 0.05196 0.0
H1617 H 0.33499 0.49162 0.06849 0.0
H1618 H 0.39698 0.52052 0.06928 0.0
H1619 H 0.44818 0.41287 0.06479 0.0
H1620 H 0.38646 0.38397 0.06388 0.0
H1621 H 0.48026 0.4653 0.05408 0.0
H1622 H 0.44657 0.4523 0.08645 0.0
H1623 H 0.40661 0.46009 0.10037 0.0
H1624 H 0.41414 0.57937 0.09773 0.0
H1625 H 0.45376 0.57229 0.0837 0.0
C1626 C 0.64198 0.52952 0.0673 0.0
C1627 C 0.6462 0.56839 0.06819 0.0
C1628 C 0.60642 0.51337 0.06742 0.0
C1629 C 0.57447 0.53582 0.06839 0.0
C1630 C 0.57871 0.5745 0.06958 0.0
C1631 C 0.61425 0.59067 0.06945 0.0
C1632 C 0.53659 0.51911 0.06789 0.0
C1633 C 0.5121 0.52401 0.07546 0.0
C1634 C 0.52492 0.49774 0.06008 0.0
C1635 C 0.5487 0.49325 0.05164 0.0
C1636 C 0.56219 0.52472 0.0468 0.0
C1637 C 0.58489 0.52029 0.03892 0.0
C1638 C 0.59407 0.4845 0.03576 0.0
C1639 C 0.58047 0.45308 0.04046 0.0
C1640 C 0.5578 0.45736 0.04836 0.0
C1641 C 0.35948 0.47416 0.06767 0.0
C1642 C 0.35589 0.43554 0.06614 0.0
C1643 C 0.39487 0.49065 0.06817 0.0
C1644 C 0.42723 0.46878 0.06718 0.0
C1645 C 0.42362 0.43028 0.06557 0.0
C1646 C 0.38832 0.4138 0.06508 0.0
C1647 C 0.46492 0.48595 0.06772 0.0
C1648 C 0.48938 0.48121 0.06013 0.0
C1649 C 0.47654 0.50741 0.07552 0.0
C1650 C 0.45281 0.51176 0.08397 0.0
C1651 C 0.43945 0.48019 0.08879 0.0
C1652 C 0.41691 0.48448 0.09671 0.0
C1653 C 0.40776 0.5202 0.09992 0.0
C1654 C 0.42121 0.55172 0.09523 0.0
C1655 C 0.44373 0.54758 0.0873 0.0
H1656 H 0.39031 0.52347 0.10605 0.0
H1657 H 0.61165 0.48113 0.02965 0.0
H1658 H 0.48577 0.15939 0.31253 0.0
H1659 H 0.51375 0.09692 0.31241 0.0
H1660 H 0.40817 0.04905 0.32065 0.0
H1661 H 0.37996 0.11137 0.32075 0.0
H1662 H 0.46865 0.01984 0.33057 0.0
H1663 H 0.43284 0.04276 0.29873 0.0
H1664 H 0.43028 0.0782 0.28394 0.0
H1665 H 0.5496 0.0712 0.28141 0.0
H1666 H 0.55293 0.0362 0.29627 0.0
H1667 H 0.50911 0.82998 0.31952 0.0
H1668 H 0.48026 0.89206 0.31996 0.0
H1669 H 0.58363 0.9414 0.31057 0.0
H1670 H 0.61256 0.87955 0.31008 0.0
H1671 H 0.52353 0.96973 0.30124 0.0
H1672 H 0.55972 0.94738 0.33306 0.0
H1673 H 0.56277 0.91244 0.34792 0.0
H1674 H 0.44345 0.91871 0.35057 0.0
H1675 H 0.43963 0.95324 0.33564 0.0
C1676 C 0.46859 0.13557 0.31436 0.0
C1677 C 0.43067 0.14019 0.31662 0.0
C1678 C 0.48456 0.09993 0.31426 0.0
C1679 C 0.46292 0.06839 0.31645 0.0
C1680 C 0.42531 0.07305 0.31893 0.0
C1681 C 0.40924 0.10863 0.31896 0.0
C1682 C 0.47935 0.03045 0.31598 0.0
C1683 C 0.48022 0.00865 0.32414 0.0
C1684 C 0.49508 0.01626 0.30762 0.0
C1685 C 0.49317 0.03721 0.29866 0.0
C1686 C 0.45857 0.04907 0.29506 0.0
C1687 C 0.45697 0.06902 0.28666 0.0
C1688 C 0.48977 0.07704 0.28175 0.0
C1689 C 0.52423 0.06503 0.28523 0.0
C1690 C 0.52599 0.04511 0.29364 0.0
C1691 C 0.52563 0.85407 0.31753 0.0
C1692 C 0.56311 0.84997 0.3148 0.0
C1693 C 0.50918 0.8895 0.31782 0.0
C1694 C 0.52993 0.92136 0.31538 0.0
C1695 C 0.56715 0.9172 0.31249 0.0
C1696 C 0.58366 0.88186 0.31225 0.0
C1697 C 0.51295 0.95909 0.31584 0.0
C1698 C 0.51194 0.98087 0.30768 0.0
C1699 C 0.49717 0.97328 0.32421 0.0
C1700 C 0.49936 0.95253 0.33318 0.0
C1701 C 0.53409 0.94101 0.33677 0.0
C1702 C 0.53597 0.92134 0.34521 0.0
C1703 C 0.50331 0.91326 0.35017 0.0
C1704 C 0.46871 0.92493 0.34671 0.0
C1705 C 0.46668 0.94457 0.33826 0.0
H1706 H 0.50482 0.89804 0.35671 0.0
H1707 H 0.48847 0.09248 0.27524 0.0
H1708 H 0.88683 0.87802 0.56338 0.0
H1709 H 0.94892 0.90615 0.5642 0.0
H1710 H 0.89995 0.01086 0.57278 0.0
H1711 H 0.83756 0.98304 0.57176 0.0
H1712 H 0.95143 0.02192 0.55969 0.0
H1713 H 0.94552 0.95273 0.58849 0.0
H1714 H 0.93567 0.89683 0.59828 0.0
H1715 H 0.02449 0.84026 0.58389 0.0
H1716 H 0.03454 0.89567 0.57392 0.0
H1717 H 0.11893 0.11095 0.57293 0.0
H1718 H 0.05742 0.08152 0.5737 0.0
H1719 H 0.10532 0.97698 0.56464 0.0
H1720 H 0.16722 0.00613 0.56405 0.0
H1721 H 0.05444 0.96585 0.57821 0.0
H1722 H 0.06067 0.0343 0.54948 0.0
H1723 H 0.07168 0.08999 0.53977 0.0
H1724 H 0.98197 0.14721 0.55364 0.0
H1725 H 0.97117 0.09215 0.56367 0.0
C1726 C 0.88929 0.907 0.56548 0.0
C1727 C 0.85736 0.92832 0.56754 0.0
C1728 C 0.92482 0.923 0.56599 0.0
C1729 C 0.92916 0.96049 0.56868 0.0
C1730 C 0.89727 0.98186 0.57071 0.0
C1731 C 0.86167 0.96592 0.57015 0.0
C1732 C 0.9669 0.97765 0.56914 0.0
C1733 C 0.97378 0.00999 0.56386 0.0
C1734 C 0.99637 0.96149 0.57437 0.0
C1735 C 0.99056 0.92825 0.58041 0.0
C1736 C 0.96278 0.92828 0.58737 0.0
C1737 C 0.95719 0.8967 0.59296 0.0
C1738 C 0.97939 0.86498 0.59169 0.0
C1739 C 0.0073 0.86483 0.58485 0.0
C1740 C 0.01298 0.89633 0.57924 0.0
C1741 C 0.11641 0.08163 0.57116 0.0
C1742 C 0.14781 0.06089 0.56836 0.0
C1743 C 0.08123 0.06488 0.57158 0.0
C1744 C 0.07667 0.0272 0.56908 0.0
C1745 C 0.10819 0.00611 0.56657 0.0
C1746 C 0.14349 0.02282 0.56621 0.0
C1747 C 0.03885 0.0102 0.5688 0.0
C1748 C 0.03201 0.97785 0.57408 0.0
C1749 C 0.00941 0.02627 0.56354 0.0
C1750 C 0.01536 0.0592 0.5574 0.0
C1751 C 0.04345 0.05884 0.55051 0.0
C1752 C 0.04964 0.09031 0.54494 0.0
C1753 C 0.0275 0.12214 0.54606 0.0
C1754 C 0.99912 0.12255 0.55277 0.0
C1755 C 0.99299 0.09123 0.55842 0.0
H1756 H 0.03233 0.14647 0.54172 0.0
H1757 H 0.97501 0.84055 0.59602 0.0
H1758 H 0.99084 0.67242 0.81198 0.0
H1759 H 0.01997 0.61044 0.81203 0.0
H1760 H 0.91475 0.56085 0.81994 0.0
H1761 H 0.88552 0.62259 0.81992 0.0
H1762 H 0.97295 0.5326 0.83012 0.0
H1763 H 0.9429 0.55394 0.79792 0.0
H1764 H 0.94209 0.58895 0.78306 0.0
H1765 H 0.06189 0.58504 0.78189 0.0
H1766 H 0.06342 0.55029 0.79681 0.0
H1767 H 0.01444 0.34291 0.81921 0.0
H1768 H 0.98626 0.40529 0.81943 0.0
H1769 H 0.0923 0.45389 0.81184 0.0
H1770 H 0.12061 0.39169 0.81159 0.0
H1771 H 0.03408 0.48284 0.80154 0.0
H1772 H 0.06302 0.45966 0.83388 0.0
H1773 H 0.06221 0.42409 0.84866 0.0
H1774 H 0.94249 0.43084 0.84946 0.0
H1775 H 0.94255 0.46602 0.8346 0.0
C1776 C 0.97398 0.6483 0.81376 0.0
C1777 C 0.9359 0.65231 0.81591 0.0
C1778 C 0.9906 0.61293 0.81375 0.0
C1779 C 0.96942 0.58103 0.81592 0.0
C1780 C 0.93158 0.58509 0.81825 0.0
C1781 C 0.91491 0.62037 0.8182 0.0
C1782 C 0.98658 0.54334 0.81569 0.0
C1783 C 0.98594 0.52152 0.82385 0.0
C1784 C 0.00404 0.5292 0.80754 0.0
C1785 C 0.00329 0.54988 0.79853 0.0
C1786 C 0.96909 0.56081 0.79453 0.0
C1787 C 0.9685 0.58057 0.78609 0.0
C1788 C 0.00192 0.58937 0.78155 0.0
C1789 C 0.03602 0.57827 0.78542 0.0
C1790 C 0.03677 0.5585 0.79387 0.0
C1791 C 0.03173 0.3669 0.81759 0.0
C1792 C 0.06974 0.36246 0.81542 0.0
C1793 C 0.01564 0.4025 0.81775 0.0
C1794 C 0.03728 0.43423 0.81572 0.0
C1795 C 0.07512 0.42978 0.81343 0.0
C1796 C 0.09127 0.39425 0.81333 0.0
C1797 C 0.02049 0.47209 0.81599 0.0
C1798 C 0.02117 0.49394 0.80782 0.0
C1799 C 0.00288 0.48617 0.82412 0.0
C1800 C 0.00277 0.46514 0.83308 0.0
C1801 C 0.0365 0.45329 0.83716 0.0
C1802 C 0.03618 0.43325 0.84556 0.0
C1803 C 0.00232 0.42512 0.84998 0.0
C1804 C 0.9687 0.43711 0.84602 0.0
C1805 C 0.96886 0.45713 0.83761 0.0
H1806 H 0.00213 0.40961 0.85649 0.0
H1807 H 0.00139 0.6047 0.77502 0.0
loop_
_geom_bond_atom_site_label_1
_geom_bond_atom_site_label_2
_geom_bond_distance
_geom_bond_site_symmetry_2
_ccdc_geom_bond_type
In0 O1 2.294 . S
In0 O2 2.326 . S
In0 O6 2.266 . S
In0 O7 2.326 . S
In0 O8 2.266 . S
In0 O9 2.326 . S
In0 O11 2.294 . S
In0 O12 2.326 . S
O1 In0 2.294 . S
O1 C10 1.240 . S
O2 In0 2.326 . S
O2 C10 1.252 . S
C3 O6 1.252 . S
C3 O7 1.260 . S
C4 O11 1.240 . S
C4 O12 1.252 . S
C5 O8 1.252 . S
C5 O9 1.260 . S
O6 In0 2.266 . S
O6 C3 1.252 . S
O7 In0 2.326 . S
O7 C3 1.260 . S
O8 In0 2.266 . S
O8 C5 1.252 . S
O9 In0 2.326 . S
O9 C5 1.260 . S
C10 O1 1.240 . S
C10 O2 1.252 . S
O11 In0 2.294 . S
O11 C4 1.240 . S
O12 In0 2.326 . S
O12 C4 1.252 . S
In13 O14 2.294 . S
In13 O15 2.326 . S
In13 O19 2.266 . S
In13 O20 2.326 . S
In13 O21 2.266 . S
In13 O22 2.326 . S
In13 O24 2.294 . S
In13 O25 2.326 . S
O14 In13 2.294 . S
O14 C23 1.240 . S
O15 In13 2.326 . S
O15 C23 1.252 . S
C16 O19 1.252 . S
C16 O20 1.260 . S
C17 O24 1.240 . S
C17 O25 1.252 . S
C18 O21 1.252 . S
C18 O22 1.260 . S
O19 In13 2.266 . S
O19 C16 1.252 . S
O20 In13 2.326 . S
O20 C16 1.260 . S
O21 In13 2.266 . S
O21 C18 1.252 . S
O22 In13 2.326 . S
O22 C18 1.260 . S
C23 O14 1.240 . S
C23 O15 1.252 . S
O24 In13 2.294 . S
O24 C17 1.240 . S
O25 In13 2.326 . S
O25 C17 1.252 . S
In26 O27 2.294 . S
In26 O28 2.326 . S
In26 O32 2.266 . S
In26 O33 2.326 . S
In26 O34 2.266 . S
In26 O35 2.326 . S
In26 O37 2.294 . S
In26 O38 2.326 . S
O27 In26 2.294 . S
O27 C36 1.240 . S
O28 In26 2.326 . S
O28 C36 1.252 . S
C29 O32 1.252 . S
C29 O33 1.260 . S
C30 O37 1.240 . S
C30 O38 1.252 . S
C31 O34 1.252 . S
C31 O35 1.260 . S
O32 In26 2.266 . S
O32 C29 1.252 . S
O33 In26 2.326 . S
O33 C29 1.260 . S
O34 In26 2.266 . S
O34 C31 1.252 . S
O35 In26 2.326 . S
O35 C31 1.260 . S
C36 O27 1.240 . S
C36 O28 1.252 . S
O37 In26 2.294 . S
O37 C30 1.240 . S
O38 In26 2.326 . S
O38 C30 1.252 . S
In39 O40 2.294 . S
In39 O41 2.326 . S
In39 O45 2.266 . S
In39 O46 2.326 . S
In39 O47 2.266 . S
In39 O48 2.326 . S
In39 O50 2.294 . S
In39 O51 2.326 . S
O40 In39 2.294 . S
O40 C49 1.240 . S
O41 In39 2.326 . S
O41 C49 1.252 . S
C42 O45 1.252 . S
C42 O46 1.260 . S
C43 O50 1.240 . S
C43 O51 1.252 . S
C44 O47 1.252 . S
C44 O48 1.260 . S
O45 In39 2.266 . S
O45 C42 1.252 . S
O46 In39 2.326 . S
O46 C42 1.260 . S
O47 In39 2.266 . S
O47 C44 1.252 . S
O48 In39 2.326 . S
O48 C44 1.260 . S
C49 O40 1.240 . S
C49 O41 1.252 . S
O50 In39 2.294 . S
O50 C43 1.240 . S
O51 In39 2.326 . S
O51 C43 1.252 . S
In52 O53 2.294 . S
In52 O54 2.326 . S
In52 O58 2.266 . S
In52 O59 2.326 . S
In52 O60 2.266 . S
In52 O61 2.326 . S
In52 O63 2.294 . S
In52 O64 2.326 . S
O53 In52 2.294 . S
O53 C62 1.240 . S
O54 In52 2.326 . S
O54 C62 1.252 . S
C55 O58 1.252 . S
C55 O59 1.260 . S
C56 O63 1.240 . S
C56 O64 1.252 . S
C57 O60 1.252 . S
C57 O61 1.260 . S
O58 In52 2.266 . S
O58 C55 1.252 . S
O59 In52 2.326 . S
O59 C55 1.260 . S
O60 In52 2.266 . S
O60 C57 1.252 . S
O61 In52 2.326 . S
O61 C57 1.260 . S
C62 O53 1.240 . S
C62 O54 1.252 . S
O63 In52 2.294 . S
O63 C56 1.240 . S
O64 In52 2.326 . S
O64 C56 1.252 . S
In65 O66 2.294 . S
In65 O67 2.326 . S
In65 O71 2.266 . S
In65 O72 2.326 . S
In65 O73 2.266 . S
In65 O74 2.326 . S
In65 O76 2.294 . S
In65 O77 2.326 . S
O66 In65 2.294 . S
O66 C75 1.240 . S
O67 In65 2.326 . S
O67 C75 1.252 . S
C68 O71 1.252 . S
C68 O72 1.260 . S
C69 O76 1.240 . S
C69 O77 1.252 . S
C70 O73 1.252 . S
C70 O74 1.260 . S
O71 In65 2.266 . S
O71 C68 1.252 . S
O72 In65 2.326 . S
O72 C68 1.260 . S
O73 In65 2.266 . S
O73 C70 1.252 . S
O74 In65 2.326 . S
O74 C70 1.260 . S
C75 O66 1.240 . S
C75 O67 1.252 . S
O76 In65 2.294 . S
O76 C69 1.240 . S
O77 In65 2.326 . S
O77 C69 1.252 . S
In78 O79 2.294 . S
In78 O80 2.326 . S
In78 O84 2.266 . S
In78 O85 2.326 . S
In78 O86 2.266 . S
In78 O87 2.326 . S
In78 O89 2.294 . S
In78 O90 2.326 . S
O79 In78 2.294 . S
O79 C88 1.240 . S
O80 In78 2.326 . S
O80 C88 1.252 . S
C81 O84 1.252 . S
C81 O85 1.260 . S
C82 O89 1.240 . S
C82 O90 1.252 . S
C83 O86 1.252 . S
C83 O87 1.260 . S
O84 In78 2.266 . S
O84 C81 1.252 . S
O85 In78 2.326 . S
O85 C81 1.260 . S
O86 In78 2.266 . S
O86 C83 1.252 . S
O87 In78 2.326 . S
O87 C83 1.260 . S
C88 O79 1.240 . S
C88 O80 1.252 . S
O89 In78 2.294 . S
O89 C82 1.240 . S
O90 In78 2.326 . S
O90 C82 1.252 . S
In91 O92 2.294 . S
In91 O93 2.326 . S
In91 O97 2.266 . S
In91 O98 2.326 . S
In91 O99 2.266 . S
In91 O100 2.326 . S
In91 O102 2.294 . S
In91 O103 2.326 . S
O92 In91 2.294 . S
O92 C101 1.240 . S
O93 In91 2.326 . S
O93 C101 1.252 . S
C94 O97 1.252 . S
C94 O98 1.260 . S
C95 O102 1.240 . S
C95 O103 1.252 . S
C96 O99 1.252 . S
C96 O100 1.260 . S
O97 In91 2.266 . S
O97 C94 1.252 . S
O98 In91 2.326 . S
O98 C94 1.260 . S
O99 In91 2.266 . S
O99 C96 1.252 . S
O100 In91 2.326 . S
O100 C96 1.260 . S
C101 O92 1.240 . S
C101 O93 1.252 . S
O102 In91 2.294 . S
O102 C95 1.240 . S
O103 In91 2.326 . S
O103 C95 1.252 . S
In104 O105 2.294 . S
In104 O106 2.326 . S
In104 O110 2.266 . S
In104 O111 2.326 . S
In104 O112 2.266 . S
In104 O113 2.326 . S
In104 O115 2.294 . S
In104 O116 2.326 . S
O105 In104 2.294 . S
O105 C114 1.240 . S
O106 In104 2.326 . S
O106 C114 1.252 . S
C107 O110 1.252 . S
C107 O111 1.260 . S
C108 O115 1.240 . S
C108 O116 1.252 . S
C109 O112 1.252 . S
C109 O113 1.260 . S
O110 In104 2.266 . S
O110 C107 1.252 . S
O111 In104 2.326 . S
O111 C107 1.260 . S
O112 In104 2.266 . S
O112 C109 1.252 . S
O113 In104 2.326 . S
O113 C109 1.260 . S
C114 O105 1.240 . S
C114 O106 1.252 . S
O115 In104 2.294 . S
O115 C108 1.240 . S
O116 In104 2.326 . S
O116 C108 1.252 . S
In117 O118 2.294 . S
In117 O119 2.326 . S
In117 O123 2.266 . S
In117 O124 2.326 . S
In117 O125 2.266 . S
In117 O126 2.326 . S
In117 O128 2.294 . S
In117 O129 2.326 . S
O118 In117 2.294 . S
O118 C127 1.240 . S
O119 In117 2.326 . S
O119 C127 1.252 . S
C120 O123 1.252 . S
C120 O124 1.260 . S
C121 O128 1.240 . S
C121 O129 1.252 . S
C122 O125 1.252 . S
C122 O126 1.260 . S
O123 In117 2.266 . S
O123 C120 1.252 . S
O124 In117 2.326 . S
O124 C120 1.260 . S
O125 In117 2.266 . S
O125 C122 1.252 . S
O126 In117 2.326 . S
O126 C122 1.260 . S
C127 O118 1.240 . S
C127 O119 1.252 . S
O128 In117 2.294 . S
O128 C121 1.240 . S
O129 In117 2.326 . S
O129 C121 1.252 . S
In130 O131 2.294 . S
In130 O132 2.326 . S
In130 O136 2.266 . S
In130 O137 2.326 . S
In130 O138 2.266 . S
In130 O139 2.326 . S
In130 O141 2.294 . S
In130 O142 2.326 . S
O131 In130 2.294 . S
O131 C140 1.240 . S
O132 In130 2.326 . S
O132 C140 1.252 . S
C133 O136 1.252 . S
C133 O137 1.260 . S
C134 O141 1.240 . S
C134 O142 1.252 . S
C135 O138 1.252 . S
C135 O139 1.260 . S
O136 In130 2.266 . S
O136 C133 1.252 . S
O137 In130 2.326 . S
O137 C133 1.260 . S
O138 In130 2.266 . S
O138 C135 1.252 . S
O139 In130 2.326 . S
O139 C135 1.260 . S
C140 O131 1.240 . S
C140 O132 1.252 . S
O141 In130 2.294 . S
O141 C134 1.240 . S
O142 In130 2.326 . S
O142 C134 1.252 . S
In143 O144 2.294 . S
In143 O145 2.326 . S
In143 O149 2.266 . S
In143 O150 2.326 . S
In143 O151 2.266 . S
In143 O152 2.326 . S
In143 O154 2.294 . S
In143 O155 2.326 . S
O144 In143 2.294 . S
O144 C153 1.240 . S
O145 In143 2.326 . S
O145 C153 1.252 . S
C146 O149 1.252 . S
C146 O150 1.260 . S
C147 O154 1.240 . S
C147 O155 1.252 . S
C148 O151 1.252 . S
C148 O152 1.260 . S
O149 In143 2.266 . S
O149 C146 1.252 . S
O150 In143 2.326 . S
O150 C146 1.260 . S
O151 In143 2.266 . S
O151 C148 1.252 . S
O152 In143 2.326 . S
O152 C148 1.260 . S
C153 O144 1.240 . S
C153 O145 1.252 . S
O154 In143 2.294 . S
O154 C147 1.240 . S
O155 In143 2.326 . S
O155 C147 1.252 . S
In156 O157 2.294 . S
In156 O158 2.326 . S
In156 O162 2.266 . S
In156 O163 2.326 . S
In156 O164 2.266 . S
In156 O165 2.326 . S
In156 O167 2.294 . S
In156 O168 2.326 . S
O157 In156 2.294 . S
O157 C166 1.240 . S
O158 In156 2.326 . S
O158 C166 1.252 . S
C159 O162 1.252 . S
C159 O163 1.260 . S
C160 O167 1.240 . S
C160 O168 1.252 . S
C161 O164 1.252 . S
C161 O165 1.260 . S
O162 In156 2.266 . S
O162 C159 1.252 . S
O163 In156 2.326 . S
O163 C159 1.260 . S
O164 In156 2.266 . S
O164 C161 1.252 . S
O165 In156 2.326 . S
O165 C161 1.260 . S
C166 O157 1.240 . S
C166 O158 1.252 . S
O167 In156 2.294 . S
O167 C160 1.240 . S
O168 In156 2.326 . S
O168 C160 1.252 . S
In169 O170 2.294 . S
In169 O171 2.326 . S
In169 O175 2.266 . S
In169 O176 2.326 . S
In169 O177 2.266 . S
In169 O178 2.326 . S
In169 O180 2.294 . S
In169 O181 2.326 . S
O170 In169 2.294 . S
O170 C179 1.240 . S
O171 In169 2.326 . S
O171 C179 1.252 . S
C172 O175 1.252 . S
C172 O176 1.260 . S
C173 O180 1.240 . S
C173 O181 1.252 . S
C174 O177 1.252 . S
C174 O178 1.260 . S
O175 In169 2.266 . S
O175 C172 1.252 . S
O176 In169 2.326 . S
O176 C172 1.260 . S
O177 In169 2.266 . S
O177 C174 1.252 . S
O178 In169 2.326 . S
O178 C174 1.260 . S
C179 O170 1.240 . S
C179 O171 1.252 . S
O180 In169 2.294 . S
O180 C173 1.240 . S
O181 In169 2.326 . S
O181 C173 1.252 . S
In182 O183 2.294 . S
In182 O184 2.326 . S
In182 O188 2.266 . S
In182 O189 2.326 . S
In182 O190 2.266 . S
In182 O191 2.326 . S
In182 O193 2.294 . S
In182 O194 2.326 . S
O183 In182 2.294 . S
O183 C192 1.240 . S
O184 In182 2.326 . S
O184 C192 1.252 . S
C185 O188 1.252 . S
C185 O189 1.260 . S
C186 O193 1.240 . S
C186 O194 1.252 . S
C187 O190 1.252 . S
C187 O191 1.260 . S
O188 In182 2.266 . S
O188 C185 1.252 . S
O189 In182 2.326 . S
O189 C185 1.260 . S
O190 In182 2.266 . S
O190 C187 1.252 . S
O191 In182 2.326 . S
O191 C187 1.260 . S
C192 O183 1.240 . S
C192 O184 1.252 . S
O193 In182 2.294 . S
O193 C186 1.240 . S
O194 In182 2.326 . S
O194 C186 1.252 . S
In195 O196 2.294 . S
In195 O197 2.326 . S
In195 O201 2.266 . S
In195 O202 2.326 . S
In195 O203 2.266 . S
In195 O204 2.326 . S
In195 O206 2.294 . S
In195 O207 2.326 . S
O196 In195 2.294 . S
O196 C205 1.240 . S
O197 In195 2.326 . S
O197 C205 1.252 . S
C198 O201 1.252 . S
C198 O202 1.260 . S
C199 O206 1.240 . S
C199 O207 1.252 . S
C200 O203 1.252 . S
C200 O204 1.260 . S
O201 In195 2.266 . S
O201 C198 1.252 . S
O202 In195 2.326 . S
O202 C198 1.260 . S
O203 In195 2.266 . S
O203 C200 1.252 . S
O204 In195 2.326 . S
O204 C200 1.260 . S
C205 O196 1.240 . S
C205 O197 1.252 . S
O206 In195 2.294 . S
O206 C199 1.240 . S
O207 In195 2.326 . S
O207 C199 1.252 . S
H208 C226 0.951 . S
H209 C228 0.951 . S
H210 C230 0.950 . S
H211 C231 0.950 . S
H212 C233 0.950 . S
H213 C236 0.950 . S
H214 C237 0.950 . S
H215 C239 0.950 . S
H216 C240 0.950 . S
H217 C241 0.951 . S
H218 C243 0.951 . S
H219 C245 0.950 . S
H220 C246 0.950 . S
H221 C248 0.950 . S
H222 C251 0.950 . S
H223 C252 0.950 . S
H224 C254 0.950 . S
H225 C255 0.950 . S
C226 H208 0.951 . S
C226 C227 1.366 . S
C226 C228 1.388 . S
C227 C226 1.366 . S
C227 C231 1.385 . S
C228 H209 0.951 . S
C228 C226 1.388 . S
C228 C229 1.366 . S
C229 C228 1.366 . S
C229 C230 1.414 . S
C229 C232 1.499 . S
C230 H210 0.950 . S
C230 C229 1.414 . S
C230 C231 1.374 . S
C231 H211 0.950 . S
C231 C227 1.385 . S
C231 C230 1.374 . S
C232 C229 1.499 . S
C232 C233 1.373 . S
C232 C234 1.389 . S
C233 H212 0.950 . S
C233 C232 1.373 . S
C233 C249 1.377 . S
C234 C232 1.389 . S
C234 C235 1.524 . S
C234 C248 1.377 . S
C235 C234 1.524 . S
C235 C236 1.397 . S
C235 C240 1.363 . S
C236 H213 0.950 . S
C236 C235 1.397 . S
C236 C237 1.334 . S
C237 H214 0.950 . S
C237 C236 1.334 . S
C237 C238 1.287 . S
C238 C237 1.287 . S
C238 C239 1.524 . S
C238 H257 0.913 . S
C239 H215 0.950 . S
C239 C238 1.524 . S
C239 C240 1.415 . S
C240 H216 0.950 . S
C240 C235 1.363 . S
C240 C239 1.415 . S
C241 H217 0.951 . S
C241 C242 1.366 . S
C241 C243 1.388 . S
C242 C241 1.366 . S
C242 C246 1.385 . S
C243 H218 0.951 . S
C243 C241 1.388 . S
C243 C244 1.366 . S
C244 C243 1.366 . S
C244 C245 1.414 . S
C244 C247 1.499 . S
C245 H219 0.950 . S
C245 C244 1.414 . S
C245 C246 1.374 . S
C246 H220 0.950 . S
C246 C242 1.385 . S
C246 C245 1.374 . S
C247 C244 1.499 . S
C247 C248 1.373 . S
C247 C249 1.389 . S
C248 H221 0.950 . S
C248 C234 1.377 . S
C248 C247 1.373 . S
C249 C233 1.377 . S
C249 C247 1.389 . S
C249 C250 1.524 . S
C250 C249 1.524 . S
C250 C251 1.397 . S
C250 C255 1.363 . S
C251 H222 0.950 . S
C251 C250 1.397 . S
C251 C252 1.334 . S
C252 H223 0.950 . S
C252 C251 1.334 . S
C252 C253 1.287 . S
C253 C252 1.287 . S
C253 C254 1.524 . S
C253 H256 0.999 . S
C254 H224 0.950 . S
C254 C253 1.524 . S
C254 C255 1.415 . S
C255 H225 0.950 . S
C255 C250 1.363 . S
C255 C254 1.415 . S
H256 C253 0.999 . S
H257 C238 0.913 . S
H258 C276 0.951 . S
H259 C278 0.951 . S
H260 C280 0.950 . S
H261 C281 0.950 . S
H262 C283 0.950 . S
H263 C286 0.950 . S
H264 C287 0.950 . S
H265 C289 0.950 . S
H266 C290 0.950 . S
H267 C291 0.951 . S
H268 C293 0.951 . S
H269 C295 0.950 . S
H270 C296 0.950 . S
H271 C298 0.950 . S
H272 C301 0.950 . S
H273 C302 0.950 . S
H274 C304 0.950 . S
H275 C305 0.950 . S
C276 H258 0.951 . S
C276 C277 1.366 . S
C276 C278 1.388 . S
C277 C276 1.366 . S
C277 C281 1.385 . S
C278 H259 0.951 . S
C278 C276 1.388 . S
C278 C279 1.366 . S
C279 C278 1.366 . S
C279 C280 1.414 . S
C279 C282 1.499 . S
C280 H260 0.950 . S
C280 C279 1.414 . S
C280 C281 1.374 . S
C281 H261 0.950 . S
C281 C277 1.385 . S
C281 C280 1.374 . S
C282 C279 1.499 . S
C282 C283 1.373 . S
C282 C284 1.389 . S
C283 H262 0.950 . S
C283 C282 1.373 . S
C283 C299 1.377 . S
C284 C282 1.389 . S
C284 C285 1.524 . S
C284 C298 1.377 . S
C285 C284 1.524 . S
C285 C286 1.397 . S
C285 C290 1.363 . S
C286 H263 0.950 . S
C286 C285 1.397 . S
C286 C287 1.334 . S
C287 H264 0.950 . S
C287 C286 1.334 . S
C287 C288 1.287 . S
C288 C287 1.287 . S
C288 C289 1.524 . S
C288 H307 0.913 . S
C289 H265 0.950 . S
C289 C288 1.524 . S
C289 C290 1.415 . S
C290 H266 0.950 . S
C290 C285 1.363 . S
C290 C289 1.415 . S
C291 H267 0.951 . S
C291 C292 1.366 . S
C291 C293 1.388 . S
C292 C291 1.366 . S
C292 C296 1.385 . S
C293 H268 0.951 . S
C293 C291 1.388 . S
C293 C294 1.366 . S
C294 C293 1.366 . S
C294 C295 1.414 . S
C294 C297 1.499 . S
C295 H269 0.950 . S
C295 C294 1.414 . S
C295 C296 1.374 . S
C296 H270 0.950 . S
C296 C292 1.385 . S
C296 C295 1.374 . S
C297 C294 1.499 . S
C297 C298 1.373 . S
C297 C299 1.389 . S
C298 H271 0.950 . S
C298 C284 1.377 . S
C298 C297 1.373 . S
C299 C283 1.377 . S
C299 C297 1.389 . S
C299 C300 1.524 . S
C300 C299 1.524 . S
C300 C301 1.397 . S
C300 C305 1.363 . S
C301 H272 0.950 . S
C301 C300 1.397 . S
C301 C302 1.334 . S
C302 H273 0.950 . S
C302 C301 1.334 . S
C302 C303 1.287 . S
C303 C302 1.287 . S
C303 C304 1.524 . S
C303 H306 0.999 . S
C304 H274 0.950 . S
C304 C303 1.524 . S
C304 C305 1.415 . S
C305 H275 0.950 . S
C305 C300 1.363 . S
C305 C304 1.415 . S
H306 C303 0.999 . S
H307 C288 0.913 . S
H308 C326 0.951 . S
H309 C328 0.951 . S
H310 C330 0.950 . S
H311 C331 0.950 . S
H312 C333 0.950 . S
H313 C336 0.950 . S
H314 C337 0.950 . S
H315 C339 0.950 . S
H316 C340 0.950 . S
H317 C341 0.951 . S
H318 C343 0.951 . S
H319 C345 0.950 . S
H320 C346 0.950 . S
H321 C348 0.950 . S
H322 C351 0.950 . S
H323 C352 0.950 . S
H324 C354 0.950 . S
H325 C355 0.950 . S
C326 H308 0.951 . S
C326 C327 1.366 . S
C326 C328 1.388 . S
C327 C326 1.366 . S
C327 C331 1.385 . S
C328 H309 0.951 . S
C328 C326 1.388 . S
C328 C329 1.366 . S
C329 C328 1.366 . S
C329 C330 1.414 . S
C329 C332 1.499 . S
C330 H310 0.950 . S
C330 C329 1.414 . S
C330 C331 1.374 . S
C331 H311 0.950 . S
C331 C327 1.385 . S
C331 C330 1.374 . S
C332 C329 1.499 . S
C332 C333 1.373 . S
C332 C334 1.389 . S
C333 H312 0.950 . S
C333 C332 1.373 . S
C333 C349 1.377 . S
C334 C332 1.389 . S
C334 C335 1.524 . S
C334 C348 1.377 . S
C335 C334 1.524 . S
C335 C336 1.397 . S
C335 C340 1.363 . S
C336 H313 0.950 . S
C336 C335 1.397 . S
C336 C337 1.334 . S
C337 H314 0.950 . S
C337 C336 1.334 . S
C337 C338 1.287 . S
C338 C337 1.287 . S
C338 C339 1.524 . S
C338 H357 0.913 . S
C339 H315 0.950 . S
C339 C338 1.524 . S
C339 C340 1.415 . S
C340 H316 0.950 . S
C340 C335 1.363 . S
C340 C339 1.415 . S
C341 H317 0.951 . S
C341 C342 1.366 . S
C341 C343 1.388 . S
C342 C341 1.366 . S
C342 C346 1.385 . S
C343 H318 0.951 . S
C343 C341 1.388 . S
C343 C344 1.366 . S
C344 C343 1.366 . S
C344 C345 1.414 . S
C344 C347 1.499 . S
C345 H319 0.950 . S
C345 C344 1.414 . S
C345 C346 1.374 . S
C346 H320 0.950 . S
C346 C342 1.385 . S
C346 C345 1.374 . S
C347 C344 1.499 . S
C347 C348 1.373 . S
C347 C349 1.389 . S
C348 H321 0.950 . S
C348 C334 1.377 . S
C348 C347 1.373 . S
C349 C333 1.377 . S
C349 C347 1.389 . S
C349 C350 1.524 . S
C350 C349 1.524 . S
C350 C351 1.397 . S
C350 C355 1.363 . S
C351 H322 0.950 . S
C351 C350 1.397 . S
C351 C352 1.334 . S
C352 H323 0.950 . S
C352 C351 1.334 . S
C352 C353 1.287 . S
C353 C352 1.287 . S
C353 C354 1.524 . S
C353 H356 0.999 . S
C354 H324 0.950 . S
C354 C353 1.524 . S
C354 C355 1.415 . S
C355 H325 0.950 . S
C355 C350 1.363 . S
C355 C354 1.415 . S
H356 C353 0.999 . S
H357 C338 0.913 . S
H358 C376 0.951 . S
H359 C378 0.951 . S
H360 C380 0.950 . S
H361 C381 0.950 . S
H362 C383 0.950 . S
H363 C386 0.950 . S
H364 C387 0.950 . S
H365 C389 0.950 . S
H366 C390 0.950 . S
H367 C391 0.951 . S
H368 C393 0.951 . S
H369 C395 0.950 . S
H370 C396 0.950 . S
H371 C398 0.950 . S
H372 C401 0.950 . S
H373 C402 0.950 . S
H374 C404 0.950 . S
H375 C405 0.950 . S
C376 H358 0.951 . S
C376 C377 1.366 . S
C376 C378 1.388 . S
C377 C376 1.366 . S
C377 C381 1.385 . S
C378 H359 0.951 . S
C378 C376 1.388 . S
C378 C379 1.366 . S
C379 C378 1.366 . S
C379 C380 1.414 . S
C379 C382 1.499 . S
C380 H360 0.950 . S
C380 C379 1.414 . S
C380 C381 1.374 . S
C381 H361 0.950 . S
C381 C377 1.385 . S
C381 C380 1.374 . S
C382 C379 1.499 . S
C382 C383 1.373 . S
C382 C384 1.389 . S
C383 H362 0.950 . S
C383 C382 1.373 . S
C383 C399 1.377 . S
C384 C382 1.389 . S
C384 C385 1.524 . S
C384 C398 1.377 . S
C385 C384 1.524 . S
C385 C386 1.397 . S
C385 C390 1.363 . S
C386 H363 0.950 . S
C386 C385 1.397 . S
C386 C387 1.334 . S
C387 H364 0.950 . S
C387 C386 1.334 . S
C387 C388 1.287 . S
C388 C387 1.287 . S
C388 C389 1.524 . S
C388 H407 0.913 . S
C389 H365 0.950 . S
C389 C388 1.524 . S
C389 C390 1.415 . S
C390 H366 0.950 . S
C390 C385 1.363 . S
C390 C389 1.415 . S
C391 H367 0.951 . S
C391 C392 1.366 . S
C391 C393 1.388 . S
C392 C391 1.366 . S
C392 C396 1.385 . S
C393 H368 0.951 . S
C393 C391 1.388 . S
C393 C394 1.366 . S
C394 C393 1.366 . S
C394 C395 1.414 . S
C394 C397 1.499 . S
C395 H369 0.950 . S
C395 C394 1.414 . S
C395 C396 1.374 . S
C396 H370 0.950 . S
C396 C392 1.385 . S
C396 C395 1.374 . S
C397 C394 1.499 . S
C397 C398 1.373 . S
C397 C399 1.389 . S
C398 H371 0.950 . S
C398 C384 1.377 . S
C398 C397 1.373 . S
C399 C383 1.377 . S
C399 C397 1.389 . S
C399 C400 1.524 . S
C400 C399 1.524 . S
C400 C401 1.397 . S
C400 C405 1.363 . S
C401 H372 0.950 . S
C401 C400 1.397 . S
C401 C402 1.334 . S
C402 H373 0.950 . S
C402 C401 1.334 . S
C402 C403 1.287 . S
C403 C402 1.287 . S
C403 C404 1.524 . S
C403 H406 0.999 . S
C404 H374 0.950 . S
C404 C403 1.524 . S
C404 C405 1.415 . S
C405 H375 0.950 . S
C405 C400 1.363 . S
C405 C404 1.415 . S
H406 C403 0.999 . S
H407 C388 0.913 . S
H408 C426 0.951 . S
H409 C428 0.951 . S
H410 C430 0.950 . S
H411 C431 0.950 . S
H412 C433 0.950 . S
H413 C436 0.950 . S
H414 C437 0.950 . S
H415 C439 0.950 . S
H416 C440 0.950 . S
H417 C441 0.951 . S
H418 C443 0.951 . S
H419 C445 0.950 . S
H420 C446 0.950 . S
H421 C448 0.950 . S
H422 C451 0.950 . S
H423 C452 0.950 . S
H424 C454 0.950 . S
H425 C455 0.950 . S
C426 H408 0.951 . S
C426 C427 1.366 . S
C426 C428 1.388 . S
C427 C426 1.366 . S
C427 C431 1.385 . S
C428 H409 0.951 . S
C428 C426 1.388 . S
C428 C429 1.366 . S
C429 C428 1.366 . S
C429 C430 1.414 . S
C429 C432 1.499 . S
C430 H410 0.950 . S
C430 C429 1.414 . S
C430 C431 1.374 . S
C431 H411 0.950 . S
C431 C427 1.385 . S
C431 C430 1.374 . S
C432 C429 1.499 . S
C432 C433 1.373 . S
C432 C434 1.389 . S
C433 H412 0.950 . S
C433 C432 1.373 . S
C433 C449 1.377 . S
C434 C432 1.389 . S
C434 C435 1.524 . S
C434 C448 1.377 . S
C435 C434 1.524 . S
C435 C436 1.397 . S
C435 C440 1.363 . S
C436 H413 0.950 . S
C436 C435 1.397 . S
C436 C437 1.334 . S
C437 H414 0.950 . S
C437 C436 1.334 . S
C437 C438 1.287 . S
C438 C437 1.287 . S
C438 C439 1.524 . S
C438 H457 0.913 . S
C439 H415 0.950 . S
C439 C438 1.524 . S
C439 C440 1.415 . S
C440 H416 0.950 . S
C440 C435 1.363 . S
C440 C439 1.415 . S
C441 H417 0.951 . S
C441 C442 1.366 . S
C441 C443 1.388 . S
C442 C441 1.366 . S
C442 C446 1.385 . S
C443 H418 0.951 . S
C443 C441 1.388 . S
C443 C444 1.366 . S
C444 C443 1.366 . S
C444 C445 1.414 . S
C444 C447 1.499 . S
C445 H419 0.950 . S
C445 C444 1.414 . S
C445 C446 1.374 . S
C446 H420 0.950 . S
C446 C442 1.385 . S
C446 C445 1.374 . S
C447 C444 1.499 . S
C447 C448 1.373 . S
C447 C449 1.389 . S
C448 H421 0.950 . S
C448 C434 1.377 . S
C448 C447 1.373 . S
C449 C433 1.377 . S
C449 C447 1.389 . S
C449 C450 1.524 . S
C450 C449 1.524 . S
C450 C451 1.397 . S
C450 C455 1.363 . S
C451 H422 0.950 . S
C451 C450 1.397 . S
C451 C452 1.334 . S
C452 H423 0.950 . S
C452 C451 1.334 . S
C452 C453 1.287 . S
C453 C452 1.287 . S
C453 C454 1.524 . S
C453 H456 0.999 . S
C454 H424 0.950 . S
C454 C453 1.524 . S
C454 C455 1.415 . S
C455 H425 0.950 . S
C455 C450 1.363 . S
C455 C454 1.415 . S
H456 C453 0.999 . S
H457 C438 0.913 . S
H458 C476 0.951 . S
H459 C478 0.951 . S
H460 C480 0.950 . S
H461 C481 0.950 . S
H462 C483 0.950 . S
H463 C486 0.950 . S
H464 C487 0.950 . S
H465 C489 0.950 . S
H466 C490 0.950 . S
H467 C491 0.951 . S
H468 C493 0.951 . S
H469 C495 0.950 . S
H470 C496 0.950 . S
H471 C498 0.950 . S
H472 C501 0.950 . S
H473 C502 0.950 . S
H474 C504 0.950 . S
H475 C505 0.950 . S
C476 H458 0.951 . S
C476 C477 1.366 . S
C476 C478 1.388 . S
C477 C476 1.366 . S
C477 C481 1.385 . S
C478 H459 0.951 . S
C478 C476 1.388 . S
C478 C479 1.366 . S
C479 C478 1.366 . S
C479 C480 1.414 . S
C479 C482 1.499 . S
C480 H460 0.950 . S
C480 C479 1.414 . S
C480 C481 1.374 . S
C481 H461 0.950 . S
C481 C477 1.385 . S
C481 C480 1.374 . S
C482 C479 1.499 . S
C482 C483 1.373 . S
C482 C484 1.389 . S
C483 H462 0.950 . S
C483 C482 1.373 . S
C483 C499 1.377 . S
C484 C482 1.389 . S
C484 C485 1.524 . S
C484 C498 1.377 . S
C485 C484 1.524 . S
C485 C486 1.397 . S
C485 C490 1.363 . S
C486 H463 0.950 . S
C486 C485 1.397 . S
C486 C487 1.334 . S
C487 H464 0.950 . S
C487 C486 1.334 . S
C487 C488 1.287 . S
C488 C487 1.287 . S
C488 C489 1.524 . S
C488 H507 0.913 . S
C489 H465 0.950 . S
C489 C488 1.524 . S
C489 C490 1.415 . S
C490 H466 0.950 . S
C490 C485 1.363 . S
C490 C489 1.415 . S
C491 H467 0.951 . S
C491 C492 1.366 . S
C491 C493 1.388 . S
C492 C491 1.366 . S
C492 C496 1.385 . S
C493 H468 0.951 . S
C493 C491 1.388 . S
C493 C494 1.366 . S
C494 C493 1.366 . S
C494 C495 1.414 . S
C494 C497 1.499 . S
C495 H469 0.950 . S
C495 C494 1.414 . S
C495 C496 1.374 . S
C496 H470 0.950 . S
C496 C492 1.385 . S
C496 C495 1.374 . S
C497 C494 1.499 . S
C497 C498 1.373 . S
C497 C499 1.389 . S
C498 H471 0.950 . S
C498 C484 1.377 . S
C498 C497 1.373 . S
C499 C483 1.377 . S
C499 C497 1.389 . S
C499 C500 1.524 . S
C500 C499 1.524 . S
C500 C501 1.397 . S
C500 C505 1.363 . S
C501 H472 0.950 . S
C501 C500 1.397 . S
C501 C502 1.334 . S
C502 H473 0.950 . S
C502 C501 1.334 . S
C502 C503 1.287 . S
C503 C502 1.287 . S
C503 C504 1.524 . S
C503 H506 0.999 . S
C504 H474 0.950 . S
C504 C503 1.524 . S
C504 C505 1.415 . S
C505 H475 0.950 . S
C505 C500 1.363 . S
C505 C504 1.415 . S
H506 C503 0.999 . S
H507 C488 0.913 . S
H508 C526 0.951 . S
H509 C528 0.951 . S
H510 C530 0.950 . S
H511 C531 0.950 . S
H512 C533 0.950 . S
H513 C536 0.950 . S
H514 C537 0.950 . S
H515 C539 0.950 . S
H516 C540 0.950 . S
H517 C541 0.951 . S
H518 C543 0.951 . S
H519 C545 0.950 . S
H520 C546 0.950 . S
H521 C548 0.950 . S
H522 C551 0.950 . S
H523 C552 0.950 . S
H524 C554 0.950 . S
H525 C555 0.950 . S
C526 H508 0.951 . S
C526 C527 1.366 . S
C526 C528 1.388 . S
C527 C526 1.366 . S
C527 C531 1.385 . S
C528 H509 0.951 . S
C528 C526 1.388 . S
C528 C529 1.366 . S
C529 C528 1.366 . S
C529 C530 1.414 . S
C529 C532 1.499 . S
C530 H510 0.950 . S
C530 C529 1.414 . S
C530 C531 1.374 . S
C531 H511 0.950 . S
C531 C527 1.385 . S
C531 C530 1.374 . S
C532 C529 1.499 . S
C532 C533 1.373 . S
C532 C534 1.389 . S
C533 H512 0.950 . S
C533 C532 1.373 . S
C533 C549 1.377 . S
C534 C532 1.389 . S
C534 C535 1.524 . S
C534 C548 1.377 . S
C535 C534 1.524 . S
C535 C536 1.397 . S
C535 C540 1.363 . S
C536 H513 0.950 . S
C536 C535 1.397 . S
C536 C537 1.334 . S
C537 H514 0.950 . S
C537 C536 1.334 . S
C537 C538 1.287 . S
C538 C537 1.287 . S
C538 C539 1.524 . S
C538 H557 0.913 . S
C539 H515 0.950 . S
C539 C538 1.524 . S
C539 C540 1.415 . S
C540 H516 0.950 . S
C540 C535 1.363 . S
C540 C539 1.415 . S
C541 H517 0.951 . S
C541 C542 1.366 . S
C541 C543 1.388 . S
C542 C541 1.366 . S
C542 C546 1.385 . S
C543 H518 0.951 . S
C543 C541 1.388 . S
C543 C544 1.366 . S
C544 C543 1.366 . S
C544 C545 1.414 . S
C544 C547 1.499 . S
C545 H519 0.950 . S
C545 C544 1.414 . S
C545 C546 1.374 . S
C546 H520 0.950 . S
C546 C542 1.385 . S
C546 C545 1.374 . S
C547 C544 1.499 . S
C547 C548 1.373 . S
C547 C549 1.389 . S
C548 H521 0.950 . S
C548 C534 1.377 . S
C548 C547 1.373 . S
C549 C533 1.377 . S
C549 C547 1.389 . S
C549 C550 1.524 . S
C550 C549 1.524 . S
C550 C551 1.397 . S
C550 C555 1.363 . S
C551 H522 0.950 . S
C551 C550 1.397 . S
C551 C552 1.334 . S
C552 H523 0.950 . S
C552 C551 1.334 . S
C552 C553 1.287 . S
C553 C552 1.287 . S
C553 C554 1.524 . S
C553 H556 0.999 . S
C554 H524 0.950 . S
C554 C553 1.524 . S
C554 C555 1.415 . S
C555 H525 0.950 . S
C555 C550 1.363 . S
C555 C554 1.415 . S
H556 C553 0.999 . S
H557 C538 0.913 . S
H558 C576 0.951 . S
H559 C578 0.951 . S
H560 C580 0.950 . S
H561 C581 0.950 . S
H562 C583 0.950 . S
H563 C586 0.950 . S
H564 C587 0.950 . S
H565 C589 0.950 . S
H566 C590 0.950 . S
H567 C591 0.951 . S
H568 C593 0.951 . S
H569 C595 0.950 . S
H570 C596 0.950 . S
H571 C598 0.950 . S
H572 C601 0.950 . S
H573 C602 0.950 . S
H574 C604 0.950 . S
H575 C605 0.950 . S
C576 H558 0.951 . S
C576 C577 1.366 . S
C576 C578 1.388 . S
C577 C576 1.366 . S
C577 C581 1.385 . S
C578 H559 0.951 . S
C578 C576 1.388 . S
C578 C579 1.366 . S
C579 C578 1.366 . S
C579 C580 1.414 . S
C579 C582 1.499 . S
C580 H560 0.950 . S
C580 C579 1.414 . S
C580 C581 1.374 . S
C581 H561 0.950 . S
C581 C577 1.385 . S
C581 C580 1.374 . S
C582 C579 1.499 . S
C582 C583 1.373 . S
C582 C584 1.389 . S
C583 H562 0.950 . S
C583 C582 1.373 . S
C583 C599 1.377 . S
C584 C582 1.389 . S
C584 C585 1.524 . S
C584 C598 1.377 . S
C585 C584 1.524 . S
C585 C586 1.397 . S
C585 C590 1.363 . S
C586 H563 0.950 . S
C586 C585 1.397 . S
C586 C587 1.334 . S
C587 H564 0.950 . S
C587 C586 1.334 . S
C587 C588 1.287 . S
C588 C587 1.287 . S
C588 C589 1.524 . S
C588 H607 0.913 . S
C589 H565 0.950 . S
C589 C588 1.524 . S
C589 C590 1.415 . S
C590 H566 0.950 . S
C590 C585 1.363 . S
C590 C589 1.415 . S
C591 H567 0.951 . S
C591 C592 1.366 . S
C591 C593 1.388 . S
C592 C591 1.366 . S
C592 C596 1.385 . S
C593 H568 0.951 . S
C593 C591 1.388 . S
C593 C594 1.366 . S
C594 C593 1.366 . S
C594 C595 1.414 . S
C594 C597 1.499 . S
C595 H569 0.950 . S
C595 C594 1.414 . S
C595 C596 1.374 . S
C596 H570 0.950 . S
C596 C592 1.385 . S
C596 C595 1.374 . S
C597 C594 1.499 . S
C597 C598 1.373 . S
C597 C599 1.389 . S
C598 H571 0.950 . S
C598 C584 1.377 . S
C598 C597 1.373 . S
C599 C583 1.377 . S
C599 C597 1.389 . S
C599 C600 1.524 . S
C600 C599 1.524 . S
C600 C601 1.397 . S
C600 C605 1.363 . S
C601 H572 0.950 . S
C601 C600 1.397 . S
C601 C602 1.334 . S
C602 H573 0.950 . S
C602 C601 1.334 . S
C602 C603 1.287 . S
C603 C602 1.287 . S
C603 C604 1.524 . S
C603 H606 0.999 . S
C604 H574 0.950 . S
C604 C603 1.524 . S
C604 C605 1.415 . S
C605 H575 0.950 . S
C605 C600 1.363 . S
C605 C604 1.415 . S
H606 C603 0.999 . S
H607 C588 0.913 . S
H608 C626 0.951 . S
H609 C628 0.951 . S
H610 C630 0.950 . S
H611 C631 0.950 . S
H612 C633 0.950 . S
H613 C636 0.950 . S
H614 C637 0.950 . S
H615 C639 0.950 . S
H616 C640 0.950 . S
H617 C641 0.951 . S
H618 C643 0.951 . S
H619 C645 0.950 . S
H620 C646 0.950 . S
H621 C648 0.950 . S
H622 C651 0.950 . S
H623 C652 0.950 . S
H624 C654 0.950 . S
H625 C655 0.950 . S
C626 H608 0.951 . S
C626 C627 1.366 . S
C626 C628 1.388 . S
C627 C626 1.366 . S
C627 C631 1.385 . S
C628 H609 0.951 . S
C628 C626 1.388 . S
C628 C629 1.366 . S
C629 C628 1.366 . S
C629 C630 1.414 . S
C629 C632 1.499 . S
C630 H610 0.950 . S
C630 C629 1.414 . S
C630 C631 1.374 . S
C631 H611 0.950 . S
C631 C627 1.385 . S
C631 C630 1.374 . S
C632 C629 1.499 . S
C632 C633 1.373 . S
C632 C634 1.389 . S
C633 H612 0.950 . S
C633 C632 1.373 . S
C633 C649 1.377 . S
C634 C632 1.389 . S
C634 C635 1.524 . S
C634 C648 1.377 . S
C635 C634 1.524 . S
C635 C636 1.397 . S
C635 C640 1.363 . S
C636 H613 0.950 . S
C636 C635 1.397 . S
C636 C637 1.334 . S
C637 H614 0.950 . S
C637 C636 1.334 . S
C637 C638 1.287 . S
C638 C637 1.287 . S
C638 C639 1.524 . S
C638 H657 0.913 . S
C639 H615 0.950 . S
C639 C638 1.524 . S
C639 C640 1.415 . S
C640 H616 0.950 . S
C640 C635 1.363 . S
C640 C639 1.415 . S
C641 H617 0.951 . S
C641 C642 1.366 . S
C641 C643 1.388 . S
C642 C641 1.366 . S
C642 C646 1.385 . S
C643 H618 0.951 . S
C643 C641 1.388 . S
C643 C644 1.366 . S
C644 C643 1.366 . S
C644 C645 1.414 . S
C644 C647 1.499 . S
C645 H619 0.950 . S
C645 C644 1.414 . S
C645 C646 1.374 . S
C646 H620 0.950 . S
C646 C642 1.385 . S
C646 C645 1.374 . S
C647 C644 1.499 . S
C647 C648 1.373 . S
C647 C649 1.389 . S
C648 H621 0.950 . S
C648 C634 1.377 . S
C648 C647 1.373 . S
C649 C633 1.377 . S
C649 C647 1.389 . S
C649 C650 1.524 . S
C650 C649 1.524 . S
C650 C651 1.397 . S
C650 C655 1.363 . S
C651 H622 0.950 . S
C651 C650 1.397 . S
C651 C652 1.334 . S
C652 H623 0.950 . S
C652 C651 1.334 . S
C652 C653 1.287 . S
C653 C652 1.287 . S
C653 C654 1.524 . S
C653 H656 0.999 . S
C654 H624 0.950 . S
C654 C653 1.524 . S
C654 C655 1.415 . S
C655 H625 0.950 . S
C655 C650 1.363 . S
C655 C654 1.415 . S
H656 C653 0.999 . S
H657 C638 0.913 . S
H658 C676 0.951 . S
H659 C678 0.951 . S
H660 C680 0.950 . S
H661 C681 0.950 . S
H662 C683 0.950 . S
H663 C686 0.950 . S
H664 C687 0.950 . S
H665 C689 0.950 . S
H666 C690 0.950 . S
H667 C691 0.951 . S
H668 C693 0.951 . S
H669 C695 0.950 . S
H670 C696 0.950 . S
H671 C698 0.950 . S
H672 C701 0.950 . S
H673 C702 0.950 . S
H674 C704 0.950 . S
H675 C705 0.950 . S
C676 H658 0.951 . S
C676 C677 1.366 . S
C676 C678 1.388 . S
C677 C676 1.366 . S
C677 C681 1.385 . S
C678 H659 0.951 . S
C678 C676 1.388 . S
C678 C679 1.366 . S
C679 C678 1.366 . S
C679 C680 1.414 . S
C679 C682 1.499 . S
C680 H660 0.950 . S
C680 C679 1.414 . S
C680 C681 1.374 . S
C681 H661 0.950 . S
C681 C677 1.385 . S
C681 C680 1.374 . S
C682 C679 1.499 . S
C682 C683 1.373 . S
C682 C684 1.389 . S
C683 H662 0.950 . S
C683 C682 1.373 . S
C683 C699 1.377 . S
C684 C682 1.389 . S
C684 C685 1.524 . S
C684 C698 1.377 . S
C685 C684 1.524 . S
C685 C686 1.397 . S
C685 C690 1.363 . S
C686 H663 0.950 . S
C686 C685 1.397 . S
C686 C687 1.334 . S
C687 H664 0.950 . S
C687 C686 1.334 . S
C687 C688 1.287 . S
C688 C687 1.287 . S
C688 C689 1.524 . S
C688 H707 0.913 . S
C689 H665 0.950 . S
C689 C688 1.524 . S
C689 C690 1.415 . S
C690 H666 0.950 . S
C690 C685 1.363 . S
C690 C689 1.415 . S
C691 H667 0.951 . S
C691 C692 1.366 . S
C691 C693 1.388 . S
C692 C691 1.366 . S
C692 C696 1.385 . S
C693 H668 0.951 . S
C693 C691 1.388 . S
C693 C694 1.366 . S
C694 C693 1.366 . S
C694 C695 1.414 . S
C694 C697 1.499 . S
C695 H669 0.950 . S
C695 C694 1.414 . S
C695 C696 1.374 . S
C696 H670 0.950 . S
C696 C692 1.385 . S
C696 C695 1.374 . S
C697 C694 1.499 . S
C697 C698 1.373 . S
C697 C699 1.389 . S
C698 H671 0.950 . S
C698 C684 1.377 . S
C698 C697 1.373 . S
C699 C683 1.377 . S
C699 C697 1.389 . S
C699 C700 1.524 . S
C700 C699 1.524 . S
C700 C701 1.397 . S
C700 C705 1.363 . S
C701 H672 0.950 . S
C701 C700 1.397 . S
C701 C702 1.334 . S
C702 H673 0.950 . S
C702 C701 1.334 . S
C702 C703 1.287 . S
C703 C702 1.287 . S
C703 C704 1.524 . S
C703 H706 0.999 . S
C704 H674 0.950 . S
C704 C703 1.524 . S
C704 C705 1.415 . S
C705 H675 0.950 . S
C705 C700 1.363 . S
C705 C704 1.415 . S
H706 C703 0.999 . S
H707 C688 0.913 . S
H708 C726 0.951 . S
H709 C728 0.951 . S
H710 C730 0.950 . S
H711 C731 0.950 . S
H712 C733 0.950 . S
H713 C736 0.950 . S
H714 C737 0.950 . S
H715 C739 0.950 . S
H716 C740 0.950 . S
H717 C741 0.951 . S
H718 C743 0.951 . S
H719 C745 0.950 . S
H720 C746 0.950 . S
H721 C748 0.950 . S
H722 C751 0.950 . S
H723 C752 0.950 . S
H724 C754 0.950 . S
H725 C755 0.950 . S
C726 H708 0.951 . S
C726 C727 1.366 . S
C726 C728 1.388 . S
C727 C726 1.366 . S
C727 C731 1.385 . S
C728 H709 0.951 . S
C728 C726 1.388 . S
C728 C729 1.366 . S
C729 C728 1.366 . S
C729 C730 1.414 . S
C729 C732 1.499 . S
C730 H710 0.950 . S
C730 C729 1.414 . S
C730 C731 1.374 . S
C731 H711 0.950 . S
C731 C727 1.385 . S
C731 C730 1.374 . S
C732 C729 1.499 . S
C732 C733 1.373 . S
C732 C734 1.389 . S
C733 H712 0.950 . S
C733 C732 1.373 . S
C733 C749 1.377 . S
C734 C732 1.389 . S
C734 C735 1.524 . S
C734 C748 1.377 . S
C735 C734 1.524 . S
C735 C736 1.397 . S
C735 C740 1.363 . S
C736 H713 0.950 . S
C736 C735 1.397 . S
C736 C737 1.334 . S
C737 H714 0.950 . S
C737 C736 1.334 . S
C737 C738 1.287 . S
C738 C737 1.287 . S
C738 C739 1.524 . S
C738 H757 0.913 . S
C739 H715 0.950 . S
C739 C738 1.524 . S
C739 C740 1.415 . S
C740 H716 0.950 . S
C740 C735 1.363 . S
C740 C739 1.415 . S
C741 H717 0.951 . S
C741 C742 1.366 . S
C741 C743 1.388 . S
C742 C741 1.366 . S
C742 C746 1.385 . S
C743 H718 0.951 . S
C743 C741 1.388 . S
C743 C744 1.366 . S
C744 C743 1.366 . S
C744 C745 1.414 . S
C744 C747 1.499 . S
C745 H719 0.950 . S
C745 C744 1.414 . S
C745 C746 1.374 . S
C746 H720 0.950 . S
C746 C742 1.385 . S
C746 C745 1.374 . S
C747 C744 1.499 . S
C747 C748 1.373 . S
C747 C749 1.389 . S
C748 H721 0.950 . S
C748 C734 1.377 . S
C748 C747 1.373 . S
C749 C733 1.377 . S
C749 C747 1.389 . S
C749 C750 1.524 . S
C750 C749 1.524 . S
C750 C751 1.397 . S
C750 C755 1.363 . S
C751 H722 0.950 . S
C751 C750 1.397 . S
C751 C752 1.334 . S
C752 H723 0.950 . S
C752 C751 1.334 . S
C752 C753 1.287 . S
C753 C752 1.287 . S
C753 C754 1.524 . S
C753 H756 0.999 . S
C754 H724 0.950 . S
C754 C753 1.524 . S
C754 C755 1.415 . S
C755 H725 0.950 . S
C755 C750 1.363 . S
C755 C754 1.415 . S
H756 C753 0.999 . S
H757 C738 0.913 . S
H758 C776 0.951 . S
H759 C778 0.951 . S
H760 C780 0.950 . S
H761 C781 0.950 . S
H762 C783 0.950 . S
H763 C786 0.950 . S
H764 C787 0.950 . S
H765 C789 0.946 1_556 S
H766 C790 0.933 1_556 S
H767 C791 0.951 . S
H768 C793 0.951 . S
H769 C795 0.950 . S
H770 C796 0.950 . S
H771 C798 0.950 . S
H772 C801 0.950 . S
H773 C802 0.950 . S
H774 C804 0.946 1_554 S
H775 C805 0.933 1_554 S
C776 H758 0.951 . S
C776 C777 1.366 . S
C776 C778 1.388 . S
C777 C776 1.366 . S
C777 C781 1.385 . S
C778 H759 0.951 . S
C778 C776 1.388 . S
C778 C779 1.366 . S
C779 C778 1.366 . S
C779 C780 1.414 . S
C779 C782 1.499 . S
C780 H760 0.950 . S
C780 C779 1.414 . S
C780 C781 1.374 . S
C781 H761 0.950 . S
C781 C777 1.385 . S
C781 C780 1.374 . S
C782 C779 1.499 . S
C782 C783 1.373 . S
C782 C784 1.389 . S
C783 H762 0.950 . S
C783 C782 1.373 . S
C783 C799 1.377 1_554 S
C784 C782 1.389 . S
C784 C785 1.524 . S
C784 C798 1.377 1_554 S
C785 C784 1.524 . S
C785 C786 1.397 . S
C785 C790 1.378 . S
C786 H763 0.950 . S
C786 C785 1.397 . S
C786 C787 1.334 . S
C787 H764 0.950 . S
C787 C786 1.334 . S
C787 C788 1.287 . S
C788 C787 1.287 . S
C788 C789 1.524 . S
C788 H807 0.913 . S
C789 H765 0.946 1_554 S
C789 C788 1.524 . S
C789 C790 1.420 . S
C790 H766 0.933 1_554 S
C790 C785 1.378 . S
C790 C789 1.420 . S
C791 H767 0.951 . S
C791 C792 1.366 . S
C791 C793 1.388 . S
C792 C791 1.366 . S
C792 C796 1.385 . S
C793 H768 0.951 . S
C793 C791 1.388 . S
C793 C794 1.366 . S
C794 C793 1.366 . S
C794 C795 1.414 . S
C794 C797 1.499 . S
C795 H769 0.950 . S
C795 C794 1.414 . S
C795 C796 1.374 . S
C796 H770 0.950 . S
C796 C792 1.385 . S
C796 C795 1.374 . S
C797 C794 1.499 . S
C797 C798 1.373 . S
C797 C799 1.389 . S
C798 H771 0.950 . S
C798 C784 1.377 1_556 S
C798 C797 1.373 . S
C799 C783 1.377 1_556 S
C799 C797 1.389 . S
C799 C800 1.524 . S
C800 C799 1.524 . S
C800 C801 1.397 . S
C800 C805 1.378 . S
C801 H772 0.950 . S
C801 C800 1.397 . S
C801 C802 1.334 . S
C802 H773 0.950 . S
C802 C801 1.334 . S
C802 C803 1.287 . S
C803 C802 1.287 . S
C803 C804 1.524 . S
C803 H806 0.999 . S
C804 H774 0.946 1_556 S
C804 C803 1.524 . S
C804 C805 1.420 . S
C805 H775 0.933 1_556 S
C805 C800 1.378 . S
C805 C804 1.420 . S
H806 C803 0.999 . S
H807 C788 0.913 . S
H808 C826 0.951 . S
H809 C828 0.951 . S
H810 C830 0.950 . S
H811 C831 0.950 . S
H812 C833 0.950 . S
H813 C836 0.950 . S
H814 C837 0.950 . S
H815 C839 0.950 . S
H816 C840 0.950 . S
H817 C841 0.951 . S
H818 C843 0.951 . S
H819 C845 0.950 . S
H820 C846 0.950 . S
H821 C848 0.950 . S
H822 C851 0.950 . S
H823 C852 0.950 . S
H824 C854 0.950 . S
H825 C855 0.950 . S
C826 H808 0.951 . S
C826 C827 1.366 . S
C826 C828 1.388 . S
C827 C826 1.366 . S
C827 C831 1.385 . S
C828 H809 0.951 . S
C828 C826 1.388 . S
C828 C829 1.366 . S
C829 C828 1.366 . S
C829 C830 1.414 . S
C829 C832 1.499 . S
C830 H810 0.950 . S
C830 C829 1.414 . S
C830 C831 1.374 . S
C831 H811 0.950 . S
C831 C827 1.385 . S
C831 C830 1.374 . S
C832 C829 1.499 . S
C832 C833 1.373 . S
C832 C834 1.389 . S
C833 H812 0.950 . S
C833 C832 1.373 . S
C833 C849 1.377 1_554 S
C834 C832 1.389 . S
C834 C835 1.524 . S
C834 C848 1.377 1_554 S
C835 C834 1.524 . S
C835 C836 1.397 . S
C835 C840 1.363 . S
C836 H813 0.950 . S
C836 C835 1.397 . S
C836 C837 1.334 . S
C837 H814 0.950 . S
C837 C836 1.334 . S
C837 C838 1.287 . S
C838 C837 1.287 . S
C838 C839 1.524 . S
C838 H857 0.913 . S
C839 H815 0.950 . S
C839 C838 1.524 . S
C839 C840 1.415 . S
C840 H816 0.950 . S
C840 C835 1.363 . S
C840 C839 1.415 . S
C841 H817 0.951 . S
C841 C842 1.366 . S
C841 C843 1.388 . S
C842 C841 1.366 . S
C842 C846 1.385 . S
C843 H818 0.951 . S
C843 C841 1.388 . S
C843 C844 1.366 . S
C844 C843 1.366 . S
C844 C845 1.414 . S
C844 C847 1.499 . S
C845 H819 0.950 . S
C845 C844 1.414 . S
C845 C846 1.374 . S
C846 H820 0.950 . S
C846 C842 1.385 . S
C846 C845 1.374 . S
C847 C844 1.499 . S
C847 C848 1.373 . S
C847 C849 1.389 . S
C848 H821 0.950 . S
C848 C834 1.377 1_556 S
C848 C847 1.373 . S
C849 C833 1.377 1_556 S
C849 C847 1.389 . S
C849 C850 1.524 . S
C850 C849 1.524 . S
C850 C851 1.397 . S
C850 C855 1.363 . S
C851 H822 0.950 . S
C851 C850 1.397 . S
C851 C852 1.334 . S
C852 H823 0.950 . S
C852 C851 1.334 . S
C852 C853 1.287 . S
C853 C852 1.287 . S
C853 C854 1.524 . S
C853 H856 0.999 . S
C854 H824 0.950 . S
C854 C853 1.524 . S
C854 C855 1.415 . S
C855 H825 0.950 . S
C855 C850 1.363 . S
C855 C854 1.415 . S
H856 C853 0.999 . S
H857 C838 0.913 . S
H858 C876 0.951 . S
H859 C878 0.951 . S
H860 C880 0.950 . S
H861 C881 0.950 . S
H862 C883 0.950 . S
H863 C886 0.950 . S
H864 C887 0.950 . S
H865 C889 0.950 . S
H866 C890 0.950 . S
H867 C891 0.951 . S
H868 C893 0.951 . S
H869 C895 0.950 . S
H870 C896 0.950 . S
H871 C898 0.950 . S
H872 C901 0.950 . S
H873 C902 0.950 . S
H874 C904 0.950 . S
H875 C905 0.950 . S
C876 H858 0.951 . S
C876 C877 1.366 . S
C876 C878 1.388 . S
C877 C876 1.366 . S
C877 C881 1.385 . S
C878 H859 0.951 . S
C878 C876 1.388 . S
C878 C879 1.366 . S
C879 C878 1.366 . S
C879 C880 1.414 . S
C879 C882 1.499 . S
C880 H860 0.950 . S
C880 C879 1.414 . S
C880 C881 1.374 . S
C881 H861 0.950 . S
C881 C877 1.385 . S
C881 C880 1.374 . S
C882 C879 1.499 . S
C882 C883 1.373 . S
C882 C884 1.389 . S
C883 H862 0.950 . S
C883 C882 1.373 . S
C883 C899 1.377 . S
C884 C882 1.389 . S
C884 C885 1.524 . S
C884 C898 1.377 . S
C885 C884 1.524 . S
C885 C886 1.397 . S
C885 C890 1.363 . S
C886 H863 0.950 . S
C886 C885 1.397 . S
C886 C887 1.334 . S
C887 H864 0.950 . S
C887 C886 1.334 . S
C887 C888 1.287 . S
C888 C887 1.287 . S
C888 C889 1.524 . S
C888 H907 0.913 . S
C889 H865 0.950 . S
C889 C888 1.524 . S
C889 C890 1.415 . S
C890 H866 0.950 . S
C890 C885 1.363 . S
C890 C889 1.415 . S
C891 H867 0.951 . S
C891 C892 1.366 . S
C891 C893 1.388 . S
C892 C891 1.366 . S
C892 C896 1.385 . S
C893 H868 0.951 . S
C893 C891 1.388 . S
C893 C894 1.366 . S
C894 C893 1.366 . S
C894 C895 1.414 . S
C894 C897 1.499 . S
C895 H869 0.950 . S
C895 C894 1.414 . S
C895 C896 1.374 . S
C896 H870 0.950 . S
C896 C892 1.385 . S
C896 C895 1.374 . S
C897 C894 1.499 . S
C897 C898 1.373 . S
C897 C899 1.389 . S
C898 H871 0.950 . S
C898 C884 1.377 . S
C898 C897 1.373 . S
C899 C883 1.377 . S
C899 C897 1.389 . S
C899 C900 1.524 . S
C900 C899 1.524 . S
C900 C901 1.397 . S
C900 C905 1.363 . S
C901 H872 0.950 . S
C901 C900 1.397 . S
C901 C902 1.334 . S
C902 H873 0.950 . S
C902 C901 1.334 . S
C902 C903 1.287 . S
C903 C902 1.287 . S
C903 C904 1.524 . S
C903 H906 0.999 . S
C904 H874 0.950 . S
C904 C903 1.524 . S
C904 C905 1.415 . S
C905 H875 0.950 . S
C905 C900 1.363 . S
C905 C904 1.415 . S
H906 C903 0.999 . S
H907 C888 0.913 . S
H908 C926 0.951 . S
H909 C928 0.951 . S
H910 C930 0.950 . S
H911 C931 0.950 . S
H912 C933 0.950 . S
H913 C936 0.950 . S
H914 C937 0.950 . S
H915 C939 0.950 . S
H916 C940 0.950 . S
H917 C941 0.951 . S
H918 C943 0.951 . S
H919 C945 0.950 . S
H920 C946 0.950 . S
H921 C948 0.950 . S
H922 C951 0.950 . S
H923 C952 0.950 . S
H924 C954 0.950 . S
H925 C955 0.950 . S
C926 H908 0.951 . S
C926 C927 1.366 . S
C926 C928 1.388 . S
C927 C926 1.366 . S
C927 C931 1.385 . S
C928 H909 0.951 . S
C928 C926 1.388 . S
C928 C929 1.366 . S
C929 C928 1.366 . S
C929 C930 1.414 . S
C929 C932 1.499 . S
C930 H910 0.950 . S
C930 C929 1.414 . S
C930 C931 1.374 . S
C931 H911 0.950 . S
C931 C927 1.385 . S
C931 C930 1.374 . S
C932 C929 1.499 . S
C932 C933 1.373 . S
C932 C934 1.389 . S
C933 H912 0.950 . S
C933 C932 1.373 . S
C933 C949 1.377 . S
C934 C932 1.389 . S
C934 C935 1.524 . S
C934 C948 1.377 . S
C935 C934 1.524 . S
C935 C936 1.397 . S
C935 C940 1.363 . S
C936 H913 0.950 . S
C936 C935 1.397 . S
C936 C937 1.334 . S
C937 H914 0.950 . S
C937 C936 1.334 . S
C937 C938 1.287 . S
C938 C937 1.287 . S
C938 C939 1.524 . S
C938 H957 0.913 . S
C939 H915 0.950 . S
C939 C938 1.524 . S
C939 C940 1.415 . S
C940 H916 0.950 . S
C940 C935 1.363 . S
C940 C939 1.415 . S
C941 H917 0.951 . S
C941 C942 1.366 . S
C941 C943 1.388 . S
C942 C941 1.366 . S
C942 C946 1.385 . S
C943 H918 0.951 . S
C943 C941 1.388 . S
C943 C944 1.366 . S
C944 C943 1.366 . S
C944 C945 1.414 . S
C944 C947 1.499 . S
C945 H919 0.950 . S
C945 C944 1.414 . S
C945 C946 1.374 . S
C946 H920 0.950 . S
C946 C942 1.385 . S
C946 C945 1.374 . S
C947 C944 1.499 . S
C947 C948 1.373 . S
C947 C949 1.389 . S
C948 H921 0.950 . S
C948 C934 1.377 . S
C948 C947 1.373 . S
C949 C933 1.377 . S
C949 C947 1.389 . S
C949 C950 1.524 . S
C950 C949 1.524 . S
C950 C951 1.397 . S
C950 C955 1.363 . S
C951 H922 0.950 . S
C951 C950 1.397 . S
C951 C952 1.334 . S
C952 H923 0.950 . S
C952 C951 1.334 . S
C952 C953 1.287 . S
C953 C952 1.287 . S
C953 C954 1.524 . S
C953 H956 0.999 . S
C954 H924 0.950 . S
C954 C953 1.524 . S
C954 C955 1.415 . S
C955 H925 0.950 . S
C955 C950 1.363 . S
C955 C954 1.415 . S
H956 C953 0.999 . S
H957 C938 0.913 . S
H958 C976 0.951 . S
H959 C978 0.951 . S
H960 C980 0.950 . S
H961 C981 0.950 . S
H962 C983 0.950 . S
H963 C986 0.950 . S
H964 C987 0.950 . S
H965 C989 0.950 . S
H966 C990 0.950 . S
H967 C991 0.951 . S
H968 C993 0.951 . S
H969 C995 0.950 . S
H970 C996 0.950 . S
H971 C998 0.950 . S
H972 C1001 0.950 . S
H973 C1002 0.950 . S
H974 C1004 0.950 . S
H975 C1005 0.950 . S
C976 H958 0.951 . S
C976 C977 1.366 . S
C976 C978 1.388 . S
C977 C976 1.366 . S
C977 C981 1.385 . S
C978 H959 0.951 . S
C978 C976 1.388 . S
C978 C979 1.366 . S
C979 C978 1.366 . S
C979 C980 1.414 . S
C979 C982 1.499 . S
C980 H960 0.950 . S
C980 C979 1.414 . S
C980 C981 1.374 . S
C981 H961 0.950 . S
C981 C977 1.385 . S
C981 C980 1.374 . S
C982 C979 1.499 . S
C982 C983 1.373 . S
C982 C984 1.389 . S
C983 H962 0.950 . S
C983 C982 1.373 . S
C983 C999 1.377 . S
C984 C982 1.389 . S
C984 C985 1.524 . S
C984 C998 1.377 . S
C985 C984 1.524 . S
C985 C986 1.397 . S
C985 C990 1.363 . S
C986 H963 0.950 . S
C986 C985 1.397 . S
C986 C987 1.334 . S
C987 H964 0.950 . S
C987 C986 1.334 . S
C987 C988 1.287 . S
C988 C987 1.287 . S
C988 C989 1.524 . S
C988 H1007 0.913 . S
C989 H965 0.950 . S
C989 C988 1.524 . S
C989 C990 1.415 . S
C990 H966 0.950 . S
C990 C985 1.363 . S
C990 C989 1.415 . S
C991 H967 0.951 . S
C991 C992 1.366 . S
C991 C993 1.388 . S
C992 C991 1.366 . S
C992 C996 1.385 . S
C993 H968 0.951 . S
C993 C991 1.388 . S
C993 C994 1.366 . S
C994 C993 1.366 . S
C994 C995 1.414 . S
C994 C997 1.499 . S
C995 H969 0.950 . S
C995 C994 1.414 . S
C995 C996 1.374 . S
C996 H970 0.950 . S
C996 C992 1.385 . S
C996 C995 1.374 . S
C997 C994 1.499 . S
C997 C998 1.373 . S
C997 C999 1.389 . S
C998 H971 0.950 . S
C998 C984 1.377 . S
C998 C997 1.373 . S
C999 C983 1.377 . S
C999 C997 1.389 . S
C999 C1000 1.524 . S
C1000 C999 1.524 . S
C1000 C1001 1.397 . S
C1000 C1005 1.363 . S
C1001 H972 0.950 . S
C1001 C1000 1.397 . S
C1001 C1002 1.334 . S
C1002 H973 0.950 . S
C1002 C1001 1.334 . S
C1002 C1003 1.287 . S
C1003 C1002 1.287 . S
C1003 C1004 1.524 . S
C1003 H1006 0.999 . S
C1004 H974 0.950 . S
C1004 C1003 1.524 . S
C1004 C1005 1.415 . S
C1005 H975 0.950 . S
C1005 C1000 1.363 . S
C1005 C1004 1.415 . S
H1006 C1003 0.999 . S
H1007 C988 0.913 . S
H1008 C1026 0.951 . S
H1009 C1028 0.951 . S
H1010 C1030 0.950 1_565 S
H1011 C1031 0.950 . S
H1012 C1033 0.950 . S
H1013 C1036 0.950 . S
H1014 C1037 0.950 . S
H1015 C1039 0.950 . S
H1016 C1040 0.950 . S
H1017 C1041 0.951 . S
H1018 C1043 0.951 . S
H1019 C1045 0.950 1_545 S
H1020 C1046 0.950 . S
H1021 C1048 0.950 . S
H1022 C1051 0.950 . S
H1023 C1052 0.950 . S
H1024 C1054 0.950 . S
H1025 C1055 0.950 . S
C1026 H1008 0.951 . S
C1026 C1027 1.366 . S
C1026 C1028 1.388 . S
C1027 C1026 1.366 . S
C1027 C1031 1.385 . S
C1028 H1009 0.951 . S
C1028 C1026 1.388 . S
C1028 C1029 1.366 . S
C1029 C1028 1.366 . S
C1029 C1030 1.414 . S
C1029 C1032 1.499 . S
C1030 H1010 0.950 1_545 S
C1030 C1029 1.414 . S
C1030 C1031 1.374 . S
C1031 H1011 0.950 . S
C1031 C1027 1.385 . S
C1031 C1030 1.374 . S
C1032 C1029 1.499 . S
C1032 C1033 1.373 1_545 S
C1032 C1034 1.389 . S
C1033 H1012 0.950 . S
C1033 C1032 1.373 1_565 S
C1033 C1049 1.377 1_455 S
C1034 C1032 1.389 . S
C1034 C1035 1.524 . S
C1034 C1048 1.377 1_455 S
C1035 C1034 1.524 . S
C1035 C1036 1.397 . S
C1035 C1040 1.363 1_455 S
C1036 H1013 0.950 . S
C1036 C1035 1.397 . S
C1036 C1037 1.334 . S
C1037 H1014 0.950 . S
C1037 C1036 1.334 . S
C1037 C1038 1.287 . S
C1038 C1037 1.287 . S
C1038 C1039 1.524 1_455 S
C1038 H1057 0.913 . S
C1039 H1015 0.950 . S
C1039 C1038 1.524 1_655 S
C1039 C1040 1.415 . S
C1040 H1016 0.950 . S
C1040 C1035 1.363 1_655 S
C1040 C1039 1.415 . S
C1041 H1017 0.951 . S
C1041 C1042 1.366 . S
C1041 C1043 1.388 . S
C1042 C1041 1.366 . S
C1042 C1046 1.385 . S
C1043 H1018 0.951 . S
C1043 C1041 1.388 . S
C1043 C1044 1.366 . S
C1044 C1043 1.366 . S
C1044 C1045 1.414 . S
C1044 C1047 1.499 . S
C1045 H1019 0.950 1_565 S
C1045 C1044 1.414 . S
C1045 C1046 1.374 . S
C1046 H1020 0.950 . S
C1046 C1042 1.385 . S
C1046 C1045 1.374 . S
C1047 C1044 1.499 . S
C1047 C1048 1.373 1_565 S
C1047 C1049 1.389 . S
C1048 H1021 0.950 . S
C1048 C1034 1.377 1_655 S
C1048 C1047 1.373 1_545 S
C1049 C1033 1.377 1_655 S
C1049 C1047 1.389 . S
C1049 C1050 1.524 . S
C1050 C1049 1.524 . S
C1050 C1051 1.397 . S
C1050 C1055 1.363 1_655 S
C1051 H1022 0.950 . S
C1051 C1050 1.397 . S
C1051 C1052 1.334 . S
C1052 H1023 0.950 . S
C1052 C1051 1.334 . S
C1052 C1053 1.287 . S
C1053 C1052 1.287 . S
C1053 C1054 1.524 1_655 S
C1053 H1056 0.999 . S
C1054 H1024 0.950 . S
C1054 C1053 1.524 1_455 S
C1054 C1055 1.415 . S
C1055 H1025 0.950 . S
C1055 C1050 1.363 1_455 S
C1055 C1054 1.415 . S
H1056 C1053 0.999 . S
H1057 C1038 0.913 . S
H1058 C1076 0.951 . S
H1059 C1078 0.951 1_655 S
H1060 C1080 0.950 . S
H1061 C1081 0.950 . S
H1062 C1083 0.950 . S
H1063 C1086 0.950 . S
H1064 C1087 0.950 . S
H1065 C1089 0.950 . S
H1066 C1090 0.950 . S
H1067 C1091 0.951 . S
H1068 C1093 0.951 1_455 S
H1069 C1095 0.950 . S
H1070 C1096 0.950 . S
H1071 C1098 0.950 . S
H1072 C1101 0.950 . S
H1073 C1102 0.950 . S
H1074 C1104 0.950 . S
H1075 C1105 0.950 . S
C1076 H1058 0.951 . S
C1076 C1077 1.366 . S
C1076 C1078 1.388 . S
C1077 C1076 1.366 . S
C1077 C1081 1.385 . S
C1078 H1059 0.951 1_455 S
C1078 C1076 1.388 . S
C1078 C1079 1.366 . S
C1079 C1078 1.366 . S
C1079 C1080 1.414 . S
C1079 C1082 1.499 . S
C1080 H1060 0.950 . S
C1080 C1079 1.414 . S
C1080 C1081 1.374 . S
C1081 H1061 0.950 . S
C1081 C1077 1.385 . S
C1081 C1080 1.374 . S
C1082 C1079 1.499 . S
C1082 C1083 1.373 . S
C1082 C1084 1.389 1_455 S
C1083 H1062 0.950 . S
C1083 C1082 1.373 . S
C1083 C1099 1.377 . S
C1084 C1082 1.389 1_655 S
C1084 C1085 1.524 . S
C1084 C1098 1.377 . S
C1085 C1084 1.524 . S
C1085 C1086 1.397 1_655 S
C1085 C1090 1.363 . S
C1086 H1063 0.950 . S
C1086 C1085 1.397 1_455 S
C1086 C1087 1.334 . S
C1087 H1064 0.950 . S
C1087 C1086 1.334 . S
C1087 C1088 1.287 1_455 S
C1088 C1087 1.287 1_655 S
C1088 C1089 1.524 . S
C1088 H1107 0.913 . S
C1089 H1065 0.950 . S
C1089 C1088 1.524 . S
C1089 C1090 1.415 . S
C1090 H1066 0.950 . S
C1090 C1085 1.363 . S
C1090 C1089 1.415 . S
C1091 H1067 0.951 . S
C1091 C1092 1.366 . S
C1091 C1093 1.388 . S
C1092 C1091 1.366 . S
C1092 C1096 1.385 . S
C1093 H1068 0.951 1_655 S
C1093 C1091 1.388 . S
C1093 C1094 1.366 . S
C1094 C1093 1.366 . S
C1094 C1095 1.414 . S
C1094 C1097 1.499 . S
C1095 H1069 0.950 . S
C1095 C1094 1.414 . S
C1095 C1096 1.374 . S
C1096 H1070 0.950 . S
C1096 C1092 1.385 . S
C1096 C1095 1.374 . S
C1097 C1094 1.499 . S
C1097 C1098 1.373 . S
C1097 C1099 1.389 1_655 S
C1098 H1071 0.950 . S
C1098 C1084 1.377 . S
C1098 C1097 1.373 . S
C1099 C1083 1.377 . S
C1099 C1097 1.389 1_455 S
C1099 C1100 1.524 . S
C1100 C1099 1.524 . S
C1100 C1101 1.397 1_455 S
C1100 C1105 1.363 . S
C1101 H1072 0.950 . S
C1101 C1100 1.397 1_655 S
C1101 C1102 1.334 . S
C1102 H1073 0.950 . S
C1102 C1101 1.334 . S
C1102 C1103 1.287 1_655 S
C1103 C1102 1.287 1_455 S
C1103 C1104 1.524 . S
C1103 H1106 0.999 . S
C1104 H1074 0.950 . S
C1104 C1103 1.524 . S
C1104 C1105 1.415 . S
C1105 H1075 0.950 . S
C1105 C1100 1.363 . S
C1105 C1104 1.415 . S
H1106 C1103 0.999 . S
H1107 C1088 0.913 . S
H1108 C1126 0.951 . S
H1109 C1128 0.951 . S
H1110 C1130 0.950 . S
H1111 C1131 0.950 . S
H1112 C1133 0.950 . S
H1113 C1136 0.950 . S
H1114 C1137 0.950 . S
H1115 C1139 0.950 . S
H1116 C1140 0.950 . S
H1117 C1141 0.951 . S
H1118 C1143 0.951 . S
H1119 C1145 0.950 . S
H1120 C1146 0.950 . S
H1121 C1148 0.950 . S
H1122 C1151 0.950 . S
H1123 C1152 0.950 . S
H1124 C1154 0.950 . S
H1125 C1155 0.950 . S
C1126 H1108 0.951 . S
C1126 C1127 1.366 . S
C1126 C1128 1.388 . S
C1127 C1126 1.366 . S
C1127 C1131 1.385 . S
C1128 H1109 0.951 . S
C1128 C1126 1.388 . S
C1128 C1129 1.366 . S
C1129 C1128 1.366 . S
C1129 C1130 1.414 . S
C1129 C1132 1.499 . S
C1130 H1110 0.950 . S
C1130 C1129 1.414 . S
C1130 C1131 1.374 . S
C1131 H1111 0.950 . S
C1131 C1127 1.385 . S
C1131 C1130 1.374 . S
C1132 C1129 1.499 . S
C1132 C1133 1.373 . S
C1132 C1134 1.389 . S
C1133 H1112 0.950 . S
C1133 C1132 1.373 . S
C1133 C1149 1.377 . S
C1134 C1132 1.389 . S
C1134 C1135 1.524 . S
C1134 C1148 1.377 . S
C1135 C1134 1.524 . S
C1135 C1136 1.397 . S
C1135 C1140 1.363 . S
C1136 H1113 0.950 . S
C1136 C1135 1.397 . S
C1136 C1137 1.334 . S
C1137 H1114 0.950 . S
C1137 C1136 1.334 . S
C1137 C1138 1.287 . S
C1138 C1137 1.287 . S
C1138 C1139 1.524 . S
C1138 H1157 0.913 . S
C1139 H1115 0.950 . S
C1139 C1138 1.524 . S
C1139 C1140 1.415 . S
C1140 H1116 0.950 . S
C1140 C1135 1.363 . S
C1140 C1139 1.415 . S
C1141 H1117 0.951 . S
C1141 C1142 1.366 . S
C1141 C1143 1.388 . S
C1142 C1141 1.366 . S
C1142 C1146 1.385 . S
C1143 H1118 0.951 . S
C1143 C1141 1.388 . S
C1143 C1144 1.366 . S
C1144 C1143 1.366 . S
C1144 C1145 1.414 . S
C1144 C1147 1.499 . S
C1145 H1119 0.950 . S
C1145 C1144 1.414 . S
C1145 C1146 1.374 . S
C1146 H1120 0.950 . S
C1146 C1142 1.385 . S
C1146 C1145 1.374 . S
C1147 C1144 1.499 . S
C1147 C1148 1.373 . S
C1147 C1149 1.389 . S
C1148 H1121 0.950 . S
C1148 C1134 1.377 . S
C1148 C1147 1.373 . S
C1149 C1133 1.377 . S
C1149 C1147 1.389 . S
C1149 C1150 1.524 . S
C1150 C1149 1.524 . S
C1150 C1151 1.397 . S
C1150 C1155 1.363 . S
C1151 H1122 0.950 . S
C1151 C1150 1.397 . S
C1151 C1152 1.334 . S
C1152 H1123 0.950 . S
C1152 C1151 1.334 . S
C1152 C1153 1.287 . S
C1153 C1152 1.287 . S
C1153 C1154 1.524 . S
C1153 H1156 0.999 . S
C1154 H1124 0.950 . S
C1154 C1153 1.524 . S
C1154 C1155 1.415 . S
C1155 H1125 0.950 . S
C1155 C1150 1.363 . S
C1155 C1154 1.415 . S
H1156 C1153 0.999 . S
H1157 C1138 0.913 . S
H1158 C1176 0.951 . S
H1159 C1178 0.951 . S
H1160 C1180 0.950 . S
H1161 C1181 0.950 . S
H1162 C1183 0.950 . S
H1163 C1186 0.950 . S
H1164 C1187 0.950 . S
H1165 C1189 0.950 . S
H1166 C1190 0.950 . S
H1167 C1191 0.951 . S
H1168 C1193 0.951 . S
H1169 C1195 0.950 . S
H1170 C1196 0.950 . S
H1171 C1198 0.950 . S
H1172 C1201 0.950 . S
H1173 C1202 0.950 . S
H1174 C1204 0.950 . S
H1175 C1205 0.950 . S
C1176 H1158 0.951 . S
C1176 C1177 1.366 . S
C1176 C1178 1.388 . S
C1177 C1176 1.366 . S
C1177 C1181 1.385 . S
C1178 H1159 0.951 . S
C1178 C1176 1.388 . S
C1178 C1179 1.366 . S
C1179 C1178 1.366 . S
C1179 C1180 1.414 . S
C1179 C1182 1.499 . S
C1180 H1160 0.950 . S
C1180 C1179 1.414 . S
C1180 C1181 1.374 . S
C1181 H1161 0.950 . S
C1181 C1177 1.385 . S
C1181 C1180 1.374 . S
C1182 C1179 1.499 . S
C1182 C1183 1.373 . S
C1182 C1184 1.389 . S
C1183 H1162 0.950 . S
C1183 C1182 1.373 . S
C1183 C1199 1.377 1_545 S
C1184 C1182 1.389 . S
C1184 C1185 1.524 . S
C1184 C1198 1.377 1_545 S
C1185 C1184 1.524 . S
C1185 C1186 1.397 . S
C1185 C1190 1.363 . S
C1186 H1163 0.950 . S
C1186 C1185 1.397 . S
C1186 C1187 1.334 . S
C1187 H1164 0.950 . S
C1187 C1186 1.334 . S
C1187 C1188 1.287 . S
C1188 C1187 1.287 . S
C1188 C1189 1.524 . S
C1188 H1207 0.913 . S
C1189 H1165 0.950 . S
C1189 C1188 1.524 . S
C1189 C1190 1.415 . S
C1190 H1166 0.950 . S
C1190 C1185 1.363 . S
C1190 C1189 1.415 . S
C1191 H1167 0.951 . S
C1191 C1192 1.366 . S
C1191 C1193 1.388 . S
C1192 C1191 1.366 . S
C1192 C1196 1.385 . S
C1193 H1168 0.951 . S
C1193 C1191 1.388 . S
C1193 C1194 1.366 . S
C1194 C1193 1.366 . S
C1194 C1195 1.414 . S
C1194 C1197 1.499 . S
C1195 H1169 0.950 . S
C1195 C1194 1.414 . S
C1195 C1196 1.374 . S
C1196 H1170 0.950 . S
C1196 C1192 1.385 . S
C1196 C1195 1.374 . S
C1197 C1194 1.499 . S
C1197 C1198 1.373 . S
C1197 C1199 1.389 . S
C1198 H1171 0.950 . S
C1198 C1184 1.377 1_565 S
C1198 C1197 1.373 . S
C1199 C1183 1.377 1_565 S
C1199 C1197 1.389 . S
C1199 C1200 1.524 . S
C1200 C1199 1.524 . S
C1200 C1201 1.397 . S
C1200 C1205 1.363 . S
C1201 H1172 0.950 . S
C1201 C1200 1.397 . S
C1201 C1202 1.334 . S
C1202 H1173 0.950 . S
C1202 C1201 1.334 . S
C1202 C1203 1.287 . S
C1203 C1202 1.287 . S
C1203 C1204 1.524 . S
C1203 H1206 0.999 . S
C1204 H1174 0.950 . S
C1204 C1203 1.524 . S
C1204 C1205 1.415 . S
C1205 H1175 0.950 . S
C1205 C1200 1.363 . S
C1205 C1204 1.415 . S
H1206 C1203 0.999 . S
H1207 C1188 0.913 . S
H1208 C1226 0.951 . S
H1209 C1228 0.951 . S
H1210 C1230 0.950 . S
H1211 C1231 0.950 . S
H1212 C1233 0.950 . S
H1213 C1236 0.950 . S
H1214 C1237 0.950 . S
H1215 C1239 0.950 . S
H1216 C1240 0.950 . S
H1217 C1241 0.951 . S
H1218 C1243 0.951 . S
H1219 C1245 0.950 . S
H1220 C1246 0.950 . S
H1221 C1248 0.950 . S
H1222 C1251 0.950 . S
H1223 C1252 0.950 . S
H1224 C1254 0.950 . S
H1225 C1255 0.950 . S
C1226 H1208 0.951 . S
C1226 C1227 1.366 . S
C1226 C1228 1.388 . S
C1227 C1226 1.366 . S
C1227 C1231 1.385 . S
C1228 H1209 0.951 . S
C1228 C1226 1.388 . S
C1228 C1229 1.366 . S
C1229 C1228 1.366 . S
C1229 C1230 1.414 . S
C1229 C1232 1.499 . S
C1230 H1210 0.950 . S
C1230 C1229 1.414 . S
C1230 C1231 1.374 . S
C1231 H1211 0.950 . S
C1231 C1227 1.385 . S
C1231 C1230 1.374 . S
C1232 C1229 1.499 . S
C1232 C1233 1.373 . S
C1232 C1234 1.416 . S
C1233 H1212 0.950 . S
C1233 C1232 1.373 . S
C1233 C1249 1.349 1_455 S
C1234 C1232 1.416 . S
C1234 C1235 1.523 1_455 S
C1234 C1248 1.349 1_455 S
C1235 C1234 1.523 1_655 S
C1235 C1236 1.385 1_655 S
C1235 C1240 1.377 . S
C1236 H1213 0.950 . S
C1236 C1235 1.385 1_455 S
C1236 C1237 1.334 . S
C1237 H1214 0.950 . S
C1237 C1236 1.334 . S
C1237 C1238 1.287 1_455 S
C1238 C1237 1.287 1_655 S
C1238 C1239 1.524 . S
C1238 H1257 0.913 . S
C1239 H1215 0.950 . S
C1239 C1238 1.524 . S
C1239 C1240 1.415 . S
C1240 H1216 0.950 . S
C1240 C1235 1.377 . S
C1240 C1239 1.415 . S
C1241 H1217 0.951 . S
C1241 C1242 1.366 . S
C1241 C1243 1.388 . S
C1242 C1241 1.366 . S
C1242 C1246 1.385 . S
C1243 H1218 0.951 . S
C1243 C1241 1.388 . S
C1243 C1244 1.366 . S
C1244 C1243 1.366 . S
C1244 C1245 1.414 . S
C1244 C1247 1.499 . S
C1245 H1219 0.950 . S
C1245 C1244 1.414 . S
C1245 C1246 1.374 . S
C1246 H1220 0.950 . S
C1246 C1242 1.385 . S
C1246 C1245 1.374 . S
C1247 C1244 1.499 . S
C1247 C1248 1.373 . S
C1247 C1249 1.416 . S
C1248 H1221 0.950 . S
C1248 C1234 1.349 1_655 S
C1248 C1247 1.373 . S
C1249 C1233 1.349 1_655 S
C1249 C1247 1.416 . S
C1249 C1250 1.523 1_655 S
C1250 C1249 1.523 1_455 S
C1250 C1251 1.385 1_455 S
C1250 C1255 1.377 . S
C1251 H1222 0.950 . S
C1251 C1250 1.385 1_655 S
C1251 C1252 1.334 . S
C1252 H1223 0.950 . S
C1252 C1251 1.334 . S
C1252 C1253 1.287 1_655 S
C1253 C1252 1.287 1_455 S
C1253 C1254 1.524 . S
C1253 H1256 0.999 . S
C1254 H1224 0.950 . S
C1254 C1253 1.524 . S
C1254 C1255 1.415 . S
C1255 H1225 0.950 . S
C1255 C1250 1.377 . S
C1255 C1254 1.415 . S
H1256 C1253 0.999 . S
H1257 C1238 0.913 . S
H1258 C1276 0.951 . S
H1259 C1278 0.951 . S
H1260 C1280 0.950 . S
H1261 C1281 0.950 . S
H1262 C1283 0.950 . S
H1263 C1286 0.950 . S
H1264 C1287 0.950 . S
H1265 C1289 0.950 . S
H1266 C1290 0.950 . S
H1267 C1291 0.951 . S
H1268 C1293 0.951 . S
H1269 C1295 0.950 . S
H1270 C1296 0.950 . S
H1271 C1298 0.950 . S
H1272 C1301 0.950 . S
H1273 C1302 0.950 . S
H1274 C1304 0.950 . S
H1275 C1305 0.950 . S
C1276 H1258 0.951 . S
C1276 C1277 1.366 . S
C1276 C1278 1.388 . S
C1277 C1276 1.366 . S
C1277 C1281 1.385 . S
C1278 H1259 0.951 . S
C1278 C1276 1.388 . S
C1278 C1279 1.366 . S
C1279 C1278 1.366 . S
C1279 C1280 1.414 . S
C1279 C1282 1.499 . S
C1280 H1260 0.950 . S
C1280 C1279 1.414 . S
C1280 C1281 1.374 . S
C1281 H1261 0.950 . S
C1281 C1277 1.385 . S
C1281 C1280 1.374 . S
C1282 C1279 1.499 . S
C1282 C1283 1.373 . S
C1282 C1284 1.389 . S
C1283 H1262 0.950 . S
C1283 C1282 1.373 . S
C1283 C1299 1.377 . S
C1284 C1282 1.389 . S
C1284 C1285 1.524 . S
C1284 C1298 1.377 . S
C1285 C1284 1.524 . S
C1285 C1286 1.397 . S
C1285 C1290 1.363 . S
C1286 H1263 0.950 . S
C1286 C1285 1.397 . S
C1286 C1287 1.334 . S
C1287 H1264 0.950 . S
C1287 C1286 1.334 . S
C1287 C1288 1.287 . S
C1288 C1287 1.287 . S
C1288 C1289 1.524 . S
C1288 H1307 0.913 . S
C1289 H1265 0.950 . S
C1289 C1288 1.524 . S
C1289 C1290 1.415 . S
C1290 H1266 0.950 . S
C1290 C1285 1.363 . S
C1290 C1289 1.415 . S
C1291 H1267 0.951 . S
C1291 C1292 1.366 . S
C1291 C1293 1.388 . S
C1292 C1291 1.366 . S
C1292 C1296 1.385 . S
C1293 H1268 0.951 . S
C1293 C1291 1.388 . S
C1293 C1294 1.366 . S
C1294 C1293 1.366 . S
C1294 C1295 1.414 . S
C1294 C1297 1.499 . S
C1295 H1269 0.950 . S
C1295 C1294 1.414 . S
C1295 C1296 1.374 . S
C1296 H1270 0.950 . S
C1296 C1292 1.385 . S
C1296 C1295 1.374 . S
C1297 C1294 1.499 . S
C1297 C1298 1.373 . S
C1297 C1299 1.389 . S
C1298 H1271 0.950 . S
C1298 C1284 1.377 . S
C1298 C1297 1.373 . S
C1299 C1283 1.377 . S
C1299 C1297 1.389 . S
C1299 C1300 1.524 . S
C1300 C1299 1.524 . S
C1300 C1301 1.397 . S
C1300 C1305 1.363 . S
C1301 H1272 0.950 . S
C1301 C1300 1.397 . S
C1301 C1302 1.334 . S
C1302 H1273 0.950 . S
C1302 C1301 1.334 . S
C1302 C1303 1.287 . S
C1303 C1302 1.287 . S
C1303 C1304 1.524 . S
C1303 H1306 0.999 . S
C1304 H1274 0.950 . S
C1304 C1303 1.524 . S
C1304 C1305 1.415 . S
C1305 H1275 0.950 . S
C1305 C1300 1.363 . S
C1305 C1304 1.415 . S
H1306 C1303 0.999 . S
H1307 C1288 0.913 . S
H1308 C1326 0.951 . S
H1309 C1328 0.951 . S
H1310 C1330 0.950 1_545 S
H1311 C1331 0.950 . S
H1312 C1333 0.950 . S
H1313 C1336 0.950 . S
H1314 C1337 0.950 . S
H1315 C1339 0.950 . S
H1316 C1340 0.950 . S
H1317 C1341 0.951 . S
H1318 C1343 0.951 . S
H1319 C1345 0.950 1_565 S
H1320 C1346 0.950 . S
H1321 C1348 0.950 . S
H1322 C1351 0.950 . S
H1323 C1352 0.950 . S
H1324 C1354 0.950 . S
H1325 C1355 0.950 . S
C1326 H1308 0.951 . S
C1326 C1327 1.366 . S
C1326 C1328 1.388 . S
C1327 C1326 1.366 . S
C1327 C1331 1.385 . S
C1328 H1309 0.951 . S
C1328 C1326 1.388 . S
C1328 C1329 1.366 . S
C1329 C1328 1.366 . S
C1329 C1330 1.414 . S
C1329 C1332 1.499 . S
C1330 H1310 0.950 1_565 S
C1330 C1329 1.414 . S
C1330 C1331 1.374 . S
C1331 H1311 0.950 . S
C1331 C1327 1.385 . S
C1331 C1330 1.374 . S
C1332 C1329 1.499 . S
C1332 C1333 1.373 1_565 S
C1332 C1334 1.389 . S
C1333 H1312 0.950 . S
C1333 C1332 1.373 1_545 S
C1333 C1349 1.377 . S
C1334 C1332 1.389 . S
C1334 C1335 1.524 . S
C1334 C1348 1.377 . S
C1335 C1334 1.524 . S
C1335 C1336 1.397 . S
C1335 C1340 1.363 . S
C1336 H1313 0.950 . S
C1336 C1335 1.397 . S
C1336 C1337 1.334 . S
C1337 H1314 0.950 . S
C1337 C1336 1.334 . S
C1337 C1338 1.287 . S
C1338 C1337 1.287 . S
C1338 C1339 1.524 . S
C1338 H1357 0.913 . S
C1339 H1315 0.950 . S
C1339 C1338 1.524 . S
C1339 C1340 1.415 . S
C1340 H1316 0.950 . S
C1340 C1335 1.363 . S
C1340 C1339 1.415 . S
C1341 H1317 0.951 . S
C1341 C1342 1.366 . S
C1341 C1343 1.388 . S
C1342 C1341 1.366 . S
C1342 C1346 1.385 . S
C1343 H1318 0.951 . S
C1343 C1341 1.388 . S
C1343 C1344 1.366 . S
C1344 C1343 1.366 . S
C1344 C1345 1.414 . S
C1344 C1347 1.499 . S
C1345 H1319 0.950 1_545 S
C1345 C1344 1.414 . S
C1345 C1346 1.374 . S
C1346 H1320 0.950 . S
C1346 C1342 1.385 . S
C1346 C1345 1.374 . S
C1347 C1344 1.499 . S
C1347 C1348 1.373 1_545 S
C1347 C1349 1.389 . S
C1348 H1321 0.950 . S
C1348 C1334 1.377 . S
C1348 C1347 1.373 1_565 S
C1349 C1333 1.377 . S
C1349 C1347 1.389 . S
C1349 C1350 1.524 . S
C1350 C1349 1.524 . S
C1350 C1351 1.397 . S
C1350 C1355 1.363 . S
C1351 H1322 0.950 . S
C1351 C1350 1.397 . S
C1351 C1352 1.334 . S
C1352 H1323 0.950 . S
C1352 C1351 1.334 . S
C1352 C1353 1.287 . S
C1353 C1352 1.287 . S
C1353 C1354 1.524 . S
C1353 H1356 0.999 . S
C1354 H1324 0.950 . S
C1354 C1353 1.524 . S
C1354 C1355 1.415 . S
C1355 H1325 0.950 . S
C1355 C1350 1.363 . S
C1355 C1354 1.415 . S
H1356 C1353 0.999 . S
H1357 C1338 0.913 . S
H1358 C1376 0.951 . S
H1359 C1378 0.951 1_655 S
H1360 C1380 0.950 . S
H1361 C1381 0.950 . S
H1362 C1383 0.950 . S
H1363 C1386 0.950 . S
H1364 C1387 0.950 1_455 S
H1365 C1389 0.950 . S
H1366 C1390 0.950 . S
H1367 C1391 0.951 . S
H1368 C1393 0.951 1_455 S
H1369 C1395 0.950 . S
H1370 C1396 0.950 . S
H1371 C1398 0.950 . S
H1372 C1401 0.950 . S
H1373 C1402 0.950 1_655 S
H1374 C1404 0.950 . S
H1375 C1405 0.950 . S
C1376 H1358 0.951 . S
C1376 C1377 1.366 . S
C1376 C1378 1.388 . S
C1377 C1376 1.366 . S
C1377 C1381 1.385 . S
C1378 H1359 0.951 1_455 S
C1378 C1376 1.388 . S
C1378 C1379 1.366 . S
C1379 C1378 1.366 . S
C1379 C1380 1.414 . S
C1379 C1382 1.499 . S
C1380 H1360 0.950 . S
C1380 C1379 1.414 . S
C1380 C1381 1.374 . S
C1381 H1361 0.950 . S
C1381 C1377 1.385 . S
C1381 C1380 1.374 . S
C1382 C1379 1.499 . S
C1382 C1383 1.373 . S
C1382 C1384 1.389 1_455 S
C1383 H1362 0.950 . S
C1383 C1382 1.373 . S
C1383 C1399 1.377 1_545 S
C1384 C1382 1.389 1_655 S
C1384 C1385 1.524 . S
C1384 C1398 1.377 1_545 S
C1385 C1384 1.524 . S
C1385 C1386 1.397 1_655 S
C1385 C1390 1.363 . S
C1386 H1363 0.950 . S
C1386 C1385 1.397 1_455 S
C1386 C1387 1.334 1_455 S
C1387 H1364 0.950 1_655 S
C1387 C1386 1.334 1_655 S
C1387 C1388 1.287 . S
C1388 C1387 1.287 . S
C1388 C1389 1.524 . S
C1388 H1407 0.913 . S
C1389 H1365 0.950 . S
C1389 C1388 1.524 . S
C1389 C1390 1.415 . S
C1390 H1366 0.950 . S
C1390 C1385 1.363 . S
C1390 C1389 1.415 . S
C1391 H1367 0.951 . S
C1391 C1392 1.366 . S
C1391 C1393 1.388 . S
C1392 C1391 1.366 . S
C1392 C1396 1.385 . S
C1393 H1368 0.951 1_655 S
C1393 C1391 1.388 . S
C1393 C1394 1.366 . S
C1394 C1393 1.366 . S
C1394 C1395 1.414 . S
C1394 C1397 1.499 . S
C1395 H1369 0.950 . S
C1395 C1394 1.414 . S
C1395 C1396 1.374 . S
C1396 H1370 0.950 . S
C1396 C1392 1.385 . S
C1396 C1395 1.374 . S
C1397 C1394 1.499 . S
C1397 C1398 1.373 . S
C1397 C1399 1.389 1_655 S
C1398 H1371 0.950 . S
C1398 C1384 1.377 1_565 S
C1398 C1397 1.373 . S
C1399 C1383 1.377 1_565 S
C1399 C1397 1.389 1_455 S
C1399 C1400 1.524 . S
C1400 C1399 1.524 . S
C1400 C1401 1.397 1_455 S
C1400 C1405 1.363 . S
C1401 H1372 0.950 . S
C1401 C1400 1.397 1_655 S
C1401 C1402 1.334 1_655 S
C1402 H1373 0.950 1_455 S
C1402 C1401 1.334 1_455 S
C1402 C1403 1.287 . S
C1403 C1402 1.287 . S
C1403 C1404 1.524 . S
C1403 H1406 0.999 . S
C1404 H1374 0.950 . S
C1404 C1403 1.524 . S
C1404 C1405 1.415 . S
C1405 H1375 0.950 . S
C1405 C1400 1.363 . S
C1405 C1404 1.415 . S
H1406 C1403 0.999 . S
H1407 C1388 0.913 . S
H1408 C1426 0.951 . S
H1409 C1428 0.951 . S
H1410 C1430 0.950 1_545 S
H1411 C1431 0.950 . S
H1412 C1433 0.950 . S
H1413 C1436 0.950 . S
H1414 C1437 0.950 . S
H1415 C1439 0.950 . S
H1416 C1440 0.950 . S
H1417 C1441 0.951 . S
H1418 C1443 0.951 . S
H1419 C1445 0.950 1_565 S
H1420 C1446 0.950 . S
H1421 C1448 0.950 . S
H1422 C1451 0.950 . S
H1423 C1452 0.950 . S
H1424 C1454 0.950 . S
H1425 C1455 0.950 . S
C1426 H1408 0.951 . S
C1426 C1427 1.366 . S
C1426 C1428 1.388 . S
C1427 C1426 1.366 . S
C1427 C1431 1.385 . S
C1428 H1409 0.951 . S
C1428 C1426 1.388 . S
C1428 C1429 1.366 . S
C1429 C1428 1.366 . S
C1429 C1430 1.414 . S
C1429 C1432 1.499 . S
C1430 H1410 0.950 1_565 S
C1430 C1429 1.414 . S
C1430 C1431 1.374 . S
C1431 H1411 0.950 . S
C1431 C1427 1.385 . S
C1431 C1430 1.374 . S
C1432 C1429 1.499 . S
C1432 C1433 1.373 1_565 S
C1432 C1434 1.389 . S
C1433 H1412 0.950 . S
C1433 C1432 1.373 1_545 S
C1433 C1449 1.377 . S
C1434 C1432 1.389 . S
C1434 C1435 1.524 . S
C1434 C1448 1.377 . S
C1435 C1434 1.524 . S
C1435 C1436 1.397 . S
C1435 C1440 1.363 . S
C1436 H1413 0.950 . S
C1436 C1435 1.397 . S
C1436 C1437 1.334 . S
C1437 H1414 0.950 . S
C1437 C1436 1.334 . S
C1437 C1438 1.287 . S
C1438 C1437 1.287 . S
C1438 C1439 1.524 . S
C1438 H1457 0.913 . S
C1439 H1415 0.950 . S
C1439 C1438 1.524 . S
C1439 C1440 1.415 . S
C1440 H1416 0.950 . S
C1440 C1435 1.363 . S
C1440 C1439 1.415 . S
C1441 H1417 0.951 . S
C1441 C1442 1.366 . S
C1441 C1443 1.388 . S
C1442 C1441 1.366 . S
C1442 C1446 1.385 . S
C1443 H1418 0.951 . S
C1443 C1441 1.388 . S
C1443 C1444 1.366 . S
C1444 C1443 1.366 . S
C1444 C1445 1.414 . S
C1444 C1447 1.499 . S
C1445 H1419 0.950 1_545 S
C1445 C1444 1.414 . S
C1445 C1446 1.374 . S
C1446 H1420 0.950 . S
C1446 C1442 1.385 . S
C1446 C1445 1.374 . S
C1447 C1444 1.499 . S
C1447 C1448 1.373 1_545 S
C1447 C1449 1.389 . S
C1448 H1421 0.950 . S
C1448 C1434 1.377 . S
C1448 C1447 1.373 1_565 S
C1449 C1433 1.377 . S
C1449 C1447 1.389 . S
C1449 C1450 1.524 . S
C1450 C1449 1.524 . S
C1450 C1451 1.397 . S
C1450 C1455 1.363 . S
C1451 H1422 0.950 . S
C1451 C1450 1.397 . S
C1451 C1452 1.334 . S
C1452 H1423 0.950 . S
C1452 C1451 1.334 . S
C1452 C1453 1.287 . S
C1453 C1452 1.287 . S
C1453 C1454 1.524 . S
C1453 H1456 0.999 . S
C1454 H1424 0.950 . S
C1454 C1453 1.524 . S
C1454 C1455 1.415 . S
C1455 H1425 0.950 . S
C1455 C1450 1.363 . S
C1455 C1454 1.415 . S
H1456 C1453 0.999 . S
H1457 C1438 0.913 . S
H1458 C1476 0.951 . S
H1459 C1478 0.951 . S
H1460 C1480 0.950 . S
H1461 C1481 0.950 . S
H1462 C1483 0.950 . S
H1463 C1486 0.950 . S
H1464 C1487 0.950 . S
H1465 C1489 0.950 . S
H1466 C1490 0.950 1_455 S
H1467 C1491 0.951 . S
H1468 C1493 0.951 . S
H1469 C1495 0.950 . S
H1470 C1496 0.950 . S
H1471 C1498 0.950 . S
H1472 C1501 0.950 . S
H1473 C1502 0.950 . S
H1474 C1504 0.950 . S
H1475 C1505 0.950 1_655 S
C1476 H1458 0.951 . S
C1476 C1477 1.366 . S
C1476 C1478 1.388 . S
C1477 C1476 1.366 . S
C1477 C1481 1.385 . S
C1478 H1459 0.951 . S
C1478 C1476 1.388 . S
C1478 C1479 1.366 . S
C1479 C1478 1.366 . S
C1479 C1480 1.414 . S
C1479 C1482 1.499 . S
C1480 H1460 0.950 . S
C1480 C1479 1.414 . S
C1480 C1481 1.374 . S
C1481 H1461 0.950 . S
C1481 C1477 1.385 . S
C1481 C1480 1.374 . S
C1482 C1479 1.499 . S
C1482 C1483 1.373 . S
C1482 C1484 1.389 . S
C1483 H1462 0.950 . S
C1483 C1482 1.373 . S
C1483 C1499 1.377 1_665 S
C1484 C1482 1.389 . S
C1484 C1485 1.524 . S
C1484 C1498 1.377 1_665 S
C1485 C1484 1.524 . S
C1485 C1486 1.397 . S
C1485 C1490 1.363 . S
C1486 H1463 0.950 . S
C1486 C1485 1.397 . S
C1486 C1487 1.334 . S
C1487 H1464 0.950 . S
C1487 C1486 1.334 . S
C1487 C1488 1.287 . S
C1488 C1487 1.287 . S
C1488 C1489 1.524 . S
C1488 H1507 0.913 . S
C1489 H1465 0.950 . S
C1489 C1488 1.524 . S
C1489 C1490 1.415 . S
C1490 H1466 0.950 1_655 S
C1490 C1485 1.363 . S
C1490 C1489 1.415 . S
C1491 H1467 0.951 . S
C1491 C1492 1.366 . S
C1491 C1493 1.388 . S
C1492 C1491 1.366 . S
C1492 C1496 1.385 . S
C1493 H1468 0.951 . S
C1493 C1491 1.388 . S
C1493 C1494 1.366 . S
C1494 C1493 1.366 . S
C1494 C1495 1.414 . S
C1494 C1497 1.499 . S
C1495 H1469 0.950 . S
C1495 C1494 1.414 . S
C1495 C1496 1.374 . S
C1496 H1470 0.950 . S
C1496 C1492 1.385 . S
C1496 C1495 1.374 . S
C1497 C1494 1.499 . S
C1497 C1498 1.373 . S
C1497 C1499 1.389 . S
C1498 H1471 0.950 . S
C1498 C1484 1.377 1_445 S
C1498 C1497 1.373 . S
C1499 C1483 1.377 1_445 S
C1499 C1497 1.389 . S
C1499 C1500 1.524 . S
C1500 C1499 1.524 . S
C1500 C1501 1.397 . S
C1500 C1505 1.363 . S
C1501 H1472 0.950 . S
C1501 C1500 1.397 . S
C1501 C1502 1.334 . S
C1502 H1473 0.950 . S
C1502 C1501 1.334 . S
C1502 C1503 1.287 . S
C1503 C1502 1.287 . S
C1503 C1504 1.524 . S
C1503 H1506 0.999 . S
C1504 H1474 0.950 . S
C1504 C1503 1.524 . S
C1504 C1505 1.415 . S
C1505 H1475 0.950 1_455 S
C1505 C1500 1.363 . S
C1505 C1504 1.415 . S
H1506 C1503 0.999 . S
H1507 C1488 0.913 . S
H1508 C1526 0.951 . S
H1509 C1528 0.951 . S
H1510 C1530 0.950 . S
H1511 C1531 0.950 . S
H1512 C1533 0.950 . S
H1513 C1536 0.950 . S
H1514 C1537 0.950 . S
H1515 C1539 0.950 . S
H1516 C1540 0.950 . S
H1517 C1541 0.951 . S
H1518 C1543 0.951 . S
H1519 C1545 0.950 . S
H1520 C1546 0.950 . S
H1521 C1548 0.950 . S
H1522 C1551 0.950 . S
H1523 C1552 0.950 . S
H1524 C1554 0.950 . S
H1525 C1555 0.950 . S
C1526 H1508 0.951 . S
C1526 C1527 1.366 . S
C1526 C1528 1.388 . S
C1527 C1526 1.366 . S
C1527 C1531 1.385 . S
C1528 H1509 0.951 . S
C1528 C1526 1.388 . S
C1528 C1529 1.366 . S
C1529 C1528 1.366 . S
C1529 C1530 1.414 . S
C1529 C1532 1.499 . S
C1530 H1510 0.950 . S
C1530 C1529 1.414 . S
C1530 C1531 1.374 . S
C1531 H1511 0.950 . S
C1531 C1527 1.385 . S
C1531 C1530 1.374 . S
C1532 C1529 1.499 . S
C1532 C1533 1.373 . S
C1532 C1534 1.389 . S
C1533 H1512 0.950 . S
C1533 C1532 1.373 . S
C1533 C1549 1.377 1_455 S
C1534 C1532 1.389 . S
C1534 C1535 1.524 . S
C1534 C1548 1.377 1_455 S
C1535 C1534 1.524 . S
C1535 C1536 1.397 . S
C1535 C1540 1.363 . S
C1536 H1513 0.950 . S
C1536 C1535 1.397 . S
C1536 C1537 1.334 . S
C1537 H1514 0.950 . S
C1537 C1536 1.334 . S
C1537 C1538 1.287 . S
C1538 C1537 1.287 . S
C1538 C1539 1.524 . S
C1538 H1557 0.913 . S
C1539 H1515 0.950 . S
C1539 C1538 1.524 . S
C1539 C1540 1.415 . S
C1540 H1516 0.950 . S
C1540 C1535 1.363 . S
C1540 C1539 1.415 . S
C1541 H1517 0.951 . S
C1541 C1542 1.366 . S
C1541 C1543 1.388 . S
C1542 C1541 1.366 . S
C1542 C1546 1.385 . S
C1543 H1518 0.951 . S
C1543 C1541 1.388 . S
C1543 C1544 1.366 . S
C1544 C1543 1.366 . S
C1544 C1545 1.414 . S
C1544 C1547 1.499 . S
C1545 H1519 0.950 . S
C1545 C1544 1.414 . S
C1545 C1546 1.374 . S
C1546 H1520 0.950 . S
C1546 C1542 1.385 . S
C1546 C1545 1.374 . S
C1547 C1544 1.499 . S
C1547 C1548 1.373 . S
C1547 C1549 1.389 . S
C1548 H1521 0.950 . S
C1548 C1534 1.377 1_655 S
C1548 C1547 1.373 . S
C1549 C1533 1.377 1_655 S
C1549 C1547 1.389 . S
C1549 C1550 1.524 . S
C1550 C1549 1.524 . S
C1550 C1551 1.397 . S
C1550 C1555 1.363 . S
C1551 H1522 0.950 . S
C1551 C1550 1.397 . S
C1551 C1552 1.334 . S
C1552 H1523 0.950 . S
C1552 C1551 1.334 . S
C1552 C1553 1.287 . S
C1553 C1552 1.287 . S
C1553 C1554 1.524 . S
C1553 H1556 0.999 . S
C1554 H1524 0.950 . S
C1554 C1553 1.524 . S
C1554 C1555 1.415 . S
C1555 H1525 0.950 . S
C1555 C1550 1.363 . S
C1555 C1554 1.415 . S
H1556 C1553 0.999 . S
H1557 C1538 0.913 . S
H1558 C1576 0.951 . S
H1559 C1578 0.951 . S
H1560 C1580 0.950 . S
H1561 C1581 0.950 . S
H1562 C1583 0.950 . S
H1563 C1586 0.950 . S
H1564 C1587 0.950 . S
H1565 C1589 0.950 . S
H1566 C1590 0.950 . S
H1567 C1591 0.951 . S
H1568 C1593 0.951 . S
H1569 C1595 0.950 . S
H1570 C1596 0.950 . S
H1571 C1598 0.950 . S
H1572 C1601 0.950 . S
H1573 C1602 0.950 . S
H1574 C1604 0.950 . S
H1575 C1605 0.950 . S
C1576 H1558 0.951 . S
C1576 C1577 1.366 . S
C1576 C1578 1.388 . S
C1577 C1576 1.366 . S
C1577 C1581 1.385 . S
C1578 H1559 0.951 . S
C1578 C1576 1.388 . S
C1578 C1579 1.366 . S
C1579 C1578 1.366 . S
C1579 C1580 1.414 . S
C1579 C1582 1.499 . S
C1580 H1560 0.950 . S
C1580 C1579 1.414 . S
C1580 C1581 1.374 . S
C1581 H1561 0.950 . S
C1581 C1577 1.385 . S
C1581 C1580 1.374 . S
C1582 C1579 1.499 . S
C1582 C1583 1.373 . S
C1582 C1584 1.389 . S
C1583 H1562 0.950 . S
C1583 C1582 1.373 . S
C1583 C1599 1.377 . S
C1584 C1582 1.389 . S
C1584 C1585 1.524 . S
C1584 C1598 1.377 . S
C1585 C1584 1.524 . S
C1585 C1586 1.397 . S
C1585 C1590 1.363 . S
C1586 H1563 0.950 . S
C1586 C1585 1.397 . S
C1586 C1587 1.334 . S
C1587 H1564 0.950 . S
C1587 C1586 1.334 . S
C1587 C1588 1.287 . S
C1588 C1587 1.287 . S
C1588 C1589 1.524 . S
C1588 H1607 0.913 . S
C1589 H1565 0.950 . S
C1589 C1588 1.524 . S
C1589 C1590 1.415 . S
C1590 H1566 0.950 . S
C1590 C1585 1.363 . S
C1590 C1589 1.415 . S
C1591 H1567 0.951 . S
C1591 C1592 1.366 . S
C1591 C1593 1.388 . S
C1592 C1591 1.366 . S
C1592 C1596 1.385 . S
C1593 H1568 0.951 . S
C1593 C1591 1.388 . S
C1593 C1594 1.366 . S
C1594 C1593 1.366 . S
C1594 C1595 1.414 . S
C1594 C1597 1.499 . S
C1595 H1569 0.950 . S
C1595 C1594 1.414 . S
C1595 C1596 1.374 . S
C1596 H1570 0.950 . S
C1596 C1592 1.385 . S
C1596 C1595 1.374 . S
C1597 C1594 1.499 . S
C1597 C1598 1.373 . S
C1597 C1599 1.389 . S
C1598 H1571 0.950 . S
C1598 C1584 1.377 . S
C1598 C1597 1.373 . S
C1599 C1583 1.377 . S
C1599 C1597 1.389 . S
C1599 C1600 1.524 . S
C1600 C1599 1.524 . S
C1600 C1601 1.397 . S
C1600 C1605 1.363 . S
C1601 H1572 0.950 . S
C1601 C1600 1.397 . S
C1601 C1602 1.334 . S
C1602 H1573 0.950 . S
C1602 C1601 1.334 . S
C1602 C1603 1.287 . S
C1603 C1602 1.287 . S
C1603 C1604 1.524 . S
C1603 H1606 0.999 . S
C1604 H1574 0.950 . S
C1604 C1603 1.524 . S
C1604 C1605 1.415 . S
C1605 H1575 0.950 . S
C1605 C1600 1.363 . S
C1605 C1604 1.415 . S
H1606 C1603 0.999 . S
H1607 C1588 0.913 . S
H1608 C1626 0.951 . S
H1609 C1628 0.951 . S
H1610 C1630 0.950 . S
H1611 C1631 0.950 . S
H1612 C1633 0.950 . S
H1613 C1636 0.950 . S
H1614 C1637 0.950 . S
H1615 C1639 0.950 . S
H1616 C1640 0.950 . S
H1617 C1641 0.951 . S
H1618 C1643 0.951 . S
H1619 C1645 0.950 . S
H1620 C1646 0.950 . S
H1621 C1648 0.950 . S
H1622 C1651 0.950 . S
H1623 C1652 0.950 . S
H1624 C1654 0.950 . S
H1625 C1655 0.950 . S
C1626 H1608 0.951 . S
C1626 C1627 1.366 . S
C1626 C1628 1.388 . S
C1627 C1626 1.366 . S
C1627 C1631 1.385 . S
C1628 H1609 0.951 . S
C1628 C1626 1.388 . S
C1628 C1629 1.366 . S
C1629 C1628 1.366 . S
C1629 C1630 1.414 . S
C1629 C1632 1.499 . S
C1630 H1610 0.950 . S
C1630 C1629 1.414 . S
C1630 C1631 1.374 . S
C1631 H1611 0.950 . S
C1631 C1627 1.385 . S
C1631 C1630 1.374 . S
C1632 C1629 1.499 . S
C1632 C1633 1.373 . S
C1632 C1634 1.389 . S
C1633 H1612 0.950 . S
C1633 C1632 1.373 . S
C1633 C1649 1.377 . S
C1634 C1632 1.389 . S
C1634 C1635 1.524 . S
C1634 C1648 1.377 . S
C1635 C1634 1.524 . S
C1635 C1636 1.397 . S
C1635 C1640 1.363 . S
C1636 H1613 0.950 . S
C1636 C1635 1.397 . S
C1636 C1637 1.334 . S
C1637 H1614 0.950 . S
C1637 C1636 1.334 . S
C1637 C1638 1.287 . S
C1638 C1637 1.287 . S
C1638 C1639 1.524 . S
C1638 H1657 0.913 . S
C1639 H1615 0.950 . S
C1639 C1638 1.524 . S
C1639 C1640 1.415 . S
C1640 H1616 0.950 . S
C1640 C1635 1.363 . S
C1640 C1639 1.415 . S
C1641 H1617 0.951 . S
C1641 C1642 1.366 . S
C1641 C1643 1.388 . S
C1642 C1641 1.366 . S
C1642 C1646 1.385 . S
C1643 H1618 0.951 . S
C1643 C1641 1.388 . S
C1643 C1644 1.366 . S
C1644 C1643 1.366 . S
C1644 C1645 1.414 . S
C1644 C1647 1.499 . S
C1645 H1619 0.950 . S
C1645 C1644 1.414 . S
C1645 C1646 1.374 . S
C1646 H1620 0.950 . S
C1646 C1642 1.385 . S
C1646 C1645 1.374 . S
C1647 C1644 1.499 . S
C1647 C1648 1.373 . S
C1647 C1649 1.389 . S
C1648 H1621 0.950 . S
C1648 C1634 1.377 . S
C1648 C1647 1.373 . S
C1649 C1633 1.377 . S
C1649 C1647 1.389 . S
C1649 C1650 1.524 . S
C1650 C1649 1.524 . S
C1650 C1651 1.397 . S
C1650 C1655 1.363 . S
C1651 H1622 0.950 . S
C1651 C1650 1.397 . S
C1651 C1652 1.334 . S
C1652 H1623 0.950 . S
C1652 C1651 1.334 . S
C1652 C1653 1.287 . S
C1653 C1652 1.287 . S
C1653 C1654 1.524 . S
C1653 H1656 0.999 . S
C1654 H1624 0.950 . S
C1654 C1653 1.524 . S
C1654 C1655 1.415 . S
C1655 H1625 0.950 . S
C1655 C1650 1.363 . S
C1655 C1654 1.415 . S
H1656 C1653 0.999 . S
H1657 C1638 0.913 . S
H1658 C1676 0.951 . S
H1659 C1678 0.951 . S
H1660 C1680 0.950 . S
H1661 C1681 0.950 . S
H1662 C1683 0.950 . S
H1663 C1686 0.950 . S
H1664 C1687 0.950 . S
H1665 C1689 0.950 . S
H1666 C1690 0.950 1_565 S
H1667 C1691 0.951 . S
H1668 C1693 0.951 . S
H1669 C1695 0.950 . S
H1670 C1696 0.950 . S
H1671 C1698 0.950 . S
H1672 C1701 0.950 . S
H1673 C1702 0.950 . S
H1674 C1704 0.950 . S
H1675 C1705 0.950 1_545 S
C1676 H1658 0.951 . S
C1676 C1677 1.366 . S
C1676 C1678 1.388 . S
C1677 C1676 1.366 . S
C1677 C1681 1.385 . S
C1678 H1659 0.951 . S
C1678 C1676 1.388 . S
C1678 C1679 1.366 . S
C1679 C1678 1.366 . S
C1679 C1680 1.414 . S
C1679 C1682 1.499 . S
C1680 H1660 0.950 . S
C1680 C1679 1.414 . S
C1680 C1681 1.374 . S
C1681 H1661 0.950 . S
C1681 C1677 1.385 . S
C1681 C1680 1.374 . S
C1682 C1679 1.499 . S
C1682 C1683 1.373 . S
C1682 C1684 1.389 . S
C1683 H1662 0.950 . S
C1683 C1682 1.373 . S
C1683 C1699 1.377 1_545 S
C1684 C1682 1.389 . S
C1684 C1685 1.524 . S
C1684 C1698 1.377 1_545 S
C1685 C1684 1.524 . S
C1685 C1686 1.397 . S
C1685 C1690 1.363 . S
C1686 H1663 0.950 . S
C1686 C1685 1.397 . S
C1686 C1687 1.334 . S
C1687 H1664 0.950 . S
C1687 C1686 1.334 . S
C1687 C1688 1.287 . S
C1688 C1687 1.287 . S
C1688 C1689 1.524 . S
C1688 H1707 0.913 . S
C1689 H1665 0.950 . S
C1689 C1688 1.524 . S
C1689 C1690 1.415 . S
C1690 H1666 0.950 1_545 S
C1690 C1685 1.363 . S
C1690 C1689 1.415 . S
C1691 H1667 0.951 . S
C1691 C1692 1.366 . S
C1691 C1693 1.388 . S
C1692 C1691 1.366 . S
C1692 C1696 1.385 . S
C1693 H1668 0.951 . S
C1693 C1691 1.388 . S
C1693 C1694 1.366 . S
C1694 C1693 1.366 . S
C1694 C1695 1.414 . S
C1694 C1697 1.499 . S
C1695 H1669 0.950 . S
C1695 C1694 1.414 . S
C1695 C1696 1.374 . S
C1696 H1670 0.950 . S
C1696 C1692 1.385 . S
C1696 C1695 1.374 . S
C1697 C1694 1.499 . S
C1697 C1698 1.373 . S
C1697 C1699 1.389 . S
C1698 H1671 0.950 . S
C1698 C1684 1.377 1_565 S
C1698 C1697 1.373 . S
C1699 C1683 1.377 1_565 S
C1699 C1697 1.389 . S
C1699 C1700 1.524 . S
C1700 C1699 1.524 . S
C1700 C1701 1.397 . S
C1700 C1705 1.363 . S
C1701 H1672 0.950 . S
C1701 C1700 1.397 . S
C1701 C1702 1.334 . S
C1702 H1673 0.950 . S
C1702 C1701 1.334 . S
C1702 C1703 1.287 . S
C1703 C1702 1.287 . S
C1703 C1704 1.524 . S
C1703 H1706 0.999 . S
C1704 H1674 0.950 . S
C1704 C1703 1.524 . S
C1704 C1705 1.415 . S
C1705 H1675 0.950 1_565 S
C1705 C1700 1.363 . S
C1705 C1704 1.415 . S
H1706 C1703 0.999 . S
H1707 C1688 0.913 . S
H1708 C1726 0.951 . S
H1709 C1728 0.951 . S
H1710 C1730 0.950 . S
H1711 C1731 0.950 . S
H1712 C1733 0.950 . S
H1713 C1736 0.950 . S
H1714 C1737 0.950 . S
H1715 C1739 0.950 . S
H1716 C1740 0.950 . S
H1717 C1741 0.951 . S
H1718 C1743 0.951 . S
H1719 C1745 0.950 . S
H1720 C1746 0.950 . S
H1721 C1748 0.950 . S
H1722 C1751 0.950 . S
H1723 C1752 0.950 . S
H1724 C1754 0.950 . S
H1725 C1755 0.950 . S
C1726 H1708 0.951 . S
C1726 C1727 1.366 . S
C1726 C1728 1.388 . S
C1727 C1726 1.366 . S
C1727 C1731 1.385 . S
C1728 H1709 0.951 . S
C1728 C1726 1.388 . S
C1728 C1729 1.366 . S
C1729 C1728 1.366 . S
C1729 C1730 1.414 . S
C1729 C1732 1.499 . S
C1730 H1710 0.950 . S
C1730 C1729 1.414 . S
C1730 C1731 1.374 . S
C1731 H1711 0.950 . S
C1731 C1727 1.385 . S
C1731 C1730 1.374 . S
C1732 C1729 1.499 . S
C1732 C1733 1.373 1_565 S
C1732 C1734 1.389 . S
C1733 H1712 0.950 . S
C1733 C1732 1.373 1_545 S
C1733 C1749 1.377 1_655 S
C1734 C1732 1.389 . S
C1734 C1735 1.524 . S
C1734 C1748 1.377 1_655 S
C1735 C1734 1.524 . S
C1735 C1736 1.397 . S
C1735 C1740 1.363 1_655 S
C1736 H1713 0.950 . S
C1736 C1735 1.397 . S
C1736 C1737 1.334 . S
C1737 H1714 0.950 . S
C1737 C1736 1.334 . S
C1737 C1738 1.287 . S
C1738 C1737 1.287 . S
C1738 C1739 1.524 1_655 S
C1738 H1757 0.913 . S
C1739 H1715 0.950 . S
C1739 C1738 1.524 1_455 S
C1739 C1740 1.415 . S
C1740 H1716 0.950 . S
C1740 C1735 1.363 1_455 S
C1740 C1739 1.415 . S
C1741 H1717 0.951 . S
C1741 C1742 1.366 . S
C1741 C1743 1.388 . S
C1742 C1741 1.366 . S
C1742 C1746 1.385 . S
C1743 H1718 0.951 . S
C1743 C1741 1.388 . S
C1743 C1744 1.366 . S
C1744 C1743 1.366 . S
C1744 C1745 1.414 . S
C1744 C1747 1.499 . S
C1745 H1719 0.950 . S
C1745 C1744 1.414 . S
C1745 C1746 1.374 . S
C1746 H1720 0.950 . S
C1746 C1742 1.385 . S
C1746 C1745 1.374 . S
C1747 C1744 1.499 . S
C1747 C1748 1.373 1_545 S
C1747 C1749 1.389 . S
C1748 H1721 0.950 . S
C1748 C1734 1.377 1_455 S
C1748 C1747 1.373 1_565 S
C1749 C1733 1.377 1_455 S
C1749 C1747 1.389 . S
C1749 C1750 1.524 . S
C1750 C1749 1.524 . S
C1750 C1751 1.397 . S
C1750 C1755 1.363 1_455 S
C1751 H1722 0.950 . S
C1751 C1750 1.397 . S
C1751 C1752 1.334 . S
C1752 H1723 0.950 . S
C1752 C1751 1.334 . S
C1752 C1753 1.287 . S
C1753 C1752 1.287 . S
C1753 C1754 1.524 1_455 S
C1753 H1756 0.999 . S
C1754 H1724 0.950 . S
C1754 C1753 1.524 1_655 S
C1754 C1755 1.415 . S
C1755 H1725 0.950 . S
C1755 C1750 1.363 1_655 S
C1755 C1754 1.415 . S
H1756 C1753 0.999 . S
H1757 C1738 0.913 . S
H1758 C1776 0.951 . S
H1759 C1778 0.951 . S
H1760 C1780 0.950 . S
H1761 C1781 0.950 . S
H1762 C1783 0.950 . S
H1763 C1786 0.950 . S
H1764 C1787 0.950 . S
H1765 C1789 0.949 1_455 S
H1766 C1790 0.950 1_455 S
H1767 C1791 0.951 . S
H1768 C1793 0.951 . S
H1769 C1795 0.950 . S
H1770 C1796 0.950 . S
H1771 C1798 0.950 . S
H1772 C1801 0.950 . S
H1773 C1802 0.950 . S
H1774 C1804 0.949 1_655 S
H1775 C1805 0.950 1_655 S
C1776 H1758 0.951 . S
C1776 C1777 1.366 . S
C1776 C1778 1.388 . S
C1777 C1776 1.366 . S
C1777 C1781 1.385 . S
C1778 H1759 0.951 . S
C1778 C1776 1.388 . S
C1778 C1779 1.366 . S
C1779 C1778 1.366 . S
C1779 C1780 1.414 . S
C1779 C1782 1.499 . S
C1780 H1760 0.950 . S
C1780 C1779 1.414 . S
C1780 C1781 1.374 . S
C1781 H1761 0.950 . S
C1781 C1777 1.385 . S
C1781 C1780 1.374 . S
C1782 C1779 1.499 . S
C1782 C1783 1.373 . S
C1782 C1784 1.389 . S
C1783 H1762 0.950 . S
C1783 C1782 1.373 . S
C1783 C1799 1.377 1_655 S
C1784 C1782 1.389 . S
C1784 C1785 1.524 . S
C1784 C1798 1.377 1_655 S
C1785 C1784 1.524 . S
C1785 C1786 1.397 . S
C1785 C1790 1.363 . S
C1786 H1763 0.950 . S
C1786 C1785 1.397 . S
C1786 C1787 1.334 . S
C1787 H1764 0.950 . S
C1787 C1786 1.334 . S
C1787 C1788 1.287 . S
C1788 C1787 1.287 . S
C1788 C1789 1.524 . S
C1788 H1807 0.913 . S
C1789 H1765 0.949 1_655 S
C1789 C1788 1.524 . S
C1789 C1790 1.415 . S
C1790 H1766 0.950 1_655 S
C1790 C1785 1.363 . S
C1790 C1789 1.415 . S
C1791 H1767 0.951 . S
C1791 C1792 1.366 . S
C1791 C1793 1.388 . S
C1792 C1791 1.366 . S
C1792 C1796 1.385 . S
C1793 H1768 0.951 . S
C1793 C1791 1.388 . S
C1793 C1794 1.366 . S
C1794 C1793 1.366 . S
C1794 C1795 1.414 . S
C1794 C1797 1.499 . S
C1795 H1769 0.950 . S
C1795 C1794 1.414 . S
C1795 C1796 1.374 . S
C1796 H1770 0.950 . S
C1796 C1792 1.385 . S
C1796 C1795 1.374 . S
C1797 C1794 1.499 . S
C1797 C1798 1.373 . S
C1797 C1799 1.389 . S
C1798 H1771 0.950 . S
C1798 C1784 1.377 1_455 S
C1798 C1797 1.373 . S
C1799 C1783 1.377 1_455 S
C1799 C1797 1.389 . S
C1799 C1800 1.524 . S
C1800 C1799 1.524 . S
C1800 C1801 1.397 . S
C1800 C1805 1.363 . S
C1801 H1772 0.950 . S
C1801 C1800 1.397 . S
C1801 C1802 1.334 . S
C1802 H1773 0.950 . S
C1802 C1801 1.334 . S
C1802 C1803 1.287 . S
C1803 C1802 1.287 . S
C1803 C1804 1.524 . S
C1803 H1806 0.999 . S
C1804 H1774 0.949 1_455 S
C1804 C1803 1.524 . S
C1804 C1805 1.415 . S
C1805 H1775 0.950 1_455 S
C1805 C1800 1.363 . S
C1805 C1804 1.415 . S
H1806 C1803 0.999 . S
H1807 C1788 0.913 . S
C227 C62 1.577 . S
C242 C10 1.577 . S
C277 C17 1.576 . S
C292 C69 1.576 . S
C327 C88 1.576 . S
C342 C36 1.576 . S
C377 C101 1.577 . S
C392 C43 1.577 . S
C427 C160 1.577 . S
C442 C108 1.577 . S
C477 C127 1.576 . S
C492 C173 1.576 . S
C527 C192 1.576 . S
C542 C140 1.576 . S
C577 C147 1.577 . S
C592 C205 1.577 . S
C627 C3 1.546 . S
C642 C198 1.546 . S
C677 C18 1.547 . S
C692 C161 1.547 . S
C727 C29 1.547 . S
C742 C174 1.547 . S
C777 C185 1.547 . S
C792 C44 1.546 . S
C827 C55 1.547 . S
C842 C120 1.546 . S
C877 C70 1.547 . S
C892 C133 1.547 . S
C927 C148 1.546 . S
C942 C81 1.547 . S
C977 C109 1.546 . S
C992 C94 1.546 . S
C1027 C4 1.589 . S
C1042 C134 1.588 . S
C1077 C153 1.588 . S
C1092 C23 1.588 . S
C1127 C30 1.589 . S
C1142 C114 1.589 . S
C1177 C121 1.588 . S
C1192 C49 1.588 . S
C1227 C56 1.588 . S
C1242 C186 1.588 . S
C1277 C75 1.589 . S
C1292 C199 1.589 . S
C1327 C166 1.588 . S
C1342 C82 1.588 . S
C1377 C179 1.589 . S
C1392 C95 1.589 . S
C1427 C135 1.432 . S
C1442 C5 1.432 . S
C1477 C16 1.431 . S
C1492 C146 1.431 . S
C1527 C31 1.432 . S
C1542 C107 1.432 . S
C1577 C122 1.431 . S
C1592 C42 1.431 . S
C1627 C187 1.431 . S
C1642 C57 1.431 . S
C1677 C200 1.432 . S
C1692 C68 1.432 . S
C1727 C159 1.431 . S
C1742 C83 1.431 . S
C1777 C96 1.432 . S
C1792 C172 1.432 . S
