# Generated by pormake.
# Topology rob, (6)-cn, num edge types: 1
# Building blocks:
#     Node 0, Type 0, BuildingBlock: KUMJIN_clean_sbu_0, # of connection points: 6
#     Node 1, Type 0, BuildingBlock: KUMJIN_clean_sbu_0, # of connection points: 6
#     Node 2, Type 0, BuildingBlock: KUMJIN_clean_sbu_0, # of connection points: 6
#     Node 3, Type 0, BuildingBlock: KUMJIN_clean_sbu_0, # of connection points: 6
#     Edge 4, Type (0, 0), BuildingBlock: FUNLAD_clean_linker_0, # of connection points: 2
#     Edge 5, Type (0, 0), BuildingBlock: FUNLAD_clean_linker_0, # of connection points: 2
#     Edge 6, Type (0, 0), BuildingBlock: FUNLAD_clean_linker_0, # of connection points: 2
#     Edge 7, Type (0, 0), BuildingBlock: FUNLAD_clean_linker_0, # of connection points: 2
#     Edge 8, Type (0, 0), BuildingBlock: FUNLAD_clean_linker_0, # of connection points: 2
#     Edge 9, Type (0, 0), BuildingBlock: FUNLAD_clean_linker_0, # of connection points: 2
#     Edge 10, Type (0, 0), BuildingBlock: FUNLAD_clean_linker_0, # of connection points: 2
#     Edge 11, Type (0, 0), BuildingBlock: FUNLAD_clean_linker_0, # of connection points: 2
#     Edge 12, Type (0, 0), BuildingBlock: FUNLAD_clean_linker_0, # of connection points: 2
#     Edge 13, Type (0, 0), BuildingBlock: FUNLAD_clean_linker_0, # of connection points: 2
#     Edge 14, Type (0, 0), BuildingBlock: FUNLAD_clean_linker_0, # of connection points: 2
#     Edge 15, Type (0, 0), BuildingBlock: FUNLAD_clean_linker_0, # of connection points: 2
# Relax obj value: 0.034
# Max RMSD: 0.154
# Mean RMSD: 0.154
data_MOF--net-rob--node1-KUMJIN_clean_sbu_0--edge1-FUNLAD_clean_linker_0
_symmetry_space_group_name_H-M    P1
_symmetry_Int_Tables_number       1
_symmetry_cell_setting            triclinic
loop_
_symmetry_equiv_pos_as_xyz
'x, y, z'
_cell_length_a     18.435213
_cell_length_b     30.126957
_cell_length_c     38.132616
_cell_angle_alpha  118.20608
_cell_angle_beta   89.797753
_cell_angle_gamma 90.147537
loop_
_atom_site_label
_atom_site_type_symbol
_atom_site_fract_x
_atom_site_fract_y
_atom_site_fract_z
_atom_type_partial_charge
Eu0 Eu 0.18557 0.29107 0.04615 0.0
C1 C 0.35218 0.09673 0.94967 0.0
C2 C 0.46084 0.10022 0.98669 0.0
C3 C 0.40299 0.01965 0.94509 0.0
C4 C 0.40689 0.1247 0.97595 0.0
C5 C 0.35139 0.04374 0.93292 0.0
C6 C 0.45734 0.04785 0.97207 0.0
C7 C 0.25403 0.04154 0.88979 0.0
N8 N 0.30281 0.12086 0.93831 0.0
C9 C 0.25689 0.09405 0.90714 0.0
C10 C 0.3006 0.01632 0.90322 0.0
Eu11 Eu 0.31408 0.20967 0.96886 0.0
N12 N 0.41011 0.17523 0.98902 0.0
C13 C 0.46832 0.20268 1.01039 0.0
C14 C 0.51826 0.12882 1.01072 0.0
C15 C 0.52266 0.18007 0.02201 0.0
H16 H 0.22067 0.11364 0.89686 0.0
H17 H 0.56779 0.20225 0.03978 0.0
H18 H 0.49789 0.02856 0.98037 0.0
H19 H 0.21603 0.02055 0.86605 0.0
H20 H 0.47267 0.24227 0.0193 0.0
H21 H 0.9463 0.31912 0.97522 0.0
H22 H 0.56056 0.11143 0.01972 0.0
H23 H 0.28359 0.37658 0.12193 0.0
H24 H 0.03344 0.27064 0.99284 0.0
H25 H 0.29789 0.4695 0.15904 0.0
H26 H 0.40266 0.97905 0.93289 0.0
H27 H 0.9619 0.41115 1.0025 0.0
H28 H 0.02919 0.49002 0.04837 0.0
H29 H 0.29853 0.97559 0.88955 0.0
H30 H 0.12415 0.53102 0.0988 0.0
N31 N 0.09913 0.33424 0.02817 0.0
C32 C 0.04084 0.31075 1.0047 0.0
C33 C 0.00049 0.39002 1.01011 0.0
C34 C 0.05774 0.41434 0.03632 0.0
C35 C 0.99136 0.3381 0.99475 0.0
C36 C 0.10668 0.38506 0.04509 0.0
H37 H 0.22376 0.52376 0.14071 0.0
N38 N 0.20461 0.37905 0.08245 0.0
C39 C 0.25945 0.45271 0.13484 0.0
C40 C 0.16033 0.40823 0.07345 0.0
C41 C 0.25126 0.40038 0.11396 0.0
C42 C 0.21751 0.48322 0.12437 0.0
C43 C 0.16633 0.46116 0.0938 0.0
O44 O 0.1726 0.30648 0.10777 0.0
O45 O 0.29463 0.25202 0.0339 0.0
O46 O 0.22802 0.16333 0.98039 0.0
O47 O 0.13075 0.21837 1.00272 0.0
O48 O 0.23039 0.24836 0.07665 0.0
O49 O 0.07844 0.28656 0.06902 0.0
O50 O 0.31044 0.18769 0.90565 0.0
O51 O 0.20458 0.24879 0.9806 0.0
O52 O 0.27234 0.33881 0.03668 0.0
O53 O 0.36979 0.2837 1.00939 0.0
O54 O 0.27601 0.25941 0.94332 0.0
O55 O 0.4138 0.20828 0.93727 0.0
C56 C 0.28967 0.23341 0.05724 0.0
C57 C 0.06032 0.33986 0.13847 0.0
C58 C 0.01378 0.37325 0.20651 0.0
C59 C 0.05187 0.33606 0.17364 0.0
C60 C 0.98477 0.41454 0.20355 0.0
C61 C 0.0305 0.38118 0.13619 0.0
C62 C 0.99317 0.41835 0.16864 0.0
C63 C 0.15869 0.17294 0.9901 0.0
C64 C 0.10223 0.30109 0.10515 0.0
C65 C 0.11989 0.49031 0.08379 0.0
C66 C 0.06583 0.46695 0.05504 0.0
C67 C 0.21341 0.27054 0.95957 0.0
C68 C 0.41643 0.15531 0.86697 0.0
C69 C 0.42554 0.16612 0.83527 0.0
C70 C 0.45983 0.13164 0.79971 0.0
C71 C 0.48343 0.08531 0.79617 0.0
C72 C 0.44057 0.10915 0.86306 0.0
C73 C 0.47366 0.07424 0.82767 0.0
C74 C 0.34112 0.32947 0.02521 0.0
C75 C 0.38035 0.19299 0.90321 0.0
H76 H 0.07567 0.30436 0.17546 0.0
H77 H 0.95426 0.44346 0.22793 0.0
H78 H 0.03589 0.38474 0.10942 0.0
H79 H 0.97023 0.45013 0.16666 0.0
H80 H 0.40537 0.20158 0.83839 0.0
H81 H 0.51083 0.05816 0.7695 0.0
H82 H 0.43398 0.10016 0.88719 0.0
H83 H 0.49243 0.03868 0.82482 0.0
Eu84 Eu 0.6886 0.81216 0.06408 0.0
C85 C 0.86096 0.61017 0.97198 0.0
C86 C 0.97124 0.62378 1.01007 0.0
C87 C 0.92138 0.53931 0.97331 0.0
C88 C 0.91324 0.64256 0.99692 0.0
C89 C 0.86523 0.55802 0.95917 0.0
C90 C 0.97422 0.57216 0.99878 0.0
C91 C 0.76129 0.54639 0.91718 0.0
N92 N 0.80762 0.62943 0.9588 0.0
C93 C 0.75947 0.59837 0.93068 0.0
C94 C 0.81391 0.52616 0.93181 0.0
Eu95 Eu 0.8062 0.71785 0.98411 0.0
N96 N 0.90904 0.69212 1.00699 0.0
C97 C 0.96369 0.7244 0.02793 0.0
C98 C 0.02537 0.65726 0.0334 0.0
C99 C 0.02203 0.70767 0.04193 0.0
H100 H 0.71851 0.61397 0.9195 0.0
H101 H 0.06426 0.73371 0.05937 0.0
H102 H 0.018 0.5571 1.00887 0.0
H103 H 0.72212 0.52198 0.89553 0.0
H104 H 0.96169 0.76348 0.0349 0.0
H105 H 0.42942 0.78991 0.98796 0.0
H106 H 0.07069 0.64439 0.04422 0.0
H107 H 0.77042 0.91864 0.12893 0.0
H108 H 0.53318 0.7631 1.01376 0.0
H109 H 0.76341 0.0102 0.15124 0.0
H110 H 0.92525 0.49942 0.9641 0.0
H111 H 0.4205 0.87817 1.00061 0.0
H112 H 0.47134 0.96612 0.03374 0.0
H113 H 0.81534 0.48586 0.92122 0.0
H114 H 0.56255 0.02608 0.07795 0.0
N115 N 0.5838 0.83524 0.04048 0.0
C116 C 0.53001 0.80183 0.01989 0.0
C117 C 0.46616 0.86668 1.01223 0.0
C118 C 0.51941 0.90136 0.03515 0.0
C119 C 0.47095 0.81686 1.00509 0.0
C120 C 0.57788 0.88434 0.04941 0.0
H121 H 0.6702 0.04315 0.12301 0.0
N122 N 0.68269 0.90039 0.08842 0.0
C123 C 0.72556 0.98464 0.12933 0.0
C124 C 0.62903 0.91799 0.07414 0.0
C125 C 0.72921 0.93291 0.11681 0.0
C126 C 0.673 1.00308 0.11325 0.0
C127 C 0.62332 0.96973 0.08562 0.0
O128 O 0.68854 0.83657 0.12787 0.0
O129 O 0.77668 0.75562 0.04838 0.0
O130 O 0.73331 0.67569 1.00563 0.0
O131 O 0.63828 0.73309 0.03381 0.0
O132 O 0.79002 0.82152 0.10062 0.0
O133 O 0.59624 0.79566 0.09202 0.0
O134 O 0.80744 0.6952 0.92061 0.0
O135 O 0.71911 0.7748 1.00026 0.0
O136 O 0.76394 0.85454 0.04377 0.0
O137 O 0.85789 0.7962 1.01491 0.0
O138 O 0.70532 0.71039 0.94726 0.0
O139 O 0.90141 0.73219 0.95657 0.0
C140 C 0.81733 0.77762 0.07826 0.0
C141 C 0.57516 0.85211 0.16002 0.0
C142 C 0.52238 0.8757 0.22537 0.0
C143 C 0.56817 0.84472 0.19353 0.0
C144 C 0.48328 0.91411 0.22274 0.0
C145 C 0.53618 0.89071 0.15803 0.0
C146 C 0.49017 0.92141 0.18928 0.0
C147 C 0.66682 0.68743 0.02024 0.0
C148 C 0.6238 0.81908 0.1277 0.0
C149 C 0.56731 0.98656 0.06994 0.0
C150 C 0.51532 0.95244 0.04482 0.0
C151 C 0.67857 0.75424 0.97032 0.0
C152 C 0.92094 0.67551 0.88838 0.0
C153 C 0.93754 0.6853 0.85667 0.0
C154 C 0.98163 0.65195 0.82483 0.0
C155 C 0.00824 0.60844 0.82526 0.0
C156 C 0.94832 0.6321 0.88827 0.0
C157 C 0.99165 0.59872 0.85678 0.0
C158 C 0.83046 0.84225 0.02922 0.0
C159 C 0.87376 0.71039 0.92085 0.0
H160 H 0.59764 0.81413 0.19435 0.0
H161 H 0.44782 0.93886 0.24669 0.0
H162 H 0.54112 0.89694 0.13239 0.0
H163 H 0.45976 0.95102 0.18759 0.0
H164 H 0.91683 0.71922 0.85712 0.0
H165 H 0.04132 0.58157 0.80102 0.0
H166 H 0.93605 0.62396 0.91239 0.0
H167 H 0.01233 0.56509 0.85672 0.0
Eu168 Eu 0.18645 0.73072 0.49261 0.0
C169 C 0.36736 0.93047 0.58281 0.0
C170 C 0.47884 0.9122 0.54477 0.0
C171 C 0.43523 0.99844 0.58056 0.0
C172 C 0.41801 0.896 0.55825 0.0
C173 C 0.37632 0.98227 0.59512 0.0
C174 C 0.48631 0.96344 0.55533 0.0
C175 C 0.27131 0.99849 0.63757 0.0
N176 N 0.31121 0.91358 0.59632 0.0
C177 C 0.26464 0.94673 0.62437 0.0
C178 C 0.32688 0.01632 0.62252 0.0
Eu179 Eu 0.30249 0.82556 0.5724 0.0
N180 N 0.40952 0.84693 0.54901 0.0
C181 C 0.46251 0.81264 0.52868 0.0
C182 C 0.53122 0.87662 0.52192 0.0
C183 C 0.52347 0.82675 0.5143 0.0
H184 H 0.22144 0.9331 0.63597 0.0
H185 H 0.56436 0.79911 0.49731 0.0
H186 H 0.53228 0.97653 0.54494 0.0
H187 H 0.23356 0.02457 0.65929 0.0
H188 H 0.45719 0.77395 0.52245 0.0
H189 H 0.92128 0.75861 0.56451 0.0
H190 H 0.57859 0.88747 0.51085 0.0
H191 H 0.27048 0.62279 0.43237 0.0
H192 H 0.02993 0.7829 0.53972 0.0
H193 H 0.25999 0.5319 0.41203 0.0
H194 H 0.44259 0.038 0.58927 0.0
H195 H 0.90748 0.67119 0.55334 0.0
H196 H 0.9553 0.58257 0.52226 0.0
H197 H 0.33204 0.05643 0.63285 0.0
H198 H 0.04718 0.5208 0.48059 0.0
N199 N 0.07844 0.71035 0.51567 0.0
C200 C 0.02464 0.7446 0.53452 0.0
C201 C 0.95541 0.68164 0.54241 0.0
C202 C 0.00883 0.64602 0.52107 0.0
C203 C 0.96291 0.73099 0.54868 0.0
C204 C 0.07032 0.66168 0.50767 0.0
H205 H 0.16035 0.50141 0.43883 0.0
N206 N 0.17885 0.64319 0.4708 0.0
C207 C 0.22103 0.55827 0.43257 0.0
C208 C 0.12207 0.62699 0.48445 0.0
C209 C 0.22674 0.60963 0.44402 0.0
C210 C 0.1648 0.54123 0.44783 0.0
C211 C 0.11381 0.57559 0.47368 0.0
O212 O 0.19206 0.70429 0.42864 0.0
O213 O 0.27633 0.78583 0.50795 0.0
O214 O 0.23409 0.86763 0.54918 0.0
O215 O 0.13935 0.81037 0.51855 0.0
O216 O 0.29097 0.71852 0.45728 0.0
O217 O 0.09546 0.74264 0.46137 0.0
O218 O 0.29741 0.84892 0.63594 0.0
O219 O 0.21168 0.77092 0.55724 0.0
O220 O 0.25384 0.68988 0.51735 0.0
O221 O 0.35055 0.746 0.54465 0.0
O222 O 0.1976 0.83902 0.60743 0.0
O223 O 0.39401 0.81213 0.6024 0.0
C224 C 0.3184 0.76265 0.47884 0.0
C225 C 0.08242 0.68406 0.39299 0.0
C226 C 0.03251 0.65912 0.32693 0.0
C227 C 0.0723 0.69308 0.36045 0.0
C228 C 0.00275 0.61592 0.32676 0.0
C229 C 0.05229 0.64092 0.39231 0.0
C230 C 0.01259 0.60704 0.35927 0.0
C231 C 0.16941 0.85567 0.53218 0.0
C232 C 0.12682 0.71936 0.42657 0.0
C233 C 0.05415 0.56005 0.48821 0.0
C234 C 0.00182 0.59523 0.51193 0.0
C235 C 0.16919 0.79523 0.58596 0.0
C236 C 0.40764 0.86957 0.67083 0.0
C237 C 0.41572 0.86163 0.70398 0.0
C238 C 0.45701 0.89502 0.73699 0.0
C239 C 0.49017 0.93663 0.73612 0.0
C240 C 0.44077 0.9113 0.67052 0.0
C241 C 0.48185 0.94468 0.70311 0.0
C242 C 0.32027 0.70097 0.53196 0.0
C243 C 0.36317 0.83426 0.63737 0.0
H244 H 0.09507 0.72691 0.3615 0.0
H245 H 0.97264 0.58864 0.30131 0.0
H246 H 0.05976 0.63334 0.41711 0.0
H247 H 0.98971 0.5736 0.35874 0.0
H248 H 0.39074 0.82881 0.70365 0.0
H249 H 0.52228 0.96306 0.76097 0.0
H250 H 0.43502 0.91799 0.6452 0.0
H251 H 0.50746 0.97682 0.70273 0.0
Eu252 Eu 0.66967 0.20573 0.45819 0.0
C253 C 0.86255 0.38815 0.54702 0.0
C254 C 0.96882 0.35893 0.50466 0.0
C255 C 0.94019 0.44824 0.53908 0.0
C256 C 0.9064 0.34908 0.52138 0.0
C257 C 0.88051 0.43839 0.55738 0.0
C258 C 0.98422 0.40853 0.51269 0.0
C259 C 0.7858 0.46556 0.60716 0.0
N260 N 0.80591 0.37737 0.56447 0.0
C261 C 0.77058 0.41512 0.59599 0.0
C262 C 0.84004 0.47726 0.58718 0.0
Eu263 Eu 0.78214 0.29112 0.54347 0.0
N264 N 0.89022 0.30169 0.51448 0.0
C265 C 0.93684 0.2629 0.49341 0.0
C266 C 0.01503 0.31886 0.4814 0.0
C267 C -0.00037 0.27079 0.47637 0.0
H268 H 0.72891 0.406 0.6116 0.0
H269 H 0.03577 0.23971 0.45911 0.0
H270 H 0.03134 0.41676 0.49968 0.0
H271 H 0.75593 0.49533 0.63124 0.0
H272 H 0.92551 0.22567 0.48926 0.0
H273 H 0.38586 0.25944 0.50637 0.0
H274 H 0.06353 0.32483 0.46804 0.0
H275 H 0.73131 0.08443 0.41721 0.0
H276 H 0.49994 0.26161 0.47467 0.0
H277 H 0.7111 1.00884 0.42451 0.0
H278 H 0.95421 0.48653 0.54618 0.0
H279 H 0.36384 0.19331 0.52602 0.0
H280 H 0.40517 0.11363 0.52495 0.0
H281 H 0.85218 0.51636 0.59607 0.0
H282 H 0.49414 0.04491 0.50253 0.0
N283 N 0.54899 0.20117 0.48067 0.0
C284 C 0.49421 0.23407 0.48493 0.0
C285 C 0.41548 0.19481 0.51295 0.0
C286 C 0.46816 0.15789 0.50452 0.0
C287 C 0.42785 0.23227 0.50208 0.0
C288 C 0.5347 0.16167 0.48754 0.0
H289 H 0.6077 1.00508 0.46448 0.0
N290 N 0.64599 0.12678 0.45693 0.0
C291 C 0.67591 0.04114 0.43976 0.0
C292 C 0.58484 0.12331 0.47531 0.0
C293 C 0.68814 0.08485 0.43651 0.0
C294 C 0.61747 0.03911 0.4622 0.0
C295 C 0.56963 0.07982 0.47922 0.0
O296 O 0.69821 0.15297 0.39642 0.0
O297 O 0.77305 0.25155 0.47685 0.0
O298 O 0.70165 0.34131 0.53415 0.0
O299 O 0.61946 0.28408 0.48811 0.0
O300 O 0.70351 0.26245 0.43874 0.0
O301 O 0.60144 0.19851 0.4092 0.0
O302 O 0.77826 0.31679 0.60755 0.0
O303 O 0.69551 0.23222 0.52202 0.0
O304 O 0.77612 0.16665 0.45713 0.0
O305 O 0.81287 0.21033 0.52298 0.0
O306 O 0.67445 0.29773 0.57422 0.0
O307 O 0.87344 0.27843 0.57423 0.0
C308 C 0.76492 0.27478 0.45673 0.0
C309 C 0.60443 0.12423 0.34767 0.0
C310 C 0.55152 0.09473 0.28154 0.0
C311 C 0.59154 0.1306 0.31403 0.0
C312 C 0.52573 0.05175 0.28323 0.0
C313 C 0.57827 0.08122 0.34877 0.0
C314 C 0.53947 0.04495 0.31645 0.0
C315 C 0.64065 0.33038 0.5135 0.0
C316 C 0.64213 0.16459 0.38171 0.0
C317 C 0.50592 0.07751 0.49854 0.0
C318 C 0.45528 0.11659 0.51126 0.0
C319 C 0.65089 0.25302 0.55036 0.0
C320 C 0.88871 0.33492 0.64281 0.0
C321 C 0.90143 0.3235 0.674 0.0
C322 C 0.94391 0.35563 0.70705 0.0
C323 C 0.97305 0.39961 0.70835 0.0
C324 C 0.9189 0.37862 0.64452 0.0
C325 C 0.96066 0.41086 0.67725 0.0
C326 C 0.81279 0.16975 0.48796 0.0
C327 C 0.84303 0.30096 0.60917 0.0
H328 H 0.61247 0.16389 0.31342 0.0
H329 H 0.49318 0.02408 0.25937 0.0
H330 H 0.58697 0.07601 0.37465 0.0
H331 H 0.51883 0.01187 0.31742 0.0
H332 H 0.87758 0.28979 0.67265 0.0
H333 H 0.00665 0.42485 0.73304 0.0
H334 H 0.91031 0.38779 0.62065 0.0
H335 H 0.98387 0.44458 0.67843 0.0
C336 C 0.65652 0.60284 0.01707 0.0
C337 C 0.62338 0.64786 0.02303 0.0
C338 C 0.61707 0.56636 0.0217 0.0
C339 C 0.54304 0.57379 0.03207 0.0
C340 C 0.51006 0.61888 0.03813 0.0
C341 C 0.54967 0.65552 0.03364 0.0
C342 C 0.4987 0.53631 0.0378 0.0
C343 C 0.51715 0.48744 0.02327 0.0
C344 C 0.47148 0.4494 0.02744 0.0
C345 C 0.50363 0.40388 0.02091 0.0
C346 C 0.46192 0.36548 0.02158 0.0
C347 C 0.3869 0.37174 0.02869 0.0
H348 H 0.36866 0.48952 0.0392 0.0
C349 C 0.35486 0.41758 0.03592 0.0
C350 C 0.39647 0.45592 0.03522 0.0
H351 H 0.29698 0.42328 0.04054 0.0
H352 H 0.71362 0.59611 1.00974 0.0
H353 H 0.64575 0.5332 0.01803 0.0
H354 H 0.4533 0.62585 0.04638 0.0
H355 H 0.52253 0.6899 0.03871 0.0
H356 H 0.44833 0.54988 0.05417 0.0
H357 H 0.56757 0.4738 1.00698 0.0
H358 H 0.56117 0.39765 1.01465 0.0
H359 H 0.48833 0.33056 0.01572 0.0
C360 C 0.32825 0.61608 0.52824 0.0
C361 C 0.36266 0.66073 0.53406 0.0
C362 C 0.36766 0.57783 0.53012 0.0
C363 C 0.4427 0.58319 0.53763 0.0
C364 C 0.47676 0.6283 0.54444 0.0
C365 C 0.43725 0.66668 0.54257 0.0
C366 C 0.48653 0.5429 0.53922 0.0
C367 C 0.46826 0.49382 0.51918 0.0
C368 C 0.51268 0.45279 0.51912 0.0
C369 C 0.50641 0.40427 0.48681 0.0
C370 C 0.54752 0.36458 0.48525 0.0
C371 C 0.59532 0.37237 0.51628 0.0
H372 H 0.56388 0.49701 0.5767 0.0
C373 C 0.60035 0.42068 0.54911 0.0
C374 C 0.55946 0.46054 0.5506 0.0
H375 H 0.63509 0.42769 0.57393 0.0
H376 H 0.2705 0.61076 0.52269 0.0
H377 H 0.33871 0.54456 0.5263 0.0
H378 H 0.53433 0.63363 0.55073 0.0
H379 H 0.46531 0.70078 0.54753 0.0
H380 H 0.53741 0.55387 0.55539 0.0
H381 H 0.4211 0.48257 0.49989 0.0
H382 H 0.47041 0.39715 0.46229 0.0
H383 H 0.54272 0.32799 0.45925 0.0
C384 C 0.14259 0.08635 0.98214 0.0
C385 C 0.11181 0.13203 0.98814 0.0
C386 C 0.09986 0.04955 0.98442 0.0
C387 C 0.02542 0.05793 0.99331 0.0
C388 C -0.00595 0.10258 0.9975 0.0
C389 C 0.03683 0.13945 0.99517 0.0
C390 C 0.97918 0.02126 0.99875 0.0
C391 C 0.00552 0.98944 1.01122 0.0
C392 C 0.95967 0.95318 0.01731 0.0
C393 C 0.99145 0.90872 1.01322 0.0
C394 C 0.94986 0.87302 0.0178 0.0
C395 C 0.87571 0.88148 0.0272 0.0
H396 H 0.86005 0.99697 0.03258 0.0
C397 C 0.84438 0.92681 0.03264 0.0
C398 C 0.8859 0.96235 0.0278 0.0
H399 H 0.78738 0.93454 0.03987 0.0
H400 H 0.20016 0.07941 0.9768 0.0
H401 H 0.12565 0.01481 0.9794 0.0
H402 H 0.93664 0.10965 1.00381 0.0
H403 H 0.01137 0.17416 0.99977 0.0
H404 H 0.92145 0.02181 0.99345 0.0
H405 H 0.0632 0.98896 0.01664 0.0
H406 H 0.0484 0.90109 1.00565 0.0
H407 H 0.97579 0.83863 1.01362 0.0
C408 C 0.86927 0.12367 0.52006 0.0
C409 C 0.85322 0.12586 0.48492 0.0
C410 C 0.90707 0.08314 0.51874 0.0
C411 C 0.93039 0.04371 0.48223 0.0
C412 C 0.91284 0.04487 0.44686 0.0
C413 C 0.875 0.08597 0.44818 0.0
C414 C 0.97193 1.00113 0.48122 0.0
C415 C 0.02016 1.00867 0.50994 0.0
C416 C 0.05841 0.96781 0.51331 0.0
C417 C 0.12513 0.97872 0.53315 0.0
C418 C 0.16095 0.94236 0.53932 0.0
C419 C 0.13 0.89449 0.52655 0.0
H420 H 0.97503 0.91072 0.48564 0.0
C421 C 0.06285 0.88358 0.50678 0.0
C422 C 0.0274 0.91988 0.50013 0.0
H423 H 0.03753 0.84705 0.49639 0.0
H424 H 0.85193 0.15314 0.54886 0.0
H425 H 0.91724 0.08251 0.54646 0.0
H426 H 0.92964 0.01453 0.41834 0.0
H427 H 0.86352 0.08674 0.42064 0.0
H428 H 0.96365 0.96372 0.45645 0.0
H429 H 0.03316 0.04701 0.53212 0.0
H430 H 0.14984 0.01553 0.54384 0.0
H431 H 0.2131 0.95193 0.55397 0.0
C432 C 0.51755 0.15169 0.25259 0.0
C433 C 0.53413 0.10313 0.24686 0.0
C434 C 0.49791 0.15947 0.22051 0.0
C435 C 0.49403 0.11879 0.18169 0.0
C436 C 0.51047 0.07031 0.17596 0.0
C437 C 0.53122 0.06261 0.20796 0.0
C438 C 0.46694 0.12515 0.14746 0.0
C439 C 0.47072 0.16918 0.1462 0.0
C440 C 0.43292 0.17999 0.11641 0.0
C441 C 0.44508 0.22693 0.11776 0.0
C442 C 0.40223 0.24283 0.09557 0.0
C443 C 0.34715 0.21169 0.07095 0.0
H444 H 0.36695 0.11185 0.08835 0.0
C445 C 0.33661 0.16399 0.06811 0.0
C446 C 0.3794 0.14798 0.09026 0.0
H447 H 0.29277 0.14007 0.05019 0.0
H448 H 0.51734 0.18369 0.28214 0.0
H449 H 0.48296 0.19717 0.22667 0.0
H450 H 0.50656 0.03811 0.14667 0.0
H451 H 0.54467 0.0248 0.20219 0.0
H452 H 0.44252 0.0924 0.12304 0.0
H453 H 0.50084 0.20014 0.16931 0.0
H454 H 0.48541 0.25262 0.13767 0.0
H455 H 0.4096 0.28048 0.09922 0.0
C456 C 0.44613 0.87209 0.27887 0.0
C457 C 0.5142 0.86699 0.26057 0.0
C458 C 0.4375 0.86137 0.31053 0.0
C459 C 0.49683 0.84524 0.32474 0.0
C460 C 0.5649 0.84051 0.30676 0.0
C461 C 0.57371 0.85169 0.27531 0.0
C462 C 0.4878 0.82924 0.35594 0.0
C463 C 0.43626 0.84851 0.38435 0.0
C464 C 0.4178 0.82827 0.41215 0.0
C465 C 0.3739 0.85755 0.44524 0.0
C466 C 0.34496 0.8373 0.46847 0.0
C467 C 0.35972 0.78731 0.45944 0.0
H468 H 0.4676 0.75443 0.37846 0.0
C469 C 0.40639 0.75862 0.42752 0.0
C470 C 0.43525 0.77879 0.40407 0.0
H471 H 0.41795 0.71975 0.4196 0.0
H472 H 0.39873 0.88271 0.26788 0.0
H473 H 0.38362 0.86386 0.32268 0.0
H474 H 0.6114 0.82789 0.31695 0.0
H475 H 0.62722 0.84808 0.26244 0.0
H476 H 0.52476 0.80082 0.35517 0.0
H477 H 0.40436 0.88022 0.38696 0.0
H478 H 0.35921 0.89564 0.45216 0.0
H479 H 0.3083 0.86025 0.49226 0.0
C480 C 0.58848 0.7567 0.92256 0.0
C481 C 0.63861 0.78203 0.95329 0.0
C482 C 0.5582 0.78062 0.90228 0.0
C483 C 0.57787 0.83049 0.91232 0.0
C484 C 0.62648 0.85605 0.94384 0.0
C485 C 0.65687 0.83205 0.96386 0.0
C486 C 0.55625 0.85513 0.88806 0.0
C487 C 0.50202 0.83895 0.86126 0.0
C488 C 0.48981 0.85873 0.83261 0.0
C489 C 0.42119 0.85314 0.81518 0.0
C490 C 0.40983 0.86649 0.78513 0.0
C491 C 0.46719 0.88523 0.77145 0.0
H492 H 0.6011 0.88222 0.83132 0.0
C493 C 0.53547 0.89197 0.78956 0.0
C494 C 0.54678 0.87877 0.81967 0.0
H495 H 0.58116 0.90546 0.77933 0.0
H496 H 0.57447 0.7178 0.91338 0.0
H497 H 0.5224 0.75889 0.87763 0.0
H498 H 0.64323 0.89424 0.9521 0.0
H499 H 0.69669 0.85227 0.98657 0.0
H500 H 0.58808 0.88751 0.89192 0.0
H501 H 0.46543 0.80976 0.85961 0.0
H502 H 0.37642 0.83764 0.82441 0.0
H503 H 0.35623 0.86152 0.77226 0.0
C504 C 0.55167 0.24714 0.59252 0.0
C505 C 0.61156 0.22513 0.56754 0.0
C506 C 0.52154 0.22489 0.61418 0.0
C507 C 0.55174 0.18059 0.61175 0.0
C508 C 0.60935 0.15734 0.5852 0.0
C509 C 0.6397 0.17975 0.56374 0.0
C510 C 0.52793 0.15978 0.63842 0.0
C511 C 0.50681 0.18999 0.67624 0.0
C512 C 0.49459 0.17278 0.70653 0.0
C513 C 0.50199 0.20832 0.74677 0.0
C514 C 0.49168 0.19467 0.77664 0.0
C515 C 0.47239 0.14509 0.76721 0.0
H516 H 0.46793 0.09468 0.66612 0.0
C517 C 0.46466 0.10926 0.72683 0.0
C518 C 0.47563 0.12294 0.69675 0.0
H519 H 0.44884 0.0709 0.71848 0.0
H520 H 0.52938 0.28226 0.59603 0.0
H521 H 0.47574 0.24307 0.63348 0.0
H522 H 0.63336 0.12309 0.58254 0.0
H523 H 0.68679 0.16244 0.54523 0.0
H524 H 0.53666 0.11994 0.62833 0.0
H525 H 0.50501 0.2304 0.68691 0.0
H526 H 0.51678 0.24692 0.75523 0.0
H527 H 0.4996 0.22309 0.80725 0.0
C528 C 0.90617 0.77985 0.12805 0.0
C529 C 0.85834 0.75191 0.09668 0.0
C530 C 0.93508 0.75917 0.15098 0.0
C531 C 0.91662 0.70982 0.14297 0.0
C532 C 0.87119 0.68126 0.11043 0.0
C533 C 0.84207 0.7021 0.08768 0.0
C534 C 0.93639 0.68891 0.17017 0.0
C535 C 0.98785 0.70852 0.19856 0.0
C536 C -0.00054 0.69189 0.22924 0.0
C537 C 0.06666 0.70138 0.24869 0.0
C538 C 0.07788 0.68986 0.27976 0.0
C539 C 0.02175 0.66907 0.29251 0.0
H540 H 0.89008 0.66417 0.22845 0.0
C541 C 0.95461 0.65916 0.27281 0.0
C542 C 0.94347 0.67052 0.24164 0.0
H543 H 0.90972 0.6441 0.2823 0.0
H544 H 0.91874 0.81861 0.13595 0.0
H545 H 0.96849 0.78315 0.17611 0.0
H546 H 0.85562 0.64331 0.10357 0.0
H547 H 0.80418 0.67989 0.06434 0.0
H548 H 0.90575 0.6564 0.16704 0.0
H549 H 0.0233 0.73797 0.19972 0.0
H550 H 0.11061 0.71811 0.24001 0.0
H551 H 0.13063 0.69736 0.29382 0.0
C552 C 0.81864 0.33758 0.43958 0.0
C553 C 0.82321 0.29066 0.43872 0.0
C554 C 0.86141 0.34815 0.41401 0.0
C555 C 0.9089 0.3114 0.38649 0.0
C556 C 0.91537 0.26527 0.38715 0.0
C557 C 0.87246 0.25481 0.41266 0.0
C558 C 0.94548 0.31658 0.35354 0.0
C559 C 0.94607 0.35897 0.3498 0.0
C560 C 0.97054 0.36058 0.31306 0.0
C561 C 0.9892 0.4072 0.31551 0.0
C562 C 0.00524 0.41113 0.28118 0.0
C563 C 0.00241 0.3685 0.24336 0.0
H564 H 0.95281 0.28129 0.27169 0.0
C565 C 0.98518 0.32164 0.24093 0.0
C566 C 0.9692 0.31769 0.27527 0.0
H567 H 0.98115 0.28818 0.21231 0.0
H568 H 0.77927 0.36515 0.45867 0.0
H569 H 0.8534 0.38397 0.41457 0.0
H570 H 0.9509 0.23605 0.3663 0.0
H571 H 0.87486 0.21763 0.41045 0.0
H572 H 0.97046 0.28284 0.33031 0.0
H573 H 0.92677 0.39406 0.37404 0.0
H574 H 0.99032 0.44094 0.3441 0.0
H575 H 0.01922 0.44775 0.28426 0.0
C576 C 0.95872 0.38021 0.77971 0.0
C577 C 0.9593 0.34281 0.7396 0.0
C578 C 0.97629 0.36846 0.81011 0.0
C579 C -0.0043 0.31893 0.80104 0.0
C580 C -0.00572 0.28144 0.761 0.0
C581 C 0.97644 0.29315 0.7307 0.0
C582 C 0.01934 0.30448 0.83176 0.0
C583 C 0.04057 0.3375 0.869 0.0
C584 C 0.07566 0.32173 0.89658 0.0
C585 C 0.12576 0.35459 0.92456 0.0
C586 C 0.16728 0.33891 0.94728 0.0
C587 C 0.15775 0.29069 0.94354 0.0
H588 H 0.0241 0.24828 0.874 0.0
C589 C 0.10496 0.25864 0.91734 0.0
C590 C 0.06375 0.27414 0.89425 0.0
H591 H 0.0979 0.22087 0.91346 0.0
H592 H 0.94432 0.41867 0.78768 0.0
H593 H 0.9743 0.39841 0.84046 0.0
H594 H 0.00859 0.24292 0.75293 0.0
H595 H 0.97801 0.26345 0.70015 0.0
H596 H 0.02536 0.26446 0.82185 0.0
H597 H 0.04 0.37754 0.87837 0.0
H598 H 0.13573 0.39156 0.92731 0.0
H599 H 0.20884 0.36378 0.96676 0.0
C600 C 0.1376 0.72366 0.59954 0.0
C601 C 0.12376 0.7725 0.60533 0.0
C602 C 0.10354 0.70603 0.62345 0.0
C603 C 0.05569 0.73727 0.65407 0.0
C604 C 0.03867 0.78488 0.65812 0.0
C605 C 0.07291 0.80253 0.63431 0.0
C606 C 0.02535 0.72267 0.68348 0.0
C607 C 0.06103 0.69236 0.69469 0.0
C608 C 0.03778 0.68224 0.72781 0.0
C609 C 0.08928 0.66285 0.74403 0.0
C610 C 0.07112 0.65328 0.77543 0.0
C611 C 0.0006 0.66255 0.79144 0.0
H612 H 0.92474 0.70476 0.73139 0.0
C613 C 0.94862 0.68156 0.77507 0.0
C614 C 0.96681 0.69113 0.74353 0.0
H615 H 0.89343 0.68827 0.7862 0.0
H616 H 0.17693 0.69976 0.57772 0.0
H617 H 0.11612 0.6684 0.61842 0.0
H618 H 0.00141 0.80953 0.68109 0.0
H619 H 0.06149 0.8404 0.63945 0.0
H620 H 0.97634 0.74173 0.6991 0.0
H621 H 0.11314 0.67699 0.68103 0.0
H622 H 0.14433 0.65555 0.73265 0.0
H623 H 0.11282 0.63922 0.78755 0.0
loop_
_geom_bond_atom_site_label_1
_geom_bond_atom_site_label_2
_geom_bond_distance
_geom_bond_site_symmetry_2
_ccdc_geom_bond_type
Eu0 N31 2.657 . S
Eu0 N38 2.609 . S
Eu0 O44 2.558 . S
Eu0 O45 2.612 . S
Eu0 O47 2.339 . S
Eu0 O48 2.563 . S
Eu0 O49 2.419 . S
Eu0 O51 2.380 1_554 S
Eu0 O52 2.432 . S
Eu0 C64 2.848 . S
C1 C4 1.429 . S
C1 C5 1.411 . S
C1 N8 1.377 . S
C2 C4 1.420 1_554 S
C2 C6 1.423 . S
C2 C14 1.392 . S
C3 C5 1.420 . S
C3 C6 1.351 1_556 S
C3 H26 0.931 . S
C4 C1 1.429 . S
C4 C2 1.420 1_556 S
C4 N12 1.362 . S
C5 C1 1.411 . S
C5 C3 1.420 . S
C5 C10 1.395 . S
C6 C2 1.423 . S
C6 C3 1.351 1_554 S
C6 H18 0.930 . S
C7 C9 1.400 . S
C7 C10 1.386 . S
C7 H19 0.930 . S
N8 C1 1.377 . S
N8 C9 1.321 . S
N8 Eu11 2.609 . S
C9 C7 1.400 . S
C9 N8 1.321 . S
C9 H16 0.930 . S
C10 C5 1.395 . S
C10 C7 1.386 . S
C10 H29 0.930 . S
Eu11 N8 2.609 . S
Eu11 N12 2.657 . S
Eu11 O45 2.380 1_556 S
Eu11 O46 2.432 . S
Eu11 O50 2.558 . S
Eu11 O51 2.612 . S
Eu11 O53 2.339 . S
Eu11 O54 2.563 . S
Eu11 O55 2.419 . S
Eu11 C75 2.848 . S
N12 C4 1.362 . S
N12 Eu11 2.657 . S
N12 C13 1.334 1_556 S
C13 N12 1.334 1_554 S
C13 C15 1.413 . S
C13 H20 0.929 . S
C14 C2 1.392 . S
C14 C15 1.367 . S
C14 H22 0.930 . S
C15 C13 1.413 . S
C15 C14 1.367 . S
C15 H17 0.930 . S
H16 C9 0.930 . S
H17 C15 0.930 . S
H18 C6 0.930 . S
H19 C7 0.930 . S
H20 C13 0.929 . S
H21 C35 0.930 . S
H22 C14 0.930 . S
H23 C41 0.930 . S
H24 C32 0.929 . S
H25 C39 0.930 . S
H26 C3 0.931 . S
H27 C33 0.930 . S
H28 C66 0.930 . S
H29 C10 0.930 . S
H30 C65 0.931 . S
N31 Eu0 2.657 . S
N31 C32 1.334 1_554 S
N31 C36 1.362 . S
C32 H24 0.929 . S
C32 N31 1.334 1_556 S
C32 C35 1.413 1_455 S
C33 H27 0.930 . S
C33 C34 1.392 . S
C33 C35 1.367 . S
C34 C33 1.392 . S
C34 C36 1.420 1_656 S
C34 C66 1.423 . S
C35 H21 0.930 . S
C35 C32 1.413 1_655 S
C35 C33 1.367 . S
C36 N31 1.362 . S
C36 C34 1.420 1_454 S
C36 C40 1.429 . S
H37 C42 0.930 . S
N38 Eu0 2.609 . S
N38 C40 1.377 . S
N38 C41 1.321 . S
C39 H25 0.930 . S
C39 C41 1.400 . S
C39 C42 1.386 . S
C40 C36 1.429 . S
C40 N38 1.377 . S
C40 C43 1.411 . S
C41 H23 0.930 . S
C41 N38 1.321 . S
C41 C39 1.400 . S
C42 H37 0.930 . S
C42 C39 1.386 . S
C42 C43 1.395 . S
C43 C40 1.411 . S
C43 C42 1.395 . S
C43 C65 1.420 1_455 S
O44 Eu0 2.558 . S
O44 C64 1.257 . S
O45 Eu0 2.612 . S
O45 Eu11 2.380 1_554 S
O45 C56 1.276 . S
O46 Eu11 2.432 . S
O46 C63 1.264 . S
O47 Eu0 2.339 . S
O47 C63 1.254 1_554 S
O48 Eu0 2.563 . S
O48 C56 1.235 . S
O49 Eu0 2.419 . S
O49 C64 1.249 . S
O50 Eu11 2.558 . S
O50 C75 1.257 . S
O51 Eu0 2.380 1_556 S
O51 Eu11 2.612 . S
O51 C67 1.276 . S
O52 Eu0 2.432 . S
O52 C74 1.264 . S
O53 Eu11 2.339 . S
O53 C74 1.254 1_556 S
O54 Eu11 2.563 . S
O54 C67 1.235 . S
O55 Eu11 2.419 . S
O55 C75 1.249 . S
C56 O45 1.276 . S
C56 O48 1.235 . S
C57 C59 1.393 . S
C57 C61 1.395 . S
C57 C64 1.492 . S
C58 C59 1.392 . S
C58 C60 1.386 . S
C59 C57 1.393 . S
C59 C58 1.392 . S
C59 H76 0.930 . S
C60 C58 1.386 . S
C60 C62 1.395 . S
C60 H77 0.930 1_455 S
C61 C57 1.395 . S
C61 C62 1.379 . S
C61 H78 0.930 . S
C62 C60 1.395 . S
C62 C61 1.379 . S
C62 H79 0.930 . S
C63 O46 1.264 . S
C63 O47 1.254 1_556 S
C64 Eu0 2.848 . S
C64 O44 1.257 . S
C64 O49 1.249 . S
C64 C57 1.492 . S
C65 H30 0.931 . S
C65 C43 1.420 1_655 S
C65 C66 1.351 1_554 S
C66 H28 0.930 . S
C66 C34 1.423 . S
C66 C65 1.351 1_556 S
C67 O51 1.276 . S
C67 O54 1.235 . S
C68 C69 1.393 . S
C68 C72 1.395 . S
C68 C75 1.492 . S
C69 C68 1.393 . S
C69 C70 1.392 . S
C69 H80 0.930 . S
C70 C69 1.392 . S
C70 C71 1.386 . S
C71 C70 1.386 . S
C71 C73 1.395 . S
C71 H81 0.930 . S
C72 C68 1.395 . S
C72 C73 1.379 . S
C72 H82 0.930 . S
C73 C71 1.395 . S
C73 C72 1.379 . S
C73 H83 0.930 . S
C74 O52 1.264 . S
C74 O53 1.254 1_554 S
C75 Eu11 2.848 . S
C75 O50 1.257 . S
C75 O55 1.249 . S
C75 C68 1.492 . S
H76 C59 0.930 . S
H77 C60 0.930 1_655 S
H78 C61 0.930 . S
H79 C62 0.930 . S
H80 C69 0.930 . S
H81 C71 0.930 . S
H82 C72 0.930 . S
H83 C73 0.930 . S
Eu84 N115 2.657 . S
Eu84 N122 2.609 . S
Eu84 O128 2.558 . S
Eu84 O129 2.612 . S
Eu84 O131 2.339 . S
Eu84 O132 2.563 . S
Eu84 O133 2.419 . S
Eu84 O135 2.380 1_554 S
Eu84 O136 2.432 . S
Eu84 C148 2.848 . S
C85 C88 1.429 . S
C85 C89 1.411 . S
C85 N92 1.377 . S
C86 C88 1.420 1_454 S
C86 C90 1.423 . S
C86 C98 1.392 . S
C87 C89 1.420 1_455 S
C87 C90 1.351 1_556 S
C87 H110 0.931 . S
C88 C85 1.429 . S
C88 C86 1.420 1_656 S
C88 N96 1.362 . S
C89 C85 1.411 . S
C89 C87 1.420 1_655 S
C89 C94 1.395 . S
C90 C86 1.423 . S
C90 C87 1.351 1_554 S
C90 H102 0.930 . S
C91 C93 1.400 . S
C91 C94 1.386 . S
C91 H103 0.930 . S
N92 C85 1.377 . S
N92 C93 1.321 . S
N92 Eu95 2.609 . S
C93 C91 1.400 . S
C93 N92 1.321 . S
C93 H100 0.930 . S
C94 C89 1.395 . S
C94 C91 1.386 . S
C94 H113 0.930 . S
Eu95 N92 2.609 . S
Eu95 N96 2.657 . S
Eu95 O129 2.380 1_556 S
Eu95 O130 2.432 . S
Eu95 O134 2.558 . S
Eu95 O135 2.612 . S
Eu95 O137 2.339 . S
Eu95 O138 2.563 . S
Eu95 O139 2.419 . S
Eu95 C159 2.848 . S
N96 C88 1.362 . S
N96 Eu95 2.657 . S
N96 C97 1.334 1_556 S
C97 N96 1.334 1_554 S
C97 C99 1.413 1_655 S
C97 H104 0.929 . S
C98 C86 1.392 . S
C98 C99 1.367 . S
C98 H106 0.930 . S
C99 C97 1.413 1_455 S
C99 C98 1.367 . S
C99 H101 0.930 . S
H100 C93 0.930 . S
H101 C99 0.930 . S
H102 C90 0.930 . S
H103 C91 0.930 . S
H104 C97 0.929 . S
H105 C119 0.930 . S
H106 C98 0.930 . S
H107 C125 0.930 . S
H108 C116 0.929 . S
H109 C123 0.930 . S
H110 C87 0.931 . S
H111 C117 0.930 . S
H112 C150 0.930 . S
H113 C94 0.930 . S
H114 C149 0.931 . S
N115 Eu84 2.657 . S
N115 C116 1.334 1_554 S
N115 C120 1.362 . S
C116 H108 0.929 . S
C116 N115 1.334 1_556 S
C116 C119 1.413 . S
C117 H111 0.930 . S
C117 C118 1.392 . S
C117 C119 1.367 . S
C118 C117 1.392 . S
C118 C120 1.420 1_556 S
C118 C150 1.423 . S
C119 H105 0.930 . S
C119 C116 1.413 . S
C119 C117 1.367 . S
C120 N115 1.362 . S
C120 C118 1.420 1_554 S
C120 C124 1.429 . S
H121 C126 0.930 . S
N122 Eu84 2.609 . S
N122 C124 1.377 . S
N122 C125 1.321 . S
C123 H109 0.930 . S
C123 C125 1.400 . S
C123 C126 1.386 . S
C124 C120 1.429 . S
C124 N122 1.377 . S
C124 C127 1.411 . S
C125 H107 0.930 . S
C125 N122 1.321 . S
C125 C123 1.400 . S
C126 H121 0.930 . S
C126 C123 1.386 . S
C126 C127 1.395 . S
C127 C124 1.411 . S
C127 C126 1.395 . S
C127 C149 1.420 . S
O128 Eu84 2.558 . S
O128 C148 1.257 . S
O129 Eu84 2.612 . S
O129 Eu95 2.380 1_554 S
O129 C140 1.276 . S
O130 Eu95 2.432 . S
O130 C147 1.264 . S
O131 Eu84 2.339 . S
O131 C147 1.254 1_554 S
O132 Eu84 2.563 . S
O132 C140 1.235 . S
O133 Eu84 2.419 . S
O133 C148 1.249 . S
O134 Eu95 2.558 . S
O134 C159 1.257 . S
O135 Eu84 2.380 1_556 S
O135 Eu95 2.612 . S
O135 C151 1.276 . S
O136 Eu84 2.432 . S
O136 C158 1.264 . S
O137 Eu95 2.339 . S
O137 C158 1.254 1_556 S
O138 Eu95 2.563 . S
O138 C151 1.235 . S
O139 Eu95 2.419 . S
O139 C159 1.249 . S
C140 O129 1.276 . S
C140 O132 1.235 . S
C141 C143 1.393 . S
C141 C145 1.395 . S
C141 C148 1.492 . S
C142 C143 1.392 . S
C142 C144 1.386 . S
C143 C141 1.393 . S
C143 C142 1.392 . S
C143 H160 0.930 . S
C144 C142 1.386 . S
C144 C146 1.395 . S
C144 H161 0.930 . S
C145 C141 1.395 . S
C145 C146 1.379 . S
C145 H162 0.930 . S
C146 C144 1.395 . S
C146 C145 1.379 . S
C146 H163 0.930 . S
C147 O130 1.264 . S
C147 O131 1.254 1_556 S
C148 Eu84 2.848 . S
C148 O128 1.257 . S
C148 O133 1.249 . S
C148 C141 1.492 . S
C149 H114 0.931 . S
C149 C127 1.420 . S
C149 C150 1.351 1_554 S
C150 H112 0.930 . S
C150 C118 1.423 . S
C150 C149 1.351 1_556 S
C151 O135 1.276 . S
C151 O138 1.235 . S
C152 C153 1.393 . S
C152 C156 1.395 . S
C152 C159 1.492 . S
C153 C152 1.393 . S
C153 C154 1.392 . S
C153 H164 0.930 . S
C154 C153 1.392 . S
C154 C155 1.386 . S
C155 C154 1.386 . S
C155 C157 1.395 . S
C155 H165 0.930 1_655 S
C156 C152 1.395 . S
C156 C157 1.379 . S
C156 H166 0.930 . S
C157 C155 1.395 . S
C157 C156 1.379 . S
C157 H167 0.930 . S
C158 O136 1.264 . S
C158 O137 1.254 1_554 S
C159 Eu95 2.848 . S
C159 O134 1.257 . S
C159 O139 1.249 . S
C159 C152 1.492 . S
H160 C143 0.930 . S
H161 C144 0.930 . S
H162 C145 0.930 . S
H163 C146 0.930 . S
H164 C153 0.930 . S
H165 C155 0.930 1_455 S
H166 C156 0.930 . S
H167 C157 0.930 . S
Eu168 N199 2.657 . S
Eu168 N206 2.609 . S
Eu168 O212 2.558 . S
Eu168 O213 2.612 . S
Eu168 O215 2.339 . S
Eu168 O216 2.563 . S
Eu168 O217 2.419 . S
Eu168 O219 2.380 . S
Eu168 O220 2.432 . S
Eu168 C232 2.848 . S
C169 C172 1.429 . S
C169 C173 1.411 . S
C169 N176 1.377 . S
C170 C172 1.420 . S
C170 C174 1.423 . S
C170 C182 1.392 . S
C171 C173 1.420 . S
C171 C174 1.351 . S
C171 H194 0.931 . S
C172 C169 1.429 . S
C172 C170 1.420 . S
C172 N180 1.362 . S
C173 C169 1.411 . S
C173 C171 1.420 . S
C173 C178 1.395 . S
C174 C170 1.423 . S
C174 C171 1.351 . S
C174 H186 0.930 . S
C175 C177 1.400 . S
C175 C178 1.386 . S
C175 H187 0.930 . S
N176 C169 1.377 . S
N176 C177 1.321 . S
N176 Eu179 2.609 . S
C177 C175 1.400 . S
C177 N176 1.321 . S
C177 H184 0.930 . S
C178 C173 1.395 . S
C178 C175 1.386 . S
C178 H197 0.930 . S
Eu179 N176 2.609 . S
Eu179 N180 2.657 . S
Eu179 O213 2.380 . S
Eu179 O214 2.432 . S
Eu179 O218 2.558 . S
Eu179 O219 2.612 . S
Eu179 O221 2.339 . S
Eu179 O222 2.563 . S
Eu179 O223 2.419 . S
Eu179 C243 2.848 . S
N180 C172 1.362 . S
N180 Eu179 2.657 . S
N180 C181 1.334 . S
C181 N180 1.334 . S
C181 C183 1.413 . S
C181 H188 0.929 . S
C182 C170 1.392 . S
C182 C183 1.367 . S
C182 H190 0.930 . S
C183 C181 1.413 . S
C183 C182 1.367 . S
C183 H185 0.930 . S
H184 C177 0.930 . S
H185 C183 0.930 . S
H186 C174 0.930 . S
H187 C175 0.930 . S
H188 C181 0.929 . S
H189 C203 0.930 . S
H190 C182 0.930 . S
H191 C209 0.930 . S
H192 C200 0.929 . S
H193 C207 0.930 . S
H194 C171 0.931 . S
H195 C201 0.930 . S
H196 C234 0.930 . S
H197 C178 0.930 . S
H198 C233 0.931 . S
N199 Eu168 2.657 . S
N199 C200 1.334 . S
N199 C204 1.362 . S
C200 H192 0.929 . S
C200 N199 1.334 . S
C200 C203 1.413 1_455 S
C201 H195 0.930 . S
C201 C202 1.392 . S
C201 C203 1.367 . S
C202 C201 1.392 . S
C202 C204 1.420 1_655 S
C202 C234 1.423 . S
C203 H189 0.930 . S
C203 C200 1.413 1_655 S
C203 C201 1.367 . S
C204 N199 1.362 . S
C204 C202 1.420 1_455 S
C204 C208 1.429 . S
H205 C210 0.930 . S
N206 Eu168 2.609 . S
N206 C208 1.377 . S
N206 C209 1.321 . S
C207 H193 0.930 . S
C207 C209 1.400 . S
C207 C210 1.386 . S
C208 C204 1.429 . S
C208 N206 1.377 . S
C208 C211 1.411 . S
C209 H191 0.930 . S
C209 N206 1.321 . S
C209 C207 1.400 . S
C210 H205 0.930 . S
C210 C207 1.386 . S
C210 C211 1.395 . S
C211 C208 1.411 . S
C211 C210 1.395 . S
C211 C233 1.420 1_455 S
O212 Eu168 2.558 . S
O212 C232 1.257 . S
O213 Eu168 2.612 . S
O213 Eu179 2.380 . S
O213 C224 1.276 . S
O214 Eu179 2.432 . S
O214 C231 1.264 . S
O215 Eu168 2.339 . S
O215 C231 1.254 . S
O216 Eu168 2.563 . S
O216 C224 1.235 . S
O217 Eu168 2.419 . S
O217 C232 1.249 . S
O218 Eu179 2.558 . S
O218 C243 1.257 . S
O219 Eu168 2.380 . S
O219 Eu179 2.612 . S
O219 C235 1.276 . S
O220 Eu168 2.432 . S
O220 C242 1.264 . S
O221 Eu179 2.339 . S
O221 C242 1.254 . S
O222 Eu179 2.563 . S
O222 C235 1.235 . S
O223 Eu179 2.419 . S
O223 C243 1.249 . S
C224 O213 1.276 . S
C224 O216 1.235 . S
C225 C227 1.393 . S
C225 C229 1.395 . S
C225 C232 1.492 . S
C226 C227 1.392 . S
C226 C228 1.386 . S
C227 C225 1.393 . S
C227 C226 1.392 . S
C227 H244 0.930 . S
C228 C226 1.386 . S
C228 C230 1.395 . S
C228 H245 0.930 1_455 S
C229 C225 1.395 . S
C229 C230 1.379 . S
C229 H246 0.930 . S
C230 C228 1.395 . S
C230 C229 1.379 . S
C230 H247 0.930 . S
C231 O214 1.264 . S
C231 O215 1.254 . S
C232 Eu168 2.848 . S
C232 O212 1.257 . S
C232 O217 1.249 . S
C232 C225 1.492 . S
C233 H198 0.931 . S
C233 C211 1.420 1_655 S
C233 C234 1.351 . S
C234 H196 0.930 . S
C234 C202 1.423 . S
C234 C233 1.351 . S
C235 O219 1.276 . S
C235 O222 1.235 . S
C236 C237 1.393 . S
C236 C240 1.395 . S
C236 C243 1.492 . S
C237 C236 1.393 . S
C237 C238 1.392 . S
C237 H248 0.930 . S
C238 C237 1.392 . S
C238 C239 1.386 . S
C239 C238 1.386 . S
C239 C241 1.395 . S
C239 H249 0.930 . S
C240 C236 1.395 . S
C240 C241 1.379 . S
C240 H250 0.930 . S
C241 C239 1.395 . S
C241 C240 1.379 . S
C241 H251 0.930 . S
C242 O220 1.264 . S
C242 O221 1.254 . S
C243 Eu179 2.848 . S
C243 O218 1.257 . S
C243 O223 1.249 . S
C243 C236 1.492 . S
H244 C227 0.930 . S
H245 C228 0.930 1_655 S
H246 C229 0.930 . S
H247 C230 0.930 . S
H248 C237 0.930 . S
H249 C239 0.930 . S
H250 C240 0.930 . S
H251 C241 0.930 . S
Eu252 N283 2.657 . S
Eu252 N290 2.609 . S
Eu252 O296 2.558 . S
Eu252 O297 2.612 . S
Eu252 O299 2.339 . S
Eu252 O300 2.563 . S
Eu252 O301 2.419 . S
Eu252 O303 2.380 . S
Eu252 O304 2.432 . S
Eu252 C316 2.848 . S
C253 C256 1.429 . S
C253 C257 1.411 . S
C253 N260 1.377 . S
C254 C256 1.420 1_455 S
C254 C258 1.423 . S
C254 C266 1.392 . S
C255 C257 1.420 1_455 S
C255 C258 1.351 . S
C255 H278 0.931 . S
C256 C253 1.429 . S
C256 C254 1.420 1_655 S
C256 N264 1.362 . S
C257 C253 1.411 . S
C257 C255 1.420 1_655 S
C257 C262 1.395 . S
C258 C254 1.423 . S
C258 C255 1.351 . S
C258 H270 0.930 . S
C259 C261 1.400 . S
C259 C262 1.386 . S
C259 H271 0.930 . S
N260 C253 1.377 . S
N260 C261 1.321 . S
N260 Eu263 2.609 . S
C261 C259 1.400 . S
C261 N260 1.321 . S
C261 H268 0.930 . S
C262 C257 1.395 . S
C262 C259 1.386 . S
C262 H281 0.930 . S
Eu263 N260 2.609 . S
Eu263 N264 2.657 . S
Eu263 O297 2.380 . S
Eu263 O298 2.432 . S
Eu263 O302 2.558 . S
Eu263 O303 2.612 . S
Eu263 O305 2.339 . S
Eu263 O306 2.563 . S
Eu263 O307 2.419 . S
Eu263 C327 2.848 . S
N264 C256 1.362 . S
N264 Eu263 2.657 . S
N264 C265 1.334 . S
C265 N264 1.334 . S
C265 C267 1.413 1_655 S
C265 H272 0.929 . S
C266 C254 1.392 . S
C266 C267 1.367 . S
C266 H274 0.930 . S
C267 C265 1.413 1_455 S
C267 C266 1.367 . S
C267 H269 0.930 . S
H268 C261 0.930 . S
H269 C267 0.930 . S
H270 C258 0.930 . S
H271 C259 0.930 . S
H272 C265 0.929 . S
H273 C287 0.930 . S
H274 C266 0.930 . S
H275 C293 0.930 . S
H276 C284 0.929 . S
H277 C291 0.930 . S
H278 C255 0.931 . S
H279 C285 0.930 . S
H280 C318 0.930 . S
H281 C262 0.930 . S
H282 C317 0.931 . S
N283 Eu252 2.657 . S
N283 C284 1.334 . S
N283 C288 1.362 . S
C284 H276 0.929 . S
C284 N283 1.334 . S
C284 C287 1.413 . S
C285 H279 0.930 . S
C285 C286 1.392 . S
C285 C287 1.367 . S
C286 C285 1.392 . S
C286 C288 1.420 . S
C286 C318 1.423 . S
C287 H273 0.930 . S
C287 C284 1.413 . S
C287 C285 1.367 . S
C288 N283 1.362 . S
C288 C286 1.420 . S
C288 C292 1.429 . S
H289 C294 0.930 . S
N290 Eu252 2.609 . S
N290 C292 1.377 . S
N290 C293 1.321 . S
C291 H277 0.930 . S
C291 C293 1.400 . S
C291 C294 1.386 . S
C292 C288 1.429 . S
C292 N290 1.377 . S
C292 C295 1.411 . S
C293 H275 0.930 . S
C293 N290 1.321 . S
C293 C291 1.400 . S
C294 H289 0.930 . S
C294 C291 1.386 . S
C294 C295 1.395 . S
C295 C292 1.411 . S
C295 C294 1.395 . S
C295 C317 1.420 . S
O296 Eu252 2.558 . S
O296 C316 1.257 . S
O297 Eu252 2.612 . S
O297 Eu263 2.380 . S
O297 C308 1.276 . S
O298 Eu263 2.432 . S
O298 C315 1.264 . S
O299 Eu252 2.339 . S
O299 C315 1.254 . S
O300 Eu252 2.563 . S
O300 C308 1.235 . S
O301 Eu252 2.419 . S
O301 C316 1.249 . S
O302 Eu263 2.558 . S
O302 C327 1.257 . S
O303 Eu252 2.380 . S
O303 Eu263 2.612 . S
O303 C319 1.276 . S
O304 Eu252 2.432 . S
O304 C326 1.264 . S
O305 Eu263 2.339 . S
O305 C326 1.254 . S
O306 Eu263 2.563 . S
O306 C319 1.235 . S
O307 Eu263 2.419 . S
O307 C327 1.249 . S
C308 O297 1.276 . S
C308 O300 1.235 . S
C309 C311 1.393 . S
C309 C313 1.395 . S
C309 C316 1.492 . S
C310 C311 1.392 . S
C310 C312 1.386 . S
C311 C309 1.393 . S
C311 C310 1.392 . S
C311 H328 0.930 . S
C312 C310 1.386 . S
C312 C314 1.395 . S
C312 H329 0.930 . S
C313 C309 1.395 . S
C313 C314 1.379 . S
C313 H330 0.930 . S
C314 C312 1.395 . S
C314 C313 1.379 . S
C314 H331 0.930 . S
C315 O298 1.264 . S
C315 O299 1.254 . S
C316 Eu252 2.848 . S
C316 O296 1.257 . S
C316 O301 1.249 . S
C316 C309 1.492 . S
C317 H282 0.931 . S
C317 C295 1.420 . S
C317 C318 1.351 . S
C318 H280 0.930 . S
C318 C286 1.423 . S
C318 C317 1.351 . S
C319 O303 1.276 . S
C319 O306 1.235 . S
C320 C321 1.393 . S
C320 C324 1.395 . S
C320 C327 1.492 . S
C321 C320 1.393 . S
C321 C322 1.392 . S
C321 H332 0.930 . S
C322 C321 1.392 . S
C322 C323 1.386 . S
C323 C322 1.386 . S
C323 C325 1.395 . S
C323 H333 0.930 1_655 S
C324 C320 1.395 . S
C324 C325 1.379 . S
C324 H334 0.930 . S
C325 C323 1.395 . S
C325 C324 1.379 . S
C325 H335 0.930 . S
C326 O304 1.264 . S
C326 O305 1.254 . S
C327 Eu263 2.848 . S
C327 O302 1.257 . S
C327 O307 1.249 . S
C327 C320 1.492 . S
H328 C311 0.930 . S
H329 C312 0.930 . S
H330 C313 0.930 . S
H331 C314 0.930 . S
H332 C321 0.930 . S
H333 C323 0.930 1_455 S
H334 C324 0.930 . S
H335 C325 0.930 . S
C336 C337 1.374 1_556 S
C336 C338 1.383 . S
C336 H352 0.951 . S
C337 C336 1.374 1_554 S
C337 C341 1.414 . S
C338 C336 1.383 . S
C338 C339 1.402 1_556 S
C338 H353 0.951 . S
C339 C338 1.402 1_554 S
C339 C340 1.375 . S
C339 C342 1.481 . S
C340 C339 1.375 . S
C340 C341 1.367 . S
C340 H354 0.951 . S
C341 C337 1.414 . S
C341 C340 1.367 . S
C341 H355 0.950 . S
C342 C339 1.481 . S
C342 C343 1.297 1_554 S
C342 H356 0.950 . S
C343 C342 1.297 1_556 S
C343 C344 1.469 1_556 S
C343 H357 0.950 . S
C344 C343 1.469 1_554 S
C344 C345 1.365 1_554 S
C344 C350 1.423 . S
C345 C344 1.365 1_556 S
C345 C346 1.369 . S
C345 H358 0.950 . S
C346 C345 1.369 . S
C346 C347 1.392 1_556 S
C346 H359 0.951 . S
C347 C346 1.392 1_554 S
C347 C349 1.384 . S
H348 C350 0.949 . S
C349 C347 1.384 . S
C349 C350 1.385 . S
C349 H351 0.950 . S
C350 C344 1.423 . S
C350 H348 0.949 . S
C350 C349 1.385 . S
H351 C349 0.950 . S
H352 C336 0.951 . S
H353 C338 0.951 . S
H354 C340 0.951 . S
H355 C341 0.950 . S
H356 C342 0.950 . S
H357 C343 0.950 . S
H358 C345 0.950 . S
H359 C346 0.951 . S
C360 C361 1.386 . S
C360 C362 1.383 . S
C360 H376 0.951 . S
C361 C360 1.386 . S
C361 C365 1.383 . S
C362 C360 1.383 . S
C362 C363 1.402 . S
C362 H377 0.951 . S
C363 C362 1.402 . S
C363 C364 1.375 . S
C363 C366 1.481 . S
C364 C363 1.375 . S
C364 C365 1.367 . S
C364 H378 0.951 . S
C365 C361 1.383 . S
C365 C364 1.367 . S
C365 H379 0.950 . S
C366 C363 1.481 . S
C366 C367 1.297 . S
C366 H380 0.950 . S
C367 C366 1.297 . S
C367 C368 1.479 . S
C367 H381 0.950 . S
C368 C367 1.479 . S
C368 C369 1.375 . S
C368 C374 1.404 . S
C369 C368 1.375 . S
C369 C370 1.369 . S
C369 H382 0.950 . S
C370 C369 1.369 . S
C370 C371 1.392 . S
C370 H383 0.951 . S
C371 C370 1.392 . S
C371 C373 1.384 . S
H372 C374 0.949 . S
C373 C371 1.384 . S
C373 C374 1.385 . S
C373 H375 0.950 . S
C374 C368 1.404 . S
C374 H372 0.949 . S
C374 C373 1.385 . S
H375 C373 0.950 . S
H376 C360 0.951 . S
H377 C362 0.951 . S
H378 C364 0.951 . S
H379 C365 0.950 . S
H380 C366 0.950 . S
H381 C367 0.950 . S
H382 C369 0.950 . S
H383 C370 0.951 . S
C384 C385 1.363 1_554 S
C384 C386 1.383 . S
C384 H400 0.951 . S
C385 C384 1.363 1_556 S
C385 C389 1.393 . S
C386 C384 1.383 . S
C386 C387 1.402 . S
C386 H401 0.951 . S
C387 C386 1.402 . S
C387 C388 1.375 1_554 S
C387 C390 1.481 1_455 S
C388 C387 1.375 1_556 S
C388 C389 1.367 . S
C388 H402 0.951 1_455 S
C389 C385 1.393 . S
C389 C388 1.367 . S
C389 H403 0.950 . S
C390 C387 1.481 1_655 S
C390 C391 1.279 1_545 S
C390 H404 0.950 1_554 S
C391 C390 1.279 1_565 S
C391 C392 1.494 . S
C391 H405 0.954 1_665 S
C392 C391 1.494 . S
C392 C393 1.375 . S
C392 C398 1.404 . S
C393 C392 1.375 . S
C393 C394 1.369 . S
C393 H406 0.950 1_655 S
C394 C393 1.369 . S
C394 C395 1.392 . S
C394 H407 0.951 . S
C395 C394 1.392 . S
C395 C397 1.384 . S
H396 C398 0.949 . S
C397 C395 1.384 . S
C397 C398 1.385 . S
C397 H399 0.950 1_554 S
C398 C392 1.404 . S
C398 H396 0.949 . S
C398 C397 1.385 . S
H399 C397 0.950 1_556 S
H400 C384 0.951 . S
H401 C386 0.951 . S
H402 C388 0.951 1_655 S
H403 C389 0.950 . S
H404 C390 0.950 1_556 S
H405 C391 0.954 1_445 S
H406 C393 0.950 1_455 S
H407 C394 0.951 . S
C408 C409 1.386 . S
C408 C410 1.383 . S
C408 H424 0.951 . S
C409 C408 1.386 . S
C409 C413 1.383 . S
C410 C408 1.383 . S
C410 C411 1.402 . S
C410 H425 0.951 . S
C411 C410 1.402 . S
C411 C412 1.375 . S
C411 C414 1.481 1_545 S
C412 C411 1.375 . S
C412 C413 1.367 . S
C412 H426 0.951 . S
C413 C409 1.383 . S
C413 C412 1.367 . S
C413 H427 0.950 . S
C414 C411 1.481 1_565 S
C414 C415 1.297 . S
C414 H428 0.950 . S
C415 C414 1.297 . S
C415 C416 1.479 1_655 S
C415 H429 0.950 1_565 S
C416 C415 1.479 1_455 S
C416 C417 1.375 . S
C416 C422 1.404 . S
C417 C416 1.375 . S
C417 C418 1.369 . S
C417 H430 0.950 . S
C418 C417 1.369 . S
C418 C419 1.392 . S
C418 H431 0.951 . S
C419 C418 1.392 . S
C419 C421 1.384 . S
H420 C422 0.949 . S
C421 C419 1.384 . S
C421 C422 1.385 . S
C421 H423 0.950 . S
C422 C416 1.404 . S
C422 H420 0.949 . S
C422 C421 1.385 . S
H423 C421 0.950 . S
H424 C408 0.951 . S
H425 C410 0.951 . S
H426 C412 0.951 . S
H427 C413 0.950 . S
H428 C414 0.950 . S
H429 C415 0.950 1_545 S
H430 C417 0.950 . S
H431 C418 0.951 . S
C432 C433 1.386 . S
C432 C434 1.383 . S
C432 H448 0.951 . S
C433 C432 1.386 . S
C433 C437 1.383 . S
C434 C432 1.383 . S
C434 C435 1.402 . S
C434 H449 0.951 . S
C435 C434 1.402 . S
C435 C436 1.375 . S
C435 C438 1.481 . S
C436 C435 1.375 . S
C436 C437 1.367 . S
C436 H450 0.951 . S
C437 C433 1.383 . S
C437 C436 1.367 . S
C437 H451 0.950 . S
C438 C435 1.481 . S
C438 C439 1.297 . S
C438 H452 0.950 . S
C439 C438 1.297 . S
C439 C440 1.479 . S
C439 H453 0.950 . S
C440 C439 1.479 . S
C440 C441 1.375 . S
C440 C446 1.404 . S
C441 C440 1.375 . S
C441 C442 1.369 . S
C441 H454 0.950 . S
C442 C441 1.369 . S
C442 C443 1.392 . S
C442 H455 0.951 . S
C443 C442 1.392 . S
C443 C445 1.384 . S
H444 C446 0.949 . S
C445 C443 1.384 . S
C445 C446 1.385 . S
C445 H447 0.950 . S
C446 C440 1.404 . S
C446 H444 0.949 . S
C446 C445 1.385 . S
H447 C445 0.950 . S
H448 C432 0.951 . S
H449 C434 0.951 . S
H450 C436 0.951 . S
H451 C437 0.950 . S
H452 C438 0.950 . S
H453 C439 0.950 . S
H454 C441 0.950 . S
H455 C442 0.951 . S
C456 C457 1.386 . S
C456 C458 1.383 . S
C456 H472 0.951 . S
C457 C456 1.386 . S
C457 C461 1.383 . S
C458 C456 1.383 . S
C458 C459 1.402 . S
C458 H473 0.951 . S
C459 C458 1.402 . S
C459 C460 1.375 . S
C459 C462 1.481 . S
C460 C459 1.375 . S
C460 C461 1.367 . S
C460 H474 0.951 . S
C461 C457 1.383 . S
C461 C460 1.367 . S
C461 H475 0.950 . S
C462 C459 1.481 . S
C462 C463 1.297 . S
C462 H476 0.950 . S
C463 C462 1.297 . S
C463 C464 1.479 . S
C463 H477 0.950 . S
C464 C463 1.479 . S
C464 C465 1.375 . S
C464 C470 1.404 . S
C465 C464 1.375 . S
C465 C466 1.369 . S
C465 H478 0.950 . S
C466 C465 1.369 . S
C466 C467 1.392 . S
C466 H479 0.951 . S
C467 C466 1.392 . S
C467 C469 1.384 . S
H468 C470 0.949 . S
C469 C467 1.384 . S
C469 C470 1.385 . S
C469 H471 0.950 . S
C470 C464 1.404 . S
C470 H468 0.949 . S
C470 C469 1.385 . S
H471 C469 0.950 . S
H472 C456 0.951 . S
H473 C458 0.951 . S
H474 C460 0.951 . S
H475 C461 0.950 . S
H476 C462 0.950 . S
H477 C463 0.950 . S
H478 C465 0.950 . S
H479 C466 0.951 . S
C480 C481 1.386 . S
C480 C482 1.383 . S
C480 H496 0.951 . S
C481 C480 1.386 . S
C481 C485 1.383 . S
C482 C480 1.383 . S
C482 C483 1.402 . S
C482 H497 0.951 . S
C483 C482 1.402 . S
C483 C484 1.375 . S
C483 C486 1.481 . S
C484 C483 1.375 . S
C484 C485 1.367 . S
C484 H498 0.951 . S
C485 C481 1.383 . S
C485 C484 1.367 . S
C485 H499 0.950 . S
C486 C483 1.481 . S
C486 C487 1.297 . S
C486 H500 0.950 . S
C487 C486 1.297 . S
C487 C488 1.479 . S
C487 H501 0.950 . S
C488 C487 1.479 . S
C488 C489 1.375 . S
C488 C494 1.404 . S
C489 C488 1.375 . S
C489 C490 1.369 . S
C489 H502 0.950 . S
C490 C489 1.369 . S
C490 C491 1.392 . S
C490 H503 0.951 . S
C491 C490 1.392 . S
C491 C493 1.384 . S
H492 C494 0.949 . S
C493 C491 1.384 . S
C493 C494 1.385 . S
C493 H495 0.950 . S
C494 C488 1.404 . S
C494 H492 0.949 . S
C494 C493 1.385 . S
H495 C493 0.950 . S
H496 C480 0.951 . S
H497 C482 0.951 . S
H498 C484 0.951 . S
H499 C485 0.950 . S
H500 C486 0.950 . S
H501 C487 0.950 . S
H502 C489 0.950 . S
H503 C490 0.951 . S
C504 C505 1.386 . S
C504 C506 1.383 . S
C504 H520 0.951 . S
C505 C504 1.386 . S
C505 C509 1.383 . S
C506 C504 1.383 . S
C506 C507 1.402 . S
C506 H521 0.951 . S
C507 C506 1.402 . S
C507 C508 1.375 . S
C507 C510 1.481 . S
C508 C507 1.375 . S
C508 C509 1.367 . S
C508 H522 0.951 . S
C509 C505 1.383 . S
C509 C508 1.367 . S
C509 H523 0.950 . S
C510 C507 1.481 . S
C510 C511 1.297 . S
C510 H524 0.950 . S
C511 C510 1.297 . S
C511 C512 1.479 . S
C511 H525 0.950 . S
C512 C511 1.479 . S
C512 C513 1.375 . S
C512 C518 1.404 . S
C513 C512 1.375 . S
C513 C514 1.369 . S
C513 H526 0.950 . S
C514 C513 1.369 . S
C514 C515 1.392 . S
C514 H527 0.951 . S
C515 C514 1.392 . S
C515 C517 1.384 . S
H516 C518 0.949 . S
C517 C515 1.384 . S
C517 C518 1.385 . S
C517 H519 0.950 . S
C518 C512 1.404 . S
C518 H516 0.949 . S
C518 C517 1.385 . S
H519 C517 0.950 . S
H520 C504 0.951 . S
H521 C506 0.951 . S
H522 C508 0.951 . S
H523 C509 0.950 . S
H524 C510 0.950 . S
H525 C511 0.950 . S
H526 C513 0.950 . S
H527 C514 0.951 . S
C528 C529 1.386 . S
C528 C530 1.383 . S
C528 H544 0.951 . S
C529 C528 1.386 . S
C529 C533 1.383 . S
C530 C528 1.383 . S
C530 C531 1.402 . S
C530 H545 0.951 . S
C531 C530 1.402 . S
C531 C532 1.375 . S
C531 C534 1.481 . S
C532 C531 1.375 . S
C532 C533 1.367 . S
C532 H546 0.951 . S
C533 C529 1.383 . S
C533 C532 1.367 . S
C533 H547 0.950 . S
C534 C531 1.481 . S
C534 C535 1.297 . S
C534 H548 0.950 . S
C535 C534 1.297 . S
C535 C536 1.479 . S
C535 H549 0.950 . S
C536 C535 1.479 . S
C536 C537 1.375 1_655 S
C536 C542 1.404 . S
C537 C536 1.375 1_455 S
C537 C538 1.369 . S
C537 H550 0.950 . S
C538 C537 1.369 . S
C538 C539 1.392 . S
C538 H551 0.951 . S
C539 C538 1.392 . S
C539 C541 1.384 1_455 S
H540 C542 0.949 . S
C541 C539 1.384 1_655 S
C541 C542 1.385 . S
C541 H543 0.950 . S
C542 C536 1.404 . S
C542 H540 0.949 . S
C542 C541 1.385 . S
H543 C541 0.950 . S
H544 C528 0.951 . S
H545 C530 0.951 . S
H546 C532 0.951 . S
H547 C533 0.950 . S
H548 C534 0.950 . S
H549 C535 0.950 . S
H550 C537 0.950 . S
H551 C538 0.951 . S
C552 C553 1.386 . S
C552 C554 1.383 . S
C552 H568 0.951 . S
C553 C552 1.386 . S
C553 C557 1.383 . S
C554 C552 1.383 . S
C554 C555 1.402 . S
C554 H569 0.951 . S
C555 C554 1.402 . S
C555 C556 1.375 . S
C555 C558 1.481 . S
C556 C555 1.375 . S
C556 C557 1.367 . S
C556 H570 0.951 . S
C557 C553 1.383 . S
C557 C556 1.367 . S
C557 H571 0.950 . S
C558 C555 1.481 . S
C558 C559 1.297 . S
C558 H572 0.950 . S
C559 C558 1.297 . S
C559 C560 1.479 . S
C559 H573 0.950 . S
C560 C559 1.479 . S
C560 C561 1.375 1_655 S
C560 C566 1.404 . S
C561 C560 1.375 1_455 S
C561 C562 1.369 . S
C561 H574 0.950 . S
C562 C561 1.369 . S
C562 C563 1.392 . S
C562 H575 0.951 . S
C563 C562 1.392 . S
C563 C565 1.384 1_455 S
H564 C566 0.949 . S
C565 C563 1.384 1_655 S
C565 C566 1.385 . S
C565 H567 0.950 . S
C566 C560 1.404 . S
C566 H564 0.949 . S
C566 C565 1.385 . S
H567 C565 0.950 . S
H568 C552 0.951 . S
H569 C554 0.951 . S
H570 C556 0.951 . S
H571 C557 0.950 . S
H572 C558 0.950 . S
H573 C559 0.950 . S
H574 C561 0.950 . S
H575 C562 0.951 . S
C576 C577 1.386 . S
C576 C578 1.383 . S
C576 H592 0.951 . S
C577 C576 1.386 . S
C577 C581 1.383 1_655 S
C578 C576 1.383 . S
C578 C579 1.402 1_655 S
C578 H593 0.951 . S
C579 C578 1.402 1_455 S
C579 C580 1.375 . S
C579 C582 1.481 . S
C580 C579 1.375 . S
C580 C581 1.367 . S
C580 H594 0.951 . S
C581 C577 1.383 1_455 S
C581 C580 1.367 . S
C581 H595 0.950 . S
C582 C579 1.481 . S
C582 C583 1.297 . S
C582 H596 0.950 . S
C583 C582 1.297 . S
C583 C584 1.479 . S
C583 H597 0.950 . S
C584 C583 1.479 . S
C584 C585 1.375 . S
C584 C590 1.404 . S
C585 C584 1.375 . S
C585 C586 1.369 . S
C585 H598 0.950 . S
C586 C585 1.369 . S
C586 C587 1.392 . S
C586 H599 0.951 . S
C587 C586 1.392 . S
C587 C589 1.384 . S
H588 C590 0.949 . S
C589 C587 1.384 . S
C589 C590 1.385 . S
C589 H591 0.950 . S
C590 C584 1.404 . S
C590 H588 0.949 . S
C590 C589 1.385 . S
H591 C589 0.950 . S
H592 C576 0.951 . S
H593 C578 0.951 . S
H594 C580 0.951 . S
H595 C581 0.950 . S
H596 C582 0.950 . S
H597 C583 0.950 . S
H598 C585 0.950 . S
H599 C586 0.951 . S
C600 C601 1.386 . S
C600 C602 1.383 . S
C600 H616 0.951 . S
C601 C600 1.386 . S
C601 C605 1.383 . S
C602 C600 1.383 . S
C602 C603 1.402 . S
C602 H617 0.951 . S
C603 C602 1.402 . S
C603 C604 1.375 . S
C603 C606 1.481 . S
C604 C603 1.375 . S
C604 C605 1.367 . S
C604 H618 0.951 1_455 S
C605 C601 1.383 . S
C605 C604 1.367 . S
C605 H619 0.950 . S
C606 C603 1.481 . S
C606 C607 1.297 . S
C606 H620 0.950 . S
C607 C606 1.297 . S
C607 C608 1.479 . S
C607 H621 0.950 . S
C608 C607 1.479 . S
C608 C609 1.375 . S
C608 C614 1.404 1_455 S
C609 C608 1.375 . S
C609 C610 1.369 . S
C609 H622 0.950 . S
C610 C609 1.369 . S
C610 C611 1.392 1_455 S
C610 H623 0.951 . S
C611 C610 1.392 1_655 S
C611 C613 1.384 . S
H612 C614 0.949 . S
C613 C611 1.384 . S
C613 C614 1.385 . S
C613 H615 0.950 . S
C614 C608 1.404 1_655 S
C614 H612 0.949 . S
C614 C613 1.385 . S
H615 C613 0.950 . S
H616 C600 0.951 . S
H617 C602 0.951 . S
H618 C604 0.951 1_655 S
H619 C605 0.950 . S
H620 C606 0.950 . S
H621 C607 0.950 . S
H622 C609 0.950 . S
H623 C610 0.951 . S
C337 C147 1.497 1_554 S
C347 C74 1.447 . S
C361 C242 1.492 . S
C371 C315 1.529 . S
C385 C63 1.498 . S
C395 C158 1.472 . S
C409 C326 1.504 . S
C419 C231 1.444 . S
C433 C310 1.129 . S
C443 C56 1.182 . S
C457 C142 1.196 . S
C467 C224 1.064 . S
C481 C151 1.184 . S
C491 C238 1.121 . S
C505 C319 1.191 . S
C515 C70 1.140 . S
C529 C140 1.103 . S
C539 C226 1.220 . S
C553 C308 1.127 . S
C563 C58 1.182 . S
C577 C322 1.197 . S
C587 C67 1.166 . S
C601 C235 1.152 . S
C611 C154 1.220 . S
