# Generated by pormake.
# Topology wiu, (6)-cn, num edge types: 1
# Building blocks:
#     Node 0, Type 0, BuildingBlock: JUFBIX_clean_sbu_0, # of connection points: 6
#     Node 1, Type 0, BuildingBlock: JUFBIX_clean_sbu_0, # of connection points: 6
#     Node 2, Type 0, BuildingBlock: JUFBIX_clean_sbu_0, # of connection points: 6
#     Node 3, Type 0, BuildingBlock: JUFBIX_clean_sbu_0, # of connection points: 6
#     Node 4, Type 0, BuildingBlock: JUFBIX_clean_sbu_0, # of connection points: 6
#     Node 5, Type 0, BuildingBlock: JUFBIX_clean_sbu_0, # of connection points: 6
#     Node 6, Type 0, BuildingBlock: JUFBIX_clean_sbu_0, # of connection points: 6
#     Node 7, Type 0, BuildingBlock: JUFBIX_clean_sbu_0, # of connection points: 6
#     Node 8, Type 0, BuildingBlock: JUFBIX_clean_sbu_0, # of connection points: 6
#     Node 9, Type 0, BuildingBlock: JUFBIX_clean_sbu_0, # of connection points: 6
#     Node 10, Type 0, BuildingBlock: JUFBIX_clean_sbu_0, # of connection points: 6
#     Node 11, Type 0, BuildingBlock: JUFBIX_clean_sbu_0, # of connection points: 6
#     Node 12, Type 0, BuildingBlock: JUFBIX_clean_sbu_0, # of connection points: 6
#     Node 13, Type 0, BuildingBlock: JUFBIX_clean_sbu_0, # of connection points: 6
#     Node 14, Type 0, BuildingBlock: JUFBIX_clean_sbu_0, # of connection points: 6
#     Node 15, Type 0, BuildingBlock: JUFBIX_clean_sbu_0, # of connection points: 6
#     Edge 16, Type (0, 0), BuildingBlock: OJICUG_clean_linker_0, # of connection points: 2
#     Edge 17, Type (0, 0), BuildingBlock: OJICUG_clean_linker_0, # of connection points: 2
#     Edge 18, Type (0, 0), BuildingBlock: OJICUG_clean_linker_0, # of connection points: 2
#     Edge 19, Type (0, 0), BuildingBlock: OJICUG_clean_linker_0, # of connection points: 2
#     Edge 20, Type (0, 0), BuildingBlock: OJICUG_clean_linker_0, # of connection points: 2
#     Edge 21, Type (0, 0), BuildingBlock: OJICUG_clean_linker_0, # of connection points: 2
#     Edge 22, Type (0, 0), BuildingBlock: OJICUG_clean_linker_0, # of connection points: 2
#     Edge 23, Type (0, 0), BuildingBlock: OJICUG_clean_linker_0, # of connection points: 2
#     Edge 24, Type (0, 0), BuildingBlock: OJICUG_clean_linker_0, # of connection points: 2
#     Edge 25, Type (0, 0), BuildingBlock: OJICUG_clean_linker_0, # of connection points: 2
#     Edge 26, Type (0, 0), BuildingBlock: OJICUG_clean_linker_0, # of connection points: 2
#     Edge 27, Type (0, 0), BuildingBlock: OJICUG_clean_linker_0, # of connection points: 2
#     Edge 28, Type (0, 0), BuildingBlock: OJICUG_clean_linker_0, # of connection points: 2
#     Edge 29, Type (0, 0), BuildingBlock: OJICUG_clean_linker_0, # of connection points: 2
#     Edge 30, Type (0, 0), BuildingBlock: OJICUG_clean_linker_0, # of connection points: 2
#     Edge 31, Type (0, 0), BuildingBlock: OJICUG_clean_linker_0, # of connection points: 2
#     Edge 32, Type (0, 0), BuildingBlock: OJICUG_clean_linker_0, # of connection points: 2
#     Edge 33, Type (0, 0), BuildingBlock: OJICUG_clean_linker_0, # of connection points: 2
#     Edge 34, Type (0, 0), BuildingBlock: OJICUG_clean_linker_0, # of connection points: 2
#     Edge 35, Type (0, 0), BuildingBlock: OJICUG_clean_linker_0, # of connection points: 2
#     Edge 36, Type (0, 0), BuildingBlock: OJICUG_clean_linker_0, # of connection points: 2
#     Edge 37, Type (0, 0), BuildingBlock: OJICUG_clean_linker_0, # of connection points: 2
#     Edge 38, Type (0, 0), BuildingBlock: OJICUG_clean_linker_0, # of connection points: 2
#     Edge 39, Type (0, 0), BuildingBlock: OJICUG_clean_linker_0, # of connection points: 2
#     Edge 40, Type (0, 0), BuildingBlock: OJICUG_clean_linker_0, # of connection points: 2
#     Edge 41, Type (0, 0), BuildingBlock: OJICUG_clean_linker_0, # of connection points: 2
#     Edge 42, Type (0, 0), BuildingBlock: OJICUG_clean_linker_0, # of connection points: 2
#     Edge 43, Type (0, 0), BuildingBlock: OJICUG_clean_linker_0, # of connection points: 2
#     Edge 44, Type (0, 0), BuildingBlock: OJICUG_clean_linker_0, # of connection points: 2
#     Edge 45, Type (0, 0), BuildingBlock: OJICUG_clean_linker_0, # of connection points: 2
#     Edge 46, Type (0, 0), BuildingBlock: OJICUG_clean_linker_0, # of connection points: 2
#     Edge 47, Type (0, 0), BuildingBlock: OJICUG_clean_linker_0, # of connection points: 2
#     Edge 48, Type (0, 0), BuildingBlock: OJICUG_clean_linker_0, # of connection points: 2
#     Edge 49, Type (0, 0), BuildingBlock: OJICUG_clean_linker_0, # of connection points: 2
#     Edge 50, Type (0, 0), BuildingBlock: OJICUG_clean_linker_0, # of connection points: 2
#     Edge 51, Type (0, 0), BuildingBlock: OJICUG_clean_linker_0, # of connection points: 2
#     Edge 52, Type (0, 0), BuildingBlock: OJICUG_clean_linker_0, # of connection points: 2
#     Edge 53, Type (0, 0), BuildingBlock: OJICUG_clean_linker_0, # of connection points: 2
#     Edge 54, Type (0, 0), BuildingBlock: OJICUG_clean_linker_0, # of connection points: 2
#     Edge 55, Type (0, 0), BuildingBlock: OJICUG_clean_linker_0, # of connection points: 2
#     Edge 56, Type (0, 0), BuildingBlock: OJICUG_clean_linker_0, # of connection points: 2
#     Edge 57, Type (0, 0), BuildingBlock: OJICUG_clean_linker_0, # of connection points: 2
#     Edge 58, Type (0, 0), BuildingBlock: OJICUG_clean_linker_0, # of connection points: 2
#     Edge 59, Type (0, 0), BuildingBlock: OJICUG_clean_linker_0, # of connection points: 2
#     Edge 60, Type (0, 0), BuildingBlock: OJICUG_clean_linker_0, # of connection points: 2
#     Edge 61, Type (0, 0), BuildingBlock: OJICUG_clean_linker_0, # of connection points: 2
#     Edge 62, Type (0, 0), BuildingBlock: OJICUG_clean_linker_0, # of connection points: 2
#     Edge 63, Type (0, 0), BuildingBlock: OJICUG_clean_linker_0, # of connection points: 2
# Relax obj value: 0.402
# Max RMSD: 0.267
# Mean RMSD: 0.253
data_MOF--net-wiu--node1-JUFBIX_clean_sbu_0--edge1-OJICUG_clean_linker_0
_symmetry_space_group_name_H-M    P1
_symmetry_Int_Tables_number       1
_symmetry_cell_setting            triclinic
loop_
_symmetry_equiv_pos_as_xyz
'x, y, z'
_cell_length_a     20.473784
_cell_length_b     21.044915
_cell_length_c     51.211771
_cell_angle_alpha  98.567976
_cell_angle_beta   80.88482
_cell_angle_gamma 97.510147
loop_
_atom_site_label
_atom_site_type_symbol
_atom_site_fract_x
_atom_site_fract_y
_atom_site_fract_z
_atom_type_partial_charge
Co0 Co 0.32531 0.18211 0.08046 0.0
C1 C 0.26652 0.1117 0.12362 0.0
Co2 Co 0.38856 0.17803 0.1108 0.0
C3 C 0.27582 0.19536 0.03207 0.0
C4 C 0.19839 0.18628 0.06508 0.0
N5 N 0.26425 0.18295 0.05757 0.0
N6 N 0.22019 0.20783 1.02366 0.0
C7 C 0.17117 0.20153 0.04427 0.0
H8 H 0.32488 0.19974 1.02052 0.0
H9 H 0.17249 0.18216 0.08498 0.0
C10 C 0.44192 0.24729 0.06838 0.0
N11 N 0.44921 0.17966 0.13388 0.0
C12 C 0.43655 0.17605 0.16024 0.0
C13 C 0.51607 0.18332 0.12788 0.0
N14 N 0.49271 0.17678 0.17098 0.0
C15 C 0.54296 0.18175 0.15065 0.0
C16 C 0.41623 0.08801 0.06579 0.0
O17 O 0.38578 0.23639 0.06068 0.0
O18 O 0.45138 0.22815 0.08966 0.0
O19 O 0.42412 0.10348 0.09017 0.0
O20 O 0.36781 0.10953 0.05785 0.0
O21 O 0.32208 0.1274 0.13226 0.0
H22 H 0.54358 0.18571 0.10813 0.0
H23 H 0.38678 0.17062 0.1711 0.0
O24 O 0.26086 0.12592 0.10085 0.0
O25 O 0.29073 0.25806 0.10211 0.0
O26 O 0.35783 0.25425 0.13094 0.0
C27 C 0.3153 0.28312 0.12317 0.0
H28 H 0.11982 0.20928 0.04455 0.0
H29 H 0.59538 0.18309 0.15193 0.0
Co30 Co 0.64781 0.58388 0.32025 0.0
C31 C 0.72632 0.55631 0.35677 0.0
Co32 Co 0.6617 0.6611 0.35347 0.0
C33 C 0.65102 0.52618 0.26569 0.0
C34 C 0.62397 0.45548 0.29262 0.0
N35 N 0.64149 0.5192 0.29182 0.0
N36 N 0.64017 0.46937 0.25001 0.0
C37 C 0.62315 0.42471 0.26698 0.0
H38 H 0.66646 0.57222 0.25837 0.0
H39 H 0.61229 0.43291 0.31069 0.0
C40 C 0.58325 0.6838 0.31792 0.0
N41 N 0.66729 0.72474 0.38205 0.0
C42 C 0.66894 0.71148 0.40676 0.0
C43 C 0.67803 0.78987 0.38379 0.0
N44 N 0.68181 0.76488 0.42373 0.0
C45 C 0.68734 0.81492 0.40968 0.0
C46 C 0.74728 0.68987 0.30902 0.0
O47 O 0.59203 0.62778 0.30649 0.0
O48 O 0.60688 0.7064 0.33931 0.0
O49 O 0.73481 0.70595 0.33401 0.0
O50 O 0.72262 0.6336 0.2993 0.0
O51 O 0.71742 0.61349 0.36735 0.0
H52 H 0.6824 0.81693 0.36709 0.0
H53 H 0.66436 0.66296 0.41203 0.0
O54 O 0.70478 0.53545 0.33472 0.0
O55 O 0.57006 0.54134 0.34104 0.0
O56 O 0.58597 0.6195 0.3734 0.0
C57 C 0.5515 0.56872 0.36454 0.0
H58 H 0.61062 0.37345 0.26139 0.0
H59 H 0.70109 0.865 0.41712 0.0
Co60 Co 0.29442 0.87453 0.59193 0.0
C61 C 0.18563 0.86233 0.56936 0.0
Co62 Co 0.26809 0.97224 0.5872 0.0
C63 C 0.31728 0.7732 0.62234 0.0
C64 C 0.33603 0.74611 0.58012 0.0
N65 N 0.32056 0.79641 0.5987 0.0
N66 N 0.32884 0.71031 0.61913 0.0
C67 C 0.34131 0.69366 0.5925 0.0
H68 H 0.30338 0.8008 0.64154 0.0
H69 H 0.34016 0.74633 0.55882 0.0
C70 C 0.38075 0.98456 0.61034 0.0
N71 N 0.22859 1.04327 0.57835 0.0
C72 C 0.19759 1.0363 0.5561 0.0
C73 C 0.19556 0.08749 0.59536 0.0
N74 N 0.14397 0.07017 0.55913 0.0
C75 C 0.14435 0.10395 0.58375 0.0
C76 C 0.2147 0.93333 0.63599 0.0
O77 O 0.36717 0.92316 0.60676 0.0
O78 O 0.34455 1.0208 0.60192 0.0
O79 O 0.2186 0.97937 0.62208 0.0
O80 O 0.24294 0.88309 0.62615 0.0
O81 O 0.19676 0.92272 0.57385 0.0
H82 H 0.20187 0.10026 0.61614 0.0
H83 H 0.20883 0.99991 0.53926 0.0
O84 O 0.22247 0.82733 0.5771 0.0
O85 O 0.3438 0.86767 0.55695 0.0
O86 O 0.31714 0.96325 0.55275 0.0
C87 C 0.3434 0.91208 0.54258 0.0
H88 H 0.35236 0.64643 0.58252 0.0
H89 H 0.10614 0.13333 0.59402 0.0
Co90 Co 0.90645 0.50824 0.83543 0.0
C91 C 0.81092 0.56727 0.87339 0.0
Co92 Co 0.85807 0.44718 0.86563 0.0
C93 C 0.95395 0.55106 0.78438 0.0
C94 C 0.96894 0.6252 0.81699 0.0
N95 N 0.94436 0.56284 0.81115 0.0
N96 N 0.9834 0.60369 0.77328 0.0
C97 C 0.99312 0.65042 0.79372 0.0
H98 H 0.93881 0.50503 0.77326 0.0
H99 H 0.96792 0.65116 0.83692 0.0
C100 C 0.95195 0.39341 0.82751 0.0
N101 N 0.82429 0.39471 0.89185 0.0
C102 C 0.82477 0.41608 0.91798 0.0
C103 C 0.81919 0.32973 0.89022 0.0
N104 N 0.82458 0.36783 0.93264 0.0
C105 C 0.81936 0.31306 0.9153 0.0
C106 C 0.80396 0.41396 0.81829 0.0
O107 O 0.96429 0.44834 0.81963 0.0
O108 O 0.9102 0.38441 0.84803 0.0
O109 O 0.79201 0.40692 0.8431 0.0
O110 O 0.84443 0.46259 0.81158 0.0
O111 O 0.8049 0.51484 0.88365 0.0
H112 H 0.82271 0.29709 0.87174 0.0
H113 H 0.8317 0.4669 0.92554 0.0
O114 O 0.84772 0.57098 0.85116 0.0
O115 O 0.97065 0.54821 0.85851 0.0
O116 O 0.92717 0.48182 0.88681 0.0
C117 C 0.97218 0.52576 0.88006 0.0
H118 H 1.01314 0.70005 0.79193 0.0
H119 H 0.82162 0.26483 0.9198 0.0
Co120 Co 0.67925 0.92332 0.94497 0.0
C121 C 0.62568 0.85248 0.9867 0.0
Co122 Co 0.74311 0.91683 0.97475 0.0
C123 C 0.63107 0.93617 0.89691 0.0
C124 C 0.55095 0.92263 0.92855 0.0
N125 N 0.61794 0.92556 0.92252 0.0
N126 N 0.5754 0.94091 0.88683 0.0
C127 C 0.52452 0.9317 0.90645 0.0
H128 H 0.68068 0.94164 0.88588 0.0
H129 H 0.52317 0.91676 0.94801 0.0
C130 C 0.80231 0.98884 0.9322 0.0
N131 N 0.80454 0.91325 0.99712 0.0
C132 C 0.7935 0.89926 1.02239 0.0
C133 C 0.87032 0.91007 0.98929 0.0
N134 N 0.84943 0.88614 0.03037 0.0
C135 C 0.89805 0.89353 1.0097 0.0
C136 C 0.75095 0.81738 0.93116 0.0
O137 O 0.74647 0.97397 0.92375 0.0
O138 O 0.8081 0.97389 0.95484 0.0
O139 O 0.77645 0.84159 0.9521 0.0
O140 O 0.70803 0.84691 0.92393 0.0
O141 O 0.68225 0.86164 0.99404 0.0
H142 H 0.89587 0.91549 0.96944 0.0
H143 H 0.74464 0.89457 0.03408 0.0
O144 O 0.61595 0.87327 0.96581 0.0
O145 O 0.64584 0.99778 0.96636 0.0
O146 O 0.70171 0.98872 0.9984 0.0
C147 C 0.6536 1.01151 0.99079 0.0
H148 H 0.47265 0.93441 0.90525 0.0
H149 H 0.94957 0.88596 1.00912 0.0
Co150 Co 0.41156 0.43021 0.69842 0.0
C151 C 0.48366 0.40699 0.73636 0.0
Co152 Co 0.42346 0.50838 0.73167 0.0
C153 C 0.37059 0.3601 0.65024 0.0
C154 C 0.45246 0.3209 0.66071 0.0
N155 N 0.40861 0.36458 0.66978 0.0
N156 N 0.39054 0.31803 0.62885 0.0
C157 C 0.4416 0.29238 0.63553 0.0
H158 H 0.33328 0.39203 0.65038 0.0
H159 H 0.49347 0.31419 0.67062 0.0
C160 C 0.35065 0.53674 0.69342 0.0
N161 N 0.42805 0.57354 0.76006 0.0
C162 C 0.41734 0.56704 0.78625 0.0
C163 C 0.4456 0.63722 0.75914 0.0
N164 N 0.42754 0.6241 0.80185 0.0
C165 C 0.44529 0.66843 0.78477 0.0
C166 C 0.52372 0.52149 0.68856 0.0
O167 O 0.36127 0.47999 0.68273 0.0
O168 O 0.36858 0.55684 0.71618 0.0
O169 O 0.50266 0.5501 0.71157 0.0
O170 O 0.49065 0.46973 0.67962 0.0
O171 O 0.47728 0.46434 0.74668 0.0
H172 H 0.45825 0.65944 0.741 0.0
H173 H 0.40171 0.52113 0.79366 0.0
O174 O 0.46127 0.38396 0.71478 0.0
O175 O 0.33472 0.38748 0.71695 0.0
O176 O 0.34685 0.45958 0.75183 0.0
C177 C 0.32138 0.4038 0.74195 0.0
H178 H 0.47244 0.25945 0.62241 0.0
H179 H 0.45777 0.71974 0.79026 0.0
Co180 Co 0.80059 0.12689 0.46727 0.0
C181 C 0.68742 0.11448 0.44456 0.0
Co182 Co 0.77508 0.22438 0.46197 0.0
C183 C 0.8705 0.06401 0.49899 0.0
C184 C 0.87133 1.01078 0.46013 0.0
N185 N 0.8391 0.05611 0.47681 0.0
N186 N 0.92367 1.0296 0.49618 0.0
C187 C 0.9225 0.99456 0.47183 0.0
H188 H 0.85997 0.10137 0.51551 0.0
H189 H 0.86455 0.99694 0.43945 0.0
C190 C 0.88453 0.23651 0.48417 0.0
N191 N 0.75042 0.30219 0.45434 0.0
C192 C 0.75393 0.3236 0.43033 0.0
C193 C 0.7372 0.35416 0.47237 0.0
N194 N 0.74488 0.38697 0.43276 0.0
C195 C 0.73364 0.40587 0.45927 0.0
C196 C 0.72538 0.18999 0.51149 0.0
O197 O 0.87306 0.17614 0.47987 0.0
O198 O 0.8474 0.2715 0.4766 0.0
O199 O 0.7253 0.23348 0.49668 0.0
O200 O 0.75219 0.13872 0.50192 0.0
O201 O 0.70203 0.1758 0.4474 0.0
H202 H 0.73379 0.35554 0.49373 0.0
H203 H 0.76649 0.29432 0.4114 0.0
O204 O 0.72312 0.07844 0.45333 0.0
O205 O 0.84919 0.11708 0.43213 0.0
O206 O 0.82665 0.21384 0.4279 0.0
C207 C 0.85368 0.16295 0.41808 0.0
H208 H 0.96013 0.96431 0.46175 0.0
H209 H 0.72478 0.45415 0.46866 0.0
Co210 Co 0.20924 0.65426 0.18738 0.0
C211 C 0.11586 0.70794 0.22577 0.0
Co212 Co 0.1616 0.59333 0.21772 0.0
C213 C 0.24218 0.68455 0.13491 0.0
C214 C 0.24741 0.77135 0.16242 0.0
N215 N 0.24239 0.70643 0.16101 0.0
N216 N 0.24268 0.73243 0.12003 0.0
C217 C 0.24762 0.78749 0.13723 0.0
H218 H 0.23543 0.63363 0.12751 0.0
H219 H 0.2438 0.80432 0.18081 0.0
C220 C 0.25651 0.53434 0.17968 0.0
N221 N 0.12443 0.5389 0.24217 0.0
C222 C 0.11677 0.55057 0.26895 0.0
C223 C 0.09904 0.47673 0.23652 0.0
N224 N 0.08772 0.49806 0.2802 0.0
C225 C 0.07624 0.45152 0.2599 0.0
C226 C 0.09507 0.57518 0.17328 0.0
O227 O 0.26216 0.58651 0.16926 0.0
O228 O 0.22023 0.53091 0.20201 0.0
O229 O 0.09705 0.55283 0.19481 0.0
O230 O 0.13968 0.61942 0.16648 0.0
O231 O 0.10379 0.65294 0.23358 0.0
H232 H 0.09866 0.4508 0.21664 0.0
H233 H 0.13304 0.59638 0.27995 0.0
O234 O 0.15728 0.71714 0.20516 0.0
O235 O 0.27595 0.69468 0.20959 0.0
O236 O 0.22406 0.63944 0.24132 0.0
C237 C 0.26463 0.6878 0.23441 0.0
H238 H 0.2456 0.83557 0.13252 0.0
H239 H 0.05599 0.402 0.26182 0.0
Co240 Co 0.82725 0.68274 0.58018 0.0
C241 C 0.76858 0.6102 0.6225 0.0
Co242 Co 0.89103 0.67717 0.61008 0.0
C243 C 0.77746 0.69931 0.53235 0.0
C244 C 0.7002 0.68873 0.56531 0.0
N245 N 0.76605 0.68564 0.55766 0.0
N246 N 0.72171 0.7122 0.52416 0.0
C247 C 0.6728 0.70495 0.54474 0.0
H248 H 0.82647 0.70399 0.52077 0.0
H249 H 0.67439 0.68349 0.58513 0.0
C250 C 0.94423 0.74801 0.56835 0.0
N251 N 0.95225 0.67553 0.63263 0.0
C252 C 0.93904 0.66403 0.65813 0.0
C253 C 1.01932 0.67931 0.62672 0.0
N254 N 0.99472 0.65949 0.66823 0.0
C255 C 0.04569 0.66983 0.64877 0.0
C256 C 0.91733 0.5885 0.56445 0.0
O257 O 0.8877 0.73827 0.56098 0.0
O258 O 0.95419 0.72748 0.58926 0.0
O259 O 0.92508 0.60282 0.58886 0.0
O260 O 0.86938 0.61113 0.55667 0.0
O261 O 0.82398 0.6261 0.63121 0.0
H262 H 0.04721 0.6859 0.60735 0.0
H263 H 0.88937 0.65762 0.66904 0.0
O264 O 0.7628 0.62518 0.59988 0.0
O265 O 0.79299 0.75775 0.60277 0.0
O266 O 0.86153 0.75344 0.63102 0.0
C267 C 0.81827 0.78242 0.62372 0.0
H268 H 0.62131 0.71243 0.54516 0.0
H269 H 0.09761 0.66752 0.65002 0.0
Co270 Co 0.14182 0.08524 0.8191 0.0
C271 C 0.22147 0.0551 0.85465 0.0
Co272 Co 0.15817 0.16167 0.85238 0.0
C273 C 0.14423 1.02748 0.76446 0.0
C274 C 0.11502 0.95737 0.79156 0.0
N275 N 0.13336 1.02096 0.79065 0.0
N276 N 0.13371 0.97046 0.74889 0.0
C277 C 0.11525 0.92617 0.76594 0.0
H278 H 0.16113 0.07315 0.757 0.0
H279 H 0.10281 0.93504 0.80968 0.0
C280 C 0.07959 0.18781 0.81763 0.0
N281 N 0.16621 0.22422 0.88125 0.0
C282 C 0.1693 0.20946 0.90561 0.0
C283 C 0.17655 0.28945 0.88364 0.0
N284 N 0.18264 0.26197 0.92297 0.0
C285 C 0.18687 0.31303 0.90957 0.0
C286 C 0.24273 0.18966 0.80739 0.0
O287 O 0.08688 0.13165 0.80587 0.0
O288 O 0.10353 0.20881 0.83909 0.0
O289 O 0.23112 0.20613 0.83241 0.0
O290 O 0.21711 0.13359 0.7979 0.0
O291 O 0.2141 0.11247 0.86532 0.0
H292 H 0.17945 0.31763 0.86738 0.0
H293 H 0.16461 0.16052 0.91042 0.0
O294 O 0.19804 1.0347 0.83296 0.0
O295 O 0.0638 1.04384 0.84011 0.0
O296 O 0.08239 0.12035 0.87275 0.0
C297 C 0.04661 0.07049 0.86385 0.0
H298 H 0.10299 0.87484 0.76039 0.0
H299 H 0.19996 0.3629 0.91749 0.0
Co300 Co 0.79225 0.37277 0.09288 0.0
C301 C 0.68344 0.36025 0.0702 0.0
Co302 Co 0.76617 0.47015 0.08764 0.0
C303 C 0.81439 0.27341 0.12435 0.0
C304 C 0.83114 0.24337 0.08228 0.0
N305 N 0.81742 0.29503 0.1004 0.0
N306 N 0.82431 0.21021 0.12179 0.0
C307 C 0.83554 0.19166 0.09525 0.0
H308 H 0.80166 0.30242 0.14334 0.0
H309 H 0.83448 0.24222 0.06093 0.0
C310 C 0.87887 0.48315 0.11075 0.0
N311 N 0.72723 0.54075 0.07807 0.0
C312 C 0.69644 0.53307 0.05572 0.0
C313 C 0.69475 0.58606 0.09465 0.0
N314 N 0.64357 0.56779 0.05829 0.0
C315 C 0.64416 0.60263 0.0827 0.0
C316 C 0.71254 0.43311 0.13664 0.0
O317 O 0.86478 0.42176 0.1078 0.0
O318 O 0.84301 0.51893 0.10191 0.0
O319 O 0.71689 0.47915 0.12268 0.0
O320 O 0.74009 0.38251 0.12681 0.0
O321 O 0.69448 0.42062 0.07471 0.0
H322 H 0.70103 0.59978 0.11539 0.0
H323 H 0.70729 0.49582 0.03919 0.0
O324 O 0.72045 0.3253 0.07788 0.0
O325 O 0.84263 0.36447 0.05824 0.0
O326 O 0.81521 0.45912 0.05313 0.0
C327 C 0.84241 0.40811 0.0435 0.0
H328 H 0.84505 0.14363 0.08575 0.0
H329 H 0.60652 0.63305 0.09262 0.0
Co330 Co 0.41467 1.00765 0.33416 0.0
C331 C 0.32071 0.07343 0.36893 0.0
Co332 Co 0.3603 0.94899 0.36432 0.0
C333 C 0.44522 0.079 0.28849 0.0
C334 C 0.53039 0.07001 0.30653 0.0
N335 N 0.46364 0.05539 0.30893 0.0
N336 N 0.49808 0.10736 0.27343 0.0
C337 C 0.55159 0.10203 0.28484 0.0
H338 H 0.39468 0.0727 0.28399 0.0
H339 H 0.56225 0.05626 0.3192 0.0
C340 C 0.45287 0.88822 0.32973 0.0
N341 N 0.31827 0.90098 0.39118 0.0
C342 C 0.31949 0.9232 0.41722 0.0
C343 C 0.30749 0.83615 0.39023 0.0
N344 N 0.31507 0.87522 0.43244 0.0
C345 C 0.30562 0.82018 0.41555 0.0
C346 C 0.31204 0.91652 0.31549 0.0
O347 O 0.46907 0.94254 0.32157 0.0
O348 O 0.4082 0.88156 0.34948 0.0
O349 O 0.29631 0.91104 0.3404 0.0
O350 O 0.35586 0.96295 0.30896 0.0
O351 O 0.31133 1.02129 0.37959 0.0
H352 H 0.30926 0.80252 0.37203 0.0
H353 H 0.33067 0.97389 0.42422 0.0
O354 O 0.35928 0.07545 0.3469 0.0
O355 O 0.47479 1.04728 0.35885 0.0
O356 O 0.42768 0.98141 0.38682 0.0
C357 C 0.47371 1.02499 0.38062 0.0
H358 H 0.60265 0.11858 0.2776 0.0
H359 H 0.3041 0.77168 0.42043 0.0
Co360 Co 0.18243 0.42432 0.44364 0.0
C361 C 0.12797 0.35067 0.48433 0.0
Co362 Co 0.24522 0.4168 0.4738 0.0
C363 C 0.13543 0.43852 0.39545 0.0
C364 C 0.05492 0.42429 0.42689 0.0
N365 N 0.12193 0.42723 0.42098 0.0
N366 N 0.07992 0.44357 0.38532 0.0
C367 C 1.02883 0.43394 0.40482 0.0
H368 H 0.18519 0.4442 0.38455 0.0
H369 H 1.0269 0.418 0.44627 0.0
C370 C 0.30498 0.49094 0.43205 0.0
N371 N 0.30571 0.4128 0.49687 0.0
C372 C 0.29414 0.39099 0.52087 0.0
C373 C 0.37263 0.41977 0.49075 0.0
N374 N 0.35096 0.38309 0.52971 0.0
C375 C 0.40046 0.40205 0.51088 0.0
C376 C 0.25653 0.32016 0.42921 0.0
O377 O 0.24955 0.47647 0.42327 0.0
O378 O 0.31005 0.47527 0.45464 0.0
O379 O 0.28042 0.34305 0.45068 0.0
O380 O 0.21316 0.34938 0.4221 0.0
O381 O 0.18399 0.36014 0.49215 0.0
H382 H 0.39984 0.43362 0.47222 0.0
H383 H 0.24485 0.37782 0.531 0.0
O384 O 0.1189 0.37255 0.46361 0.0
O385 O 0.14752 0.49757 0.46545 0.0
O386 O 0.20231 0.48744 0.49768 0.0
C387 C 0.15466 0.51066 0.48995 0.0
H388 H 0.977 0.43669 0.40355 0.0
H389 H 0.45314 0.40203 0.51124 0.0
Co390 Co 0.91027 0.93512 0.20089 0.0
C391 C 0.9863 0.91119 0.23709 0.0
Co392 Co 0.92317 1.01211 0.23427 0.0
C393 C 0.90499 0.88526 0.14738 0.0
C394 C 0.89311 0.80671 0.17042 0.0
N395 N 0.90538 0.87176 0.17215 0.0
N396 N 0.89137 0.83212 0.13037 0.0
C397 C 0.88404 0.782 0.14448 0.0
H398 H 0.91049 0.93387 0.14214 0.0
H399 H 0.88716 0.77959 0.18717 0.0
C400 C 0.84637 1.04039 0.19727 0.0
N401 N 0.92867 0.07651 0.26284 0.0
C402 C 0.91804 0.06943 0.28898 0.0
C403 C 0.94633 0.14025 0.26214 0.0
N404 N 0.92829 0.12621 0.30475 0.0
C405 C 0.94612 0.17094 0.28784 0.0
C406 C 1.0211 1.02759 0.19053 0.0
O407 O 0.85572 0.98334 0.18663 0.0
O408 O 0.8671 0.06103 0.21949 0.0
O409 O 1.00164 0.05478 0.21397 0.0
O410 O 0.9871 0.97671 0.18145 0.0
O411 O 0.97799 0.96748 0.24838 0.0
H412 H 0.95875 0.1629 0.24411 0.0
H413 H 0.90218 1.02337 0.29623 0.0
O414 O 0.9637 0.88907 0.21543 0.0
O415 O 0.83608 0.89042 0.21991 0.0
O416 O 0.84751 0.96251 0.25476 0.0
C417 C 0.8229 0.90639 0.24488 0.0
H418 H 0.86892 0.73221 0.13707 0.0
H419 H 0.9585 0.22219 0.2935 0.0
Co420 Co 0.30337 0.62708 0.96465 0.0
C421 C 0.19015 0.6147 0.94189 0.0
Co422 Co 0.27782 0.7245 0.95929 0.0
C423 C 0.37279 0.56423 0.99666 0.0
C424 C 0.37419 0.51085 0.95781 0.0
N425 N 0.34189 0.55637 0.97433 0.0
N426 N 0.42558 0.52941 0.99412 0.0
C427 C 0.42479 0.49433 0.96977 0.0
H428 H 0.36213 0.60169 1.01313 0.0
H429 H 0.36781 0.49694 0.93709 0.0
C430 C 0.38696 0.73666 0.98171 0.0
N431 N 0.25309 0.80218 0.95166 0.0
C432 C 0.25498 0.82299 0.92764 0.0
C433 C 0.24108 0.85453 0.96964 0.0
N434 N 0.24603 0.88638 0.93 0.0
C435 C 0.23662 0.90591 0.95649 0.0
C436 C 0.228 0.69022 1.00883 0.0
O437 O 0.37576 0.67629 0.97727 0.0
O438 O 0.35 0.77167 0.97405 0.0
O439 O 0.22787 0.73362 0.99398 0.0
O440 O 0.25491 0.639 0.99929 0.0
O441 O 0.20488 0.67598 0.94467 0.0
H442 H 0.23906 0.85634 0.99096 0.0
H443 H 0.26627 0.79326 0.90871 0.0
O444 O 0.2258 0.57865 0.95072 0.0
O445 O 0.35195 0.61717 0.92949 0.0
O446 O 0.32948 0.71396 0.92521 0.0
C447 C 0.35634 0.66295 0.91539 0.0
H448 H 0.46232 0.46375 0.95988 0.0
H449 H 0.22838 0.95439 0.96581 0.0
Co450 Co 0.70807 0.15214 0.68943 0.0
C451 C 0.61353 0.20505 0.72755 0.0
Co452 Co 0.65944 0.09033 0.71929 0.0
C453 C 0.74192 0.1835 0.63717 0.0
C454 C 0.74603 0.26988 0.66495 0.0
N455 N 0.74181 0.20494 0.66332 0.0
N456 N 0.74166 0.23159 0.62249 0.0
C457 C 0.74596 0.28641 0.63984 0.0
H458 H 0.73564 0.13265 0.6296 0.0
H459 H 0.74182 0.30249 0.68344 0.0
C460 C 0.75556 1.03198 0.68145 0.0
N461 N 0.62162 1.03556 0.74355 0.0
C462 C 0.61326 1.04722 0.77032 0.0
C463 C 0.59646 0.97335 0.73781 0.0
N464 N 0.58409 0.99467 0.78152 0.0
C465 C 0.57318 0.9481 0.76116 0.0
C466 C 0.59437 0.07332 0.67453 0.0
O467 O 0.76141 0.08454 0.67128 0.0
O468 O 0.71863 1.02796 0.70363 0.0
O469 O 0.59565 0.05009 0.69594 0.0
O470 O 0.63916 0.1178 0.66818 0.0
O471 O 0.60112 0.14973 0.73506 0.0
H472 H 0.59658 0.94745 0.7179 0.0
H473 H 0.62916 0.09309 0.78137 0.0
O474 O 0.65571 0.2148 0.70722 0.0
O475 O 0.77404 0.19212 0.71196 0.0
O476 O 0.72111 0.13633 0.74333 0.0
C477 C 0.76174 0.18497 0.73674 0.0
H478 H 0.74309 0.33449 0.63531 0.0
H479 H 0.55301 0.89854 0.76303 0.0
C480 C 0.50981 0.34325 0.05596 0.0
C481 C 0.49867 0.27604 0.05223 0.0
H482 H 0.57999 0.42364 0.06545 0.0
C483 C 0.55234 0.23884 0.04514 0.0
H484 H 0.46852 0.37234 0.06115 0.0
C485 C 0.61576 0.26726 0.04873 0.0
C486 C 0.6248 0.33309 0.05814 0.0
H487 H 0.54388 0.18666 0.04171 0.0
H488 H 0.65561 0.23696 0.04687 0.0
C489 C 0.57341 0.37209 0.05901 0.0
C490 C 0.583 0.78345 0.30027 0.0
C491 C 0.54831 0.72447 0.30642 0.0
H492 H 0.57799 0.88499 0.30351 0.0
C493 C 0.47912 0.71671 0.31186 0.0
H494 H 0.63681 0.78905 0.29584 0.0
C495 C 0.44588 0.77128 0.31676 0.0
C496 C 0.48259 0.83225 0.31584 0.0
H497 H 0.45234 0.67084 0.31643 0.0
H498 H 0.39303 0.76645 0.32408 0.0
C499 C 0.54975 0.83806 0.30499 0.0
C500 C 0.07499 0.87378 0.55873 0.0
C501 C 0.12686 0.83512 0.55743 0.0
H502 H 0.96989 0.87341 0.56153 0.0
C503 C 0.11801 0.76929 0.54797 0.0
H504 H 0.0814 0.92528 0.56529 0.0
C505 C 0.0545 0.74047 0.5448 0.0
C506 C 1.00065 0.77735 0.55224 0.0
H507 H 0.1582 0.73927 0.54582 0.0
H508 H 0.04635 0.68825 0.54138 0.0
C509 C 1.01133 0.84458 0.55603 0.0
C510 C 0.97884 0.22324 0.80847 0.0
C511 C 0.04803 0.23112 0.80595 0.0
H512 H 0.89223 0.27294 0.81747 0.0
C513 C 0.08442 0.29057 0.80135 0.0
H514 H 0.95076 0.1771 0.81183 0.0
C515 C 0.05143 0.34519 0.80468 0.0
C516 C 0.98284 0.33896 0.81276 0.0
H517 H 0.13829 0.2963 0.79913 0.0
H518 H 0.08006 0.39232 0.80474 0.0
C519 C 0.94584 0.27784 0.812 0.0
C520 C 0.51464 0.85811 1.00946 0.0
C521 C 0.56919 0.82204 1.00242 0.0
H522 H 0.41183 0.85893 1.00654 0.0
C523 C 0.55927 0.75481 0.99775 0.0
H524 H 0.52213 0.91027 1.01371 0.0
C525 C 0.49656 0.72543 0.99349 0.0
C526 C 0.44479 0.76387 0.99427 0.0
H527 H 0.6012 0.72653 0.99266 0.0
H528 H 0.49111 0.67417 0.98636 0.0
C529 C 0.45217 0.8292 1.00467 0.0
C530 C 0.51312 0.25166 0.75041 0.0
C531 C 0.58176 0.25888 0.74245 0.0
H532 H 0.4254 0.29907 0.75567 0.0
C533 C 0.61788 0.32043 0.74353 0.0
H534 H 0.48518 0.20418 0.75017 0.0
C535 C 0.58397 0.37447 0.74711 0.0
C536 C 0.5148 0.36554 0.74921 0.0
H537 H 0.67152 0.32612 0.73821 0.0
H538 H 0.6115 0.42089 0.74382 0.0
C539 C 0.47923 0.30571 0.75376 0.0
C540 C 0.05987 0.25395 0.49627 0.0
C541 C 0.07081 0.32118 0.5 0.0
H542 H 0.98907 0.17329 0.48778 0.0
C543 C 1.0172 0.35834 0.5075 0.0
H544 H 0.10118 0.22497 0.49068 0.0
C545 C 0.95342 0.32967 0.50478 0.0
C546 C 0.94403 0.26372 0.49561 0.0
H547 H 1.02561 0.41055 0.51083 0.0
H548 H 0.91332 0.35985 0.50707 0.0
C549 C 0.99588 0.2249 0.49408 0.0
C550 C 0.1218 0.8235 0.24142 0.0
C551 C 0.08525 0.7622 0.24084 0.0
H552 H 0.11561 0.92414 0.24216 0.0
C553 C 1.01711 0.75545 0.24994 0.0
H554 H 0.17518 0.8288 0.23527 0.0
C555 C 0.98353 0.80984 0.25409 0.0
C556 C 1.01894 0.86949 0.24915 0.0
H557 H 0.98892 0.70816 0.25011 0.0
H558 H 0.92963 0.80369 0.25696 0.0
C559 C 0.08822 0.87785 0.24577 0.0
C560 C 0.47889 0.06326 1.01859 0.0
C561 C 0.47428 0.06254 0.04631 0.0
H562 H 0.53806 0.05062 0.97995 0.0
C563 C 0.53171 1.04834 0.05566 0.0
H564 H 0.43722 0.07534 1.01036 0.0
C565 C 0.59077 1.03529 0.03814 0.0
C566 C 0.59542 1.03626 1.01042 0.0
H567 H 0.53158 1.04833 0.07681 0.0
H568 H 0.63247 1.02322 0.04634 0.0
C569 C 0.53797 0.05042 1.00109 0.0
C570 C 0.76521 0.73602 0.26463 0.0
C571 C 0.77217 0.74351 0.29188 0.0
H572 H 0.77297 0.7806 0.22897 0.0
C573 C 0.79192 0.80685 0.30384 0.0
H574 H 0.74857 0.68901 0.25464 0.0
C575 C 0.80447 0.8602 0.28922 0.0
C576 C 0.79761 0.85271 0.26196 0.0
H577 H 0.79685 0.81566 0.32486 0.0
H578 H 0.82113 0.90718 0.29922 0.0
C579 C 0.77781 0.78938 0.24999 0.0
C580 C 0.08276 1.00755 0.52261 0.0
C581 C 0.08958 0.06094 0.54272 0.0
H582 H 1.02573 0.95462 0.4931 0.0
C583 C 0.03955 0.1033 0.54723 0.0
H584 H 0.11874 0.97281 0.51829 0.0
C585 C 0.98523 0.09261 0.53254 0.0
C586 C 0.97829 1.0391 0.51249 0.0
H587 H 0.04223 0.14541 0.56211 0.0
H588 H 0.94932 0.12742 0.53683 0.0
C589 C 1.02838 0.99679 0.50796 0.0
C590 C 0.75692 0.29665 0.80431 0.0
C591 C 0.78836 0.35681 0.79717 0.0
H592 H 0.72547 0.19642 0.79176 0.0
C593 C 0.81428 0.3581 0.76992 0.0
H594 H 0.7374 0.29225 0.82497 0.0
C595 C 0.80866 0.30222 0.75077 0.0
C596 C 0.77722 0.24205 0.75791 0.0
H597 H 0.84008 0.40243 0.7633 0.0
H598 H 0.8282 0.30664 0.73012 0.0
C599 C 0.75127 0.24075 0.78516 0.0
C600 C 0.30194 0.35884 0.78659 0.0
C601 C 0.29526 0.35067 0.75928 0.0
H602 H 0.29354 0.31549 0.82257 0.0
C603 C 0.27477 0.28724 0.74764 0.0
H604 H 0.31907 0.40592 0.79637 0.0
C605 C 0.26131 0.23447 0.76264 0.0
C606 C 0.26818 0.24266 0.78994 0.0
H607 H 0.27003 0.27791 0.72661 0.0
H608 H 0.24419 0.18736 0.75288 0.0
C609 C 0.28865 0.3061 0.80156 0.0
C610 C 0.26277 0.79995 0.30175 0.0
C611 C 0.2954 0.85956 0.29445 0.0
H612 H 0.22924 0.70016 0.28943 0.0
C613 C 0.32117 0.8603 0.26716 0.0
H614 H 0.24333 0.79596 0.32244 0.0
C615 C 0.3141 0.80442 0.24809 0.0
C616 C 0.2815 0.7448 0.2554 0.0
H617 H 0.3478 0.9042 0.26045 0.0
H618 H 0.33349 0.80839 0.2274 0.0
C619 C 0.25585 0.74405 0.2827 0.0
C620 C 0.03995 0.55156 0.49997 0.0
C621 C 0.09657 0.5359 0.50944 0.0
H622 H 0.93975 0.57808 0.50902 0.0
C623 C 0.09102 0.53388 0.5371 0.0
H624 H 0.04079 0.55262 0.47884 0.0
C625 C 1.03186 0.54722 0.55445 0.0
C626 C 0.97525 0.5629 0.54498 0.0
H627 H 0.13205 0.52065 0.54538 0.0
H628 H 1.03103 0.54622 0.57558 0.0
C629 C 0.98076 0.56482 0.51731 0.0
C630 C 0.54044 0.60211 0.04571 0.0
C631 C 0.58967 0.55895 0.04163 0.0
H632 H 0.45136 0.62737 0.03471 0.0
C633 C 0.58257 0.50532 1.02164 0.0
H634 H 0.54332 0.64444 0.06048 0.0
C635 C 0.5288 0.49518 1.00667 0.0
C636 C 0.47955 0.53833 1.01076 0.0
H637 H 0.61791 0.46996 1.01765 0.0
H638 H 0.52592 0.45285 0.9919 0.0
C639 C 0.48668 0.59199 0.03073 0.0
C640 C 0.30653 0.36385 0.16463 0.0
C641 C 0.30008 0.34779 0.13742 0.0
H642 H 0.2982 0.4353 0.19923 0.0
C643 C 0.28468 0.39588 0.1237 0.0
H644 H 0.31899 0.32822 0.17574 0.0
C645 C 0.27544 0.45831 0.13698 0.0
C646 C 0.27996 0.47361 0.16441 0.0
H647 H 0.28051 0.38546 0.10263 0.0
H648 H 0.2619 0.49374 0.12605 0.0
C649 C 0.29553 0.4255 0.17802 0.0
C650 C 0.43226 0.51605 0.37017 0.0
C651 C 0.4887 0.54612 0.38143 0.0
H652 H 0.32933 0.47741 0.37721 0.0
C653 C 0.48285 0.56062 0.40942 0.0
H654 H 0.43462 0.50515 0.34872 0.0
C655 C 0.42289 0.5445 0.42573 0.0
C656 C 0.36617 0.51499 0.41457 0.0
H657 H 0.52509 0.58422 0.41881 0.0
H658 H 0.42103 0.55496 0.44718 0.0
C659 C 0.37157 0.50127 0.38652 0.0
C660 C 0.33917 0.69212 0.66531 0.0
C661 C 0.32514 0.66794 0.63939 0.0
H662 H 0.3573 0.66986 0.70299 0.0
C663 C 0.31003 0.60068 0.63317 0.0
H664 H 0.35085 0.74353 0.67087 0.0
C665 C 0.31318 0.55856 0.65156 0.0
C666 C 0.33153 0.58223 0.67685 0.0
H667 H 0.29711 0.58015 0.61375 0.0
H668 H 0.3041 0.50703 0.64544 0.0
C669 C 0.34247 0.64976 0.68381 0.0
C670 C 0.04037 0.51088 0.91552 0.0
C671 C 1.0273 0.54765 0.89632 0.0
H672 H 0.10297 0.50179 0.94469 0.0
C673 C 0.06908 0.60454 0.8921 0.0
H674 H 1.00938 0.46636 0.91912 0.0
C675 C 0.12164 0.62486 0.90686 0.0
C676 C 0.13503 0.58853 0.92607 0.0
H677 H 0.06093 0.63383 0.87746 0.0
H678 H 0.15233 0.66942 0.90302 0.0
C679 C 0.09421 0.53075 0.93005 0.0
C680 C 0.77186 0.67654 0.87545 0.0
C681 C 0.78722 0.62783 0.88882 0.0
H682 H 0.74793 0.77394 0.87828 0.0
C683 C 0.79087 0.6422 0.91634 0.0
H684 H 0.76981 0.66749 0.85419 0.0
C685 C 0.78112 0.70423 0.92994 0.0
C686 C 0.76591 0.75293 0.9165 0.0
H687 H 0.80415 0.60634 0.92712 0.0
H688 H 0.78482 0.71388 0.95106 0.0
C689 C 0.76017 0.73782 0.88919 0.0
C690 C 0.6408 0.57992 0.68372 0.0
C691 C 0.58668 0.54542 0.67207 0.0
H692 H 0.74156 0.62523 0.67732 0.0
C693 C 0.59454 0.52972 0.64411 0.0
H694 H 0.63684 0.59211 0.70517 0.0
C695 C 0.654 0.5492 0.62817 0.0
C696 C 0.70834 0.58334 0.63972 0.0
H697 H 0.55411 0.50294 0.63441 0.0
H698 H 0.65732 0.53771 0.6067 0.0
C699 C 0.70117 0.598 0.66775 0.0
C700 C 0.76886 0.4947 0.41705 0.0
C701 C 0.75013 0.42776 0.41185 0.0
H702 H 0.77841 0.58726 0.40351 0.0
C703 C 0.73395 0.40243 0.38634 0.0
H704 H 0.78351 0.51591 0.43612 0.0
C705 C 0.73172 0.44368 0.36731 0.0
C706 C 0.74595 0.51118 0.37332 0.0
H707 H 0.71955 0.35117 0.38158 0.0
H708 H 0.71482 0.42299 0.34856 0.0
C709 C 0.76687 0.5357 0.39811 0.0
C710 C 0.97306 0.56855 0.12316 0.0
C711 C 0.93358 0.50984 0.12674 0.0
H712 H 0.05635 0.6345 0.13456 0.0
C713 C 0.94773 0.47346 0.1458 0.0
H714 H 0.96367 0.59762 0.10867 0.0
C715 C 0.99973 0.49469 0.1608 0.0
C716 C 0.0402 0.55253 0.15695 0.0
H717 H 0.91806 0.42821 0.14934 0.0
H718 H 1.00854 0.46533 0.1753 0.0
C719 C 1.02637 0.5893 0.1379 0.0
C720 C 0.78667 0.89512 0.6249 0.0
C721 C 0.80255 0.84674 0.63836 0.0
H722 H 0.76246 0.99263 0.6277 0.0
C723 C 0.80823 0.8621 0.66567 0.0
H724 H 0.78297 0.8853 0.60378 0.0
C725 C 0.79586 0.92324 0.67939 0.0
C726 C 0.77986 0.97163 0.66601 0.0
H727 H 0.82098 0.82626 0.6766 0.0
H728 H 0.79793 0.93244 0.70064 0.0
C729 C 0.77623 0.95705 0.63849 0.0
C730 C 0.86764 1.00052 0.88648 0.0
C731 C 0.86287 1.01375 0.91452 0.0
H732 H 0.92957 1.00582 0.8485 0.0
C733 C 0.91957 1.04428 0.92547 0.0
H734 H 0.82543 0.97602 0.87731 0.0
C735 C 0.97888 0.06175 0.90897 0.0
C736 C 0.98416 1.04763 0.88098 0.0
H737 H 0.91822 0.05454 0.94691 0.0
H738 H 1.0211 0.08595 0.91823 0.0
C739 C 0.9277 1.01662 0.86994 0.0
C740 C 0.83963 0.15305 0.18695 0.0
C741 C 0.82632 0.08549 0.18078 0.0
H742 H 0.85004 0.2458 0.17295 0.0
C743 C 0.80541 0.06098 0.156 0.0
H744 H 0.85648 0.17374 0.20571 0.0
C745 C 0.80238 0.10211 0.13722 0.0
C746 C 0.82009 0.1692 0.14257 0.0
H747 H 0.79452 1.00938 0.15048 0.0
H748 H 0.7877 0.0809 0.11816 0.0
C749 C 0.83638 0.19445 0.16807 0.0
C750 C 0.59184 1.03046 0.43219 0.0
C751 C 0.63292 0.08825 0.42843 0.0
H752 H 0.50775 0.96585 0.42054 0.0
C753 C 0.62068 0.12445 0.40898 0.0
H754 H 0.59976 1.00158 0.447 0.0
C755 C 0.56915 0.10396 0.39373 0.0
C756 C 0.52718 1.047 0.39767 0.0
H757 H 0.65161 0.16898 0.40528 0.0
H758 H 0.56205 0.13313 0.37888 0.0
C759 C 0.53892 1.01041 0.41715 0.0
C760 C 0.27385 0.2459 0.38586 0.0
C761 C 0.27398 0.25739 0.41366 0.0
H762 H 0.28906 0.17919 0.34984 0.0
C763 C 0.28575 0.20655 0.42667 0.0
H764 H 0.2644 0.2839 0.37527 0.0
C765 C 0.29693 0.14574 0.41225 0.0
C766 C 0.29846 0.13468 0.38435 0.0
H767 H 0.28516 0.21344 0.44809 0.0
H768 H 0.30672 0.10797 0.42289 0.0
C769 C 0.28726 0.18574 0.37132 0.0
C770 C 0.13913 0.0839 0.18529 0.0
C771 C 0.0839 0.05124 0.17385 0.0
H772 H 0.24089 0.12644 0.17854 0.0
C773 C 0.09076 1.03609 0.14587 0.0
H774 H 0.13599 0.09552 0.20675 0.0
C775 C 0.15041 0.05408 0.12975 0.0
C776 C 0.20591 0.08628 0.14108 0.0
H777 H 0.0495 1.01064 0.13633 0.0
H778 H 0.15298 1.04293 0.10829 0.0
C779 C 0.19962 0.10062 0.16912 0.0
C780 C 0.26629 1.03425 0.89498 0.0
C781 C 0.24228 1.00972 0.87078 0.0
H782 H 0.28685 1.01468 0.93246 0.0
C783 C 0.22658 0.94231 0.86513 0.0
H784 H 0.2791 0.08574 0.90006 0.0
C785 C 0.23047 0.90123 0.88404 0.0
C786 C 0.24975 0.9267 0.90905 0.0
H787 H 0.20732 0.92166 0.84684 0.0
H788 H 0.21492 0.85008 0.87966 0.0
C789 C 0.26988 0.99345 0.9138 0.0
C790 C 0.49959 0.99342 0.66099 0.0
C791 C 0.5401 0.05156 0.65782 0.0
H792 H 0.41855 0.92747 0.64859 0.0
C793 C 0.52693 0.08949 0.63904 0.0
H794 H 0.50789 0.9632 0.67526 0.0
C795 C 0.47428 0.06954 0.62388 0.0
C796 C 0.43481 1.0105 0.62676 0.0
H797 H 0.55693 0.13498 0.63624 0.0
H798 H 0.4654 0.0995 0.60962 0.0
C799 C 0.44827 0.973 0.64557 0.0
C800 C 0.25711 0.20549 0.97554 0.0
C801 C 0.21546 0.22821 0.99856 0.0
H802 H 0.27933 0.19996 0.93308 0.0
C803 C 0.16833 0.26977 0.99657 0.0
H804 H 0.29359 0.17332 0.97647 0.0
C805 C 0.16085 0.28558 0.97171 0.0
C806 C 0.20002 0.25959 0.94868 0.0
H807 H 0.13647 0.28895 1.01411 0.0
H808 H 0.12217 0.31485 0.97024 0.0
C809 C 0.2492 0.22083 0.95082 0.0
C810 C 0.66682 0.50069 0.17847 0.0
C811 C 0.68326 0.44042 0.1651 0.0
H812 H 0.63905 0.55702 0.21596 0.0
C813 C 0.67869 0.38837 0.17985 0.0
H814 H 0.66953 0.54167 0.16766 0.0
C815 C 0.66221 0.3973 0.20754 0.0
C816 C 0.64965 0.4585 0.22121 0.0
H817 H 0.69051 0.34107 0.17016 0.0
H818 H 0.66241 0.35674 0.21823 0.0
C819 C 0.65012 0.50962 0.20624 0.0
C820 C 0.37218 0.94858 0.49784 0.0
C821 C 0.35329 0.89781 0.51326 0.0
H822 H 0.37698 0.98131 0.46028 0.0
C823 C 0.32715 0.83753 0.50111 0.0
H824 H 0.39187 0.99569 0.5068 0.0
C825 C 0.31552 0.82969 0.47454 0.0
C826 C 0.33072 0.88173 0.45942 0.0
H827 H 0.31054 0.79791 0.51273 0.0
H828 H 0.29186 0.78369 0.46633 0.0
C829 C 0.36184 0.94049 0.4712 0.0
C830 C 0.9485 0.59351 0.70363 0.0
C831 C 0.9972 0.64052 0.69365 0.0
H832 H 0.90617 0.54467 0.73693 0.0
C833 C 0.04562 0.67082 0.70927 0.0
H834 H 0.9114 0.56885 0.69165 0.0
C835 C 0.04274 0.65694 0.73526 0.0
C836 C 0.992 0.61198 0.74567 0.0
H837 H 0.08363 0.70709 0.70177 0.0
H838 H 0.07909 0.68232 0.74744 0.0
C839 C 0.94606 0.57914 0.72937 0.0
C840 C 0.8218 0.87048 0.10297 0.0
C841 C 0.87286 0.83369 0.1048 0.0
H842 H 0.77496 0.91689 0.07777 0.0
C843 C 0.91272 0.80947 0.08165 0.0
H844 H 0.79121 0.89006 0.12085 0.0
C845 C 0.90395 0.82519 0.05694 0.0
C846 C 0.85503 0.8651 0.05526 0.0
H847 H 0.95282 0.78173 0.08292 0.0
H848 H 0.93635 0.80739 0.0393 0.0
C849 C 0.81277 0.88592 0.07841 0.0
C850 C 0.40096 0.59435 0.87363 0.0
C851 C 0.38479 0.65488 0.88683 0.0
H852 H 0.42828 0.53723 0.83627 0.0
C853 C 0.38894 0.70644 0.87183 0.0
H854 H 0.3985 0.55371 0.88461 0.0
C855 C 0.40506 0.69685 0.84413 0.0
C856 C 0.41764 0.63546 0.83066 0.0
H857 H 0.37719 0.75388 0.88137 0.0
H858 H 0.40473 0.7371 0.83327 0.0
C859 C 0.41726 0.58476 0.84584 0.0
C860 C 0.69929 0.16438 0.58333 0.0
C861 C 0.72784 0.22416 0.59529 0.0
H862 H 0.67485 0.10703 0.54729 0.0
C863 C 0.74342 0.27579 0.58001 0.0
H864 H 0.68371 0.12398 0.59449 0.0
C865 C 0.73534 0.26645 0.553 0.0
C866 C 0.71236 0.2051 0.54072 0.0
H867 H 0.76501 0.32251 0.58847 0.0
H868 H 0.7523 0.30583 0.54129 0.0
C869 C 0.69251 0.1548 0.55631 0.0
C870 C 1.02753 0.43249 0.34466 0.0
C871 C 0.07747 0.46169 0.35974 0.0
H872 H 0.99179 0.42165 0.30695 0.0
C873 C 0.1271 0.50714 0.34918 0.0
H874 H 0.98881 0.3974 0.35258 0.0
C875 C 0.12861 0.52126 0.32345 0.0
C876 C 0.0808 0.48969 0.30776 0.0
H877 H 0.16542 0.53098 0.36073 0.0
H878 H 0.16897 0.55465 0.31544 0.0
C879 C 1.02949 0.44606 0.31868 0.0
C880 C 0.7509 0.72727 0.45151 0.0
C881 C 0.69994 0.76391 0.44941 0.0
H882 H 0.79708 0.68118 0.47702 0.0
C883 C 0.65964 0.78829 0.47241 0.0
H884 H 0.78181 0.70755 0.43376 0.0
C885 C 0.66782 0.77279 0.49723 0.0
C886 C 0.71661 0.73298 0.49917 0.0
H887 H 0.61959 0.81589 0.47093 0.0
H888 H 0.63507 0.79066 0.51475 0.0
C889 C 0.75935 0.71207 0.47617 0.0
C890 C 0.1648 1.00007 0.6772 0.0
C891 C 0.18428 0.94041 0.6643 0.0
H892 H 0.13235 0.05618 0.71424 0.0
C893 C 0.18065 0.88908 0.67936 0.0
H894 H 0.16665 1.04048 0.66615 0.0
C895 C 0.16165 0.89824 0.70694 0.0
C896 C 0.14581 0.95896 0.72013 0.0
H897 H 0.1949 0.8423 0.67003 0.0
H898 H 0.16241 0.8584 0.71798 0.0
C899 C 0.14577 1.00924 0.70483 0.0
C900 C 0.82323 0.32312 0.97499 0.0
C901 C 0.83876 0.37493 0.95979 0.0
H902 H 0.81485 0.2926 1.0136 0.0
C903 C 0.86768 0.43449 0.97178 0.0
H904 H 0.80131 0.27656 0.96651 0.0
C905 C 0.87497 0.4437 0.99875 0.0
C906 C 0.85524 0.39322 1.01426 0.0
H907 H 0.88319 0.47503 0.9607 0.0
H908 H 0.89288 0.49134 1.00782 0.0
C909 C 0.83181 0.33208 1.00193 0.0
C910 C 0.44434 0.15806 0.24333 0.0
C911 C 0.49885 0.13018 0.24837 0.0
H912 H 0.40066 0.19725 0.21496 0.0
C913 C 0.55337 0.12237 0.22821 0.0
H914 H 0.40226 0.16553 0.25873 0.0
C915 C 0.55236 0.13976 0.20313 0.0
C916 C 0.49687 0.16561 0.19767 0.0
H917 H 0.59575 0.10023 0.23143 0.0
H918 H 0.59399 0.13024 0.1878 0.0
C919 C 0.44352 0.17605 0.21826 0.0
C920 C 0.31423 0.33853 0.59916 0.0
C921 C 0.3756 0.31994 0.60245 0.0
H922 H 0.25883 0.37521 0.57394 0.0
C923 C 0.42572 0.31469 0.58033 0.0
H924 H 0.27422 0.34193 0.61571 0.0
C925 C 0.41664 0.33294 0.55616 0.0
C926 C 0.35739 0.35717 0.5536 0.0
H927 H 0.47363 0.30056 0.58207 0.0
H928 H 0.45704 0.32984 0.5398 0.0
C929 C 0.30537 0.35745 0.57511 0.0
C930 C 0.89937 0.09499 0.37634 0.0
C931 C 0.88288 0.15533 0.38962 0.0
H932 H 0.92789 1.03854 0.33894 0.0
C933 C 0.88772 0.20728 0.37478 0.0
H934 H 0.89644 0.05408 0.38721 0.0
C935 C 0.9048 0.19824 0.34712 0.0
C936 C 0.91769 0.13704 0.33355 0.0
H937 H 0.87583 0.25462 0.3844 0.0
H938 H 0.90495 0.23878 0.33638 0.0
C939 C 0.91666 0.08596 0.34859 0.0
C940 C 0.24529 0.77629 0.07739 0.0
C941 C 0.22947 0.72475 0.09273 0.0
H942 H 0.25469 0.80613 0.03862 0.0
C943 C 0.20129 0.66485 0.08073 0.0
H944 H 0.26668 0.82308 0.08586 0.0
C945 C 0.19493 0.65512 0.05367 0.0
C946 C 0.21485 0.70539 0.03806 0.0
H947 H 0.18562 0.62447 0.09188 0.0
H948 H 0.17747 0.60729 0.04463 0.0
C949 C 0.23762 0.76679 0.05035 0.0
C950 C 0.6221 1.0048 0.85077 0.0
C951 C 0.57284 0.9589 0.86123 0.0
H952 H 0.66406 0.0524 0.81708 0.0
C953 C 0.52348 0.92899 0.84599 0.0
H954 H 0.65998 1.02916 0.86243 0.0
C955 C 0.52574 0.9423 0.81994 0.0
C956 C 0.57676 0.98638 0.80911 0.0
H957 H 0.48505 0.89355 0.85384 0.0
H958 H 0.48853 0.91734 0.80808 0.0
C959 C 0.6239 1.01865 0.82498 0.0
loop_
_geom_bond_atom_site_label_1
_geom_bond_atom_site_label_2
_geom_bond_distance
_geom_bond_site_symmetry_2
_ccdc_geom_bond_type
Co0 N5 2.057 . S
Co0 O17 2.021 . S
Co0 O20 2.062 . S
Co0 O24 2.117 . S
Co0 O25 2.020 . S
C1 O21 1.259 . S
C1 O24 1.258 . S
Co2 N11 2.057 . S
Co2 O18 2.117 . S
Co2 O19 2.020 . S
Co2 O21 2.021 . S
Co2 O26 2.062 . S
C3 N5 1.316 . S
C3 N6 1.347 1_554 S
C3 H8 0.933 . S
C4 N5 1.375 . S
C4 C7 1.350 1_554 S
C4 H9 0.930 . S
N5 Co0 2.057 . S
N5 C3 1.316 . S
N5 C4 1.375 . S
N6 C3 1.347 1_556 S
N6 C7 1.373 . S
C7 C4 1.350 1_556 S
C7 N6 1.373 . S
C7 H28 0.931 . S
H8 C3 0.933 . S
H9 C4 0.930 . S
C10 O17 1.259 . S
C10 O18 1.258 . S
N11 Co2 2.057 . S
N11 C12 1.316 . S
N11 C13 1.375 . S
C12 N11 1.316 . S
C12 N14 1.347 . S
C12 H23 0.931 . S
C13 N11 1.375 . S
C13 C15 1.350 . S
C13 H22 0.930 . S
N14 C12 1.347 . S
N14 C15 1.373 . S
C15 C13 1.350 . S
C15 N14 1.373 . S
C15 H29 0.931 . S
C16 O19 1.256 . S
C16 O20 1.255 . S
O17 Co0 2.021 . S
O17 C10 1.259 . S
O18 Co2 2.117 . S
O18 C10 1.258 . S
O19 Co2 2.020 . S
O19 C16 1.256 . S
O20 Co0 2.062 . S
O20 C16 1.255 . S
O21 C1 1.259 . S
O21 Co2 2.021 . S
H22 C13 0.930 . S
H23 C12 0.931 . S
O24 Co0 2.117 . S
O24 C1 1.258 . S
O25 Co0 2.020 . S
O25 C27 1.256 . S
O26 Co2 2.062 . S
O26 C27 1.255 . S
C27 O25 1.256 . S
C27 O26 1.255 . S
H28 C7 0.931 . S
H29 C15 0.931 . S
Co30 N35 2.057 . S
Co30 O47 2.021 . S
Co30 O50 2.062 . S
Co30 O54 2.117 . S
Co30 O55 2.020 . S
C31 O51 1.259 . S
C31 O54 1.258 . S
Co32 N41 2.057 . S
Co32 O48 2.117 . S
Co32 O49 2.020 . S
Co32 O51 2.021 . S
Co32 O56 2.062 . S
C33 N35 1.316 . S
C33 N36 1.347 . S
C33 H38 0.931 . S
C34 N35 1.375 . S
C34 C37 1.350 . S
C34 H39 0.930 . S
N35 Co30 2.057 . S
N35 C33 1.316 . S
N35 C34 1.375 . S
N36 C33 1.347 . S
N36 C37 1.373 . S
C37 C34 1.350 . S
C37 N36 1.373 . S
C37 H58 0.931 . S
H38 C33 0.931 . S
H39 C34 0.930 . S
C40 O47 1.259 . S
C40 O48 1.258 . S
N41 Co32 2.057 . S
N41 C42 1.316 . S
N41 C43 1.375 . S
C42 N41 1.316 . S
C42 N44 1.347 . S
C42 H53 0.931 . S
C43 N41 1.375 . S
C43 C45 1.350 . S
C43 H52 0.930 . S
N44 C42 1.347 . S
N44 C45 1.373 . S
C45 C43 1.350 . S
C45 N44 1.373 . S
C45 H59 0.931 . S
C46 O49 1.256 . S
C46 O50 1.255 . S
O47 Co30 2.021 . S
O47 C40 1.259 . S
O48 Co32 2.117 . S
O48 C40 1.258 . S
O49 Co32 2.020 . S
O49 C46 1.256 . S
O50 Co30 2.062 . S
O50 C46 1.255 . S
O51 C31 1.259 . S
O51 Co32 2.021 . S
H52 C43 0.930 . S
H53 C42 0.931 . S
O54 Co30 2.117 . S
O54 C31 1.258 . S
O55 Co30 2.020 . S
O55 C57 1.256 . S
O56 Co32 2.062 . S
O56 C57 1.255 . S
C57 O55 1.256 . S
C57 O56 1.255 . S
H58 C37 0.931 . S
H59 C45 0.931 . S
Co60 N65 2.057 . S
Co60 O77 2.021 . S
Co60 O80 2.062 . S
Co60 O84 2.117 . S
Co60 O85 2.020 . S
C61 O81 1.259 . S
C61 O84 1.258 . S
Co62 N71 2.057 . S
Co62 O78 2.117 . S
Co62 O79 2.020 . S
Co62 O81 2.021 . S
Co62 O86 2.062 . S
C63 N65 1.316 . S
C63 N66 1.347 . S
C63 H68 0.931 . S
C64 N65 1.375 . S
C64 C67 1.350 . S
C64 H69 0.930 . S
N65 Co60 2.057 . S
N65 C63 1.316 . S
N65 C64 1.375 . S
N66 C63 1.347 . S
N66 C67 1.373 . S
C67 C64 1.350 . S
C67 N66 1.373 . S
C67 H88 0.931 . S
H68 C63 0.931 . S
H69 C64 0.930 . S
C70 O77 1.259 . S
C70 O78 1.258 . S
N71 Co62 2.057 . S
N71 C72 1.316 . S
N71 C73 1.375 1_565 S
C72 N71 1.316 . S
C72 N74 1.347 1_565 S
C72 H83 0.931 . S
C73 N71 1.375 1_545 S
C73 C75 1.350 . S
C73 H82 0.930 . S
N74 C72 1.347 1_545 S
N74 C75 1.373 . S
C75 C73 1.350 . S
C75 N74 1.373 . S
C75 H89 0.931 . S
C76 O79 1.256 . S
C76 O80 1.255 . S
O77 Co60 2.021 . S
O77 C70 1.259 . S
O78 Co62 2.117 . S
O78 C70 1.258 . S
O79 Co62 2.020 . S
O79 C76 1.256 . S
O80 Co60 2.062 . S
O80 C76 1.255 . S
O81 C61 1.259 . S
O81 Co62 2.021 . S
H82 C73 0.930 . S
H83 C72 0.931 . S
O84 Co60 2.117 . S
O84 C61 1.258 . S
O85 Co60 2.020 . S
O85 C87 1.256 . S
O86 Co62 2.062 . S
O86 C87 1.255 . S
C87 O85 1.256 . S
C87 O86 1.255 . S
H88 C67 0.931 . S
H89 C75 0.931 . S
Co90 N95 2.057 . S
Co90 O107 2.021 . S
Co90 O110 2.062 . S
Co90 O114 2.117 . S
Co90 O115 2.020 . S
C91 O111 1.259 . S
C91 O114 1.258 . S
Co92 N101 2.057 . S
Co92 O108 2.117 . S
Co92 O109 2.020 . S
Co92 O111 2.021 . S
Co92 O116 2.062 . S
C93 N95 1.316 . S
C93 N96 1.347 . S
C93 H98 0.931 . S
C94 N95 1.375 . S
C94 C97 1.350 . S
C94 H99 0.930 . S
N95 Co90 2.057 . S
N95 C93 1.316 . S
N95 C94 1.375 . S
N96 C93 1.347 . S
N96 C97 1.373 . S
C97 C94 1.350 . S
C97 N96 1.373 . S
C97 H118 0.931 . S
H98 C93 0.931 . S
H99 C94 0.930 . S
C100 O107 1.259 . S
C100 O108 1.258 . S
N101 Co92 2.057 . S
N101 C102 1.316 . S
N101 C103 1.375 . S
C102 N101 1.316 . S
C102 N104 1.347 . S
C102 H113 0.931 . S
C103 N101 1.375 . S
C103 C105 1.350 . S
C103 H112 0.930 . S
N104 C102 1.347 . S
N104 C105 1.373 . S
C105 C103 1.350 . S
C105 N104 1.373 . S
C105 H119 0.931 . S
C106 O109 1.256 . S
C106 O110 1.255 . S
O107 Co90 2.021 . S
O107 C100 1.259 . S
O108 Co92 2.117 . S
O108 C100 1.258 . S
O109 Co92 2.020 . S
O109 C106 1.256 . S
O110 Co90 2.062 . S
O110 C106 1.255 . S
O111 C91 1.259 . S
O111 Co92 2.021 . S
H112 C103 0.930 . S
H113 C102 0.931 . S
O114 Co90 2.117 . S
O114 C91 1.258 . S
O115 Co90 2.020 . S
O115 C117 1.256 . S
O116 Co92 2.062 . S
O116 C117 1.255 . S
C117 O115 1.256 . S
C117 O116 1.255 . S
H118 C97 0.931 . S
H119 C105 0.931 . S
Co120 N125 2.057 . S
Co120 O137 2.021 . S
Co120 O140 2.062 . S
Co120 O144 2.117 . S
Co120 O145 2.020 . S
C121 O141 1.259 . S
C121 O144 1.258 . S
Co122 N131 2.057 . S
Co122 O138 2.117 . S
Co122 O139 2.020 . S
Co122 O141 2.021 . S
Co122 O146 2.062 . S
C123 N125 1.316 . S
C123 N126 1.347 . S
C123 H128 0.931 . S
C124 N125 1.375 . S
C124 C127 1.350 . S
C124 H129 0.930 . S
N125 Co120 2.057 . S
N125 C123 1.316 . S
N125 C124 1.375 . S
N126 C123 1.347 . S
N126 C127 1.373 . S
C127 C124 1.350 . S
C127 N126 1.373 . S
C127 H148 0.931 . S
H128 C123 0.931 . S
H129 C124 0.930 . S
C130 O137 1.259 . S
C130 O138 1.258 . S
N131 Co122 2.057 . S
N131 C132 1.316 . S
N131 C133 1.375 . S
C132 N131 1.316 . S
C132 N134 1.347 1_556 S
C132 H143 0.933 . S
C133 N131 1.375 . S
C133 C135 1.350 1_556 S
C133 H142 0.930 . S
N134 C132 1.347 1_554 S
N134 C135 1.373 . S
C135 C133 1.350 1_554 S
C135 N134 1.373 . S
C135 H149 0.931 . S
C136 O139 1.256 . S
C136 O140 1.255 . S
O137 Co120 2.021 . S
O137 C130 1.259 . S
O138 Co122 2.117 . S
O138 C130 1.258 . S
O139 Co122 2.020 . S
O139 C136 1.256 . S
O140 Co120 2.062 . S
O140 C136 1.255 . S
O141 C121 1.259 . S
O141 Co122 2.021 . S
H142 C133 0.930 . S
H143 C132 0.933 . S
O144 Co120 2.117 . S
O144 C121 1.258 . S
O145 Co120 2.020 . S
O145 C147 1.256 . S
O146 Co122 2.062 . S
O146 C147 1.255 . S
C147 O145 1.256 . S
C147 O146 1.255 . S
H148 C127 0.931 . S
H149 C135 0.931 . S
Co150 N155 2.057 . S
Co150 O167 2.021 . S
Co150 O170 2.062 . S
Co150 O174 2.117 . S
Co150 O175 2.020 . S
C151 O171 1.259 . S
C151 O174 1.258 . S
Co152 N161 2.057 . S
Co152 O168 2.117 . S
Co152 O169 2.020 . S
Co152 O171 2.021 . S
Co152 O176 2.062 . S
C153 N155 1.316 . S
C153 N156 1.347 . S
C153 H158 0.931 . S
C154 N155 1.375 . S
C154 C157 1.350 . S
C154 H159 0.930 . S
N155 Co150 2.057 . S
N155 C153 1.316 . S
N155 C154 1.375 . S
N156 C153 1.347 . S
N156 C157 1.373 . S
C157 C154 1.350 . S
C157 N156 1.373 . S
C157 H178 0.931 . S
H158 C153 0.931 . S
H159 C154 0.930 . S
C160 O167 1.259 . S
C160 O168 1.258 . S
N161 Co152 2.057 . S
N161 C162 1.316 . S
N161 C163 1.375 . S
C162 N161 1.316 . S
C162 N164 1.347 . S
C162 H173 0.931 . S
C163 N161 1.375 . S
C163 C165 1.350 . S
C163 H172 0.930 . S
N164 C162 1.347 . S
N164 C165 1.373 . S
C165 C163 1.350 . S
C165 N164 1.373 . S
C165 H179 0.931 . S
C166 O169 1.256 . S
C166 O170 1.255 . S
O167 Co150 2.021 . S
O167 C160 1.259 . S
O168 Co152 2.117 . S
O168 C160 1.258 . S
O169 Co152 2.020 . S
O169 C166 1.256 . S
O170 Co150 2.062 . S
O170 C166 1.255 . S
O171 C151 1.259 . S
O171 Co152 2.021 . S
H172 C163 0.930 . S
H173 C162 0.931 . S
O174 Co150 2.117 . S
O174 C151 1.258 . S
O175 Co150 2.020 . S
O175 C177 1.256 . S
O176 Co152 2.062 . S
O176 C177 1.255 . S
C177 O175 1.256 . S
C177 O176 1.255 . S
H178 C157 0.931 . S
H179 C165 0.931 . S
Co180 N185 2.057 . S
Co180 O197 2.021 . S
Co180 O200 2.062 . S
Co180 O204 2.117 . S
Co180 O205 2.020 . S
C181 O201 1.259 . S
C181 O204 1.258 . S
Co182 N191 2.057 . S
Co182 O198 2.117 . S
Co182 O199 2.020 . S
Co182 O201 2.021 . S
Co182 O206 2.062 . S
C183 N185 1.316 . S
C183 N186 1.347 1_545 S
C183 H188 0.931 . S
C184 N185 1.375 1_565 S
C184 C187 1.350 . S
C184 H189 0.930 . S
N185 Co180 2.057 . S
N185 C183 1.316 . S
N185 C184 1.375 1_545 S
N186 C183 1.347 1_565 S
N186 C187 1.373 . S
C187 C184 1.350 . S
C187 N186 1.373 . S
C187 H208 0.931 . S
H188 C183 0.931 . S
H189 C184 0.930 . S
C190 O197 1.259 . S
C190 O198 1.258 . S
N191 Co182 2.057 . S
N191 C192 1.316 . S
N191 C193 1.375 . S
C192 N191 1.316 . S
C192 N194 1.347 . S
C192 H203 0.931 . S
C193 N191 1.375 . S
C193 C195 1.350 . S
C193 H202 0.930 . S
N194 C192 1.347 . S
N194 C195 1.373 . S
C195 C193 1.350 . S
C195 N194 1.373 . S
C195 H209 0.931 . S
C196 O199 1.256 . S
C196 O200 1.255 . S
O197 Co180 2.021 . S
O197 C190 1.259 . S
O198 Co182 2.117 . S
O198 C190 1.258 . S
O199 Co182 2.020 . S
O199 C196 1.256 . S
O200 Co180 2.062 . S
O200 C196 1.255 . S
O201 C181 1.259 . S
O201 Co182 2.021 . S
H202 C193 0.930 . S
H203 C192 0.931 . S
O204 Co180 2.117 . S
O204 C181 1.258 . S
O205 Co180 2.020 . S
O205 C207 1.256 . S
O206 Co182 2.062 . S
O206 C207 1.255 . S
C207 O205 1.256 . S
C207 O206 1.255 . S
H208 C187 0.931 . S
H209 C195 0.931 . S
Co210 N215 2.057 . S
Co210 O227 2.021 . S
Co210 O230 2.062 . S
Co210 O234 2.117 . S
Co210 O235 2.020 . S
C211 O231 1.259 . S
C211 O234 1.258 . S
Co212 N221 2.057 . S
Co212 O228 2.117 . S
Co212 O229 2.020 . S
Co212 O231 2.021 . S
Co212 O236 2.062 . S
C213 N215 1.316 . S
C213 N216 1.347 . S
C213 H218 0.931 . S
C214 N215 1.375 . S
C214 C217 1.350 . S
C214 H219 0.930 . S
N215 Co210 2.057 . S
N215 C213 1.316 . S
N215 C214 1.375 . S
N216 C213 1.347 . S
N216 C217 1.373 . S
C217 C214 1.350 . S
C217 N216 1.373 . S
C217 H238 0.931 . S
H218 C213 0.931 . S
H219 C214 0.930 . S
C220 O227 1.259 . S
C220 O228 1.258 . S
N221 Co212 2.057 . S
N221 C222 1.316 . S
N221 C223 1.375 . S
C222 N221 1.316 . S
C222 N224 1.347 . S
C222 H233 0.931 . S
C223 N221 1.375 . S
C223 C225 1.350 . S
C223 H232 0.930 . S
N224 C222 1.347 . S
N224 C225 1.373 . S
C225 C223 1.350 . S
C225 N224 1.373 . S
C225 H239 0.931 . S
C226 O229 1.256 . S
C226 O230 1.255 . S
O227 Co210 2.021 . S
O227 C220 1.259 . S
O228 Co212 2.117 . S
O228 C220 1.258 . S
O229 Co212 2.020 . S
O229 C226 1.256 . S
O230 Co210 2.062 . S
O230 C226 1.255 . S
O231 C211 1.259 . S
O231 Co212 2.021 . S
H232 C223 0.930 . S
H233 C222 0.931 . S
O234 Co210 2.117 . S
O234 C211 1.258 . S
O235 Co210 2.020 . S
O235 C237 1.256 . S
O236 Co212 2.062 . S
O236 C237 1.255 . S
C237 O235 1.256 . S
C237 O236 1.255 . S
H238 C217 0.931 . S
H239 C225 0.931 . S
Co240 N245 2.057 . S
Co240 O257 2.021 . S
Co240 O260 2.062 . S
Co240 O264 2.117 . S
Co240 O265 2.020 . S
C241 O261 1.259 . S
C241 O264 1.258 . S
Co242 N251 2.057 . S
Co242 O258 2.117 . S
Co242 O259 2.020 . S
Co242 O261 2.021 . S
Co242 O266 2.062 . S
C243 N245 1.316 . S
C243 N246 1.347 . S
C243 H248 0.931 . S
C244 N245 1.375 . S
C244 C247 1.350 . S
C244 H249 0.930 . S
N245 Co240 2.057 . S
N245 C243 1.316 . S
N245 C244 1.375 . S
N246 C243 1.347 . S
N246 C247 1.373 . S
C247 C244 1.350 . S
C247 N246 1.373 . S
C247 H268 0.931 . S
H248 C243 0.931 . S
H249 C244 0.930 . S
C250 O257 1.259 . S
C250 O258 1.258 . S
N251 Co242 2.057 . S
N251 C252 1.316 . S
N251 C253 1.375 . S
C252 N251 1.316 . S
C252 N254 1.347 . S
C252 H263 0.931 . S
C253 N251 1.375 . S
C253 C255 1.350 . S
C253 H262 0.930 . S
N254 C252 1.347 . S
N254 C255 1.373 . S
C255 C253 1.350 . S
C255 N254 1.373 . S
C255 H269 0.931 1_655 S
C256 O259 1.256 . S
C256 O260 1.255 . S
O257 Co240 2.021 . S
O257 C250 1.259 . S
O258 Co242 2.117 . S
O258 C250 1.258 . S
O259 Co242 2.020 . S
O259 C256 1.256 . S
O260 Co240 2.062 . S
O260 C256 1.255 . S
O261 C241 1.259 . S
O261 Co242 2.021 . S
H262 C253 0.930 . S
H263 C252 0.931 . S
O264 Co240 2.117 . S
O264 C241 1.258 . S
O265 Co240 2.020 . S
O265 C267 1.256 . S
O266 Co242 2.062 . S
O266 C267 1.255 . S
C267 O265 1.256 . S
C267 O266 1.255 . S
H268 C247 0.931 . S
H269 C255 0.931 1_455 S
Co270 N275 2.057 . S
Co270 O287 2.021 . S
Co270 O290 2.062 . S
Co270 O294 2.117 . S
Co270 O295 2.020 1_455 S
C271 O291 1.259 . S
C271 O294 1.258 . S
Co272 N281 2.057 . S
Co272 O288 2.117 . S
Co272 O289 2.020 . S
Co272 O291 2.021 . S
Co272 O296 2.062 . S
C273 N275 1.316 . S
C273 N276 1.347 1_545 S
C273 H278 0.931 . S
C274 N275 1.375 1_565 S
C274 C277 1.350 . S
C274 H279 0.930 . S
N275 Co270 2.057 . S
N275 C273 1.316 . S
N275 C274 1.375 1_545 S
N276 C273 1.347 1_565 S
N276 C277 1.373 . S
C277 C274 1.350 . S
C277 N276 1.373 . S
C277 H298 0.931 . S
H278 C273 0.931 . S
H279 C274 0.930 . S
C280 O287 1.259 . S
C280 O288 1.258 . S
N281 Co272 2.057 . S
N281 C282 1.316 . S
N281 C283 1.375 . S
C282 N281 1.316 . S
C282 N284 1.347 . S
C282 H293 0.931 . S
C283 N281 1.375 . S
C283 C285 1.350 . S
C283 H292 0.930 . S
N284 C282 1.347 . S
N284 C285 1.373 . S
C285 C283 1.350 . S
C285 N284 1.373 . S
C285 H299 0.931 . S
C286 O289 1.256 . S
C286 O290 1.255 . S
O287 Co270 2.021 . S
O287 C280 1.259 . S
O288 Co272 2.117 . S
O288 C280 1.258 . S
O289 Co272 2.020 . S
O289 C286 1.256 . S
O290 Co270 2.062 . S
O290 C286 1.255 . S
O291 C271 1.259 . S
O291 Co272 2.021 . S
H292 C283 0.930 . S
H293 C282 0.931 . S
O294 Co270 2.117 . S
O294 C271 1.258 . S
O295 Co270 2.020 1_655 S
O295 C297 1.256 . S
O296 Co272 2.062 . S
O296 C297 1.255 1_455 S
C297 O295 1.256 . S
C297 O296 1.255 1_655 S
H298 C277 0.931 . S
H299 C285 0.931 . S
Co300 N305 2.057 . S
Co300 O317 2.021 . S
Co300 O320 2.062 . S
Co300 O324 2.117 . S
Co300 O325 2.020 . S
C301 O321 1.259 . S
C301 O324 1.258 . S
Co302 N311 2.057 . S
Co302 O318 2.117 . S
Co302 O319 2.020 . S
Co302 O321 2.021 . S
Co302 O326 2.062 . S
C303 N305 1.316 . S
C303 N306 1.347 . S
C303 H308 0.931 . S
C304 N305 1.375 . S
C304 C307 1.350 . S
C304 H309 0.930 . S
N305 Co300 2.057 . S
N305 C303 1.316 . S
N305 C304 1.375 . S
N306 C303 1.347 . S
N306 C307 1.373 . S
C307 C304 1.350 . S
C307 N306 1.373 . S
C307 H328 0.931 . S
H308 C303 0.931 . S
H309 C304 0.930 . S
C310 O317 1.259 . S
C310 O318 1.258 . S
N311 Co302 2.057 . S
N311 C312 1.316 . S
N311 C313 1.375 . S
C312 N311 1.316 . S
C312 N314 1.347 . S
C312 H323 0.931 . S
C313 N311 1.375 . S
C313 C315 1.350 . S
C313 H322 0.930 . S
N314 C312 1.347 . S
N314 C315 1.373 . S
C315 C313 1.350 . S
C315 N314 1.373 . S
C315 H329 0.931 . S
C316 O319 1.256 . S
C316 O320 1.255 . S
O317 Co300 2.021 . S
O317 C310 1.259 . S
O318 Co302 2.117 . S
O318 C310 1.258 . S
O319 Co302 2.020 . S
O319 C316 1.256 . S
O320 Co300 2.062 . S
O320 C316 1.255 . S
O321 C301 1.259 . S
O321 Co302 2.021 . S
H322 C313 0.930 . S
H323 C312 0.931 . S
O324 Co300 2.117 . S
O324 C301 1.258 . S
O325 Co300 2.020 . S
O325 C327 1.256 . S
O326 Co302 2.062 . S
O326 C327 1.255 . S
C327 O325 1.256 . S
C327 O326 1.255 . S
H328 C307 0.931 . S
H329 C315 0.931 . S
Co330 N335 2.057 . S
Co330 O347 2.021 . S
Co330 O350 2.062 . S
Co330 O354 2.117 . S
Co330 O355 2.020 . S
C331 O351 1.272 . S
C331 O354 1.260 . S
Co332 N341 2.057 . S
Co332 O348 2.117 . S
Co332 O349 2.020 . S
Co332 O351 2.021 . S
Co332 O356 2.062 . S
C333 N335 1.316 . S
C333 N336 1.347 . S
C333 H338 0.931 . S
C334 N335 1.375 1_545 S
C334 C337 1.350 . S
C334 H339 0.930 . S
N335 Co330 2.057 . S
N335 C333 1.316 . S
N335 C334 1.375 1_565 S
N336 C333 1.347 . S
N336 C337 1.373 1_565 S
C337 C334 1.350 . S
C337 N336 1.373 1_545 S
C337 H358 0.931 . S
H338 C333 0.931 . S
H339 C334 0.930 . S
C340 O347 1.259 . S
C340 O348 1.258 . S
N341 Co332 2.057 . S
N341 C342 1.316 . S
N341 C343 1.375 . S
C342 N341 1.316 . S
C342 N344 1.347 . S
C342 H353 0.931 . S
C343 N341 1.375 . S
C343 C345 1.350 . S
C343 H352 0.930 . S
N344 C342 1.347 . S
N344 C345 1.373 . S
C345 C343 1.350 . S
C345 N344 1.373 . S
C345 H359 0.931 . S
C346 O349 1.256 . S
C346 O350 1.255 . S
O347 Co330 2.021 . S
O347 C340 1.259 . S
O348 Co332 2.117 . S
O348 C340 1.258 . S
O349 Co332 2.020 . S
O349 C346 1.256 . S
O350 Co330 2.062 . S
O350 C346 1.255 . S
O351 C331 1.272 . S
O351 Co332 2.021 . S
H352 C343 0.930 . S
H353 C342 0.931 . S
O354 Co330 2.117 . S
O354 C331 1.260 . S
O355 Co330 2.020 . S
O355 C357 1.256 . S
O356 Co332 2.062 . S
O356 C357 1.255 . S
C357 O355 1.256 . S
C357 O356 1.255 . S
H358 C337 0.931 . S
H359 C345 0.931 . S
Co360 N365 2.057 . S
Co360 O377 2.021 . S
Co360 O380 2.062 . S
Co360 O384 2.117 . S
Co360 O385 2.020 . S
C361 O381 1.259 . S
C361 O384 1.258 . S
Co362 N371 2.057 . S
Co362 O378 2.117 . S
Co362 O379 2.020 . S
Co362 O381 2.021 . S
Co362 O386 2.062 . S
C363 N365 1.316 . S
C363 N366 1.347 . S
C363 H368 0.931 . S
C364 N365 1.375 . S
C364 C367 1.350 . S
C364 H369 0.930 . S
N365 Co360 2.057 . S
N365 C363 1.316 . S
N365 C364 1.375 . S
N366 C363 1.347 . S
N366 C367 1.373 . S
C367 C364 1.350 . S
C367 N366 1.373 . S
C367 H388 0.931 1_455 S
H368 C363 0.931 . S
H369 C364 0.930 . S
C370 O377 1.259 . S
C370 O378 1.258 . S
N371 Co362 2.057 . S
N371 C372 1.316 . S
N371 C373 1.375 . S
C372 N371 1.316 . S
C372 N374 1.347 . S
C372 H383 0.931 . S
C373 N371 1.375 . S
C373 C375 1.350 . S
C373 H382 0.930 . S
N374 C372 1.347 . S
N374 C375 1.373 . S
C375 C373 1.350 . S
C375 N374 1.373 . S
C375 H389 0.931 . S
C376 O379 1.256 . S
C376 O380 1.255 . S
O377 Co360 2.021 . S
O377 C370 1.259 . S
O378 Co362 2.117 . S
O378 C370 1.258 . S
O379 Co362 2.020 . S
O379 C376 1.256 . S
O380 Co360 2.062 . S
O380 C376 1.255 . S
O381 C361 1.259 . S
O381 Co362 2.021 . S
H382 C373 0.930 . S
H383 C372 0.931 . S
O384 Co360 2.117 . S
O384 C361 1.258 . S
O385 Co360 2.020 . S
O385 C387 1.256 . S
O386 Co362 2.062 . S
O386 C387 1.255 . S
C387 O385 1.256 . S
C387 O386 1.255 . S
H388 C367 0.931 1_655 S
H389 C375 0.931 . S
Co390 N395 2.057 . S
Co390 O407 2.021 . S
Co390 O410 2.062 . S
Co390 O414 2.117 . S
Co390 O415 2.020 . S
C391 O411 1.259 . S
C391 O414 1.258 . S
Co392 N401 2.057 . S
Co392 O408 2.117 . S
Co392 O409 2.020 1_655 S
Co392 O411 2.021 . S
Co392 O416 2.062 . S
C393 N395 1.316 . S
C393 N396 1.347 . S
C393 H398 0.931 . S
C394 N395 1.375 . S
C394 C397 1.350 . S
C394 H399 0.930 . S
N395 Co390 2.057 . S
N395 C393 1.316 . S
N395 C394 1.375 . S
N396 C393 1.347 . S
N396 C397 1.373 . S
C397 C394 1.350 . S
C397 N396 1.373 . S
C397 H418 0.931 . S
H398 C393 0.931 . S
H399 C394 0.930 . S
C400 O407 1.259 . S
C400 O408 1.258 . S
N401 Co392 2.057 . S
N401 C402 1.316 . S
N401 C403 1.375 1_565 S
C402 N401 1.316 . S
C402 N404 1.347 1_565 S
C402 H413 0.931 . S
C403 N401 1.375 1_545 S
C403 C405 1.350 . S
C403 H412 0.930 . S
N404 C402 1.347 1_545 S
N404 C405 1.373 . S
C405 C403 1.350 . S
C405 N404 1.373 . S
C405 H419 0.931 . S
C406 O409 1.256 . S
C406 O410 1.255 1_455 S
O407 Co390 2.021 . S
O407 C400 1.259 . S
O408 Co392 2.117 . S
O408 C400 1.258 . S
O409 Co392 2.020 1_455 S
O409 C406 1.256 . S
O410 Co390 2.062 . S
O410 C406 1.255 1_655 S
O411 C391 1.259 . S
O411 Co392 2.021 . S
H412 C403 0.930 . S
H413 C402 0.931 . S
O414 Co390 2.117 . S
O414 C391 1.258 . S
O415 Co390 2.020 . S
O415 C417 1.256 . S
O416 Co392 2.062 . S
O416 C417 1.255 . S
C417 O415 1.256 . S
C417 O416 1.255 . S
H418 C397 0.931 . S
H419 C405 0.931 . S
Co420 N425 2.057 . S
Co420 O437 2.021 . S
Co420 O440 2.062 . S
Co420 O444 2.117 . S
Co420 O445 2.020 . S
C421 O441 1.259 . S
C421 O444 1.258 . S
Co422 N431 2.057 . S
Co422 O438 2.117 . S
Co422 O439 2.020 . S
Co422 O441 2.021 . S
Co422 O446 2.062 . S
C423 N425 1.316 . S
C423 N426 1.347 . S
C423 H428 0.931 . S
C424 N425 1.375 . S
C424 C427 1.350 . S
C424 H429 0.930 . S
N425 Co420 2.057 . S
N425 C423 1.316 . S
N425 C424 1.375 . S
N426 C423 1.347 . S
N426 C427 1.373 . S
C427 C424 1.350 . S
C427 N426 1.373 . S
C427 H448 0.931 . S
H428 C423 0.931 . S
H429 C424 0.930 . S
C430 O437 1.259 . S
C430 O438 1.258 . S
N431 Co422 2.057 . S
N431 C432 1.316 . S
N431 C433 1.375 . S
C432 N431 1.316 . S
C432 N434 1.347 . S
C432 H443 0.931 . S
C433 N431 1.375 . S
C433 C435 1.350 . S
C433 H442 0.930 . S
N434 C432 1.347 . S
N434 C435 1.373 . S
C435 C433 1.350 . S
C435 N434 1.373 . S
C435 H449 0.931 . S
C436 O439 1.256 . S
C436 O440 1.255 . S
O437 Co420 2.021 . S
O437 C430 1.259 . S
O438 Co422 2.117 . S
O438 C430 1.258 . S
O439 Co422 2.020 . S
O439 C436 1.256 . S
O440 Co420 2.062 . S
O440 C436 1.255 . S
O441 C421 1.259 . S
O441 Co422 2.021 . S
H442 C433 0.930 . S
H443 C432 0.931 . S
O444 Co420 2.117 . S
O444 C421 1.258 . S
O445 Co420 2.020 . S
O445 C447 1.256 . S
O446 Co422 2.062 . S
O446 C447 1.255 . S
C447 O445 1.256 . S
C447 O446 1.255 . S
H448 C427 0.931 . S
H449 C435 0.931 . S
Co450 N455 2.057 . S
Co450 O467 2.021 . S
Co450 O470 2.062 . S
Co450 O474 2.117 . S
Co450 O475 2.020 . S
C451 O471 1.259 . S
C451 O474 1.258 . S
Co452 N461 2.057 . S
Co452 O468 2.117 . S
Co452 O469 2.020 . S
Co452 O471 2.021 . S
Co452 O476 2.062 . S
C453 N455 1.316 . S
C453 N456 1.347 . S
C453 H458 0.931 . S
C454 N455 1.375 . S
C454 C457 1.350 . S
C454 H459 0.930 . S
N455 Co450 2.057 . S
N455 C453 1.316 . S
N455 C454 1.375 . S
N456 C453 1.347 . S
N456 C457 1.373 . S
C457 C454 1.350 . S
C457 N456 1.373 . S
C457 H478 0.931 . S
H458 C453 0.931 . S
H459 C454 0.930 . S
C460 O467 1.272 . S
C460 O468 1.260 . S
N461 Co452 2.057 . S
N461 C462 1.316 . S
N461 C463 1.375 1_545 S
C462 N461 1.316 . S
C462 N464 1.347 . S
C462 H473 0.931 . S
C463 N461 1.375 1_565 S
C463 C465 1.350 . S
C463 H472 0.930 . S
N464 C462 1.347 . S
N464 C465 1.373 1_545 S
C465 C463 1.350 . S
C465 N464 1.373 1_565 S
C465 H479 0.931 . S
C466 O469 1.256 . S
C466 O470 1.255 . S
O467 Co450 2.021 . S
O467 C460 1.272 . S
O468 Co452 2.117 . S
O468 C460 1.260 . S
O469 Co452 2.020 . S
O469 C466 1.256 . S
O470 Co450 2.062 . S
O470 C466 1.255 . S
O471 C451 1.259 . S
O471 Co452 2.021 . S
H472 C463 0.930 . S
H473 C462 0.931 . S
O474 Co450 2.117 . S
O474 C451 1.258 . S
O475 Co450 2.020 . S
O475 C477 1.256 . S
O476 Co452 2.062 . S
O476 C477 1.255 . S
C477 O475 1.256 . S
C477 O476 1.255 . S
H478 C457 0.931 . S
H479 C465 0.931 . S
C480 C481 1.387 . S
C480 H484 0.950 . S
C480 C489 1.390 . S
C481 C480 1.387 . S
C481 C483 1.387 . S
H482 C489 0.950 . S
C483 C481 1.387 . S
C483 C485 1.390 . S
C483 H487 0.950 . S
H484 C480 0.950 . S
C485 C483 1.390 . S
C485 C486 1.387 . S
C485 H488 0.950 . S
C486 C485 1.387 . S
C486 C489 1.387 . S
H487 C483 0.950 . S
H488 C485 0.950 . S
C489 C480 1.390 . S
C489 H482 0.950 . S
C489 C486 1.387 . S
C490 C491 1.387 . S
C490 H494 0.950 . S
C490 C499 1.390 . S
C491 C490 1.387 . S
C491 C493 1.387 . S
H492 C499 0.950 . S
C493 C491 1.387 . S
C493 C495 1.390 . S
C493 H497 0.950 . S
H494 C490 0.950 . S
C495 C493 1.390 . S
C495 C496 1.387 . S
C495 H498 0.950 . S
C496 C495 1.387 . S
C496 C499 1.387 . S
H497 C493 0.950 . S
H498 C495 0.950 . S
C499 C490 1.390 . S
C499 H492 0.950 . S
C499 C496 1.387 . S
C500 C501 1.387 . S
C500 H504 0.950 . S
C500 C509 1.390 1_455 S
C501 C500 1.387 . S
C501 C503 1.387 . S
H502 C509 0.950 . S
C503 C501 1.387 . S
C503 C505 1.390 1_455 S
C503 H507 0.950 . S
H504 C500 0.950 . S
C505 C503 1.390 1_655 S
C505 C506 1.387 . S
C505 H508 0.950 . S
C506 C505 1.387 . S
C506 C509 1.387 . S
H507 C503 0.950 . S
H508 C505 0.950 . S
C509 C500 1.390 1_655 S
C509 H502 0.950 . S
C509 C506 1.387 . S
C510 C511 1.387 1_655 S
C510 H514 0.950 . S
C510 C519 1.390 . S
C511 C510 1.387 1_455 S
C511 C513 1.387 1_455 S
H512 C519 0.950 . S
C513 C511 1.387 1_655 S
C513 C515 1.390 . S
C513 H517 0.950 1_655 S
H514 C510 0.950 . S
C515 C513 1.390 . S
C515 C516 1.387 . S
C515 H518 0.950 . S
C516 C515 1.387 . S
C516 C519 1.387 . S
H517 C513 0.950 1_455 S
H518 C515 0.950 . S
C519 C510 1.390 . S
C519 H512 0.950 . S
C519 C516 1.387 . S
C520 C521 1.387 . S
C520 H524 0.950 . S
C520 C529 1.390 . S
C521 C520 1.387 . S
C521 C523 1.387 . S
H522 C529 0.950 . S
C523 C521 1.387 . S
C523 C525 1.390 . S
C523 H527 0.950 . S
H524 C520 0.950 . S
C525 C523 1.390 . S
C525 C526 1.387 . S
C525 H528 0.950 . S
C526 C525 1.387 . S
C526 C529 1.387 . S
H527 C523 0.950 . S
H528 C525 0.950 . S
C529 C520 1.390 . S
C529 H522 0.950 . S
C529 C526 1.387 . S
C530 C531 1.387 . S
C530 H534 0.950 . S
C530 C539 1.390 . S
C531 C530 1.387 . S
C531 C533 1.387 . S
H532 C539 0.950 . S
C533 C531 1.387 . S
C533 C535 1.390 . S
C533 H537 0.950 . S
H534 C530 0.950 . S
C535 C533 1.390 . S
C535 C536 1.387 . S
C535 H538 0.950 . S
C536 C535 1.387 . S
C536 C539 1.387 . S
H537 C533 0.950 . S
H538 C535 0.950 . S
C539 C530 1.390 . S
C539 H532 0.950 . S
C539 C536 1.387 . S
C540 C541 1.387 . S
C540 H544 0.950 . S
C540 C549 1.390 1_455 S
C541 C540 1.387 . S
C541 C543 1.387 . S
H542 C549 0.950 . S
C543 C541 1.387 . S
C543 C545 1.390 1_455 S
C543 H547 0.950 . S
H544 C540 0.950 . S
C545 C543 1.390 1_655 S
C545 C546 1.387 . S
C545 H548 0.950 . S
C546 C545 1.387 . S
C546 C549 1.387 . S
H547 C543 0.950 . S
H548 C545 0.950 . S
C549 C540 1.390 1_655 S
C549 H542 0.950 . S
C549 C546 1.387 . S
C550 C551 1.387 . S
C550 H554 0.950 . S
C550 C559 1.390 . S
C551 C550 1.387 . S
C551 C553 1.387 . S
H552 C559 0.950 . S
C553 C551 1.387 . S
C553 C555 1.390 1_455 S
C553 H557 0.950 1_455 S
H554 C550 0.950 . S
C555 C553 1.390 1_655 S
C555 C556 1.387 . S
C555 H558 0.950 . S
C556 C555 1.387 . S
C556 C559 1.387 1_655 S
H557 C553 0.950 1_655 S
H558 C555 0.950 . S
C559 C550 1.390 . S
C559 H552 0.950 . S
C559 C556 1.387 1_455 S
C560 C561 1.387 . S
C560 H564 0.950 . S
C560 C569 1.390 1_554 S
C561 C560 1.387 . S
C561 C563 1.387 1_545 S
H562 C569 0.950 . S
C563 C561 1.387 1_565 S
C563 C565 1.390 1_554 S
C563 H567 0.950 . S
H564 C560 0.950 . S
C565 C563 1.390 1_556 S
C565 C566 1.387 . S
C565 H568 0.950 . S
C566 C565 1.387 . S
C566 C569 1.387 1_565 S
H567 C563 0.950 . S
H568 C565 0.950 . S
C569 C560 1.390 1_556 S
C569 H562 0.950 . S
C569 C566 1.387 1_545 S
C570 C571 1.387 . S
C570 H574 0.950 . S
C570 C579 1.390 . S
C571 C570 1.387 . S
C571 C573 1.387 . S
H572 C579 0.950 . S
C573 C571 1.387 . S
C573 C575 1.390 . S
C573 H577 0.950 . S
H574 C570 0.950 . S
C575 C573 1.390 . S
C575 C576 1.387 . S
C575 H578 0.950 . S
C576 C575 1.387 . S
C576 C579 1.387 . S
H577 C573 0.950 . S
H578 C575 0.950 . S
C579 C570 1.390 . S
C579 H572 0.950 . S
C579 C576 1.387 . S
C580 C581 1.384 1_665 S
C580 H584 0.950 . S
C580 C589 1.395 . S
C581 C580 1.384 1_445 S
C581 C583 1.387 . S
H582 C589 0.950 . S
C583 C581 1.387 . S
C583 C585 1.395 . S
C583 H587 0.950 . S
H584 C580 0.950 . S
C585 C583 1.395 . S
C585 C586 1.384 1_445 S
C585 H588 0.950 . S
C586 C585 1.384 1_665 S
C586 C589 1.387 . S
H587 C583 0.950 . S
H588 C585 0.950 . S
C589 C580 1.395 . S
C589 H582 0.950 . S
C589 C586 1.387 . S
C590 C591 1.387 . S
C590 H594 0.950 . S
C590 C599 1.390 . S
C591 C590 1.387 . S
C591 C593 1.387 . S
H592 C599 0.950 . S
C593 C591 1.387 . S
C593 C595 1.390 . S
C593 H597 0.950 . S
H594 C590 0.950 . S
C595 C593 1.390 . S
C595 C596 1.387 . S
C595 H598 0.950 . S
C596 C595 1.387 . S
C596 C599 1.387 . S
H597 C593 0.950 . S
H598 C595 0.950 . S
C599 C590 1.390 . S
C599 H592 0.950 . S
C599 C596 1.387 . S
C600 C601 1.387 . S
C600 H604 0.950 . S
C600 C609 1.390 . S
C601 C600 1.387 . S
C601 C603 1.387 . S
H602 C609 0.950 . S
C603 C601 1.387 . S
C603 C605 1.390 . S
C603 H607 0.950 . S
H604 C600 0.950 . S
C605 C603 1.390 . S
C605 C606 1.387 . S
C605 H608 0.950 . S
C606 C605 1.387 . S
C606 C609 1.387 . S
H607 C603 0.950 . S
H608 C605 0.950 . S
C609 C600 1.390 . S
C609 H602 0.950 . S
C609 C606 1.387 . S
C610 C611 1.387 . S
C610 H614 0.950 . S
C610 C619 1.390 . S
C611 C610 1.387 . S
C611 C613 1.387 . S
H612 C619 0.950 . S
C613 C611 1.387 . S
C613 C615 1.390 . S
C613 H617 0.950 . S
H614 C610 0.950 . S
C615 C613 1.390 . S
C615 C616 1.387 . S
C615 H618 0.950 . S
C616 C615 1.387 . S
C616 C619 1.387 . S
H617 C613 0.950 . S
H618 C615 0.950 . S
C619 C610 1.390 . S
C619 H612 0.950 . S
C619 C616 1.387 . S
C620 C621 1.387 . S
C620 H624 0.950 . S
C620 C629 1.390 1_455 S
C621 C620 1.387 . S
C621 C623 1.387 . S
H622 C629 0.950 . S
C623 C621 1.387 . S
C623 C625 1.390 1_455 S
C623 H627 0.950 . S
H624 C620 0.950 . S
C625 C623 1.390 1_655 S
C625 C626 1.387 . S
C625 H628 0.950 . S
C626 C625 1.387 . S
C626 C629 1.387 . S
H627 C623 0.950 . S
H628 C625 0.950 . S
C629 C620 1.390 1_655 S
C629 H622 0.950 . S
C629 C626 1.387 . S
C630 C631 1.387 . S
C630 H634 0.950 . S
C630 C639 1.390 1_554 S
C631 C630 1.387 . S
C631 C633 1.387 . S
H632 C639 0.950 . S
C633 C631 1.387 . S
C633 C635 1.390 1_554 S
C633 H637 0.950 . S
H634 C630 0.950 . S
C635 C633 1.390 1_556 S
C635 C636 1.387 . S
C635 H638 0.950 . S
C636 C635 1.387 . S
C636 C639 1.387 . S
H637 C633 0.950 . S
H638 C635 0.950 . S
C639 C630 1.390 1_556 S
C639 H632 0.950 . S
C639 C636 1.387 . S
C640 C641 1.387 . S
C640 H644 0.950 . S
C640 C649 1.390 . S
C641 C640 1.387 . S
C641 C643 1.387 . S
H642 C649 0.950 . S
C643 C641 1.387 . S
C643 C645 1.390 . S
C643 H647 0.950 . S
H644 C640 0.950 . S
C645 C643 1.390 . S
C645 C646 1.387 . S
C645 H648 0.950 . S
C646 C645 1.387 . S
C646 C649 1.387 . S
H647 C643 0.950 . S
H648 C645 0.950 . S
C649 C640 1.390 . S
C649 H642 0.950 . S
C649 C646 1.387 . S
C650 C651 1.387 . S
C650 H654 0.950 . S
C650 C659 1.390 . S
C651 C650 1.387 . S
C651 C653 1.387 . S
H652 C659 0.950 . S
C653 C651 1.387 . S
C653 C655 1.390 . S
C653 H657 0.950 . S
H654 C650 0.950 . S
C655 C653 1.390 . S
C655 C656 1.387 . S
C655 H658 0.950 . S
C656 C655 1.387 . S
C656 C659 1.387 . S
H657 C653 0.950 . S
H658 C655 0.950 . S
C659 C650 1.390 . S
C659 H652 0.950 . S
C659 C656 1.387 . S
C660 C661 1.387 . S
C660 H664 0.950 . S
C660 C669 1.390 . S
C661 C660 1.387 . S
C661 C663 1.387 . S
H662 C669 0.950 . S
C663 C661 1.387 . S
C663 C665 1.390 . S
C663 H667 0.950 . S
H664 C660 0.950 . S
C665 C663 1.390 . S
C665 C666 1.387 . S
C665 H668 0.950 . S
C666 C665 1.387 . S
C666 C669 1.387 . S
H667 C663 0.950 . S
H668 C665 0.950 . S
C669 C660 1.390 . S
C669 H662 0.950 . S
C669 C666 1.387 . S
C670 C671 1.387 . S
C670 H674 0.950 1_455 S
C670 C679 1.390 . S
C671 C670 1.387 . S
C671 C673 1.387 . S
H672 C679 0.950 . S
C673 C671 1.387 . S
C673 C675 1.390 . S
C673 H677 0.950 . S
H674 C670 0.950 1_655 S
C675 C673 1.390 . S
C675 C676 1.387 . S
C675 H678 0.950 . S
C676 C675 1.387 . S
C676 C679 1.387 . S
H677 C673 0.950 . S
H678 C675 0.950 . S
C679 C670 1.390 . S
C679 H672 0.950 . S
C679 C676 1.387 . S
C680 C681 1.387 . S
C680 H684 0.950 . S
C680 C689 1.390 . S
C681 C680 1.387 . S
C681 C683 1.387 . S
H682 C689 0.950 . S
C683 C681 1.387 . S
C683 C685 1.390 . S
C683 H687 0.950 . S
H684 C680 0.950 . S
C685 C683 1.390 . S
C685 C686 1.387 . S
C685 H688 0.950 . S
C686 C685 1.387 . S
C686 C689 1.387 . S
H687 C683 0.950 . S
H688 C685 0.950 . S
C689 C680 1.390 . S
C689 H682 0.950 . S
C689 C686 1.387 . S
C690 C691 1.387 . S
C690 H694 0.950 . S
C690 C699 1.390 . S
C691 C690 1.387 . S
C691 C693 1.387 . S
H692 C699 0.950 . S
C693 C691 1.387 . S
C693 C695 1.390 . S
C693 H697 0.950 . S
H694 C690 0.950 . S
C695 C693 1.390 . S
C695 C696 1.387 . S
C695 H698 0.950 . S
C696 C695 1.387 . S
C696 C699 1.387 . S
H697 C693 0.950 . S
H698 C695 0.950 . S
C699 C690 1.390 . S
C699 H692 0.950 . S
C699 C696 1.387 . S
C700 C701 1.387 . S
C700 H704 0.950 . S
C700 C709 1.390 . S
C701 C700 1.387 . S
C701 C703 1.387 . S
H702 C709 0.950 . S
C703 C701 1.387 . S
C703 C705 1.390 . S
C703 H707 0.950 . S
H704 C700 0.950 . S
C705 C703 1.390 . S
C705 C706 1.387 . S
C705 H708 0.950 . S
C706 C705 1.387 . S
C706 C709 1.387 . S
H707 C703 0.950 . S
H708 C705 0.950 . S
C709 C700 1.390 . S
C709 H702 0.950 . S
C709 C706 1.387 . S
C710 C711 1.387 . S
C710 H714 0.950 . S
C710 C719 1.390 . S
C711 C710 1.387 . S
C711 C713 1.387 . S
H712 C719 0.950 . S
C713 C711 1.387 . S
C713 C715 1.390 . S
C713 H717 0.950 . S
H714 C710 0.950 . S
C715 C713 1.390 . S
C715 C716 1.387 . S
C715 H718 0.950 . S
C716 C715 1.387 . S
C716 C719 1.387 . S
H717 C713 0.950 . S
H718 C715 0.950 . S
C719 C710 1.390 . S
C719 H712 0.950 . S
C719 C716 1.387 . S
C720 C721 1.387 . S
C720 H724 0.950 . S
C720 C729 1.390 . S
C721 C720 1.387 . S
C721 C723 1.387 . S
H722 C729 0.950 . S
C723 C721 1.387 . S
C723 C725 1.390 . S
C723 H727 0.950 . S
H724 C720 0.950 . S
C725 C723 1.390 . S
C725 C726 1.387 . S
C725 H728 0.950 . S
C726 C725 1.387 . S
C726 C729 1.387 . S
H727 C723 0.950 . S
H728 C725 0.950 . S
C729 C720 1.390 . S
C729 H722 0.950 . S
C729 C726 1.387 . S
C730 C731 1.387 . S
C730 H734 0.950 . S
C730 C739 1.390 1_565 S
C731 C730 1.387 . S
C731 C733 1.387 . S
H732 C739 0.950 . S
C733 C731 1.387 . S
C733 C735 1.390 . S
C733 H737 0.950 . S
H734 C730 0.950 . S
C735 C733 1.390 . S
C735 C736 1.387 . S
C735 H738 0.950 . S
C736 C735 1.387 . S
C736 C739 1.387 1_565 S
H737 C733 0.950 . S
H738 C735 0.950 . S
C739 C730 1.390 1_545 S
C739 H732 0.950 . S
C739 C736 1.387 1_545 S
C740 C741 1.387 . S
C740 H744 0.950 . S
C740 C749 1.390 . S
C741 C740 1.387 . S
C741 C743 1.387 . S
H742 C749 0.950 . S
C743 C741 1.387 . S
C743 C745 1.390 . S
C743 H747 0.950 . S
H744 C740 0.950 . S
C745 C743 1.390 . S
C745 C746 1.387 . S
C745 H748 0.950 . S
C746 C745 1.387 . S
C746 C749 1.387 . S
H747 C743 0.950 . S
H748 C745 0.950 . S
C749 C740 1.390 . S
C749 H742 0.950 . S
C749 C746 1.387 . S
C750 C751 1.387 . S
C750 H754 0.950 1_545 S
C750 C759 1.390 1_545 S
C751 C750 1.387 . S
C751 C753 1.387 . S
H752 C759 0.950 . S
C753 C751 1.387 . S
C753 C755 1.390 . S
C753 H757 0.950 . S
H754 C750 0.950 1_565 S
C755 C753 1.390 . S
C755 C756 1.387 . S
C755 H758 0.950 . S
C756 C755 1.387 . S
C756 C759 1.387 1_545 S
H757 C753 0.950 . S
H758 C755 0.950 . S
C759 C750 1.390 1_565 S
C759 H752 0.950 . S
C759 C756 1.387 1_565 S
C760 C761 1.387 . S
C760 H764 0.950 . S
C760 C769 1.390 . S
C761 C760 1.387 . S
C761 C763 1.387 . S
H762 C769 0.950 . S
C763 C761 1.387 . S
C763 C765 1.390 . S
C763 H767 0.950 . S
H764 C760 0.950 . S
C765 C763 1.390 . S
C765 C766 1.387 . S
C765 H768 0.950 . S
C766 C765 1.387 . S
C766 C769 1.387 . S
H767 C763 0.950 . S
H768 C765 0.950 . S
C769 C760 1.390 . S
C769 H762 0.950 . S
C769 C766 1.387 . S
C770 C771 1.387 . S
C770 H774 0.950 . S
C770 C779 1.390 . S
C771 C770 1.387 . S
C771 C773 1.387 1_545 S
H772 C779 0.950 . S
C773 C771 1.387 1_565 S
C773 C775 1.390 . S
C773 H777 0.950 . S
H774 C770 0.950 . S
C775 C773 1.390 . S
C775 C776 1.387 1_565 S
C775 H778 0.950 . S
C776 C775 1.387 1_545 S
C776 C779 1.387 . S
H777 C773 0.950 . S
H778 C775 0.950 . S
C779 C770 1.390 . S
C779 H772 0.950 . S
C779 C776 1.387 . S
C780 C781 1.387 . S
C780 H784 0.950 1_565 S
C780 C789 1.390 . S
C781 C780 1.387 . S
C781 C783 1.387 . S
H782 C789 0.950 . S
C783 C781 1.387 . S
C783 C785 1.390 . S
C783 H787 0.950 . S
H784 C780 0.950 1_545 S
C785 C783 1.390 . S
C785 C786 1.387 . S
C785 H788 0.950 . S
C786 C785 1.387 . S
C786 C789 1.387 . S
H787 C783 0.950 . S
H788 C785 0.950 . S
C789 C780 1.390 . S
C789 H782 0.950 . S
C789 C786 1.387 . S
C790 C791 1.387 . S
C790 H794 0.950 . S
C790 C799 1.390 . S
C791 C790 1.387 . S
C791 C793 1.387 1_565 S
H792 C799 0.950 . S
C793 C791 1.387 1_545 S
C793 C795 1.390 1_545 S
C793 H797 0.950 . S
H794 C790 0.950 . S
C795 C793 1.390 1_565 S
C795 C796 1.387 . S
C795 H798 0.950 1_565 S
C796 C795 1.387 . S
C796 C799 1.387 . S
H797 C793 0.950 . S
H798 C795 0.950 1_545 S
C799 C790 1.390 . S
C799 H792 0.950 . S
C799 C796 1.387 . S
C800 C801 1.387 . S
C800 H804 0.950 . S
C800 C809 1.390 . S
C801 C800 1.387 . S
C801 C803 1.387 . S
H802 C809 0.950 . S
C803 C801 1.387 . S
C803 C805 1.390 . S
C803 H807 0.950 . S
H804 C800 0.950 . S
C805 C803 1.390 . S
C805 C806 1.387 . S
C805 H808 0.950 . S
C806 C805 1.387 . S
C806 C809 1.387 . S
H807 C803 0.950 . S
H808 C805 0.950 . S
C809 C800 1.390 . S
C809 H802 0.950 . S
C809 C806 1.387 . S
C810 C811 1.387 . S
C810 H814 0.950 . S
C810 C819 1.390 . S
C811 C810 1.387 . S
C811 C813 1.387 . S
H812 C819 0.950 . S
C813 C811 1.387 . S
C813 C815 1.390 . S
C813 H817 0.950 . S
H814 C810 0.950 . S
C815 C813 1.390 . S
C815 C816 1.387 . S
C815 H818 0.950 . S
C816 C815 1.387 . S
C816 C819 1.387 . S
H817 C813 0.950 . S
H818 C815 0.950 . S
C819 C810 1.390 . S
C819 H812 0.950 . S
C819 C816 1.387 . S
C820 C821 1.387 . S
C820 H824 0.950 . S
C820 C829 1.390 . S
C821 C820 1.387 . S
C821 C823 1.387 . S
H822 C829 0.950 . S
C823 C821 1.387 . S
C823 C825 1.390 . S
C823 H827 0.950 . S
H824 C820 0.950 . S
C825 C823 1.390 . S
C825 C826 1.387 . S
C825 H828 0.950 . S
C826 C825 1.387 . S
C826 C829 1.387 . S
H827 C823 0.950 . S
H828 C825 0.950 . S
C829 C820 1.390 . S
C829 H822 0.950 . S
C829 C826 1.387 . S
C830 C831 1.387 . S
C830 H834 0.950 . S
C830 C839 1.390 . S
C831 C830 1.387 . S
C831 C833 1.387 . S
H832 C839 0.950 . S
C833 C831 1.387 . S
C833 C835 1.390 . S
C833 H837 0.950 . S
H834 C830 0.950 . S
C835 C833 1.390 . S
C835 C836 1.387 . S
C835 H838 0.950 . S
C836 C835 1.387 . S
C836 C839 1.387 . S
H837 C833 0.950 . S
H838 C835 0.950 . S
C839 C830 1.390 . S
C839 H832 0.950 . S
C839 C836 1.387 . S
C840 C841 1.387 . S
C840 H844 0.950 . S
C840 C849 1.390 . S
C841 C840 1.387 . S
C841 C843 1.387 . S
H842 C849 0.950 . S
C843 C841 1.387 . S
C843 C845 1.390 . S
C843 H847 0.950 . S
H844 C840 0.950 . S
C845 C843 1.390 . S
C845 C846 1.387 . S
C845 H848 0.950 . S
C846 C845 1.387 . S
C846 C849 1.387 . S
H847 C843 0.950 . S
H848 C845 0.950 . S
C849 C840 1.390 . S
C849 H842 0.950 . S
C849 C846 1.387 . S
C850 C851 1.387 . S
C850 H854 0.950 . S
C850 C859 1.390 . S
C851 C850 1.387 . S
C851 C853 1.387 . S
H852 C859 0.950 . S
C853 C851 1.387 . S
C853 C855 1.390 . S
C853 H857 0.950 . S
H854 C850 0.950 . S
C855 C853 1.390 . S
C855 C856 1.387 . S
C855 H858 0.950 . S
C856 C855 1.387 . S
C856 C859 1.387 . S
H857 C853 0.950 . S
H858 C855 0.950 . S
C859 C850 1.390 . S
C859 H852 0.950 . S
C859 C856 1.387 . S
C860 C861 1.387 . S
C860 H864 0.950 . S
C860 C869 1.390 . S
C861 C860 1.387 . S
C861 C863 1.387 . S
H862 C869 0.950 . S
C863 C861 1.387 . S
C863 C865 1.390 . S
C863 H867 0.950 . S
H864 C860 0.950 . S
C865 C863 1.390 . S
C865 C866 1.387 . S
C865 H868 0.950 . S
C866 C865 1.387 . S
C866 C869 1.387 . S
H867 C863 0.950 . S
H868 C865 0.950 . S
C869 C860 1.390 . S
C869 H862 0.950 . S
C869 C866 1.387 . S
C870 C871 1.387 . S
C870 H874 0.950 . S
C870 C879 1.390 . S
C871 C870 1.387 . S
C871 C873 1.387 . S
H872 C879 0.950 1_655 S
C873 C871 1.387 . S
C873 C875 1.390 . S
C873 H877 0.950 . S
H874 C870 0.950 . S
C875 C873 1.390 . S
C875 C876 1.387 . S
C875 H878 0.950 . S
C876 C875 1.387 . S
C876 C879 1.387 . S
H877 C873 0.950 . S
H878 C875 0.950 . S
C879 C870 1.390 . S
C879 H872 0.950 1_455 S
C879 C876 1.387 . S
C880 C881 1.387 . S
C880 H884 0.950 . S
C880 C889 1.390 . S
C881 C880 1.387 . S
C881 C883 1.387 . S
H882 C889 0.950 . S
C883 C881 1.387 . S
C883 C885 1.390 . S
C883 H887 0.950 . S
H884 C880 0.950 . S
C885 C883 1.390 . S
C885 C886 1.387 . S
C885 H888 0.950 . S
C886 C885 1.387 . S
C886 C889 1.387 . S
H887 C883 0.950 . S
H888 C885 0.950 . S
C889 C880 1.390 . S
C889 H882 0.950 . S
C889 C886 1.387 . S
C890 C891 1.387 . S
C890 H894 0.950 . S
C890 C899 1.390 . S
C891 C890 1.387 . S
C891 C893 1.387 . S
H892 C899 0.950 1_545 S
C893 C891 1.387 . S
C893 C895 1.390 . S
C893 H897 0.950 . S
H894 C890 0.950 . S
C895 C893 1.390 . S
C895 C896 1.387 . S
C895 H898 0.950 . S
C896 C895 1.387 . S
C896 C899 1.387 . S
H897 C893 0.950 . S
H898 C895 0.950 . S
C899 C890 1.390 . S
C899 H892 0.950 1_565 S
C899 C896 1.387 . S
C900 C901 1.387 . S
C900 H904 0.950 . S
C900 C909 1.390 . S
C901 C900 1.387 . S
C901 C903 1.387 . S
H902 C909 0.964 . S
C903 C901 1.387 . S
C903 C905 1.390 . S
C903 H907 0.950 . S
H904 C900 0.950 . S
C905 C903 1.390 . S
C905 C906 1.387 1_556 S
C905 H908 0.950 1_556 S
C906 C905 1.387 1_554 S
C906 C909 1.387 1_554 S
H907 C903 0.950 . S
H908 C905 0.950 1_554 S
C909 C900 1.390 . S
C909 H902 0.964 . S
C909 C906 1.387 1_556 S
C910 C911 1.387 . S
C910 H914 0.950 . S
C910 C919 1.390 . S
C911 C910 1.387 . S
C911 C913 1.387 . S
H912 C919 0.950 . S
C913 C911 1.387 . S
C913 C915 1.390 . S
C913 H917 0.950 . S
H914 C910 0.950 . S
C915 C913 1.390 . S
C915 C916 1.387 . S
C915 H918 0.950 . S
C916 C915 1.387 . S
C916 C919 1.387 . S
H917 C913 0.950 . S
H918 C915 0.950 . S
C919 C910 1.390 . S
C919 H912 0.950 . S
C919 C916 1.387 . S
C920 C921 1.387 . S
C920 H924 0.950 . S
C920 C929 1.390 . S
C921 C920 1.387 . S
C921 C923 1.387 . S
H922 C929 0.950 . S
C923 C921 1.387 . S
C923 C925 1.390 . S
C923 H927 0.950 . S
H924 C920 0.950 . S
C925 C923 1.390 . S
C925 C926 1.387 . S
C925 H928 0.950 . S
C926 C925 1.387 . S
C926 C929 1.387 . S
H927 C923 0.950 . S
H928 C925 0.950 . S
C929 C920 1.390 . S
C929 H922 0.950 . S
C929 C926 1.387 . S
C930 C931 1.387 . S
C930 H934 0.950 . S
C930 C939 1.390 . S
C931 C930 1.387 . S
C931 C933 1.387 . S
H932 C939 0.950 1_565 S
C933 C931 1.387 . S
C933 C935 1.390 . S
C933 H937 0.950 . S
H934 C930 0.950 . S
C935 C933 1.390 . S
C935 C936 1.387 . S
C935 H938 0.950 . S
C936 C935 1.387 . S
C936 C939 1.387 . S
H937 C933 0.950 . S
H938 C935 0.950 . S
C939 C930 1.390 . S
C939 H932 0.950 1_545 S
C939 C936 1.387 . S
C940 C941 1.387 . S
C940 H944 0.950 . S
C940 C949 1.390 . S
C941 C940 1.387 . S
C941 C943 1.387 . S
H942 C949 0.950 . S
C943 C941 1.387 . S
C943 C945 1.390 1_554 S
C943 H947 0.950 . S
H944 C940 0.950 . S
C945 C943 1.390 1_556 S
C945 C946 1.387 . S
C945 H948 0.950 . S
C946 C945 1.387 . S
C946 C949 1.387 1_556 S
H947 C943 0.950 . S
H948 C945 0.950 . S
C949 C940 1.390 . S
C949 H942 0.950 . S
C949 C946 1.387 1_554 S
C950 C951 1.387 . S
C950 H954 0.950 . S
C950 C959 1.390 . S
C951 C950 1.387 . S
C951 C953 1.387 . S
H952 C959 0.950 1_545 S
C953 C951 1.387 . S
C953 C955 1.390 . S
C953 H957 0.950 . S
H954 C950 0.950 . S
C955 C953 1.390 . S
C955 C956 1.387 . S
C955 H958 0.950 . S
C956 C955 1.387 . S
C956 C959 1.387 . S
H957 C953 0.950 . S
H958 C955 0.950 . S
C959 C950 1.390 . S
C959 H952 0.950 1_565 S
C959 C956 1.387 . S
C481 C10 0.529 . S
C486 C301 0.596 . S
C491 C40 0.538 . S
C496 C340 0.532 . S
C501 C61 0.595 . S
C506 C250 0.528 . S
C511 C280 0.541 . S
C516 C100 0.535 . S
C521 C121 0.528 . S
C526 C430 0.594 . S
C531 C451 0.535 . S
C536 C151 0.541 . S
C541 C361 0.518 . S
C546 C190 0.588 . S
C551 C211 0.532 . S
C556 C391 0.537 . S
C561 C16 2.473 . S
C566 C147 2.473 . S
C571 C46 2.176 . S
C576 C417 2.176 . S
C581 N74 1.970 . S
C586 N186 1.970 . S
C591 C106 2.718 . S
C596 C477 2.718 . S
C601 C177 2.174 . S
C606 C286 2.174 . S
C611 C346 2.719 . S
C616 C237 2.719 . S
C621 C387 2.474 . S
C626 C256 2.474 . S
C631 N314 1.971 . S
C636 N426 1.971 . S
C641 C27 1.960 . S
C646 C220 1.962 . S
C651 C57 1.847 . S
C656 C370 1.781 . S
C661 N66 1.363 . S
C666 C160 1.311 . S
C671 C117 1.792 1_455 S
C676 C421 1.748 . S
C681 C91 1.961 . S
C686 C136 1.959 . S
C691 C166 1.847 . S
C696 C241 1.780 . S
C701 N194 1.363 . S
C706 C31 1.311 . S
C711 C310 1.748 . S
C716 C226 1.792 1_655 S
C721 C267 1.959 . S
C726 C460 1.946 1_565 S
C731 C130 1.781 . S
C736 C297 1.847 1_565 S
C741 C400 1.311 1_545 S
C746 N306 1.361 . S
C751 C181 1.747 . S
C756 C357 1.792 1_545 S
C761 C376 1.959 . S
C766 C331 1.946 1_545 S
C771 C406 1.847 1_545 S
C776 C1 1.781 . S
C781 C271 1.312 1_565 S
C786 N434 1.362 . S
C791 C466 1.792 1_565 S
C796 C70 1.747 . S
C801 N6 1.303 . S
C806 N284 1.419 . S
C811 C316 1.687 . S
C816 N36 1.490 . S
C821 C87 1.513 . S
C826 N344 1.517 . S
C831 N254 1.356 . S
C836 N96 1.247 . S
C841 N396 1.415 . S
C846 N134 1.296 . S
C851 C447 1.687 . S
C856 N164 1.488 . S
C861 N456 1.515 . S
C866 C196 1.512 . S
C871 N366 1.358 . S
C876 N224 1.249 . S
C881 N44 1.419 . S
C886 N246 1.303 . S
C891 C76 1.689 . S
C896 N276 1.492 . S
C901 N104 1.515 . S
C906 C327 1.512 . S
C911 N336 1.247 1_545 S
C916 N14 1.356 . S
C921 N156 1.415 . S
C926 N374 1.297 . S
C931 C207 1.687 . S
C936 N404 1.488 . S
C941 N216 1.516 . S
C946 C436 1.512 . S
C951 N126 1.353 . S
C956 N464 1.242 1_565 S
