# Generated by pormake.
# Topology una, (4)-cn, num edge types: 1
# Building blocks:
#     Node 0, Type 0, BuildingBlock: GALJAG_clean_sbu_0, # of connection points: 4
#     Node 1, Type 0, BuildingBlock: GALJAG_clean_sbu_0, # of connection points: 4
#     Node 2, Type 0, BuildingBlock: GALJAG_clean_sbu_0, # of connection points: 4
#     Node 3, Type 0, BuildingBlock: GALJAG_clean_sbu_0, # of connection points: 4
#     Node 4, Type 0, BuildingBlock: GALJAG_clean_sbu_0, # of connection points: 4
#     Node 5, Type 0, BuildingBlock: GALJAG_clean_sbu_0, # of connection points: 4
#     Node 6, Type 0, BuildingBlock: GALJAG_clean_sbu_0, # of connection points: 4
#     Node 7, Type 0, BuildingBlock: GALJAG_clean_sbu_0, # of connection points: 4
#     Node 8, Type 0, BuildingBlock: GALJAG_clean_sbu_0, # of connection points: 4
#     Node 9, Type 0, BuildingBlock: GALJAG_clean_sbu_0, # of connection points: 4
#     Node 10, Type 0, BuildingBlock: GALJAG_clean_sbu_0, # of connection points: 4
#     Node 11, Type 0, BuildingBlock: GALJAG_clean_sbu_0, # of connection points: 4
#     Edge 12, Type (0, 0), BuildingBlock: EYOCIG_clean_linker_4, # of connection points: 2
#     Edge 13, Type (0, 0), BuildingBlock: EYOCIG_clean_linker_4, # of connection points: 2
#     Edge 14, Type (0, 0), BuildingBlock: EYOCIG_clean_linker_4, # of connection points: 2
#     Edge 15, Type (0, 0), BuildingBlock: EYOCIG_clean_linker_4, # of connection points: 2
#     Edge 16, Type (0, 0), BuildingBlock: EYOCIG_clean_linker_4, # of connection points: 2
#     Edge 17, Type (0, 0), BuildingBlock: EYOCIG_clean_linker_4, # of connection points: 2
#     Edge 18, Type (0, 0), BuildingBlock: EYOCIG_clean_linker_4, # of connection points: 2
#     Edge 19, Type (0, 0), BuildingBlock: EYOCIG_clean_linker_4, # of connection points: 2
#     Edge 20, Type (0, 0), BuildingBlock: EYOCIG_clean_linker_4, # of connection points: 2
#     Edge 21, Type (0, 0), BuildingBlock: EYOCIG_clean_linker_4, # of connection points: 2
#     Edge 22, Type (0, 0), BuildingBlock: EYOCIG_clean_linker_4, # of connection points: 2
#     Edge 23, Type (0, 0), BuildingBlock: EYOCIG_clean_linker_4, # of connection points: 2
#     Edge 24, Type (0, 0), BuildingBlock: EYOCIG_clean_linker_4, # of connection points: 2
#     Edge 25, Type (0, 0), BuildingBlock: EYOCIG_clean_linker_4, # of connection points: 2
#     Edge 26, Type (0, 0), BuildingBlock: EYOCIG_clean_linker_4, # of connection points: 2
#     Edge 27, Type (0, 0), BuildingBlock: EYOCIG_clean_linker_4, # of connection points: 2
#     Edge 28, Type (0, 0), BuildingBlock: EYOCIG_clean_linker_4, # of connection points: 2
#     Edge 29, Type (0, 0), BuildingBlock: EYOCIG_clean_linker_4, # of connection points: 2
#     Edge 30, Type (0, 0), BuildingBlock: EYOCIG_clean_linker_4, # of connection points: 2
#     Edge 31, Type (0, 0), BuildingBlock: EYOCIG_clean_linker_4, # of connection points: 2
#     Edge 32, Type (0, 0), BuildingBlock: EYOCIG_clean_linker_4, # of connection points: 2
#     Edge 33, Type (0, 0), BuildingBlock: EYOCIG_clean_linker_4, # of connection points: 2
#     Edge 34, Type (0, 0), BuildingBlock: EYOCIG_clean_linker_4, # of connection points: 2
#     Edge 35, Type (0, 0), BuildingBlock: EYOCIG_clean_linker_4, # of connection points: 2
# Relax obj value: 0.044
# Max RMSD: 0.038
# Mean RMSD: 0.038
data_MOF--net-una--node1-GALJAG_clean_sbu_0--edge1-EYOCIG_clean_linker_4
_symmetry_space_group_name_H-M    P1
_symmetry_Int_Tables_number       1
_symmetry_cell_setting            triclinic
loop_
_symmetry_equiv_pos_as_xyz
'x, y, z'
_cell_length_a     47.439413
_cell_length_b     47.467084
_cell_length_c     16.534601
_cell_angle_alpha  89.986521
_cell_angle_beta   90.012362
_cell_angle_gamma 119.95005
loop_
_atom_site_label
_atom_site_type_symbol
_atom_site_fract_x
_atom_site_fract_y
_atom_site_fract_z
_atom_type_partial_charge
In0 In 0.14217 0.44959 0.03776 0.0
O1 O 0.08966 0.40658 0.04195 0.0
O2 O 0.10546 0.43651 0.93662 0.0
C3 C 0.1744 0.44072 0.16065 0.0
C4 C 0.13805 0.50223 0.07819 0.0
C5 C 0.17919 0.44499 0.92284 0.0
O6 O 0.14543 0.41964 0.14334 0.0
O7 O 0.18625 0.46638 0.11932 0.0
O8 O 0.1808 0.47165 0.94005 0.0
O9 O 0.15862 0.42056 0.96208 0.0
C10 C 0.08284 0.41237 0.97218 0.0
O11 O 0.15453 0.50196 0.01879 0.0
O12 O 0.12384 0.4762 0.11844 0.0
In13 In 0.7011 0.13731 0.20402 0.0
O14 O 0.69183 0.08486 0.20704 0.0
O15 O 0.67745 0.10086 0.10244 0.0
C16 C 0.74217 0.16931 0.32706 0.0
C17 C 0.6443 0.13312 0.24463 0.0
C18 C 0.74258 0.17435 0.0891 0.0
O19 O 0.73416 0.14031 0.30976 0.0
O20 O 0.72848 0.1813 0.28563 0.0
O21 O 0.71756 0.17601 0.10659 0.0
O22 O 0.74651 0.15376 0.12813 0.0
C23 C 0.67916 0.07821 0.13735 0.0
O24 O 0.66118 0.14988 0.18571 0.0
O25 O 0.65603 0.11867 0.28438 0.0
In26 In 0.5715 0.6963 0.37022 0.0
O27 O 0.6144 0.68658 0.37304 0.0
O28 O 0.58391 0.6723 0.26868 0.0
C29 C 0.58109 0.73764 0.49298 0.0
C30 C 0.51892 0.63976 0.41179 0.0
C31 C 0.57582 0.73766 0.25496 0.0
O32 O 0.60202 0.72958 0.47506 0.0
O33 O 0.55523 0.72387 0.45232 0.0
O34 O 0.54913 0.71285 0.27316 0.0
O35 O 0.6004 0.74143 0.29346 0.0
C36 C 0.6082 0.6738 0.30347 0.0
O37 O 0.51894 0.65656 0.35279 0.0
O38 O 0.54516 0.65144 0.45117 0.0
In39 In 0.88347 0.5666 0.538 0.0
O40 O 0.87105 0.51423 0.51883 0.0
O41 O 0.90171 0.53987 0.61864 0.0
C42 C 0.84629 0.57096 0.42313 0.0
C43 C 0.94282 0.60375 0.47242 0.0
C44 C 0.85151 0.5758 0.66093 0.0
O45 O 0.84464 0.54432 0.44082 0.0
O46 O 0.86697 0.59549 0.46187 0.0
O47 O 0.88039 0.59688 0.64297 0.0
O48 O 0.83962 0.54998 0.62024 0.0
C49 C 0.88749 0.51388 0.57825 0.0
O50 O 0.93609 0.60942 0.54239 0.0
O51 O 0.92011 0.57977 0.43664 0.0
In52 In 0.32469 0.87866 0.70406 0.0
O53 O 0.36463 0.8661 0.68581 0.0
O54 O 0.36949 0.89684 0.78528 0.0
C55 C 0.28336 0.8418 0.5886 0.0
C56 C 0.34716 0.938 0.63825 0.0
C57 C 0.28316 0.84664 0.82635 0.0
O58 O 0.30819 0.8399 0.60676 0.0
O59 O 0.27957 0.86256 0.62718 0.0
O60 O 0.29113 0.87559 0.80863 0.0
O61 O 0.29713 0.83472 0.78579 0.0
C62 C 0.38133 0.88257 0.74526 0.0
O63 O 0.33456 0.93131 0.70802 0.0
O64 O 0.34848 0.91525 0.60279 0.0
In65 In 0.45409 0.31984 0.87143 0.0
O66 O 0.4114 0.32992 0.87461 0.0
O67 O 0.44145 0.34355 0.76953 0.0
C68 C 0.44447 0.27864 -0.0054 0.0
C69 C 0.50681 0.37636 0.91242 0.0
C70 C 0.44992 0.27836 0.75674 0.0
O71 O 0.42342 0.28644 0.97597 0.0
O72 O 0.47044 0.29259 0.95443 0.0
O73 O 0.47656 0.30324 0.77485 0.0
O74 O 0.42529 0.27458 0.79499 0.0
C75 C 0.41739 0.3424 0.8047 0.0
O76 O 0.50662 0.35953 0.8533 0.0
O77 O 0.48066 0.36473 0.95215 0.0
In78 In 0.57182 0.87875 0.86945 0.0
O79 O 0.51937 0.86639 0.88721 0.0
O80 O 0.54542 0.89709 0.78784 0.0
C81 C 0.576 0.84174 -0.01495 0.0
C82 C 0.60897 0.93797 0.93547 0.0
C83 C 0.58121 0.84657 0.74737 0.0
O84 O 0.54938 0.8401 0.967 0.0
O85 O 0.60059 0.86231 0.94628 0.0
O86 O 0.60217 0.87556 0.76474 0.0
O87 O 0.5554 0.83468 0.78819 0.0
C88 C 0.51926 0.88286 0.82761 0.0
O89 O 0.61492 0.9312 0.86585 0.0
O90 O 0.58467 0.91537 0.97062 0.0
In91 In 0.70094 0.56635 0.03747 0.0
O92 O 0.66105 0.51388 0.05489 0.0
O93 O 0.65635 0.53998 0.95561 0.0
C94 C 0.74203 0.57072 0.15358 0.0
C95 C 0.67838 0.60324 0.10286 0.0
C96 C 0.74258 0.57572 0.91563 0.0
O97 O 0.71715 0.54407 0.13551 0.0
O98 O 0.74598 0.59524 0.11455 0.0
O99 O 0.73454 0.5967 0.93295 0.0
O100 O 0.72866 0.54992 0.95643 0.0
C101 C 0.64449 0.5138 -0.00476 0.0
O102 O 0.69131 0.6093 0.03346 0.0
O103 O 0.67675 0.57898 0.13813 0.0
In104 In 0.14238 0.69653 0.20353 0.0
O105 O 0.08988 0.68721 0.20165 0.0
O106 O 0.10604 0.67235 0.30513 0.0
C107 C 0.17423 0.73789 0.0809 0.0
C108 C 0.13823 0.63995 0.16105 0.0
C109 C 0.17938 0.73781 0.31887 0.0
O110 O 0.14519 0.72975 0.09838 0.0
O111 O 0.18633 0.72422 0.12194 0.0
O112 O 0.18117 0.71292 0.30084 0.0
O113 O 0.15868 0.74169 0.28016 0.0
C114 C 0.08332 0.6742 0.27097 0.0
O115 O 0.15513 0.65666 0.21999 0.0
O116 O 0.12362 0.65173 0.12222 0.0
In117 In 0.45452 0.13779 0.3708 0.0
O118 O 0.50707 0.15026 0.38687 0.0
O119 O 0.48044 0.11913 0.28865 0.0
C120 C 0.45044 0.17462 0.48696 0.0
C121 C 0.41771 0.07862 0.4374 0.0
C122 C 0.44492 0.17 0.24914 0.0
O123 O 0.47707 0.17632 0.4686 0.0
O124 O 0.42583 0.15409 0.44819 0.0
O125 O 0.42401 0.14098 0.26648 0.0
O126 O 0.47077 0.18191 0.2898 0.0
C127 C 0.50682 0.1335 0.32753 0.0
O128 O 0.41134 0.08538 0.3682 0.0
O129 O 0.44224 0.1012 0.47186 0.0
In130 In 0.32482 0.44991 0.53774 0.0
O131 O 0.36473 0.50241 0.55465 0.0
O132 O 0.36949 0.47606 0.45608 0.0
C133 C 0.28358 0.44532 0.65365 0.0
C134 C 0.3473 0.41306 0.60373 0.0
C135 C 0.28337 0.44083 0.41562 0.0
O136 O 0.3085 0.472 0.636 0.0
O137 O 0.27966 0.42088 0.6143 0.0
O138 O 0.29148 0.41986 0.43253 0.0
O139 O 0.29713 0.46649 0.457 0.0
C140 C 0.38135 0.50233 0.49531 0.0
O141 O 0.33415 0.40677 0.53457 0.0
O142 O 0.34921 0.43753 0.63845 0.0
In143 In 0.8832 0.31965 0.70383 0.0
O144 O 0.87054 0.35957 0.72031 0.0
O145 O 0.90178 0.36429 0.62207 0.0
C146 C 0.84641 0.27845 0.81948 0.0
C147 C 0.94234 0.34196 0.77076 0.0
C148 C 0.85096 0.27816 0.58178 0.0
O149 O 0.84468 0.3034 0.80174 0.0
O150 O 0.86696 0.27448 0.78035 0.0
O151 O 0.88005 0.28632 0.59871 0.0
O152 O 0.83899 0.29189 0.62306 0.0
C153 C 0.88729 0.37616 0.66105 0.0
O154 O 0.93567 0.3289 0.70151 0.0
O155 O 0.91969 0.34388 0.80508 0.0
C156 C 0.21307 0.43336 0.26303 0.0
C157 C 0.19407 0.43509 0.21747 0.0
C158 C 0.2372 0.43337 0.31361 0.0
C159 C 0.258 0.43515 0.35899 0.0
C160 C 0.81232 0.23193 0.47998 0.0
C161 C 0.83134 0.25276 0.52524 0.0
C162 C 0.7882 0.20781 0.42949 0.0
C163 C 0.76747 0.18886 0.38393 0.0
C164 C 0.58893 0.78382 0.59524 0.0
C165 C 0.58705 0.76303 0.54975 0.0
C166 C 0.58893 0.80795 0.6457 0.0
C167 C 0.58706 0.82695 0.69094 0.0
C168 C 0.81299 0.58338 0.7633 0.0
C169 C 0.83194 0.58157 0.71772 0.0
C170 C 0.78888 0.58337 0.81387 0.0
C171 C 0.76803 0.58153 0.85916 0.0
C172 C 0.23681 0.80812 0.92811 0.0
C173 C 0.25768 0.82707 0.8828 0.0
C174 C 0.21265 0.78403 0.9786 0.0
C175 C 0.19369 0.76326 0.02407 0.0
C176 C 0.43695 0.20856 0.14772 0.0
C177 C 0.43895 0.18961 0.19288 0.0
C178 C 0.43679 0.2326 0.0972 0.0
C179 C 0.43856 0.25331 0.05153 0.0
C180 C 0.13447 0.55469 0.1115 0.0
C181 C 0.13562 0.53035 0.09788 0.0
C182 C 0.13449 0.58395 0.12648 0.0
C183 C 0.13565 0.60941 0.14057 0.0
C184 C 0.58821 0.12949 0.27774 0.0
C185 C 0.61371 0.13063 0.26427 0.0
C186 C 0.55898 0.12957 0.2926 0.0
C187 C 0.53471 0.1308 0.30676 0.0
C188 C 0.43731 0.55458 0.46068 0.0
C189 C 0.41186 0.5303 0.4748 0.0
C190 C 0.46654 0.58379 0.44562 0.0
C191 C 0.49086 0.60924 0.4318 0.0
C192 C 0.89099 0.46137 0.61129 0.0
C193 C 0.88988 0.48573 0.59779 0.0
C194 C 0.89097 0.43211 0.62623 0.0
C195 C 0.88984 0.40667 0.6404 0.0
C196 C 0.43744 0.88625 0.77866 0.0
C197 C 0.41192 0.88506 0.76502 0.0
C198 C 0.46678 0.88635 0.79346 0.0
C199 C 0.49116 0.8853 0.80731 0.0
C200 C 0.55933 0.43224 0.94591 0.0
C201 C 0.53496 0.40683 0.93222 0.0
C202 C 0.58859 0.46144 0.96084 0.0
C203 C 0.61401 0.48576 0.97487 0.0
C204 C 0.24103 0.44194 0.76062 0.0
C205 C 0.26031 0.44319 0.71162 0.0
C206 C 0.21874 0.44182 0.81669 0.0
C207 C 0.20051 0.4429 0.86535 0.0
C208 C 0.7851 0.21378 -0.01741 0.0
C209 C 0.76587 0.19561 0.0314 0.0
C210 C 0.80722 0.236 0.92641 0.0
C211 C 0.82525 0.25524 0.87744 0.0
C212 C 0.57894 0.78013 0.14817 0.0
C213 C 0.57784 0.7609 0.19708 0.0
C214 C 0.57897 0.80232 0.09193 0.0
C215 C 0.57791 0.82046 0.04298 0.0
C216 C 0.80668 0.57398 0.31689 0.0
C217 C 0.82493 0.57294 0.36557 0.0
C218 C 0.78442 0.57389 0.26075 0.0
C219 C 0.76521 0.57272 0.21166 0.0
C220 C 0.2187 0.78027 0.42567 0.0
C221 C 0.20061 0.76104 0.37676 0.0
C222 C 0.24086 0.80246 0.48187 0.0
C223 C 0.26008 0.82059 0.53076 0.0
C224 C 0.44712 0.23587 0.65049 0.0
C225 C 0.44803 0.25508 0.69917 0.0
C226 C 0.44734 0.21381 0.59429 0.0
C227 C 0.44854 0.19581 0.54517 0.0
C228 C 0.02676 0.3791 0.89594 0.0
C229 C 0.05165 0.39311 0.93437 0.0
C230 C 0.9982 0.36479 0.8482 0.0
C231 C 0.97339 0.35389 0.80941 0.0
C232 C 0.64225 0.99389 0.01226 0.0
C233 C 0.62823 0.96907 0.97362 0.0
C234 C 0.65651 0.02238 0.06015 0.0
C235 C 0.66732 0.04716 0.09895 0.0
C236 C 0.65535 0.63635 0.17897 0.0
C237 C 0.66634 0.62239 0.14068 0.0
C238 C 0.64108 0.65069 0.22648 0.0
C239 C 0.62721 0.66169 0.26506 0.0
C240 C 0.0275 0.65129 0.34862 0.0
C241 C 0.0523 0.66222 0.30979 0.0
C242 C 0.99894 0.63697 0.39631 0.0
C243 C 0.97403 0.62296 0.43467 0.0
C244 C 0.38466 0.0227 0.51442 0.0
C245 C 0.3986 0.04755 0.47585 0.0
C246 C 0.37032 0.99411 0.56197 0.0
C247 C 0.3593 0.9692 0.60035 0.0
C248 C 0.3703 0.37997 0.6803 0.0
C249 C 0.35932 0.39391 0.64187 0.0
C250 C 0.38457 0.36563 0.72785 0.0
C251 C 0.39843 0.3546 0.76639 0.0
loop_
_geom_bond_atom_site_label_1
_geom_bond_atom_site_label_2
_geom_bond_distance
_geom_bond_site_symmetry_2
_ccdc_geom_bond_type
In0 O1 2.294 . S
In0 O2 2.326 1_554 S
In0 O6 2.266 . S
In0 O7 2.326 . S
In0 O8 2.266 1_554 S
In0 O9 2.326 1_554 S
In0 O11 2.294 . S
In0 O12 2.326 . S
O1 In0 2.294 . S
O1 C10 1.240 . S
O2 In0 2.326 1_556 S
O2 C10 1.252 1_556 S
C3 O6 1.252 . S
C3 O7 1.260 . S
C4 O11 1.240 . S
C4 O12 1.252 . S
C5 O8 1.252 . S
C5 O9 1.260 . S
O6 In0 2.266 . S
O6 C3 1.252 . S
O7 In0 2.326 . S
O7 C3 1.260 . S
O8 In0 2.266 1_556 S
O8 C5 1.252 . S
O9 In0 2.326 1_556 S
O9 C5 1.260 . S
C10 O1 1.240 . S
C10 O2 1.252 1_554 S
O11 In0 2.294 . S
O11 C4 1.240 . S
O12 In0 2.326 . S
O12 C4 1.252 . S
In13 O14 2.294 . S
In13 O15 2.326 . S
In13 O19 2.266 . S
In13 O20 2.326 . S
In13 O21 2.266 . S
In13 O22 2.326 . S
In13 O24 2.294 . S
In13 O25 2.326 . S
O14 In13 2.294 . S
O14 C23 1.240 . S
O15 In13 2.326 . S
O15 C23 1.252 . S
C16 O19 1.252 . S
C16 O20 1.260 . S
C17 O24 1.240 . S
C17 O25 1.252 . S
C18 O21 1.252 . S
C18 O22 1.260 . S
O19 In13 2.266 . S
O19 C16 1.252 . S
O20 In13 2.326 . S
O20 C16 1.260 . S
O21 In13 2.266 . S
O21 C18 1.252 . S
O22 In13 2.326 . S
O22 C18 1.260 . S
C23 O14 1.240 . S
C23 O15 1.252 . S
O24 In13 2.294 . S
O24 C17 1.240 . S
O25 In13 2.326 . S
O25 C17 1.252 . S
In26 O27 2.294 . S
In26 O28 2.326 . S
In26 O32 2.266 . S
In26 O33 2.326 . S
In26 O34 2.266 . S
In26 O35 2.326 . S
In26 O37 2.294 . S
In26 O38 2.326 . S
O27 In26 2.294 . S
O27 C36 1.240 . S
O28 In26 2.326 . S
O28 C36 1.252 . S
C29 O32 1.252 . S
C29 O33 1.260 . S
C30 O37 1.240 . S
C30 O38 1.252 . S
C31 O34 1.252 . S
C31 O35 1.260 . S
O32 In26 2.266 . S
O32 C29 1.252 . S
O33 In26 2.326 . S
O33 C29 1.260 . S
O34 In26 2.266 . S
O34 C31 1.252 . S
O35 In26 2.326 . S
O35 C31 1.260 . S
C36 O27 1.240 . S
C36 O28 1.252 . S
O37 In26 2.294 . S
O37 C30 1.240 . S
O38 In26 2.326 . S
O38 C30 1.252 . S
In39 O40 2.294 . S
In39 O41 2.326 . S
In39 O45 2.266 . S
In39 O46 2.326 . S
In39 O47 2.266 . S
In39 O48 2.326 . S
In39 O50 2.294 . S
In39 O51 2.326 . S
O40 In39 2.294 . S
O40 C49 1.240 . S
O41 In39 2.326 . S
O41 C49 1.252 . S
C42 O45 1.252 . S
C42 O46 1.260 . S
C43 O50 1.240 . S
C43 O51 1.252 . S
C44 O47 1.252 . S
C44 O48 1.260 . S
O45 In39 2.266 . S
O45 C42 1.252 . S
O46 In39 2.326 . S
O46 C42 1.260 . S
O47 In39 2.266 . S
O47 C44 1.252 . S
O48 In39 2.326 . S
O48 C44 1.260 . S
C49 O40 1.240 . S
C49 O41 1.252 . S
O50 In39 2.294 . S
O50 C43 1.240 . S
O51 In39 2.326 . S
O51 C43 1.252 . S
In52 O53 2.294 . S
In52 O54 2.326 . S
In52 O58 2.266 . S
In52 O59 2.326 . S
In52 O60 2.266 . S
In52 O61 2.326 . S
In52 O63 2.294 . S
In52 O64 2.326 . S
O53 In52 2.294 . S
O53 C62 1.240 . S
O54 In52 2.326 . S
O54 C62 1.252 . S
C55 O58 1.252 . S
C55 O59 1.260 . S
C56 O63 1.240 . S
C56 O64 1.252 . S
C57 O60 1.252 . S
C57 O61 1.260 . S
O58 In52 2.266 . S
O58 C55 1.252 . S
O59 In52 2.326 . S
O59 C55 1.260 . S
O60 In52 2.266 . S
O60 C57 1.252 . S
O61 In52 2.326 . S
O61 C57 1.260 . S
C62 O53 1.240 . S
C62 O54 1.252 . S
O63 In52 2.294 . S
O63 C56 1.240 . S
O64 In52 2.326 . S
O64 C56 1.252 . S
In65 O66 2.294 . S
In65 O67 2.326 . S
In65 O71 2.266 . S
In65 O72 2.326 . S
In65 O73 2.266 . S
In65 O74 2.326 . S
In65 O76 2.294 . S
In65 O77 2.326 . S
O66 In65 2.294 . S
O66 C75 1.240 . S
O67 In65 2.326 . S
O67 C75 1.252 . S
C68 O71 1.252 1_554 S
C68 O72 1.260 1_554 S
C69 O76 1.240 . S
C69 O77 1.252 . S
C70 O73 1.252 . S
C70 O74 1.260 . S
O71 In65 2.266 . S
O71 C68 1.252 1_556 S
O72 In65 2.326 . S
O72 C68 1.260 1_556 S
O73 In65 2.266 . S
O73 C70 1.252 . S
O74 In65 2.326 . S
O74 C70 1.260 . S
C75 O66 1.240 . S
C75 O67 1.252 . S
O76 In65 2.294 . S
O76 C69 1.240 . S
O77 In65 2.326 . S
O77 C69 1.252 . S
In78 O79 2.294 . S
In78 O80 2.326 . S
In78 O84 2.266 . S
In78 O85 2.326 . S
In78 O86 2.266 . S
In78 O87 2.326 . S
In78 O89 2.294 . S
In78 O90 2.326 . S
O79 In78 2.294 . S
O79 C88 1.240 . S
O80 In78 2.326 . S
O80 C88 1.252 . S
C81 O84 1.252 . S
C81 O85 1.262 . S
C82 O89 1.240 . S
C82 O90 1.252 . S
C83 O86 1.252 . S
C83 O87 1.260 . S
O84 In78 2.266 . S
O84 C81 1.252 . S
O85 In78 2.326 . S
O85 C81 1.262 . S
O86 In78 2.266 . S
O86 C83 1.252 . S
O87 In78 2.326 . S
O87 C83 1.260 . S
C88 O79 1.240 . S
C88 O80 1.252 . S
O89 In78 2.294 . S
O89 C82 1.240 . S
O90 In78 2.326 . S
O90 C82 1.252 . S
In91 O92 2.294 . S
In91 O93 2.326 1_554 S
In91 O97 2.266 . S
In91 O98 2.326 . S
In91 O99 2.266 1_554 S
In91 O100 2.326 1_554 S
In91 O102 2.294 . S
In91 O103 2.326 . S
O92 In91 2.294 . S
O92 C101 1.240 . S
O93 In91 2.326 1_556 S
O93 C101 1.252 1_556 S
C94 O97 1.252 . S
C94 O98 1.260 . S
C95 O102 1.240 . S
C95 O103 1.252 . S
C96 O99 1.252 . S
C96 O100 1.260 . S
O97 In91 2.266 . S
O97 C94 1.252 . S
O98 In91 2.326 . S
O98 C94 1.260 . S
O99 In91 2.266 1_556 S
O99 C96 1.252 . S
O100 In91 2.326 1_556 S
O100 C96 1.260 . S
C101 O92 1.240 . S
C101 O93 1.252 1_554 S
O102 In91 2.294 . S
O102 C95 1.240 . S
O103 In91 2.326 . S
O103 C95 1.252 . S
In104 O105 2.294 . S
In104 O106 2.326 . S
In104 O110 2.266 . S
In104 O111 2.326 . S
In104 O112 2.266 . S
In104 O113 2.326 . S
In104 O115 2.294 . S
In104 O116 2.326 . S
O105 In104 2.294 . S
O105 C114 1.240 . S
O106 In104 2.326 . S
O106 C114 1.252 . S
C107 O110 1.252 . S
C107 O111 1.260 . S
C108 O115 1.240 . S
C108 O116 1.252 . S
C109 O112 1.252 . S
C109 O113 1.260 . S
O110 In104 2.266 . S
O110 C107 1.252 . S
O111 In104 2.326 . S
O111 C107 1.260 . S
O112 In104 2.266 . S
O112 C109 1.252 . S
O113 In104 2.326 . S
O113 C109 1.260 . S
C114 O105 1.240 . S
C114 O106 1.252 . S
O115 In104 2.294 . S
O115 C108 1.240 . S
O116 In104 2.326 . S
O116 C108 1.252 . S
In117 O118 2.294 . S
In117 O119 2.326 . S
In117 O123 2.266 . S
In117 O124 2.326 . S
In117 O125 2.266 . S
In117 O126 2.326 . S
In117 O128 2.294 . S
In117 O129 2.326 . S
O118 In117 2.294 . S
O118 C127 1.240 . S
O119 In117 2.326 . S
O119 C127 1.252 . S
C120 O123 1.252 . S
C120 O124 1.260 . S
C121 O128 1.240 . S
C121 O129 1.252 . S
C122 O125 1.252 . S
C122 O126 1.260 . S
O123 In117 2.266 . S
O123 C120 1.252 . S
O124 In117 2.326 . S
O124 C120 1.260 . S
O125 In117 2.266 . S
O125 C122 1.252 . S
O126 In117 2.326 . S
O126 C122 1.260 . S
C127 O118 1.240 . S
C127 O119 1.252 . S
O128 In117 2.294 . S
O128 C121 1.240 . S
O129 In117 2.326 . S
O129 C121 1.252 . S
In130 O131 2.294 . S
In130 O132 2.326 . S
In130 O136 2.266 . S
In130 O137 2.326 . S
In130 O138 2.266 . S
In130 O139 2.326 . S
In130 O141 2.294 . S
In130 O142 2.326 . S
O131 In130 2.294 . S
O131 C140 1.240 . S
O132 In130 2.326 . S
O132 C140 1.252 . S
C133 O136 1.252 . S
C133 O137 1.260 . S
C134 O141 1.240 . S
C134 O142 1.252 . S
C135 O138 1.252 . S
C135 O139 1.260 . S
O136 In130 2.266 . S
O136 C133 1.252 . S
O137 In130 2.326 . S
O137 C133 1.260 . S
O138 In130 2.266 . S
O138 C135 1.252 . S
O139 In130 2.326 . S
O139 C135 1.260 . S
C140 O131 1.240 . S
C140 O132 1.252 . S
O141 In130 2.294 . S
O141 C134 1.240 . S
O142 In130 2.326 . S
O142 C134 1.252 . S
In143 O144 2.294 . S
In143 O145 2.326 . S
In143 O149 2.266 . S
In143 O150 2.326 . S
In143 O151 2.266 . S
In143 O152 2.326 . S
In143 O154 2.294 . S
In143 O155 2.326 . S
O144 In143 2.294 . S
O144 C153 1.240 . S
O145 In143 2.326 . S
O145 C153 1.252 . S
C146 O149 1.252 . S
C146 O150 1.260 . S
C147 O154 1.240 . S
C147 O155 1.252 . S
C148 O151 1.252 . S
C148 O152 1.260 . S
O149 In143 2.266 . S
O149 C146 1.252 . S
O150 In143 2.326 . S
O150 C146 1.260 . S
O151 In143 2.266 . S
O151 C148 1.252 . S
O152 In143 2.326 . S
O152 C148 1.260 . S
C153 O144 1.240 . S
C153 O145 1.252 . S
O154 In143 2.294 . S
O154 C147 1.240 . S
O155 In143 2.326 . S
O155 C147 1.252 . S
C156 C157 1.170 . S
C156 C158 1.380 . S
C157 C156 1.170 . S
C158 C156 1.380 . S
C158 C159 1.170 . S
C159 C158 1.170 . S
C160 C161 1.170 . S
C160 C162 1.380 . S
C161 C160 1.170 . S
C162 C160 1.380 . S
C162 C163 1.170 . S
C163 C162 1.170 . S
C164 C165 1.170 . S
C164 C166 1.380 . S
C165 C164 1.170 . S
C166 C164 1.380 . S
C166 C167 1.170 . S
C167 C166 1.170 . S
C168 C169 1.170 . S
C168 C170 1.380 . S
C169 C168 1.170 . S
C170 C168 1.380 . S
C170 C171 1.170 . S
C171 C170 1.170 . S
C172 C173 1.170 . S
C172 C174 1.380 . S
C173 C172 1.170 . S
C174 C172 1.380 . S
C174 C175 1.170 1_556 S
C175 C174 1.170 1_554 S
C176 C177 1.170 . S
C176 C178 1.380 . S
C177 C176 1.170 . S
C178 C176 1.380 . S
C178 C179 1.170 . S
C179 C178 1.170 . S
C180 C181 1.170 . S
C180 C182 1.380 . S
C181 C180 1.170 . S
C182 C180 1.380 . S
C182 C183 1.170 . S
C183 C182 1.170 . S
C184 C185 1.170 . S
C184 C186 1.380 . S
C185 C184 1.170 . S
C186 C184 1.380 . S
C186 C187 1.170 . S
C187 C186 1.170 . S
C188 C189 1.170 . S
C188 C190 1.380 . S
C189 C188 1.170 . S
C190 C188 1.380 . S
C190 C191 1.170 . S
C191 C190 1.170 . S
C192 C193 1.170 . S
C192 C194 1.380 . S
C193 C192 1.170 . S
C194 C192 1.380 . S
C194 C195 1.170 . S
C195 C194 1.170 . S
C196 C197 1.170 . S
C196 C198 1.380 . S
C197 C196 1.170 . S
C198 C196 1.380 . S
C198 C199 1.170 . S
C199 C198 1.170 . S
C200 C201 1.170 . S
C200 C202 1.380 . S
C201 C200 1.170 . S
C202 C200 1.380 . S
C202 C203 1.170 . S
C203 C202 1.170 . S
C204 C205 1.170 . S
C204 C206 1.380 . S
C205 C204 1.170 . S
C206 C204 1.380 . S
C206 C207 1.170 . S
C207 C206 1.170 . S
C208 C209 1.170 . S
C208 C210 1.380 1_554 S
C209 C208 1.170 . S
C210 C208 1.380 1_556 S
C210 C211 1.170 . S
C211 C210 1.170 . S
C212 C213 1.170 . S
C212 C214 1.380 . S
C213 C212 1.170 . S
C214 C212 1.380 . S
C214 C215 1.170 . S
C215 C214 1.170 . S
C216 C217 1.170 . S
C216 C218 1.380 . S
C217 C216 1.170 . S
C218 C216 1.380 . S
C218 C219 1.170 . S
C219 C218 1.170 . S
C220 C221 1.170 . S
C220 C222 1.380 . S
C221 C220 1.170 . S
C222 C220 1.380 . S
C222 C223 1.170 . S
C223 C222 1.170 . S
C224 C225 1.170 . S
C224 C226 1.380 . S
C225 C224 1.170 . S
C226 C224 1.380 . S
C226 C227 1.170 . S
C227 C226 1.170 . S
C228 C229 1.170 . S
C228 C230 1.380 1_455 S
C229 C228 1.170 . S
C230 C228 1.380 1_655 S
C230 C231 1.170 . S
C231 C230 1.170 . S
C232 C233 1.170 1_554 S
C232 C234 1.380 1_565 S
C233 C232 1.170 1_556 S
C234 C232 1.380 1_545 S
C234 C235 1.170 . S
C235 C234 1.170 . S
C236 C237 1.170 . S
C236 C238 1.380 . S
C237 C236 1.170 . S
C238 C236 1.380 . S
C238 C239 1.170 . S
C239 C238 1.170 . S
C240 C241 1.170 . S
C240 C242 1.380 1_455 S
C241 C240 1.170 . S
C242 C240 1.380 1_655 S
C242 C243 1.170 . S
C243 C242 1.170 . S
C244 C245 1.170 . S
C244 C246 1.380 1_545 S
C245 C244 1.170 . S
C246 C244 1.380 1_565 S
C246 C247 1.170 . S
C247 C246 1.170 . S
C248 C249 1.170 . S
C248 C250 1.380 . S
C249 C248 1.170 . S
C250 C248 1.380 . S
C250 C251 1.170 . S
C251 C250 1.170 . S
C157 C3 1.512 . S
C159 C135 1.503 . S
C161 C148 1.500 . S
C163 C16 1.520 . S
C165 C29 1.519 . S
C167 C83 1.505 . S
C169 C44 1.516 . S
C171 C96 1.500 . S
C173 C57 1.506 . S
C175 C107 1.518 . S
C177 C122 1.501 . S
C179 C68 1.514 . S
C181 C4 1.708 . S
C183 C108 1.710 . S
C185 C17 1.706 . S
C187 C127 1.711 . S
C189 C140 1.710 . S
C191 C30 1.705 . S
C193 C49 1.700 . S
C195 C153 1.708 . S
C197 C62 1.706 . S
C199 C88 1.711 . S
C201 C69 1.700 . S
C203 C101 1.700 1_556 S
C205 C133 1.487 . S
C207 C5 1.487 . S
C209 C18 1.488 . S
C211 C146 1.488 . S
C213 C31 1.486 . S
C215 C81 1.485 1_554 S
C217 C42 1.482 . S
C219 C94 1.482 . S
C221 C109 1.488 . S
C223 C55 1.488 . S
C225 C70 1.484 . S
C227 C120 1.483 . S
C229 C10 1.449 1_556 S
C231 C147 1.432 . S
C233 C82 1.449 . S
C235 C23 1.441 . S
C237 C95 1.436 . S
C239 C36 1.431 . S
C241 C114 1.430 . S
C243 C43 1.446 . S
C245 C121 1.429 . S
C247 C56 1.440 . S
C249 C134 1.431 . S
C251 C75 1.436 . S
