# Generated by pormake.
# Topology wna, (6)-cn, num edge types: 1
# Building blocks:
#     Node 0, Type 0, BuildingBlock: CUKXOW_clean_sbu_0, # of connection points: 6
#     Node 1, Type 0, BuildingBlock: CUKXOW_clean_sbu_0, # of connection points: 6
#     Node 2, Type 0, BuildingBlock: CUKXOW_clean_sbu_0, # of connection points: 6
#     Node 3, Type 0, BuildingBlock: CUKXOW_clean_sbu_0, # of connection points: 6
#     Node 4, Type 0, BuildingBlock: CUKXOW_clean_sbu_0, # of connection points: 6
#     Node 5, Type 0, BuildingBlock: CUKXOW_clean_sbu_0, # of connection points: 6
#     Node 6, Type 0, BuildingBlock: CUKXOW_clean_sbu_0, # of connection points: 6
#     Node 7, Type 0, BuildingBlock: CUKXOW_clean_sbu_0, # of connection points: 6
#     Node 8, Type 0, BuildingBlock: CUKXOW_clean_sbu_0, # of connection points: 6
#     Node 9, Type 0, BuildingBlock: CUKXOW_clean_sbu_0, # of connection points: 6
#     Node 10, Type 0, BuildingBlock: CUKXOW_clean_sbu_0, # of connection points: 6
#     Node 11, Type 0, BuildingBlock: CUKXOW_clean_sbu_0, # of connection points: 6
#     Node 12, Type 0, BuildingBlock: CUKXOW_clean_sbu_0, # of connection points: 6
#     Node 13, Type 0, BuildingBlock: CUKXOW_clean_sbu_0, # of connection points: 6
#     Node 14, Type 0, BuildingBlock: CUKXOW_clean_sbu_0, # of connection points: 6
#     Node 15, Type 0, BuildingBlock: CUKXOW_clean_sbu_0, # of connection points: 6
#     Node 16, Type 0, BuildingBlock: CUKXOW_clean_sbu_0, # of connection points: 6
#     Node 17, Type 0, BuildingBlock: CUKXOW_clean_sbu_0, # of connection points: 6
#     Node 18, Type 0, BuildingBlock: CUKXOW_clean_sbu_0, # of connection points: 6
#     Node 19, Type 0, BuildingBlock: CUKXOW_clean_sbu_0, # of connection points: 6
#     Node 20, Type 0, BuildingBlock: CUKXOW_clean_sbu_0, # of connection points: 6
#     Node 21, Type 0, BuildingBlock: CUKXOW_clean_sbu_0, # of connection points: 6
#     Node 22, Type 0, BuildingBlock: CUKXOW_clean_sbu_0, # of connection points: 6
#     Node 23, Type 0, BuildingBlock: CUKXOW_clean_sbu_0, # of connection points: 6
#     Node 24, Type 0, BuildingBlock: CUKXOW_clean_sbu_0, # of connection points: 6
#     Node 25, Type 0, BuildingBlock: CUKXOW_clean_sbu_0, # of connection points: 6
#     Node 26, Type 0, BuildingBlock: CUKXOW_clean_sbu_0, # of connection points: 6
#     Node 27, Type 0, BuildingBlock: CUKXOW_clean_sbu_0, # of connection points: 6
#     Node 28, Type 0, BuildingBlock: CUKXOW_clean_sbu_0, # of connection points: 6
#     Node 29, Type 0, BuildingBlock: CUKXOW_clean_sbu_0, # of connection points: 6
#     Node 30, Type 0, BuildingBlock: CUKXOW_clean_sbu_0, # of connection points: 6
#     Node 31, Type 0, BuildingBlock: CUKXOW_clean_sbu_0, # of connection points: 6
#     Node 32, Type 0, BuildingBlock: CUKXOW_clean_sbu_0, # of connection points: 6
#     Node 33, Type 0, BuildingBlock: CUKXOW_clean_sbu_0, # of connection points: 6
#     Node 34, Type 0, BuildingBlock: CUKXOW_clean_sbu_0, # of connection points: 6
#     Node 35, Type 0, BuildingBlock: CUKXOW_clean_sbu_0, # of connection points: 6
#     Edge 36, Type (0, 0), None
#     Edge 37, Type (0, 0), None
#     Edge 38, Type (0, 0), None
#     Edge 39, Type (0, 0), None
#     Edge 40, Type (0, 0), None
#     Edge 41, Type (0, 0), None
#     Edge 42, Type (0, 0), None
#     Edge 43, Type (0, 0), None
#     Edge 44, Type (0, 0), None
#     Edge 45, Type (0, 0), None
#     Edge 46, Type (0, 0), None
#     Edge 47, Type (0, 0), None
#     Edge 48, Type (0, 0), None
#     Edge 49, Type (0, 0), None
#     Edge 50, Type (0, 0), None
#     Edge 51, Type (0, 0), None
#     Edge 52, Type (0, 0), None
#     Edge 53, Type (0, 0), None
#     Edge 54, Type (0, 0), None
#     Edge 55, Type (0, 0), None
#     Edge 56, Type (0, 0), None
#     Edge 57, Type (0, 0), None
#     Edge 58, Type (0, 0), None
#     Edge 59, Type (0, 0), None
#     Edge 60, Type (0, 0), None
#     Edge 61, Type (0, 0), None
#     Edge 62, Type (0, 0), None
#     Edge 63, Type (0, 0), None
#     Edge 64, Type (0, 0), None
#     Edge 65, Type (0, 0), None
#     Edge 66, Type (0, 0), None
#     Edge 67, Type (0, 0), None
#     Edge 68, Type (0, 0), None
#     Edge 69, Type (0, 0), None
#     Edge 70, Type (0, 0), None
#     Edge 71, Type (0, 0), None
#     Edge 72, Type (0, 0), None
#     Edge 73, Type (0, 0), None
#     Edge 74, Type (0, 0), None
#     Edge 75, Type (0, 0), None
#     Edge 76, Type (0, 0), None
#     Edge 77, Type (0, 0), None
#     Edge 78, Type (0, 0), None
#     Edge 79, Type (0, 0), None
#     Edge 80, Type (0, 0), None
#     Edge 81, Type (0, 0), None
#     Edge 82, Type (0, 0), None
#     Edge 83, Type (0, 0), None
#     Edge 84, Type (0, 0), None
#     Edge 85, Type (0, 0), None
#     Edge 86, Type (0, 0), None
#     Edge 87, Type (0, 0), None
#     Edge 88, Type (0, 0), None
#     Edge 89, Type (0, 0), None
#     Edge 90, Type (0, 0), None
#     Edge 91, Type (0, 0), None
#     Edge 92, Type (0, 0), None
#     Edge 93, Type (0, 0), None
#     Edge 94, Type (0, 0), None
#     Edge 95, Type (0, 0), None
#     Edge 96, Type (0, 0), None
#     Edge 97, Type (0, 0), None
#     Edge 98, Type (0, 0), None
#     Edge 99, Type (0, 0), None
#     Edge 100, Type (0, 0), None
#     Edge 101, Type (0, 0), None
#     Edge 102, Type (0, 0), None
#     Edge 103, Type (0, 0), None
#     Edge 104, Type (0, 0), None
#     Edge 105, Type (0, 0), None
#     Edge 106, Type (0, 0), None
#     Edge 107, Type (0, 0), None
#     Edge 108, Type (0, 0), None
#     Edge 109, Type (0, 0), None
#     Edge 110, Type (0, 0), None
#     Edge 111, Type (0, 0), None
#     Edge 112, Type (0, 0), None
#     Edge 113, Type (0, 0), None
#     Edge 114, Type (0, 0), None
#     Edge 115, Type (0, 0), None
#     Edge 116, Type (0, 0), None
#     Edge 117, Type (0, 0), None
#     Edge 118, Type (0, 0), None
#     Edge 119, Type (0, 0), None
#     Edge 120, Type (0, 0), None
#     Edge 121, Type (0, 0), None
#     Edge 122, Type (0, 0), None
#     Edge 123, Type (0, 0), None
#     Edge 124, Type (0, 0), None
#     Edge 125, Type (0, 0), None
#     Edge 126, Type (0, 0), None
#     Edge 127, Type (0, 0), None
#     Edge 128, Type (0, 0), None
#     Edge 129, Type (0, 0), None
#     Edge 130, Type (0, 0), None
#     Edge 131, Type (0, 0), None
#     Edge 132, Type (0, 0), None
#     Edge 133, Type (0, 0), None
#     Edge 134, Type (0, 0), None
#     Edge 135, Type (0, 0), None
#     Edge 136, Type (0, 0), None
#     Edge 137, Type (0, 0), None
#     Edge 138, Type (0, 0), None
#     Edge 139, Type (0, 0), None
#     Edge 140, Type (0, 0), None
#     Edge 141, Type (0, 0), None
#     Edge 142, Type (0, 0), None
#     Edge 143, Type (0, 0), None
# Relax obj value: 0.232
# Max RMSD: 0.259
# Mean RMSD: 0.248
data_MOF--net-wna--node1-CUKXOW_clean_sbu_0--edge1-none
_symmetry_space_group_name_H-M    P1
_symmetry_Int_Tables_number       1
_symmetry_cell_setting            triclinic
loop_
_symmetry_equiv_pos_as_xyz
'x, y, z'
_cell_length_a     21.579671
_cell_length_b     21.580133
_cell_length_c     30.271578
_cell_angle_alpha  89.999552
_cell_angle_beta   90.001076
_cell_angle_gamma 120.00217
loop_
_atom_site_label
_atom_site_type_symbol
_atom_site_fract_x
_atom_site_fract_y
_atom_site_fract_z
_atom_type_partial_charge
Tb0 Tb 0.15373 0.29616 0.20512 0.0
C1 C 0.14046 0.1559 0.16439 0.0
Tb2 Tb 0.01543 0.1903 0.15881 0.0
O3 O 0.09591 0.28886 0.26738 0.0
O4 O 0.05656 0.20351 0.22304 0.0
O5 O 0.17035 0.20579 0.19484 0.0
C6 C 0.89906 0.06262 0.15656 0.0
O7 O 0.0807 0.14187 0.14411 0.0
C8 C 0.10401 0.29758 0.10834 0.0
C9 C 0.04441 0.34643 0.18237 0.0
O10 O 0.9129 0.11088 0.18649 0.0
O11 O 0.94691 0.08897 0.12547 0.0
O12 O 0.03475 0.25962 0.1027 0.0
O13 O 0.11898 0.26769 0.13951 0.0
O14 O 0.99514 0.27833 0.17377 0.0
O15 O 0.11178 0.36773 0.19359 0.0
C16 C 0.29404 0.35745 0.19958 0.0
O17 O 0.25601 0.378 0.17733 0.0
O18 O 0.25506 0.31217 0.23012 0.0
C19 C 0.04095 0.22595 0.25779 0.0
Tb20 Tb 0.71214 0.85924 0.20514 0.0
C21 C 0.85235 0.98625 0.16437 0.0
Tb22 Tb 0.81803 0.82684 0.15882 0.0
O23 O 0.71948 0.80873 0.2674 0.0
O24 O 0.80482 0.85476 0.22305 0.0
O25 O 0.80248 0.96625 0.19482 0.0
C26 C 0.9457 0.83813 0.15656 0.0
O27 O 0.86643 0.94054 0.1441 0.0
C28 C 0.71073 0.80811 0.10835 0.0
C29 C 0.66189 0.69966 0.18238 0.0
O30 O 0.89744 0.80373 0.1865 0.0
O31 O 0.91936 0.85964 0.12547 0.0
O32 O 0.7487 0.77683 0.10271 0.0
O33 O 0.74061 0.85297 0.13953 0.0
O34 O 0.73 0.71851 0.17378 0.0
O35 O 0.64059 0.74573 0.1936 0.0
C36 C 0.65082 0.93822 0.19961 0.0
O37 O 0.63029 0.87966 0.17735 0.0
O38 O 0.69611 0.94454 0.23015 0.0
C39 C 0.78239 0.81671 0.2578 0.0
Tb40 Tb 0.14907 0.85456 0.20513 0.0
C41 C 0.02207 0.86777 0.16437 0.0
Tb42 Tb 0.18148 0.99286 0.15882 0.0
O43 O 0.19958 0.91238 0.2674 0.0
O44 O 0.15356 0.95171 0.22305 0.0
O45 O 0.04206 0.8379 0.19482 0.0
C46 C 0.17002 0.1091 0.15663 0.0
O47 O 0.06778 0.92755 0.14409 0.0
C48 C 0.20022 0.9043 0.10836 0.0
C49 C 0.30866 0.96391 0.18238 0.0
O50 O 0.20452 0.09533 0.18655 0.0
O51 O 0.14862 0.06134 0.12549 0.0
O52 O 0.2315 0.97355 0.10271 0.0
O53 O 0.15535 0.88932 0.13952 0.0
O54 O 0.28982 0.01317 0.17379 0.0
O55 O 0.26259 0.89654 0.1936 0.0
C56 C 0.07006 0.71425 0.19959 0.0
O57 O 0.12863 0.75228 0.17734 0.0
O58 O 0.06375 0.75322 0.23013 0.0
C59 C 0.19161 0.96733 0.25781 0.0
Tb60 Tb 0.29772 0.15197 0.33402 0.0
C61 C 0.15761 0.13888 0.37502 0.0
Tb62 Tb 0.19196 0.01383 0.3805 0.0
O63 O 0.29035 0.09396 0.27184 0.0
O64 O 0.20504 0.05473 0.3162 0.0
O65 O 0.20752 0.16881 0.34459 0.0
C66 C 0.06432 0.89737 0.38287 0.0
O67 O 0.14351 0.07906 0.39524 0.0
C68 C 0.29938 0.10246 0.43085 0.0
C69 C 0.34808 0.04277 0.35687 0.0
O70 O 0.11258 0.91116 0.35295 0.0
O71 O 0.09065 0.94535 0.41389 0.0
O72 O 0.26137 0.03324 0.43655 0.0
O73 O 0.26947 0.11743 0.3997 0.0
O74 O 0.27999 0.99351 0.36553 0.0
O75 O 0.36933 0.11011 0.34561 0.0
C76 C 0.35917 0.29236 0.33897 0.0
O77 O 0.37985 0.25454 0.36132 0.0
O78 O 0.31356 0.25306 0.30867 0.0
C79 C 0.22749 0.039 0.2815 0.0
Tb80 Tb 0.85632 0.14741 0.33403 0.0
C81 C 0.86943 0.0204 0.37502 0.0
Tb82 Tb 0.99448 0.17982 0.38049 0.0
O83 O 0.91432 0.19805 0.27184 0.0
O84 O 0.95356 0.15198 0.3162 0.0
O85 O 0.8395 0.04037 0.34458 0.0
C86 C 0.1108 0.16845 0.3828 0.0
O87 O 0.92924 0.06614 0.39525 0.0
C88 C 0.90587 0.19861 0.43085 0.0
C89 C 0.96555 0.30698 0.35686 0.0
O90 O 0.0971 0.20302 0.3529 0.0
O91 O 0.06293 0.14693 0.41387 0.0
O92 O 0.9751 0.22983 0.43655 0.0
O93 O 0.89088 0.15371 0.3997 0.0
O94 O 0.01481 0.28816 0.36552 0.0
O95 O 0.8982 0.26089 0.34561 0.0
C96 C 0.71593 0.06845 0.33899 0.0
O97 O 0.75376 0.12696 0.36133 0.0
O98 O 0.75523 0.06213 0.30868 0.0
C99 C 0.96928 0.19016 0.2815 0.0
Tb100 Tb 0.8609 0.71057 0.33402 0.0
C101 C 0.98793 0.85065 0.37505 0.0
Tb102 Tb 0.82854 0.81635 0.38048 0.0
O103 O 0.81027 0.71796 0.27183 0.0
O104 O 0.85637 0.80327 0.3162 0.0
O105 O 0.96796 0.80075 0.3446 0.0
C106 C 0.83988 0.94403 0.3828 0.0
O107 O 0.94222 0.86477 0.39525 0.0
C108 C 0.80971 0.70892 0.43084 0.0
C109 C 0.70134 0.66025 0.35685 0.0
O110 O 0.80532 0.89576 0.35289 0.0
O111 O 0.86142 0.91768 0.41386 0.0
O112 O 0.77852 0.74695 0.43654 0.0
O113 O 0.85461 0.73883 0.39968 0.0
O114 O 0.72018 0.72834 0.36551 0.0
O115 O 0.74742 0.63898 0.3456 0.0
C116 C 0.93983 0.64912 0.33896 0.0
O117 O 0.88132 0.62844 0.36131 0.0
O118 O 0.94616 0.69474 0.30866 0.0
C119 C 0.81819 0.78083 0.28149 0.0
Tb120 Tb 0.99445 0.81623 0.87983 0.0
C121 C 0.96542 0.66006 0.85629 0.0
Tb122 Tb 0.85616 0.71045 0.83366 0.0
O123 O 0.97564 0.74698 0.93583 0.0
O124 O 0.89081 0.73876 0.89936 0.0
O125 O 0.01473 0.7282 0.86478 0.0
C126 C 0.71588 0.64927 0.83914 0.0
O127 O 0.89801 0.63878 0.84517 0.0
C128 C 0.96897 0.78068 0.78095 0.0
C129 C 0.8695 0.85075 0.87431 0.0
O130 O 0.75385 0.62873 0.86145 0.0
O131 O 0.75488 0.69445 0.80856 0.0
O132 O 0.9141 0.71768 0.77141 0.0
O133 O 0.95315 0.80296 0.81568 0.0
O134 O 0.83962 0.80088 0.84386 0.0
O135 O 0.92919 0.86466 0.89463 0.0
C136 C 0.11079 0.94399 0.88209 0.0
O137 O 0.09695 0.89575 0.85214 0.0
O138 O 0.06295 0.91759 0.91318 0.0
C139 C 0.90636 0.70903 0.93037 0.0
Tb140 Tb 0.19206 0.17983 0.87982 0.0
C141 C 0.34822 0.307 0.85628 0.0
Tb142 Tb 0.29785 0.14736 0.83365 0.0
O143 O 0.26131 0.23029 0.93582 0.0
O144 O 0.26954 0.15369 0.89935 0.0
O145 O 0.28008 0.28815 0.86477 0.0
C146 C 0.35906 0.06829 0.83911 0.0
O147 O 0.36951 0.26089 0.84515 0.0
C148 C 0.22758 0.18989 0.78095 0.0
C149 C 0.1576 0.02038 0.87433 0.0
O150 O 0.37959 0.12679 0.86143 0.0
O151 O 0.31387 0.06211 0.80854 0.0
O152 O 0.29058 0.19805 0.7714 0.0
O153 O 0.20532 0.1518 0.81568 0.0
O154 O 0.20746 0.04037 0.84387 0.0
O155 O 0.14364 0.06614 0.89464 0.0
C156 C 0.0643 0.16844 0.88209 0.0
O157 O 0.11254 0.20282 0.85213 0.0
O158 O 0.0907 0.14699 0.91317 0.0
C159 C 0.29927 0.19896 0.93036 0.0
Tb160 Tb 0.82845 0.01387 0.87982 0.0
C161 C 0.70129 0.04287 0.85628 0.0
Tb162 Tb 0.86094 0.15216 0.83365 0.0
O163 O 0.77798 0.03265 0.93581 0.0
O164 O 0.8546 0.1175 0.89935 0.0
O165 O 0.72013 0.99357 0.86476 0.0
C166 C 0.94003 0.29243 0.83913 0.0
O167 O 0.74741 0.11028 0.84515 0.0
C168 C 0.8184 0.03936 0.78094 0.0
C169 C 0.98791 0.13887 0.87434 0.0
O170 O 0.88152 0.25447 0.86144 0.0
O171 O 0.94621 0.25344 0.80855 0.0
O172 O 0.81025 0.09422 0.77139 0.0
O173 O 0.85649 0.05519 0.81567 0.0
O174 O 0.96793 0.16874 0.84387 0.0
O175 O 0.94214 0.07916 0.89465 0.0
C176 C 0.84002 0.89765 0.88202 0.0
O177 O 0.80554 0.91142 0.85208 0.0
O178 O 0.86135 0.9454 0.91316 0.0
C179 C 0.80932 0.10194 0.93036 0.0
Tb180 Tb 0.81788 0.99273 0.65846 0.0
C181 C 0.66172 0.96372 0.68207 0.0
Tb182 Tb 0.71224 0.85462 0.7048 0.0
O183 O 0.74854 0.97384 0.60252 0.0
O184 O 0.7403 0.88903 0.63903 0.0
O185 O 0.72984 0.01302 0.67351 0.0
C186 C 0.65093 0.71427 0.69993 0.0
O187 O 0.64049 0.89635 0.69324 0.0
C188 C 0.78249 0.96763 0.75735 0.0
C189 C 0.85237 0.86777 0.66387 0.0
O190 O 0.6302 0.75201 0.67754 0.0
O191 O 0.69648 0.75361 0.73025 0.0
O192 O 0.71955 0.91277 0.76697 0.0
O193 O 0.80477 0.95169 0.72267 0.0
O194 O 0.8025 0.83785 0.69432 0.0
O195 O 0.86634 0.92752 0.64361 0.0
C196 C 0.94561 0.10916 0.65607 0.0
O197 O 0.89737 0.09539 0.686 0.0
O198 O 0.91922 0.06118 0.62506 0.0
C199 C 0.71055 0.90458 0.60803 0.0
Tb200 Tb 0.01556 0.82678 0.65847 0.0
C201 C 0.04457 0.69964 0.68208 0.0
Tb202 Tb 0.15369 0.85928 0.7048 0.0
O203 O 0.03444 0.77633 0.60253 0.0
O204 O 0.11926 0.85292 0.63902 0.0
O205 O 0.99526 0.71845 0.67352 0.0
C206 C 0.29404 0.93834 0.69992 0.0
O207 O 0.11195 0.74579 0.69324 0.0
C208 C 0.0407 0.81651 0.75735 0.0
C209 C 0.14053 0.98625 0.66387 0.0
O210 O 0.2563 0.87986 0.67753 0.0
O211 O 0.2547 0.94454 0.73024 0.0
O212 O 0.09556 0.80844 0.76697 0.0
O213 O 0.05663 0.85473 0.72268 0.0
O214 O 0.17044 0.9663 0.69432 0.0
O215 O 0.08079 0.94046 0.6436 0.0
C216 C 0.89927 0.83826 0.65614 0.0
O217 O 0.91296 0.8037 0.68605 0.0
O218 O 0.94715 0.85974 0.62508 0.0
C219 C 0.1037 0.8076 0.60803 0.0
Tb220 Tb 0.18147 0.19042 0.65847 0.0
C221 C 0.30864 0.34656 0.68209 0.0
Tb222 Tb 0.14901 0.29607 0.70481 0.0
O223 O 0.23193 0.25975 0.60254 0.0
O224 O 0.15537 0.268 0.63904 0.0
O225 O 0.28981 0.27844 0.67353 0.0
C226 C 0.06999 0.35738 0.69994 0.0
O227 O 0.2625 0.3678 0.69325 0.0
C228 C 0.19175 0.22581 0.75736 0.0
C229 C 0.02202 0.15598 0.66384 0.0
O230 O 0.12846 0.37812 0.67756 0.0
O231 O 0.06377 0.31183 0.73026 0.0
O232 O 0.19984 0.28875 0.76698 0.0
O233 O 0.15353 0.20353 0.72268 0.0
O234 O 0.04198 0.20584 0.6943 0.0
O235 O 0.06779 0.14198 0.6436 0.0
C236 C 0.17001 0.06265 0.65614 0.0
O237 O 0.20456 0.11091 0.68606 0.0
O238 O 0.14853 0.08905 0.62508 0.0
C239 C 0.20068 0.29775 0.60804 0.0
Tb240 Tb 0.82041 0.62948 0.53845 0.0
C241 C 0.80713 0.48923 0.4977 0.0
Tb242 Tb 0.68212 0.52364 0.49211 0.0
O243 O 0.76259 0.62216 0.60071 0.0
O244 O 0.72322 0.53682 0.55635 0.0
O245 O 0.837 0.53908 0.52817 0.0
C246 C 0.56575 0.39597 0.48987 0.0
O247 O 0.74741 0.47524 0.47739 0.0
C248 C 0.77065 0.63098 0.44174 0.0
C249 C 0.71108 0.67975 0.51572 0.0
O250 O 0.57962 0.44422 0.51981 0.0
O251 O 0.61358 0.42232 0.45877 0.0
O252 O 0.70141 0.59303 0.43603 0.0
O253 O 0.78569 0.60104 0.47284 0.0
O254 O 0.66181 0.61165 0.50711 0.0
O255 O 0.77845 0.70104 0.52695 0.0
C256 C 0.96072 0.69079 0.53291 0.0
O257 O 0.92268 0.71131 0.51065 0.0
O258 O 0.92176 0.64551 0.56345 0.0
C259 C 0.70762 0.55926 0.59111 0.0
Tb260 Tb 0.37883 0.1926 0.53847 0.0
C261 C 0.51903 0.3196 0.49768 0.0
Tb262 Tb 0.48468 0.16019 0.49212 0.0
O263 O 0.38617 0.14211 0.60073 0.0
O264 O 0.4715 0.18811 0.55636 0.0
O265 O 0.46919 0.2996 0.52815 0.0
C266 C 0.61235 0.17147 0.48987 0.0
O267 O 0.53307 0.27388 0.47739 0.0
C268 C 0.37732 0.14135 0.44175 0.0
C269 C 0.32857 0.033 0.51573 0.0
O270 O 0.5641 0.1371 0.51982 0.0
O271 O 0.586 0.19295 0.45877 0.0
O272 O 0.41528 0.11008 0.43604 0.0
O273 O 0.40726 0.18633 0.47285 0.0
O274 O 0.39667 0.05186 0.50712 0.0
O275 O 0.30727 0.07907 0.52696 0.0
C276 C 0.31749 0.27157 0.53293 0.0
O277 O 0.29697 0.21301 0.51068 0.0
O278 O 0.36277 0.27789 0.56347 0.0
C279 C 0.44908 0.15006 0.59112 0.0
Tb280 Tb 0.8157 0.18787 0.53846 0.0
C281 C 0.68872 0.2011 0.49767 0.0
Tb282 Tb 0.84813 0.32616 0.49213 0.0
O283 O 0.86619 0.2457 0.60073 0.0
O284 O 0.82021 0.28504 0.55636 0.0
O285 O 0.7087 0.17125 0.52815 0.0
C286 C 0.83668 0.44241 0.48994 0.0
O287 O 0.73444 0.26084 0.47738 0.0
C288 C 0.86698 0.23766 0.44175 0.0
C289 C 0.97531 0.29724 0.51573 0.0
O290 O 0.87114 0.42862 0.51987 0.0
O291 O 0.81531 0.39468 0.45879 0.0
O292 O 0.89826 0.3069 0.43605 0.0
O293 O 0.82199 0.2226 0.47285 0.0
O294 O 0.95646 0.34649 0.50713 0.0
O295 O 0.92924 0.22987 0.52696 0.0
C296 C 0.73671 0.04757 0.53291 0.0
O297 O 0.79528 0.08561 0.51066 0.0
O298 O 0.73039 0.08653 0.56346 0.0
C299 C 0.85825 0.30065 0.59112 0.0
Tb300 Tb 0.96438 0.4853 0.66734 0.0
C301 C 0.82427 0.4722 0.70835 0.0
Tb302 Tb 0.85864 0.34715 0.71382 0.0
O303 O 0.95699 0.42728 0.60515 0.0
O304 O 0.87169 0.38805 0.64953 0.0
O305 O 0.87418 0.50214 0.67791 0.0
C306 C 0.73098 0.23071 0.7162 0.0
O307 O 0.81018 0.41238 0.72857 0.0
C308 C 0.96605 0.43579 0.76418 0.0
C309 C 0.01476 0.37611 0.69018 0.0
O310 O 0.77925 0.24448 0.68628 0.0
O311 O 0.75732 0.27869 0.74721 0.0
O312 O 0.92804 0.36657 0.76988 0.0
O313 O 0.93614 0.45076 0.73302 0.0
O314 O 0.94668 0.32685 0.69886 0.0
O315 O 0.03601 0.44346 0.67893 0.0
C316 C 0.02577 0.62566 0.6723 0.0
O317 O 0.04652 0.58787 0.69462 0.0
O318 O 0.98016 0.58636 0.64199 0.0
C319 C 0.89414 0.37233 0.61482 0.0
Tb320 Tb 0.52299 0.48074 0.66735 0.0
C321 C 0.53611 0.35374 0.70835 0.0
Tb322 Tb 0.66115 0.51316 0.71381 0.0
O323 O 0.58099 0.53137 0.60515 0.0
O324 O 0.62024 0.48531 0.64953 0.0
O325 O 0.50617 0.3737 0.67791 0.0
C326 C 0.77747 0.50178 0.71613 0.0
O327 O 0.59591 0.39947 0.72858 0.0
C328 C 0.57253 0.53194 0.76418 0.0
C329 C 0.6322 0.64032 0.69017 0.0
O330 O 0.76378 0.53637 0.68623 0.0
O331 O 0.72958 0.48025 0.7472 0.0
O332 O 0.64176 0.56316 0.76987 0.0
O333 O 0.55755 0.48705 0.73302 0.0
O334 O 0.68147 0.62151 0.69885 0.0
O335 O 0.56485 0.59421 0.67893 0.0
C336 C 0.38263 0.40174 0.67231 0.0
O337 O 0.42042 0.46029 0.69463 0.0
O338 O 0.42192 0.39543 0.64201 0.0
C339 C 0.63595 0.52347 0.61482 0.0
Tb340 Tb 0.52757 0.04391 0.66733 0.0
C341 C 0.6546 0.18398 0.70838 0.0
Tb342 Tb 0.49519 0.14967 0.71381 0.0
O343 O 0.47696 0.05132 0.60514 0.0
O344 O 0.52304 0.13661 0.64952 0.0
O345 O 0.63462 0.13409 0.67793 0.0
C346 C 0.50655 0.27736 0.71613 0.0
O347 O 0.60888 0.1981 0.72858 0.0
C348 C 0.47638 0.04225 0.76417 0.0
C349 C 0.368 0.99356 0.69016 0.0
O350 O 0.47197 0.22908 0.68623 0.0
O351 O 0.52809 0.25101 0.74719 0.0
O352 O 0.44518 0.08027 0.76987 0.0
O353 O 0.52127 0.07216 0.73301 0.0
O354 O 0.38683 0.06164 0.69885 0.0
O355 O 0.41409 0.9723 0.67892 0.0
C356 C 0.60654 0.98252 0.67229 0.0
O357 O 0.54799 0.96176 0.69461 0.0
O358 O 0.61286 0.02813 0.64199 0.0
C359 C 0.48487 0.11418 0.61481 0.0
Tb360 Tb 0.66112 0.14956 0.21316 0.0
C361 C 0.63207 0.99338 0.18961 0.0
Tb362 Tb 0.52283 0.04379 0.16699 0.0
O363 O 0.64231 0.08031 0.26916 0.0
O364 O 0.55748 0.0721 0.2327 0.0
O365 O 0.68139 0.06151 0.19812 0.0
C366 C 0.38258 0.98267 0.17247 0.0
O367 O 0.56467 0.97211 0.1785 0.0
C368 C 0.63564 0.11403 0.11428 0.0
C369 C 0.53618 0.18409 0.20765 0.0
O370 O 0.42051 0.96206 0.19475 0.0
O371 O 0.42158 0.02785 0.14189 0.0
O372 O 0.58077 0.05104 0.10473 0.0
O373 O 0.61983 0.1363 0.14901 0.0
O374 O 0.50629 0.13423 0.17719 0.0
O375 O 0.59587 0.198 0.22797 0.0
C376 C 0.77746 0.27732 0.21543 0.0
O377 O 0.76363 0.22909 0.18548 0.0
O378 O 0.72961 0.25092 0.24651 0.0
C379 C 0.57302 0.04237 0.2637 0.0
Tb380 Tb 0.85873 0.51318 0.21315 0.0
C381 C 0.01491 0.64034 0.1896 0.0
Tb382 Tb 0.96451 0.4807 0.16697 0.0
O383 O 0.92798 0.56362 0.26915 0.0
O384 O 0.93621 0.48703 0.23268 0.0
O385 O 0.94677 0.62151 0.19811 0.0
C386 C 0.02566 0.40159 0.17244 0.0
O387 O 0.03619 0.59421 0.17848 0.0
C388 C 0.89423 0.52322 0.11427 0.0
C389 C 0.82427 0.35372 0.20767 0.0
O390 O 0.04626 0.46013 0.19473 0.0
O391 O 0.98048 0.39541 0.14187 0.0
O392 O 0.95723 0.53137 0.10472 0.0
O393 O 0.87198 0.48514 0.14901 0.0
O394 O 0.87412 0.3737 0.17721 0.0
O395 O 0.81031 0.39948 0.22797 0.0
C396 C 0.73097 0.50177 0.21543 0.0
O397 O 0.77921 0.53617 0.18547 0.0
O398 O 0.75737 0.48031 0.24651 0.0
C399 C 0.96593 0.5323 0.26369 0.0
Tb400 Tb 0.49511 0.3472 0.21315 0.0
C401 C 0.36795 0.37622 0.18959 0.0
Tb402 Tb 0.52761 0.48549 0.16698 0.0
O403 O 0.44465 0.36599 0.26914 0.0
O404 O 0.52126 0.45083 0.23268 0.0
O405 O 0.38678 0.32691 0.1981 0.0
C406 C 0.60673 0.62574 0.17246 0.0
O407 O 0.41408 0.44363 0.17848 0.0
C408 C 0.48508 0.37269 0.11427 0.0
C409 C 0.65457 0.4722 0.20767 0.0
O410 O 0.54819 0.5878 0.19474 0.0
O411 O 0.61291 0.58674 0.14188 0.0
O412 O 0.47693 0.42755 0.10472 0.0
O413 O 0.52315 0.38851 0.14901 0.0
O414 O 0.6346 0.50207 0.17721 0.0
O415 O 0.6088 0.41249 0.22798 0.0
C416 C 0.50669 0.23099 0.21535 0.0
O417 O 0.4722 0.24474 0.18542 0.0
O418 O 0.52803 0.27874 0.24649 0.0
C419 C 0.47598 0.43527 0.26369 0.0
Tb420 Tb 0.48453 0.32604 0.99177 0.0
C421 C 0.3284 0.29705 1.01542 0.0
Tb422 Tb 0.37892 0.18794 0.03814 0.0
O423 O 0.41514 0.30718 0.93586 0.0
O424 O 0.40695 0.22231 0.97236 0.0
O425 O 0.39651 0.34634 1.00685 0.0
C426 C 0.3176 0.04759 0.03326 0.0
O427 O 0.30717 0.22968 0.0266 0.0
C428 C 0.44917 0.30096 0.09067 0.0
C429 C 0.51905 0.20109 0.99719 0.0
O430 O 0.29688 0.08535 1.01087 0.0
O431 O 0.36314 0.08692 0.06358 0.0
O432 O 0.38624 0.24609 0.10031 0.0
O433 O 0.47145 0.28502 0.05599 0.0
O434 O 0.4692 0.1712 0.02765 0.0
O435 O 0.53298 0.26082 0.9769 0.0
C436 C 0.61226 0.44247 0.9894 0.0
O437 O 0.58589 0.39451 0.95838 0.0
O438 O 0.564 0.42868 1.01933 0.0
C439 C 0.37715 0.23793 0.94142 0.0
Tb440 Tb 0.68226 0.16013 0.99177 0.0
C441 C 0.71124 0.03299 1.01543 0.0
Tb442 Tb 0.82038 0.19264 0.03813 0.0
O443 O 0.7011 0.10959 0.93586 0.0
O444 O 0.78598 0.18628 0.97235 0.0
O445 O 0.66194 0.0518 1.00686 0.0
C446 C 0.96072 0.27168 0.03325 0.0
O447 O 0.77862 0.07914 0.0266 0.0
C448 C 0.70737 0.14986 0.09067 0.0
C449 C 0.80721 0.3196 0.99718 0.0
O450 O 0.92297 0.21321 1.01086 0.0
O451 O 0.9214 0.2779 0.06357 0.0
O452 O 0.76224 0.14181 0.10031 0.0
O453 O 0.7233 0.18808 0.05599 0.0
O454 O 0.83709 0.29965 0.02766 0.0
O455 O 0.74749 0.2738 0.97689 0.0
C456 C 0.56596 0.1716 0.98947 0.0
O457 O 0.61383 0.19308 0.9584 0.0
O458 O 0.57967 0.13705 1.01938 0.0
C459 C 0.77035 0.14085 0.94143 0.0
Tb460 Tb 0.84812 0.52377 0.99178 0.0
C461 C 0.97529 0.67989 1.01544 0.0
Tb462 Tb 0.81565 0.62939 0.03815 0.0
O463 O 0.89867 0.59315 0.93587 0.0
O464 O 0.82201 0.60136 0.97237 0.0
O465 O 0.95646 0.61178 1.00686 0.0
C466 C 0.73665 0.69073 0.03327 0.0
O467 O 0.92916 0.70113 0.02661 0.0
C468 C 0.8584 0.55913 0.09068 0.0
C469 C 0.68867 0.48931 0.99716 0.0
O470 O 0.79512 0.71144 1.01088 0.0
O471 O 0.73042 0.64518 0.06359 0.0
O472 O 0.86647 0.62206 0.10032 0.0
O473 O 0.82018 0.53686 0.056 0.0
O474 O 0.70863 0.53914 0.02764 0.0
O475 O 0.73445 0.47535 0.97689 0.0
C476 C 0.83667 0.396 0.98947 0.0
O477 O 0.81519 0.42239 0.9584 0.0
O478 O 0.87122 0.44427 1.01938 0.0
C479 C 0.86743 0.63115 0.94144 0.0
Tb480 Tb 0.48707 0.9628 0.8718 0.0
C481 C 0.47379 0.82256 0.83103 0.0
Tb482 Tb 0.34879 0.85698 0.82545 0.0
O483 O 0.42925 0.95548 0.93406 0.0
O484 O 0.38988 0.87015 0.88969 0.0
O485 O 0.50366 0.87241 0.8615 0.0
C486 C 0.23242 0.7293 0.8232 0.0
O487 O 0.41407 0.80857 0.81072 0.0
C488 C 0.43732 0.96431 0.77507 0.0
C489 C 0.37776 0.01311 0.84907 0.0
O490 O 0.24627 0.77755 0.85314 0.0
O491 O 0.28026 0.75566 0.7921 0.0
O492 O 0.36808 0.92637 0.76937 0.0
O493 O 0.45236 0.93438 0.80617 0.0
O494 O 0.32849 0.94501 0.84044 0.0
O495 O 0.44513 0.03438 0.86029 0.0
C496 C 0.62736 0.02406 0.86624 0.0
O497 O 0.58935 0.04465 0.84402 0.0
O498 O 0.58839 0.97878 0.89679 0.0
C499 C 0.37428 0.89258 0.92446 0.0
Tb500 Tb 0.0455 0.52593 0.87181 0.0
C501 C 0.1857 0.65292 0.83101 0.0
Tb502 Tb 0.15134 0.49351 0.82546 0.0
O503 O 0.05286 0.47545 0.93407 0.0
O504 O 0.13818 0.52143 0.8897 0.0
O505 O 0.13586 0.63294 0.86148 0.0
C506 C 0.27901 0.5048 0.8232 0.0
O507 O 0.19973 0.60721 0.81072 0.0
C508 C 0.04399 0.47468 0.77508 0.0
C509 C 0.99522 0.36633 0.84908 0.0
O510 O 0.23076 0.47041 0.85315 0.0
O511 O 0.25266 0.52629 0.79211 0.0
O512 O 0.08195 0.44341 0.76938 0.0
O513 O 0.07392 0.51965 0.80619 0.0
O514 O 0.06331 0.38517 0.84045 0.0
O515 O 0.97393 0.41241 0.8603 0.0
C516 C 0.98422 0.60494 0.86627 0.0
O517 O 0.96363 0.54634 0.84404 0.0
O518 O 0.0295 0.61126 0.89681 0.0
C519 C 0.11576 0.4834 0.92446 0.0
Tb520 Tb 0.48237 0.52122 0.8718 0.0
C521 C 0.35539 0.53444 0.831 0.0
Tb522 Tb 0.51481 0.6595 0.82546 0.0
O523 O 0.53285 0.57903 0.93407 0.0
O524 O 0.48688 0.61838 0.8897 0.0
O525 O 0.37537 0.50459 0.86148 0.0
C526 C 0.50334 0.77574 0.82327 0.0
O527 O 0.40112 0.59418 0.81071 0.0
C528 C 0.53365 0.57099 0.77508 0.0
C529 C 0.64198 0.63055 0.84909 0.0
O530 O 0.53782 0.76196 0.8532 0.0
O531 O 0.48197 0.728 0.79213 0.0
O532 O 0.56493 0.64023 0.76939 0.0
O533 O 0.48866 0.55594 0.80619 0.0
O534 O 0.62315 0.67981 0.84046 0.0
O535 O 0.5959 0.56318 0.8603 0.0
C536 C 0.40334 0.38093 0.86625 0.0
O537 O 0.46195 0.41894 0.84403 0.0
O538 O 0.39703 0.41989 0.8968 0.0
C539 C 0.52491 0.63399 0.92447 0.0
Tb540 Tb 0.63103 0.81864 1.00068 0.0
C541 C 0.49093 0.80554 0.0417 0.0
Tb542 Tb 0.52532 0.68052 0.04718 0.0
O543 O 0.62363 0.76063 0.93849 0.0
O544 O 0.53835 0.72138 0.98288 0.0
O545 O 0.54081 0.83545 1.01125 0.0
C546 C 0.39767 0.56407 0.04954 0.0
O547 O 0.47687 0.74576 0.06195 0.0
C548 C 0.63279 0.76911 0.09745 0.0
C549 C 0.68142 0.70946 0.0235 0.0
O550 O 0.42399 0.61204 0.08056 0.0
O551 O 0.44594 0.57785 0.01963 0.0
O552 O 0.59478 0.6999 0.10321 0.0
O553 O 0.60283 0.78415 0.06636 0.0
O554 O 0.61335 0.6602 0.03219 0.0
O555 O 0.70266 0.7768 1.01224 0.0
C556 C 0.69244 0.95901 1.00564 0.0
O557 O 0.71318 0.92121 0.02796 0.0
O558 O 0.64683 0.91972 0.97533 0.0
C559 C 0.56079 0.70566 0.94817 0.0
Tb560 Tb 0.18965 0.81404 1.00068 0.0
C561 C 0.20276 0.68706 0.0417 0.0
Tb562 Tb 0.32779 0.84648 0.04718 0.0
O563 O 0.24765 0.86466 0.93849 0.0
O564 O 0.2869 0.81863 0.98288 0.0
O565 O 0.17286 0.70702 1.01124 0.0
C566 C 0.44411 0.83511 0.04947 0.0
O567 O 0.26254 0.7328 0.06196 0.0
C568 C 0.23922 0.86537 0.09745 0.0
C569 C 0.29886 0.97364 0.02349 0.0
O570 O 0.39624 0.81358 0.08055 0.0
O571 O 0.43041 0.86969 0.01958 0.0
O572 O 0.30843 0.89657 0.10321 0.0
O573 O 0.22417 0.82036 0.06636 0.0
O574 O 0.34812 0.95482 0.03218 0.0
O575 O 0.23152 0.92753 1.01224 0.0
C576 C 0.04928 0.73507 1.00565 0.0
O577 O 0.08709 0.79362 0.02797 0.0
O578 O 0.08857 0.72875 0.97535 0.0
C579 C 0.30262 0.85679 0.94816 0.0
Tb580 Tb 0.19427 0.37727 1.00067 0.0
C581 C 0.32128 0.51732 0.04173 0.0
Tb582 Tb 0.16187 0.48299 0.04717 0.0
O583 O 0.14367 0.38468 0.93847 0.0
O584 O 0.18972 0.46995 0.98287 0.0
O585 O 0.30131 0.46746 1.01126 0.0
C586 C 0.17322 0.61067 0.04947 0.0
O587 O 0.27555 0.5314 0.06196 0.0
C588 C 0.14296 0.37552 0.09744 0.0
C589 C 0.03468 0.3269 0.02348 0.0
O590 O 0.19476 0.58434 0.08054 0.0
O591 O 0.13865 0.56239 0.01957 0.0
O592 O 0.11176 0.41353 0.1032 0.0
O593 O 0.18796 0.40547 0.06635 0.0
O594 O 0.05351 0.39498 0.03217 0.0
O595 O 0.08078 0.30565 1.01222 0.0
C596 C 0.27321 0.31584 1.00563 0.0
O597 O 0.21467 0.29511 0.02795 0.0
O598 O 0.27954 0.36146 0.97532 0.0
C599 C 0.15156 0.44752 0.94815 0.0
Tb600 Tb 0.32776 0.48287 0.54652 0.0
C601 C 0.29874 0.32672 0.52292 0.0
Tb602 Tb 0.18949 0.37715 0.50032 0.0
O603 O 0.30898 0.41357 0.60249 0.0
O604 O 0.2241 0.40541 0.56603 0.0
O605 O 0.34804 0.39485 0.53144 0.0
C606 C 0.04923 0.316 0.50581 0.0
O607 O 0.23133 0.30546 0.5118 0.0
C608 C 0.3023 0.44739 0.44763 0.0
C609 C 0.20283 0.51742 0.541 0.0
O610 O 0.08718 0.29541 0.52809 0.0
O611 O 0.08822 0.36118 0.47523 0.0
O612 O 0.24743 0.38441 0.43806 0.0
O613 O 0.28649 0.46965 0.48236 0.0
O614 O 0.17297 0.4676 0.51053 0.0
O615 O 0.26249 0.5313 0.56135 0.0
C616 C 0.44411 0.61064 0.54878 0.0
O617 O 0.43025 0.56241 0.51882 0.0
O618 O 0.39628 0.58423 0.57988 0.0
C619 C 0.23971 0.37563 0.59697 0.0
Tb620 Tb 0.52541 0.8465 0.54651 0.0
C621 C 0.68156 0.97366 0.52291 0.0
Tb622 Tb 0.63116 0.81399 0.5003 0.0
O623 O 0.59472 0.89704 0.60248 0.0
O624 O 0.6029 0.82033 0.56602 0.0
O625 O 0.61343 0.95482 0.53143 0.0
C626 C 0.69233 0.73491 0.50578 0.0
O627 O 0.70284 0.92753 0.51179 0.0
C628 C 0.56087 0.85653 0.44762 0.0
C629 C 0.49093 0.68704 0.54103 0.0
O630 O 0.71291 0.79345 0.52807 0.0
O631 O 0.64715 0.72872 0.4752 0.0
O632 O 0.62386 0.86465 0.43805 0.0
O633 O 0.53863 0.81846 0.48236 0.0
O634 O 0.54074 0.70701 0.51054 0.0
O635 O 0.477 0.73281 0.56135 0.0
C636 C 0.39765 0.8351 0.54878 0.0
O637 O 0.44588 0.86947 0.51882 0.0
O638 O 0.42405 0.81367 0.57987 0.0
C639 C 0.63267 0.86572 0.59696 0.0
Tb640 Tb 0.16179 0.68056 0.54651 0.0
C641 C 0.03463 0.70955 0.52291 0.0
Tb642 Tb 0.19431 0.81884 0.50031 0.0
O643 O 0.11124 0.69932 0.60247 0.0
O644 O 0.18795 0.78421 0.56602 0.0
O645 O 0.05347 0.66026 0.53143 0.0
C646 C 0.27341 0.95909 0.5058 0.0
O647 O 0.08077 0.77696 0.51179 0.0
C648 C 0.15177 0.70603 0.44761 0.0
C649 C 0.32126 0.80555 0.54103 0.0
O650 O 0.21487 0.92114 0.52808 0.0
O651 O 0.2796 0.9201 0.47522 0.0
O652 O 0.14365 0.7609 0.43805 0.0
O653 O 0.18983 0.72185 0.48236 0.0
O654 O 0.30129 0.83539 0.51054 0.0
O655 O 0.27547 0.74586 0.56136 0.0
C656 C 0.17336 0.56434 0.54871 0.0
O657 O 0.1389 0.57812 0.51877 0.0
O658 O 0.19467 0.61208 0.57985 0.0
C659 C 0.14256 0.76859 0.59696 0.0
Tb660 Tb 0.15119 0.65938 0.32511 0.0
C661 C 0.99505 0.63037 0.34878 0.0
Tb662 Tb 0.0456 0.52128 0.37148 0.0
O663 O 0.0818 0.64051 0.2692 0.0
O664 O 0.07361 0.55565 0.3057 0.0
O665 O 0.06315 0.67967 0.34019 0.0
C666 C 0.98433 0.38096 0.3666 0.0
O667 O 0.97383 0.563 0.35995 0.0
C668 C 0.11586 0.6343 0.42402 0.0
C669 C 0.18572 0.53443 0.33052 0.0
O670 O 0.96355 0.41868 0.34424 0.0
O671 O 0.02987 0.42029 0.39692 0.0
O672 O 0.05293 0.57943 0.43366 0.0
O673 O 0.13813 0.61837 0.38933 0.0
O674 O 0.13588 0.50455 0.36099 0.0
O675 O 0.19964 0.59416 0.31023 0.0
C676 C 0.27893 0.77581 0.32272 0.0
O677 O 0.23069 0.76202 0.35266 0.0
O678 O 0.25253 0.72784 0.2917 0.0
C679 C 0.04381 0.57126 0.27476 0.0
Tb680 Tb 0.34892 0.49346 0.32511 0.0
C681 C 0.37792 0.36633 0.34879 0.0
Tb682 Tb 0.48703 0.52599 0.37148 0.0
O683 O 0.36777 0.44292 0.26921 0.0
O684 O 0.45265 0.51961 0.30569 0.0
O685 O 0.32862 0.38513 0.3402 0.0
C686 C 0.62736 0.60506 0.36659 0.0
O687 O 0.4453 0.41249 0.35995 0.0
C688 C 0.37403 0.48321 0.42402 0.0
C689 C 0.47387 0.65293 0.33051 0.0
O690 O 0.58964 0.54654 0.34423 0.0
O691 O 0.58803 0.61127 0.39691 0.0
O692 O 0.42891 0.47517 0.43366 0.0
O693 O 0.38995 0.52142 0.38933 0.0
O694 O 0.50375 0.63299 0.36099 0.0
O695 O 0.41415 0.60713 0.31022 0.0
C696 C 0.23263 0.50494 0.32279 0.0
O697 O 0.24633 0.47039 0.35271 0.0
O698 O 0.28049 0.52639 0.29172 0.0
C699 C 0.43702 0.47418 0.27477 0.0
Tb700 Tb 0.5148 0.85711 0.32512 0.0
C701 C 0.64196 0.01324 0.3488 0.0
Tb702 Tb 0.48231 0.96271 0.37149 0.0
O703 O 0.56535 0.9265 0.26921 0.0
O704 O 0.48868 0.9347 0.30571 0.0
O705 O 0.62315 0.94513 0.3402 0.0
C706 C 0.40327 0.02399 0.36661 0.0
O707 O 0.59581 0.03446 0.35996 0.0
C708 C 0.52505 0.89244 0.42403 0.0
C709 C 0.35534 0.82264 0.33049 0.0
O710 O 0.46178 0.04478 0.34425 0.0
O711 O 0.39705 0.97844 0.39693 0.0
O712 O 0.53311 0.95536 0.43367 0.0
O713 O 0.48684 0.87018 0.38934 0.0
O714 O 0.37529 0.87246 0.36097 0.0
O715 O 0.40113 0.80869 0.31022 0.0
C716 C 0.50334 0.72934 0.32279 0.0
O717 O 0.53788 0.77759 0.35271 0.0
O718 O 0.48187 0.75575 0.29172 0.0
C719 C 0.5341 0.96449 0.27478 0.0
loop_
_geom_bond_atom_site_label_1
_geom_bond_atom_site_label_2
_geom_bond_distance
_geom_bond_site_symmetry_2
_ccdc_geom_bond_type
Tb0 O3 2.453 . S
Tb0 O4 2.596 . S
Tb0 O5 2.374 . S
Tb0 O13 2.343 . S
Tb0 O15 2.353 . S
Tb0 O17 2.427 . S
Tb0 O18 2.513 . S
C1 O5 1.251 . S
C1 O7 1.263 . S
Tb2 O4 2.343 . S
Tb2 O7 2.353 . S
Tb2 O10 2.427 1_455 S
Tb2 O11 2.513 1_455 S
Tb2 O12 2.453 . S
Tb2 O13 2.596 . S
Tb2 O14 2.374 . S
O3 Tb0 2.453 . S
O3 C19 1.245 . S
O4 Tb0 2.596 . S
O4 Tb2 2.343 . S
O4 C19 1.259 . S
O5 Tb0 2.374 . S
O5 C1 1.251 . S
C6 O10 1.275 . S
C6 O11 1.246 . S
O7 C1 1.263 . S
O7 Tb2 2.353 . S
C8 O12 1.245 . S
C8 O13 1.259 . S
C9 O14 1.250 . S
C9 O15 1.263 . S
O10 Tb2 2.427 1_655 S
O10 C6 1.275 . S
O11 Tb2 2.513 1_655 S
O11 C6 1.246 . S
O12 Tb2 2.453 . S
O12 C8 1.245 . S
O13 Tb0 2.343 . S
O13 Tb2 2.596 . S
O13 C8 1.259 . S
O14 Tb2 2.374 . S
O14 C9 1.250 . S
O15 Tb0 2.353 . S
O15 C9 1.263 . S
C16 O17 1.275 . S
C16 O18 1.246 . S
O17 Tb0 2.427 . S
O17 C16 1.275 . S
O18 Tb0 2.513 . S
O18 C16 1.246 . S
C19 O3 1.245 . S
C19 O4 1.259 . S
Tb20 O23 2.453 . S
Tb20 O24 2.596 . S
Tb20 O25 2.374 . S
Tb20 O33 2.343 . S
Tb20 O35 2.353 . S
Tb20 O37 2.427 . S
Tb20 O38 2.513 . S
C21 O25 1.251 1_545 S
C21 O27 1.263 1_545 S
Tb22 O24 2.343 . S
Tb22 O27 2.353 . S
Tb22 O30 2.427 . S
Tb22 O31 2.513 . S
Tb22 O32 2.453 . S
Tb22 O33 2.596 . S
Tb22 O34 2.374 . S
O23 Tb20 2.453 . S
O23 C39 1.245 . S
O24 Tb20 2.596 . S
O24 Tb22 2.343 . S
O24 C39 1.259 . S
O25 Tb20 2.374 . S
O25 C21 1.251 1_565 S
C26 O30 1.275 . S
C26 O31 1.246 . S
O27 C21 1.263 1_565 S
O27 Tb22 2.353 . S
C28 O32 1.245 . S
C28 O33 1.259 . S
C29 O34 1.250 . S
C29 O35 1.263 . S
O30 Tb22 2.427 . S
O30 C26 1.275 . S
O31 Tb22 2.513 . S
O31 C26 1.246 . S
O32 Tb22 2.453 . S
O32 C28 1.245 . S
O33 Tb20 2.343 . S
O33 Tb22 2.596 . S
O33 C28 1.259 . S
O34 Tb22 2.374 . S
O34 C29 1.250 . S
O35 Tb20 2.353 . S
O35 C29 1.263 . S
C36 O37 1.275 . S
C36 O38 1.246 . S
O37 Tb20 2.427 . S
O37 C36 1.275 . S
O38 Tb20 2.513 . S
O38 C36 1.246 . S
C39 O23 1.245 . S
C39 O24 1.259 . S
Tb40 O43 2.453 . S
Tb40 O44 2.596 . S
Tb40 O45 2.374 . S
Tb40 O53 2.343 . S
Tb40 O55 2.353 . S
Tb40 O57 2.427 . S
Tb40 O58 2.513 . S
C41 O45 1.251 1_655 S
C41 O47 1.263 1_655 S
Tb42 O44 2.343 . S
Tb42 O47 2.353 . S
Tb42 O50 2.427 1_565 S
Tb42 O51 2.513 1_565 S
Tb42 O52 2.453 . S
Tb42 O53 2.596 . S
Tb42 O54 2.374 . S
O43 Tb40 2.453 . S
O43 C59 1.245 . S
O44 Tb40 2.596 . S
O44 Tb42 2.343 . S
O44 C59 1.259 . S
O45 Tb40 2.374 . S
O45 C41 1.251 1_455 S
C46 O50 1.275 . S
C46 O51 1.246 . S
O47 C41 1.263 1_455 S
O47 Tb42 2.353 . S
C48 O52 1.245 . S
C48 O53 1.259 . S
C49 O54 1.250 . S
C49 O55 1.263 . S
O50 Tb42 2.427 1_545 S
O50 C46 1.275 . S
O51 Tb42 2.513 1_545 S
O51 C46 1.246 . S
O52 Tb42 2.453 . S
O52 C48 1.245 . S
O53 Tb40 2.343 . S
O53 Tb42 2.596 . S
O53 C48 1.259 . S
O54 Tb42 2.374 . S
O54 C49 1.250 . S
O55 Tb40 2.353 . S
O55 C49 1.263 . S
C56 O57 1.275 . S
C56 O58 1.246 . S
O57 Tb40 2.427 . S
O57 C56 1.275 . S
O58 Tb40 2.513 . S
O58 C56 1.246 . S
C59 O43 1.245 . S
C59 O44 1.259 . S
Tb60 O63 2.453 . S
Tb60 O64 2.596 . S
Tb60 O65 2.374 . S
Tb60 O73 2.343 . S
Tb60 O75 2.353 . S
Tb60 O77 2.427 . S
Tb60 O78 2.513 . S
C61 O65 1.251 . S
C61 O67 1.263 . S
Tb62 O64 2.343 . S
Tb62 O67 2.353 . S
Tb62 O70 2.427 1_545 S
Tb62 O71 2.513 1_545 S
Tb62 O72 2.453 . S
Tb62 O73 2.596 . S
Tb62 O74 2.374 . S
O63 Tb60 2.453 . S
O63 C79 1.245 . S
O64 Tb60 2.596 . S
O64 Tb62 2.343 . S
O64 C79 1.259 . S
O65 Tb60 2.374 . S
O65 C61 1.251 . S
C66 O70 1.275 . S
C66 O71 1.246 . S
O67 C61 1.263 . S
O67 Tb62 2.353 . S
C68 O72 1.245 . S
C68 O73 1.259 . S
C69 O74 1.250 . S
C69 O75 1.263 . S
O70 Tb62 2.427 1_565 S
O70 C66 1.275 . S
O71 Tb62 2.513 1_565 S
O71 C66 1.246 . S
O72 Tb62 2.453 . S
O72 C68 1.245 . S
O73 Tb60 2.343 . S
O73 Tb62 2.596 . S
O73 C68 1.259 . S
O74 Tb62 2.374 . S
O74 C69 1.250 . S
O75 Tb60 2.353 . S
O75 C69 1.263 . S
C76 O77 1.275 . S
C76 O78 1.246 . S
O77 Tb60 2.427 . S
O77 C76 1.275 . S
O78 Tb60 2.513 . S
O78 C76 1.246 . S
C79 O63 1.245 . S
C79 O64 1.259 . S
Tb80 O83 2.453 . S
Tb80 O84 2.596 . S
Tb80 O85 2.374 . S
Tb80 O93 2.343 . S
Tb80 O95 2.353 . S
Tb80 O97 2.427 . S
Tb80 O98 2.513 . S
C81 O85 1.251 1_565 S
C81 O87 1.263 1_565 S
Tb82 O84 2.343 . S
Tb82 O87 2.353 . S
Tb82 O90 2.427 1_655 S
Tb82 O91 2.513 1_655 S
Tb82 O92 2.453 . S
Tb82 O93 2.596 . S
Tb82 O94 2.374 . S
O83 Tb80 2.453 . S
O83 C99 1.245 . S
O84 Tb80 2.596 . S
O84 Tb82 2.343 . S
O84 C99 1.259 . S
O85 Tb80 2.374 . S
O85 C81 1.251 1_545 S
C86 O90 1.275 . S
C86 O91 1.246 . S
O87 C81 1.263 1_545 S
O87 Tb82 2.353 . S
C88 O92 1.245 . S
C88 O93 1.259 . S
C89 O94 1.250 . S
C89 O95 1.263 . S
O90 Tb82 2.427 1_455 S
O90 C86 1.275 . S
O91 Tb82 2.513 1_455 S
O91 C86 1.246 . S
O92 Tb82 2.453 . S
O92 C88 1.245 . S
O93 Tb80 2.343 . S
O93 Tb82 2.596 . S
O93 C88 1.259 . S
O94 Tb82 2.374 . S
O94 C89 1.250 . S
O95 Tb80 2.353 . S
O95 C89 1.263 . S
C96 O97 1.275 . S
C96 O98 1.246 . S
O97 Tb80 2.427 . S
O97 C96 1.275 . S
O98 Tb80 2.513 . S
O98 C96 1.246 . S
C99 O83 1.245 . S
C99 O84 1.259 . S
Tb100 O103 2.453 . S
Tb100 O104 2.596 . S
Tb100 O105 2.374 . S
Tb100 O113 2.343 . S
Tb100 O115 2.353 . S
Tb100 O117 2.427 . S
Tb100 O118 2.513 . S
C101 O105 1.251 1_455 S
C101 O107 1.263 1_455 S
Tb102 O104 2.343 . S
Tb102 O107 2.353 . S
Tb102 O110 2.427 . S
Tb102 O111 2.513 . S
Tb102 O112 2.453 . S
Tb102 O113 2.596 . S
Tb102 O114 2.374 . S
O103 Tb100 2.453 . S
O103 C119 1.245 . S
O104 Tb100 2.596 . S
O104 Tb102 2.343 . S
O104 C119 1.259 . S
O105 Tb100 2.374 . S
O105 C101 1.251 1_655 S
C106 O110 1.275 . S
C106 O111 1.246 . S
O107 C101 1.263 1_655 S
O107 Tb102 2.353 . S
C108 O112 1.245 . S
C108 O113 1.259 . S
C109 O114 1.250 . S
C109 O115 1.263 . S
O110 Tb102 2.427 . S
O110 C106 1.275 . S
O111 Tb102 2.513 . S
O111 C106 1.246 . S
O112 Tb102 2.453 . S
O112 C108 1.245 . S
O113 Tb100 2.343 . S
O113 Tb102 2.596 . S
O113 C108 1.259 . S
O114 Tb102 2.374 . S
O114 C109 1.250 . S
O115 Tb100 2.353 . S
O115 C109 1.263 . S
C116 O117 1.275 . S
C116 O118 1.246 . S
O117 Tb100 2.427 . S
O117 C116 1.275 . S
O118 Tb100 2.513 . S
O118 C116 1.246 . S
C119 O103 1.245 . S
C119 O104 1.259 . S
Tb120 O123 2.453 . S
Tb120 O124 2.596 . S
Tb120 O125 2.374 . S
Tb120 O133 2.343 . S
Tb120 O135 2.353 . S
Tb120 O137 2.427 1_655 S
Tb120 O138 2.513 1_655 S
C121 O125 1.251 . S
C121 O127 1.263 . S
Tb122 O124 2.343 . S
Tb122 O127 2.353 . S
Tb122 O130 2.427 . S
Tb122 O131 2.513 . S
Tb122 O132 2.453 . S
Tb122 O133 2.596 . S
Tb122 O134 2.374 . S
O123 Tb120 2.453 . S
O123 C139 1.245 . S
O124 Tb120 2.596 . S
O124 Tb122 2.343 . S
O124 C139 1.259 . S
O125 Tb120 2.374 . S
O125 C121 1.251 . S
C126 O130 1.275 . S
C126 O131 1.246 . S
O127 C121 1.263 . S
O127 Tb122 2.353 . S
C128 O132 1.245 . S
C128 O133 1.259 . S
C129 O134 1.250 . S
C129 O135 1.263 . S
O130 Tb122 2.427 . S
O130 C126 1.275 . S
O131 Tb122 2.513 . S
O131 C126 1.246 . S
O132 Tb122 2.453 . S
O132 C128 1.245 . S
O133 Tb120 2.343 . S
O133 Tb122 2.596 . S
O133 C128 1.259 . S
O134 Tb122 2.374 . S
O134 C129 1.250 . S
O135 Tb120 2.353 . S
O135 C129 1.263 . S
C136 O137 1.275 . S
C136 O138 1.246 . S
O137 Tb120 2.427 1_455 S
O137 C136 1.275 . S
O138 Tb120 2.513 1_455 S
O138 C136 1.246 . S
C139 O123 1.245 . S
C139 O124 1.259 . S
Tb140 O143 2.453 . S
Tb140 O144 2.596 . S
Tb140 O145 2.374 . S
Tb140 O153 2.343 . S
Tb140 O155 2.353 . S
Tb140 O157 2.427 . S
Tb140 O158 2.513 . S
C141 O145 1.251 . S
C141 O147 1.263 . S
Tb142 O144 2.343 . S
Tb142 O147 2.353 . S
Tb142 O150 2.427 . S
Tb142 O151 2.513 . S
Tb142 O152 2.453 . S
Tb142 O153 2.596 . S
Tb142 O154 2.374 . S
O143 Tb140 2.453 . S
O143 C159 1.245 . S
O144 Tb140 2.596 . S
O144 Tb142 2.343 . S
O144 C159 1.259 . S
O145 Tb140 2.374 . S
O145 C141 1.251 . S
C146 O150 1.275 . S
C146 O151 1.246 . S
O147 C141 1.263 . S
O147 Tb142 2.353 . S
C148 O152 1.245 . S
C148 O153 1.259 . S
C149 O154 1.250 1_565 S
C149 O155 1.263 1_565 S
O150 Tb142 2.427 . S
O150 C146 1.275 . S
O151 Tb142 2.513 . S
O151 C146 1.246 . S
O152 Tb142 2.453 . S
O152 C148 1.245 . S
O153 Tb140 2.343 . S
O153 Tb142 2.596 . S
O153 C148 1.259 . S
O154 Tb142 2.374 . S
O154 C149 1.250 1_545 S
O155 Tb140 2.353 . S
O155 C149 1.263 1_545 S
C156 O157 1.275 . S
C156 O158 1.246 . S
O157 Tb140 2.427 . S
O157 C156 1.275 . S
O158 Tb140 2.513 . S
O158 C156 1.246 . S
C159 O143 1.245 . S
C159 O144 1.259 . S
Tb160 O163 2.453 . S
Tb160 O164 2.596 . S
Tb160 O165 2.374 . S
Tb160 O173 2.343 . S
Tb160 O175 2.353 . S
Tb160 O177 2.427 1_545 S
Tb160 O178 2.513 1_545 S
C161 O165 1.251 . S
C161 O167 1.263 . S
Tb162 O164 2.343 . S
Tb162 O167 2.353 . S
Tb162 O170 2.427 . S
Tb162 O171 2.513 . S
Tb162 O172 2.453 . S
Tb162 O173 2.596 . S
Tb162 O174 2.374 . S
O163 Tb160 2.453 . S
O163 C179 1.245 . S
O164 Tb160 2.596 . S
O164 Tb162 2.343 . S
O164 C179 1.259 . S
O165 Tb160 2.374 . S
O165 C161 1.251 . S
C166 O170 1.275 . S
C166 O171 1.246 . S
O167 C161 1.263 . S
O167 Tb162 2.353 . S
C168 O172 1.245 . S
C168 O173 1.259 . S
C169 O174 1.250 1_455 S
C169 O175 1.263 1_455 S
O170 Tb162 2.427 . S
O170 C166 1.275 . S
O171 Tb162 2.513 . S
O171 C166 1.246 . S
O172 Tb162 2.453 . S
O172 C168 1.245 . S
O173 Tb160 2.343 . S
O173 Tb162 2.596 . S
O173 C168 1.259 . S
O174 Tb162 2.374 . S
O174 C169 1.250 1_655 S
O175 Tb160 2.353 . S
O175 C169 1.263 1_655 S
C176 O177 1.275 . S
C176 O178 1.246 . S
O177 Tb160 2.427 1_565 S
O177 C176 1.275 . S
O178 Tb160 2.513 1_565 S
O178 C176 1.246 . S
C179 O163 1.245 . S
C179 O164 1.259 . S
Tb180 O183 2.453 . S
Tb180 O184 2.596 . S
Tb180 O185 2.374 . S
Tb180 O193 2.343 . S
Tb180 O195 2.353 . S
Tb180 O197 2.427 1_565 S
Tb180 O198 2.513 1_565 S
C181 O185 1.251 . S
C181 O187 1.263 . S
Tb182 O184 2.343 . S
Tb182 O187 2.353 . S
Tb182 O190 2.427 . S
Tb182 O191 2.513 . S
Tb182 O192 2.453 . S
Tb182 O193 2.596 . S
Tb182 O194 2.374 . S
O183 Tb180 2.453 . S
O183 C199 1.245 . S
O184 Tb180 2.596 . S
O184 Tb182 2.343 . S
O184 C199 1.259 . S
O185 Tb180 2.374 . S
O185 C181 1.251 . S
C186 O190 1.275 . S
C186 O191 1.246 . S
O187 C181 1.263 . S
O187 Tb182 2.353 . S
C188 O192 1.245 . S
C188 O193 1.259 . S
C189 O194 1.250 . S
C189 O195 1.263 . S
O190 Tb182 2.427 . S
O190 C186 1.275 . S
O191 Tb182 2.513 . S
O191 C186 1.246 . S
O192 Tb182 2.453 . S
O192 C188 1.245 . S
O193 Tb180 2.343 . S
O193 Tb182 2.596 . S
O193 C188 1.259 . S
O194 Tb182 2.374 . S
O194 C189 1.250 . S
O195 Tb180 2.353 . S
O195 C189 1.263 . S
C196 O197 1.275 . S
C196 O198 1.246 . S
O197 Tb180 2.427 1_545 S
O197 C196 1.275 . S
O198 Tb180 2.513 1_545 S
O198 C196 1.246 . S
C199 O183 1.245 . S
C199 O184 1.259 . S
Tb200 O203 2.453 . S
Tb200 O204 2.596 . S
Tb200 O205 2.374 . S
Tb200 O213 2.343 . S
Tb200 O215 2.353 . S
Tb200 O217 2.427 1_455 S
Tb200 O218 2.513 1_455 S
C201 O205 1.251 . S
C201 O207 1.263 . S
Tb202 O204 2.343 . S
Tb202 O207 2.353 . S
Tb202 O210 2.427 . S
Tb202 O211 2.513 . S
Tb202 O212 2.453 . S
Tb202 O213 2.596 . S
Tb202 O214 2.374 . S
O203 Tb200 2.453 . S
O203 C219 1.245 . S
O204 Tb200 2.596 . S
O204 Tb202 2.343 . S
O204 C219 1.259 . S
O205 Tb200 2.374 . S
O205 C201 1.251 . S
C206 O210 1.275 . S
C206 O211 1.246 . S
O207 C201 1.263 . S
O207 Tb202 2.353 . S
C208 O212 1.245 . S
C208 O213 1.259 . S
C209 O214 1.250 1_545 S
C209 O215 1.263 1_545 S
O210 Tb202 2.427 . S
O210 C206 1.275 . S
O211 Tb202 2.513 . S
O211 C206 1.246 . S
O212 Tb202 2.453 . S
O212 C208 1.245 . S
O213 Tb200 2.343 . S
O213 Tb202 2.596 . S
O213 C208 1.259 . S
O214 Tb202 2.374 . S
O214 C209 1.250 1_565 S
O215 Tb200 2.353 . S
O215 C209 1.263 1_565 S
C216 O217 1.275 . S
C216 O218 1.246 . S
O217 Tb200 2.427 1_655 S
O217 C216 1.275 . S
O218 Tb200 2.513 1_655 S
O218 C216 1.246 . S
C219 O203 1.245 . S
C219 O204 1.259 . S
Tb220 O223 2.453 . S
Tb220 O224 2.596 . S
Tb220 O225 2.374 . S
Tb220 O233 2.343 . S
Tb220 O235 2.353 . S
Tb220 O237 2.427 . S
Tb220 O238 2.513 . S
C221 O225 1.251 . S
C221 O227 1.263 . S
Tb222 O224 2.343 . S
Tb222 O227 2.353 . S
Tb222 O230 2.427 . S
Tb222 O231 2.513 . S
Tb222 O232 2.453 . S
Tb222 O233 2.596 . S
Tb222 O234 2.374 . S
O223 Tb220 2.453 . S
O223 C239 1.245 . S
O224 Tb220 2.596 . S
O224 Tb222 2.343 . S
O224 C239 1.259 . S
O225 Tb220 2.374 . S
O225 C221 1.251 . S
C226 O230 1.275 . S
C226 O231 1.246 . S
O227 C221 1.263 . S
O227 Tb222 2.353 . S
C228 O232 1.245 . S
C228 O233 1.259 . S
C229 O234 1.250 1_655 S
C229 O235 1.263 1_655 S
O230 Tb222 2.427 . S
O230 C226 1.275 . S
O231 Tb222 2.513 . S
O231 C226 1.246 . S
O232 Tb222 2.453 . S
O232 C228 1.245 . S
O233 Tb220 2.343 . S
O233 Tb222 2.596 . S
O233 C228 1.259 . S
O234 Tb222 2.374 . S
O234 C229 1.250 1_455 S
O235 Tb220 2.353 . S
O235 C229 1.263 1_455 S
C236 O237 1.275 . S
C236 O238 1.246 . S
O237 Tb220 2.427 . S
O237 C236 1.275 . S
O238 Tb220 2.513 . S
O238 C236 1.246 . S
C239 O223 1.245 . S
C239 O224 1.259 . S
Tb240 O243 2.453 . S
Tb240 O244 2.596 . S
Tb240 O245 2.374 . S
Tb240 O253 2.343 . S
Tb240 O255 2.353 . S
Tb240 O257 2.427 . S
Tb240 O258 2.513 . S
C241 O245 1.251 . S
C241 O247 1.263 . S
Tb242 O244 2.343 . S
Tb242 O247 2.353 . S
Tb242 O250 2.427 . S
Tb242 O251 2.513 . S
Tb242 O252 2.453 . S
Tb242 O253 2.596 . S
Tb242 O254 2.374 . S
O243 Tb240 2.453 . S
O243 C259 1.245 . S
O244 Tb240 2.596 . S
O244 Tb242 2.343 . S
O244 C259 1.259 . S
O245 Tb240 2.374 . S
O245 C241 1.251 . S
C246 O250 1.275 . S
C246 O251 1.246 . S
O247 C241 1.263 . S
O247 Tb242 2.353 . S
C248 O252 1.245 . S
C248 O253 1.259 . S
C249 O254 1.250 . S
C249 O255 1.263 . S
O250 Tb242 2.427 . S
O250 C246 1.275 . S
O251 Tb242 2.513 . S
O251 C246 1.246 . S
O252 Tb242 2.453 . S
O252 C248 1.245 . S
O253 Tb240 2.343 . S
O253 Tb242 2.596 . S
O253 C248 1.259 . S
O254 Tb242 2.374 . S
O254 C249 1.250 . S
O255 Tb240 2.353 . S
O255 C249 1.263 . S
C256 O257 1.275 . S
C256 O258 1.246 . S
O257 Tb240 2.427 . S
O257 C256 1.275 . S
O258 Tb240 2.513 . S
O258 C256 1.246 . S
C259 O243 1.245 . S
C259 O244 1.259 . S
Tb260 O263 2.453 . S
Tb260 O264 2.596 . S
Tb260 O265 2.374 . S
Tb260 O273 2.343 . S
Tb260 O275 2.353 . S
Tb260 O277 2.427 . S
Tb260 O278 2.513 . S
C261 O265 1.251 . S
C261 O267 1.263 . S
Tb262 O264 2.343 . S
Tb262 O267 2.353 . S
Tb262 O270 2.427 . S
Tb262 O271 2.513 . S
Tb262 O272 2.453 . S
Tb262 O273 2.596 . S
Tb262 O274 2.374 . S
O263 Tb260 2.453 . S
O263 C279 1.245 . S
O264 Tb260 2.596 . S
O264 Tb262 2.343 . S
O264 C279 1.259 . S
O265 Tb260 2.374 . S
O265 C261 1.251 . S
C266 O270 1.275 . S
C266 O271 1.246 . S
O267 C261 1.263 . S
O267 Tb262 2.353 . S
C268 O272 1.245 . S
C268 O273 1.259 . S
C269 O274 1.250 . S
C269 O275 1.263 . S
O270 Tb262 2.427 . S
O270 C266 1.275 . S
O271 Tb262 2.513 . S
O271 C266 1.246 . S
O272 Tb262 2.453 . S
O272 C268 1.245 . S
O273 Tb260 2.343 . S
O273 Tb262 2.596 . S
O273 C268 1.259 . S
O274 Tb262 2.374 . S
O274 C269 1.250 . S
O275 Tb260 2.353 . S
O275 C269 1.263 . S
C276 O277 1.275 . S
C276 O278 1.246 . S
O277 Tb260 2.427 . S
O277 C276 1.275 . S
O278 Tb260 2.513 . S
O278 C276 1.246 . S
C279 O263 1.245 . S
C279 O264 1.259 . S
Tb280 O283 2.453 . S
Tb280 O284 2.596 . S
Tb280 O285 2.374 . S
Tb280 O293 2.343 . S
Tb280 O295 2.353 . S
Tb280 O297 2.427 . S
Tb280 O298 2.513 . S
C281 O285 1.251 . S
C281 O287 1.263 . S
Tb282 O284 2.343 . S
Tb282 O287 2.353 . S
Tb282 O290 2.427 . S
Tb282 O291 2.513 . S
Tb282 O292 2.453 . S
Tb282 O293 2.596 . S
Tb282 O294 2.374 . S
O283 Tb280 2.453 . S
O283 C299 1.245 . S
O284 Tb280 2.596 . S
O284 Tb282 2.343 . S
O284 C299 1.259 . S
O285 Tb280 2.374 . S
O285 C281 1.251 . S
C286 O290 1.275 . S
C286 O291 1.246 . S
O287 C281 1.263 . S
O287 Tb282 2.353 . S
C288 O292 1.245 . S
C288 O293 1.259 . S
C289 O294 1.250 . S
C289 O295 1.263 . S
O290 Tb282 2.427 . S
O290 C286 1.275 . S
O291 Tb282 2.513 . S
O291 C286 1.246 . S
O292 Tb282 2.453 . S
O292 C288 1.245 . S
O293 Tb280 2.343 . S
O293 Tb282 2.596 . S
O293 C288 1.259 . S
O294 Tb282 2.374 . S
O294 C289 1.250 . S
O295 Tb280 2.353 . S
O295 C289 1.263 . S
C296 O297 1.275 . S
C296 O298 1.246 . S
O297 Tb280 2.427 . S
O297 C296 1.275 . S
O298 Tb280 2.513 . S
O298 C296 1.246 . S
C299 O283 1.245 . S
C299 O284 1.259 . S
Tb300 O303 2.453 . S
Tb300 O304 2.596 . S
Tb300 O305 2.374 . S
Tb300 O313 2.343 . S
Tb300 O315 2.353 1_655 S
Tb300 O317 2.427 1_655 S
Tb300 O318 2.513 1_655 S
C301 O305 1.251 . S
C301 O307 1.263 . S
Tb302 O304 2.343 . S
Tb302 O307 2.353 . S
Tb302 O310 2.427 . S
Tb302 O311 2.513 . S
Tb302 O312 2.453 . S
Tb302 O313 2.596 . S
Tb302 O314 2.374 . S
O303 Tb300 2.453 . S
O303 C319 1.245 . S
O304 Tb300 2.596 . S
O304 Tb302 2.343 . S
O304 C319 1.259 . S
O305 Tb300 2.374 . S
O305 C301 1.251 . S
C306 O310 1.275 . S
C306 O311 1.246 . S
O307 C301 1.263 . S
O307 Tb302 2.353 . S
C308 O312 1.245 . S
C308 O313 1.259 . S
C309 O314 1.250 1_455 S
C309 O315 1.263 . S
O310 Tb302 2.427 . S
O310 C306 1.275 . S
O311 Tb302 2.513 . S
O311 C306 1.246 . S
O312 Tb302 2.453 . S
O312 C308 1.245 . S
O313 Tb300 2.343 . S
O313 Tb302 2.596 . S
O313 C308 1.259 . S
O314 Tb302 2.374 . S
O314 C309 1.250 1_655 S
O315 Tb300 2.353 1_455 S
O315 C309 1.263 . S
C316 O317 1.275 . S
C316 O318 1.246 . S
O317 Tb300 2.427 1_455 S
O317 C316 1.275 . S
O318 Tb300 2.513 1_455 S
O318 C316 1.246 . S
C319 O303 1.245 . S
C319 O304 1.259 . S
Tb320 O323 2.453 . S
Tb320 O324 2.596 . S
Tb320 O325 2.374 . S
Tb320 O333 2.343 . S
Tb320 O335 2.353 . S
Tb320 O337 2.427 . S
Tb320 O338 2.513 . S
C321 O325 1.251 . S
C321 O327 1.263 . S
Tb322 O324 2.343 . S
Tb322 O327 2.353 . S
Tb322 O330 2.427 . S
Tb322 O331 2.513 . S
Tb322 O332 2.453 . S
Tb322 O333 2.596 . S
Tb322 O334 2.374 . S
O323 Tb320 2.453 . S
O323 C339 1.245 . S
O324 Tb320 2.596 . S
O324 Tb322 2.343 . S
O324 C339 1.259 . S
O325 Tb320 2.374 . S
O325 C321 1.251 . S
C326 O330 1.275 . S
C326 O331 1.246 . S
O327 C321 1.263 . S
O327 Tb322 2.353 . S
C328 O332 1.245 . S
C328 O333 1.259 . S
C329 O334 1.250 . S
C329 O335 1.263 . S
O330 Tb322 2.427 . S
O330 C326 1.275 . S
O331 Tb322 2.513 . S
O331 C326 1.246 . S
O332 Tb322 2.453 . S
O332 C328 1.245 . S
O333 Tb320 2.343 . S
O333 Tb322 2.596 . S
O333 C328 1.259 . S
O334 Tb322 2.374 . S
O334 C329 1.250 . S
O335 Tb320 2.353 . S
O335 C329 1.263 . S
C336 O337 1.275 . S
C336 O338 1.246 . S
O337 Tb320 2.427 . S
O337 C336 1.275 . S
O338 Tb320 2.513 . S
O338 C336 1.246 . S
C339 O323 1.245 . S
C339 O324 1.259 . S
Tb340 O343 2.453 . S
Tb340 O344 2.596 . S
Tb340 O345 2.374 . S
Tb340 O353 2.343 . S
Tb340 O355 2.353 1_545 S
Tb340 O357 2.427 1_545 S
Tb340 O358 2.513 1_545 S
C341 O345 1.251 . S
C341 O347 1.263 . S
Tb342 O344 2.343 . S
Tb342 O347 2.353 . S
Tb342 O350 2.427 . S
Tb342 O351 2.513 . S
Tb342 O352 2.453 . S
Tb342 O353 2.596 . S
Tb342 O354 2.374 . S
O343 Tb340 2.453 . S
O343 C359 1.245 . S
O344 Tb340 2.596 . S
O344 Tb342 2.343 . S
O344 C359 1.259 . S
O345 Tb340 2.374 . S
O345 C341 1.251 . S
C346 O350 1.275 . S
C346 O351 1.246 . S
O347 C341 1.263 . S
O347 Tb342 2.353 . S
C348 O352 1.245 . S
C348 O353 1.259 . S
C349 O354 1.250 1_565 S
C349 O355 1.263 . S
O350 Tb342 2.427 . S
O350 C346 1.275 . S
O351 Tb342 2.513 . S
O351 C346 1.246 . S
O352 Tb342 2.453 . S
O352 C348 1.245 . S
O353 Tb340 2.343 . S
O353 Tb342 2.596 . S
O353 C348 1.259 . S
O354 Tb342 2.374 . S
O354 C349 1.250 1_545 S
O355 Tb340 2.353 1_565 S
O355 C349 1.263 . S
C356 O357 1.275 . S
C356 O358 1.246 . S
O357 Tb340 2.427 1_565 S
O357 C356 1.275 . S
O358 Tb340 2.513 1_565 S
O358 C356 1.246 . S
C359 O343 1.245 . S
C359 O344 1.259 . S
Tb360 O363 2.453 . S
Tb360 O364 2.596 . S
Tb360 O365 2.374 . S
Tb360 O373 2.343 . S
Tb360 O375 2.353 . S
Tb360 O377 2.427 . S
Tb360 O378 2.513 . S
C361 O365 1.251 1_565 S
C361 O367 1.263 . S
Tb362 O364 2.343 . S
Tb362 O367 2.353 1_545 S
Tb362 O370 2.427 1_545 S
Tb362 O371 2.513 1_545 S
Tb362 O372 2.453 . S
Tb362 O373 2.596 . S
Tb362 O374 2.374 . S
O363 Tb360 2.453 . S
O363 C379 1.245 . S
O364 Tb360 2.596 . S
O364 Tb362 2.343 . S
O364 C379 1.259 . S
O365 Tb360 2.374 . S
O365 C361 1.251 1_545 S
C366 O370 1.275 . S
C366 O371 1.246 . S
O367 C361 1.263 . S
O367 Tb362 2.353 1_565 S
C368 O372 1.245 . S
C368 O373 1.259 . S
C369 O374 1.250 . S
C369 O375 1.263 . S
O370 Tb362 2.427 1_565 S
O370 C366 1.275 . S
O371 Tb362 2.513 1_565 S
O371 C366 1.246 . S
O372 Tb362 2.453 . S
O372 C368 1.245 . S
O373 Tb360 2.343 . S
O373 Tb362 2.596 . S
O373 C368 1.259 . S
O374 Tb362 2.374 . S
O374 C369 1.250 . S
O375 Tb360 2.353 . S
O375 C369 1.263 . S
C376 O377 1.275 . S
C376 O378 1.246 . S
O377 Tb360 2.427 . S
O377 C376 1.275 . S
O378 Tb360 2.513 . S
O378 C376 1.246 . S
C379 O363 1.245 . S
C379 O364 1.259 . S
Tb380 O383 2.453 . S
Tb380 O384 2.596 . S
Tb380 O385 2.374 . S
Tb380 O393 2.343 . S
Tb380 O395 2.353 . S
Tb380 O397 2.427 . S
Tb380 O398 2.513 . S
C381 O385 1.251 1_455 S
C381 O387 1.263 . S
Tb382 O384 2.343 . S
Tb382 O387 2.353 1_655 S
Tb382 O390 2.427 1_655 S
Tb382 O391 2.513 1_655 S
Tb382 O392 2.453 . S
Tb382 O393 2.596 . S
Tb382 O394 2.374 . S
O383 Tb380 2.453 . S
O383 C399 1.245 . S
O384 Tb380 2.596 . S
O384 Tb382 2.343 . S
O384 C399 1.259 . S
O385 Tb380 2.374 . S
O385 C381 1.251 1_655 S
C386 O390 1.275 . S
C386 O391 1.246 . S
O387 C381 1.263 . S
O387 Tb382 2.353 1_455 S
C388 O392 1.245 . S
C388 O393 1.259 . S
C389 O394 1.250 . S
C389 O395 1.263 . S
O390 Tb382 2.427 1_455 S
O390 C386 1.275 . S
O391 Tb382 2.513 1_455 S
O391 C386 1.246 . S
O392 Tb382 2.453 . S
O392 C388 1.245 . S
O393 Tb380 2.343 . S
O393 Tb382 2.596 . S
O393 C388 1.259 . S
O394 Tb382 2.374 . S
O394 C389 1.250 . S
O395 Tb380 2.353 . S
O395 C389 1.263 . S
C396 O397 1.275 . S
C396 O398 1.246 . S
O397 Tb380 2.427 . S
O397 C396 1.275 . S
O398 Tb380 2.513 . S
O398 C396 1.246 . S
C399 O383 1.245 . S
C399 O384 1.259 . S
Tb400 O403 2.453 . S
Tb400 O404 2.596 . S
Tb400 O405 2.374 . S
Tb400 O413 2.343 . S
Tb400 O415 2.353 . S
Tb400 O417 2.427 . S
Tb400 O418 2.513 . S
C401 O405 1.251 . S
C401 O407 1.263 . S
Tb402 O404 2.343 . S
Tb402 O407 2.353 . S
Tb402 O410 2.427 . S
Tb402 O411 2.513 . S
Tb402 O412 2.453 . S
Tb402 O413 2.596 . S
Tb402 O414 2.374 . S
O403 Tb400 2.453 . S
O403 C419 1.245 . S
O404 Tb400 2.596 . S
O404 Tb402 2.343 . S
O404 C419 1.259 . S
O405 Tb400 2.374 . S
O405 C401 1.251 . S
C406 O410 1.275 . S
C406 O411 1.246 . S
O407 C401 1.263 . S
O407 Tb402 2.353 . S
C408 O412 1.245 . S
C408 O413 1.259 . S
C409 O414 1.250 . S
C409 O415 1.263 . S
O410 Tb402 2.427 . S
O410 C406 1.275 . S
O411 Tb402 2.513 . S
O411 C406 1.246 . S
O412 Tb402 2.453 . S
O412 C408 1.245 . S
O413 Tb400 2.343 . S
O413 Tb402 2.596 . S
O413 C408 1.259 . S
O414 Tb402 2.374 . S
O414 C409 1.250 . S
O415 Tb400 2.353 . S
O415 C409 1.263 . S
C416 O417 1.275 . S
C416 O418 1.246 . S
O417 Tb400 2.427 . S
O417 C416 1.275 . S
O418 Tb400 2.513 . S
O418 C416 1.246 . S
C419 O403 1.245 . S
C419 O404 1.259 . S
Tb420 O423 2.453 . S
Tb420 O424 2.596 . S
Tb420 O425 2.374 . S
Tb420 O433 2.343 1_556 S
Tb420 O435 2.353 . S
Tb420 O437 2.427 . S
Tb420 O438 2.513 . S
C421 O425 1.251 . S
C421 O427 1.263 1_556 S
Tb422 O424 2.343 1_554 S
Tb422 O427 2.353 . S
Tb422 O430 2.427 . S
Tb422 O431 2.513 . S
Tb422 O432 2.453 . S
Tb422 O433 2.596 . S
Tb422 O434 2.374 . S
O423 Tb420 2.453 . S
O423 C439 1.245 . S
O424 Tb420 2.596 . S
O424 Tb422 2.343 1_556 S
O424 C439 1.259 . S
O425 Tb420 2.374 . S
O425 C421 1.251 . S
C426 O430 1.275 . S
C426 O431 1.246 . S
O427 C421 1.263 1_554 S
O427 Tb422 2.353 . S
C428 O432 1.245 . S
C428 O433 1.259 . S
C429 O434 1.250 . S
C429 O435 1.263 1_554 S
O430 Tb422 2.427 . S
O430 C426 1.275 . S
O431 Tb422 2.513 . S
O431 C426 1.246 . S
O432 Tb422 2.453 . S
O432 C428 1.245 . S
O433 Tb420 2.343 1_554 S
O433 Tb422 2.596 . S
O433 C428 1.259 . S
O434 Tb422 2.374 . S
O434 C429 1.250 . S
O435 Tb420 2.353 . S
O435 C429 1.263 1_556 S
C436 O437 1.275 . S
C436 O438 1.246 . S
O437 Tb420 2.427 . S
O437 C436 1.275 . S
O438 Tb420 2.513 . S
O438 C436 1.246 . S
C439 O423 1.245 . S
C439 O424 1.259 . S
Tb440 O443 2.453 . S
Tb440 O444 2.596 . S
Tb440 O445 2.374 . S
Tb440 O453 2.343 1_556 S
Tb440 O455 2.353 . S
Tb440 O457 2.427 . S
Tb440 O458 2.513 . S
C441 O445 1.251 . S
C441 O447 1.263 1_556 S
Tb442 O444 2.343 1_554 S
Tb442 O447 2.353 . S
Tb442 O450 2.427 . S
Tb442 O451 2.513 . S
Tb442 O452 2.453 . S
Tb442 O453 2.596 . S
Tb442 O454 2.374 . S
O443 Tb440 2.453 . S
O443 C459 1.245 . S
O444 Tb440 2.596 . S
O444 Tb442 2.343 1_556 S
O444 C459 1.259 . S
O445 Tb440 2.374 . S
O445 C441 1.251 . S
C446 O450 1.275 . S
C446 O451 1.246 . S
O447 C441 1.263 1_554 S
O447 Tb442 2.353 . S
C448 O452 1.245 . S
C448 O453 1.259 . S
C449 O454 1.250 . S
C449 O455 1.263 1_554 S
O450 Tb442 2.427 . S
O450 C446 1.275 . S
O451 Tb442 2.513 . S
O451 C446 1.246 . S
O452 Tb442 2.453 . S
O452 C448 1.245 . S
O453 Tb440 2.343 1_554 S
O453 Tb442 2.596 . S
O453 C448 1.259 . S
O454 Tb442 2.374 . S
O454 C449 1.250 . S
O455 Tb440 2.353 . S
O455 C449 1.263 1_556 S
C456 O457 1.275 . S
C456 O458 1.246 . S
O457 Tb440 2.427 . S
O457 C456 1.275 . S
O458 Tb440 2.513 . S
O458 C456 1.246 . S
C459 O443 1.245 . S
C459 O444 1.259 . S
Tb460 O463 2.453 . S
Tb460 O464 2.596 . S
Tb460 O465 2.374 . S
Tb460 O473 2.343 1_556 S
Tb460 O475 2.353 . S
Tb460 O477 2.427 . S
Tb460 O478 2.513 . S
C461 O465 1.251 . S
C461 O467 1.263 1_556 S
Tb462 O464 2.343 1_554 S
Tb462 O467 2.353 . S
Tb462 O470 2.427 . S
Tb462 O471 2.513 . S
Tb462 O472 2.453 . S
Tb462 O473 2.596 . S
Tb462 O474 2.374 . S
O463 Tb460 2.453 . S
O463 C479 1.245 . S
O464 Tb460 2.596 . S
O464 Tb462 2.343 1_556 S
O464 C479 1.259 . S
O465 Tb460 2.374 . S
O465 C461 1.251 . S
C466 O470 1.275 . S
C466 O471 1.246 . S
O467 C461 1.263 1_554 S
O467 Tb462 2.353 . S
C468 O472 1.245 . S
C468 O473 1.259 . S
C469 O474 1.250 . S
C469 O475 1.263 1_554 S
O470 Tb462 2.427 . S
O470 C466 1.275 . S
O471 Tb462 2.513 . S
O471 C466 1.246 . S
O472 Tb462 2.453 . S
O472 C468 1.245 . S
O473 Tb460 2.343 1_554 S
O473 Tb462 2.596 . S
O473 C468 1.259 . S
O474 Tb462 2.374 . S
O474 C469 1.250 . S
O475 Tb460 2.353 . S
O475 C469 1.263 1_556 S
C476 O477 1.275 . S
C476 O478 1.246 . S
O477 Tb460 2.427 . S
O477 C476 1.275 . S
O478 Tb460 2.513 . S
O478 C476 1.246 . S
C479 O463 1.245 . S
C479 O464 1.259 . S
Tb480 O483 2.453 . S
Tb480 O484 2.596 . S
Tb480 O485 2.374 . S
Tb480 O493 2.343 . S
Tb480 O495 2.353 1_565 S
Tb480 O497 2.427 1_565 S
Tb480 O498 2.513 1_565 S
C481 O485 1.251 . S
C481 O487 1.263 . S
Tb482 O484 2.343 . S
Tb482 O487 2.353 . S
Tb482 O490 2.427 . S
Tb482 O491 2.513 . S
Tb482 O492 2.453 . S
Tb482 O493 2.596 . S
Tb482 O494 2.374 . S
O483 Tb480 2.453 . S
O483 C499 1.245 . S
O484 Tb480 2.596 . S
O484 Tb482 2.343 . S
O484 C499 1.259 . S
O485 Tb480 2.374 . S
O485 C481 1.251 . S
C486 O490 1.275 . S
C486 O491 1.246 . S
O487 C481 1.263 . S
O487 Tb482 2.353 . S
C488 O492 1.245 . S
C488 O493 1.259 . S
C489 O494 1.250 1_545 S
C489 O495 1.263 . S
O490 Tb482 2.427 . S
O490 C486 1.275 . S
O491 Tb482 2.513 . S
O491 C486 1.246 . S
O492 Tb482 2.453 . S
O492 C488 1.245 . S
O493 Tb480 2.343 . S
O493 Tb482 2.596 . S
O493 C488 1.259 . S
O494 Tb482 2.374 . S
O494 C489 1.250 1_565 S
O495 Tb480 2.353 1_545 S
O495 C489 1.263 . S
C496 O497 1.275 . S
C496 O498 1.246 . S
O497 Tb480 2.427 1_545 S
O497 C496 1.275 . S
O498 Tb480 2.513 1_545 S
O498 C496 1.246 . S
C499 O483 1.245 . S
C499 O484 1.259 . S
Tb500 O503 2.453 . S
Tb500 O504 2.596 . S
Tb500 O505 2.374 . S
Tb500 O513 2.343 . S
Tb500 O515 2.353 1_455 S
Tb500 O517 2.427 1_455 S
Tb500 O518 2.513 1_455 S
C501 O505 1.251 . S
C501 O507 1.263 . S
Tb502 O504 2.343 . S
Tb502 O507 2.353 . S
Tb502 O510 2.427 . S
Tb502 O511 2.513 . S
Tb502 O512 2.453 . S
Tb502 O513 2.596 . S
Tb502 O514 2.374 . S
O503 Tb500 2.453 . S
O503 C519 1.245 . S
O504 Tb500 2.596 . S
O504 Tb502 2.343 . S
O504 C519 1.259 . S
O505 Tb500 2.374 . S
O505 C501 1.251 . S
C506 O510 1.275 . S
C506 O511 1.246 . S
O507 C501 1.263 . S
O507 Tb502 2.353 . S
C508 O512 1.245 . S
C508 O513 1.259 . S
C509 O514 1.250 1_655 S
C509 O515 1.263 . S
O510 Tb502 2.427 . S
O510 C506 1.275 . S
O511 Tb502 2.513 . S
O511 C506 1.246 . S
O512 Tb502 2.453 . S
O512 C508 1.245 . S
O513 Tb500 2.343 . S
O513 Tb502 2.596 . S
O513 C508 1.259 . S
O514 Tb502 2.374 . S
O514 C509 1.250 1_455 S
O515 Tb500 2.353 1_655 S
O515 C509 1.263 . S
C516 O517 1.275 . S
C516 O518 1.246 . S
O517 Tb500 2.427 1_655 S
O517 C516 1.275 . S
O518 Tb500 2.513 1_655 S
O518 C516 1.246 . S
C519 O503 1.245 . S
C519 O504 1.259 . S
Tb520 O523 2.453 . S
Tb520 O524 2.596 . S
Tb520 O525 2.374 . S
Tb520 O533 2.343 . S
Tb520 O535 2.353 . S
Tb520 O537 2.427 . S
Tb520 O538 2.513 . S
C521 O525 1.251 . S
C521 O527 1.263 . S
Tb522 O524 2.343 . S
Tb522 O527 2.353 . S
Tb522 O530 2.427 . S
Tb522 O531 2.513 . S
Tb522 O532 2.453 . S
Tb522 O533 2.596 . S
Tb522 O534 2.374 . S
O523 Tb520 2.453 . S
O523 C539 1.245 . S
O524 Tb520 2.596 . S
O524 Tb522 2.343 . S
O524 C539 1.259 . S
O525 Tb520 2.374 . S
O525 C521 1.251 . S
C526 O530 1.275 . S
C526 O531 1.246 . S
O527 C521 1.263 . S
O527 Tb522 2.353 . S
C528 O532 1.245 . S
C528 O533 1.259 . S
C529 O534 1.250 . S
C529 O535 1.263 . S
O530 Tb522 2.427 . S
O530 C526 1.275 . S
O531 Tb522 2.513 . S
O531 C526 1.246 . S
O532 Tb522 2.453 . S
O532 C528 1.245 . S
O533 Tb520 2.343 . S
O533 Tb522 2.596 . S
O533 C528 1.259 . S
O534 Tb522 2.374 . S
O534 C529 1.250 . S
O535 Tb520 2.353 . S
O535 C529 1.263 . S
C536 O537 1.275 . S
C536 O538 1.246 . S
O537 Tb520 2.427 . S
O537 C536 1.275 . S
O538 Tb520 2.513 . S
O538 C536 1.246 . S
C539 O523 1.245 . S
C539 O524 1.259 . S
Tb540 O543 2.453 . S
Tb540 O544 2.596 . S
Tb540 O545 2.374 . S
Tb540 O553 2.343 1_556 S
Tb540 O555 2.353 . S
Tb540 O557 2.427 . S
Tb540 O558 2.513 . S
C541 O545 1.251 . S
C541 O547 1.263 1_556 S
Tb542 O544 2.343 1_554 S
Tb542 O547 2.353 . S
Tb542 O550 2.427 . S
Tb542 O551 2.513 . S
Tb542 O552 2.453 . S
Tb542 O553 2.596 . S
Tb542 O554 2.374 . S
O543 Tb540 2.453 . S
O543 C559 1.245 . S
O544 Tb540 2.596 . S
O544 Tb542 2.343 1_556 S
O544 C559 1.259 . S
O545 Tb540 2.374 . S
O545 C541 1.251 . S
C546 O550 1.275 . S
C546 O551 1.246 . S
O547 C541 1.263 1_554 S
O547 Tb542 2.353 . S
C548 O552 1.245 . S
C548 O553 1.259 . S
C549 O554 1.250 . S
C549 O555 1.263 1_554 S
O550 Tb542 2.427 . S
O550 C546 1.275 . S
O551 Tb542 2.513 . S
O551 C546 1.246 . S
O552 Tb542 2.453 . S
O552 C548 1.245 . S
O553 Tb540 2.343 1_554 S
O553 Tb542 2.596 . S
O553 C548 1.259 . S
O554 Tb542 2.374 . S
O554 C549 1.250 . S
O555 Tb540 2.353 . S
O555 C549 1.263 1_556 S
C556 O557 1.275 . S
C556 O558 1.246 . S
O557 Tb540 2.427 . S
O557 C556 1.275 . S
O558 Tb540 2.513 . S
O558 C556 1.246 . S
C559 O543 1.245 . S
C559 O544 1.259 . S
Tb560 O563 2.453 . S
Tb560 O564 2.596 . S
Tb560 O565 2.374 . S
Tb560 O573 2.343 1_556 S
Tb560 O575 2.353 . S
Tb560 O577 2.427 . S
Tb560 O578 2.513 . S
C561 O565 1.251 . S
C561 O567 1.263 1_556 S
Tb562 O564 2.343 1_554 S
Tb562 O567 2.353 . S
Tb562 O570 2.427 . S
Tb562 O571 2.513 . S
Tb562 O572 2.453 . S
Tb562 O573 2.596 . S
Tb562 O574 2.374 . S
O563 Tb560 2.453 . S
O563 C579 1.245 . S
O564 Tb560 2.596 . S
O564 Tb562 2.343 1_556 S
O564 C579 1.259 . S
O565 Tb560 2.374 . S
O565 C561 1.251 . S
C566 O570 1.275 . S
C566 O571 1.246 . S
O567 C561 1.263 1_554 S
O567 Tb562 2.353 . S
C568 O572 1.245 . S
C568 O573 1.259 . S
C569 O574 1.250 . S
C569 O575 1.263 1_554 S
O570 Tb562 2.427 . S
O570 C566 1.275 . S
O571 Tb562 2.513 . S
O571 C566 1.246 . S
O572 Tb562 2.453 . S
O572 C568 1.245 . S
O573 Tb560 2.343 1_554 S
O573 Tb562 2.596 . S
O573 C568 1.259 . S
O574 Tb562 2.374 . S
O574 C569 1.250 . S
O575 Tb560 2.353 . S
O575 C569 1.263 1_556 S
C576 O577 1.275 . S
C576 O578 1.246 . S
O577 Tb560 2.427 . S
O577 C576 1.275 . S
O578 Tb560 2.513 . S
O578 C576 1.246 . S
C579 O563 1.245 . S
C579 O564 1.259 . S
Tb580 O583 2.453 . S
Tb580 O584 2.596 . S
Tb580 O585 2.374 . S
Tb580 O593 2.343 1_556 S
Tb580 O595 2.353 . S
Tb580 O597 2.427 . S
Tb580 O598 2.513 . S
C581 O585 1.251 . S
C581 O587 1.263 1_556 S
Tb582 O584 2.343 1_554 S
Tb582 O587 2.353 . S
Tb582 O590 2.427 . S
Tb582 O591 2.513 . S
Tb582 O592 2.453 . S
Tb582 O593 2.596 . S
Tb582 O594 2.374 . S
O583 Tb580 2.453 . S
O583 C599 1.245 . S
O584 Tb580 2.596 . S
O584 Tb582 2.343 1_556 S
O584 C599 1.259 . S
O585 Tb580 2.374 . S
O585 C581 1.251 . S
C586 O590 1.275 . S
C586 O591 1.246 . S
O587 C581 1.263 1_554 S
O587 Tb582 2.353 . S
C588 O592 1.245 . S
C588 O593 1.259 . S
C589 O594 1.250 . S
C589 O595 1.263 1_554 S
O590 Tb582 2.427 . S
O590 C586 1.275 . S
O591 Tb582 2.513 . S
O591 C586 1.246 . S
O592 Tb582 2.453 . S
O592 C588 1.245 . S
O593 Tb580 2.343 1_554 S
O593 Tb582 2.596 . S
O593 C588 1.259 . S
O594 Tb582 2.374 . S
O594 C589 1.250 . S
O595 Tb580 2.353 . S
O595 C589 1.263 1_556 S
C596 O597 1.275 . S
C596 O598 1.246 . S
O597 Tb580 2.427 . S
O597 C596 1.275 . S
O598 Tb580 2.513 . S
O598 C596 1.246 . S
C599 O583 1.245 . S
C599 O584 1.259 . S
Tb600 O603 2.453 . S
Tb600 O604 2.596 . S
Tb600 O605 2.374 . S
Tb600 O613 2.343 . S
Tb600 O615 2.353 . S
Tb600 O617 2.427 . S
Tb600 O618 2.513 . S
C601 O605 1.251 . S
C601 O607 1.263 . S
Tb602 O604 2.343 . S
Tb602 O607 2.353 . S
Tb602 O610 2.427 . S
Tb602 O611 2.513 . S
Tb602 O612 2.453 . S
Tb602 O613 2.596 . S
Tb602 O614 2.374 . S
O603 Tb600 2.453 . S
O603 C619 1.245 . S
O604 Tb600 2.596 . S
O604 Tb602 2.343 . S
O604 C619 1.259 . S
O605 Tb600 2.374 . S
O605 C601 1.251 . S
C606 O610 1.275 . S
C606 O611 1.246 . S
O607 C601 1.263 . S
O607 Tb602 2.353 . S
C608 O612 1.245 . S
C608 O613 1.259 . S
C609 O614 1.250 . S
C609 O615 1.263 . S
O610 Tb602 2.427 . S
O610 C606 1.275 . S
O611 Tb602 2.513 . S
O611 C606 1.246 . S
O612 Tb602 2.453 . S
O612 C608 1.245 . S
O613 Tb600 2.343 . S
O613 Tb602 2.596 . S
O613 C608 1.259 . S
O614 Tb602 2.374 . S
O614 C609 1.250 . S
O615 Tb600 2.353 . S
O615 C609 1.263 . S
C616 O617 1.275 . S
C616 O618 1.246 . S
O617 Tb600 2.427 . S
O617 C616 1.275 . S
O618 Tb600 2.513 . S
O618 C616 1.246 . S
C619 O603 1.245 . S
C619 O604 1.259 . S
Tb620 O623 2.453 . S
Tb620 O624 2.596 . S
Tb620 O625 2.374 . S
Tb620 O633 2.343 . S
Tb620 O635 2.353 . S
Tb620 O637 2.427 . S
Tb620 O638 2.513 . S
C621 O625 1.251 . S
C621 O627 1.263 . S
Tb622 O624 2.343 . S
Tb622 O627 2.353 . S
Tb622 O630 2.427 . S
Tb622 O631 2.513 . S
Tb622 O632 2.453 . S
Tb622 O633 2.596 . S
Tb622 O634 2.374 . S
O623 Tb620 2.453 . S
O623 C639 1.245 . S
O624 Tb620 2.596 . S
O624 Tb622 2.343 . S
O624 C639 1.259 . S
O625 Tb620 2.374 . S
O625 C621 1.251 . S
C626 O630 1.275 . S
C626 O631 1.246 . S
O627 C621 1.263 . S
O627 Tb622 2.353 . S
C628 O632 1.245 . S
C628 O633 1.259 . S
C629 O634 1.250 . S
C629 O635 1.263 . S
O630 Tb622 2.427 . S
O630 C626 1.275 . S
O631 Tb622 2.513 . S
O631 C626 1.246 . S
O632 Tb622 2.453 . S
O632 C628 1.245 . S
O633 Tb620 2.343 . S
O633 Tb622 2.596 . S
O633 C628 1.259 . S
O634 Tb622 2.374 . S
O634 C629 1.250 . S
O635 Tb620 2.353 . S
O635 C629 1.263 . S
C636 O637 1.275 . S
C636 O638 1.246 . S
O637 Tb620 2.427 . S
O637 C636 1.275 . S
O638 Tb620 2.513 . S
O638 C636 1.246 . S
C639 O623 1.245 . S
C639 O624 1.259 . S
Tb640 O643 2.453 . S
Tb640 O644 2.596 . S
Tb640 O645 2.374 . S
Tb640 O653 2.343 . S
Tb640 O655 2.353 . S
Tb640 O657 2.427 . S
Tb640 O658 2.513 . S
C641 O645 1.251 . S
C641 O647 1.263 . S
Tb642 O644 2.343 . S
Tb642 O647 2.353 . S
Tb642 O650 2.427 . S
Tb642 O651 2.513 . S
Tb642 O652 2.453 . S
Tb642 O653 2.596 . S
Tb642 O654 2.374 . S
O643 Tb640 2.453 . S
O643 C659 1.245 . S
O644 Tb640 2.596 . S
O644 Tb642 2.343 . S
O644 C659 1.259 . S
O645 Tb640 2.374 . S
O645 C641 1.251 . S
C646 O650 1.275 . S
C646 O651 1.246 . S
O647 C641 1.263 . S
O647 Tb642 2.353 . S
C648 O652 1.245 . S
C648 O653 1.259 . S
C649 O654 1.250 . S
C649 O655 1.263 . S
O650 Tb642 2.427 . S
O650 C646 1.275 . S
O651 Tb642 2.513 . S
O651 C646 1.246 . S
O652 Tb642 2.453 . S
O652 C648 1.245 . S
O653 Tb640 2.343 . S
O653 Tb642 2.596 . S
O653 C648 1.259 . S
O654 Tb642 2.374 . S
O654 C649 1.250 . S
O655 Tb640 2.353 . S
O655 C649 1.263 . S
C656 O657 1.275 . S
C656 O658 1.246 . S
O657 Tb640 2.427 . S
O657 C656 1.275 . S
O658 Tb640 2.513 . S
O658 C656 1.246 . S
C659 O643 1.245 . S
C659 O644 1.259 . S
Tb660 O663 2.453 . S
Tb660 O664 2.596 . S
Tb660 O665 2.374 . S
Tb660 O673 2.343 . S
Tb660 O675 2.353 . S
Tb660 O677 2.427 . S
Tb660 O678 2.513 . S
C661 O665 1.251 1_655 S
C661 O667 1.263 . S
Tb662 O664 2.343 . S
Tb662 O667 2.353 1_455 S
Tb662 O670 2.427 1_455 S
Tb662 O671 2.513 1_455 S
Tb662 O672 2.453 . S
Tb662 O673 2.596 . S
Tb662 O674 2.374 . S
O663 Tb660 2.453 . S
O663 C679 1.245 . S
O664 Tb660 2.596 . S
O664 Tb662 2.343 . S
O664 C679 1.259 . S
O665 Tb660 2.374 . S
O665 C661 1.251 1_455 S
C666 O670 1.275 . S
C666 O671 1.246 . S
O667 C661 1.263 . S
O667 Tb662 2.353 1_655 S
C668 O672 1.245 . S
C668 O673 1.259 . S
C669 O674 1.250 . S
C669 O675 1.263 . S
O670 Tb662 2.427 1_655 S
O670 C666 1.275 . S
O671 Tb662 2.513 1_655 S
O671 C666 1.246 . S
O672 Tb662 2.453 . S
O672 C668 1.245 . S
O673 Tb660 2.343 . S
O673 Tb662 2.596 . S
O673 C668 1.259 . S
O674 Tb662 2.374 . S
O674 C669 1.250 . S
O675 Tb660 2.353 . S
O675 C669 1.263 . S
C676 O677 1.275 . S
C676 O678 1.246 . S
O677 Tb660 2.427 . S
O677 C676 1.275 . S
O678 Tb660 2.513 . S
O678 C676 1.246 . S
C679 O663 1.245 . S
C679 O664 1.259 . S
Tb680 O683 2.453 . S
Tb680 O684 2.596 . S
Tb680 O685 2.374 . S
Tb680 O693 2.343 . S
Tb680 O695 2.353 . S
Tb680 O697 2.427 . S
Tb680 O698 2.513 . S
C681 O685 1.251 . S
C681 O687 1.263 . S
Tb682 O684 2.343 . S
Tb682 O687 2.353 . S
Tb682 O690 2.427 . S
Tb682 O691 2.513 . S
Tb682 O692 2.453 . S
Tb682 O693 2.596 . S
Tb682 O694 2.374 . S
O683 Tb680 2.453 . S
O683 C699 1.245 . S
O684 Tb680 2.596 . S
O684 Tb682 2.343 . S
O684 C699 1.259 . S
O685 Tb680 2.374 . S
O685 C681 1.251 . S
C686 O690 1.275 . S
C686 O691 1.246 . S
O687 C681 1.263 . S
O687 Tb682 2.353 . S
C688 O692 1.245 . S
C688 O693 1.259 . S
C689 O694 1.250 . S
C689 O695 1.263 . S
O690 Tb682 2.427 . S
O690 C686 1.275 . S
O691 Tb682 2.513 . S
O691 C686 1.246 . S
O692 Tb682 2.453 . S
O692 C688 1.245 . S
O693 Tb680 2.343 . S
O693 Tb682 2.596 . S
O693 C688 1.259 . S
O694 Tb682 2.374 . S
O694 C689 1.250 . S
O695 Tb680 2.353 . S
O695 C689 1.263 . S
C696 O697 1.275 . S
C696 O698 1.246 . S
O697 Tb680 2.427 . S
O697 C696 1.275 . S
O698 Tb680 2.513 . S
O698 C696 1.246 . S
C699 O683 1.245 . S
C699 O684 1.259 . S
Tb700 O703 2.453 . S
Tb700 O704 2.596 . S
Tb700 O705 2.374 . S
Tb700 O713 2.343 . S
Tb700 O715 2.353 . S
Tb700 O717 2.427 . S
Tb700 O718 2.513 . S
C701 O705 1.251 1_545 S
C701 O707 1.263 . S
Tb702 O704 2.343 . S
Tb702 O707 2.353 1_565 S
Tb702 O710 2.427 1_565 S
Tb702 O711 2.513 1_565 S
Tb702 O712 2.453 . S
Tb702 O713 2.596 . S
Tb702 O714 2.374 . S
O703 Tb700 2.453 . S
O703 C719 1.245 . S
O704 Tb700 2.596 . S
O704 Tb702 2.343 . S
O704 C719 1.259 . S
O705 Tb700 2.374 . S
O705 C701 1.251 1_565 S
C706 O710 1.275 . S
C706 O711 1.246 . S
O707 C701 1.263 . S
O707 Tb702 2.353 1_545 S
C708 O712 1.245 . S
C708 O713 1.259 . S
C709 O714 1.250 . S
C709 O715 1.263 . S
O710 Tb702 2.427 1_545 S
O710 C706 1.275 . S
O711 Tb702 2.513 1_545 S
O711 C706 1.246 . S
O712 Tb702 2.453 . S
O712 C708 1.245 . S
O713 Tb700 2.343 . S
O713 Tb702 2.596 . S
O713 C708 1.259 . S
O714 Tb702 2.374 . S
O714 C709 1.250 . S
O715 Tb700 2.353 . S
O715 C709 1.263 . S
C716 O717 1.275 . S
C716 O718 1.246 . S
O717 Tb700 2.427 . S
O717 C716 1.275 . S
O718 Tb700 2.513 . S
O718 C716 1.246 . S
C719 O703 1.245 . S
C719 O704 1.259 . S
C1 C46 1.529 . S
C6 C21 1.529 . S
C41 C26 1.529 . S
C61 C86 1.560 . S
C106 C81 1.560 . S
C101 C66 1.560 . S
C129 C176 1.529 . S
C149 C136 1.529 . S
C169 C156 1.529 . S
C189 C216 1.560 . S
C236 C209 1.560 . S
C196 C229 1.560 . S
C286 C241 1.549 . S
C261 C246 1.548 . S
C266 C281 1.549 . S
C301 C326 1.568 . S
C346 C321 1.568 . S
C306 C341 1.568 . S
C369 C416 1.546 . S
C389 C376 1.547 . S
C396 C409 1.546 . S
C456 C429 1.533 1_556 S
C449 C476 1.533 1_554 S
C436 C469 1.533 1_556 S
C481 C526 1.546 . S
C501 C486 1.547 . S
C521 C506 1.546 . S
C541 C566 1.533 1_556 S
C561 C586 1.533 1_556 S
C581 C546 1.533 1_556 S
C609 C656 1.549 . S
C629 C616 1.549 . S
C636 C649 1.549 . S
C669 C696 1.568 . S
C689 C716 1.568 . S
C676 C709 1.568 . S
C16 C401 2.024 . S
C361 C36 2.024 . S
C56 C381 2.024 . S
C76 C681 1.528 . S
C701 C96 1.528 . S
C116 C661 1.528 . S
C529 C126 2.024 . S
C146 C489 2.024 . S
C166 C509 2.024 . S
C329 C186 1.528 . S
C349 C206 1.529 . S
C309 C226 1.528 . S
C256 C641 1.837 1_655 S
C276 C601 1.837 . S
C621 C296 1.837 1_565 S
C201 C316 1.537 . S
C221 C336 1.537 . S
C181 C356 1.537 . S
C49 C366 1.971 . S
C386 C9 1.971 . S
C406 C29 1.971 . S
C569 C426 1.406 1_565 S
C589 C446 1.406 1_455 S
C466 C549 1.406 . S
C161 C496 1.971 . S
C121 C516 1.971 . S
C141 C536 1.971 . S
C556 C441 1.406 1_565 S
C461 C576 1.406 1_655 S
C596 C421 1.406 . S
C606 C289 1.837 1_455 S
C626 C249 1.837 . S
C646 C269 1.837 1_565 S
C666 C89 1.537 . S
C109 C686 1.537 . S
C69 C706 1.537 . S
C588 C8 2.044 . S
C548 C28 2.044 . S
C48 C568 2.044 . S
C268 C68 2.244 . S
C88 C288 2.244 . S
C108 C248 2.244 . S
C139 C479 2.044 . S
C159 C439 2.044 . S
C179 C459 2.044 . S
C639 C199 2.244 . S
C659 C219 2.244 . S
C619 C239 2.244 . S
C308 C508 2.307 1_655 S
C328 C528 2.307 . S
C348 C488 2.307 1_545 S
C379 C719 2.307 1_545 S
C679 C399 2.307 1_455 S
C419 C699 2.307 . S
C99 C19 2.737 1_655 S
C119 C39 2.737 . S
C79 C59 2.737 1_545 S
C128 C208 2.737 1_655 S
C228 C148 2.737 . S
C168 C188 2.737 1_545 S
C339 C259 2.698 . S
C359 C279 2.698 . S
C319 C299 2.698 . S
C448 C368 2.592 . S
C388 C468 2.592 . S
C408 C428 2.592 . S
C499 C579 2.592 . S
C599 C519 2.592 . S
C539 C559 2.592 . S
C608 C688 2.698 . S
C708 C628 2.698 . S
C648 C668 2.698 . S
