# Generated by pormake.
# Topology qtz-e, (6)-cn, num edge types: 1
# Building blocks:
#     Node 0, Type 0, BuildingBlock: KUMJIN_clean_sbu_1, # of connection points: 6
#     Node 1, Type 0, BuildingBlock: KUMJIN_clean_sbu_1, # of connection points: 6
#     Node 2, Type 0, BuildingBlock: KUMJIN_clean_sbu_1, # of connection points: 6
#     Node 3, Type 0, BuildingBlock: KUMJIN_clean_sbu_1, # of connection points: 6
#     Node 4, Type 0, BuildingBlock: KUMJIN_clean_sbu_1, # of connection points: 6
#     Node 5, Type 0, BuildingBlock: KUMJIN_clean_sbu_1, # of connection points: 6
#     Edge 6, Type (0, 0), BuildingBlock: TEMPAE_clean_linker_10, # of connection points: 2
#     Edge 7, Type (0, 0), BuildingBlock: TEMPAE_clean_linker_10, # of connection points: 2
#     Edge 8, Type (0, 0), BuildingBlock: TEMPAE_clean_linker_10, # of connection points: 2
#     Edge 9, Type (0, 0), BuildingBlock: TEMPAE_clean_linker_10, # of connection points: 2
#     Edge 10, Type (0, 0), BuildingBlock: TEMPAE_clean_linker_10, # of connection points: 2
#     Edge 11, Type (0, 0), BuildingBlock: TEMPAE_clean_linker_10, # of connection points: 2
#     Edge 12, Type (0, 0), BuildingBlock: TEMPAE_clean_linker_10, # of connection points: 2
#     Edge 13, Type (0, 0), BuildingBlock: TEMPAE_clean_linker_10, # of connection points: 2
#     Edge 14, Type (0, 0), BuildingBlock: TEMPAE_clean_linker_10, # of connection points: 2
#     Edge 15, Type (0, 0), BuildingBlock: TEMPAE_clean_linker_10, # of connection points: 2
#     Edge 16, Type (0, 0), BuildingBlock: TEMPAE_clean_linker_10, # of connection points: 2
#     Edge 17, Type (0, 0), BuildingBlock: TEMPAE_clean_linker_10, # of connection points: 2
#     Edge 18, Type (0, 0), BuildingBlock: TEMPAE_clean_linker_10, # of connection points: 2
#     Edge 19, Type (0, 0), BuildingBlock: TEMPAE_clean_linker_10, # of connection points: 2
#     Edge 20, Type (0, 0), BuildingBlock: TEMPAE_clean_linker_10, # of connection points: 2
#     Edge 21, Type (0, 0), BuildingBlock: TEMPAE_clean_linker_10, # of connection points: 2
#     Edge 22, Type (0, 0), BuildingBlock: TEMPAE_clean_linker_10, # of connection points: 2
#     Edge 23, Type (0, 0), BuildingBlock: TEMPAE_clean_linker_10, # of connection points: 2
# Relax obj value: 0.150
# Max RMSD: 0.212
# Mean RMSD: 0.212
data_MOF--net-qtz-e--node1-KUMJIN_clean_sbu_1--edge1-TEMPAE_clean_linker_10
_symmetry_space_group_name_H-M    P1
_symmetry_Int_Tables_number       1
_symmetry_cell_setting            triclinic
loop_
_symmetry_equiv_pos_as_xyz
'x, y, z'
_cell_length_a     28.375571
_cell_length_b     28.396751
_cell_length_c     49.093122
_cell_angle_alpha  89.855939
_cell_angle_beta   90.109493
_cell_angle_gamma 120.13883
loop_
_atom_site_label
_atom_site_type_symbol
_atom_site_fract_x
_atom_site_fract_y
_atom_site_fract_z
_atom_type_partial_charge
Eu0 Eu 0.17512 0.34986 0.98185 0.0
C1 C 0.36173 0.54119 0.06888 0.0
N2 N 0.31642 0.49108 0.07008 0.0
C3 C 0.35795 0.46309 0.10418 0.0
C4 C 0.40725 0.55411 0.08551 0.0
C5 C 0.3131 0.45284 0.08812 0.0
C6 C 0.40537 0.51387 0.10278 0.0
C7 C 0.40525 0.63514 0.05347 0.0
C8 C 0.36062 0.58134 0.05307 0.0
C9 C 0.45145 0.64747 0.06914 0.0
C10 C 0.45205 0.60731 0.08545 0.0
Eu11 Eu 0.24088 0.47872 0.04434 0.0
N12 N 0.31393 0.56929 0.03966 0.0
C13 C 0.40071 0.67585 0.03965 0.0
C14 C 0.30748 0.61002 0.02863 0.0
C15 C 0.35126 0.66338 0.02755 0.0
H16 H 0.27573 0.41422 0.09008 0.0
H17 H 0.34646 0.69507 0.01795 0.0
H18 H 0.04349 0.30414 0.97265 0.0
H19 H 0.2765 0.23565 0.01156 0.0
H20 H 0.26847 0.60089 0.02025 0.0
H21 H 0.43415 0.71755 0.03943 0.0
H22 H 0.27086 0.31119 0.99088 0.0
H23 H 0.35553 0.43223 0.11802 0.0
H24 H 0.486 0.68855 0.06972 0.0
H25 H 0.4871 0.61806 0.0983 0.0
H26 H 0.95464 0.22231 0.98336 0.0
H27 H 0.43964 0.52218 0.11574 0.0
H28 H 0.19324 0.15442 0.02839 0.0
N29 N 0.08988 0.27109 0.98903 0.0
C30 C 0.08958 0.22768 0.00072 0.0
C31 C 0.99228 0.22332 0.98841 0.0
C32 C 0.04014 0.18032 0.00733 0.0
C33 C 0.0424 0.26942 0.98233 0.0
C34 C 0.99112 0.1787 0.00119 0.0
N35 N 0.18557 0.27654 -0.00173 0.0
C36 C 0.23426 0.27758 -0.0008 0.0
C37 C 0.1402 0.18552 0.017 0.0
C38 C 0.13897 0.23065 0.0057 0.0
C39 C 0.19053 0.1882 0.01985 0.0
C40 C 0.23762 0.23406 0.01045 0.0
H41 H 0.95225 0.14306 0.00594 0.0
H42 H 0.00371 0.0995 0.02498 0.0
H43 H 0.09141 0.10388 0.03328 0.0
O44 O 0.20751 0.33446 0.94468 0.0
O45 O 0.12501 0.33433 0.02007 0.0
O46 O 0.19796 0.38586 0.04745 0.0
O47 O 0.14593 0.35723 0.94166 0.0
O48 O 0.26552 0.39044 0.99449 0.0
O49 O 0.26095 0.4101 0.03938 0.0
O50 O 0.16952 0.45902 0.06962 0.0
O51 O 0.26823 0.51777 0.00185 0.0
O52 O 0.22551 0.43283 0.99503 0.0
O53 O 0.24704 0.52827 0.0795 0.0
O54 O 0.17129 0.47226 0.01792 0.0
O55 O 0.13307 0.40141 0.98451 0.0
C56 C 0.14499 0.35382 0.04426 0.0
C57 C 0.14513 0.29586 0.90863 0.0
C58 C 0.1486 0.24583 0.86884 0.0
C59 C 0.09253 0.20871 0.87209 0.0
C60 C 0.08922 0.2585 0.91128 0.0
C61 C 0.06317 0.21528 0.89306 0.0
C62 C 0.17449 0.28953 0.88732 0.0
C63 C 0.28863 0.40636 0.01879 0.0
C64 C 0.17414 0.33991 0.92862 0.0
C65 C 0.04124 0.13614 0.01956 0.0
C66 C 0.09118 0.13871 0.02436 0.0
C67 C 0.25325 0.48009 0.9838 0.0
C68 C 0.19285 0.47965 0.11621 0.0
C69 C 0.19997 0.50356 0.16421 0.0
C70 C 0.19477 0.45318 0.17114 0.0
C71 C 0.18987 0.43043 0.12339 0.0
C72 C 0.19846 0.51638 0.1367 0.0
C73 C 0.19027 0.41702 0.15072 0.0
C74 C 0.13577 0.4434 -0.00167 0.0
C75 C 0.19757 0.49639 0.08757 0.0
H76 H 0.07138 0.17391 0.85875 0.0
H77 H 0.06571 0.26231 0.92754 0.0
H78 H 0.02014 0.18636 0.89538 0.0
H79 H 0.21757 0.31872 0.88527 0.0
H80 H 0.19601 0.44267 0.19225 0.0
H81 H 0.18898 0.40335 0.10782 0.0
H82 H 0.20292 0.55545 0.13122 0.0
H83 H 0.18807 0.37897 0.15606 0.0
Eu84 Eu 0.83194 0.20703 0.31886 0.0
C85 C 0.84032 0.39125 0.40518 0.0
N86 N 0.84853 0.34818 0.40679 0.0
C87 C 0.92482 0.39831 0.43649 0.0
C88 C 0.87494 0.44024 0.41896 0.0
C89 C 0.8888 0.35026 0.42285 0.0
C90 C 0.91822 0.44372 0.4343 0.0
C91 C 0.78258 0.42735 0.39115 0.0
C92 C 0.7945 0.38474 0.39165 0.0
C93 C 0.81831 0.47709 0.40378 0.0
C94 C 0.86394 0.48324 0.41796 0.0
Eu95 Eu 0.78498 0.26815 0.38402 0.0
N96 N 0.75928 0.33531 0.38089 0.0
C97 C 0.73369 0.41775 0.37921 0.0
C98 C 0.70954 0.32436 0.3713 0.0
C99 C 0.69664 0.36576 0.36959 0.0
H100 H 0.8938 0.3151 0.42469 0.0
H101 H 0.65794 0.35741 0.36114 0.0
H102 H 0.74753 0.07356 0.31343 0.0
H103 H 0.04417 0.3147 0.35547 0.0
H104 H 0.68055 0.28389 0.36427 0.0
H105 H 0.72322 0.44954 0.3783 0.0
H106 H 0.96649 0.30411 0.32863 0.0
H107 H 0.95753 0.40025 0.44871 0.0
H108 H 0.8099 0.51033 0.40358 0.0
H109 H 0.88991 0.5211 0.42853 0.0
H110 H 0.73877 0.98771 0.33125 0.0
H111 H 0.94588 0.48074 0.44509 0.0
H112 H 0.03815 0.23587 0.38017 0.0
N113 N 0.82455 0.1236 0.33198 0.0
C114 C 0.86585 0.12613 0.34706 0.0
C115 C 0.7747 0.02635 0.33584 0.0
C116 C 0.86238 0.07848 0.35791 0.0
C117 C 0.77986 0.07475 0.32565 0.0
C118 C 0.81589 0.02824 0.35228 0.0
N119 N 0.91335 0.22173 0.34083 0.0
C120 C 0.96163 0.26999 0.34051 0.0
C121 C 0.95566 0.18047 0.36677 0.0
C122 C 0.91134 0.17669 0.35185 0.0
C123 C 0.00315 0.23125 0.36895 0.0
C124 C 0.00659 0.27589 0.35517 0.0
H125 H 0.8116 0.99073 0.36035 0.0
H126 H 0.90308 0.04639 0.38274 0.0
H127 H 0.98521 0.13563 0.39014 0.0
O128 O 0.88686 0.22661 0.28429 0.0
O129 O 0.78752 0.15956 0.35662 0.0
O130 O 0.83313 0.225 0.3878 0.0
O131 O 0.80314 0.16349 0.28 0.0
O132 O 0.87908 0.2978 0.32668 0.0
O133 O 0.87191 0.2952 0.37277 0.0
O134 O 0.73177 0.195 0.408 0.0
O135 O 0.77291 0.2973 0.343 0.0
O136 O 0.80461 0.26681 0.3067 0.0
O137 O 0.75314 0.27418 0.42339 0.0
O138 O 0.71531 0.20886 0.35647 0.0
O139 O 0.74026 0.17032 0.32047 0.0
C140 C 0.80803 0.17356 0.3811 0.0
C141 C 0.86897 0.16046 0.25097 0.0
C142 C 0.9179 0.16019 0.20998 0.0
C143 C 0.91108 0.10956 0.21814 0.0
C144 C 0.8629 0.11025 0.25881 0.0
C145 C 0.8836 0.08481 0.24231 0.0
C146 C 0.89595 0.18491 0.22654 0.0
C147 C 0.89191 0.32284 0.35022 0.0
C148 C 0.85049 0.19022 0.26827 0.0
C149 C 0.90522 0.08247 0.37396 0.0
C150 C 0.95185 0.13333 0.3783 0.0
C151 C 0.78337 0.29505 0.31703 0.0
C152 C 0.74791 0.2112 0.45535 0.0
C153 C 0.73527 0.19979 0.50442 0.0
C154 C 0.78709 0.20541 0.50706 0.0
C155 C 0.80016 0.21811 0.45841 0.0
C156 C 0.71527 0.20151 0.47843 0.0
C157 C 0.81917 0.21403 0.48404 0.0
C158 C 0.70431 0.17598 0.33523 0.0
C159 C 0.73119 0.22272 0.42898 0.0
H160 H 0.92802 0.08958 0.20621 0.0
H161 H 0.84278 0.09103 0.27769 0.0
H162 H 0.87907 0.04613 0.24849 0.0
H163 H 0.90003 0.22356 0.22056 0.0
H164 H 0.80315 0.20452 0.52697 0.0
H165 H 0.82694 0.22853 0.4411 0.0
H166 H 0.67595 0.19888 0.47641 0.0
H167 H 0.8596 0.21954 0.48616 0.0
Eu168 Eu 0.64223 0.81266 0.6426 0.0
C169 C 0.42839 0.77981 0.72598 0.0
N170 N 0.47955 0.78805 0.72923 0.0
C171 C 0.49805 0.85375 0.76422 0.0
C172 C 0.41048 0.8095 0.74155 0.0
C173 C 0.51396 0.82327 0.74843 0.0
C174 C 0.44611 0.84685 0.76077 0.0
C175 C 0.33887 0.72901 0.70509 0.0
C176 C 0.39292 0.73989 0.70793 0.0
C177 C 0.3217 0.76012 0.71975 0.0
C178 C 0.35732 0.80009 0.73799 0.0
Eu179 Eu 0.50133 0.73287 0.70271 0.0
N180 N 0.41028 0.7099 0.69419 0.0
C181 C 0.30308 0.68597 0.68829 0.0
C182 C 0.37457 0.66561 0.67921 0.0
C183 C 0.32082 0.65368 0.67559 0.0
H184 H 0.55354 0.82736 0.75176 0.0
H185 H 0.29307 0.6195 0.66311 0.0
H186 H 0.69691 0.73284 0.64171 0.0
H187 H 0.74197 0.03477 0.65276 0.0
H188 H 0.38842 0.64069 0.66935 0.0
H189 H 0.26128 0.67639 0.6856 0.0
H190 H 0.66678 0.94323 0.64193 0.0
H191 H 0.52552 0.88195 0.7793 0.0
H192 H 0.28047 0.75262 0.71765 0.0
H193 H 0.34302 0.82284 0.74962 0.0
H194 H 0.78643 0.73988 0.65008 0.0
H195 H 0.43356 0.8698 0.77342 0.0
H196 H 0.83233 0.04841 0.66549 0.0
N197 N 0.72608 0.81633 0.6498 0.0
C198 C 0.7697 0.86599 0.65547 0.0
C199 C 0.7822 0.77557 0.65179 0.0
C200 C 0.82137 0.87197 0.66044 0.0
C201 C 0.73171 0.77161 0.64707 0.0
C202 C 0.82713 0.82587 0.65874 0.0
N203 N 0.71208 0.90367 0.651 0.0
C204 C 0.70508 0.94776 0.64863 0.0
C205 C 0.807 0.96292 0.66202 0.0
C206 C 0.76231 0.91075 0.65643 0.0
C207 C 0.79904 0.0077 0.66133 0.0
C208 C 0.74805 0.00014 0.65425 0.0
H209 H 0.86618 0.8288 0.66243 0.0
H210 H 0.90551 0.929 0.67076 0.0
H211 H 0.89302 0.00866 0.67201 0.0
O212 O 0.65245 0.85548 0.60346 0.0
O213 O 0.6752 0.80151 0.68293 0.0
O214 O 0.59103 0.76692 0.69635 0.0
O215 O 0.64298 0.77426 0.60433 0.0
O216 O 0.60081 0.85824 0.65983 0.0
O217 O 0.57385 0.82032 0.70278 0.0
O218 O 0.49015 0.65435 0.716 0.0
O219 O 0.46951 0.74316 0.66139 0.0
O220 O 0.55431 0.7739 0.65179 0.0
O221 O 0.48264 0.70606 0.74532 0.0
O222 O 0.50859 0.67821 0.67089 0.0
O223 O 0.59616 0.71846 0.6491 0.0
C224 C 0.64063 0.77901 0.70284 0.0
C225 C 0.65648 0.81616 0.5596 0.0
C226 C 0.68347 0.86387 0.51562 0.0
C227 C 0.66648 0.81347 0.50283 0.0
C228 C 0.64209 0.7671 0.54622 0.0
C229 C 0.64635 0.76575 0.51804 0.0
C230 C 0.67733 0.86468 0.5442 0.0
C231 C 0.58144 0.85786 0.68452 0.0
C232 C 0.65172 0.81607 0.58963 0.0
C233 C 0.86552 0.9236 0.66674 0.0
C234 C 0.85837 0.96895 0.66752 0.0
C235 C 0.50716 0.76421 0.64275 0.0
C236 C 0.41984 0.61217 0.74871 0.0
C237 C 0.35259 0.56266 0.78467 0.0
C238 C 0.31293 0.53617 0.76418 0.0
C239 C 0.37995 0.58266 0.72899 0.0
C240 C 0.40641 0.60109 0.77648 0.0
C241 C 0.32685 0.54536 0.73671 0.0
C242 C 0.5485 0.67603 0.65755 0.0
C243 C 0.47379 0.65739 0.74031 0.0
H244 H 0.66859 0.81073 0.48092 0.0
H245 H 0.62645 0.72934 0.55751 0.0
H246 H 0.63398 0.72747 0.5079 0.0
H247 H 0.69017 0.90293 0.55451 0.0
H248 H 0.27064 0.50854 0.76913 0.0
H249 H 0.3895 0.58909 0.70752 0.0
H250 H 0.43816 0.6227 0.79142 0.0
H251 H 0.29606 0.52403 0.72128 0.0
Eu252 Eu 0.808 0.63795 0.98395 0.0
C253 C 0.6362 0.4627 0.07407 0.0
N254 N 0.67673 0.51553 0.07487 0.0
C255 C 0.62326 0.53784 0.10407 0.0
C256 C 0.58679 0.44552 0.08801 0.0
C257 C 0.67181 0.55277 0.09023 0.0
C258 C 0.58036 0.48408 0.10276 0.0
C259 C 0.60628 0.36907 0.06181 0.0
C260 C 0.64601 0.42489 0.06131 0.0
C261 C 0.55591 0.35215 0.07446 0.0
C262 C 0.54647 0.39018 0.08781 0.0
Eu263 Eu 0.75798 0.53676 0.05213 0.0
N264 N 0.69606 0.44206 0.0505 0.0
C265 C 0.61945 0.3316 0.0509 0.0
C266 C 0.71071 0.40534 0.04205 0.0
C267 C 0.67219 0.34976 0.04135 0.0
H268 H 0.70509 0.59429 0.09139 0.0
H269 H 0.68335 0.32094 0.03375 0.0
H270 H 0.94257 0.69764 0.97716 0.0
H271 H 0.6857 0.72869 0.01692 0.0
H272 H 0.75181 0.41945 0.03503 0.0
H273 H 0.58994 0.28841 0.05078 0.0
H274 H 0.70247 0.66319 0.99266 0.0
H275 H 0.61903 0.56772 0.11581 0.0
H276 H 0.52483 0.30947 0.07499 0.0
H277 H 0.50831 0.37616 0.09848 0.0
H278 H 0.02535 0.78268 0.99152 0.0
H279 H 0.54307 0.4725 0.11381 0.0
H280 H 0.76215 0.80956 0.03859 0.0
N281 N 0.88817 0.72008 0.99448 0.0
C282 C 0.88213 0.75835 0.00798 0.0
C283 C 0.98533 0.77633 0.99627 0.0
C284 C 0.92802 0.80699 0.01685 0.0
C285 C 0.93864 0.72859 0.98801 0.0
C286 C 0.98002 0.81551 0.01096 0.0
N287 N 0.78648 0.70142 0.00384 0.0
C288 C 0.73582 0.69607 0.00346 0.0
C289 C 0.82241 0.78841 0.02626 0.0
C290 C 0.82984 0.74852 0.01305 0.0
C291 C 0.76958 0.77988 0.02864 0.0
C292 C 0.72629 0.73416 0.01657 0.0
H293 H 0.01628 0.85232 0.01749 0.0
H294 H 0.95533 0.88291 0.03837 0.0
H295 H 0.86288 0.867 0.0463 0.0
O296 O 0.7749 0.65726 0.9484 0.0
O297 O 0.85907 0.65131 0.02182 0.0
O298 O 0.79324 0.62774 0.0532 0.0
O299 O 0.85222 0.66088 0.94503 0.0
O300 O 0.71815 0.58761 0.99346 0.0
O301 O 0.72577 0.59108 0.03942 0.0
O302 O 0.8317 0.566 0.07714 0.0
O303 O 0.72927 0.491 0.01207 0.0
O304 O 0.75953 0.54829 0.97367 0.0
O305 O 0.75513 0.50064 0.09168 0.0
O306 O 0.82253 0.53395 0.02594 0.0
O307 O 0.85103 0.58876 0.98628 0.0
C308 C 0.84425 0.65783 0.04607 0.0
C309 C 0.83501 0.71843 0.9161 0.0
C310 C 0.81695 0.76307 0.87807 0.0
C311 C 0.86502 0.8118 0.88461 0.0
C312 C 0.88247 0.76744 0.9224 0.0
C313 C 0.89738 0.81384 0.90662 0.0
C314 C 0.80246 0.71652 0.89404 0.0
C315 C 0.69555 0.57737 0.01755 0.0
C316 C 0.81629 0.66923 0.93286 0.0
C317 C 0.92059 0.84548 0.03118 0.0
C318 C 0.86792 0.83628 0.03582 0.0
C319 C 0.73292 0.50004 0.98556 0.0
C320 C 0.81083 0.56299 0.12412 0.0
C321 C 0.80844 0.55653 0.17355 0.0
C322 C 0.79934 0.60066 0.1751 0.0
C323 C 0.80138 0.60687 0.12593 0.0
C324 C 0.81523 0.53852 0.14803 0.0
C325 C 0.7966 0.6262 0.15129 0.0
C326 C 0.85235 0.55325 0.00351 0.0
C327 C 0.8051 0.53581 0.09793 0.0
H328 H 0.87801 0.84824 0.87254 0.0
H329 H 0.90771 0.77 0.93954 0.0
H330 H 0.93416 0.85158 0.91147 0.0
H331 H 0.7651 0.67882 0.88971 0.0
H332 H 0.79358 0.61469 0.19463 0.0
H333 H 0.79517 0.62448 0.10776 0.0
H334 H 0.81996 0.50298 0.14673 0.0
H335 H 0.78895 0.65984 0.15246 0.0
Eu336 Eu 0.1746 0.84741 0.31675 0.0
C337 C 0.21441 0.67113 0.391 0.0
N338 N 0.1956 0.70586 0.39554 0.0
C339 C 0.12623 0.64097 0.42509 0.0
C340 C 0.18906 0.61909 0.40309 0.0
C341 C 0.15276 0.69216 0.4126 0.0
C342 C 0.14465 0.6044 0.42042 0.0
C343 C 0.28479 0.65593 0.37247 0.0
C344 C 0.26177 0.68943 0.37604 0.0
C345 C 0.25783 0.60273 0.38303 0.0
C346 C 0.21017 0.58442 0.39843 0.0
Eu347 Eu 0.24418 0.79235 0.37519 0.0
N348 N 0.28755 0.74146 0.36678 0.0
C349 C 0.33545 0.67781 0.3595 0.0
C350 C 0.33862 0.76424 0.35586 0.0
C351 C 0.36291 0.7325 0.35157 0.0
H352 H 0.13945 0.72106 0.41674 0.0
H353 H 0.40272 0.75022 0.3422 0.0
H354 H 0.23264 0.98209 0.31566 0.0
H355 H 0.96363 0.69914 0.34677 0.0
H356 H 0.35973 0.80653 0.3497 0.0
H357 H 0.35449 0.65339 0.35634 0.0
H358 H 0.0475 0.73197 0.32027 0.0
H359 H 0.09215 0.63005 0.4386 0.0
H360 H 0.27456 0.57615 0.38027 0.0
H361 H 0.19083 0.54398 0.40728 0.0
H362 H 0.21904 0.05437 0.33587 0.0
H363 H 0.12515 0.56546 0.4308 0.0
H364 H 0.9515 0.76236 0.37653 0.0
N365 N 0.1619 0.91762 0.33409 0.0
C366 C 0.11704 0.90289 0.34952 0.0
C367 C 0.19014 0.01194 0.33993 0.0
C368 C 0.10819 0.94253 0.36191 0.0
C369 C 0.19758 0.9711 0.32842 0.0
C370 C 0.14575 0.99761 0.35715 0.0
N371 N 0.08718 0.81158 0.33783 0.0
C372 C 0.04478 0.75956 0.33438 0.0
C373 C 0.03024 0.83154 0.36645 0.0
C374 C 0.07891 0.84809 0.35184 0.0
C375 C 0.98946 0.77674 0.3656 0.0
C376 C 0.9962 0.74092 0.34888 0.0
H377 H 0.14036 0.0293 0.36627 0.0
H378 H 0.05445 0.95574 0.38803 0.0
H379 H 0.98592 0.85844 0.39192 0.0
O380 O 0.11996 0.8318 0.28181 0.0
O381 O 0.21208 0.89317 0.35615 0.0
O382 O 0.18304 0.81879 0.38269 0.0
O383 O 0.20181 0.89928 0.28072 0.0
O384 O 0.13988 0.75604 0.32229 0.0
O385 O 0.15509 0.75985 0.36766 0.0
O386 O 0.30052 0.86791 0.39599 0.0
O387 O 0.25505 0.76985 0.33217 0.0
O388 O 0.21027 0.79704 0.30107 0.0
O389 O 0.27202 0.79104 0.4166 0.0
O390 O 0.30345 0.86315 0.34925 0.0
O391 O 0.267 0.90022 0.31826 0.0
C392 C 0.19997 0.87066 0.38037 0.0
C393 C 0.16482 0.85454 0.23893 0.0
C394 C 0.12915 0.82319 0.19311 0.0
C395 C 0.18004 0.83084 0.18521 0.0
C396 C 0.21529 0.86124 0.23061 0.0
C397 C 0.22266 0.84935 0.20394 0.0
C398 C 0.12155 0.83477 0.22009 0.0
C399 C 0.13396 0.73116 0.34566 0.0
C400 C 0.15768 0.86967 0.26682 0.0
C401 C 0.06159 0.92596 0.37799 0.0
C402 C 0.02268 0.87054 0.38028 0.0
C403 C 0.23848 0.77299 0.30738 0.0
C404 C 0.36336 0.85824 0.4238 0.0
C405 C 0.42834 0.86085 0.45728 0.0
C406 C 0.46903 0.88104 0.43711 0.0
C407 C 0.4042 0.87683 0.40378 0.0
C408 C 0.37572 0.85044 0.45049 0.0
C409 C 0.4569 0.889 0.41054 0.0
C410 C 0.30776 0.89965 0.33116 0.0
C411 C 0.30696 0.84302 0.41676 0.0
H412 H 0.18654 0.82183 0.16458 0.0
H413 H 0.24923 0.87578 0.24466 0.0
H414 H 0.26161 0.85459 0.19775 0.0
H415 H 0.08245 0.82939 0.22622 0.0
H416 H 0.50976 0.88899 0.44165 0.0
H417 H 0.39531 0.88112 0.38282 0.0
H418 H 0.34402 0.83539 0.46586 0.0
H419 H 0.48813 0.90352 0.39499 0.0
Eu420 Eu 0.36495 0.1629 0.65918 0.0
C421 C 0.55439 0.16446 0.7403 0.0
N422 N 0.5032 0.1554 0.74432 0.0
C423 C 0.48572 0.08573 0.77695 0.0
C424 C 0.57275 0.13293 0.75394 0.0
C425 C 0.46948 0.11825 0.76301 0.0
C426 C 0.53724 0.09241 0.77203 0.0
C427 C 0.64483 0.22195 0.72164 0.0
C428 C 0.59013 0.20881 0.72463 0.0
C429 C 0.66242 0.18862 0.7338 0.0
C430 C 0.62667 0.14468 0.75022 0.0
Eu431 Eu 0.47968 0.21343 0.72143 0.0
N432 N 0.5727 0.24186 0.71439 0.0
C433 C 0.68095 0.26986 0.70779 0.0
C434 C 0.60886 0.29105 0.70308 0.0
C435 C 0.66307 0.305 0.69886 0.0
H436 H 0.42974 0.11329 0.76684 0.0
H437 H 0.69113 0.34306 0.68899 0.0
H438 H 0.32395 0.25352 0.65424 0.0
H439 H 0.25405 0.95315 0.69879 0.0
H440 H 0.5951 0.31852 0.69645 0.0
H441 H 0.72321 0.2812 0.70493 0.0
H442 H 0.32373 0.02847 0.67168 0.0
H443 H 0.45852 0.05553 0.79143 0.0
H444 H 0.70422 0.1979 0.73164 0.0
H445 H 0.64156 0.12091 0.76053 0.0
H446 H 0.24921 0.26665 0.6715 0.0
H447 H 0.54979 0.06728 0.78291 0.0
H448 H 0.18225 0.96299 0.72201 0.0
N449 N 0.29271 0.17581 0.67267 0.0
C450 C 0.25226 0.13534 0.68747 0.0
C451 C 0.24963 0.22959 0.67615 0.0
C452 C 0.20929 0.14125 0.69796 0.0
C453 C 0.29159 0.22204 0.66633 0.0
C454 C 0.20853 0.18922 0.69224 0.0
N455 N 0.29653 0.08393 0.682 0.0
C456 C 0.29484 0.03498 0.68284 0.0
C457 C 0.21262 0.04539 0.7076 0.0
C458 C 0.25451 0.08835 0.69252 0.0
C459 C 0.2137 0.99697 0.71062 0.0
C460 C 0.25434 0.99137 0.69768 0.0
H461 H 0.17629 0.19535 0.7 0.0
H462 H 0.13548 0.10321 0.72213 0.0
H463 H 0.13819 0.01917 0.73047 0.0
O464 O 0.31898 0.10597 0.62642 0.0
O465 O 0.36625 0.20772 0.69743 0.0
O466 O 0.38887 0.16247 0.72755 0.0
O467 O 0.35493 0.19249 0.6197 0.0
O468 O 0.40643 0.11377 0.66724 0.0
O469 O 0.41763 0.12561 0.71314 0.0
O470 O 0.46009 0.26589 0.74598 0.0
O471 O 0.51567 0.22131 0.67933 0.0
O472 O 0.44898 0.18371 0.6451 0.0
O473 O 0.52217 0.24864 0.75952 0.0
O474 O 0.48506 0.28123 0.69453 0.0
O475 O 0.42207 0.25408 0.65825 0.0
C476 C 0.35995 0.18506 0.72134 0.0
C477 C 0.28142 0.13336 0.59078 0.0
C478 C 0.23484 0.09292 0.54785 0.0
C479 C 0.20284 0.11755 0.55159 0.0
C480 C 0.24908 0.15733 0.59424 0.0
C481 C 0.20968 0.14904 0.57475 0.0
C482 C 0.27338 0.1005 0.568 0.0
C483 C 0.42095 0.10263 0.6907 0.0
C484 C 0.32636 0.14407 0.60933 0.0
C485 C 0.1687 0.09934 0.7138 0.0
C486 C 0.17033 0.05154 0.7186 0.0
C487 C 0.49967 0.20692 0.65399 0.0
C488 C 0.46661 0.25198 0.79322 0.0
C489 C 0.47732 0.26081 0.84243 0.0
C490 C 0.42852 0.21128 0.8457 0.0
C491 C 0.41836 0.20197 0.7968 0.0
C492 C 0.49573 0.28159 0.81617 0.0
C493 C 0.39887 0.18225 0.82288 0.0
C494 C 0.46325 0.29109 0.67291 0.0
C495 C 0.49146 0.26862 0.76609 0.0
H496 H 0.17331 0.11355 0.53643 0.0
H497 H 0.25472 0.18285 0.61169 0.0
H498 H 0.18502 0.16794 0.57734 0.0
H499 H 0.29792 0.08128 0.56597 0.0
H500 H 0.41399 0.19473 0.86585 0.0
H501 H 0.39708 0.17706 0.77949 0.0
H502 H 0.53431 0.31907 0.8136 0.0
H503 H 0.36166 0.14357 0.82539 0.0
C504 C 0.22102 0.73779 0.25963 0.0
C505 C 0.24321 0.73954 0.28549 0.0
C506 C 0.21632 0.70005 0.23997 0.0
C507 C 0.23562 0.66394 0.24592 0.0
C508 C 0.26015 0.66682 0.27146 0.0
C509 C 0.26319 0.70424 0.29102 0.0
C510 C 0.1881 0.69698 0.21334 0.0
C511 C 0.28114 0.62892 0.27858 0.0
C512 C 0.17232 0.53077 0.20677 0.0
C513 C 0.20963 0.5439 0.18553 0.0
C514 C 0.18026 0.5694 0.22668 0.0
C515 C 0.2277 0.62169 0.22574 0.0
C516 C 0.26634 0.63444 0.2047 0.0
C517 C 0.25643 0.59555 0.18459 0.0
C518 C 0.13791 0.5535 0.24873 0.0
C519 C 0.31808 0.68909 0.20346 0.0
H520 H 0.20485 0.76425 0.25503 0.0
H521 H 0.27931 0.70416 0.31093 0.0
H522 H 0.21627 0.7049 0.19607 0.0
H523 H 0.15259 0.65541 0.2106 0.0
H524 H 0.17351 0.72665 0.2123 0.0
H525 H 0.30593 0.64147 0.29753 0.0
H526 H 0.24617 0.58717 0.28158 0.0
H527 H 0.30626 0.62727 0.26171 0.0
H528 H 0.1363 0.49059 0.20747 0.0
H529 H 0.28559 0.6052 0.16825 0.0
H530 H 0.13349 0.58837 0.25543 0.0
H531 H 0.15049 0.53833 0.26653 0.0
H532 H 0.09742 0.52021 0.24192 0.0
H533 H 0.30808 0.7218 0.20036 0.0
H534 H 0.34547 0.69132 0.18674 0.0
H535 H 0.34039 0.6974 0.22307 0.0
C536 C 0.57852 0.19587 0.64154 0.0
C537 C 0.54055 0.21144 0.63422 0.0
C538 C 0.61239 0.1923 0.62186 0.0
C539 C 0.60928 0.20651 0.5945 0.0
C540 C 0.57254 0.22455 0.58734 0.0
C541 C 0.53794 0.22591 0.60724 0.0
C542 C 0.65006 0.17166 0.63016 0.0
C543 C 0.56904 0.24147 0.55855 0.0
C544 C 0.72645 0.24469 0.54578 0.0
C545 C 0.70491 0.19888 0.52888 0.0
C546 C 0.69629 0.24719 0.56772 0.0
C547 C 0.6439 0.20227 0.57312 0.0
C548 C 0.62298 0.15495 0.55669 0.0
C549 C 0.65358 0.15411 0.53446 0.0
C550 C 0.71937 0.29886 0.58428 0.0
C551 C 0.56793 0.10568 0.56228 0.0
H552 H 0.57975 0.18375 0.66238 0.0
H553 H 0.50848 0.23797 0.60169 0.0
H554 H 0.64056 0.13486 0.61815 0.0
H555 H 0.6929 0.20283 0.62566 0.0
H556 H 0.64664 0.16123 0.65218 0.0
H557 H 0.54073 0.25765 0.55677 0.0
H558 H 0.60996 0.27319 0.55143 0.0
H559 H 0.55479 0.20609 0.54469 0.0
H560 H 0.76611 0.27941 0.54113 0.0
H561 H 0.63737 0.11871 0.52131 0.0
H562 H 0.71876 0.28966 0.60628 0.0
H563 H 0.69367 0.31777 0.58147 0.0
H564 H 0.76185 0.32897 0.57832 0.0
H565 H 0.56674 0.09138 0.58343 0.0
H566 H 0.55836 0.07159 0.54809 0.0
H567 H 0.5356 0.11659 0.56046 0.0
C568 C 0.29534 0.47126 0.9413 0.0
C569 C 0.26408 0.48984 0.95446 0.0
C570 C 0.31032 0.48405 0.91392 0.0
C571 C 0.29111 0.51378 0.89898 0.0
C572 C 0.25754 0.53074 0.91199 0.0
C573 C 0.24557 0.51974 0.93986 0.0
C574 C 0.34769 0.46673 0.90122 0.0
C575 C 0.23403 0.56015 0.89646 0.0
C576 C 0.36573 0.58921 0.83461 0.0
C577 C 0.33718 0.55037 0.81421 0.0
C578 C 0.35177 0.57755 0.86226 0.0
C579 C 0.30628 0.52694 0.86977 0.0
C580 C 0.27639 0.48805 0.84944 0.0
C581 C 0.29313 0.49951 0.82217 0.0
C582 C 0.38627 0.61915 0.8835 0.0
C583 C 0.22642 0.43433 0.85648 0.0
H584 H 0.3098 0.44824 0.95259 0.0
H585 H 0.22108 0.53374 0.95016 0.0
H586 H 0.32583 0.43636 0.88497 0.0
H587 H 0.38311 0.50226 0.89161 0.0
H588 H 0.36303 0.44845 0.91635 0.0
H589 H 0.20537 0.56678 0.90904 0.0
H590 H 0.26728 0.60026 0.88938 0.0
H591 H 0.21214 0.53646 0.8781 0.0
H592 H 0.399 0.62907 0.82918 0.0
H593 H 0.27144 0.46796 0.80719 0.0
H594 H 0.4008 0.60038 0.89875 0.0
H595 H 0.36157 0.63322 0.89454 0.0
H596 H 0.42221 0.65517 0.87448 0.0
H597 H 0.23761 0.41051 0.87022 0.0
H598 H 0.20617 0.40936 0.83816 0.0
H599 H 0.19665 0.44165 0.86758 0.0
C600 C 0.78943 0.38404 0.30733 0.0
C601 C 0.7775 0.33238 0.29829 0.0
C602 C 0.79373 0.42373 0.28883 0.0
C603 C 0.78407 0.41066 0.26083 0.0
C604 C 0.76916 0.3576 0.25185 0.0
C605 C 0.76667 0.31925 0.27067 0.0
C606 C 0.81126 0.48028 0.29905 0.0
C607 C 0.75861 0.34223 0.22212 0.0
C608 C 0.75565 0.49761 0.21244 0.0
C609 C 0.80482 0.52503 0.1981 0.0
C610 C 0.74878 0.46124 0.23349 0.0
C611 C 0.79254 0.45302 0.24054 0.0
C612 C 0.84313 0.48254 0.22674 0.0
C613 C 0.84847 0.51804 0.20554 0.0
C614 C 0.69383 0.42939 0.24709 0.0
C615 C 0.89209 0.47726 0.23386 0.0
H616 H 0.79895 0.39469 0.32861 0.0
H617 H 0.75747 0.27932 0.26368 0.0
H618 H 0.84836 0.51062 0.28803 0.0
H619 H 0.7789 0.49036 0.29488 0.0
H620 H 0.82001 0.48453 0.32127 0.0
H621 H 0.74253 0.29805 0.21883 0.0
H622 H 0.72905 0.35316 0.21366 0.0
H623 H 0.79717 0.36541 0.21052 0.0
H624 H 0.72175 0.50273 0.20629 0.0
H625 H 0.88656 0.53971 0.19443 0.0
H626 H 0.69823 0.43347 0.26954 0.0
H627 H 0.67575 0.3855 0.24224 0.0
H628 H 0.66508 0.4429 0.24037 0.0
H629 H 0.91981 0.51219 0.24692 0.0
H630 H 0.91518 0.47936 0.2152 0.0
H631 H 0.88156 0.43911 0.24489 0.0
C632 C 0.46767 0.80671 0.61323 0.0
C633 C 0.49741 0.77977 0.61565 0.0
C634 C 0.45747 0.82184 0.58771 0.0
C635 C 0.4748 0.80683 0.56396 0.0
C636 C 0.50258 0.77722 0.56623 0.0
C637 C 0.51471 0.76507 0.59218 0.0
C638 C 0.4278 0.8535 0.58618 0.0
C639 C 0.51869 0.75774 0.54127 0.0
C640 C 0.40235 0.79914 0.49774 0.0
C641 C 0.43995 0.84794 0.48492 0.0
C642 C 0.41312 0.78534 0.52351 0.0
C643 C 0.46277 0.82114 0.53674 0.0
C644 C 0.50088 0.8705 0.52397 0.0
C645 C 0.48903 0.88334 0.49818 0.0
C646 C 0.37169 0.73208 0.5364 0.0
C647 C 0.55411 0.90966 0.53759 0.0
H648 H 0.45255 0.81641 0.63126 0.0
H649 H 0.53569 0.74218 0.59411 0.0
H650 H 0.45264 0.89197 0.57473 0.0
H651 H 0.38886 0.82959 0.57498 0.0
H652 H 0.41878 0.86359 0.60666 0.0
H653 H 0.53064 0.72711 0.54644 0.0
H654 H 0.48466 0.73913 0.52643 0.0
H655 H 0.55321 0.793 0.53102 0.0
H656 H 0.36484 0.77112 0.48737 0.0
H657 H 0.51804 0.92129 0.48845 0.0
H658 H 0.35849 0.73976 0.55634 0.0
H659 H 0.39031 0.70645 0.54034 0.0
H660 H 0.3351 0.70879 0.52337 0.0
H661 H 0.54621 0.9221 0.5577 0.0
H662 H 0.57892 0.94681 0.52515 0.0
H663 H 0.57812 0.88922 0.54133 0.0
C664 C 0.64849 0.41172 0.97617 0.0
C665 C 0.69963 0.45353 0.96751 0.0
C666 C 0.61111 0.37423 0.95747 0.0
C667 C 0.62604 0.37798 0.9297 0.0
C668 C 0.67943 0.41705 0.92141 0.0
C669 C 0.7154 0.45482 0.94038 0.0
C670 C 0.55465 0.33288 0.96712 0.0
C671 C 0.69754 0.42117 0.89217 0.0
C672 C 0.53798 0.26522 0.88009 0.0
C673 C 0.51169 0.28866 0.86618 0.0
C674 C 0.57483 0.29337 0.90122 0.0
C675 C 0.58446 0.34553 0.90879 0.0
C676 C 0.55638 0.36841 0.89528 0.0
C677 C 0.52079 0.33989 0.87383 0.0
C678 C 0.60532 0.26849 0.91445 0.0
C679 C 0.56504 0.42368 0.90294 0.0
H680 H 0.63607 0.41076 0.99712 0.0
H681 H 0.75524 0.48672 0.93374 0.0
H682 H 0.52351 0.33671 0.95516 0.0
H683 H 0.54739 0.29115 0.96379 0.0
H684 H 0.54856 0.33758 0.98909 0.0
H685 H 0.74229 0.4481 0.88992 0.0
H686 H 0.68589 0.3803 0.88406 0.0
H687 H 0.67697 0.43788 0.87946 0.0
H688 H 0.53112 0.22571 0.87374 0.0
H689 H 0.5003 0.3577 0.86287 0.0
H690 H 0.60236 0.26916 0.93694 0.0
H691 H 0.64917 0.29293 0.90913 0.0
H692 H 0.58983 0.22582 0.9078 0.0
H693 H 0.56176 0.42649 0.9253 0.0
H694 H 0.53517 0.43246 0.89289 0.0
H695 H 0.60665 0.45569 0.8969 0.0
C696 C 0.38106 0.47782 0.0045 0.0
C697 C 0.34802 0.43271 0.02082 0.0
C698 C 0.43791 0.50206 0.00529 0.0
C699 C 0.46199 0.48028 0.02276 0.0
C700 C 0.42845 0.43533 0.03975 0.0
C701 C 0.37168 0.41233 0.03875 0.0
C702 C 0.47207 0.55034 0.98709 0.0
C703 C 0.45239 0.41116 0.05872 0.0
C704 C 0.60268 0.50873 0.00208 0.0
C705 C 0.6361 0.55154 0.01955 0.0
C706 C 0.54578 0.48396 0.00352 0.0
C707 C 0.52208 0.50348 0.02245 0.0
C708 C 0.55603 0.54688 0.04005 0.0
C709 C 0.61272 0.57057 0.03831 0.0
C710 C 0.51109 0.43738 0.98462 0.0
C711 C 0.53261 0.56941 0.0601 0.0
H712 H 0.36247 0.49443 0.99126 0.0
H713 H 0.34567 0.37763 0.05151 0.0
H714 H 0.50193 0.58534 -0.00053 0.0
H715 H 0.49555 0.54015 0.97259 0.0
H716 H 0.44694 0.56313 0.97526 0.0
H717 H 0.48072 0.40205 0.04745 0.0
H718 H 0.47601 0.44118 0.0748 0.0
H719 H 0.42068 0.37322 0.06866 0.0
H720 H 0.62108 0.49458 0.98733 0.0
H721 H 0.63888 0.60487 0.05121 0.0
H722 H 0.48693 0.44863 0.97108 0.0
H723 H 0.4819 0.40116 0.99657 0.0
H724 H 0.53599 0.42608 0.97181 0.0
H725 H 0.56434 0.60194 0.07306 0.0
H726 H 0.50289 0.5363 0.07345 0.0
H727 H 0.51069 0.58639 0.04877 0.0
C728 C 0.05461 0.64716 0.36382 0.0
C729 C 0.10107 0.67145 0.34741 0.0
C730 C 0.02173 0.59028 0.36519 0.0
C731 C 0.03699 0.55689 0.35072 0.0
C732 C 0.08557 0.58162 0.3351 0.0
C733 C 0.11642 0.63871 0.33313 0.0
C734 C 0.97066 0.5661 0.3821 0.0
C735 C 0.10471 0.54789 0.32024 0.0
C736 C 0.96958 0.40669 0.37061 0.0
C737 C 0.92935 0.38234 0.35061 0.0
C738 C 0.00518 0.46334 0.37087 0.0
C739 C 0.00048 0.49639 0.35059 0.0
C740 C 0.96023 0.47158 0.33009 0.0
C741 C 0.9257 0.41485 0.33016 0.0
C742 C 0.04769 0.4877 0.39286 0.0
C743 C 0.95304 0.50498 0.30828 0.0
H744 H 0.04336 0.67278 0.37513 0.0
H745 H 0.15301 0.65774 0.32082 0.0
H746 H 0.93554 0.53429 0.37046 0.0
H747 H 0.97655 0.54661 0.40036 0.0
H748 H 0.96057 0.59726 0.38896 0.0
H749 H 0.14665 0.57326 0.31209 0.0
H750 H 0.1041 0.51655 0.33401 0.0
H751 H 0.0766 0.52626 0.30309 0.0
H752 H 0.9739 0.38128 0.38575 0.0
H753 H 0.89533 0.39591 0.31431 0.0
H754 H 0.0489 0.45625 0.40586 0.0
H755 H 0.03879 0.51397 0.40599 0.0
H756 H 0.08843 0.51347 0.3836 0.0
H757 H 0.91972 0.47924 0.29393 0.0
H758 H 0.99137 0.52842 0.29656 0.0
H759 H 0.94366 0.53474 0.31781 0.0
C760 C 0.43479 0.03193 0.71364 0.0
C761 C 0.44326 0.06564 0.69119 0.0
C762 C 0.45814 0.99859 0.71473 0.0
C763 C 0.48901 0.99752 0.69236 0.0
C764 C 0.49635 0.03047 0.66926 0.0
C765 C 0.47333 0.06411 0.66896 0.0
C766 C 0.44864 0.96363 0.73953 0.0
C767 C 0.5283 0.03004 0.64481 0.0
C768 C 0.58842 0.94506 0.69882 0.0
C769 C 0.55694 0.89209 0.68893 0.0
C770 C 0.56624 0.97942 0.70092 0.0
C771 C 0.51181 0.9604 0.69245 0.0
C772 C 0.47981 0.9064 0.68289 0.0
C773 C 0.50281 0.87291 0.68154 0.0
C774 C 0.60063 0.03562 0.71257 0.0
C775 C 0.42196 0.88448 0.67318 0.0
H776 H 0.4092 0.03105 0.7302 0.0
H777 H 0.47919 0.08955 0.65135 0.0
H778 H 0.48747 0.96732 0.74669 0.0
H779 H 0.42991 0.97422 0.75652 0.0
H780 H 0.42066 0.92057 0.73408 0.0
H781 H 0.52947 0.05757 0.62839 0.0
H782 H 0.57075 0.04293 0.65091 0.0
H783 H 0.50995 0.98813 0.63653 0.0
H784 H 0.63038 0.95967 0.70467 0.0
H785 H 0.47841 0.8316 0.67463 0.0
H786 H 0.58289 0.03724 0.73239 0.0
H787 H 0.60014 0.06675 0.69905 0.0
H788 H 0.64356 0.04616 0.71593 0.0
H789 H 0.39724 0.88933 0.68918 0.0
H790 H 0.40191 0.84074 0.66754 0.0
H791 H 0.42184 0.90804 0.65514 0.0
C792 C 0.48773 0.57496 0.65985 0.0
C793 C 0.53808 0.61999 0.6523 0.0
C794 C 0.47921 0.522 0.65941 0.0
C795 C 0.52169 0.51324 0.65075 0.0
C796 C 0.57126 0.55773 0.64126 0.0
C797 C 0.57899 0.61071 0.64225 0.0
C798 C 0.42567 0.47581 0.6698 0.0
C799 C 0.61707 0.54976 0.63134 0.0
C800 C 0.51447 0.39004 0.6847 0.0
C801 C 0.4849 0.34903 0.66551 0.0
C802 C 0.52945 0.44435 0.67947 0.0
C803 C 0.51527 0.45826 0.65426 0.0
C804 C 0.48865 0.41776 0.63409 0.0
C805 C 0.47331 0.36349 0.64004 0.0
C806 C 0.55724 0.48614 0.70168 0.0
C807 C 0.47385 0.4312 0.60677 0.0
H808 H 0.45517 0.58098 0.66722 0.0
H809 H 0.61775 0.64482 0.63603 0.0
H810 H 0.40731 0.44263 0.65454 0.0
H811 H 0.43284 0.45854 0.68861 0.0
H812 H 0.39582 0.48908 0.67451 0.0
H813 H 0.64941 0.58661 0.6209 0.0
H814 H 0.63566 0.54039 0.6489 0.0
H815 H 0.60139 0.51475 0.61713 0.0
H816 H 0.52371 0.37945 0.70444 0.0
H817 H 0.45116 0.33223 0.62492 0.0
H818 H 0.52912 0.49965 0.70928 0.0
H819 H 0.59391 0.52258 0.69358 0.0
H820 H 0.56964 0.46984 0.71916 0.0
H821 H 0.43931 0.43869 0.60926 0.0
H822 H 0.46168 0.39762 0.59189 0.0
H823 H 0.50859 0.46889 0.59826 0.0
C824 C 0.10475 0.51142 0.00085 0.0
C825 C 0.09572 0.46076 0.99161 0.0
C826 C 0.06451 0.52592 -0.0015 0.0
C827 C 0.0139 0.4891 0.98641 0.0
C828 C 0.00579 0.4396 0.97526 0.0
C829 C 0.04688 0.42596 0.97799 0.0
C830 C 0.075 0.57923 0.01061 0.0
C831 C 0.95262 0.39965 0.96188 0.0
C832 C 0.89663 0.49923 0.01637 0.0
C833 C 0.89044 0.53305 -0.00247 0.0
C834 C 0.93497 0.48267 0.01228 0.0
C835 C 0.96793 0.49994 0.98865 0.0
C836 C 0.96036 0.53197 0.9689 0.0
C837 C 0.92186 0.54841 0.97363 0.0
C838 C 0.94194 0.44875 0.03396 0.0
C839 C 0.99434 0.5506 0.9433 0.0
H840 H 0.14277 0.53934 0.01085 0.0
H841 H 0.03964 0.38704 0.97053 0.0
H842 H 0.06481 0.60218 0.99572 0.0
H843 H 0.04845 0.57102 0.02866 0.0
H844 H 0.11808 0.60538 0.01708 0.0
H845 H 0.95572 0.36744 0.9506 0.0
H846 H 0.92059 0.37981 0.97768 0.0
H847 H 0.93918 0.42093 0.9476 0.0
H848 H 0.87255 0.4867 0.03487 0.0
H849 H 0.91718 0.57408 0.95878 0.0
H850 H 0.98276 0.47271 0.0435 0.0
H851 H 0.93966 0.41202 0.02478 0.0
H852 H 0.9106 0.43559 0.05021 0.0
H853 H 0.03692 0.58143 0.94855 0.0
H854 H 0.97866 0.56893 0.92839 0.0
H855 H 0.99537 0.51598 0.93348 0.0
C856 C 0.38461 0.96973 0.30216 0.0
C857 C 0.36354 0.94648 0.32766 0.0
C858 C 0.43963 0.01118 0.29949 0.0
C859 C 0.47389 0.02899 0.32282 0.0
C860 C 0.45177 0.00693 0.34866 0.0
C861 C 0.39684 0.96695 0.35074 0.0
C862 C 0.46143 0.03491 0.27174 0.0
C863 C 0.48648 0.02412 0.37414 0.0
C864 C 0.62672 0.08639 0.32055 0.0
C865 C 0.6462 0.14063 0.32813 0.0
C866 C 0.57067 0.05015 0.31712 0.0
C867 C 0.53336 0.06901 0.32069 0.0
C868 C 0.55331 0.12475 0.32646 0.0
C869 C 0.60946 0.15972 0.33054 0.0
C870 C 0.55121 0.99085 0.31169 0.0
C871 C 0.51513 0.14683 0.32982 0.0
H872 H 0.35868 0.95454 0.28432 0.0
H873 H 0.37989 0.95125 0.37065 0.0
H874 H 0.48338 0.08005 0.27261 0.0
H875 H 0.49116 0.0228 0.26506 0.0
H876 H 0.42855 0.02094 0.25623 0.0
H877 H 0.46255 0.00365 0.39272 0.0
H878 H 0.51949 0.01422 0.37209 0.0
H879 H 0.50606 0.06877 0.37701 0.0
H880 H 0.65503 0.07145 0.31882 0.0
H881 H 0.62455 0.20187 0.336 0.0
H882 H 0.52158 0.97563 0.29463 0.0
H883 H 0.52992 0.96642 0.33001 0.0
H884 H 0.58534 0.98376 0.30673 0.0
H885 H 0.48411 0.13161 0.31337 0.0
H886 H 0.53722 0.19207 0.32967 0.0
H887 H 0.49316 0.13255 0.34948 0.0
C888 C 0.29736 0.15239 0.76126 0.0
C889 C 0.32817 0.19356 0.74243 0.0
C890 C 0.26734 0.16032 0.7816 0.0
C891 C 0.26855 0.21074 0.78311 0.0
C892 C 0.29908 0.25212 0.7638 0.0
C893 C 0.32808 0.24277 0.74348 0.0
C894 C 0.23462 0.11491 0.80152 0.0
C895 C 0.30191 0.30661 0.7649 0.0
C896 C 0.15591 0.21823 0.82105 0.0
C897 C 0.17997 0.23816 0.84662 0.0
C898 C 0.18412 0.20876 0.8003 0.0
C899 C 0.23816 0.22046 0.80497 0.0
C900 C 0.26321 0.24165 0.83047 0.0
C901 C 0.23363 0.24962 0.85106 0.0
C902 C 0.1558 0.18543 0.7735 0.0
C903 C 0.32081 0.25474 0.83632 0.0
H904 H 0.29679 0.11398 0.76003 0.0
H905 H 0.35173 0.27446 0.72874 0.0
H906 H 0.25068 0.12814 0.82242 0.0
H907 H 0.19151 0.10506 0.80149 0.0
H908 H 0.23587 0.07734 0.79671 0.0
H909 H 0.32746 0.33441 0.74833 0.0
H910 H 0.26038 0.30096 0.7633 0.0
H911 H 0.31906 0.32641 0.78478 0.0
H912 H 0.11489 0.21007 0.81715 0.0
H913 H 0.2524 0.26393 0.87083 0.0
H914 H 0.15239 0.1452 0.77017 0.0
H915 H 0.18008 0.21221 0.7564 0.0
H916 H 0.11429 0.18016 0.77275 0.0
H917 H 0.32121 0.21621 0.83919 0.0
H918 H 0.3375 0.27962 0.85504 0.0
H919 H 0.34824 0.27689 0.81901 0.0
C920 C 0.98383 0.24485 0.18447 0.0
C921 C 0.94924 0.18811 0.18484 0.0
C922 C 0.01399 0.272 0.1612 0.0
C923 C 0.01072 0.24163 0.13769 0.0
C924 C 0.97585 0.18436 0.13782 0.0
C925 C 0.94536 0.15836 0.16129 0.0
C926 C 0.05045 0.33303 0.16269 0.0
C927 C 0.9711 0.15048 0.11319 0.0
C928 C 0.05769 0.31613 0.0698 0.0
C929 C 0.11069 0.32483 0.06796 0.0
C930 C 0.0246 0.28903 0.09237 0.0
C931 C 0.04477 0.26937 0.11328 0.0
C932 C 0.09804 0.27725 0.11115 0.0
C933 C 0.1302 0.30448 0.08836 0.0
C934 C 0.96865 0.28272 0.09425 0.0
C935 C 0.12126 0.25747 0.1331 0.0
H936 H 0.98834 0.26839 0.20264 0.0
H937 H 0.91824 0.11464 0.16112 0.0
H938 H 0.08716 0.3422 0.17476 0.0
H939 H 0.06353 0.3528 0.14246 0.0
H940 H 0.02952 0.35158 0.17361 0.0
H941 H 0.94166 0.1065 0.11638 0.0
H942 H 0.95791 0.16476 0.09522 0.0
H943 H 0.01151 0.15545 0.10826 0.0
H944 H 0.04257 0.33151 0.05381 0.0
H945 H 0.17093 0.3104 0.08663 0.0
H946 H 0.96652 0.30454 0.11252 0.0
H947 H 0.93737 0.23913 0.09671 0.0
H948 H 0.95842 0.29904 0.07599 0.0
H949 H 0.12041 0.27559 0.15297 0.0
H950 H 0.16387 0.26804 0.12872 0.0
H951 H 0.09578 0.21261 0.13522 0.0
C952 C 0.69598 0.95632 0.50384 0.0
C953 C 0.70781 0.9147 0.49874 0.0
C954 C 0.71475 0.00157 0.48629 0.0
C955 C 0.74601 0.00524 0.46304 0.0
C956 C 0.76001 0.96464 0.45843 0.0
C957 C 0.74125 0.92033 0.47641 0.0
C958 C 0.69961 0.04449 0.49211 0.0
C959 C 0.79324 0.96692 0.4339 0.0
C960 C 0.7422 0.08261 0.40054 0.0
C961 C 0.79249 0.13103 0.40222 0.0
C962 C 0.72625 0.04188 0.42046 0.0
C963 C 0.76158 0.04961 0.44257 0.0
C964 C 0.81275 0.09825 0.44416 0.0
C965 C 0.82785 0.13813 0.42376 0.0
C966 C 0.67176 0.99029 0.41767 0.0
C967 C 0.85154 0.1081 0.46738 0.0
H968 H 0.67066 0.95281 0.52106 0.0
H969 H 0.75227 0.8895 0.47268 0.0
H970 H 0.73626 0.08569 0.49116 0.0
H971 H 0.67077 0.04286 0.47634 0.0
H972 H 0.68024 0.03893 0.51241 0.0
H973 H 0.80273 0.93343 0.43387 0.0
H974 H 0.77054 0.96413 0.41497 0.0
H975 H 0.83208 0.00635 0.43324 0.0
H976 H 0.71497 0.07676 0.38372 0.0
H977 H 0.86735 0.17499 0.42465 0.0
H978 H 0.64673 0.98395 0.43612 0.0
H979 H 0.67787 0.95475 0.41591 0.0
H980 H 0.64862 0.9911 0.39957 0.0
H981 H 0.83119 0.1054 0.48708 0.0
H982 H 0.88918 0.1486 0.466 0.0
H983 H 0.86321 0.07623 0.46757 0.0
C984 C 0.62434 0.75023 0.75221 0.0
C985 C 0.65935 0.77148 0.72984 0.0
C986 C 0.6438 0.74479 0.77778 0.0
C987 C 0.69991 0.76229 0.78104 0.0
C988 C 0.73539 0.78401 0.75845 0.0
C989 C 0.71464 0.78791 0.7332 0.0
C990 C 0.6045 0.72074 0.80127 0.0
C991 C 0.79561 0.80383 0.76096 0.0
C992 C 0.77388 0.80433 0.84894 0.0
C993 C 0.78237 0.76064 0.85456 0.0
C994 C 0.74446 0.80412 0.82584 0.0
C995 C 0.72262 0.75898 0.80794 0.0
C996 C 0.72875 0.71364 0.81416 0.0
C997 C 0.75874 0.71512 0.83728 0.0
C998 C 0.73901 0.85338 0.81992 0.0
C999 C 0.70589 0.66459 0.79569 0.0
H1000 H 0.58208 0.7384 0.74979 0.0
H1001 H 0.74228 0.80466 0.71606 0.0
H1002 H 0.6068 0.68601 0.8102 0.0
H1003 H 0.61588 0.75164 0.81754 0.0
H1004 H 0.56174 0.70635 0.79502 0.0
H1005 H 0.81767 0.81998 0.74142 0.0
H1006 H 0.81418 0.8365 0.7765 0.0
H1007 H 0.8018 0.77011 0.76786 0.0
H1008 H 0.79087 0.83917 0.86246 0.0
H1009 H 0.7653 0.68128 0.84124 0.0
H1010 H 0.69592 0.84088 0.81559 0.0
H1011 H 0.76305 0.87446 0.80149 0.0
H1012 H 0.75365 0.88279 0.83708 0.0
H1013 H 0.66281 0.65083 0.7905 0.0
H1014 H 0.70803 0.63008 0.80508 0.0
H1015 H 0.72921 0.67573 0.77634 0.0
C1016 C 0.09058 0.83275 0.1491 0.0
C1017 C 0.08441 0.80293 0.17293 0.0
C1018 C 0.05046 0.81219 0.12869 0.0
C1019 C 0.00381 0.75994 0.13191 0.0
C1020 C 0.99727 0.72993 0.15613 0.0
C1021 C 0.03736 0.75219 0.17655 0.0
C1022 C 0.05857 0.84584 0.1034 0.0
C1023 C 0.94843 0.67395 0.16028 0.0
C1024 C 0.87883 0.71711 0.08723 0.0
C1025 C 0.8862 0.68652 0.06715 0.0
C1026 C 0.91703 0.74181 0.10834 0.0
C1027 C 0.96349 0.73552 0.1093 0.0
C1028 C 0.97161 0.70569 0.08856 0.0
C1029 C 0.93322 0.6822 0.06752 0.0
C1030 C 0.90734 0.77403 0.12975 0.0
C1031 C 0.02014 0.69735 0.08898 0.0
H1032 H 0.1271 0.87206 0.1464 0.0
H1033 H 0.03295 0.7291 0.19495 0.0
H1034 H 0.06351 0.82511 0.08543 0.0
H1035 H 0.02217 0.84986 0.09967 0.0
H1036 H 0.09496 0.88721 0.10493 0.0
H1037 H 0.95162 0.65402 0.17914 0.0
H1038 H 0.91137 0.6774 0.16167 0.0
H1039 H 0.94314 0.64736 0.14264 0.0
H1040 H 0.84282 0.72116 0.08657 0.0
H1041 H 0.93899 0.65868 0.05187 0.0
H1042 H 0.94332 0.81559 0.1313 0.0
H1043 H 0.90178 0.75422 0.14991 0.0
H1044 H 0.87076 0.77742 0.12527 0.0
H1045 H 0.05848 0.73727 0.08872 0.0
H1046 H 0.02038 0.67294 0.07138 0.0
H1047 H 0.01997 0.67621 0.10806 0.0
C1048 C 0.1786 0.02865 0.51018 0.0
C1049 C 0.22942 0.06061 0.52284 0.0
C1050 C 0.17339 0.99809 0.48673 0.0
C1051 C 0.21978 0.99822 0.47608 0.0
C1052 C 0.27104 0.02998 0.48876 0.0
C1053 C 0.27541 0.06147 0.5116 0.0
C1054 C 0.11824 0.96564 0.47334 0.0
C1055 C 0.32137 0.03058 0.47825 0.0
C1056 C 0.19677 0.87993 0.43093 0.0
C1057 C 0.20668 0.90363 0.40493 0.0
C1058 C 0.20148 0.9104 0.45431 0.0
C1059 C 0.21494 0.96542 0.45154 0.0
C1060 C 0.22499 0.98951 0.42536 0.0
C1061 C 0.22197 0.95865 0.40249 0.0
C1062 C 0.19235 0.8838 0.48195 0.0
C1063 C 0.23828 0.04768 0.42145 0.0
H1064 H 0.1426 0.02693 0.51873 0.0
H1065 H 0.31523 0.08709 0.52053 0.0
H1066 H 0.1209 0.97728 0.45155 0.0
H1067 H 0.10482 0.92162 0.47401 0.0
H1068 H 0.08673 0.97187 0.48336 0.0
H1069 H 0.35768 0.05542 0.49122 0.0
H1070 H 0.3142 0.98843 0.47733 0.0
H1071 H 0.33053 0.04722 0.45724 0.0
H1072 H 0.1856 0.83757 0.43308 0.0
H1073 H 0.2312 0.97765 0.38265 0.0
H1074 H 0.15765 0.88385 0.49229 0.0
H1075 H 0.22888 0.90736 0.49493 0.0
H1076 H 0.18371 0.84113 0.48064 0.0
H1077 H 0.20463 0.05271 0.42961 0.0
H1078 H 0.24455 0.06014 0.39968 0.0
H1079 H 0.27565 0.07571 0.43296 0.0
loop_
_geom_bond_atom_site_label_1
_geom_bond_atom_site_label_2
_geom_bond_distance
_geom_bond_site_symmetry_2
_ccdc_geom_bond_type
Eu0 N29 2.600 1_556 S
Eu0 N35 2.562 1_556 S
Eu0 O44 2.462 . S
Eu0 O45 2.373 1_556 S
Eu0 O47 2.432 . S
Eu0 O48 2.291 1_556 S
Eu0 O52 2.335 . S
Eu0 O55 2.372 . S
Eu0 C64 2.787 . S
C1 N2 1.365 . S
C1 C4 1.405 . S
C1 C8 1.448 . S
N2 C1 1.365 . S
N2 C5 1.319 . S
N2 Eu11 2.600 . S
C3 C5 1.397 . S
C3 C6 1.367 . S
C3 H23 0.931 . S
C4 C1 1.405 . S
C4 C6 1.403 . S
C4 C10 1.439 . S
C5 N2 1.319 . S
C5 C3 1.397 . S
C5 H16 0.930 . S
C6 C3 1.367 . S
C6 C4 1.403 . S
C6 H27 0.929 . S
C7 C8 1.430 . S
C7 C9 1.387 . S
C7 C13 1.406 1_554 S
C8 C1 1.448 . S
C8 C7 1.430 . S
C8 N12 1.351 . S
C9 C7 1.387 . S
C9 C10 1.374 . S
C9 H24 0.931 1_554 S
C10 C4 1.439 . S
C10 C9 1.374 . S
C10 H25 0.931 . S
Eu11 N2 2.600 . S
Eu11 N12 2.562 . S
Eu11 O46 2.335 . S
Eu11 O49 2.372 . S
Eu11 O50 2.462 . S
Eu11 O51 2.373 1_554 S
Eu11 O53 2.432 . S
Eu11 O54 2.291 . S
Eu11 C75 2.787 . S
N12 C8 1.351 . S
N12 Eu11 2.562 . S
N12 C14 1.325 . S
C13 C7 1.406 1_556 S
C13 C15 1.367 1_556 S
C13 H21 0.928 . S
C14 N12 1.325 . S
C14 C15 1.416 . S
C14 H20 0.929 . S
C15 C13 1.367 1_554 S
C15 C14 1.416 . S
C15 H17 0.923 1_554 S
H16 C5 0.930 . S
H17 C15 0.923 1_556 S
H18 C33 0.930 . S
H19 C40 0.930 . S
H20 C14 0.929 . S
H21 C13 0.928 . S
H22 C36 0.929 . S
H23 C3 0.931 . S
H24 C9 0.931 1_556 S
H25 C10 0.931 . S
H26 C31 0.931 . S
H27 C6 0.929 . S
H28 C39 0.930 . S
N29 Eu0 2.600 1_554 S
N29 C30 1.367 . S
N29 C33 1.318 1_554 S
C30 N29 1.367 . S
C30 C32 1.405 . S
C30 C38 1.448 . S
C31 H26 0.931 . S
C31 C33 1.397 1_655 S
C31 C34 1.367 1_556 S
C32 C30 1.405 . S
C32 C34 1.403 1_455 S
C32 C65 1.439 1_455 S
C33 H18 0.930 . S
C33 N29 1.318 1_556 S
C33 C31 1.397 1_455 S
C34 C31 1.367 1_554 S
C34 C32 1.403 1_655 S
C34 H41 0.929 . S
N35 Eu0 2.562 1_554 S
N35 C36 1.325 . S
N35 C38 1.351 . S
C36 H22 0.929 . S
C36 N35 1.325 . S
C36 C40 1.416 . S
C37 C38 1.430 . S
C37 C39 1.404 . S
C37 C66 1.387 . S
C38 C30 1.448 . S
C38 N35 1.351 . S
C38 C37 1.430 . S
C39 H28 0.930 . S
C39 C37 1.404 . S
C39 C40 1.366 . S
C40 H19 0.930 . S
C40 C36 1.416 . S
C40 C39 1.366 . S
H41 C34 0.929 . S
H42 C65 0.931 . S
H43 C66 0.931 . S
O44 Eu0 2.462 . S
O44 C64 1.252 . S
O45 Eu0 2.373 1_554 S
O45 C56 1.249 . S
O46 Eu11 2.335 . S
O46 C56 1.264 . S
O47 Eu0 2.432 . S
O47 C64 1.268 . S
O48 Eu0 2.291 1_554 S
O48 C63 1.255 . S
O49 Eu11 2.372 . S
O49 C63 1.257 . S
O50 Eu11 2.462 . S
O50 C75 1.252 . S
O51 Eu11 2.373 1_556 S
O51 C67 1.249 . S
O52 Eu0 2.335 . S
O52 C67 1.264 . S
O53 Eu11 2.432 . S
O53 C75 1.268 . S
O54 Eu11 2.291 . S
O54 C74 1.255 . S
O55 Eu0 2.372 . S
O55 C74 1.257 1_556 S
C56 O45 1.249 . S
C56 O46 1.264 . S
C57 C60 1.382 . S
C57 C62 1.390 . S
C57 C64 1.506 . S
C58 C59 1.398 . S
C58 C62 1.392 . S
C59 C58 1.398 . S
C59 C61 1.372 . S
C59 H76 0.931 . S
C60 C57 1.382 . S
C60 C61 1.390 . S
C60 H77 0.931 . S
C61 C59 1.372 . S
C61 C60 1.390 . S
C61 H78 0.929 . S
C62 C57 1.390 . S
C62 C58 1.392 . S
C62 H79 0.930 . S
C63 O48 1.255 . S
C63 O49 1.257 . S
C64 Eu0 2.787 . S
C64 O44 1.252 . S
C64 O47 1.268 . S
C64 C57 1.506 . S
C65 C32 1.439 1_655 S
C65 H42 0.931 . S
C65 C66 1.374 1_655 S
C66 C37 1.387 . S
C66 H43 0.931 . S
C66 C65 1.374 1_455 S
C67 O51 1.249 . S
C67 O52 1.264 . S
C68 C71 1.382 . S
C68 C72 1.390 . S
C68 C75 1.506 . S
C69 C70 1.398 . S
C69 C72 1.392 . S
C70 C69 1.398 . S
C70 C73 1.372 . S
C70 H80 0.931 . S
C71 C68 1.382 . S
C71 C73 1.390 . S
C71 H81 0.931 . S
C72 C68 1.390 . S
C72 C69 1.392 . S
C72 H82 0.930 . S
C73 C70 1.372 . S
C73 C71 1.390 . S
C73 H83 0.929 . S
C74 O54 1.255 . S
C74 O55 1.257 1_554 S
C75 Eu11 2.787 . S
C75 O50 1.252 . S
C75 O53 1.268 . S
C75 C68 1.506 . S
H76 C59 0.931 . S
H77 C60 0.931 . S
H78 C61 0.929 . S
H79 C62 0.930 . S
H80 C70 0.931 . S
H81 C71 0.931 . S
H82 C72 0.930 . S
H83 C73 0.929 . S
Eu84 N113 2.600 . S
Eu84 N119 2.562 . S
Eu84 O128 2.462 . S
Eu84 O129 2.373 . S
Eu84 O131 2.432 . S
Eu84 O132 2.291 . S
Eu84 O136 2.335 . S
Eu84 O139 2.372 . S
Eu84 C148 2.787 . S
C85 N86 1.365 . S
C85 C88 1.405 . S
C85 C92 1.448 . S
N86 C85 1.365 . S
N86 C89 1.319 . S
N86 Eu95 2.600 . S
C87 C89 1.397 . S
C87 C90 1.367 . S
C87 H107 0.931 . S
C88 C85 1.405 . S
C88 C90 1.403 . S
C88 C94 1.439 . S
C89 N86 1.319 . S
C89 C87 1.397 . S
C89 H100 0.930 . S
C90 C87 1.367 . S
C90 C88 1.403 . S
C90 H111 0.929 . S
C91 C92 1.430 . S
C91 C93 1.387 . S
C91 C97 1.404 . S
C92 C85 1.448 . S
C92 C91 1.430 . S
C92 N96 1.351 . S
C93 C91 1.387 . S
C93 C94 1.374 . S
C93 H108 0.931 . S
C94 C88 1.439 . S
C94 C93 1.374 . S
C94 H109 0.931 . S
Eu95 N86 2.600 . S
Eu95 N96 2.562 . S
Eu95 O130 2.335 . S
Eu95 O133 2.372 . S
Eu95 O134 2.462 . S
Eu95 O135 2.373 . S
Eu95 O137 2.432 . S
Eu95 O138 2.291 . S
Eu95 C159 2.787 . S
N96 C92 1.351 . S
N96 Eu95 2.562 . S
N96 C98 1.325 . S
C97 C91 1.404 . S
C97 C99 1.366 . S
C97 H105 0.930 . S
C98 N96 1.325 . S
C98 C99 1.416 . S
C98 H104 0.929 . S
C99 C97 1.366 . S
C99 C98 1.416 . S
C99 H101 0.930 . S
H100 C89 0.930 . S
H101 C99 0.930 . S
H102 C117 0.930 . S
H103 C124 0.930 1_455 S
H104 C98 0.929 . S
H105 C97 0.930 . S
H106 C120 0.929 . S
H107 C87 0.931 . S
H108 C93 0.931 . S
H109 C94 0.931 . S
H110 C115 0.931 . S
H111 C90 0.929 . S
H112 C123 0.930 1_455 S
N113 Eu84 2.600 . S
N113 C114 1.365 . S
N113 C117 1.319 . S
C114 N113 1.365 . S
C114 C116 1.405 . S
C114 C122 1.448 . S
C115 H110 0.931 . S
C115 C117 1.397 1_565 S
C115 C118 1.367 . S
C116 C114 1.405 . S
C116 C118 1.403 1_545 S
C116 C149 1.439 1_545 S
C117 H102 0.930 . S
C117 N113 1.319 . S
C117 C115 1.397 1_545 S
C118 C115 1.367 . S
C118 C116 1.403 1_565 S
C118 H125 0.929 . S
N119 Eu84 2.562 . S
N119 C120 1.325 . S
N119 C122 1.351 . S
C120 H106 0.929 . S
C120 N119 1.325 . S
C120 C124 1.416 . S
C121 C122 1.430 . S
C121 C123 1.404 . S
C121 C150 1.387 . S
C122 C114 1.448 . S
C122 N119 1.351 . S
C122 C121 1.430 . S
C123 H112 0.930 1_655 S
C123 C121 1.404 . S
C123 C124 1.366 . S
C124 H103 0.930 1_655 S
C124 C120 1.416 . S
C124 C123 1.366 . S
H125 C118 0.929 . S
H126 C149 0.931 . S
H127 C150 0.931 . S
O128 Eu84 2.462 . S
O128 C148 1.252 . S
O129 Eu84 2.373 . S
O129 C140 1.249 . S
O130 Eu95 2.335 . S
O130 C140 1.264 . S
O131 Eu84 2.432 . S
O131 C148 1.268 . S
O132 Eu84 2.291 . S
O132 C147 1.255 . S
O133 Eu95 2.372 . S
O133 C147 1.257 . S
O134 Eu95 2.462 . S
O134 C159 1.252 . S
O135 Eu95 2.373 . S
O135 C151 1.249 . S
O136 Eu84 2.335 . S
O136 C151 1.264 . S
O137 Eu95 2.432 . S
O137 C159 1.268 . S
O138 Eu95 2.291 . S
O138 C158 1.255 . S
O139 Eu84 2.372 . S
O139 C158 1.257 . S
C140 O129 1.249 . S
C140 O130 1.264 . S
C141 C144 1.382 . S
C141 C146 1.390 . S
C141 C148 1.506 . S
C142 C143 1.398 . S
C142 C146 1.392 . S
C143 C142 1.398 . S
C143 C145 1.372 . S
C143 H160 0.931 . S
C144 C141 1.382 . S
C144 C145 1.390 . S
C144 H161 0.931 . S
C145 C143 1.372 . S
C145 C144 1.390 . S
C145 H162 0.929 . S
C146 C141 1.390 . S
C146 C142 1.392 . S
C146 H163 0.930 . S
C147 O132 1.255 . S
C147 O133 1.257 . S
C148 Eu84 2.787 . S
C148 O128 1.252 . S
C148 O131 1.268 . S
C148 C141 1.506 . S
C149 C116 1.439 1_565 S
C149 H126 0.931 . S
C149 C150 1.374 1_565 S
C150 C121 1.387 . S
C150 H127 0.931 . S
C150 C149 1.374 1_545 S
C151 O135 1.249 . S
C151 O136 1.264 . S
C152 C155 1.382 . S
C152 C156 1.390 . S
C152 C159 1.506 . S
C153 C154 1.398 . S
C153 C156 1.392 . S
C154 C153 1.398 . S
C154 C157 1.372 . S
C154 H164 0.931 . S
C155 C152 1.382 . S
C155 C157 1.390 . S
C155 H165 0.931 . S
C156 C152 1.390 . S
C156 C153 1.392 . S
C156 H166 0.930 . S
C157 C154 1.372 . S
C157 C155 1.390 . S
C157 H167 0.929 . S
C158 O138 1.255 . S
C158 O139 1.257 . S
C159 Eu95 2.787 . S
C159 O134 1.252 . S
C159 O137 1.268 . S
C159 C152 1.506 . S
H160 C143 0.931 . S
H161 C144 0.931 . S
H162 C145 0.929 . S
H163 C146 0.930 . S
H164 C154 0.931 . S
H165 C155 0.931 . S
H166 C156 0.930 . S
H167 C157 0.929 . S
Eu168 N197 2.600 . S
Eu168 N203 2.562 . S
Eu168 O212 2.462 . S
Eu168 O213 2.373 . S
Eu168 O215 2.432 . S
Eu168 O216 2.291 . S
Eu168 O220 2.335 . S
Eu168 O223 2.372 . S
Eu168 C232 2.787 . S
C169 N170 1.365 . S
C169 C172 1.405 . S
C169 C176 1.448 . S
N170 C169 1.365 . S
N170 C173 1.319 . S
N170 Eu179 2.600 . S
C171 C173 1.397 . S
C171 C174 1.367 . S
C171 H191 0.931 . S
C172 C169 1.405 . S
C172 C174 1.403 . S
C172 C178 1.439 . S
C173 N170 1.319 . S
C173 C171 1.397 . S
C173 H184 0.930 . S
C174 C171 1.367 . S
C174 C172 1.403 . S
C174 H195 0.929 . S
C175 C176 1.430 . S
C175 C177 1.387 . S
C175 C181 1.404 . S
C176 C169 1.448 . S
C176 C175 1.430 . S
C176 N180 1.351 . S
C177 C175 1.387 . S
C177 C178 1.374 . S
C177 H192 0.931 . S
C178 C172 1.439 . S
C178 C177 1.374 . S
C178 H193 0.931 . S
Eu179 N170 2.600 . S
Eu179 N180 2.562 . S
Eu179 O214 2.335 . S
Eu179 O217 2.372 . S
Eu179 O218 2.462 . S
Eu179 O219 2.373 . S
Eu179 O221 2.432 . S
Eu179 O222 2.291 . S
Eu179 C243 2.787 . S
N180 C176 1.351 . S
N180 Eu179 2.562 . S
N180 C182 1.325 . S
C181 C175 1.404 . S
C181 C183 1.366 . S
C181 H189 0.930 . S
C182 N180 1.325 . S
C182 C183 1.416 . S
C182 H188 0.929 . S
C183 C181 1.366 . S
C183 C182 1.416 . S
C183 H185 0.930 . S
H184 C173 0.930 . S
H185 C183 0.930 . S
H186 C201 0.930 . S
H187 C208 0.930 1_545 S
H188 C182 0.929 . S
H189 C181 0.930 . S
H190 C204 0.929 . S
H191 C171 0.931 . S
H192 C177 0.931 . S
H193 C178 0.931 . S
H194 C199 0.931 . S
H195 C174 0.929 . S
H196 C207 0.930 1_545 S
N197 Eu168 2.600 . S
N197 C198 1.365 . S
N197 C201 1.319 . S
C198 N197 1.365 . S
C198 C200 1.405 . S
C198 C206 1.448 . S
C199 H194 0.931 . S
C199 C201 1.397 . S
C199 C202 1.367 . S
C200 C198 1.405 . S
C200 C202 1.403 . S
C200 C233 1.439 . S
C201 H186 0.930 . S
C201 N197 1.319 . S
C201 C199 1.397 . S
C202 C199 1.367 . S
C202 C200 1.403 . S
C202 H209 0.929 . S
N203 Eu168 2.562 . S
N203 C204 1.325 . S
N203 C206 1.351 . S
C204 H190 0.929 . S
C204 N203 1.325 . S
C204 C208 1.416 . S
C205 C206 1.430 . S
C205 C207 1.404 . S
C205 C234 1.387 . S
C206 C198 1.448 . S
C206 N203 1.351 . S
C206 C205 1.430 . S
C207 H196 0.930 1_565 S
C207 C205 1.404 . S
C207 C208 1.366 . S
C208 H187 0.930 1_565 S
C208 C204 1.416 . S
C208 C207 1.366 . S
H209 C202 0.929 . S
H210 C233 0.931 . S
H211 C234 0.931 . S
O212 Eu168 2.462 . S
O212 C232 1.252 . S
O213 Eu168 2.373 . S
O213 C224 1.249 . S
O214 Eu179 2.335 . S
O214 C224 1.264 . S
O215 Eu168 2.432 . S
O215 C232 1.268 . S
O216 Eu168 2.291 . S
O216 C231 1.255 . S
O217 Eu179 2.372 . S
O217 C231 1.257 . S
O218 Eu179 2.462 . S
O218 C243 1.252 . S
O219 Eu179 2.373 . S
O219 C235 1.249 . S
O220 Eu168 2.335 . S
O220 C235 1.264 . S
O221 Eu179 2.432 . S
O221 C243 1.268 . S
O222 Eu179 2.291 . S
O222 C242 1.255 . S
O223 Eu168 2.372 . S
O223 C242 1.257 . S
C224 O213 1.249 . S
C224 O214 1.264 . S
C225 C228 1.382 . S
C225 C230 1.390 . S
C225 C232 1.506 . S
C226 C227 1.398 . S
C226 C230 1.392 . S
C227 C226 1.398 . S
C227 C229 1.372 . S
C227 H244 0.931 . S
C228 C225 1.382 . S
C228 C229 1.390 . S
C228 H245 0.931 . S
C229 C227 1.372 . S
C229 C228 1.390 . S
C229 H246 0.929 . S
C230 C225 1.390 . S
C230 C226 1.392 . S
C230 H247 0.930 . S
C231 O216 1.255 . S
C231 O217 1.257 . S
C232 Eu168 2.787 . S
C232 O212 1.252 . S
C232 O215 1.268 . S
C232 C225 1.506 . S
C233 C200 1.439 . S
C233 H210 0.931 . S
C233 C234 1.374 . S
C234 C205 1.387 . S
C234 H211 0.931 . S
C234 C233 1.374 . S
C235 O219 1.249 . S
C235 O220 1.264 . S
C236 C239 1.382 . S
C236 C240 1.390 . S
C236 C243 1.506 . S
C237 C238 1.398 . S
C237 C240 1.392 . S
C238 C237 1.398 . S
C238 C241 1.372 . S
C238 H248 0.931 . S
C239 C236 1.382 . S
C239 C241 1.390 . S
C239 H249 0.931 . S
C240 C236 1.390 . S
C240 C237 1.392 . S
C240 H250 0.930 . S
C241 C238 1.372 . S
C241 C239 1.390 . S
C241 H251 0.929 . S
C242 O222 1.255 . S
C242 O223 1.257 . S
C243 Eu179 2.787 . S
C243 O218 1.252 . S
C243 O221 1.268 . S
C243 C236 1.506 . S
H244 C227 0.931 . S
H245 C228 0.931 . S
H246 C229 0.929 . S
H247 C230 0.930 . S
H248 C238 0.931 . S
H249 C239 0.931 . S
H250 C240 0.930 . S
H251 C241 0.929 . S
Eu252 N281 2.600 1_556 S
Eu252 N287 2.562 1_556 S
Eu252 O296 2.462 . S
Eu252 O297 2.373 1_556 S
Eu252 O299 2.432 . S
Eu252 O300 2.291 1_556 S
Eu252 O304 2.335 . S
Eu252 O307 2.372 . S
Eu252 C316 2.787 . S
C253 N254 1.365 . S
C253 C256 1.405 . S
C253 C260 1.448 . S
N254 C253 1.365 . S
N254 C257 1.319 . S
N254 Eu263 2.600 . S
C255 C257 1.397 . S
C255 C258 1.367 . S
C255 H275 0.931 . S
C256 C253 1.405 . S
C256 C258 1.403 . S
C256 C262 1.439 . S
C257 N254 1.319 . S
C257 C255 1.397 . S
C257 H268 0.930 . S
C258 C255 1.367 . S
C258 C256 1.403 . S
C258 H279 0.929 . S
C259 C260 1.430 . S
C259 C261 1.387 . S
C259 C265 1.406 1_554 S
C260 C253 1.448 . S
C260 C259 1.430 . S
C260 N264 1.351 . S
C261 C259 1.387 . S
C261 C262 1.374 . S
C261 H276 0.931 1_554 S
C262 C256 1.439 . S
C262 C261 1.374 . S
C262 H277 0.931 . S
Eu263 N254 2.600 . S
Eu263 N264 2.562 . S
Eu263 O298 2.335 . S
Eu263 O301 2.372 . S
Eu263 O302 2.462 . S
Eu263 O303 2.373 1_554 S
Eu263 O305 2.432 . S
Eu263 O306 2.291 . S
Eu263 C327 2.787 . S
N264 C260 1.351 . S
N264 Eu263 2.562 . S
N264 C266 1.325 . S
C265 C259 1.406 1_556 S
C265 C267 1.366 1_556 S
C265 H273 0.928 . S
C266 N264 1.325 . S
C266 C267 1.416 . S
C266 H272 0.929 . S
C267 C265 1.366 1_554 S
C267 C266 1.416 . S
C267 H269 0.922 1_554 S
H268 C257 0.930 . S
H269 C267 0.922 1_556 S
H270 C285 0.930 . S
H271 C292 0.930 . S
H272 C266 0.929 . S
H273 C265 0.928 . S
H274 C288 0.929 . S
H275 C255 0.931 . S
H276 C261 0.931 1_556 S
H277 C262 0.931 . S
H278 C283 0.931 . S
H279 C258 0.929 . S
H280 C291 0.930 . S
N281 Eu252 2.600 1_554 S
N281 C282 1.367 . S
N281 C285 1.318 1_554 S
C282 N281 1.367 . S
C282 C284 1.405 . S
C282 C290 1.448 . S
C283 H278 0.931 . S
C283 C285 1.397 1_455 S
C283 C286 1.367 1_556 S
C284 C282 1.405 . S
C284 C286 1.403 1_655 S
C284 C317 1.439 1_655 S
C285 H270 0.930 . S
C285 N281 1.318 1_556 S
C285 C283 1.397 1_655 S
C286 C283 1.367 1_554 S
C286 C284 1.403 1_455 S
C286 H293 0.929 . S
N287 Eu252 2.562 1_554 S
N287 C288 1.325 . S
N287 C290 1.351 . S
C288 H274 0.929 . S
C288 N287 1.325 . S
C288 C292 1.416 . S
C289 C290 1.430 . S
C289 C291 1.404 . S
C289 C318 1.387 . S
C290 C282 1.448 . S
C290 N287 1.351 . S
C290 C289 1.430 . S
C291 H280 0.930 . S
C291 C289 1.404 . S
C291 C292 1.366 . S
C292 H271 0.930 . S
C292 C288 1.416 . S
C292 C291 1.366 . S
H293 C286 0.929 . S
H294 C317 0.931 . S
H295 C318 0.931 . S
O296 Eu252 2.462 . S
O296 C316 1.252 . S
O297 Eu252 2.373 1_554 S
O297 C308 1.249 . S
O298 Eu263 2.335 . S
O298 C308 1.264 . S
O299 Eu252 2.432 . S
O299 C316 1.268 . S
O300 Eu252 2.291 1_554 S
O300 C315 1.255 . S
O301 Eu263 2.372 . S
O301 C315 1.257 . S
O302 Eu263 2.462 . S
O302 C327 1.252 . S
O303 Eu263 2.373 1_556 S
O303 C319 1.249 . S
O304 Eu252 2.335 . S
O304 C319 1.264 . S
O305 Eu263 2.432 . S
O305 C327 1.268 . S
O306 Eu263 2.291 . S
O306 C326 1.255 . S
O307 Eu252 2.372 . S
O307 C326 1.257 1_556 S
C308 O297 1.249 . S
C308 O298 1.264 . S
C309 C312 1.382 . S
C309 C314 1.390 . S
C309 C316 1.506 . S
C310 C311 1.398 . S
C310 C314 1.392 . S
C311 C310 1.398 . S
C311 C313 1.372 . S
C311 H328 0.931 . S
C312 C309 1.382 . S
C312 C313 1.390 . S
C312 H329 0.931 . S
C313 C311 1.372 . S
C313 C312 1.390 . S
C313 H330 0.929 . S
C314 C309 1.390 . S
C314 C310 1.392 . S
C314 H331 0.930 . S
C315 O300 1.255 . S
C315 O301 1.257 . S
C316 Eu252 2.787 . S
C316 O296 1.252 . S
C316 O299 1.268 . S
C316 C309 1.506 . S
C317 C284 1.439 1_455 S
C317 H294 0.931 . S
C317 C318 1.374 1_455 S
C318 C289 1.387 . S
C318 H295 0.931 . S
C318 C317 1.374 1_655 S
C319 O303 1.249 . S
C319 O304 1.264 . S
C320 C323 1.382 . S
C320 C324 1.390 . S
C320 C327 1.506 . S
C321 C322 1.398 . S
C321 C324 1.392 . S
C322 C321 1.398 . S
C322 C325 1.372 . S
C322 H332 0.931 . S
C323 C320 1.382 . S
C323 C325 1.390 . S
C323 H333 0.931 . S
C324 C320 1.390 . S
C324 C321 1.392 . S
C324 H334 0.930 . S
C325 C322 1.372 . S
C325 C323 1.390 . S
C325 H335 0.929 . S
C326 O306 1.255 . S
C326 O307 1.257 1_554 S
C327 Eu263 2.787 . S
C327 O302 1.252 . S
C327 O305 1.268 . S
C327 C320 1.506 . S
H328 C311 0.931 . S
H329 C312 0.931 . S
H330 C313 0.929 . S
H331 C314 0.930 . S
H332 C322 0.931 . S
H333 C323 0.931 . S
H334 C324 0.930 . S
H335 C325 0.929 . S
Eu336 N365 2.600 . S
Eu336 N371 2.562 . S
Eu336 O380 2.462 . S
Eu336 O381 2.373 . S
Eu336 O383 2.432 . S
Eu336 O384 2.291 . S
Eu336 O388 2.335 . S
Eu336 O391 2.372 . S
Eu336 C400 2.787 . S
C337 N338 1.365 . S
C337 C340 1.405 . S
C337 C344 1.448 . S
N338 C337 1.365 . S
N338 C341 1.319 . S
N338 Eu347 2.600 . S
C339 C341 1.397 . S
C339 C342 1.367 . S
C339 H359 0.931 . S
C340 C337 1.405 . S
C340 C342 1.403 . S
C340 C346 1.439 . S
C341 N338 1.319 . S
C341 C339 1.397 . S
C341 H352 0.930 . S
C342 C339 1.367 . S
C342 C340 1.403 . S
C342 H363 0.929 . S
C343 C344 1.430 . S
C343 C345 1.387 . S
C343 C349 1.404 . S
C344 C337 1.448 . S
C344 C343 1.430 . S
C344 N348 1.351 . S
C345 C343 1.387 . S
C345 C346 1.374 . S
C345 H360 0.931 . S
C346 C340 1.439 . S
C346 C345 1.374 . S
C346 H361 0.931 . S
Eu347 N338 2.600 . S
Eu347 N348 2.562 . S
Eu347 O382 2.335 . S
Eu347 O385 2.372 . S
Eu347 O386 2.462 . S
Eu347 O387 2.373 . S
Eu347 O389 2.432 . S
Eu347 O390 2.291 . S
Eu347 C411 2.787 . S
N348 C344 1.351 . S
N348 Eu347 2.562 . S
N348 C350 1.325 . S
C349 C343 1.404 . S
C349 C351 1.366 . S
C349 H357 0.930 . S
C350 N348 1.325 . S
C350 C351 1.416 . S
C350 H356 0.929 . S
C351 C349 1.366 . S
C351 C350 1.416 . S
C351 H353 0.930 . S
H352 C341 0.930 . S
H353 C351 0.930 . S
H354 C369 0.930 . S
H355 C376 0.930 1_655 S
H356 C350 0.929 . S
H357 C349 0.930 . S
H358 C372 0.929 . S
H359 C339 0.931 . S
H360 C345 0.931 . S
H361 C346 0.931 . S
H362 C367 0.931 . S
H363 C342 0.929 . S
H364 C375 0.930 1_655 S
N365 Eu336 2.600 . S
N365 C366 1.365 . S
N365 C369 1.319 . S
C366 N365 1.365 . S
C366 C368 1.405 . S
C366 C374 1.448 . S
C367 H362 0.931 . S
C367 C369 1.397 1_545 S
C367 C370 1.367 . S
C368 C366 1.405 . S
C368 C370 1.403 1_565 S
C368 C401 1.439 1_565 S
C369 H354 0.930 . S
C369 N365 1.319 . S
C369 C367 1.397 1_565 S
C370 C367 1.367 . S
C370 C368 1.403 1_545 S
C370 H377 0.929 . S
N371 Eu336 2.562 . S
N371 C372 1.325 . S
N371 C374 1.351 . S
C372 H358 0.929 . S
C372 N371 1.325 . S
C372 C376 1.416 . S
C373 C374 1.430 . S
C373 C375 1.404 . S
C373 C402 1.387 . S
C374 C366 1.448 . S
C374 N371 1.351 . S
C374 C373 1.430 . S
C375 H364 0.930 1_455 S
C375 C373 1.404 . S
C375 C376 1.366 . S
C376 H355 0.930 1_455 S
C376 C372 1.416 . S
C376 C375 1.366 . S
H377 C370 0.929 . S
H378 C401 0.931 . S
H379 C402 0.931 . S
O380 Eu336 2.462 . S
O380 C400 1.252 . S
O381 Eu336 2.373 . S
O381 C392 1.249 . S
O382 Eu347 2.335 . S
O382 C392 1.264 . S
O383 Eu336 2.432 . S
O383 C400 1.268 . S
O384 Eu336 2.291 . S
O384 C399 1.255 . S
O385 Eu347 2.372 . S
O385 C399 1.257 . S
O386 Eu347 2.462 . S
O386 C411 1.252 . S
O387 Eu347 2.373 . S
O387 C403 1.249 . S
O388 Eu336 2.335 . S
O388 C403 1.264 . S
O389 Eu347 2.432 . S
O389 C411 1.268 . S
O390 Eu347 2.291 . S
O390 C410 1.255 . S
O391 Eu336 2.372 . S
O391 C410 1.257 . S
C392 O381 1.249 . S
C392 O382 1.264 . S
C393 C396 1.382 . S
C393 C398 1.390 . S
C393 C400 1.506 . S
C394 C395 1.398 . S
C394 C398 1.392 . S
C395 C394 1.398 . S
C395 C397 1.372 . S
C395 H412 0.931 . S
C396 C393 1.382 . S
C396 C397 1.390 . S
C396 H413 0.931 . S
C397 C395 1.372 . S
C397 C396 1.390 . S
C397 H414 0.929 . S
C398 C393 1.390 . S
C398 C394 1.392 . S
C398 H415 0.930 . S
C399 O384 1.255 . S
C399 O385 1.257 . S
C400 Eu336 2.787 . S
C400 O380 1.252 . S
C400 O383 1.268 . S
C400 C393 1.506 . S
C401 C368 1.439 1_545 S
C401 H378 0.931 . S
C401 C402 1.374 1_545 S
C402 C373 1.387 . S
C402 H379 0.931 . S
C402 C401 1.374 1_565 S
C403 O387 1.249 . S
C403 O388 1.264 . S
C404 C407 1.382 . S
C404 C408 1.390 . S
C404 C411 1.506 . S
C405 C406 1.398 . S
C405 C408 1.392 . S
C406 C405 1.398 . S
C406 C409 1.372 . S
C406 H416 0.931 . S
C407 C404 1.382 . S
C407 C409 1.390 . S
C407 H417 0.931 . S
C408 C404 1.390 . S
C408 C405 1.392 . S
C408 H418 0.930 . S
C409 C406 1.372 . S
C409 C407 1.390 . S
C409 H419 0.929 . S
C410 O390 1.255 . S
C410 O391 1.257 . S
C411 Eu347 2.787 . S
C411 O386 1.252 . S
C411 O389 1.268 . S
C411 C404 1.506 . S
H412 C395 0.931 . S
H413 C396 0.931 . S
H414 C397 0.929 . S
H415 C398 0.930 . S
H416 C406 0.931 . S
H417 C407 0.931 . S
H418 C408 0.930 . S
H419 C409 0.929 . S
Eu420 N449 2.600 . S
Eu420 N455 2.562 . S
Eu420 O464 2.462 . S
Eu420 O465 2.373 . S
Eu420 O467 2.432 . S
Eu420 O468 2.291 . S
Eu420 O472 2.335 . S
Eu420 O475 2.372 . S
Eu420 C484 2.787 . S
C421 N422 1.365 . S
C421 C424 1.405 . S
C421 C428 1.448 . S
N422 C421 1.365 . S
N422 C425 1.319 . S
N422 Eu431 2.600 . S
C423 C425 1.397 . S
C423 C426 1.367 . S
C423 H443 0.931 . S
C424 C421 1.405 . S
C424 C426 1.403 . S
C424 C430 1.439 . S
C425 N422 1.319 . S
C425 C423 1.397 . S
C425 H436 0.930 . S
C426 C423 1.367 . S
C426 C424 1.403 . S
C426 H447 0.929 . S
C427 C428 1.430 . S
C427 C429 1.387 . S
C427 C433 1.404 . S
C428 C421 1.448 . S
C428 C427 1.430 . S
C428 N432 1.351 . S
C429 C427 1.387 . S
C429 C430 1.374 . S
C429 H444 0.931 . S
C430 C424 1.439 . S
C430 C429 1.374 . S
C430 H445 0.931 . S
Eu431 N422 2.600 . S
Eu431 N432 2.562 . S
Eu431 O466 2.335 . S
Eu431 O469 2.372 . S
Eu431 O470 2.462 . S
Eu431 O471 2.373 . S
Eu431 O473 2.432 . S
Eu431 O474 2.291 . S
Eu431 C495 2.787 . S
N432 C428 1.351 . S
N432 Eu431 2.562 . S
N432 C434 1.325 . S
C433 C427 1.404 . S
C433 C435 1.366 . S
C433 H441 0.930 . S
C434 N432 1.325 . S
C434 C435 1.416 . S
C434 H440 0.929 . S
C435 C433 1.366 . S
C435 C434 1.416 . S
C435 H437 0.930 . S
H436 C425 0.930 . S
H437 C435 0.930 . S
H438 C453 0.930 . S
H439 C460 0.930 1_565 S
H440 C434 0.929 . S
H441 C433 0.930 . S
H442 C456 0.929 . S
H443 C423 0.931 . S
H444 C429 0.931 . S
H445 C430 0.931 . S
H446 C451 0.931 . S
H447 C426 0.929 . S
H448 C459 0.930 1_565 S
N449 Eu420 2.600 . S
N449 C450 1.365 . S
N449 C453 1.319 . S
C450 N449 1.365 . S
C450 C452 1.405 . S
C450 C458 1.448 . S
C451 H446 0.931 . S
C451 C453 1.397 . S
C451 C454 1.367 . S
C452 C450 1.405 . S
C452 C454 1.403 . S
C452 C485 1.439 . S
C453 H438 0.930 . S
C453 N449 1.319 . S
C453 C451 1.397 . S
C454 C451 1.367 . S
C454 C452 1.403 . S
C454 H461 0.929 . S
N455 Eu420 2.562 . S
N455 C456 1.325 . S
N455 C458 1.351 . S
C456 H442 0.929 . S
C456 N455 1.325 . S
C456 C460 1.416 . S
C457 C458 1.430 . S
C457 C459 1.404 . S
C457 C486 1.387 . S
C458 C450 1.448 . S
C458 N455 1.351 . S
C458 C457 1.430 . S
C459 H448 0.930 1_545 S
C459 C457 1.404 . S
C459 C460 1.366 . S
C460 H439 0.930 1_545 S
C460 C456 1.416 . S
C460 C459 1.366 . S
H461 C454 0.929 . S
H462 C485 0.931 . S
H463 C486 0.931 . S
O464 Eu420 2.462 . S
O464 C484 1.252 . S
O465 Eu420 2.373 . S
O465 C476 1.249 . S
O466 Eu431 2.335 . S
O466 C476 1.264 . S
O467 Eu420 2.432 . S
O467 C484 1.268 . S
O468 Eu420 2.291 . S
O468 C483 1.255 . S
O469 Eu431 2.372 . S
O469 C483 1.257 . S
O470 Eu431 2.462 . S
O470 C495 1.252 . S
O471 Eu431 2.373 . S
O471 C487 1.249 . S
O472 Eu420 2.335 . S
O472 C487 1.264 . S
O473 Eu431 2.432 . S
O473 C495 1.268 . S
O474 Eu431 2.291 . S
O474 C494 1.255 . S
O475 Eu420 2.372 . S
O475 C494 1.257 . S
C476 O465 1.249 . S
C476 O466 1.264 . S
C477 C480 1.382 . S
C477 C482 1.390 . S
C477 C484 1.506 . S
C478 C479 1.398 . S
C478 C482 1.392 . S
C479 C478 1.398 . S
C479 C481 1.372 . S
C479 H496 0.931 . S
C480 C477 1.382 . S
C480 C481 1.390 . S
C480 H497 0.931 . S
C481 C479 1.372 . S
C481 C480 1.390 . S
C481 H498 0.929 . S
C482 C477 1.390 . S
C482 C478 1.392 . S
C482 H499 0.930 . S
C483 O468 1.255 . S
C483 O469 1.257 . S
C484 Eu420 2.787 . S
C484 O464 1.252 . S
C484 O467 1.268 . S
C484 C477 1.506 . S
C485 C452 1.439 . S
C485 H462 0.931 . S
C485 C486 1.374 . S
C486 C457 1.387 . S
C486 H463 0.931 . S
C486 C485 1.374 . S
C487 O471 1.249 . S
C487 O472 1.264 . S
C488 C491 1.382 . S
C488 C492 1.390 . S
C488 C495 1.506 . S
C489 C490 1.398 . S
C489 C492 1.392 . S
C490 C489 1.398 . S
C490 C493 1.372 . S
C490 H500 0.931 . S
C491 C488 1.382 . S
C491 C493 1.390 . S
C491 H501 0.931 . S
C492 C488 1.390 . S
C492 C489 1.392 . S
C492 H502 0.930 . S
C493 C490 1.372 . S
C493 C491 1.390 . S
C493 H503 0.929 . S
C494 O474 1.255 . S
C494 O475 1.257 . S
C495 Eu431 2.787 . S
C495 O470 1.252 . S
C495 O473 1.268 . S
C495 C488 1.506 . S
H496 C479 0.931 . S
H497 C480 0.931 . S
H498 C481 0.929 . S
H499 C482 0.930 . S
H500 C490 0.931 . S
H501 C491 0.931 . S
H502 C492 0.930 . S
H503 C493 0.929 . S
C504 C505 1.391 . S
C504 C506 1.394 . S
C504 H520 0.931 . S
C505 C504 1.391 . S
C505 C509 1.376 . S
C506 C504 1.394 . S
C506 C507 1.369 . S
C506 C510 1.531 . S
C507 C506 1.369 . S
C507 C508 1.410 . S
C507 C515 1.503 . S
C508 C507 1.410 . S
C508 C509 1.392 . S
C508 C511 1.511 . S
C509 C505 1.376 . S
C509 C508 1.392 . S
C509 H521 0.929 . S
C510 C506 1.531 . S
C510 H522 0.960 . S
C510 H523 0.962 . S
C510 H524 0.960 . S
C511 C508 1.511 . S
C511 H525 0.961 . S
C511 H526 0.961 . S
C511 H527 0.961 . S
C512 C513 1.370 . S
C512 C514 1.363 . S
C512 H528 0.931 . S
C513 C512 1.370 . S
C513 C517 1.408 . S
C514 C512 1.363 . S
C514 C515 1.370 . S
C514 C518 1.524 . S
C515 C507 1.503 . S
C515 C514 1.370 . S
C515 C516 1.403 . S
C516 C515 1.403 . S
C516 C517 1.404 . S
C516 C519 1.539 . S
C517 C513 1.408 . S
C517 C516 1.404 . S
C517 H529 0.930 . S
C518 C514 1.524 . S
C518 H530 0.956 . S
C518 H531 0.961 . S
C518 H532 0.961 . S
C519 C516 1.539 . S
C519 H533 0.958 . S
C519 H534 0.961 . S
C519 H535 0.960 . S
H520 C504 0.931 . S
H521 C509 0.929 . S
H522 C510 0.960 . S
H523 C510 0.962 . S
H524 C510 0.960 . S
H525 C511 0.961 . S
H526 C511 0.961 . S
H527 C511 0.961 . S
H528 C512 0.931 . S
H529 C517 0.930 . S
H530 C518 0.956 . S
H531 C518 0.961 . S
H532 C518 0.961 . S
H533 C519 0.958 . S
H534 C519 0.961 . S
H535 C519 0.960 . S
C536 C537 1.391 . S
C536 C538 1.394 . S
C536 H552 0.931 . S
C537 C536 1.391 . S
C537 C541 1.376 . S
C538 C536 1.394 . S
C538 C539 1.369 . S
C538 C542 1.531 . S
C539 C538 1.369 . S
C539 C540 1.410 . S
C539 C547 1.503 . S
C540 C539 1.410 . S
C540 C541 1.392 . S
C540 C543 1.511 . S
C541 C537 1.376 . S
C541 C540 1.392 . S
C541 H553 0.929 . S
C542 C538 1.531 . S
C542 H554 0.960 . S
C542 H555 0.962 . S
C542 H556 0.960 . S
C543 C540 1.511 . S
C543 H557 0.961 . S
C543 H558 0.961 . S
C543 H559 0.961 . S
C544 C545 1.370 . S
C544 C546 1.363 . S
C544 H560 0.931 . S
C545 C544 1.370 . S
C545 C549 1.408 . S
C546 C544 1.363 . S
C546 C547 1.370 . S
C546 C550 1.524 . S
C547 C539 1.503 . S
C547 C546 1.370 . S
C547 C548 1.403 . S
C548 C547 1.403 . S
C548 C549 1.404 . S
C548 C551 1.539 . S
C549 C545 1.408 . S
C549 C548 1.404 . S
C549 H561 0.930 . S
C550 C546 1.524 . S
C550 H562 0.956 . S
C550 H563 0.961 . S
C550 H564 0.961 . S
C551 C548 1.539 . S
C551 H565 0.958 . S
C551 H566 0.961 . S
C551 H567 0.960 . S
H552 C536 0.931 . S
H553 C541 0.929 . S
H554 C542 0.960 . S
H555 C542 0.962 . S
H556 C542 0.960 . S
H557 C543 0.961 . S
H558 C543 0.961 . S
H559 C543 0.961 . S
H560 C544 0.931 . S
H561 C549 0.930 . S
H562 C550 0.956 . S
H563 C550 0.961 . S
H564 C550 0.961 . S
H565 C551 0.958 . S
H566 C551 0.961 . S
H567 C551 0.960 . S
C568 C569 1.391 . S
C568 C570 1.394 . S
C568 H584 0.931 . S
C569 C568 1.391 . S
C569 C573 1.376 . S
C570 C568 1.394 . S
C570 C571 1.369 . S
C570 C574 1.531 . S
C571 C570 1.369 . S
C571 C572 1.410 . S
C571 C579 1.503 . S
C572 C571 1.410 . S
C572 C573 1.392 . S
C572 C575 1.511 . S
C573 C569 1.376 . S
C573 C572 1.392 . S
C573 H585 0.929 . S
C574 C570 1.531 . S
C574 H586 0.960 . S
C574 H587 0.962 . S
C574 H588 0.960 . S
C575 C572 1.511 . S
C575 H589 0.961 . S
C575 H590 0.961 . S
C575 H591 0.961 . S
C576 C577 1.370 . S
C576 C578 1.363 . S
C576 H592 0.931 . S
C577 C576 1.370 . S
C577 C581 1.408 . S
C578 C576 1.363 . S
C578 C579 1.370 . S
C578 C582 1.524 . S
C579 C571 1.503 . S
C579 C578 1.370 . S
C579 C580 1.403 . S
C580 C579 1.403 . S
C580 C581 1.404 . S
C580 C583 1.539 . S
C581 C577 1.408 . S
C581 C580 1.404 . S
C581 H593 0.930 . S
C582 C578 1.524 . S
C582 H594 0.956 . S
C582 H595 0.961 . S
C582 H596 0.961 . S
C583 C580 1.539 . S
C583 H597 0.958 . S
C583 H598 0.961 . S
C583 H599 0.960 . S
H584 C568 0.931 . S
H585 C573 0.929 . S
H586 C574 0.960 . S
H587 C574 0.962 . S
H588 C574 0.960 . S
H589 C575 0.961 . S
H590 C575 0.961 . S
H591 C575 0.961 . S
H592 C576 0.931 . S
H593 C581 0.930 . S
H594 C582 0.956 . S
H595 C582 0.961 . S
H596 C582 0.961 . S
H597 C583 0.958 . S
H598 C583 0.961 . S
H599 C583 0.960 . S
C600 C601 1.391 . S
C600 C602 1.394 . S
C600 H616 0.931 . S
C601 C600 1.391 . S
C601 C605 1.376 . S
C602 C600 1.394 . S
C602 C603 1.369 . S
C602 C606 1.531 . S
C603 C602 1.369 . S
C603 C604 1.410 . S
C603 C611 1.503 . S
C604 C603 1.410 . S
C604 C605 1.392 . S
C604 C607 1.511 . S
C605 C601 1.376 . S
C605 C604 1.392 . S
C605 H617 0.929 . S
C606 C602 1.531 . S
C606 H618 0.960 . S
C606 H619 0.962 . S
C606 H620 0.960 . S
C607 C604 1.511 . S
C607 H621 0.961 . S
C607 H622 0.961 . S
C607 H623 0.961 . S
C608 C609 1.370 . S
C608 C610 1.363 . S
C608 H624 0.931 . S
C609 C608 1.370 . S
C609 C613 1.408 . S
C610 C608 1.363 . S
C610 C611 1.370 . S
C610 C614 1.524 . S
C611 C603 1.503 . S
C611 C610 1.370 . S
C611 C612 1.403 . S
C612 C611 1.403 . S
C612 C613 1.404 . S
C612 C615 1.539 . S
C613 C609 1.408 . S
C613 C612 1.404 . S
C613 H625 0.930 . S
C614 C610 1.524 . S
C614 H626 0.956 . S
C614 H627 0.961 . S
C614 H628 0.961 . S
C615 C612 1.539 . S
C615 H629 0.958 . S
C615 H630 0.961 . S
C615 H631 0.960 . S
H616 C600 0.931 . S
H617 C605 0.929 . S
H618 C606 0.960 . S
H619 C606 0.962 . S
H620 C606 0.960 . S
H621 C607 0.961 . S
H622 C607 0.961 . S
H623 C607 0.961 . S
H624 C608 0.931 . S
H625 C613 0.930 . S
H626 C614 0.956 . S
H627 C614 0.961 . S
H628 C614 0.961 . S
H629 C615 0.958 . S
H630 C615 0.961 . S
H631 C615 0.960 . S
C632 C633 1.391 . S
C632 C634 1.394 . S
C632 H648 0.931 . S
C633 C632 1.391 . S
C633 C637 1.376 . S
C634 C632 1.394 . S
C634 C635 1.369 . S
C634 C638 1.531 . S
C635 C634 1.369 . S
C635 C636 1.410 . S
C635 C643 1.503 . S
C636 C635 1.410 . S
C636 C637 1.392 . S
C636 C639 1.511 . S
C637 C633 1.376 . S
C637 C636 1.392 . S
C637 H649 0.929 . S
C638 C634 1.531 . S
C638 H650 0.960 . S
C638 H651 0.962 . S
C638 H652 0.960 . S
C639 C636 1.511 . S
C639 H653 0.961 . S
C639 H654 0.961 . S
C639 H655 0.961 . S
C640 C641 1.370 . S
C640 C642 1.363 . S
C640 H656 0.931 . S
C641 C640 1.370 . S
C641 C645 1.408 . S
C642 C640 1.363 . S
C642 C643 1.370 . S
C642 C646 1.524 . S
C643 C635 1.503 . S
C643 C642 1.370 . S
C643 C644 1.403 . S
C644 C643 1.403 . S
C644 C645 1.404 . S
C644 C647 1.539 . S
C645 C641 1.408 . S
C645 C644 1.404 . S
C645 H657 0.930 . S
C646 C642 1.524 . S
C646 H658 0.956 . S
C646 H659 0.961 . S
C646 H660 0.961 . S
C647 C644 1.539 . S
C647 H661 0.958 . S
C647 H662 0.961 . S
C647 H663 0.960 . S
H648 C632 0.931 . S
H649 C637 0.929 . S
H650 C638 0.960 . S
H651 C638 0.962 . S
H652 C638 0.960 . S
H653 C639 0.961 . S
H654 C639 0.961 . S
H655 C639 0.961 . S
H656 C640 0.931 . S
H657 C645 0.930 . S
H658 C646 0.956 . S
H659 C646 0.961 . S
H660 C646 0.961 . S
H661 C647 0.958 . S
H662 C647 0.961 . S
H663 C647 0.960 . S
C664 C665 1.391 . S
C664 C666 1.394 . S
C664 H680 0.931 . S
C665 C664 1.391 . S
C665 C669 1.376 . S
C666 C664 1.394 . S
C666 C667 1.369 . S
C666 C670 1.531 . S
C667 C666 1.369 . S
C667 C668 1.410 . S
C667 C675 1.503 . S
C668 C667 1.410 . S
C668 C669 1.392 . S
C668 C671 1.511 . S
C669 C665 1.376 . S
C669 C668 1.392 . S
C669 H681 0.929 . S
C670 C666 1.531 . S
C670 H682 0.960 . S
C670 H683 0.962 . S
C670 H684 0.960 . S
C671 C668 1.511 . S
C671 H685 0.961 . S
C671 H686 0.961 . S
C671 H687 0.961 . S
C672 C673 1.370 . S
C672 C674 1.363 . S
C672 H688 0.931 . S
C673 C672 1.370 . S
C673 C677 1.408 . S
C674 C672 1.363 . S
C674 C675 1.370 . S
C674 C678 1.524 . S
C675 C667 1.503 . S
C675 C674 1.370 . S
C675 C676 1.403 . S
C676 C675 1.403 . S
C676 C677 1.404 . S
C676 C679 1.539 . S
C677 C673 1.408 . S
C677 C676 1.404 . S
C677 H689 0.930 . S
C678 C674 1.524 . S
C678 H690 0.956 . S
C678 H691 0.961 . S
C678 H692 0.961 . S
C679 C676 1.539 . S
C679 H693 0.958 . S
C679 H694 0.961 . S
C679 H695 0.960 . S
H680 C664 0.931 . S
H681 C669 0.929 . S
H682 C670 0.960 . S
H683 C670 0.962 . S
H684 C670 0.960 . S
H685 C671 0.961 . S
H686 C671 0.961 . S
H687 C671 0.961 . S
H688 C672 0.931 . S
H689 C677 0.930 . S
H690 C678 0.956 . S
H691 C678 0.961 . S
H692 C678 0.961 . S
H693 C679 0.958 . S
H694 C679 0.961 . S
H695 C679 0.960 . S
C696 C697 1.391 . S
C696 C698 1.394 . S
C696 H712 0.931 1_554 S
C697 C696 1.391 . S
C697 C701 1.376 . S
C698 C696 1.394 . S
C698 C699 1.369 . S
C698 C702 1.531 1_554 S
C699 C698 1.369 . S
C699 C700 1.410 . S
C699 C707 1.503 . S
C700 C699 1.410 . S
C700 C701 1.392 . S
C700 C703 1.511 . S
C701 C697 1.376 . S
C701 C700 1.392 . S
C701 H713 0.929 . S
C702 C698 1.531 1_556 S
C702 H714 0.960 . S
C702 H715 0.962 . S
C702 H716 0.960 . S
C703 C700 1.511 . S
C703 H717 0.961 . S
C703 H718 0.961 . S
C703 H719 0.961 . S
C704 C705 1.370 . S
C704 C706 1.363 . S
C704 H720 0.931 . S
C705 C704 1.370 . S
C705 C709 1.408 . S
C706 C704 1.363 . S
C706 C707 1.370 . S
C706 C710 1.524 . S
C707 C699 1.503 . S
C707 C706 1.370 . S
C707 C708 1.403 . S
C708 C707 1.403 . S
C708 C709 1.404 . S
C708 C711 1.539 . S
C709 C705 1.408 . S
C709 C708 1.404 . S
C709 H721 0.930 . S
C710 C706 1.524 . S
C710 H722 0.956 . S
C710 H723 0.961 . S
C710 H724 0.961 . S
C711 C708 1.539 . S
C711 H725 0.958 . S
C711 H726 0.961 . S
C711 H727 0.960 . S
H712 C696 0.931 1_556 S
H713 C701 0.929 . S
H714 C702 0.960 . S
H715 C702 0.962 . S
H716 C702 0.960 . S
H717 C703 0.961 . S
H718 C703 0.961 . S
H719 C703 0.961 . S
H720 C704 0.931 . S
H721 C709 0.930 . S
H722 C710 0.956 . S
H723 C710 0.961 . S
H724 C710 0.961 . S
H725 C711 0.958 . S
H726 C711 0.961 . S
H727 C711 0.960 . S
C728 C729 1.391 . S
C728 C730 1.394 1_455 S
C728 H744 0.931 1_455 S
C729 C728 1.391 . S
C729 C733 1.376 . S
C730 C728 1.394 1_655 S
C730 C731 1.369 1_655 S
C730 C734 1.531 . S
C731 C730 1.369 1_455 S
C731 C732 1.410 . S
C731 C739 1.503 1_455 S
C732 C731 1.410 . S
C732 C733 1.392 . S
C732 C735 1.511 . S
C733 C729 1.376 . S
C733 C732 1.392 . S
C733 H745 0.929 . S
C734 C730 1.531 . S
C734 H746 0.960 . S
C734 H747 0.962 . S
C734 H748 0.960 . S
C735 C732 1.511 . S
C735 H749 0.961 . S
C735 H750 0.961 . S
C735 H751 0.961 . S
C736 C737 1.370 . S
C736 C738 1.363 . S
C736 H752 0.931 . S
C737 C736 1.370 . S
C737 C741 1.408 . S
C738 C736 1.363 . S
C738 C739 1.370 . S
C738 C742 1.524 . S
C739 C731 1.503 1_655 S
C739 C738 1.370 . S
C739 C740 1.403 . S
C740 C739 1.403 . S
C740 C741 1.404 . S
C740 C743 1.539 . S
C741 C737 1.408 . S
C741 C740 1.404 . S
C741 H753 0.930 . S
C742 C738 1.524 . S
C742 H754 0.956 . S
C742 H755 0.961 1_655 S
C742 H756 0.961 . S
C743 C740 1.539 . S
C743 H757 0.958 . S
C743 H758 0.961 . S
C743 H759 0.960 1_655 S
H744 C728 0.931 1_655 S
H745 C733 0.929 . S
H746 C734 0.960 . S
H747 C734 0.962 . S
H748 C734 0.960 . S
H749 C735 0.961 . S
H750 C735 0.961 . S
H751 C735 0.961 . S
H752 C736 0.931 . S
H753 C741 0.930 . S
H754 C742 0.956 . S
H755 C742 0.961 1_455 S
H756 C742 0.961 . S
H757 C743 0.958 . S
H758 C743 0.961 . S
H759 C743 0.960 1_455 S
C760 C761 1.391 . S
C760 C762 1.394 . S
C760 H776 0.931 . S
C761 C760 1.391 . S
C761 C765 1.376 . S
C762 C760 1.394 . S
C762 C763 1.369 . S
C762 C766 1.531 1_545 S
C763 C762 1.369 . S
C763 C764 1.410 . S
C763 C771 1.503 1_545 S
C764 C763 1.410 . S
C764 C765 1.392 . S
C764 C767 1.511 . S
C765 C761 1.376 . S
C765 C764 1.392 . S
C765 H777 0.929 . S
C766 C762 1.531 1_565 S
C766 H778 0.960 . S
C766 H779 0.962 1_565 S
C766 H780 0.960 . S
C767 C764 1.511 . S
C767 H781 0.961 . S
C767 H782 0.961 . S
C767 H783 0.961 1_545 S
C768 C769 1.370 . S
C768 C770 1.363 1_565 S
C768 H784 0.931 1_565 S
C769 C768 1.370 . S
C769 C773 1.408 . S
C770 C768 1.363 1_545 S
C770 C771 1.370 1_545 S
C770 C774 1.524 . S
C771 C763 1.503 1_565 S
C771 C770 1.370 1_565 S
C771 C772 1.403 . S
C772 C771 1.403 . S
C772 C773 1.404 . S
C772 C775 1.539 . S
C773 C769 1.408 . S
C773 C772 1.404 . S
C773 H785 0.930 . S
C774 C770 1.524 . S
C774 H786 0.956 . S
C774 H787 0.961 . S
C774 H788 0.961 . S
C775 C772 1.539 . S
C775 H789 0.958 . S
C775 H790 0.961 . S
C775 H791 0.960 . S
H776 C760 0.931 . S
H777 C765 0.929 . S
H778 C766 0.960 . S
H779 C766 0.962 1_545 S
H780 C766 0.960 . S
H781 C767 0.961 . S
H782 C767 0.961 . S
H783 C767 0.961 1_565 S
H784 C768 0.931 1_545 S
H785 C773 0.930 . S
H786 C774 0.956 . S
H787 C774 0.961 . S
H788 C774 0.961 . S
H789 C775 0.958 . S
H790 C775 0.961 . S
H791 C775 0.960 . S
C792 C793 1.391 . S
C792 C794 1.394 . S
C792 H808 0.931 . S
C793 C792 1.391 . S
C793 C797 1.376 . S
C794 C792 1.394 . S
C794 C795 1.369 . S
C794 C798 1.531 . S
C795 C794 1.369 . S
C795 C796 1.410 . S
C795 C803 1.503 . S
C796 C795 1.410 . S
C796 C797 1.392 . S
C796 C799 1.511 . S
C797 C793 1.376 . S
C797 C796 1.392 . S
C797 H809 0.929 . S
C798 C794 1.531 . S
C798 H810 0.960 . S
C798 H811 0.962 . S
C798 H812 0.960 . S
C799 C796 1.511 . S
C799 H813 0.961 . S
C799 H814 0.961 . S
C799 H815 0.961 . S
C800 C801 1.370 . S
C800 C802 1.363 . S
C800 H816 0.931 . S
C801 C800 1.370 . S
C801 C805 1.408 . S
C802 C800 1.363 . S
C802 C803 1.370 . S
C802 C806 1.524 . S
C803 C795 1.503 . S
C803 C802 1.370 . S
C803 C804 1.403 . S
C804 C803 1.403 . S
C804 C805 1.404 . S
C804 C807 1.539 . S
C805 C801 1.408 . S
C805 C804 1.404 . S
C805 H817 0.930 . S
C806 C802 1.524 . S
C806 H818 0.956 . S
C806 H819 0.961 . S
C806 H820 0.961 . S
C807 C804 1.539 . S
C807 H821 0.958 . S
C807 H822 0.961 . S
C807 H823 0.960 . S
H808 C792 0.931 . S
H809 C797 0.929 . S
H810 C798 0.960 . S
H811 C798 0.962 . S
H812 C798 0.960 . S
H813 C799 0.961 . S
H814 C799 0.961 . S
H815 C799 0.961 . S
H816 C800 0.931 . S
H817 C805 0.930 . S
H818 C806 0.956 . S
H819 C806 0.961 . S
H820 C806 0.961 . S
H821 C807 0.958 . S
H822 C807 0.961 . S
H823 C807 0.960 . S
C824 C825 1.391 . S
C824 C826 1.394 . S
C824 H840 0.931 1_554 S
C825 C824 1.391 . S
C825 C829 1.376 . S
C826 C824 1.394 . S
C826 C827 1.369 . S
C826 C830 1.531 1_554 S
C827 C826 1.369 . S
C827 C828 1.410 1_455 S
C827 C835 1.503 1_455 S
C828 C827 1.410 1_655 S
C828 C829 1.392 1_655 S
C828 C831 1.511 . S
C829 C825 1.376 . S
C829 C828 1.392 1_455 S
C829 H841 0.929 . S
C830 C826 1.531 1_556 S
C830 H842 0.960 . S
C830 H843 0.962 1_556 S
C830 H844 0.960 . S
C831 C828 1.511 . S
C831 H845 0.961 . S
C831 H846 0.961 . S
C831 H847 0.961 . S
C832 C833 1.370 . S
C832 C834 1.363 . S
C832 H848 0.931 . S
C833 C832 1.370 . S
C833 C837 1.408 1_554 S
C834 C832 1.363 . S
C834 C835 1.370 . S
C834 C838 1.524 1_655 S
C835 C827 1.503 1_655 S
C835 C834 1.370 . S
C835 C836 1.403 1_554 S
C836 C835 1.403 1_556 S
C836 C837 1.404 . S
C836 C839 1.539 . S
C837 C833 1.408 1_556 S
C837 C836 1.404 . S
C837 H849 0.930 . S
C838 C834 1.524 1_455 S
C838 H850 0.956 . S
C838 H851 0.961 . S
C838 H852 0.961 . S
C839 C836 1.539 . S
C839 H853 0.958 . S
C839 H854 0.961 . S
C839 H855 0.960 . S
H840 C824 0.931 1_556 S
H841 C829 0.929 . S
H842 C830 0.960 . S
H843 C830 0.962 1_554 S
H844 C830 0.960 . S
H845 C831 0.961 . S
H846 C831 0.961 . S
H847 C831 0.961 . S
H848 C832 0.931 . S
H849 C837 0.930 . S
H850 C838 0.956 . S
H851 C838 0.961 . S
H852 C838 0.961 . S
H853 C839 0.958 . S
H854 C839 0.961 . S
H855 C839 0.960 . S
C856 C857 1.391 . S
C856 C858 1.394 . S
C856 H872 0.931 . S
C857 C856 1.391 . S
C857 C861 1.376 . S
C858 C856 1.394 . S
C858 C859 1.369 . S
C858 C862 1.531 . S
C859 C858 1.369 . S
C859 C860 1.410 1_565 S
C859 C867 1.503 1_565 S
C860 C859 1.410 1_545 S
C860 C861 1.392 1_545 S
C860 C863 1.511 . S
C861 C857 1.376 . S
C861 C860 1.392 1_565 S
C861 H873 0.929 . S
C862 C858 1.531 . S
C862 H874 0.960 . S
C862 H875 0.962 . S
C862 H876 0.960 . S
C863 C860 1.511 . S
C863 H877 0.961 . S
C863 H878 0.961 . S
C863 H879 0.961 . S
C864 C865 1.370 . S
C864 C866 1.363 . S
C864 H880 0.931 . S
C865 C864 1.370 . S
C865 C869 1.408 . S
C866 C864 1.363 . S
C866 C867 1.370 . S
C866 C870 1.524 1_545 S
C867 C859 1.503 1_545 S
C867 C866 1.370 . S
C867 C868 1.403 . S
C868 C867 1.403 . S
C868 C869 1.404 . S
C868 C871 1.539 . S
C869 C865 1.408 . S
C869 C868 1.404 . S
C869 H881 0.930 . S
C870 C866 1.524 1_565 S
C870 H882 0.956 . S
C870 H883 0.961 . S
C870 H884 0.961 . S
C871 C868 1.539 . S
C871 H885 0.958 . S
C871 H886 0.961 . S
C871 H887 0.960 . S
H872 C856 0.931 . S
H873 C861 0.929 . S
H874 C862 0.960 . S
H875 C862 0.962 . S
H876 C862 0.960 . S
H877 C863 0.961 . S
H878 C863 0.961 . S
H879 C863 0.961 . S
H880 C864 0.931 . S
H881 C869 0.930 . S
H882 C870 0.956 . S
H883 C870 0.961 . S
H884 C870 0.961 . S
H885 C871 0.958 . S
H886 C871 0.961 . S
H887 C871 0.960 . S
C888 C889 1.391 . S
C888 C890 1.394 . S
C888 H904 0.931 . S
C889 C888 1.391 . S
C889 C893 1.376 . S
C890 C888 1.394 . S
C890 C891 1.369 . S
C890 C894 1.531 . S
C891 C890 1.369 . S
C891 C892 1.410 . S
C891 C899 1.503 . S
C892 C891 1.410 . S
C892 C893 1.392 . S
C892 C895 1.511 . S
C893 C889 1.376 . S
C893 C892 1.392 . S
C893 H905 0.929 . S
C894 C890 1.531 . S
C894 H906 0.960 . S
C894 H907 0.962 . S
C894 H908 0.960 . S
C895 C892 1.511 . S
C895 H909 0.961 . S
C895 H910 0.961 . S
C895 H911 0.961 . S
C896 C897 1.370 . S
C896 C898 1.363 . S
C896 H912 0.931 . S
C897 C896 1.370 . S
C897 C901 1.408 . S
C898 C896 1.363 . S
C898 C899 1.370 . S
C898 C902 1.524 . S
C899 C891 1.503 . S
C899 C898 1.370 . S
C899 C900 1.403 . S
C900 C899 1.403 . S
C900 C901 1.404 . S
C900 C903 1.539 . S
C901 C897 1.408 . S
C901 C900 1.404 . S
C901 H913 0.930 . S
C902 C898 1.524 . S
C902 H914 0.956 . S
C902 H915 0.961 . S
C902 H916 0.961 . S
C903 C900 1.539 . S
C903 H917 0.958 . S
C903 H918 0.961 . S
C903 H919 0.960 . S
H904 C888 0.931 . S
H905 C893 0.929 . S
H906 C894 0.960 . S
H907 C894 0.962 . S
H908 C894 0.960 . S
H909 C895 0.961 . S
H910 C895 0.961 . S
H911 C895 0.961 . S
H912 C896 0.931 . S
H913 C901 0.930 . S
H914 C902 0.956 . S
H915 C902 0.961 . S
H916 C902 0.961 . S
H917 C903 0.958 . S
H918 C903 0.961 . S
H919 C903 0.960 . S
C920 C921 1.391 . S
C920 C922 1.394 . S
C920 H936 0.931 . S
C921 C920 1.391 . S
C921 C925 1.376 1_455 S
C922 C920 1.394 . S
C922 C923 1.369 . S
C922 C926 1.531 . S
C923 C922 1.369 . S
C923 C924 1.410 . S
C923 C931 1.503 . S
C924 C923 1.410 . S
C924 C925 1.392 1_455 S
C924 C927 1.511 1_455 S
C925 C921 1.376 1_655 S
C925 C924 1.392 1_655 S
C925 H937 0.929 . S
C926 C922 1.531 . S
C926 H938 0.960 . S
C926 H939 0.962 . S
C926 H940 0.960 . S
C927 C924 1.511 1_655 S
C927 H941 0.961 . S
C927 H942 0.961 1_655 S
C927 H943 0.961 . S
C928 C929 1.370 . S
C928 C930 1.363 . S
C928 H944 0.931 . S
C929 C928 1.370 . S
C929 C933 1.408 . S
C930 C928 1.363 . S
C930 C931 1.370 . S
C930 C934 1.524 . S
C931 C923 1.503 . S
C931 C930 1.370 . S
C931 C932 1.403 . S
C932 C931 1.403 . S
C932 C933 1.404 . S
C932 C935 1.539 . S
C933 C929 1.408 . S
C933 C932 1.404 . S
C933 H945 0.930 . S
C934 C930 1.524 . S
C934 H946 0.956 . S
C934 H947 0.961 . S
C934 H948 0.961 . S
C935 C932 1.539 . S
C935 H949 0.958 . S
C935 H950 0.961 . S
C935 H951 0.960 . S
H936 C920 0.931 . S
H937 C925 0.929 . S
H938 C926 0.960 . S
H939 C926 0.962 . S
H940 C926 0.960 . S
H941 C927 0.961 . S
H942 C927 0.961 1_455 S
H943 C927 0.961 . S
H944 C928 0.931 . S
H945 C933 0.930 . S
H946 C934 0.956 . S
H947 C934 0.961 . S
H948 C934 0.961 . S
H949 C935 0.958 . S
H950 C935 0.961 . S
H951 C935 0.960 . S
C952 C953 1.391 . S
C952 C954 1.394 . S
C952 H968 0.931 . S
C953 C952 1.391 . S
C953 C957 1.376 . S
C954 C952 1.394 . S
C954 C955 1.369 . S
C954 C958 1.531 . S
C955 C954 1.369 . S
C955 C956 1.410 . S
C955 C963 1.503 . S
C956 C955 1.410 . S
C956 C957 1.392 . S
C956 C959 1.511 . S
C957 C953 1.376 . S
C957 C956 1.392 . S
C957 H969 0.929 1_545 S
C958 C954 1.531 . S
C958 H970 0.960 . S
C958 H971 0.962 . S
C958 H972 0.960 . S
C959 C956 1.511 . S
C959 H973 0.961 1_545 S
C959 H974 0.961 . S
C959 H975 0.961 . S
C960 C961 1.370 . S
C960 C962 1.363 . S
C960 H976 0.931 . S
C961 C960 1.370 . S
C961 C965 1.408 . S
C962 C960 1.363 . S
C962 C963 1.370 . S
C962 C966 1.524 . S
C963 C955 1.503 . S
C963 C962 1.370 . S
C963 C964 1.403 . S
C964 C963 1.403 . S
C964 C965 1.404 . S
C964 C967 1.539 . S
C965 C961 1.408 . S
C965 C964 1.404 . S
C965 H977 0.930 . S
C966 C962 1.524 . S
C966 H978 0.956 . S
C966 H979 0.961 . S
C966 H980 0.961 . S
C967 C964 1.539 . S
C967 H981 0.958 . S
C967 H982 0.961 . S
C967 H983 0.960 . S
H968 C952 0.931 . S
H969 C957 0.929 1_565 S
H970 C958 0.960 . S
H971 C958 0.962 . S
H972 C958 0.960 . S
H973 C959 0.961 1_565 S
H974 C959 0.961 . S
H975 C959 0.961 . S
H976 C960 0.931 . S
H977 C965 0.930 . S
H978 C966 0.956 . S
H979 C966 0.961 . S
H980 C966 0.961 . S
H981 C967 0.958 . S
H982 C967 0.961 . S
H983 C967 0.960 . S
C984 C985 1.391 . S
C984 C986 1.394 . S
C984 H1000 0.931 . S
C985 C984 1.391 . S
C985 C989 1.376 . S
C986 C984 1.394 . S
C986 C987 1.369 . S
C986 C990 1.531 . S
C987 C986 1.369 . S
C987 C988 1.410 . S
C987 C995 1.503 . S
C988 C987 1.410 . S
C988 C989 1.392 . S
C988 C991 1.511 . S
C989 C985 1.376 . S
C989 C988 1.392 . S
C989 H1001 0.929 . S
C990 C986 1.531 . S
C990 H1002 0.960 . S
C990 H1003 0.962 . S
C990 H1004 0.960 . S
C991 C988 1.511 . S
C991 H1005 0.961 . S
C991 H1006 0.961 . S
C991 H1007 0.961 . S
C992 C993 1.370 . S
C992 C994 1.363 . S
C992 H1008 0.931 . S
C993 C992 1.370 . S
C993 C997 1.408 . S
C994 C992 1.363 . S
C994 C995 1.370 . S
C994 C998 1.524 . S
C995 C987 1.503 . S
C995 C994 1.370 . S
C995 C996 1.403 . S
C996 C995 1.403 . S
C996 C997 1.404 . S
C996 C999 1.539 . S
C997 C993 1.408 . S
C997 C996 1.404 . S
C997 H1009 0.930 . S
C998 C994 1.524 . S
C998 H1010 0.956 . S
C998 H1011 0.961 . S
C998 H1012 0.961 . S
C999 C996 1.539 . S
C999 H1013 0.958 . S
C999 H1014 0.961 . S
C999 H1015 0.960 . S
H1000 C984 0.931 . S
H1001 C989 0.929 . S
H1002 C990 0.960 . S
H1003 C990 0.962 . S
H1004 C990 0.960 . S
H1005 C991 0.961 . S
H1006 C991 0.961 . S
H1007 C991 0.961 . S
H1008 C992 0.931 . S
H1009 C997 0.930 . S
H1010 C998 0.956 . S
H1011 C998 0.961 . S
H1012 C998 0.961 . S
H1013 C999 0.958 . S
H1014 C999 0.961 . S
H1015 C999 0.960 . S
C1016 C1017 1.391 . S
C1016 C1018 1.394 . S
C1016 H1032 0.931 . S
C1017 C1016 1.391 . S
C1017 C1021 1.376 . S
C1018 C1016 1.394 . S
C1018 C1019 1.369 . S
C1018 C1022 1.531 . S
C1019 C1018 1.369 . S
C1019 C1020 1.410 . S
C1019 C1027 1.503 . S
C1020 C1019 1.410 . S
C1020 C1021 1.392 . S
C1020 C1023 1.511 . S
C1021 C1017 1.376 . S
C1021 C1020 1.392 . S
C1021 H1033 0.929 . S
C1022 C1018 1.531 . S
C1022 H1034 0.960 . S
C1022 H1035 0.962 . S
C1022 H1036 0.960 . S
C1023 C1020 1.511 . S
C1023 H1037 0.961 . S
C1023 H1038 0.961 . S
C1023 H1039 0.961 . S
C1024 C1025 1.370 . S
C1024 C1026 1.363 . S
C1024 H1040 0.931 . S
C1025 C1024 1.370 . S
C1025 C1029 1.408 . S
C1026 C1024 1.363 . S
C1026 C1027 1.370 . S
C1026 C1030 1.524 . S
C1027 C1019 1.503 . S
C1027 C1026 1.370 . S
C1027 C1028 1.403 . S
C1028 C1027 1.403 . S
C1028 C1029 1.404 . S
C1028 C1031 1.539 . S
C1029 C1025 1.408 . S
C1029 C1028 1.404 . S
C1029 H1041 0.930 . S
C1030 C1026 1.524 . S
C1030 H1042 0.956 . S
C1030 H1043 0.961 . S
C1030 H1044 0.961 . S
C1031 C1028 1.539 . S
C1031 H1045 0.958 1_655 S
C1031 H1046 0.961 . S
C1031 H1047 0.960 . S
H1032 C1016 0.931 . S
H1033 C1021 0.929 . S
H1034 C1022 0.960 . S
H1035 C1022 0.962 . S
H1036 C1022 0.960 . S
H1037 C1023 0.961 . S
H1038 C1023 0.961 . S
H1039 C1023 0.961 . S
H1040 C1024 0.931 . S
H1041 C1029 0.930 . S
H1042 C1030 0.956 . S
H1043 C1030 0.961 . S
H1044 C1030 0.961 . S
H1045 C1031 0.958 1_455 S
H1046 C1031 0.961 . S
H1047 C1031 0.960 . S
C1048 C1049 1.391 . S
C1048 C1050 1.394 . S
C1048 H1064 0.931 . S
C1049 C1048 1.391 . S
C1049 C1053 1.376 1_565 S
C1050 C1048 1.394 . S
C1050 C1051 1.369 . S
C1050 C1054 1.531 . S
C1051 C1050 1.369 . S
C1051 C1052 1.410 . S
C1051 C1059 1.503 . S
C1052 C1051 1.410 . S
C1052 C1053 1.392 1_565 S
C1052 C1055 1.511 1_565 S
C1053 C1049 1.376 1_545 S
C1053 C1052 1.392 1_545 S
C1053 H1065 0.929 . S
C1054 C1050 1.531 . S
C1054 H1066 0.960 . S
C1054 H1067 0.962 . S
C1054 H1068 0.960 . S
C1055 C1052 1.511 1_545 S
C1055 H1069 0.961 . S
C1055 H1070 0.961 1_545 S
C1055 H1071 0.961 . S
C1056 C1057 1.370 . S
C1056 C1058 1.363 . S
C1056 H1072 0.931 . S
C1057 C1056 1.370 . S
C1057 C1061 1.408 . S
C1058 C1056 1.363 . S
C1058 C1059 1.370 . S
C1058 C1062 1.524 . S
C1059 C1051 1.503 . S
C1059 C1058 1.370 . S
C1059 C1060 1.403 . S
C1060 C1059 1.403 . S
C1060 C1061 1.404 . S
C1060 C1063 1.539 . S
C1061 C1057 1.408 . S
C1061 C1060 1.404 . S
C1061 H1073 0.930 . S
C1062 C1058 1.524 . S
C1062 H1074 0.956 . S
C1062 H1075 0.961 . S
C1062 H1076 0.961 . S
C1063 C1060 1.539 . S
C1063 H1077 0.958 . S
C1063 H1078 0.961 . S
C1063 H1079 0.960 . S
H1064 C1048 0.931 . S
H1065 C1053 0.929 . S
H1066 C1054 0.960 . S
H1067 C1054 0.962 . S
H1068 C1054 0.960 . S
H1069 C1055 0.961 . S
H1070 C1055 0.961 1_565 S
H1071 C1055 0.961 . S
H1072 C1056 0.931 . S
H1073 C1061 0.930 . S
H1074 C1062 0.956 . S
H1075 C1062 0.961 . S
H1076 C1062 0.961 . S
H1077 C1063 0.958 . S
H1078 C1063 0.961 . S
H1079 C1063 0.960 . S
C505 C403 1.169 . S
C513 C69 0.960 . S
C537 C487 1.115 . S
C545 C153 1.014 . S
C569 C67 1.137 . S
C577 C237 0.998 . S
C601 C151 1.118 . S
C609 C321 1.005 . S
C633 C235 1.120 . S
C641 C405 1.012 . S
C665 C319 1.114 . S
C673 C489 1.012 . S
C697 C63 1.431 . S
C705 C315 1.492 . S
C729 C399 1.485 . S
C737 C147 1.484 . S
C761 C483 1.515 . S
C769 C231 1.461 . S
C793 C242 1.668 . S
C801 C494 1.669 . S
C825 C74 1.666 . S
C833 C326 1.670 . S
C857 C410 1.667 . S
C865 C158 1.669 . S
C889 C476 1.097 . S
C897 C58 1.031 . S
C921 C142 0.945 1_455 S
C929 C56 1.087 . S
C953 C226 1.018 1_545 S
C961 C140 1.095 . S
C985 C224 1.046 . S
C993 C310 0.986 . S
C1017 C394 0.956 1_655 S
C1025 C308 1.067 . S
C1049 C478 0.961 1_565 S
C1057 C392 1.091 . S
