# Generated by pormake.
# Topology uoy, (4)-cn, num edge types: 1
# Building blocks:
#     Node 0, Type 0, BuildingBlock: KUFVIS_clean_sbu_0, # of connection points: 4
#     Node 1, Type 0, BuildingBlock: KUFVIS_clean_sbu_0, # of connection points: 4
#     Node 2, Type 0, BuildingBlock: KUFVIS_clean_sbu_0, # of connection points: 4
#     Node 3, Type 0, BuildingBlock: KUFVIS_clean_sbu_0, # of connection points: 4
#     Node 4, Type 0, BuildingBlock: KUFVIS_clean_sbu_0, # of connection points: 4
#     Node 5, Type 0, BuildingBlock: KUFVIS_clean_sbu_0, # of connection points: 4
#     Node 6, Type 0, BuildingBlock: KUFVIS_clean_sbu_0, # of connection points: 4
#     Node 7, Type 0, BuildingBlock: KUFVIS_clean_sbu_0, # of connection points: 4
#     Node 8, Type 0, BuildingBlock: KUFVIS_clean_sbu_0, # of connection points: 4
#     Node 9, Type 0, BuildingBlock: KUFVIS_clean_sbu_0, # of connection points: 4
#     Node 10, Type 0, BuildingBlock: KUFVIS_clean_sbu_0, # of connection points: 4
#     Node 11, Type 0, BuildingBlock: KUFVIS_clean_sbu_0, # of connection points: 4
#     Node 12, Type 0, BuildingBlock: KUFVIS_clean_sbu_0, # of connection points: 4
#     Node 13, Type 0, BuildingBlock: KUFVIS_clean_sbu_0, # of connection points: 4
#     Node 14, Type 0, BuildingBlock: KUFVIS_clean_sbu_0, # of connection points: 4
#     Node 15, Type 0, BuildingBlock: KUFVIS_clean_sbu_0, # of connection points: 4
#     Edge 16, Type (0, 0), BuildingBlock: AJUNOK_clean_linker_0, # of connection points: 2
#     Edge 17, Type (0, 0), BuildingBlock: AJUNOK_clean_linker_0, # of connection points: 2
#     Edge 18, Type (0, 0), BuildingBlock: AJUNOK_clean_linker_0, # of connection points: 2
#     Edge 19, Type (0, 0), BuildingBlock: AJUNOK_clean_linker_0, # of connection points: 2
#     Edge 20, Type (0, 0), BuildingBlock: AJUNOK_clean_linker_0, # of connection points: 2
#     Edge 21, Type (0, 0), BuildingBlock: AJUNOK_clean_linker_0, # of connection points: 2
#     Edge 22, Type (0, 0), BuildingBlock: AJUNOK_clean_linker_0, # of connection points: 2
#     Edge 23, Type (0, 0), BuildingBlock: AJUNOK_clean_linker_0, # of connection points: 2
#     Edge 24, Type (0, 0), BuildingBlock: AJUNOK_clean_linker_0, # of connection points: 2
#     Edge 25, Type (0, 0), BuildingBlock: AJUNOK_clean_linker_0, # of connection points: 2
#     Edge 26, Type (0, 0), BuildingBlock: AJUNOK_clean_linker_0, # of connection points: 2
#     Edge 27, Type (0, 0), BuildingBlock: AJUNOK_clean_linker_0, # of connection points: 2
#     Edge 28, Type (0, 0), BuildingBlock: AJUNOK_clean_linker_0, # of connection points: 2
#     Edge 29, Type (0, 0), BuildingBlock: AJUNOK_clean_linker_0, # of connection points: 2
#     Edge 30, Type (0, 0), BuildingBlock: AJUNOK_clean_linker_0, # of connection points: 2
#     Edge 31, Type (0, 0), BuildingBlock: AJUNOK_clean_linker_0, # of connection points: 2
#     Edge 32, Type (0, 0), BuildingBlock: AJUNOK_clean_linker_0, # of connection points: 2
#     Edge 33, Type (0, 0), BuildingBlock: AJUNOK_clean_linker_0, # of connection points: 2
#     Edge 34, Type (0, 0), BuildingBlock: AJUNOK_clean_linker_0, # of connection points: 2
#     Edge 35, Type (0, 0), BuildingBlock: AJUNOK_clean_linker_0, # of connection points: 2
#     Edge 36, Type (0, 0), BuildingBlock: AJUNOK_clean_linker_0, # of connection points: 2
#     Edge 37, Type (0, 0), BuildingBlock: AJUNOK_clean_linker_0, # of connection points: 2
#     Edge 38, Type (0, 0), BuildingBlock: AJUNOK_clean_linker_0, # of connection points: 2
#     Edge 39, Type (0, 0), BuildingBlock: AJUNOK_clean_linker_0, # of connection points: 2
#     Edge 40, Type (0, 0), BuildingBlock: AJUNOK_clean_linker_0, # of connection points: 2
#     Edge 41, Type (0, 0), BuildingBlock: AJUNOK_clean_linker_0, # of connection points: 2
#     Edge 42, Type (0, 0), BuildingBlock: AJUNOK_clean_linker_0, # of connection points: 2
#     Edge 43, Type (0, 0), BuildingBlock: AJUNOK_clean_linker_0, # of connection points: 2
#     Edge 44, Type (0, 0), BuildingBlock: AJUNOK_clean_linker_0, # of connection points: 2
#     Edge 45, Type (0, 0), BuildingBlock: AJUNOK_clean_linker_0, # of connection points: 2
#     Edge 46, Type (0, 0), BuildingBlock: AJUNOK_clean_linker_0, # of connection points: 2
#     Edge 47, Type (0, 0), BuildingBlock: AJUNOK_clean_linker_0, # of connection points: 2
# Relax obj value: 0.051
# Max RMSD: 0.078
# Mean RMSD: 0.078
data_MOF--net-uoy--node1-KUFVIS_clean_sbu_0--edge1-AJUNOK_clean_linker_0
_symmetry_space_group_name_H-M    P1
_symmetry_Int_Tables_number       1
_symmetry_cell_setting            triclinic
loop_
_symmetry_equiv_pos_as_xyz
'x, y, z'
_cell_length_a     20.441108
_cell_length_b     20.456812
_cell_length_c     76.449951
_cell_angle_alpha  90.110255
_cell_angle_beta   89.828053
_cell_angle_gamma 89.802033
loop_
_atom_site_label
_atom_site_type_symbol
_atom_site_fract_x
_atom_site_fract_y
_atom_site_fract_z
_atom_type_partial_charge
Mn0 Mn 0.27327 0.11312 0.19208 0.0
Mn1 Mn 0.15519 0.22431 0.19835 0.0
C2 C 0.26757 0.15279 0.22068 0.0
C3 C 0.37903 0.07434 0.18418 0.0
C4 C 0.13019 0.08579 0.18781 0.0
O5 O 0.25426 0.15442 0.16809 0.0
O6 O 0.1938 0.24425 0.17508 0.0
C7 C 0.17576 0.36786 0.19563 0.0
N8 N 0.1603 0.31566 0.20592 0.0
C9 C 0.15742 0.39936 0.23175 0.0
C10 C 0.17047 0.44847 0.21986 0.0
C11 C 0.17772 0.43268 0.20208 0.0
C12 C 0.13644 0.3249 0.22218 0.0
H13 H 0.1872 0.36031 0.18201 0.0
C14 C 0.22704 0.20924 0.16415 0.0
O15 O 0.32681 0.03985 0.18195 0.0
O16 O 0.36973 0.13335 0.19004 0.0
N17 N 0.12144 0.20115 0.22085 0.0
C18 C 0.10871 0.1399 0.22714 0.0
C19 C 0.11521 0.12383 0.24496 0.0
C20 C 0.14432 0.16608 0.25702 0.0
C21 C 0.1657 0.22698 0.25159 0.0
C22 C 0.13627 0.24947 0.23167 0.0
H23 H 0.09301 0.10153 0.21864 0.0
O24 O 0.2857 0.09358 0.21693 0.0
O25 O 0.24579 0.18899 0.20718 0.0
O26 O 0.18515 0.06241 0.1922 0.0
O27 O 0.12055 0.14599 0.18806 0.0
C28 C 0.20182 0.28128 0.266 0.0
C29 C 0.19196 0.40312 0.25304 0.0
H30 H 0.18289 0.49698 0.2244 0.0
H31 H 0.19039 0.47144 0.19308 0.0
H32 H 0.10144 0.07536 0.24924 0.0
H33 H 0.15189 0.15048 0.27038 0.0
H34 H 0.20678 0.31258 0.26548 0.0
H35 H 0.2079 0.45115 0.25767 0.0
Mn36 Mn 0.91159 0.77046 0.44303 0.0
Mn37 Mn 0.77424 0.67932 0.4425 0.0
C38 C 0.85321 0.75149 0.4691 0.0
C39 C 0.96465 0.87225 0.43951 0.0
C40 C 0.91033 0.62099 0.43909 0.0
O41 O 0.88659 0.7693 0.41715 0.0
O42 O 0.78939 0.71788 0.41925 0.0
C43 C 0.6742 0.78143 0.43627 0.0
N44 N 0.69748 0.73079 0.44598 0.0
C45 C 0.59393 0.71718 0.46036 0.0
C46 C 0.56884 0.76995 0.45076 0.0
C47 C 0.60954 0.8029 0.43885 0.0
C48 C 0.65995 0.70116 0.45812 0.0
H49 H 0.70455 0.80442 0.42652 0.0
C50 C 0.83305 0.74864 0.41064 0.0
O51 O 0.99564 0.81721 0.43764 0.0
O52 O 0.90306 0.86816 0.44354 0.0
N53 N 0.75222 0.63839 0.46403 0.0
C54 C 0.78475 0.58935 0.47234 0.0
C55 C 0.75045 0.54841 0.48381 0.0
C56 C 0.68292 0.5575 0.4862 0.0
C57 C 0.65127 0.61058 0.47821 0.0
C58 C 0.68852 0.65089 0.46737 0.0
H59 H 0.83579 0.57999 0.46968 0.0
O60 O 0.91452 0.768 0.46933 0.0
O61 O 0.82778 0.74691 0.45362 0.0
O62 O 0.94175 0.67426 0.44134 0.0
O63 O 0.84817 0.61842 0.43885 0.0
C64 C 0.58361 0.62283 0.47968 0.0
C65 C 0.55537 0.67744 0.47128 0.0
H66 H 0.51816 0.78473 0.45217 0.0
H67 H 0.59044 0.84319 0.43124 0.0
H68 H 0.77527 0.50807 0.49012 0.0
H69 H 0.65585 0.52262 0.49394 0.0
H70 H 0.55265 0.59048 0.48718 0.0
H71 H 0.50353 0.68705 0.47284 0.0
Mn72 Mn 0.24821 0.41081 0.68791 0.0
Mn73 Mn 0.36873 0.30173 0.69523 0.0
C74 C 0.25626 0.37526 0.71686 0.0
C75 C 0.14121 0.44926 0.6806 0.0
C76 C 0.39246 0.44021 0.68401 0.0
O77 O 0.26719 0.36598 0.66412 0.0
O78 O 0.33258 0.28059 0.6718 0.0
C79 C 0.34421 0.15821 0.69313 0.0
N80 N 0.36111 0.21088 0.70311 0.0
C81 C 0.36455 0.1283 0.7293 0.0
C82 C 0.35026 0.07879 0.71761 0.0
C83 C 0.34177 0.0938 0.69984 0.0
C84 C 0.38442 0.20242 0.7194 0.0
H85 H 0.33184 0.16501 0.67958 0.0
C86 C 0.29774 0.31223 0.66059 0.0
O87 O 0.19346 0.48282 0.67756 0.0
O88 O 0.15108 0.39067 0.68664 0.0
N89 N 0.4007 0.32578 0.71778 0.0
C90 C 0.41529 0.38694 0.72384 0.0
C91 C 0.41039 0.40372 0.74168 0.0
C92 C 0.3817 0.36225 0.75405 0.0
C93 C 0.35893 0.30138 0.7489 0.0
C94 C 0.38554 0.27814 0.72873 0.0
H95 H 0.4315 0.42447 0.71508 0.0
O96 O 0.23664 0.4335 0.71268 0.0
O97 O 0.27773 0.33768 0.70357 0.0
O98 O 0.33575 0.46223 0.68733 0.0
O99 O 0.40426 0.38044 0.68523 0.0
C100 C 0.32483 0.24767 0.7638 0.0
C101 C 0.33302 0.12531 0.75103 0.0
H102 H 0.33799 0.03054 0.72235 0.0
H103 H 0.32802 0.05469 0.69104 0.0
H104 H 0.42544 0.45204 0.74579 0.0
H105 H 0.37573 0.37837 0.76745 0.0
H106 H 0.31988 0.21629 0.76339 0.0
H107 H 0.31779 0.07751 0.75594 0.0
Mn108 Mn 0.61468 0.74321 0.93969 0.0
Mn109 Mn 0.72148 0.8647 0.94557 0.0
C110 C 0.65135 0.75238 0.96835 0.0
C111 C 0.57845 0.63626 0.93239 0.0
C112 C 0.58339 0.88411 0.93382 0.0
O113 O 0.65753 0.76156 0.91576 0.0
O114 O 0.74558 0.82393 0.92302 0.0
C115 C 0.86597 0.8487 0.94386 0.0
N116 N 0.81213 0.86348 0.95374 0.0
C117 C 0.89246 0.86972 0.98009 0.0
C118 C 0.94345 0.85729 0.96863 0.0
C119 C 0.93008 0.84877 0.95077 0.0
C120 C 0.8187 0.88888 0.96991 0.0
H121 H 0.86032 0.83612 0.93023 0.0
C122 C 0.71247 0.78914 0.91222 0.0
O123 O 0.54338 0.68786 0.92956 0.0
O124 O 0.63698 0.64681 0.93836 0.0
N125 N 0.69469 0.90082 0.9675 0.0
C126 C 0.63235 0.91298 0.97318 0.0
C127 C 0.61389 0.90629 0.99086 0.0
C128 C 0.65522 0.87811 0.00334 0.0
C129 C 0.71763 0.85814 0.99853 0.0
C130 C 0.74201 0.88773 0.97877 0.0
H131 H 0.5953 0.92888 0.96425 0.0
O132 O 0.59305 0.73254 0.96441 0.0
O133 O 0.68841 0.77389 0.95495 0.0
O134 O 0.56179 0.82993 0.93925 0.0
O135 O 0.64323 0.89547 0.93425 0.0
C136 C 0.77108 0.82334 0.01345 0.0
C137 C 0.89442 0.83558 1.00143 0.0
H138 H 0.99174 0.84614 0.97358 0.0
H139 H 0.97031 0.83654 0.94211 0.0
H140 H 0.56454 0.91944 0.9947 0.0
H141 H 0.63793 0.87053 0.01658 0.0
H142 H 0.80257 0.81892 0.01321 0.0
H143 H 0.94232 0.82072 0.00644 0.0
Mn144 Mn 0.28147 0.40534 0.06571 0.0
Mn145 Mn 0.16091 0.29819 0.05886 0.0
C146 C 0.27387 0.37002 0.0369 0.0
C147 C 0.38752 0.44211 0.07358 0.0
C148 C 0.13911 0.43647 0.07013 0.0
O149 O 0.26102 0.36241 0.08947 0.0
O150 O 0.19925 0.27447 0.08182 0.0
C151 C 0.17489 0.15307 0.06056 0.0
N152 N 0.16335 0.20724 0.05063 0.0
C153 C 0.15615 0.12622 0.0241 0.0
C154 C 0.16674 0.07534 0.03564 0.0
C155 C 0.17406 0.08891 0.05356 0.0
C156 C 0.13987 0.20088 0.03431 0.0
H157 H 0.18475 0.15851 0.07432 0.0
C158 C 0.2332 0.30754 0.09289 0.0
O159 O 0.33542 0.47674 0.07627 0.0
O160 O 0.37791 0.38354 0.06747 0.0
N161 N 0.12836 0.32449 0.03654 0.0
C162 C 0.11592 0.38627 0.03061 0.0
C163 C 0.12287 0.40333 0.01285 0.0
C164 C 0.15203 0.36142 1.00056 0.0
C165 C 0.17311 0.29988 0.00559 0.0
C166 C 0.1435 0.27695 0.02545 0.0
H167 H 0.09905 0.42375 0.03934 0.0
O168 O 0.29421 0.42781 0.04117 0.0
O169 O 0.25216 0.33213 0.05009 0.0
O170 O 0.19474 0.45746 0.06562 0.0
O171 O 0.12755 0.3766 0.0699 0.0
C172 C 0.20513 0.24517 0.99051 0.0
C173 C 0.18904 0.12258 0.00248 0.0
H174 H 0.17656 0.02659 0.03075 0.0
H175 H 0.18402 0.0485 0.06229 0.0
H176 H 0.1086 0.45193 0.00874 0.0
H177 H 0.15727 0.37669 0.98711 0.0
H178 H 0.20828 0.21354 0.99073 0.0
H179 H 0.20199 0.07426 0.99735 0.0
Mn180 Mn 0.62154 0.78287 0.31555 0.0
Mn181 Mn 0.73041 0.66259 0.30757 0.0
C182 C 0.6532 0.77271 0.2864 0.0
C183 C 0.58049 0.88869 0.32292 0.0
C184 C 0.59442 0.63884 0.32068 0.0
O185 O 0.67106 0.76837 0.33865 0.0
O186 O 0.75413 0.70053 0.33046 0.0
C187 C 0.87489 0.68202 0.30897 0.0
N188 N 0.82094 0.66781 0.2992 0.0
C189 C 0.90171 0.66077 0.27256 0.0
C190 C 0.95251 0.67314 0.28398 0.0
C191 C 0.93898 0.68195 0.30187 0.0
C192 C 0.8276 0.64368 0.28292 0.0
H193 H 0.86942 0.69384 0.32266 0.0
C194 C 0.72577 0.73882 0.34151 0.0
O195 O 0.54978 0.83547 0.32662 0.0
O196 O 0.63839 0.88095 0.31607 0.0
N197 N 0.70415 0.63023 0.28532 0.0
C198 C 0.64213 0.61769 0.27963 0.0
C199 C 0.62449 0.62355 0.2619 0.0
C200 C 0.66581 0.65225 0.24944 0.0
C201 C 0.72718 0.67417 0.2543 0.0
C202 C 0.75117 0.64572 0.27416 0.0
H203 H 0.60473 0.60263 0.28865 0.0
O204 O 0.59483 0.79096 0.29107 0.0
O205 O 0.69312 0.75304 0.29931 0.0
O206 O 0.5716 0.695 0.31738 0.0
O207 O 0.65357 0.62668 0.31834 0.0
C208 C 0.78093 0.70635 0.2391 0.0
C209 C 0.90416 0.69273 0.25089 0.0
H210 H 1.00093 0.68359 0.27898 0.0
H211 H 0.97923 0.69381 0.31047 0.0
H212 H 0.57577 0.60925 0.25795 0.0
H213 H 0.65002 0.65696 0.23602 0.0
H214 H 0.81251 0.70997 0.23926 0.0
H215 H 0.95213 0.70619 0.24566 0.0
Mn216 Mn 0.25274 0.10785 0.56265 0.0
Mn217 Mn 0.37493 0.21489 0.55538 0.0
C218 C 0.26021 0.14519 0.53401 0.0
C219 C 0.14573 0.07192 0.56963 0.0
C220 C 0.39593 0.07333 0.56549 0.0
O221 O 0.27159 0.14993 0.58658 0.0
O222 O 0.34025 0.23309 0.5793 0.0
C223 C 0.35514 0.3585 0.55988 0.0
N224 N 0.36757 0.30735 0.54884 0.0
C225 C 0.36252 0.39375 0.52371 0.0
C226 C 0.35133 0.4414 0.53622 0.0
C227 C 0.34984 0.42387 0.55397 0.0
C228 C 0.38667 0.31855 0.53227 0.0
H229 H 0.34922 0.34969 0.57368 0.0
C230 C 0.30308 0.20256 0.59017 0.0
O231 O 0.1973 0.03717 0.5727 0.0
O232 O 0.15635 0.13079 0.56395 0.0
N233 N 0.40462 0.19503 0.53228 0.0
C234 C 0.41789 0.13465 0.52542 0.0
C235 C 0.40983 0.12061 0.5075 0.0
C236 C 0.37864 0.16398 0.49603 0.0
C237 C 0.3563 0.22393 0.50218 0.0
C238 C 0.38732 0.24439 0.52206 0.0
H239 H 0.43493 0.09562 0.53366 0.0
O240 O 0.24126 0.0866 0.53791 0.0
O241 O 0.2829 0.18163 0.54733 0.0
O242 O 0.33832 0.05312 0.56306 0.0
O243 O 0.40931 0.13261 0.56369 0.0
C244 C 0.31707 0.2794 0.48862 0.0
C245 C 0.32528 0.39966 0.50274 0.0
H246 H 0.33703 0.49022 0.53233 0.0
H247 H 0.33949 0.46165 0.56353 0.0
H248 H 0.42403 0.07284 0.50267 0.0
H249 H 0.36997 0.14976 0.48259 0.0
H250 H 0.31136 0.31058 0.48949 0.0
H251 H 0.30762 0.44791 0.49874 0.0
Mn252 Mn 0.91588 0.75233 0.81481 0.0
Mn253 Mn 0.80242 0.86776 0.80652 0.0
C254 C 0.87949 0.75731 0.78581 0.0
C255 C 0.95715 0.64785 0.82274 0.0
C256 C 0.94064 0.89817 0.81678 0.0
O257 O 0.87099 0.7711 0.83847 0.0
O258 O 0.78588 0.83602 0.8305 0.0
C259 C 0.65988 0.83826 0.81067 0.0
N260 N 0.71084 0.85451 0.79996 0.0
C261 C 0.62339 0.85674 0.77469 0.0
C262 C 0.57614 0.84242 0.78707 0.0
C263 C 0.59437 0.8347 0.80469 0.0
C264 C 0.69956 0.87543 0.78364 0.0
H265 H 0.66889 0.8275 0.82426 0.0
C266 C 0.81749 0.80218 0.84184 0.0
O267 O 0.98918 0.70122 0.82545 0.0
O268 O 0.8983 0.65511 0.8166 0.0
N269 N 0.82228 0.89519 0.78336 0.0
C270 C 0.88177 0.91106 0.77636 0.0
C271 C 0.89469 0.90635 0.7583 0.0
C272 C 0.85149 0.87596 0.74668 0.0
C273 C 0.79274 0.85112 0.75276 0.0
C274 C 0.77345 0.87634 0.77331 0.0
H275 H 0.92092 0.92783 0.78453 0.0
O276 O 0.93848 0.73977 0.78996 0.0
O277 O 0.84163 0.77794 0.7991 0.0
O278 O 0.96491 0.84141 0.81519 0.0
O279 O 0.88091 0.90779 0.81473 0.0
C280 C 0.73619 0.81945 0.73846 0.0
C281 C 0.61619 0.82751 0.75272 0.0
H282 H 0.527 0.83022 0.78301 0.0
H283 H 0.55679 0.82139 0.81402 0.0
H284 H 0.9414 0.92313 0.75337 0.0
H285 H 0.86371 0.87232 0.73294 0.0
H286 H 0.70486 0.81512 0.73929 0.0
H287 H 0.56748 0.81324 0.74825 0.0
Mn288 Mn 0.77678 0.6209 0.68946 0.0
Mn289 Mn 0.65933 0.73157 0.69605 0.0
C290 C 0.77017 0.65762 0.71835 0.0
C291 C 0.88203 0.57759 0.68185 0.0
C292 C 0.63328 0.59585 0.68432 0.0
O293 O 0.76079 0.6674 0.66568 0.0
O294 O 0.70139 0.75641 0.67387 0.0
C295 C 0.678 0.8755 0.69517 0.0
N296 N 0.6613 0.82164 0.70471 0.0
C297 C 0.6549 0.90109 0.73128 0.0
C298 C 0.66788 0.95234 0.72007 0.0
C299 C 0.67771 0.93936 0.70225 0.0
C300 C 0.635 0.82806 0.7208 0.0
H301 H 0.69271 0.8702 0.68172 0.0
C302 C 0.73548 0.72423 0.66262 0.0
O303 O 0.82818 0.54665 0.67895 0.0
O304 O 0.87507 0.6366 0.68797 0.0
N305 N 0.62234 0.70421 0.71789 0.0
C306 C 0.60974 0.64201 0.72347 0.0
C307 C 0.61672 0.623 0.74108 0.0
C308 C 0.64576 0.66337 0.7536 0.0
C309 C 0.66609 0.72549 0.74894 0.0
C310 C 0.63584 0.75099 0.72934 0.0
H311 H 0.59276 0.60539 0.71463 0.0
O312 O 0.78722 0.59842 0.71422 0.0
O313 O 0.74964 0.69561 0.7051 0.0
O314 O 0.68726 0.57185 0.68927 0.0
O315 O 0.62654 0.65624 0.68364 0.0
C316 C 0.70178 0.77788 0.76399 0.0
C317 C 0.68987 0.90169 0.75248 0.0
H318 H 0.67924 1.00024 0.72524 0.0
H319 H 0.6912 0.97955 0.6938 0.0
H320 H 0.60305 0.57387 0.7448 0.0
H321 H 0.65357 0.64562 0.76676 0.0
H322 H 0.70641 0.80929 0.76386 0.0
H323 H 0.70525 0.94918 0.75762 0.0
Mn324 Mn 0.4131 0.2722 0.94018 0.0
Mn325 Mn 0.29727 0.15886 0.94717 0.0
C326 C 0.3749 0.26652 0.96893 0.0
C327 C 0.45592 0.3765 0.93271 0.0
C328 C 0.4349 0.12725 0.93628 0.0
O329 O 0.37 0.25507 0.91634 0.0
O330 O 0.27901 0.19698 0.92374 0.0
C331 C 0.15438 0.18699 0.94451 0.0
N332 N 0.20632 0.17042 0.95478 0.0
C333 C 0.1221 0.16999 0.98075 0.0
C334 C 0.07364 0.18572 0.96889 0.0
C335 C 0.08969 0.19215 0.95108 0.0
C336 C 0.19627 0.14778 0.97106 0.0
H337 H 0.16201 0.19626 0.9308 0.0
C338 C 0.31418 0.22948 0.91277 0.0
O339 O 0.48785 0.32276 0.93 0.0
O340 O 0.39657 0.3698 0.93859 0.0
N341 N 0.31899 0.12596 0.96984 0.0
C342 C 0.37938 0.10932 0.97613 0.0
C343 C 0.39488 0.11245 0.99406 0.0
C344 C 0.35338 0.14195 0.00635 0.0
C345 C 0.29384 0.16761 1.00102 0.0
C346 C 0.27123 0.14318 0.98065 0.0
H347 H 0.41761 0.09333 0.96753 0.0
O348 O 0.43435 0.28309 0.96502 0.0
O349 O 0.33733 0.24722 0.95552 0.0
O350 O 0.46037 0.18208 0.93976 0.0
O351 O 0.3745 0.11932 0.93731 0.0
C352 C 0.24021 0.20278 0.01584 0.0
C353 C 0.11853 0.20024 0.00262 0.0
H354 H 0.0254 0.1996 0.97346 0.0
H355 H 0.05124 0.20591 0.94209 0.0
H356 H 0.44251 0.09559 0.99829 0.0
H357 H 0.36863 0.14651 0.01985 0.0
H358 H 0.20903 0.20892 0.01533 0.0
H359 H 0.07087 0.21693 0.00745 0.0
Mn360 Mn 0.74468 0.91029 0.18953 0.0
Mn361 Mn 0.86258 0.79812 0.1957 0.0
C362 C 0.75313 0.87303 0.21816 0.0
C363 C 0.63925 0.95144 0.18241 0.0
C364 C 0.88824 0.93608 0.18461 0.0
O365 O 0.76176 0.86718 0.16559 0.0
O366 O 0.82401 0.7784 0.17263 0.0
C367 C 0.83629 0.65513 0.19328 0.0
N368 N 0.85403 0.70727 0.20336 0.0
C369 C 0.85783 0.62407 0.22937 0.0
C370 C 0.84202 0.57509 0.21765 0.0
C371 C 0.8331 0.59061 0.19991 0.0
C372 C 0.87818 0.69806 0.21951 0.0
H373 H 0.82396 0.66246 0.1797 0.0
C374 C 0.78956 0.81234 0.16192 0.0
O375 O 0.69229 0.98386 0.17949 0.0
O376 O 0.64731 0.8923 0.18827 0.0
N377 N 0.89698 0.82103 0.21804 0.0
C378 C 0.91324 0.88172 0.22412 0.0
C379 C 0.90963 0.89821 0.24201 0.0
C380 C 0.88088 0.85702 0.25443 0.0
C381 C 0.85671 0.79667 0.24931 0.0
C382 C 0.88133 0.7735 0.22896 0.0
H383 H 0.92991 0.91899 0.21536 0.0
O384 O 0.73448 0.93191 0.21432 0.0
O385 O 0.77301 0.83553 0.20468 0.0
O386 O 0.8332 0.95947 0.18901 0.0
O387 O 0.89854 0.87604 0.18545 0.0
C388 C 0.82301 0.74318 0.26429 0.0
C389 C 0.82808 0.62104 0.25127 0.0
H390 H 0.82927 0.52692 0.22235 0.0
H391 H 0.81855 0.55188 0.19109 0.0
H392 H 0.92592 0.94611 0.24612 0.0
H393 H 0.8761 0.87292 0.26789 0.0
H394 H 0.81755 0.71191 0.26385 0.0
H395 H 0.81251 0.57336 0.25621 0.0
Mn396 Mn 0.11037 0.24186 0.43994 0.0
Mn397 Mn 0.2088 0.37084 0.44866 0.0
C398 C 0.14257 0.25342 0.4689 0.0
C399 C 0.08197 0.13247 0.43338 0.0
C400 C 0.06749 0.38437 0.43795 0.0
O401 O 0.15597 0.26099 0.41655 0.0
O402 O 0.22557 0.34319 0.42404 0.0
C403 C 0.35295 0.35398 0.44314 0.0
N404 N 0.30216 0.36464 0.45445 0.0
C405 C 0.39143 0.36369 0.47921 0.0
C406 C 0.43832 0.35506 0.46632 0.0
C407 C 0.41907 0.35189 0.44868 0.0
C408 C 0.31381 0.3821 0.47109 0.0
H409 H 0.34326 0.34667 0.4294 0.0
C410 C 0.2018 0.30186 0.41306 0.0
O411 O 0.0447 0.18147 0.42948 0.0
O412 O 0.13901 0.14708 0.43973 0.0
N413 N 0.1899 0.39469 0.47218 0.0
C414 C 0.12993 0.40564 0.47959 0.0
C415 C 0.11882 0.39708 0.49764 0.0
C416 C 0.16478 0.3669 0.5086 0.0
C417 C 0.22437 0.34614 0.50187 0.0
C418 C 0.24082 0.37758 0.48179 0.0
H419 H 0.08916 0.42109 0.47169 0.0
O420 O 0.08548 0.23138 0.46454 0.0
O421 O 0.17953 0.27712 0.45584 0.0
O422 O 0.05142 0.32469 0.43803 0.0
O423 O 0.12428 0.40192 0.44169 0.0
C424 C 0.28353 0.31223 0.51518 0.0
C425 C 0.40183 0.32839 0.5004 0.0
H426 H 0.48832 0.34383 0.46986 0.0
H427 H 0.45651 0.34308 0.43891 0.0
H428 H 0.07151 0.41019 0.50302 0.0
H429 H 0.15383 0.35988 0.52232 0.0
H430 H 0.31498 0.30902 0.51411 0.0
H431 H 0.45149 0.31448 0.50423 0.0
Mn432 Mn 0.78124 0.90529 0.56051 0.0
Mn433 Mn 0.68416 0.77246 0.5606 0.0
C434 C 0.75963 0.84951 0.53425 0.0
C435 C 0.88539 0.95324 0.56434 0.0
C436 C 0.63208 0.91105 0.56452 0.0
O437 O 0.77782 0.87899 0.58635 0.0
O438 O 0.72476 0.78299 0.58373 0.0
C439 C 0.78198 0.6674 0.56564 0.0
N440 N 0.73172 0.69386 0.55637 0.0
C441 C 0.71069 0.59204 0.54187 0.0
C442 C 0.76277 0.5635 0.55106 0.0
C443 C 0.79933 0.60173 0.56278 0.0
C444 C 0.69891 0.65875 0.54433 0.0
H445 H 0.80747 0.69586 0.57537 0.0
C446 C 0.75672 0.82503 0.59254 0.0
O447 O 0.83182 0.98676 0.56622 0.0
O448 O 0.8784 0.89217 0.56011 0.0
N449 N 0.64087 0.75465 0.53913 0.0
C450 C 0.593 0.79032 0.53125 0.0
C451 C 0.54969 0.7592 0.51977 0.0
C452 C 0.55487 0.6915 0.51704 0.0
C453 C 0.60631 0.65637 0.52477 0.0
C454 C 0.64955 0.69062 0.53548 0.0
H455 H 0.58632 0.84148 0.53425 0.0
O456 O 0.77965 0.90973 0.53423 0.0
O457 O 0.7539 0.82344 0.54962 0.0
O458 O 0.68661 0.9399 0.56199 0.0
O459 O 0.627 0.84905 0.565 0.0
C460 C 0.61416 0.58818 0.52315 0.0
C461 C 0.66758 0.55635 0.53119 0.0
H462 H 0.77428 0.5121 0.54947 0.0
H463 H 0.83908 0.57995 0.57008 0.0
H464 H 0.51047 0.78665 0.51373 0.0
H465 H 0.51831 0.66702 0.50924 0.0
H466 H 0.57936 0.55956 0.51579 0.0
H467 H 0.67379 0.5041 0.52952 0.0
Mn468 Mn 0.11882 0.28279 0.81408 0.0
Mn469 Mn 0.22951 0.1643 0.80676 0.0
C470 C 0.15412 0.27537 0.78514 0.0
C471 C 0.08103 0.38851 0.8221 0.0
C472 C 0.09126 0.13961 0.81829 0.0
O473 O 0.16255 0.26361 0.83771 0.0
O474 O 0.25 0.20055 0.83025 0.0
C475 C 0.37354 0.18715 0.809 0.0
N476 N 0.32073 0.17169 0.79894 0.0
C477 C 0.404 0.16676 0.77271 0.0
C478 C 0.45348 0.18011 0.78446 0.0
C479 C 0.43819 0.1886 0.80227 0.0
C480 C 0.32922 0.14856 0.78262 0.0
H481 H 0.36665 0.19889 0.82263 0.0
C482 C 0.21649 0.23422 0.8414 0.0
O483 O 0.04687 0.33639 0.82477 0.0
O484 O 0.13945 0.37917 0.81576 0.0
N485 N 0.20594 0.13273 0.78418 0.0
C486 C 0.14491 0.11843 0.77805 0.0
C487 C 0.12886 0.12393 0.76019 0.0
C488 C 0.17066 0.15359 0.74803 0.0
C489 C 0.23104 0.17686 0.7533 0.0
C490 C 0.25364 0.14929 0.77336 0.0
H491 H 0.10718 0.10181 0.78675 0.0
O492 O 0.09581 0.29472 0.78947 0.0
O493 O 0.19242 0.25451 0.79833 0.0
O494 O 0.06809 0.19522 0.81449 0.0
O495 O 0.15104 0.12843 0.81676 0.0
C496 C 0.28558 0.20958 0.7384 0.0
C497 C 0.40788 0.19828 0.75097 0.0
H498 H 0.50212 0.1915 0.77977 0.0
H499 H 0.47742 0.20134 0.81111 0.0
H500 H 0.08096 0.10831 0.75591 0.0
H501 H 0.15609 0.15784 0.73449 0.0
H502 H 0.3171 0.21367 0.73878 0.0
H503 H 0.45603 0.21246 0.746 0.0
Mn504 Mn 0.74999 0.60944 0.06468 0.0
Mn505 Mn 0.86237 0.72501 0.05598 0.0
C506 C 0.75366 0.64562 0.03566 0.0
C507 C 0.64618 0.56683 0.07287 0.0
C508 C 0.89641 0.58787 0.06657 0.0
O509 O 0.76822 0.65508 0.08823 0.0
O510 O 0.83003 0.74197 0.07992 0.0
C511 C 0.83228 0.86747 0.05979 0.0
N512 N 0.84828 0.81618 0.04914 0.0
C513 C 0.84932 0.90258 0.02363 0.0
C514 C 0.83483 0.95021 0.03592 0.0
C515 C 0.82798 0.93269 0.05363 0.0
C516 C 0.86921 0.82698 0.03275 0.0
H517 H 0.82254 0.85892 0.07348 0.0
C518 C 0.79786 0.70929 0.09141 0.0
O519 O 0.70025 0.53548 0.07549 0.0
O520 O 0.65232 0.62566 0.06669 0.0
N521 N 0.89041 0.70451 0.03284 0.0
C522 C 0.90703 0.64491 0.026 0.0
C523 C 0.90218 0.63125 0.00799 0.0
C524 C 0.87089 0.67371 0.99631 0.0
C525 C 0.84528 0.73248 0.00227 0.0
C526 C 0.87089 0.7528 0.02267 0.0
H527 H 0.92458 0.60628 0.03426 0.0
O528 O 0.73762 0.58641 0.0399 0.0
O529 O 0.77348 0.68404 0.04884 0.0
O530 O 0.84058 0.56185 0.06492 0.0
O531 O 0.90338 0.64773 0.06453 0.0
C532 C 0.81228 0.7882 0.98789 0.0
C533 C 0.81925 0.90875 1.00176 0.0
H534 H 0.822 0.99911 0.03176 0.0
H535 H 0.81481 0.97061 0.0629 0.0
H536 H 0.91956 0.58451 0.00316 0.0
H537 H 0.86714 0.66088 0.98262 0.0
H538 H 0.80749 0.81952 0.98862 0.0
H539 H 0.80418 0.95716 0.9972 0.0
Mn540 Mn 0.41314 0.25322 0.31647 0.0
Mn541 Mn 0.30291 0.37214 0.30767 0.0
C542 C 0.37793 0.25922 0.28736 0.0
C543 C 0.45191 0.14687 0.32394 0.0
C544 C 0.44145 0.39897 0.31845 0.0
O545 O 0.36671 0.27185 0.34 0.0
O546 O 0.28551 0.34213 0.3319 0.0
C547 C 0.15953 0.34792 0.31184 0.0
N548 N 0.21099 0.36162 0.30104 0.0
C549 C 0.12421 0.36278 0.27565 0.0
C550 C 0.07643 0.35083 0.28807 0.0
C551 C 0.09408 0.34504 0.30579 0.0
C552 C 0.2004 0.38157 0.28456 0.0
H553 H 0.16815 0.3389 0.32555 0.0
C554 C 0.31515 0.30633 0.34325 0.0
O555 O 0.48507 0.19924 0.32708 0.0
O556 O 0.39353 0.15625 0.3177 0.0
N557 N 0.32364 0.39812 0.28444 0.0
C558 C 0.38379 0.41168 0.27749 0.0
C559 C 0.39713 0.40483 0.25949 0.0
C560 C 0.35355 0.37421 0.248 0.0
C561 C 0.2941 0.35131 0.25415 0.0
C562 C 0.27457 0.37994 0.27438 0.0
H563 H 0.42315 0.42802 0.28568 0.0
O564 O 0.4367 0.24144 0.29165 0.0
O565 O 0.34 0.28087 0.30052 0.0
O566 O 0.46437 0.3414 0.31752 0.0
O567 O 0.38242 0.40984 0.31568 0.0
C568 C 0.23744 0.31812 0.24007 0.0
C569 C 0.11713 0.3302 0.25402 0.0
H570 H 0.02719 0.33893 0.28404 0.0
H571 H 0.05602 0.3337 0.31517 0.0
H572 H 0.44441 0.41988 0.25455 0.0
H573 H 0.36613 0.3687 0.23433 0.0
H574 H 0.20604 0.31427 0.24087 0.0
H575 H 0.06832 0.3159 0.24964 0.0
C576 C 0.22575 0.32431 0.12512 0.0
C577 C 0.23734 0.28224 0.11091 0.0
C578 C 0.22322 0.30034 0.14226 0.0
C579 C 0.23321 0.23351 0.1459 0.0
H580 H 0.21647 0.37583 0.12292 0.0
H581 H 0.21296 0.33463 0.1527 0.0
S582 S 0.2715 0.1044 0.11313 0.0
N583 N 0.26326 0.17179 0.10149 0.0
N584 N 0.25884 0.12629 0.13367 0.0
C585 C 0.24739 0.19138 0.13177 0.0
C586 C 0.24924 0.21584 0.1143 0.0
C587 C 0.83688 0.70781 0.38035 0.0
C588 C 0.81912 0.75759 0.39205 0.0
C589 C 0.80769 0.70341 0.36386 0.0
C590 C 0.75885 0.74814 0.35859 0.0
H591 H 0.87063 0.66976 0.38438 0.0
H592 H 0.82157 0.66274 0.35553 0.0
S593 S 0.7004 0.89137 0.38423 0.0
N594 N 0.75424 0.85526 0.39709 0.0
N595 N 0.6986 0.84737 0.3661 0.0
C596 C 0.74319 0.80016 0.36997 0.0
C597 C 0.77351 0.80475 0.3867 0.0
C598 C 0.31425 0.19235 0.62251 0.0
C599 C 0.29681 0.23008 0.60797 0.0
C600 C 0.31358 0.21922 0.63941 0.0
C601 C 0.29424 0.28463 0.64251 0.0
H602 H 0.33043 0.14225 0.62076 0.0
H603 H 0.32904 0.18826 0.65006 0.0
S604 S 0.23843 0.40181 0.60855 0.0
N605 N 0.25596 0.33441 0.59756 0.0
N606 N 0.25394 0.38521 0.62927 0.0
C607 C 0.27438 0.32208 0.62799 0.0
C608 C 0.27594 0.29477 0.61075 0.0
C609 C 0.81378 0.75279 0.87194 0.0
C610 C 0.78934 0.7985 0.85978 0.0
C611 C 0.7875 0.74839 0.88888 0.0
C612 C 0.73541 0.78881 0.89409 0.0
H613 H 0.85364 0.72027 0.86842 0.0
H614 H 0.80836 0.71368 0.89801 0.0
S615 S 0.65537 0.91863 0.86816 0.0
N616 N 0.71107 0.88723 0.85488 0.0
N617 N 0.66142 0.87682 0.88652 0.0
C618 C 0.71041 0.83446 0.88228 0.0
C619 C 0.73739 0.83981 0.86516 0.0
C620 C 0.79989 0.75661 0.61663 0.0
C621 C 0.76253 0.81068 0.61124 0.0
C622 C 0.7921 0.7298 0.63339 0.0
C623 C 0.74544 0.75523 0.6452 0.0
H624 H 0.83342 0.7332 0.60755 0.0
H625 H 0.8216 0.68777 0.6369 0.0
S626 S 0.63329 0.89551 0.63654 0.0
N627 N 0.67762 0.88873 0.61856 0.0
N628 N 0.66023 0.83777 0.64976 0.0
C629 C 0.7083 0.8102 0.63985 0.0
C630 C 0.71751 0.83803 0.62294 0.0
C631 C 0.33028 0.21944 0.88056 0.0
C632 C 0.28957 0.2357 0.89473 0.0
C633 C 0.30642 0.21986 0.86339 0.0
C634 C 0.24118 0.23767 0.85969 0.0
H635 H 0.38042 0.20433 0.88281 0.0
H636 H 0.33948 0.20552 0.85299 0.0
S637 S 0.11681 0.29038 0.89245 0.0
N638 N 0.18271 0.27419 0.90411 0.0
N639 N 0.13735 0.27545 0.87192 0.0
C640 C 0.2007 0.2564 0.87383 0.0
C641 C 0.225 0.2552 0.89132 0.0
C642 C 0.74485 0.71901 0.121 0.0
C643 C 0.79543 0.73667 0.10937 0.0
C644 C 0.74172 0.74521 0.13797 0.0
C645 C 0.78892 0.78983 0.14376 0.0
H646 H 0.70735 0.68491 0.11697 0.0
H647 H 0.70275 0.72994 0.14668 0.0
S648 S 0.93284 0.84968 0.11922 0.0
N649 N 0.89522 0.80036 0.10544 0.0
N650 N 0.88825 0.84924 0.13725 0.0
C651 C 0.83965 0.80771 0.13247 0.0
C652 C 0.84314 0.78128 0.11527 0.0
C653 C 0.25662 0.24611 0.38773 0.0
C654 C 0.22903 0.30281 0.39517 0.0
C655 C 0.28608 0.24773 0.37107 0.0
C656 C 0.28726 0.30571 0.36118 0.0
H657 H 0.25648 0.20061 0.39496 0.0
H658 H 0.30696 0.2031 0.36579 0.0
S659 S 0.22041 0.46694 0.37493 0.0
N660 N 0.20487 0.41815 0.3916 0.0
N661 N 0.25797 0.4211 0.36017 0.0
C662 C 0.25909 0.36246 0.36851 0.0
C663 C 0.23058 0.36104 0.38554 0.0
C664 C 0.2844 0.15086 0.25397 0.0
C665 C 0.299 0.17909 0.23748 0.0
C666 C 0.30569 0.17956 0.26999 0.0
C667 C 0.3533 0.22928 0.27022 0.0
H668 H 0.2535 0.10816 0.25454 0.0
H669 H 0.28621 0.16126 0.28222 0.0
S670 S 0.45862 0.26163 0.23129 0.0
N671 N 0.39243 0.22765 0.22289 0.0
N672 N 0.44668 0.26476 0.25271 0.0
C673 C 0.38658 0.23703 0.25399 0.0
C674 C 0.35719 0.21607 0.23762 0.0
C675 C 0.83426 0.73421 0.50116 0.0
C676 C 0.8132 0.76103 0.48519 0.0
C677 C 0.81004 0.75776 0.51727 0.0
C678 C 0.76534 0.81026 0.51796 0.0
H679 H 0.87288 0.69782 0.50124 0.0
H680 H 0.83123 0.73899 0.52923 0.0
S681 S 0.69016 0.8932 0.47996 0.0
N682 N 0.74048 0.83894 0.47117 0.0
N683 N 0.69638 0.88386 0.50135 0.0
C684 C 0.74043 0.83407 0.50211 0.0
C685 C 0.76401 0.80928 0.48574 0.0
C686 C 0.2432 0.38107 0.75024 0.0
C687 C 0.22731 0.35065 0.73412 0.0
C688 C 0.22405 0.35383 0.76665 0.0
C689 C 0.1775 0.30321 0.76763 0.0
H690 H 0.27401 0.42393 0.7502 0.0
H691 H 0.24437 0.37383 0.77857 0.0
S692 S 0.06802 0.26617 0.72998 0.0
N693 N 0.13303 0.29955 0.72072 0.0
N694 N 0.08238 0.2654 0.75127 0.0
C695 C 0.1425 0.29344 0.75179 0.0
C696 C 0.16979 0.31289 0.73504 0.0
C697 C 0.67431 0.71623 0.01781 0.0
C698 C 0.72494 0.66936 0.01837 0.0
C699 C 0.64672 0.73669 1.00161 0.0
C700 C 0.67682 0.722 0.98532 0.0
H701 H 0.65445 0.73568 0.0299 0.0
H702 H 0.60315 0.76673 1.00189 0.0
S703 S 0.76383 0.56386 0.97988 0.0
N704 N 0.76461 0.57633 1.00128 0.0
N705 N 0.72887 0.62912 0.97116 0.0
C706 C 0.71498 0.66441 0.98577 0.0
C707 C 0.73509 0.63581 0.00228 0.0
C708 C 0.35172 0.29815 0.01862 0.0
C709 C 0.30212 0.34612 0.01949 0.0
C710 C 0.37944 0.27856 0.00227 0.0
C711 C 0.35023 0.29582 0.98612 0.0
H712 H 0.3705 0.27696 0.03057 0.0
H713 H 0.42133 0.24613 0.0023 0.0
S714 S 0.26953 0.45735 0.98189 0.0
N715 N 0.2674 0.44267 0.00317 0.0
N716 N 0.30186 0.39155 0.97265 0.0
C717 C 0.31363 0.35423 0.98697 0.0
C718 C 0.29394 0.38172 0.00368 0.0
C719 C 0.72314 0.85062 0.2679 0.0
C720 C 0.67536 0.80124 0.26891 0.0
C721 C 0.74205 0.87791 0.25151 0.0
C722 C 0.72464 0.84832 0.2354 0.0
H723 H 0.74467 0.86961 0.27979 0.0
H724 H 0.7738 0.92008 0.25145 0.0
S725 S 0.5638 0.76663 0.23156 0.0
N726 N 0.57894 0.76524 0.25281 0.0
N727 N 0.62896 0.79922 0.22217 0.0
C728 C 0.66644 0.8117 0.23641 0.0
C729 C 0.63948 0.79239 0.25319 0.0
C730 C 0.21738 0.17365 0.48525 0.0
C731 C 0.16909 0.22301 0.48565 0.0
C732 C 0.24055 0.14426 0.50095 0.0
C733 C 0.22695 0.17167 0.51761 0.0
H734 H 0.23604 0.15633 0.47279 0.0
H735 H 0.27233 0.10205 0.49998 0.0
S736 S 0.06577 0.25058 0.52523 0.0
N737 N 0.07593 0.25532 0.50378 0.0
N738 N 0.13361 0.2176 0.53306 0.0
C739 C 0.16792 0.20766 0.51806 0.0
C740 C 0.13673 0.22906 0.50203 0.0
C741 C 0.78701 0.65193 0.75162 0.0
C742 C 0.80161 0.68192 0.73535 0.0
C743 C 0.80795 0.67909 0.76786 0.0
C744 C 0.85503 0.72926 0.76847 0.0
H745 H 0.75656 0.60887 0.75186 0.0
H746 H 0.78864 0.65929 0.77993 0.0
S747 S 0.95984 0.76769 0.72987 0.0
N748 N 0.89428 0.7335 0.72118 0.0
N749 N 0.94782 0.76823 0.7513 0.0
C750 C 0.88823 0.7393 0.75233 0.0
C751 C 0.85924 0.71969 0.73581 0.0
C752 C 1.00853 0.07495 0.19021 0.0
C753 C 0.06959 0.04616 0.18567 0.0
C754 C 0.9494 0.04101 0.18876 0.0
C755 C 0.94817 0.97683 0.18245 0.0
H756 H 1.00621 0.12405 0.19551 0.0
H757 H 0.90488 0.06438 0.19333 0.0
S758 S 0.09256 0.8823 0.16613 0.0
N759 N 0.12396 0.95189 0.17308 0.0
N760 N 0.01296 0.88799 0.1696 0.0
C761 C 1.00841 0.9487 0.17679 0.0
C762 C 0.06895 0.98312 0.17865 0.0
C763 C 0.95809 0.44017 0.44231 0.0
C764 C 0.0208 0.43901 0.43475 0.0
C765 C 0.92155 0.49879 0.44313 0.0
C766 C 0.94709 0.55849 0.43679 0.0
H767 H 0.93875 0.39669 0.44848 0.0
H768 H 0.87416 0.49775 0.44946 0.0
S769 S 0.1041 0.57868 0.41308 0.0
N770 N 0.10262 0.5007 0.41855 0.0
N771 N 0.03533 0.61029 0.42075 0.0
C772 C 1.00784 0.55676 0.42825 0.0
C773 C 0.04416 0.49722 0.42704 0.0
C774 C 0.51431 0.45283 0.67999 0.0
C775 C 0.45167 0.48259 0.68184 0.0
C776 C 0.57264 0.48906 0.68046 0.0
C777 C 0.57137 0.55707 0.68242 0.0
H778 H 0.51892 0.40028 0.67872 0.0
H779 H 0.61898 0.46342 0.67952 0.0
S780 S 0.42046 0.65992 0.68688 0.0
N781 N 0.39264 0.58462 0.68515 0.0
N782 N 0.50078 0.65357 0.68558 0.0
C783 C 0.50879 0.58794 0.68355 0.0
C784 C 0.44954 0.55067 0.68334 0.0
C785 C 0.44499 1.00582 0.93961 0.0
C786 C 0.47322 0.06564 0.93407 0.0
C787 C 0.47852 0.94611 0.93834 0.0
C788 C 0.54148 0.94313 0.93117 0.0
H789 H 0.39694 1.00509 0.94562 0.0
H790 H 0.45614 0.90275 0.94381 0.0
S791 S 0.63281 0.08318 0.91176 0.0
N792 N 0.56489 0.11658 0.91944 0.0
N793 N 0.62755 1.0044 0.91618 0.0
C794 C 0.5684 1.00186 0.92434 0.0
C795 C 0.53465 0.06299 0.92607 0.0
C796 C 0.01889 0.45114 0.07623 0.0
C797 C 0.08013 0.47934 0.07179 0.0
C798 C 0.95965 0.48571 0.0746 0.0
C799 C 0.95897 0.55045 0.06871 0.0
H800 H 0.01616 0.40073 0.08047 0.0
H801 H 0.91423 0.46138 0.07783 0.0
S802 S 0.10626 0.64856 0.05633 0.0
N803 N 0.13609 0.57669 0.06195 0.0
N804 N 0.02648 0.64268 0.05906 0.0
C805 C 0.02043 0.58018 0.0649 0.0
C806 C 0.08041 0.54461 0.06647 0.0
C807 C 0.48894 0.57901 0.31667 0.0
C808 C 0.55248 0.58019 0.32335 0.0
C809 C 0.4545 0.52017 0.31535 0.0
C810 C 0.48178 0.45929 0.32059 0.0
H811 H 0.46676 0.62318 0.31157 0.0
H812 H 0.40621 0.52269 0.30959 0.0
S813 S 0.64402 0.43698 0.34105 0.0
N814 N 0.6396 0.51612 0.33695 0.0
N815 N 0.57443 0.40556 0.33411 0.0
C816 C 0.54419 0.46014 0.32802 0.0
C817 C 0.57935 0.52042 0.32955 0.0
C818 C 0.50926 0.92445 0.56208 0.0
C819 C 0.57097 0.95077 0.56651 0.0
C820 C 0.45168 0.96272 0.56264 0.0
C821 C 0.45336 0.02859 0.56792 0.0
H822 H 0.50556 0.87445 0.55752 0.0
H823 H 0.40622 0.94131 0.55823 0.0
S824 S 0.6008 0.11765 0.58366 0.0
N825 N 0.62865 0.04478 0.57806 0.0
N826 N 0.52151 0.11581 0.57976 0.0
C827 C 0.51427 0.05392 0.57353 0.0
C828 C 0.57267 0.01542 0.57263 0.0
C829 C 0.98621 0.07852 0.81435 0.0
C830 C 0.05002 0.08039 0.82085 0.0
C831 C 0.95209 0.01939 0.81332 0.0
C832 C 0.98018 0.959 0.81862 0.0
H833 H 0.96345 0.1224 0.80925 0.0
H834 H 0.90345 0.02117 0.80775 0.0
S835 S 0.14321 0.93843 0.83873 0.0
N836 N 0.13802 0.01738 0.83446 0.0
N837 N 0.07368 0.90633 0.83199 0.0
C838 C 0.04287 0.9605 0.82584 0.0
C839 C 0.07757 0.02104 0.82715 0.0
C840 C 0.51567 0.94615 0.18126 0.0
C841 C 0.57333 0.98357 0.18107 0.0
C842 C 0.45334 0.976 0.18151 0.0
C843 C 0.44572 0.04467 0.18196 0.0
H844 H 0.51861 0.89328 0.18145 0.0
H845 H 0.41074 0.94471 0.18195 0.0
S846 S 0.58074 0.16536 0.1813 0.0
N847 N 0.61822 0.09375 0.18082 0.0
N848 N 0.50172 0.14908 0.18174 0.0
C849 C 0.50288 0.08266 0.18149 0.0
C850 C 0.56634 0.05238 0.18092 0.0
C851 C 0.9588 0.99307 0.43399 0.0
C852 C 0.99719 0.93696 0.43694 0.0
C853 C 0.98721 0.05508 0.43204 0.0
C854 C 0.05542 0.06438 0.43323 0.0
H855 H 0.90603 0.98926 0.43327 0.0
H856 H 0.95484 0.09648 0.43013 0.0
S857 S 0.17849 0.93329 0.4402 0.0
N858 N 0.10776 0.89446 0.44026 0.0
N859 N 0.16087 0.01125 0.43706 0.0
C860 C 0.09465 1.00857 0.43586 0.0
C861 C 0.06569 0.94497 0.43758 0.0
C862 C 0.06775 0.54892 0.67857 0.0
C863 C 0.07436 0.48011 0.6793 0.0
C864 C 1.00592 0.5801 0.67913 0.0
C865 C 0.94747 0.54399 0.68005 0.0
H866 H 0.11093 0.5794 0.67812 0.0
H867 H 1.00402 0.63302 0.679 0.0
S868 S 0.93691 0.36246 0.68178 0.0
N869 N 0.01621 0.37707 0.68081 0.0
N870 N 0.90074 0.43475 0.68135 0.0
C871 C 0.95332 0.47503 0.6803 0.0
C872 C 0.01633 0.44343 0.68007 0.0
C873 C 0.45112 0.49957 0.9297 0.0
C874 C 0.48846 0.44187 0.93101 0.0
C875 C 0.48093 0.56167 0.9294 0.0
C876 C 0.54945 0.56918 0.93079 0.0
H877 H 0.39826 0.49687 0.92907 0.0
H878 H 0.44955 0.60433 0.92864 0.0
S879 S 0.66983 0.43379 0.93451 0.0
N880 N 0.59839 0.39659 0.93341 0.0
N881 N 0.65365 0.51277 0.93332 0.0
C882 C 0.58741 0.51187 0.93191 0.0
C883 C 0.55719 0.44855 0.9319 0.0
C884 C 0.52286 0.57088 0.07566 0.0
C885 C 0.58103 0.53396 0.07491 0.0
C886 C 0.46099 0.54056 0.07603 0.0
C887 C 0.45421 0.47187 0.07531 0.0
H888 H 0.52501 0.62378 0.0757 0.0
H889 H 0.41796 0.5716 0.07627 0.0
S890 S 0.59098 0.35234 0.07363 0.0
N891 N 0.62749 0.4242 0.07402 0.0
N892 N 0.51172 0.36794 0.07427 0.0
C893 C 0.51196 0.43433 0.07488 0.0
C894 C 0.57504 0.46511 0.07481 0.0
C895 C 0.55188 0.07405 0.32603 0.0
C896 C 0.483 0.08038 0.32533 0.0
C897 C 0.58322 0.01239 0.32548 0.0
C898 C 0.54712 0.95402 0.3246 0.0
H899 H 0.58225 0.1173 0.32646 0.0
H900 H 0.63618 1.01052 0.32562 0.0
S901 S 0.36552 0.94285 0.32294 0.0
N902 N 0.37996 0.02212 0.32389 0.0
N903 N 0.43795 0.90694 0.32333 0.0
C904 C 0.47812 0.95961 0.32437 0.0
C905 C 0.44637 0.02239 0.32461 0.0
C906 C 0.95984 0.05159 0.56613 0.0
C907 C 0.95142 0.9832 0.56683 0.0
C908 C 0.02232 0.08031 0.56755 0.0
C909 C 0.07892 0.04196 0.57009 0.0
H910 H 0.91803 0.08322 0.56399 0.0
H911 H 0.02635 0.1329 0.56635 0.0
S912 S 0.08302 0.86064 0.57394 0.0
N913 N 1.00506 0.87821 0.57089 0.0
N914 N 0.12137 0.93147 0.57391 0.0
C915 C 0.07067 0.9736 0.5714 0.0
C916 C 1.00737 0.94446 0.56968 0.0
C917 C 0.95228 0.52452 0.82447 0.0
C918 C 0.9895 0.58227 0.82454 0.0
C919 C 0.98239 0.46238 0.82449 0.0
C920 C 0.05114 0.45506 0.8242 0.0
H921 H 0.89937 0.52722 0.82411 0.0
H922 H 0.95126 0.41967 0.82407 0.0
S923 S 0.17136 0.59039 0.82495 0.0
N924 N 0.09956 0.6276 0.82507 0.0
N925 N 0.1554 0.51135 0.82464 0.0
C926 C 0.08893 0.5123 0.82465 0.0
C927 C 0.05837 0.57559 0.82495 0.0
loop_
_geom_bond_atom_site_label_1
_geom_bond_atom_site_label_2
_geom_bond_distance
_geom_bond_site_symmetry_2
_ccdc_geom_bond_type
Mn0 O5 2.095 . S
Mn0 O15 2.162 . S
Mn0 O16 2.297 . S
Mn0 O24 2.385 . S
Mn0 O25 2.209 . S
Mn0 O26 2.094 . S
Mn1 O6 2.121 . S
Mn1 N8 2.257 . S
Mn1 N17 2.282 . S
Mn1 O25 2.215 . S
Mn1 O27 2.117 . S
C2 O24 1.234 . S
C2 O25 1.283 . S
C3 O15 1.281 . S
C3 O16 1.236 . S
C4 O26 1.240 . S
C4 O27 1.264 . S
O5 Mn0 2.095 . S
O5 C14 1.250 . S
O6 Mn1 2.121 . S
O6 C14 1.258 . S
C7 N8 1.326 . S
C7 C11 1.460 . S
C7 H13 0.929 . S
N8 Mn1 2.257 . S
N8 C7 1.326 . S
N8 C12 1.362 . S
C9 C10 1.258 . S
C9 C12 1.431 . S
C9 C29 1.449 . S
C10 C9 1.258 . S
C10 C11 1.477 . S
C10 H30 0.931 . S
C11 C7 1.460 . S
C11 C10 1.477 . S
C11 H31 0.930 . S
C12 N8 1.362 . S
C12 C9 1.431 . S
C12 C22 1.476 . S
H13 C7 0.929 . S
C14 O5 1.250 . S
C14 O6 1.258 . S
O15 Mn0 2.162 . S
O15 C3 1.281 . S
O16 Mn0 2.297 . S
O16 C3 1.236 . S
N17 Mn1 2.282 . S
N17 C18 1.328 . S
N17 C22 1.318 . S
C18 N17 1.328 . S
C18 C19 1.457 . S
C18 H23 0.929 . S
C19 C18 1.457 . S
C19 C20 1.291 . S
C19 H32 0.931 . S
C20 C19 1.291 . S
C20 C21 1.373 . S
C20 H33 0.929 . S
C21 C20 1.373 . S
C21 C22 1.396 . S
C21 C28 1.403 . S
C22 C12 1.476 . S
C22 N17 1.318 . S
C22 C21 1.396 . S
H23 C18 0.929 . S
O24 Mn0 2.385 . S
O24 C2 1.234 . S
O25 Mn0 2.209 . S
O25 Mn1 2.215 . S
O25 C2 1.283 . S
O26 Mn0 2.094 . S
O26 C4 1.240 . S
O27 Mn1 2.117 . S
O27 C4 1.264 . S
C28 C21 1.403 . S
C28 C29 1.399 . S
C28 H34 0.929 . S
C29 C9 1.449 . S
C29 C28 1.399 . S
C29 H35 0.930 . S
H30 C10 0.931 . S
H31 C11 0.930 . S
H32 C19 0.931 . S
H33 C20 0.929 . S
H34 C28 0.929 . S
H35 C29 0.930 . S
Mn36 O41 2.095 . S
Mn36 O51 2.162 . S
Mn36 O52 2.297 . S
Mn36 O60 2.385 . S
Mn36 O61 2.209 . S
Mn36 O62 2.094 . S
Mn37 O42 2.121 . S
Mn37 N44 2.257 . S
Mn37 N53 2.282 . S
Mn37 O61 2.215 . S
Mn37 O63 2.117 . S
C38 O60 1.234 . S
C38 O61 1.283 . S
C39 O51 1.281 . S
C39 O52 1.236 . S
C40 O62 1.240 . S
C40 O63 1.264 . S
O41 Mn36 2.095 . S
O41 C50 1.250 . S
O42 Mn37 2.121 . S
O42 C50 1.258 . S
C43 N44 1.326 . S
C43 C47 1.460 . S
C43 H49 0.929 . S
N44 Mn37 2.257 . S
N44 C43 1.326 . S
N44 C48 1.362 . S
C45 C46 1.258 . S
C45 C48 1.431 . S
C45 C65 1.449 . S
C46 C45 1.258 . S
C46 C47 1.477 . S
C46 H66 0.931 . S
C47 C43 1.460 . S
C47 C46 1.477 . S
C47 H67 0.930 . S
C48 N44 1.362 . S
C48 C45 1.431 . S
C48 C58 1.476 . S
H49 C43 0.929 . S
C50 O41 1.250 . S
C50 O42 1.258 . S
O51 Mn36 2.162 . S
O51 C39 1.281 . S
O52 Mn36 2.297 . S
O52 C39 1.236 . S
N53 Mn37 2.282 . S
N53 C54 1.328 . S
N53 C58 1.318 . S
C54 N53 1.328 . S
C54 C55 1.457 . S
C54 H59 0.929 . S
C55 C54 1.457 . S
C55 C56 1.291 . S
C55 H68 0.931 . S
C56 C55 1.291 . S
C56 C57 1.373 . S
C56 H69 0.929 . S
C57 C56 1.373 . S
C57 C58 1.396 . S
C57 C64 1.403 . S
C58 C48 1.476 . S
C58 N53 1.318 . S
C58 C57 1.396 . S
H59 C54 0.929 . S
O60 Mn36 2.385 . S
O60 C38 1.234 . S
O61 Mn36 2.209 . S
O61 Mn37 2.215 . S
O61 C38 1.283 . S
O62 Mn36 2.094 . S
O62 C40 1.240 . S
O63 Mn37 2.117 . S
O63 C40 1.264 . S
C64 C57 1.403 . S
C64 C65 1.399 . S
C64 H70 0.929 . S
C65 C45 1.449 . S
C65 C64 1.399 . S
C65 H71 0.930 . S
H66 C46 0.931 . S
H67 C47 0.930 . S
H68 C55 0.931 . S
H69 C56 0.929 . S
H70 C64 0.929 . S
H71 C65 0.930 . S
Mn72 O77 2.095 . S
Mn72 O87 2.162 . S
Mn72 O88 2.297 . S
Mn72 O96 2.385 . S
Mn72 O97 2.209 . S
Mn72 O98 2.094 . S
Mn73 O78 2.121 . S
Mn73 N80 2.257 . S
Mn73 N89 2.282 . S
Mn73 O97 2.215 . S
Mn73 O99 2.117 . S
C74 O96 1.234 . S
C74 O97 1.283 . S
C75 O87 1.281 . S
C75 O88 1.236 . S
C76 O98 1.240 . S
C76 O99 1.264 . S
O77 Mn72 2.095 . S
O77 C86 1.250 . S
O78 Mn73 2.121 . S
O78 C86 1.258 . S
C79 N80 1.326 . S
C79 C83 1.460 . S
C79 H85 0.929 . S
N80 Mn73 2.257 . S
N80 C79 1.326 . S
N80 C84 1.362 . S
C81 C82 1.258 . S
C81 C84 1.431 . S
C81 C101 1.449 . S
C82 C81 1.258 . S
C82 C83 1.477 . S
C82 H102 0.931 . S
C83 C79 1.460 . S
C83 C82 1.477 . S
C83 H103 0.930 . S
C84 N80 1.362 . S
C84 C81 1.431 . S
C84 C94 1.476 . S
H85 C79 0.929 . S
C86 O77 1.250 . S
C86 O78 1.258 . S
O87 Mn72 2.162 . S
O87 C75 1.281 . S
O88 Mn72 2.297 . S
O88 C75 1.236 . S
N89 Mn73 2.282 . S
N89 C90 1.328 . S
N89 C94 1.318 . S
C90 N89 1.328 . S
C90 C91 1.457 . S
C90 H95 0.929 . S
C91 C90 1.457 . S
C91 C92 1.291 . S
C91 H104 0.931 . S
C92 C91 1.291 . S
C92 C93 1.373 . S
C92 H105 0.929 . S
C93 C92 1.373 . S
C93 C94 1.396 . S
C93 C100 1.403 . S
C94 C84 1.476 . S
C94 N89 1.318 . S
C94 C93 1.396 . S
H95 C90 0.929 . S
O96 Mn72 2.385 . S
O96 C74 1.234 . S
O97 Mn72 2.209 . S
O97 Mn73 2.215 . S
O97 C74 1.283 . S
O98 Mn72 2.094 . S
O98 C76 1.240 . S
O99 Mn73 2.117 . S
O99 C76 1.264 . S
C100 C93 1.403 . S
C100 C101 1.399 . S
C100 H106 0.929 . S
C101 C81 1.449 . S
C101 C100 1.399 . S
C101 H107 0.930 . S
H102 C82 0.931 . S
H103 C83 0.930 . S
H104 C91 0.931 . S
H105 C92 0.929 . S
H106 C100 0.929 . S
H107 C101 0.930 . S
Mn108 O113 2.095 . S
Mn108 O123 2.162 . S
Mn108 O124 2.297 . S
Mn108 O132 2.385 . S
Mn108 O133 2.209 . S
Mn108 O134 2.094 . S
Mn109 O114 2.121 . S
Mn109 N116 2.257 . S
Mn109 N125 2.282 . S
Mn109 O133 2.215 . S
Mn109 O135 2.117 . S
C110 O132 1.234 . S
C110 O133 1.283 . S
C111 O123 1.281 . S
C111 O124 1.236 . S
C112 O134 1.240 . S
C112 O135 1.264 . S
O113 Mn108 2.095 . S
O113 C122 1.250 . S
O114 Mn109 2.121 . S
O114 C122 1.258 . S
C115 N116 1.326 . S
C115 C119 1.460 . S
C115 H121 0.929 . S
N116 Mn109 2.257 . S
N116 C115 1.326 . S
N116 C120 1.362 . S
C117 C118 1.258 . S
C117 C120 1.431 . S
C117 C137 1.449 . S
C118 C117 1.258 . S
C118 C119 1.477 . S
C118 H138 0.931 . S
C119 C115 1.460 . S
C119 C118 1.477 . S
C119 H139 0.930 . S
C120 N116 1.362 . S
C120 C117 1.431 . S
C120 C130 1.476 . S
H121 C115 0.929 . S
C122 O113 1.250 . S
C122 O114 1.258 . S
O123 Mn108 2.162 . S
O123 C111 1.281 . S
O124 Mn108 2.297 . S
O124 C111 1.236 . S
N125 Mn109 2.282 . S
N125 C126 1.328 . S
N125 C130 1.318 . S
C126 N125 1.328 . S
C126 C127 1.457 . S
C126 H131 0.929 . S
C127 C126 1.457 . S
C127 C128 1.291 1_556 S
C127 H140 0.931 1_556 S
C128 C127 1.291 1_554 S
C128 C129 1.373 1_554 S
C128 H141 0.929 . S
C129 C128 1.373 1_556 S
C129 C130 1.396 . S
C129 C136 1.403 1_556 S
C130 C120 1.476 . S
C130 N125 1.318 . S
C130 C129 1.396 . S
H131 C126 0.929 . S
O132 Mn108 2.385 . S
O132 C110 1.234 . S
O133 Mn108 2.209 . S
O133 Mn109 2.215 . S
O133 C110 1.283 . S
O134 Mn108 2.094 . S
O134 C112 1.240 . S
O135 Mn109 2.117 . S
O135 C112 1.264 . S
C136 C129 1.403 1_554 S
C136 C137 1.399 1_554 S
C136 H142 0.929 . S
C137 C117 1.449 . S
C137 C136 1.399 1_556 S
C137 H143 0.930 . S
H138 C118 0.931 . S
H139 C119 0.930 . S
H140 C127 0.931 1_554 S
H141 C128 0.929 . S
H142 C136 0.929 . S
H143 C137 0.930 . S
Mn144 O149 2.095 . S
Mn144 O159 2.162 . S
Mn144 O160 2.297 . S
Mn144 O168 2.385 . S
Mn144 O169 2.209 . S
Mn144 O170 2.094 . S
Mn145 O150 2.121 . S
Mn145 N152 2.257 . S
Mn145 N161 2.282 . S
Mn145 O169 2.215 . S
Mn145 O171 2.117 . S
C146 O168 1.234 . S
C146 O169 1.283 . S
C147 O159 1.281 . S
C147 O160 1.236 . S
C148 O170 1.240 . S
C148 O171 1.264 . S
O149 Mn144 2.095 . S
O149 C158 1.250 . S
O150 Mn145 2.121 . S
O150 C158 1.258 . S
C151 N152 1.326 . S
C151 C155 1.460 . S
C151 H157 0.929 . S
N152 Mn145 2.257 . S
N152 C151 1.326 . S
N152 C156 1.362 . S
C153 C154 1.258 . S
C153 C156 1.431 . S
C153 C173 1.449 . S
C154 C153 1.258 . S
C154 C155 1.477 . S
C154 H174 0.931 . S
C155 C151 1.460 . S
C155 C154 1.477 . S
C155 H175 0.930 . S
C156 N152 1.362 . S
C156 C153 1.431 . S
C156 C166 1.476 . S
H157 C151 0.929 . S
C158 O149 1.250 . S
C158 O150 1.258 . S
O159 Mn144 2.162 . S
O159 C147 1.281 . S
O160 Mn144 2.297 . S
O160 C147 1.236 . S
N161 Mn145 2.282 . S
N161 C162 1.328 . S
N161 C166 1.318 . S
C162 N161 1.328 . S
C162 C163 1.457 . S
C162 H167 0.929 . S
C163 C162 1.457 . S
C163 C164 1.291 1_554 S
C163 H176 0.931 1_554 S
C164 C163 1.291 1_556 S
C164 C165 1.373 1_556 S
C164 H177 0.929 . S
C165 C164 1.373 1_554 S
C165 C166 1.396 . S
C165 C172 1.403 1_554 S
C166 C156 1.476 . S
C166 N161 1.318 . S
C166 C165 1.396 . S
H167 C162 0.929 . S
O168 Mn144 2.385 . S
O168 C146 1.234 . S
O169 Mn144 2.209 . S
O169 Mn145 2.215 . S
O169 C146 1.283 . S
O170 Mn144 2.094 . S
O170 C148 1.240 . S
O171 Mn145 2.117 . S
O171 C148 1.264 . S
C172 C165 1.403 1_556 S
C172 C173 1.399 1_556 S
C172 H178 0.929 . S
C173 C153 1.449 . S
C173 C172 1.399 1_554 S
C173 H179 0.930 . S
H174 C154 0.931 . S
H175 C155 0.930 . S
H176 C163 0.931 1_556 S
H177 C164 0.929 . S
H178 C172 0.929 . S
H179 C173 0.930 . S
Mn180 O185 2.095 . S
Mn180 O195 2.162 . S
Mn180 O196 2.297 . S
Mn180 O204 2.385 . S
Mn180 O205 2.209 . S
Mn180 O206 2.094 . S
Mn181 O186 2.121 . S
Mn181 N188 2.257 . S
Mn181 N197 2.282 . S
Mn181 O205 2.215 . S
Mn181 O207 2.117 . S
C182 O204 1.234 . S
C182 O205 1.283 . S
C183 O195 1.281 . S
C183 O196 1.236 . S
C184 O206 1.240 . S
C184 O207 1.264 . S
O185 Mn180 2.095 . S
O185 C194 1.250 . S
O186 Mn181 2.121 . S
O186 C194 1.258 . S
C187 N188 1.326 . S
C187 C191 1.460 . S
C187 H193 0.929 . S
N188 Mn181 2.257 . S
N188 C187 1.326 . S
N188 C192 1.362 . S
C189 C190 1.258 . S
C189 C192 1.431 . S
C189 C209 1.449 . S
C190 C189 1.258 . S
C190 C191 1.477 . S
C190 H210 0.931 . S
C191 C187 1.460 . S
C191 C190 1.477 . S
C191 H211 0.930 . S
C192 N188 1.362 . S
C192 C189 1.431 . S
C192 C202 1.476 . S
H193 C187 0.929 . S
C194 O185 1.250 . S
C194 O186 1.258 . S
O195 Mn180 2.162 . S
O195 C183 1.281 . S
O196 Mn180 2.297 . S
O196 C183 1.236 . S
N197 Mn181 2.282 . S
N197 C198 1.328 . S
N197 C202 1.318 . S
C198 N197 1.328 . S
C198 C199 1.457 . S
C198 H203 0.929 . S
C199 C198 1.457 . S
C199 C200 1.291 . S
C199 H212 0.931 . S
C200 C199 1.291 . S
C200 C201 1.373 . S
C200 H213 0.929 . S
C201 C200 1.373 . S
C201 C202 1.396 . S
C201 C208 1.403 . S
C202 C192 1.476 . S
C202 N197 1.318 . S
C202 C201 1.396 . S
H203 C198 0.929 . S
O204 Mn180 2.385 . S
O204 C182 1.234 . S
O205 Mn180 2.209 . S
O205 Mn181 2.215 . S
O205 C182 1.283 . S
O206 Mn180 2.094 . S
O206 C184 1.240 . S
O207 Mn181 2.117 . S
O207 C184 1.264 . S
C208 C201 1.403 . S
C208 C209 1.399 . S
C208 H214 0.929 . S
C209 C189 1.449 . S
C209 C208 1.399 . S
C209 H215 0.930 . S
H210 C190 0.931 . S
H211 C191 0.930 . S
H212 C199 0.931 . S
H213 C200 0.929 . S
H214 C208 0.929 . S
H215 C209 0.930 . S
Mn216 O221 2.095 . S
Mn216 O231 2.162 . S
Mn216 O232 2.297 . S
Mn216 O240 2.385 . S
Mn216 O241 2.209 . S
Mn216 O242 2.094 . S
Mn217 O222 2.121 . S
Mn217 N224 2.257 . S
Mn217 N233 2.282 . S
Mn217 O241 2.215 . S
Mn217 O243 2.117 . S
C218 O240 1.234 . S
C218 O241 1.283 . S
C219 O231 1.281 . S
C219 O232 1.236 . S
C220 O242 1.240 . S
C220 O243 1.264 . S
O221 Mn216 2.095 . S
O221 C230 1.250 . S
O222 Mn217 2.121 . S
O222 C230 1.258 . S
C223 N224 1.326 . S
C223 C227 1.460 . S
C223 H229 0.929 . S
N224 Mn217 2.257 . S
N224 C223 1.326 . S
N224 C228 1.362 . S
C225 C226 1.258 . S
C225 C228 1.431 . S
C225 C245 1.449 . S
C226 C225 1.258 . S
C226 C227 1.477 . S
C226 H246 0.931 . S
C227 C223 1.460 . S
C227 C226 1.477 . S
C227 H247 0.930 . S
C228 N224 1.362 . S
C228 C225 1.431 . S
C228 C238 1.476 . S
H229 C223 0.929 . S
C230 O221 1.250 . S
C230 O222 1.258 . S
O231 Mn216 2.162 . S
O231 C219 1.281 . S
O232 Mn216 2.297 . S
O232 C219 1.236 . S
N233 Mn217 2.282 . S
N233 C234 1.328 . S
N233 C238 1.318 . S
C234 N233 1.328 . S
C234 C235 1.457 . S
C234 H239 0.929 . S
C235 C234 1.457 . S
C235 C236 1.291 . S
C235 H248 0.931 . S
C236 C235 1.291 . S
C236 C237 1.373 . S
C236 H249 0.929 . S
C237 C236 1.373 . S
C237 C238 1.396 . S
C237 C244 1.403 . S
C238 C228 1.476 . S
C238 N233 1.318 . S
C238 C237 1.396 . S
H239 C234 0.929 . S
O240 Mn216 2.385 . S
O240 C218 1.234 . S
O241 Mn216 2.209 . S
O241 Mn217 2.215 . S
O241 C218 1.283 . S
O242 Mn216 2.094 . S
O242 C220 1.240 . S
O243 Mn217 2.117 . S
O243 C220 1.264 . S
C244 C237 1.403 . S
C244 C245 1.399 . S
C244 H250 0.929 . S
C245 C225 1.449 . S
C245 C244 1.399 . S
C245 H251 0.930 . S
H246 C226 0.931 . S
H247 C227 0.930 . S
H248 C235 0.931 . S
H249 C236 0.929 . S
H250 C244 0.929 . S
H251 C245 0.930 . S
Mn252 O257 2.095 . S
Mn252 O267 2.162 . S
Mn252 O268 2.297 . S
Mn252 O276 2.385 . S
Mn252 O277 2.209 . S
Mn252 O278 2.094 . S
Mn253 O258 2.121 . S
Mn253 N260 2.257 . S
Mn253 N269 2.282 . S
Mn253 O277 2.215 . S
Mn253 O279 2.117 . S
C254 O276 1.234 . S
C254 O277 1.283 . S
C255 O267 1.281 . S
C255 O268 1.236 . S
C256 O278 1.240 . S
C256 O279 1.264 . S
O257 Mn252 2.095 . S
O257 C266 1.250 . S
O258 Mn253 2.121 . S
O258 C266 1.258 . S
C259 N260 1.326 . S
C259 C263 1.460 . S
C259 H265 0.929 . S
N260 Mn253 2.257 . S
N260 C259 1.326 . S
N260 C264 1.362 . S
C261 C262 1.258 . S
C261 C264 1.431 . S
C261 C281 1.449 . S
C262 C261 1.258 . S
C262 C263 1.477 . S
C262 H282 0.931 . S
C263 C259 1.460 . S
C263 C262 1.477 . S
C263 H283 0.930 . S
C264 N260 1.362 . S
C264 C261 1.431 . S
C264 C274 1.476 . S
H265 C259 0.929 . S
C266 O257 1.250 . S
C266 O258 1.258 . S
O267 Mn252 2.162 . S
O267 C255 1.281 . S
O268 Mn252 2.297 . S
O268 C255 1.236 . S
N269 Mn253 2.282 . S
N269 C270 1.328 . S
N269 C274 1.318 . S
C270 N269 1.328 . S
C270 C271 1.457 . S
C270 H275 0.929 . S
C271 C270 1.457 . S
C271 C272 1.291 . S
C271 H284 0.931 . S
C272 C271 1.291 . S
C272 C273 1.373 . S
C272 H285 0.929 . S
C273 C272 1.373 . S
C273 C274 1.396 . S
C273 C280 1.403 . S
C274 C264 1.476 . S
C274 N269 1.318 . S
C274 C273 1.396 . S
H275 C270 0.929 . S
O276 Mn252 2.385 . S
O276 C254 1.234 . S
O277 Mn252 2.209 . S
O277 Mn253 2.215 . S
O277 C254 1.283 . S
O278 Mn252 2.094 . S
O278 C256 1.240 . S
O279 Mn253 2.117 . S
O279 C256 1.264 . S
C280 C273 1.403 . S
C280 C281 1.399 . S
C280 H286 0.929 . S
C281 C261 1.449 . S
C281 C280 1.399 . S
C281 H287 0.930 . S
H282 C262 0.931 . S
H283 C263 0.930 . S
H284 C271 0.931 . S
H285 C272 0.929 . S
H286 C280 0.929 . S
H287 C281 0.930 . S
Mn288 O293 2.095 . S
Mn288 O303 2.162 . S
Mn288 O304 2.297 . S
Mn288 O312 2.385 . S
Mn288 O313 2.209 . S
Mn288 O314 2.094 . S
Mn289 O294 2.121 . S
Mn289 N296 2.257 . S
Mn289 N305 2.282 . S
Mn289 O313 2.215 . S
Mn289 O315 2.117 . S
C290 O312 1.234 . S
C290 O313 1.283 . S
C291 O303 1.281 . S
C291 O304 1.236 . S
C292 O314 1.240 . S
C292 O315 1.264 . S
O293 Mn288 2.095 . S
O293 C302 1.250 . S
O294 Mn289 2.121 . S
O294 C302 1.258 . S
C295 N296 1.326 . S
C295 C299 1.460 . S
C295 H301 0.929 . S
N296 Mn289 2.257 . S
N296 C295 1.326 . S
N296 C300 1.362 . S
C297 C298 1.258 . S
C297 C300 1.431 . S
C297 C317 1.449 . S
C298 C297 1.258 . S
C298 C299 1.477 . S
C298 H318 0.931 . S
C299 C295 1.460 . S
C299 C298 1.477 . S
C299 H319 0.930 . S
C300 N296 1.362 . S
C300 C297 1.431 . S
C300 C310 1.476 . S
H301 C295 0.929 . S
C302 O293 1.250 . S
C302 O294 1.258 . S
O303 Mn288 2.162 . S
O303 C291 1.281 . S
O304 Mn288 2.297 . S
O304 C291 1.236 . S
N305 Mn289 2.282 . S
N305 C306 1.328 . S
N305 C310 1.318 . S
C306 N305 1.328 . S
C306 C307 1.457 . S
C306 H311 0.929 . S
C307 C306 1.457 . S
C307 C308 1.291 . S
C307 H320 0.931 . S
C308 C307 1.291 . S
C308 C309 1.373 . S
C308 H321 0.929 . S
C309 C308 1.373 . S
C309 C310 1.396 . S
C309 C316 1.403 . S
C310 C300 1.476 . S
C310 N305 1.318 . S
C310 C309 1.396 . S
H311 C306 0.929 . S
O312 Mn288 2.385 . S
O312 C290 1.234 . S
O313 Mn288 2.209 . S
O313 Mn289 2.215 . S
O313 C290 1.283 . S
O314 Mn288 2.094 . S
O314 C292 1.240 . S
O315 Mn289 2.117 . S
O315 C292 1.264 . S
C316 C309 1.403 . S
C316 C317 1.399 . S
C316 H322 0.929 . S
C317 C297 1.449 . S
C317 C316 1.399 . S
C317 H323 0.930 . S
H318 C298 0.931 . S
H319 C299 0.930 . S
H320 C307 0.931 . S
H321 C308 0.929 . S
H322 C316 0.929 . S
H323 C317 0.930 . S
Mn324 O329 2.095 . S
Mn324 O339 2.162 . S
Mn324 O340 2.297 . S
Mn324 O348 2.385 . S
Mn324 O349 2.209 . S
Mn324 O350 2.094 . S
Mn325 O330 2.121 . S
Mn325 N332 2.257 . S
Mn325 N341 2.282 . S
Mn325 O349 2.215 . S
Mn325 O351 2.117 . S
C326 O348 1.234 . S
C326 O349 1.283 . S
C327 O339 1.281 . S
C327 O340 1.236 . S
C328 O350 1.240 . S
C328 O351 1.264 . S
O329 Mn324 2.095 . S
O329 C338 1.250 . S
O330 Mn325 2.121 . S
O330 C338 1.258 . S
C331 N332 1.326 . S
C331 C335 1.460 . S
C331 H337 0.929 . S
N332 Mn325 2.257 . S
N332 C331 1.326 . S
N332 C336 1.362 . S
C333 C334 1.258 . S
C333 C336 1.431 . S
C333 C353 1.449 . S
C334 C333 1.258 . S
C334 C335 1.477 . S
C334 H354 0.931 . S
C335 C331 1.460 . S
C335 C334 1.477 . S
C335 H355 0.930 . S
C336 N332 1.362 . S
C336 C333 1.431 . S
C336 C346 1.476 . S
H337 C331 0.929 . S
C338 O329 1.250 . S
C338 O330 1.258 . S
O339 Mn324 2.162 . S
O339 C327 1.281 . S
O340 Mn324 2.297 . S
O340 C327 1.236 . S
N341 Mn325 2.282 . S
N341 C342 1.328 . S
N341 C346 1.318 . S
C342 N341 1.328 . S
C342 C343 1.457 . S
C342 H347 0.929 . S
C343 C342 1.457 . S
C343 C344 1.291 1_556 S
C343 H356 0.931 1_556 S
C344 C343 1.291 1_554 S
C344 C345 1.373 1_554 S
C344 H357 0.929 . S
C345 C344 1.373 1_556 S
C345 C346 1.396 . S
C345 C352 1.403 1_556 S
C346 C336 1.476 . S
C346 N341 1.318 . S
C346 C345 1.396 . S
H347 C342 0.929 . S
O348 Mn324 2.385 . S
O348 C326 1.234 . S
O349 Mn324 2.209 . S
O349 Mn325 2.215 . S
O349 C326 1.283 . S
O350 Mn324 2.094 . S
O350 C328 1.240 . S
O351 Mn325 2.117 . S
O351 C328 1.264 . S
C352 C345 1.403 1_554 S
C352 C353 1.399 1_554 S
C352 H358 0.929 . S
C353 C333 1.449 . S
C353 C352 1.399 1_556 S
C353 H359 0.930 . S
H354 C334 0.931 . S
H355 C335 0.930 . S
H356 C343 0.931 1_554 S
H357 C344 0.929 . S
H358 C352 0.929 . S
H359 C353 0.930 . S
Mn360 O365 2.095 . S
Mn360 O375 2.162 . S
Mn360 O376 2.297 . S
Mn360 O384 2.385 . S
Mn360 O385 2.209 . S
Mn360 O386 2.094 . S
Mn361 O366 2.121 . S
Mn361 N368 2.257 . S
Mn361 N377 2.282 . S
Mn361 O385 2.215 . S
Mn361 O387 2.117 . S
C362 O384 1.234 . S
C362 O385 1.283 . S
C363 O375 1.281 . S
C363 O376 1.236 . S
C364 O386 1.240 . S
C364 O387 1.264 . S
O365 Mn360 2.095 . S
O365 C374 1.250 . S
O366 Mn361 2.121 . S
O366 C374 1.258 . S
C367 N368 1.326 . S
C367 C371 1.460 . S
C367 H373 0.929 . S
N368 Mn361 2.257 . S
N368 C367 1.326 . S
N368 C372 1.362 . S
C369 C370 1.258 . S
C369 C372 1.431 . S
C369 C389 1.449 . S
C370 C369 1.258 . S
C370 C371 1.477 . S
C370 H390 0.931 . S
C371 C367 1.460 . S
C371 C370 1.477 . S
C371 H391 0.930 . S
C372 N368 1.362 . S
C372 C369 1.431 . S
C372 C382 1.476 . S
H373 C367 0.929 . S
C374 O365 1.250 . S
C374 O366 1.258 . S
O375 Mn360 2.162 . S
O375 C363 1.281 . S
O376 Mn360 2.297 . S
O376 C363 1.236 . S
N377 Mn361 2.282 . S
N377 C378 1.328 . S
N377 C382 1.318 . S
C378 N377 1.328 . S
C378 C379 1.457 . S
C378 H383 0.929 . S
C379 C378 1.457 . S
C379 C380 1.291 . S
C379 H392 0.931 . S
C380 C379 1.291 . S
C380 C381 1.373 . S
C380 H393 0.929 . S
C381 C380 1.373 . S
C381 C382 1.396 . S
C381 C388 1.403 . S
C382 C372 1.476 . S
C382 N377 1.318 . S
C382 C381 1.396 . S
H383 C378 0.929 . S
O384 Mn360 2.385 . S
O384 C362 1.234 . S
O385 Mn360 2.209 . S
O385 Mn361 2.215 . S
O385 C362 1.283 . S
O386 Mn360 2.094 . S
O386 C364 1.240 . S
O387 Mn361 2.117 . S
O387 C364 1.264 . S
C388 C381 1.403 . S
C388 C389 1.399 . S
C388 H394 0.929 . S
C389 C369 1.449 . S
C389 C388 1.399 . S
C389 H395 0.930 . S
H390 C370 0.931 . S
H391 C371 0.930 . S
H392 C379 0.931 . S
H393 C380 0.929 . S
H394 C388 0.929 . S
H395 C389 0.930 . S
Mn396 O401 2.095 . S
Mn396 O411 2.162 . S
Mn396 O412 2.297 . S
Mn396 O420 2.385 . S
Mn396 O421 2.209 . S
Mn396 O422 2.094 . S
Mn397 O402 2.121 . S
Mn397 N404 2.257 . S
Mn397 N413 2.282 . S
Mn397 O421 2.215 . S
Mn397 O423 2.117 . S
C398 O420 1.234 . S
C398 O421 1.283 . S
C399 O411 1.281 . S
C399 O412 1.236 . S
C400 O422 1.240 . S
C400 O423 1.264 . S
O401 Mn396 2.095 . S
O401 C410 1.250 . S
O402 Mn397 2.121 . S
O402 C410 1.258 . S
C403 N404 1.326 . S
C403 C407 1.460 . S
C403 H409 0.929 . S
N404 Mn397 2.257 . S
N404 C403 1.326 . S
N404 C408 1.362 . S
C405 C406 1.258 . S
C405 C408 1.431 . S
C405 C425 1.449 . S
C406 C405 1.258 . S
C406 C407 1.477 . S
C406 H426 0.931 . S
C407 C403 1.460 . S
C407 C406 1.477 . S
C407 H427 0.930 . S
C408 N404 1.362 . S
C408 C405 1.431 . S
C408 C418 1.476 . S
H409 C403 0.929 . S
C410 O401 1.250 . S
C410 O402 1.258 . S
O411 Mn396 2.162 . S
O411 C399 1.281 . S
O412 Mn396 2.297 . S
O412 C399 1.236 . S
N413 Mn397 2.282 . S
N413 C414 1.328 . S
N413 C418 1.318 . S
C414 N413 1.328 . S
C414 C415 1.457 . S
C414 H419 0.929 . S
C415 C414 1.457 . S
C415 C416 1.291 . S
C415 H428 0.931 . S
C416 C415 1.291 . S
C416 C417 1.373 . S
C416 H429 0.929 . S
C417 C416 1.373 . S
C417 C418 1.396 . S
C417 C424 1.403 . S
C418 C408 1.476 . S
C418 N413 1.318 . S
C418 C417 1.396 . S
H419 C414 0.929 . S
O420 Mn396 2.385 . S
O420 C398 1.234 . S
O421 Mn396 2.209 . S
O421 Mn397 2.215 . S
O421 C398 1.283 . S
O422 Mn396 2.094 . S
O422 C400 1.240 . S
O423 Mn397 2.117 . S
O423 C400 1.264 . S
C424 C417 1.403 . S
C424 C425 1.399 . S
C424 H430 0.929 . S
C425 C405 1.449 . S
C425 C424 1.399 . S
C425 H431 0.930 . S
H426 C406 0.931 . S
H427 C407 0.930 . S
H428 C415 0.931 . S
H429 C416 0.929 . S
H430 C424 0.929 . S
H431 C425 0.930 . S
Mn432 O437 2.095 . S
Mn432 O447 2.162 . S
Mn432 O448 2.297 . S
Mn432 O456 2.385 . S
Mn432 O457 2.209 . S
Mn432 O458 2.094 . S
Mn433 O438 2.121 . S
Mn433 N440 2.257 . S
Mn433 N449 2.282 . S
Mn433 O457 2.215 . S
Mn433 O459 2.117 . S
C434 O456 1.234 . S
C434 O457 1.283 . S
C435 O447 1.281 . S
C435 O448 1.236 . S
C436 O458 1.240 . S
C436 O459 1.264 . S
O437 Mn432 2.095 . S
O437 C446 1.250 . S
O438 Mn433 2.121 . S
O438 C446 1.258 . S
C439 N440 1.326 . S
C439 C443 1.460 . S
C439 H445 0.929 . S
N440 Mn433 2.257 . S
N440 C439 1.326 . S
N440 C444 1.362 . S
C441 C442 1.258 . S
C441 C444 1.431 . S
C441 C461 1.449 . S
C442 C441 1.258 . S
C442 C443 1.477 . S
C442 H462 0.931 . S
C443 C439 1.460 . S
C443 C442 1.477 . S
C443 H463 0.930 . S
C444 N440 1.362 . S
C444 C441 1.431 . S
C444 C454 1.476 . S
H445 C439 0.929 . S
C446 O437 1.250 . S
C446 O438 1.258 . S
O447 Mn432 2.162 . S
O447 C435 1.281 . S
O448 Mn432 2.297 . S
O448 C435 1.236 . S
N449 Mn433 2.282 . S
N449 C450 1.328 . S
N449 C454 1.318 . S
C450 N449 1.328 . S
C450 C451 1.457 . S
C450 H455 0.929 . S
C451 C450 1.457 . S
C451 C452 1.291 . S
C451 H464 0.931 . S
C452 C451 1.291 . S
C452 C453 1.373 . S
C452 H465 0.929 . S
C453 C452 1.373 . S
C453 C454 1.396 . S
C453 C460 1.403 . S
C454 C444 1.476 . S
C454 N449 1.318 . S
C454 C453 1.396 . S
H455 C450 0.929 . S
O456 Mn432 2.385 . S
O456 C434 1.234 . S
O457 Mn432 2.209 . S
O457 Mn433 2.215 . S
O457 C434 1.283 . S
O458 Mn432 2.094 . S
O458 C436 1.240 . S
O459 Mn433 2.117 . S
O459 C436 1.264 . S
C460 C453 1.403 . S
C460 C461 1.399 . S
C460 H466 0.929 . S
C461 C441 1.449 . S
C461 C460 1.399 . S
C461 H467 0.930 . S
H462 C442 0.931 . S
H463 C443 0.930 . S
H464 C451 0.931 . S
H465 C452 0.929 . S
H466 C460 0.929 . S
H467 C461 0.930 . S
Mn468 O473 2.095 . S
Mn468 O483 2.162 . S
Mn468 O484 2.297 . S
Mn468 O492 2.385 . S
Mn468 O493 2.209 . S
Mn468 O494 2.094 . S
Mn469 O474 2.121 . S
Mn469 N476 2.257 . S
Mn469 N485 2.282 . S
Mn469 O493 2.215 . S
Mn469 O495 2.117 . S
C470 O492 1.234 . S
C470 O493 1.283 . S
C471 O483 1.281 . S
C471 O484 1.236 . S
C472 O494 1.240 . S
C472 O495 1.264 . S
O473 Mn468 2.095 . S
O473 C482 1.250 . S
O474 Mn469 2.121 . S
O474 C482 1.258 . S
C475 N476 1.326 . S
C475 C479 1.460 . S
C475 H481 0.929 . S
N476 Mn469 2.257 . S
N476 C475 1.326 . S
N476 C480 1.362 . S
C477 C478 1.258 . S
C477 C480 1.431 . S
C477 C497 1.449 . S
C478 C477 1.258 . S
C478 C479 1.477 . S
C478 H498 0.931 . S
C479 C475 1.460 . S
C479 C478 1.477 . S
C479 H499 0.930 . S
C480 N476 1.362 . S
C480 C477 1.431 . S
C480 C490 1.476 . S
H481 C475 0.929 . S
C482 O473 1.250 . S
C482 O474 1.258 . S
O483 Mn468 2.162 . S
O483 C471 1.281 . S
O484 Mn468 2.297 . S
O484 C471 1.236 . S
N485 Mn469 2.282 . S
N485 C486 1.328 . S
N485 C490 1.318 . S
C486 N485 1.328 . S
C486 C487 1.457 . S
C486 H491 0.929 . S
C487 C486 1.457 . S
C487 C488 1.291 . S
C487 H500 0.931 . S
C488 C487 1.291 . S
C488 C489 1.373 . S
C488 H501 0.929 . S
C489 C488 1.373 . S
C489 C490 1.396 . S
C489 C496 1.403 . S
C490 C480 1.476 . S
C490 N485 1.318 . S
C490 C489 1.396 . S
H491 C486 0.929 . S
O492 Mn468 2.385 . S
O492 C470 1.234 . S
O493 Mn468 2.209 . S
O493 Mn469 2.215 . S
O493 C470 1.283 . S
O494 Mn468 2.094 . S
O494 C472 1.240 . S
O495 Mn469 2.117 . S
O495 C472 1.264 . S
C496 C489 1.403 . S
C496 C497 1.399 . S
C496 H502 0.929 . S
C497 C477 1.449 . S
C497 C496 1.399 . S
C497 H503 0.930 . S
H498 C478 0.931 . S
H499 C479 0.930 . S
H500 C487 0.931 . S
H501 C488 0.929 . S
H502 C496 0.929 . S
H503 C497 0.930 . S
Mn504 O509 2.095 . S
Mn504 O519 2.162 . S
Mn504 O520 2.297 . S
Mn504 O528 2.385 . S
Mn504 O529 2.209 . S
Mn504 O530 2.094 . S
Mn505 O510 2.121 . S
Mn505 N512 2.257 . S
Mn505 N521 2.282 . S
Mn505 O529 2.215 . S
Mn505 O531 2.117 . S
C506 O528 1.234 . S
C506 O529 1.283 . S
C507 O519 1.281 . S
C507 O520 1.236 . S
C508 O530 1.240 . S
C508 O531 1.264 . S
O509 Mn504 2.095 . S
O509 C518 1.250 . S
O510 Mn505 2.121 . S
O510 C518 1.258 . S
C511 N512 1.326 . S
C511 C515 1.460 . S
C511 H517 0.929 . S
N512 Mn505 2.257 . S
N512 C511 1.326 . S
N512 C516 1.362 . S
C513 C514 1.258 . S
C513 C516 1.431 . S
C513 C533 1.449 . S
C514 C513 1.258 . S
C514 C515 1.477 . S
C514 H534 0.931 . S
C515 C511 1.460 . S
C515 C514 1.477 . S
C515 H535 0.930 . S
C516 N512 1.362 . S
C516 C513 1.431 . S
C516 C526 1.476 . S
H517 C511 0.929 . S
C518 O509 1.250 . S
C518 O510 1.258 . S
O519 Mn504 2.162 . S
O519 C507 1.281 . S
O520 Mn504 2.297 . S
O520 C507 1.236 . S
N521 Mn505 2.282 . S
N521 C522 1.328 . S
N521 C526 1.318 . S
C522 N521 1.328 . S
C522 C523 1.457 . S
C522 H527 0.929 . S
C523 C522 1.457 . S
C523 C524 1.291 1_554 S
C523 H536 0.931 1_554 S
C524 C523 1.291 1_556 S
C524 C525 1.373 1_556 S
C524 H537 0.929 . S
C525 C524 1.373 1_554 S
C525 C526 1.396 . S
C525 C532 1.403 1_554 S
C526 C516 1.476 . S
C526 N521 1.318 . S
C526 C525 1.396 . S
H527 C522 0.929 . S
O528 Mn504 2.385 . S
O528 C506 1.234 . S
O529 Mn504 2.209 . S
O529 Mn505 2.215 . S
O529 C506 1.283 . S
O530 Mn504 2.094 . S
O530 C508 1.240 . S
O531 Mn505 2.117 . S
O531 C508 1.264 . S
C532 C525 1.403 1_556 S
C532 C533 1.399 1_556 S
C532 H538 0.929 . S
C533 C513 1.449 . S
C533 C532 1.399 1_554 S
C533 H539 0.930 . S
H534 C514 0.931 . S
H535 C515 0.930 . S
H536 C523 0.931 1_556 S
H537 C524 0.929 . S
H538 C532 0.929 . S
H539 C533 0.930 . S
Mn540 O545 2.095 . S
Mn540 O555 2.162 . S
Mn540 O556 2.297 . S
Mn540 O564 2.385 . S
Mn540 O565 2.209 . S
Mn540 O566 2.094 . S
Mn541 O546 2.121 . S
Mn541 N548 2.257 . S
Mn541 N557 2.282 . S
Mn541 O565 2.215 . S
Mn541 O567 2.117 . S
C542 O564 1.234 . S
C542 O565 1.283 . S
C543 O555 1.281 . S
C543 O556 1.236 . S
C544 O566 1.240 . S
C544 O567 1.264 . S
O545 Mn540 2.095 . S
O545 C554 1.250 . S
O546 Mn541 2.121 . S
O546 C554 1.258 . S
C547 N548 1.326 . S
C547 C551 1.460 . S
C547 H553 0.929 . S
N548 Mn541 2.257 . S
N548 C547 1.326 . S
N548 C552 1.362 . S
C549 C550 1.258 . S
C549 C552 1.431 . S
C549 C569 1.449 . S
C550 C549 1.258 . S
C550 C551 1.477 . S
C550 H570 0.931 . S
C551 C547 1.460 . S
C551 C550 1.477 . S
C551 H571 0.930 . S
C552 N548 1.362 . S
C552 C549 1.431 . S
C552 C562 1.476 . S
H553 C547 0.929 . S
C554 O545 1.250 . S
C554 O546 1.258 . S
O555 Mn540 2.162 . S
O555 C543 1.281 . S
O556 Mn540 2.297 . S
O556 C543 1.236 . S
N557 Mn541 2.282 . S
N557 C558 1.328 . S
N557 C562 1.318 . S
C558 N557 1.328 . S
C558 C559 1.457 . S
C558 H563 0.929 . S
C559 C558 1.457 . S
C559 C560 1.291 . S
C559 H572 0.931 . S
C560 C559 1.291 . S
C560 C561 1.373 . S
C560 H573 0.929 . S
C561 C560 1.373 . S
C561 C562 1.396 . S
C561 C568 1.403 . S
C562 C552 1.476 . S
C562 N557 1.318 . S
C562 C561 1.396 . S
H563 C558 0.929 . S
O564 Mn540 2.385 . S
O564 C542 1.234 . S
O565 Mn540 2.209 . S
O565 Mn541 2.215 . S
O565 C542 1.283 . S
O566 Mn540 2.094 . S
O566 C544 1.240 . S
O567 Mn541 2.117 . S
O567 C544 1.264 . S
C568 C561 1.403 . S
C568 C569 1.399 . S
C568 H574 0.929 . S
C569 C549 1.449 . S
C569 C568 1.399 . S
C569 H575 0.930 . S
H570 C550 0.931 . S
H571 C551 0.930 . S
H572 C559 0.931 . S
H573 C560 0.929 . S
H574 C568 0.929 . S
H575 C569 0.930 . S
C576 C577 1.369 . S
C576 C578 1.419 . S
C576 H580 0.930 . S
C577 C576 1.369 . S
C577 C586 1.429 . S
C578 C576 1.419 . S
C578 C579 1.363 . S
C578 H581 0.929 . S
C579 C578 1.363 . S
C579 C585 1.428 . S
H580 C576 0.930 . S
H581 C578 0.929 . S
S582 N583 1.613 . S
S582 N584 1.610 . S
N583 S582 1.613 . S
N583 C586 1.350 . S
N584 S582 1.610 . S
N584 C585 1.351 . S
C585 C579 1.428 . S
C585 N584 1.351 . S
C585 C586 1.434 . S
C586 C577 1.429 . S
C586 N583 1.350 . S
C586 C585 1.434 . S
C587 C588 1.369 . S
C587 C589 1.419 . S
C587 H591 0.930 . S
C588 C587 1.369 . S
C588 C597 1.429 . S
C589 C587 1.419 . S
C589 C590 1.363 . S
C589 H592 0.929 . S
C590 C589 1.363 . S
C590 C596 1.428 . S
H591 C587 0.930 . S
H592 C589 0.929 . S
S593 N594 1.613 . S
S593 N595 1.610 . S
N594 S593 1.613 . S
N594 C597 1.350 . S
N595 S593 1.610 . S
N595 C596 1.351 . S
C596 C590 1.428 . S
C596 N595 1.351 . S
C596 C597 1.434 . S
C597 C588 1.429 . S
C597 N594 1.350 . S
C597 C596 1.434 . S
C598 C599 1.369 . S
C598 C600 1.419 . S
C598 H602 0.930 . S
C599 C598 1.369 . S
C599 C608 1.429 . S
C600 C598 1.419 . S
C600 C601 1.363 . S
C600 H603 0.929 . S
C601 C600 1.363 . S
C601 C607 1.428 . S
H602 C598 0.930 . S
H603 C600 0.929 . S
S604 N605 1.613 . S
S604 N606 1.610 . S
N605 S604 1.613 . S
N605 C608 1.350 . S
N606 S604 1.610 . S
N606 C607 1.351 . S
C607 C601 1.428 . S
C607 N606 1.351 . S
C607 C608 1.434 . S
C608 C599 1.429 . S
C608 N605 1.350 . S
C608 C607 1.434 . S
C609 C610 1.369 . S
C609 C611 1.419 . S
C609 H613 0.930 . S
C610 C609 1.369 . S
C610 C619 1.429 . S
C611 C609 1.419 . S
C611 C612 1.363 . S
C611 H614 0.929 . S
C612 C611 1.363 . S
C612 C618 1.428 . S
H613 C609 0.930 . S
H614 C611 0.929 . S
S615 N616 1.613 . S
S615 N617 1.610 . S
N616 S615 1.613 . S
N616 C619 1.350 . S
N617 S615 1.610 . S
N617 C618 1.351 . S
C618 C612 1.428 . S
C618 N617 1.351 . S
C618 C619 1.434 . S
C619 C610 1.429 . S
C619 N616 1.350 . S
C619 C618 1.434 . S
C620 C621 1.369 . S
C620 C622 1.419 . S
C620 H624 0.930 . S
C621 C620 1.369 . S
C621 C630 1.429 . S
C622 C620 1.419 . S
C622 C623 1.363 . S
C622 H625 0.929 . S
C623 C622 1.363 . S
C623 C629 1.428 . S
H624 C620 0.930 . S
H625 C622 0.929 . S
S626 N627 1.613 . S
S626 N628 1.610 . S
N627 S626 1.613 . S
N627 C630 1.350 . S
N628 S626 1.610 . S
N628 C629 1.351 . S
C629 C623 1.428 . S
C629 N628 1.351 . S
C629 C630 1.434 . S
C630 C621 1.429 . S
C630 N627 1.350 . S
C630 C629 1.434 . S
C631 C632 1.369 . S
C631 C633 1.419 . S
C631 H635 0.930 . S
C632 C631 1.369 . S
C632 C641 1.429 . S
C633 C631 1.419 . S
C633 C634 1.363 . S
C633 H636 0.929 . S
C634 C633 1.363 . S
C634 C640 1.428 . S
H635 C631 0.930 . S
H636 C633 0.929 . S
S637 N638 1.613 . S
S637 N639 1.610 . S
N638 S637 1.613 . S
N638 C641 1.350 . S
N639 S637 1.610 . S
N639 C640 1.351 . S
C640 C634 1.428 . S
C640 N639 1.351 . S
C640 C641 1.434 . S
C641 C632 1.429 . S
C641 N638 1.350 . S
C641 C640 1.434 . S
C642 C643 1.369 . S
C642 C644 1.419 . S
C642 H646 0.930 . S
C643 C642 1.369 . S
C643 C652 1.429 . S
C644 C642 1.419 . S
C644 C645 1.363 . S
C644 H647 0.929 . S
C645 C644 1.363 . S
C645 C651 1.428 . S
H646 C642 0.930 . S
H647 C644 0.929 . S
S648 N649 1.613 . S
S648 N650 1.610 . S
N649 S648 1.613 . S
N649 C652 1.350 . S
N650 S648 1.610 . S
N650 C651 1.351 . S
C651 C645 1.428 . S
C651 N650 1.351 . S
C651 C652 1.434 . S
C652 C643 1.429 . S
C652 N649 1.350 . S
C652 C651 1.434 . S
C653 C654 1.369 . S
C653 C655 1.419 . S
C653 H657 0.930 . S
C654 C653 1.369 . S
C654 C663 1.429 . S
C655 C653 1.419 . S
C655 C656 1.363 . S
C655 H658 0.929 . S
C656 C655 1.363 . S
C656 C662 1.428 . S
H657 C653 0.930 . S
H658 C655 0.929 . S
S659 N660 1.613 . S
S659 N661 1.610 . S
N660 S659 1.613 . S
N660 C663 1.350 . S
N661 S659 1.610 . S
N661 C662 1.351 . S
C662 C656 1.428 . S
C662 N661 1.351 . S
C662 C663 1.434 . S
C663 C654 1.429 . S
C663 N660 1.350 . S
C663 C662 1.434 . S
C664 C665 1.369 . S
C664 C666 1.419 . S
C664 H668 0.930 . S
C665 C664 1.369 . S
C665 C674 1.429 . S
C666 C664 1.419 . S
C666 C667 1.363 . S
C666 H669 0.929 . S
C667 C666 1.363 . S
C667 C673 1.428 . S
H668 C664 0.930 . S
H669 C666 0.929 . S
S670 N671 1.613 . S
S670 N672 1.610 . S
N671 S670 1.613 . S
N671 C674 1.350 . S
N672 S670 1.610 . S
N672 C673 1.351 . S
C673 C667 1.428 . S
C673 N672 1.351 . S
C673 C674 1.434 . S
C674 C665 1.429 . S
C674 N671 1.350 . S
C674 C673 1.434 . S
C675 C676 1.369 . S
C675 C677 1.419 . S
C675 H679 0.930 . S
C676 C675 1.369 . S
C676 C685 1.429 . S
C677 C675 1.419 . S
C677 C678 1.363 . S
C677 H680 0.929 . S
C678 C677 1.363 . S
C678 C684 1.428 . S
H679 C675 0.930 . S
H680 C677 0.929 . S
S681 N682 1.613 . S
S681 N683 1.610 . S
N682 S681 1.613 . S
N682 C685 1.350 . S
N683 S681 1.610 . S
N683 C684 1.351 . S
C684 C678 1.428 . S
C684 N683 1.351 . S
C684 C685 1.434 . S
C685 C676 1.429 . S
C685 N682 1.350 . S
C685 C684 1.434 . S
C686 C687 1.369 . S
C686 C688 1.419 . S
C686 H690 0.930 . S
C687 C686 1.369 . S
C687 C696 1.429 . S
C688 C686 1.419 . S
C688 C689 1.363 . S
C688 H691 0.929 . S
C689 C688 1.363 . S
C689 C695 1.428 . S
H690 C686 0.930 . S
H691 C688 0.929 . S
S692 N693 1.613 . S
S692 N694 1.610 . S
N693 S692 1.613 . S
N693 C696 1.350 . S
N694 S692 1.610 . S
N694 C695 1.351 . S
C695 C689 1.428 . S
C695 N694 1.351 . S
C695 C696 1.434 . S
C696 C687 1.429 . S
C696 N693 1.350 . S
C696 C695 1.434 . S
C697 C698 1.369 . S
C697 C699 1.419 1_554 S
C697 H701 0.930 . S
C698 C697 1.369 . S
C698 C707 1.429 . S
C699 C697 1.419 1_556 S
C699 C700 1.363 . S
C699 H702 0.929 . S
C700 C699 1.363 . S
C700 C706 1.428 . S
H701 C697 0.930 . S
H702 C699 0.929 . S
S703 N704 1.613 1_556 S
S703 N705 1.610 . S
N704 S703 1.613 1_554 S
N704 C707 1.350 . S
N705 S703 1.610 . S
N705 C706 1.351 . S
C706 C700 1.428 . S
C706 N705 1.351 . S
C706 C707 1.434 1_556 S
C707 C698 1.429 . S
C707 N704 1.350 . S
C707 C706 1.434 1_554 S
C708 C709 1.369 . S
C708 C710 1.419 1_554 S
C708 H712 0.930 . S
C709 C708 1.369 . S
C709 C718 1.429 . S
C710 C708 1.419 1_556 S
C710 C711 1.363 . S
C710 H713 0.929 . S
C711 C710 1.363 . S
C711 C717 1.428 . S
H712 C708 0.930 . S
H713 C710 0.929 . S
S714 N715 1.613 1_556 S
S714 N716 1.610 . S
N715 S714 1.613 1_554 S
N715 C718 1.350 . S
N716 S714 1.610 . S
N716 C717 1.351 . S
C717 C711 1.428 . S
C717 N716 1.351 . S
C717 C718 1.434 1_556 S
C718 C709 1.429 . S
C718 N715 1.350 . S
C718 C717 1.434 1_554 S
C719 C720 1.369 . S
C719 C721 1.419 . S
C719 H723 0.930 . S
C720 C719 1.369 . S
C720 C729 1.429 . S
C721 C719 1.419 . S
C721 C722 1.363 . S
C721 H724 0.929 . S
C722 C721 1.363 . S
C722 C728 1.428 . S
H723 C719 0.930 . S
H724 C721 0.929 . S
S725 N726 1.613 . S
S725 N727 1.610 . S
N726 S725 1.613 . S
N726 C729 1.350 . S
N727 S725 1.610 . S
N727 C728 1.351 . S
C728 C722 1.428 . S
C728 N727 1.351 . S
C728 C729 1.434 . S
C729 C720 1.429 . S
C729 N726 1.350 . S
C729 C728 1.434 . S
C730 C731 1.369 . S
C730 C732 1.419 . S
C730 H734 0.930 . S
C731 C730 1.369 . S
C731 C740 1.429 . S
C732 C730 1.419 . S
C732 C733 1.363 . S
C732 H735 0.929 . S
C733 C732 1.363 . S
C733 C739 1.428 . S
H734 C730 0.930 . S
H735 C732 0.929 . S
S736 N737 1.613 . S
S736 N738 1.610 . S
N737 S736 1.613 . S
N737 C740 1.350 . S
N738 S736 1.610 . S
N738 C739 1.351 . S
C739 C733 1.428 . S
C739 N738 1.351 . S
C739 C740 1.434 . S
C740 C731 1.429 . S
C740 N737 1.350 . S
C740 C739 1.434 . S
C741 C742 1.369 . S
C741 C743 1.419 . S
C741 H745 0.930 . S
C742 C741 1.369 . S
C742 C751 1.429 . S
C743 C741 1.419 . S
C743 C744 1.363 . S
C743 H746 0.929 . S
C744 C743 1.363 . S
C744 C750 1.428 . S
H745 C741 0.930 . S
H746 C743 0.929 . S
S747 N748 1.613 . S
S747 N749 1.610 . S
N748 S747 1.613 . S
N748 C751 1.350 . S
N749 S747 1.610 . S
N749 C750 1.351 . S
C750 C744 1.428 . S
C750 N749 1.351 . S
C750 C751 1.434 . S
C751 C742 1.429 . S
C751 N748 1.350 . S
C751 C750 1.434 . S
C752 C753 1.379 . S
C752 C754 1.409 1_455 S
C752 H756 0.930 1_455 S
C753 C752 1.379 . S
C753 C762 1.429 1_545 S
C754 C752 1.409 1_655 S
C754 C755 1.363 1_545 S
C754 H757 0.929 . S
C755 C754 1.363 1_565 S
C755 C761 1.428 1_655 S
H756 C752 0.930 1_655 S
H757 C754 0.929 . S
S758 N759 1.613 . S
S758 N760 1.610 . S
N759 S758 1.613 . S
N759 C762 1.350 . S
N760 S758 1.610 . S
N760 C761 1.351 . S
C761 C755 1.428 1_455 S
C761 N760 1.351 . S
C761 C762 1.434 . S
C762 C753 1.429 1_565 S
C762 N759 1.350 . S
C762 C761 1.434 . S
C763 C764 1.369 1_655 S
C763 C765 1.419 . S
C763 H767 0.930 . S
C764 C763 1.369 1_455 S
C764 C773 1.429 . S
C765 C763 1.419 . S
C765 C766 1.363 . S
C765 H768 0.929 . S
C766 C765 1.363 . S
C766 C772 1.428 1_655 S
H767 C763 0.930 . S
H768 C765 0.929 . S
S769 N770 1.613 . S
S769 N771 1.610 . S
N770 S769 1.613 . S
N770 C773 1.350 . S
N771 S769 1.610 . S
N771 C772 1.351 . S
C772 C766 1.428 1_455 S
C772 N771 1.351 . S
C772 C773 1.434 . S
C773 C764 1.429 . S
C773 N770 1.350 . S
C773 C772 1.434 . S
C774 C775 1.369 . S
C774 C776 1.419 . S
C774 H778 0.930 . S
C775 C774 1.369 . S
C775 C784 1.429 . S
C776 C774 1.419 . S
C776 C777 1.363 . S
C776 H779 0.929 . S
C777 C776 1.363 . S
C777 C783 1.428 . S
H778 C774 0.930 . S
H779 C776 0.929 . S
S780 N781 1.613 . S
S780 N782 1.610 . S
N781 S780 1.613 . S
N781 C784 1.350 . S
N782 S780 1.610 . S
N782 C783 1.351 . S
C783 C777 1.428 . S
C783 N782 1.351 . S
C783 C784 1.434 . S
C784 C775 1.429 . S
C784 N781 1.350 . S
C784 C783 1.434 . S
C785 C786 1.369 . S
C785 C787 1.419 1_545 S
C785 H789 0.930 . S
C786 C785 1.369 . S
C786 C795 1.429 . S
C787 C785 1.419 1_565 S
C787 C788 1.363 . S
C787 H790 0.929 . S
C788 C787 1.363 . S
C788 C794 1.438 . S
H789 C785 0.930 . S
H790 C787 0.929 . S
S791 N792 1.613 . S
S791 N793 1.610 . S
N792 S791 1.613 . S
N792 C795 1.350 . S
N793 S791 1.610 . S
N793 C794 1.350 1_545 S
C794 C788 1.438 . S
C794 N793 1.350 1_565 S
C794 C795 1.424 1_565 S
C795 C786 1.429 . S
C795 N792 1.350 . S
C795 C794 1.424 1_545 S
C796 C797 1.369 . S
C796 C798 1.419 1_455 S
C796 H800 0.930 . S
C797 C796 1.369 . S
C797 C806 1.429 . S
C798 C796 1.419 1_655 S
C798 C799 1.363 . S
C798 H801 0.929 . S
C799 C798 1.363 . S
C799 C805 1.428 . S
H800 C796 0.930 . S
H801 C798 0.929 . S
S802 N803 1.613 . S
S802 N804 1.610 1_455 S
N803 S802 1.613 . S
N803 C806 1.350 . S
N804 S802 1.610 1_655 S
N804 C805 1.351 . S
C805 C799 1.428 . S
C805 N804 1.351 . S
C805 C806 1.434 1_655 S
C806 C797 1.429 . S
C806 N803 1.350 . S
C806 C805 1.434 1_455 S
C807 C808 1.369 . S
C807 C809 1.419 . S
C807 H811 0.930 . S
C808 C807 1.369 . S
C808 C817 1.429 . S
C809 C807 1.419 . S
C809 C810 1.363 . S
C809 H812 0.929 . S
C810 C809 1.363 . S
C810 C816 1.428 . S
H811 C807 0.930 . S
H812 C809 0.929 . S
S813 N814 1.613 . S
S813 N815 1.610 . S
N814 S813 1.613 . S
N814 C817 1.350 . S
N815 S813 1.610 . S
N815 C816 1.351 . S
C816 C810 1.428 . S
C816 N815 1.351 . S
C816 C817 1.434 . S
C817 C808 1.429 . S
C817 N814 1.350 . S
C817 C816 1.434 . S
C818 C819 1.369 . S
C818 C820 1.419 1_565 S
C818 H822 0.930 . S
C819 C818 1.369 . S
C819 C828 1.428 1_565 S
C820 C818 1.419 1_545 S
C820 C821 1.363 . S
C820 H823 0.929 . S
C821 C820 1.363 . S
C821 C827 1.428 . S
H822 C818 0.930 . S
H823 C820 0.929 . S
S824 N825 1.613 . S
S824 N826 1.610 . S
N825 S824 1.613 . S
N825 C828 1.350 . S
N826 S824 1.610 . S
N826 C827 1.351 . S
C827 C821 1.428 . S
C827 N826 1.351 . S
C827 C828 1.434 . S
C828 C819 1.428 1_545 S
C828 N825 1.350 . S
C828 C827 1.434 . S
C829 C830 1.369 1_655 S
C829 C831 1.419 1_545 S
C829 H833 0.930 . S
C830 C829 1.369 1_455 S
C830 C839 1.429 . S
C831 C829 1.419 1_565 S
C831 C832 1.363 . S
C831 H834 0.929 . S
C832 C831 1.363 . S
C832 C838 1.428 1_655 S
H833 C829 0.930 . S
H834 C831 0.929 . S
S835 N836 1.613 1_565 S
S835 N837 1.610 . S
N836 S835 1.613 1_545 S
N836 C839 1.350 . S
N837 S835 1.610 . S
N837 C838 1.351 . S
C838 C832 1.428 1_455 S
C838 N837 1.351 . S
C838 C839 1.434 1_565 S
C839 C830 1.429 . S
C839 N836 1.350 . S
C839 C838 1.434 1_545 S
C840 C841 1.369 . S
C840 C842 1.419 . S
C840 H844 0.930 . S
C841 C840 1.369 . S
C841 C850 1.429 1_565 S
C842 C840 1.419 . S
C842 C843 1.363 1_565 S
C842 H845 0.929 . S
C843 C842 1.363 1_545 S
C843 C849 1.428 . S
H844 C840 0.930 . S
H845 C842 0.929 . S
S846 N847 1.613 . S
S846 N848 1.610 . S
N847 S846 1.613 . S
N847 C850 1.350 . S
N848 S846 1.610 . S
N848 C849 1.351 . S
C849 C843 1.428 . S
C849 N848 1.351 . S
C849 C850 1.434 . S
C850 C841 1.429 1_545 S
C850 N847 1.350 . S
C850 C849 1.434 . S
C851 C852 1.369 . S
C851 C853 1.419 1_565 S
C851 H855 0.930 . S
C852 C851 1.369 . S
C852 C861 1.429 1_655 S
C853 C851 1.419 1_545 S
C853 C854 1.363 1_655 S
C853 H856 0.929 . S
C854 C853 1.363 1_455 S
C854 C860 1.428 . S
H855 C851 0.930 . S
H856 C853 0.929 . S
S857 N858 1.613 . S
S857 N859 1.610 1_565 S
N858 S857 1.613 . S
N858 C861 1.350 . S
N859 S857 1.610 1_545 S
N859 C860 1.351 . S
C860 C854 1.428 . S
C860 N859 1.351 . S
C860 C861 1.434 1_545 S
C861 C852 1.429 1_455 S
C861 N858 1.350 . S
C861 C860 1.434 1_565 S
C862 C863 1.369 . S
C862 C864 1.419 1_455 S
C862 H866 0.930 . S
C863 C862 1.369 . S
C863 C872 1.429 . S
C864 C862 1.419 1_655 S
C864 C865 1.363 . S
C864 H867 0.929 . S
C865 C864 1.363 . S
C865 C871 1.428 . S
H866 C862 0.930 . S
H867 C864 0.929 . S
S868 N869 1.613 1_655 S
S868 N870 1.610 . S
N869 S868 1.613 1_455 S
N869 C872 1.350 . S
N870 S868 1.610 . S
N870 C871 1.351 . S
C871 C865 1.428 . S
C871 N870 1.351 . S
C871 C872 1.434 1_655 S
C872 C863 1.429 . S
C872 N869 1.350 . S
C872 C871 1.434 1_455 S
C873 C874 1.369 . S
C873 C875 1.419 . S
C873 H877 0.930 . S
C874 C873 1.369 . S
C874 C883 1.429 . S
C875 C873 1.419 . S
C875 C876 1.363 . S
C875 H878 0.929 . S
C876 C875 1.363 . S
C876 C882 1.428 . S
H877 C873 0.930 . S
H878 C875 0.929 . S
S879 N880 1.613 . S
S879 N881 1.610 . S
N880 S879 1.613 . S
N880 C883 1.350 . S
N881 S879 1.610 . S
N881 C882 1.351 . S
C882 C876 1.428 . S
C882 N881 1.351 . S
C882 C883 1.434 . S
C883 C874 1.429 . S
C883 N880 1.350 . S
C883 C882 1.434 . S
C884 C885 1.369 . S
C884 C886 1.419 . S
C884 H888 0.930 . S
C885 C884 1.369 . S
C885 C894 1.429 . S
C886 C884 1.419 . S
C886 C887 1.363 . S
C886 H889 0.929 . S
C887 C886 1.363 . S
C887 C893 1.428 . S
H888 C884 0.930 . S
H889 C886 0.929 . S
S890 N891 1.613 . S
S890 N892 1.610 . S
N891 S890 1.613 . S
N891 C894 1.350 . S
N892 S890 1.610 . S
N892 C893 1.351 . S
C893 C887 1.428 . S
C893 N892 1.351 . S
C893 C894 1.434 . S
C894 C885 1.429 . S
C894 N891 1.350 . S
C894 C893 1.434 . S
C895 C896 1.369 . S
C895 C897 1.419 1_545 S
C895 H899 0.930 . S
C896 C895 1.369 . S
C896 C905 1.429 . S
C897 C895 1.419 1_565 S
C897 C898 1.363 . S
C897 H900 0.929 . S
C898 C897 1.363 . S
C898 C904 1.428 . S
H899 C895 0.930 . S
H900 C897 0.929 . S
S901 N902 1.613 1_565 S
S901 N903 1.610 . S
N902 S901 1.613 1_545 S
N902 C905 1.350 . S
N903 S901 1.610 . S
N903 C904 1.351 . S
C904 C898 1.428 . S
C904 N903 1.351 . S
C904 C905 1.434 1_565 S
C905 C896 1.429 . S
C905 N902 1.350 . S
C905 C904 1.434 1_545 S
C906 C907 1.369 . S
C906 C908 1.419 1_665 S
C906 H910 0.930 . S
C907 C906 1.369 . S
C907 C916 1.429 . S
C908 C906 1.419 1_445 S
C908 C909 1.363 . S
C908 H911 0.929 . S
C909 C908 1.363 . S
C909 C915 1.428 1_545 S
H910 C906 0.930 . S
H911 C908 0.929 . S
S912 N913 1.613 1_455 S
S912 N914 1.610 . S
N913 S912 1.613 1_655 S
N913 C916 1.350 . S
N914 S912 1.610 . S
N914 C915 1.351 . S
C915 C909 1.428 1_565 S
C915 N914 1.351 . S
C915 C916 1.434 1_455 S
C916 C907 1.429 . S
C916 N913 1.350 . S
C916 C915 1.434 1_655 S
C917 C918 1.369 . S
C917 C919 1.419 . S
C917 H921 0.930 . S
C918 C917 1.369 . S
C918 C927 1.429 1_655 S
C919 C917 1.419 . S
C919 C920 1.363 1_655 S
C919 H922 0.929 . S
C920 C919 1.363 1_455 S
C920 C926 1.428 . S
H921 C917 0.930 . S
H922 C919 0.929 . S
S923 N924 1.613 . S
S923 N925 1.610 . S
N924 S923 1.613 . S
N924 C927 1.350 . S
N925 S923 1.610 . S
N925 C926 1.351 . S
C926 C920 1.428 . S
C926 N925 1.351 . S
C926 C927 1.434 . S
C927 C918 1.429 1_455 S
C927 N924 1.350 . S
C927 C926 1.434 . S
C577 C158 1.351 . S
C579 C14 1.352 . S
C588 C50 1.355 . S
C590 C194 1.355 . S
C599 C230 1.352 . S
C601 C86 1.353 . S
C610 C266 1.349 . S
C612 C122 1.350 . S
C621 C446 1.352 . S
C623 C302 1.351 . S
C632 C338 1.351 . S
C634 C482 1.352 . S
C643 C518 1.349 . S
C645 C374 1.350 . S
C654 C410 1.351 . S
C656 C554 1.351 . S
C665 C2 1.379 . S
C667 C542 1.381 . S
C676 C38 1.386 . S
C678 C434 1.385 . S
C687 C74 1.383 . S
C689 C470 1.381 . S
C698 C506 1.380 . S
C700 C110 1.382 . S
C709 C146 1.384 . S
C711 C326 1.385 . S
C720 C182 1.381 . S
C722 C362 1.384 . S
C731 C398 1.379 . S
C733 C218 1.381 . S
C742 C290 1.385 . S
C744 C254 1.382 . S
C753 C4 1.605 . S
C755 C364 1.605 . S
C764 C400 1.605 . S
C766 C40 1.605 . S
C775 C76 1.604 . S
C777 C292 1.604 . S
C786 C328 1.605 . S
C788 C112 1.605 . S
C797 C148 1.605 . S
C799 C508 1.605 . S
C808 C184 1.605 . S
C810 C544 1.605 . S
C819 C436 1.604 . S
C821 C220 1.604 . S
C830 C472 1.605 . S
C832 C256 1.605 . S
C841 C363 1.423 . S
C843 C3 1.424 . S
C852 C39 1.423 . S
C854 C399 1.424 . S
C863 C75 1.424 . S
C865 C291 1.423 . S
C874 C327 1.423 . S
C876 C111 1.423 . S
C885 C507 1.423 . S
C887 C147 1.423 . S
C896 C543 1.423 . S
C898 C183 1.423 . S
C907 C435 1.423 . S
C909 C219 1.423 . S
C918 C255 1.423 . S
C920 C471 1.423 . S
