# Generated by pormake.
# Topology xfe, (7)-cn, num edge types: 1
# Building blocks:
#     Node 0, Type 0, BuildingBlock: NUHQUE_clean_sbu_2, # of connection points: 7
#     Node 1, Type 0, BuildingBlock: NUHQUE_clean_sbu_2, # of connection points: 7
#     Node 2, Type 0, BuildingBlock: NUHQUE_clean_sbu_2, # of connection points: 7
#     Node 3, Type 0, BuildingBlock: NUHQUE_clean_sbu_2, # of connection points: 7
#     Node 4, Type 0, BuildingBlock: NUHQUE_clean_sbu_2, # of connection points: 7
#     Node 5, Type 0, BuildingBlock: NUHQUE_clean_sbu_2, # of connection points: 7
#     Node 6, Type 0, BuildingBlock: NUHQUE_clean_sbu_2, # of connection points: 7
#     Node 7, Type 0, BuildingBlock: NUHQUE_clean_sbu_2, # of connection points: 7
#     Node 8, Type 0, BuildingBlock: NUHQUE_clean_sbu_2, # of connection points: 7
#     Node 9, Type 0, BuildingBlock: NUHQUE_clean_sbu_2, # of connection points: 7
#     Node 10, Type 0, BuildingBlock: NUHQUE_clean_sbu_2, # of connection points: 7
#     Node 11, Type 0, BuildingBlock: NUHQUE_clean_sbu_2, # of connection points: 7
#     Node 12, Type 0, BuildingBlock: NUHQUE_clean_sbu_2, # of connection points: 7
#     Node 13, Type 0, BuildingBlock: NUHQUE_clean_sbu_2, # of connection points: 7
#     Node 14, Type 0, BuildingBlock: NUHQUE_clean_sbu_2, # of connection points: 7
#     Node 15, Type 0, BuildingBlock: NUHQUE_clean_sbu_2, # of connection points: 7
#     Edge 16, Type (0, 0), BuildingBlock: MIFKUJ_clean_linker_0, # of connection points: 2
#     Edge 17, Type (0, 0), BuildingBlock: MIFKUJ_clean_linker_0, # of connection points: 2
#     Edge 18, Type (0, 0), BuildingBlock: MIFKUJ_clean_linker_0, # of connection points: 2
#     Edge 19, Type (0, 0), BuildingBlock: MIFKUJ_clean_linker_0, # of connection points: 2
#     Edge 20, Type (0, 0), BuildingBlock: MIFKUJ_clean_linker_0, # of connection points: 2
#     Edge 21, Type (0, 0), BuildingBlock: MIFKUJ_clean_linker_0, # of connection points: 2
#     Edge 22, Type (0, 0), BuildingBlock: MIFKUJ_clean_linker_0, # of connection points: 2
#     Edge 23, Type (0, 0), BuildingBlock: MIFKUJ_clean_linker_0, # of connection points: 2
#     Edge 24, Type (0, 0), BuildingBlock: MIFKUJ_clean_linker_0, # of connection points: 2
#     Edge 25, Type (0, 0), BuildingBlock: MIFKUJ_clean_linker_0, # of connection points: 2
#     Edge 26, Type (0, 0), BuildingBlock: MIFKUJ_clean_linker_0, # of connection points: 2
#     Edge 27, Type (0, 0), BuildingBlock: MIFKUJ_clean_linker_0, # of connection points: 2
#     Edge 28, Type (0, 0), BuildingBlock: MIFKUJ_clean_linker_0, # of connection points: 2
#     Edge 29, Type (0, 0), BuildingBlock: MIFKUJ_clean_linker_0, # of connection points: 2
#     Edge 30, Type (0, 0), BuildingBlock: MIFKUJ_clean_linker_0, # of connection points: 2
#     Edge 31, Type (0, 0), BuildingBlock: MIFKUJ_clean_linker_0, # of connection points: 2
#     Edge 32, Type (0, 0), BuildingBlock: MIFKUJ_clean_linker_0, # of connection points: 2
#     Edge 33, Type (0, 0), BuildingBlock: MIFKUJ_clean_linker_0, # of connection points: 2
#     Edge 34, Type (0, 0), BuildingBlock: MIFKUJ_clean_linker_0, # of connection points: 2
#     Edge 35, Type (0, 0), BuildingBlock: MIFKUJ_clean_linker_0, # of connection points: 2
#     Edge 36, Type (0, 0), BuildingBlock: MIFKUJ_clean_linker_0, # of connection points: 2
#     Edge 37, Type (0, 0), BuildingBlock: MIFKUJ_clean_linker_0, # of connection points: 2
#     Edge 38, Type (0, 0), BuildingBlock: MIFKUJ_clean_linker_0, # of connection points: 2
#     Edge 39, Type (0, 0), BuildingBlock: MIFKUJ_clean_linker_0, # of connection points: 2
#     Edge 40, Type (0, 0), BuildingBlock: MIFKUJ_clean_linker_0, # of connection points: 2
#     Edge 41, Type (0, 0), BuildingBlock: MIFKUJ_clean_linker_0, # of connection points: 2
#     Edge 42, Type (0, 0), BuildingBlock: MIFKUJ_clean_linker_0, # of connection points: 2
#     Edge 43, Type (0, 0), BuildingBlock: MIFKUJ_clean_linker_0, # of connection points: 2
#     Edge 44, Type (0, 0), BuildingBlock: MIFKUJ_clean_linker_0, # of connection points: 2
#     Edge 45, Type (0, 0), BuildingBlock: MIFKUJ_clean_linker_0, # of connection points: 2
#     Edge 46, Type (0, 0), BuildingBlock: MIFKUJ_clean_linker_0, # of connection points: 2
#     Edge 47, Type (0, 0), BuildingBlock: MIFKUJ_clean_linker_0, # of connection points: 2
#     Edge 48, Type (0, 0), BuildingBlock: MIFKUJ_clean_linker_0, # of connection points: 2
#     Edge 49, Type (0, 0), BuildingBlock: MIFKUJ_clean_linker_0, # of connection points: 2
#     Edge 50, Type (0, 0), BuildingBlock: MIFKUJ_clean_linker_0, # of connection points: 2
#     Edge 51, Type (0, 0), BuildingBlock: MIFKUJ_clean_linker_0, # of connection points: 2
#     Edge 52, Type (0, 0), BuildingBlock: MIFKUJ_clean_linker_0, # of connection points: 2
#     Edge 53, Type (0, 0), BuildingBlock: MIFKUJ_clean_linker_0, # of connection points: 2
#     Edge 54, Type (0, 0), BuildingBlock: MIFKUJ_clean_linker_0, # of connection points: 2
#     Edge 55, Type (0, 0), BuildingBlock: MIFKUJ_clean_linker_0, # of connection points: 2
#     Edge 56, Type (0, 0), BuildingBlock: MIFKUJ_clean_linker_0, # of connection points: 2
#     Edge 57, Type (0, 0), BuildingBlock: MIFKUJ_clean_linker_0, # of connection points: 2
#     Edge 58, Type (0, 0), BuildingBlock: MIFKUJ_clean_linker_0, # of connection points: 2
#     Edge 59, Type (0, 0), BuildingBlock: MIFKUJ_clean_linker_0, # of connection points: 2
#     Edge 60, Type (0, 0), BuildingBlock: MIFKUJ_clean_linker_0, # of connection points: 2
#     Edge 61, Type (0, 0), BuildingBlock: MIFKUJ_clean_linker_0, # of connection points: 2
#     Edge 62, Type (0, 0), BuildingBlock: MIFKUJ_clean_linker_0, # of connection points: 2
#     Edge 63, Type (0, 0), BuildingBlock: MIFKUJ_clean_linker_0, # of connection points: 2
#     Edge 64, Type (0, 0), BuildingBlock: MIFKUJ_clean_linker_0, # of connection points: 2
#     Edge 65, Type (0, 0), BuildingBlock: MIFKUJ_clean_linker_0, # of connection points: 2
#     Edge 66, Type (0, 0), BuildingBlock: MIFKUJ_clean_linker_0, # of connection points: 2
#     Edge 67, Type (0, 0), BuildingBlock: MIFKUJ_clean_linker_0, # of connection points: 2
#     Edge 68, Type (0, 0), BuildingBlock: MIFKUJ_clean_linker_0, # of connection points: 2
#     Edge 69, Type (0, 0), BuildingBlock: MIFKUJ_clean_linker_0, # of connection points: 2
#     Edge 70, Type (0, 0), BuildingBlock: MIFKUJ_clean_linker_0, # of connection points: 2
#     Edge 71, Type (0, 0), BuildingBlock: MIFKUJ_clean_linker_0, # of connection points: 2
# Relax obj value: 0.198
# Max RMSD: 0.238
# Mean RMSD: 0.238
data_MOF--net-xfe--node1-NUHQUE_clean_sbu_2--edge1-MIFKUJ_clean_linker_0
_symmetry_space_group_name_H-M    P1
_symmetry_Int_Tables_number       1
_symmetry_cell_setting            triclinic
loop_
_symmetry_equiv_pos_as_xyz
'x, y, z'
_cell_length_a     49.630521
_cell_length_b     49.450095
_cell_length_c     59.385432
_cell_angle_alpha  90.187056
_cell_angle_beta   89.821034
_cell_angle_gamma 90.374382
loop_
_atom_site_label
_atom_site_type_symbol
_atom_site_fract_x
_atom_site_fract_y
_atom_site_fract_z
_atom_type_partial_charge
O0 O 0.04823 0.0866 0.09719 0.0
Tb1 Tb 1.0161 0.07898 0.12166 0.0
Eu2 Eu 1.0111 0.06586 0.1789 0.0
C3 C 0.07357 0.08856 0.10365 0.0
O4 O 0.07986 0.08118 0.1242 0.0
C5 C 0.02532 0.12414 0.15883 0.0
O6 O 0.98642 0.05701 0.2099 0.0
C7 C 0.05673 0.04146 0.18482 0.0
C8 C 0.96025 0.05304 0.20882 0.0
O9 O 0.94755 0.0576 0.18986 0.0
C10 C 0.98945 0.02667 0.14007 0.0
C11 C 0.06526 1.01308 0.18917 0.0
C12 C 0.06334 0.99315 0.17213 0.0
C13 C 0.07062 0.96628 0.17653 0.0
C14 C 0.07977 0.95935 0.19798 0.0
C15 C 0.08282 0.97874 0.21496 0.0
C16 C 0.0757 1.00575 0.21049 0.0
O17 O 0.03546 0.11111 0.14141 0.0
O18 O 1.01166 0.1113 0.17458 0.0
O19 O 0.99012 0.08647 0.09298 0.0
O20 O 0.97627 0.0972 0.12585 0.0
C21 C 0.97022 0.09657 0.10449 0.0
O22 O 0.98279 0.03995 0.15843 0.0
O23 O 1.00944 0.03548 0.12719 0.0
O24 O 0.04348 0.05344 0.20121 0.0
O25 O 0.04707 0.04716 0.16473 0.0
H26 H 0.05641 0.99841 0.15543 0.0
H27 H 0.08642 0.93883 0.20109 0.0
H28 H 0.07819 0.02091 0.22354 0.0
O29 O 0.23595 0.78221 0.3521 0.0
Tb30 Tb 0.2376 0.74731 0.37463 0.0
Eu31 Eu 0.24462 0.73589 0.42958 0.0
C32 C 0.23203 0.80678 0.36016 0.0
O33 O 0.23388 0.81069 0.38199 0.0
C34 C 0.18876 0.7525 0.40895 0.0
O35 O 0.24922 0.71126 0.4609 0.0
C36 C 0.26823 0.78196 0.4372 0.0
C37 C 0.25218 0.68491 0.46018 0.0
O38 O 0.24883 0.67206 0.44099 0.0
C39 C 0.28757 0.71683 0.3933 0.0
C40 C 0.29675 0.79088 0.43958 0.0
C41 C 0.31439 0.78952 0.42098 0.0
C42 C 0.34148 0.79695 0.42323 0.0
C43 C 0.35099 0.80576 0.44417 0.0
C44 C 0.33395 0.80812 0.46292 0.0
C45 C 0.30659 0.80069 0.4605 0.0
O46 O 0.20341 0.76451 0.3933 0.0
O47 O 0.19995 0.73627 0.4236 0.0
O48 O 0.22658 0.72639 0.34369 0.0
O49 O 0.22217 0.70576 0.375 0.0
C50 C 0.21941 0.70382 0.35324 0.0
O51 O 0.27219 0.70862 0.41 0.0
O52 O 0.28037 0.73796 0.38107 0.0
O53 O 0.25876 0.76648 0.45337 0.0
O54 O 0.26026 0.77417 0.41702 0.0
H55 H 0.30719 0.78291 0.40465 0.0
H56 H 0.37173 0.81249 0.44546 0.0
H57 H 0.29309 0.8023 0.47481 0.0
O58 O 0.53442 0.95793 0.6031 0.0
Tb59 Tb 0.56723 0.96221 0.62736 0.0
Eu60 Eu 0.57662 0.97477 0.68272 0.0
C61 C 0.50896 0.95772 0.60956 0.0
O62 O 0.50298 0.96509 0.63024 0.0
C63 C 0.55866 0.91821 0.6639 0.0
O64 O 0.60024 0.98224 0.71442 0.0
C65 C 0.5303 0.99801 0.68886 0.0
C66 C 0.62612 0.98795 0.714 0.0
O67 O 0.63942 0.98639 0.6949 0.0
C68 C 0.59802 1.01435 0.64359 0.0
C69 C 0.52074 0.02618 0.69268 0.0
C70 C 0.52126 0.04518 0.675 0.0
C71 C 0.51286 0.07186 0.67872 0.0
C72 C 0.50407 0.07961 0.70016 0.0
C73 C 0.5022 0.06105 0.71775 0.0
C74 C 0.51045 0.03417 0.714 0.0
O75 O 0.54607 0.9334 0.64921 0.0
O76 O 0.57636 0.92948 0.67743 0.0
O77 O 0.58883 0.94424 0.59914 0.0
O78 O 0.6077 0.94535 0.63132 0.0
C79 C 0.61037 0.93802 0.61033 0.0
O80 O 0.60422 1.00154 0.66225 0.0
O81 O 0.57828 1.00543 0.63041 0.0
O82 O 0.54421 0.98717 0.70528 0.0
O83 O 0.53995 0.99193 0.66877 0.0
H84 H 0.52784 0.03931 0.65827 0.0
H85 H 0.49665 0.09998 0.70282 0.0
H86 H 0.50885 1.01962 0.72755 0.0
O87 O 0.35045 0.26266 0.85395 0.0
Tb88 Tb 0.34653 0.29709 0.87702 0.0
Eu89 Eu 0.33892 0.30865 0.93247 0.0
C90 C 0.35359 0.23782 0.86154 0.0
O91 O 0.3504 0.23329 0.88317 0.0
C92 C 0.39438 0.29416 0.91133 0.0
O93 O 0.3281 0.33058 0.96446 0.0
C94 C 0.32377 0.25859 0.9369 0.0
C95 C 0.32304 0.35663 0.96443 0.0
O96 O 0.32752 0.37068 0.94605 0.0
C97 C 0.29656 0.32832 0.89533 0.0
C98 C 0.30207 0.23915 0.94269 0.0
C99 C 0.30052 0.21521 0.92991 0.0
C100 C 0.28266 0.19446 0.93602 0.0
C101 C 0.26558 0.19809 0.95452 0.0
C102 C 0.26638 0.22182 0.96735 0.0
C103 C 0.2849 0.24247 0.96162 0.0
O104 O 0.37914 0.27988 0.89745 0.0
O105 O 0.38318 0.31231 0.92452 0.0
O106 O 0.3558 0.3203 0.84682 0.0
O107 O 0.36601 0.33684 0.87889 0.0
C108 C 0.36638 0.34095 0.85724 0.0
O109 O 0.31102 0.33548 0.91288 0.0
O110 O 0.30367 0.30705 0.88307 0.0
O111 O 0.33444 0.27294 0.9533 0.0
O112 O 0.32238 0.27158 0.91762 0.0
H113 H 0.31389 0.21231 0.91564 0.0
H114 H 0.25138 0.1822 0.95903 0.0
H115 H 0.28612 0.2606 0.97186 0.0
O116 O 0.05046 0.96097 0.88363 0.0
Tb117 Tb 1.01763 0.96462 0.85936 0.0
Eu118 Eu 1.01308 0.97699 0.80233 0.0
C119 C 0.07583 0.95965 0.87707 0.0
O120 O 0.08173 0.96437 0.85586 0.0
C121 C 0.02331 0.91939 0.82269 0.0
O122 O 0.9911 0.98828 0.77072 0.0
C123 C 0.06279 0.99339 0.79895 0.0
C124 C 0.96469 0.99007 0.77076 0.0
O125 O 0.95121 0.98234 0.78872 0.0
C126 C 0.99066 1.0171 0.84113 0.0
C127 C 0.08108 1.01712 0.79654 0.0
C128 C 0.10013 0.02161 0.81364 0.0
C129 C 0.11874 0.04284 0.81202 0.0
C130 C 0.1185 0.05981 0.7933 0.0
C131 C 0.10041 0.05538 0.77563 0.0
C132 C 0.08163 0.03385 0.77715 0.0
O133 O 0.03608 0.9333 0.83837 0.0
O134 O 1.00869 0.93198 0.8076 0.0
O135 O 0.9946 0.95056 0.88836 0.0
O136 O 0.97634 0.94926 0.85595 0.0
C137 C 0.97285 0.94431 0.87731 0.0
O138 O 0.98587 1.00508 0.82175 0.0
O139 O 1.00939 1.00795 0.85495 0.0
O140 O 0.04822 0.98592 0.78152 0.0
O141 O 0.05033 0.99016 0.81841 0.0
H142 H 0.10068 1.00842 0.82819 0.0
H143 H 0.13335 0.07596 0.79203 0.0
H144 H 0.06783 0.03012 0.76337 0.0
O145 O 0.35285 0.77979 0.13536 0.0
Tb146 Tb 0.3478 0.74639 0.11154 0.0
Eu147 Eu 0.3352 0.73915 0.05589 0.0
C148 C 0.35257 0.80527 0.1289 0.0
O149 O 0.34447 0.81111 0.10845 0.0
C150 C 0.39229 0.75539 0.07452 0.0
O151 O 0.32291 0.7175 0.02424 0.0
C152 C 0.31164 0.78584 0.05337 0.0
C153 C 0.32131 0.69102 0.02285 0.0
O154 O 0.33064 0.67619 0.03936 0.0
C155 C 0.29799 0.71407 0.09428 0.0
C156 C 0.28404 0.79573 0.04804 0.0
C157 C 0.26332 0.79494 0.06442 0.0
C158 C 0.23721 0.80365 0.05911 0.0
C159 C 0.23187 0.81333 0.0375 0.0
C160 C 0.25215 0.81534 0.02128 0.0
C161 C 0.27833 0.80665 0.02653 0.0
O162 O 0.37816 0.76705 0.09064 0.0
O163 O 0.38032 0.739 0.0602 0.0
O164 O 0.35869 0.72315 0.14111 0.0
O165 O 0.36878 0.70763 0.10866 0.0
C166 C 0.36978 0.7032 0.13028 0.0
O167 O 0.31181 0.70844 0.07599 0.0
O168 O 0.30501 0.73511 0.10689 0.0
O169 O 0.32515 0.775 0.03658 0.0
O170 O 0.31511 0.77294 0.07253 0.0
H171 H 0.26739 0.78773 0.08128 0.0
H172 H 0.21195 0.82095 0.0336 0.0
H173 H 0.29412 0.80845 0.01396 0.0
O174 O 0.53533 0.08386 0.38386 0.0
Tb175 Tb 0.57172 0.08 0.36305 0.0
Eu176 Eu 0.57209 0.06963 0.30464 0.0
C177 C 0.51251 0.09245 0.37509 0.0
O178 O 0.51073 0.09448 0.35309 0.0
C179 C 0.56508 0.12911 0.32659 0.0
O180 O 0.59123 0.05747 0.27179 0.0
C181 C 0.52542 0.04567 0.30407 0.0
C182 C 0.61742 0.05798 0.26845 0.0
O183 O 0.63315 0.06919 0.28364 0.0
C184 C 0.5997 0.03135 0.34023 0.0
C185 C 0.51543 1.01756 0.3003 0.0
C186 C 0.51354 0.99951 0.31857 0.0
C187 C 0.50516 0.97278 0.31509 0.0
C188 C 0.49831 0.96402 0.29349 0.0
C189 C 0.4987 0.98164 0.27515 0.0
C190 C 0.50718 1.00862 0.27859 0.0
O191 O 0.56126 0.11828 0.34669 0.0
O192 O 0.5719 0.11497 0.3086 0.0
O193 O 0.59283 0.08267 0.39519 0.0
O194 O 0.61306 0.09516 0.36522 0.0
C195 C 0.61527 0.09223 0.38692 0.0
O196 O 0.60441 0.04602 0.32226 0.0
O197 O 0.57929 0.03761 0.35355 0.0
O198 O 0.5358 0.05807 0.28648 0.0
O199 O 0.53884 0.05056 0.3228 0.0
H200 H 0.51835 1.00617 0.33551 0.0
H201 H 0.49085 0.94354 0.29126 0.0
H202 H 0.50747 0.02244 0.26447 0.0
O203 O 0.23401 0.27012 0.63582 0.0
Tb204 Tb 0.238 0.30351 0.61185 0.0
Eu205 Eu 0.24891 0.30999 0.55553 0.0
C206 C 0.23125 0.24471 0.6293 0.0
O207 O 0.23614 0.23836 0.60819 0.0
C208 C 0.19211 0.29466 0.576 0.0
O209 O 0.25886 0.32862 0.52202 0.0
C210 C 0.27236 0.26305 0.5542 0.0
C211 C 0.26109 0.35483 0.51897 0.0
O212 O 0.25459 0.37138 0.53543 0.0
C213 C 0.28644 0.33721 0.59284 0.0
C214 C 0.30002 0.25242 0.54987 0.0
C215 C 0.31874 0.25082 0.56765 0.0
C216 C 0.34482 0.24104 0.56376 0.0
C217 C 0.35219 0.23256 0.54214 0.0
C218 C 0.33382 0.2327 0.52443 0.0
C219 C 0.30763 0.24268 0.52823 0.0
O220 O 0.20663 0.28315 0.59181 0.0
O221 O 0.20384 0.31034 0.56101 0.0
O222 O 0.22856 0.32608 0.64228 0.0
O223 O 0.21584 0.34172 0.61067 0.0
C224 C 0.21614 0.34579 0.63238 0.0
O225 O 0.27261 0.34187 0.57441 0.0
O226 O 0.28033 0.31606 0.60561 0.0
O227 O 0.25973 0.27356 0.53694 0.0
O228 O 0.26824 0.2766 0.57304 0.0
H229 H 0.31309 0.2569 0.58456 0.0
H230 H 0.37209 0.22421 0.53929 0.0
H231 H 0.29328 0.2426 0.51452 0.0
O232 O 0.85851 0.27949 0.63259 0.0
Tb233 Tb 0.85271 0.24569 0.60919 0.0
Eu234 Eu 0.84513 0.23598 0.55264 0.0
C235 C 0.8624 0.30444 0.62544 0.0
O236 O 0.85865 0.30983 0.60403 0.0
C237 C 0.90113 0.24898 0.57492 0.0
O238 O 0.83539 0.21077 0.52213 0.0
C239 C 0.82989 0.28544 0.54571 0.0
C240 C 0.8323 0.18446 0.52412 0.0
O241 O 0.83873 0.17285 0.54322 0.0
C242 C 0.80108 0.21804 0.58943 0.0
C243 C 0.80767 0.30467 0.54119 0.0
C244 C 0.805 0.32676 0.55602 0.0
C245 C 0.78658 0.3473 0.55155 0.0
C246 C 0.77014 0.34553 0.53259 0.0
C247 C 0.77169 0.32357 0.51782 0.0
C248 C 0.79083 0.30308 0.52188 0.0
O249 O 0.88631 0.26269 0.58943 0.0
O250 O 0.88947 0.23219 0.56066 0.0
O251 O 0.85737 0.22217 0.6398 0.0
O252 O 0.87119 0.20553 0.60871 0.0
C253 C 0.86849 0.20132 0.63026 0.0
O254 O 0.81505 0.21056 0.5717 0.0
O255 O 0.8096 0.23832 0.60225 0.0
O256 O 0.83791 0.26921 0.52947 0.0
O257 O 0.83148 0.27472 0.56596 0.0
H258 H 0.81774 0.32837 0.57078 0.0
H259 H 0.75555 0.36132 0.52948 0.0
H260 H 0.79257 0.28628 0.51023 0.0
O261 O 0.72398 0.7661 0.12802 0.0
Tb262 Tb 0.72965 0.80137 0.10606 0.0
Eu263 Eu 0.73966 0.8108 0.04943 0.0
C264 C 0.71612 0.74259 0.1196 0.0
O265 O 0.71648 0.73911 0.09767 0.0
C266 C 0.68263 0.80053 0.07042 0.0
O267 O 0.75114 0.83296 0.0177 0.0
C268 C 0.75301 0.76032 0.04457 0.0
C269 C 0.75818 0.85865 0.01802 0.0
O270 O 0.7554 0.87261 0.03673 0.0
C271 C 0.7828 0.82788 0.08731 0.0
C272 C 0.77523 0.74055 0.04183 0.0
C273 C 0.77793 0.7208 0.05865 0.0
C274 C 0.79684 0.70021 0.05635 0.0
C275 C 0.81363 0.69943 0.03752 0.0
C276 C 0.81206 0.71907 0.02065 0.0
C277 C 0.79233 0.73953 0.02257 0.0
O278 O 0.69661 0.7862 0.08488 0.0
O279 O 0.69522 0.81676 0.05631 0.0
O280 O 0.71925 0.82281 0.13701 0.0
O281 O 0.71556 0.84326 0.10569 0.0
C282 C 0.71283 0.84549 0.12745 0.0
O283 O 0.76983 0.83531 0.06912 0.0
O284 O 0.77315 0.80854 0.10055 0.0
O285 O 0.74687 0.77604 0.02756 0.0
O286 O 0.75023 0.77214 0.06435 0.0
H287 H 0.76502 0.72114 0.07341 0.0
H288 H 0.82834 0.68334 0.03612 0.0
H289 H 0.79052 0.7545 0.0094 0.0
O290 O 0.72559 0.27188 0.85697 0.0
Tb291 Tb 0.73007 0.23904 0.88116 0.0
Eu292 Eu 0.73915 0.22991 0.93684 0.0
C293 C 0.72198 0.29712 0.86349 0.0
O294 O 0.72519 0.30337 0.88483 0.0
C295 C 0.68328 0.24417 0.91608 0.0
O296 O 0.74861 0.20754 0.96876 0.0
C297 C 0.75533 0.27965 0.94181 0.0
C298 C 0.75378 0.18151 0.96846 0.0
O299 O 0.7501 0.16775 0.94974 0.0
C300 C 0.78184 0.21097 0.89929 0.0
C301 C 0.77859 0.29811 0.94547 0.0
C302 C 0.78181 0.31972 0.93034 0.0
C303 C 0.8018 0.33937 0.93379 0.0
C304 C 0.81926 0.3369 0.95207 0.0
C305 C 0.81674 0.3156 0.96737 0.0
C306 C 0.79605 0.2962 0.96429 0.0
O307 O 0.69855 0.25773 0.90182 0.0
O308 O 0.69448 0.22664 0.92974 0.0
O309 O 0.72031 0.21532 0.85138 0.0
O310 O 0.71158 0.19877 0.8837 0.0
C311 C 0.7106 0.19449 0.86205 0.0
O312 O 0.76854 0.20397 0.91757 0.0
O313 O 0.77316 0.23089 0.88641 0.0
O314 O 0.74712 0.26447 0.95864 0.0
O315 O 0.75311 0.26781 0.922 0.0
H316 H 0.76818 0.32173 0.91621 0.0
H317 H 0.8351 0.35186 0.9545 0.0
H318 H 0.79365 0.27994 0.97633 0.0
O319 O 0.85631 0.76617 0.35467 0.0
Tb320 Tb 0.85203 0.80101 0.37734 0.0
Eu321 Eu 0.84339 0.80747 0.43493 0.0
C322 C 0.86134 0.74166 0.36231 0.0
O323 O 0.85961 0.73718 0.38405 0.0
C324 C 0.90006 0.79822 0.41237 0.0
O325 O 0.83093 0.82533 0.46821 0.0
C326 C 0.82824 0.75715 0.4357 0.0
C327 C 0.82742 0.85144 0.47097 0.0
O328 O 0.83409 0.86799 0.45458 0.0
C329 C 0.80268 0.83055 0.39805 0.0
C330 C 0.80596 0.73757 0.43946 0.0
C331 C 0.80173 0.71795 0.42269 0.0
C332 C 0.78341 0.69674 0.42603 0.0
C333 C 0.76865 0.69558 0.44611 0.0
C334 C 0.77269 0.71448 0.46343 0.0
C335 C 0.79127 0.73588 0.45997 0.0
O336 O 0.8862 0.78541 0.39664 0.0
O337 O 0.8878 0.81251 0.42804 0.0
O338 O 0.85802 0.82333 0.34616 0.0
O339 O 0.87012 0.84152 0.37713 0.0
C340 C 0.86853 0.8448 0.35541 0.0
O341 O 0.81661 0.83639 0.41624 0.0
O342 O 0.80947 0.80962 0.38534 0.0
O343 O 0.83837 0.76982 0.45324 0.0
O344 O 0.82791 0.77187 0.41725 0.0
H345 H 0.81358 0.71857 0.40732 0.0
H346 H 0.75383 0.6796 0.44837 0.0
H347 H 0.79491 0.75038 0.47335 0.0
O348 O 0.54795 0.60892 0.60662 0.0
Tb349 Tb 0.51115 0.59737 0.62476 0.0
Eu350 Eu 0.51758 0.57418 0.69419 0.0
C351 C 0.56929 0.61953 0.61654 0.0
O352 O 0.56935 0.62212 0.63856 0.0
C353 C 0.51693 0.62785 0.67314 0.0
O354 O 0.49416 0.56095 0.72473 0.0
C355 C 0.56534 0.553 0.69546 0.0
C356 C 0.46789 0.55769 0.72385 0.0
O357 O 0.45488 0.565 0.70566 0.0
C358 C 0.48921 0.54419 0.64849 0.0
C359 C 0.58133 0.52776 0.69426 0.0
C360 C 0.59566 0.52229 0.6743 0.0
C361 C 0.61333 0.50049 0.67313 0.0
C362 C 0.6171 0.48408 0.69192 0.0
C363 C 0.60395 0.48954 0.71227 0.0
C364 C 0.58564 0.51123 0.7134 0.0
O365 O 0.51072 0.60747 0.65985 0.0
O366 O 0.51977 0.61987 0.69383 0.0
O367 O 0.47837 0.62512 0.61706 0.0
O368 O 0.48103 0.58768 0.59936 0.0
C369 C 0.46726 0.60977 0.60177 0.0
O370 O 0.48859 0.55246 0.66988 0.0
O371 O 0.50636 0.55403 0.63317 0.0
O372 O 0.55075 0.55754 0.71357 0.0
O373 O 0.55405 0.56168 0.67678 0.0
H374 H 0.5938 0.53547 0.65983 0.0
H375 H 0.6315 0.46768 0.691 0.0
H376 H 0.57592 0.5159 0.72929 0.0
O377 O 0.03141 0.45308 0.10194 0.0
Tb378 Tb 0.0644 0.45965 0.12579 0.0
Eu379 Eu 0.07061 0.47456 0.18248 0.0
C380 C 1.00655 0.44853 0.10899 0.0
O381 O 1.00073 0.45278 0.1303 0.0
C382 C 0.0604 0.4162 0.1634 0.0
O383 O 0.09357 0.48809 0.21302 0.0
C384 C 0.02122 0.49043 0.18809 0.0
C385 C 0.11992 0.49083 0.21284 0.0
O386 O 0.13371 0.48234 0.19529 0.0
C387 C 0.09017 0.51445 0.1424 0.0
C388 C 1.00472 0.51511 0.19166 0.0
C389 C 0.98661 0.52244 0.17457 0.0
C390 C 0.97012 0.54507 0.17715 0.0
C391 C 0.97136 0.56026 0.19697 0.0
C392 C 0.98866 0.55333 0.2145 0.0
C393 C 1.00537 0.53047 0.21197 0.0
O394 O 0.04652 0.42973 0.14843 0.0
O395 O 0.07569 0.42944 0.17778 0.0
O396 O 0.08653 0.44345 0.09716 0.0
O397 O 0.10612 0.4459 0.12899 0.0
C398 C 0.10878 0.43888 0.10793 0.0
O399 O 0.0958 0.5037 0.16206 0.0
O400 O 0.07224 0.50342 0.12858 0.0
O401 O 0.03657 0.48232 0.20472 0.0
O402 O 0.03235 0.48708 0.16807 0.0
H403 H 0.98528 0.51053 0.15925 0.0
H404 H 0.95786 0.57728 0.19912 0.0
H405 H 1.01863 0.52481 0.22559 0.0
O406 O 0.55324 0.45682 0.38442 0.0
Tb407 Tb 0.52038 0.46304 0.36034 0.0
Eu408 Eu 0.51241 0.47616 0.30331 0.0
C409 C 0.57834 0.45283 0.37777 0.0
O410 O 0.58466 0.45723 0.3566 0.0
C411 C 0.52373 0.41931 0.32309 0.0
O412 O 0.49026 0.48837 0.27194 0.0
C413 C 0.56271 0.48929 0.2978 0.0
C414 C 0.46465 0.49493 0.2727 0.0
O415 O 0.45112 0.4916 0.29154 0.0
C416 C 0.49338 0.51701 0.34349 0.0
C417 C 0.5829 0.51048 0.2923 0.0
C418 C 0.60568 0.51237 0.30623 0.0
C419 C 0.62735 0.52915 0.30034 0.0
C420 C 0.62597 0.54472 0.28082 0.0
C421 C 0.60346 0.54363 0.26677 0.0
C422 C 0.58166 0.52646 0.2725 0.0
O423 O 0.53834 0.43394 0.33704 0.0
O424 O 0.50676 0.43151 0.30964 0.0
O425 O 0.49842 0.44582 0.38871 0.0
O426 O 0.47897 0.44787 0.35685 0.0
C427 C 0.47636 0.44051 0.37779 0.0
O428 O 0.48809 0.50578 0.32383 0.0
O429 O 0.51133 0.5066 0.35752 0.0
O430 O 0.5473 0.48014 0.28147 0.0
O431 O 0.55066 0.49004 0.31761 0.0
H432 H 0.60696 0.50012 0.32131 0.0
H433 H 0.64256 0.55822 0.2766 0.0
H434 H 0.56443 0.525 0.2614 0.0
O435 O 0.02656 0.58313 0.88415 0.0
Tb436 Tb 0.06189 0.57979 0.86208 0.0
Eu437 Eu 0.06991 0.57112 0.80569 0.0
C438 C 1.00256 0.58879 0.87593 0.0
O439 O 0.99901 0.5876 0.85404 0.0
C440 C 0.05968 0.62825 0.82718 0.0
O441 O 0.09099 0.5597 0.77353 0.0
C442 C 0.01999 0.55556 0.80258 0.0
C443 C 0.11728 0.55688 0.77301 0.0
O444 O 0.13148 0.56369 0.7908 0.0
C445 C 0.09136 0.52925 0.84268 0.0
C446 C 1.00088 0.53296 0.79836 0.0
C447 C 0.97935 0.52977 0.81358 0.0
C448 C 0.95898 0.51077 0.80941 0.0
C449 C 0.96058 0.49412 0.79042 0.0
C450 C 0.98196 0.49642 0.77516 0.0
C451 C 1.00208 0.51625 0.77889 0.0
O452 O 0.04676 0.61442 0.84285 0.0
O453 O 0.07468 0.61578 0.81216 0.0
O454 O 0.08232 0.5904 0.89333 0.0
O455 O 0.1036 0.59438 0.86225 0.0
C456 C 0.10516 0.5971 0.88404 0.0
O457 O 0.09751 0.54336 0.82466 0.0
O458 O 0.07089 0.53665 0.85567 0.0
O459 O 0.03399 0.565 0.78547 0.0
O460 O 0.03319 0.55601 0.8218 0.0
H461 H 0.97799 0.54263 0.82837 0.0
H462 H 0.94494 0.47907 0.7875 0.0
H463 H 1.01835 0.51861 0.76685 0.0
H464 H 0.0265 0.15618 0.19695 0.0
H465 H 0.0342 0.20508 0.19924 0.0
H466 H 0.04068 0.20868 0.1268 0.0
H467 H 0.03488 0.15973 0.12468 0.0
H468 H 0.07417 0.24118 0.14046 0.0
H469 H 0.9818 0.2302 0.16095 0.0
H470 H 0.94256 0.21257 0.18199 0.0
H471 H 0.97443 0.24584 0.24332 0.0
H472 H 1.01405 0.26339 0.22268 0.0
H473 H 0.04158 0.38248 0.13042 0.0
H474 H 0.03745 0.33315 0.13104 0.0
H475 H 0.06779 0.33203 0.19892 0.0
H476 H 0.07272 0.38158 0.19825 0.0
H477 H 1.01697 0.29938 0.18881 0.0
H478 H 0.1086 0.31415 0.16261 0.0
H479 H 0.14314 0.33337 0.13727 0.0
H480 H 0.10579 0.29415 0.08069 0.0
H481 H 0.07066 0.27517 0.10562 0.0
C482 C 0.02966 0.16742 0.18153 0.0
C483 C 0.03007 0.15394 0.16064 0.0
C484 C 0.03384 0.19556 0.18281 0.0
C485 C 0.03752 0.21116 0.16316 0.0
C486 C 0.03801 0.19751 0.14231 0.0
C487 C 0.03459 0.16936 0.14109 0.0
C488 C 0.0411 0.24147 0.16415 0.0
C489 C 0.06134 0.25376 0.15089 0.0
C490 C 0.02473 0.25843 0.17782 0.0
C491 C 1.00104 0.24782 0.19032 0.0
C492 C 0.98054 0.23356 0.17895 0.0
C493 C 0.95822 0.22363 0.1908 0.0
C494 C 0.95605 0.22801 0.21399 0.0
C495 C 0.97617 0.24241 0.22537 0.0
C496 C 0.99855 0.25237 0.21361 0.0
C497 C 0.04738 0.37182 0.14555 0.0
C498 C 0.05748 0.38612 0.16432 0.0
C499 C 0.04505 0.34355 0.14582 0.0
C500 C 0.05235 0.3288 0.16499 0.0
C501 C 0.06204 0.34296 0.18393 0.0
C502 C 0.06491 0.37129 0.1835 0.0
C503 C 0.0498 0.29864 0.16514 0.0
C504 C 0.02975 0.28655 0.17853 0.0
C505 C 0.06565 0.28198 0.15097 0.0
C506 C 0.08679 0.29347 0.13598 0.0
C507 C 0.10754 0.30988 0.14473 0.0
C508 C 0.12728 0.32069 0.13044 0.0
C509 C 0.12662 0.31505 0.10737 0.0
C510 C 0.10625 0.29855 0.09855 0.0
C511 C 0.08642 0.28777 0.11276 0.0
H512 H 0.14194 0.3234 0.09634 0.0
H513 H 0.93875 0.2203 0.22313 0.0
H514 H 0.93379 0.8 0.44914 0.0
H515 H 0.98244 0.79202 0.44989 0.0
H516 H 0.98246 0.78137 0.3777 0.0
H517 H 0.93372 0.7875 0.37721 0.0
H518 H 1.01376 0.74724 0.39196 0.0
H519 H 1.00752 0.84164 0.40851 0.0
H520 H 0.99238 0.88259 0.42856 0.0
H521 H 0.02732 0.85338 0.48983 0.0
H522 H 0.0424 0.81208 0.47019 0.0
H523 H 0.15583 0.77188 0.37589 0.0
H524 H 0.10709 0.77948 0.37766 0.0
H525 H 0.10611 0.75428 0.44703 0.0
H526 H 0.1548 0.74588 0.44525 0.0
H527 H 0.07644 0.80598 0.4352 0.0
H528 H 0.08438 0.71138 0.41435 0.0
H529 H 0.10084 0.67376 0.39082 0.0
H530 H 0.06368 0.70875 0.33267 0.0
H531 H 0.04739 0.74685 0.35581 0.0
C532 C 0.94422 0.79599 0.43345 0.0
C533 C 0.92983 0.79441 0.41312 0.0
C534 C 0.97219 0.79162 0.43383 0.0
C535 C 0.98665 0.78652 0.41378 0.0
C536 C 0.97213 0.78512 0.39348 0.0
C537 C 0.94414 0.78875 0.39319 0.0
C538 C 1.01666 0.78209 0.41382 0.0
C539 C 0.02732 0.76043 0.40124 0.0
C540 C 0.03485 0.79886 0.42607 0.0
C541 C 0.02582 0.82364 0.43793 0.0
C542 C 1.0118 0.84386 0.42629 0.0
C543 C 1.00327 0.86715 0.43758 0.0
C544 C 1.00882 0.87055 0.46047 0.0
C545 C 0.023 0.8507 0.47211 0.0
C546 C 0.03156 0.82736 0.46091 0.0
C547 C 0.14531 0.76804 0.39158 0.0
C548 C 0.15931 0.75824 0.41043 0.0
C549 C 0.1174 0.77235 0.39253 0.0
C550 C 0.10289 0.76743 0.41247 0.0
C551 C 0.11687 0.75824 0.43148 0.0
C552 C 0.1447 0.75337 0.4304 0.0
C553 C 0.0731 0.77146 0.41329 0.0
C554 C 0.06263 0.79296 0.42601 0.0
C555 C 0.05516 0.75507 0.40066 0.0
C556 C 0.06493 0.73213 0.38677 0.0
C557 C 0.07996 0.71121 0.3965 0.0
C558 C 0.08921 0.68976 0.38324 0.0
C559 C 0.08338 0.6889 0.36024 0.0
C560 C 0.06823 0.70946 0.35047 0.0
C561 C 0.05897 0.73098 0.36366 0.0
H562 H 0.09053 0.67229 0.34998 0.0
H563 H 1.00219 0.88859 0.46918 0.0
H564 H 0.52022 0.88937 0.64066 0.0
H565 H 0.51241 0.84058 0.64063 0.0
H566 H 0.57591 0.83036 0.68898 0.0
H567 H 0.58403 0.87932 0.68913 0.0
H568 H 0.58074 0.79438 0.65557 0.0
H569 H 0.50761 0.82487 0.70205 0.0
H570 H 0.46708 0.85115 0.71151 0.0
H571 H 0.42429 0.81354 0.65691 0.0
H572 H 0.46471 0.78739 0.64684 0.0
H573 H 0.55701 0.65933 0.68952 0.0
H574 H 0.5634 0.708 0.68547 0.0
H575 H 0.49627 0.71086 0.63964 0.0
H576 H 0.48936 0.66192 0.64436 0.0
H577 H 0.49198 0.75072 0.66914 0.0
H578 H 0.56275 0.72163 0.62157 0.0
H579 H 0.60259 0.69638 0.60934 0.0
H580 H 0.64896 0.73173 0.66297 0.0
H581 H 0.60901 0.75695 0.67584 0.0
C582 C 0.53243 0.87686 0.65149 0.0
C583 C 0.55275 0.8885 0.66498 0.0
C584 C 0.52782 0.84881 0.65147 0.0
C585 C 0.54331 0.8315 0.66488 0.0
C586 C 0.56355 0.8431 0.67846 0.0
C587 C 0.56812 0.87121 0.67861 0.0
C588 C 0.53921 0.80132 0.66407 0.0
C589 C 0.56138 0.78489 0.65891 0.0
C590 C 0.51371 0.78869 0.6674 0.0
C591 C 0.48937 0.80445 0.67347 0.0
C592 C 0.48967 0.82241 0.69189 0.0
C593 C 0.46668 0.83725 0.6974 0.0
C594 C 0.44315 0.8341 0.68477 0.0
C595 C 0.44253 0.81599 0.66667 0.0
C596 C 0.46549 0.80117 0.66105 0.0
C597 C 0.54396 0.67017 0.67813 0.0
C598 C 0.52314 0.65642 0.66672 0.0
C599 C 0.54766 0.69815 0.6758 0.0
C600 C 0.53059 0.71344 0.66201 0.0
C601 C 0.50995 0.69969 0.65026 0.0
C602 C 0.5063 0.6715 0.65256 0.0
C603 C 0.53365 0.74377 0.66098 0.0
C604 C 0.51131 0.76023 0.66576 0.0
C605 C 0.5589 0.75654 0.65705 0.0
C606 C 0.58282 0.74098 0.64978 0.0
C607 C 0.58135 0.72381 0.63092 0.0
C608 C 0.60402 0.70954 0.62384 0.0
C609 C 0.62839 0.71242 0.63534 0.0
C610 C 0.63007 0.72951 0.65406 0.0
C611 C 0.60741 0.74381 0.66127 0.0
H612 H 0.64602 0.70153 0.62975 0.0
H613 H 0.42538 0.84562 0.68906 0.0
H614 H 0.43268 0.32112 0.9364 0.0
H615 H 0.48125 0.31298 0.93777 0.0
H616 H 0.47183 0.24616 0.89156 0.0
H617 H 0.42341 0.25461 0.8897 0.0
H618 H 0.51209 0.27391 0.95119 0.0
H619 H 0.52701 0.23892 0.85885 0.0
H620 H 0.50682 0.24636 0.82147 0.0
H621 H 0.4786 0.32424 0.84292 0.0
H622 H 0.4989 0.3174 0.88031 0.0
H623 H 0.64362 0.2169 0.9397 0.0
H624 H 0.59499 0.22526 0.93961 0.0
H625 H 0.60717 0.29268 0.89476 0.0
H626 H 0.65551 0.28397 0.89427 0.0
H627 H 0.56575 0.26648 0.88088 0.0
H628 H 0.59241 0.30005 0.9531 0.0
H629 H 0.61348 0.29836 0.99062 0.0
H630 H 0.56037 0.23339 0.00962 0.0
H631 H 0.5392 0.23446 0.97209 0.0
C632 C 0.4409 0.30466 0.92652 0.0
C633 C 0.42396 0.28863 0.91286 0.0
C634 C 0.46879 0.29996 0.92737 0.0
C635 C 0.48057 0.27913 0.91456 0.0
C636 C 0.46357 0.26272 0.90129 0.0
C637 C 0.43572 0.26751 0.90033 0.0
C638 C 0.51055 0.27475 0.91496 0.0
C639 C 0.52375 0.27221 0.93577 0.0
C640 C 0.52621 0.27304 0.89497 0.0
C641 C 0.51424 0.2775 0.87244 0.0
C642 C 0.51658 0.25767 0.85555 0.0
C643 C 0.5051 0.26178 0.83437 0.0
C644 C 0.49136 0.28572 0.82985 0.0
C645 C 0.48916 0.30566 0.84647 0.0
C646 C 0.50062 0.30166 0.86766 0.0
C647 C 0.63598 0.2336 0.92991 0.0
C648 C 0.65368 0.24977 0.91707 0.0
C649 C 0.60806 0.23846 0.92993 0.0
C650 C 0.59711 0.25984 0.91734 0.0
C651 C 0.61483 0.27601 0.90458 0.0
C652 C 0.64264 0.27105 0.90441 0.0
C653 C 0.56728 0.26523 0.91712 0.0
C654 C 0.5541 0.268 0.89631 0.0
C655 C 0.55178 0.26782 0.93713 0.0
C656 C 0.56441 0.26716 0.95971 0.0
C657 C 0.58536 0.28527 0.96522 0.0
C658 C 0.59729 0.28445 0.9865 0.0
C659 C 0.58832 0.26573 0.00247 0.0
C660 C 0.56733 0.24785 -0.00278 0.0
C661 C 0.55534 0.24857 0.97595 0.0
H662 H 0.59758 0.26513 0.01893 0.0
H663 H 0.48247 0.28885 0.81345 0.0
H664 H 0.04246 0.66262 0.86035 0.0
H665 H 0.03582 0.71141 0.85834 0.0
H666 H 0.059 0.71033 0.78824 0.0
H667 H 0.06719 0.66164 0.79061 0.0
H668 H 0.07904 0.75224 0.804 0.0
H669 H 0.99091 0.71634 0.81018 0.0
H670 H 0.95169 0.69106 0.8248 0.0
H671 H 0.95276 0.73902 0.88518 0.0
H672 H 0.99265 0.76389 0.87136 0.0
H673 H 1.0173 0.885 0.78633 0.0
H674 H 0.02312 0.83559 0.78558 0.0
H675 H 0.04153 0.83656 0.85642 0.0
H676 H 0.03669 0.88581 0.85716 0.0
H677 H 0.99874 0.79564 0.83794 0.0
H678 H 0.09013 0.83045 0.8282 0.0
H679 H 0.12384 0.85822 0.80816 0.0
H680 H 0.1102 0.81249 0.74765 0.0
H681 H 0.07558 0.78511 0.7671 0.0
C682 C 0.04611 0.67274 0.84446 0.0
C683 C 0.05526 0.65806 0.8256 0.0
C684 C 0.04208 0.70076 0.84327 0.0
C685 C 0.04625 0.7149 0.82299 0.0
C686 C 0.05553 0.70021 0.80415 0.0
C687 C 0.06016 0.67223 0.80547 0.0
C688 C 0.04157 0.74494 0.8216 0.0
C689 C 0.06121 0.76146 0.81121 0.0
C690 C 1.01838 0.75757 0.83095 0.0
C691 C 0.99506 0.74181 0.8398 0.0
C692 C 0.9831 0.72122 0.82674 0.0
C693 C 0.96071 0.70696 0.83488 0.0
C694 C 0.94977 0.71339 0.85591 0.0
C695 C 0.96127 0.73403 0.86889 0.0
C696 C 0.98387 0.74812 0.86096 0.0
C697 C 0.02266 0.87469 0.80172 0.0
C698 C 0.02666 0.88943 0.82178 0.0
C699 C 0.02599 0.84646 0.80127 0.0
C700 C 0.03275 0.83234 0.82096 0.0
C701 C 0.0363 0.84697 0.84104 0.0
C702 C 0.03365 0.87518 0.84138 0.0
C703 C 0.03626 0.80236 0.82076 0.0
C704 C 1.01642 0.78604 0.8308 0.0
C705 C 0.05876 0.78985 0.81054 0.0
C706 C 0.07999 0.80596 0.79904 0.0
C707 C 0.09406 0.82651 0.81056 0.0
C708 C 0.1134 0.84214 0.79932 0.0
C709 C 0.11921 0.83709 0.77666 0.0
C710 C 0.10567 0.8164 0.76519 0.0
C711 C 0.08613 0.80087 0.7763 0.0
H712 H 0.13422 0.8492 0.76801 0.0
H713 H 0.93236 0.70241 0.86215 0.0
H714 H 0.42895 0.73299 0.04507 0.0
H715 H 0.47768 0.7408 0.04329 0.0
H716 H 0.47138 0.7993 0.09696 0.0
H717 H 0.42288 0.79128 0.09915 0.0
H718 H 0.51004 0.78059 0.03398 0.0
H719 H 0.52862 0.79912 0.12958 0.0
H720 H 0.50828 0.78628 0.16602 0.0
H721 H 0.47418 0.71493 0.13579 0.0
H722 H 0.49455 0.7272 0.09928 0.0
H723 H 0.64435 0.83125 0.04875 0.0
H724 H 0.59537 0.82432 0.04837 0.0
H725 H 0.60452 0.75198 0.08796 0.0
H726 H 0.65306 0.75942 0.08915 0.0
H727 H 0.56444 0.77596 0.10373 0.0
H728 H 0.58922 0.75275 0.02842 0.0
H729 H 0.61001 0.75916 0.99103 0.0
H730 H 0.55942 0.82777 0.97931 0.0
H731 H 0.53855 0.82196 0.01677 0.0
C732 C 0.43788 0.74766 0.05644 0.0
C733 C 0.4218 0.76139 0.07233 0.0
C734 C 0.46586 0.75217 0.05536 0.0
C735 C 0.47859 0.77047 0.07016 0.0
C736 C 0.46239 0.78477 0.08557 0.0
C737 C 0.43448 0.7802 0.08674 0.0
C738 C 0.50873 0.77417 0.06981 0.0
C739 C 0.52187 0.77964 0.04928 0.0
C740 C 0.52461 0.77232 0.08959 0.0
C741 C 0.51272 0.76439 0.1116 0.0
C742 C 0.51678 0.78071 0.13073 0.0
C743 C 0.50526 0.77352 0.15139 0.0
C744 C 0.48982 0.74989 0.15319 0.0
C745 C 0.48601 0.73331 0.13435 0.0
C746 C 0.49751 0.74041 0.11366 0.0
C747 C 0.63593 0.81379 0.05726 0.0
C748 C 0.65283 0.7959 0.06891 0.0
C749 C 0.60781 0.80973 0.05697 0.0
C750 C 0.59587 0.78737 0.06793 0.0
C751 C 0.61287 0.76946 0.07942 0.0
C752 C 0.64083 0.77371 0.07999 0.0
C753 C 0.5658 0.78276 0.06792 0.0
C754 C 0.55264 0.77707 0.08842 0.0
C755 C 0.55006 0.78353 0.04801 0.0
C756 C 0.56253 0.78708 0.02549 0.0
C757 C 0.58267 0.76932 0.01793 0.0
C758 C 0.59444 0.77283 -0.00328 0.0
C759 C 0.58609 0.79391 0.98283 0.0
C760 C 0.56589 0.81148 0.9901 0.0
C761 C 0.55407 0.80808 0.01132 0.0
H762 H 0.59523 0.79659 0.96641 0.0
H763 H 0.48088 0.74438 0.16919 0.0
H764 H 0.50586 0.38322 0.29082 0.0
H765 H 0.51296 0.33425 0.28944 0.0
H766 H 0.55697 0.33868 0.3519 0.0
H767 H 0.55085 0.38757 0.35286 0.0
H768 H 0.58183 0.30589 0.32688 0.0
H769 H 0.48943 0.3138 0.34715 0.0
H770 H 0.44239 0.32901 0.34413 0.0
H771 H 0.43485 0.28851 0.28036 0.0
H772 H 0.48203 0.27336 0.28286 0.0
H773 H 0.56744 0.16721 0.36001 0.0
H774 H 0.56065 0.21601 0.35714 0.0
H775 H 0.54593 0.20779 0.28598 0.0
H776 H 0.55335 0.15876 0.28858 0.0
H777 H 0.50645 0.24155 0.31341 0.0
H778 H 0.60169 0.23177 0.29738 0.0
H779 H 0.64767 0.21586 0.30532 0.0
H780 H 0.6477 0.25955 0.36792 0.0
H781 H 0.60152 0.27537 0.36053 0.0
C782 C 0.51708 0.37376 0.30424 0.0
C783 C 0.52779 0.38944 0.32193 0.0
C784 C 0.52101 0.34563 0.30352 0.0
C785 C 0.53525 0.33239 0.32073 0.0
C786 C 0.546 0.34815 0.33834 0.0
C787 C 0.5424 0.37624 0.3389 0.0
C788 C 0.53922 0.30227 0.32043 0.0
C789 C 0.56519 0.29195 0.32413 0.0
C790 C 0.51774 0.28369 0.31667 0.0
C791 C 0.48936 0.29272 0.31506 0.0
C792 C 0.47781 0.30832 0.33239 0.0
C793 C 0.45111 0.3169 0.33079 0.0
C794 C 0.43565 0.3098 0.31203 0.0
C795 C 0.44686 0.29404 0.29486 0.0
C796 C 0.47359 0.28544 0.29636 0.0
C797 C 0.56277 0.17568 0.3437 0.0
C798 C 0.561 0.15893 0.32451 0.0
C799 C 0.55892 0.20366 0.3421 0.0
C800 C 0.55277 0.21563 0.32136 0.0
C801 C 0.55062 0.19901 0.30218 0.0
C802 C 0.55501 0.171 0.30367 0.0
C803 C 0.5489 0.24551 0.31986 0.0
C804 C 0.52299 0.25568 0.31594 0.0
C805 C 0.57024 0.26395 0.32408 0.0
C806 C 0.59804 0.25453 0.32849 0.0
C807 C 0.6114 0.23777 0.31294 0.0
C808 C 0.63751 0.22881 0.31732 0.0
C809 C 0.65057 0.23663 0.33714 0.0
C810 C 0.63755 0.25348 0.35259 0.0
C811 C 0.61141 0.26246 0.34831 0.0
H812 H 0.67079 0.22968 0.3405 0.0
H813 H 0.41497 0.31646 0.31083 0.0
H814 H 0.16205 0.25931 0.60162 0.0
H815 H 0.11349 0.25106 0.60049 0.0
H816 H 0.10562 0.30965 0.54743 0.0
H817 H 0.15436 0.31753 0.54802 0.0
H818 H 0.07189 0.2785 0.60944 0.0
H819 H 0.05145 0.2962 0.51456 0.0
H820 H 0.07468 0.29092 0.47802 0.0
H821 H 0.12473 0.22908 0.50599 0.0
H822 H 0.10158 0.23375 0.54259 0.0
H823 H 0.93043 0.28947 0.59536 0.0
H824 H 0.97914 0.2968 0.59481 0.0
H825 H 0.9888 0.22607 0.55293 0.0
H826 H 0.93986 0.21931 0.5527 0.0
H827 H 0.02206 0.26101 0.53858 0.0
H828 H 1.0035 0.22863 0.61283 0.0
H829 H 0.98146 0.22737 0.6501 0.0
H830 H 1.0113 0.30722 0.66466 0.0
H831 H 0.03327 0.30907 0.62736 0.0
C832 C 0.15011 0.27031 0.58952 0.0
C833 C 0.1624 0.28896 0.57475 0.0
C834 C 0.12216 0.26562 0.58898 0.0
C835 C 0.10554 0.27937 0.57372 0.0
C836 C 0.11777 0.2982 0.55908 0.0
C837 C 0.14579 0.30279 0.55948 0.0
C838 C 0.07553 0.2742 0.57346 0.0
C839 C 0.06108 0.27471 0.59389 0.0
C840 C 0.06108 0.26866 0.55335 0.0
C841 C 0.07497 0.26555 0.53137 0.0
C842 C 0.06736 0.28142 0.51288 0.0
C843 C 0.08052 0.27854 0.49217 0.0
C844 C 0.10123 0.25974 0.48971 0.0
C845 C 0.10876 0.24371 0.50794 0.0
C846 C 0.09565 0.24649 0.52868 0.0
C847 C 0.94286 0.27546 0.58595 0.0
C848 C 0.93101 0.25373 0.57409 0.0
C849 C 0.97091 0.27957 0.5858 0.0
C850 C 0.98814 0.26174 0.57419 0.0
C851 C 0.97626 0.24022 0.56208 0.0
C852 C 0.94814 0.23631 0.56198 0.0
C853 C 1.01835 0.26559 0.57455 0.0
C854 C 0.03285 0.26485 0.55414 0.0
C855 C 0.03298 0.27012 0.59476 0.0
C856 C 0.01979 0.26909 0.6172 0.0
C857 C 1.0052 0.24599 0.62392 0.0
C858 C 0.99275 0.24516 0.64506 0.0
C859 C 0.99492 0.26723 0.65971 0.0
C860 C 1.00961 0.29015 0.65328 0.0
C861 C 0.02208 0.29109 0.63215 0.0
H862 H 0.98526 0.26655 0.67607 0.0
H863 H 0.1114 0.25756 0.47367 0.0
H864 H 0.21334 0.23468 0.96757 0.0
H865 H 0.18018 0.21826 -0.00505 0.0
H866 H 0.24458 0.1916 0.03797 0.0
H867 H 0.27768 0.20778 0.01035 0.0
H868 H 0.21312 0.15075 0.0272 0.0
H869 H 0.19682 0.23959 0.05657 0.0
H870 H 0.1857 0.28817 0.05664 0.0
H871 H 0.11062 0.2709 0.02385 0.0
H872 H 0.12105 0.22219 0.02379 0.0
H873 H 0.12774 0.0936 0.11109 0.0
H874 H 0.16031 0.12134 0.09045 0.0
H875 H 0.09819 0.14501 0.04405 0.0
H876 H 0.06533 0.11731 0.06474 0.0
H877 H 0.12846 0.18872 0.05807 0.0
H878 H 0.14545 0.10049 0.02772 0.0
H879 H 0.15531 0.05172 0.02905 0.0
H880 H 0.22966 0.06839 0.06335 0.0
H881 H 0.22006 0.11727 0.06247 0.0
C882 C 0.22036 0.22668 0.98345 0.0
C883 C 0.24806 0.22295 0.98706 0.0
C884 C 0.20137 0.2171 -0.00091 0.0
C885 C 0.20976 0.2035 0.01859 0.0
C886 C 0.23753 0.20196 0.02308 0.0
C887 C 0.2565 0.21155 0.00745 0.0
C888 C 0.19008 0.18713 0.03205 0.0
C889 C 0.19491 0.15928 0.03437 0.0
C890 C 0.16572 0.19785 0.0407 0.0
C891 C 0.15984 0.22723 0.03998 0.0
C892 C 0.17806 0.24616 0.04915 0.0
C893 C 0.17186 0.27371 0.04926 0.0
C894 C 0.14762 0.28262 0.04009 0.0
C895 C 0.12943 0.26398 0.03089 0.0
C896 C 0.13542 0.23639 0.03091 0.0
C897 C 0.121 0.10443 0.09635 0.0
C898 C 0.09388 0.10304 0.08954 0.0
C899 C 0.1397 0.12035 0.08454 0.0
C900 C 0.13179 0.13528 0.06562 0.0
C901 C 0.1048 0.13375 0.05862 0.0
C902 C 0.08607 0.11768 0.07036 0.0
C903 C 0.15174 0.15256 0.0533 0.0
C904 C 0.14684 0.1804 0.05107 0.0
C905 C 0.17608 0.14191 0.04467 0.0
C906 C 0.18189 0.11252 0.04524 0.0
C907 C 0.16379 0.09374 0.03572 0.0
C908 C 0.16935 0.06608 0.03635 0.0
C909 C 0.19306 0.05695 0.04634 0.0
C910 C 0.21128 0.07548 0.05565 0.0
C911 C 0.2058 0.10317 0.05507 0.0
H912 H 0.19733 0.03553 0.04681 0.0
H913 H 0.14287 0.30395 0.04021 0.0
H914 H 0.06599 0.93868 0.24296 0.0
H915 H 0.09314 0.91499 0.27078 0.0
H916 H 0.15707 0.97353 0.26184 0.0
H917 H 0.12986 0.99712 0.2336 0.0
H918 H 0.17595 0.92341 0.25727 0.0
H919 H 0.12068 0.96845 0.31184 0.0
H920 H 0.07798 0.98316 0.32918 0.0
H921 H 0.05461 0.90036 0.33941 0.0
H922 H 0.09696 0.88512 0.3218 0.0
H923 H 0.22005 0.85876 0.37228 0.0
H924 H 0.19696 0.89297 0.35009 0.0
H925 H 0.1949 0.83859 0.29321 0.0
H926 H 0.21828 0.80424 0.3153 0.0
H927 H 0.14771 0.89131 0.33281 0.0
H928 H 0.19381 0.87517 0.24442 0.0
H929 H 0.23677 0.86128 0.22705 0.0
H930 H 0.27981 0.88901 0.28543 0.0
H931 H 0.23713 0.90336 0.30304 0.0
C932 C 0.08546 0.94704 0.24753 0.0
C933 C 0.0957 0.9699 0.23627 0.0
C934 C 0.10105 0.93342 0.26341 0.0
C935 C 0.12727 0.94237 0.26849 0.0
C936 C 0.13694 0.96617 0.25821 0.0
C937 C 0.12125 0.97989 0.24232 0.0
C938 C 0.14521 0.92554 0.2829 0.0
C939 C 0.16982 0.91657 0.27386 0.0
C940 C 0.13736 0.9165 0.30458 0.0
C941 C 0.11197 0.92565 0.31539 0.0
C942 C 0.10637 0.95337 0.31766 0.0
C943 C 0.08223 0.9618 0.32756 0.0
C944 C 0.0636 0.9427 0.3354 0.0
C945 C 0.06907 0.91513 0.33335 0.0
C946 C 0.09315 0.90658 0.32344 0.0
C947 C 0.21509 0.85414 0.35494 0.0
C948 C 0.22113 0.82865 0.34562 0.0
C949 C 0.2017 0.87375 0.34228 0.0
C950 C 0.19414 0.86852 0.31992 0.0
C951 C 0.20077 0.84334 0.31033 0.0
C952 C 0.21417 0.82366 0.32301 0.0
C953 C 0.17827 0.88892 0.30706 0.0
C954 C 0.15397 0.89839 0.31633 0.0
C955 C 0.18642 0.89847 0.28561 0.0
C956 C 0.21223 0.89012 0.27512 0.0
C957 C 0.21245 0.8784 0.25352 0.0
C958 C 0.23675 0.87042 0.24363 0.0
C959 C 0.261 0.87419 0.25516 0.0
C960 C 0.261 0.88601 0.27656 0.0
C961 C 0.23676 0.89403 0.28652 0.0
H962 H 0.27979 0.868 0.24748 0.0
H963 H 0.04494 0.94926 0.34309 0.0
H964 H 0.31202 0.84651 0.49152 0.0
H965 H 0.33562 0.87197 0.52107 0.0
H966 H 0.40681 0.8241 0.50937 0.0
H967 H 0.38254 0.79708 0.48203 0.0
H968 H 0.40757 0.83368 0.5489 0.0
H969 H 0.39947 0.90416 0.48762 0.0
H970 H 0.37198 0.93025 0.46078 0.0
H971 H 0.31748 0.95168 0.51416 0.0
H972 H 0.34466 0.92553 0.54116 0.0
H973 H 0.51604 0.92364 0.57359 0.0
H974 H 0.4814 0.89819 0.55305 0.0
H975 H 0.41952 0.93678 0.59252 0.0
H976 H 0.45411 0.96196 0.61349 0.0
H977 H 0.40858 0.93377 0.54471 0.0
H978 H 0.43471 0.87622 0.60602 0.0
H979 H 0.46499 0.84967 0.62996 0.0
H980 H 0.48976 0.80277 0.57262 0.0
H981 H 0.46009 0.82954 0.54819 0.0
C982 C 0.33241 0.84091 0.49584 0.0
C983 C 0.34548 0.82001 0.48405 0.0
C984 C 0.34625 0.85603 0.51235 0.0
C985 C 0.37363 0.85101 0.51701 0.0
C986 C 0.3859 0.8289 0.50623 0.0
C987 C 0.37195 0.81341 0.49035 0.0
C988 C 0.39005 0.86836 0.53277 0.0
C989 C 0.40789 0.85556 0.54764 0.0
C990 C 0.39013 0.89707 0.53217 0.0
C991 C 0.37358 0.91239 0.51612 0.0
C992 C 0.3814 0.91417 0.49346 0.0
C993 C 0.36597 0.92904 0.47828 0.0
C994 C 0.34286 0.94242 0.48572 0.0
C995 C 0.33527 0.94115 0.50839 0.0
C996 C 0.35069 0.92635 0.52362 0.0
C997 C 0.49506 0.92703 0.57772 0.0
C998 C 0.48788 0.94493 0.59518 0.0
C999 C 0.47528 0.91228 0.56607 0.0
C1000 C 0.44785 0.91535 0.57139 0.0
C1001 C 0.44054 0.93399 0.58818 0.0
C1002 C 0.46035 0.9484 0.60012 0.0
C1003 C 0.42695 0.89884 0.55957 0.0
C1004 C 0.40817 0.91187 0.5458 0.0
C1005 C 0.42652 0.87027 0.5607 0.0
C1006 C 0.4453 0.85504 0.57525 0.0
C1007 C 0.4469 0.86052 0.59845 0.0
C1008 C 0.46389 0.84533 0.61213 0.0
C1009 C 0.47922 0.82442 0.60284 0.0
C1010 C 0.47784 0.81892 0.5798 0.0
C1011 C 0.46097 0.83412 0.56603 0.0
H1012 H 0.4921 0.81237 0.61344 0.0
H1013 H 0.33092 0.95391 0.47395 0.0
H1014 H 0.37119 0.2417 0.81765 0.0
H1015 H 0.39416 0.20705 0.79527 0.0
H1016 H 0.38412 0.15005 0.84949 0.0
H1017 H 0.36143 0.18458 0.87201 0.0
H1018 H 0.43523 0.15034 0.83462 0.0
H1019 H 0.34747 0.14696 0.80098 0.0
H1020 H 0.30743 0.16416 0.78146 0.0
H1021 H 0.35641 0.18675 0.72474 0.0
H1022 H 0.39684 0.16991 0.74406 0.0
H1023 H 0.45384 0.0449 0.73516 0.0
H1024 H 0.42634 0.0701 0.76248 0.0
H1025 H 0.49231 0.12583 0.77316 0.0
H1026 H 0.51965 0.10067 0.74601 0.0
H1027 H 0.41066 0.12205 0.75714 0.0
H1028 H 0.48718 0.15463 0.82507 0.0
H1029 H 0.52775 0.13699 0.84369 0.0
H1030 H 0.50072 0.05561 0.8315 0.0
H1031 H 0.45979 0.07275 0.81308 0.0
C1032 C 0.37349 0.22168 0.82471 0.0
C1033 C 0.36446 0.21603 0.8467 0.0
C1034 C 0.38666 0.20184 0.81186 0.0
C1035 C 0.39096 0.17583 0.82065 0.0
C1036 C 0.38126 0.16995 0.84235 0.0
C1037 C 0.36814 0.18975 0.85519 0.0
C1038 C 0.40662 0.15514 0.80774 0.0
C1039 C 0.42975 0.14413 0.8177 0.0
C1040 C 0.39957 0.14687 0.78563 0.0
C1041 C 0.37526 0.15726 0.77408 0.0
C1042 C 0.34976 0.1557 0.78442 0.0
C1043 C 0.32697 0.16539 0.77337 0.0
C1044 C 0.32937 0.17658 0.75188 0.0
C1045 C 0.35457 0.17809 0.7414 0.0
C1046 C 0.37744 0.16844 0.75239 0.0
C1047 C 0.46279 0.06181 0.74412 0.0
C1048 C 0.48906 0.07049 0.73884 0.0
C1049 C 0.44695 0.07648 0.75945 0.0
C1050 C 0.45719 0.09992 0.76996 0.0
C1051 C 0.48399 0.10766 0.7656 0.0
C1052 C 0.4997 0.09316 0.75018 0.0
C1053 C 0.43936 0.11756 0.78394 0.0
C1054 C 0.41595 0.12813 0.77414 0.0
C1055 C 0.44623 0.1256 0.80611 0.0
C1056 C 0.47049 0.11501 0.81757 0.0
C1057 C 0.4898 0.13297 0.82648 0.0
C1058 C 0.51288 0.12306 0.83698 0.0
C1059 C 0.51682 0.0952 0.83876 0.0
C1060 C 0.49766 0.07719 0.83007 0.0
C1061 C 0.47453 0.08699 0.81957 0.0
H1062 H 0.53471 0.08758 0.84689 0.0
H1063 H 0.3117 0.18406 0.74335 0.0
H1064 H 0.26268 0.86723 0.00925 0.0
H1065 H 0.23694 0.89352 0.98181 0.0
H1066 H 0.19702 0.82057 0.95943 0.0
H1067 H 0.2227 0.79439 0.9869 0.0
H1068 H 0.20463 0.85656 0.92442 0.0
H1069 H 0.16867 0.85558 -0.00084 0.0
H1070 H 0.17132 0.86122 0.04037 0.0
H1071 H 0.18892 0.94575 0.03211 0.0
H1072 H 0.18688 0.94049 0.99079 0.0
H1073 H 0.06896 0.93505 0.91808 0.0
H1074 H 0.10295 0.9117 0.94039 0.0
H1075 H 0.16449 0.93651 0.89321 0.0
H1076 H 0.1305 0.95929 0.87053 0.0
H1077 H 0.14629 0.92369 0.96283 0.0
H1078 H 0.21191 0.88731 0.88771 0.0
H1079 H 0.20716 0.87537 0.84755 0.0
H1080 H 0.12331 0.85724 0.85785 0.0
H1081 H 0.12764 0.8687 0.89815 0.0
C1082 C 0.2494 0.85669 -0.00233 0.0
C1083 C 0.245 0.82875 -0.00013 0.0
C1084 C 0.23442 0.87175 0.98222 0.0
C1085 C 0.21472 0.85909 0.96878 0.0
C1086 C 0.21209 0.8308 0.96957 0.0
C1087 C 0.22693 0.8158 0.98512 0.0
C1088 C 0.19476 0.87542 0.95603 0.0
C1089 C 0.19207 0.87145 0.93275 0.0
C1090 C 0.17762 0.89414 0.96702 0.0
C1091 C 0.17795 0.89758 0.99187 0.0
C1092 C 0.17326 0.87534 0.00612 0.0
C1093 C 0.17467 0.87845 0.0295 0.0
C1094 C 0.18047 0.90379 0.03883 0.0
C1095 C 0.18457 0.92611 0.02483 0.0
C1096 C 0.18328 0.92308 0.00143 0.0
C1097 C 0.08977 0.93584 0.91258 0.0
C1098 C 0.09691 0.94887 0.89236 0.0
C1099 C 0.10925 0.92242 0.92538 0.0
C1100 C 0.13632 0.92177 0.91832 0.0
C1101 C 0.1437 0.93606 0.89879 0.0
C1102 C 0.12421 0.94927 0.88588 0.0
C1103 C 0.15654 0.90543 0.93094 0.0
C1104 C 0.15911 0.90918 0.95433 0.0
C1105 C 0.17302 0.8859 0.92013 0.0
C1106 C 0.17006 0.87916 0.89589 0.0
C1107 C 0.19247 0.88075 0.88141 0.0
C1108 C 0.18985 0.87406 0.85863 0.0
C1109 C 0.16495 0.86562 0.85015 0.0
C1110 C 0.14257 0.86386 0.86443 0.0
C1111 C 0.14509 0.87049 0.88724 0.0
H1112 H 0.16306 0.86036 0.83254 0.0
H1113 H 0.18167 0.90615 0.05693 0.0
H1114 H 0.45899 1.00283 0.24836 0.0
H1115 H 0.43399 0.97868 0.21874 0.0
H1116 H 0.48788 0.91098 0.22516 0.0
H1117 H 0.5135 0.93557 0.25352 0.0
H1118 H 0.47478 0.91289 0.18477 0.0
H1119 H 0.42133 0.91458 0.25316 0.0
H1120 H 0.39822 0.93699 0.28494 0.0
H1121 H 0.34878 0.98065 0.23844 0.0
H1122 H 0.37207 0.95873 0.20646 0.0
H1123 H 0.38999 0.79862 0.16207 0.0
H1124 H 0.41518 0.83385 0.18227 0.0
H1125 H 0.37008 0.8953 0.14788 0.0
H1126 H 0.34528 0.86012 0.12706 0.0
H1127 H 0.37663 0.90155 0.19787 0.0
H1128 H 0.42721 0.88628 0.12965 0.0
H1129 H 0.45329 0.8612 0.10112 0.0
H1130 H 0.51039 0.83802 0.15156 0.0
H1131 H 0.48414 0.86194 0.18051 0.0
C1132 C 0.46604 0.98324 0.24276 0.0
C1133 C 0.48815 0.97107 0.25333 0.0
C1134 C 0.45142 0.96916 0.22614 0.0
C1135 C 0.4584 0.94251 0.22009 0.0
C1136 C 0.48179 0.93136 0.22945 0.0
C1137 C 0.49653 0.94549 0.24571 0.0
C1138 C 0.44102 0.92542 0.20503 0.0
C1139 C 0.45335 0.91032 0.18781 0.0
C1140 C 0.41286 0.92227 0.20849 0.0
C1141 C 0.39875 0.93543 0.22753 0.0
C1142 C 0.40578 0.92921 0.2498 0.0
C1143 C 0.3926 0.94176 0.26782 0.0
C1144 C 0.37212 0.96035 0.26371 0.0
C1145 C 0.36472 0.96632 0.24159 0.0
C1146 C 0.3779 0.95385 0.22352 0.0
C1147 C 0.38517 0.81961 0.15898 0.0
C1148 C 0.36552 0.82656 0.14301 0.0
C1149 C 0.39974 0.83973 0.17042 0.0
C1150 C 0.39466 0.86721 0.16645 0.0
C1151 C 0.37439 0.87423 0.15114 0.0
C1152 C 0.36021 0.85411 0.1393 0.0
C1153 C 0.41068 0.88847 0.17826 0.0
C1154 C 0.39802 0.90436 0.19476 0.0
C1155 C 0.43873 0.89167 0.17462 0.0
C1156 C 0.45351 0.87576 0.15734 0.0
C1157 C 0.44499 0.87535 0.13477 0.0
C1158 C 0.45987 0.86136 0.11848 0.0
C1159 C 0.48348 0.848 0.12451 0.0
C1160 C 0.49205 0.84824 0.14688 0.0
C1161 C 0.47713 0.86195 0.16325 0.0
H1162 H 0.49528 0.83765 0.11183 0.0
H1163 H 0.3619 0.97004 0.27767 0.0
H1164 H 0.36419 0.25582 0.49145 0.0
H1165 H 0.39068 0.23194 0.46277 0.0
H1166 H 0.35379 0.15653 0.48293 0.0
H1167 H 0.32684 0.18064 0.51108 0.0
H1168 H 0.42816 0.19773 0.46946 0.0
H1169 H 0.3578 0.10926 0.44157 0.0
H1170 H 0.30959 0.10113 0.4339 0.0
H1171 H 0.29877 0.18554 0.42011 0.0
H1172 H 0.34696 0.19412 0.4274 0.0
H1173 H 0.50997 0.0952 0.42146 0.0
H1174 H 0.47601 0.11811 0.44458 0.0
H1175 H 0.43214 0.13921 0.38464 0.0
H1176 H 0.46544 0.1158 0.3616 0.0
H1177 H 0.39746 0.12721 0.41567 0.0
H1178 H 0.47596 0.18444 0.41271 0.0
H1179 H 0.52392 0.19642 0.41753 0.0
H1180 H 0.51773 0.18079 0.48846 0.0
H1181 H 0.46983 0.1683 0.48399 0.0
C1182 C 0.36084 0.23435 0.48894 0.0
C1183 C 0.34279 0.22021 0.50294 0.0
C1184 C 0.37632 0.22059 0.47281 0.0
C1185 C 0.37433 0.19231 0.47048 0.0
C1186 C 0.35543 0.17835 0.4839 0.0
C1187 C 0.33981 0.19216 0.4999 0.0
C1188 C 0.39354 0.17725 0.45552 0.0
C1189 C 0.42133 0.18224 0.45779 0.0
C1190 C 0.38493 0.15734 0.43984 0.0
C1191 C 0.35595 0.15235 0.43526 0.0
C1192 C 0.34515 0.12606 0.43683 0.0
C1193 C 0.31783 0.12138 0.43256 0.0
C1194 C 0.30111 0.14282 0.4266 0.0
C1195 C 0.31171 0.16897 0.42482 0.0
C1196 C 0.33902 0.17376 0.42906 0.0
C1197 C 0.49291 0.10439 0.41322 0.0
C1198 C 0.49061 0.10367 0.38961 0.0
C1199 C 0.47355 0.11771 0.42647 0.0
C1200 C 0.45161 0.13094 0.41642 0.0
C1201 C 0.44879 0.1293 0.39292 0.0
C1202 C 0.46798 0.11587 0.37971 0.0
C1203 C 0.43205 0.14719 0.43013 0.0
C1204 C 0.40423 0.14249 0.42755 0.0
C1205 C 0.44059 0.16773 0.44528 0.0
C1206 C 0.4694 0.17516 0.44797 0.0
C1207 C 0.48489 0.18335 0.4293 0.0
C1208 C 0.51206 0.19026 0.43198 0.0
C1209 C 0.52389 0.18929 0.45328 0.0
C1210 C 0.50856 0.18148 0.47196 0.0
C1211 C 0.4814 0.17449 0.46937 0.0
H1212 H 0.54492 0.19467 0.45532 0.0
H1213 H 0.27996 0.13915 0.42331 0.0
H1214 H 0.12186 0.04158 0.73498 0.0
H1215 H 0.14116 0.07306 0.70727 0.0
H1216 H 0.10827 0.14031 0.74443 0.0
H1217 H 0.08909 0.10885 0.77209 0.0
H1218 H 0.10769 0.14987 0.69867 0.0
H1219 H 0.17031 0.12112 0.75465 0.0
H1220 H 0.19529 0.08787 0.77714 0.0
H1221 H 0.23246 0.05692 0.71704 0.0
H1222 H 0.20726 0.08968 0.69412 0.0
H1223 H 0.20131 0.25389 0.66743 0.0
H1224 H 0.17582 0.22077 0.6897 0.0
H1225 H 0.20606 0.15642 0.64775 0.0
H1226 H 0.23122 0.18948 0.62511 0.0
H1227 H 0.20745 0.14477 0.69476 0.0
H1228 H 0.14434 0.1743 0.63901 0.0
H1229 H 0.11768 0.20656 0.61697 0.0
H1230 H 0.08178 0.23718 0.67774 0.0
H1231 H 0.1083 0.20496 0.70017 0.0
C1232 C 0.11775 0.06299 0.73662 0.0
C1233 C 0.10362 0.07277 0.75545 0.0
C1234 C 0.1291 0.08102 0.72098 0.0
C1235 C 0.12658 0.10915 0.72394 0.0
C1236 C 0.11054 0.11877 0.74174 0.0
C1237 C 0.09939 0.10077 0.75745 0.0
C1238 C 0.14274 0.12851 0.71001 0.0
C1239 C 0.1295 0.14888 0.69798 0.0
C1240 C 0.17126 0.12719 0.7089 0.0
C1241 C 0.18666 0.10765 0.72263 0.0
C1242 C 0.18363 0.10708 0.7462 0.0
C1243 C 0.19785 0.08834 0.75903 0.0
C1244 C 0.21541 0.07025 0.74852 0.0
C1245 C 0.21882 0.07092 0.72515 0.0
C1246 C 0.20456 0.08956 0.71223 0.0
C1247 C 0.20285 0.23266 0.66309 0.0
C1248 C 0.21843 0.22437 0.64449 0.0
C1249 C 0.18805 0.21376 0.67575 0.0
C1250 C 0.18878 0.18609 0.6703 0.0
C1251 C 0.20509 0.17764 0.65226 0.0
C1252 C 0.21951 0.19658 0.63934 0.0
C1253 C 0.17238 0.16603 0.68331 0.0
C1254 C 0.18562 0.14565 0.69532 0.0
C1255 C 0.14391 0.1675 0.68457 0.0
C1256 C 0.12854 0.18745 0.67127 0.0
C1257 C 0.131 0.18813 0.64769 0.0
C1258 C 0.11584 0.20636 0.63512 0.0
C1259 C 0.09814 0.22406 0.64595 0.0
C1260 C 0.09555 0.22351 0.66938 0.0
C1261 C 0.11059 0.20521 0.68203 0.0
H1262 H 0.08633 0.2381 0.63619 0.0
H1263 H 0.22642 0.05577 0.75848 0.0
H1264 H 0.96691 0.92447 0.91949 0.0
H1265 H 0.92531 0.90939 0.93786 0.0
H1266 H 0.88052 0.92752 0.8777 0.0
H1267 H 0.92238 0.94232 0.85903 0.0
H1268 H 0.85704 0.9478 0.91797 0.0
H1269 H 0.88985 0.86476 0.88801 0.0
H1270 H 0.92326 0.82925 0.88016 0.0
H1271 H 0.93174 0.8147 0.95102 0.0
H1272 H 0.89869 0.85044 0.95933 0.0
H1273 H 0.76494 0.83665 0.97614 0.0
H1274 H 0.79547 0.85222 0.94648 0.0
H1275 H 0.81733 0.92146 0.98706 0.0
H1276 H 0.78644 0.90634 0.01658 0.0
H1277 H 0.8477 0.8556 0.94984 0.0
H1278 H 0.84044 0.97297 0.95352 0.0
H1279 H 0.80617 1.00806 0.95988 0.0
H1280 H 0.74403 0.95296 0.9385 0.0
H1281 H 0.77796 0.91766 0.93168 0.0
C1282 C 0.94823 0.92505 0.91012 0.0
C1283 C 0.94779 0.93437 0.88783 0.0
C1284 C 0.92452 0.91641 0.92061 0.0
C1285 C 0.89992 0.91718 0.90907 0.0
C1286 C 0.89936 0.92669 0.88683 0.0
C1287 C 0.92322 0.93499 0.87618 0.0
C1288 C 0.87489 0.90842 0.92062 0.0
C1289 C 0.85482 0.92762 0.92486 0.0
C1290 C 0.87192 0.88193 0.9292 0.0
C1291 C 0.89191 0.86045 0.92429 0.0
C1292 C 0.89901 0.85417 0.90194 0.0
C1293 C 0.91786 0.83396 0.8974 0.0
C1294 C 0.92965 0.81976 0.91508 0.0
C1295 C 0.9226 0.82573 0.93734 0.0
C1296 C 0.90379 0.84595 0.94197 0.0
C1297 C 0.77582 0.8555 0.97857 0.0
C1298 C 0.77332 0.8702 -0.00124 0.0
C1299 C 0.79332 0.86433 0.96161 0.0
C1300 C 0.80868 0.88803 0.96448 0.0
C1301 C 0.80539 0.90335 0.98425 0.0
C1302 C 0.78774 0.89462 0.00118 0.0
C1303 C 0.83 0.89523 0.94788 0.0
C1304 C 0.84957 0.87572 0.94276 0.0
C1305 C 0.83235 0.9214 0.9384 0.0
C1306 C 0.81176 0.94256 0.9423 0.0
C1307 C 0.81948 0.96835 0.95009 0.0
C1308 C 0.80011 0.98829 0.95379 0.0
C1309 C 0.77293 0.98271 0.94967 0.0
C1310 C 0.76508 0.95722 0.94178 0.0
C1311 C 0.78437 0.93722 0.93802 0.0
H1312 H 0.75796 0.99817 0.95255 0.0
H1313 H 0.94422 0.8041 0.91153 0.0
H1314 H 0.84763 0.18312 0.66953 0.0
H1315 H 0.86094 0.14323 0.69077 0.0
H1316 H 0.92055 0.12456 0.64002 0.0
H1317 H 0.90603 0.16381 0.61803 0.0
H1318 H 0.8997 0.07991 0.65395 0.0
H1319 H 0.9359 0.15746 0.69171 0.0
H1320 H 0.93609 0.20197 0.71055 0.0
H1321 H 0.88248 0.17151 0.76153 0.0
H1322 H 0.88158 0.12693 0.74277 0.0
H1323 H 0.98495 1.00454 0.7296 0.0
H1324 H 0.96505 0.03607 0.70273 0.0
H1325 H 0.89437 0.04254 0.74476 0.0
H1326 H 0.91389 1.01084 0.77155 0.0
H1327 H 0.92083 0.0922 0.73495 0.0
H1328 H 0.88744 1.01313 0.69636 0.0
H1329 H 0.89145 0.96864 0.67783 0.0
H1330 H 0.94538 1.00264 0.62867 0.0
H1331 H 0.942 0.04728 0.6471 0.0
C1332 C 0.8635 0.17041 0.66289 0.0
C1333 C 0.87609 0.17661 0.64234 0.0
C1334 C 0.8712 0.14769 0.67508 0.0
C1335 C 0.89231 0.13126 0.66736 0.0
C1336 C 0.90435 0.13701 0.64642 0.0
C1337 C 0.89614 0.15943 0.63391 0.0
C1338 C 0.9021 0.1085 0.68139 0.0
C1339 C 0.90463 0.08272 0.67159 0.0
C1340 C 0.90826 0.11197 0.70454 0.0
C1341 C 0.90844 0.13892 0.71567 0.0
C1342 C 0.92393 0.16032 0.70681 0.0
C1343 C 0.9242 0.18556 0.71749 0.0
C1344 C 0.90924 0.18959 0.73718 0.0
C1345 C 0.894 0.16838 0.74624 0.0
C1346 C 0.8936 0.14313 0.73559 0.0
C1347 C 0.96492 1.01221 0.73287 0.0
C1348 C 0.95105 1.00532 0.75276 0.0
C1349 C 0.95357 0.03016 0.71748 0.0
C1350 C 0.92829 0.04162 0.72182 0.0
C1351 C 0.91391 0.03385 0.74113 0.0
C1352 C 0.92507 1.01567 0.75638 0.0
C1353 C 0.91814 0.06378 0.70754 0.0
C1354 C 0.91573 0.08948 0.71732 0.0
C1355 C 0.91266 0.06031 0.68437 0.0
C1356 C 0.91467 0.0335 0.67325 0.0
C1357 C 0.90036 1.01107 0.68172 0.0
C1358 C 0.90247 0.98584 0.6712 0.0
C1359 C 0.91872 0.9828 0.65212 0.0
C1360 C 0.93283 1.00501 0.64347 0.0
C1361 C 0.9308 0.03029 0.65393 0.0
H1362 H 0.92032 0.96324 0.644 0.0
H1363 H 0.90952 0.20912 0.74546 0.0
H1364 H 0.66072 0.11816 0.37263 0.0
H1365 H 0.70057 0.1298 0.39487 0.0
H1366 H 0.66482 0.09143 0.45303 0.0
H1367 H 0.62458 0.08051 0.43096 0.0
H1368 H 0.68515 0.13807 0.46474 0.0
H1369 H 0.71847 0.06201 0.42371 0.0
H1370 H 0.72808 0.03398 0.39024 0.0
H1371 H 0.77713 0.09764 0.36267 0.0
H1372 H 0.76769 0.12614 0.39592 0.0
H1373 H 0.8036 0.13798 0.53052 0.0
H1374 H 0.76977 0.11843 0.50535 0.0
H1375 H 0.78969 0.17778 0.45487 0.0
H1376 H 0.82325 0.19799 0.4802 0.0
H1377 H 0.77865 0.11879 0.43974 0.0
H1378 H 0.74238 0.1951 0.48155 0.0
H1379 H 0.73396 0.22074 0.51653 0.0
H1380 H 0.6906 0.15306 0.54399 0.0
H1381 H 0.69917 0.12678 0.50931 0.0
C1382 C 0.66145 0.11215 0.39014 0.0
C1383 C 0.6396 0.09855 0.40014 0.0
C1384 C 0.68429 0.11863 0.40281 0.0
C1385 C 0.68587 0.11122 0.42559 0.0
C1386 C 0.66408 0.09738 0.43551 0.0
C1387 C 0.64112 0.09114 0.4229 0.0
C1388 C 0.70972 0.11895 0.4393 0.0
C1389 C 0.70553 0.13344 0.45938 0.0
C1390 C 0.73642 0.11334 0.43223 0.0
C1391 C 0.74215 0.0963 0.4122 0.0
C1392 C 0.73112 0.07011 0.41042 0.0
C1393 C 0.73657 0.05412 0.39151 0.0
C1394 C 0.75309 0.06406 0.3743 0.0
C1395 C 0.7643 0.08998 0.376 0.0
C1396 C 0.75896 0.10604 0.3949 0.0
C1397 C 0.80132 0.14648 0.51385 0.0
C1398 C 0.816 0.1696 0.50734 0.0
C1399 C 0.78193 0.13532 0.49954 0.0
C1400 C 0.77725 0.14679 0.47837 0.0
C1401 C 0.79315 0.16866 0.47116 0.0
C1402 C 0.81222 0.18019 0.48565 0.0
C1403 C 0.75386 0.13781 0.4649 0.0
C1404 C 0.75818 0.12319 0.44498 0.0
C1405 C 0.72726 0.143 0.47221 0.0
C1406 C 0.72168 0.15888 0.49294 0.0
C1407 C 0.73125 0.18559 0.49513 0.0
C1408 C 0.7264 0.20025 0.51488 0.0
C1409 C 0.71174 0.18851 0.53247 0.0
C1410 C 0.70187 0.16211 0.53032 0.0
C1411 C 0.70675 0.14731 0.51063 0.0
H1412 H 0.70803 0.19987 0.54777 0.0
H1413 H 0.75727 0.05165 0.35967 0.0
H1414 H 0.70747 0.89649 0.11062 0.0
H1415 H 0.69602 0.93773 0.1315 0.0
H1416 H 0.68831 0.89113 0.19256 0.0
H1417 H 0.70068 0.85023 0.17192 0.0
H1418 H 0.6538 0.95322 0.15211 0.0
H1419 H 0.7034 0.92845 0.23893 0.0
H1420 H 0.74384 0.90606 0.25373 0.0
H1421 H 0.78394 0.91688 0.1902 0.0
H1422 H 0.74398 0.93992 0.17515 0.0
H1423 H 0.59147 0.02171 0.2414 0.0
H1424 H 0.61127 0.99102 0.21404 0.0
H1425 H 0.6894 0.0275 0.22506 0.0
H1426 H 0.66975 0.05764 0.25342 0.0
H1427 H 0.69495 0.97668 0.22567 0.0
H1428 H 0.65254 0.03529 0.17402 0.0
H1429 H 0.61603 0.06253 0.15779 0.0
H1430 H 0.56853 0.99069 0.14748 0.0
H1431 H 0.60461 0.96304 0.16393 0.0
C1432 C 0.70338 0.89515 0.12851 0.0
C1433 C 0.705 0.87025 0.13969 0.0
C1434 C 0.69686 0.9187 0.14044 0.0
C1435 C 0.69172 0.91771 0.16373 0.0
C1436 C 0.69287 0.89264 0.17476 0.0
C1437 C 0.69971 0.86921 0.16291 0.0
C1438 C 0.6841 0.94258 0.17637 0.0
C1439 C 0.66294 0.95842 0.16813 0.0
C1440 C 0.69647 0.94993 0.19702 0.0
C1441 C 0.72052 0.9357 0.20582 0.0
C1442 C 0.72085 0.92612 0.22811 0.0
C1443 C 0.74371 0.91332 0.23656 0.0
C1444 C 0.7664 0.90993 0.22289 0.0
C1445 C 0.7663 0.91941 0.20075 0.0
C1446 C 0.74354 0.93234 0.19224 0.0
C1447 C 0.6128 0.02358 0.23778 0.0
C1448 C 0.62904 0.04216 0.24961 0.0
C1449 C 0.62412 1.00604 0.22196 0.0
C1450 C 0.65183 1.00708 0.21717 0.0
C1451 C 0.66797 0.02626 0.22843 0.0
C1452 C 0.6567 0.04357 0.24457 0.0
C1453 C 0.66409 0.98673 0.20176 0.0
C1454 C 0.68607 0.97168 0.2095 0.0
C1455 C 0.653 0.98059 0.18038 0.0
C1456 C 0.63126 0.9971 0.17033 0.0
C1457 C 0.63425 0.02531 0.16842 0.0
C1458 C 0.61363 0.04082 0.15916 0.0
C1459 C 0.58996 0.02835 0.15164 0.0
C1460 C 0.58688 1.00032 0.15331 0.0
C1461 C 0.60744 0.98471 0.16257 0.0
H1462 H 0.57402 0.0404 0.14449 0.0
H1463 H 0.78409 0.90005 0.22948 0.0
H1464 H 0.75908 0.20117 0.01133 0.0
H1465 H 0.78968 0.18498 0.04047 0.0
H1466 H 0.81388 0.11932 -0.00301 0.0
H1467 H 0.78261 0.13474 0.96825 0.0
H1468 H 0.81359 0.1023 0.03816 0.0
H1469 H 0.84905 0.18107 0.00044 0.0
H1470 H 0.8493 0.22839 0.98741 0.0
H1471 H 0.84504 0.25629 0.05585 0.0
H1472 H 0.84432 0.20909 0.0693 0.0
H1473 H 0.95167 0.0838 0.06299 0.0
H1474 H 0.90875 0.09651 0.04609 0.0
H1475 H 0.88748 0.14039 0.10638 0.0
H1476 H 0.93041 0.12708 0.12372 0.0
H1477 H 0.88239 0.16921 0.06296 0.0
H1478 H 0.85517 0.08715 0.09936 0.0
H1479 H 0.85854 0.03902 0.10961 0.0
H1480 H 0.85134 1.01632 0.04005 0.0
H1481 H 0.84844 0.06436 0.0293 0.0
C1482 C 0.77052 0.18296 0.00819 0.0
C1483 C 0.76863 0.16938 0.98741 0.0
C1484 C 0.78812 0.17381 0.0248 0.0
C1485 C 0.8046 0.15131 0.02072 0.0
C1486 C 0.80147 0.13678 0.00053 0.0
C1487 C 0.78357 0.14565 0.98407 0.0
C1488 C 0.82647 0.14397 0.03658 0.0
C1489 C 0.82865 0.11693 0.04353 0.0
C1490 C 0.84595 0.16315 0.04393 0.0
C1491 C 0.84626 0.19154 0.03586 0.0
C1492 C 0.84792 0.19729 0.01271 0.0
C1493 C 0.84818 0.22408 0.00525 0.0
C1494 C 0.8471 0.24532 0.02079 0.0
C1495 C 0.84579 0.23981 0.04383 0.0
C1496 C 0.84545 0.21304 0.05138 0.0
C1497 C 0.93782 0.09608 0.07269 0.0
C1498 C 0.94428 0.10453 0.09462 0.0
C1499 C 0.91329 0.10319 0.06306 0.0
C1500 C 0.89494 0.11918 0.07508 0.0
C1501 C 0.90139 0.1279 0.09694 0.0
C1502 C 0.92582 0.12032 0.10678 0.0
C1503 C 0.86964 0.12757 0.06413 0.0
C1504 C 0.86694 0.15476 0.05799 0.0
C1505 C 0.85008 0.10843 0.05711 0.0
C1506 C 0.8518 0.07945 0.06351 0.0
C1507 C 0.85457 0.07194 0.08621 0.0
C1508 C 0.85635 0.04465 0.09212 0.0
C1509 C 0.8552 0.02463 0.07549 0.0
C1510 C 0.85224 0.03185 0.05291 0.0
C1511 C 0.85051 0.05912 0.04691 0.0
H1512 H 0.85654 1.00353 0.08011 0.0
H1513 H 0.84737 0.26604 0.015 0.0
H1514 H 0.60976 0.98501 0.75789 0.0
H1515 H 0.62573 1.01283 0.78935 0.0
H1516 H 0.68486 0.05003 0.74565 0.0
H1517 H 0.66991 0.02138 0.7146 0.0
H1518 H 0.70539 0.04571 0.78507 0.0
H1519 H 0.6191 0.07843 0.75713 0.0
H1520 H 0.57075 0.07364 0.7481 0.0
H1521 H 0.55364 0.05305 0.81688 0.0
H1522 H 0.60183 0.05783 0.82631 0.0
H1523 H 0.71712 0.18116 0.81822 0.0
H1524 H 0.70367 0.13927 0.79939 0.0
H1525 H 0.66994 0.10932 0.86158 0.0
H1526 H 0.68388 0.15137 0.88079 0.0
H1527 H 0.63605 0.10413 0.8204 0.0
H1528 H 0.72347 0.08187 0.84833 0.0
H1529 H 0.77175 0.09006 0.85548 0.0
H1530 H 0.78696 0.09352 0.78433 0.0
H1531 H 0.73868 0.0858 0.77675 0.0
C1532 C 0.62655 0.99873 0.75517 0.0
C1533 C 0.63847 1.00119 0.73377 0.0
C1534 C 0.63552 1.01477 0.7731 0.0
C1535 C 0.65601 0.03409 0.76974 0.0
C1536 C 0.66895 0.03537 0.74869 0.0
C1537 C 0.66039 1.01895 0.73091 0.0
C1538 C 0.66294 0.05425 0.78744 0.0
C1539 C 0.6902 0.05846 0.79276 0.0
C1540 C 0.64309 0.07055 0.79797 0.0
C1541 C 0.61406 0.06823 0.79237 0.0
C1542 C 0.605 0.07286 0.7703 0.0
C1543 C 0.57762 0.07022 0.76513 0.0
C1544 C 0.55913 0.06308 0.78192 0.0
C1545 C 0.56795 0.05871 0.80392 0.0
C1546 C 0.59528 0.06142 0.8092 0.0
C1547 C 0.70681 0.16569 0.82791 0.0
C1548 C 0.70155 0.1694 0.85094 0.0
C1549 C 0.69923 0.14177 0.81715 0.0
C1550 C 0.68604 0.12121 0.82917 0.0
C1551 C 0.68021 0.125 0.8521 0.0
C1552 C 0.68818 0.1489 0.86301 0.0
C1553 C 0.67844 0.09597 0.81734 0.0
C1554 C 0.65111 0.0909 0.8131 0.0
C1555 C 0.69822 0.07918 0.80751 0.0
C1556 C 0.72739 0.08339 0.81198 0.0
C1557 C 0.73707 0.08455 0.83421 0.0
C1558 C 0.76445 0.08909 0.83834 0.0
C1559 C 0.78241 0.09234 0.82037 0.0
C1560 C 0.77303 0.09099 0.79823 0.0
C1561 C 0.74566 0.0865 0.79401 0.0
H1562 H 0.8036 0.09588 0.82361 0.0
H1563 H 0.53797 0.0609 0.7779 0.0
H1564 H 0.80807 0.82191 0.50646 0.0
H1565 H 0.77498 0.83625 0.53452 0.0
H1566 H 0.77772 0.91726 0.50788 0.0
H1567 H 0.81057 0.90306 0.47956 0.0
H1568 H 0.76866 0.87339 0.56806 0.0
H1569 H 0.71481 0.93747 0.49986 0.0
H1570 H 0.70974 0.93722 0.45849 0.0
H1571 H 0.72402 0.85169 0.45691 0.0
H1572 H 0.72902 0.85141 0.49819 0.0
H1573 H 0.66277 0.94555 0.62274 0.0
H1574 H 0.70293 0.9301 0.60246 0.0
H1575 H 0.65215 0.8871 0.55522 0.0
H1576 H 0.61224 0.9043 0.57448 0.0
H1577 H 0.68628 0.90996 0.53251 0.0
H1578 H 0.69385 0.85568 0.59818 0.0
H1579 H 0.69601 0.84527 0.63871 0.0
H1580 H 0.76763 0.89387 0.64496 0.0
H1581 H 0.76571 0.90485 0.60449 0.0
C1582 C 0.80208 0.84293 0.50683 0.0
C1583 C 0.81165 0.86126 0.49052 0.0
C1584 C 0.78324 0.85111 0.52299 0.0
C1585 C 0.77361 0.8777 0.52307 0.0
C1586 C 0.78468 0.89653 0.50793 0.0
C1587 C 0.80349 0.88839 0.49176 0.0
C1588 C 0.74983 0.88491 0.53699 0.0
C1589 C 0.75064 0.88155 0.56042 0.0
C1590 C 0.72595 0.89436 0.52686 0.0
C1591 C 0.72253 0.8945 0.50206 0.0
C1592 C 0.71676 0.91863 0.49067 0.0
C1593 C 0.71391 0.91856 0.46724 0.0
C1594 C 0.71653 0.89444 0.45511 0.0
C1595 C 0.72204 0.87035 0.46633 0.0
C1596 C 0.72494 0.87031 0.48971 0.0
C1597 C 0.66035 0.93255 0.60816 0.0
C1598 C 0.63456 0.92608 0.60008 0.0
C1599 C 0.68328 0.92358 0.59662 0.0
C1600 C 0.68076 0.90717 0.5773 0.0
C1601 C 0.65481 0.89992 0.56988 0.0
C1602 C 0.63197 0.90959 0.58096 0.0
C1603 C 0.70485 0.89882 0.56397 0.0
C1604 C 0.70419 0.902 0.54046 0.0
C1605 C 0.72825 0.88781 0.57401 0.0
C1606 C 0.72947 0.88131 0.59836 0.0
C1607 C 0.70994 0.86432 0.60823 0.0
C1608 C 0.71115 0.85828 0.63119 0.0
C1609 C 0.7319 0.86897 0.64441 0.0
C1610 C 0.75154 0.88565 0.6347 0.0
C1611 C 0.75042 0.89176 0.61175 0.0
H1612 H 0.7328 0.86427 0.66218 0.0
H1613 H 0.71422 0.89429 0.43703 0.0
H1614 H 0.97326 0.05265 0.25345 0.0
H1615 H 0.95486 0.02269 0.2825 0.0
H1616 H 0.90003 0.98809 0.23379 0.0
H1617 H 0.91721 1.01907 0.20523 0.0
H1618 H 0.8758 0.98967 0.27129 0.0
H1619 H 0.96447 0.95858 0.24896 0.0
H1620 H 1.01356 0.96332 0.24306 0.0
H1621 H 0.02413 0.98162 0.31322 0.0
H1622 H 0.97516 0.97693 0.31952 0.0
H1623 H 0.85867 0.85595 0.31153 0.0
H1624 H 0.87154 0.89652 0.29057 0.0
H1625 H 0.90897 0.92965 0.35013 0.0
H1626 H 0.89591 0.88898 0.37132 0.0
H1627 H 0.94151 0.9324 0.31164 0.0
H1628 H 0.85108 0.95552 0.33318 0.0
H1629 H 0.80183 0.94992 0.33687 0.0
H1630 H 0.7945 0.94384 0.26501 0.0
H1631 H 0.84373 0.94904 0.26088 0.0
C1632 C 0.95689 0.03901 0.24914 0.0
C1633 C 0.94669 0.03811 0.22712 0.0
C1634 C 0.94657 0.0217 0.26567 0.0
C1635 C 0.92656 1.00253 0.26022 0.0
C1636 C 0.91551 1.00259 0.23846 0.0
C1637 C 0.92532 1.02036 0.22212 0.0
C1638 C 0.9179 0.98155 0.27666 0.0
C1639 C 0.8902 0.97702 0.27996 0.0
C1640 C 0.93664 0.96533 0.28839 0.0
C1641 C 0.96615 0.96765 0.28467 0.0
C1642 C 0.97728 0.96365 0.26311 0.0
C1643 C 1.00509 0.96626 0.25971 0.0
C1644 C 0.02195 0.97274 0.27777 0.0
C1645 C 1.01107 0.97648 0.29927 0.0
C1646 C 0.98331 0.9738 0.30278 0.0
C1647 C 0.86958 0.87191 0.32018 0.0
C1648 C 0.87637 0.86938 0.34301 0.0
C1649 C 0.87676 0.89513 0.30823 0.0
C1650 C 0.89095 0.91619 0.31887 0.0
C1651 C 0.8979 0.91366 0.34167 0.0
C1652 C 0.89045 0.89049 0.35372 0.0
C1653 C 0.89948 0.94022 0.30578 0.0
C1654 C 0.92716 0.94526 0.30313 0.0
C1655 C 0.88072 0.95647 0.29423 0.0
C1656 C 0.85116 0.95256 0.29674 0.0
C1657 C 0.83901 0.95272 0.31818 0.0
C1658 C 0.81108 0.9497 0.32034 0.0
C1659 C 0.79506 0.94666 0.30118 0.0
C1660 C 0.80694 0.94632 0.27983 0.0
C1661 C 0.83485 0.94933 0.27757 0.0
H1662 H 0.77343 0.94461 0.30285 0.0
H1663 H 0.04344 0.97488 0.27512 0.0
H1664 H 0.74088 0.75013 0.48746 0.0
H1665 H 0.70947 0.73866 0.51824 0.0
H1666 H 0.73782 0.65633 0.51688 0.0
H1667 H 0.76979 0.66806 0.48744 0.0
H1668 H 0.66824 0.70806 0.51828 0.0
H1669 H 0.72817 0.62235 0.56344 0.0
H1670 H 0.77485 0.61326 0.5752 0.0
H1671 H 0.7924 0.69839 0.57526 0.0
H1672 H 0.74575 0.70804 0.56381 0.0
H1673 H 0.5738 0.62217 0.5705 0.0
H1674 H 0.61068 0.64126 0.54828 0.0
H1675 H 0.65407 0.65989 0.60927 0.0
H1676 H 0.61752 0.64017 0.63154 0.0
H1677 H 0.68857 0.64717 0.58213 0.0
H1678 H 0.61911 0.7127 0.57436 0.0
H1679 H 0.57278 0.72847 0.56738 0.0
H1680 H 0.57641 0.69665 0.50005 0.0
H1681 H 0.62254 0.68023 0.50691 0.0
C1682 C 0.741 0.72989 0.49438 0.0
C1683 C 0.7578 0.71002 0.485 0.0
C1684 C 0.7228 0.7232 0.51178 0.0
C1685 C 0.72115 0.69656 0.52014 0.0
C1686 C 0.73885 0.67714 0.51132 0.0
C1687 C 0.7571 0.68385 0.49427 0.0
C1688 C 0.69976 0.68817 0.53666 0.0
C1689 C 0.67281 0.69495 0.53234 0.0
C1690 C 0.70541 0.67154 0.55549 0.0
C1691 C 0.73347 0.66589 0.5626 0.0
C1692 C 0.74194 0.63914 0.56608 0.0
C1693 C 0.76841 0.63389 0.57266 0.0
C1694 C 0.78659 0.65523 0.57592 0.0
C1695 C 0.77832 0.68188 0.57266 0.0
C1696 C 0.75187 0.68725 0.56609 0.0
C1697 C 0.5912 0.6303 0.57922 0.0
C1698 C 0.59243 0.6299 0.60289 0.0
C1699 C 0.61225 0.64159 0.56645 0.0
C1700 C 0.63497 0.65319 0.57697 0.0
C1701 C 0.63672 0.65164 0.60059 0.0
C1702 C 0.6157 0.64029 0.61338 0.0
C1703 C 0.65698 0.66651 0.56343 0.0
C1704 C 0.68402 0.66056 0.56825 0.0
C1705 C 0.65154 0.68487 0.5457 0.0
C1706 C 0.62399 0.69487 0.54131 0.0
C1707 C 0.60981 0.70877 0.55821 0.0
C1708 C 0.58366 0.71789 0.55424 0.0
C1709 C 0.5716 0.71345 0.5333 0.0
C1710 C 0.58574 0.7 0.51628 0.0
C1711 C 0.61189 0.6908 0.5202 0.0
H1712 H 0.55136 0.72053 0.53024 0.0
H1713 H 0.80708 0.65111 0.581 0.0
H1714 H 0.65338 0.48846 0.73102 0.0
H1715 H 0.67082 0.45534 0.7576 0.0
H1716 H 0.59135 0.42033 0.76425 0.0
H1717 H 0.57381 0.45375 0.73737 0.0
H1718 H 0.61736 0.41957 0.80427 0.0
H1719 H 0.63568 0.39134 0.73004 0.0
H1720 H 0.65183 0.39117 0.69075 0.0
H1721 H 0.73302 0.4037 0.7134 0.0
H1722 H 0.71732 0.40449 0.75285 0.0
H1723 H 0.70536 0.28925 0.81991 0.0
H1724 H 0.68231 0.32139 0.79552 0.0
H1725 H 0.68961 0.38295 0.8468 0.0
H1726 H 0.7122 0.3508 0.87143 0.0
H1727 H 0.69511 0.36629 0.77642 0.0
H1728 H 0.63551 0.42453 0.84602 0.0
H1729 H 0.61446 0.41504 0.88288 0.0
H1730 H 0.60713 0.33099 0.86538 0.0
H1731 H 0.62783 0.34003 0.82836 0.0
C1732 C 0.6395 0.47412 0.73861 0.0
C1733 C 0.61223 0.4737 0.73226 0.0
C1734 C 0.64952 0.45502 0.75363 0.0
C1735 C 0.63256 0.43492 0.76261 0.0
C1736 C 0.60488 0.43554 0.75746 0.0
C1737 C 0.5948 0.45473 0.74227 0.0
C1738 C 0.64427 0.4127 0.77636 0.0
C1739 C 0.6344 0.40799 0.7982 0.0
C1740 C 0.6659 0.39677 0.76821 0.0
C1741 C 0.67527 0.39814 0.74444 0.0
C1742 C 0.65693 0.39445 0.72665 0.0
C1743 C 0.66603 0.39409 0.70435 0.0
C1744 C 0.69346 0.39713 0.69961 0.0
C1745 C 0.71181 0.40108 0.71712 0.0
C1746 C 0.70281 0.40156 0.73946 0.0
C1747 C 0.70227 0.30969 0.82596 0.0
C1748 C 0.7106 0.31736 0.8477 0.0
C1749 C 0.68901 0.32807 0.81198 0.0
C1750 C 0.68373 0.35456 0.81939 0.0
C1751 C 0.69284 0.36251 0.84082 0.0
C1752 C 0.706 0.34412 0.85484 0.0
C1753 C 0.66896 0.3739 0.80467 0.0
C1754 C 0.6782 0.37801 0.78258 0.0
C1755 C 0.64614 0.38848 0.8123 0.0
C1756 C 0.6335 0.38294 0.8345 0.0
C1757 C 0.62934 0.40405 0.85002 0.0
C1758 C 0.61748 0.39873 0.87095 0.0
C1759 C 0.60956 0.37241 0.87651 0.0
C1760 C 0.6134 0.35135 0.86111 0.0
C1761 C 0.62523 0.35655 0.84017 0.0
H1762 H 0.60039 0.36834 0.89272 0.0
H1763 H 0.70049 0.39663 0.68234 0.0
H1764 H 0.95461 0.43415 0.11928 0.0
H1765 H 0.92336 0.40696 0.09686 0.0
H1766 H 0.9817 0.40325 0.043 0.0
H1767 H 1.01313 0.43072 0.06534 0.0
H1768 H 0.93232 0.41078 0.02633 0.0
H1769 H 0.97196 0.34968 0.07793 0.0
H1770 H 0.98653 0.33254 0.11485 0.0
H1771 H 0.90421 0.32922 0.1372 0.0
H1772 H 0.88916 0.34678 0.10051 0.0
H1773 H 0.87046 0.30702 0.96538 0.0
H1774 H 0.90373 0.3247 0.99205 0.0
H1775 H 0.84 0.34494 0.03846 0.0
H1776 H 0.80652 0.32744 0.01154 0.0
H1777 H 0.89306 0.32691 0.05892 0.0
H1778 H 0.85541 0.3933 0.00746 0.0
H1779 H 0.84226 0.4092 0.96979 0.0
H1780 H 0.92351 0.39933 0.94629 0.0
H1781 H 0.93718 0.38352 0.98396 0.0
C1782 C 0.96079 0.42782 0.10258 0.0
C1783 C 0.98651 0.43464 0.09419 0.0
C1784 C 0.9429 0.41204 0.08981 0.0
C1785 C 0.95027 0.40253 0.06835 0.0
C1786 C 0.97554 0.41017 0.05955 0.0
C1787 C 0.9935 0.42595 0.07235 0.0
C1788 C 0.93165 0.38456 0.05524 0.0
C1789 C 0.92409 0.3923 0.03343 0.0
C1790 C 0.92053 0.36045 0.06443 0.0
C1791 C 0.92945 0.34982 0.08653 0.0
C1792 C 0.95697 0.34552 0.09078 0.0
C1793 C 0.96532 0.3357 0.11165 0.0
C1794 C 0.94632 0.32986 0.12838 0.0
C1795 C 0.91892 0.33379 0.12423 0.0
C1796 C 0.91046 0.34367 0.10339 0.0
C1797 C 0.86365 0.314 0.98174 0.0
C1798 C 0.83593 0.3156 0.9865 0.0
C1799 C 0.88266 0.32436 -0.00312 0.0
C1800 C 0.87435 0.3365 0.01712 0.0
C1801 C 0.84687 0.33563 0.02295 0.0
C1802 C 0.82776 0.32539 0.00768 0.0
C1803 C 0.89373 0.3534 0.03028 0.0
C1804 C 0.90141 0.34542 0.05197 0.0
C1805 C 0.90525 0.37715 0.02096 0.0
C1806 C 0.89725 0.38704 -0.00157 0.0
C1807 C 0.87043 0.39441 -0.00578 0.0
C1808 C 0.86289 0.40343 0.97288 0.0
C1809 C 0.88197 0.40508 0.95558 0.0
C1810 C 0.90872 0.39797 0.95968 0.0
C1811 C 0.91641 0.3891 0.98105 0.0
H1812 H 0.87606 0.41197 0.93904 0.0
H1813 H 0.95282 0.32223 0.14452 0.0
H1814 H 0.87997 0.74708 0.31891 0.0
H1815 H 0.90382 0.71354 0.29617 0.0
H1816 H 0.89289 0.65445 0.34875 0.0
H1817 H 0.86965 0.68815 0.3718 0.0
H1818 H 0.94224 0.65159 0.33466 0.0
H1819 H 0.85746 0.65186 0.29725 0.0
H1820 H 0.81782 0.67061 0.27801 0.0
H1821 H 0.86882 0.70257 0.22583 0.0
H1822 H 0.90881 0.68429 0.2449 0.0
H1823 H 0.97121 0.53866 0.25663 0.0
H1824 H 0.9528 0.56981 0.28515 0.0
H1825 H 0.98066 0.63777 0.24606 0.0
H1826 H 0.99957 0.60687 0.21802 0.0
H1827 H 0.92247 0.63407 0.25413 0.0
H1828 H 1.00734 0.63285 0.29302 0.0
H1829 H 0.04573 0.61174 0.3123 0.0
H1830 H 0.99205 0.57797 0.36175 0.0
H1831 H 0.95326 0.59863 0.3426 0.0
C1832 C 0.88226 0.72685 0.32552 0.0
C1833 C 0.87278 0.72039 0.34722 0.0
C1834 C 0.89593 0.70758 0.31245 0.0
C1835 C 0.90014 0.68121 0.32057 0.0
C1836 C 0.89012 0.67459 0.34204 0.0
C1837 C 0.87663 0.69389 0.35518 0.0
C1838 C 0.91577 0.66093 0.30704 0.0
C1839 C 0.93755 0.64748 0.31715 0.0
C1840 C 0.91014 0.65563 0.28404 0.0
C1841 C 0.88617 0.66697 0.27266 0.0
C1842 C 0.86025 0.66311 0.28179 0.0
C1843 C 0.83771 0.6736 0.27089 0.0
C1844 C 0.84081 0.68784 0.25075 0.0
C1845 C 0.86645 0.6916 0.24147 0.0
C1846 C 0.88907 0.68116 0.25231 0.0
C1847 C 0.97466 0.5602 0.25479 0.0
C1848 C 0.98708 0.57032 0.23521 0.0
C1849 C 0.96383 0.57801 0.27093 0.0
C1850 C 0.96507 0.60616 0.2676 0.0
C1851 C 0.97937 0.61618 0.24897 0.0
C1852 C 0.99045 0.59849 0.23309 0.0
C1853 C 0.94883 0.62504 0.28174 0.0
C1854 C 0.92693 0.63814 0.2717 0.0
C1855 C 0.95412 0.62967 0.30481 0.0
C1856 C 0.97735 0.617 0.31621 0.0
C1857 C 1.00367 0.62066 0.30785 0.0
C1858 C 0.02552 0.60885 0.3188 0.0
C1859 C 0.02133 0.59344 0.33819 0.0
C1860 C 0.99527 0.58987 0.3467 0.0
C1861 C 0.97334 0.60165 0.33582 0.0
H1862 H 0.03827 0.58434 0.34665 0.0
H1863 H 0.82333 0.69591 0.24231 0.0
H1864 H 0.5695 0.4284 0.41875 0.0
H1865 H 0.60148 0.40239 0.44111 0.0
H1866 H 0.66462 0.42142 0.39354 0.0
H1867 H 0.63256 0.44673 0.37082 0.0
H1868 H 0.66838 0.37116 0.40291 0.0
H1869 H 0.66006 0.45007 0.44879 0.0
H1870 H 0.63809 0.48569 0.4713 0.0
H1871 H 0.60533 0.42561 0.51587 0.0
H1872 H 0.6268 0.38958 0.49344 0.0
H1873 H 0.78099 0.3403 0.47477 0.0
H1874 H 0.74663 0.35733 0.44889 0.0
H1875 H 0.68421 0.32795 0.49335 0.0
H1876 H 0.71858 0.31101 0.51912 0.0
H1877 H 0.67832 0.38047 0.48555 0.0
H1878 H 0.69116 0.30233 0.43987 0.0
H1879 H 0.71645 0.26838 0.41804 0.0
H1880 H 0.74542 0.3304 0.37351 0.0
H1881 H 0.72058 0.36481 0.39526 0.0
C1882 C 0.59028 0.4274 0.41321 0.0
C1883 C 0.59838 0.43981 0.39296 0.0
C1884 C 0.60866 0.41248 0.42607 0.0
C1885 C 0.63574 0.40992 0.41924 0.0
C1886 C 0.64393 0.42284 0.39926 0.0
C1887 C 0.62554 0.43752 0.3863 0.0
C1888 C 0.6553 0.3931 0.43238 0.0
C1889 C 0.67088 0.37365 0.42093 0.0
C1890 C 0.65829 0.39555 0.45605 0.0
C1891 C 0.64471 0.41709 0.46922 0.0
C1892 C 0.64789 0.44442 0.46322 0.0
C1893 C 0.6356 0.4647 0.47601 0.0
C1894 C 0.62024 0.45791 0.49495 0.0
C1895 C 0.61717 0.43083 0.50115 0.0
C1896 C 0.62939 0.41048 0.48841 0.0
C1897 C 0.75995 0.33617 0.47834 0.0
C1898 C 0.75249 0.32366 0.49866 0.0
C1899 C 0.74024 0.34619 0.46367 0.0
C1900 C 0.71267 0.34404 0.46911 0.0
C1901 C 0.70525 0.32989 0.48868 0.0
C1902 C 0.72491 0.31979 0.50325 0.0
C1903 C 0.69195 0.35927 0.45602 0.0
C1904 C 0.676 0.37825 0.4675 0.0
C1905 C 0.68911 0.3568 0.43238 0.0
C1906 C 0.7042 0.3362 0.41933 0.0
C1907 C 0.70313 0.30878 0.42555 0.0
C1908 C 0.71733 0.28944 0.41316 0.0
C1909 C 0.73259 0.29724 0.39443 0.0
C1910 C 0.73362 0.32439 0.38803 0.0
C1911 C 0.71945 0.34382 0.40037 0.0
H1912 H 0.74357 0.28223 0.38485 0.0
H1913 H 0.61078 0.47364 0.50485 0.0
H1914 H 0.9879 0.44205 0.77543 0.0
H1915 H 0.97218 0.41036 0.74662 0.0
H1916 H 0.95606 0.47711 0.70214 0.0
H1917 H 0.97161 0.50893 0.7313 0.0
H1918 H 0.91273 0.44629 0.70629 0.0
H1919 H 1.00479 0.429 0.68996 0.0
H1920 H 0.05234 0.41799 0.69721 0.0
H1921 H 0.02866 0.34079 0.72386 0.0
H1922 H 0.9809 0.35149 0.71713 0.0
H1923 H 0.86937 0.35851 0.61711 0.0
H1924 H 0.89337 0.39191 0.64012 0.0
H1925 H 0.90793 0.33121 0.69052 0.0
H1926 H 0.88395 0.29763 0.66756 0.0
H1927 H 0.95377 0.36032 0.68065 0.0
H1928 H 0.86148 0.37982 0.69939 0.0
H1929 H 0.81409 0.39094 0.69143 0.0
H1930 H 0.83914 0.46453 0.65916 0.0
H1931 H 0.88674 0.45367 0.66667 0.0
C1932 C 0.98217 0.44985 0.75911 0.0
C1933 C 0.98148 0.47792 0.75542 0.0
C1934 C 0.973 0.43171 0.74264 0.0
C1935 C 0.9629 0.44121 0.72206 0.0
C1936 C 0.96376 0.46922 0.71783 0.0
C1937 C 0.97303 0.4874 0.73435 0.0
C1938 C 0.94879 0.42222 0.70627 0.0
C1939 C 0.92198 0.42778 0.70031 0.0
C1940 C 0.96044 0.39761 0.6989 0.0
C1941 C 0.98917 0.39119 0.70323 0.0
C1942 C 1.00966 0.40979 0.69759 0.0
C1943 C 0.03668 0.40358 0.70156 0.0
C1944 C 0.04352 0.37874 0.71104 0.0
C1945 C 0.02334 0.36004 0.71654 0.0
C1946 C 0.99628 0.36617 0.71264 0.0
C1947 C 0.8774 0.35228 0.63321 0.0
C1948 C 0.87458 0.32534 0.64049 0.0
C1949 C 0.89115 0.37145 0.64637 0.0
C1950 C 0.90246 0.36417 0.66713 0.0
C1951 C 0.89945 0.33736 0.67456 0.0
C1952 C 0.88552 0.3182 0.66148 0.0
C1953 C 0.91779 0.38438 0.6809 0.0
C1954 C 0.94472 0.37899 0.68651 0.0
C1955 C 0.90632 0.4092 0.68789 0.0
C1956 C 0.8777 0.41577 0.68338 0.0
C1957 C 0.8569 0.39826 0.69042 0.0
C1958 C 0.83 0.40454 0.68603 0.0
C1959 C 0.82361 0.42839 0.67474 0.0
C1960 C 0.84412 0.44604 0.66787 0.0
C1961 C 0.87106 0.43984 0.67221 0.0
H1962 H 0.80277 0.43322 0.67135 0.0
H1963 H 0.06445 0.37396 0.71407 0.0
H1964 H 0.80183 0.71386 0.97521 0.0
H1965 H 0.83348 0.69677 0.94661 0.0
H1966 H 0.89754 0.69917 -0.00444 0.0
H1967 H 0.86647 0.71732 0.02349 0.0
H1968 H 0.9187 0.7085 0.95698 0.0
H1969 H 0.85433 0.64287 0.98462 0.0
H1970 H 0.80891 0.62378 0.99096 0.0
H1971 H 0.79622 0.61926 0.91955 0.0
H1972 H 0.84136 0.63889 0.91284 0.0
H1973 H 1.0056 0.60371 0.92057 0.0
H1974 H 0.9723 0.6291 0.9425 0.0
H1975 H 0.91814 0.62772 0.88588 0.0
H1976 H 0.95109 0.6021 0.86401 0.0
H1977 H 0.89077 0.62013 0.92458 0.0
H1978 H 0.95812 0.68095 0.89743 0.0
H1979 H 1.00411 0.69875 0.89185 0.0
H1980 H 1.01201 0.71145 0.96308 0.0
H1981 H 0.9663 0.69299 0.96916 0.0
C1982 C 0.82291 0.7118 0.9795 0.0
C1983 C 0.83163 0.71683 0.00162 0.0
C1984 C 0.84096 0.7016 0.96326 0.0
C1985 C 0.86788 0.69577 0.96902 0.0
C1986 C 0.87698 0.70317 0.99056 0.0
C1987 C 0.85914 0.71363 0.00658 0.0
C1988 C 0.88608 0.67981 0.95379 0.0
C1989 C 0.91258 0.6891 0.95004 0.0
C1990 C 0.87817 0.65462 0.94423 0.0
C1991 C 0.85111 0.64261 0.94826 0.0
C1992 C 0.84178 0.63794 0.97029 0.0
C1993 C 0.81608 0.62705 0.97395 0.0
C1994 C 0.79967 0.62033 0.95567 0.0
C1995 C 0.80893 0.62451 0.9337 0.0
C1996 C 0.83456 0.63556 0.92997 0.0
C1997 C 0.98644 0.60841 0.91289 0.0
C1998 C 0.98116 0.6009 0.89044 0.0
C1999 C 0.96745 0.62314 0.92541 0.0
C2000 C 0.94279 0.63081 0.91576 0.0
C2001 C 0.93699 0.62221 0.89373 0.0
C2002 C 0.95594 0.60754 0.88121 0.0
C2003 C 0.92347 0.64857 0.92825 0.0
C2004 C 0.8968 0.63962 0.9314 0.0
C2005 C 0.9313 0.67396 0.93739 0.0
C2006 C 0.95876 0.68538 0.93376 0.0
C2007 C 0.9697 0.68734 0.91193 0.0
C2008 C 0.99575 0.69754 0.90867 0.0
C2009 C 1.01097 0.70625 0.92709 0.0
C2010 C 1.00019 0.70471 0.94881 0.0
C2011 C 0.97421 0.69434 0.95218 0.0
H2012 H 0.03112 0.7142 0.92453 0.0
H2013 H 0.7798 0.61186 0.95853 0.0
H2014 H 0.57481 0.58929 0.25691 0.0
H2015 H 0.58745 0.62365 0.22885 0.0
H2016 H 0.65074 0.57156 0.20454 0.0
H2017 H 0.6373 0.53719 0.23163 0.0
H2018 H 0.63006 0.65202 0.22636 0.0
H2019 H 0.67137 0.58447 0.15311 0.0
H2020 H 0.6591 0.54207 0.1336 0.0
H2021 H 0.5767 0.55155 0.15415 0.0
H2022 H 0.58832 0.59426 0.17346 0.0
H2023 H 0.72529 0.72982 0.16412 0.0
H2024 H 0.70138 0.69594 0.18693 0.0
H2025 H 0.64986 0.67739 0.13039 0.0
H2026 H 0.67496 0.70947 0.10737 0.0
H2027 H 0.65817 0.63415 0.14758 0.0
H2028 H 0.63078 0.71722 0.18079 0.0
H2029 H 0.63583 0.7621 0.19858 0.0
H2030 H 0.67718 0.72636 0.25437 0.0
H2031 H 0.67269 0.68129 0.23677 0.0
C2032 C 0.59051 0.58479 0.24478 0.0
C2033 C 0.60467 0.56034 0.24606 0.0
C2034 C 0.59811 0.60461 0.22901 0.0
C2035 C 0.62007 0.60036 0.21433 0.0
C2036 C 0.63332 0.57534 0.21508 0.0
C2037 C 0.62556 0.55554 0.23057 0.0
C2038 C 0.6308 0.62255 0.19957 0.0
C2039 C 0.63597 0.64815 0.20906 0.0
C2040 C 0.63807 0.61799 0.17678 0.0
C2041 C 0.6308 0.59251 0.16488 0.0
C2042 C 0.65059 0.57762 0.15335 0.0
C2043 C 0.64375 0.55351 0.14234 0.0
C2044 C 0.61714 0.54411 0.14268 0.0
C2045 C 0.5973 0.55884 0.15396 0.0
C2046 C 0.60401 0.58299 0.16495 0.0
C2047 C 0.70897 0.71831 0.15661 0.0
C2048 C 0.70221 0.72215 0.1339 0.0
C2049 C 0.69503 0.69911 0.16972 0.0
C2050 C 0.67328 0.68412 0.16067 0.0
C2051 C 0.66655 0.68828 0.13796 0.0
C2052 C 0.68097 0.70675 0.12473 0.0
C2053 C 0.65788 0.66367 0.1744 0.0
C2054 C 0.65197 0.63826 0.16476 0.0
C2055 C 0.64884 0.66887 0.1967 0.0
C2056 C 0.65162 0.69592 0.20735 0.0
C2057 C 0.64112 0.71896 0.19678 0.0
C2058 C 0.64386 0.74443 0.20684 0.0
C2059 C 0.65688 0.74709 0.22756 0.0
C2060 C 0.66713 0.72427 0.2383 0.0
C2061 C 0.66448 0.69876 0.2283 0.0
H2062 H 0.65898 0.76682 0.23532 0.0
H2063 H 0.6119 0.52542 0.13418 0.0
H2064 H 0.28084 0.32521 0.48376 0.0
H2065 H 0.31266 0.34033 0.45501 0.0
H2066 H 0.30602 0.42225 0.47947 0.0
H2067 H 0.27455 0.4072 0.50867 0.0
H2068 H 0.318 0.37503 0.42065 0.0
H2069 H 0.36745 0.44774 0.48572 0.0
H2070 H 0.37152 0.45165 0.52706 0.0
H2071 H 0.36118 0.36574 0.53354 0.0
H2072 H 0.35724 0.36133 0.49232 0.0
H2073 H 0.42422 0.44652 0.36422 0.0
H2074 H 0.38355 0.43184 0.38446 0.0
H2075 H 0.43319 0.39342 0.43454 0.0
H2076 H 0.47356 0.40959 0.41514 0.0
H2077 H 0.39824 0.41848 0.45531 0.0
H2078 H 0.39384 0.3577 0.39306 0.0
H2079 H 0.39316 0.34348 0.35321 0.0
H2080 H 0.32089 0.38889 0.34263 0.0
H2081 H 0.32127 0.40362 0.38237 0.0
C2082 C 0.28567 0.34656 0.48277 0.0
C2083 C 0.27556 0.36493 0.49882 0.0
C2084 C 0.30378 0.35518 0.4662 0.0
C2085 C 0.31208 0.38231 0.46535 0.0
C2086 C 0.30017 0.40112 0.48005 0.0
C2087 C 0.28215 0.39249 0.49673 0.0
C2088 C 0.33564 0.39015 0.45131 0.0
C2089 C 0.33551 0.38475 0.4281 0.0
C2090 C 0.35891 0.40169 0.46123 0.0
C2091 C 0.36177 0.40428 0.48599 0.0
C2092 C 0.36615 0.42971 0.49599 0.0
C2093 C 0.36843 0.432 0.51939 0.0
C2094 C 0.36661 0.40894 0.53289 0.0
C2095 C 0.36253 0.38357 0.52306 0.0
C2096 C 0.36023 0.38118 0.4997 0.0
C2097 C 0.42629 0.43471 0.37944 0.0
C2098 C 0.45187 0.42922 0.38824 0.0
C2099 C 0.40308 0.4262 0.39095 0.0
C2100 C 0.40518 0.41136 0.41105 0.0
C2101 C 0.43091 0.40506 0.41925 0.0
C2102 C 0.454 0.41417 0.40811 0.0
C2103 C 0.38083 0.40361 0.42433 0.0
C2104 C 0.38075 0.40906 0.44757 0.0
C2105 C 0.35805 0.39076 0.41454 0.0
C2106 C 0.35775 0.382 0.39063 0.0
C2107 C 0.37792 0.36483 0.38219 0.0
C2108 C 0.37757 0.35664 0.35963 0.0
C2109 C 0.35706 0.36536 0.34538 0.0
C2110 C 0.33679 0.3822 0.35368 0.0
C2111 C 0.33705 0.39045 0.37622 0.0
H2112 H 0.35682 0.359 0.32792 0.0
H2113 H 0.36843 0.41065 0.55095 0.0
H2114 H 0.48115 0.49628 0.22869 0.0
H2115 H 0.46428 0.52567 0.19882 0.0
H2116 H 0.4057 0.55872 0.24506 0.0
H2117 H 0.42149 0.52849 0.27442 0.0
H2118 H 0.38369 0.55483 0.20661 0.0
H2119 H 0.47089 0.58846 0.23193 0.0
H2120 H 0.51992 0.58584 0.2384 0.0
H2121 H 0.53316 0.57271 0.16774 0.0
H2122 H 0.48422 0.57474 0.16091 0.0
H2123 H 0.36432 0.68934 0.17407 0.0
H2124 H 0.37998 0.64833 0.19253 0.0
H2125 H 0.4146 0.62069 0.12993 0.0
H2126 H 0.39852 0.66186 0.11112 0.0
H2127 H 0.4491 0.6167 0.16954 0.0
H2128 H 0.36105 0.59035 0.14464 0.0
H2129 H 0.3121 0.59574 0.1394 0.0
H2130 H 0.30071 0.59846 0.21108 0.0
H2131 H 0.34959 0.59341 0.21675 0.0
C2132 C 0.46438 0.50953 0.23231 0.0
C2133 C 0.45269 0.51016 0.25389 0.0
C2134 C 0.45489 0.52647 0.21529 0.0
C2135 C 0.43411 0.54493 0.21978 0.0
C2136 C 0.42177 0.54473 0.24111 0.0
C2137 C 0.43082 0.52741 0.25793 0.0
C2138 C 0.4257 0.56528 0.20282 0.0
C2139 C 0.39805 0.56838 0.1986 0.0
C2140 C 0.44442 0.58258 0.19177 0.0
C2141 C 0.47386 0.58137 0.19596 0.0
C2142 C 0.48425 0.58478 0.21781 0.0
C2143 C 0.51203 0.58341 0.22153 0.0
C2144 C 0.52963 0.57896 0.2035 0.0
C2145 C 0.51951 0.576 0.1817 0.0
C2146 C 0.49176 0.57725 0.1779 0.0
C2147 C 0.37529 0.67456 0.16421 0.0
C2148 C 0.38019 0.67868 0.14118 0.0
C2149 C 0.38412 0.65112 0.17476 0.0
C2150 C 0.39819 0.63142 0.16252 0.0
C2151 C 0.40365 0.63566 0.13959 0.0
C2152 C 0.39447 0.65908 0.1289 0.0
C2153 C 0.40722 0.60663 0.17411 0.0
C2154 C 0.43489 0.60275 0.17727 0.0
C2155 C 0.38855 0.58886 0.18447 0.0
C2156 C 0.35904 0.59164 0.18111 0.0
C2157 C 0.34813 0.59226 0.15929 0.0
C2158 C 0.32037 0.59522 0.15624 0.0
C2159 C 0.30329 0.59745 0.17489 0.0
C2160 C 0.31393 0.59668 0.19663 0.0
C2161 C 0.34166 0.59373 0.19978 0.0
H2162 H 0.28181 0.59975 0.17249 0.0
H2163 H 0.5511 0.57785 0.20638 0.0
H2164 H 0.10732 0.61716 0.92651 0.0
H2165 H 0.14734 0.63052 0.94775 0.0
H2166 H 0.1977 0.60658 0.89177 0.0
H2167 H 0.15742 0.59481 0.87 0.0
H2168 H 0.18693 0.60624 0.9639 0.0
H2169 H 0.25551 0.64222 0.89061 0.0
H2170 H 0.25146 0.66246 0.85285 0.0
H2171 H 0.17526 0.6968 0.87139 0.0
H2172 H 0.17903 0.67703 0.90932 0.0
H2173 H 0.31243 0.63709 0.01426 0.0
H2174 H 0.2797 0.61758 0.98793 0.0
H2175 H 0.25869 0.69774 0.96573 0.0
H2176 H 0.2919 0.71716 0.99111 0.0
H2177 H 0.25713 0.66674 0.93174 0.0
H2178 H 0.22131 0.66198 0.00691 0.0
H2179 H 0.21991 0.64923 0.04701 0.0
H2180 H 0.22243 0.56519 0.02869 0.0
H2181 H 0.22397 0.57749 0.98846 0.0
C2182 C 0.12696 0.615 0.91871 0.0
C2183 C 0.12938 0.60529 0.89659 0.0
C2184 C 0.14984 0.62245 0.9309 0.0
C2185 C 0.17565 0.61985 0.92135 0.0
C2186 C 0.17806 0.60945 0.89936 0.0
C2187 C 0.15508 0.60265 0.88695 0.0
C2188 C 0.19981 0.62829 0.93445 0.0
C2189 C 0.20231 0.61939 0.9568 0.0
C2190 C 0.2198 0.64575 0.92541 0.0
C2191 C 0.21741 0.65785 0.90269 0.0
C2192 C 0.23793 0.65413 0.88663 0.0
C2193 C 0.23568 0.66552 0.8652 0.0
C2194 C 0.21307 0.68081 0.8597 0.0
C2195 C 0.19271 0.68485 0.87564 0.0
C2196 C 0.19488 0.67353 0.89709 0.0
C2197 C 0.30118 0.65048 0.00344 0.0
C2198 C 0.30463 0.67868 0.00491 0.0
C2199 C 0.28233 0.63933 0.98852 0.0
C2200 C 0.2663 0.65621 0.97516 0.0
C2201 C 0.27075 0.68425 0.97585 0.0
C2202 C 0.28977 0.69535 0.99046 0.0
C2203 C 0.24392 0.64514 0.96128 0.0
C2204 C 0.24187 0.65335 0.93874 0.0
C2205 C 0.22367 0.62812 0.9705 0.0
C2206 C 0.22309 0.62066 -0.00531 0.0
C2207 C 0.22179 0.64079 0.01145 0.0
C2208 C 0.22091 0.63364 0.03421 0.0
C2209 C 0.22116 0.60641 0.04042 0.0
C2210 C 0.22226 0.58627 0.02387 0.0
C2211 C 0.22311 0.59332 0.00109 0.0
H2212 H 0.22042 0.60089 0.05804 0.0
H2213 H 0.21135 0.6896 0.8431 0.0
H2214 H 0.22328 0.35886 0.67617 0.0
H2215 H 0.20504 0.39738 0.69664 0.0
H2216 H 0.1646 0.42398 0.63647 0.0
H2217 H 0.18381 0.38561 0.61557 0.0
H2218 H 0.1855 0.46589 0.65714 0.0
H2219 H 0.12874 0.3937 0.6805 0.0
H2220 H 0.11595 0.34853 0.69456 0.0
H2221 H 0.15751 0.3645 0.75656 0.0
H2222 H 0.1708 0.40968 0.74278 0.0
H2223 H 0.09716 0.54731 0.73091 0.0
H2224 H 0.11421 0.51487 0.70303 0.0
H2225 H 0.18144 0.49727 0.74622 0.0
H2226 H 0.16501 0.53 0.7739 0.0
H2227 H 0.14209 0.45187 0.73161 0.0
H2228 H 0.19943 0.52538 0.70489 0.0
H2229 H 0.20743 0.57116 0.68985 0.0
H2230 H 0.15808 0.55259 0.63251 0.0
H2231 H 0.14947 0.50679 0.6474 0.0
C2232 C 0.21046 0.37288 0.66729 0.0
C2233 C 0.20478 0.36923 0.64435 0.0
C2234 C 0.19989 0.39482 0.67905 0.0
C2235 C 0.18294 0.41329 0.66825 0.0
C2236 C 0.17749 0.40989 0.64518 0.0
C2237 C 0.18839 0.388 0.63329 0.0
C2238 C 0.1715 0.43629 0.68117 0.0
C2239 C 0.1756 0.46276 0.67324 0.0
C2240 C 0.15857 0.43232 0.70222 0.0
C2241 C 0.15096 0.405 0.71051 0.0
C2242 C 0.13536 0.38749 0.69705 0.0
C2243 C 0.12797 0.36191 0.70499 0.0
C2244 C 0.13598 0.35362 0.72641 0.0
C2245 C 0.15135 0.37093 0.73996 0.0
C2246 C 0.15878 0.39655 0.7321 0.0
C2247 C 0.11592 0.537 0.7342 0.0
C2248 C 0.12972 0.54112 0.7546 0.0
C2249 C 0.12561 0.51855 0.71828 0.0
C2250 C 0.14899 0.50377 0.72269 0.0
C2251 C 0.16339 0.50864 0.74257 0.0
C2252 C 0.15402 0.52741 0.7583 0.0
C2253 C 0.15688 0.48117 0.70784 0.0
C2254 C 0.15187 0.45483 0.71542 0.0
C2255 C 0.16834 0.48529 0.68633 0.0
C2256 C 0.17352 0.5128 0.67741 0.0
C2257 C 0.19003 0.53116 0.68921 0.0
C2258 C 0.19474 0.55709 0.68068 0.0
C2259 C 0.18319 0.56482 0.66028 0.0
C2260 C 0.16697 0.5466 0.64833 0.0
C2261 C 0.16218 0.52065 0.6568 0.0
H2262 H 0.18687 0.58489 0.65369 0.0
H2263 H 0.13022 0.33381 0.73253 0.0
H2264 H 0.26128 0.70578 0.50198 0.0
H2265 H 0.29331 0.68912 0.52961 0.0
H2266 H 0.30615 0.61765 0.4893 0.0
H2267 H 0.27408 0.6342 0.46138 0.0
H2268 H 0.30827 0.60929 0.53774 0.0
H2269 H 0.34618 0.66543 0.47947 0.0
H2270 H 0.34796 0.70605 0.45553 0.0
H2271 H 0.35847 0.75613 0.51409 0.0
H2272 H 0.35631 0.71577 0.53845 0.0
H2273 H 0.44265 0.57855 0.57015 0.0
H2274 H 0.40143 0.58854 0.54937 0.0
H2275 H 0.39475 0.66469 0.58458 0.0
H2276 H 0.43616 0.65482 0.60536 0.0
H2277 H 0.38816 0.67023 0.53954 0.0
H2278 H 0.35376 0.61264 0.5977 0.0
H2279 H 0.3494 0.57193 0.6213 0.0
H2280 H 0.33183 0.52395 0.56272 0.0
H2281 H 0.3366 0.56429 0.53867 0.0
C2282 C 0.27033 0.68617 0.49923 0.0
C2283 C 0.26558 0.67155 0.47927 0.0
C2284 C 0.28861 0.67669 0.51506 0.0
C2285 C 0.30239 0.65247 0.51119 0.0
C2286 C 0.29572 0.63648 0.49245 0.0
C2287 C 0.27742 0.64598 0.47653 0.0
C2288 C 0.32615 0.64589 0.52496 0.0
C2289 C 0.3259 0.62236 0.53803 0.0
C2290 C 0.34887 0.66332 0.52542 0.0
C2291 C 0.35079 0.6876 0.51081 0.0
C2292 C 0.34867 0.68512 0.48727 0.0
C2293 C 0.34977 0.70808 0.47361 0.0
C2294 C 0.35325 0.73366 0.48329 0.0
C2295 C 0.35574 0.7363 0.50663 0.0
C2296 C 0.3546 0.71338 0.52037 0.0
C2297 C 0.43233 0.59739 0.5735 0.0
C2298 C 0.44248 0.61594 0.58933 0.0
C2299 C 0.40873 0.60298 0.56172 0.0
C2300 C 0.39488 0.62719 0.56566 0.0
C2301 C 0.4051 0.64583 0.5814 0.0
C2302 C 0.4287 0.64021 0.59323 0.0
C2303 C 0.37039 0.63357 0.5526 0.0
C2304 C 0.37055 0.6571 0.53946 0.0
C2305 C 0.34772 0.616 0.552 0.0
C2306 C 0.34575 0.5915 0.56634 0.0
C2307 C 0.34929 0.59337 0.58979 0.0
C2308 C 0.34663 0.57036 0.60327 0.0
C2309 C 0.34019 0.5454 0.59353 0.0
C2310 C 0.33663 0.54334 0.57026 0.0
C2311 C 0.33937 0.56626 0.55669 0.0
H2312 H 0.33811 0.52763 0.60399 0.0
H2313 H 0.35409 0.7514 0.47268 0.0
H2314 H 0.19902 0.70171 0.31112 0.0
H2315 H 0.18511 0.66167 0.28991 0.0
H2316 H 0.20819 0.61099 0.34565 0.0
H2317 H 0.22068 0.6514 0.36741 0.0
H2318 H 0.20996 0.62185 0.27387 0.0
H2319 H 0.17149 0.55293 0.3456 0.0
H2320 H 0.15089 0.5566 0.38337 0.0
H2321 H 0.11817 0.63393 0.36616 0.0
H2322 H 0.13828 0.63061 0.32822 0.0
H2323 H 0.17402 0.49871 0.22004 0.0
H2324 H 0.19495 0.53033 0.2467 0.0
H2325 H 0.11616 0.5533 0.27082 0.0
H2326 H 0.09538 0.52104 0.2452 0.0
H2327 H 0.14686 0.55282 0.30427 0.0
H2328 H 0.15414 0.59204 0.23006 0.0
H2329 H 0.16771 0.59575 0.19018 0.0
H2330 H 0.2507 0.58669 0.20867 0.0
H2331 H 0.23763 0.58311 0.2487 0.0
C2332 C 0.20088 0.68201 0.31888 0.0
C2333 C 0.21063 0.67953 0.3409 0.0
C2334 C 0.1931 0.65912 0.30672 0.0
C2335 C 0.19541 0.63323 0.31617 0.0
C2336 C 0.20565 0.63073 0.33813 0.0
C2337 C 0.21283 0.65376 0.35053 0.0
C2338 C 0.18696 0.60914 0.30286 0.0
C2339 C 0.19625 0.60669 0.28058 0.0
C2340 C 0.16891 0.58941 0.31147 0.0
C2341 C 0.1567 0.59165 0.33421 0.0
C2342 C 0.15987 0.5707 0.34989 0.0
C2343 C 0.14827 0.57272 0.37131 0.0
C2344 C 0.13332 0.59554 0.37718 0.0
C2345 C 0.12984 0.61634 0.36162 0.0
C2346 C 0.14137 0.61442 0.34017 0.0
C2347 C 0.16124 0.5102 0.23132 0.0
C2348 C 0.13305 0.50743 0.23046 0.0
C2349 C 0.1732 0.52843 0.24642 0.0
C2350 C 0.15713 0.54462 0.26052 0.0
C2351 C 0.12905 0.54106 0.26019 0.0
C2352 C 0.11716 0.52258 0.24545 0.0
C2353 C 0.1691 0.56608 0.27502 0.0
C2354 C 0.16079 0.56782 0.29763 0.0
C2355 C 0.18705 0.5859 0.2664 0.0
C2356 C 0.19489 0.58698 0.24231 0.0
C2357 C 0.17526 0.59059 0.22558 0.0
C2358 C 0.18288 0.59278 0.20297 0.0
C2359 C 0.21006 0.59141 0.19689 0.0
C2360 C 0.22967 0.58777 0.21341 0.0
C2361 C 0.22218 0.58572 0.23606 0.0
H2362 H 0.21596 0.59329 0.1794 0.0
H2363 H 0.12436 0.59708 0.39378 0.0
H2364 H 0.16084 0.4459 0.12187 0.0
H2365 H 0.2019 0.43261 0.10137 0.0
H2366 H 0.15301 0.3958 0.04957 0.0
H2367 H 0.1122 0.40961 0.06958 0.0
H2368 H 0.19652 0.36395 0.06262 0.0
H2369 H 0.17496 0.45441 0.04231 0.0
H2370 H 0.16663 0.50309 0.04714 0.0
H2371 H 0.24822 0.51512 0.06886 0.0
H2372 H 0.25659 0.46616 0.06565 0.0
H2373 H 0.28975 0.40007 0.96277 0.0
H2374 H 0.25753 0.41438 0.9914 0.0
H2375 H 0.2889 0.3548 0.03721 0.0
H2376 H 0.32022 0.33936 0.00803 0.0
H2377 H 0.25643 0.43475 0.03049 0.0
H2378 H 0.2412 0.33002 0.06999 0.0
H2379 H 0.24568 0.2817 0.06012 0.0
H2380 H 0.23098 0.29993 0.99063 0.0
H2381 H 0.22647 0.34839 9e-05 0.0
C2382 C 0.15899 0.4347 0.10624 0.0
C2383 C 0.1335 0.42878 0.0972 0.0
C2384 C 0.18236 0.42723 0.09455 0.0
C2385 C 0.1804 0.41333 0.07395 0.0
C2386 C 0.15491 0.40648 0.06545 0.0
C2387 C 0.13166 0.41444 0.07684 0.0
C2388 C 0.20468 0.40669 0.06055 0.0
C2389 C 0.20984 0.37941 0.05582 0.0
C2390 C 0.22163 0.42698 0.0513 0.0
C2391 C 0.2162 0.45634 0.0543 0.0
C2392 C 0.19093 0.46722 0.04878 0.0
C2393 C 0.18619 0.49492 0.05123 0.0
C2394 C 0.20677 0.51213 0.05864 0.0
C2395 C 0.23215 0.50168 0.06352 0.0
C2396 C 0.23684 0.47392 0.06156 0.0
C2397 C 0.29009 0.39029 0.97907 0.0
C2398 C 0.30731 0.36843 0.98312 0.0
C2399 C 0.27163 0.3985 -0.00454 0.0
C2400 C 0.2703 0.38528 0.01635 0.0
C2401 C 0.28894 0.36479 0.02101 0.0
C2402 C 0.307 0.35613 0.00441 0.0
C2403 C 0.24833 0.39198 0.03249 0.0
C2404 C 0.24352 0.41926 0.03773 0.0
C2405 C 0.23113 0.3718 0.04164 0.0
C2406 C 0.23375 0.34279 0.03573 0.0
C2407 C 0.23895 0.32369 0.05261 0.0
C2408 C 0.24159 0.29633 0.04708 0.0
C2409 C 0.23869 0.28781 0.02477 0.0
C2410 C 0.23327 0.30661 0.0079 0.0
C2411 C 0.23077 0.33403 0.01332 0.0
H2412 H 0.24054 0.26662 0.0206 0.0
H2413 H 0.20312 0.53359 0.06042 0.0
H2414 H 0.48344 0.54994 0.76739 0.0
H2415 H 0.4643 0.51771 0.79432 0.0
H2416 H 0.4037 0.49481 0.74573 0.0
H2417 H 0.42188 0.52794 0.71931 0.0
H2418 H 0.38216 0.49324 0.78479 0.0
H2419 H 0.46514 0.45912 0.75379 0.0
H2420 H 0.51373 0.45969 0.74486 0.0
H2421 H 0.53245 0.46361 0.81534 0.0
H2422 H 0.48396 0.46347 0.82468 0.0
H2423 H 0.35798 0.35592 0.81395 0.0
H2424 H 0.37369 0.39723 0.79533 0.0
H2425 H 0.41301 0.42273 0.85656 0.0
H2426 H 0.39685 0.38152 0.87548 0.0
H2427 H 0.44537 0.42533 0.81535 0.0
H2428 H 0.35976 0.45383 0.84492 0.0
H2429 H 0.31077 0.45029 0.85146 0.0
H2430 H 0.29674 0.45291 0.7802 0.0
H2431 H 0.34569 0.45604 0.7732 0.0
C2432 C 0.46572 0.53837 0.76267 0.0
C2433 C 0.45423 0.54131 0.74124 0.0
C2434 C 0.45492 0.51981 0.77799 0.0
C2435 C 0.43299 0.50327 0.77186 0.0
C2436 C 0.42068 0.50723 0.75086 0.0
C2437 C 0.43109 0.52621 0.73575 0.0
C2438 C 0.42368 0.48087 0.78665 0.0
C2439 C 0.39601 0.47833 0.79133 0.0
C2440 C 0.44175 0.46154 0.79553 0.0
C2441 C 0.47092 0.46162 0.78992 0.0
C2442 C 0.47962 0.46032 0.76737 0.0
C2443 C 0.50714 0.46053 0.76224 0.0
C2444 C 0.52616 0.46178 0.77952 0.0
C2445 C 0.51769 0.46272 0.80197 0.0
C2446 C 0.4902 0.46257 0.80719 0.0
C2447 C 0.36995 0.37035 0.82344 0.0
C2448 C 0.37625 0.36564 0.84611 0.0
C2449 C 0.3788 0.39393 0.81283 0.0
C2450 C 0.39431 0.41302 0.82465 0.0
C2451 C 0.40096 0.40821 0.84723 0.0
C2452 C 0.39173 0.38477 0.85798 0.0
C2453 C 0.40399 0.43768 0.81312 0.0
C2454 C 0.43168 0.44052 0.80902 0.0
C2455 C 0.38591 0.45691 0.80437 0.0
C2456 C 0.35644 0.45501 0.80854 0.0
C2457 C 0.34626 0.45342 0.83063 0.0
C2458 C 0.31849 0.45154 0.83442 0.0
C2459 C 0.30067 0.45142 0.81626 0.0
C2460 C 0.31058 0.45307 0.79426 0.0
C2461 C 0.33833 0.45492 0.79037 0.0
H2462 H 0.27918 0.45011 0.81923 0.0
H2463 H 0.54744 0.46195 0.77554 0.0
H2464 H 0.23946 0.83117 0.09872 0.0
H2465 H 0.20068 0.84869 0.11951 0.0
H2466 H 0.14721 0.80121 0.07777 0.0
H2467 H 0.18603 0.78374 0.05692 0.0
H2468 H 0.13519 0.85358 0.07568 0.0
H2469 H 0.1499 0.79004 0.1341 0.0
H2470 H 0.17621 0.76446 0.16188 0.0
H2471 H 0.19617 0.83821 0.19658 0.0
H2472 H 0.1704 0.86431 0.16876 0.0
H2473 H 0.05002 0.91504 0.17677 0.0
H2474 H 0.06755 0.87701 0.15481 0.0
H2475 H 0.11482 0.93246 0.11472 0.0
H2476 H 0.09743 0.97043 0.1367 0.0
H2477 H 0.12062 0.86654 0.15762 0.0
H2478 H 0.13084 0.90325 0.06485 0.0
H2479 H 0.10408 0.9278 0.03673 0.0
H2480 H 0.03116 0.90475 0.07096 0.0
H2481 H 0.05749 0.87959 0.09899 0.0
C2482 C 0.21953 0.82351 0.09472 0.0
C2483 C 0.21566 0.80622 0.07622 0.0
C2484 C 0.19733 0.83365 0.1065 0.0
C2485 C 0.171 0.82644 0.10005 0.0
C2486 C 0.16732 0.80719 0.08292 0.0
C2487 C 0.18948 0.79706 0.07116 0.0
C2488 C 0.14767 0.84178 0.10896 0.0
C2489 C 0.13174 0.85615 0.09361 0.0
C2490 C 0.14293 0.8448 0.13231 0.0
C2491 C 0.15829 0.82916 0.14924 0.0
C2492 C 0.16005 0.80084 0.14755 0.0
C2493 C 0.17485 0.78623 0.16332 0.0
C2494 C 0.18787 0.7997 0.18097 0.0
C2495 C 0.18607 0.8278 0.1829 0.0
C2496 C 0.17133 0.84251 0.16714 0.0
C2497 C 0.06331 0.91913 0.16265 0.0
C2498 C 0.07264 0.94559 0.15854 0.0
C2499 C 0.07342 0.89741 0.15023 0.0
C2500 C 0.09276 0.90186 0.13335 0.0
C2501 C 0.09979 0.92855 0.12759 0.0
C2502 C 0.08972 0.9503 0.14007 0.0
C2503 C 0.10877 0.87899 0.12435 0.0
C2504 C 0.12354 0.86341 0.13969 0.0
C2505 C 0.11229 0.8747 0.101 0.0
C2506 C 0.09622 0.8896 0.08408 0.0
C2507 C 0.10911 0.90323 0.06626 0.0
C2508 C 0.094 0.91729 0.05036 0.0
C2509 C 0.06593 0.91788 0.05207 0.0
C2510 C 0.05291 0.90434 0.06967 0.0
C2511 C 0.06794 0.89019 0.08559 0.0
H2512 H 0.05426 0.9288 0.03976 0.0
H2513 H 0.19932 0.78836 0.19316 0.0
H2514 H 0.52938 0.92491 0.32394 0.0
H2515 H 0.50741 0.88697 0.34323 0.0
H2516 H 0.44362 0.94006 0.36492 0.0
H2517 H 0.46609 0.97801 0.34636 0.0
H2518 H 0.44897 0.90152 0.39424 0.0
H2519 H 0.4423 0.90723 0.31338 0.0
H2520 H 0.46039 0.90911 0.27474 0.0
H2521 H 0.49598 0.83094 0.28306 0.0
H2522 H 0.47865 0.82883 0.32203 0.0
H2523 H 0.33149 0.82317 0.38395 0.0
H2524 H 0.36626 0.84459 0.36073 0.0
H2525 H 0.42748 0.80045 0.3961 0.0
H2526 H 0.39279 0.77834 0.4189 0.0
H2527 H 0.42589 0.83073 0.33772 0.0
H2528 H 0.44547 0.85187 0.42839 0.0
H2529 H 0.42114 0.85273 0.46482 0.0
H2530 H 0.35059 0.88286 0.43191 0.0
H2531 H 0.37462 0.88252 0.39544 0.0
C2532 C 0.51148 0.92864 0.33394 0.0
C2533 C 0.49931 0.95421 0.33377 0.0
C2534 C 0.49873 0.90694 0.34463 0.0
C2535 C 0.47343 0.91054 0.35481 0.0
C2536 C 0.46302 0.93678 0.35699 0.0
C2537 C 0.47596 0.95854 0.34658 0.0
C2538 C 0.45612 0.887 0.36047 0.0
C2539 C 0.44431 0.88594 0.38191 0.0
C2540 C 0.44933 0.86691 0.34422 0.0
C2541 C 0.45945 0.868 0.32071 0.0
C2542 C 0.45411 0.8905 0.30703 0.0
C2543 C 0.46418 0.89159 0.28504 0.0
C2544 C 0.47929 0.87018 0.27642 0.0
C2545 C 0.48431 0.84755 0.28977 0.0
C2546 C 0.4744 0.8464 0.31182 0.0
C2547 C 0.35217 0.81668 0.38575 0.0
C2548 C 0.35961 0.79965 0.40354 0.0
C2549 C 0.37204 0.82896 0.37248 0.0
C2550 C 0.39934 0.82436 0.37705 0.0
C2551 C 0.40647 0.8042 0.39239 0.0
C2552 C 0.38665 0.79169 0.40545 0.0
C2553 C 0.41931 0.84544 0.37137 0.0
C2554 C 0.43132 0.84603 0.35006 0.0
C2555 C 0.42568 0.8657 0.38734 0.0
C2556 C 0.41173 0.86702 0.40932 0.0
C2557 C 0.42484 0.85885 0.42903 0.0
C2558 C 0.41113 0.85925 0.44964 0.0
C2559 C 0.38437 0.86783 0.4506 0.0
C2560 C 0.37131 0.87624 0.43108 0.0
C2561 C 0.38496 0.87598 0.41049 0.0
H2562 H 0.37365 0.86782 0.46644 0.0
H2563 H 0.48708 0.87112 0.25939 0.0
H2564 H 0.39667 0.25859 0.56711 0.0
H2565 H 0.43198 0.23606 0.58856 0.0
H2566 H 0.37169 0.18758 0.62225 0.0
H2567 H 0.33631 0.21019 0.60088 0.0
H2568 H 0.41668 0.19673 0.64903 0.0
H2569 H 0.39448 0.16504 0.57491 0.0
H2570 H 0.38668 0.1699 0.53413 0.0
H2571 H 0.46875 0.1956 0.52478 0.0
H2572 H 0.47692 0.1913 0.56562 0.0
H2573 H 0.48437 0.0635 0.64033 0.0
H2574 H 0.46218 0.0991 0.6189 0.0
H2575 H 0.50813 0.15958 0.65484 0.0
H2576 H 0.53055 0.12401 0.67615 0.0
H2577 H 0.47197 0.14609 0.59338 0.0
H2578 H 0.45979 0.20192 0.67851 0.0
H2579 H 0.46176 0.19206 0.7192 0.0
H2580 H 0.44012 0.10928 0.70631 0.0
H2581 H 0.43756 0.11874 0.6656 0.0
C2582 C 0.39093 0.24402 0.57988 0.0
C2583 C 0.3639 0.23585 0.58224 0.0
C2584 C 0.41108 0.23107 0.592 0.0
C2585 C 0.40442 0.20972 0.60652 0.0
C2586 C 0.3772 0.20394 0.61102 0.0
C2587 C 0.35699 0.21696 0.59891 0.0
C2588 C 0.42547 0.19064 0.61387 0.0
C2589 C 0.42906 0.18597 0.63691 0.0
C2590 C 0.4409 0.17589 0.59794 0.0
C2591 C 0.43622 0.17817 0.57335 0.0
C2592 C 0.41081 0.17192 0.56418 0.0
C2593 C 0.40633 0.17453 0.54106 0.0
C2594 C 0.42718 0.18314 0.5269 0.0
C2595 C 0.4526 0.18901 0.5358 0.0
C2596 C 0.45717 0.18648 0.55893 0.0
C2597 C 0.49081 0.08428 0.64276 0.0
C2598 C 0.50881 0.09112 0.66009 0.0
C2599 C 0.47799 0.10463 0.63062 0.0
C2600 C 0.48304 0.1319 0.6358 0.0
C2601 C 0.50371 0.13861 0.6509 0.0
C2602 C 0.5166 0.1183 0.66294 0.0
C2603 C 0.46375 0.15277 0.62855 0.0
C2604 C 0.4602 0.15747 0.60552 0.0
C2605 C 0.44769 0.16685 0.64447 0.0
C2606 C 0.44889 0.16099 0.66897 0.0
C2607 C 0.4554 0.18164 0.68437 0.0
C2608 C 0.4566 0.17612 0.70743 0.0
C2609 C 0.45118 0.15004 0.71531 0.0
C2610 C 0.4444 0.12945 0.70016 0.0
C2611 C 0.44313 0.13487 0.67709 0.0
H2612 H 0.45216 0.14582 0.73316 0.0
H2613 H 0.42363 0.18517 0.50904 0.0
H2614 H 0.28548 0.1433 0.95237 0.0
H2615 H 0.27058 0.10197 0.93328 0.0
H2616 H 0.25949 0.14712 0.87193 0.0
H2617 H 0.27485 0.1883 0.89093 0.0
H2618 H 0.22152 0.09762 0.92097 0.0
H2619 H 0.25786 0.10757 0.82643 0.0
H2620 H 0.3005 0.11604 0.80616 0.0
H2621 H 0.34533 0.09177 0.86431 0.0
H2622 H 0.30305 0.08266 0.88482 0.0
H2623 H 0.12376 0.086 0.83961 0.0
H2624 H 0.1617 0.09684 0.86433 0.0
H2625 H 0.19924 0.02114 0.84677 0.0
H2626 H 0.16075 1.01003 0.82219 0.0
H2627 H 0.23332 0.06755 0.84182 0.0
H2628 H 0.1814 0.02489 0.89746 0.0
H2629 H 0.14063 1.01222 0.91884 0.0
H2630 H 0.13169 0.09441 0.94107 0.0
H2631 H 0.17212 0.10771 0.91948 0.0
C2632 C 0.28071 0.14411 0.93459 0.0
C2633 C 0.28086 0.16893 0.92313 0.0
C2634 C 0.27224 0.12053 0.92371 0.0
C2635 C 0.26372 0.12143 0.90123 0.0
C2636 C 0.26629 0.14578 0.8892 0.0
C2637 C 0.27497 0.16937 0.90006 0.0
C2638 C 0.24741 0.09894 0.89172 0.0
C2639 C 0.22444 0.09064 0.90382 0.0
C2640 C 0.25164 0.089 0.86963 0.0
C2641 C 0.27716 0.0945 0.85723 0.0
C2642 C 0.27678 0.10385 0.83487 0.0
C2643 C 0.30092 0.10882 0.82334 0.0
C2644 C 0.3256 0.10444 0.83395 0.0
C2645 C 0.3262 0.09519 0.85613 0.0
C2646 C 0.30215 0.09016 0.86772 0.0
C2647 C 0.13983 0.07146 0.8415 0.0
C2648 C 0.13944 0.04716 0.82933 0.0
C2649 C 0.16144 0.07761 0.85552 0.0
C2650 C 0.18315 0.05971 0.85737 0.0
C2651 C 0.18258 0.0351 0.84557 0.0
C2652 C 0.16063 0.02872 0.83175 0.0
C2653 C 0.2069 0.06811 0.87064 0.0
C2654 C 0.23108 0.07382 0.85924 0.0
C2655 C 0.20419 0.0751 0.89359 0.0
C2656 C 0.17984 0.06731 0.90678 0.0
C2657 C 0.17066 0.04032 0.90678 0.0
C2658 C 0.1476 0.03302 0.91896 0.0
C2659 C 0.13358 0.0525 0.93131 0.0
C2660 C 0.1426 0.07933 0.93152 0.0
C2661 C 0.16563 0.08676 0.91933 0.0
H2662 H 0.11574 0.04681 0.94074 0.0
H2663 H 0.34429 0.1081 0.82501 0.0
H2664 H 0.98018 0.03831 0.88351 0.0
H2665 H 0.94668 0.07278 0.89362 0.0
H2666 H 0.92662 0.08222 0.82353 0.0
H2667 H 0.95978 0.04805 0.81339 0.0
H2668 H 0.92863 0.13081 0.84385 0.0
H2669 H 0.88744 0.04486 0.85868 0.0
H2670 H 0.88312 0.99968 0.87585 0.0
H2671 H 0.88174 0.03563 0.94174 0.0
H2672 H 0.88664 0.08102 0.92499 0.0
H2673 H 0.80369 0.20173 0.85709 0.0
H2674 H 0.84007 0.17055 0.84705 0.0
H2675 H 0.85159 0.15224 0.91735 0.0
H2676 H 0.81448 0.18219 0.92721 0.0
H2677 H 0.85454 0.10799 0.89676 0.0
H2678 H 0.89675 0.19436 0.88156 0.0
H2679 H 0.9013 0.23921 0.86383 0.0
H2680 H 0.90054 0.20225 0.7983 0.0
H2681 H 0.89564 0.1572 0.81563 0.0
C2682 C 0.96893 0.04802 0.87023 0.0
C2683 C 0.97284 0.04028 0.84761 0.0
C2684 C 0.94955 0.06761 0.87605 0.0
C2685 C 0.93372 0.08008 0.85939 0.0
C2686 C 0.93838 0.07305 0.83678 0.0
C2687 C 0.95745 0.05336 0.831 0.0
C2688 C 0.91193 0.09996 0.86531 0.0
C2689 C 0.91232 0.12572 0.85532 0.0
C2690 C 0.89066 0.09366 0.88046 0.0
C2691 C 0.88777 0.06635 0.89058 0.0
C2692 C 0.88651 0.04313 0.87684 0.0
C2693 C 0.88392 1.01748 0.88649 0.0
C2694 C 0.88225 1.01479 0.90987 0.0
C2695 C 0.88312 0.03775 0.92364 0.0
C2696 C 0.88582 0.06344 0.91407 0.0
C2697 C 0.81426 0.19137 0.87042 0.0
C2698 C 0.80617 0.19474 0.89299 0.0
C2699 C 0.83523 0.17347 0.86467 0.0
C2700 C 0.84922 0.15898 0.88139 0.0
C2701 C 0.84136 0.16286 0.90397 0.0
C2702 C 0.82012 0.18025 0.90964 0.0
C2703 C 0.87137 0.13922 0.8756 0.0
C2704 C 0.87095 0.11331 0.88548 0.0
C2705 C 0.89264 0.14538 0.86033 0.0
C2706 C 0.89557 0.17245 0.8499 0.0
C2707 C 0.89737 0.19582 0.86337 0.0
C2708 C 0.90003 0.22127 0.85339 0.0
C2709 C 0.90113 0.22358 0.82996 0.0
C2710 C 0.89964 0.20043 0.81645 0.0
C2711 C 0.89694 0.17494 0.82634 0.0
H2712 H 0.9032 0.2433 0.82227 0.0
H2713 H 0.88022 0.99492 0.91731 0.0
H2714 H 0.77478 0.21247 0.63051 0.0
H2715 H 0.73797 0.18076 0.6399 0.0
H2716 H 0.73543 0.15389 0.57088 0.0
H2717 H 0.77178 0.18535 0.56137 0.0
H2718 H 0.68343 0.16015 0.58932 0.0
H2719 H 0.76759 0.11741 0.60811 0.0
H2720 H 0.81146 0.11494 0.62736 0.0
H2721 H 0.77171 0.11923 0.69158 0.0
H2722 H 0.7276 0.12222 0.67269 0.0
H2723 H 0.60889 0.03617 0.60152 0.0
H2724 H 0.64101 0.07247 0.59228 0.0
H2725 H 0.65739 0.08403 0.66298 0.0
H2726 H 0.62647 0.04715 0.67206 0.0
H2727 H 0.70209 0.08703 0.64392 0.0
H2728 H 0.6189 0.13137 0.62745 0.0
H2729 H 0.57426 0.13674 0.60992 0.0
H2730 H 0.61036 0.13208 0.54421 0.0
H2731 H 0.65513 0.12621 0.56139 0.0
C2732 C 0.76602 0.20021 0.61724 0.0
C2733 C 0.77639 0.20166 0.59516 0.0
C2734 C 0.74505 0.18189 0.62265 0.0
C2735 C 0.73375 0.16473 0.6061 0.0
C2736 C 0.74345 0.16693 0.58395 0.0
C2737 C 0.76446 0.18496 0.57858 0.0
C2738 C 0.71286 0.14356 0.61184 0.0
C2739 C 0.68759 0.14405 0.60115 0.0
C2740 C 0.71784 0.12271 0.62759 0.0
C2741 C 0.7443 0.12033 0.63897 0.0
C2742 C 0.76821 0.11802 0.62633 0.0
C2743 C 0.79312 0.11651 0.63718 0.0
C2744 C 0.79438 0.11702 0.66068 0.0
C2745 C 0.77071 0.1189 0.67337 0.0
C2746 C 0.74574 0.12049 0.66261 0.0
C2747 C 0.61906 0.04672 0.61509 0.0
C2748 C 0.61488 0.03864 0.63755 0.0
C2749 C 0.63749 0.06766 0.60982 0.0
C2750 C 0.6518 0.08161 0.62688 0.0
C2751 C 0.64704 0.07382 0.64933 0.0
C2752 C 0.62907 0.05267 0.65454 0.0
C2753 C 0.67226 0.10361 0.62159 0.0
C2754 C 0.69764 0.1032 0.63224 0.0
C2755 C 0.6672 0.1248 0.60609 0.0
C2756 C 0.64035 0.12831 0.59569 0.0
C2757 C 0.61728 0.13138 0.60926 0.0
C2758 C 0.59196 0.1345 0.5994 0.0
C2759 C 0.58947 0.13476 0.57596 0.0
C2760 C 0.61231 0.13192 0.56236 0.0
C2761 C 0.63768 0.12874 0.57215 0.0
H2762 H 0.56985 0.13717 0.56835 0.0
H2763 H 0.81369 0.11588 0.66904 0.0
H2764 H 0.75887 0.82144 0.36987 0.0
H2765 H 0.723 0.85329 0.36007 0.0
H2766 H 0.76162 0.91491 0.40051 0.0
H2767 H 0.79606 0.88288 0.41135 0.0
H2768 H 0.71466 0.92306 0.40654 0.0
H2769 H 0.76239 0.90928 0.33879 0.0
H2770 H 0.78295 0.88514 0.30674 0.0
H2771 H 0.70485 0.85733 0.28565 0.0
H2772 H 0.68385 0.88079 0.31789 0.0
H2773 H 0.64635 1.0179 0.31833 0.0
H2774 H 0.6788 0.98301 0.32766 0.0
H2775 H 0.62853 0.95734 0.38308 0.0
H2776 H 0.59623 0.99314 0.37424 0.0
H2777 H 0.68164 0.93222 0.3284 0.0
H2778 H 0.66733 0.93188 0.426 0.0
H2779 H 0.65431 0.96356 0.45626 0.0
H2780 H 0.67728 0.03089 0.41477 0.0
H2781 H 0.691 0.9996 0.38449 0.0
C2782 C 0.7596 0.84176 0.37671 0.0
C2783 C 0.78047 0.84942 0.39145 0.0
C2784 C 0.73911 0.86017 0.37095 0.0
C2785 C 0.73941 0.88706 0.37917 0.0
C2786 C 0.76036 0.89451 0.3939 0.0
C2787 C 0.78032 0.87602 0.40006 0.0
C2788 C 0.71814 0.90748 0.37272 0.0
C2789 C 0.70731 0.92458 0.38947 0.0
C2790 C 0.70901 0.91097 0.35024 0.0
C2791 C 0.72157 0.89652 0.33097 0.0
C2792 C 0.74961 0.89776 0.32748 0.0
C2793 C 0.76135 0.88421 0.30927 0.0
C2794 C 0.74523 0.86962 0.29423 0.0
C2795 C 0.71733 0.86857 0.29736 0.0
C2796 C 0.7055 0.88196 0.31563 0.0
C2797 C 0.64203 1.00487 0.33253 0.0
C2798 C 0.61855 1.00864 0.3456 0.0
C2799 C 0.6607 0.98467 0.3378 0.0
C2800 C 0.65658 0.9674 0.35627 0.0
C2801 C 0.6327 0.97057 0.36898 0.0
C2802 C 0.61407 0.99104 0.36385 0.0
C2803 C 0.67766 0.94682 0.36244 0.0
C2804 C 0.68861 0.93 0.34558 0.0
C2805 C 0.68784 0.94439 0.38463 0.0
C2806 C 0.67987 0.96337 0.40287 0.0
C2807 C 0.66967 0.95344 0.42336 0.0
C2808 C 0.6622 0.97133 0.44053 0.0
C2809 C 0.66489 0.99922 0.43742 0.0
C2810 C 0.67519 1.00929 0.41717 0.0
C2811 C 0.68283 0.99147 0.4 0.0
H2812 H 0.65904 1.01304 0.4507 0.0
H2813 H 0.75434 0.85925 0.28008 0.0
H2814 H 0.95833 0.99557 0.1678 0.0
H2815 H 0.92696 0.95932 0.15782 0.0
H2816 H 0.94946 0.96724 0.08799 0.0
H2817 H 0.98135 1.00372 0.09798 0.0
H2818 H 0.8934 0.96519 0.09439 0.0
H2819 H 0.96947 0.91298 0.1159 0.0
H2820 H 1.0071 0.9001 0.14056 0.0
H2821 H 0.95114 0.87994 0.19329 0.0
H2822 H 0.91316 0.89307 0.16902 0.0
H2823 H 0.817 0.85298 0.05802 0.0
H2824 H 0.85476 0.88309 0.06623 0.0
H2825 H 0.84327 0.86963 0.13734 0.0
H2826 H 0.80575 0.83836 0.12902 0.0
H2827 H 0.89528 0.87419 0.12932 0.0
H2828 H 0.81936 0.92846 0.10815 0.0
H2829 H 0.782 0.94304 0.08383 0.0
H2830 H 0.83802 0.96058 0.03052 0.0
H2831 H 0.8757 0.94584 0.05445 0.0
C2832 C 0.95695 0.98947 0.1503 0.0
C2833 C 0.97259 1.00261 0.13371 0.0
C2834 C 0.93892 0.9686 0.14462 0.0
C2835 C 0.93575 0.96029 0.12213 0.0
C2836 C 0.95149 0.97318 0.10547 0.0
C2837 C 0.96991 0.99391 0.11122 0.0
C2838 C 0.91541 0.93875 0.11622 0.0
C2839 C 0.89411 0.94513 0.10171 0.0
C2840 C 0.91575 0.91272 0.12619 0.0
C2841 C 0.93846 0.90421 0.14069 0.0
C2842 C 0.96519 0.90594 0.1328 0.0
C2843 C 0.98659 0.89858 0.1467 0.0
C2844 C 0.98152 0.88927 0.1685 0.0
C2845 C 0.95503 0.88718 0.1764 0.0
C2846 C 0.93355 0.89454 0.16256 0.0
C2847 C 0.82265 0.85608 0.07545 0.0
C2848 C 0.80812 0.8432 0.09285 0.0
C2849 C 0.84423 0.87363 0.08016 0.0
C2850 C 0.85165 0.87955 0.10249 0.0
C2851 C 0.83799 0.86575 0.11994 0.0
C2852 C 0.81653 0.84773 0.11518 0.0
C2853 C 0.87308 0.90056 0.10743 0.0
C2854 C 0.89458 0.89415 0.12185 0.0
C2855 C 0.87292 0.92665 0.09737 0.0
C2856 C 0.85032 0.93577 0.08302 0.0
C2857 C 0.82369 0.93528 0.0912 0.0
C2858 C 0.80247 0.9436 0.07749 0.0
C2859 C 0.80763 0.95265 0.05562 0.0
C2860 C 0.83405 0.95351 0.04745 0.0
C2861 C 0.85535 0.9452 0.06108 0.0
H2862 H 0.79117 0.95905 0.04502 0.0
H2863 H 0.99812 0.88363 0.17925 0.0
H2864 H 0.61004 0.45977 0.64277 0.0
H2865 H 0.64652 0.44472 0.61797 0.0
H2866 H 0.69349 0.51511 0.6363 0.0
H2867 H 0.65668 0.5304 0.66087 0.0
H2868 H 0.68007 0.46505 0.58265 0.0
H2869 H 0.75835 0.48347 0.65227 0.0
H2870 H 0.76 0.49517 0.69267 0.0
H2871 H 0.68276 0.45754 0.70284 0.0
H2872 H 0.68121 0.44449 0.66282 0.0
H2873 H 0.79424 0.40046 0.54233 0.0
H2874 H 0.77321 0.43813 0.56251 0.0
H2875 H 0.74679 0.38312 0.61448 0.0
H2876 H 0.76848 0.34564 0.5946 0.0
H2877 H 0.7549 0.43392 0.63128 0.0
H2878 H 0.70961 0.39183 0.56614 0.0
H2879 H 0.70676 0.37946 0.52588 0.0
H2880 H 0.71561 0.46296 0.50752 0.0
H2881 H 0.71869 0.47579 0.54764 0.0
C2882 C 0.62765 0.47258 0.64061 0.0
C2883 C 0.63075 0.49618 0.65346 0.0
C2884 C 0.64844 0.46403 0.62652 0.0
C2885 C 0.67273 0.47869 0.6256 0.0
C2886 C 0.67487 0.50358 0.63688 0.0
C2887 C 0.65389 0.51232 0.65077 0.0
C2888 C 0.69676 0.4655 0.61603 0.0
C2889 C 0.69671 0.45868 0.59315 0.0
C2890 C 0.71828 0.45704 0.62992 0.0
C2891 C 0.7194 0.46358 0.65435 0.0
C2892 C 0.74178 0.47755 0.66315 0.0
C2893 C 0.74275 0.48432 0.68602 0.0
C2894 C 0.72141 0.47725 0.70028 0.0
C2895 C 0.69919 0.46316 0.69175 0.0
C2896 C 0.69831 0.45598 0.66897 0.0
C2897 C 0.78501 0.39677 0.5586 0.0
C2898 C 0.7827 0.37032 0.56695 0.0
C2899 C 0.77289 0.41819 0.57002 0.0
C2900 C 0.75784 0.41322 0.58962 0.0
C2901 C 0.75821 0.38733 0.5993 0.0
C2902 C 0.77063 0.36595 0.58801 0.0
C2903 C 0.73811 0.43327 0.59788 0.0
C2904 C 0.7388 0.44113 0.62058 0.0
C2905 C 0.717 0.44254 0.58389 0.0
C2906 C 0.71474 0.43472 0.55984 0.0
C2907 C 0.71107 0.40752 0.5535 0.0
C2908 C 0.7094 0.40044 0.53071 0.0
C2909 C 0.71123 0.42041 0.51417 0.0
C2910 C 0.71436 0.44752 0.52036 0.0
C2911 C 0.71604 0.4547 0.5431 0.0
H2912 H 0.71025 0.41495 0.49654 0.0
H2913 H 0.72213 0.4826 0.71796 0.0
H2914 H 0.80664 0.39231 0.94526 0.0
H2915 H 0.8236 0.4288 0.92154 0.0
H2916 H 0.82082 0.37568 0.86372 0.0
H2917 H 0.80511 0.33861 0.88784 0.0
H2918 H 0.86861 0.39565 0.86786 0.0
H2919 H 0.78149 0.43408 0.86744 0.0
H2920 H 0.73831 0.45017 0.88291 0.0
H2921 H 0.78014 0.51014 0.92215 0.0
H2922 H 0.82363 0.49415 0.90718 0.0
H2923 H 0.90577 0.5148 0.79981 0.0
H2924 H 0.86887 0.49429 0.82141 0.0
H2925 H 0.92422 0.476 0.87501 0.0
H2926 H 0.96114 0.49667 0.85348 0.0
H2927 H 0.84517 0.49312 0.86754 0.0
H2928 H 0.92191 0.40761 0.8771 0.0
H2929 H 0.96388 0.39211 0.85888 0.0
H2930 H 0.9379 0.42521 0.79586 0.0
H2931 H 0.89562 0.44043 0.81362 0.0
C2932 C 0.80927 0.3886 0.92741 0.0
C2933 C 0.80524 0.36258 0.91842 0.0
C2934 C 0.81859 0.40956 0.91379 0.0
C2935 C 0.82352 0.40501 0.89082 0.0
C2936 C 0.81724 0.3796 0.88143 0.0
C2937 C 0.80812 0.35849 0.89515 0.0
C2938 C 0.83901 0.42528 0.87769 0.0
C2939 C 0.86316 0.41686 0.86761 0.0
C2940 C 0.832 0.45302 0.87721 0.0
C2941 C 0.80587 0.46279 0.88626 0.0
C2942 C 0.78152 0.45057 0.87949 0.0
C2943 C 0.75697 0.4597 0.88816 0.0
C2944 C 0.75649 0.48114 0.90353 0.0
C2945 C 0.78055 0.49353 0.91024 0.0
C2946 C 0.80516 0.48447 0.90163 0.0
C2947 C 0.90972 0.50746 0.81664 0.0
C2948 C 0.93617 0.50693 0.825 0.0
C2949 C 0.88866 0.49589 0.82897 0.0
C2950 C 0.89401 0.48339 0.84959 0.0
C2951 C 0.91983 0.48559 0.85907 0.0
C2952 C 0.94086 0.49738 0.84682 0.0
C2953 C 0.87472 0.46332 0.85857 0.0
C2954 C 0.85013 0.47179 0.86773 0.0
C2955 C 0.88087 0.43547 0.85777 0.0
C2956 C 0.90576 0.42539 0.84675 0.0
C2957 C 0.9251 0.41141 0.85933 0.0
C2958 C 0.94894 0.40269 0.84909 0.0
C2959 C 0.9536 0.40776 0.82625 0.0
C2960 C 0.93433 0.42138 0.81357 0.0
C2961 C 0.91043 0.43006 0.82371 0.0
H2962 H 0.9721 0.40109 0.81837 0.0
H2963 H 0.73746 0.48817 0.91022 0.0
H2964 H 0.96473 0.59419 0.15801 0.0
H2965 H 0.92517 0.61089 0.13821 0.0
H2966 H 0.89042 0.53073 0.1385 0.0
H2967 H 0.9301 0.51386 0.15883 0.0
H2968 H 0.88669 0.56923 0.09539 0.0
H2969 H 0.86478 0.56076 0.1745 0.0
H2970 H 0.87542 0.56535 0.21488 0.0
H2971 H 0.88583 0.65104 0.20691 0.0
H2972 H 0.87558 0.64693 0.16644 0.0
H2973 H 0.78026 0.64781 0.05602 0.0
H2974 H 0.79869 0.61152 0.07935 0.0
H2975 H 0.84362 0.67087 0.11765 0.0
H2976 H 0.82417 0.70696 0.09506 0.0
H2977 H 0.8327 0.63073 0.14367 0.0
H2978 H 0.86755 0.6403 0.06739 0.0
H2979 H 0.86614 0.63946 0.02589 0.0
H2980 H 0.83915 0.55677 0.02716 0.0
H2981 H 0.84006 0.55728 0.06872 0.0
C2982 C 0.94898 0.58 0.15331 0.0
C2983 C 0.95022 0.55285 0.16003 0.0
C2984 C 0.92642 0.58954 0.14213 0.0
C2985 C 0.90485 0.57207 0.13738 0.0
C2986 C 0.90694 0.54443 0.14224 0.0
C2987 C 0.92959 0.53483 0.15363 0.0
C2988 C 0.87961 0.58373 0.129 0.0
C2989 C 0.87419 0.58199 0.10597 0.0
C2990 C 0.86402 0.60085 0.1429 0.0
C2991 C 0.86947 0.6035 0.1674 0.0
C2992 C 0.86945 0.58057 0.18134 0.0
C2993 C 0.87539 0.58309 0.20426 0.0
C2994 C 0.88125 0.60848 0.21348 0.0
C2995 C 0.88117 0.6314 0.19979 0.0
C2996 C 0.87525 0.62899 0.17686 0.0
C2997 C 0.79311 0.65299 0.07013 0.0
C2998 C 0.80084 0.67994 0.07399 0.0
C2999 C 0.80383 0.63232 0.08327 0.0
C3000 C 0.82309 0.63841 0.09985 0.0
C3001 C 0.82884 0.66563 0.10494 0.0
C3002 C 0.81774 0.68627 0.0921 0.0
C3003 C 0.84013 0.61701 0.10973 0.0
C3004 C 0.84421 0.61705 0.13311 0.0
C3005 C 0.85504 0.59886 0.09603 0.0
C3006 C 0.8535 0.59894 0.07112 0.0
C3007 C 0.86101 0.62205 0.05881 0.0
C3008 C 0.86036 0.62161 0.03528 0.0
C3009 C 0.85255 0.59806 0.0239 0.0
C3010 C 0.84516 0.57499 0.03601 0.0
C3011 C 0.8457 0.57536 0.05954 0.0
H3012 H 0.8524 0.59755 0.0057 0.0
H3013 H 0.88581 0.61039 0.23122 0.0
H3014 H 0.62837 0.54319 0.34453 0.0
H3015 H 0.66683 0.56384 0.36388 0.0
H3016 H 0.71827 0.54418 0.30759 0.0
H3017 H 0.67988 0.52335 0.28823 0.0
H3018 H 0.74561 0.54742 0.35163 0.0
H3019 H 0.6915 0.59802 0.30055 0.0
H3020 H 0.64839 0.61236 0.28401 0.0
H3021 H 0.62438 0.64649 0.34749 0.0
H3022 H 0.66717 0.63188 0.36453 0.0
H3023 H 0.77846 0.70222 0.3803 0.0
H3024 H 0.76496 0.66704 0.35339 0.0
H3025 H 0.76531 0.60798 0.4068 0.0
H3026 H 0.78007 0.64254 0.43325 0.0
H3027 H 0.71912 0.64402 0.35498 0.0
H3028 H 0.76979 0.54502 0.3891 0.0
H3029 H 0.81469 0.53061 0.40181 0.0
H3030 H 0.85151 0.59558 0.36481 0.0
H3031 H 0.80692 0.61016 0.35158 0.0
C3032 C 0.64815 0.54206 0.33682 0.0
C3033 C 0.65123 0.5322 0.31483 0.0
C3034 C 0.67006 0.55389 0.34783 0.0
C3035 C 0.69514 0.5559 0.33689 0.0
C3036 C 0.69905 0.54281 0.31622 0.0
C3037 C 0.67712 0.53107 0.30517 0.0
C3038 C 0.71476 0.57645 0.34449 0.0
C3039 C 0.74004 0.56857 0.35244 0.0
C3040 C 0.70789 0.60414 0.34415 0.0
C3041 C 0.68244 0.61367 0.33386 0.0
C3042 C 0.67695 0.60843 0.31102 0.0
C3043 C 0.65258 0.61661 0.30155 0.0
C3044 C 0.63364 0.63027 0.31471 0.0
C3045 C 0.63907 0.63588 0.33733 0.0
C3046 C 0.66339 0.62767 0.3469 0.0
C3047 C 0.7765 0.68154 0.38607 0.0
C3048 C 0.77971 0.67518 0.40893 0.0
C3049 C 0.76871 0.66149 0.37072 0.0
C3050 C 0.76407 0.63485 0.37805 0.0
C3051 C 0.76913 0.62822 0.40058 0.0
C3052 C 0.77712 0.64812 0.41581 0.0
C3053 C 0.74982 0.61506 0.36349 0.0
C3054 C 0.72528 0.62304 0.35399 0.0
C3055 C 0.75794 0.58769 0.36174 0.0
C3056 C 0.78491 0.57877 0.36943 0.0
C3057 C 0.78746 0.55613 0.38353 0.0
C3058 C 0.81287 0.54796 0.39086 0.0
C3059 C 0.83593 0.56219 0.38415 0.0
C3060 C 0.83363 0.58461 0.37005 0.0
C3061 C 0.80828 0.59287 0.36266 0.0
H3062 H 0.85558 0.55584 0.38986 0.0
H3063 H 0.61477 0.63657 0.30735 0.0
H3064 H 0.31613 0.71217 0.35323 0.0
H3065 H 0.3536 0.68123 0.34494 0.0
H3066 H 0.3525 0.6539 0.41378 0.0
H3067 H 0.31527 0.68439 0.42206 0.0
H3068 H 0.40418 0.6596 0.39885 0.0
H3069 H 0.32262 0.61722 0.37276 0.0
H3070 H 0.28064 0.61434 0.35074 0.0
H3071 H 0.32597 0.62157 0.28932 0.0
H3072 H 0.3682 0.625 0.31101 0.0
H3073 H 0.47868 0.53586 0.38583 0.0
H3074 H 0.44632 0.57176 0.39474 0.0
H3075 H 0.43833 0.58917 0.32396 0.0
H3076 H 0.46959 0.55287 0.31507 0.0
H3077 H 0.3914 0.58958 0.33986 0.0
H3078 H 0.47318 0.632 0.36553 0.0
H3079 H 0.51514 0.63619 0.38744 0.0
H3080 H 0.47004 0.62987 0.44905 0.0
H3081 H 0.42783 0.62531 0.42748 0.0
C3082 C 0.32414 0.69985 0.36666 0.0
C3083 C 0.31248 0.7008 0.38829 0.0
C3084 C 0.34549 0.68198 0.36188 0.0
C3085 C 0.35589 0.66481 0.37865 0.0
C3086 C 0.34501 0.66672 0.40046 0.0
C3087 C 0.32354 0.68422 0.40515 0.0
C3088 C 0.37726 0.64411 0.37351 0.0
C3089 C 0.40129 0.64417 0.38604 0.0
C3090 C 0.37391 0.62405 0.35661 0.0
C3091 C 0.34856 0.62168 0.34353 0.0
C3092 C 0.32363 0.61842 0.35456 0.0
C3093 C 0.29978 0.61666 0.34215 0.0
C3094 C 0.30063 0.61785 0.31865 0.0
C3095 C 0.32534 0.62071 0.30753 0.0
C3096 C 0.34924 0.62257 0.31987 0.0
C3097 C 0.47041 0.54769 0.37222 0.0
C3098 C 0.47701 0.54141 0.34973 0.0
C3099 C 0.45179 0.56834 0.37731 0.0
C3100 C 0.43967 0.58371 0.36009 0.0
C3101 C 0.44696 0.57781 0.3377 0.0
C3102 C 0.46514 0.55701 0.33262 0.0
C3103 C 0.41873 0.60512 0.36501 0.0
C3104 C 0.39458 0.60511 0.35253 0.0
C3105 C 0.42205 0.6253 0.38189 0.0
C3106 C 0.44739 0.62804 0.39488 0.0
C3107 C 0.47224 0.63131 0.38374 0.0
C3108 C 0.49606 0.63378 0.3961 0.0
C3109 C 0.49527 0.63322 0.41962 0.0
C3110 C 0.47063 0.63026 0.43083 0.0
C3111 C 0.44675 0.62775 0.41855 0.0
H3112 H 0.51373 0.63514 0.42916 0.0
H3113 H 0.28215 0.61649 0.30907 0.0
H3114 H 0.11929 0.52234 0.1036 0.0
H3115 H 0.15288 0.55815 0.09627 0.0
H3116 H 0.13167 0.59686 0.15891 0.0
H3117 H 0.09914 0.56044 0.16677 0.0
H3118 H 0.14077 0.63426 0.12119 0.0
H3119 H 0.1797 0.56123 0.15992 0.0
H3120 H 0.19347 0.51483 0.16854 0.0
H3121 H 0.24387 0.51368 0.10979 0.0
H3122 H 0.22929 0.55981 0.09999 0.0
H3123 H 0.26005 0.71883 0.12872 0.0
H3124 H 0.22319 0.68715 0.138 0.0
H3125 H 0.24764 0.63521 0.08333 0.0
H3126 H 0.28397 0.6664 0.07398 0.0
H3127 H 0.23629 0.60544 0.11962 0.0
H3128 H 0.1921 0.67785 0.07946 0.0
H3129 H 0.18056 0.72578 0.07363 0.0
H3130 H 0.14289 0.72858 0.13877 0.0
H3131 H 0.15452 0.68073 0.14511 0.0
C3132 C 0.12133 0.53885 0.11552 0.0
C3133 C 0.10628 0.53872 0.13563 0.0
C3134 C 0.14068 0.55924 0.1114 0.0
C3135 C 0.14495 0.58032 0.12705 0.0
C3136 C 0.1288 0.58099 0.14653 0.0
C3137 C 0.11012 0.56016 0.15098 0.0
C3138 C 0.16756 0.60037 0.12399 0.0
C3139 C 0.16165 0.62793 0.121 0.0
C3140 C 0.19496 0.5923 0.12382 0.0
C3141 C 0.20296 0.56403 0.129 0.0
C3142 C 0.1932 0.55099 0.14846 0.0
C3143 C 0.20117 0.52468 0.15357 0.0
C3144 C 0.21929 0.5112 0.13952 0.0
C3145 C 0.22948 0.52405 0.12038 0.0
C3146 C 0.22131 0.55028 0.11502 0.0
C3147 C 0.25752 0.70071 0.11865 0.0
C3148 C 0.2751 0.69546 0.1005 0.0
C3149 C 0.23634 0.68256 0.12393 0.0
C3150 C 0.23226 0.65868 0.11125 0.0
C3151 C 0.25008 0.65335 0.0934 0.0
C3152 C 0.27095 0.67145 0.08802 0.0
C3153 C 0.20951 0.6392 0.11614 0.0
C3154 C 0.21539 0.61171 0.11962 0.0
C3155 C 0.18215 0.64732 0.11693 0.0
C3156 C 0.17436 0.67578 0.11283 0.0
C3157 C 0.18142 0.68871 0.09257 0.0
C3158 C 0.17488 0.71586 0.08917 0.0
C3159 C 0.16105 0.73022 0.10584 0.0
C3160 C 0.15362 0.71743 0.12589 0.0
C3161 C 0.16015 0.69029 0.12938 0.0
H3162 H 0.15605 0.75124 0.10321 0.0
H3163 H 0.22559 0.49088 0.14357 0.0
H3164 H 0.25473 0.31922 0.86473 0.0
H3165 H 0.21702 0.3495 0.85593 0.0
H3166 H 0.24855 0.40854 0.90272 0.0
H3167 H 0.28496 0.3783 0.91216 0.0
H3168 H 0.19953 0.41051 0.9079 0.0
H3169 H 0.25383 0.41112 0.84156 0.0
H3170 H 0.2777 0.39309 0.80833 0.0
H3171 H 0.20286 0.36369 0.7813 0.0
H3172 H 0.17858 0.38113 0.81459 0.0
H3173 H 0.14 0.51709 0.82379 0.0
H3174 H 0.17107 0.48122 0.83294 0.0
H3175 H 0.11558 0.45114 0.88315 0.0
H3176 H 0.08455 0.48835 0.87465 0.0
H3177 H 0.17385 0.4319 0.82947 0.0
H3178 H 0.14854 0.41549 0.92389 0.0
H3179 H 0.13213 0.44146 0.95669 0.0
H3180 H 0.16123 0.5151 0.92685 0.0
H3181 H 0.17811 0.48953 0.89405 0.0
C3182 C 0.25352 0.33861 0.87318 0.0
C3183 C 0.27308 0.34604 0.88924 0.0
C3184 C 0.23194 0.35612 0.86804 0.0
C3185 C 0.22964 0.38179 0.87845 0.0
C3186 C 0.24927 0.389 0.89445 0.0
C3187 C 0.2704 0.3715 0.8998 0.0
C3188 C 0.20725 0.40142 0.87295 0.0
C3189 C 0.19393 0.41497 0.89068 0.0
C3190 C 0.19984 0.40809 0.85056 0.0
C3191 C 0.21444 0.39709 0.83074 0.0
C3192 C 0.24249 0.40054 0.82866 0.0
C3193 C 0.25609 0.39048 0.80979 0.0
C3194 C 0.24182 0.37718 0.79276 0.0
C3195 C 0.2139 0.37392 0.79455 0.0
C3196 C 0.20021 0.38387 0.81342 0.0
C3197 C 0.13416 0.50295 0.83685 0.0
C3198 C 0.10949 0.50594 0.84848 0.0
C3199 C 0.15213 0.48213 0.84203 0.0
C3200 C 0.1462 0.46313 0.85892 0.0
C3201 C 0.12126 0.46564 0.87034 0.0
C3202 C 0.1033 0.48692 0.86537 0.0
C3203 C 0.16644 0.44125 0.86441 0.0
C3204 C 0.17927 0.42721 0.84669 0.0
C3205 C 0.17437 0.43509 0.88676 0.0
C3206 C 0.16422 0.45063 0.90638 0.0
C3207 C 0.15144 0.43722 0.92435 0.0
C3208 C 0.14207 0.45187 0.94294 0.0
C3209 C 0.14553 0.47992 0.9438 0.0
C3210 C 0.15845 0.49338 0.92612 0.0
C3211 C 0.16789 0.47883 0.90751 0.0
H3212 H 0.13826 0.49122 0.95821 0.0
H3213 H 0.25237 0.36946 0.77814 0.0
H3214 H 0.33325 0.32919 0.61753 0.0
H3215 H 0.36884 0.36235 0.62611 0.0
H3216 H 0.32331 0.42419 0.59235 0.0
H3217 H 0.28914 0.39079 0.58241 0.0
H3218 H 0.3684 0.43639 0.58342 0.0
H3219 H 0.33189 0.41534 0.65513 0.0
H3220 H 0.31719 0.38732 0.68724 0.0
H3221 H 0.39817 0.35929 0.69609 0.0
H3222 H 0.4133 0.38692 0.66384 0.0
H3223 H 0.44582 0.52547 0.67275 0.0
H3224 H 0.41333 0.4904 0.66309 0.0
H3225 H 0.45549 0.47576 0.60067 0.0
H3226 H 0.4877 0.51199 0.60993 0.0
H3227 H 0.41211 0.44061 0.65815 0.0
H3228 H 0.41231 0.44956 0.56028 0.0
H3229 H 0.41965 0.48438 0.53119 0.0
H3230 H 0.40005 0.54656 0.57901 0.0
H3231 H 0.392 0.51218 0.60817 0.0
C3232 C 0.33088 0.34988 0.61198 0.0
C3233 C 0.30816 0.35716 0.59929 0.0
C3234 C 0.35124 0.36908 0.61706 0.0
C3235 C 0.34904 0.39644 0.61037 0.0
C3236 C 0.32615 0.40352 0.59777 0.0
C3237 C 0.30631 0.38425 0.59215 0.0
C3238 C 0.37036 0.41765 0.6161 0.0
C3239 C 0.37807 0.43686 0.59972 0.0
C3240 C 0.38266 0.41975 0.63765 0.0
C3241 C 0.37366 0.40294 0.65691 0.0
C3242 C 0.34652 0.40303 0.66382 0.0
C3243 C 0.33812 0.38725 0.68205 0.0
C3244 C 0.35672 0.37147 0.69365 0.0
C3245 C 0.38378 0.37148 0.68706 0.0
C3246 C 0.39228 0.3872 0.66881 0.0
C3247 C 0.44836 0.51494 0.65689 0.0
C3248 C 0.46965 0.52193 0.64215 0.0
C3249 C 0.42961 0.49456 0.65139 0.0
C3250 C 0.43141 0.48013 0.63099 0.0
C3251 C 0.45299 0.4867 0.61634 0.0
C3252 C 0.47162 0.50746 0.62171 0.0
C3253 C 0.41053 0.45866 0.62522 0.0
C3254 C 0.4028 0.43959 0.64167 0.0
C3255 C 0.39735 0.45742 0.60404 0.0
C3256 C 0.40195 0.47827 0.5865 0.0
C3257 C 0.40951 0.47067 0.56456 0.0
C3258 C 0.41377 0.49035 0.54804 0.0
C3259 C 0.41046 0.51771 0.55326 0.0
C3260 C 0.40279 0.52542 0.57498 0.0
C3261 C 0.39832 0.50583 0.59151 0.0
H3262 H 0.41377 0.53293 0.54047 0.0
H3263 H 0.35018 0.35928 0.70778 0.0
loop_
_geom_bond_atom_site_label_1
_geom_bond_atom_site_label_2
_geom_bond_distance
_geom_bond_site_symmetry_2
_ccdc_geom_bond_type
O0 Tb1 2.292 1_455 S
O0 C3 1.255 . S
Tb1 O0 2.292 1_655 S
Tb1 O17 2.326 . S
Tb1 O19 2.500 . S
Tb1 O20 2.473 . S
Tb1 O23 2.324 . S
Eu2 O6 2.292 . S
Eu2 C7 2.852 1_655 S
Eu2 O18 2.324 1_655 S
Eu2 O22 2.326 . S
Eu2 O24 2.500 1_645 S
Eu2 O25 2.473 1_655 S
C3 O0 1.255 . S
C3 O4 1.247 . S
O4 C3 1.247 . S
C5 O17 1.229 1_455 S
C5 O18 1.259 . S
O6 Eu2 2.292 . S
O6 C8 1.255 . S
C7 Eu2 2.852 1_455 S
C7 C11 1.503 1_545 S
C7 O24 1.273 1_545 S
C7 O25 1.257 . S
C8 O6 1.255 . S
C8 O9 1.247 . S
O9 C8 1.247 . S
C10 O22 1.242 1_565 S
C10 O23 1.258 1_565 S
C11 C7 1.503 1_565 S
C11 C12 1.379 . S
C11 C16 1.392 . S
C12 C11 1.379 . S
C12 C13 1.404 . S
C12 H26 0.929 1_565 S
C13 C12 1.404 . S
C13 C14 1.389 . S
C14 C13 1.389 . S
C14 C15 1.399 . S
C14 H27 0.931 . S
C15 C14 1.399 . S
C15 C16 1.390 . S
C16 C11 1.392 . S
C16 C15 1.390 . S
C16 H28 0.929 . S
O17 Tb1 2.326 . S
O17 C5 1.229 1_655 S
O18 Eu2 2.324 1_455 S
O18 C5 1.259 . S
O19 Tb1 2.500 . S
O19 C21 1.273 . S
O20 Tb1 2.473 . S
O20 C21 1.257 . S
C21 O19 1.273 . S
C21 O20 1.257 . S
O22 Eu2 2.326 . S
O22 C10 1.242 1_545 S
O23 Tb1 2.324 . S
O23 C10 1.258 1_545 S
O24 Eu2 2.500 1_465 S
O24 C7 1.273 1_565 S
O25 Eu2 2.473 1_455 S
O25 C7 1.257 . S
H26 C12 0.929 1_545 S
H27 C14 0.931 . S
H28 C16 0.929 . S
O29 Tb30 2.292 . S
O29 C32 1.255 . S
Tb30 O29 2.292 . S
Tb30 O46 2.326 . S
Tb30 O48 2.500 . S
Tb30 O49 2.473 . S
Tb30 O52 2.324 . S
Eu31 O35 2.292 . S
Eu31 C36 2.852 . S
Eu31 O47 2.324 . S
Eu31 O51 2.326 . S
Eu31 O53 2.500 . S
Eu31 O54 2.473 . S
C32 O29 1.255 . S
C32 O33 1.247 . S
O33 C32 1.247 . S
C34 O46 1.242 . S
C34 O47 1.258 . S
O35 Eu31 2.292 . S
O35 C37 1.255 . S
C36 Eu31 2.852 . S
C36 C40 1.503 . S
C36 O53 1.273 . S
C36 O54 1.257 . S
C37 O35 1.255 . S
C37 O38 1.247 . S
O38 C37 1.247 . S
C39 O51 1.242 . S
C39 O52 1.258 . S
C40 C36 1.503 . S
C40 C41 1.379 . S
C40 C45 1.392 . S
C41 C40 1.379 . S
C41 C42 1.404 . S
C41 H55 0.929 . S
C42 C41 1.404 . S
C42 C43 1.389 . S
C43 C42 1.389 . S
C43 C44 1.399 . S
C43 H56 0.931 . S
C44 C43 1.399 . S
C44 C45 1.390 . S
C45 C40 1.392 . S
C45 C44 1.390 . S
C45 H57 0.929 . S
O46 Tb30 2.326 . S
O46 C34 1.242 . S
O47 Eu31 2.324 . S
O47 C34 1.258 . S
O48 Tb30 2.500 . S
O48 C50 1.273 . S
O49 Tb30 2.473 . S
O49 C50 1.257 . S
C50 O48 1.273 . S
C50 O49 1.257 . S
O51 Eu31 2.326 . S
O51 C39 1.242 . S
O52 Tb30 2.324 . S
O52 C39 1.258 . S
O53 Eu31 2.500 . S
O53 C36 1.273 . S
O54 Eu31 2.473 . S
O54 C36 1.257 . S
H55 C41 0.929 . S
H56 C43 0.931 . S
H57 C45 0.929 . S
O58 Tb59 2.292 . S
O58 C61 1.255 . S
Tb59 O58 2.292 . S
Tb59 O75 2.326 . S
Tb59 O77 2.500 . S
Tb59 O78 2.473 . S
Tb59 O81 2.324 . S
Eu60 O64 2.292 . S
Eu60 C65 2.852 . S
Eu60 O76 2.324 . S
Eu60 O80 2.326 . S
Eu60 O82 2.500 1_565 S
Eu60 O83 2.473 . S
C61 O58 1.255 . S
C61 O62 1.247 . S
O62 C61 1.247 . S
C63 O75 1.242 . S
C63 O76 1.258 . S
O64 Eu60 2.292 . S
O64 C66 1.255 . S
C65 Eu60 2.852 . S
C65 C69 1.503 1_565 S
C65 O82 1.273 1_565 S
C65 O83 1.257 . S
C66 O64 1.255 . S
C66 O67 1.247 . S
O67 C66 1.247 . S
C68 O80 1.242 1_545 S
C68 O81 1.258 1_545 S
C69 C65 1.503 1_545 S
C69 C70 1.379 . S
C69 C74 1.392 . S
C70 C69 1.379 . S
C70 C71 1.404 . S
C70 H84 0.929 1_545 S
C71 C70 1.404 . S
C71 C72 1.389 . S
C72 C71 1.389 . S
C72 C73 1.399 . S
C72 H85 0.931 . S
C73 C72 1.399 . S
C73 C74 1.390 . S
C74 C69 1.392 . S
C74 C73 1.390 . S
C74 H86 0.929 . S
O75 Tb59 2.326 . S
O75 C63 1.242 . S
O76 Eu60 2.324 . S
O76 C63 1.258 . S
O77 Tb59 2.500 . S
O77 C79 1.273 . S
O78 Tb59 2.473 . S
O78 C79 1.257 . S
C79 O77 1.273 . S
C79 O78 1.257 . S
O80 Eu60 2.326 . S
O80 C68 1.242 1_565 S
O81 Tb59 2.324 . S
O81 C68 1.258 1_565 S
O82 Eu60 2.500 1_545 S
O82 C65 1.273 1_545 S
O83 Eu60 2.473 . S
O83 C65 1.257 . S
H84 C70 0.929 1_565 S
H85 C72 0.931 . S
H86 C74 0.929 . S
O87 Tb88 2.292 . S
O87 C90 1.255 . S
Tb88 O87 2.292 . S
Tb88 O104 2.326 . S
Tb88 O106 2.500 . S
Tb88 O107 2.473 . S
Tb88 O110 2.324 . S
Eu89 O93 2.292 . S
Eu89 C94 2.852 . S
Eu89 O105 2.324 . S
Eu89 O109 2.326 . S
Eu89 O111 2.500 . S
Eu89 O112 2.473 . S
C90 O87 1.255 . S
C90 O91 1.247 . S
O91 C90 1.247 . S
C92 O104 1.242 . S
C92 O105 1.258 . S
O93 Eu89 2.292 . S
O93 C95 1.255 . S
C94 Eu89 2.852 . S
C94 C98 1.503 . S
C94 O111 1.273 . S
C94 O112 1.257 . S
C95 O93 1.255 . S
C95 O96 1.247 . S
O96 C95 1.247 . S
C97 O109 1.242 . S
C97 O110 1.258 . S
C98 C94 1.503 . S
C98 C99 1.379 . S
C98 C103 1.392 . S
C99 C98 1.379 . S
C99 C100 1.404 . S
C99 H113 0.929 . S
C100 C99 1.404 . S
C100 C101 1.389 . S
C101 C100 1.389 . S
C101 C102 1.399 . S
C101 H114 0.931 . S
C102 C101 1.399 . S
C102 C103 1.390 . S
C103 C98 1.392 . S
C103 C102 1.390 . S
C103 H115 0.929 . S
O104 Tb88 2.326 . S
O104 C92 1.242 . S
O105 Eu89 2.324 . S
O105 C92 1.258 . S
O106 Tb88 2.500 . S
O106 C108 1.273 . S
O107 Tb88 2.473 . S
O107 C108 1.257 . S
C108 O106 1.273 . S
C108 O107 1.257 . S
O109 Eu89 2.326 . S
O109 C97 1.242 . S
O110 Tb88 2.324 . S
O110 C97 1.258 . S
O111 Eu89 2.500 . S
O111 C94 1.273 . S
O112 Eu89 2.473 . S
O112 C94 1.257 . S
H113 C99 0.929 . S
H114 C101 0.931 . S
H115 C103 0.929 . S
O116 Tb117 2.292 1_455 S
O116 C119 1.255 . S
Tb117 O116 2.292 1_655 S
Tb117 O133 2.326 . S
Tb117 O135 2.500 . S
Tb117 O136 2.473 . S
Tb117 O139 2.324 . S
Eu118 O122 2.292 . S
Eu118 C123 2.852 1_655 S
Eu118 O134 2.324 1_655 S
Eu118 O138 2.326 . S
Eu118 O140 2.500 1_665 S
Eu118 O141 2.473 1_655 S
C119 O116 1.255 . S
C119 O120 1.247 . S
O120 C119 1.247 . S
C121 O133 1.229 1_455 S
C121 O134 1.259 . S
O122 Eu118 2.292 . S
O122 C124 1.255 . S
C123 Eu118 2.852 1_455 S
C123 C127 1.503 1_565 S
C123 O140 1.273 1_565 S
C123 O141 1.257 . S
C124 O122 1.255 . S
C124 O125 1.247 . S
O125 C124 1.247 . S
C126 O138 1.242 1_545 S
C126 O139 1.258 1_545 S
C127 C123 1.503 1_545 S
C127 C128 1.379 . S
C127 C132 1.392 . S
C128 C127 1.379 . S
C128 C129 1.404 . S
C128 H142 0.929 1_545 S
C129 C128 1.404 . S
C129 C130 1.389 . S
C130 C129 1.389 . S
C130 C131 1.399 . S
C130 H143 0.931 . S
C131 C130 1.399 . S
C131 C132 1.390 . S
C132 C127 1.392 . S
C132 C131 1.390 . S
C132 H144 0.929 . S
O133 Tb117 2.326 . S
O133 C121 1.229 1_655 S
O134 Eu118 2.324 1_455 S
O134 C121 1.259 . S
O135 Tb117 2.500 . S
O135 C137 1.273 . S
O136 Tb117 2.473 . S
O136 C137 1.257 . S
C137 O135 1.273 . S
C137 O136 1.257 . S
O138 Eu118 2.326 . S
O138 C126 1.242 1_565 S
O139 Tb117 2.324 . S
O139 C126 1.258 1_565 S
O140 Eu118 2.500 1_445 S
O140 C123 1.273 1_545 S
O141 Eu118 2.473 1_455 S
O141 C123 1.257 . S
H142 C128 0.929 1_565 S
H143 C130 0.931 . S
H144 C132 0.929 . S
O145 Tb146 2.292 . S
O145 C148 1.255 . S
Tb146 O145 2.292 . S
Tb146 O162 2.326 . S
Tb146 O164 2.500 . S
Tb146 O165 2.473 . S
Tb146 O168 2.324 . S
Eu147 O151 2.292 . S
Eu147 C152 2.852 . S
Eu147 O163 2.324 . S
Eu147 O167 2.326 . S
Eu147 O169 2.500 . S
Eu147 O170 2.473 . S
C148 O145 1.255 . S
C148 O149 1.247 . S
O149 C148 1.247 . S
C150 O162 1.242 . S
C150 O163 1.258 . S
O151 Eu147 2.292 . S
O151 C153 1.255 . S
C152 Eu147 2.852 . S
C152 C156 1.503 . S
C152 O169 1.273 . S
C152 O170 1.257 . S
C153 O151 1.255 . S
C153 O154 1.247 . S
O154 C153 1.247 . S
C155 O167 1.242 . S
C155 O168 1.258 . S
C156 C152 1.503 . S
C156 C157 1.379 . S
C156 C161 1.392 . S
C157 C156 1.379 . S
C157 C158 1.404 . S
C157 H171 0.929 . S
C158 C157 1.404 . S
C158 C159 1.389 . S
C159 C158 1.389 . S
C159 C160 1.399 . S
C159 H172 0.931 . S
C160 C159 1.399 . S
C160 C161 1.390 . S
C161 C156 1.392 . S
C161 C160 1.390 . S
C161 H173 0.929 . S
O162 Tb146 2.326 . S
O162 C150 1.242 . S
O163 Eu147 2.324 . S
O163 C150 1.258 . S
O164 Tb146 2.500 . S
O164 C166 1.273 . S
O165 Tb146 2.473 . S
O165 C166 1.257 . S
C166 O164 1.273 . S
C166 O165 1.257 . S
O167 Eu147 2.326 . S
O167 C155 1.242 . S
O168 Tb146 2.324 . S
O168 C155 1.258 . S
O169 Eu147 2.500 . S
O169 C152 1.273 . S
O170 Eu147 2.473 . S
O170 C152 1.257 . S
H171 C157 0.929 . S
H172 C159 0.931 . S
H173 C161 0.929 . S
O174 Tb175 2.292 . S
O174 C177 1.255 . S
Tb175 O174 2.292 . S
Tb175 O191 2.326 . S
Tb175 O193 2.500 . S
Tb175 O194 2.473 . S
Tb175 O197 2.324 . S
Eu176 O180 2.292 . S
Eu176 C181 2.852 . S
Eu176 O192 2.324 . S
Eu176 O196 2.326 . S
Eu176 O198 2.500 1_545 S
Eu176 O199 2.473 . S
C177 O174 1.255 . S
C177 O178 1.247 . S
O178 C177 1.247 . S
C179 O191 1.242 . S
C179 O192 1.258 . S
O180 Eu176 2.292 . S
O180 C182 1.255 . S
C181 Eu176 2.852 . S
C181 C185 1.503 1_545 S
C181 O198 1.273 1_545 S
C181 O199 1.257 . S
C182 O180 1.255 . S
C182 O183 1.247 . S
O183 C182 1.247 . S
C184 O196 1.242 1_565 S
C184 O197 1.258 1_565 S
C185 C181 1.503 1_565 S
C185 C186 1.379 . S
C185 C190 1.392 . S
C186 C185 1.379 . S
C186 C187 1.404 . S
C186 H200 0.929 1_565 S
C187 C186 1.404 . S
C187 C188 1.389 . S
C188 C187 1.389 . S
C188 C189 1.399 . S
C188 H201 0.931 . S
C189 C188 1.399 . S
C189 C190 1.390 . S
C190 C185 1.392 . S
C190 C189 1.390 . S
C190 H202 0.929 . S
O191 Tb175 2.326 . S
O191 C179 1.242 . S
O192 Eu176 2.324 . S
O192 C179 1.258 . S
O193 Tb175 2.500 . S
O193 C195 1.273 . S
O194 Tb175 2.473 . S
O194 C195 1.257 . S
C195 O193 1.273 . S
C195 O194 1.257 . S
O196 Eu176 2.326 . S
O196 C184 1.242 1_545 S
O197 Tb175 2.324 . S
O197 C184 1.258 1_545 S
O198 Eu176 2.500 1_565 S
O198 C181 1.273 1_565 S
O199 Eu176 2.473 . S
O199 C181 1.257 . S
H200 C186 0.929 1_545 S
H201 C188 0.931 . S
H202 C190 0.929 . S
O203 Tb204 2.292 . S
O203 C206 1.255 . S
Tb204 O203 2.292 . S
Tb204 O220 2.326 . S
Tb204 O222 2.500 . S
Tb204 O223 2.473 . S
Tb204 O226 2.324 . S
Eu205 O209 2.292 . S
Eu205 C210 2.852 . S
Eu205 O221 2.324 . S
Eu205 O225 2.326 . S
Eu205 O227 2.500 . S
Eu205 O228 2.473 . S
C206 O203 1.255 . S
C206 O207 1.247 . S
O207 C206 1.247 . S
C208 O220 1.242 . S
C208 O221 1.258 . S
O209 Eu205 2.292 . S
O209 C211 1.255 . S
C210 Eu205 2.852 . S
C210 C214 1.503 . S
C210 O227 1.273 . S
C210 O228 1.257 . S
C211 O209 1.255 . S
C211 O212 1.247 . S
O212 C211 1.247 . S
C213 O225 1.242 . S
C213 O226 1.258 . S
C214 C210 1.503 . S
C214 C215 1.379 . S
C214 C219 1.392 . S
C215 C214 1.379 . S
C215 C216 1.404 . S
C215 H229 0.929 . S
C216 C215 1.404 . S
C216 C217 1.389 . S
C217 C216 1.389 . S
C217 C218 1.399 . S
C217 H230 0.931 . S
C218 C217 1.399 . S
C218 C219 1.390 . S
C219 C214 1.392 . S
C219 C218 1.390 . S
C219 H231 0.929 . S
O220 Tb204 2.326 . S
O220 C208 1.242 . S
O221 Eu205 2.324 . S
O221 C208 1.258 . S
O222 Tb204 2.500 . S
O222 C224 1.273 . S
O223 Tb204 2.473 . S
O223 C224 1.257 . S
C224 O222 1.273 . S
C224 O223 1.257 . S
O225 Eu205 2.326 . S
O225 C213 1.242 . S
O226 Tb204 2.324 . S
O226 C213 1.258 . S
O227 Eu205 2.500 . S
O227 C210 1.273 . S
O228 Eu205 2.473 . S
O228 C210 1.257 . S
H229 C215 0.929 . S
H230 C217 0.931 . S
H231 C219 0.929 . S
O232 Tb233 2.292 . S
O232 C235 1.255 . S
Tb233 O232 2.292 . S
Tb233 O249 2.326 . S
Tb233 O251 2.500 . S
Tb233 O252 2.473 . S
Tb233 O255 2.324 . S
Eu234 O238 2.292 . S
Eu234 C239 2.852 . S
Eu234 O250 2.324 . S
Eu234 O254 2.326 . S
Eu234 O256 2.500 . S
Eu234 O257 2.473 . S
C235 O232 1.255 . S
C235 O236 1.247 . S
O236 C235 1.247 . S
C237 O249 1.242 . S
C237 O250 1.258 . S
O238 Eu234 2.292 . S
O238 C240 1.255 . S
C239 Eu234 2.852 . S
C239 C243 1.503 . S
C239 O256 1.273 . S
C239 O257 1.257 . S
C240 O238 1.255 . S
C240 O241 1.247 . S
O241 C240 1.247 . S
C242 O254 1.242 . S
C242 O255 1.258 . S
C243 C239 1.503 . S
C243 C244 1.379 . S
C243 C248 1.392 . S
C244 C243 1.379 . S
C244 C245 1.404 . S
C244 H258 0.929 . S
C245 C244 1.404 . S
C245 C246 1.389 . S
C246 C245 1.389 . S
C246 C247 1.399 . S
C246 H259 0.931 . S
C247 C246 1.399 . S
C247 C248 1.390 . S
C248 C243 1.392 . S
C248 C247 1.390 . S
C248 H260 0.929 . S
O249 Tb233 2.326 . S
O249 C237 1.242 . S
O250 Eu234 2.324 . S
O250 C237 1.258 . S
O251 Tb233 2.500 . S
O251 C253 1.273 . S
O252 Tb233 2.473 . S
O252 C253 1.257 . S
C253 O251 1.273 . S
C253 O252 1.257 . S
O254 Eu234 2.326 . S
O254 C242 1.242 . S
O255 Tb233 2.324 . S
O255 C242 1.258 . S
O256 Eu234 2.500 . S
O256 C239 1.273 . S
O257 Eu234 2.473 . S
O257 C239 1.257 . S
H258 C244 0.929 . S
H259 C246 0.931 . S
H260 C248 0.929 . S
O261 Tb262 2.292 . S
O261 C264 1.255 . S
Tb262 O261 2.292 . S
Tb262 O278 2.326 . S
Tb262 O280 2.500 . S
Tb262 O281 2.473 . S
Tb262 O284 2.324 . S
Eu263 O267 2.292 . S
Eu263 C268 2.852 . S
Eu263 O279 2.324 . S
Eu263 O283 2.326 . S
Eu263 O285 2.500 . S
Eu263 O286 2.473 . S
C264 O261 1.255 . S
C264 O265 1.247 . S
O265 C264 1.247 . S
C266 O278 1.242 . S
C266 O279 1.258 . S
O267 Eu263 2.292 . S
O267 C269 1.255 . S
C268 Eu263 2.852 . S
C268 C272 1.503 . S
C268 O285 1.273 . S
C268 O286 1.257 . S
C269 O267 1.255 . S
C269 O270 1.247 . S
O270 C269 1.247 . S
C271 O283 1.242 . S
C271 O284 1.258 . S
C272 C268 1.503 . S
C272 C273 1.379 . S
C272 C277 1.392 . S
C273 C272 1.379 . S
C273 C274 1.404 . S
C273 H287 0.929 . S
C274 C273 1.404 . S
C274 C275 1.389 . S
C275 C274 1.389 . S
C275 C276 1.399 . S
C275 H288 0.931 . S
C276 C275 1.399 . S
C276 C277 1.390 . S
C277 C272 1.392 . S
C277 C276 1.390 . S
C277 H289 0.929 . S
O278 Tb262 2.326 . S
O278 C266 1.242 . S
O279 Eu263 2.324 . S
O279 C266 1.258 . S
O280 Tb262 2.500 . S
O280 C282 1.273 . S
O281 Tb262 2.473 . S
O281 C282 1.257 . S
C282 O280 1.273 . S
C282 O281 1.257 . S
O283 Eu263 2.326 . S
O283 C271 1.242 . S
O284 Tb262 2.324 . S
O284 C271 1.258 . S
O285 Eu263 2.500 . S
O285 C268 1.273 . S
O286 Eu263 2.473 . S
O286 C268 1.257 . S
H287 C273 0.929 . S
H288 C275 0.931 . S
H289 C277 0.929 . S
O290 Tb291 2.292 . S
O290 C293 1.255 . S
Tb291 O290 2.292 . S
Tb291 O307 2.326 . S
Tb291 O309 2.500 . S
Tb291 O310 2.473 . S
Tb291 O313 2.324 . S
Eu292 O296 2.292 . S
Eu292 C297 2.852 . S
Eu292 O308 2.324 . S
Eu292 O312 2.326 . S
Eu292 O314 2.500 . S
Eu292 O315 2.473 . S
C293 O290 1.255 . S
C293 O294 1.247 . S
O294 C293 1.247 . S
C295 O307 1.242 . S
C295 O308 1.258 . S
O296 Eu292 2.292 . S
O296 C298 1.255 . S
C297 Eu292 2.852 . S
C297 C301 1.503 . S
C297 O314 1.273 . S
C297 O315 1.257 . S
C298 O296 1.255 . S
C298 O299 1.247 . S
O299 C298 1.247 . S
C300 O312 1.242 . S
C300 O313 1.258 . S
C301 C297 1.503 . S
C301 C302 1.379 . S
C301 C306 1.392 . S
C302 C301 1.379 . S
C302 C303 1.404 . S
C302 H316 0.929 . S
C303 C302 1.404 . S
C303 C304 1.389 . S
C304 C303 1.389 . S
C304 C305 1.399 . S
C304 H317 0.931 . S
C305 C304 1.399 . S
C305 C306 1.390 . S
C306 C301 1.392 . S
C306 C305 1.390 . S
C306 H318 0.929 . S
O307 Tb291 2.326 . S
O307 C295 1.242 . S
O308 Eu292 2.324 . S
O308 C295 1.258 . S
O309 Tb291 2.500 . S
O309 C311 1.273 . S
O310 Tb291 2.473 . S
O310 C311 1.257 . S
C311 O309 1.273 . S
C311 O310 1.257 . S
O312 Eu292 2.326 . S
O312 C300 1.242 . S
O313 Tb291 2.324 . S
O313 C300 1.258 . S
O314 Eu292 2.500 . S
O314 C297 1.273 . S
O315 Eu292 2.473 . S
O315 C297 1.257 . S
H316 C302 0.929 . S
H317 C304 0.931 . S
H318 C306 0.929 . S
O319 Tb320 2.292 . S
O319 C322 1.255 . S
Tb320 O319 2.292 . S
Tb320 O336 2.326 . S
Tb320 O338 2.500 . S
Tb320 O339 2.473 . S
Tb320 O342 2.324 . S
Eu321 O325 2.292 . S
Eu321 C326 2.852 . S
Eu321 O337 2.324 . S
Eu321 O341 2.326 . S
Eu321 O343 2.500 . S
Eu321 O344 2.473 . S
C322 O319 1.255 . S
C322 O323 1.247 . S
O323 C322 1.247 . S
C324 O336 1.242 . S
C324 O337 1.258 . S
O325 Eu321 2.292 . S
O325 C327 1.255 . S
C326 Eu321 2.852 . S
C326 C330 1.503 . S
C326 O343 1.273 . S
C326 O344 1.257 . S
C327 O325 1.255 . S
C327 O328 1.247 . S
O328 C327 1.247 . S
C329 O341 1.242 . S
C329 O342 1.258 . S
C330 C326 1.503 . S
C330 C331 1.379 . S
C330 C335 1.392 . S
C331 C330 1.379 . S
C331 C332 1.404 . S
C331 H345 0.929 . S
C332 C331 1.404 . S
C332 C333 1.389 . S
C333 C332 1.389 . S
C333 C334 1.399 . S
C333 H346 0.931 . S
C334 C333 1.399 . S
C334 C335 1.390 . S
C335 C330 1.392 . S
C335 C334 1.390 . S
C335 H347 0.929 . S
O336 Tb320 2.326 . S
O336 C324 1.242 . S
O337 Eu321 2.324 . S
O337 C324 1.258 . S
O338 Tb320 2.500 . S
O338 C340 1.273 . S
O339 Tb320 2.473 . S
O339 C340 1.257 . S
C340 O338 1.273 . S
C340 O339 1.257 . S
O341 Eu321 2.326 . S
O341 C329 1.242 . S
O342 Tb320 2.324 . S
O342 C329 1.258 . S
O343 Eu321 2.500 . S
O343 C326 1.273 . S
O344 Eu321 2.473 . S
O344 C326 1.257 . S
H345 C331 0.929 . S
H346 C333 0.931 . S
H347 C335 0.929 . S
O348 Tb349 2.292 . S
O348 C351 1.255 . S
Tb349 O348 2.292 . S
Tb349 O365 2.326 . S
Tb349 O367 2.500 . S
Tb349 O368 2.473 . S
Tb349 O371 2.324 . S
Eu350 O354 2.292 . S
Eu350 C355 2.852 . S
Eu350 O366 2.324 . S
Eu350 O370 2.326 . S
Eu350 O372 2.500 . S
Eu350 O373 2.473 . S
C351 O348 1.255 . S
C351 O352 1.247 . S
O352 C351 1.247 . S
C353 O365 1.242 . S
C353 O366 1.258 . S
O354 Eu350 2.292 . S
O354 C356 1.255 . S
C355 Eu350 2.852 . S
C355 C359 1.503 . S
C355 O372 1.273 . S
C355 O373 1.257 . S
C356 O354 1.255 . S
C356 O357 1.247 . S
O357 C356 1.247 . S
C358 O370 1.242 . S
C358 O371 1.258 . S
C359 C355 1.503 . S
C359 C360 1.379 . S
C359 C364 1.392 . S
C360 C359 1.379 . S
C360 C361 1.404 . S
C360 H374 0.929 . S
C361 C360 1.404 . S
C361 C362 1.389 . S
C362 C361 1.389 . S
C362 C363 1.399 . S
C362 H375 0.931 . S
C363 C362 1.399 . S
C363 C364 1.390 . S
C364 C359 1.392 . S
C364 C363 1.390 . S
C364 H376 0.929 . S
O365 Tb349 2.326 . S
O365 C353 1.242 . S
O366 Eu350 2.324 . S
O366 C353 1.258 . S
O367 Tb349 2.500 . S
O367 C369 1.273 . S
O368 Tb349 2.473 . S
O368 C369 1.257 . S
C369 O367 1.273 . S
C369 O368 1.257 . S
O370 Eu350 2.326 . S
O370 C358 1.242 . S
O371 Tb349 2.324 . S
O371 C358 1.258 . S
O372 Eu350 2.500 . S
O372 C355 1.273 . S
O373 Eu350 2.473 . S
O373 C355 1.257 . S
H374 C360 0.929 . S
H375 C362 0.931 . S
H376 C364 0.929 . S
O377 Tb378 2.292 . S
O377 C380 1.255 . S
Tb378 O377 2.292 . S
Tb378 O394 2.326 . S
Tb378 O396 2.500 . S
Tb378 O397 2.473 . S
Tb378 O400 2.324 . S
Eu379 O383 2.292 . S
Eu379 C384 2.852 . S
Eu379 O395 2.324 . S
Eu379 O399 2.326 . S
Eu379 O401 2.500 . S
Eu379 O402 2.473 . S
C380 O377 1.255 . S
C380 O381 1.247 1_455 S
O381 C380 1.247 1_655 S
C382 O394 1.242 . S
C382 O395 1.258 . S
O383 Eu379 2.292 . S
O383 C385 1.255 . S
C384 Eu379 2.852 . S
C384 C388 1.523 . S
C384 O401 1.273 . S
C384 O402 1.257 . S
C385 O383 1.255 . S
C385 O386 1.247 . S
O386 C385 1.247 . S
C387 O399 1.242 . S
C387 O400 1.258 . S
C388 C384 1.523 . S
C388 C389 1.359 1_455 S
C388 C393 1.392 . S
C389 C388 1.359 1_655 S
C389 C390 1.404 . S
C389 H403 0.929 . S
C390 C389 1.404 . S
C390 C391 1.389 . S
C391 C390 1.389 . S
C391 C392 1.399 . S
C391 H404 0.931 . S
C392 C391 1.399 . S
C392 C393 1.360 1_655 S
C393 C388 1.392 . S
C393 C392 1.360 1_455 S
C393 H405 0.960 . S
O394 Tb378 2.326 . S
O394 C382 1.242 . S
O395 Eu379 2.324 . S
O395 C382 1.258 . S
O396 Tb378 2.500 . S
O396 C398 1.273 . S
O397 Tb378 2.473 . S
O397 C398 1.257 . S
C398 O396 1.273 . S
C398 O397 1.257 . S
O399 Eu379 2.326 . S
O399 C387 1.242 . S
O400 Tb378 2.324 . S
O400 C387 1.258 . S
O401 Eu379 2.500 . S
O401 C384 1.273 . S
O402 Eu379 2.473 . S
O402 C384 1.257 . S
H403 C389 0.929 . S
H404 C391 0.931 . S
H405 C393 0.960 . S
O406 Tb407 2.292 . S
O406 C409 1.255 . S
Tb407 O406 2.292 . S
Tb407 O423 2.326 . S
Tb407 O425 2.500 . S
Tb407 O426 2.473 . S
Tb407 O429 2.324 . S
Eu408 O412 2.292 . S
Eu408 C413 2.852 . S
Eu408 O424 2.324 . S
Eu408 O428 2.326 . S
Eu408 O430 2.500 . S
Eu408 O431 2.473 . S
C409 O406 1.255 . S
C409 O410 1.247 . S
O410 C409 1.247 . S
C411 O423 1.242 . S
C411 O424 1.258 . S
O412 Eu408 2.292 . S
O412 C414 1.255 . S
C413 Eu408 2.852 . S
C413 C417 1.503 . S
C413 O430 1.273 . S
C413 O431 1.257 . S
C414 O412 1.255 . S
C414 O415 1.247 . S
O415 C414 1.247 . S
C416 O428 1.242 . S
C416 O429 1.258 . S
C417 C413 1.503 . S
C417 C418 1.379 . S
C417 C422 1.392 . S
C418 C417 1.379 . S
C418 C419 1.404 . S
C418 H432 0.929 . S
C419 C418 1.404 . S
C419 C420 1.389 . S
C420 C419 1.389 . S
C420 C421 1.399 . S
C420 H433 0.931 . S
C421 C420 1.399 . S
C421 C422 1.390 . S
C422 C417 1.392 . S
C422 C421 1.390 . S
C422 H434 0.929 . S
O423 Tb407 2.326 . S
O423 C411 1.242 . S
O424 Eu408 2.324 . S
O424 C411 1.258 . S
O425 Tb407 2.500 . S
O425 C427 1.273 . S
O426 Tb407 2.473 . S
O426 C427 1.257 . S
C427 O425 1.273 . S
C427 O426 1.257 . S
O428 Eu408 2.326 . S
O428 C416 1.242 . S
O429 Tb407 2.324 . S
O429 C416 1.258 . S
O430 Eu408 2.500 . S
O430 C413 1.273 . S
O431 Eu408 2.473 . S
O431 C413 1.257 . S
H432 C418 0.929 . S
H433 C420 0.931 . S
H434 C422 0.929 . S
O435 Tb436 2.292 . S
O435 C438 1.255 . S
Tb436 O435 2.292 . S
Tb436 O452 2.326 . S
Tb436 O454 2.500 . S
Tb436 O455 2.473 . S
Tb436 O458 2.324 . S
Eu437 O441 2.292 . S
Eu437 C442 2.852 . S
Eu437 O453 2.324 . S
Eu437 O457 2.326 . S
Eu437 O459 2.500 . S
Eu437 O460 2.473 . S
C438 O435 1.255 . S
C438 O439 1.247 1_455 S
O439 C438 1.247 1_655 S
C440 O452 1.242 . S
C440 O453 1.258 . S
O441 Eu437 2.292 . S
O441 C443 1.255 . S
C442 Eu437 2.852 . S
C442 C446 1.523 . S
C442 O459 1.273 . S
C442 O460 1.257 . S
C443 O441 1.255 . S
C443 O444 1.247 . S
O444 C443 1.247 . S
C445 O457 1.242 . S
C445 O458 1.258 . S
C446 C442 1.523 . S
C446 C447 1.359 1_455 S
C446 C451 1.392 . S
C447 C446 1.359 1_655 S
C447 C448 1.404 . S
C447 H461 0.929 . S
C448 C447 1.404 . S
C448 C449 1.389 . S
C449 C448 1.389 . S
C449 C450 1.399 . S
C449 H462 0.931 . S
C450 C449 1.399 . S
C450 C451 1.360 1_655 S
C451 C446 1.392 . S
C451 C450 1.360 1_455 S
C451 H463 0.960 . S
O452 Tb436 2.326 . S
O452 C440 1.242 . S
O453 Eu437 2.324 . S
O453 C440 1.258 . S
O454 Tb436 2.500 . S
O454 C456 1.273 . S
O455 Tb436 2.473 . S
O455 C456 1.257 . S
C456 O454 1.273 . S
C456 O455 1.257 . S
O457 Eu437 2.326 . S
O457 C445 1.242 . S
O458 Tb436 2.324 . S
O458 C445 1.258 . S
O459 Eu437 2.500 . S
O459 C442 1.273 . S
O460 Eu437 2.473 . S
O460 C442 1.257 . S
H461 C447 0.929 . S
H462 C449 0.931 . S
H463 C451 0.960 . S
H464 C482 0.951 . S
H465 C484 0.951 . S
H466 C486 0.950 . S
H467 C487 0.950 . S
H468 C489 0.950 . S
H469 C492 0.950 . S
H470 C493 0.950 . S
H471 C495 0.950 . S
H472 C496 0.950 . S
H473 C497 0.951 . S
H474 C499 0.951 . S
H475 C501 0.950 . S
H476 C502 0.950 . S
H477 C504 0.950 1_655 S
H478 C507 0.950 . S
H479 C508 0.950 . S
H480 C510 0.950 . S
H481 C511 0.950 . S
C482 H464 0.951 . S
C482 C483 1.366 . S
C482 C484 1.388 . S
C483 C482 1.366 . S
C483 C487 1.385 . S
C484 H465 0.951 . S
C484 C482 1.388 . S
C484 C485 1.366 . S
C485 C484 1.366 . S
C485 C486 1.414 . S
C485 C488 1.499 . S
C486 H466 0.950 . S
C486 C485 1.414 . S
C486 C487 1.374 . S
C487 H467 0.950 . S
C487 C483 1.385 . S
C487 C486 1.374 . S
C488 C485 1.499 . S
C488 C489 1.373 . S
C488 C490 1.389 . S
C489 H468 0.950 . S
C489 C488 1.373 . S
C489 C505 1.377 . S
C490 C488 1.389 . S
C490 C491 1.524 1_455 S
C490 C504 1.377 . S
C491 C490 1.524 1_655 S
C491 C492 1.397 . S
C491 C496 1.363 . S
C492 H469 0.950 . S
C492 C491 1.397 . S
C492 C493 1.334 . S
C493 H470 0.950 . S
C493 C492 1.334 . S
C493 C494 1.287 . S
C494 C493 1.287 . S
C494 C495 1.524 . S
C494 H513 0.913 . S
C495 H471 0.950 . S
C495 C494 1.524 . S
C495 C496 1.415 . S
C496 H472 0.950 . S
C496 C491 1.363 . S
C496 C495 1.415 . S
C497 H473 0.951 . S
C497 C498 1.366 . S
C497 C499 1.388 . S
C498 C497 1.366 . S
C498 C502 1.385 . S
C499 H474 0.951 . S
C499 C497 1.388 . S
C499 C500 1.366 . S
C500 C499 1.366 . S
C500 C501 1.414 . S
C500 C503 1.499 . S
C501 H475 0.950 . S
C501 C500 1.414 . S
C501 C502 1.374 . S
C502 H476 0.950 . S
C502 C498 1.385 . S
C502 C501 1.374 . S
C503 C500 1.499 . S
C503 C504 1.373 . S
C503 C505 1.389 . S
C504 H477 0.950 1_455 S
C504 C490 1.377 . S
C504 C503 1.373 . S
C505 C489 1.377 . S
C505 C503 1.389 . S
C505 C506 1.524 . S
C506 C505 1.524 . S
C506 C507 1.397 . S
C506 C511 1.363 . S
C507 H478 0.950 . S
C507 C506 1.397 . S
C507 C508 1.334 . S
C508 H479 0.950 . S
C508 C507 1.334 . S
C508 C509 1.287 . S
C509 C508 1.287 . S
C509 C510 1.524 . S
C509 H512 0.999 . S
C510 H480 0.950 . S
C510 C509 1.524 . S
C510 C511 1.415 . S
C511 H481 0.950 . S
C511 C506 1.363 . S
C511 C510 1.415 . S
H512 C509 0.999 . S
H513 C494 0.913 . S
H514 C532 0.951 . S
H515 C534 0.951 . S
H516 C536 0.950 . S
H517 C537 0.950 . S
H518 C539 0.950 1_655 S
H519 C542 0.950 . S
H520 C543 0.950 . S
H521 C545 0.949 . S
H522 C546 0.950 . S
H523 C547 0.951 . S
H524 C549 0.951 . S
H525 C551 0.950 . S
H526 C552 0.950 . S
H527 C554 0.950 . S
H528 C557 0.950 . S
H529 C558 0.950 . S
H530 C560 0.950 . S
H531 C561 0.950 . S
C532 H514 0.951 . S
C532 C533 1.366 . S
C532 C534 1.388 . S
C533 C532 1.366 . S
C533 C537 1.385 . S
C534 H515 0.951 . S
C534 C532 1.388 . S
C534 C535 1.366 . S
C535 C534 1.366 . S
C535 C536 1.414 . S
C535 C538 1.499 . S
C536 H516 0.950 . S
C536 C535 1.414 . S
C536 C537 1.374 . S
C537 H517 0.950 . S
C537 C533 1.385 . S
C537 C536 1.374 . S
C538 C535 1.499 . S
C538 C539 1.373 1_655 S
C538 C540 1.389 1_655 S
C539 H518 0.950 1_455 S
C539 C538 1.373 1_455 S
C539 C555 1.377 . S
C540 C538 1.389 1_455 S
C540 C541 1.524 . S
C540 C554 1.377 . S
C541 C540 1.524 . S
C541 C542 1.397 1_455 S
C541 C546 1.363 . S
C542 H519 0.950 . S
C542 C541 1.397 1_655 S
C542 C543 1.334 . S
C543 H520 0.950 . S
C543 C542 1.334 . S
C543 C544 1.287 . S
C544 C543 1.287 . S
C544 C545 1.524 1_655 S
C544 H563 0.913 . S
C545 H521 0.949 . S
C545 C544 1.524 1_455 S
C545 C546 1.415 . S
C546 H522 0.950 . S
C546 C541 1.363 . S
C546 C545 1.415 . S
C547 H523 0.951 . S
C547 C548 1.366 . S
C547 C549 1.388 . S
C548 C547 1.366 . S
C548 C552 1.385 . S
C549 H524 0.951 . S
C549 C547 1.388 . S
C549 C550 1.366 . S
C550 C549 1.366 . S
C550 C551 1.414 . S
C550 C553 1.499 . S
C551 H525 0.950 . S
C551 C550 1.414 . S
C551 C552 1.374 . S
C552 H526 0.950 . S
C552 C548 1.385 . S
C552 C551 1.374 . S
C553 C550 1.499 . S
C553 C554 1.373 . S
C553 C555 1.389 . S
C554 H527 0.950 . S
C554 C540 1.377 . S
C554 C553 1.373 . S
C555 C539 1.377 . S
C555 C553 1.389 . S
C555 C556 1.524 . S
C556 C555 1.524 . S
C556 C557 1.397 . S
C556 C561 1.363 . S
C557 H528 0.950 . S
C557 C556 1.397 . S
C557 C558 1.334 . S
C558 H529 0.950 . S
C558 C557 1.334 . S
C558 C559 1.287 . S
C559 C558 1.287 . S
C559 C560 1.524 . S
C559 H562 0.999 . S
C560 H530 0.950 . S
C560 C559 1.524 . S
C560 C561 1.415 . S
C561 H531 0.950 . S
C561 C556 1.363 . S
C561 C560 1.415 . S
H562 C559 0.999 . S
H563 C544 0.913 . S
H564 C582 0.951 . S
H565 C584 0.951 . S
H566 C586 0.950 . S
H567 C587 0.950 . S
H568 C589 0.950 . S
H569 C592 0.950 . S
H570 C593 0.950 . S
H571 C595 0.950 . S
H572 C596 0.950 . S
H573 C597 0.951 . S
H574 C599 0.951 . S
H575 C601 0.950 . S
H576 C602 0.950 . S
H577 C604 0.950 . S
H578 C607 0.950 . S
H579 C608 0.950 . S
H580 C610 0.950 . S
H581 C611 0.950 . S
C582 H564 0.951 . S
C582 C583 1.366 . S
C582 C584 1.388 . S
C583 C582 1.366 . S
C583 C587 1.385 . S
C584 H565 0.951 . S
C584 C582 1.388 . S
C584 C585 1.366 . S
C585 C584 1.366 . S
C585 C586 1.414 . S
C585 C588 1.499 . S
C586 H566 0.950 . S
C586 C585 1.414 . S
C586 C587 1.374 . S
C587 H567 0.950 . S
C587 C583 1.385 . S
C587 C586 1.374 . S
C588 C585 1.499 . S
C588 C589 1.373 . S
C588 C590 1.389 . S
C589 H568 0.950 . S
C589 C588 1.373 . S
C589 C605 1.377 . S
C590 C588 1.389 . S
C590 C591 1.524 . S
C590 C604 1.377 . S
C591 C590 1.524 . S
C591 C592 1.397 . S
C591 C596 1.363 . S
C592 H569 0.950 . S
C592 C591 1.397 . S
C592 C593 1.334 . S
C593 H570 0.950 . S
C593 C592 1.334 . S
C593 C594 1.287 . S
C594 C593 1.287 . S
C594 C595 1.524 . S
C594 H613 0.913 . S
C595 H571 0.950 . S
C595 C594 1.524 . S
C595 C596 1.415 . S
C596 H572 0.950 . S
C596 C591 1.363 . S
C596 C595 1.415 . S
C597 H573 0.951 . S
C597 C598 1.366 . S
C597 C599 1.388 . S
C598 C597 1.366 . S
C598 C602 1.385 . S
C599 H574 0.951 . S
C599 C597 1.388 . S
C599 C600 1.366 . S
C600 C599 1.366 . S
C600 C601 1.414 . S
C600 C603 1.499 . S
C601 H575 0.950 . S
C601 C600 1.414 . S
C601 C602 1.374 . S
C602 H576 0.950 . S
C602 C598 1.385 . S
C602 C601 1.374 . S
C603 C600 1.499 . S
C603 C604 1.373 . S
C603 C605 1.389 . S
C604 H577 0.950 . S
C604 C590 1.377 . S
C604 C603 1.373 . S
C605 C589 1.377 . S
C605 C603 1.389 . S
C605 C606 1.524 . S
C606 C605 1.524 . S
C606 C607 1.397 . S
C606 C611 1.363 . S
C607 H578 0.950 . S
C607 C606 1.397 . S
C607 C608 1.334 . S
C608 H579 0.950 . S
C608 C607 1.334 . S
C608 C609 1.287 . S
C609 C608 1.287 . S
C609 C610 1.524 . S
C609 H612 0.999 . S
C610 H580 0.950 . S
C610 C609 1.524 . S
C610 C611 1.415 . S
C611 H581 0.950 . S
C611 C606 1.363 . S
C611 C610 1.415 . S
H612 C609 0.999 . S
H613 C594 0.913 . S
H614 C632 0.951 . S
H615 C634 0.951 . S
H616 C636 0.950 . S
H617 C637 0.950 . S
H618 C639 0.950 . S
H619 C642 0.950 . S
H620 C643 0.950 . S
H621 C645 0.950 . S
H622 C646 0.950 . S
H623 C647 0.951 . S
H624 C649 0.951 . S
H625 C651 0.950 . S
H626 C652 0.950 . S
H627 C654 0.950 . S
H628 C657 0.950 . S
H629 C658 0.950 . S
H630 C660 0.950 . S
H631 C661 0.950 . S
C632 H614 0.951 . S
C632 C633 1.366 . S
C632 C634 1.388 . S
C633 C632 1.366 . S
C633 C637 1.385 . S
C634 H615 0.951 . S
C634 C632 1.388 . S
C634 C635 1.366 . S
C635 C634 1.366 . S
C635 C636 1.414 . S
C635 C638 1.499 . S
C636 H616 0.950 . S
C636 C635 1.414 . S
C636 C637 1.374 . S
C637 H617 0.950 . S
C637 C633 1.385 . S
C637 C636 1.374 . S
C638 C635 1.499 . S
C638 C639 1.373 . S
C638 C640 1.389 . S
C639 H618 0.950 . S
C639 C638 1.373 . S
C639 C655 1.377 . S
C640 C638 1.389 . S
C640 C641 1.524 . S
C640 C654 1.377 . S
C641 C640 1.524 . S
C641 C642 1.397 . S
C641 C646 1.363 . S
C642 H619 0.950 . S
C642 C641 1.397 . S
C642 C643 1.334 . S
C643 H620 0.950 . S
C643 C642 1.334 . S
C643 C644 1.287 . S
C644 C643 1.287 . S
C644 C645 1.524 . S
C644 H663 0.913 . S
C645 H621 0.950 . S
C645 C644 1.524 . S
C645 C646 1.415 . S
C646 H622 0.950 . S
C646 C641 1.363 . S
C646 C645 1.415 . S
C647 H623 0.951 . S
C647 C648 1.366 . S
C647 C649 1.388 . S
C648 C647 1.366 . S
C648 C652 1.385 . S
C649 H624 0.951 . S
C649 C647 1.388 . S
C649 C650 1.366 . S
C650 C649 1.366 . S
C650 C651 1.414 . S
C650 C653 1.499 . S
C651 H625 0.950 . S
C651 C650 1.414 . S
C651 C652 1.374 . S
C652 H626 0.950 . S
C652 C648 1.385 . S
C652 C651 1.374 . S
C653 C650 1.499 . S
C653 C654 1.373 . S
C653 C655 1.389 . S
C654 H627 0.950 . S
C654 C640 1.377 . S
C654 C653 1.373 . S
C655 C639 1.377 . S
C655 C653 1.389 . S
C655 C656 1.524 . S
C656 C655 1.524 . S
C656 C657 1.397 . S
C656 C661 1.363 . S
C657 H628 0.950 . S
C657 C656 1.397 . S
C657 C658 1.334 . S
C658 H629 0.950 . S
C658 C657 1.334 . S
C658 C659 1.287 . S
C659 C658 1.287 . S
C659 C660 1.524 . S
C659 H662 0.999 . S
C660 H630 0.950 . S
C660 C659 1.524 . S
C660 C661 1.415 . S
C661 H631 0.950 . S
C661 C656 1.363 . S
C661 C660 1.415 . S
H662 C659 0.999 . S
H663 C644 0.913 . S
H664 C682 0.951 . S
H665 C684 0.951 . S
H666 C686 0.950 . S
H667 C687 0.950 . S
H668 C689 0.950 . S
H669 C692 0.950 . S
H670 C693 0.950 . S
H671 C695 0.950 . S
H672 C696 0.950 . S
H673 C697 0.951 . S
H674 C699 0.951 . S
H675 C701 0.950 . S
H676 C702 0.950 . S
H677 C704 0.950 1_655 S
H678 C707 0.950 . S
H679 C708 0.950 . S
H680 C710 0.950 . S
H681 C711 0.950 . S
C682 H664 0.951 . S
C682 C683 1.366 . S
C682 C684 1.388 . S
C683 C682 1.366 . S
C683 C687 1.385 . S
C684 H665 0.951 . S
C684 C682 1.388 . S
C684 C685 1.366 . S
C685 C684 1.366 . S
C685 C686 1.414 . S
C685 C688 1.499 . S
C686 H666 0.950 . S
C686 C685 1.414 . S
C686 C687 1.374 . S
C687 H667 0.950 . S
C687 C683 1.385 . S
C687 C686 1.374 . S
C688 C685 1.499 . S
C688 C689 1.373 . S
C688 C690 1.389 . S
C689 H668 0.950 . S
C689 C688 1.373 . S
C689 C705 1.377 . S
C690 C688 1.389 . S
C690 C691 1.524 1_455 S
C690 C704 1.377 . S
C691 C690 1.524 1_655 S
C691 C692 1.397 . S
C691 C696 1.363 . S
C692 H669 0.950 . S
C692 C691 1.397 . S
C692 C693 1.334 . S
C693 H670 0.950 . S
C693 C692 1.334 . S
C693 C694 1.287 . S
C694 C693 1.287 . S
C694 C695 1.524 . S
C694 H713 0.913 . S
C695 H671 0.950 . S
C695 C694 1.524 . S
C695 C696 1.415 . S
C696 H672 0.950 . S
C696 C691 1.363 . S
C696 C695 1.415 . S
C697 H673 0.951 . S
C697 C698 1.366 . S
C697 C699 1.388 . S
C698 C697 1.366 . S
C698 C702 1.385 . S
C699 H674 0.951 . S
C699 C697 1.388 . S
C699 C700 1.366 . S
C700 C699 1.366 . S
C700 C701 1.414 . S
C700 C703 1.499 . S
C701 H675 0.950 . S
C701 C700 1.414 . S
C701 C702 1.374 . S
C702 H676 0.950 . S
C702 C698 1.385 . S
C702 C701 1.374 . S
C703 C700 1.499 . S
C703 C704 1.373 . S
C703 C705 1.389 . S
C704 H677 0.950 1_455 S
C704 C690 1.377 . S
C704 C703 1.373 . S
C705 C689 1.377 . S
C705 C703 1.389 . S
C705 C706 1.524 . S
C706 C705 1.524 . S
C706 C707 1.397 . S
C706 C711 1.363 . S
C707 H678 0.950 . S
C707 C706 1.397 . S
C707 C708 1.334 . S
C708 H679 0.950 . S
C708 C707 1.334 . S
C708 C709 1.287 . S
C709 C708 1.287 . S
C709 C710 1.524 . S
C709 H712 0.999 . S
C710 H680 0.950 . S
C710 C709 1.524 . S
C710 C711 1.415 . S
C711 H681 0.950 . S
C711 C706 1.363 . S
C711 C710 1.415 . S
H712 C709 0.999 . S
H713 C694 0.913 . S
H714 C732 0.951 . S
H715 C734 0.951 . S
H716 C736 0.950 . S
H717 C737 0.950 . S
H718 C739 0.950 . S
H719 C742 0.950 . S
H720 C743 0.950 . S
H721 C745 0.950 . S
H722 C746 0.950 . S
H723 C747 0.951 . S
H724 C749 0.951 . S
H725 C751 0.950 . S
H726 C752 0.950 . S
H727 C754 0.950 . S
H728 C757 0.950 . S
H729 C758 0.950 . S
H730 C760 0.950 . S
H731 C761 0.950 . S
C732 H714 0.951 . S
C732 C733 1.366 . S
C732 C734 1.388 . S
C733 C732 1.366 . S
C733 C737 1.385 . S
C734 H715 0.951 . S
C734 C732 1.388 . S
C734 C735 1.366 . S
C735 C734 1.366 . S
C735 C736 1.414 . S
C735 C738 1.499 . S
C736 H716 0.950 . S
C736 C735 1.414 . S
C736 C737 1.374 . S
C737 H717 0.950 . S
C737 C733 1.385 . S
C737 C736 1.374 . S
C738 C735 1.499 . S
C738 C739 1.373 . S
C738 C740 1.389 . S
C739 H718 0.950 . S
C739 C738 1.373 . S
C739 C755 1.377 . S
C740 C738 1.389 . S
C740 C741 1.524 . S
C740 C754 1.377 . S
C741 C740 1.524 . S
C741 C742 1.397 . S
C741 C746 1.363 . S
C742 H719 0.950 . S
C742 C741 1.397 . S
C742 C743 1.334 . S
C743 H720 0.950 . S
C743 C742 1.334 . S
C743 C744 1.287 . S
C744 C743 1.287 . S
C744 C745 1.524 . S
C744 H763 0.913 . S
C745 H721 0.950 . S
C745 C744 1.524 . S
C745 C746 1.415 . S
C746 H722 0.950 . S
C746 C741 1.363 . S
C746 C745 1.415 . S
C747 H723 0.951 . S
C747 C748 1.366 . S
C747 C749 1.388 . S
C748 C747 1.366 . S
C748 C752 1.385 . S
C749 H724 0.951 . S
C749 C747 1.388 . S
C749 C750 1.366 . S
C750 C749 1.366 . S
C750 C751 1.414 . S
C750 C753 1.499 . S
C751 H725 0.950 . S
C751 C750 1.414 . S
C751 C752 1.374 . S
C752 H726 0.950 . S
C752 C748 1.385 . S
C752 C751 1.374 . S
C753 C750 1.499 . S
C753 C754 1.373 . S
C753 C755 1.389 . S
C754 H727 0.950 . S
C754 C740 1.377 . S
C754 C753 1.373 . S
C755 C739 1.377 . S
C755 C753 1.389 . S
C755 C756 1.524 . S
C756 C755 1.524 . S
C756 C757 1.397 . S
C756 C761 1.363 . S
C757 H728 0.950 . S
C757 C756 1.397 . S
C757 C758 1.334 . S
C758 H729 0.950 . S
C758 C757 1.334 . S
C758 C759 1.287 . S
C759 C758 1.287 . S
C759 C760 1.524 . S
C759 H762 0.999 . S
C760 H730 0.950 . S
C760 C759 1.524 . S
C760 C761 1.415 . S
C761 H731 0.950 . S
C761 C756 1.363 . S
C761 C760 1.415 . S
H762 C759 0.999 . S
H763 C744 0.913 . S
H764 C782 0.951 . S
H765 C784 0.951 . S
H766 C786 0.950 . S
H767 C787 0.950 . S
H768 C789 0.950 . S
H769 C792 0.950 . S
H770 C793 0.950 . S
H771 C795 0.950 . S
H772 C796 0.950 . S
H773 C797 0.951 . S
H774 C799 0.951 . S
H775 C801 0.950 . S
H776 C802 0.950 . S
H777 C804 0.950 . S
H778 C807 0.950 . S
H779 C808 0.950 . S
H780 C810 0.950 . S
H781 C811 0.950 . S
C782 H764 0.951 . S
C782 C783 1.366 . S
C782 C784 1.388 . S
C783 C782 1.366 . S
C783 C787 1.385 . S
C784 H765 0.951 . S
C784 C782 1.388 . S
C784 C785 1.366 . S
C785 C784 1.366 . S
C785 C786 1.414 . S
C785 C788 1.499 . S
C786 H766 0.950 . S
C786 C785 1.414 . S
C786 C787 1.374 . S
C787 H767 0.950 . S
C787 C783 1.385 . S
C787 C786 1.374 . S
C788 C785 1.499 . S
C788 C789 1.373 . S
C788 C790 1.389 . S
C789 H768 0.950 . S
C789 C788 1.373 . S
C789 C805 1.377 . S
C790 C788 1.389 . S
C790 C791 1.524 . S
C790 C804 1.377 . S
C791 C790 1.524 . S
C791 C792 1.397 . S
C791 C796 1.363 . S
C792 H769 0.950 . S
C792 C791 1.397 . S
C792 C793 1.334 . S
C793 H770 0.950 . S
C793 C792 1.334 . S
C793 C794 1.287 . S
C794 C793 1.287 . S
C794 C795 1.524 . S
C794 H813 0.913 . S
C795 H771 0.950 . S
C795 C794 1.524 . S
C795 C796 1.415 . S
C796 H772 0.950 . S
C796 C791 1.363 . S
C796 C795 1.415 . S
C797 H773 0.951 . S
C797 C798 1.366 . S
C797 C799 1.388 . S
C798 C797 1.366 . S
C798 C802 1.385 . S
C799 H774 0.951 . S
C799 C797 1.388 . S
C799 C800 1.366 . S
C800 C799 1.366 . S
C800 C801 1.414 . S
C800 C803 1.499 . S
C801 H775 0.950 . S
C801 C800 1.414 . S
C801 C802 1.374 . S
C802 H776 0.950 . S
C802 C798 1.385 . S
C802 C801 1.374 . S
C803 C800 1.499 . S
C803 C804 1.373 . S
C803 C805 1.389 . S
C804 H777 0.950 . S
C804 C790 1.377 . S
C804 C803 1.373 . S
C805 C789 1.377 . S
C805 C803 1.389 . S
C805 C806 1.524 . S
C806 C805 1.524 . S
C806 C807 1.397 . S
C806 C811 1.363 . S
C807 H778 0.950 . S
C807 C806 1.397 . S
C807 C808 1.334 . S
C808 H779 0.950 . S
C808 C807 1.334 . S
C808 C809 1.287 . S
C809 C808 1.287 . S
C809 C810 1.524 . S
C809 H812 0.999 . S
C810 H780 0.950 . S
C810 C809 1.524 . S
C810 C811 1.415 . S
C811 H781 0.950 . S
C811 C806 1.363 . S
C811 C810 1.415 . S
H812 C809 0.999 . S
H813 C794 0.913 . S
H814 C832 0.951 . S
H815 C834 0.951 . S
H816 C836 0.950 . S
H817 C837 0.950 . S
H818 C839 0.950 . S
H819 C842 0.950 . S
H820 C843 0.950 . S
H821 C845 0.950 . S
H822 C846 0.950 . S
H823 C847 0.951 . S
H824 C849 0.951 . S
H825 C851 0.950 . S
H826 C852 0.950 . S
H827 C854 0.950 . S
H828 C857 0.950 . S
H829 C858 0.950 . S
H830 C860 0.950 . S
H831 C861 0.955 . S
C832 H814 0.951 . S
C832 C833 1.366 . S
C832 C834 1.388 . S
C833 C832 1.366 . S
C833 C837 1.385 . S
C834 H815 0.951 . S
C834 C832 1.388 . S
C834 C835 1.366 . S
C835 C834 1.366 . S
C835 C836 1.414 . S
C835 C838 1.499 . S
C836 H816 0.950 . S
C836 C835 1.414 . S
C836 C837 1.374 . S
C837 H817 0.950 . S
C837 C833 1.385 . S
C837 C836 1.374 . S
C838 C835 1.499 . S
C838 C839 1.373 . S
C838 C840 1.389 . S
C839 H818 0.950 . S
C839 C838 1.373 . S
C839 C855 1.377 . S
C840 C838 1.389 . S
C840 C841 1.524 . S
C840 C854 1.377 . S
C841 C840 1.524 . S
C841 C842 1.397 . S
C841 C846 1.363 . S
C842 H819 0.950 . S
C842 C841 1.397 . S
C842 C843 1.334 . S
C843 H820 0.950 . S
C843 C842 1.334 . S
C843 C844 1.287 . S
C844 C843 1.287 . S
C844 C845 1.524 . S
C844 H863 0.913 . S
C845 H821 0.950 . S
C845 C844 1.524 . S
C845 C846 1.415 . S
C846 H822 0.950 . S
C846 C841 1.363 . S
C846 C845 1.415 . S
C847 H823 0.951 . S
C847 C848 1.366 . S
C847 C849 1.388 . S
C848 C847 1.366 . S
C848 C852 1.385 . S
C849 H824 0.951 . S
C849 C847 1.388 . S
C849 C850 1.366 . S
C850 C849 1.366 . S
C850 C851 1.414 . S
C850 C853 1.499 . S
C851 H825 0.950 . S
C851 C850 1.414 . S
C851 C852 1.374 . S
C852 H826 0.950 . S
C852 C848 1.385 . S
C852 C851 1.374 . S
C853 C850 1.499 . S
C853 C854 1.373 1_655 S
C853 C855 1.389 1_655 S
C854 H827 0.950 . S
C854 C840 1.377 . S
C854 C853 1.373 1_455 S
C855 C839 1.377 . S
C855 C853 1.389 1_455 S
C855 C856 1.524 1_455 S
C856 C855 1.524 1_655 S
C856 C857 1.397 . S
C856 C861 1.362 1_655 S
C857 H828 0.950 . S
C857 C856 1.397 . S
C857 C858 1.334 . S
C858 H829 0.950 . S
C858 C857 1.334 . S
C858 C859 1.287 . S
C859 C858 1.287 . S
C859 C860 1.524 . S
C859 H862 0.999 . S
C860 H830 0.950 . S
C860 C859 1.524 . S
C860 C861 1.411 1_655 S
C861 H831 0.955 . S
C861 C856 1.362 1_455 S
C861 C860 1.411 1_455 S
H862 C859 0.999 . S
H863 C844 0.913 . S
H864 C882 0.951 . S
H865 C884 0.951 . S
H866 C886 0.950 1_554 S
H867 C887 0.950 . S
H868 C889 0.950 . S
H869 C892 0.950 . S
H870 C893 0.950 . S
H871 C895 0.950 . S
H872 C896 0.950 . S
H873 C897 0.951 . S
H874 C899 0.951 . S
H875 C901 0.950 . S
H876 C902 0.950 . S
H877 C904 0.950 1_556 S
H878 C907 0.950 . S
H879 C908 0.950 . S
H880 C910 0.950 . S
H881 C911 0.950 . S
C882 H864 0.951 . S
C882 C883 1.366 . S
C882 C884 1.388 . S
C883 C882 1.366 . S
C883 C887 1.385 . S
C884 H865 0.951 . S
C884 C882 1.388 . S
C884 C885 1.366 . S
C885 C884 1.366 . S
C885 C886 1.414 . S
C885 C888 1.499 . S
C886 H866 0.950 1_556 S
C886 C885 1.414 . S
C886 C887 1.374 . S
C887 H867 0.950 . S
C887 C883 1.385 . S
C887 C886 1.374 . S
C888 C885 1.499 . S
C888 C889 1.373 1_556 S
C888 C890 1.389 . S
C889 H868 0.950 . S
C889 C888 1.373 1_554 S
C889 C905 1.377 . S
C890 C888 1.389 . S
C890 C891 1.524 . S
C890 C904 1.377 1_556 S
C891 C890 1.524 . S
C891 C892 1.397 . S
C891 C896 1.363 . S
C892 H869 0.950 . S
C892 C891 1.397 . S
C892 C893 1.334 . S
C893 H870 0.950 . S
C893 C892 1.334 . S
C893 C894 1.287 . S
C894 C893 1.287 . S
C894 C895 1.524 . S
C894 H913 0.913 . S
C895 H871 0.950 . S
C895 C894 1.524 . S
C895 C896 1.415 . S
C896 H872 0.950 . S
C896 C891 1.363 . S
C896 C895 1.415 . S
C897 H873 0.951 . S
C897 C898 1.366 . S
C897 C899 1.388 . S
C898 C897 1.366 . S
C898 C902 1.385 . S
C899 H874 0.951 . S
C899 C897 1.388 . S
C899 C900 1.366 . S
C900 C899 1.366 . S
C900 C901 1.414 . S
C900 C903 1.499 . S
C901 H875 0.950 . S
C901 C900 1.414 . S
C901 C902 1.374 . S
C902 H876 0.950 . S
C902 C898 1.385 . S
C902 C901 1.374 . S
C903 C900 1.499 . S
C903 C904 1.373 . S
C903 C905 1.389 . S
C904 H877 0.950 1_554 S
C904 C890 1.377 1_554 S
C904 C903 1.373 . S
C905 C889 1.377 . S
C905 C903 1.389 . S
C905 C906 1.524 . S
C906 C905 1.524 . S
C906 C907 1.397 . S
C906 C911 1.363 . S
C907 H878 0.950 . S
C907 C906 1.397 . S
C907 C908 1.334 . S
C908 H879 0.950 . S
C908 C907 1.334 . S
C908 C909 1.287 . S
C909 C908 1.287 . S
C909 C910 1.524 . S
C909 H912 0.999 . S
C910 H880 0.950 . S
C910 C909 1.524 . S
C910 C911 1.415 . S
C911 H881 0.950 . S
C911 C906 1.363 . S
C911 C910 1.415 . S
H912 C909 0.999 . S
H913 C894 0.913 . S
H914 C932 0.951 . S
H915 C934 0.951 . S
H916 C936 0.950 . S
H917 C937 0.950 . S
H918 C939 0.950 . S
H919 C942 0.950 . S
H920 C943 0.950 . S
H921 C945 0.950 . S
H922 C946 0.950 . S
H923 C947 0.951 . S
H924 C949 0.951 . S
H925 C951 0.950 . S
H926 C952 0.950 . S
H927 C954 0.950 . S
H928 C957 0.950 . S
H929 C958 0.950 . S
H930 C960 0.950 . S
H931 C961 0.950 . S
C932 H914 0.951 . S
C932 C933 1.366 . S
C932 C934 1.388 . S
C933 C932 1.366 . S
C933 C937 1.385 . S
C934 H915 0.951 . S
C934 C932 1.388 . S
C934 C935 1.366 . S
C935 C934 1.366 . S
C935 C936 1.414 . S
C935 C938 1.499 . S
C936 H916 0.950 . S
C936 C935 1.414 . S
C936 C937 1.374 . S
C937 H917 0.950 . S
C937 C933 1.385 . S
C937 C936 1.374 . S
C938 C935 1.499 . S
C938 C939 1.373 . S
C938 C940 1.389 . S
C939 H918 0.950 . S
C939 C938 1.373 . S
C939 C955 1.377 . S
C940 C938 1.389 . S
C940 C941 1.524 . S
C940 C954 1.377 . S
C941 C940 1.524 . S
C941 C942 1.397 . S
C941 C946 1.363 . S
C942 H919 0.950 . S
C942 C941 1.397 . S
C942 C943 1.334 . S
C943 H920 0.950 . S
C943 C942 1.334 . S
C943 C944 1.287 . S
C944 C943 1.287 . S
C944 C945 1.524 . S
C944 H963 0.913 . S
C945 H921 0.950 . S
C945 C944 1.524 . S
C945 C946 1.415 . S
C946 H922 0.950 . S
C946 C941 1.363 . S
C946 C945 1.415 . S
C947 H923 0.951 . S
C947 C948 1.366 . S
C947 C949 1.388 . S
C948 C947 1.366 . S
C948 C952 1.385 . S
C949 H924 0.951 . S
C949 C947 1.388 . S
C949 C950 1.366 . S
C950 C949 1.366 . S
C950 C951 1.414 . S
C950 C953 1.499 . S
C951 H925 0.950 . S
C951 C950 1.414 . S
C951 C952 1.374 . S
C952 H926 0.950 . S
C952 C948 1.385 . S
C952 C951 1.374 . S
C953 C950 1.499 . S
C953 C954 1.373 . S
C953 C955 1.389 . S
C954 H927 0.950 . S
C954 C940 1.377 . S
C954 C953 1.373 . S
C955 C939 1.377 . S
C955 C953 1.389 . S
C955 C956 1.524 . S
C956 C955 1.524 . S
C956 C957 1.397 . S
C956 C961 1.363 . S
C957 H928 0.950 . S
C957 C956 1.397 . S
C957 C958 1.334 . S
C958 H929 0.950 . S
C958 C957 1.334 . S
C958 C959 1.287 . S
C959 C958 1.287 . S
C959 C960 1.524 . S
C959 H962 0.999 . S
C960 H930 0.950 . S
C960 C959 1.524 . S
C960 C961 1.415 . S
C961 H931 0.950 . S
C961 C956 1.363 . S
C961 C960 1.415 . S
H962 C959 0.999 . S
H963 C944 0.913 . S
H964 C982 0.951 . S
H965 C984 0.951 . S
H966 C986 0.950 . S
H967 C987 0.950 . S
H968 C989 0.950 . S
H969 C992 0.950 . S
H970 C993 0.950 . S
H971 C995 0.950 . S
H972 C996 0.950 . S
H973 C997 0.951 . S
H974 C999 0.951 . S
H975 C1001 0.950 . S
H976 C1002 0.950 . S
H977 C1004 0.950 . S
H978 C1007 0.950 . S
H979 C1008 0.950 . S
H980 C1010 0.950 . S
H981 C1011 0.950 . S
C982 H964 0.951 . S
C982 C983 1.366 . S
C982 C984 1.388 . S
C983 C982 1.366 . S
C983 C987 1.385 . S
C984 H965 0.951 . S
C984 C982 1.388 . S
C984 C985 1.366 . S
C985 C984 1.366 . S
C985 C986 1.414 . S
C985 C988 1.499 . S
C986 H966 0.950 . S
C986 C985 1.414 . S
C986 C987 1.374 . S
C987 H967 0.950 . S
C987 C983 1.385 . S
C987 C986 1.374 . S
C988 C985 1.499 . S
C988 C989 1.373 . S
C988 C990 1.389 . S
C989 H968 0.950 . S
C989 C988 1.373 . S
C989 C1005 1.377 . S
C990 C988 1.389 . S
C990 C991 1.524 . S
C990 C1004 1.377 . S
C991 C990 1.524 . S
C991 C992 1.397 . S
C991 C996 1.363 . S
C992 H969 0.950 . S
C992 C991 1.397 . S
C992 C993 1.334 . S
C993 H970 0.950 . S
C993 C992 1.334 . S
C993 C994 1.287 . S
C994 C993 1.287 . S
C994 C995 1.524 . S
C994 H1013 0.913 . S
C995 H971 0.950 . S
C995 C994 1.524 . S
C995 C996 1.415 . S
C996 H972 0.950 . S
C996 C991 1.363 . S
C996 C995 1.415 . S
C997 H973 0.951 . S
C997 C998 1.366 . S
C997 C999 1.388 . S
C998 C997 1.366 . S
C998 C1002 1.385 . S
C999 H974 0.951 . S
C999 C997 1.388 . S
C999 C1000 1.366 . S
C1000 C999 1.366 . S
C1000 C1001 1.414 . S
C1000 C1003 1.499 . S
C1001 H975 0.950 . S
C1001 C1000 1.414 . S
C1001 C1002 1.374 . S
C1002 H976 0.950 . S
C1002 C998 1.385 . S
C1002 C1001 1.374 . S
C1003 C1000 1.499 . S
C1003 C1004 1.373 . S
C1003 C1005 1.389 . S
C1004 H977 0.950 . S
C1004 C990 1.377 . S
C1004 C1003 1.373 . S
C1005 C989 1.377 . S
C1005 C1003 1.389 . S
C1005 C1006 1.524 . S
C1006 C1005 1.524 . S
C1006 C1007 1.397 . S
C1006 C1011 1.363 . S
C1007 H978 0.950 . S
C1007 C1006 1.397 . S
C1007 C1008 1.334 . S
C1008 H979 0.950 . S
C1008 C1007 1.334 . S
C1008 C1009 1.287 . S
C1009 C1008 1.287 . S
C1009 C1010 1.524 . S
C1009 H1012 0.999 . S
C1010 H980 0.950 . S
C1010 C1009 1.524 . S
C1010 C1011 1.415 . S
C1011 H981 0.950 . S
C1011 C1006 1.363 . S
C1011 C1010 1.415 . S
H1012 C1009 0.999 . S
H1013 C994 0.913 . S
H1014 C1032 0.951 . S
H1015 C1034 0.951 . S
H1016 C1036 0.950 . S
H1017 C1037 0.950 . S
H1018 C1039 0.950 . S
H1019 C1042 0.950 . S
H1020 C1043 0.950 . S
H1021 C1045 0.950 . S
H1022 C1046 0.950 . S
H1023 C1047 0.951 . S
H1024 C1049 0.951 . S
H1025 C1051 0.950 . S
H1026 C1052 0.950 . S
H1027 C1054 0.950 . S
H1028 C1057 0.950 . S
H1029 C1058 0.950 . S
H1030 C1060 0.950 . S
H1031 C1061 0.950 . S
C1032 H1014 0.951 . S
C1032 C1033 1.366 . S
C1032 C1034 1.388 . S
C1033 C1032 1.366 . S
C1033 C1037 1.385 . S
C1034 H1015 0.951 . S
C1034 C1032 1.388 . S
C1034 C1035 1.366 . S
C1035 C1034 1.366 . S
C1035 C1036 1.414 . S
C1035 C1038 1.499 . S
C1036 H1016 0.950 . S
C1036 C1035 1.414 . S
C1036 C1037 1.374 . S
C1037 H1017 0.950 . S
C1037 C1033 1.385 . S
C1037 C1036 1.374 . S
C1038 C1035 1.499 . S
C1038 C1039 1.373 . S
C1038 C1040 1.389 . S
C1039 H1018 0.950 . S
C1039 C1038 1.373 . S
C1039 C1055 1.377 . S
C1040 C1038 1.389 . S
C1040 C1041 1.524 . S
C1040 C1054 1.377 . S
C1041 C1040 1.524 . S
C1041 C1042 1.397 . S
C1041 C1046 1.363 . S
C1042 H1019 0.950 . S
C1042 C1041 1.397 . S
C1042 C1043 1.334 . S
C1043 H1020 0.950 . S
C1043 C1042 1.334 . S
C1043 C1044 1.287 . S
C1044 C1043 1.287 . S
C1044 C1045 1.524 . S
C1044 H1063 0.913 . S
C1045 H1021 0.950 . S
C1045 C1044 1.524 . S
C1045 C1046 1.415 . S
C1046 H1022 0.950 . S
C1046 C1041 1.363 . S
C1046 C1045 1.415 . S
C1047 H1023 0.951 . S
C1047 C1048 1.366 . S
C1047 C1049 1.388 . S
C1048 C1047 1.366 . S
C1048 C1052 1.385 . S
C1049 H1024 0.951 . S
C1049 C1047 1.388 . S
C1049 C1050 1.366 . S
C1050 C1049 1.366 . S
C1050 C1051 1.414 . S
C1050 C1053 1.499 . S
C1051 H1025 0.950 . S
C1051 C1050 1.414 . S
C1051 C1052 1.374 . S
C1052 H1026 0.950 . S
C1052 C1048 1.385 . S
C1052 C1051 1.374 . S
C1053 C1050 1.499 . S
C1053 C1054 1.373 . S
C1053 C1055 1.389 . S
C1054 H1027 0.950 . S
C1054 C1040 1.377 . S
C1054 C1053 1.373 . S
C1055 C1039 1.377 . S
C1055 C1053 1.389 . S
C1055 C1056 1.524 . S
C1056 C1055 1.524 . S
C1056 C1057 1.397 . S
C1056 C1061 1.363 . S
C1057 H1028 0.950 . S
C1057 C1056 1.397 . S
C1057 C1058 1.334 . S
C1058 H1029 0.950 . S
C1058 C1057 1.334 . S
C1058 C1059 1.287 . S
C1059 C1058 1.287 . S
C1059 C1060 1.524 . S
C1059 H1062 0.999 . S
C1060 H1030 0.950 . S
C1060 C1059 1.524 . S
C1060 C1061 1.415 . S
C1061 H1031 0.950 . S
C1061 C1056 1.363 . S
C1061 C1060 1.415 . S
H1062 C1059 0.999 . S
H1063 C1044 0.913 . S
H1064 C1082 0.951 . S
H1065 C1084 0.951 . S
H1066 C1086 0.950 . S
H1067 C1087 0.950 . S
H1068 C1089 0.950 . S
H1069 C1092 0.950 . S
H1070 C1093 0.950 . S
H1071 C1095 0.950 . S
H1072 C1096 0.950 . S
H1073 C1097 0.951 . S
H1074 C1099 0.951 . S
H1075 C1101 0.950 . S
H1076 C1102 0.950 . S
H1077 C1104 0.950 1_554 S
H1078 C1107 0.950 . S
H1079 C1108 0.950 . S
H1080 C1110 0.950 . S
H1081 C1111 0.950 . S
C1082 H1064 0.951 . S
C1082 C1083 1.366 . S
C1082 C1084 1.388 . S
C1083 C1082 1.366 . S
C1083 C1087 1.385 . S
C1084 H1065 0.951 . S
C1084 C1082 1.388 . S
C1084 C1085 1.366 . S
C1085 C1084 1.366 . S
C1085 C1086 1.414 . S
C1085 C1088 1.499 . S
C1086 H1066 0.950 . S
C1086 C1085 1.414 . S
C1086 C1087 1.374 . S
C1087 H1067 0.950 . S
C1087 C1083 1.385 . S
C1087 C1086 1.374 . S
C1088 C1085 1.499 . S
C1088 C1089 1.373 1_554 S
C1088 C1090 1.389 . S
C1089 H1068 0.950 . S
C1089 C1088 1.373 1_556 S
C1089 C1105 1.377 . S
C1090 C1088 1.389 . S
C1090 C1091 1.524 . S
C1090 C1104 1.377 1_554 S
C1091 C1090 1.524 . S
C1091 C1092 1.397 . S
C1091 C1096 1.363 . S
C1092 H1069 0.950 . S
C1092 C1091 1.397 . S
C1092 C1093 1.334 . S
C1093 H1070 0.950 . S
C1093 C1092 1.334 . S
C1093 C1094 1.287 . S
C1094 C1093 1.287 . S
C1094 C1095 1.524 . S
C1094 H1113 0.913 . S
C1095 H1071 0.950 . S
C1095 C1094 1.524 . S
C1095 C1096 1.415 . S
C1096 H1072 0.950 . S
C1096 C1091 1.363 . S
C1096 C1095 1.415 . S
C1097 H1073 0.951 . S
C1097 C1098 1.366 . S
C1097 C1099 1.388 . S
C1098 C1097 1.366 . S
C1098 C1102 1.385 . S
C1099 H1074 0.951 . S
C1099 C1097 1.388 . S
C1099 C1100 1.366 . S
C1100 C1099 1.366 . S
C1100 C1101 1.414 . S
C1100 C1103 1.499 . S
C1101 H1075 0.950 . S
C1101 C1100 1.414 . S
C1101 C1102 1.374 . S
C1102 H1076 0.950 . S
C1102 C1098 1.385 . S
C1102 C1101 1.374 . S
C1103 C1100 1.499 . S
C1103 C1104 1.373 . S
C1103 C1105 1.389 . S
C1104 H1077 0.950 1_556 S
C1104 C1090 1.377 1_556 S
C1104 C1103 1.373 . S
C1105 C1089 1.377 . S
C1105 C1103 1.389 . S
C1105 C1106 1.524 . S
C1106 C1105 1.524 . S
C1106 C1107 1.397 . S
C1106 C1111 1.363 . S
C1107 H1078 0.950 . S
C1107 C1106 1.397 . S
C1107 C1108 1.334 . S
C1108 H1079 0.950 . S
C1108 C1107 1.334 . S
C1108 C1109 1.287 . S
C1109 C1108 1.287 . S
C1109 C1110 1.524 . S
C1109 H1112 0.999 . S
C1110 H1080 0.950 . S
C1110 C1109 1.524 . S
C1110 C1111 1.415 . S
C1111 H1081 0.950 . S
C1111 C1106 1.363 . S
C1111 C1110 1.415 . S
H1112 C1109 0.999 . S
H1113 C1094 0.913 . S
H1114 C1132 0.951 . S
H1115 C1134 0.951 . S
H1116 C1136 0.950 . S
H1117 C1137 0.950 . S
H1118 C1139 0.950 . S
H1119 C1142 0.950 . S
H1120 C1143 0.950 . S
H1121 C1145 0.950 . S
H1122 C1146 0.950 . S
H1123 C1147 0.951 . S
H1124 C1149 0.951 . S
H1125 C1151 0.950 . S
H1126 C1152 0.950 . S
H1127 C1154 0.950 . S
H1128 C1157 0.950 . S
H1129 C1158 0.950 . S
H1130 C1160 0.950 . S
H1131 C1161 0.950 . S
C1132 H1114 0.951 . S
C1132 C1133 1.366 . S
C1132 C1134 1.388 . S
C1133 C1132 1.366 . S
C1133 C1137 1.385 . S
C1134 H1115 0.951 . S
C1134 C1132 1.388 . S
C1134 C1135 1.366 . S
C1135 C1134 1.366 . S
C1135 C1136 1.414 . S
C1135 C1138 1.499 . S
C1136 H1116 0.950 . S
C1136 C1135 1.414 . S
C1136 C1137 1.374 . S
C1137 H1117 0.950 . S
C1137 C1133 1.385 . S
C1137 C1136 1.374 . S
C1138 C1135 1.499 . S
C1138 C1139 1.373 . S
C1138 C1140 1.389 . S
C1139 H1118 0.950 . S
C1139 C1138 1.373 . S
C1139 C1155 1.377 . S
C1140 C1138 1.389 . S
C1140 C1141 1.524 . S
C1140 C1154 1.377 . S
C1141 C1140 1.524 . S
C1141 C1142 1.397 . S
C1141 C1146 1.363 . S
C1142 H1119 0.950 . S
C1142 C1141 1.397 . S
C1142 C1143 1.334 . S
C1143 H1120 0.950 . S
C1143 C1142 1.334 . S
C1143 C1144 1.287 . S
C1144 C1143 1.287 . S
C1144 C1145 1.524 . S
C1144 H1163 0.913 . S
C1145 H1121 0.950 . S
C1145 C1144 1.524 . S
C1145 C1146 1.415 . S
C1146 H1122 0.950 . S
C1146 C1141 1.363 . S
C1146 C1145 1.415 . S
C1147 H1123 0.951 . S
C1147 C1148 1.366 . S
C1147 C1149 1.388 . S
C1148 C1147 1.366 . S
C1148 C1152 1.385 . S
C1149 H1124 0.951 . S
C1149 C1147 1.388 . S
C1149 C1150 1.366 . S
C1150 C1149 1.366 . S
C1150 C1151 1.414 . S
C1150 C1153 1.499 . S
C1151 H1125 0.950 . S
C1151 C1150 1.414 . S
C1151 C1152 1.374 . S
C1152 H1126 0.950 . S
C1152 C1148 1.385 . S
C1152 C1151 1.374 . S
C1153 C1150 1.499 . S
C1153 C1154 1.373 . S
C1153 C1155 1.389 . S
C1154 H1127 0.950 . S
C1154 C1140 1.377 . S
C1154 C1153 1.373 . S
C1155 C1139 1.377 . S
C1155 C1153 1.389 . S
C1155 C1156 1.524 . S
C1156 C1155 1.524 . S
C1156 C1157 1.397 . S
C1156 C1161 1.363 . S
C1157 H1128 0.950 . S
C1157 C1156 1.397 . S
C1157 C1158 1.334 . S
C1158 H1129 0.950 . S
C1158 C1157 1.334 . S
C1158 C1159 1.287 . S
C1159 C1158 1.287 . S
C1159 C1160 1.524 . S
C1159 H1162 0.999 . S
C1160 H1130 0.950 . S
C1160 C1159 1.524 . S
C1160 C1161 1.415 . S
C1161 H1131 0.950 . S
C1161 C1156 1.363 . S
C1161 C1160 1.415 . S
H1162 C1159 0.999 . S
H1163 C1144 0.913 . S
H1164 C1182 0.951 . S
H1165 C1184 0.951 . S
H1166 C1186 0.950 . S
H1167 C1187 0.950 . S
H1168 C1189 0.950 . S
H1169 C1192 0.950 . S
H1170 C1193 0.950 . S
H1171 C1195 0.950 . S
H1172 C1196 0.950 . S
H1173 C1197 0.951 . S
H1174 C1199 0.951 . S
H1175 C1201 0.950 . S
H1176 C1202 0.950 . S
H1177 C1204 0.950 . S
H1178 C1207 0.950 . S
H1179 C1208 0.950 . S
H1180 C1210 0.950 . S
H1181 C1211 0.950 . S
C1182 H1164 0.951 . S
C1182 C1183 1.366 . S
C1182 C1184 1.388 . S
C1183 C1182 1.366 . S
C1183 C1187 1.385 . S
C1184 H1165 0.951 . S
C1184 C1182 1.388 . S
C1184 C1185 1.366 . S
C1185 C1184 1.366 . S
C1185 C1186 1.414 . S
C1185 C1188 1.499 . S
C1186 H1166 0.950 . S
C1186 C1185 1.414 . S
C1186 C1187 1.374 . S
C1187 H1167 0.950 . S
C1187 C1183 1.385 . S
C1187 C1186 1.374 . S
C1188 C1185 1.499 . S
C1188 C1189 1.373 . S
C1188 C1190 1.389 . S
C1189 H1168 0.950 . S
C1189 C1188 1.373 . S
C1189 C1205 1.377 . S
C1190 C1188 1.389 . S
C1190 C1191 1.524 . S
C1190 C1204 1.377 . S
C1191 C1190 1.524 . S
C1191 C1192 1.397 . S
C1191 C1196 1.363 . S
C1192 H1169 0.950 . S
C1192 C1191 1.397 . S
C1192 C1193 1.334 . S
C1193 H1170 0.950 . S
C1193 C1192 1.334 . S
C1193 C1194 1.287 . S
C1194 C1193 1.287 . S
C1194 C1195 1.524 . S
C1194 H1213 0.913 . S
C1195 H1171 0.950 . S
C1195 C1194 1.524 . S
C1195 C1196 1.415 . S
C1196 H1172 0.950 . S
C1196 C1191 1.363 . S
C1196 C1195 1.415 . S
C1197 H1173 0.951 . S
C1197 C1198 1.366 . S
C1197 C1199 1.388 . S
C1198 C1197 1.366 . S
C1198 C1202 1.385 . S
C1199 H1174 0.951 . S
C1199 C1197 1.388 . S
C1199 C1200 1.366 . S
C1200 C1199 1.366 . S
C1200 C1201 1.414 . S
C1200 C1203 1.499 . S
C1201 H1175 0.950 . S
C1201 C1200 1.414 . S
C1201 C1202 1.374 . S
C1202 H1176 0.950 . S
C1202 C1198 1.385 . S
C1202 C1201 1.374 . S
C1203 C1200 1.499 . S
C1203 C1204 1.373 . S
C1203 C1205 1.389 . S
C1204 H1177 0.950 . S
C1204 C1190 1.377 . S
C1204 C1203 1.373 . S
C1205 C1189 1.377 . S
C1205 C1203 1.389 . S
C1205 C1206 1.524 . S
C1206 C1205 1.524 . S
C1206 C1207 1.397 . S
C1206 C1211 1.363 . S
C1207 H1178 0.950 . S
C1207 C1206 1.397 . S
C1207 C1208 1.334 . S
C1208 H1179 0.950 . S
C1208 C1207 1.334 . S
C1208 C1209 1.287 . S
C1209 C1208 1.287 . S
C1209 C1210 1.524 . S
C1209 H1212 0.999 . S
C1210 H1180 0.950 . S
C1210 C1209 1.524 . S
C1210 C1211 1.415 . S
C1211 H1181 0.950 . S
C1211 C1206 1.363 . S
C1211 C1210 1.415 . S
H1212 C1209 0.999 . S
H1213 C1194 0.913 . S
H1214 C1232 0.951 . S
H1215 C1234 0.951 . S
H1216 C1236 0.950 . S
H1217 C1237 0.950 . S
H1218 C1239 0.950 . S
H1219 C1242 0.950 . S
H1220 C1243 0.950 . S
H1221 C1245 0.950 . S
H1222 C1246 0.950 . S
H1223 C1247 0.951 . S
H1224 C1249 0.951 . S
H1225 C1251 0.950 . S
H1226 C1252 0.950 . S
H1227 C1254 0.950 . S
H1228 C1257 0.950 . S
H1229 C1258 0.950 . S
H1230 C1260 0.950 . S
H1231 C1261 0.950 . S
C1232 H1214 0.951 . S
C1232 C1233 1.366 . S
C1232 C1234 1.388 . S
C1233 C1232 1.366 . S
C1233 C1237 1.385 . S
C1234 H1215 0.951 . S
C1234 C1232 1.388 . S
C1234 C1235 1.366 . S
C1235 C1234 1.366 . S
C1235 C1236 1.414 . S
C1235 C1238 1.499 . S
C1236 H1216 0.950 . S
C1236 C1235 1.414 . S
C1236 C1237 1.374 . S
C1237 H1217 0.950 . S
C1237 C1233 1.385 . S
C1237 C1236 1.374 . S
C1238 C1235 1.499 . S
C1238 C1239 1.373 . S
C1238 C1240 1.389 . S
C1239 H1218 0.950 . S
C1239 C1238 1.373 . S
C1239 C1255 1.377 . S
C1240 C1238 1.389 . S
C1240 C1241 1.524 . S
C1240 C1254 1.377 . S
C1241 C1240 1.524 . S
C1241 C1242 1.397 . S
C1241 C1246 1.363 . S
C1242 H1219 0.950 . S
C1242 C1241 1.397 . S
C1242 C1243 1.334 . S
C1243 H1220 0.950 . S
C1243 C1242 1.334 . S
C1243 C1244 1.287 . S
C1244 C1243 1.287 . S
C1244 C1245 1.524 . S
C1244 H1263 0.913 . S
C1245 H1221 0.950 . S
C1245 C1244 1.524 . S
C1245 C1246 1.415 . S
C1246 H1222 0.950 . S
C1246 C1241 1.363 . S
C1246 C1245 1.415 . S
C1247 H1223 0.951 . S
C1247 C1248 1.366 . S
C1247 C1249 1.388 . S
C1248 C1247 1.366 . S
C1248 C1252 1.385 . S
C1249 H1224 0.951 . S
C1249 C1247 1.388 . S
C1249 C1250 1.366 . S
C1250 C1249 1.366 . S
C1250 C1251 1.414 . S
C1250 C1253 1.499 . S
C1251 H1225 0.950 . S
C1251 C1250 1.414 . S
C1251 C1252 1.374 . S
C1252 H1226 0.950 . S
C1252 C1248 1.385 . S
C1252 C1251 1.374 . S
C1253 C1250 1.499 . S
C1253 C1254 1.373 . S
C1253 C1255 1.389 . S
C1254 H1227 0.950 . S
C1254 C1240 1.377 . S
C1254 C1253 1.373 . S
C1255 C1239 1.377 . S
C1255 C1253 1.389 . S
C1255 C1256 1.524 . S
C1256 C1255 1.524 . S
C1256 C1257 1.397 . S
C1256 C1261 1.363 . S
C1257 H1228 0.950 . S
C1257 C1256 1.397 . S
C1257 C1258 1.334 . S
C1258 H1229 0.950 . S
C1258 C1257 1.334 . S
C1258 C1259 1.287 . S
C1259 C1258 1.287 . S
C1259 C1260 1.524 . S
C1259 H1262 0.999 . S
C1260 H1230 0.950 . S
C1260 C1259 1.524 . S
C1260 C1261 1.415 . S
C1261 H1231 0.950 . S
C1261 C1256 1.363 . S
C1261 C1260 1.415 . S
H1262 C1259 0.999 . S
H1263 C1244 0.913 . S
H1264 C1282 0.951 . S
H1265 C1284 0.951 . S
H1266 C1286 0.950 . S
H1267 C1287 0.950 . S
H1268 C1289 0.950 . S
H1269 C1292 0.950 . S
H1270 C1293 0.950 . S
H1271 C1295 0.950 . S
H1272 C1296 0.906 1_554 S
H1273 C1297 0.951 . S
H1274 C1299 0.951 1_556 S
H1275 C1301 0.950 . S
H1276 C1302 0.950 . S
H1277 C1304 0.950 . S
H1278 C1307 0.950 1_554 S
H1279 C1308 0.950 . S
H1280 C1310 0.950 . S
H1281 C1311 0.950 . S
C1282 H1264 0.951 . S
C1282 C1283 1.366 . S
C1282 C1284 1.388 . S
C1283 C1282 1.366 . S
C1283 C1287 1.385 . S
C1284 H1265 0.951 . S
C1284 C1282 1.388 . S
C1284 C1285 1.366 . S
C1285 C1284 1.366 . S
C1285 C1286 1.414 . S
C1285 C1288 1.499 . S
C1286 H1266 0.950 . S
C1286 C1285 1.414 . S
C1286 C1287 1.374 . S
C1287 H1267 0.950 . S
C1287 C1283 1.385 . S
C1287 C1286 1.374 . S
C1288 C1285 1.499 . S
C1288 C1289 1.373 . S
C1288 C1290 1.389 . S
C1289 H1268 0.950 . S
C1289 C1288 1.373 . S
C1289 C1305 1.377 . S
C1290 C1288 1.389 . S
C1290 C1291 1.524 . S
C1290 C1304 1.377 . S
C1291 C1290 1.524 . S
C1291 C1292 1.397 . S
C1291 C1296 1.363 . S
C1292 H1269 0.950 . S
C1292 C1291 1.397 . S
C1292 C1293 1.334 . S
C1293 H1270 0.950 . S
C1293 C1292 1.334 . S
C1293 C1294 1.287 . S
C1294 C1293 1.287 . S
C1294 C1295 1.524 . S
C1294 H1313 0.913 . S
C1295 H1271 0.950 . S
C1295 C1294 1.524 . S
C1295 C1296 1.415 . S
C1296 H1272 0.906 1_556 S
C1296 C1291 1.363 . S
C1296 C1295 1.415 . S
C1297 H1273 0.951 . S
C1297 C1298 1.366 . S
C1297 C1299 1.388 . S
C1298 C1297 1.366 . S
C1298 C1302 1.385 . S
C1299 H1274 0.951 1_554 S
C1299 C1297 1.388 . S
C1299 C1300 1.366 . S
C1300 C1299 1.366 . S
C1300 C1301 1.414 . S
C1300 C1303 1.499 1_554 S
C1301 H1275 0.950 . S
C1301 C1300 1.414 . S
C1301 C1302 1.374 . S
C1302 H1276 0.950 . S
C1302 C1298 1.385 . S
C1302 C1301 1.374 . S
C1303 C1300 1.499 1_556 S
C1303 C1304 1.373 . S
C1303 C1305 1.389 . S
C1304 H1277 0.950 . S
C1304 C1290 1.377 . S
C1304 C1303 1.373 . S
C1305 C1289 1.377 . S
C1305 C1303 1.389 . S
C1305 C1306 1.524 . S
C1306 C1305 1.524 . S
C1306 C1307 1.397 . S
C1306 C1311 1.363 . S
C1307 H1278 0.950 1_556 S
C1307 C1306 1.397 . S
C1307 C1308 1.334 1_556 S
C1308 H1279 0.950 . S
C1308 C1307 1.334 1_554 S
C1308 C1309 1.287 1_554 S
C1309 C1308 1.287 1_556 S
C1309 C1310 1.524 . S
C1309 H1312 0.999 . S
C1310 H1280 0.950 . S
C1310 C1309 1.524 . S
C1310 C1311 1.415 . S
C1311 H1281 0.950 . S
C1311 C1306 1.363 . S
C1311 C1310 1.415 . S
H1312 C1309 0.999 . S
H1313 C1294 0.913 . S
H1314 C1332 0.951 . S
H1315 C1334 0.951 . S
H1316 C1336 0.950 . S
H1317 C1337 0.950 . S
H1318 C1339 0.950 . S
H1319 C1342 0.950 . S
H1320 C1343 0.950 . S
H1321 C1345 0.950 . S
H1322 C1346 0.950 . S
H1323 C1347 0.951 . S
H1324 C1349 0.951 . S
H1325 C1351 0.950 . S
H1326 C1352 0.950 . S
H1327 C1354 0.950 . S
H1328 C1357 0.950 . S
H1329 C1358 0.950 . S
H1330 C1360 0.950 . S
H1331 C1361 0.950 . S
C1332 H1314 0.951 . S
C1332 C1333 1.366 . S
C1332 C1334 1.388 . S
C1333 C1332 1.366 . S
C1333 C1337 1.385 . S
C1334 H1315 0.951 . S
C1334 C1332 1.388 . S
C1334 C1335 1.366 . S
C1335 C1334 1.366 . S
C1335 C1336 1.414 . S
C1335 C1338 1.499 . S
C1336 H1316 0.950 . S
C1336 C1335 1.414 . S
C1336 C1337 1.374 . S
C1337 H1317 0.950 . S
C1337 C1333 1.385 . S
C1337 C1336 1.374 . S
C1338 C1335 1.499 . S
C1338 C1339 1.373 . S
C1338 C1340 1.389 . S
C1339 H1318 0.950 . S
C1339 C1338 1.373 . S
C1339 C1355 1.377 . S
C1340 C1338 1.389 . S
C1340 C1341 1.524 . S
C1340 C1354 1.377 . S
C1341 C1340 1.524 . S
C1341 C1342 1.397 . S
C1341 C1346 1.363 . S
C1342 H1319 0.950 . S
C1342 C1341 1.397 . S
C1342 C1343 1.334 . S
C1343 H1320 0.950 . S
C1343 C1342 1.334 . S
C1343 C1344 1.287 . S
C1344 C1343 1.287 . S
C1344 C1345 1.524 . S
C1344 H1363 0.913 . S
C1345 H1321 0.950 . S
C1345 C1344 1.524 . S
C1345 C1346 1.415 . S
C1346 H1322 0.950 . S
C1346 C1341 1.363 . S
C1346 C1345 1.415 . S
C1347 H1323 0.951 . S
C1347 C1348 1.366 . S
C1347 C1349 1.388 . S
C1348 C1347 1.366 . S
C1348 C1352 1.385 . S
C1349 H1324 0.951 . S
C1349 C1347 1.388 . S
C1349 C1350 1.366 . S
C1350 C1349 1.366 . S
C1350 C1351 1.414 . S
C1350 C1353 1.499 . S
C1351 H1325 0.950 . S
C1351 C1350 1.414 . S
C1351 C1352 1.374 . S
C1352 H1326 0.950 . S
C1352 C1348 1.385 . S
C1352 C1351 1.374 . S
C1353 C1350 1.499 . S
C1353 C1354 1.373 . S
C1353 C1355 1.389 . S
C1354 H1327 0.950 . S
C1354 C1340 1.377 . S
C1354 C1353 1.373 . S
C1355 C1339 1.377 . S
C1355 C1353 1.389 . S
C1355 C1356 1.524 . S
C1356 C1355 1.524 . S
C1356 C1357 1.397 . S
C1356 C1361 1.363 . S
C1357 H1328 0.950 . S
C1357 C1356 1.397 . S
C1357 C1358 1.334 1_545 S
C1358 H1329 0.950 . S
C1358 C1357 1.334 1_565 S
C1358 C1359 1.287 . S
C1359 C1358 1.287 . S
C1359 C1360 1.524 1_565 S
C1359 H1362 0.999 . S
C1360 H1330 0.950 . S
C1360 C1359 1.524 1_545 S
C1360 C1361 1.415 . S
C1361 H1331 0.950 . S
C1361 C1356 1.363 . S
C1361 C1360 1.415 . S
H1362 C1359 0.999 . S
H1363 C1344 0.913 . S
H1364 C1382 0.951 . S
H1365 C1384 0.951 . S
H1366 C1386 0.950 . S
H1367 C1387 0.950 . S
H1368 C1389 0.950 . S
H1369 C1392 0.950 . S
H1370 C1393 0.950 . S
H1371 C1395 0.950 . S
H1372 C1396 0.950 . S
H1373 C1397 0.951 . S
H1374 C1399 0.951 . S
H1375 C1401 0.950 . S
H1376 C1402 0.950 . S
H1377 C1404 0.950 . S
H1378 C1407 0.950 . S
H1379 C1408 0.950 . S
H1380 C1410 0.950 . S
H1381 C1411 0.950 . S
C1382 H1364 0.951 . S
C1382 C1383 1.366 . S
C1382 C1384 1.388 . S
C1383 C1382 1.366 . S
C1383 C1387 1.385 . S
C1384 H1365 0.951 . S
C1384 C1382 1.388 . S
C1384 C1385 1.366 . S
C1385 C1384 1.366 . S
C1385 C1386 1.414 . S
C1385 C1388 1.499 . S
C1386 H1366 0.950 . S
C1386 C1385 1.414 . S
C1386 C1387 1.374 . S
C1387 H1367 0.950 . S
C1387 C1383 1.385 . S
C1387 C1386 1.374 . S
C1388 C1385 1.499 . S
C1388 C1389 1.373 . S
C1388 C1390 1.389 . S
C1389 H1368 0.950 . S
C1389 C1388 1.373 . S
C1389 C1405 1.377 . S
C1390 C1388 1.389 . S
C1390 C1391 1.524 . S
C1390 C1404 1.377 . S
C1391 C1390 1.524 . S
C1391 C1392 1.397 . S
C1391 C1396 1.363 . S
C1392 H1369 0.950 . S
C1392 C1391 1.397 . S
C1392 C1393 1.334 . S
C1393 H1370 0.950 . S
C1393 C1392 1.334 . S
C1393 C1394 1.287 . S
C1394 C1393 1.287 . S
C1394 C1395 1.524 . S
C1394 H1413 0.913 . S
C1395 H1371 0.950 . S
C1395 C1394 1.524 . S
C1395 C1396 1.415 . S
C1396 H1372 0.950 . S
C1396 C1391 1.363 . S
C1396 C1395 1.415 . S
C1397 H1373 0.951 . S
C1397 C1398 1.366 . S
C1397 C1399 1.388 . S
C1398 C1397 1.366 . S
C1398 C1402 1.385 . S
C1399 H1374 0.951 . S
C1399 C1397 1.388 . S
C1399 C1400 1.366 . S
C1400 C1399 1.366 . S
C1400 C1401 1.414 . S
C1400 C1403 1.499 . S
C1401 H1375 0.950 . S
C1401 C1400 1.414 . S
C1401 C1402 1.374 . S
C1402 H1376 0.950 . S
C1402 C1398 1.385 . S
C1402 C1401 1.374 . S
C1403 C1400 1.499 . S
C1403 C1404 1.373 . S
C1403 C1405 1.389 . S
C1404 H1377 0.950 . S
C1404 C1390 1.377 . S
C1404 C1403 1.373 . S
C1405 C1389 1.377 . S
C1405 C1403 1.389 . S
C1405 C1406 1.524 . S
C1406 C1405 1.524 . S
C1406 C1407 1.397 . S
C1406 C1411 1.363 . S
C1407 H1378 0.950 . S
C1407 C1406 1.397 . S
C1407 C1408 1.334 . S
C1408 H1379 0.950 . S
C1408 C1407 1.334 . S
C1408 C1409 1.287 . S
C1409 C1408 1.287 . S
C1409 C1410 1.524 . S
C1409 H1412 0.999 . S
C1410 H1380 0.950 . S
C1410 C1409 1.524 . S
C1410 C1411 1.415 . S
C1411 H1381 0.950 . S
C1411 C1406 1.363 . S
C1411 C1410 1.415 . S
H1412 C1409 0.999 . S
H1413 C1394 0.913 . S
H1414 C1432 0.951 . S
H1415 C1434 0.951 . S
H1416 C1436 0.950 . S
H1417 C1437 0.950 . S
H1418 C1439 0.950 . S
H1419 C1442 0.950 . S
H1420 C1443 0.950 . S
H1421 C1445 0.950 . S
H1422 C1446 0.950 . S
H1423 C1447 0.951 . S
H1424 C1449 0.951 . S
H1425 C1451 0.950 . S
H1426 C1452 0.950 . S
H1427 C1454 0.950 . S
H1428 C1457 0.950 . S
H1429 C1458 0.950 . S
H1430 C1460 0.950 . S
H1431 C1461 0.950 . S
C1432 H1414 0.951 . S
C1432 C1433 1.366 . S
C1432 C1434 1.388 . S
C1433 C1432 1.366 . S
C1433 C1437 1.385 . S
C1434 H1415 0.951 . S
C1434 C1432 1.388 . S
C1434 C1435 1.366 . S
C1435 C1434 1.366 . S
C1435 C1436 1.414 . S
C1435 C1438 1.499 . S
C1436 H1416 0.950 . S
C1436 C1435 1.414 . S
C1436 C1437 1.374 . S
C1437 H1417 0.950 . S
C1437 C1433 1.385 . S
C1437 C1436 1.374 . S
C1438 C1435 1.499 . S
C1438 C1439 1.373 . S
C1438 C1440 1.389 . S
C1439 H1418 0.950 . S
C1439 C1438 1.373 . S
C1439 C1455 1.377 . S
C1440 C1438 1.389 . S
C1440 C1441 1.524 . S
C1440 C1454 1.377 . S
C1441 C1440 1.524 . S
C1441 C1442 1.397 . S
C1441 C1446 1.363 . S
C1442 H1419 0.950 . S
C1442 C1441 1.397 . S
C1442 C1443 1.334 . S
C1443 H1420 0.950 . S
C1443 C1442 1.334 . S
C1443 C1444 1.287 . S
C1444 C1443 1.287 . S
C1444 C1445 1.524 . S
C1444 H1463 0.913 . S
C1445 H1421 0.950 . S
C1445 C1444 1.524 . S
C1445 C1446 1.415 . S
C1446 H1422 0.950 . S
C1446 C1441 1.363 . S
C1446 C1445 1.415 . S
C1447 H1423 0.951 . S
C1447 C1448 1.366 . S
C1447 C1449 1.388 . S
C1448 C1447 1.366 . S
C1448 C1452 1.385 1_565 S
C1449 H1424 0.951 . S
C1449 C1447 1.388 . S
C1449 C1450 1.366 . S
C1450 C1449 1.366 . S
C1450 C1451 1.414 . S
C1450 C1453 1.499 . S
C1451 H1425 0.950 . S
C1451 C1450 1.414 . S
C1451 C1452 1.374 1_565 S
C1452 H1426 0.950 . S
C1452 C1448 1.385 1_545 S
C1452 C1451 1.374 1_545 S
C1453 C1450 1.499 . S
C1453 C1454 1.373 . S
C1453 C1455 1.389 . S
C1454 H1427 0.950 . S
C1454 C1440 1.377 . S
C1454 C1453 1.373 . S
C1455 C1439 1.377 . S
C1455 C1453 1.389 . S
C1455 C1456 1.524 . S
C1456 C1455 1.524 . S
C1456 C1457 1.397 . S
C1456 C1461 1.363 . S
C1457 H1428 0.950 . S
C1457 C1456 1.397 . S
C1457 C1458 1.334 . S
C1458 H1429 0.950 . S
C1458 C1457 1.334 . S
C1458 C1459 1.287 . S
C1459 C1458 1.287 . S
C1459 C1460 1.524 . S
C1459 H1462 0.999 . S
C1460 H1430 0.950 . S
C1460 C1459 1.524 . S
C1460 C1461 1.415 . S
C1461 H1431 0.950 . S
C1461 C1456 1.363 . S
C1461 C1460 1.415 . S
H1462 C1459 0.999 . S
H1463 C1444 0.913 . S
H1464 C1482 0.951 . S
H1465 C1484 0.951 1_554 S
H1466 C1486 0.950 . S
H1467 C1487 0.950 . S
H1468 C1489 0.950 . S
H1469 C1492 0.950 . S
H1470 C1493 0.950 . S
H1471 C1495 0.950 . S
H1472 C1496 0.950 . S
H1473 C1497 0.951 . S
H1474 C1499 0.951 . S
H1475 C1501 0.950 . S
H1476 C1502 0.950 . S
H1477 C1504 0.950 . S
H1478 C1507 0.950 . S
H1479 C1508 0.950 . S
H1480 C1510 0.950 . S
H1481 C1511 0.950 . S
C1482 H1464 0.951 . S
C1482 C1483 1.366 . S
C1482 C1484 1.388 . S
C1483 C1482 1.366 . S
C1483 C1487 1.385 . S
C1484 H1465 0.951 1_556 S
C1484 C1482 1.388 . S
C1484 C1485 1.366 . S
C1485 C1484 1.366 . S
C1485 C1486 1.414 . S
C1485 C1488 1.499 1_556 S
C1486 H1466 0.950 . S
C1486 C1485 1.414 . S
C1486 C1487 1.374 . S
C1487 H1467 0.950 . S
C1487 C1483 1.385 . S
C1487 C1486 1.374 . S
C1488 C1485 1.499 1_554 S
C1488 C1489 1.373 . S
C1488 C1490 1.389 . S
C1489 H1468 0.950 . S
C1489 C1488 1.373 . S
C1489 C1505 1.377 . S
C1490 C1488 1.389 . S
C1490 C1491 1.524 . S
C1490 C1504 1.377 . S
C1491 C1490 1.524 . S
C1491 C1492 1.397 1_554 S
C1491 C1496 1.363 . S
C1492 H1469 0.950 . S
C1492 C1491 1.397 1_556 S
C1492 C1493 1.334 . S
C1493 H1470 0.950 . S
C1493 C1492 1.334 . S
C1493 C1494 1.287 1_556 S
C1494 C1493 1.287 1_554 S
C1494 C1495 1.524 . S
C1494 H1513 0.913 1_554 S
C1495 H1471 0.950 . S
C1495 C1494 1.524 . S
C1495 C1496 1.415 . S
C1496 H1472 0.950 . S
C1496 C1491 1.363 . S
C1496 C1495 1.415 . S
C1497 H1473 0.951 . S
C1497 C1498 1.366 . S
C1497 C1499 1.388 . S
C1498 C1497 1.366 . S
C1498 C1502 1.385 . S
C1499 H1474 0.951 . S
C1499 C1497 1.388 . S
C1499 C1500 1.366 . S
C1500 C1499 1.366 . S
C1500 C1501 1.414 . S
C1500 C1503 1.499 . S
C1501 H1475 0.950 . S
C1501 C1500 1.414 . S
C1501 C1502 1.374 . S
C1502 H1476 0.950 . S
C1502 C1498 1.385 . S
C1502 C1501 1.374 . S
C1503 C1500 1.499 . S
C1503 C1504 1.373 . S
C1503 C1505 1.389 . S
C1504 H1477 0.950 . S
C1504 C1490 1.377 . S
C1504 C1503 1.373 . S
C1505 C1489 1.377 . S
C1505 C1503 1.389 . S
C1505 C1506 1.524 . S
C1506 C1505 1.524 . S
C1506 C1507 1.397 . S
C1506 C1511 1.363 . S
C1507 H1478 0.950 . S
C1507 C1506 1.397 . S
C1507 C1508 1.334 . S
C1508 H1479 0.950 . S
C1508 C1507 1.334 . S
C1508 C1509 1.287 . S
C1509 C1508 1.287 . S
C1509 C1510 1.524 . S
C1509 H1512 0.999 1_545 S
C1510 H1480 0.950 . S
C1510 C1509 1.524 . S
C1510 C1511 1.415 . S
C1511 H1481 0.950 . S
C1511 C1506 1.363 . S
C1511 C1510 1.415 . S
H1512 C1509 0.999 1_565 S
H1513 C1494 0.913 1_556 S
H1514 C1532 0.951 1_565 S
H1515 C1534 0.951 . S
H1516 C1536 0.950 . S
H1517 C1537 0.950 . S
H1518 C1539 0.950 . S
H1519 C1542 0.950 . S
H1520 C1543 0.950 . S
H1521 C1545 0.950 . S
H1522 C1546 0.950 . S
H1523 C1547 0.951 . S
H1524 C1549 0.951 . S
H1525 C1551 0.950 . S
H1526 C1552 0.950 . S
H1527 C1554 0.950 . S
H1528 C1557 0.950 . S
H1529 C1558 0.950 . S
H1530 C1560 0.950 . S
H1531 C1561 0.950 . S
C1532 H1514 0.951 1_545 S
C1532 C1533 1.366 . S
C1532 C1534 1.388 . S
C1533 C1532 1.366 . S
C1533 C1537 1.385 . S
C1534 H1515 0.951 . S
C1534 C1532 1.388 . S
C1534 C1535 1.366 . S
C1535 C1534 1.366 . S
C1535 C1536 1.414 . S
C1535 C1538 1.499 . S
C1536 H1516 0.950 . S
C1536 C1535 1.414 . S
C1536 C1537 1.374 . S
C1537 H1517 0.950 . S
C1537 C1533 1.385 . S
C1537 C1536 1.374 . S
C1538 C1535 1.499 . S
C1538 C1539 1.373 . S
C1538 C1540 1.389 . S
C1539 H1518 0.950 . S
C1539 C1538 1.373 . S
C1539 C1555 1.377 . S
C1540 C1538 1.389 . S
C1540 C1541 1.524 . S
C1540 C1554 1.377 . S
C1541 C1540 1.524 . S
C1541 C1542 1.397 . S
C1541 C1546 1.363 . S
C1542 H1519 0.950 . S
C1542 C1541 1.397 . S
C1542 C1543 1.334 . S
C1543 H1520 0.950 . S
C1543 C1542 1.334 . S
C1543 C1544 1.287 . S
C1544 C1543 1.287 . S
C1544 C1545 1.524 . S
C1544 H1563 0.913 . S
C1545 H1521 0.950 . S
C1545 C1544 1.524 . S
C1545 C1546 1.415 . S
C1546 H1522 0.950 . S
C1546 C1541 1.363 . S
C1546 C1545 1.415 . S
C1547 H1523 0.951 . S
C1547 C1548 1.366 . S
C1547 C1549 1.388 . S
C1548 C1547 1.366 . S
C1548 C1552 1.385 . S
C1549 H1524 0.951 . S
C1549 C1547 1.388 . S
C1549 C1550 1.366 . S
C1550 C1549 1.366 . S
C1550 C1551 1.414 . S
C1550 C1553 1.499 . S
C1551 H1525 0.950 . S
C1551 C1550 1.414 . S
C1551 C1552 1.374 . S
C1552 H1526 0.950 . S
C1552 C1548 1.385 . S
C1552 C1551 1.374 . S
C1553 C1550 1.499 . S
C1553 C1554 1.373 . S
C1553 C1555 1.389 . S
C1554 H1527 0.950 . S
C1554 C1540 1.377 . S
C1554 C1553 1.373 . S
C1555 C1539 1.377 . S
C1555 C1553 1.389 . S
C1555 C1556 1.524 . S
C1556 C1555 1.524 . S
C1556 C1557 1.397 . S
C1556 C1561 1.363 . S
C1557 H1528 0.950 . S
C1557 C1556 1.397 . S
C1557 C1558 1.334 . S
C1558 H1529 0.950 . S
C1558 C1557 1.334 . S
C1558 C1559 1.287 . S
C1559 C1558 1.287 . S
C1559 C1560 1.524 . S
C1559 H1562 0.999 . S
C1560 H1530 0.950 . S
C1560 C1559 1.524 . S
C1560 C1561 1.415 . S
C1561 H1531 0.950 . S
C1561 C1556 1.363 . S
C1561 C1560 1.415 . S
H1562 C1559 0.999 . S
H1563 C1544 0.913 . S
H1564 C1582 0.951 . S
H1565 C1584 0.951 . S
H1566 C1586 0.950 . S
H1567 C1587 0.950 . S
H1568 C1589 0.950 . S
H1569 C1592 0.950 . S
H1570 C1593 0.950 . S
H1571 C1595 0.950 . S
H1572 C1596 0.950 . S
H1573 C1597 0.951 . S
H1574 C1599 0.951 . S
H1575 C1601 0.950 . S
H1576 C1602 0.950 . S
H1577 C1604 0.950 . S
H1578 C1607 0.950 . S
H1579 C1608 0.950 . S
H1580 C1610 0.950 . S
H1581 C1611 0.950 . S
C1582 H1564 0.951 . S
C1582 C1583 1.366 . S
C1582 C1584 1.388 . S
C1583 C1582 1.366 . S
C1583 C1587 1.385 . S
C1584 H1565 0.951 . S
C1584 C1582 1.388 . S
C1584 C1585 1.366 . S
C1585 C1584 1.366 . S
C1585 C1586 1.414 . S
C1585 C1588 1.499 . S
C1586 H1566 0.950 . S
C1586 C1585 1.414 . S
C1586 C1587 1.374 . S
C1587 H1567 0.950 . S
C1587 C1583 1.385 . S
C1587 C1586 1.374 . S
C1588 C1585 1.499 . S
C1588 C1589 1.373 . S
C1588 C1590 1.389 . S
C1589 H1568 0.950 . S
C1589 C1588 1.373 . S
C1589 C1605 1.377 . S
C1590 C1588 1.389 . S
C1590 C1591 1.524 . S
C1590 C1604 1.377 . S
C1591 C1590 1.524 . S
C1591 C1592 1.397 . S
C1591 C1596 1.363 . S
C1592 H1569 0.950 . S
C1592 C1591 1.397 . S
C1592 C1593 1.334 . S
C1593 H1570 0.950 . S
C1593 C1592 1.334 . S
C1593 C1594 1.287 . S
C1594 C1593 1.287 . S
C1594 C1595 1.524 . S
C1594 H1613 0.913 . S
C1595 H1571 0.950 . S
C1595 C1594 1.524 . S
C1595 C1596 1.415 . S
C1596 H1572 0.950 . S
C1596 C1591 1.363 . S
C1596 C1595 1.415 . S
C1597 H1573 0.951 . S
C1597 C1598 1.366 . S
C1597 C1599 1.388 . S
C1598 C1597 1.366 . S
C1598 C1602 1.385 . S
C1599 H1574 0.951 . S
C1599 C1597 1.388 . S
C1599 C1600 1.366 . S
C1600 C1599 1.366 . S
C1600 C1601 1.414 . S
C1600 C1603 1.499 . S
C1601 H1575 0.950 . S
C1601 C1600 1.414 . S
C1601 C1602 1.374 . S
C1602 H1576 0.950 . S
C1602 C1598 1.385 . S
C1602 C1601 1.374 . S
C1603 C1600 1.499 . S
C1603 C1604 1.373 . S
C1603 C1605 1.389 . S
C1604 H1577 0.950 . S
C1604 C1590 1.377 . S
C1604 C1603 1.373 . S
C1605 C1589 1.377 . S
C1605 C1603 1.389 . S
C1605 C1606 1.524 . S
C1606 C1605 1.524 . S
C1606 C1607 1.397 . S
C1606 C1611 1.363 . S
C1607 H1578 0.950 . S
C1607 C1606 1.397 . S
C1607 C1608 1.334 . S
C1608 H1579 0.950 . S
C1608 C1607 1.334 . S
C1608 C1609 1.287 . S
C1609 C1608 1.287 . S
C1609 C1610 1.524 . S
C1609 H1612 0.999 . S
C1610 H1580 0.950 . S
C1610 C1609 1.524 . S
C1610 C1611 1.415 . S
C1611 H1581 0.950 . S
C1611 C1606 1.363 . S
C1611 C1610 1.415 . S
H1612 C1609 0.999 . S
H1613 C1594 0.913 . S
H1614 C1632 0.951 1_545 S
H1615 C1634 0.951 . S
H1616 C1636 0.950 . S
H1617 C1637 0.950 . S
H1618 C1639 0.950 . S
H1619 C1642 0.950 . S
H1620 C1643 0.950 . S
H1621 C1645 0.950 . S
H1622 C1646 0.950 . S
H1623 C1647 0.951 . S
H1624 C1649 0.951 . S
H1625 C1651 0.950 . S
H1626 C1652 0.950 . S
H1627 C1654 0.950 . S
H1628 C1657 0.950 . S
H1629 C1658 0.950 . S
H1630 C1660 0.950 . S
H1631 C1661 0.950 . S
C1632 H1614 0.951 1_565 S
C1632 C1633 1.366 . S
C1632 C1634 1.388 . S
C1633 C1632 1.366 . S
C1633 C1637 1.385 . S
C1634 H1615 0.951 . S
C1634 C1632 1.388 . S
C1634 C1635 1.366 . S
C1635 C1634 1.366 . S
C1635 C1636 1.414 . S
C1635 C1638 1.499 . S
C1636 H1616 0.950 . S
C1636 C1635 1.414 . S
C1636 C1637 1.374 . S
C1637 H1617 0.950 . S
C1637 C1633 1.385 . S
C1637 C1636 1.374 . S
C1638 C1635 1.499 . S
C1638 C1639 1.373 . S
C1638 C1640 1.389 . S
C1639 H1618 0.950 . S
C1639 C1638 1.373 . S
C1639 C1655 1.377 . S
C1640 C1638 1.389 . S
C1640 C1641 1.524 . S
C1640 C1654 1.377 . S
C1641 C1640 1.524 . S
C1641 C1642 1.397 . S
C1641 C1646 1.363 . S
C1642 H1619 0.950 . S
C1642 C1641 1.397 . S
C1642 C1643 1.334 . S
C1643 H1620 0.950 . S
C1643 C1642 1.334 . S
C1643 C1644 1.287 . S
C1644 C1643 1.287 . S
C1644 C1645 1.524 . S
C1644 H1663 0.913 1_655 S
C1645 H1621 0.950 . S
C1645 C1644 1.524 . S
C1645 C1646 1.415 . S
C1646 H1622 0.950 . S
C1646 C1641 1.363 . S
C1646 C1645 1.415 . S
C1647 H1623 0.951 . S
C1647 C1648 1.366 . S
C1647 C1649 1.388 . S
C1648 C1647 1.366 . S
C1648 C1652 1.385 . S
C1649 H1624 0.951 . S
C1649 C1647 1.388 . S
C1649 C1650 1.366 . S
C1650 C1649 1.366 . S
C1650 C1651 1.414 . S
C1650 C1653 1.499 . S
C1651 H1625 0.950 . S
C1651 C1650 1.414 . S
C1651 C1652 1.374 . S
C1652 H1626 0.950 . S
C1652 C1648 1.385 . S
C1652 C1651 1.374 . S
C1653 C1650 1.499 . S
C1653 C1654 1.373 . S
C1653 C1655 1.389 . S
C1654 H1627 0.950 . S
C1654 C1640 1.377 . S
C1654 C1653 1.373 . S
C1655 C1639 1.377 . S
C1655 C1653 1.389 . S
C1655 C1656 1.524 . S
C1656 C1655 1.524 . S
C1656 C1657 1.397 . S
C1656 C1661 1.363 . S
C1657 H1628 0.950 . S
C1657 C1656 1.397 . S
C1657 C1658 1.334 . S
C1658 H1629 0.950 . S
C1658 C1657 1.334 . S
C1658 C1659 1.287 . S
C1659 C1658 1.287 . S
C1659 C1660 1.524 . S
C1659 H1662 0.999 . S
C1660 H1630 0.950 . S
C1660 C1659 1.524 . S
C1660 C1661 1.415 . S
C1661 H1631 0.950 . S
C1661 C1656 1.363 . S
C1661 C1660 1.415 . S
H1662 C1659 0.999 . S
H1663 C1644 0.913 1_455 S
H1664 C1682 0.951 . S
H1665 C1684 0.951 . S
H1666 C1686 0.950 . S
H1667 C1687 0.950 . S
H1668 C1689 0.950 . S
H1669 C1692 0.950 . S
H1670 C1693 0.950 . S
H1671 C1695 0.950 . S
H1672 C1696 0.950 . S
H1673 C1697 0.951 . S
H1674 C1699 0.951 . S
H1675 C1701 0.950 . S
H1676 C1702 0.950 . S
H1677 C1704 0.950 . S
H1678 C1707 0.950 . S
H1679 C1708 0.950 . S
H1680 C1710 0.950 . S
H1681 C1711 0.950 . S
C1682 H1664 0.951 . S
C1682 C1683 1.366 . S
C1682 C1684 1.388 . S
C1683 C1682 1.366 . S
C1683 C1687 1.385 . S
C1684 H1665 0.951 . S
C1684 C1682 1.388 . S
C1684 C1685 1.366 . S
C1685 C1684 1.366 . S
C1685 C1686 1.414 . S
C1685 C1688 1.499 . S
C1686 H1666 0.950 . S
C1686 C1685 1.414 . S
C1686 C1687 1.374 . S
C1687 H1667 0.950 . S
C1687 C1683 1.385 . S
C1687 C1686 1.374 . S
C1688 C1685 1.499 . S
C1688 C1689 1.373 . S
C1688 C1690 1.389 . S
C1689 H1668 0.950 . S
C1689 C1688 1.373 . S
C1689 C1705 1.377 . S
C1690 C1688 1.389 . S
C1690 C1691 1.524 . S
C1690 C1704 1.377 . S
C1691 C1690 1.524 . S
C1691 C1692 1.397 . S
C1691 C1696 1.363 . S
C1692 H1669 0.950 . S
C1692 C1691 1.397 . S
C1692 C1693 1.334 . S
C1693 H1670 0.950 . S
C1693 C1692 1.334 . S
C1693 C1694 1.287 . S
C1694 C1693 1.287 . S
C1694 C1695 1.524 . S
C1694 H1713 0.913 . S
C1695 H1671 0.950 . S
C1695 C1694 1.524 . S
C1695 C1696 1.415 . S
C1696 H1672 0.950 . S
C1696 C1691 1.363 . S
C1696 C1695 1.415 . S
C1697 H1673 0.951 . S
C1697 C1698 1.366 . S
C1697 C1699 1.388 . S
C1698 C1697 1.366 . S
C1698 C1702 1.385 . S
C1699 H1674 0.951 . S
C1699 C1697 1.388 . S
C1699 C1700 1.366 . S
C1700 C1699 1.366 . S
C1700 C1701 1.414 . S
C1700 C1703 1.499 . S
C1701 H1675 0.950 . S
C1701 C1700 1.414 . S
C1701 C1702 1.374 . S
C1702 H1676 0.950 . S
C1702 C1698 1.385 . S
C1702 C1701 1.374 . S
C1703 C1700 1.499 . S
C1703 C1704 1.373 . S
C1703 C1705 1.389 . S
C1704 H1677 0.950 . S
C1704 C1690 1.377 . S
C1704 C1703 1.373 . S
C1705 C1689 1.377 . S
C1705 C1703 1.389 . S
C1705 C1706 1.524 . S
C1706 C1705 1.524 . S
C1706 C1707 1.397 . S
C1706 C1711 1.363 . S
C1707 H1678 0.950 . S
C1707 C1706 1.397 . S
C1707 C1708 1.334 . S
C1708 H1679 0.950 . S
C1708 C1707 1.334 . S
C1708 C1709 1.287 . S
C1709 C1708 1.287 . S
C1709 C1710 1.524 . S
C1709 H1712 0.999 . S
C1710 H1680 0.950 . S
C1710 C1709 1.524 . S
C1710 C1711 1.415 . S
C1711 H1681 0.950 . S
C1711 C1706 1.363 . S
C1711 C1710 1.415 . S
H1712 C1709 0.999 . S
H1713 C1694 0.913 . S
H1714 C1732 0.951 . S
H1715 C1734 0.951 . S
H1716 C1736 0.950 . S
H1717 C1737 0.950 . S
H1718 C1739 0.950 . S
H1719 C1742 0.950 . S
H1720 C1743 0.950 . S
H1721 C1745 0.950 . S
H1722 C1746 0.950 . S
H1723 C1747 0.951 . S
H1724 C1749 0.951 . S
H1725 C1751 0.950 . S
H1726 C1752 0.950 . S
H1727 C1754 0.950 . S
H1728 C1757 0.950 . S
H1729 C1758 0.950 . S
H1730 C1760 0.950 . S
H1731 C1761 0.950 . S
C1732 H1714 0.951 . S
C1732 C1733 1.366 . S
C1732 C1734 1.388 . S
C1733 C1732 1.366 . S
C1733 C1737 1.385 . S
C1734 H1715 0.951 . S
C1734 C1732 1.388 . S
C1734 C1735 1.366 . S
C1735 C1734 1.366 . S
C1735 C1736 1.414 . S
C1735 C1738 1.499 . S
C1736 H1716 0.950 . S
C1736 C1735 1.414 . S
C1736 C1737 1.374 . S
C1737 H1717 0.950 . S
C1737 C1733 1.385 . S
C1737 C1736 1.374 . S
C1738 C1735 1.499 . S
C1738 C1739 1.373 . S
C1738 C1740 1.389 . S
C1739 H1718 0.950 . S
C1739 C1738 1.373 . S
C1739 C1755 1.377 . S
C1740 C1738 1.389 . S
C1740 C1741 1.524 . S
C1740 C1754 1.377 . S
C1741 C1740 1.524 . S
C1741 C1742 1.397 . S
C1741 C1746 1.363 . S
C1742 H1719 0.950 . S
C1742 C1741 1.397 . S
C1742 C1743 1.334 . S
C1743 H1720 0.950 . S
C1743 C1742 1.334 . S
C1743 C1744 1.287 . S
C1744 C1743 1.287 . S
C1744 C1745 1.524 . S
C1744 H1763 0.913 . S
C1745 H1721 0.950 . S
C1745 C1744 1.524 . S
C1745 C1746 1.415 . S
C1746 H1722 0.950 . S
C1746 C1741 1.363 . S
C1746 C1745 1.415 . S
C1747 H1723 0.951 . S
C1747 C1748 1.366 . S
C1747 C1749 1.388 . S
C1748 C1747 1.366 . S
C1748 C1752 1.385 . S
C1749 H1724 0.951 . S
C1749 C1747 1.388 . S
C1749 C1750 1.366 . S
C1750 C1749 1.366 . S
C1750 C1751 1.414 . S
C1750 C1753 1.499 . S
C1751 H1725 0.950 . S
C1751 C1750 1.414 . S
C1751 C1752 1.374 . S
C1752 H1726 0.950 . S
C1752 C1748 1.385 . S
C1752 C1751 1.374 . S
C1753 C1750 1.499 . S
C1753 C1754 1.373 . S
C1753 C1755 1.389 . S
C1754 H1727 0.950 . S
C1754 C1740 1.377 . S
C1754 C1753 1.373 . S
C1755 C1739 1.377 . S
C1755 C1753 1.389 . S
C1755 C1756 1.524 . S
C1756 C1755 1.524 . S
C1756 C1757 1.397 . S
C1756 C1761 1.363 . S
C1757 H1728 0.950 . S
C1757 C1756 1.397 . S
C1757 C1758 1.334 . S
C1758 H1729 0.950 . S
C1758 C1757 1.334 . S
C1758 C1759 1.287 . S
C1759 C1758 1.287 . S
C1759 C1760 1.524 . S
C1759 H1762 0.999 . S
C1760 H1730 0.950 . S
C1760 C1759 1.524 . S
C1760 C1761 1.415 . S
C1761 H1731 0.950 . S
C1761 C1756 1.363 . S
C1761 C1760 1.415 . S
H1762 C1759 0.999 . S
H1763 C1744 0.913 . S
H1764 C1782 0.951 . S
H1765 C1784 0.951 . S
H1766 C1786 0.950 . S
H1767 C1787 0.950 . S
H1768 C1789 0.950 1_556 S
H1769 C1792 0.950 . S
H1770 C1793 0.950 . S
H1771 C1795 0.950 . S
H1772 C1796 0.950 . S
H1773 C1797 0.951 . S
H1774 C1799 0.951 . S
H1775 C1801 0.950 . S
H1776 C1802 0.950 . S
H1777 C1804 0.950 . S
H1778 C1807 0.950 . S
H1779 C1808 0.950 . S
H1780 C1810 0.950 . S
H1781 C1811 0.950 . S
C1782 H1764 0.951 . S
C1782 C1783 1.366 . S
C1782 C1784 1.388 . S
C1783 C1782 1.366 . S
C1783 C1787 1.385 1_655 S
C1784 H1765 0.951 . S
C1784 C1782 1.388 . S
C1784 C1785 1.366 . S
C1785 C1784 1.366 . S
C1785 C1786 1.414 . S
C1785 C1788 1.499 . S
C1786 H1766 0.950 . S
C1786 C1785 1.414 . S
C1786 C1787 1.374 1_655 S
C1787 H1767 0.950 . S
C1787 C1783 1.385 1_455 S
C1787 C1786 1.374 1_455 S
C1788 C1785 1.499 . S
C1788 C1789 1.373 . S
C1788 C1790 1.389 . S
C1789 H1768 0.950 1_554 S
C1789 C1788 1.373 . S
C1789 C1805 1.377 1_554 S
C1790 C1788 1.389 . S
C1790 C1791 1.524 . S
C1790 C1804 1.377 . S
C1791 C1790 1.524 . S
C1791 C1792 1.397 . S
C1791 C1796 1.363 . S
C1792 H1769 0.950 . S
C1792 C1791 1.397 . S
C1792 C1793 1.334 . S
C1793 H1770 0.950 . S
C1793 C1792 1.334 . S
C1793 C1794 1.287 . S
C1794 C1793 1.287 . S
C1794 C1795 1.524 . S
C1794 H1813 0.913 . S
C1795 H1771 0.950 . S
C1795 C1794 1.524 . S
C1795 C1796 1.415 . S
C1796 H1772 0.950 . S
C1796 C1791 1.363 . S
C1796 C1795 1.415 . S
C1797 H1773 0.951 . S
C1797 C1798 1.366 . S
C1797 C1799 1.388 . S
C1798 C1797 1.366 . S
C1798 C1802 1.385 . S
C1799 H1774 0.951 . S
C1799 C1797 1.388 . S
C1799 C1800 1.366 . S
C1800 C1799 1.366 . S
C1800 C1801 1.414 . S
C1800 C1803 1.499 . S
C1801 H1775 0.950 . S
C1801 C1800 1.414 . S
C1801 C1802 1.374 . S
C1802 H1776 0.950 . S
C1802 C1798 1.385 . S
C1802 C1801 1.374 . S
C1803 C1800 1.499 . S
C1803 C1804 1.373 1_556 S
C1803 C1805 1.389 . S
C1804 H1777 0.950 . S
C1804 C1790 1.377 . S
C1804 C1803 1.373 1_554 S
C1805 C1789 1.377 1_556 S
C1805 C1803 1.389 . S
C1805 C1806 1.524 . S
C1806 C1805 1.524 . S
C1806 C1807 1.397 . S
C1806 C1811 1.363 . S
C1807 H1778 0.950 . S
C1807 C1806 1.397 . S
C1807 C1808 1.334 . S
C1808 H1779 0.950 . S
C1808 C1807 1.334 . S
C1808 C1809 1.287 . S
C1809 C1808 1.287 . S
C1809 C1810 1.524 . S
C1809 H1812 0.999 . S
C1810 H1780 0.950 . S
C1810 C1809 1.524 . S
C1810 C1811 1.415 . S
C1811 H1781 0.950 . S
C1811 C1806 1.363 . S
C1811 C1810 1.415 . S
H1812 C1809 0.999 . S
H1813 C1794 0.913 . S
H1814 C1832 0.951 . S
H1815 C1834 0.951 . S
H1816 C1836 0.950 . S
H1817 C1837 0.950 . S
H1818 C1839 0.950 . S
H1819 C1842 0.950 . S
H1820 C1843 0.950 . S
H1821 C1845 0.950 . S
H1822 C1846 0.950 . S
H1823 C1847 0.951 . S
H1824 C1849 0.951 . S
H1825 C1851 0.950 . S
H1826 C1852 0.950 . S
H1827 C1854 0.950 . S
H1828 C1857 0.950 . S
H1829 C1858 0.950 1_455 S
H1830 C1860 0.950 . S
H1831 C1861 0.950 . S
C1832 H1814 0.951 . S
C1832 C1833 1.366 . S
C1832 C1834 1.388 . S
C1833 C1832 1.366 . S
C1833 C1837 1.385 . S
C1834 H1815 0.951 . S
C1834 C1832 1.388 . S
C1834 C1835 1.366 . S
C1835 C1834 1.366 . S
C1835 C1836 1.414 . S
C1835 C1838 1.499 . S
C1836 H1816 0.950 . S
C1836 C1835 1.414 . S
C1836 C1837 1.374 . S
C1837 H1817 0.950 . S
C1837 C1833 1.385 . S
C1837 C1836 1.374 . S
C1838 C1835 1.499 . S
C1838 C1839 1.373 . S
C1838 C1840 1.389 . S
C1839 H1818 0.950 . S
C1839 C1838 1.373 . S
C1839 C1855 1.377 . S
C1840 C1838 1.389 . S
C1840 C1841 1.524 . S
C1840 C1854 1.377 . S
C1841 C1840 1.524 . S
C1841 C1842 1.397 . S
C1841 C1846 1.363 . S
C1842 H1819 0.950 . S
C1842 C1841 1.397 . S
C1842 C1843 1.334 . S
C1843 H1820 0.950 . S
C1843 C1842 1.334 . S
C1843 C1844 1.287 . S
C1844 C1843 1.287 . S
C1844 C1845 1.524 . S
C1844 H1863 0.913 . S
C1845 H1821 0.950 . S
C1845 C1844 1.524 . S
C1845 C1846 1.415 . S
C1846 H1822 0.950 . S
C1846 C1841 1.363 . S
C1846 C1845 1.415 . S
C1847 H1823 0.951 . S
C1847 C1848 1.366 . S
C1847 C1849 1.388 . S
C1848 C1847 1.366 . S
C1848 C1852 1.385 . S
C1849 H1824 0.951 . S
C1849 C1847 1.388 . S
C1849 C1850 1.366 . S
C1850 C1849 1.366 . S
C1850 C1851 1.414 . S
C1850 C1853 1.499 . S
C1851 H1825 0.950 . S
C1851 C1850 1.414 . S
C1851 C1852 1.374 . S
C1852 H1826 0.950 . S
C1852 C1848 1.385 . S
C1852 C1851 1.374 . S
C1853 C1850 1.499 . S
C1853 C1854 1.373 . S
C1853 C1855 1.389 . S
C1854 H1827 0.950 . S
C1854 C1840 1.377 . S
C1854 C1853 1.373 . S
C1855 C1839 1.377 . S
C1855 C1853 1.389 . S
C1855 C1856 1.524 . S
C1856 C1855 1.524 . S
C1856 C1857 1.397 . S
C1856 C1861 1.363 . S
C1857 H1828 0.950 . S
C1857 C1856 1.397 . S
C1857 C1858 1.334 . S
C1858 H1829 0.950 1_655 S
C1858 C1857 1.334 . S
C1858 C1859 1.287 . S
C1859 C1858 1.287 . S
C1859 C1860 1.524 . S
C1859 H1862 0.999 . S
C1860 H1830 0.950 . S
C1860 C1859 1.524 . S
C1860 C1861 1.415 . S
C1861 H1831 0.950 . S
C1861 C1856 1.363 . S
C1861 C1860 1.415 . S
H1862 C1859 0.999 . S
H1863 C1844 0.913 . S
H1864 C1882 0.951 . S
H1865 C1884 0.951 . S
H1866 C1886 0.950 . S
H1867 C1887 0.950 . S
H1868 C1889 0.950 . S
H1869 C1892 0.950 . S
H1870 C1893 0.950 . S
H1871 C1895 0.950 . S
H1872 C1896 0.950 . S
H1873 C1897 0.951 . S
H1874 C1899 0.951 . S
H1875 C1901 0.950 . S
H1876 C1902 0.950 . S
H1877 C1904 0.950 . S
H1878 C1907 0.950 . S
H1879 C1908 0.950 . S
H1880 C1910 0.950 . S
H1881 C1911 0.950 . S
C1882 H1864 0.951 . S
C1882 C1883 1.366 . S
C1882 C1884 1.388 . S
C1883 C1882 1.366 . S
C1883 C1887 1.385 . S
C1884 H1865 0.951 . S
C1884 C1882 1.388 . S
C1884 C1885 1.366 . S
C1885 C1884 1.366 . S
C1885 C1886 1.414 . S
C1885 C1888 1.499 . S
C1886 H1866 0.950 . S
C1886 C1885 1.414 . S
C1886 C1887 1.374 . S
C1887 H1867 0.950 . S
C1887 C1883 1.385 . S
C1887 C1886 1.374 . S
C1888 C1885 1.499 . S
C1888 C1889 1.373 . S
C1888 C1890 1.389 . S
C1889 H1868 0.950 . S
C1889 C1888 1.373 . S
C1889 C1905 1.377 . S
C1890 C1888 1.389 . S
C1890 C1891 1.524 . S
C1890 C1904 1.377 . S
C1891 C1890 1.524 . S
C1891 C1892 1.397 . S
C1891 C1896 1.363 . S
C1892 H1869 0.950 . S
C1892 C1891 1.397 . S
C1892 C1893 1.334 . S
C1893 H1870 0.950 . S
C1893 C1892 1.334 . S
C1893 C1894 1.287 . S
C1894 C1893 1.287 . S
C1894 C1895 1.524 . S
C1894 H1913 0.913 . S
C1895 H1871 0.950 . S
C1895 C1894 1.524 . S
C1895 C1896 1.415 . S
C1896 H1872 0.950 . S
C1896 C1891 1.363 . S
C1896 C1895 1.415 . S
C1897 H1873 0.951 . S
C1897 C1898 1.366 . S
C1897 C1899 1.388 . S
C1898 C1897 1.366 . S
C1898 C1902 1.385 . S
C1899 H1874 0.951 . S
C1899 C1897 1.388 . S
C1899 C1900 1.366 . S
C1900 C1899 1.366 . S
C1900 C1901 1.414 . S
C1900 C1903 1.499 . S
C1901 H1875 0.950 . S
C1901 C1900 1.414 . S
C1901 C1902 1.374 . S
C1902 H1876 0.950 . S
C1902 C1898 1.385 . S
C1902 C1901 1.374 . S
C1903 C1900 1.499 . S
C1903 C1904 1.373 . S
C1903 C1905 1.389 . S
C1904 H1877 0.950 . S
C1904 C1890 1.377 . S
C1904 C1903 1.373 . S
C1905 C1889 1.377 . S
C1905 C1903 1.389 . S
C1905 C1906 1.524 . S
C1906 C1905 1.524 . S
C1906 C1907 1.397 . S
C1906 C1911 1.363 . S
C1907 H1878 0.950 . S
C1907 C1906 1.397 . S
C1907 C1908 1.334 . S
C1908 H1879 0.950 . S
C1908 C1907 1.334 . S
C1908 C1909 1.287 . S
C1909 C1908 1.287 . S
C1909 C1910 1.524 . S
C1909 H1912 0.999 . S
C1910 H1880 0.950 . S
C1910 C1909 1.524 . S
C1910 C1911 1.415 . S
C1911 H1881 0.950 . S
C1911 C1906 1.363 . S
C1911 C1910 1.415 . S
H1912 C1909 0.999 . S
H1913 C1894 0.913 . S
H1914 C1932 0.951 1_455 S
H1915 C1934 0.951 . S
H1916 C1936 0.950 . S
H1917 C1937 0.950 . S
H1918 C1939 0.950 . S
H1919 C1942 0.950 . S
H1920 C1943 0.950 . S
H1921 C1945 0.950 . S
H1922 C1946 0.950 . S
H1923 C1947 0.951 . S
H1924 C1949 0.951 . S
H1925 C1951 0.950 . S
H1926 C1952 0.950 . S
H1927 C1954 0.950 . S
H1928 C1957 0.950 . S
H1929 C1958 0.950 . S
H1930 C1960 0.950 . S
H1931 C1961 0.950 . S
C1932 H1914 0.951 1_655 S
C1932 C1933 1.366 . S
C1932 C1934 1.388 . S
C1933 C1932 1.366 . S
C1933 C1937 1.385 . S
C1934 H1915 0.951 . S
C1934 C1932 1.388 . S
C1934 C1935 1.366 . S
C1935 C1934 1.366 . S
C1935 C1936 1.414 . S
C1935 C1938 1.499 . S
C1936 H1916 0.950 . S
C1936 C1935 1.414 . S
C1936 C1937 1.374 . S
C1937 H1917 0.950 . S
C1937 C1933 1.385 . S
C1937 C1936 1.374 . S
C1938 C1935 1.499 . S
C1938 C1939 1.373 . S
C1938 C1940 1.389 . S
C1939 H1918 0.950 . S
C1939 C1938 1.373 . S
C1939 C1955 1.377 . S
C1940 C1938 1.389 . S
C1940 C1941 1.524 . S
C1940 C1954 1.377 . S
C1941 C1940 1.524 . S
C1941 C1942 1.397 . S
C1941 C1946 1.363 . S
C1942 H1919 0.950 . S
C1942 C1941 1.397 . S
C1942 C1943 1.334 . S
C1943 H1920 0.950 . S
C1943 C1942 1.334 . S
C1943 C1944 1.287 1_655 S
C1944 C1943 1.287 1_455 S
C1944 C1945 1.524 . S
C1944 H1963 0.913 . S
C1945 H1921 0.950 . S
C1945 C1944 1.524 . S
C1945 C1946 1.415 1_455 S
C1946 H1922 0.950 . S
C1946 C1941 1.363 . S
C1946 C1945 1.415 1_655 S
C1947 H1923 0.951 . S
C1947 C1948 1.366 . S
C1947 C1949 1.388 . S
C1948 C1947 1.366 . S
C1948 C1952 1.385 . S
C1949 H1924 0.951 . S
C1949 C1947 1.388 . S
C1949 C1950 1.366 . S
C1950 C1949 1.366 . S
C1950 C1951 1.414 . S
C1950 C1953 1.499 . S
C1951 H1925 0.950 . S
C1951 C1950 1.414 . S
C1951 C1952 1.374 . S
C1952 H1926 0.950 . S
C1952 C1948 1.385 . S
C1952 C1951 1.374 . S
C1953 C1950 1.499 . S
C1953 C1954 1.373 . S
C1953 C1955 1.389 . S
C1954 H1927 0.950 . S
C1954 C1940 1.377 . S
C1954 C1953 1.373 . S
C1955 C1939 1.377 . S
C1955 C1953 1.389 . S
C1955 C1956 1.524 . S
C1956 C1955 1.524 . S
C1956 C1957 1.397 . S
C1956 C1961 1.363 . S
C1957 H1928 0.950 . S
C1957 C1956 1.397 . S
C1957 C1958 1.334 . S
C1958 H1929 0.950 . S
C1958 C1957 1.334 . S
C1958 C1959 1.287 . S
C1959 C1958 1.287 . S
C1959 C1960 1.524 . S
C1959 H1962 0.999 . S
C1960 H1930 0.950 . S
C1960 C1959 1.524 . S
C1960 C1961 1.415 . S
C1961 H1931 0.950 . S
C1961 C1956 1.363 . S
C1961 C1960 1.415 . S
H1962 C1959 0.999 . S
H1963 C1944 0.913 . S
H1964 C1982 0.951 . S
H1965 C1984 0.951 . S
H1966 C1986 0.950 . S
H1967 C1987 0.950 . S
H1968 C1989 0.950 . S
H1969 C1992 0.950 . S
H1970 C1993 0.950 . S
H1971 C1995 0.950 . S
H1972 C1996 0.950 . S
H1973 C1997 0.951 . S
H1974 C1999 0.951 . S
H1975 C2001 0.950 . S
H1976 C2002 0.950 . S
H1977 C2004 0.950 . S
H1978 C2007 0.950 1_556 S
H1979 C2008 0.950 . S
H1980 C2010 0.950 . S
H1981 C2011 0.950 . S
C1982 H1964 0.951 . S
C1982 C1983 1.366 . S
C1982 C1984 1.388 . S
C1983 C1982 1.366 . S
C1983 C1987 1.385 . S
C1984 H1965 0.951 . S
C1984 C1982 1.388 . S
C1984 C1985 1.366 . S
C1985 C1984 1.366 . S
C1985 C1986 1.414 . S
C1985 C1988 1.499 . S
C1986 H1966 0.950 . S
C1986 C1985 1.414 . S
C1986 C1987 1.374 . S
C1987 H1967 0.950 . S
C1987 C1983 1.385 . S
C1987 C1986 1.374 . S
C1988 C1985 1.499 . S
C1988 C1989 1.373 . S
C1988 C1990 1.389 1_554 S
C1989 H1968 0.950 . S
C1989 C1988 1.373 . S
C1989 C2005 1.363 1_554 S
C1990 C1988 1.389 1_556 S
C1990 C1991 1.524 . S
C1990 C2004 1.377 . S
C1991 C1990 1.524 . S
C1991 C1992 1.397 . S
C1991 C1996 1.363 . S
C1992 H1969 0.950 . S
C1992 C1991 1.397 . S
C1992 C1993 1.334 . S
C1993 H1970 0.950 . S
C1993 C1992 1.334 . S
C1993 C1994 1.287 . S
C1994 C1993 1.287 . S
C1994 C1995 1.524 . S
C1994 H2013 0.913 . S
C1995 H1971 0.950 . S
C1995 C1994 1.524 . S
C1995 C1996 1.415 . S
C1996 H1972 0.950 . S
C1996 C1991 1.363 . S
C1996 C1995 1.415 . S
C1997 H1973 0.951 . S
C1997 C1998 1.366 . S
C1997 C1999 1.388 . S
C1998 C1997 1.366 . S
C1998 C2002 1.385 . S
C1999 H1974 0.951 . S
C1999 C1997 1.388 . S
C1999 C2000 1.366 . S
C2000 C1999 1.366 . S
C2000 C2001 1.414 . S
C2000 C2003 1.499 . S
C2001 H1975 0.950 . S
C2001 C2000 1.414 . S
C2001 C2002 1.374 . S
C2002 H1976 0.950 . S
C2002 C1998 1.385 . S
C2002 C2001 1.374 . S
C2003 C2000 1.499 . S
C2003 C2004 1.373 . S
C2003 C2005 1.412 . S
C2004 H1977 0.950 . S
C2004 C1990 1.377 . S
C2004 C2003 1.373 . S
C2005 C1989 1.363 1_556 S
C2005 C2003 1.412 . S
C2005 C2006 1.513 1_556 S
C2006 C2005 1.513 1_554 S
C2006 C2007 1.397 . S
C2006 C2011 1.363 . S
C2007 H1978 0.950 1_554 S
C2007 C2006 1.397 . S
C2007 C2008 1.334 1_655 S
C2008 H1979 0.950 . S
C2008 C2007 1.334 1_455 S
C2008 C2009 1.287 . S
C2009 C2008 1.287 . S
C2009 C2010 1.524 1_455 S
C2009 H2012 0.999 . S
C2010 H1980 0.950 . S
C2010 C2009 1.524 1_655 S
C2010 C2011 1.415 . S
C2011 H1981 0.950 . S
C2011 C2006 1.363 . S
C2011 C2010 1.415 . S
H2012 C2009 0.999 . S
H2013 C1994 0.913 . S
H2014 C2032 0.951 . S
H2015 C2034 0.951 . S
H2016 C2036 0.950 . S
H2017 C2037 0.950 . S
H2018 C2039 0.950 . S
H2019 C2042 0.950 . S
H2020 C2043 0.950 . S
H2021 C2045 0.950 . S
H2022 C2046 0.950 . S
H2023 C2047 0.951 . S
H2024 C2049 0.951 . S
H2025 C2051 0.950 . S
H2026 C2052 0.950 . S
H2027 C2054 0.950 . S
H2028 C2057 0.950 . S
H2029 C2058 0.950 . S
H2030 C2060 0.950 . S
H2031 C2061 0.950 . S
C2032 H2014 0.951 . S
C2032 C2033 1.366 . S
C2032 C2034 1.388 . S
C2033 C2032 1.366 . S
C2033 C2037 1.385 . S
C2034 H2015 0.951 . S
C2034 C2032 1.388 . S
C2034 C2035 1.366 . S
C2035 C2034 1.366 . S
C2035 C2036 1.414 . S
C2035 C2038 1.499 . S
C2036 H2016 0.950 . S
C2036 C2035 1.414 . S
C2036 C2037 1.374 . S
C2037 H2017 0.950 . S
C2037 C2033 1.385 . S
C2037 C2036 1.374 . S
C2038 C2035 1.499 . S
C2038 C2039 1.373 . S
C2038 C2040 1.389 . S
C2039 H2018 0.950 . S
C2039 C2038 1.373 . S
C2039 C2055 1.377 . S
C2040 C2038 1.389 . S
C2040 C2041 1.524 . S
C2040 C2054 1.377 . S
C2041 C2040 1.524 . S
C2041 C2042 1.397 . S
C2041 C2046 1.363 . S
C2042 H2019 0.950 . S
C2042 C2041 1.397 . S
C2042 C2043 1.334 . S
C2043 H2020 0.950 . S
C2043 C2042 1.334 . S
C2043 C2044 1.287 . S
C2044 C2043 1.287 . S
C2044 C2045 1.524 . S
C2044 H2063 0.913 . S
C2045 H2021 0.950 . S
C2045 C2044 1.524 . S
C2045 C2046 1.415 . S
C2046 H2022 0.950 . S
C2046 C2041 1.363 . S
C2046 C2045 1.415 . S
C2047 H2023 0.951 . S
C2047 C2048 1.366 . S
C2047 C2049 1.388 . S
C2048 C2047 1.366 . S
C2048 C2052 1.385 . S
C2049 H2024 0.951 . S
C2049 C2047 1.388 . S
C2049 C2050 1.366 . S
C2050 C2049 1.366 . S
C2050 C2051 1.414 . S
C2050 C2053 1.499 . S
C2051 H2025 0.950 . S
C2051 C2050 1.414 . S
C2051 C2052 1.374 . S
C2052 H2026 0.950 . S
C2052 C2048 1.385 . S
C2052 C2051 1.374 . S
C2053 C2050 1.499 . S
C2053 C2054 1.373 . S
C2053 C2055 1.389 . S
C2054 H2027 0.950 . S
C2054 C2040 1.377 . S
C2054 C2053 1.373 . S
C2055 C2039 1.377 . S
C2055 C2053 1.389 . S
C2055 C2056 1.524 . S
C2056 C2055 1.524 . S
C2056 C2057 1.397 . S
C2056 C2061 1.363 . S
C2057 H2028 0.950 . S
C2057 C2056 1.397 . S
C2057 C2058 1.334 . S
C2058 H2029 0.950 . S
C2058 C2057 1.334 . S
C2058 C2059 1.287 . S
C2059 C2058 1.287 . S
C2059 C2060 1.524 . S
C2059 H2062 0.999 . S
C2060 H2030 0.950 . S
C2060 C2059 1.524 . S
C2060 C2061 1.415 . S
C2061 H2031 0.950 . S
C2061 C2056 1.363 . S
C2061 C2060 1.415 . S
H2062 C2059 0.999 . S
H2063 C2044 0.913 . S
H2064 C2082 0.951 . S
H2065 C2084 0.951 . S
H2066 C2086 0.950 . S
H2067 C2087 0.950 . S
H2068 C2089 0.950 . S
H2069 C2092 0.950 . S
H2070 C2093 0.950 . S
H2071 C2095 0.950 . S
H2072 C2096 0.950 . S
H2073 C2097 0.951 . S
H2074 C2099 0.951 . S
H2075 C2101 0.950 . S
H2076 C2102 0.950 . S
H2077 C2104 0.950 . S
H2078 C2107 0.950 . S
H2079 C2108 0.950 . S
H2080 C2110 0.950 . S
H2081 C2111 0.950 . S
C2082 H2064 0.951 . S
C2082 C2083 1.366 . S
C2082 C2084 1.388 . S
C2083 C2082 1.366 . S
C2083 C2087 1.385 . S
C2084 H2065 0.951 . S
C2084 C2082 1.388 . S
C2084 C2085 1.366 . S
C2085 C2084 1.366 . S
C2085 C2086 1.414 . S
C2085 C2088 1.499 . S
C2086 H2066 0.950 . S
C2086 C2085 1.414 . S
C2086 C2087 1.374 . S
C2087 H2067 0.950 . S
C2087 C2083 1.385 . S
C2087 C2086 1.374 . S
C2088 C2085 1.499 . S
C2088 C2089 1.373 . S
C2088 C2090 1.389 . S
C2089 H2068 0.950 . S
C2089 C2088 1.373 . S
C2089 C2105 1.377 . S
C2090 C2088 1.389 . S
C2090 C2091 1.524 . S
C2090 C2104 1.377 . S
C2091 C2090 1.524 . S
C2091 C2092 1.397 . S
C2091 C2096 1.363 . S
C2092 H2069 0.950 . S
C2092 C2091 1.397 . S
C2092 C2093 1.334 . S
C2093 H2070 0.950 . S
C2093 C2092 1.334 . S
C2093 C2094 1.287 . S
C2094 C2093 1.287 . S
C2094 C2095 1.524 . S
C2094 H2113 0.913 . S
C2095 H2071 0.950 . S
C2095 C2094 1.524 . S
C2095 C2096 1.415 . S
C2096 H2072 0.950 . S
C2096 C2091 1.363 . S
C2096 C2095 1.415 . S
C2097 H2073 0.951 . S
C2097 C2098 1.366 . S
C2097 C2099 1.388 . S
C2098 C2097 1.366 . S
C2098 C2102 1.385 . S
C2099 H2074 0.951 . S
C2099 C2097 1.388 . S
C2099 C2100 1.366 . S
C2100 C2099 1.366 . S
C2100 C2101 1.414 . S
C2100 C2103 1.499 . S
C2101 H2075 0.950 . S
C2101 C2100 1.414 . S
C2101 C2102 1.374 . S
C2102 H2076 0.950 . S
C2102 C2098 1.385 . S
C2102 C2101 1.374 . S
C2103 C2100 1.499 . S
C2103 C2104 1.373 . S
C2103 C2105 1.389 . S
C2104 H2077 0.950 . S
C2104 C2090 1.377 . S
C2104 C2103 1.373 . S
C2105 C2089 1.377 . S
C2105 C2103 1.389 . S
C2105 C2106 1.524 . S
C2106 C2105 1.524 . S
C2106 C2107 1.397 . S
C2106 C2111 1.363 . S
C2107 H2078 0.950 . S
C2107 C2106 1.397 . S
C2107 C2108 1.334 . S
C2108 H2079 0.950 . S
C2108 C2107 1.334 . S
C2108 C2109 1.287 . S
C2109 C2108 1.287 . S
C2109 C2110 1.524 . S
C2109 H2112 0.999 . S
C2110 H2080 0.950 . S
C2110 C2109 1.524 . S
C2110 C2111 1.415 . S
C2111 H2081 0.950 . S
C2111 C2106 1.363 . S
C2111 C2110 1.415 . S
H2112 C2109 0.999 . S
H2113 C2094 0.913 . S
H2114 C2132 0.951 . S
H2115 C2134 0.951 . S
H2116 C2136 0.950 . S
H2117 C2137 0.950 . S
H2118 C2139 0.950 . S
H2119 C2142 0.950 . S
H2120 C2143 0.950 . S
H2121 C2145 0.950 . S
H2122 C2146 0.950 . S
H2123 C2147 0.951 . S
H2124 C2149 0.951 . S
H2125 C2151 0.950 . S
H2126 C2152 0.950 . S
H2127 C2154 0.950 . S
H2128 C2157 0.950 . S
H2129 C2158 0.950 . S
H2130 C2160 0.950 . S
H2131 C2161 0.950 . S
C2132 H2114 0.951 . S
C2132 C2133 1.366 . S
C2132 C2134 1.388 . S
C2133 C2132 1.366 . S
C2133 C2137 1.385 . S
C2134 H2115 0.951 . S
C2134 C2132 1.388 . S
C2134 C2135 1.366 . S
C2135 C2134 1.366 . S
C2135 C2136 1.414 . S
C2135 C2138 1.499 . S
C2136 H2116 0.950 . S
C2136 C2135 1.414 . S
C2136 C2137 1.374 . S
C2137 H2117 0.950 . S
C2137 C2133 1.385 . S
C2137 C2136 1.374 . S
C2138 C2135 1.499 . S
C2138 C2139 1.373 . S
C2138 C2140 1.389 . S
C2139 H2118 0.950 . S
C2139 C2138 1.373 . S
C2139 C2155 1.377 . S
C2140 C2138 1.389 . S
C2140 C2141 1.524 . S
C2140 C2154 1.377 . S
C2141 C2140 1.524 . S
C2141 C2142 1.397 . S
C2141 C2146 1.363 . S
C2142 H2119 0.950 . S
C2142 C2141 1.397 . S
C2142 C2143 1.334 . S
C2143 H2120 0.950 . S
C2143 C2142 1.334 . S
C2143 C2144 1.287 . S
C2144 C2143 1.287 . S
C2144 C2145 1.524 . S
C2144 H2163 0.913 . S
C2145 H2121 0.950 . S
C2145 C2144 1.524 . S
C2145 C2146 1.415 . S
C2146 H2122 0.950 . S
C2146 C2141 1.363 . S
C2146 C2145 1.415 . S
C2147 H2123 0.951 . S
C2147 C2148 1.366 . S
C2147 C2149 1.388 . S
C2148 C2147 1.366 . S
C2148 C2152 1.385 . S
C2149 H2124 0.951 . S
C2149 C2147 1.388 . S
C2149 C2150 1.366 . S
C2150 C2149 1.366 . S
C2150 C2151 1.414 . S
C2150 C2153 1.499 . S
C2151 H2125 0.950 . S
C2151 C2150 1.414 . S
C2151 C2152 1.374 . S
C2152 H2126 0.950 . S
C2152 C2148 1.385 . S
C2152 C2151 1.374 . S
C2153 C2150 1.499 . S
C2153 C2154 1.373 . S
C2153 C2155 1.389 . S
C2154 H2127 0.950 . S
C2154 C2140 1.377 . S
C2154 C2153 1.373 . S
C2155 C2139 1.377 . S
C2155 C2153 1.389 . S
C2155 C2156 1.524 . S
C2156 C2155 1.524 . S
C2156 C2157 1.397 . S
C2156 C2161 1.363 . S
C2157 H2128 0.950 . S
C2157 C2156 1.397 . S
C2157 C2158 1.334 . S
C2158 H2129 0.950 . S
C2158 C2157 1.334 . S
C2158 C2159 1.287 . S
C2159 C2158 1.287 . S
C2159 C2160 1.524 . S
C2159 H2162 0.999 . S
C2160 H2130 0.950 . S
C2160 C2159 1.524 . S
C2160 C2161 1.415 . S
C2161 H2131 0.950 . S
C2161 C2156 1.363 . S
C2161 C2160 1.415 . S
H2162 C2159 0.999 . S
H2163 C2144 0.913 . S
H2164 C2182 0.951 . S
H2165 C2184 0.951 . S
H2166 C2186 0.950 . S
H2167 C2187 0.950 . S
H2168 C2189 0.950 . S
H2169 C2192 0.950 . S
H2170 C2193 0.950 . S
H2171 C2195 0.950 . S
H2172 C2196 0.950 . S
H2173 C2197 0.951 . S
H2174 C2199 0.951 . S
H2175 C2201 0.950 . S
H2176 C2202 0.950 . S
H2177 C2204 0.950 . S
H2178 C2207 0.950 . S
H2179 C2208 0.950 . S
H2180 C2210 0.950 . S
H2181 C2211 0.950 1_556 S
C2182 H2164 0.951 . S
C2182 C2183 1.366 . S
C2182 C2184 1.388 . S
C2183 C2182 1.366 . S
C2183 C2187 1.385 . S
C2184 H2165 0.951 . S
C2184 C2182 1.388 . S
C2184 C2185 1.366 . S
C2185 C2184 1.366 . S
C2185 C2186 1.414 . S
C2185 C2188 1.499 . S
C2186 H2166 0.950 . S
C2186 C2185 1.414 . S
C2186 C2187 1.374 . S
C2187 H2167 0.950 . S
C2187 C2183 1.385 . S
C2187 C2186 1.374 . S
C2188 C2185 1.499 . S
C2188 C2189 1.373 . S
C2188 C2190 1.389 . S
C2189 H2168 0.950 . S
C2189 C2188 1.373 . S
C2189 C2205 1.377 . S
C2190 C2188 1.389 . S
C2190 C2191 1.524 . S
C2190 C2204 1.377 . S
C2191 C2190 1.524 . S
C2191 C2192 1.397 . S
C2191 C2196 1.363 . S
C2192 H2169 0.950 . S
C2192 C2191 1.397 . S
C2192 C2193 1.334 . S
C2193 H2170 0.950 . S
C2193 C2192 1.334 . S
C2193 C2194 1.287 . S
C2194 C2193 1.287 . S
C2194 C2195 1.524 . S
C2194 H2213 0.913 . S
C2195 H2171 0.950 . S
C2195 C2194 1.524 . S
C2195 C2196 1.415 . S
C2196 H2172 0.950 . S
C2196 C2191 1.363 . S
C2196 C2195 1.415 . S
C2197 H2173 0.951 . S
C2197 C2198 1.366 . S
C2197 C2199 1.388 . S
C2198 C2197 1.366 . S
C2198 C2202 1.385 . S
C2199 H2174 0.951 . S
C2199 C2197 1.388 . S
C2199 C2200 1.366 . S
C2200 C2199 1.366 . S
C2200 C2201 1.414 . S
C2200 C2203 1.499 1_554 S
C2201 H2175 0.950 . S
C2201 C2200 1.414 . S
C2201 C2202 1.374 . S
C2202 H2176 0.950 . S
C2202 C2198 1.385 . S
C2202 C2201 1.374 . S
C2203 C2200 1.499 1_556 S
C2203 C2204 1.373 . S
C2203 C2205 1.389 . S
C2204 H2177 0.950 . S
C2204 C2190 1.377 . S
C2204 C2203 1.373 . S
C2205 C2189 1.377 . S
C2205 C2203 1.389 . S
C2205 C2206 1.524 1_556 S
C2206 C2205 1.524 1_554 S
C2206 C2207 1.397 . S
C2206 C2211 1.363 . S
C2207 H2178 0.950 . S
C2207 C2206 1.397 . S
C2207 C2208 1.334 . S
C2208 H2179 0.950 . S
C2208 C2207 1.334 . S
C2208 C2209 1.287 . S
C2209 C2208 1.287 . S
C2209 C2210 1.524 . S
C2209 H2212 0.999 . S
C2210 H2180 0.950 . S
C2210 C2209 1.524 . S
C2210 C2211 1.415 . S
C2211 H2181 0.950 1_554 S
C2211 C2206 1.363 . S
C2211 C2210 1.415 . S
H2212 C2209 0.999 . S
H2213 C2194 0.913 . S
H2214 C2232 0.951 . S
H2215 C2234 0.951 . S
H2216 C2236 0.950 . S
H2217 C2237 0.950 . S
H2218 C2239 0.950 . S
H2219 C2242 0.950 . S
H2220 C2243 0.950 . S
H2221 C2245 0.950 . S
H2222 C2246 0.950 . S
H2223 C2247 0.951 . S
H2224 C2249 0.951 . S
H2225 C2251 0.950 . S
H2226 C2252 0.950 . S
H2227 C2254 0.950 . S
H2228 C2257 0.950 . S
H2229 C2258 0.950 . S
H2230 C2260 0.950 . S
H2231 C2261 0.950 . S
C2232 H2214 0.951 . S
C2232 C2233 1.366 . S
C2232 C2234 1.388 . S
C2233 C2232 1.366 . S
C2233 C2237 1.385 . S
C2234 H2215 0.951 . S
C2234 C2232 1.388 . S
C2234 C2235 1.366 . S
C2235 C2234 1.366 . S
C2235 C2236 1.414 . S
C2235 C2238 1.499 . S
C2236 H2216 0.950 . S
C2236 C2235 1.414 . S
C2236 C2237 1.374 . S
C2237 H2217 0.950 . S
C2237 C2233 1.385 . S
C2237 C2236 1.374 . S
C2238 C2235 1.499 . S
C2238 C2239 1.373 . S
C2238 C2240 1.389 . S
C2239 H2218 0.950 . S
C2239 C2238 1.373 . S
C2239 C2255 1.377 . S
C2240 C2238 1.389 . S
C2240 C2241 1.524 . S
C2240 C2254 1.377 . S
C2241 C2240 1.524 . S
C2241 C2242 1.397 . S
C2241 C2246 1.363 . S
C2242 H2219 0.950 . S
C2242 C2241 1.397 . S
C2242 C2243 1.334 . S
C2243 H2220 0.950 . S
C2243 C2242 1.334 . S
C2243 C2244 1.287 . S
C2244 C2243 1.287 . S
C2244 C2245 1.524 . S
C2244 H2263 0.913 . S
C2245 H2221 0.950 . S
C2245 C2244 1.524 . S
C2245 C2246 1.415 . S
C2246 H2222 0.950 . S
C2246 C2241 1.363 . S
C2246 C2245 1.415 . S
C2247 H2223 0.951 . S
C2247 C2248 1.366 . S
C2247 C2249 1.388 . S
C2248 C2247 1.366 . S
C2248 C2252 1.385 . S
C2249 H2224 0.951 . S
C2249 C2247 1.388 . S
C2249 C2250 1.366 . S
C2250 C2249 1.366 . S
C2250 C2251 1.414 . S
C2250 C2253 1.499 . S
C2251 H2225 0.950 . S
C2251 C2250 1.414 . S
C2251 C2252 1.374 . S
C2252 H2226 0.950 . S
C2252 C2248 1.385 . S
C2252 C2251 1.374 . S
C2253 C2250 1.499 . S
C2253 C2254 1.373 . S
C2253 C2255 1.389 . S
C2254 H2227 0.950 . S
C2254 C2240 1.377 . S
C2254 C2253 1.373 . S
C2255 C2239 1.377 . S
C2255 C2253 1.389 . S
C2255 C2256 1.524 . S
C2256 C2255 1.524 . S
C2256 C2257 1.397 . S
C2256 C2261 1.363 . S
C2257 H2228 0.950 . S
C2257 C2256 1.397 . S
C2257 C2258 1.334 . S
C2258 H2229 0.950 . S
C2258 C2257 1.334 . S
C2258 C2259 1.287 . S
C2259 C2258 1.287 . S
C2259 C2260 1.524 . S
C2259 H2262 0.999 . S
C2260 H2230 0.950 . S
C2260 C2259 1.524 . S
C2260 C2261 1.415 . S
C2261 H2231 0.950 . S
C2261 C2256 1.363 . S
C2261 C2260 1.415 . S
H2262 C2259 0.999 . S
H2263 C2244 0.913 . S
H2264 C2282 0.951 . S
H2265 C2284 0.951 . S
H2266 C2286 0.950 . S
H2267 C2287 0.950 . S
H2268 C2289 0.950 . S
H2269 C2292 0.950 . S
H2270 C2293 0.950 . S
H2271 C2295 0.950 . S
H2272 C2296 0.950 . S
H2273 C2297 0.951 . S
H2274 C2299 0.951 . S
H2275 C2301 0.950 . S
H2276 C2302 0.950 . S
H2277 C2304 0.950 . S
H2278 C2307 0.950 . S
H2279 C2308 0.950 . S
H2280 C2310 0.950 . S
H2281 C2311 0.950 . S
C2282 H2264 0.951 . S
C2282 C2283 1.366 . S
C2282 C2284 1.388 . S
C2283 C2282 1.366 . S
C2283 C2287 1.385 . S
C2284 H2265 0.951 . S
C2284 C2282 1.388 . S
C2284 C2285 1.366 . S
C2285 C2284 1.366 . S
C2285 C2286 1.414 . S
C2285 C2288 1.499 . S
C2286 H2266 0.950 . S
C2286 C2285 1.414 . S
C2286 C2287 1.374 . S
C2287 H2267 0.950 . S
C2287 C2283 1.385 . S
C2287 C2286 1.374 . S
C2288 C2285 1.499 . S
C2288 C2289 1.373 . S
C2288 C2290 1.389 . S
C2289 H2268 0.950 . S
C2289 C2288 1.373 . S
C2289 C2305 1.377 . S
C2290 C2288 1.389 . S
C2290 C2291 1.524 . S
C2290 C2304 1.377 . S
C2291 C2290 1.524 . S
C2291 C2292 1.397 . S
C2291 C2296 1.363 . S
C2292 H2269 0.950 . S
C2292 C2291 1.397 . S
C2292 C2293 1.334 . S
C2293 H2270 0.950 . S
C2293 C2292 1.334 . S
C2293 C2294 1.287 . S
C2294 C2293 1.287 . S
C2294 C2295 1.524 . S
C2294 H2313 0.913 . S
C2295 H2271 0.950 . S
C2295 C2294 1.524 . S
C2295 C2296 1.415 . S
C2296 H2272 0.950 . S
C2296 C2291 1.363 . S
C2296 C2295 1.415 . S
C2297 H2273 0.951 . S
C2297 C2298 1.366 . S
C2297 C2299 1.388 . S
C2298 C2297 1.366 . S
C2298 C2302 1.385 . S
C2299 H2274 0.951 . S
C2299 C2297 1.388 . S
C2299 C2300 1.366 . S
C2300 C2299 1.366 . S
C2300 C2301 1.414 . S
C2300 C2303 1.499 . S
C2301 H2275 0.950 . S
C2301 C2300 1.414 . S
C2301 C2302 1.374 . S
C2302 H2276 0.950 . S
C2302 C2298 1.385 . S
C2302 C2301 1.374 . S
C2303 C2300 1.499 . S
C2303 C2304 1.373 . S
C2303 C2305 1.389 . S
C2304 H2277 0.950 . S
C2304 C2290 1.377 . S
C2304 C2303 1.373 . S
C2305 C2289 1.377 . S
C2305 C2303 1.389 . S
C2305 C2306 1.524 . S
C2306 C2305 1.524 . S
C2306 C2307 1.397 . S
C2306 C2311 1.363 . S
C2307 H2278 0.950 . S
C2307 C2306 1.397 . S
C2307 C2308 1.334 . S
C2308 H2279 0.950 . S
C2308 C2307 1.334 . S
C2308 C2309 1.287 . S
C2309 C2308 1.287 . S
C2309 C2310 1.524 . S
C2309 H2312 0.999 . S
C2310 H2280 0.950 . S
C2310 C2309 1.524 . S
C2310 C2311 1.415 . S
C2311 H2281 0.950 . S
C2311 C2306 1.363 . S
C2311 C2310 1.415 . S
H2312 C2309 0.999 . S
H2313 C2294 0.913 . S
H2314 C2332 0.951 . S
H2315 C2334 0.951 . S
H2316 C2336 0.950 . S
H2317 C2337 0.950 . S
H2318 C2339 0.950 . S
H2319 C2342 0.950 . S
H2320 C2343 0.950 . S
H2321 C2345 0.950 . S
H2322 C2346 0.950 . S
H2323 C2347 0.951 . S
H2324 C2349 0.951 . S
H2325 C2351 0.950 . S
H2326 C2352 0.950 . S
H2327 C2354 0.950 . S
H2328 C2357 0.950 . S
H2329 C2358 0.950 . S
H2330 C2360 0.950 . S
H2331 C2361 0.950 . S
C2332 H2314 0.951 . S
C2332 C2333 1.366 . S
C2332 C2334 1.388 . S
C2333 C2332 1.366 . S
C2333 C2337 1.385 . S
C2334 H2315 0.951 . S
C2334 C2332 1.388 . S
C2334 C2335 1.366 . S
C2335 C2334 1.366 . S
C2335 C2336 1.414 . S
C2335 C2338 1.499 . S
C2336 H2316 0.950 . S
C2336 C2335 1.414 . S
C2336 C2337 1.374 . S
C2337 H2317 0.950 . S
C2337 C2333 1.385 . S
C2337 C2336 1.374 . S
C2338 C2335 1.499 . S
C2338 C2339 1.373 . S
C2338 C2340 1.389 . S
C2339 H2318 0.950 . S
C2339 C2338 1.373 . S
C2339 C2355 1.377 . S
C2340 C2338 1.389 . S
C2340 C2341 1.524 . S
C2340 C2354 1.377 . S
C2341 C2340 1.524 . S
C2341 C2342 1.397 . S
C2341 C2346 1.363 . S
C2342 H2319 0.950 . S
C2342 C2341 1.397 . S
C2342 C2343 1.334 . S
C2343 H2320 0.950 . S
C2343 C2342 1.334 . S
C2343 C2344 1.287 . S
C2344 C2343 1.287 . S
C2344 C2345 1.524 . S
C2344 H2363 0.913 . S
C2345 H2321 0.950 . S
C2345 C2344 1.524 . S
C2345 C2346 1.415 . S
C2346 H2322 0.950 . S
C2346 C2341 1.363 . S
C2346 C2345 1.415 . S
C2347 H2323 0.951 . S
C2347 C2348 1.366 . S
C2347 C2349 1.388 . S
C2348 C2347 1.366 . S
C2348 C2352 1.385 . S
C2349 H2324 0.951 . S
C2349 C2347 1.388 . S
C2349 C2350 1.366 . S
C2350 C2349 1.366 . S
C2350 C2351 1.414 . S
C2350 C2353 1.499 . S
C2351 H2325 0.950 . S
C2351 C2350 1.414 . S
C2351 C2352 1.374 . S
C2352 H2326 0.950 . S
C2352 C2348 1.385 . S
C2352 C2351 1.374 . S
C2353 C2350 1.499 . S
C2353 C2354 1.373 . S
C2353 C2355 1.389 . S
C2354 H2327 0.950 . S
C2354 C2340 1.377 . S
C2354 C2353 1.373 . S
C2355 C2339 1.377 . S
C2355 C2353 1.389 . S
C2355 C2356 1.524 . S
C2356 C2355 1.524 . S
C2356 C2357 1.397 . S
C2356 C2361 1.363 . S
C2357 H2328 0.950 . S
C2357 C2356 1.397 . S
C2357 C2358 1.334 . S
C2358 H2329 0.950 . S
C2358 C2357 1.334 . S
C2358 C2359 1.287 . S
C2359 C2358 1.287 . S
C2359 C2360 1.524 . S
C2359 H2362 0.999 . S
C2360 H2330 0.950 . S
C2360 C2359 1.524 . S
C2360 C2361 1.415 . S
C2361 H2331 0.950 . S
C2361 C2356 1.363 . S
C2361 C2360 1.415 . S
H2362 C2359 0.999 . S
H2363 C2344 0.913 . S
H2364 C2382 0.951 . S
H2365 C2384 0.951 . S
H2366 C2386 0.950 . S
H2367 C2387 0.950 . S
H2368 C2389 0.950 . S
H2369 C2392 0.950 . S
H2370 C2393 0.950 . S
H2371 C2395 0.950 . S
H2372 C2396 0.950 . S
H2373 C2397 0.951 . S
H2374 C2399 0.951 . S
H2375 C2401 0.950 1_554 S
H2376 C2402 0.950 . S
H2377 C2404 0.950 . S
H2378 C2407 0.950 . S
H2379 C2408 0.950 . S
H2380 C2410 0.950 . S
H2381 C2411 0.950 . S
C2382 H2364 0.951 . S
C2382 C2383 1.366 . S
C2382 C2384 1.388 . S
C2383 C2382 1.366 . S
C2383 C2387 1.385 . S
C2384 H2365 0.951 . S
C2384 C2382 1.388 . S
C2384 C2385 1.366 . S
C2385 C2384 1.366 . S
C2385 C2386 1.414 . S
C2385 C2388 1.499 . S
C2386 H2366 0.950 . S
C2386 C2385 1.414 . S
C2386 C2387 1.374 . S
C2387 H2367 0.950 . S
C2387 C2383 1.385 . S
C2387 C2386 1.374 . S
C2388 C2385 1.499 . S
C2388 C2389 1.373 . S
C2388 C2390 1.389 . S
C2389 H2368 0.950 . S
C2389 C2388 1.373 . S
C2389 C2405 1.377 . S
C2390 C2388 1.389 . S
C2390 C2391 1.524 . S
C2390 C2404 1.377 . S
C2391 C2390 1.524 . S
C2391 C2392 1.397 . S
C2391 C2396 1.363 . S
C2392 H2369 0.950 . S
C2392 C2391 1.397 . S
C2392 C2393 1.334 . S
C2393 H2370 0.950 . S
C2393 C2392 1.334 . S
C2393 C2394 1.287 . S
C2394 C2393 1.287 . S
C2394 C2395 1.524 . S
C2394 H2413 0.913 . S
C2395 H2371 0.950 . S
C2395 C2394 1.524 . S
C2395 C2396 1.415 . S
C2396 H2372 0.950 . S
C2396 C2391 1.363 . S
C2396 C2395 1.415 . S
C2397 H2373 0.951 . S
C2397 C2398 1.366 . S
C2397 C2399 1.388 . S
C2398 C2397 1.366 . S
C2398 C2402 1.385 . S
C2399 H2374 0.951 . S
C2399 C2397 1.388 . S
C2399 C2400 1.366 . S
C2400 C2399 1.366 . S
C2400 C2401 1.414 . S
C2400 C2403 1.499 1_556 S
C2401 H2375 0.950 1_556 S
C2401 C2400 1.414 . S
C2401 C2402 1.374 . S
C2402 H2376 0.950 . S
C2402 C2398 1.385 . S
C2402 C2401 1.374 . S
C2403 C2400 1.499 1_554 S
C2403 C2404 1.373 . S
C2403 C2405 1.389 . S
C2404 H2377 0.950 . S
C2404 C2390 1.377 . S
C2404 C2403 1.373 . S
C2405 C2389 1.377 . S
C2405 C2403 1.389 . S
C2405 C2406 1.524 . S
C2406 C2405 1.524 . S
C2406 C2407 1.397 . S
C2406 C2411 1.363 1_554 S
C2407 H2378 0.950 . S
C2407 C2406 1.397 . S
C2407 C2408 1.334 1_554 S
C2408 H2379 0.950 . S
C2408 C2407 1.334 1_556 S
C2408 C2409 1.287 . S
C2409 C2408 1.287 . S
C2409 C2410 1.524 . S
C2409 H2412 0.999 . S
C2410 H2380 0.950 . S
C2410 C2409 1.524 . S
C2410 C2411 1.415 . S
C2411 H2381 0.950 . S
C2411 C2406 1.363 1_556 S
C2411 C2410 1.415 . S
H2412 C2409 0.999 . S
H2413 C2394 0.913 . S
H2414 C2432 0.951 . S
H2415 C2434 0.951 . S
H2416 C2436 0.950 . S
H2417 C2437 0.950 . S
H2418 C2439 0.950 . S
H2419 C2442 0.950 . S
H2420 C2443 0.950 . S
H2421 C2445 0.950 . S
H2422 C2446 0.950 . S
H2423 C2447 0.951 . S
H2424 C2449 0.951 . S
H2425 C2451 0.950 . S
H2426 C2452 0.950 . S
H2427 C2454 0.950 . S
H2428 C2457 0.950 . S
H2429 C2458 0.950 . S
H2430 C2460 0.950 . S
H2431 C2461 0.950 . S
C2432 H2414 0.951 . S
C2432 C2433 1.366 . S
C2432 C2434 1.388 . S
C2433 C2432 1.366 . S
C2433 C2437 1.385 . S
C2434 H2415 0.951 . S
C2434 C2432 1.388 . S
C2434 C2435 1.366 . S
C2435 C2434 1.366 . S
C2435 C2436 1.414 . S
C2435 C2438 1.499 . S
C2436 H2416 0.950 . S
C2436 C2435 1.414 . S
C2436 C2437 1.374 . S
C2437 H2417 0.950 . S
C2437 C2433 1.385 . S
C2437 C2436 1.374 . S
C2438 C2435 1.499 . S
C2438 C2439 1.373 . S
C2438 C2440 1.389 . S
C2439 H2418 0.950 . S
C2439 C2438 1.373 . S
C2439 C2455 1.377 . S
C2440 C2438 1.389 . S
C2440 C2441 1.524 . S
C2440 C2454 1.377 . S
C2441 C2440 1.524 . S
C2441 C2442 1.397 . S
C2441 C2446 1.363 . S
C2442 H2419 0.950 . S
C2442 C2441 1.397 . S
C2442 C2443 1.334 . S
C2443 H2420 0.950 . S
C2443 C2442 1.334 . S
C2443 C2444 1.287 . S
C2444 C2443 1.287 . S
C2444 C2445 1.524 . S
C2444 H2463 0.913 . S
C2445 H2421 0.950 . S
C2445 C2444 1.524 . S
C2445 C2446 1.415 . S
C2446 H2422 0.950 . S
C2446 C2441 1.363 . S
C2446 C2445 1.415 . S
C2447 H2423 0.951 . S
C2447 C2448 1.366 . S
C2447 C2449 1.388 . S
C2448 C2447 1.366 . S
C2448 C2452 1.385 . S
C2449 H2424 0.951 . S
C2449 C2447 1.388 . S
C2449 C2450 1.366 . S
C2450 C2449 1.366 . S
C2450 C2451 1.414 . S
C2450 C2453 1.499 . S
C2451 H2425 0.950 . S
C2451 C2450 1.414 . S
C2451 C2452 1.374 . S
C2452 H2426 0.950 . S
C2452 C2448 1.385 . S
C2452 C2451 1.374 . S
C2453 C2450 1.499 . S
C2453 C2454 1.373 . S
C2453 C2455 1.389 . S
C2454 H2427 0.950 . S
C2454 C2440 1.377 . S
C2454 C2453 1.373 . S
C2455 C2439 1.377 . S
C2455 C2453 1.389 . S
C2455 C2456 1.524 . S
C2456 C2455 1.524 . S
C2456 C2457 1.397 . S
C2456 C2461 1.363 . S
C2457 H2428 0.950 . S
C2457 C2456 1.397 . S
C2457 C2458 1.334 . S
C2458 H2429 0.950 . S
C2458 C2457 1.334 . S
C2458 C2459 1.287 . S
C2459 C2458 1.287 . S
C2459 C2460 1.524 . S
C2459 H2462 0.999 . S
C2460 H2430 0.950 . S
C2460 C2459 1.524 . S
C2460 C2461 1.415 . S
C2461 H2431 0.950 . S
C2461 C2456 1.363 . S
C2461 C2460 1.415 . S
H2462 C2459 0.999 . S
H2463 C2444 0.913 . S
H2464 C2482 0.951 . S
H2465 C2484 0.951 . S
H2466 C2486 0.950 . S
H2467 C2487 0.950 . S
H2468 C2489 0.950 . S
H2469 C2492 0.950 . S
H2470 C2493 0.950 . S
H2471 C2495 0.950 . S
H2472 C2496 0.950 . S
H2473 C2497 0.951 . S
H2474 C2499 0.951 . S
H2475 C2501 0.950 . S
H2476 C2502 0.950 . S
H2477 C2504 0.950 . S
H2478 C2507 0.950 . S
H2479 C2508 0.950 . S
H2480 C2510 0.950 . S
H2481 C2511 0.950 . S
C2482 H2464 0.951 . S
C2482 C2483 1.366 . S
C2482 C2484 1.388 . S
C2483 C2482 1.366 . S
C2483 C2487 1.385 . S
C2484 H2465 0.951 . S
C2484 C2482 1.388 . S
C2484 C2485 1.366 . S
C2485 C2484 1.366 . S
C2485 C2486 1.414 . S
C2485 C2488 1.499 . S
C2486 H2466 0.950 . S
C2486 C2485 1.414 . S
C2486 C2487 1.374 . S
C2487 H2467 0.950 . S
C2487 C2483 1.385 . S
C2487 C2486 1.374 . S
C2488 C2485 1.499 . S
C2488 C2489 1.373 . S
C2488 C2490 1.389 . S
C2489 H2468 0.950 . S
C2489 C2488 1.373 . S
C2489 C2505 1.377 . S
C2490 C2488 1.389 . S
C2490 C2491 1.524 . S
C2490 C2504 1.377 . S
C2491 C2490 1.524 . S
C2491 C2492 1.397 . S
C2491 C2496 1.363 . S
C2492 H2469 0.950 . S
C2492 C2491 1.397 . S
C2492 C2493 1.334 . S
C2493 H2470 0.950 . S
C2493 C2492 1.334 . S
C2493 C2494 1.287 . S
C2494 C2493 1.287 . S
C2494 C2495 1.524 . S
C2494 H2513 0.913 . S
C2495 H2471 0.950 . S
C2495 C2494 1.524 . S
C2495 C2496 1.415 . S
C2496 H2472 0.950 . S
C2496 C2491 1.363 . S
C2496 C2495 1.415 . S
C2497 H2473 0.951 . S
C2497 C2498 1.366 . S
C2497 C2499 1.388 . S
C2498 C2497 1.366 . S
C2498 C2502 1.385 . S
C2499 H2474 0.951 . S
C2499 C2497 1.388 . S
C2499 C2500 1.366 . S
C2500 C2499 1.366 . S
C2500 C2501 1.414 . S
C2500 C2503 1.499 . S
C2501 H2475 0.950 . S
C2501 C2500 1.414 . S
C2501 C2502 1.374 . S
C2502 H2476 0.950 . S
C2502 C2498 1.385 . S
C2502 C2501 1.374 . S
C2503 C2500 1.499 . S
C2503 C2504 1.373 . S
C2503 C2505 1.389 . S
C2504 H2477 0.950 . S
C2504 C2490 1.377 . S
C2504 C2503 1.373 . S
C2505 C2489 1.377 . S
C2505 C2503 1.389 . S
C2505 C2506 1.524 . S
C2506 C2505 1.524 . S
C2506 C2507 1.397 . S
C2506 C2511 1.363 . S
C2507 H2478 0.950 . S
C2507 C2506 1.397 . S
C2507 C2508 1.334 . S
C2508 H2479 0.950 . S
C2508 C2507 1.334 . S
C2508 C2509 1.287 . S
C2509 C2508 1.287 . S
C2509 C2510 1.524 . S
C2509 H2512 0.999 . S
C2510 H2480 0.950 . S
C2510 C2509 1.524 . S
C2510 C2511 1.415 . S
C2511 H2481 0.950 . S
C2511 C2506 1.363 . S
C2511 C2510 1.415 . S
H2512 C2509 0.999 . S
H2513 C2494 0.913 . S
H2514 C2532 0.951 . S
H2515 C2534 0.951 . S
H2516 C2536 0.950 . S
H2517 C2537 0.950 . S
H2518 C2539 0.950 . S
H2519 C2542 0.950 . S
H2520 C2543 0.950 . S
H2521 C2545 0.950 . S
H2522 C2546 0.950 . S
H2523 C2547 0.951 . S
H2524 C2549 0.951 . S
H2525 C2551 0.950 . S
H2526 C2552 0.950 . S
H2527 C2554 0.950 . S
H2528 C2557 0.950 . S
H2529 C2558 0.950 . S
H2530 C2560 0.950 . S
H2531 C2561 0.950 . S
C2532 H2514 0.951 . S
C2532 C2533 1.366 . S
C2532 C2534 1.388 . S
C2533 C2532 1.366 . S
C2533 C2537 1.385 . S
C2534 H2515 0.951 . S
C2534 C2532 1.388 . S
C2534 C2535 1.366 . S
C2535 C2534 1.366 . S
C2535 C2536 1.414 . S
C2535 C2538 1.499 . S
C2536 H2516 0.950 . S
C2536 C2535 1.414 . S
C2536 C2537 1.374 . S
C2537 H2517 0.950 . S
C2537 C2533 1.385 . S
C2537 C2536 1.374 . S
C2538 C2535 1.499 . S
C2538 C2539 1.373 . S
C2538 C2540 1.389 . S
C2539 H2518 0.950 . S
C2539 C2538 1.373 . S
C2539 C2555 1.377 . S
C2540 C2538 1.389 . S
C2540 C2541 1.524 . S
C2540 C2554 1.377 . S
C2541 C2540 1.524 . S
C2541 C2542 1.397 . S
C2541 C2546 1.363 . S
C2542 H2519 0.950 . S
C2542 C2541 1.397 . S
C2542 C2543 1.334 . S
C2543 H2520 0.950 . S
C2543 C2542 1.334 . S
C2543 C2544 1.287 . S
C2544 C2543 1.287 . S
C2544 C2545 1.524 . S
C2544 H2563 0.913 . S
C2545 H2521 0.950 . S
C2545 C2544 1.524 . S
C2545 C2546 1.415 . S
C2546 H2522 0.950 . S
C2546 C2541 1.363 . S
C2546 C2545 1.415 . S
C2547 H2523 0.951 . S
C2547 C2548 1.366 . S
C2547 C2549 1.388 . S
C2548 C2547 1.366 . S
C2548 C2552 1.385 . S
C2549 H2524 0.951 . S
C2549 C2547 1.388 . S
C2549 C2550 1.366 . S
C2550 C2549 1.366 . S
C2550 C2551 1.414 . S
C2550 C2553 1.499 . S
C2551 H2525 0.950 . S
C2551 C2550 1.414 . S
C2551 C2552 1.374 . S
C2552 H2526 0.950 . S
C2552 C2548 1.385 . S
C2552 C2551 1.374 . S
C2553 C2550 1.499 . S
C2553 C2554 1.373 . S
C2553 C2555 1.389 . S
C2554 H2527 0.950 . S
C2554 C2540 1.377 . S
C2554 C2553 1.373 . S
C2555 C2539 1.377 . S
C2555 C2553 1.389 . S
C2555 C2556 1.524 . S
C2556 C2555 1.524 . S
C2556 C2557 1.397 . S
C2556 C2561 1.363 . S
C2557 H2528 0.950 . S
C2557 C2556 1.397 . S
C2557 C2558 1.334 . S
C2558 H2529 0.950 . S
C2558 C2557 1.334 . S
C2558 C2559 1.287 . S
C2559 C2558 1.287 . S
C2559 C2560 1.524 . S
C2559 H2562 0.999 . S
C2560 H2530 0.950 . S
C2560 C2559 1.524 . S
C2560 C2561 1.415 . S
C2561 H2531 0.950 . S
C2561 C2556 1.363 . S
C2561 C2560 1.415 . S
H2562 C2559 0.999 . S
H2563 C2544 0.913 . S
H2564 C2582 0.951 . S
H2565 C2584 0.951 . S
H2566 C2586 0.950 . S
H2567 C2587 0.950 . S
H2568 C2589 0.950 . S
H2569 C2592 0.950 . S
H2570 C2593 0.950 . S
H2571 C2595 0.950 . S
H2572 C2596 0.950 . S
H2573 C2597 0.951 . S
H2574 C2599 0.951 . S
H2575 C2601 0.950 . S
H2576 C2602 0.950 . S
H2577 C2604 0.950 . S
H2578 C2607 0.950 . S
H2579 C2608 0.950 . S
H2580 C2610 0.950 . S
H2581 C2611 0.950 . S
C2582 H2564 0.951 . S
C2582 C2583 1.366 . S
C2582 C2584 1.388 . S
C2583 C2582 1.366 . S
C2583 C2587 1.385 . S
C2584 H2565 0.951 . S
C2584 C2582 1.388 . S
C2584 C2585 1.366 . S
C2585 C2584 1.366 . S
C2585 C2586 1.414 . S
C2585 C2588 1.499 . S
C2586 H2566 0.950 . S
C2586 C2585 1.414 . S
C2586 C2587 1.374 . S
C2587 H2567 0.950 . S
C2587 C2583 1.385 . S
C2587 C2586 1.374 . S
C2588 C2585 1.499 . S
C2588 C2589 1.373 . S
C2588 C2590 1.389 . S
C2589 H2568 0.950 . S
C2589 C2588 1.373 . S
C2589 C2605 1.377 . S
C2590 C2588 1.389 . S
C2590 C2591 1.524 . S
C2590 C2604 1.377 . S
C2591 C2590 1.524 . S
C2591 C2592 1.397 . S
C2591 C2596 1.363 . S
C2592 H2569 0.950 . S
C2592 C2591 1.397 . S
C2592 C2593 1.334 . S
C2593 H2570 0.950 . S
C2593 C2592 1.334 . S
C2593 C2594 1.287 . S
C2594 C2593 1.287 . S
C2594 C2595 1.524 . S
C2594 H2613 0.913 . S
C2595 H2571 0.950 . S
C2595 C2594 1.524 . S
C2595 C2596 1.415 . S
C2596 H2572 0.950 . S
C2596 C2591 1.363 . S
C2596 C2595 1.415 . S
C2597 H2573 0.951 . S
C2597 C2598 1.366 . S
C2597 C2599 1.388 . S
C2598 C2597 1.366 . S
C2598 C2602 1.385 . S
C2599 H2574 0.951 . S
C2599 C2597 1.388 . S
C2599 C2600 1.366 . S
C2600 C2599 1.366 . S
C2600 C2601 1.414 . S
C2600 C2603 1.499 . S
C2601 H2575 0.950 . S
C2601 C2600 1.414 . S
C2601 C2602 1.374 . S
C2602 H2576 0.950 . S
C2602 C2598 1.385 . S
C2602 C2601 1.374 . S
C2603 C2600 1.499 . S
C2603 C2604 1.373 . S
C2603 C2605 1.389 . S
C2604 H2577 0.950 . S
C2604 C2590 1.377 . S
C2604 C2603 1.373 . S
C2605 C2589 1.377 . S
C2605 C2603 1.389 . S
C2605 C2606 1.524 . S
C2606 C2605 1.524 . S
C2606 C2607 1.397 . S
C2606 C2611 1.363 . S
C2607 H2578 0.950 . S
C2607 C2606 1.397 . S
C2607 C2608 1.334 . S
C2608 H2579 0.950 . S
C2608 C2607 1.334 . S
C2608 C2609 1.287 . S
C2609 C2608 1.287 . S
C2609 C2610 1.524 . S
C2609 H2612 0.999 . S
C2610 H2580 0.950 . S
C2610 C2609 1.524 . S
C2610 C2611 1.415 . S
C2611 H2581 0.950 . S
C2611 C2606 1.363 . S
C2611 C2610 1.415 . S
H2612 C2609 0.999 . S
H2613 C2594 0.913 . S
H2614 C2632 0.951 . S
H2615 C2634 0.951 . S
H2616 C2636 0.950 . S
H2617 C2637 0.950 . S
H2618 C2639 0.950 . S
H2619 C2642 0.950 . S
H2620 C2643 0.950 . S
H2621 C2645 0.950 . S
H2622 C2646 0.950 . S
H2623 C2647 0.951 . S
H2624 C2649 0.951 . S
H2625 C2651 0.950 . S
H2626 C2652 0.950 . S
H2627 C2654 0.950 . S
H2628 C2657 0.950 . S
H2629 C2658 0.950 . S
H2630 C2660 0.950 . S
H2631 C2661 0.950 . S
C2632 H2614 0.951 . S
C2632 C2633 1.366 . S
C2632 C2634 1.388 . S
C2633 C2632 1.366 . S
C2633 C2637 1.385 . S
C2634 H2615 0.951 . S
C2634 C2632 1.388 . S
C2634 C2635 1.366 . S
C2635 C2634 1.366 . S
C2635 C2636 1.414 . S
C2635 C2638 1.499 . S
C2636 H2616 0.950 . S
C2636 C2635 1.414 . S
C2636 C2637 1.374 . S
C2637 H2617 0.950 . S
C2637 C2633 1.385 . S
C2637 C2636 1.374 . S
C2638 C2635 1.499 . S
C2638 C2639 1.373 . S
C2638 C2640 1.389 . S
C2639 H2618 0.950 . S
C2639 C2638 1.373 . S
C2639 C2655 1.377 . S
C2640 C2638 1.389 . S
C2640 C2641 1.524 . S
C2640 C2654 1.377 . S
C2641 C2640 1.524 . S
C2641 C2642 1.397 . S
C2641 C2646 1.363 . S
C2642 H2619 0.950 . S
C2642 C2641 1.397 . S
C2642 C2643 1.334 . S
C2643 H2620 0.950 . S
C2643 C2642 1.334 . S
C2643 C2644 1.287 . S
C2644 C2643 1.287 . S
C2644 C2645 1.524 . S
C2644 H2663 0.913 . S
C2645 H2621 0.950 . S
C2645 C2644 1.524 . S
C2645 C2646 1.415 . S
C2646 H2622 0.950 . S
C2646 C2641 1.363 . S
C2646 C2645 1.415 . S
C2647 H2623 0.951 . S
C2647 C2648 1.366 . S
C2647 C2649 1.388 . S
C2648 C2647 1.366 . S
C2648 C2652 1.385 . S
C2649 H2624 0.951 . S
C2649 C2647 1.388 . S
C2649 C2650 1.366 . S
C2650 C2649 1.366 . S
C2650 C2651 1.414 . S
C2650 C2653 1.499 . S
C2651 H2625 0.950 . S
C2651 C2650 1.414 . S
C2651 C2652 1.374 . S
C2652 H2626 0.950 . S
C2652 C2648 1.385 . S
C2652 C2651 1.374 . S
C2653 C2650 1.499 . S
C2653 C2654 1.373 . S
C2653 C2655 1.389 . S
C2654 H2627 0.950 . S
C2654 C2640 1.377 . S
C2654 C2653 1.373 . S
C2655 C2639 1.377 . S
C2655 C2653 1.389 . S
C2655 C2656 1.524 . S
C2656 C2655 1.524 . S
C2656 C2657 1.397 . S
C2656 C2661 1.363 . S
C2657 H2628 0.950 . S
C2657 C2656 1.397 . S
C2657 C2658 1.334 . S
C2658 H2629 0.950 . S
C2658 C2657 1.334 . S
C2658 C2659 1.287 . S
C2659 C2658 1.287 . S
C2659 C2660 1.524 . S
C2659 H2662 0.999 . S
C2660 H2630 0.950 . S
C2660 C2659 1.524 . S
C2660 C2661 1.415 . S
C2661 H2631 0.950 . S
C2661 C2656 1.363 . S
C2661 C2660 1.415 . S
H2662 C2659 0.999 . S
H2663 C2644 0.913 . S
H2664 C2682 0.951 . S
H2665 C2684 0.951 . S
H2666 C2686 0.950 . S
H2667 C2687 0.950 . S
H2668 C2689 0.950 . S
H2669 C2692 0.950 . S
H2670 C2693 0.950 . S
H2671 C2695 0.950 . S
H2672 C2696 0.950 . S
H2673 C2697 0.951 . S
H2674 C2699 0.951 . S
H2675 C2701 0.950 . S
H2676 C2702 0.950 . S
H2677 C2704 0.950 . S
H2678 C2707 0.950 . S
H2679 C2708 0.950 . S
H2680 C2710 0.950 . S
H2681 C2711 0.950 . S
C2682 H2664 0.951 . S
C2682 C2683 1.366 . S
C2682 C2684 1.388 . S
C2683 C2682 1.366 . S
C2683 C2687 1.385 . S
C2684 H2665 0.951 . S
C2684 C2682 1.388 . S
C2684 C2685 1.366 . S
C2685 C2684 1.366 . S
C2685 C2686 1.414 . S
C2685 C2688 1.499 . S
C2686 H2666 0.950 . S
C2686 C2685 1.414 . S
C2686 C2687 1.374 . S
C2687 H2667 0.950 . S
C2687 C2683 1.385 . S
C2687 C2686 1.374 . S
C2688 C2685 1.499 . S
C2688 C2689 1.373 . S
C2688 C2690 1.389 . S
C2689 H2668 0.950 . S
C2689 C2688 1.373 . S
C2689 C2705 1.377 . S
C2690 C2688 1.389 . S
C2690 C2691 1.524 . S
C2690 C2704 1.377 . S
C2691 C2690 1.524 . S
C2691 C2692 1.397 . S
C2691 C2696 1.363 . S
C2692 H2669 0.950 . S
C2692 C2691 1.397 . S
C2692 C2693 1.334 . S
C2693 H2670 0.950 . S
C2693 C2692 1.334 . S
C2693 C2694 1.287 . S
C2694 C2693 1.287 . S
C2694 C2695 1.524 . S
C2694 H2713 0.890 1_545 S
C2695 H2671 0.950 . S
C2695 C2694 1.524 . S
C2695 C2696 1.415 . S
C2696 H2672 0.950 . S
C2696 C2691 1.363 . S
C2696 C2695 1.415 . S
C2697 H2673 0.951 . S
C2697 C2698 1.366 . S
C2697 C2699 1.388 . S
C2698 C2697 1.366 . S
C2698 C2702 1.385 . S
C2699 H2674 0.951 . S
C2699 C2697 1.388 . S
C2699 C2700 1.366 . S
C2700 C2699 1.366 . S
C2700 C2701 1.414 . S
C2700 C2703 1.499 . S
C2701 H2675 0.950 . S
C2701 C2700 1.414 . S
C2701 C2702 1.374 . S
C2702 H2676 0.950 . S
C2702 C2698 1.385 . S
C2702 C2701 1.374 . S
C2703 C2700 1.499 . S
C2703 C2704 1.373 . S
C2703 C2705 1.389 . S
C2704 H2677 0.950 . S
C2704 C2690 1.377 . S
C2704 C2703 1.373 . S
C2705 C2689 1.377 . S
C2705 C2703 1.389 . S
C2705 C2706 1.524 . S
C2706 C2705 1.524 . S
C2706 C2707 1.397 . S
C2706 C2711 1.363 . S
C2707 H2678 0.950 . S
C2707 C2706 1.397 . S
C2707 C2708 1.334 . S
C2708 H2679 0.950 . S
C2708 C2707 1.334 . S
C2708 C2709 1.287 . S
C2709 C2708 1.287 . S
C2709 C2710 1.524 . S
C2709 H2712 0.999 . S
C2710 H2680 0.950 . S
C2710 C2709 1.524 . S
C2710 C2711 1.415 . S
C2711 H2681 0.950 . S
C2711 C2706 1.363 . S
C2711 C2710 1.415 . S
H2712 C2709 0.999 . S
H2713 C2694 0.890 1_565 S
H2714 C2732 0.951 . S
H2715 C2734 0.951 . S
H2716 C2736 0.950 . S
H2717 C2737 0.950 . S
H2718 C2739 0.950 . S
H2719 C2742 0.950 . S
H2720 C2743 0.950 . S
H2721 C2745 0.950 . S
H2722 C2746 0.950 . S
H2723 C2747 0.951 . S
H2724 C2749 0.951 . S
H2725 C2751 0.950 . S
H2726 C2752 0.950 . S
H2727 C2754 0.950 . S
H2728 C2757 0.950 . S
H2729 C2758 0.950 . S
H2730 C2760 0.950 . S
H2731 C2761 0.950 . S
C2732 H2714 0.951 . S
C2732 C2733 1.366 . S
C2732 C2734 1.388 . S
C2733 C2732 1.366 . S
C2733 C2737 1.385 . S
C2734 H2715 0.951 . S
C2734 C2732 1.388 . S
C2734 C2735 1.366 . S
C2735 C2734 1.366 . S
C2735 C2736 1.414 . S
C2735 C2738 1.499 . S
C2736 H2716 0.950 . S
C2736 C2735 1.414 . S
C2736 C2737 1.374 . S
C2737 H2717 0.950 . S
C2737 C2733 1.385 . S
C2737 C2736 1.374 . S
C2738 C2735 1.499 . S
C2738 C2739 1.373 . S
C2738 C2740 1.389 . S
C2739 H2718 0.950 . S
C2739 C2738 1.373 . S
C2739 C2755 1.377 . S
C2740 C2738 1.389 . S
C2740 C2741 1.524 . S
C2740 C2754 1.377 . S
C2741 C2740 1.524 . S
C2741 C2742 1.397 . S
C2741 C2746 1.363 . S
C2742 H2719 0.950 . S
C2742 C2741 1.397 . S
C2742 C2743 1.334 . S
C2743 H2720 0.950 . S
C2743 C2742 1.334 . S
C2743 C2744 1.287 . S
C2744 C2743 1.287 . S
C2744 C2745 1.524 . S
C2744 H2763 0.913 . S
C2745 H2721 0.950 . S
C2745 C2744 1.524 . S
C2745 C2746 1.415 . S
C2746 H2722 0.950 . S
C2746 C2741 1.363 . S
C2746 C2745 1.415 . S
C2747 H2723 0.951 . S
C2747 C2748 1.366 . S
C2747 C2749 1.388 . S
C2748 C2747 1.366 . S
C2748 C2752 1.385 . S
C2749 H2724 0.951 . S
C2749 C2747 1.388 . S
C2749 C2750 1.366 . S
C2750 C2749 1.366 . S
C2750 C2751 1.414 . S
C2750 C2753 1.499 . S
C2751 H2725 0.950 . S
C2751 C2750 1.414 . S
C2751 C2752 1.374 . S
C2752 H2726 0.950 . S
C2752 C2748 1.385 . S
C2752 C2751 1.374 . S
C2753 C2750 1.499 . S
C2753 C2754 1.373 . S
C2753 C2755 1.389 . S
C2754 H2727 0.950 . S
C2754 C2740 1.377 . S
C2754 C2753 1.373 . S
C2755 C2739 1.377 . S
C2755 C2753 1.389 . S
C2755 C2756 1.524 . S
C2756 C2755 1.524 . S
C2756 C2757 1.397 . S
C2756 C2761 1.363 . S
C2757 H2728 0.950 . S
C2757 C2756 1.397 . S
C2757 C2758 1.334 . S
C2758 H2729 0.950 . S
C2758 C2757 1.334 . S
C2758 C2759 1.287 . S
C2759 C2758 1.287 . S
C2759 C2760 1.524 . S
C2759 H2762 0.999 . S
C2760 H2730 0.950 . S
C2760 C2759 1.524 . S
C2760 C2761 1.415 . S
C2761 H2731 0.950 . S
C2761 C2756 1.363 . S
C2761 C2760 1.415 . S
H2762 C2759 0.999 . S
H2763 C2744 0.913 . S
H2764 C2782 0.951 . S
H2765 C2784 0.951 . S
H2766 C2786 0.950 . S
H2767 C2787 0.950 . S
H2768 C2789 0.950 . S
H2769 C2792 0.950 . S
H2770 C2793 0.950 . S
H2771 C2795 0.950 . S
H2772 C2796 0.950 . S
H2773 C2797 0.973 . S
H2774 C2799 0.951 . S
H2775 C2801 0.950 . S
H2776 C2802 0.950 . S
H2777 C2804 0.950 . S
H2778 C2807 0.950 . S
H2779 C2808 0.950 . S
H2780 C2810 0.950 . S
H2781 C2811 0.950 . S
C2782 H2764 0.951 . S
C2782 C2783 1.366 . S
C2782 C2784 1.388 . S
C2783 C2782 1.366 . S
C2783 C2787 1.385 . S
C2784 H2765 0.951 . S
C2784 C2782 1.388 . S
C2784 C2785 1.366 . S
C2785 C2784 1.366 . S
C2785 C2786 1.414 . S
C2785 C2788 1.499 . S
C2786 H2766 0.950 . S
C2786 C2785 1.414 . S
C2786 C2787 1.374 . S
C2787 H2767 0.950 . S
C2787 C2783 1.385 . S
C2787 C2786 1.374 . S
C2788 C2785 1.499 . S
C2788 C2789 1.373 . S
C2788 C2790 1.389 . S
C2789 H2768 0.950 . S
C2789 C2788 1.373 . S
C2789 C2805 1.377 . S
C2790 C2788 1.389 . S
C2790 C2791 1.524 . S
C2790 C2804 1.377 . S
C2791 C2790 1.524 . S
C2791 C2792 1.397 . S
C2791 C2796 1.363 . S
C2792 H2769 0.950 . S
C2792 C2791 1.397 . S
C2792 C2793 1.334 . S
C2793 H2770 0.950 . S
C2793 C2792 1.334 . S
C2793 C2794 1.287 . S
C2794 C2793 1.287 . S
C2794 C2795 1.524 . S
C2794 H2813 0.913 . S
C2795 H2771 0.950 . S
C2795 C2794 1.524 . S
C2795 C2796 1.415 . S
C2796 H2772 0.950 . S
C2796 C2791 1.363 . S
C2796 C2795 1.415 . S
C2797 H2773 0.973 . S
C2797 C2798 1.366 . S
C2797 C2799 1.388 . S
C2798 C2797 1.366 . S
C2798 C2802 1.385 . S
C2799 H2774 0.951 . S
C2799 C2797 1.388 . S
C2799 C2800 1.366 . S
C2800 C2799 1.366 . S
C2800 C2801 1.414 . S
C2800 C2803 1.499 . S
C2801 H2775 0.950 . S
C2801 C2800 1.414 . S
C2801 C2802 1.374 . S
C2802 H2776 0.950 . S
C2802 C2798 1.385 . S
C2802 C2801 1.374 . S
C2803 C2800 1.499 . S
C2803 C2804 1.373 . S
C2803 C2805 1.389 . S
C2804 H2777 0.950 . S
C2804 C2790 1.377 . S
C2804 C2803 1.373 . S
C2805 C2789 1.377 . S
C2805 C2803 1.389 . S
C2805 C2806 1.524 . S
C2806 C2805 1.524 . S
C2806 C2807 1.397 . S
C2806 C2811 1.363 . S
C2807 H2778 0.950 . S
C2807 C2806 1.397 . S
C2807 C2808 1.334 . S
C2808 H2779 0.950 . S
C2808 C2807 1.334 . S
C2808 C2809 1.287 . S
C2809 C2808 1.287 . S
C2809 C2810 1.524 . S
C2809 H2812 0.999 . S
C2810 H2780 0.950 . S
C2810 C2809 1.524 . S
C2810 C2811 1.415 . S
C2811 H2781 0.950 . S
C2811 C2806 1.363 . S
C2811 C2810 1.415 . S
H2812 C2809 0.999 . S
H2813 C2794 0.913 . S
H2814 C2832 0.951 . S
H2815 C2834 0.951 . S
H2816 C2836 0.950 . S
H2817 C2837 0.947 1_545 S
H2818 C2839 0.950 . S
H2819 C2842 0.950 . S
H2820 C2843 0.950 . S
H2821 C2845 0.950 . S
H2822 C2846 0.950 . S
H2823 C2847 0.951 . S
H2824 C2849 0.951 . S
H2825 C2851 0.950 . S
H2826 C2852 0.950 . S
H2827 C2854 0.950 . S
H2828 C2857 0.950 . S
H2829 C2858 0.950 . S
H2830 C2860 0.950 . S
H2831 C2861 0.950 . S
C2832 H2814 0.951 . S
C2832 C2833 1.366 . S
C2832 C2834 1.388 . S
C2833 C2832 1.366 . S
C2833 C2837 1.385 . S
C2834 H2815 0.951 . S
C2834 C2832 1.388 . S
C2834 C2835 1.366 . S
C2835 C2834 1.366 . S
C2835 C2836 1.414 . S
C2835 C2838 1.499 . S
C2836 H2816 0.950 . S
C2836 C2835 1.414 . S
C2836 C2837 1.374 . S
C2837 H2817 0.947 1_565 S
C2837 C2833 1.385 . S
C2837 C2836 1.374 . S
C2838 C2835 1.499 . S
C2838 C2839 1.373 . S
C2838 C2840 1.389 . S
C2839 H2818 0.950 . S
C2839 C2838 1.373 . S
C2839 C2855 1.377 . S
C2840 C2838 1.389 . S
C2840 C2841 1.524 . S
C2840 C2854 1.377 . S
C2841 C2840 1.524 . S
C2841 C2842 1.397 . S
C2841 C2846 1.363 . S
C2842 H2819 0.950 . S
C2842 C2841 1.397 . S
C2842 C2843 1.334 . S
C2843 H2820 0.950 . S
C2843 C2842 1.334 . S
C2843 C2844 1.287 . S
C2844 C2843 1.287 . S
C2844 C2845 1.524 . S
C2844 H2863 0.913 . S
C2845 H2821 0.950 . S
C2845 C2844 1.524 . S
C2845 C2846 1.415 . S
C2846 H2822 0.950 . S
C2846 C2841 1.363 . S
C2846 C2845 1.415 . S
C2847 H2823 0.951 . S
C2847 C2848 1.366 . S
C2847 C2849 1.388 . S
C2848 C2847 1.366 . S
C2848 C2852 1.385 . S
C2849 H2824 0.951 . S
C2849 C2847 1.388 . S
C2849 C2850 1.366 . S
C2850 C2849 1.366 . S
C2850 C2851 1.414 . S
C2850 C2853 1.499 . S
C2851 H2825 0.950 . S
C2851 C2850 1.414 . S
C2851 C2852 1.374 . S
C2852 H2826 0.950 . S
C2852 C2848 1.385 . S
C2852 C2851 1.374 . S
C2853 C2850 1.499 . S
C2853 C2854 1.373 . S
C2853 C2855 1.389 . S
C2854 H2827 0.950 . S
C2854 C2840 1.377 . S
C2854 C2853 1.373 . S
C2855 C2839 1.377 . S
C2855 C2853 1.389 . S
C2855 C2856 1.524 . S
C2856 C2855 1.524 . S
C2856 C2857 1.397 . S
C2856 C2861 1.363 . S
C2857 H2828 0.950 . S
C2857 C2856 1.397 . S
C2857 C2858 1.334 . S
C2858 H2829 0.950 . S
C2858 C2857 1.334 . S
C2858 C2859 1.287 . S
C2859 C2858 1.287 . S
C2859 C2860 1.524 . S
C2859 H2862 0.999 . S
C2860 H2830 0.950 . S
C2860 C2859 1.524 . S
C2860 C2861 1.415 . S
C2861 H2831 0.950 . S
C2861 C2856 1.363 . S
C2861 C2860 1.415 . S
H2862 C2859 0.999 . S
H2863 C2844 0.913 . S
H2864 C2882 0.951 . S
H2865 C2884 0.951 . S
H2866 C2886 0.950 . S
H2867 C2887 0.950 . S
H2868 C2889 0.950 . S
H2869 C2892 0.950 . S
H2870 C2893 0.950 . S
H2871 C2895 0.950 . S
H2872 C2896 0.950 . S
H2873 C2897 0.951 . S
H2874 C2899 0.951 . S
H2875 C2901 0.950 . S
H2876 C2902 0.950 . S
H2877 C2904 0.950 . S
H2878 C2907 0.950 . S
H2879 C2908 0.950 . S
H2880 C2910 0.950 . S
H2881 C2911 0.950 . S
C2882 H2864 0.951 . S
C2882 C2883 1.366 . S
C2882 C2884 1.388 . S
C2883 C2882 1.366 . S
C2883 C2887 1.385 . S
C2884 H2865 0.951 . S
C2884 C2882 1.388 . S
C2884 C2885 1.366 . S
C2885 C2884 1.366 . S
C2885 C2886 1.414 . S
C2885 C2888 1.499 . S
C2886 H2866 0.950 . S
C2886 C2885 1.414 . S
C2886 C2887 1.374 . S
C2887 H2867 0.950 . S
C2887 C2883 1.385 . S
C2887 C2886 1.374 . S
C2888 C2885 1.499 . S
C2888 C2889 1.373 . S
C2888 C2890 1.389 . S
C2889 H2868 0.950 . S
C2889 C2888 1.373 . S
C2889 C2905 1.377 . S
C2890 C2888 1.389 . S
C2890 C2891 1.524 . S
C2890 C2904 1.377 . S
C2891 C2890 1.524 . S
C2891 C2892 1.397 . S
C2891 C2896 1.363 . S
C2892 H2869 0.950 . S
C2892 C2891 1.397 . S
C2892 C2893 1.334 . S
C2893 H2870 0.950 . S
C2893 C2892 1.334 . S
C2893 C2894 1.287 . S
C2894 C2893 1.287 . S
C2894 C2895 1.524 . S
C2894 H2913 0.913 . S
C2895 H2871 0.950 . S
C2895 C2894 1.524 . S
C2895 C2896 1.415 . S
C2896 H2872 0.950 . S
C2896 C2891 1.363 . S
C2896 C2895 1.415 . S
C2897 H2873 0.951 . S
C2897 C2898 1.366 . S
C2897 C2899 1.388 . S
C2898 C2897 1.366 . S
C2898 C2902 1.385 . S
C2899 H2874 0.951 . S
C2899 C2897 1.388 . S
C2899 C2900 1.366 . S
C2900 C2899 1.366 . S
C2900 C2901 1.414 . S
C2900 C2903 1.499 . S
C2901 H2875 0.950 . S
C2901 C2900 1.414 . S
C2901 C2902 1.374 . S
C2902 H2876 0.950 . S
C2902 C2898 1.385 . S
C2902 C2901 1.374 . S
C2903 C2900 1.499 . S
C2903 C2904 1.373 . S
C2903 C2905 1.389 . S
C2904 H2877 0.950 . S
C2904 C2890 1.377 . S
C2904 C2903 1.373 . S
C2905 C2889 1.377 . S
C2905 C2903 1.389 . S
C2905 C2906 1.524 . S
C2906 C2905 1.524 . S
C2906 C2907 1.397 . S
C2906 C2911 1.363 . S
C2907 H2878 0.950 . S
C2907 C2906 1.397 . S
C2907 C2908 1.334 . S
C2908 H2879 0.950 . S
C2908 C2907 1.334 . S
C2908 C2909 1.287 . S
C2909 C2908 1.287 . S
C2909 C2910 1.524 . S
C2909 H2912 0.999 . S
C2910 H2880 0.950 . S
C2910 C2909 1.524 . S
C2910 C2911 1.415 . S
C2911 H2881 0.950 . S
C2911 C2906 1.363 . S
C2911 C2910 1.415 . S
H2912 C2909 0.999 . S
H2913 C2894 0.913 . S
H2914 C2932 0.951 . S
H2915 C2934 0.951 . S
H2916 C2936 0.950 . S
H2917 C2937 0.950 . S
H2918 C2939 0.950 . S
H2919 C2942 0.950 . S
H2920 C2943 0.950 . S
H2921 C2945 0.950 . S
H2922 C2946 0.950 . S
H2923 C2947 0.951 . S
H2924 C2949 0.951 . S
H2925 C2951 0.950 . S
H2926 C2952 0.950 . S
H2927 C2954 0.950 . S
H2928 C2957 0.950 . S
H2929 C2958 0.950 . S
H2930 C2960 0.950 . S
H2931 C2961 0.950 . S
C2932 H2914 0.951 . S
C2932 C2933 1.366 . S
C2932 C2934 1.388 . S
C2933 C2932 1.366 . S
C2933 C2937 1.385 . S
C2934 H2915 0.951 . S
C2934 C2932 1.388 . S
C2934 C2935 1.366 . S
C2935 C2934 1.366 . S
C2935 C2936 1.414 . S
C2935 C2938 1.499 . S
C2936 H2916 0.950 . S
C2936 C2935 1.414 . S
C2936 C2937 1.374 . S
C2937 H2917 0.950 . S
C2937 C2933 1.385 . S
C2937 C2936 1.374 . S
C2938 C2935 1.499 . S
C2938 C2939 1.373 . S
C2938 C2940 1.389 . S
C2939 H2918 0.950 . S
C2939 C2938 1.373 . S
C2939 C2955 1.377 . S
C2940 C2938 1.389 . S
C2940 C2941 1.524 . S
C2940 C2954 1.377 . S
C2941 C2940 1.524 . S
C2941 C2942 1.397 . S
C2941 C2946 1.363 . S
C2942 H2919 0.950 . S
C2942 C2941 1.397 . S
C2942 C2943 1.334 . S
C2943 H2920 0.950 . S
C2943 C2942 1.334 . S
C2943 C2944 1.287 . S
C2944 C2943 1.287 . S
C2944 C2945 1.524 . S
C2944 H2963 0.913 . S
C2945 H2921 0.950 . S
C2945 C2944 1.524 . S
C2945 C2946 1.415 . S
C2946 H2922 0.950 . S
C2946 C2941 1.363 . S
C2946 C2945 1.415 . S
C2947 H2923 0.951 . S
C2947 C2948 1.366 . S
C2947 C2949 1.388 . S
C2948 C2947 1.366 . S
C2948 C2952 1.385 . S
C2949 H2924 0.951 . S
C2949 C2947 1.388 . S
C2949 C2950 1.366 . S
C2950 C2949 1.366 . S
C2950 C2951 1.414 . S
C2950 C2953 1.499 . S
C2951 H2925 0.950 . S
C2951 C2950 1.414 . S
C2951 C2952 1.374 . S
C2952 H2926 0.950 . S
C2952 C2948 1.385 . S
C2952 C2951 1.374 . S
C2953 C2950 1.499 . S
C2953 C2954 1.373 . S
C2953 C2955 1.389 . S
C2954 H2927 0.950 . S
C2954 C2940 1.377 . S
C2954 C2953 1.373 . S
C2955 C2939 1.377 . S
C2955 C2953 1.389 . S
C2955 C2956 1.524 . S
C2956 C2955 1.524 . S
C2956 C2957 1.397 . S
C2956 C2961 1.363 . S
C2957 H2928 0.950 . S
C2957 C2956 1.397 . S
C2957 C2958 1.334 . S
C2958 H2929 0.950 . S
C2958 C2957 1.334 . S
C2958 C2959 1.287 . S
C2959 C2958 1.287 . S
C2959 C2960 1.524 . S
C2959 H2962 0.999 . S
C2960 H2930 0.950 . S
C2960 C2959 1.524 . S
C2960 C2961 1.415 . S
C2961 H2931 0.950 . S
C2961 C2956 1.363 . S
C2961 C2960 1.415 . S
H2962 C2959 0.999 . S
H2963 C2944 0.913 . S
H2964 C2982 0.951 . S
H2965 C2984 0.951 . S
H2966 C2986 0.950 . S
H2967 C2987 0.950 . S
H2968 C2989 0.950 . S
H2969 C2992 0.950 . S
H2970 C2993 0.950 . S
H2971 C2995 0.950 . S
H2972 C2996 0.950 . S
H2973 C2997 0.951 . S
H2974 C2999 0.951 . S
H2975 C3001 0.950 . S
H2976 C3002 0.950 . S
H2977 C3004 0.950 . S
H2978 C3007 0.950 . S
H2979 C3008 0.950 . S
H2980 C3010 0.950 . S
H2981 C3011 0.950 . S
C2982 H2964 0.951 . S
C2982 C2983 1.366 . S
C2982 C2984 1.388 . S
C2983 C2982 1.366 . S
C2983 C2987 1.385 . S
C2984 H2965 0.951 . S
C2984 C2982 1.388 . S
C2984 C2985 1.366 . S
C2985 C2984 1.366 . S
C2985 C2986 1.414 . S
C2985 C2988 1.499 . S
C2986 H2966 0.950 . S
C2986 C2985 1.414 . S
C2986 C2987 1.374 . S
C2987 H2967 0.950 . S
C2987 C2983 1.385 . S
C2987 C2986 1.374 . S
C2988 C2985 1.499 . S
C2988 C2989 1.373 . S
C2988 C2990 1.389 . S
C2989 H2968 0.950 . S
C2989 C2988 1.373 . S
C2989 C3005 1.377 . S
C2990 C2988 1.389 . S
C2990 C2991 1.524 . S
C2990 C3004 1.377 . S
C2991 C2990 1.524 . S
C2991 C2992 1.397 . S
C2991 C2996 1.363 . S
C2992 H2969 0.950 . S
C2992 C2991 1.397 . S
C2992 C2993 1.334 . S
C2993 H2970 0.950 . S
C2993 C2992 1.334 . S
C2993 C2994 1.287 . S
C2994 C2993 1.287 . S
C2994 C2995 1.524 . S
C2994 H3013 0.913 . S
C2995 H2971 0.950 . S
C2995 C2994 1.524 . S
C2995 C2996 1.415 . S
C2996 H2972 0.950 . S
C2996 C2991 1.363 . S
C2996 C2995 1.415 . S
C2997 H2973 0.951 . S
C2997 C2998 1.366 . S
C2997 C2999 1.388 . S
C2998 C2997 1.366 . S
C2998 C3002 1.385 . S
C2999 H2974 0.951 . S
C2999 C2997 1.388 . S
C2999 C3000 1.366 . S
C3000 C2999 1.366 . S
C3000 C3001 1.414 . S
C3000 C3003 1.499 . S
C3001 H2975 0.950 . S
C3001 C3000 1.414 . S
C3001 C3002 1.374 . S
C3002 H2976 0.950 . S
C3002 C2998 1.385 . S
C3002 C3001 1.374 . S
C3003 C3000 1.499 . S
C3003 C3004 1.373 . S
C3003 C3005 1.389 . S
C3004 H2977 0.950 . S
C3004 C2990 1.377 . S
C3004 C3003 1.373 . S
C3005 C2989 1.377 . S
C3005 C3003 1.389 . S
C3005 C3006 1.524 . S
C3006 C3005 1.524 . S
C3006 C3007 1.397 . S
C3006 C3011 1.363 . S
C3007 H2978 0.950 . S
C3007 C3006 1.397 . S
C3007 C3008 1.334 . S
C3008 H2979 0.950 . S
C3008 C3007 1.334 . S
C3008 C3009 1.287 . S
C3009 C3008 1.287 . S
C3009 C3010 1.524 . S
C3009 H3012 0.999 . S
C3010 H2980 0.950 . S
C3010 C3009 1.524 . S
C3010 C3011 1.415 . S
C3011 H2981 0.950 . S
C3011 C3006 1.363 . S
C3011 C3010 1.415 . S
H3012 C3009 0.999 . S
H3013 C2994 0.913 . S
H3014 C3032 0.951 . S
H3015 C3034 0.951 . S
H3016 C3036 0.950 . S
H3017 C3037 0.950 . S
H3018 C3039 0.950 . S
H3019 C3042 0.950 . S
H3020 C3043 0.950 . S
H3021 C3045 0.950 . S
H3022 C3046 0.950 . S
H3023 C3047 0.951 . S
H3024 C3049 0.951 . S
H3025 C3051 0.950 . S
H3026 C3052 0.950 . S
H3027 C3054 0.950 . S
H3028 C3057 0.950 . S
H3029 C3058 0.950 . S
H3030 C3060 0.950 . S
H3031 C3061 0.950 . S
C3032 H3014 0.951 . S
C3032 C3033 1.366 . S
C3032 C3034 1.388 . S
C3033 C3032 1.366 . S
C3033 C3037 1.385 . S
C3034 H3015 0.951 . S
C3034 C3032 1.388 . S
C3034 C3035 1.366 . S
C3035 C3034 1.366 . S
C3035 C3036 1.414 . S
C3035 C3038 1.499 . S
C3036 H3016 0.950 . S
C3036 C3035 1.414 . S
C3036 C3037 1.374 . S
C3037 H3017 0.950 . S
C3037 C3033 1.385 . S
C3037 C3036 1.374 . S
C3038 C3035 1.499 . S
C3038 C3039 1.373 . S
C3038 C3040 1.389 . S
C3039 H3018 0.950 . S
C3039 C3038 1.373 . S
C3039 C3055 1.377 . S
C3040 C3038 1.389 . S
C3040 C3041 1.524 . S
C3040 C3054 1.377 . S
C3041 C3040 1.524 . S
C3041 C3042 1.397 . S
C3041 C3046 1.363 . S
C3042 H3019 0.950 . S
C3042 C3041 1.397 . S
C3042 C3043 1.334 . S
C3043 H3020 0.950 . S
C3043 C3042 1.334 . S
C3043 C3044 1.287 . S
C3044 C3043 1.287 . S
C3044 C3045 1.524 . S
C3044 H3063 0.913 . S
C3045 H3021 0.950 . S
C3045 C3044 1.524 . S
C3045 C3046 1.415 . S
C3046 H3022 0.950 . S
C3046 C3041 1.363 . S
C3046 C3045 1.415 . S
C3047 H3023 0.951 . S
C3047 C3048 1.366 . S
C3047 C3049 1.388 . S
C3048 C3047 1.366 . S
C3048 C3052 1.385 . S
C3049 H3024 0.951 . S
C3049 C3047 1.388 . S
C3049 C3050 1.366 . S
C3050 C3049 1.366 . S
C3050 C3051 1.414 . S
C3050 C3053 1.499 . S
C3051 H3025 0.950 . S
C3051 C3050 1.414 . S
C3051 C3052 1.374 . S
C3052 H3026 0.950 . S
C3052 C3048 1.385 . S
C3052 C3051 1.374 . S
C3053 C3050 1.499 . S
C3053 C3054 1.373 . S
C3053 C3055 1.389 . S
C3054 H3027 0.950 . S
C3054 C3040 1.377 . S
C3054 C3053 1.373 . S
C3055 C3039 1.377 . S
C3055 C3053 1.389 . S
C3055 C3056 1.524 . S
C3056 C3055 1.524 . S
C3056 C3057 1.397 . S
C3056 C3061 1.363 . S
C3057 H3028 0.950 . S
C3057 C3056 1.397 . S
C3057 C3058 1.334 . S
C3058 H3029 0.950 . S
C3058 C3057 1.334 . S
C3058 C3059 1.287 . S
C3059 C3058 1.287 . S
C3059 C3060 1.524 . S
C3059 H3062 0.999 . S
C3060 H3030 0.950 . S
C3060 C3059 1.524 . S
C3060 C3061 1.415 . S
C3061 H3031 0.950 . S
C3061 C3056 1.363 . S
C3061 C3060 1.415 . S
H3062 C3059 0.999 . S
H3063 C3044 0.913 . S
H3064 C3082 0.951 . S
H3065 C3084 0.951 . S
H3066 C3086 0.950 . S
H3067 C3087 0.950 . S
H3068 C3089 0.950 . S
H3069 C3092 0.950 . S
H3070 C3093 0.950 . S
H3071 C3095 0.950 . S
H3072 C3096 0.950 . S
H3073 C3097 0.951 . S
H3074 C3099 0.951 . S
H3075 C3101 0.950 . S
H3076 C3102 0.950 . S
H3077 C3104 0.950 . S
H3078 C3107 0.950 . S
H3079 C3108 0.950 . S
H3080 C3110 0.950 . S
H3081 C3111 0.950 . S
C3082 H3064 0.951 . S
C3082 C3083 1.366 . S
C3082 C3084 1.388 . S
C3083 C3082 1.366 . S
C3083 C3087 1.385 . S
C3084 H3065 0.951 . S
C3084 C3082 1.388 . S
C3084 C3085 1.366 . S
C3085 C3084 1.366 . S
C3085 C3086 1.414 . S
C3085 C3088 1.499 . S
C3086 H3066 0.950 . S
C3086 C3085 1.414 . S
C3086 C3087 1.374 . S
C3087 H3067 0.950 . S
C3087 C3083 1.385 . S
C3087 C3086 1.374 . S
C3088 C3085 1.499 . S
C3088 C3089 1.373 . S
C3088 C3090 1.389 . S
C3089 H3068 0.950 . S
C3089 C3088 1.373 . S
C3089 C3105 1.377 . S
C3090 C3088 1.389 . S
C3090 C3091 1.524 . S
C3090 C3104 1.377 . S
C3091 C3090 1.524 . S
C3091 C3092 1.397 . S
C3091 C3096 1.363 . S
C3092 H3069 0.950 . S
C3092 C3091 1.397 . S
C3092 C3093 1.334 . S
C3093 H3070 0.950 . S
C3093 C3092 1.334 . S
C3093 C3094 1.287 . S
C3094 C3093 1.287 . S
C3094 C3095 1.524 . S
C3094 H3113 0.913 . S
C3095 H3071 0.950 . S
C3095 C3094 1.524 . S
C3095 C3096 1.415 . S
C3096 H3072 0.950 . S
C3096 C3091 1.363 . S
C3096 C3095 1.415 . S
C3097 H3073 0.951 . S
C3097 C3098 1.366 . S
C3097 C3099 1.388 . S
C3098 C3097 1.366 . S
C3098 C3102 1.385 . S
C3099 H3074 0.951 . S
C3099 C3097 1.388 . S
C3099 C3100 1.366 . S
C3100 C3099 1.366 . S
C3100 C3101 1.414 . S
C3100 C3103 1.499 . S
C3101 H3075 0.950 . S
C3101 C3100 1.414 . S
C3101 C3102 1.374 . S
C3102 H3076 0.950 . S
C3102 C3098 1.385 . S
C3102 C3101 1.374 . S
C3103 C3100 1.499 . S
C3103 C3104 1.373 . S
C3103 C3105 1.389 . S
C3104 H3077 0.950 . S
C3104 C3090 1.377 . S
C3104 C3103 1.373 . S
C3105 C3089 1.377 . S
C3105 C3103 1.389 . S
C3105 C3106 1.524 . S
C3106 C3105 1.524 . S
C3106 C3107 1.397 . S
C3106 C3111 1.363 . S
C3107 H3078 0.950 . S
C3107 C3106 1.397 . S
C3107 C3108 1.334 . S
C3108 H3079 0.950 . S
C3108 C3107 1.334 . S
C3108 C3109 1.287 . S
C3109 C3108 1.287 . S
C3109 C3110 1.524 . S
C3109 H3112 0.999 . S
C3110 H3080 0.950 . S
C3110 C3109 1.524 . S
C3110 C3111 1.415 . S
C3111 H3081 0.950 . S
C3111 C3106 1.363 . S
C3111 C3110 1.415 . S
H3112 C3109 0.999 . S
H3113 C3094 0.913 . S
H3114 C3132 0.951 . S
H3115 C3134 0.951 . S
H3116 C3136 0.950 . S
H3117 C3137 0.950 . S
H3118 C3139 0.950 . S
H3119 C3142 0.950 . S
H3120 C3143 0.950 . S
H3121 C3145 0.950 . S
H3122 C3146 0.950 . S
H3123 C3147 0.951 . S
H3124 C3149 0.951 . S
H3125 C3151 0.950 . S
H3126 C3152 0.950 . S
H3127 C3154 0.950 . S
H3128 C3157 0.950 . S
H3129 C3158 0.950 . S
H3130 C3160 0.950 . S
H3131 C3161 0.950 . S
C3132 H3114 0.951 . S
C3132 C3133 1.366 . S
C3132 C3134 1.388 . S
C3133 C3132 1.366 . S
C3133 C3137 1.385 . S
C3134 H3115 0.951 . S
C3134 C3132 1.388 . S
C3134 C3135 1.366 . S
C3135 C3134 1.366 . S
C3135 C3136 1.414 . S
C3135 C3138 1.499 . S
C3136 H3116 0.950 . S
C3136 C3135 1.414 . S
C3136 C3137 1.374 . S
C3137 H3117 0.950 . S
C3137 C3133 1.385 . S
C3137 C3136 1.374 . S
C3138 C3135 1.499 . S
C3138 C3139 1.373 . S
C3138 C3140 1.389 . S
C3139 H3118 0.950 . S
C3139 C3138 1.373 . S
C3139 C3155 1.377 . S
C3140 C3138 1.389 . S
C3140 C3141 1.524 . S
C3140 C3154 1.377 . S
C3141 C3140 1.524 . S
C3141 C3142 1.397 . S
C3141 C3146 1.363 . S
C3142 H3119 0.950 . S
C3142 C3141 1.397 . S
C3142 C3143 1.334 . S
C3143 H3120 0.950 . S
C3143 C3142 1.334 . S
C3143 C3144 1.287 . S
C3144 C3143 1.287 . S
C3144 C3145 1.524 . S
C3144 H3163 0.913 . S
C3145 H3121 0.950 . S
C3145 C3144 1.524 . S
C3145 C3146 1.415 . S
C3146 H3122 0.950 . S
C3146 C3141 1.363 . S
C3146 C3145 1.415 . S
C3147 H3123 0.951 . S
C3147 C3148 1.366 . S
C3147 C3149 1.388 . S
C3148 C3147 1.366 . S
C3148 C3152 1.385 . S
C3149 H3124 0.951 . S
C3149 C3147 1.388 . S
C3149 C3150 1.366 . S
C3150 C3149 1.366 . S
C3150 C3151 1.414 . S
C3150 C3153 1.499 . S
C3151 H3125 0.950 . S
C3151 C3150 1.414 . S
C3151 C3152 1.374 . S
C3152 H3126 0.950 . S
C3152 C3148 1.385 . S
C3152 C3151 1.374 . S
C3153 C3150 1.499 . S
C3153 C3154 1.373 . S
C3153 C3155 1.389 . S
C3154 H3127 0.950 . S
C3154 C3140 1.377 . S
C3154 C3153 1.373 . S
C3155 C3139 1.377 . S
C3155 C3153 1.389 . S
C3155 C3156 1.524 . S
C3156 C3155 1.524 . S
C3156 C3157 1.397 . S
C3156 C3161 1.363 . S
C3157 H3128 0.950 . S
C3157 C3156 1.397 . S
C3157 C3158 1.334 . S
C3158 H3129 0.950 . S
C3158 C3157 1.334 . S
C3158 C3159 1.287 . S
C3159 C3158 1.287 . S
C3159 C3160 1.524 . S
C3159 H3162 0.999 . S
C3160 H3130 0.950 . S
C3160 C3159 1.524 . S
C3160 C3161 1.415 . S
C3161 H3131 0.950 . S
C3161 C3156 1.363 . S
C3161 C3160 1.415 . S
H3162 C3159 0.999 . S
H3163 C3144 0.913 . S
H3164 C3182 0.951 . S
H3165 C3184 0.951 . S
H3166 C3186 0.950 . S
H3167 C3187 0.950 . S
H3168 C3189 0.950 . S
H3169 C3192 0.950 . S
H3170 C3193 0.950 . S
H3171 C3195 0.950 . S
H3172 C3196 0.950 . S
H3173 C3197 0.951 . S
H3174 C3199 0.951 . S
H3175 C3201 0.950 . S
H3176 C3202 0.950 . S
H3177 C3204 0.950 . S
H3178 C3207 0.950 . S
H3179 C3208 0.950 . S
H3180 C3210 0.950 . S
H3181 C3211 0.950 . S
C3182 H3164 0.951 . S
C3182 C3183 1.366 . S
C3182 C3184 1.388 . S
C3183 C3182 1.366 . S
C3183 C3187 1.385 . S
C3184 H3165 0.951 . S
C3184 C3182 1.388 . S
C3184 C3185 1.366 . S
C3185 C3184 1.366 . S
C3185 C3186 1.414 . S
C3185 C3188 1.499 . S
C3186 H3166 0.950 . S
C3186 C3185 1.414 . S
C3186 C3187 1.374 . S
C3187 H3167 0.950 . S
C3187 C3183 1.385 . S
C3187 C3186 1.374 . S
C3188 C3185 1.499 . S
C3188 C3189 1.373 . S
C3188 C3190 1.389 . S
C3189 H3168 0.950 . S
C3189 C3188 1.373 . S
C3189 C3205 1.377 . S
C3190 C3188 1.389 . S
C3190 C3191 1.524 . S
C3190 C3204 1.377 . S
C3191 C3190 1.524 . S
C3191 C3192 1.397 . S
C3191 C3196 1.363 . S
C3192 H3169 0.950 . S
C3192 C3191 1.397 . S
C3192 C3193 1.334 . S
C3193 H3170 0.950 . S
C3193 C3192 1.334 . S
C3193 C3194 1.287 . S
C3194 C3193 1.287 . S
C3194 C3195 1.524 . S
C3194 H3213 0.913 . S
C3195 H3171 0.950 . S
C3195 C3194 1.524 . S
C3195 C3196 1.415 . S
C3196 H3172 0.950 . S
C3196 C3191 1.363 . S
C3196 C3195 1.415 . S
C3197 H3173 0.951 . S
C3197 C3198 1.366 . S
C3197 C3199 1.388 . S
C3198 C3197 1.366 . S
C3198 C3202 1.385 . S
C3199 H3174 0.951 . S
C3199 C3197 1.388 . S
C3199 C3200 1.366 . S
C3200 C3199 1.366 . S
C3200 C3201 1.414 . S
C3200 C3203 1.499 . S
C3201 H3175 0.950 . S
C3201 C3200 1.414 . S
C3201 C3202 1.374 . S
C3202 H3176 0.950 . S
C3202 C3198 1.385 . S
C3202 C3201 1.374 . S
C3203 C3200 1.499 . S
C3203 C3204 1.373 . S
C3203 C3205 1.389 . S
C3204 H3177 0.950 . S
C3204 C3190 1.377 . S
C3204 C3203 1.373 . S
C3205 C3189 1.377 . S
C3205 C3203 1.389 . S
C3205 C3206 1.524 . S
C3206 C3205 1.524 . S
C3206 C3207 1.397 . S
C3206 C3211 1.363 . S
C3207 H3178 0.950 . S
C3207 C3206 1.397 . S
C3207 C3208 1.334 . S
C3208 H3179 0.950 . S
C3208 C3207 1.334 . S
C3208 C3209 1.287 . S
C3209 C3208 1.287 . S
C3209 C3210 1.524 . S
C3209 H3212 0.999 . S
C3210 H3180 0.950 . S
C3210 C3209 1.524 . S
C3210 C3211 1.415 . S
C3211 H3181 0.950 . S
C3211 C3206 1.363 . S
C3211 C3210 1.415 . S
H3212 C3209 0.999 . S
H3213 C3194 0.913 . S
H3214 C3232 0.951 . S
H3215 C3234 0.951 . S
H3216 C3236 0.950 . S
H3217 C3237 0.950 . S
H3218 C3239 0.950 . S
H3219 C3242 0.950 . S
H3220 C3243 0.950 . S
H3221 C3245 0.950 . S
H3222 C3246 0.950 . S
H3223 C3247 0.951 . S
H3224 C3249 0.951 . S
H3225 C3251 0.950 . S
H3226 C3252 0.950 . S
H3227 C3254 0.950 . S
H3228 C3257 0.950 . S
H3229 C3258 0.950 . S
H3230 C3260 0.950 . S
H3231 C3261 0.950 . S
C3232 H3214 0.951 . S
C3232 C3233 1.366 . S
C3232 C3234 1.388 . S
C3233 C3232 1.366 . S
C3233 C3237 1.385 . S
C3234 H3215 0.951 . S
C3234 C3232 1.388 . S
C3234 C3235 1.366 . S
C3235 C3234 1.366 . S
C3235 C3236 1.414 . S
C3235 C3238 1.499 . S
C3236 H3216 0.950 . S
C3236 C3235 1.414 . S
C3236 C3237 1.374 . S
C3237 H3217 0.950 . S
C3237 C3233 1.385 . S
C3237 C3236 1.374 . S
C3238 C3235 1.499 . S
C3238 C3239 1.373 . S
C3238 C3240 1.389 . S
C3239 H3218 0.950 . S
C3239 C3238 1.373 . S
C3239 C3255 1.377 . S
C3240 C3238 1.389 . S
C3240 C3241 1.524 . S
C3240 C3254 1.377 . S
C3241 C3240 1.524 . S
C3241 C3242 1.397 . S
C3241 C3246 1.363 . S
C3242 H3219 0.950 . S
C3242 C3241 1.397 . S
C3242 C3243 1.334 . S
C3243 H3220 0.950 . S
C3243 C3242 1.334 . S
C3243 C3244 1.287 . S
C3244 C3243 1.287 . S
C3244 C3245 1.524 . S
C3244 H3263 0.913 . S
C3245 H3221 0.950 . S
C3245 C3244 1.524 . S
C3245 C3246 1.415 . S
C3246 H3222 0.950 . S
C3246 C3241 1.363 . S
C3246 C3245 1.415 . S
C3247 H3223 0.951 . S
C3247 C3248 1.366 . S
C3247 C3249 1.388 . S
C3248 C3247 1.366 . S
C3248 C3252 1.385 . S
C3249 H3224 0.951 . S
C3249 C3247 1.388 . S
C3249 C3250 1.366 . S
C3250 C3249 1.366 . S
C3250 C3251 1.414 . S
C3250 C3253 1.499 . S
C3251 H3225 0.950 . S
C3251 C3250 1.414 . S
C3251 C3252 1.374 . S
C3252 H3226 0.950 . S
C3252 C3248 1.385 . S
C3252 C3251 1.374 . S
C3253 C3250 1.499 . S
C3253 C3254 1.373 . S
C3253 C3255 1.389 . S
C3254 H3227 0.950 . S
C3254 C3240 1.377 . S
C3254 C3253 1.373 . S
C3255 C3239 1.377 . S
C3255 C3253 1.389 . S
C3255 C3256 1.524 . S
C3256 C3255 1.524 . S
C3256 C3257 1.397 . S
C3256 C3261 1.363 . S
C3257 H3228 0.950 . S
C3257 C3256 1.397 . S
C3257 C3258 1.334 . S
C3258 H3229 0.950 . S
C3258 C3257 1.334 . S
C3258 C3259 1.287 . S
C3259 C3258 1.287 . S
C3259 C3260 1.524 . S
C3259 H3262 0.999 . S
C3260 H3230 0.950 . S
C3260 C3259 1.524 . S
C3260 C3261 1.415 . S
C3261 H3231 0.950 . S
C3261 C3256 1.363 . S
C3261 C3260 1.415 . S
H3262 C3259 0.999 . S
H3263 C3244 0.913 . S
C483 C5 3.012 . S
C498 C382 3.006 . S
C533 C324 3.006 . S
C548 C34 3.006 . S
C583 C63 3.006 . S
C598 C353 3.006 . S
C633 C92 3.006 . S
C648 C295 3.006 . S
C683 C440 3.006 . S
C698 C121 3.011 . S
C733 C150 3.006 . S
C748 C266 3.006 . S
C783 C411 3.006 . S
C798 C179 3.006 . S
C833 C208 3.006 . S
C848 C237 3.006 . S
C883 C102 1.361 . S
C898 C3 1.414 . S
C933 C15 1.361 . S
C948 C32 1.413 . S
C983 C44 1.362 . S
C998 C61 1.413 . S
C1033 C90 1.413 . S
C1048 C73 1.360 . S
C1083 C160 1.361 . S
C1098 C119 1.414 . S
C1133 C189 1.362 . S
C1148 C148 1.413 . S
C1183 C218 1.361 . S
C1198 C177 1.413 . S
C1233 C131 1.362 . S
C1248 C206 1.413 . S
C1283 C137 1.027 . S
C1298 C269 1.136 . S
C1333 C253 1.029 . S
C1348 C124 1.136 1_545 S
C1383 C195 1.027 . S
C1398 C240 1.136 . S
C1433 C282 1.029 . S
C1448 C182 1.136 1_565 S
C1483 C298 1.136 . S
C1498 C21 1.028 . S
C1533 C66 1.136 1_545 S
C1548 C311 1.028 . S
C1583 C327 1.136 . S
C1598 C79 1.026 . S
C1633 C8 1.136 1_565 S
C1648 C340 1.029 . S
C1683 C334 1.362 . S
C1698 C351 1.413 . S
C1733 C363 1.361 . S
C1748 C293 1.413 . S
C1783 C380 1.413 1_655 S
C1798 C305 1.362 . S
C1833 C322 1.413 . S
C1848 C392 1.361 . S
C1883 C409 1.413 . S
C1898 C247 1.361 . S
C1933 C450 1.361 . S
C1948 C235 1.413 . S
C1983 C276 1.361 . S
C1998 C438 1.413 1_655 S
C2033 C421 1.362 . S
C2048 C264 1.413 . S
C2083 C211 1.136 . S
C2098 C427 1.027 . S
C2133 C414 1.136 . S
C2148 C166 1.029 . S
C2183 C456 1.026 . S
C2198 C153 1.136 . S
C2233 C224 1.028 . S
C2248 C443 1.136 . S
C2283 C37 1.136 . S
C2298 C369 1.027 . S
C2333 C50 1.026 . S
C2348 C385 1.136 . S
C2383 C398 1.028 . S
C2398 C95 1.136 . S
C2433 C356 1.136 . S
C2448 C108 1.027 . S
C2483 C158 0.674 . S
C2498 C13 0.675 . S
C2533 C187 0.677 . S
C2548 C42 0.676 . S
C2583 C216 0.677 . S
C2598 C71 0.676 . S
C2633 C100 0.673 . S
C2648 C129 0.676 . S
C2683 C126 1.378 . S
C2698 C300 1.378 . S
C2733 C242 1.379 . S
C2748 C68 1.379 . S
C2783 C329 1.379 . S
C2798 C184 1.379 . S
C2833 C10 1.378 . S
C2848 C271 1.379 . S
C2883 C361 0.676 . S
C2898 C245 0.677 . S
C2933 C303 0.675 . S
C2948 C448 0.677 . S
C2983 C390 0.677 . S
C2998 C274 0.676 . S
C3033 C419 0.677 . S
C3048 C332 0.674 . S
C3083 C39 1.379 . S
C3098 C416 1.379 . S
C3133 C387 1.378 . S
C3148 C155 1.378 . S
C3183 C97 1.379 . S
C3198 C445 1.379 . S
C3233 C213 1.379 . S
C3248 C358 1.379 . S
