# Generated by pormake.
# Topology smd, (6)-cn, num edge types: 1
# Building blocks:
#     Node 0, Type 0, BuildingBlock: PAMTUU_clean_sbu_0, # of connection points: 6
#     Node 1, Type 0, BuildingBlock: PAMTUU_clean_sbu_0, # of connection points: 6
#     Node 2, Type 0, BuildingBlock: PAMTUU_clean_sbu_0, # of connection points: 6
#     Node 3, Type 0, BuildingBlock: PAMTUU_clean_sbu_0, # of connection points: 6
#     Node 4, Type 0, BuildingBlock: PAMTUU_clean_sbu_0, # of connection points: 6
#     Node 5, Type 0, BuildingBlock: PAMTUU_clean_sbu_0, # of connection points: 6
#     Node 6, Type 0, BuildingBlock: PAMTUU_clean_sbu_0, # of connection points: 6
#     Node 7, Type 0, BuildingBlock: PAMTUU_clean_sbu_0, # of connection points: 6
#     Node 8, Type 0, BuildingBlock: PAMTUU_clean_sbu_0, # of connection points: 6
#     Node 9, Type 0, BuildingBlock: PAMTUU_clean_sbu_0, # of connection points: 6
#     Node 10, Type 0, BuildingBlock: PAMTUU_clean_sbu_0, # of connection points: 6
#     Node 11, Type 0, BuildingBlock: PAMTUU_clean_sbu_0, # of connection points: 6
#     Node 12, Type 0, BuildingBlock: PAMTUU_clean_sbu_0, # of connection points: 6
#     Node 13, Type 0, BuildingBlock: PAMTUU_clean_sbu_0, # of connection points: 6
#     Node 14, Type 0, BuildingBlock: PAMTUU_clean_sbu_0, # of connection points: 6
#     Node 15, Type 0, BuildingBlock: PAMTUU_clean_sbu_0, # of connection points: 6
#     Node 16, Type 0, BuildingBlock: PAMTUU_clean_sbu_0, # of connection points: 6
#     Node 17, Type 0, BuildingBlock: PAMTUU_clean_sbu_0, # of connection points: 6
#     Edge 18, Type (0, 0), None
#     Edge 19, Type (0, 0), None
#     Edge 20, Type (0, 0), None
#     Edge 21, Type (0, 0), None
#     Edge 22, Type (0, 0), None
#     Edge 23, Type (0, 0), None
#     Edge 24, Type (0, 0), None
#     Edge 25, Type (0, 0), None
#     Edge 26, Type (0, 0), None
#     Edge 27, Type (0, 0), None
#     Edge 28, Type (0, 0), None
#     Edge 29, Type (0, 0), None
#     Edge 30, Type (0, 0), None
#     Edge 31, Type (0, 0), None
#     Edge 32, Type (0, 0), None
#     Edge 33, Type (0, 0), None
#     Edge 34, Type (0, 0), None
#     Edge 35, Type (0, 0), None
#     Edge 36, Type (0, 0), None
#     Edge 37, Type (0, 0), None
#     Edge 38, Type (0, 0), None
#     Edge 39, Type (0, 0), None
#     Edge 40, Type (0, 0), None
#     Edge 41, Type (0, 0), None
#     Edge 42, Type (0, 0), None
#     Edge 43, Type (0, 0), None
#     Edge 44, Type (0, 0), None
#     Edge 45, Type (0, 0), None
#     Edge 46, Type (0, 0), None
#     Edge 47, Type (0, 0), None
#     Edge 48, Type (0, 0), None
#     Edge 49, Type (0, 0), None
#     Edge 50, Type (0, 0), None
#     Edge 51, Type (0, 0), None
#     Edge 52, Type (0, 0), None
#     Edge 53, Type (0, 0), None
#     Edge 54, Type (0, 0), None
#     Edge 55, Type (0, 0), None
#     Edge 56, Type (0, 0), None
#     Edge 57, Type (0, 0), None
#     Edge 58, Type (0, 0), None
#     Edge 59, Type (0, 0), None
#     Edge 60, Type (0, 0), None
#     Edge 61, Type (0, 0), None
#     Edge 62, Type (0, 0), None
#     Edge 63, Type (0, 0), None
#     Edge 64, Type (0, 0), None
#     Edge 65, Type (0, 0), None
#     Edge 66, Type (0, 0), None
#     Edge 67, Type (0, 0), None
#     Edge 68, Type (0, 0), None
#     Edge 69, Type (0, 0), None
#     Edge 70, Type (0, 0), None
#     Edge 71, Type (0, 0), None
# Relax obj value: 0.366
# Max RMSD: 0.417
# Mean RMSD: 0.417
data_MOF--net-smd--node1-PAMTUU_clean_sbu_0--edge1-none
_symmetry_space_group_name_H-M    P1
_symmetry_Int_Tables_number       1
_symmetry_cell_setting            triclinic
loop_
_symmetry_equiv_pos_as_xyz
'x, y, z'
_cell_length_a     28.265312
_cell_length_b     28.26349
_cell_length_c     15.236542
_cell_angle_alpha  90.001617
_cell_angle_beta   89.993057
_cell_angle_gamma 119.99903
loop_
_atom_site_label
_atom_site_type_symbol
_atom_site_fract_x
_atom_site_fract_y
_atom_site_fract_z
_atom_type_partial_charge
Tb0 Tb 0.04666 0.25267 0.67491 0.0
Tb1 Tb 0.98918 0.22713 0.55098 0.0
C2 C 0.09217 0.31872 0.47854 0.0
C3 C 0.07266 0.24192 0.90026 0.0
C4 C 0.02575 0.21534 1.06749 0.0
C5 C 0.02316 0.25544 1.01738 0.0
C6 C 0.04633 0.26861 0.93488 0.0
C7 C 0.07434 0.20073 0.94952 0.0
C8 C 0.05184 0.18815 1.03386 0.0
C9 C 0.09475 0.25446 0.81084 0.0
O10 O 0.00991 0.29197 0.74521 0.0
O11 O 0.93804 0.23571 0.66423 0.0
O12 O 0.97072 0.14436 0.57143 0.0
O13 O 0.96871 0.17086 0.70148 0.0
O14 O 0.98023 0.26887 0.44298 0.0
O15 O 0.92709 0.18318 0.46009 0.0
O16 O 0.04788 0.19537 0.5179 0.0
O17 O 0.11302 0.25765 0.60071 0.0
O18 O 0.0626 0.31052 0.55369 0.0
O19 O 0.06325 0.30905 0.5507 0.0
C20 C 0.95745 0.26676 0.73703 0.0
O21 O 0.07448 0.21235 0.75717 0.0
O22 O 0.0993 0.29892 0.77485 0.0
C23 C 0.94854 0.12895 0.64727 0.0
C24 C 0.96431 0.21396 0.3205 0.0
C25 C 1.00191 0.20448 0.15544 0.0
C26 C 0.9491 0.19616 0.1654 0.0
C27 C 0.93133 0.20258 0.24705 0.0
C28 C 0.01571 0.21794 0.31193 0.0
C29 C 0.03475 0.21371 0.22945 0.0
C30 C 0.9461 0.22351 0.40511 0.0
C31 C 0.10011 0.22067 0.54189 0.0
H32 H 0.00374 0.27729 1.0427 0.0
H33 H 0.04392 0.30031 0.89907 0.0
H34 H 0.09342 0.17875 0.92303 0.0
H35 H 0.05411 0.15702 1.07205 0.0
H36 H 0.92287 0.18768 0.10881 0.0
H37 H 0.89291 0.20087 0.25237 0.0
H38 H 0.04224 0.2271 0.36784 0.0
H39 H 0.07606 0.22107 0.22282 0.0
Tb40 Tb 0.77661 0.79504 0.67488 0.0
Tb41 Tb 0.80217 0.7631 0.55092 0.0
C42 C 0.71058 0.7745 0.47852 0.0
C43 C 0.78736 0.8318 0.90023 0.0
C44 C 0.81395 0.81147 1.06744 0.0
C45 C 0.77386 0.76878 1.01733 0.0
C46 C 0.76067 0.77876 0.93485 0.0
C47 C 0.82855 0.87468 0.94948 0.0
C48 C 0.84112 0.86475 1.03381 0.0
C49 C 0.77481 0.84134 0.81082 0.0
O50 O 0.73732 0.71899 0.74516 0.0
O51 O 0.79359 0.70338 0.66417 0.0
O52 O 0.88493 0.82739 0.5714 0.0
O53 O 0.85842 0.79891 0.70146 0.0
O54 O 0.76044 0.71241 0.44292 0.0
O55 O 0.84612 0.74496 0.46001 0.0
O56 O 0.83392 0.85355 0.51785 0.0
O57 O 0.77165 0.85643 0.60067 0.0
O58 O 0.71877 0.75312 0.55366 0.0
O59 O 0.72025 0.75526 0.55067 0.0
C60 C 0.76253 0.69173 0.73697 0.0
O61 O 0.81692 0.86318 0.75713 0.0
O62 O 0.73036 0.80143 0.77483 0.0
C63 C 0.90033 0.82064 0.64725 0.0
C64 C 0.81534 0.7514 0.32043 0.0
C65 C 0.82482 0.7985 0.15538 0.0
C66 C 0.83316 0.75401 0.16532 0.0
C67 C 0.82674 0.72981 0.24697 0.0
C68 C 0.81136 0.79882 0.31188 0.0
C69 C 0.81558 0.82209 0.2294 0.0
C70 C 0.80579 0.72364 0.40504 0.0
C71 C 0.80863 0.88049 0.54185 0.0
H72 H 0.75201 0.7275 1.04265 0.0
H73 H 0.72899 0.74466 0.89904 0.0
H74 H 0.85051 0.91573 0.923 0.0
H75 H 0.87225 0.89815 1.072 0.0
H76 H 0.84164 0.73626 0.10872 0.0
H77 H 0.82845 0.6931 0.25227 0.0
H78 H 0.80218 0.81618 0.3678 0.0
H79 H 0.80821 0.85604 0.22279 0.0
Tb80 Tb 0.23427 0.98264 0.67495 0.0
Tb81 Tb 0.26623 0.04014 0.55099 0.0
C82 C 0.25481 0.93713 0.47859 0.0
C83 C 0.19753 0.95664 0.90032 0.0
C84 C 0.21788 0.00356 1.06753 0.0
C85 C 0.26056 0.00614 1.01741 0.0
C86 C 0.25057 0.98297 0.93492 0.0
C87 C 0.15467 0.95498 0.94957 0.0
C88 C 0.1646 0.97748 1.03391 0.0
C89 C 0.18799 0.93455 0.8109 0.0
O90 O 0.31032 0.0194 0.74522 0.0
O91 O 0.32593 0.09128 0.66423 0.0
O92 O 0.20193 0.0586 0.57147 0.0
O93 O 0.23041 0.06059 0.70151 0.0
O94 O 0.31692 0.04908 0.44299 0.0
O95 O 0.28439 0.10224 0.4601 0.0
O96 O 0.17579 0.98146 0.51791 0.0
O97 O 0.17288 0.9163 0.60075 0.0
O98 O 0.27619 0.96671 0.55372 0.0
O99 O 0.27405 0.96605 0.55074 0.0
C100 C 0.33758 0.07187 0.73703 0.0
O101 O 0.16614 0.95481 0.75724 0.0
O102 O 0.22789 0.92999 0.77489 0.0
C103 C 0.20868 0.08077 0.64731 0.0
C104 C 0.27794 0.06501 0.32051 0.0
C105 C 0.23085 0.0274 0.15547 0.0
C106 C 0.27534 0.08022 0.16541 0.0
C107 C 0.29953 0.09799 0.24706 0.0
C108 C 0.23053 0.0136 0.31196 0.0
C109 C 0.20725 0.99456 0.22949 0.0
C110 C 0.3057 0.08322 0.40511 0.0
C111 C 0.14883 0.92922 0.54192 0.0
H112 H 0.30183 0.02556 1.04272 0.0
H113 H 0.28466 0.98537 0.8991 0.0
H114 H 0.11362 0.93591 0.9231 0.0
H115 H 0.13121 0.97523 1.0721 0.0
H116 H 0.29308 0.10645 0.10882 0.0
H117 H 0.33624 0.13641 0.25236 0.0
H118 H 0.21316 0.98707 0.36788 0.0
H119 H 0.17331 0.95324 0.22288 0.0
Tb120 Tb 0.05039 0.79318 0.63513 0.0
Tb121 Tb 0.99169 0.76506 0.51074 0.0
C122 C 0.08823 0.88996 0.53576 0.0
C123 C 0.07191 0.80889 0.86711 0.0
C124 C 0.02828 0.81061 1.03097 0.0
C125 C 0.08379 0.82796 1.02272 0.0
C126 C 0.10527 0.82731 0.94132 0.0
C127 C 0.01724 0.79637 0.87444 0.0
C128 C 0.9953 0.79686 0.95622 0.0
C129 C 0.09247 0.80005 0.78353 0.0
O130 O 0.99148 0.82467 0.66626 0.0
O131 O 0.92602 0.76104 0.58556 0.0
O132 O 0.97793 0.709 0.63303 0.0
O133 O 0.97723 0.71043 0.63579 0.0
O134 O 0.95911 0.80045 0.42793 0.0
O135 O 0.93856 0.71477 0.41408 0.0
O136 O 0.02985 0.72753 0.43976 0.0
O137 O 0.10163 0.7846 0.52083 0.0
O138 O 0.06578 0.87467 0.61138 0.0
O139 O 0.06859 0.84773 0.48203 0.0
C140 C 0.93928 0.79902 0.64257 0.0
O141 O 0.06054 0.7538 0.74561 0.0
O142 O 0.11089 0.83973 0.72736 0.0
C143 C 0.94745 0.70025 0.70705 0.0
C144 C 0.95892 0.76894 0.28607 0.0
C145 C 0.00383 0.7972 0.11808 0.0
C146 C 0.00861 0.75786 0.16667 0.0
C147 C 0.98604 0.74349 0.24957 0.0
C148 C 0.95536 0.80955 0.23822 0.0
C149 C 0.97671 0.82284 0.1534 0.0
C150 C 0.93937 0.7572 0.37676 0.0
C151 C 0.08232 0.75344 0.44759 0.0
H152 H 0.11004 0.83974 1.08 0.0
H153 H 0.14782 0.84131 0.9379 0.0
H154 H 0.99084 0.784 0.81792 0.0
H155 H 0.95212 0.7832 0.96178 0.0
H156 H 0.02972 0.73799 0.14005 0.0
H157 H 0.9902 0.71256 0.28475 0.0
H158 H 0.93611 0.83089 0.26649 0.0
H159 H 0.97321 0.85369 0.11643 0.0
Tb160 Tb 0.23615 0.25829 0.63514 0.0
Tb161 Tb 0.26427 0.22769 0.51072 0.0
C162 C 0.13939 0.19935 0.53576 0.0
C163 C 0.22044 0.2641 0.86712 0.0
C164 C 0.21872 0.21875 1.03098 0.0
C165 C 0.20135 0.25691 1.02274 0.0
C166 C 0.20201 0.27905 0.94134 0.0
C167 C 0.23297 0.22196 0.87444 0.0
C168 C 0.23248 0.19953 0.95621 0.0
C169 C 0.22928 0.2935 0.78355 0.0
O170 O 0.20466 0.16789 0.66629 0.0
O171 O 0.26827 0.16603 0.58556 0.0
O172 O 0.32033 0.27001 0.63299 0.0
O173 O 0.3189 0.26787 0.63575 0.0
O174 O 0.22888 0.15972 0.42791 0.0
O175 O 0.31455 0.22484 0.41404 0.0
O176 O 0.30179 0.30338 0.43975 0.0
O177 O 0.24474 0.31811 0.52083 0.0
O178 O 0.15467 0.19219 0.61138 0.0
O179 O 0.18161 0.22193 0.48202 0.0
C180 C 0.2303 0.14133 0.64259 0.0
O181 O 0.27553 0.30782 0.74561 0.0
O182 O 0.18961 0.27226 0.72738 0.0
C183 C 0.32908 0.24827 0.70701 0.0
C184 C 0.26038 0.19104 0.28605 0.0
C185 C 0.23211 0.2077 0.11808 0.0
C186 C 0.27145 0.25182 0.16666 0.0
C187 C 0.28582 0.24361 0.24955 0.0
C188 C 0.21977 0.14687 0.2382 0.0
C189 C 0.20648 0.15495 0.15338 0.0
C190 C 0.27213 0.18322 0.37673 0.0
C191 C 0.27589 0.32995 0.44759 0.0
H192 H 0.18956 0.27137 1.08001 0.0
H193 H 0.188 0.30759 0.93793 0.0
H194 H 0.24535 0.20793 0.81792 0.0
H195 H 0.24615 0.17001 0.96176 0.0
H196 H 0.29132 0.2928 0.14005 0.0
H197 H 0.31676 0.2787 0.28474 0.0
H198 H 0.19843 0.10628 0.26646 0.0
H199 H 0.17564 0.12059 0.11642 0.0
Tb200 Tb 0.77101 0.97892 0.6351 0.0
Tb201 Tb 0.80163 0.03764 0.51068 0.0
C202 C 0.82995 0.94109 0.53571 0.0
C203 C 0.76518 0.95739 0.86708 0.0
C204 C 0.81053 1.00101 1.03093 0.0
C205 C 0.77236 0.9455 1.02269 0.0
C206 C 0.75022 0.92402 0.94129 0.0
C207 C 0.80733 0.01206 0.87439 0.0
C208 C 0.82976 0.034 0.95616 0.0
C209 C 0.73578 0.93684 0.7835 0.0
O210 O 0.8614 0.03781 0.66625 0.0
O211 O 0.86329 0.10329 0.58551 0.0
O212 O 0.75931 0.0514 0.63297 0.0
O213 O 0.76145 0.0521 0.63572 0.0
O214 O 0.86959 0.07022 0.42784 0.0
O215 O 0.80448 0.09078 0.41402 0.0
O216 O 0.72594 0.99948 0.43972 0.0
O217 O 0.7112 0.92769 0.5208 0.0
O218 O 0.83711 0.96353 0.61133 0.0
O219 O 0.80738 0.96074 0.48197 0.0
C220 C 0.88797 0.09001 0.64255 0.0
O221 O 0.72148 0.96879 0.74557 0.0
O222 O 0.75702 0.9184 0.72733 0.0
C223 C 0.78105 0.08188 0.70698 0.0
C224 C 0.83826 0.0704 0.286 0.0
C225 C 0.82158 0.02546 0.11803 0.0
C226 C 0.77747 0.0207 0.16664 0.0
C227 C 0.7857 0.04329 0.24952 0.0
C228 C 0.88242 0.07393 0.23813 0.0
C229 C 0.87434 0.05257 0.15332 0.0
C230 C 0.84609 0.08997 0.37668 0.0
C231 C 0.69937 0.947 0.44756 0.0
H232 H 0.75789 0.91925 1.07997 0.0
H233 H 0.72167 0.88147 0.93788 0.0
H234 H 0.82136 0.03847 0.81788 0.0
H235 H 0.85928 0.07718 0.96172 0.0
H236 H 0.7365 0.9996 0.14004 0.0
H237 H 0.75061 0.03914 0.28473 0.0
H238 H 0.92301 0.09318 0.26638 0.0
H239 H 0.90868 0.05606 0.11634 0.0
Tb240 Tb 0.71526 0.58813 1.00843 0.0
Tb241 Tb 0.65666 0.56112 0.88405 0.0
C242 C 0.75969 0.65293 0.81136 0.0
C243 C 0.74554 0.58323 0.23434 0.0
C244 C 0.69744 0.55458 0.40074 0.0
C245 C 0.69395 0.59428 0.35084 0.0
C246 C 0.718 0.60874 0.2689 0.0
C247 C 0.74851 0.54279 0.2837 0.0
C248 C 0.72548 0.52925 0.3676 0.0
C249 C 0.76612 0.59484 0.14399 0.0
O250 O 0.67695 0.62609 1.07825 0.0
O251 O 0.60522 0.56908 0.99747 0.0
O252 O 0.64015 0.47915 0.90586 0.0
O253 O 0.63798 0.50569 1.03588 0.0
O254 O 0.64727 0.60223 0.77577 0.0
O255 O 0.59492 0.51648 0.79282 0.0
O256 O 0.71484 0.52885 0.85136 0.0
O257 O 0.78053 0.59134 0.93332 0.0
O258 O 0.73033 0.6451 0.8866 0.0
O259 O 0.73062 0.64301 0.88339 0.0
C260 C 0.62446 0.60028 1.0702 0.0
O261 O 0.74627 0.55172 0.09258 0.0
O262 O 0.76804 0.63763 0.10609 0.0
C263 C 0.61786 0.46372 0.9816 0.0
C264 C 0.63231 0.54762 0.65316 0.0
C265 C 0.67253 0.54208 0.48808 0.0
C266 C 0.61891 0.53173 0.49726 0.0
C267 C 0.59966 0.53598 0.57905 0.0
C268 C 0.68441 0.55318 0.64514 0.0
C269 C 0.70472 0.55091 0.56276 0.0
C270 C 0.61356 0.55674 0.73774 0.0
C271 C 0.76706 0.55389 0.87515 0.0
H272 H 0.67301 0.61468 0.37582 0.0
H273 H 0.71474 0.63997 0.23299 0.0
H274 H 0.7684 0.52161 0.2572 0.0
H275 H 0.72855 0.4985 0.40559 0.0
H276 H 0.59316 0.52347 0.4401 0.0
H277 H 0.56046 0.53278 0.58379 0.0
H278 H 0.71055 0.56225 0.70154 0.0
H279 H 0.74651 0.55956 0.55688 0.0
Tb280 Tb 0.44118 0.12819 1.00846 0.0
Tb281 Tb 0.46819 0.09658 0.88406 0.0
C282 C 0.37638 0.10782 0.81142 0.0
C283 C 0.4461 0.16339 0.23437 0.0
C284 C 0.47475 0.14392 0.40075 0.0
C285 C 0.43506 0.10075 0.35084 0.0
C286 C 0.42059 0.11033 0.26892 0.0
C287 C 0.48655 0.20679 0.28373 0.0
C288 C 0.50008 0.1973 0.36762 0.0
C289 C 0.43449 0.17237 0.14403 0.0
O290 O 0.40322 0.05192 1.07828 0.0
O291 O 0.46023 0.03719 0.99747 0.0
O292 O 0.55016 0.16204 0.90586 0.0
O293 O 0.52361 0.13334 1.0359 0.0
O294 O 0.42707 0.04609 0.77577 0.0
O295 O 0.51281 0.07946 0.79281 0.0
O296 O 0.50046 0.18703 0.85134 0.0
O297 O 0.43799 0.19027 0.93334 0.0
O298 O 0.38421 0.08629 0.88664 0.0
O299 O 0.3863 0.08867 0.88344 0.0
C300 C 0.42902 0.02523 1.07022 0.0
O301 O 0.47761 0.19563 0.0926 0.0
O302 O 0.3917 0.1315 0.10614 0.0
C303 C 0.56558 0.15519 0.98161 0.0
C304 C 0.48168 0.08573 0.65316 0.0
C305 C 0.48725 0.13151 0.48809 0.0
C306 C 0.49759 0.08823 0.49725 0.0
C307 C 0.49333 0.06472 0.57904 0.0
C308 C 0.47613 0.13228 0.64515 0.0
C309 C 0.47841 0.15487 0.56278 0.0
C310 C 0.47256 0.05786 0.73773 0.0
C311 C 0.47544 0.21423 0.87515 0.0
H312 H 0.41465 0.0594 0.37582 0.0
H313 H 0.38937 0.07585 0.23301 0.0
H314 H 0.50772 0.24786 0.25724 0.0
H315 H 0.53083 0.23112 0.40561 0.0
H316 H 0.50585 0.07074 0.44009 0.0
H317 H 0.49652 0.02871 0.58376 0.0
H318 H 0.46705 0.14935 0.70156 0.0
H319 H 0.46976 0.18801 0.55691 0.0
Tb320 Tb 0.90112 0.31404 1.00848 0.0
Tb321 Tb 0.93274 0.37266 0.88407 0.0
C322 C 0.92149 0.26961 0.81143 0.0
C323 C 0.86594 0.28377 0.2344 0.0
C324 C 0.8854 0.33189 0.40079 0.0
C325 C 0.92857 0.33535 0.35086 0.0
C326 C 0.91899 0.31131 0.26894 0.0
C327 C 0.82253 0.28083 0.28377 0.0
C328 C 0.83203 0.30385 0.36766 0.0
C329 C 0.85695 0.26318 0.14405 0.0
O330 O 0.97739 0.35235 1.07828 0.0
O331 O 0.99213 0.42409 0.99748 0.0
O332 O 0.86728 0.38918 0.9059 0.0
O333 O 0.89598 0.39134 1.03593 0.0
O334 O 0.98323 0.38203 0.77578 0.0
O335 O 0.94987 0.43441 0.79283 0.0
O336 O 0.84229 0.3145 0.85136 0.0
O337 O 0.83905 0.24879 0.93336 0.0
O338 O 0.94302 0.29897 0.88665 0.0
O339 O 0.94064 0.29868 0.88345 0.0
C340 C 0.00408 0.40485 1.07022 0.0
O341 O 0.83369 0.28304 0.09265 0.0
O342 O 0.89781 0.26124 0.10614 0.0
C343 C 0.87413 0.41146 0.98165 0.0
C344 C 0.94359 0.39701 0.65318 0.0
C345 C 0.89782 0.35679 0.48812 0.0
C346 C 0.94109 0.41041 0.49727 0.0
C347 C 0.9646 0.42966 0.57906 0.0
C348 C 0.89705 0.34491 0.64518 0.0
C349 C 0.87446 0.3246 0.56281 0.0
C350 C 0.97146 0.41575 0.73775 0.0
C351 C 0.81509 0.26228 0.87517 0.0
H352 H 0.96992 0.35628 0.37584 0.0
H353 H 0.95346 0.31455 0.23301 0.0
H354 H 0.78147 0.26095 0.25728 0.0
H355 H 0.79822 0.3008 0.40566 0.0
H356 H 0.95857 0.43616 0.44012 0.0
H357 H 1.0006 0.46886 0.58378 0.0
H358 H 0.87998 0.31875 0.70158 0.0
H359 H 0.84132 0.2828 0.55694 0.0
Tb360 Tb 0.71459 0.12598 0.96673 0.0
Tb361 Tb 0.65627 0.09954 0.84255 0.0
C362 C 0.7544 0.22359 0.86948 0.0
C363 C 0.73851 0.13902 0.1974 0.0
C364 C 0.69855 0.14554 0.36214 0.0
C365 C 0.75195 0.1553 0.35312 0.0
C366 C 0.77093 0.15033 0.2716 0.0
C367 C 0.68661 0.13399 0.20513 0.0
C368 C 0.66639 0.1367 0.2874 0.0
C369 C 0.75751 0.13004 0.11299 0.0
O370 O 0.65653 0.15838 0.99944 0.0
O371 O 0.5908 0.09575 0.91783 0.0
O372 O 0.64122 0.04241 0.96402 0.0
O373 O 0.64063 0.04407 0.96702 0.0
O374 O 0.62659 0.13747 0.75886 0.0
O375 O 0.60323 0.05114 0.74433 0.0
O376 O 0.69294 0.05963 0.77388 0.0
O377 O 0.76528 0.11715 0.85319 0.0
O378 O 0.73207 0.20832 0.94521 0.0
O379 O 0.73414 0.18161 0.8152 0.0
C380 C 0.6043 0.13326 0.97586 0.0
O381 O 0.72401 0.08459 1.07473 0.0
O382 O 0.77629 0.17041 1.05811 0.0
C383 C 0.61199 0.03438 1.03941 0.0
C384 C 0.62679 0.1061 0.6167 0.0
C385 C 0.6738 0.13346 0.44954 0.0
C386 C 0.67742 0.09398 0.49985 0.0
C387 C 0.65409 0.08031 0.58228 0.0
C388 C 0.62354 0.14622 0.56687 0.0
C389 C 0.64611 0.15918 0.48261 0.0
C390 C 0.60615 0.09454 0.70697 0.0
C391 C 0.74548 0.08535 0.78122 0.0
H392 H 0.77771 0.16354 0.41027 0.0
H393 H 0.80972 0.15281 0.26707 0.0
H394 H 0.66055 0.12503 0.14868 0.0
H395 H 0.62473 0.12843 0.29317 0.0
H396 H 0.69798 0.07317 0.47489 0.0
H397 H 0.65745 0.04926 0.6185 0.0
H398 H 0.60369 0.16747 0.59319 0.0
H399 H 0.64294 0.18975 0.44427 0.0
Tb400 Tb 0.90335 0.58969 0.96679 0.0
Tb401 Tb 0.92981 0.55781 0.84259 0.0
C402 C 0.80576 0.53189 0.8695 0.0
C403 C 0.8903 0.60057 0.19747 0.0
C404 C 0.88379 0.55409 0.36221 0.0
C405 C 0.87403 0.59774 0.35321 0.0
C406 C 0.87899 0.62167 0.27168 0.0
C407 C 0.89534 0.5537 0.20519 0.0
C408 C 0.89264 0.53078 0.28746 0.0
C409 C 0.89928 0.62854 0.11307 0.0
O410 O 0.87095 0.49924 0.99949 0.0
O411 O 0.93359 0.49613 0.91786 0.0
O412 O 0.98692 0.59988 0.96406 0.0
O413 O 0.98526 0.59764 0.96706 0.0
O414 O 0.8919 0.4902 0.75889 0.0
O415 O 0.97822 0.55318 0.74435 0.0
O416 O 0.96971 0.6344 0.77394 0.0
O417 O 0.91219 0.64922 0.85327 0.0
O418 O 0.82102 0.52484 0.94524 0.0
O419 O 0.84774 0.55361 0.81522 0.0
C420 C 0.89607 0.47211 0.9759 0.0
O421 O 0.94473 0.64051 1.07479 0.0
O422 O 0.85891 0.60695 1.05819 0.0
C423 C 0.99495 0.57868 1.03944 0.0
C424 C 0.92326 0.52178 0.61673 0.0
C425 C 0.89588 0.54143 0.4496 0.0
C426 C 0.93536 0.58452 0.4999 0.0
C427 C 0.94904 0.57487 0.58231 0.0
C428 C 0.88314 0.47841 0.56692 0.0
C429 C 0.87017 0.48802 0.48268 0.0
C430 C 0.93483 0.5127 0.707 0.0
C431 C 0.94399 0.66122 0.78129 0.0
H432 H 0.86579 0.61525 0.41037 0.0
H433 H 0.87652 0.658 0.26718 0.0
H434 H 0.90429 0.5366 0.14873 0.0
H435 H 0.9009 0.49737 0.29321 0.0
H436 H 0.95617 0.6259 0.47493 0.0
H437 H 0.9801 0.60928 0.61853 0.0
H438 H 0.86189 0.4373 0.59324 0.0
H439 H 0.8396 0.45428 0.44434 0.0
Tb440 Tb 0.43963 0.31472 0.96672 0.0
Tb441 Tb 0.47153 0.37306 0.84252 0.0
C442 C 0.49744 0.27492 0.86945 0.0
C443 C 0.42874 0.2908 0.1974 0.0
C444 C 0.47523 0.33075 0.36212 0.0
C445 C 0.43157 0.27735 0.35312 0.0
C446 C 0.40764 0.25838 0.2716 0.0
C447 C 0.47561 0.3427 0.20512 0.0
C448 C 0.49854 0.36291 0.28737 0.0
C449 C 0.40077 0.27181 0.113 0.0
O450 O 0.53008 0.37277 0.99944 0.0
O451 O 0.53321 0.43851 0.9178 0.0
O452 O 0.42945 0.38811 0.96399 0.0
O453 O 0.4317 0.3887 0.96699 0.0
O454 O 0.53913 0.40273 0.7588 0.0
O455 O 0.47618 0.42611 0.74429 0.0
O456 O 0.39495 0.33638 0.77388 0.0
O457 O 0.38012 0.26404 0.85321 0.0
O458 O 0.50449 0.29725 0.94518 0.0
O459 O 0.47572 0.29518 0.81517 0.0
C460 C 0.55721 0.42501 0.97584 0.0
O461 O 0.38882 0.30531 1.07473 0.0
O462 O 0.42234 0.25301 1.05811 0.0
C463 C 0.45065 0.41734 1.03937 0.0
C464 C 0.50756 0.40252 0.61666 0.0
C465 C 0.4879 0.3555 0.44952 0.0
C466 C 0.44481 0.35189 0.49985 0.0
C467 C 0.45447 0.37523 0.58226 0.0
C468 C 0.55092 0.40576 0.56682 0.0
C469 C 0.54131 0.38319 0.48257 0.0
C470 C 0.51665 0.42318 0.70692 0.0
C471 C 0.36812 0.28384 0.78123 0.0
H472 H 0.41407 0.2516 0.41028 0.0
H473 H 0.37131 0.21959 0.26709 0.0
H474 H 0.49271 0.36876 0.14865 0.0
H475 H 0.53195 0.40458 0.29313 0.0
H476 H 0.40344 0.33134 0.4749 0.0
H477 H 0.42007 0.37188 0.6185 0.0
H478 H 0.59203 0.42562 0.59312 0.0
H479 H 0.57504 0.38635 0.44421 0.0
Tb480 Tb 0.38124 0.92135 0.34178 0.0
Tb481 Tb 0.32297 0.89519 0.21824 0.0
C482 C 0.42617 0.98635 0.14458 0.0
C483 C 0.4123 0.91664 0.56735 0.0
C484 C 0.3666 0.89134 0.73559 0.0
C485 C 0.36388 0.93118 0.68488 0.0
C486 C 0.38661 0.94391 0.60209 0.0
C487 C 0.41415 0.87571 0.61709 0.0
C488 C 0.39235 0.86383 0.70194 0.0
C489 C 0.43229 0.92737 0.47671 0.0
O490 O 0.34321 0.95918 0.41282 0.0
O491 O 0.27142 0.90268 0.33185 0.0
O492 O 0.30597 0.81292 0.23689 0.0
O493 O 0.30365 0.83854 0.36755 0.0
O494 O 0.31339 0.93767 0.11216 0.0
O495 O 0.26216 0.85114 0.12504 0.0
O496 O 0.38082 0.86228 0.18647 0.0
O497 O 0.44676 0.92514 0.2672 0.0
O498 O 0.3971 0.97877 0.22013 0.0
O499 O 0.39739 0.97671 0.21689 0.0
C500 C 0.29074 0.93362 0.40478 0.0
O501 O 0.41146 0.88403 0.4257 0.0
O502 O 0.43496 0.97048 0.43871 0.0
C503 C 0.28354 0.79695 0.31235 0.0
C504 C 0.3012 0.88545 0.98769 0.0
C505 C 0.34164 0.87979 0.82292 0.0
C506 C 0.28945 0.8732 0.8314 0.0
C507 C 0.2708 0.87863 0.91284 0.0
C508 C 0.35186 0.88765 0.98061 0.0
C509 C 0.37249 0.88563 0.89823 0.0
C510 C 0.28101 0.89252 1.07209 0.0
C511 C 0.43311 0.88737 0.20979 0.0
H512 H 0.34421 0.95287 0.70964 0.0
H513 H 0.38371 0.97518 0.56567 0.0
H514 H 0.43226 0.85296 0.5902 0.0
H515 H 0.39434 0.83253 0.74008 0.0
H516 H 0.26461 0.86709 0.77383 0.0
H517 H 0.23325 0.87897 0.91746 0.0
H518 H 0.3767 0.89375 1.03772 0.0
H519 H 0.41338 0.89178 0.89312 0.0
Tb520 Tb 0.10795 0.46094 0.34176 0.0
Tb521 Tb 0.13412 0.42882 0.21821 0.0
C522 C 0.04297 0.44088 0.14457 0.0
C523 C 0.11266 0.49671 0.56733 0.0
C524 C 0.13796 0.47631 0.73556 0.0
C525 C 0.09812 0.43375 0.68485 0.0
C526 C 0.0854 0.44375 0.60207 0.0
C527 C 0.1536 0.53949 0.61707 0.0
C528 C 0.16548 0.52957 0.70191 0.0
C529 C 0.10193 0.50598 0.4767 0.0
O530 O 0.07012 0.38508 0.4128 0.0
O531 O 0.12663 0.36978 0.33181 0.0
O532 O 0.21639 0.49409 0.23687 0.0
O533 O 0.19075 0.46615 0.36753 0.0
O534 O 0.09165 0.37676 0.11213 0.0
O535 O 0.17817 0.41207 0.12498 0.0
O536 O 0.16703 0.51959 0.18644 0.0
O537 O 0.10417 0.52268 0.26719 0.0
O538 O 0.05054 0.41939 0.22012 0.0
O539 O 0.0526 0.42173 0.21687 0.0
C540 C 0.09568 0.35816 0.40475 0.0
O541 O 0.14528 0.52849 0.42568 0.0
O542 O 0.05883 0.46554 0.43871 0.0
C543 C 0.23235 0.48764 0.31232 0.0
C544 C 0.14385 0.41679 0.98765 0.0
C545 C 0.14951 0.46289 0.82288 0.0
C546 C 0.15608 0.41727 0.83135 0.0
C547 C 0.15064 0.3932 0.91278 0.0
C548 C 0.14166 0.46527 0.98058 0.0
C549 C 0.14368 0.48791 0.8982 0.0
C550 C 0.13679 0.38954 1.07205 0.0
C551 C 0.14194 0.5468 0.20978 0.0
H552 H 0.07643 0.39239 0.7096 0.0
H553 H 0.05413 0.40959 0.56565 0.0
H554 H 0.17635 0.58035 0.59018 0.0
H555 H 0.19678 0.56285 0.74005 0.0
H556 H 0.16218 0.39854 0.77377 0.0
H557 H 0.1503 0.3553 0.91739 0.0
H558 H 0.13558 0.48401 1.0377 0.0
H559 H 0.13754 0.52266 0.8931 0.0
Tb560 Tb 0.56836 0.64807 0.34177 0.0
Tb561 Tb 0.60049 0.70635 0.21821 0.0
C562 C 0.58842 0.60313 0.14457 0.0
C563 C 0.53259 0.61699 0.56735 0.0
C564 C 0.55299 0.66268 0.73558 0.0
C565 C 0.59555 0.66541 0.68485 0.0
C566 C 0.58555 0.64268 0.60206 0.0
C567 C 0.48982 0.61515 0.61711 0.0
C568 C 0.49973 0.63695 0.70195 0.0
C569 C 0.52332 0.597 0.47671 0.0
O570 O 0.64421 0.68609 0.41279 0.0
O571 O 0.65952 0.75789 0.3318 0.0
O572 O 0.53522 0.72335 0.23689 0.0
O573 O 0.56315 0.72566 0.36754 0.0
O574 O 0.65254 0.71592 0.11212 0.0
O575 O 0.61724 0.76716 0.12498 0.0
O576 O 0.50972 0.6485 0.18644 0.0
O577 O 0.50662 0.58256 0.26719 0.0
O578 O 0.60991 0.6322 0.22012 0.0
O579 O 0.60757 0.63191 0.21687 0.0
C580 C 0.67114 0.73857 0.40474 0.0
O581 O 0.50081 0.61784 0.42571 0.0
O582 O 0.56376 0.59433 0.4387 0.0
C583 C 0.54167 0.74577 0.31234 0.0
C584 C 0.61252 0.7281 0.98765 0.0
C585 C 0.56641 0.68765 0.8229 0.0
C586 C 0.61202 0.73984 0.83136 0.0
C587 C 0.6361 0.75849 0.91279 0.0
C588 C 0.56405 0.67743 0.98059 0.0
C589 C 0.5414 0.6568 0.89822 0.0
C590 C 0.63977 0.7483 1.07204 0.0
C591 C 0.48251 0.59621 0.20978 0.0
H592 H 0.63691 0.68507 0.70959 0.0
H593 H 0.61971 0.64558 0.56563 0.0
H594 H 0.44896 0.59704 0.59023 0.0
H595 H 0.46645 0.63496 0.7401 0.0
H596 H 0.63074 0.76468 0.77378 0.0
H597 H 0.67399 0.79605 0.91739 0.0
H598 H 0.54532 0.65261 1.03771 0.0
H599 H 0.50666 0.61591 0.89313 0.0
Tb600 Tb 0.38228 0.45922 0.29959 0.0
Tb601 Tb 0.32443 0.43337 0.17328 0.0
C602 C 0.42196 0.55738 0.20405 0.0
C603 C 0.40966 0.47604 0.52987 0.0
C604 C 0.37255 0.49027 0.69286 0.0
C605 C 0.42274 0.49194 0.68633 0.0
C606 C 0.44053 0.48393 0.6053 0.0
C607 C 0.36099 0.47765 0.5357 0.0
C608 C 0.34253 0.48479 0.6165 0.0
C609 C 0.4262 0.46377 0.44569 0.0
O610 O 0.32359 0.49135 0.32995 0.0
O611 O 0.25808 0.42865 0.24737 0.0
O612 O 0.30786 0.37584 0.29633 0.0
O613 O 0.30754 0.37793 0.29985 0.0
O614 O 0.29145 0.47005 0.09483 0.0
O615 O 0.27789 0.38802 1.06504 0.0
O616 O 0.36193 0.39481 0.10349 0.0
O617 O 0.43332 0.45071 0.18622 0.0
O618 O 0.39944 0.54162 0.27963 0.0
O619 O 0.40236 0.51569 0.14939 0.0
C620 C 0.27134 0.46602 0.3059 0.0
O621 O 0.39012 0.41841 0.40999 0.0
O622 O 0.44585 0.503 0.38859 0.0
C623 C 0.27871 0.36849 0.37211 0.0
C624 C 0.30049 0.45084 0.94743 0.0
C625 C 0.34649 0.48184 0.77915 0.0
C626 C 0.29491 0.43589 0.79054 0.0
C627 C 0.27305 0.42031 0.87372 0.0
C628 C 0.35169 0.49837 0.93607 0.0
C629 C 0.37485 0.51346 0.85236 0.0
C630 C 0.27704 0.43143 1.03545 0.0
C631 C 0.41433 0.42015 0.11285 0.0
H632 H 0.44652 0.4963 0.74454 0.0
H633 H 0.47699 0.48155 0.60199 0.0
H634 H 0.33575 0.47057 0.47883 0.0
H635 H 0.30333 0.48292 0.62008 0.0
H636 H 0.27265 0.40992 0.73557 0.0
H637 H 0.23529 0.38344 0.87938 0.0
H638 H 0.37445 0.52305 0.9916 0.0
H639 H 0.41512 0.54886 0.84493 0.0
Tb640 Tb 0.57009 0.92412 0.29961 0.0
Tb641 Tb 0.59595 0.89212 0.17327 0.0
C642 C 0.47195 0.86565 0.20407 0.0
C643 C 0.55325 0.93468 0.5299 0.0
C644 C 0.53901 0.88334 0.69289 0.0
C645 C 0.53736 0.93187 0.68637 0.0
C646 C 0.54538 0.95767 0.60534 0.0
C647 C 0.55162 0.88439 0.53572 0.0
C648 C 0.54448 0.85879 0.61652 0.0
C649 C 0.56554 0.9635 0.44572 0.0
O650 O 0.53796 0.83331 0.32996 0.0
O651 O 0.60066 0.83049 0.24737 0.0
O652 O 0.65347 0.93307 0.29632 0.0
O653 O 0.65138 0.93067 0.29983 0.0
O654 O 0.55926 0.82246 0.09483 0.0
O655 O 0.64129 0.89091 1.06501 0.0
O656 O 0.63451 0.96818 0.1035 0.0
O657 O 0.57861 0.98368 0.18625 0.0
O658 O 0.4877 0.85889 0.27965 0.0
O659 O 0.51364 0.88774 0.1494 0.0
C660 C 0.56329 0.80638 0.30591 0.0
O661 O 0.61089 0.97276 0.41002 0.0
O662 O 0.52631 0.94393 0.38863 0.0
C663 C 0.66082 0.91128 0.37208 0.0
C664 C 0.57846 0.8507 0.94742 0.0
C665 C 0.54744 0.8657 0.77916 0.0
C666 C 0.59339 0.86006 0.79052 0.0
C667 C 0.60898 0.85378 0.87369 0.0
C668 C 0.53094 0.85438 0.93609 0.0
C669 C 0.51584 0.86245 0.85239 0.0
C670 C 0.59788 0.84666 1.03543 0.0
C671 C 0.60917 0.99525 0.11287 0.0
H672 H 0.53301 0.95129 0.74459 0.0
H673 H 0.54777 0.99652 0.60205 0.0
H674 H 0.5587 0.86623 0.47884 0.0
H675 H 0.54634 0.82145 0.62008 0.0
H676 H 0.61935 0.86376 0.73553 0.0
H677 H 0.64585 0.85288 0.87931 0.0
H678 H 0.50626 0.85245 0.99164 0.0
H679 H 0.48044 0.86732 0.84499 0.0
Tb680 Tb 0.1052 0.64704 0.29963 0.0
Tb681 Tb 0.13721 0.7049 0.17329 0.0
C682 C 0.16366 0.60736 0.20405 0.0
C683 C 0.09465 0.61965 0.52991 0.0
C684 C 0.14599 0.65676 0.69288 0.0
C685 C 0.09748 0.60656 0.68637 0.0
C686 C 0.07167 0.58878 0.60535 0.0
C687 C 0.14492 0.66833 0.53572 0.0
C688 C 0.17053 0.68678 0.61651 0.0
C689 C 0.06583 0.60312 0.44574 0.0
O690 O 0.19601 0.70571 0.32997 0.0
O691 O 0.19884 0.77123 0.24738 0.0
O692 O 0.09626 0.72147 0.29634 0.0
O693 O 0.09866 0.72179 0.29986 0.0
O694 O 0.20686 0.73787 0.09483 0.0
O695 O 0.13842 0.75145 1.06504 0.0
O696 O 0.06115 0.6674 0.10352 0.0
O697 O 0.04564 0.596 0.18628 0.0
O698 O 0.17042 0.62986 0.27963 0.0
O699 O 0.14158 0.62696 0.14939 0.0
C700 C 0.22294 0.75797 0.30591 0.0
O701 O 0.05657 0.63921 0.41005 0.0
O702 O 0.08539 0.58346 0.38864 0.0
C703 C 0.11805 0.75063 0.37211 0.0
C704 C 0.17862 0.72883 0.94743 0.0
C705 C 0.16362 0.68282 0.77916 0.0
C706 C 0.16922 0.73439 0.79054 0.0
C707 C 0.1755 0.75625 0.87371 0.0
C708 C 0.17498 0.67764 0.93607 0.0
C709 C 0.16691 0.65448 0.85236 0.0
C710 C 0.18267 0.75229 1.03545 0.0
C711 C 0.03408 0.615 0.1129 0.0
H712 H 0.07806 0.58278 0.74459 0.0
H713 H 0.03283 0.55232 0.60207 0.0
H714 H 0.16308 0.69357 0.47885 0.0
H715 H 0.20785 0.72599 0.62007 0.0
H716 H 0.16549 0.75664 0.73557 0.0
H717 H 0.17636 0.79401 0.87937 0.0
H718 H 0.17694 0.6549 0.9916 0.0
H719 H 0.16208 0.61422 0.84494 0.0
loop_
_geom_bond_atom_site_label_1
_geom_bond_atom_site_label_2
_geom_bond_distance
_geom_bond_site_symmetry_2
_ccdc_geom_bond_type
Tb0 C9 2.764 . S
Tb0 O10 2.325 1_455 S
Tb0 O13 2.303 1_455 S
Tb0 O17 2.322 . S
Tb0 O18 2.349 . S
Tb0 O21 2.415 . S
Tb0 O22 2.399 . S
Tb1 O11 2.322 . S
Tb1 O12 2.349 . S
Tb1 O14 2.415 1_655 S
Tb1 O15 2.399 . S
Tb1 O16 2.325 1_655 S
Tb1 O19 2.303 1_655 S
Tb1 C30 2.764 . S
C2 O18 1.261 . S
C2 O19 1.257 . S
C3 C6 1.358 . S
C3 C7 1.332 . S
C3 C9 1.504 . S
C4 C5 1.373 1_554 S
C4 C8 1.308 1_554 S
C5 C4 1.373 1_556 S
C5 C6 1.429 . S
C5 H32 0.932 . S
C6 C3 1.358 . S
C6 C5 1.429 . S
C6 H33 0.930 . S
C7 C3 1.332 . S
C7 C8 1.394 . S
C7 H34 0.932 1_455 S
C8 C4 1.308 1_556 S
C8 C7 1.394 . S
C8 H35 0.929 1_455 S
C9 Tb0 2.764 . S
C9 C3 1.504 . S
C9 O21 1.239 . S
C9 O22 1.263 . S
O10 Tb0 2.325 1_655 S
O10 C20 1.236 . S
O11 Tb1 2.322 . S
O11 C20 1.257 . S
O12 Tb1 2.349 . S
O12 C23 1.261 . S
O13 Tb0 2.303 1_655 S
O13 C23 1.257 . S
O14 Tb1 2.415 1_455 S
O14 C30 1.239 1_455 S
O15 Tb1 2.399 . S
O15 C30 1.263 . S
O16 Tb1 2.325 1_455 S
O16 C31 1.236 . S
O17 Tb0 2.322 . S
O17 C31 1.257 . S
O18 Tb0 2.349 . S
O18 C2 1.261 . S
O19 Tb1 2.303 1_455 S
O19 C2 1.257 . S
C20 O10 1.236 . S
C20 O11 1.257 . S
O21 Tb0 2.415 . S
O21 C9 1.239 . S
O22 Tb0 2.399 . S
O22 C9 1.263 . S
C23 O12 1.261 . S
C23 O13 1.257 . S
C24 C27 1.358 . S
C24 C28 1.332 1_655 S
C24 C30 1.504 . S
C25 C26 1.373 . S
C25 C29 1.308 1_655 S
C26 C25 1.373 . S
C26 C27 1.429 . S
C26 H36 0.932 . S
C27 C24 1.358 . S
C27 C26 1.429 . S
C27 H37 0.930 . S
C28 C24 1.332 1_455 S
C28 C29 1.394 . S
C28 H38 0.932 . S
C29 C25 1.308 1_455 S
C29 C28 1.394 . S
C29 H39 0.929 . S
C30 Tb1 2.764 . S
C30 O14 1.239 1_655 S
C30 O15 1.263 . S
C30 C24 1.504 . S
C31 O16 1.236 . S
C31 O17 1.257 . S
H32 C5 0.932 . S
H33 C6 0.930 . S
H34 C7 0.932 1_655 S
H35 C8 0.929 1_655 S
H36 C26 0.932 . S
H37 C27 0.930 . S
H38 C28 0.932 . S
H39 C29 0.929 . S
Tb40 C49 2.764 . S
Tb40 O50 2.325 . S
Tb40 O53 2.303 . S
Tb40 O57 2.322 . S
Tb40 O58 2.349 . S
Tb40 O61 2.415 . S
Tb40 O62 2.399 . S
Tb41 O51 2.322 . S
Tb41 O52 2.349 . S
Tb41 O54 2.415 . S
Tb41 O55 2.399 . S
Tb41 O56 2.325 . S
Tb41 O59 2.303 . S
Tb41 C70 2.764 . S
C42 O58 1.261 . S
C42 O59 1.257 . S
C43 C46 1.358 . S
C43 C47 1.332 . S
C43 C49 1.504 . S
C44 C45 1.373 1_554 S
C44 C48 1.308 1_554 S
C45 C44 1.373 1_556 S
C45 C46 1.429 . S
C45 H72 0.932 . S
C46 C43 1.358 . S
C46 C45 1.429 . S
C46 H73 0.930 . S
C47 C43 1.332 . S
C47 C48 1.394 . S
C47 H74 0.932 . S
C48 C44 1.308 1_556 S
C48 C47 1.394 . S
C48 H75 0.929 . S
C49 Tb40 2.764 . S
C49 C43 1.504 . S
C49 O61 1.239 . S
C49 O62 1.263 . S
O50 Tb40 2.325 . S
O50 C60 1.236 . S
O51 Tb41 2.322 . S
O51 C60 1.257 . S
O52 Tb41 2.349 . S
O52 C63 1.261 . S
O53 Tb40 2.303 . S
O53 C63 1.257 . S
O54 Tb41 2.415 . S
O54 C70 1.239 . S
O55 Tb41 2.399 . S
O55 C70 1.263 . S
O56 Tb41 2.325 . S
O56 C71 1.236 . S
O57 Tb40 2.322 . S
O57 C71 1.257 . S
O58 Tb40 2.349 . S
O58 C42 1.261 . S
O59 Tb41 2.303 . S
O59 C42 1.257 . S
C60 O50 1.236 . S
C60 O51 1.257 . S
O61 Tb40 2.415 . S
O61 C49 1.239 . S
O62 Tb40 2.399 . S
O62 C49 1.263 . S
C63 O52 1.261 . S
C63 O53 1.257 . S
C64 C67 1.358 . S
C64 C68 1.332 . S
C64 C70 1.504 . S
C65 C66 1.373 . S
C65 C69 1.308 . S
C66 C65 1.373 . S
C66 C67 1.429 . S
C66 H76 0.932 . S
C67 C64 1.358 . S
C67 C66 1.429 . S
C67 H77 0.930 . S
C68 C64 1.332 . S
C68 C69 1.394 . S
C68 H78 0.932 . S
C69 C65 1.308 . S
C69 C68 1.394 . S
C69 H79 0.929 . S
C70 Tb41 2.764 . S
C70 O54 1.239 . S
C70 O55 1.263 . S
C70 C64 1.504 . S
C71 O56 1.236 . S
C71 O57 1.257 . S
H72 C45 0.932 . S
H73 C46 0.930 . S
H74 C47 0.932 . S
H75 C48 0.929 . S
H76 C66 0.932 . S
H77 C67 0.930 . S
H78 C68 0.932 . S
H79 C69 0.929 . S
Tb80 C89 2.764 . S
Tb80 O90 2.325 1_565 S
Tb80 O93 2.303 1_565 S
Tb80 O97 2.322 . S
Tb80 O98 2.349 . S
Tb80 O101 2.405 1_565 S
Tb80 O102 2.399 . S
Tb81 O91 2.322 . S
Tb81 O92 2.349 . S
Tb81 O94 2.415 . S
Tb81 O95 2.399 . S
Tb81 O96 2.325 1_545 S
Tb81 O99 2.303 1_545 S
Tb81 C110 2.764 . S
C82 O98 1.261 . S
C82 O99 1.257 . S
C83 C86 1.358 . S
C83 C87 1.332 1_565 S
C83 C89 1.504 . S
C84 C85 1.373 1_554 S
C84 C88 1.308 1_564 S
C85 C84 1.373 1_556 S
C85 C86 1.429 . S
C85 H112 0.932 . S
C86 C83 1.358 . S
C86 C85 1.429 . S
C86 H113 0.930 . S
C87 C83 1.332 1_545 S
C87 C88 1.394 . S
C87 H114 0.932 . S
C88 C84 1.308 1_546 S
C88 C87 1.394 . S
C88 H115 0.929 . S
C89 Tb80 2.764 . S
C89 C83 1.504 . S
C89 O101 1.219 1_565 S
C89 O102 1.263 . S
O90 Tb80 2.325 1_545 S
O90 C100 1.236 . S
O91 Tb81 2.322 . S
O91 C100 1.257 . S
O92 Tb81 2.349 . S
O92 C103 1.261 . S
O93 Tb80 2.303 1_545 S
O93 C103 1.257 . S
O94 Tb81 2.415 . S
O94 C110 1.239 . S
O95 Tb81 2.399 . S
O95 C110 1.263 . S
O96 Tb81 2.325 1_565 S
O96 C111 1.236 . S
O97 Tb80 2.322 . S
O97 C111 1.257 . S
O98 Tb80 2.349 . S
O98 C82 1.261 . S
O99 Tb81 2.303 1_565 S
O99 C82 1.257 . S
C100 O90 1.236 . S
C100 O91 1.257 . S
O101 Tb80 2.405 1_545 S
O101 C89 1.219 1_545 S
O102 Tb80 2.399 . S
O102 C89 1.263 . S
C103 O92 1.261 . S
C103 O93 1.257 . S
C104 C107 1.358 . S
C104 C108 1.332 1_545 S
C104 C110 1.504 . S
C105 C106 1.373 . S
C105 C109 1.308 1_545 S
C106 C105 1.373 . S
C106 C107 1.429 . S
C106 H116 0.932 . S
C107 C104 1.358 . S
C107 C106 1.429 . S
C107 H117 0.930 . S
C108 C104 1.332 1_565 S
C108 C109 1.394 . S
C108 H118 0.932 . S
C109 C105 1.308 1_565 S
C109 C108 1.394 . S
C109 H119 0.929 . S
C110 Tb81 2.764 . S
C110 O94 1.239 . S
C110 O95 1.263 . S
C110 C104 1.504 . S
C111 O96 1.236 . S
C111 O97 1.257 . S
H112 C85 0.932 . S
H113 C86 0.930 . S
H114 C87 0.932 . S
H115 C88 0.929 . S
H116 C106 0.932 . S
H117 C107 0.930 . S
H118 C108 0.932 . S
H119 C109 0.929 . S
Tb120 C129 2.764 . S
Tb120 O130 2.325 1_455 S
Tb120 O133 2.303 1_455 S
Tb120 O137 2.322 . S
Tb120 O138 2.349 . S
Tb120 O141 2.415 . S
Tb120 O142 2.399 . S
Tb121 O131 2.322 . S
Tb121 O132 2.349 . S
Tb121 O134 2.415 1_655 S
Tb121 O135 2.399 . S
Tb121 O136 2.325 1_655 S
Tb121 O139 2.303 1_655 S
Tb121 C150 2.764 . S
C122 O138 1.261 . S
C122 O139 1.257 . S
C123 C126 1.358 . S
C123 C127 1.332 1_455 S
C123 C129 1.504 . S
C124 C125 1.373 . S
C124 C128 1.308 1_455 S
C125 C124 1.373 . S
C125 C126 1.429 . S
C125 H152 0.932 . S
C126 C123 1.358 . S
C126 C125 1.429 . S
C126 H153 0.930 . S
C127 C123 1.332 1_655 S
C127 C128 1.394 . S
C127 H154 0.932 . S
C128 C124 1.308 1_655 S
C128 C127 1.394 . S
C128 H155 0.929 . S
C129 Tb120 2.764 . S
C129 C123 1.504 . S
C129 O141 1.239 . S
C129 O142 1.263 . S
O130 Tb120 2.325 1_655 S
O130 C140 1.236 . S
O131 Tb121 2.322 . S
O131 C140 1.257 . S
O132 Tb121 2.349 . S
O132 C143 1.261 . S
O133 Tb120 2.303 1_655 S
O133 C143 1.257 . S
O134 Tb121 2.415 1_455 S
O134 C150 1.239 1_455 S
O135 Tb121 2.399 . S
O135 C150 1.263 . S
O136 Tb121 2.325 1_455 S
O136 C151 1.236 . S
O137 Tb120 2.322 . S
O137 C151 1.257 . S
O138 Tb120 2.349 . S
O138 C122 1.261 . S
O139 Tb121 2.303 1_455 S
O139 C122 1.257 . S
C140 O130 1.236 . S
C140 O131 1.257 . S
O141 Tb120 2.415 . S
O141 C129 1.239 . S
O142 Tb120 2.399 . S
O142 C129 1.263 . S
C143 O132 1.261 . S
C143 O133 1.257 . S
C144 C147 1.358 . S
C144 C148 1.332 1_655 S
C144 C150 1.504 . S
C145 C146 1.373 1_556 S
C145 C149 1.308 1_656 S
C146 C145 1.373 1_554 S
C146 C147 1.429 . S
C146 H156 0.932 . S
C147 C144 1.358 . S
C147 C146 1.429 . S
C147 H157 0.930 . S
C148 C144 1.332 1_455 S
C148 C149 1.394 . S
C148 H158 0.932 . S
C149 C145 1.308 1_454 S
C149 C148 1.394 . S
C149 H159 0.929 . S
C150 Tb121 2.764 . S
C150 O134 1.239 1_655 S
C150 O135 1.263 . S
C150 C144 1.504 . S
C151 O136 1.236 . S
C151 O137 1.257 . S
H152 C125 0.932 . S
H153 C126 0.930 . S
H154 C127 0.932 . S
H155 C128 0.929 . S
H156 C146 0.932 . S
H157 C147 0.930 . S
H158 C148 0.932 . S
H159 C149 0.929 . S
Tb160 C169 2.764 . S
Tb160 O170 2.325 . S
Tb160 O173 2.303 . S
Tb160 O177 2.322 . S
Tb160 O178 2.349 . S
Tb160 O181 2.415 . S
Tb160 O182 2.399 . S
Tb161 O171 2.322 . S
Tb161 O172 2.349 . S
Tb161 O174 2.415 . S
Tb161 O175 2.399 . S
Tb161 O176 2.325 . S
Tb161 O179 2.303 . S
Tb161 C190 2.764 . S
C162 O178 1.261 . S
C162 O179 1.257 . S
C163 C166 1.358 . S
C163 C167 1.332 . S
C163 C169 1.504 . S
C164 C165 1.373 . S
C164 C168 1.308 . S
C165 C164 1.373 . S
C165 C166 1.429 . S
C165 H192 0.932 . S
C166 C163 1.358 . S
C166 C165 1.429 . S
C166 H193 0.930 . S
C167 C163 1.332 . S
C167 C168 1.394 . S
C167 H194 0.932 . S
C168 C164 1.308 . S
C168 C167 1.394 . S
C168 H195 0.929 . S
C169 Tb160 2.764 . S
C169 C163 1.504 . S
C169 O181 1.239 . S
C169 O182 1.263 . S
O170 Tb160 2.325 . S
O170 C180 1.236 . S
O171 Tb161 2.322 . S
O171 C180 1.257 . S
O172 Tb161 2.349 . S
O172 C183 1.261 . S
O173 Tb160 2.303 . S
O173 C183 1.257 . S
O174 Tb161 2.415 . S
O174 C190 1.239 . S
O175 Tb161 2.399 . S
O175 C190 1.263 . S
O176 Tb161 2.325 . S
O176 C191 1.236 . S
O177 Tb160 2.322 . S
O177 C191 1.257 . S
O178 Tb160 2.349 . S
O178 C162 1.261 . S
O179 Tb161 2.303 . S
O179 C162 1.257 . S
C180 O170 1.236 . S
C180 O171 1.257 . S
O181 Tb160 2.415 . S
O181 C169 1.239 . S
O182 Tb160 2.399 . S
O182 C169 1.263 . S
C183 O172 1.261 . S
C183 O173 1.257 . S
C184 C187 1.358 . S
C184 C188 1.332 . S
C184 C190 1.504 . S
C185 C186 1.373 1_556 S
C185 C189 1.308 1_556 S
C186 C185 1.373 1_554 S
C186 C187 1.429 . S
C186 H196 0.932 . S
C187 C184 1.358 . S
C187 C186 1.429 . S
C187 H197 0.930 . S
C188 C184 1.332 . S
C188 C189 1.394 . S
C188 H198 0.932 . S
C189 C185 1.308 1_554 S
C189 C188 1.394 . S
C189 H199 0.929 . S
C190 Tb161 2.764 . S
C190 O174 1.239 . S
C190 O175 1.263 . S
C190 C184 1.504 . S
C191 O176 1.236 . S
C191 O177 1.257 . S
H192 C165 0.932 . S
H193 C166 0.930 . S
H194 C167 0.932 . S
H195 C168 0.929 . S
H196 C186 0.932 . S
H197 C187 0.930 . S
H198 C188 0.932 . S
H199 C189 0.929 . S
Tb200 C209 2.764 . S
Tb200 O210 2.325 1_565 S
Tb200 O213 2.303 1_565 S
Tb200 O217 2.322 . S
Tb200 O218 2.349 . S
Tb200 O221 2.415 1_565 S
Tb200 O222 2.399 . S
Tb201 O211 2.322 . S
Tb201 O212 2.349 . S
Tb201 O214 2.415 . S
Tb201 O215 2.399 . S
Tb201 O216 2.325 1_545 S
Tb201 O219 2.303 1_545 S
Tb201 C230 2.764 . S
C202 O218 1.261 . S
C202 O219 1.257 . S
C203 C206 1.358 . S
C203 C207 1.332 1_565 S
C203 C209 1.504 . S
C204 C205 1.373 . S
C204 C208 1.308 1_565 S
C205 C204 1.373 . S
C205 C206 1.429 . S
C205 H232 0.932 . S
C206 C203 1.358 . S
C206 C205 1.429 . S
C206 H233 0.930 . S
C207 C203 1.332 1_545 S
C207 C208 1.394 . S
C207 H234 0.932 . S
C208 C204 1.308 1_545 S
C208 C207 1.394 . S
C208 H235 0.929 . S
C209 Tb200 2.764 . S
C209 C203 1.504 . S
C209 O221 1.239 1_565 S
C209 O222 1.263 . S
O210 Tb200 2.325 1_545 S
O210 C220 1.236 . S
O211 Tb201 2.322 . S
O211 C220 1.257 . S
O212 Tb201 2.349 . S
O212 C223 1.261 . S
O213 Tb200 2.303 1_545 S
O213 C223 1.257 . S
O214 Tb201 2.415 . S
O214 C230 1.239 . S
O215 Tb201 2.399 . S
O215 C230 1.263 . S
O216 Tb201 2.325 1_565 S
O216 C231 1.236 . S
O217 Tb200 2.322 . S
O217 C231 1.257 . S
O218 Tb200 2.349 . S
O218 C202 1.261 . S
O219 Tb201 2.303 1_565 S
O219 C202 1.257 . S
C220 O210 1.236 . S
C220 O211 1.257 . S
O221 Tb200 2.415 1_545 S
O221 C209 1.239 1_545 S
O222 Tb200 2.399 . S
O222 C209 1.263 . S
C223 O212 1.261 . S
C223 O213 1.257 . S
C224 C227 1.358 . S
C224 C228 1.332 1_545 S
C224 C230 1.504 . S
C225 C226 1.373 1_556 S
C225 C229 1.308 1_546 S
C226 C225 1.373 1_554 S
C226 C227 1.429 . S
C226 H236 0.932 . S
C227 C224 1.358 . S
C227 C226 1.429 . S
C227 H237 0.930 . S
C228 C224 1.332 1_565 S
C228 C229 1.394 . S
C228 H238 0.932 . S
C229 C225 1.308 1_564 S
C229 C228 1.394 . S
C229 H239 0.929 . S
C230 Tb201 2.764 . S
C230 O214 1.239 . S
C230 O215 1.263 . S
C230 C224 1.504 . S
C231 O216 1.236 . S
C231 O217 1.257 . S
H232 C205 0.932 . S
H233 C206 0.930 . S
H234 C207 0.932 . S
H235 C208 0.929 . S
H236 C226 0.932 . S
H237 C227 0.930 . S
H238 C228 0.932 . S
H239 C229 0.929 . S
Tb240 C249 2.764 1_556 S
Tb240 O250 2.325 . S
Tb240 O253 2.303 . S
Tb240 O257 2.322 . S
Tb240 O258 2.349 . S
Tb240 O261 2.415 1_556 S
Tb240 O262 2.399 1_556 S
Tb241 O251 2.322 . S
Tb241 O252 2.349 . S
Tb241 O254 2.415 . S
Tb241 O255 2.399 . S
Tb241 O256 2.325 . S
Tb241 O259 2.303 . S
Tb241 C270 2.764 . S
C242 O258 1.261 . S
C242 O259 1.257 . S
C243 C246 1.358 . S
C243 C247 1.332 . S
C243 C249 1.504 . S
C244 C245 1.373 . S
C244 C248 1.308 . S
C245 C244 1.373 . S
C245 C246 1.429 . S
C245 H272 0.932 . S
C246 C243 1.358 . S
C246 C245 1.429 . S
C246 H273 0.930 . S
C247 C243 1.332 . S
C247 C248 1.394 . S
C247 H274 0.932 . S
C248 C244 1.308 . S
C248 C247 1.394 . S
C248 H275 0.929 . S
C249 Tb240 2.764 1_554 S
C249 C243 1.504 . S
C249 O261 1.239 . S
C249 O262 1.263 . S
O250 Tb240 2.325 . S
O250 C260 1.236 . S
O251 Tb241 2.322 . S
O251 C260 1.257 . S
O252 Tb241 2.349 . S
O252 C263 1.261 . S
O253 Tb240 2.303 . S
O253 C263 1.257 . S
O254 Tb241 2.415 . S
O254 C270 1.239 . S
O255 Tb241 2.399 . S
O255 C270 1.263 . S
O256 Tb241 2.325 . S
O256 C271 1.236 . S
O257 Tb240 2.322 . S
O257 C271 1.257 . S
O258 Tb240 2.349 . S
O258 C242 1.261 . S
O259 Tb241 2.303 . S
O259 C242 1.257 . S
C260 O250 1.236 . S
C260 O251 1.257 . S
O261 Tb240 2.415 1_554 S
O261 C249 1.239 . S
O262 Tb240 2.399 1_554 S
O262 C249 1.263 . S
C263 O252 1.261 . S
C263 O253 1.257 . S
C264 C267 1.358 . S
C264 C268 1.332 . S
C264 C270 1.504 . S
C265 C266 1.373 . S
C265 C269 1.308 . S
C266 C265 1.373 . S
C266 C267 1.429 . S
C266 H276 0.932 . S
C267 C264 1.358 . S
C267 C266 1.429 . S
C267 H277 0.930 . S
C268 C264 1.332 . S
C268 C269 1.394 . S
C268 H278 0.932 . S
C269 C265 1.308 . S
C269 C268 1.394 . S
C269 H279 0.929 . S
C270 Tb241 2.764 . S
C270 O254 1.239 . S
C270 O255 1.263 . S
C270 C264 1.504 . S
C271 O256 1.236 . S
C271 O257 1.257 . S
H272 C245 0.932 . S
H273 C246 0.930 . S
H274 C247 0.932 . S
H275 C248 0.929 . S
H276 C266 0.932 . S
H277 C267 0.930 . S
H278 C268 0.932 . S
H279 C269 0.929 . S
Tb280 C289 2.764 1_556 S
Tb280 O290 2.325 . S
Tb280 O293 2.303 . S
Tb280 O297 2.322 . S
Tb280 O298 2.349 . S
Tb280 O301 2.415 1_556 S
Tb280 O302 2.399 1_556 S
Tb281 O291 2.322 . S
Tb281 O292 2.349 . S
Tb281 O294 2.415 . S
Tb281 O295 2.399 . S
Tb281 O296 2.325 . S
Tb281 O299 2.303 . S
Tb281 C310 2.764 . S
C282 O298 1.261 . S
C282 O299 1.257 . S
C283 C286 1.358 . S
C283 C287 1.332 . S
C283 C289 1.504 . S
C284 C285 1.373 . S
C284 C288 1.308 . S
C285 C284 1.373 . S
C285 C286 1.429 . S
C285 H312 0.932 . S
C286 C283 1.358 . S
C286 C285 1.429 . S
C286 H313 0.930 . S
C287 C283 1.332 . S
C287 C288 1.394 . S
C287 H314 0.932 . S
C288 C284 1.308 . S
C288 C287 1.394 . S
C288 H315 0.929 . S
C289 Tb280 2.764 1_554 S
C289 C283 1.504 . S
C289 O301 1.239 . S
C289 O302 1.263 . S
O290 Tb280 2.325 . S
O290 C300 1.236 . S
O291 Tb281 2.322 . S
O291 C300 1.257 . S
O292 Tb281 2.349 . S
O292 C303 1.261 . S
O293 Tb280 2.303 . S
O293 C303 1.257 . S
O294 Tb281 2.415 . S
O294 C310 1.239 . S
O295 Tb281 2.399 . S
O295 C310 1.263 . S
O296 Tb281 2.325 . S
O296 C311 1.236 . S
O297 Tb280 2.322 . S
O297 C311 1.257 . S
O298 Tb280 2.349 . S
O298 C282 1.261 . S
O299 Tb281 2.303 . S
O299 C282 1.257 . S
C300 O290 1.236 . S
C300 O291 1.257 . S
O301 Tb280 2.415 1_554 S
O301 C289 1.239 . S
O302 Tb280 2.399 1_554 S
O302 C289 1.263 . S
C303 O292 1.261 . S
C303 O293 1.257 . S
C304 C307 1.358 . S
C304 C308 1.332 . S
C304 C310 1.504 . S
C305 C306 1.373 . S
C305 C309 1.308 . S
C306 C305 1.373 . S
C306 C307 1.429 . S
C306 H316 0.932 . S
C307 C304 1.358 . S
C307 C306 1.429 . S
C307 H317 0.930 . S
C308 C304 1.332 . S
C308 C309 1.394 . S
C308 H318 0.932 . S
C309 C305 1.308 . S
C309 C308 1.394 . S
C309 H319 0.929 . S
C310 Tb281 2.764 . S
C310 O294 1.239 . S
C310 O295 1.263 . S
C310 C304 1.504 . S
C311 O296 1.236 . S
C311 O297 1.257 . S
H312 C285 0.932 . S
H313 C286 0.930 . S
H314 C287 0.932 . S
H315 C288 0.929 . S
H316 C306 0.932 . S
H317 C307 0.930 . S
H318 C308 0.932 . S
H319 C309 0.929 . S
Tb320 C329 2.764 1_556 S
Tb320 O330 2.325 . S
Tb320 O333 2.303 . S
Tb320 O337 2.322 . S
Tb320 O338 2.349 . S
Tb320 O341 2.415 1_556 S
Tb320 O342 2.399 1_556 S
Tb321 O331 2.322 1_655 S
Tb321 O332 2.349 . S
Tb321 O334 2.415 . S
Tb321 O335 2.399 . S
Tb321 O336 2.325 . S
Tb321 O339 2.303 . S
Tb321 C350 2.764 . S
C322 O338 1.261 . S
C322 O339 1.257 . S
C323 C326 1.358 . S
C323 C327 1.332 . S
C323 C329 1.504 . S
C324 C325 1.373 . S
C324 C328 1.308 . S
C325 C324 1.373 . S
C325 C326 1.429 . S
C325 H352 0.932 . S
C326 C323 1.358 . S
C326 C325 1.429 . S
C326 H353 0.930 . S
C327 C323 1.332 . S
C327 C328 1.394 . S
C327 H354 0.932 . S
C328 C324 1.308 . S
C328 C327 1.394 . S
C328 H355 0.929 . S
C329 Tb320 2.764 1_554 S
C329 C323 1.504 . S
C329 O341 1.239 . S
C329 O342 1.263 . S
O330 Tb320 2.325 . S
O330 C340 1.236 1_655 S
O331 Tb321 2.322 1_455 S
O331 C340 1.257 . S
O332 Tb321 2.349 . S
O332 C343 1.261 . S
O333 Tb320 2.303 . S
O333 C343 1.257 . S
O334 Tb321 2.415 . S
O334 C350 1.239 . S
O335 Tb321 2.399 . S
O335 C350 1.263 . S
O336 Tb321 2.325 . S
O336 C351 1.236 . S
O337 Tb320 2.322 . S
O337 C351 1.257 . S
O338 Tb320 2.349 . S
O338 C322 1.261 . S
O339 Tb321 2.303 . S
O339 C322 1.257 . S
C340 O330 1.236 1_455 S
C340 O331 1.257 . S
O341 Tb320 2.415 1_554 S
O341 C329 1.239 . S
O342 Tb320 2.399 1_554 S
O342 C329 1.263 . S
C343 O332 1.261 . S
C343 O333 1.257 . S
C344 C347 1.358 . S
C344 C348 1.332 . S
C344 C350 1.504 . S
C345 C346 1.373 . S
C345 C349 1.308 . S
C346 C345 1.373 . S
C346 C347 1.429 . S
C346 H356 0.932 . S
C347 C344 1.358 . S
C347 C346 1.429 . S
C347 H357 0.930 . S
C348 C344 1.332 . S
C348 C349 1.394 . S
C348 H358 0.932 . S
C349 C345 1.308 . S
C349 C348 1.394 . S
C349 H359 0.929 . S
C350 Tb321 2.764 . S
C350 O334 1.239 . S
C350 O335 1.263 . S
C350 C344 1.504 . S
C351 O336 1.236 . S
C351 O337 1.257 . S
H352 C325 0.932 . S
H353 C326 0.930 . S
H354 C327 0.932 . S
H355 C328 0.929 . S
H356 C346 0.932 . S
H357 C347 0.930 . S
H358 C348 0.932 . S
H359 C349 0.929 . S
Tb360 C369 2.764 1_556 S
Tb360 O370 2.325 . S
Tb360 O373 2.303 . S
Tb360 O377 2.322 . S
Tb360 O378 2.349 . S
Tb360 O381 2.415 1_556 S
Tb360 O382 2.399 1_556 S
Tb361 O371 2.322 . S
Tb361 O372 2.349 . S
Tb361 O374 2.415 . S
Tb361 O375 2.399 . S
Tb361 O376 2.325 . S
Tb361 O379 2.303 . S
Tb361 C390 2.764 . S
C362 O378 1.261 . S
C362 O379 1.257 . S
C363 C366 1.358 . S
C363 C367 1.332 . S
C363 C369 1.504 . S
C364 C365 1.373 . S
C364 C368 1.308 . S
C365 C364 1.373 . S
C365 C366 1.429 . S
C365 H392 0.932 . S
C366 C363 1.358 . S
C366 C365 1.429 . S
C366 H393 0.930 . S
C367 C363 1.332 . S
C367 C368 1.394 . S
C367 H394 0.932 . S
C368 C364 1.308 . S
C368 C367 1.394 . S
C368 H395 0.929 . S
C369 Tb360 2.764 1_554 S
C369 C363 1.504 . S
C369 O381 1.239 . S
C369 O382 1.263 . S
O370 Tb360 2.325 . S
O370 C380 1.236 . S
O371 Tb361 2.322 . S
O371 C380 1.257 . S
O372 Tb361 2.349 . S
O372 C383 1.261 . S
O373 Tb360 2.303 . S
O373 C383 1.257 . S
O374 Tb361 2.415 . S
O374 C390 1.239 . S
O375 Tb361 2.399 . S
O375 C390 1.263 . S
O376 Tb361 2.325 . S
O376 C391 1.236 . S
O377 Tb360 2.322 . S
O377 C391 1.257 . S
O378 Tb360 2.349 . S
O378 C362 1.261 . S
O379 Tb361 2.303 . S
O379 C362 1.257 . S
C380 O370 1.236 . S
C380 O371 1.257 . S
O381 Tb360 2.415 1_554 S
O381 C369 1.239 . S
O382 Tb360 2.399 1_554 S
O382 C369 1.263 . S
C383 O372 1.261 . S
C383 O373 1.257 . S
C384 C387 1.358 . S
C384 C388 1.332 . S
C384 C390 1.504 . S
C385 C386 1.373 . S
C385 C389 1.308 . S
C386 C385 1.373 . S
C386 C387 1.429 . S
C386 H396 0.932 . S
C387 C384 1.358 . S
C387 C386 1.429 . S
C387 H397 0.930 . S
C388 C384 1.332 . S
C388 C389 1.394 . S
C388 H398 0.932 . S
C389 C385 1.308 . S
C389 C388 1.394 . S
C389 H399 0.929 . S
C390 Tb361 2.764 . S
C390 O374 1.239 . S
C390 O375 1.263 . S
C390 C384 1.504 . S
C391 O376 1.236 . S
C391 O377 1.257 . S
H392 C365 0.932 . S
H393 C366 0.930 . S
H394 C367 0.932 . S
H395 C368 0.929 . S
H396 C386 0.932 . S
H397 C387 0.930 . S
H398 C388 0.932 . S
H399 C389 0.929 . S
Tb400 C409 2.764 1_556 S
Tb400 O410 2.325 . S
Tb400 O413 2.303 . S
Tb400 O417 2.322 . S
Tb400 O418 2.349 . S
Tb400 O421 2.415 1_556 S
Tb400 O422 2.399 1_556 S
Tb401 O411 2.322 . S
Tb401 O412 2.349 1_655 S
Tb401 O414 2.415 . S
Tb401 O415 2.399 . S
Tb401 O416 2.325 . S
Tb401 O419 2.303 . S
Tb401 C430 2.764 . S
C402 O418 1.261 . S
C402 O419 1.257 . S
C403 C406 1.358 . S
C403 C407 1.332 . S
C403 C409 1.504 . S
C404 C405 1.373 . S
C404 C408 1.308 . S
C405 C404 1.373 . S
C405 C406 1.429 . S
C405 H432 0.932 . S
C406 C403 1.358 . S
C406 C405 1.429 . S
C406 H433 0.930 . S
C407 C403 1.332 . S
C407 C408 1.394 . S
C407 H434 0.932 . S
C408 C404 1.308 . S
C408 C407 1.394 . S
C408 H435 0.929 . S
C409 Tb400 2.764 1_554 S
C409 C403 1.504 . S
C409 O421 1.239 . S
C409 O422 1.263 . S
O410 Tb400 2.325 . S
O410 C420 1.236 . S
O411 Tb401 2.322 . S
O411 C420 1.257 . S
O412 Tb401 2.349 1_455 S
O412 C423 1.261 . S
O413 Tb400 2.303 . S
O413 C423 1.257 1_655 S
O414 Tb401 2.415 . S
O414 C430 1.239 . S
O415 Tb401 2.399 . S
O415 C430 1.263 . S
O416 Tb401 2.325 . S
O416 C431 1.236 . S
O417 Tb400 2.322 . S
O417 C431 1.257 . S
O418 Tb400 2.349 . S
O418 C402 1.261 . S
O419 Tb401 2.303 . S
O419 C402 1.257 . S
C420 O410 1.236 . S
C420 O411 1.257 . S
O421 Tb400 2.415 1_554 S
O421 C409 1.239 . S
O422 Tb400 2.399 1_554 S
O422 C409 1.263 . S
C423 O412 1.261 . S
C423 O413 1.257 1_455 S
C424 C427 1.358 . S
C424 C428 1.332 . S
C424 C430 1.504 . S
C425 C426 1.373 . S
C425 C429 1.308 . S
C426 C425 1.373 . S
C426 C427 1.429 . S
C426 H436 0.932 1_655 S
C427 C424 1.358 . S
C427 C426 1.429 . S
C427 H437 0.930 1_655 S
C428 C424 1.332 . S
C428 C429 1.394 . S
C428 H438 0.932 . S
C429 C425 1.308 . S
C429 C428 1.394 . S
C429 H439 0.929 . S
C430 Tb401 2.764 . S
C430 O414 1.239 . S
C430 O415 1.263 . S
C430 C424 1.504 . S
C431 O416 1.236 . S
C431 O417 1.257 . S
H432 C405 0.932 . S
H433 C406 0.930 . S
H434 C407 0.932 . S
H435 C408 0.929 . S
H436 C426 0.932 1_455 S
H437 C427 0.930 1_455 S
H438 C428 0.932 . S
H439 C429 0.929 . S
Tb440 C449 2.764 1_556 S
Tb440 O450 2.325 . S
Tb440 O453 2.303 . S
Tb440 O457 2.322 . S
Tb440 O458 2.349 . S
Tb440 O461 2.415 1_556 S
Tb440 O462 2.399 1_556 S
Tb441 O451 2.322 . S
Tb441 O452 2.349 . S
Tb441 O454 2.415 . S
Tb441 O455 2.399 . S
Tb441 O456 2.325 . S
Tb441 O459 2.303 . S
Tb441 C470 2.764 . S
C442 O458 1.261 . S
C442 O459 1.257 . S
C443 C446 1.358 . S
C443 C447 1.332 . S
C443 C449 1.504 . S
C444 C445 1.373 . S
C444 C448 1.308 . S
C445 C444 1.373 . S
C445 C446 1.429 . S
C445 H472 0.932 . S
C446 C443 1.358 . S
C446 C445 1.429 . S
C446 H473 0.930 . S
C447 C443 1.332 . S
C447 C448 1.394 . S
C447 H474 0.932 . S
C448 C444 1.308 . S
C448 C447 1.394 . S
C448 H475 0.929 . S
C449 Tb440 2.764 1_554 S
C449 C443 1.504 . S
C449 O461 1.239 . S
C449 O462 1.263 . S
O450 Tb440 2.325 . S
O450 C460 1.236 . S
O451 Tb441 2.322 . S
O451 C460 1.257 . S
O452 Tb441 2.349 . S
O452 C463 1.261 . S
O453 Tb440 2.303 . S
O453 C463 1.257 . S
O454 Tb441 2.415 . S
O454 C470 1.239 . S
O455 Tb441 2.399 . S
O455 C470 1.263 . S
O456 Tb441 2.325 . S
O456 C471 1.236 . S
O457 Tb440 2.322 . S
O457 C471 1.257 . S
O458 Tb440 2.349 . S
O458 C442 1.261 . S
O459 Tb441 2.303 . S
O459 C442 1.257 . S
C460 O450 1.236 . S
C460 O451 1.257 . S
O461 Tb440 2.415 1_554 S
O461 C449 1.239 . S
O462 Tb440 2.399 1_554 S
O462 C449 1.263 . S
C463 O452 1.261 . S
C463 O453 1.257 . S
C464 C467 1.358 . S
C464 C468 1.332 . S
C464 C470 1.504 . S
C465 C466 1.373 . S
C465 C469 1.308 . S
C466 C465 1.373 . S
C466 C467 1.429 . S
C466 H476 0.932 . S
C467 C464 1.358 . S
C467 C466 1.429 . S
C467 H477 0.930 . S
C468 C464 1.332 . S
C468 C469 1.394 . S
C468 H478 0.932 . S
C469 C465 1.308 . S
C469 C468 1.394 . S
C469 H479 0.929 . S
C470 Tb441 2.764 . S
C470 O454 1.239 . S
C470 O455 1.263 . S
C470 C464 1.504 . S
C471 O456 1.236 . S
C471 O457 1.257 . S
H472 C445 0.932 . S
H473 C446 0.930 . S
H474 C447 0.932 . S
H475 C448 0.929 . S
H476 C466 0.932 . S
H477 C467 0.930 . S
H478 C468 0.932 . S
H479 C469 0.929 . S
Tb480 C489 2.764 . S
Tb480 O490 2.325 . S
Tb480 O493 2.303 . S
Tb480 O497 2.322 . S
Tb480 O498 2.349 1_565 S
Tb480 O501 2.415 . S
Tb480 O502 2.399 . S
Tb481 O491 2.322 . S
Tb481 O492 2.349 . S
Tb481 O494 2.415 1_554 S
Tb481 O495 2.399 1_554 S
Tb481 O496 2.325 . S
Tb481 O499 2.303 . S
Tb481 C510 2.764 1_554 S
C482 O498 1.261 . S
C482 O499 1.257 1_545 S
C483 C486 1.358 . S
C483 C487 1.332 . S
C483 C489 1.504 . S
C484 C485 1.373 . S
C484 C488 1.308 . S
C485 C484 1.373 . S
C485 C486 1.429 . S
C485 H512 0.932 1_565 S
C486 C483 1.358 . S
C486 C485 1.429 . S
C486 H513 0.930 1_565 S
C487 C483 1.332 . S
C487 C488 1.394 . S
C487 H514 0.932 . S
C488 C484 1.308 . S
C488 C487 1.394 . S
C488 H515 0.929 . S
C489 Tb480 2.764 . S
C489 C483 1.504 . S
C489 O501 1.239 . S
C489 O502 1.263 . S
O490 Tb480 2.325 . S
O490 C500 1.236 . S
O491 Tb481 2.322 . S
O491 C500 1.257 . S
O492 Tb481 2.349 . S
O492 C503 1.261 . S
O493 Tb480 2.303 . S
O493 C503 1.257 . S
O494 Tb481 2.415 1_556 S
O494 C510 1.239 . S
O495 Tb481 2.399 1_556 S
O495 C510 1.263 . S
O496 Tb481 2.325 . S
O496 C511 1.236 . S
O497 Tb480 2.322 . S
O497 C511 1.257 . S
O498 Tb480 2.349 1_545 S
O498 C482 1.261 . S
O499 Tb481 2.303 . S
O499 C482 1.257 1_565 S
C500 O490 1.236 . S
C500 O491 1.257 . S
O501 Tb480 2.415 . S
O501 C489 1.239 . S
O502 Tb480 2.399 . S
O502 C489 1.263 . S
C503 O492 1.261 . S
C503 O493 1.257 . S
C504 C507 1.358 . S
C504 C508 1.332 . S
C504 C510 1.504 . S
C505 C506 1.373 . S
C505 C509 1.308 . S
C506 C505 1.373 . S
C506 C507 1.429 . S
C506 H516 0.932 . S
C507 C504 1.358 . S
C507 C506 1.429 . S
C507 H517 0.930 . S
C508 C504 1.332 . S
C508 C509 1.394 . S
C508 H518 0.932 . S
C509 C505 1.308 . S
C509 C508 1.394 . S
C509 H519 0.929 . S
C510 Tb481 2.764 1_556 S
C510 O494 1.239 . S
C510 O495 1.263 . S
C510 C504 1.504 . S
C511 O496 1.236 . S
C511 O497 1.257 . S
H512 C485 0.932 1_545 S
H513 C486 0.930 1_545 S
H514 C487 0.932 . S
H515 C488 0.929 . S
H516 C506 0.932 . S
H517 C507 0.930 . S
H518 C508 0.932 . S
H519 C509 0.929 . S
Tb520 C529 2.764 . S
Tb520 O530 2.325 . S
Tb520 O533 2.303 . S
Tb520 O537 2.322 . S
Tb520 O538 2.349 . S
Tb520 O541 2.415 . S
Tb520 O542 2.399 . S
Tb521 O531 2.322 . S
Tb521 O532 2.349 . S
Tb521 O534 2.415 1_554 S
Tb521 O535 2.399 1_554 S
Tb521 O536 2.325 . S
Tb521 O539 2.303 . S
Tb521 C550 2.764 1_554 S
C522 O538 1.261 . S
C522 O539 1.257 . S
C523 C526 1.358 . S
C523 C527 1.332 . S
C523 C529 1.504 . S
C524 C525 1.373 . S
C524 C528 1.308 . S
C525 C524 1.373 . S
C525 C526 1.429 . S
C525 H552 0.932 . S
C526 C523 1.358 . S
C526 C525 1.429 . S
C526 H553 0.930 . S
C527 C523 1.332 . S
C527 C528 1.394 . S
C527 H554 0.932 . S
C528 C524 1.308 . S
C528 C527 1.394 . S
C528 H555 0.929 . S
C529 Tb520 2.764 . S
C529 C523 1.504 . S
C529 O541 1.239 . S
C529 O542 1.263 . S
O530 Tb520 2.325 . S
O530 C540 1.236 . S
O531 Tb521 2.322 . S
O531 C540 1.257 . S
O532 Tb521 2.349 . S
O532 C543 1.261 . S
O533 Tb520 2.303 . S
O533 C543 1.257 . S
O534 Tb521 2.415 1_556 S
O534 C550 1.239 . S
O535 Tb521 2.399 1_556 S
O535 C550 1.263 . S
O536 Tb521 2.325 . S
O536 C551 1.236 . S
O537 Tb520 2.322 . S
O537 C551 1.257 . S
O538 Tb520 2.349 . S
O538 C522 1.261 . S
O539 Tb521 2.303 . S
O539 C522 1.257 . S
C540 O530 1.236 . S
C540 O531 1.257 . S
O541 Tb520 2.415 . S
O541 C529 1.239 . S
O542 Tb520 2.399 . S
O542 C529 1.263 . S
C543 O532 1.261 . S
C543 O533 1.257 . S
C544 C547 1.358 . S
C544 C548 1.332 . S
C544 C550 1.504 . S
C545 C546 1.373 . S
C545 C549 1.308 . S
C546 C545 1.373 . S
C546 C547 1.429 . S
C546 H556 0.932 . S
C547 C544 1.358 . S
C547 C546 1.429 . S
C547 H557 0.930 . S
C548 C544 1.332 . S
C548 C549 1.394 . S
C548 H558 0.932 . S
C549 C545 1.308 . S
C549 C548 1.394 . S
C549 H559 0.929 . S
C550 Tb521 2.764 1_556 S
C550 O534 1.239 . S
C550 O535 1.263 . S
C550 C544 1.504 . S
C551 O536 1.236 . S
C551 O537 1.257 . S
H552 C525 0.932 . S
H553 C526 0.930 . S
H554 C527 0.932 . S
H555 C528 0.929 . S
H556 C546 0.932 . S
H557 C547 0.930 . S
H558 C548 0.932 . S
H559 C549 0.929 . S
Tb560 C569 2.764 . S
Tb560 O570 2.325 . S
Tb560 O573 2.303 . S
Tb560 O577 2.322 . S
Tb560 O578 2.349 . S
Tb560 O581 2.415 . S
Tb560 O582 2.399 . S
Tb561 O571 2.322 . S
Tb561 O572 2.349 . S
Tb561 O574 2.415 1_554 S
Tb561 O575 2.399 1_554 S
Tb561 O576 2.325 . S
Tb561 O579 2.303 . S
Tb561 C590 2.764 1_554 S
C562 O578 1.261 . S
C562 O579 1.257 . S
C563 C566 1.358 . S
C563 C567 1.332 . S
C563 C569 1.504 . S
C564 C565 1.373 . S
C564 C568 1.308 . S
C565 C564 1.373 . S
C565 C566 1.429 . S
C565 H592 0.932 . S
C566 C563 1.358 . S
C566 C565 1.429 . S
C566 H593 0.930 . S
C567 C563 1.332 . S
C567 C568 1.394 . S
C567 H594 0.932 . S
C568 C564 1.308 . S
C568 C567 1.394 . S
C568 H595 0.929 . S
C569 Tb560 2.764 . S
C569 C563 1.504 . S
C569 O581 1.239 . S
C569 O582 1.263 . S
O570 Tb560 2.325 . S
O570 C580 1.236 . S
O571 Tb561 2.322 . S
O571 C580 1.257 . S
O572 Tb561 2.349 . S
O572 C583 1.261 . S
O573 Tb560 2.303 . S
O573 C583 1.257 . S
O574 Tb561 2.415 1_556 S
O574 C590 1.239 . S
O575 Tb561 2.399 1_556 S
O575 C590 1.263 . S
O576 Tb561 2.325 . S
O576 C591 1.236 . S
O577 Tb560 2.322 . S
O577 C591 1.257 . S
O578 Tb560 2.349 . S
O578 C562 1.261 . S
O579 Tb561 2.303 . S
O579 C562 1.257 . S
C580 O570 1.236 . S
C580 O571 1.257 . S
O581 Tb560 2.415 . S
O581 C569 1.239 . S
O582 Tb560 2.399 . S
O582 C569 1.263 . S
C583 O572 1.261 . S
C583 O573 1.257 . S
C584 C587 1.358 . S
C584 C588 1.332 . S
C584 C590 1.504 . S
C585 C586 1.373 . S
C585 C589 1.308 . S
C586 C585 1.373 . S
C586 C587 1.429 . S
C586 H596 0.932 . S
C587 C584 1.358 . S
C587 C586 1.429 . S
C587 H597 0.930 . S
C588 C584 1.332 . S
C588 C589 1.394 . S
C588 H598 0.932 . S
C589 C585 1.308 . S
C589 C588 1.394 . S
C589 H599 0.929 . S
C590 Tb561 2.764 1_556 S
C590 O574 1.239 . S
C590 O575 1.263 . S
C590 C584 1.504 . S
C591 O576 1.236 . S
C591 O577 1.257 . S
H592 C565 0.932 . S
H593 C566 0.930 . S
H594 C567 0.932 . S
H595 C568 0.929 . S
H596 C586 0.932 . S
H597 C587 0.930 . S
H598 C588 0.932 . S
H599 C589 0.929 . S
Tb600 C609 2.764 . S
Tb600 O610 2.325 . S
Tb600 O613 2.303 . S
Tb600 O617 2.322 . S
Tb600 O618 2.349 . S
Tb600 O621 2.415 . S
Tb600 O622 2.399 . S
Tb601 O611 2.322 . S
Tb601 O612 2.349 . S
Tb601 O614 2.415 1_554 S
Tb601 O615 2.399 1_554 S
Tb601 O616 2.325 . S
Tb601 O619 2.303 . S
Tb601 C630 2.764 1_554 S
C602 O618 1.261 . S
C602 O619 1.257 . S
C603 C606 1.358 . S
C603 C607 1.332 . S
C603 C609 1.504 . S
C604 C605 1.373 . S
C604 C608 1.308 . S
C605 C604 1.373 . S
C605 C606 1.429 . S
C605 H632 0.932 . S
C606 C603 1.358 . S
C606 C605 1.429 . S
C606 H633 0.930 . S
C607 C603 1.332 . S
C607 C608 1.394 . S
C607 H634 0.932 . S
C608 C604 1.308 . S
C608 C607 1.394 . S
C608 H635 0.929 . S
C609 Tb600 2.764 . S
C609 C603 1.504 . S
C609 O621 1.239 . S
C609 O622 1.263 . S
O610 Tb600 2.325 . S
O610 C620 1.236 . S
O611 Tb601 2.322 . S
O611 C620 1.257 . S
O612 Tb601 2.349 . S
O612 C623 1.261 . S
O613 Tb600 2.303 . S
O613 C623 1.257 . S
O614 Tb601 2.415 1_556 S
O614 C630 1.239 . S
O615 Tb601 2.399 1_556 S
O615 C630 1.263 . S
O616 Tb601 2.325 . S
O616 C631 1.236 . S
O617 Tb600 2.322 . S
O617 C631 1.257 . S
O618 Tb600 2.349 . S
O618 C602 1.261 . S
O619 Tb601 2.303 . S
O619 C602 1.257 . S
C620 O610 1.236 . S
C620 O611 1.257 . S
O621 Tb600 2.415 . S
O621 C609 1.239 . S
O622 Tb600 2.399 . S
O622 C609 1.263 . S
C623 O612 1.261 . S
C623 O613 1.257 . S
C624 C627 1.358 . S
C624 C628 1.332 . S
C624 C630 1.504 . S
C625 C626 1.373 . S
C625 C629 1.308 . S
C626 C625 1.373 . S
C626 C627 1.429 . S
C626 H636 0.932 . S
C627 C624 1.358 . S
C627 C626 1.429 . S
C627 H637 0.930 . S
C628 C624 1.332 . S
C628 C629 1.394 . S
C628 H638 0.932 . S
C629 C625 1.308 . S
C629 C628 1.394 . S
C629 H639 0.929 . S
C630 Tb601 2.764 1_556 S
C630 O614 1.239 . S
C630 O615 1.263 . S
C630 C624 1.504 . S
C631 O616 1.236 . S
C631 O617 1.257 . S
H632 C605 0.932 . S
H633 C606 0.930 . S
H634 C607 0.932 . S
H635 C608 0.929 . S
H636 C626 0.932 . S
H637 C627 0.930 . S
H638 C628 0.932 . S
H639 C629 0.929 . S
Tb640 C649 2.764 . S
Tb640 O650 2.325 . S
Tb640 O653 2.303 . S
Tb640 O657 2.322 . S
Tb640 O658 2.349 . S
Tb640 O661 2.415 . S
Tb640 O662 2.399 . S
Tb641 O651 2.322 . S
Tb641 O652 2.349 . S
Tb641 O654 2.415 1_554 S
Tb641 O655 2.399 1_554 S
Tb641 O656 2.325 . S
Tb641 O659 2.303 . S
Tb641 C670 2.764 1_554 S
C642 O658 1.261 . S
C642 O659 1.257 . S
C643 C646 1.358 . S
C643 C647 1.332 . S
C643 C649 1.504 . S
C644 C645 1.373 . S
C644 C648 1.308 . S
C645 C644 1.373 . S
C645 C646 1.429 . S
C645 H672 0.932 . S
C646 C643 1.358 . S
C646 C645 1.429 . S
C646 H673 0.930 . S
C647 C643 1.332 . S
C647 C648 1.394 . S
C647 H674 0.932 . S
C648 C644 1.308 . S
C648 C647 1.394 . S
C648 H675 0.929 . S
C649 Tb640 2.764 . S
C649 C643 1.504 . S
C649 O661 1.239 . S
C649 O662 1.263 . S
O650 Tb640 2.325 . S
O650 C660 1.236 . S
O651 Tb641 2.322 . S
O651 C660 1.257 . S
O652 Tb641 2.349 . S
O652 C663 1.261 . S
O653 Tb640 2.303 . S
O653 C663 1.257 . S
O654 Tb641 2.415 1_556 S
O654 C670 1.239 . S
O655 Tb641 2.399 1_556 S
O655 C670 1.263 . S
O656 Tb641 2.325 . S
O656 C671 1.235 . S
O657 Tb640 2.322 . S
O657 C671 1.257 . S
O658 Tb640 2.349 . S
O658 C642 1.261 . S
O659 Tb641 2.303 . S
O659 C642 1.257 . S
C660 O650 1.236 . S
C660 O651 1.257 . S
O661 Tb640 2.415 . S
O661 C649 1.239 . S
O662 Tb640 2.399 . S
O662 C649 1.263 . S
C663 O652 1.261 . S
C663 O653 1.257 . S
C664 C667 1.358 . S
C664 C668 1.332 . S
C664 C670 1.504 . S
C665 C666 1.373 . S
C665 C669 1.308 . S
C666 C665 1.373 . S
C666 C667 1.429 . S
C666 H676 0.932 . S
C667 C664 1.358 . S
C667 C666 1.429 . S
C667 H677 0.930 . S
C668 C664 1.332 . S
C668 C669 1.394 . S
C668 H678 0.932 . S
C669 C665 1.308 . S
C669 C668 1.394 . S
C669 H679 0.929 . S
C670 Tb641 2.764 1_556 S
C670 O654 1.239 . S
C670 O655 1.263 . S
C670 C664 1.504 . S
C671 O656 1.235 . S
C671 O657 1.257 . S
H672 C645 0.932 . S
H673 C646 0.930 . S
H674 C647 0.932 . S
H675 C648 0.929 . S
H676 C666 0.932 . S
H677 C667 0.930 . S
H678 C668 0.932 . S
H679 C669 0.929 . S
Tb680 C689 2.764 . S
Tb680 O690 2.325 . S
Tb680 O693 2.303 . S
Tb680 O697 2.322 . S
Tb680 O698 2.349 . S
Tb680 O701 2.415 . S
Tb680 O702 2.399 . S
Tb681 O691 2.322 . S
Tb681 O692 2.349 . S
Tb681 O694 2.415 1_554 S
Tb681 O695 2.399 1_554 S
Tb681 O696 2.325 . S
Tb681 O699 2.303 . S
Tb681 C710 2.764 1_554 S
C682 O698 1.261 . S
C682 O699 1.257 . S
C683 C686 1.358 . S
C683 C687 1.332 . S
C683 C689 1.504 . S
C684 C685 1.373 . S
C684 C688 1.308 . S
C685 C684 1.373 . S
C685 C686 1.429 . S
C685 H712 0.932 . S
C686 C683 1.358 . S
C686 C685 1.429 . S
C686 H713 0.930 . S
C687 C683 1.332 . S
C687 C688 1.394 . S
C687 H714 0.932 . S
C688 C684 1.308 . S
C688 C687 1.394 . S
C688 H715 0.929 . S
C689 Tb680 2.764 . S
C689 C683 1.504 . S
C689 O701 1.239 . S
C689 O702 1.263 . S
O690 Tb680 2.325 . S
O690 C700 1.236 . S
O691 Tb681 2.322 . S
O691 C700 1.257 . S
O692 Tb681 2.349 . S
O692 C703 1.261 . S
O693 Tb680 2.303 . S
O693 C703 1.257 . S
O694 Tb681 2.415 1_556 S
O694 C710 1.239 . S
O695 Tb681 2.399 1_556 S
O695 C710 1.263 . S
O696 Tb681 2.325 . S
O696 C711 1.236 . S
O697 Tb680 2.322 . S
O697 C711 1.257 . S
O698 Tb680 2.349 . S
O698 C682 1.261 . S
O699 Tb681 2.303 . S
O699 C682 1.257 . S
C700 O690 1.236 . S
C700 O691 1.257 . S
O701 Tb680 2.415 . S
O701 C689 1.239 . S
O702 Tb680 2.399 . S
O702 C689 1.263 . S
C703 O692 1.261 . S
C703 O693 1.257 . S
C704 C707 1.358 . S
C704 C708 1.332 . S
C704 C710 1.504 . S
C705 C706 1.373 . S
C705 C709 1.308 . S
C706 C705 1.373 . S
C706 C707 1.429 . S
C706 H716 0.932 . S
C707 C704 1.358 . S
C707 C706 1.429 . S
C707 H717 0.930 . S
C708 C704 1.332 . S
C708 C709 1.394 . S
C708 H718 0.932 . S
C709 C705 1.308 . S
C709 C708 1.394 . S
C709 H719 0.929 . S
C710 Tb681 2.764 1_556 S
C710 O694 1.239 . S
C710 O695 1.263 . S
C710 C704 1.504 . S
C711 O696 1.236 . S
C711 O697 1.257 . S
H712 C685 0.932 . S
H713 C686 0.930 . S
H714 C687 0.932 . S
H715 C688 0.929 . S
H716 C706 0.932 . S
H717 C707 0.930 . S
H718 C708 0.932 . S
H719 C709 0.929 . S
C540 C2 4.358 . S
C42 C580 4.358 . S
C82 C500 4.358 . S
C100 C282 4.358 . S
C322 C20 4.358 . S
C60 C242 4.358 . S
C143 C431 4.358 . S
C183 C471 4.358 . S
C391 C223 4.357 . S
C663 C231 4.358 . S
C151 C703 4.358 . S
C623 C191 4.358 . S
C340 C522 4.358 1_556 S
C260 C562 4.358 1_556 S
C300 C482 4.358 1_556 S
C383 C671 4.358 1_546 S
C711 C423 4.358 1_554 S
C631 C463 4.358 1_554 S
C31 C162 1.961 . S
C202 C71 1.960 . S
C122 C111 1.960 . S
C180 C103 1.960 . S
C220 C23 1.961 . S
C140 C63 1.961 . S
C402 C271 1.961 . S
C442 C311 1.960 . S
C362 C351 1.960 . S
C420 C343 1.961 . S
C460 C263 1.960 . S
C380 C303 1.961 . S
C642 C511 1.961 . S
C682 C551 1.961 . S
C591 C602 1.960 . S
C583 C660 1.961 . S
C503 C700 1.960 . S
C620 C543 1.961 . S
C25 C4 1.824 1_655 S
C65 C44 1.824 . S
C105 C84 1.824 1_545 S
C124 C145 1.824 1_455 S
C185 C164 1.824 . S
C225 C204 1.824 1_545 S
C244 C265 1.824 . S
C305 C284 1.824 . S
C324 C345 1.824 . S
C364 C385 1.824 . S
C404 C425 1.824 . S
C444 C465 1.824 . S
C484 C505 1.824 . S
C545 C524 1.824 . S
C585 C564 1.824 . S
C625 C604 1.824 . S
C665 C644 1.824 . S
C684 C705 1.824 . S
