# Generated by pormake.
# Topology dia, (4)-cn, num edge types: 1
# Building blocks:
#     Node 0, Type 0, BuildingBlock: ICAMEG_clean_sbu_1, # of connection points: 4
#     Node 1, Type 0, BuildingBlock: ICAMEG_clean_sbu_1, # of connection points: 4
#     Node 2, Type 0, BuildingBlock: ICAMEG_clean_sbu_1, # of connection points: 4
#     Node 3, Type 0, BuildingBlock: ICAMEG_clean_sbu_1, # of connection points: 4
#     Node 4, Type 0, BuildingBlock: ICAMEG_clean_sbu_1, # of connection points: 4
#     Node 5, Type 0, BuildingBlock: ICAMEG_clean_sbu_1, # of connection points: 4
#     Node 6, Type 0, BuildingBlock: ICAMEG_clean_sbu_1, # of connection points: 4
#     Node 7, Type 0, BuildingBlock: ICAMEG_clean_sbu_1, # of connection points: 4
#     Edge 8, Type (0, 0), BuildingBlock: CIFDUS_clean_linker_0, # of connection points: 2
#     Edge 9, Type (0, 0), BuildingBlock: CIFDUS_clean_linker_0, # of connection points: 2
#     Edge 10, Type (0, 0), BuildingBlock: CIFDUS_clean_linker_0, # of connection points: 2
#     Edge 11, Type (0, 0), BuildingBlock: CIFDUS_clean_linker_0, # of connection points: 2
#     Edge 12, Type (0, 0), BuildingBlock: CIFDUS_clean_linker_0, # of connection points: 2
#     Edge 13, Type (0, 0), BuildingBlock: CIFDUS_clean_linker_0, # of connection points: 2
#     Edge 14, Type (0, 0), BuildingBlock: CIFDUS_clean_linker_0, # of connection points: 2
#     Edge 15, Type (0, 0), BuildingBlock: CIFDUS_clean_linker_0, # of connection points: 2
#     Edge 16, Type (0, 0), BuildingBlock: CIFDUS_clean_linker_0, # of connection points: 2
#     Edge 17, Type (0, 0), BuildingBlock: CIFDUS_clean_linker_0, # of connection points: 2
#     Edge 18, Type (0, 0), BuildingBlock: CIFDUS_clean_linker_0, # of connection points: 2
#     Edge 19, Type (0, 0), BuildingBlock: CIFDUS_clean_linker_0, # of connection points: 2
#     Edge 20, Type (0, 0), BuildingBlock: CIFDUS_clean_linker_0, # of connection points: 2
#     Edge 21, Type (0, 0), BuildingBlock: CIFDUS_clean_linker_0, # of connection points: 2
#     Edge 22, Type (0, 0), BuildingBlock: CIFDUS_clean_linker_0, # of connection points: 2
#     Edge 23, Type (0, 0), BuildingBlock: CIFDUS_clean_linker_0, # of connection points: 2
# Relax obj value: 0.180
# Max RMSD: 0.229
# Mean RMSD: 0.229
data_MOF--net-dia--node1-ICAMEG_clean_sbu_1--edge1-CIFDUS_clean_linker_0
_symmetry_space_group_name_H-M    P1
_symmetry_Int_Tables_number       1
_symmetry_cell_setting            triclinic
loop_
_symmetry_equiv_pos_as_xyz
'x, y, z'
_cell_length_a     29.323421
_cell_length_b     29.080324
_cell_length_c     37.206065
_cell_angle_alpha  90.559975
_cell_angle_beta   89.454173
_cell_angle_gamma 103.06642
loop_
_atom_site_label
_atom_site_type_symbol
_atom_site_fract_x
_atom_site_fract_y
_atom_site_fract_z
_atom_type_partial_charge
Co0 Co 0.18397 0.10916 0.63924 0.0
Co1 Co 0.08727 0.15836 0.6395 0.0
O2 O 0.13471 0.13289 0.66504 0.0
C3 C 0.14832 0.03342 0.6937 0.0
O4 O 0.10542 0.03839 0.68891 0.0
C5 C 0.11051 0.22088 0.70605 0.0
O6 O 0.14685 0.2032 0.71281 0.0
O7 O 0.13715 0.20401 0.61284 0.0
O8 O 0.18859 0.15901 0.60177 0.0
H9 H 0.01503 0.21084 0.52969 0.0
H10 H 0.19593 0.13012 0.71715 0.0
O11 O 0.18216 0.05853 0.676 0.0
H12 H 0.33141 0.23474 0.65845 0.0
H13 H 0.33003 0.04583 0.6295 0.0
H14 H 0.20349 0.09226 0.56247 0.0
H15 H 0.27261 0.17979 0.62253 0.0
H16 H 0.26853 0.07568 0.66158 0.0
O17 O 0.0858 0.20762 0.67819 0.0
H18 H 0.07347 0.17956 0.56309 0.0
H19 H 1.00104 0.19075 0.66109 0.0
H20 H 0.26459 0.06305 0.52932 0.0
H21 H 0.25436 0.18394 0.75424 0.0
H22 H 0.32844 0.03957 0.56287 0.0
H23 H 0.32259 0.23694 0.72487 0.0
O24 O 0.13623 0.06506 0.60974 0.0
H25 H 0.01032 0.07136 0.74841 0.0
H26 H 0.9991 0.09106 0.61761 0.0
H27 H 0.93779 0.03316 0.64905 0.0
H28 H 0.943 0.02316 0.715 0.0
H29 H 0.07123 0.12817 0.71582 0.0
H30 H 0.94212 0.22263 0.62876 0.0
H31 H 0.94876 0.23263 0.56256 0.0
O32 O 0.08542 0.11064 0.60005 0.0
C33 C 0.17246 0.19549 0.59588 0.0
C34 C 0.01171 0.20656 0.55853 0.0
C35 C 0.97083 0.21323 0.61414 0.0
N36 N 0.04063 0.18311 0.61399 0.0
C37 C 0.04465 0.18878 0.57759 0.0
C38 C 1.00442 0.19531 0.63231 0.0
C39 C 0.97455 0.21881 0.57699 0.0
C40 C 0.22568 0.15282 0.70418 0.0
N41 N 0.2306 0.15202 0.66765 0.0
C42 C 0.25858 0.18335 0.72533 0.0
C43 C 0.29682 0.21312 0.70883 0.0
C44 C 0.30173 0.21196 0.67156 0.0
C45 C 0.26812 0.181 0.6513 0.0
C46 C 0.30241 0.05599 0.61457 0.0
C47 C 0.23126 0.08232 0.57727 0.0
C48 C 0.26738 0.07279 0.6326 0.0
N49 N 0.23252 0.08592 0.61391 0.0
C50 C 0.26571 0.0657 0.55835 0.0
C51 C 0.30151 0.0525 0.57719 0.0
C52 C 0.10185 0.07448 0.59281 0.0
C53 C 0.00747 0.07562 0.71971 0.0
C54 C 1.00181 0.08685 0.64625 0.0
C55 C 0.96687 0.05406 0.66395 0.0
C56 C 0.96978 0.0485 0.70094 0.0
N57 N 0.03858 0.11357 0.66485 0.0
C58 C 0.04175 0.10809 0.70111 0.0
Co59 Co 0.91137 0.3446 0.9007 0.0
Co60 Co 0.85114 0.43329 0.89596 0.0
O61 O 0.88008 0.38582 0.87233 0.0
C62 C 0.96977 0.36643 0.83228 0.0
O63 O 0.94951 0.4009 0.82459 0.0
C64 C 0.78679 0.39973 0.83197 0.0
O65 O 0.81065 0.36918 0.82073 0.0
O66 O 0.81182 0.38326 0.92619 0.0
O67 O 0.86453 0.34187 0.94095 0.0
H68 H 0.7956 0.51152 1.00366 0.0
H69 H 0.87982 0.31739 0.826 0.0
O70 O 0.95961 0.34354 0.86145 0.0
H71 H 0.80001 0.18485 0.90173 0.0
H72 H 0.99147 0.21056 0.91928 0.0
H73 H 0.93716 0.34187 0.9774 0.0
H74 H 0.85341 0.25397 0.92867 0.0
H75 H 0.95192 0.26115 0.88396 0.0
O76 O 0.79883 0.42447 0.86018 0.0
H77 H 0.83221 0.45398 0.97212 0.0
H78 H 0.8078 0.51129 0.87137 0.0
H79 H 0.97616 0.29182 1.01377 0.0
H80 H 0.82729 0.24871 0.79789 0.0
H81 H 1.00363 0.2256 0.98471 0.0
H82 H 0.7868 0.18176 0.83582 0.0
O83 O 0.95346 0.40104 0.92375 0.0
H84 H 0.9241 0.50437 0.78009 0.0
H85 H 0.90936 0.52987 0.9103 0.0
H86 H 0.95871 0.59216 0.87375 0.0
H87 H 0.96614 0.5798 0.80801 0.0
H88 H 0.87614 0.44276 0.8178 0.0
H89 H 0.77053 0.5691 0.90183 0.0
H90 H 0.76444 0.56963 0.96846 0.0
O91 O 0.90123 0.44542 0.93314 0.0
C92 C 0.82501 0.35274 0.94545 0.0
C93 C 0.79817 0.51174 0.97462 0.0
C94 C 0.78405 0.54401 0.91747 0.0
N95 N 0.82249 0.47943 0.91996 0.0
C96 C 0.81897 0.47931 0.95661 0.0
C97 C 0.80508 0.51108 0.90037 0.0
C98 C 0.78066 0.5443 0.95485 0.0
C99 C 0.86288 0.28832 0.8427 0.0
N100 N 0.87016 0.28973 0.87895 0.0
C101 C 0.83291 0.24953 0.82662 0.0
C102 C 0.81014 0.21202 0.84792 0.0
C103 C 0.81752 0.21375 0.88489 0.0
C104 C 0.84772 0.25311 0.90002 0.0
C105 C 0.97963 0.23928 0.93226 0.0
C106 C 0.94883 0.31302 0.96456 0.0
C107 C 0.95734 0.26818 0.91237 0.0
N108 N 0.94205 0.30439 0.92862 0.0
C109 C 0.97098 0.28485 0.9853 0.0
C110 C 0.98642 0.24773 0.96897 0.0
C111 C 0.94069 0.43558 0.93915 0.0
C112 C 0.92105 0.51028 0.80869 0.0
C113 C 0.9128 0.52382 0.8819 0.0
C114 C 0.94061 0.55944 0.86124 0.0
C115 C 0.9447 0.55253 0.82436 0.0
N116 N 0.88955 0.48241 0.86639 0.0
C117 C 0.89355 0.47549 0.83024 0.0
Co118 Co 0.67538 0.09255 0.14158 0.0
Co119 Co 0.5879 0.15306 0.1293 0.0
O120 O 0.62492 0.12089 0.16039 0.0
C121 C 0.65554 0.99577 0.17051 0.0
O122 O 0.65365 0.98136 0.13688 0.0
C123 C 0.61241 0.21892 0.19312 0.0
O124 O 0.65158 0.2051 0.19746 0.0
O125 O 0.64604 0.19417 0.10842 0.0
O126 O 0.69426 0.14435 0.10584 0.0
H127 H 0.54659 0.21781 1.01232 0.0
H128 H 0.66994 0.10816 0.22011 0.0
O129 O 0.65858 0.03952 0.17751 0.0
H130 H 0.82373 0.20411 0.18289 0.0
H131 H 0.81409 0.01741 0.1508 0.0
H132 H 0.70797 0.07366 0.06849 0.0
H133 H 0.77107 0.15651 0.13849 0.0
H134 H 0.75087 0.05253 0.17464 0.0
O135 O 0.58505 0.20217 0.16745 0.0
H136 H 0.59193 0.17777 0.05205 0.0
H137 H 0.50549 0.19625 0.14085 0.0
H138 H 0.77087 0.03887 0.04352 0.0
H139 H 0.72198 0.15437 0.26561 0.0
H140 H 0.82443 0.0104 0.08479 0.0
H141 H 0.79941 0.20302 0.24706 0.0
O142 O 0.63164 0.05476 0.10564 0.0
H143 H 0.48406 0.07371 0.22944 0.0
H144 H 0.49966 0.09485 0.09824 0.0
H145 H 0.42845 0.043 0.12335 0.0
H146 H 0.4202 0.03231 0.18944 0.0
H147 H 0.55496 0.1248 0.20312 0.0
H148 H 0.45951 0.23684 0.10213 0.0
H149 H 0.47983 0.24767 0.03733 0.0
O150 O 0.58761 0.10514 0.09028 0.0
C151 C 0.68338 0.18284 0.09725 0.0
C152 C 0.53732 0.21321 0.04049 0.0
C153 C 0.48849 0.22395 0.09091 0.0
N154 N 0.55129 0.18446 0.0987 0.0
C155 C 0.56281 0.19048 0.06311 0.0
C156 C 0.51477 0.20105 0.11273 0.0
C157 C 0.4999 0.22999 0.05455 0.0
C158 C 0.70379 0.12881 0.21186 0.0
N159 N 0.71734 0.12968 0.17658 0.0
C160 C 0.73301 0.15511 0.23774 0.0
C161 C 0.7764 0.18246 0.2273 0.0
C162 C 0.79002 0.18317 0.1913 0.0
C163 C 0.75987 0.15642 0.16618 0.0
C164 C 0.79099 0.02971 0.13253 0.0
C165 C 0.73114 0.06138 0.08663 0.0
C166 C 0.75512 0.04965 0.14587 0.0
N167 N 0.72563 0.06511 0.12298 0.0
C168 C 0.76671 0.04172 0.07233 0.0
C169 C 0.79676 0.02576 0.0955 0.0
C170 C 0.60144 0.06694 0.08553 0.0
C171 C 0.48719 0.07817 0.2006 0.0
C172 C 0.49652 0.09016 0.12698 0.0
C173 C 0.45601 0.06087 0.14107 0.0
C174 C 0.45139 0.05491 0.17815 0.0
N175 N 0.53141 0.11302 0.14919 0.0
C176 C 0.5272 0.10718 0.18555 0.0
Co177 Co 0.91716 0.85329 0.38865 0.0
Co178 Co 0.84768 0.93348 0.39471 0.0
O179 O 0.87968 0.89318 0.36592 0.0
C180 C 1.00456 0.86662 0.34406 0.0
O181 O 0.02904 0.8756 0.37372 0.0
C182 C 0.78031 0.8997 0.33275 0.0
O183 O 0.80237 0.86722 0.32246 0.0
O184 O 0.81444 0.87744 0.42316 0.0
O185 O 0.87436 0.84265 0.43137 0.0
H186 H 0.79128 0.99176 0.51081 0.0
H187 H 0.88444 0.83161 0.31382 0.0
O188 O 0.96017 0.86207 0.3453 0.0
H189 H 0.81395 0.68914 0.38304 0.0
H190 H 1.00434 0.72215 0.39188 0.0
H191 H 0.95412 0.84708 0.46187 0.0
H192 H 0.86492 0.75767 0.41266 0.0
H193 H 0.95821 0.77274 0.36344 0.0
O194 O 0.79355 0.92494 0.36054 0.0
H195 H 0.83106 0.94263 0.47288 0.0
H196 H 0.79696 0.00955 0.37909 0.0
H197 H 1.00032 0.79735 0.4913 0.0
H198 H 0.83443 0.76346 0.28295 0.0
H199 H 0.02578 0.73433 0.45626 0.0
H200 H 0.79859 0.69161 0.31763 0.0
O201 O 0.95698 0.9098 0.41379 0.0
H202 H 0.91101 0.01767 0.28106 0.0
H203 H 0.89753 0.03284 0.41244 0.0
H204 H 0.94056 0.10063 0.3776 0.0
H205 H 0.94729 0.09345 0.31129 0.0
H206 H 0.86914 0.95054 0.31708 0.0
H207 H 0.75632 0.05897 0.41597 0.0
H208 H 0.7535 0.05043 0.48237 0.0
O209 O 0.89988 0.94572 0.42993 0.0
C210 C 0.83341 0.84801 0.43931 0.0
C211 C 0.79227 0.99582 0.48191 0.0
C212 C 0.77258 0.03348 0.42869 0.0
N213 N 0.81632 0.9731 0.42377 0.0
C214 C 0.81479 0.96812 0.46028 0.0
C215 C 0.79542 1.00518 0.40791 0.0
C216 C 0.77105 0.02871 0.46593 0.0
C217 C 0.8694 0.80034 0.32907 0.0
N218 N 0.8777 0.79878 0.36507 0.0
C219 C 0.84091 0.76191 0.31145 0.0
C220 C 0.82075 0.72165 0.33093 0.0
C221 C 0.82929 0.72027 0.36763 0.0
C222 C 0.85797 0.75937 0.38434 0.0
C223 C 0.99354 0.74955 0.40743 0.0
C224 C 0.96526 0.81994 0.44634 0.0
C225 C 0.96739 0.77834 0.39147 0.0
N226 N 0.95374 0.81321 0.41087 0.0
C227 C 0.99132 0.79178 0.4632 0.0
C228 C 1.00556 0.75641 0.44354 0.0
C229 C 0.94147 0.93986 0.43293 0.0
C230 C 0.90824 0.0213 0.30993 0.0
C231 C 0.90073 0.02912 0.38378 0.0
C232 C 0.92493 0.0678 0.36409 0.0
C233 C 0.92864 0.06378 0.3269 0.0
N234 N 0.88056 0.98758 0.367 0.0
C235 C 0.88432 0.98338 0.33052 0.0
Co236 Co 0.19146 0.6052 0.14194 0.0
Co237 Co 0.09631 0.65775 0.13981 0.0
O238 O 0.14154 0.62987 0.16621 0.0
C239 C 0.15589 0.53484 0.20164 0.0
O240 O 0.12075 0.55451 0.20884 0.0
C241 C 0.12801 0.72969 0.1987 0.0
O242 O 0.17121 0.72471 0.19502 0.0
O243 O 0.1481 0.70253 0.11449 0.0
O244 O 0.20274 0.65971 0.10768 0.0
H245 H 0.02965 0.71568 0.02958 0.0
H246 H 0.19309 0.62694 0.22052 0.0
O247 O 0.18401 0.54997 0.17582 0.0
H248 H 0.34495 0.71529 0.17338 0.0
H249 H 0.33093 0.53076 0.13469 0.0
H250 H 0.21734 0.5954 0.06562 0.0
H251 H 0.28755 0.6657 0.13307 0.0
H252 H 0.27004 0.56255 0.16585 0.0
O253 O 0.09569 0.70573 0.17907 0.0
H254 H 0.08554 0.68131 0.06346 0.0
H255 H 0.01123 0.69262 0.1605 0.0
H256 H 0.27813 0.56452 0.03341 0.0
H257 H 0.24965 0.67537 0.26184 0.0
H258 H 0.33544 0.53186 0.06799 0.0
H259 H 0.32623 0.72022 0.23836 0.0
O260 O 0.14506 0.56549 0.10856 0.0
H261 H 0.01163 0.57623 0.24777 0.0
H262 H 0.00842 0.59097 0.116 0.0
H263 H 0.94461 0.53505 0.14668 0.0
H264 H 0.94584 0.52751 0.21309 0.0
H265 H 0.0752 0.63115 0.21588 0.0
H266 H 0.9548 0.7275 0.12773 0.0
H267 H 0.96369 0.73906 0.06175 0.0
O268 O 0.09392 0.61095 0.09997 0.0
C269 C 0.18643 0.696 0.10119 0.0
C270 C 0.02538 0.71081 0.05833 0.0
C271 C 0.98341 0.71749 0.11341 0.0
N272 N 0.05171 0.68493 0.11392 0.0
C273 C 0.05692 0.69134 0.07765 0.0
C274 C 0.0156 0.69787 0.13185 0.0
C275 C 0.9884 0.72393 0.07639 0.0
C276 C 0.22641 0.64578 0.21003 0.0
N277 N 0.23688 0.64325 0.1743 0.0
C278 C 0.25829 0.67342 0.2336 0.0
C279 C 0.3012 0.69864 0.22041 0.0
C280 C 0.3117 0.69593 0.18397 0.0
C281 C 0.27893 0.66795 0.16121 0.0
C282 C 0.30619 0.54496 0.11932 0.0
C283 C 0.24237 0.58157 0.08088 0.0
C284 C 0.27147 0.56284 0.13681 0.0
N285 N 0.24027 0.58112 0.11758 0.0
C286 C 0.27662 0.56398 0.06248 0.0
C287 C 0.30872 0.54561 0.0819 0.0
C288 C 0.11058 0.57526 0.09199 0.0
C289 C 0.01069 0.57919 0.21882 0.0
C290 C 0.00959 0.5875 0.14481 0.0
C291 C 0.97316 0.55597 0.16209 0.0
C292 C 0.97383 0.55182 0.19935 0.0
N293 N 0.04572 0.61414 0.16409 0.0
C294 C 0.0465 0.61036 0.20063 0.0
Co295 Co 0.41889 0.33727 0.38857 0.0
Co296 Co 0.34649 0.41516 0.38917 0.0
O297 O 0.38196 0.37524 0.36262 0.0
C298 C 0.47332 0.36534 0.31895 0.0
O299 O 0.44684 0.39441 0.31064 0.0
C300 C 0.28892 0.38281 0.32203 0.0
O301 O 0.31517 0.35344 0.31307 0.0
O302 O 0.31151 0.3588 0.41637 0.0
O303 O 0.37221 0.32705 0.42908 0.0
H304 H 0.27798 0.47235 0.50081 0.0
H305 H 0.38729 0.31121 0.31343 0.0
O306 O 0.46768 0.34389 0.34894 0.0
H307 H 0.32585 0.16881 0.38507 0.0
H308 H 0.51716 0.21677 0.40127 0.0
H309 H 0.44676 0.33366 0.46472 0.0
H310 H 0.37234 0.2407 0.41362 0.0
H311 H 0.46988 0.26234 0.36837 0.0
O312 O 0.2957 0.40571 0.35163 0.0
H313 H 0.32278 0.42457 0.46619 0.0
H314 H 0.29447 0.48861 0.36924 0.0
H315 H 0.49344 0.28849 0.49868 0.0
H316 H 0.34178 0.23995 0.28366 0.0
H317 H 0.52905 0.22954 0.46694 0.0
H318 H 0.31046 0.16796 0.31951 0.0
O319 O 0.45521 0.39561 0.41302 0.0
H320 H 0.41806 0.50506 0.27953 0.0
H321 H 0.3944 0.51324 0.41047 0.0
H322 H 0.43922 0.58308 0.37878 0.0
H323 H 0.45111 0.57944 0.31273 0.0
H324 H 0.37432 0.43593 0.31235 0.0
H325 H 0.24902 0.53672 0.40281 0.0
H326 H 0.24069 0.52893 0.4691 0.0
O327 O 0.39524 0.42823 0.42756 0.0
C328 C 0.33029 0.33119 0.43475 0.0
C329 C 0.28143 0.47613 0.47193 0.0
C330 C 0.26512 0.51221 0.41693 0.0
N331 N 0.31144 0.45382 0.41572 0.0
C332 C 0.30683 0.44921 0.45218 0.0
C333 C 0.29078 0.48471 0.39805 0.0
C334 C 0.26048 0.50784 0.45413 0.0
C335 C 0.37443 0.28012 0.32927 0.0
N336 N 0.38292 0.2804 0.36532 0.0
C337 C 0.34836 0.23979 0.31223 0.0
C338 C 0.33074 0.19945 0.33235 0.0
C339 C 0.33931 0.19993 0.36912 0.0
C340 C 0.36552 0.24092 0.38522 0.0
C341 C 0.5018 0.24233 0.41541 0.0
C342 C 0.46196 0.30796 0.45071 0.0
C343 C 0.47511 0.2684 0.3969 0.0
N344 N 0.45538 0.3006 0.41461 0.0
C345 C 0.48844 0.28253 0.47009 0.0
C346 C 0.50844 0.2495 0.45226 0.0
C347 C 0.43752 0.42468 0.43142 0.0
C348 C 0.41296 0.50718 0.30829 0.0
C349 C 0.39965 0.51108 0.38183 0.0
C350 C 0.42495 0.55091 0.36397 0.0
C351 C 0.43156 0.54887 0.32693 0.0
N352 N 0.38122 0.47028 0.36339 0.0
C353 C 0.38786 0.46807 0.32708 0.0
Co354 Co 0.40679 0.82544 0.90374 0.0
Co355 Co 0.35472 0.91489 0.88205 0.0
O356 O 0.38083 0.86107 0.86774 0.0
C357 C 0.47798 0.83767 0.84368 0.0
O358 O 0.47659 0.88232 0.84109 0.0
C359 C 0.26589 0.90176 0.84129 0.0
O360 O 0.2441 0.90275 0.87221 0.0
O361 O 0.30936 0.87261 0.91486 0.0
O362 O 0.36001 0.83608 0.94075 0.0
H363 H 0.29318 0.01728 0.97121 0.0
H364 H 0.37748 0.78209 0.83276 0.0
O365 O 0.45357 0.81189 0.86758 0.0
H366 H 0.28437 0.67501 0.92184 0.0
H367 H 0.47426 0.69134 0.94703 0.0
H368 H 0.43004 0.83978 0.98108 0.0
H369 H 0.34121 0.74668 0.94144 0.0
H370 H 0.44035 0.73579 0.90234 0.0
O371 O 0.30922 0.9006 0.84091 0.0
H372 H 0.32647 0.9504 0.95169 0.0
H373 H 0.32709 0.99428 0.84308 0.0
H374 H 0.46343 0.79625 0.02668 0.0
H375 H 0.32137 0.71047 0.812 0.0
H376 H 0.48581 0.72144 1.00977 0.0
H377 H 0.27428 0.6564 0.8567 0.0
O378 O 0.45118 0.88446 0.92017 0.0
H379 H 0.44193 0.95448 0.76544 0.0
H380 H 0.42096 0.00958 0.88886 0.0
H381 H 0.47891 0.05903 0.8488 0.0
H382 H 0.48955 0.03166 0.78648 0.0
H383 H 0.38499 0.90574 0.80669 0.0
H384 H 0.2937 0.06151 0.86143 0.0
H385 H 0.27652 0.07337 0.92592 0.0
O386 O 0.40049 0.93165 0.92254 0.0
C387 C 0.32036 0.84725 0.93979 0.0
C388 C 0.30045 0.01244 0.94303 0.0
C389 C 0.30077 0.03729 0.88143 0.0
N390 N 0.32856 0.96823 0.89628 0.0
C391 C 0.31926 0.9746 0.9318 0.0
C392 C 0.31966 0.99911 0.8712 0.0
C393 C 0.29113 0.04391 0.91761 0.0
C394 C 0.35735 0.75856 0.85237 0.0
N395 N 0.36284 0.76845 0.88826 0.0
C396 C 0.32554 0.71813 0.84046 0.0
C397 C 0.2991 0.68783 0.86555 0.0
C398 C 0.30472 0.69826 0.9021 0.0
C399 C 0.3369 0.73897 0.91303 0.0
C400 C 0.46465 0.7239 0.95473 0.0
C401 C 0.43953 0.80719 0.9735 0.0
C402 C 0.44559 0.74932 0.9295 0.0
N403 N 0.43311 0.79032 0.93908 0.0
C404 C 0.4585 0.78273 0.99945 0.0
C405 C 0.47109 0.74078 0.98994 0.0
C406 C 0.43928 0.92185 0.93122 0.0
C407 C 0.43756 0.96685 0.79251 0.0
C408 C 0.42575 0.99711 0.86201 0.0
C409 C 0.45843 0.02543 0.83932 0.0
C410 C 0.46432 0.0101 0.80435 0.0
N411 N 0.39955 0.95474 0.85023 0.0
C412 C 0.4052 0.9395 0.81595 0.0
Co413 Co 0.69019 0.60303 0.62826 0.0
Co414 Co 0.59082 0.64848 0.63546 0.0
O415 O 0.64148 0.62358 0.65695 0.0
C416 C 0.66565 0.5288 0.68701 0.0
O417 O 0.62957 0.54477 0.69826 0.0
C418 C 0.59712 0.74001 0.67351 0.0
O419 O 0.60249 0.75971 0.64167 0.0
O420 O 0.63677 0.69519 0.60618 0.0
O421 O 0.69338 0.65659 0.59476 0.0
H422 H 0.50492 0.70288 0.53379 0.0
H423 H 0.70112 0.62138 0.7069 0.0
O424 O 0.69041 0.54793 0.66053 0.0
H425 H 0.83952 0.72471 0.65095 0.0
H426 H 0.83655 0.54227 0.60856 0.0
H427 H 0.7072 0.59493 0.55005 0.0
H428 H 0.78035 0.67234 0.61368 0.0
H429 H 0.77601 0.56797 0.64493 0.0
O430 O 0.59514 0.69579 0.67629 0.0
H431 H 0.56829 0.6727 0.56154 0.0
H432 H 0.50485 0.67564 0.6644 0.0
H433 H 0.76735 0.57004 0.51267 0.0
H434 H 0.75975 0.67258 0.74525 0.0
H435 H 0.83262 0.54345 0.54192 0.0
H436 H 0.82959 0.72488 0.71732 0.0
O437 O 0.64186 0.56161 0.5976 0.0
H438 H 0.52652 0.56483 0.74891 0.0
H439 H 0.50289 0.57694 0.61866 0.0
H440 H 0.4465 0.51863 0.65396 0.0
H441 H 0.45799 0.51245 0.71965 0.0
H442 H 0.5826 0.62202 0.71243 0.0
H443 H 0.44089 0.706 0.63777 0.0
H444 H 0.44063 0.71977 0.57199 0.0
O445 O 0.58494 0.60175 0.59497 0.0
C446 C 0.67398 0.69099 0.5897 0.0
C447 C 0.50464 0.69703 0.56248 0.0
C448 C 0.46871 0.69878 0.62083 0.0
N449 N 0.54033 0.67242 0.61455 0.0
C450 C 0.54044 0.67994 0.57835 0.0
C451 C 0.50504 0.68161 0.63576 0.0
C452 C 0.46859 0.7065 0.58393 0.0
C453 C 0.73155 0.64354 0.69447 0.0
N454 N 0.73735 0.6434 0.65799 0.0
C455 C 0.76459 0.6727 0.71637 0.0
C456 C 0.80372 0.70209 0.70069 0.0
C457 C 0.80929 0.70203 0.66346 0.0
C458 C 0.77552 0.6724 0.64244 0.0
C459 C 0.80832 0.55383 0.59549 0.0
C460 C 0.73562 0.58365 0.563 0.0
C461 C 0.77382 0.56828 0.61595 0.0
N462 N 0.73819 0.58321 0.59964 0.0
C463 C 0.76952 0.56948 0.54168 0.0
C464 C 0.8061 0.55453 0.55811 0.0
C465 C 0.60392 0.56847 0.58443 0.0
C466 C 0.5211 0.56722 0.72032 0.0
C467 C 0.50854 0.57408 0.6471 0.0
C468 C 0.47628 0.54118 0.66702 0.0
C469 C 0.4827 0.53779 0.70388 0.0
N470 N 0.54613 0.60285 0.66341 0.0
C471 C 0.55263 0.5997 0.69954 0.0
H472 H 0.24576 0.33707 0.4671 0.0
H473 H 0.35764 0.26259 0.47209 0.0
H474 H 0.31887 0.21557 0.5211 0.0
H475 H 0.25434 0.19423 0.56249 0.0
H476 H 0.14262 0.26857 0.56284 0.0
H477 H 0.18036 0.31691 0.51229 0.0
C478 C 0.26145 0.31039 0.47882 0.0
C479 C 0.30437 0.30311 0.46497 0.0
C480 C 0.23927 0.28352 0.50829 0.0
C481 C 0.32441 0.26882 0.48119 0.0
C482 C 0.30237 0.24182 0.50964 0.0
C483 C 0.2381 0.22122 0.55199 0.0
C484 C 0.19565 0.22766 0.56679 0.0
C485 C 0.25995 0.24879 0.52336 0.0
C486 C 0.17545 0.26288 0.55225 0.0
C487 C 0.19696 0.29042 0.52319 0.0
H488 H 0.64877 0.50544 0.75764 0.0
H489 H 0.7231 0.47304 0.66356 0.0
H490 H 0.76238 0.42396 0.69939 0.0
H491 H 0.78298 0.3981 0.75873 0.0
H492 H 0.71289 0.43537 0.85336 0.0
H493 H 0.66435 0.47373 0.81624 0.0
C494 C 0.67278 0.48682 0.74486 0.0
C495 C 0.68308 0.49317 0.70799 0.0
C496 C 0.69639 0.45961 0.76588 0.0
C497 C 0.71471 0.46908 0.69195 0.0
C498 C 0.7373 0.44099 0.71244 0.0
C499 C 0.75619 0.41348 0.77109 0.0
C500 C 0.7515 0.41377 0.80873 0.0
C501 C 0.72948 0.43707 0.74963 0.0
C502 C 0.71718 0.43465 0.82441 0.0
C503 C 0.68954 0.45683 0.80321 0.0
H504 H 0.53511 0.08138 0.0395 0.0
H505 H 0.61799 0.98067 0.06403 0.0
H506 H 0.57727 0.92753 0.01704 0.0
H507 H 0.51494 0.90837 0.97047 0.0
H508 H 0.43041 0.00956 0.95099 0.0
H509 H 0.4751 0.06336 0.99434 0.0
C510 C 0.54457 0.04786 0.03482 0.0
C511 C 0.57945 0.0351 0.05573 0.0
C512 C 0.52058 0.01732 1.0084 0.0
C513 C 0.59116 0.99151 0.04859 0.0
C514 C 0.56781 0.96104 0.02169 0.0
C515 C 0.50665 0.94237 0.97548 0.0
C516 C 0.46946 0.95475 0.95684 0.0
C517 C 0.53198 0.97334 1.00162 0.0
C518 C 0.45899 0.99886 0.96423 0.0
C519 C 0.48446 0.02986 0.98932 0.0
H520 H 0.09185 0.84792 0.33589 0.0
H521 H 0.96408 0.84549 0.27837 0.0
H522 H 0.99198 0.8049 0.22807 0.0
H523 H 0.04952 0.76448 0.20218 0.0
H524 H 0.17775 0.76648 0.25864 0.0
H525 H 0.15294 0.813 0.3073 0.0
C526 C 0.07044 0.83935 0.3121 0.0
C527 C 0.02565 0.84969 0.31124 0.0
C528 C 0.08657 0.81537 0.28313 0.0
C529 C 0.99852 0.83797 0.28007 0.0
C530 C 0.01439 0.8145 0.25123 0.0
C531 C 0.07226 0.77525 0.22502 0.0
C532 C 0.11528 0.76147 0.22685 0.0
C533 C 0.05781 0.80203 0.25281 0.0
C534 C 0.14446 0.77646 0.25648 0.0
C535 C 0.1302 0.80299 0.28439 0.0
H536 H 0.17938 0.92134 0.83272 0.0
H537 H 0.306 0.9151 0.77447 0.0
H538 H 0.27937 0.95282 0.7231 0.0
H539 H 0.22408 0.99466 0.69675 0.0
H540 H 0.09673 1.00043 0.75375 0.0
H541 H 0.11954 0.95562 0.80329 0.0
C542 C 0.20079 0.92735 0.80856 0.0
C543 C 0.24497 0.91566 0.80785 0.0
C544 C 0.18538 0.94956 0.77893 0.0
C545 C 0.272 0.92374 0.77609 0.0
C546 C 0.2569 0.94563 0.74663 0.0
C547 C 0.20106 0.98575 0.71987 0.0
C548 C 0.159 1.00139 0.72171 0.0
C549 C 0.21432 0.95988 0.74813 0.0
C550 C 0.1293 0.9889 0.75163 0.0
C551 C 0.14244 0.96341 0.78004 0.0
H552 H 0.02243 0.42353 0.97182 0.0
H553 H 0.92653 0.51676 0.96874 0.0
H554 H 0.97185 0.56776 1.01287 0.0
H555 H 0.03609 0.58616 0.05369 0.0
H556 H 0.13166 0.49386 0.06306 0.0
H557 H 0.08927 0.4428 0.01535 0.0
C558 C 0.01176 0.45519 0.98063 0.0
C559 C 0.9712 0.46624 0.96601 0.0
C560 C 0.03772 0.48465 1.00747 0.0
C561 C 0.95774 0.50721 0.97845 0.0
C562 C 0.98358 0.53663 1.00413 0.0
C563 C 0.04802 0.55489 0.04565 0.0
C564 C 0.08702 0.54395 0.06238 0.0
C565 C 0.02328 0.52562 0.01895 0.0
C566 C 0.10165 0.50324 0.05087 0.0
C567 C 0.07736 0.47399 0.02356 0.0
H568 H 0.54438 0.31985 0.32812 0.0
H569 H 0.46623 0.37166 0.24608 0.0
H570 H 0.50384 0.33263 0.19978 0.0
H571 H 0.55395 0.27814 0.18292 0.0
H572 H 0.63501 0.22923 0.26432 0.0
H573 H 0.60151 0.27282 0.31037 0.0
C574 C 0.53612 0.32324 0.30005 0.0
C575 C 0.50222 0.34853 0.29072 0.0
C576 C 0.55813 0.30082 0.27341 0.0
C577 C 0.49224 0.35272 0.25415 0.0
C578 C 0.51353 0.33006 0.2276 0.0
C579 C 0.56469 0.27747 0.21069 0.0
C580 C 0.59667 0.2501 0.22019 0.0
C581 C 0.54573 0.30315 0.23697 0.0
C582 C 0.61058 0.25004 0.25623 0.0
C583 C 0.59125 0.27482 0.28262 0.0
H584 H 0.74621 0.84666 0.47009 0.0
H585 H 0.86485 0.78149 0.47607 0.0
H586 H 0.82606 0.72903 0.5221 0.0
H587 H 0.75923 0.69927 0.55943 0.0
H588 H 0.63997 0.76305 0.55877 0.0
H589 H 0.67829 0.81816 0.51204 0.0
C590 C 0.76349 0.82103 0.48153 0.0
C591 C 0.80832 0.81797 0.46881 0.0
C592 C 0.74102 0.79056 0.50903 0.0
C593 C 0.83027 0.78475 0.48449 0.0
C594 C 0.80816 0.75449 0.51112 0.0
C595 C 0.7414 0.7254 0.54963 0.0
C596 C 0.6967 0.72684 0.56288 0.0
C597 C 0.7636 0.75684 0.52336 0.0
C598 C 0.67451 0.76111 0.54924 0.0
C599 C 0.6964 0.79256 0.52242 0.0
H600 H 0.21016 0.47154 0.18879 0.0
H601 H 0.13142 0.52293 0.27256 0.0
H602 H 0.16255 0.47703 0.31702 0.0
H603 H 0.21825 0.42854 0.33301 0.0
H604 H 0.29496 0.37503 0.24895 0.0
H605 H 0.25804 0.41479 0.20382 0.0
C606 C 0.19922 0.4721 0.21669 0.0
C607 C 0.16874 0.50102 0.22731 0.0
C608 C 0.21708 0.44533 0.24216 0.0
C609 C 0.15467 0.50098 0.26355 0.0
C610 C 0.17271 0.4749 0.28907 0.0
C611 C 0.22623 0.42483 0.30475 0.0
C612 C 0.25965 0.399 0.2945 0.0
C613 C 0.20479 0.44783 0.27883 0.0
C614 C 0.26931 0.39441 0.25771 0.0
C615 C 0.24844 0.4175 0.23183 0.0
H616 H 0.84077 0.28466 0.98993 0.0
H617 H 0.73817 0.36555 0.96657 0.0
H618 H 0.686 0.32228 1.01283 0.0
H619 H 0.66839 0.25874 0.05864 0.0
H620 H 0.7715 0.17665 0.07787 0.0
H621 H 0.82415 0.22326 0.03479 0.0
C622 C 0.80704 0.29307 0.99477 0.0
C623 C 0.79349 0.32822 0.97441 0.0
C624 C 0.77707 0.26776 0.02093 0.0
C625 C 0.74961 0.33854 0.9816 0.0
C626 C 0.71969 0.31378 1.0081 0.0
C627 C 0.70255 0.25141 0.05367 0.0
C628 C 0.71578 0.21429 0.07208 0.0
C629 C 0.73287 0.27792 0.0278 0.0
C630 C 0.76012 0.20508 0.06474 0.0
C631 C 0.79045 0.23166 0.03981 0.0
H632 H 0.75369 0.86792 0.26459 0.0
H633 H 0.72852 0.96492 0.34705 0.0
H634 H 0.68402 1.00066 0.3051 0.0
H635 H 0.65973 0.01071 0.24317 0.0
H636 H 0.6822 0.91227 0.16097 0.0
H637 H 0.71908 0.87063 0.20463 0.0
C638 C 0.73775 0.89626 0.27361 0.0
C639 C 0.74571 0.91433 0.30882 0.0
C640 C 0.71171 0.9168 0.24924 0.0
C641 C 0.72415 0.95082 0.31996 0.0
C642 C 0.69848 0.97139 0.29595 0.0
C643 C 0.6718 0.97957 0.23494 0.0
C644 C 0.66852 0.96513 0.19867 0.0
C645 C 0.69325 0.95568 0.26021 0.0
C646 C 0.68418 0.92443 0.18864 0.0
C647 C 0.70566 0.90063 0.2136 0.0
H648 H 0.02472 0.92994 0.465 0.0
H649 H 0.92236 0.01634 0.46629 0.0
H650 H 0.96349 0.06464 0.51337 0.0
H651 H 0.02554 0.08235 0.55584 0.0
H652 H 0.12795 0.99703 0.56114 0.0
H653 H 0.08963 0.94852 0.51057 0.0
C654 C 0.01184 0.95963 0.47537 0.0
C655 C 0.97065 0.96959 0.46098 0.0
C656 C 0.03525 0.98735 0.5042 0.0
C657 C 0.95424 1.00787 0.47554 0.0
C658 C 0.97758 0.03565 0.50306 0.0
C659 C 0.03982 0.05313 0.54631 0.0
C660 C 0.07955 0.04343 0.56267 0.0
C661 C 0.01769 0.02556 0.51777 0.0
C662 C 0.09718 1.0053 0.54932 0.0
C663 C 0.07532 0.97761 0.52028 0.0
H664 H 0.03496 0.31385 0.84214 0.0
H665 H 0.96741 0.37699 0.75954 0.0
H666 H 1.00597 0.33895 0.71317 0.0
H667 H 0.05503 0.28343 0.69594 0.0
H668 H 0.12631 0.22407 0.77834 0.0
H669 H 0.09059 0.26505 0.82466 0.0
C670 C 0.02914 0.31975 0.81397 0.0
C671 C 0.99809 0.34814 0.80443 0.0
C672 C 0.052 0.2982 0.78731 0.0
C673 C 0.99123 0.35559 0.76776 0.0
C674 C 0.01311 0.33359 0.74116 0.0
C675 C 0.06317 0.27991 0.72402 0.0
C676 C 0.09318 0.25045 0.73359 0.0
C677 C 0.04299 0.3042 0.75059 0.0
C678 C 0.10357 0.2466 0.77011 0.0
C679 C 0.08292 0.26988 0.79669 0.0
H680 H 0.56556 0.70666 0.7398 0.0
H681 H 0.59815 0.83426 0.67722 0.0
H682 H 0.56688 0.87667 0.72501 0.0
H683 H 0.5247 0.87623 0.78285 0.0
H684 H 0.49116 0.74777 0.84451 0.0
H685 H 0.52836 0.70754 0.79907 0.0
C686 C 0.56655 0.74393 0.73677 0.0
C687 C 0.58415 0.76703 0.70475 0.0
C688 C 0.54782 0.76808 0.76419 0.0
C689 C 0.58479 0.81537 0.70145 0.0
C690 C 0.56672 0.83972 0.72878 0.0
C691 C 0.52598 0.8396 0.78657 0.0
C692 C 0.50474 0.8152 0.81712 0.0
C693 C 0.54725 0.81624 0.76001 0.0
C694 C 0.50684 0.76761 0.82129 0.0
C695 C 0.52817 0.74441 0.79524 0.0
H696 H 0.15841 0.73921 0.04248 0.0
H697 H 0.27875 0.73454 0.10677 0.0
H698 H 0.32993 0.78444 0.06403 0.0
H699 H 0.34177 0.82334 1.00622 0.0
H700 H 0.22368 0.82856 0.93951 0.0
H701 H 0.17025 0.78567 0.98554 0.0
C702 C 0.19572 0.74987 0.04731 0.0
C703 C 0.21494 0.73232 0.07748 0.0
C704 C 0.22534 0.77858 0.02211 0.0
C705 C 0.2633 0.74638 0.08339 0.0
C706 C 0.2926 0.77523 0.05901 0.0
C707 C 0.30429 0.81558 1.00176 0.0
C708 C 0.28682 0.82869 0.96925 0.0
C709 C 0.27419 0.79043 0.02787 0.0
C710 C 0.23809 0.81895 0.9643 0.0
C711 C 0.20758 0.79411 0.99053 0.0
H712 H 0.52504 0.42292 0.45846 0.0
H713 H 0.41146 0.49468 0.46958 0.0
H714 H 0.45307 0.54476 0.51619 0.0
H715 H 0.52017 0.56866 0.55451 0.0
H716 H 0.63407 0.49734 0.54783 0.0
H717 H 0.59383 0.44696 0.49916 0.0
C718 C 0.50959 0.44969 0.47096 0.0
C719 C 0.46521 0.45507 0.45975 0.0
C720 C 0.53357 0.47848 0.49887 0.0
C721 C 0.44564 0.48969 0.47683 0.0
C722 C 0.46935 0.5185 0.50385 0.0
C723 C 0.53645 0.54206 0.54271 0.0
C724 C 0.58013 0.53688 0.55515 0.0
C725 C 0.51314 0.51318 0.51514 0.0
C726 C 0.60035 0.50212 0.53904 0.0
C727 C 0.57737 0.47331 0.5111 0.0
loop_
_geom_bond_atom_site_label_1
_geom_bond_atom_site_label_2
_geom_bond_distance
_geom_bond_site_symmetry_2
_ccdc_geom_bond_type
Co0 O2 2.143 . S
Co0 O8 2.074 . S
Co0 O11 2.093 . S
Co0 O24 2.097 . S
Co0 N41 2.151 . S
Co0 N49 2.214 . S
Co1 O2 2.160 . S
Co1 O7 2.058 . S
Co1 O17 2.057 . S
Co1 O32 2.037 . S
Co1 N36 2.145 . S
Co1 N57 2.257 . S
O2 Co0 2.143 . S
O2 Co1 2.160 . S
C3 O4 1.278 . S
C3 O11 1.224 . S
O4 C3 1.278 . S
C5 O6 1.245 . S
C5 O17 1.232 . S
O6 C5 1.245 . S
O7 Co1 2.058 . S
O7 C33 1.269 . S
O8 Co0 2.074 . S
O8 C33 1.257 . S
H9 C34 0.930 . S
H10 C40 0.930 . S
O11 Co0 2.093 . S
O11 C3 1.224 . S
H12 C44 0.929 . S
H13 C46 0.930 . S
H14 C47 0.930 . S
H15 C45 0.929 . S
H16 C48 0.928 . S
O17 Co1 2.057 . S
O17 C5 1.232 . S
H18 C37 0.929 . S
H19 C38 0.929 . S
H20 C50 0.931 . S
H21 C42 0.929 . S
H22 C51 0.930 . S
H23 C43 0.931 . S
O24 Co0 2.097 . S
O24 C52 1.214 . S
H25 C53 0.929 . S
H26 C54 0.929 . S
H27 C55 0.930 1_565 S
H28 C56 0.929 1_565 S
H29 C58 0.930 . S
H30 C35 0.930 . S
H31 C39 0.930 . S
O32 Co1 2.037 . S
O32 C52 1.234 . S
C33 O7 1.269 . S
C33 O8 1.257 . S
C34 H9 0.930 . S
C34 C37 1.388 1_655 S
C34 C39 1.418 . S
C35 H30 0.930 . S
C35 C38 1.404 . S
C35 C39 1.353 . S
N36 Co1 2.145 . S
N36 C37 1.397 . S
N36 C38 1.334 1_455 S
C37 H18 0.929 . S
C37 C34 1.388 1_455 S
C37 N36 1.397 . S
C38 H19 0.929 . S
C38 C35 1.404 . S
C38 N36 1.334 1_655 S
C39 H31 0.930 . S
C39 C34 1.418 . S
C39 C35 1.353 . S
C40 H10 0.930 . S
C40 N41 1.330 . S
C40 C42 1.446 . S
N41 Co0 2.151 . S
N41 C40 1.330 . S
N41 C45 1.418 . S
C42 H21 0.929 . S
C42 C40 1.446 . S
C42 C43 1.332 . S
C43 H23 0.931 . S
C43 C42 1.332 . S
C43 C44 1.267 . S
C44 H12 0.929 . S
C44 C43 1.267 . S
C44 C45 1.251 . S
C45 H15 0.929 . S
C45 N41 1.418 . S
C45 C44 1.251 . S
C46 H13 0.930 . S
C46 C48 1.406 . S
C46 C51 1.261 . S
C47 H14 0.930 . S
C47 N49 1.325 . S
C47 C50 1.357 . S
C48 H16 0.928 . S
C48 C46 1.406 . S
C48 N49 1.261 . S
N49 Co0 2.214 . S
N49 C47 1.325 . S
N49 C48 1.261 . S
C50 H20 0.931 . S
C50 C47 1.357 . S
C50 C51 1.312 . S
C51 H22 0.930 . S
C51 C46 1.261 . S
C51 C50 1.312 . S
C52 O24 1.214 . S
C52 O32 1.234 . S
C53 H25 0.929 . S
C53 C56 1.391 . S
C53 C58 1.391 1_655 S
C54 H26 0.929 . S
C54 C55 1.390 . S
C54 N57 1.391 1_655 S
C55 H27 0.930 1_545 S
C55 C54 1.390 . S
C55 C56 1.392 . S
C56 H28 0.929 1_545 S
C56 C53 1.391 . S
C56 C55 1.392 . S
N57 Co1 2.257 . S
N57 C54 1.391 1_455 S
N57 C58 1.388 . S
C58 H29 0.930 . S
C58 C53 1.391 1_455 S
C58 N57 1.388 . S
Co59 O61 2.143 . S
Co59 O67 2.074 . S
Co59 O70 2.093 . S
Co59 O83 2.097 . S
Co59 N100 2.151 . S
Co59 N108 2.214 . S
Co60 O61 2.160 . S
Co60 O66 2.058 . S
Co60 O76 2.057 . S
Co60 O91 2.037 . S
Co60 N95 2.145 . S
Co60 N116 2.257 . S
O61 Co59 2.143 . S
O61 Co60 2.160 . S
C62 O63 1.278 . S
C62 O70 1.224 . S
O63 C62 1.278 . S
C64 O65 1.245 . S
C64 O76 1.232 . S
O65 C64 1.245 . S
O66 Co60 2.058 . S
O66 C92 1.269 . S
O67 Co59 2.074 . S
O67 C92 1.257 . S
H68 C93 0.930 . S
H69 C99 0.930 . S
O70 Co59 2.093 . S
O70 C62 1.224 . S
H71 C103 0.929 . S
H72 C105 0.930 . S
H73 C106 0.930 . S
H74 C104 0.929 . S
H75 C107 0.928 . S
O76 Co60 2.057 . S
O76 C64 1.232 . S
H77 C96 0.929 . S
H78 C97 0.929 . S
H79 C109 0.947 . S
H80 C101 0.929 . S
H81 C110 0.930 . S
H82 C102 0.931 . S
O83 Co59 2.097 . S
O83 C111 1.214 . S
H84 C112 0.929 . S
H85 C113 0.929 . S
H86 C114 0.930 1_455 S
H87 C115 0.929 1_455 S
H88 C117 0.930 . S
H89 C94 0.930 . S
H90 C98 0.930 . S
O91 Co60 2.037 . S
O91 C111 1.234 . S
C92 O66 1.269 . S
C92 O67 1.257 . S
C93 H68 0.930 . S
C93 C96 1.388 . S
C93 C98 1.418 . S
C94 H89 0.930 . S
C94 C97 1.404 . S
C94 C98 1.353 . S
N95 Co60 2.145 . S
N95 C96 1.397 . S
N95 C97 1.334 . S
C96 H77 0.929 . S
C96 C93 1.388 . S
C96 N95 1.397 . S
C97 H78 0.929 . S
C97 C94 1.404 . S
C97 N95 1.334 . S
C98 H90 0.930 . S
C98 C93 1.418 . S
C98 C94 1.353 . S
C99 H69 0.930 . S
C99 N100 1.330 . S
C99 C101 1.446 . S
N100 Co59 2.151 . S
N100 C99 1.330 . S
N100 C104 1.418 . S
C101 H80 0.929 . S
C101 C99 1.446 . S
C101 C102 1.332 . S
C102 H82 0.931 . S
C102 C101 1.332 . S
C102 C103 1.267 . S
C103 H71 0.929 . S
C103 C102 1.267 . S
C103 C104 1.251 . S
C104 H74 0.929 . S
C104 N100 1.418 . S
C104 C103 1.251 . S
C105 H72 0.930 . S
C105 C107 1.406 . S
C105 C110 1.261 . S
C106 H73 0.930 . S
C106 N108 1.325 . S
C106 C109 1.357 . S
C107 H75 0.928 . S
C107 C105 1.406 . S
C107 N108 1.261 . S
N108 Co59 2.214 . S
N108 C106 1.325 . S
N108 C107 1.261 . S
C109 H79 0.947 . S
C109 C106 1.357 . S
C109 C110 1.312 . S
C110 H81 0.930 . S
C110 C105 1.261 . S
C110 C109 1.312 . S
C111 O83 1.214 . S
C111 O91 1.234 . S
C112 H84 0.929 . S
C112 C115 1.391 . S
C112 C117 1.391 . S
C113 H85 0.929 . S
C113 C114 1.390 . S
C113 N116 1.391 . S
C114 H86 0.930 1_655 S
C114 C113 1.390 . S
C114 C115 1.392 . S
C115 H87 0.929 1_655 S
C115 C112 1.391 . S
C115 C114 1.392 . S
N116 Co60 2.257 . S
N116 C113 1.391 . S
N116 C117 1.388 . S
C117 H88 0.930 . S
C117 C112 1.391 . S
C117 N116 1.388 . S
Co118 O120 2.143 . S
Co118 O126 2.074 . S
Co118 O129 2.093 . S
Co118 O142 2.097 . S
Co118 N159 2.151 . S
Co118 N167 2.214 . S
Co119 O120 2.160 . S
Co119 O125 2.058 . S
Co119 O135 2.057 . S
Co119 O150 2.037 . S
Co119 N154 2.145 . S
Co119 N175 2.257 . S
O120 Co118 2.143 . S
O120 Co119 2.160 . S
C121 O122 1.278 . S
C121 O129 1.224 . S
O122 C121 1.278 . S
C123 O124 1.245 . S
C123 O135 1.232 . S
O124 C123 1.245 . S
O125 Co119 2.058 . S
O125 C151 1.269 . S
O126 Co118 2.074 . S
O126 C151 1.257 . S
H127 C152 0.930 . S
H128 C158 0.930 . S
O129 Co118 2.093 . S
O129 C121 1.224 . S
H130 C162 0.929 . S
H131 C164 0.930 . S
H132 C165 0.930 . S
H133 C163 0.929 . S
H134 C166 0.928 . S
O135 Co119 2.057 . S
O135 C123 1.232 . S
H136 C155 0.929 . S
H137 C156 0.929 . S
H138 C168 0.947 . S
H139 C160 0.929 . S
H140 C169 0.930 . S
H141 C161 0.931 . S
O142 Co118 2.097 . S
O142 C170 1.214 . S
H143 C171 0.929 . S
H144 C172 0.929 . S
H145 C173 0.930 1_565 S
H146 C174 0.929 1_565 S
H147 C176 0.930 . S
H148 C153 0.930 . S
H149 C157 0.930 . S
O150 Co119 2.037 . S
O150 C170 1.234 . S
C151 O125 1.269 . S
C151 O126 1.257 . S
C152 H127 0.930 . S
C152 C155 1.388 . S
C152 C157 1.418 . S
C153 H148 0.930 . S
C153 C156 1.404 . S
C153 C157 1.353 . S
N154 Co119 2.145 . S
N154 C155 1.397 . S
N154 C156 1.334 . S
C155 H136 0.929 . S
C155 C152 1.388 . S
C155 N154 1.397 . S
C156 H137 0.929 . S
C156 C153 1.404 . S
C156 N154 1.334 . S
C157 H149 0.930 . S
C157 C152 1.418 . S
C157 C153 1.353 . S
C158 H128 0.930 . S
C158 N159 1.330 . S
C158 C160 1.446 . S
N159 Co118 2.151 . S
N159 C158 1.330 . S
N159 C163 1.418 . S
C160 H139 0.929 . S
C160 C158 1.446 . S
C160 C161 1.332 . S
C161 H141 0.931 . S
C161 C160 1.332 . S
C161 C162 1.267 . S
C162 H130 0.929 . S
C162 C161 1.267 . S
C162 C163 1.251 . S
C163 H133 0.929 . S
C163 N159 1.418 . S
C163 C162 1.251 . S
C164 H131 0.930 . S
C164 C166 1.406 . S
C164 C169 1.261 . S
C165 H132 0.930 . S
C165 N167 1.325 . S
C165 C168 1.357 . S
C166 H134 0.928 . S
C166 C164 1.406 . S
C166 N167 1.261 . S
N167 Co118 2.214 . S
N167 C165 1.325 . S
N167 C166 1.261 . S
C168 H138 0.947 . S
C168 C165 1.357 . S
C168 C169 1.312 . S
C169 H140 0.930 . S
C169 C164 1.261 . S
C169 C168 1.312 . S
C170 O142 1.214 . S
C170 O150 1.234 . S
C171 H143 0.929 . S
C171 C174 1.391 . S
C171 C176 1.391 . S
C172 H144 0.929 . S
C172 C173 1.390 . S
C172 N175 1.391 . S
C173 H145 0.930 1_545 S
C173 C172 1.390 . S
C173 C174 1.392 . S
C174 H146 0.929 1_545 S
C174 C171 1.391 . S
C174 C173 1.392 . S
N175 Co119 2.257 . S
N175 C172 1.391 . S
N175 C176 1.388 . S
C176 H147 0.930 . S
C176 C171 1.391 . S
C176 N175 1.388 . S
Co177 O179 2.143 . S
Co177 O185 2.074 . S
Co177 O188 2.093 . S
Co177 O201 2.097 . S
Co177 N218 2.151 . S
Co177 N226 2.214 . S
Co178 O179 2.160 . S
Co178 O184 2.058 . S
Co178 O194 2.057 . S
Co178 O209 2.037 . S
Co178 N213 2.145 . S
Co178 N234 2.257 . S
O179 Co177 2.143 . S
O179 Co178 2.160 . S
C180 O181 1.278 . S
C180 O188 1.224 . S
O181 C180 1.278 . S
C182 O183 1.245 . S
C182 O194 1.232 . S
O183 C182 1.245 . S
O184 Co178 2.058 . S
O184 C210 1.269 . S
O185 Co177 2.074 . S
O185 C210 1.257 . S
H186 C211 0.930 . S
H187 C217 0.930 . S
O188 Co177 2.093 . S
O188 C180 1.224 . S
H189 C221 0.929 . S
H190 C223 0.930 . S
H191 C224 0.930 . S
H192 C222 0.929 . S
H193 C225 0.928 . S
O194 Co178 2.057 . S
O194 C182 1.232 . S
H195 C214 0.929 . S
H196 C215 0.929 . S
H197 C227 0.931 . S
H198 C219 0.929 . S
H199 C228 0.930 . S
H200 C220 0.931 . S
O201 Co177 2.097 . S
O201 C229 1.214 . S
H202 C230 0.929 . S
H203 C231 0.929 . S
H204 C232 0.930 1_455 S
H205 C233 0.929 1_455 S
H206 C235 0.930 . S
H207 C212 0.930 . S
H208 C216 0.930 . S
O209 Co178 2.037 . S
O209 C229 1.234 . S
C210 O184 1.269 . S
C210 O185 1.257 . S
C211 H186 0.930 . S
C211 C214 1.388 1_545 S
C211 C216 1.418 . S
C212 H207 0.930 . S
C212 C215 1.404 . S
C212 C216 1.353 . S
N213 Co178 2.145 . S
N213 C214 1.397 . S
N213 C215 1.334 1_565 S
C214 H195 0.929 . S
C214 C211 1.388 1_565 S
C214 N213 1.397 . S
C215 H196 0.929 . S
C215 C212 1.404 . S
C215 N213 1.334 1_545 S
C216 H208 0.930 . S
C216 C211 1.418 . S
C216 C212 1.353 . S
C217 H187 0.930 . S
C217 N218 1.330 . S
C217 C219 1.446 . S
N218 Co177 2.151 . S
N218 C217 1.330 . S
N218 C222 1.418 . S
C219 H198 0.929 . S
C219 C217 1.446 . S
C219 C220 1.332 . S
C220 H200 0.931 . S
C220 C219 1.332 . S
C220 C221 1.267 . S
C221 H189 0.929 . S
C221 C220 1.267 . S
C221 C222 1.251 . S
C222 H192 0.929 . S
C222 N218 1.418 . S
C222 C221 1.251 . S
C223 H190 0.930 . S
C223 C225 1.406 . S
C223 C228 1.261 . S
C224 H191 0.930 . S
C224 N226 1.325 . S
C224 C227 1.357 . S
C225 H193 0.928 . S
C225 C223 1.406 . S
C225 N226 1.261 . S
N226 Co177 2.214 . S
N226 C224 1.325 . S
N226 C225 1.261 . S
C227 H197 0.931 . S
C227 C224 1.357 . S
C227 C228 1.312 . S
C228 H199 0.930 . S
C228 C223 1.261 . S
C228 C227 1.312 . S
C229 O201 1.214 . S
C229 O209 1.234 . S
C230 H202 0.929 . S
C230 C233 1.391 . S
C230 C235 1.391 1_545 S
C231 H203 0.929 . S
C231 C232 1.390 . S
C231 N234 1.391 1_545 S
C232 H204 0.930 1_655 S
C232 C231 1.390 . S
C232 C233 1.392 . S
C233 H205 0.929 1_655 S
C233 C230 1.391 . S
C233 C232 1.392 . S
N234 Co178 2.257 . S
N234 C231 1.391 1_565 S
N234 C235 1.388 . S
C235 H206 0.930 . S
C235 C230 1.391 1_565 S
C235 N234 1.388 . S
Co236 O238 2.143 . S
Co236 O244 2.074 . S
Co236 O247 2.093 . S
Co236 O260 2.097 . S
Co236 N277 2.151 . S
Co236 N285 2.214 . S
Co237 O238 2.160 . S
Co237 O243 2.058 . S
Co237 O253 2.057 . S
Co237 O268 2.037 . S
Co237 N272 2.145 . S
Co237 N293 2.257 . S
O238 Co236 2.143 . S
O238 Co237 2.160 . S
C239 O240 1.278 . S
C239 O247 1.224 . S
O240 C239 1.278 . S
C241 O242 1.245 . S
C241 O253 1.232 . S
O242 C241 1.245 . S
O243 Co237 2.058 . S
O243 C269 1.269 . S
O244 Co236 2.074 . S
O244 C269 1.257 . S
H245 C270 0.930 . S
H246 C276 0.930 . S
O247 Co236 2.093 . S
O247 C239 1.224 . S
H248 C280 0.929 . S
H249 C282 0.930 . S
H250 C283 0.930 . S
H251 C281 0.929 . S
H252 C284 0.928 . S
O253 Co237 2.057 . S
O253 C241 1.232 . S
H254 C273 0.929 . S
H255 C274 0.929 . S
H256 C286 0.947 . S
H257 C278 0.929 . S
H258 C287 0.930 . S
H259 C279 0.931 . S
O260 Co236 2.097 . S
O260 C288 1.214 . S
H261 C289 0.929 . S
H262 C290 0.929 . S
H263 C291 0.930 . S
H264 C292 0.929 . S
H265 C294 0.930 . S
H266 C271 0.930 . S
H267 C275 0.930 . S
O268 Co237 2.037 . S
O268 C288 1.234 . S
C269 O243 1.269 . S
C269 O244 1.257 . S
C270 H245 0.930 . S
C270 C273 1.388 1_655 S
C270 C275 1.418 . S
C271 H266 0.930 . S
C271 C274 1.404 . S
C271 C275 1.353 . S
N272 Co237 2.145 . S
N272 C273 1.397 . S
N272 C274 1.334 1_455 S
C273 H254 0.929 . S
C273 C270 1.388 1_455 S
C273 N272 1.397 . S
C274 H255 0.929 . S
C274 C271 1.404 . S
C274 N272 1.334 1_655 S
C275 H267 0.930 . S
C275 C270 1.418 . S
C275 C271 1.353 . S
C276 H246 0.930 . S
C276 N277 1.330 . S
C276 C278 1.446 . S
N277 Co236 2.151 . S
N277 C276 1.330 . S
N277 C281 1.418 . S
C278 H257 0.929 . S
C278 C276 1.446 . S
C278 C279 1.332 . S
C279 H259 0.931 . S
C279 C278 1.332 . S
C279 C280 1.267 . S
C280 H248 0.929 . S
C280 C279 1.267 . S
C280 C281 1.251 . S
C281 H251 0.929 . S
C281 N277 1.418 . S
C281 C280 1.251 . S
C282 H249 0.930 . S
C282 C284 1.406 . S
C282 C287 1.261 . S
C283 H250 0.930 . S
C283 N285 1.325 . S
C283 C286 1.357 . S
C284 H252 0.928 . S
C284 C282 1.406 . S
C284 N285 1.261 . S
N285 Co236 2.214 . S
N285 C283 1.325 . S
N285 C284 1.261 . S
C286 H256 0.947 . S
C286 C283 1.357 . S
C286 C287 1.312 . S
C287 H258 0.930 . S
C287 C282 1.261 . S
C287 C286 1.312 . S
C288 O260 1.214 . S
C288 O268 1.234 . S
C289 H261 0.929 . S
C289 C292 1.391 . S
C289 C294 1.391 1_655 S
C290 H262 0.929 . S
C290 C291 1.390 . S
C290 N293 1.391 1_655 S
C291 H263 0.930 . S
C291 C290 1.390 . S
C291 C292 1.392 . S
C292 H264 0.929 . S
C292 C289 1.391 . S
C292 C291 1.392 . S
N293 Co237 2.257 . S
N293 C290 1.391 1_455 S
N293 C294 1.388 . S
C294 H265 0.930 . S
C294 C289 1.391 1_455 S
C294 N293 1.388 . S
Co295 O297 2.143 . S
Co295 O303 2.074 . S
Co295 O306 2.093 . S
Co295 O319 2.097 . S
Co295 N336 2.151 . S
Co295 N344 2.214 . S
Co296 O297 2.160 . S
Co296 O302 2.058 . S
Co296 O312 2.057 . S
Co296 O327 2.037 . S
Co296 N331 2.145 . S
Co296 N352 2.257 . S
O297 Co295 2.143 . S
O297 Co296 2.160 . S
C298 O299 1.278 . S
C298 O306 1.224 . S
O299 C298 1.278 . S
C300 O301 1.245 . S
C300 O312 1.232 . S
O301 C300 1.245 . S
O302 Co296 2.058 . S
O302 C328 1.269 . S
O303 Co295 2.074 . S
O303 C328 1.257 . S
H304 C329 0.930 . S
H305 C335 0.930 . S
O306 Co295 2.093 . S
O306 C298 1.224 . S
H307 C339 0.929 . S
H308 C341 0.930 . S
H309 C342 0.930 . S
H310 C340 0.929 . S
H311 C343 0.928 . S
O312 Co296 2.057 . S
O312 C300 1.232 . S
H313 C332 0.929 . S
H314 C333 0.929 . S
H315 C345 0.931 . S
H316 C337 0.929 . S
H317 C346 0.930 . S
H318 C338 0.931 . S
O319 Co295 2.097 . S
O319 C347 1.214 . S
H320 C348 0.929 . S
H321 C349 0.929 . S
H322 C350 0.930 . S
H323 C351 0.929 . S
H324 C353 0.930 . S
H325 C330 0.930 . S
H326 C334 0.930 . S
O327 Co296 2.037 . S
O327 C347 1.234 . S
C328 O302 1.269 . S
C328 O303 1.257 . S
C329 H304 0.930 . S
C329 C332 1.388 . S
C329 C334 1.418 . S
C330 H325 0.930 . S
C330 C333 1.404 . S
C330 C334 1.353 . S
N331 Co296 2.145 . S
N331 C332 1.397 . S
N331 C333 1.334 . S
C332 H313 0.929 . S
C332 C329 1.388 . S
C332 N331 1.397 . S
C333 H314 0.929 . S
C333 C330 1.404 . S
C333 N331 1.334 . S
C334 H326 0.930 . S
C334 C329 1.418 . S
C334 C330 1.353 . S
C335 H305 0.930 . S
C335 N336 1.330 . S
C335 C337 1.446 . S
N336 Co295 2.151 . S
N336 C335 1.330 . S
N336 C340 1.418 . S
C337 H316 0.929 . S
C337 C335 1.446 . S
C337 C338 1.332 . S
C338 H318 0.931 . S
C338 C337 1.332 . S
C338 C339 1.267 . S
C339 H307 0.929 . S
C339 C338 1.267 . S
C339 C340 1.251 . S
C340 H310 0.929 . S
C340 N336 1.418 . S
C340 C339 1.251 . S
C341 H308 0.930 . S
C341 C343 1.406 . S
C341 C346 1.261 . S
C342 H309 0.930 . S
C342 N344 1.325 . S
C342 C345 1.357 . S
C343 H311 0.928 . S
C343 C341 1.406 . S
C343 N344 1.261 . S
N344 Co295 2.214 . S
N344 C342 1.325 . S
N344 C343 1.261 . S
C345 H315 0.931 . S
C345 C342 1.357 . S
C345 C346 1.312 . S
C346 H317 0.930 . S
C346 C341 1.261 . S
C346 C345 1.312 . S
C347 O319 1.214 . S
C347 O327 1.234 . S
C348 H320 0.929 . S
C348 C351 1.391 . S
C348 C353 1.391 . S
C349 H321 0.929 . S
C349 C350 1.390 . S
C349 N352 1.391 . S
C350 H322 0.930 . S
C350 C349 1.390 . S
C350 C351 1.392 . S
C351 H323 0.929 . S
C351 C348 1.391 . S
C351 C350 1.392 . S
N352 Co296 2.257 . S
N352 C349 1.391 . S
N352 C353 1.388 . S
C353 H324 0.930 . S
C353 C348 1.391 . S
C353 N352 1.388 . S
Co354 O356 2.143 . S
Co354 O362 2.074 . S
Co354 O365 2.093 . S
Co354 O378 2.097 . S
Co354 N395 2.151 . S
Co354 N403 2.214 . S
Co355 O356 2.160 . S
Co355 O361 2.058 . S
Co355 O371 2.057 . S
Co355 O386 2.037 . S
Co355 N390 2.145 . S
Co355 N411 2.257 . S
O356 Co354 2.143 . S
O356 Co355 2.160 . S
C357 O358 1.278 . S
C357 O365 1.224 . S
O358 C357 1.278 . S
C359 O360 1.245 . S
C359 O371 1.232 . S
O360 C359 1.245 . S
O361 Co355 2.058 . S
O361 C387 1.269 . S
O362 Co354 2.074 . S
O362 C387 1.257 . S
H363 C388 0.930 . S
H364 C394 0.930 . S
O365 Co354 2.093 . S
O365 C357 1.224 . S
H366 C398 0.929 . S
H367 C400 0.930 . S
H368 C401 0.930 . S
H369 C399 0.929 . S
H370 C402 0.928 . S
O371 Co355 2.057 . S
O371 C359 1.232 . S
H372 C391 0.929 . S
H373 C392 0.929 . S
H374 C404 0.947 . S
H375 C396 0.929 . S
H376 C405 0.930 . S
H377 C397 0.931 . S
O378 Co354 2.097 . S
O378 C406 1.214 . S
H379 C407 0.929 . S
H380 C408 0.929 . S
H381 C409 0.930 . S
H382 C410 0.929 . S
H383 C412 0.930 . S
H384 C389 0.930 . S
H385 C393 0.930 . S
O386 Co355 2.037 . S
O386 C406 1.234 . S
C387 O361 1.269 . S
C387 O362 1.257 . S
C388 H363 0.930 . S
C388 C391 1.388 1_545 S
C388 C393 1.418 . S
C389 H384 0.930 . S
C389 C392 1.404 . S
C389 C393 1.353 . S
N390 Co355 2.145 . S
N390 C391 1.397 . S
N390 C392 1.334 1_565 S
C391 H372 0.929 . S
C391 C388 1.388 1_565 S
C391 N390 1.397 . S
C392 H373 0.929 . S
C392 C389 1.404 . S
C392 N390 1.334 1_545 S
C393 H385 0.930 . S
C393 C388 1.418 . S
C393 C389 1.353 . S
C394 H364 0.930 . S
C394 N395 1.330 . S
C394 C396 1.446 . S
N395 Co354 2.151 . S
N395 C394 1.330 . S
N395 C399 1.418 . S
C396 H375 0.929 . S
C396 C394 1.446 . S
C396 C397 1.332 . S
C397 H377 0.931 . S
C397 C396 1.332 . S
C397 C398 1.267 . S
C398 H366 0.929 . S
C398 C397 1.267 . S
C398 C399 1.251 . S
C399 H369 0.929 . S
C399 N395 1.418 . S
C399 C398 1.251 . S
C400 H367 0.930 . S
C400 C402 1.406 . S
C400 C405 1.261 . S
C401 H368 0.930 . S
C401 N403 1.325 . S
C401 C404 1.357 . S
C402 H370 0.928 . S
C402 C400 1.406 . S
C402 N403 1.261 . S
N403 Co354 2.214 . S
N403 C401 1.325 . S
N403 C402 1.261 . S
C404 H374 0.947 . S
C404 C401 1.357 . S
C404 C405 1.312 . S
C405 H376 0.930 . S
C405 C400 1.261 . S
C405 C404 1.312 . S
C406 O378 1.214 . S
C406 O386 1.234 . S
C407 H379 0.929 . S
C407 C410 1.391 . S
C407 C412 1.391 1_545 S
C408 H380 0.929 . S
C408 C409 1.390 . S
C408 N411 1.391 1_545 S
C409 H381 0.930 . S
C409 C408 1.390 . S
C409 C410 1.392 . S
C410 H382 0.929 . S
C410 C407 1.391 . S
C410 C409 1.392 . S
N411 Co355 2.257 . S
N411 C408 1.391 1_565 S
N411 C412 1.388 . S
C412 H383 0.930 . S
C412 C407 1.391 1_565 S
C412 N411 1.388 . S
Co413 O415 2.143 . S
Co413 O421 2.074 . S
Co413 O424 2.093 . S
Co413 O437 2.097 . S
Co413 N454 2.151 . S
Co413 N462 2.214 . S
Co414 O415 2.160 . S
Co414 O420 2.058 . S
Co414 O430 2.057 . S
Co414 O445 2.037 . S
Co414 N449 2.145 . S
Co414 N470 2.257 . S
O415 Co413 2.143 . S
O415 Co414 2.160 . S
C416 O417 1.278 . S
C416 O424 1.224 . S
O417 C416 1.278 . S
C418 O419 1.245 . S
C418 O430 1.232 . S
O419 C418 1.245 . S
O420 Co414 2.058 . S
O420 C446 1.269 . S
O421 Co413 2.074 . S
O421 C446 1.257 . S
H422 C447 0.930 . S
H423 C453 0.930 . S
O424 Co413 2.093 . S
O424 C416 1.224 . S
H425 C457 0.929 . S
H426 C459 0.930 . S
H427 C460 0.930 . S
H428 C458 0.929 . S
H429 C461 0.928 . S
O430 Co414 2.057 . S
O430 C418 1.232 . S
H431 C450 0.929 . S
H432 C451 0.929 . S
H433 C463 0.931 . S
H434 C455 0.929 . S
H435 C464 0.930 . S
H436 C456 0.931 . S
O437 Co413 2.097 . S
O437 C465 1.214 . S
H438 C466 0.929 . S
H439 C467 0.929 . S
H440 C468 0.930 . S
H441 C469 0.929 . S
H442 C471 0.930 . S
H443 C448 0.930 . S
H444 C452 0.930 . S
O445 Co414 2.037 . S
O445 C465 1.234 . S
C446 O420 1.269 . S
C446 O421 1.257 . S
C447 H422 0.930 . S
C447 C450 1.388 . S
C447 C452 1.418 . S
C448 H443 0.930 . S
C448 C451 1.404 . S
C448 C452 1.353 . S
N449 Co414 2.145 . S
N449 C450 1.397 . S
N449 C451 1.334 . S
C450 H431 0.929 . S
C450 C447 1.388 . S
C450 N449 1.397 . S
C451 H432 0.929 . S
C451 C448 1.404 . S
C451 N449 1.334 . S
C452 H444 0.930 . S
C452 C447 1.418 . S
C452 C448 1.353 . S
C453 H423 0.930 . S
C453 N454 1.330 . S
C453 C455 1.446 . S
N454 Co413 2.151 . S
N454 C453 1.330 . S
N454 C458 1.418 . S
C455 H434 0.929 . S
C455 C453 1.446 . S
C455 C456 1.332 . S
C456 H436 0.931 . S
C456 C455 1.332 . S
C456 C457 1.267 . S
C457 H425 0.929 . S
C457 C456 1.267 . S
C457 C458 1.251 . S
C458 H428 0.929 . S
C458 N454 1.418 . S
C458 C457 1.251 . S
C459 H426 0.930 . S
C459 C461 1.406 . S
C459 C464 1.261 . S
C460 H427 0.930 . S
C460 N462 1.325 . S
C460 C463 1.357 . S
C461 H429 0.928 . S
C461 C459 1.406 . S
C461 N462 1.261 . S
N462 Co413 2.214 . S
N462 C460 1.325 . S
N462 C461 1.261 . S
C463 H433 0.931 . S
C463 C460 1.357 . S
C463 C464 1.312 . S
C464 H435 0.930 . S
C464 C459 1.261 . S
C464 C463 1.312 . S
C465 O437 1.214 . S
C465 O445 1.234 . S
C466 H438 0.929 . S
C466 C469 1.391 . S
C466 C471 1.391 . S
C467 H439 0.929 . S
C467 C468 1.390 . S
C467 N470 1.391 . S
C468 H440 0.930 . S
C468 C467 1.390 . S
C468 C469 1.392 . S
C469 H441 0.929 . S
C469 C466 1.391 . S
C469 C468 1.392 . S
N470 Co414 2.257 . S
N470 C467 1.391 . S
N470 C471 1.388 . S
C471 H442 0.930 . S
C471 C466 1.391 . S
C471 N470 1.388 . S
H472 C478 0.930 . S
H473 C481 0.930 . S
H474 C482 0.930 . S
H475 C483 0.930 . S
H476 C486 0.930 . S
H477 C487 0.930 . S
C478 H472 0.930 . S
C478 C479 1.355 . S
C478 C480 1.415 . S
C479 C478 1.355 . S
C479 C481 1.419 . S
C480 C478 1.415 . S
C480 C485 1.425 . S
C480 C487 1.409 . S
C481 H473 0.930 . S
C481 C479 1.419 . S
C481 C482 1.362 . S
C482 H474 0.930 . S
C482 C481 1.362 . S
C482 C485 1.409 . S
C483 H475 0.930 . S
C483 C484 1.355 . S
C483 C485 1.415 . S
C484 C483 1.355 . S
C484 C486 1.419 . S
C485 C480 1.425 . S
C485 C482 1.409 . S
C485 C483 1.415 . S
C486 H476 0.930 . S
C486 C484 1.419 . S
C486 C487 1.362 . S
C487 H477 0.930 . S
C487 C480 1.409 . S
C487 C486 1.362 . S
H488 C494 0.930 . S
H489 C497 0.930 . S
H490 C498 0.930 . S
H491 C499 0.930 . S
H492 C502 0.930 . S
H493 C503 0.930 . S
C494 H488 0.930 . S
C494 C495 1.355 . S
C494 C496 1.415 . S
C495 C494 1.355 . S
C495 C497 1.419 . S
C496 C494 1.415 . S
C496 C501 1.425 . S
C496 C503 1.409 . S
C497 H489 0.930 . S
C497 C495 1.419 . S
C497 C498 1.362 . S
C498 H490 0.930 . S
C498 C497 1.362 . S
C498 C501 1.409 . S
C499 H491 0.930 . S
C499 C500 1.355 . S
C499 C501 1.415 . S
C500 C499 1.355 . S
C500 C502 1.419 . S
C501 C496 1.425 . S
C501 C498 1.409 . S
C501 C499 1.415 . S
C502 H492 0.930 . S
C502 C500 1.419 . S
C502 C503 1.362 . S
C503 H493 0.930 . S
C503 C496 1.409 . S
C503 C502 1.362 . S
H504 C510 0.930 . S
H505 C513 0.930 . S
H506 C514 0.939 . S
H507 C515 0.930 . S
H508 C518 0.930 . S
H509 C519 0.939 1_545 S
C510 H504 0.930 . S
C510 C511 1.355 . S
C510 C512 1.415 1_545 S
C511 C510 1.355 . S
C511 C513 1.419 . S
C512 C510 1.415 1_565 S
C512 C517 1.425 1_554 S
C512 C519 1.414 . S
C513 H505 0.930 . S
C513 C511 1.419 . S
C513 C514 1.349 1_544 S
C514 H506 0.939 . S
C514 C513 1.349 1_566 S
C514 C517 1.414 . S
C515 H507 0.930 . S
C515 C516 1.355 . S
C515 C517 1.415 . S
C516 C515 1.355 . S
C516 C518 1.419 . S
C517 C512 1.425 1_556 S
C517 C514 1.414 . S
C517 C515 1.415 . S
C518 H508 0.930 . S
C518 C516 1.419 . S
C518 C519 1.349 1_556 S
C519 H509 0.939 1_565 S
C519 C512 1.414 . S
C519 C518 1.349 1_554 S
H520 C526 0.930 . S
H521 C529 0.930 . S
H522 C530 0.930 . S
H523 C531 0.930 . S
H524 C534 0.930 . S
H525 C535 0.930 . S
C526 H520 0.930 . S
C526 C527 1.355 1_455 S
C526 C528 1.415 . S
C527 C526 1.355 1_655 S
C527 C529 1.419 . S
C528 C526 1.415 . S
C528 C533 1.425 . S
C528 C535 1.409 . S
C529 H521 0.930 . S
C529 C527 1.419 . S
C529 C530 1.362 . S
C530 H522 0.930 . S
C530 C529 1.362 . S
C530 C533 1.409 1_655 S
C531 H523 0.930 . S
C531 C532 1.355 . S
C531 C533 1.415 . S
C532 C531 1.355 . S
C532 C534 1.419 . S
C533 C528 1.425 . S
C533 C530 1.409 1_455 S
C533 C531 1.415 . S
C534 H524 0.930 . S
C534 C532 1.419 . S
C534 C535 1.362 . S
C535 H525 0.930 . S
C535 C528 1.409 . S
C535 C534 1.362 . S
H536 C542 0.930 . S
H537 C545 0.930 . S
H538 C546 0.916 1_545 S
H539 C547 0.930 . S
H540 C550 0.930 . S
H541 C551 0.930 . S
C542 H536 0.930 . S
C542 C543 1.355 . S
C542 C544 1.415 . S
C543 C542 1.355 . S
C543 C545 1.419 . S
C544 C542 1.415 . S
C544 C549 1.425 . S
C544 C551 1.409 . S
C545 H537 0.930 . S
C545 C543 1.419 . S
C545 C546 1.381 . S
C546 H538 0.916 1_565 S
C546 C545 1.381 . S
C546 C549 1.406 . S
C547 H539 0.930 . S
C547 C548 1.355 . S
C547 C549 1.415 1_545 S
C548 C547 1.355 . S
C548 C550 1.419 1_545 S
C549 C544 1.425 . S
C549 C546 1.406 . S
C549 C547 1.415 1_565 S
C550 H540 0.930 . S
C550 C548 1.419 1_565 S
C550 C551 1.362 . S
C551 H541 0.930 . S
C551 C544 1.409 . S
C551 C550 1.362 . S
H552 C558 0.930 . S
H553 C561 0.930 . S
H554 C562 0.930 . S
H555 C563 0.930 . S
H556 C566 0.930 . S
H557 C567 0.930 . S
C558 H552 0.930 . S
C558 C559 1.355 1_455 S
C558 C560 1.415 . S
C559 C558 1.355 1_655 S
C559 C561 1.419 . S
C560 C558 1.415 . S
C560 C565 1.425 1_556 S
C560 C567 1.409 1_556 S
C561 H553 0.930 . S
C561 C559 1.419 . S
C561 C562 1.362 . S
C562 H554 0.930 . S
C562 C561 1.362 . S
C562 C565 1.409 1_656 S
C563 H555 0.930 . S
C563 C564 1.355 . S
C563 C565 1.415 . S
C564 C563 1.355 . S
C564 C566 1.419 . S
C565 C560 1.425 1_554 S
C565 C562 1.409 1_454 S
C565 C563 1.415 . S
C566 H556 0.930 . S
C566 C564 1.419 . S
C566 C567 1.362 . S
C567 H557 0.930 . S
C567 C560 1.409 1_554 S
C567 C566 1.362 . S
H568 C574 0.930 . S
H569 C577 0.930 . S
H570 C578 0.930 . S
H571 C579 0.930 . S
H572 C582 0.930 . S
H573 C583 0.930 . S
C574 H568 0.930 . S
C574 C575 1.355 . S
C574 C576 1.415 . S
C575 C574 1.355 . S
C575 C577 1.419 . S
C576 C574 1.415 . S
C576 C581 1.425 . S
C576 C583 1.409 . S
C577 H569 0.930 . S
C577 C575 1.419 . S
C577 C578 1.362 . S
C578 H570 0.930 . S
C578 C577 1.362 . S
C578 C581 1.409 . S
C579 H571 0.930 . S
C579 C580 1.355 . S
C579 C581 1.415 . S
C580 C579 1.355 . S
C580 C582 1.419 . S
C581 C576 1.425 . S
C581 C578 1.409 . S
C581 C579 1.415 . S
C582 H572 0.930 . S
C582 C580 1.419 . S
C582 C583 1.362 . S
C583 H573 0.930 . S
C583 C576 1.409 . S
C583 C582 1.362 . S
H584 C590 0.930 . S
H585 C593 0.930 . S
H586 C594 0.930 . S
H587 C595 0.930 . S
H588 C598 0.930 . S
H589 C599 0.930 . S
C590 H584 0.930 . S
C590 C591 1.355 . S
C590 C592 1.415 . S
C591 C590 1.355 . S
C591 C593 1.419 . S
C592 C590 1.415 . S
C592 C597 1.425 . S
C592 C599 1.409 . S
C593 H585 0.930 . S
C593 C591 1.419 . S
C593 C594 1.362 . S
C594 H586 0.930 . S
C594 C593 1.362 . S
C594 C597 1.409 . S
C595 H587 0.930 . S
C595 C596 1.355 . S
C595 C597 1.415 . S
C596 C595 1.355 . S
C596 C598 1.419 . S
C597 C592 1.425 . S
C597 C594 1.409 . S
C597 C595 1.415 . S
C598 H588 0.930 . S
C598 C596 1.419 . S
C598 C599 1.362 . S
C599 H589 0.930 . S
C599 C592 1.409 . S
C599 C598 1.362 . S
H600 C606 0.930 . S
H601 C609 0.930 . S
H602 C610 0.930 . S
H603 C611 0.930 . S
H604 C614 0.930 . S
H605 C615 0.930 . S
C606 H600 0.930 . S
C606 C607 1.355 . S
C606 C608 1.415 . S
C607 C606 1.355 . S
C607 C609 1.419 . S
C608 C606 1.415 . S
C608 C613 1.425 . S
C608 C615 1.409 . S
C609 H601 0.930 . S
C609 C607 1.419 . S
C609 C610 1.362 . S
C610 H602 0.930 . S
C610 C609 1.362 . S
C610 C613 1.409 . S
C611 H603 0.930 . S
C611 C612 1.355 . S
C611 C613 1.415 . S
C612 C611 1.355 . S
C612 C614 1.419 . S
C613 C608 1.425 . S
C613 C610 1.409 . S
C613 C611 1.415 . S
C614 H604 0.930 . S
C614 C612 1.419 . S
C614 C615 1.362 . S
C615 H605 0.930 . S
C615 C608 1.409 . S
C615 C614 1.362 . S
H616 C622 0.930 . S
H617 C625 0.930 . S
H618 C626 0.930 . S
H619 C627 0.930 . S
H620 C630 0.930 . S
H621 C631 0.930 . S
C622 H616 0.930 . S
C622 C623 1.355 . S
C622 C624 1.415 1_556 S
C623 C622 1.355 . S
C623 C625 1.419 . S
C624 C622 1.415 1_554 S
C624 C629 1.425 1_554 S
C624 C631 1.409 . S
C625 H617 0.930 . S
C625 C623 1.419 . S
C625 C626 1.362 . S
C626 H618 0.930 . S
C626 C625 1.362 . S
C626 C629 1.409 . S
C627 H619 0.930 . S
C627 C628 1.355 . S
C627 C629 1.415 1_554 S
C628 C627 1.355 . S
C628 C630 1.419 . S
C629 C624 1.425 1_556 S
C629 C626 1.409 . S
C629 C627 1.415 1_556 S
C630 H620 0.930 . S
C630 C628 1.419 . S
C630 C631 1.362 . S
C631 H621 0.930 . S
C631 C624 1.409 . S
C631 C630 1.362 . S
H632 C638 0.930 . S
H633 C641 0.930 . S
H634 C642 0.930 . S
H635 C643 0.930 . S
H636 C646 0.930 . S
H637 C647 0.930 . S
C638 H632 0.930 . S
C638 C639 1.355 . S
C638 C640 1.415 . S
C639 C638 1.355 . S
C639 C641 1.419 . S
C640 C638 1.415 . S
C640 C645 1.425 . S
C640 C647 1.409 . S
C641 H633 0.930 . S
C641 C639 1.419 . S
C641 C642 1.362 1_565 S
C642 H634 0.930 . S
C642 C641 1.362 1_545 S
C642 C645 1.409 1_545 S
C643 H635 0.930 . S
C643 C644 1.355 . S
C643 C645 1.415 1_545 S
C644 C643 1.355 . S
C644 C646 1.419 1_545 S
C645 C640 1.425 . S
C645 C642 1.409 1_565 S
C645 C643 1.415 1_565 S
C646 H636 0.930 . S
C646 C644 1.419 1_565 S
C646 C647 1.362 . S
C647 H637 0.930 . S
C647 C640 1.409 . S
C647 C646 1.362 . S
H648 C654 0.930 . S
H649 C657 0.930 . S
H650 C658 0.930 . S
H651 C659 0.930 . S
H652 C662 0.930 . S
H653 C663 0.930 . S
C654 H648 0.930 . S
C654 C655 1.355 . S
C654 C656 1.415 1_655 S
C655 C654 1.355 . S
C655 C657 1.419 . S
C656 C654 1.415 1_455 S
C656 C661 1.425 1_565 S
C656 C663 1.409 . S
C657 H649 0.930 . S
C657 C655 1.419 . S
C657 C658 1.362 1_565 S
C658 H650 0.930 . S
C658 C657 1.362 1_545 S
C658 C661 1.409 1_655 S
C659 H651 0.930 . S
C659 C660 1.355 . S
C659 C661 1.415 . S
C660 C659 1.355 . S
C660 C662 1.419 1_545 S
C661 C656 1.425 1_545 S
C661 C658 1.409 1_455 S
C661 C659 1.415 . S
C662 H652 0.930 . S
C662 C660 1.419 1_565 S
C662 C663 1.362 . S
C663 H653 0.930 . S
C663 C656 1.409 . S
C663 C662 1.362 . S
H664 C670 0.929 . S
H665 C673 0.930 . S
H666 C674 0.930 . S
H667 C675 0.930 . S
H668 C678 0.930 . S
H669 C679 0.930 . S
C670 H664 0.929 . S
C670 C671 1.355 1_455 S
C670 C672 1.415 . S
C671 C670 1.355 1_655 S
C671 C673 1.419 . S
C672 C670 1.415 . S
C672 C677 1.425 . S
C672 C679 1.409 . S
C673 H665 0.930 . S
C673 C671 1.419 . S
C673 C674 1.362 1_655 S
C674 H666 0.930 . S
C674 C673 1.362 1_455 S
C674 C677 1.409 . S
C675 H667 0.930 . S
C675 C676 1.355 . S
C675 C677 1.415 . S
C676 C675 1.355 . S
C676 C678 1.419 . S
C677 C672 1.425 . S
C677 C674 1.409 . S
C677 C675 1.415 . S
C678 H668 0.930 . S
C678 C676 1.419 . S
C678 C679 1.362 . S
C679 H669 0.930 . S
C679 C672 1.409 . S
C679 C678 1.362 . S
H680 C686 0.930 . S
H681 C689 0.930 . S
H682 C690 0.930 . S
H683 C691 0.930 . S
H684 C694 0.930 . S
H685 C695 0.930 . S
C686 H680 0.930 . S
C686 C687 1.355 . S
C686 C688 1.415 . S
C687 C686 1.355 . S
C687 C689 1.419 . S
C688 C686 1.415 . S
C688 C693 1.425 . S
C688 C695 1.409 . S
C689 H681 0.930 . S
C689 C687 1.419 . S
C689 C690 1.362 . S
C690 H682 0.930 . S
C690 C689 1.362 . S
C690 C693 1.409 . S
C691 H683 0.930 . S
C691 C692 1.355 . S
C691 C693 1.415 . S
C692 C691 1.355 . S
C692 C694 1.419 . S
C693 C688 1.425 . S
C693 C690 1.409 . S
C693 C691 1.415 . S
C694 H684 0.930 . S
C694 C692 1.419 . S
C694 C695 1.362 . S
C695 H685 0.930 . S
C695 C688 1.409 . S
C695 C694 1.362 . S
H696 C702 0.930 . S
H697 C705 0.930 . S
H698 C706 0.930 . S
H699 C707 0.930 . S
H700 C710 0.930 . S
H701 C711 0.930 . S
C702 H696 0.930 . S
C702 C703 1.355 . S
C702 C704 1.415 1_554 S
C703 C702 1.355 . S
C703 C705 1.419 . S
C704 C702 1.415 1_556 S
C704 C709 1.425 1_556 S
C704 C711 1.409 . S
C705 H697 0.930 . S
C705 C703 1.419 . S
C705 C706 1.362 . S
C706 H698 0.930 . S
C706 C705 1.362 . S
C706 C709 1.409 . S
C707 H699 0.930 . S
C707 C708 1.355 . S
C707 C709 1.415 1_556 S
C708 C707 1.355 . S
C708 C710 1.419 . S
C709 C704 1.425 1_554 S
C709 C706 1.409 . S
C709 C707 1.415 1_554 S
C710 H700 0.930 . S
C710 C708 1.419 . S
C710 C711 1.362 . S
C711 H701 0.930 . S
C711 C704 1.409 . S
C711 C710 1.362 . S
H712 C718 0.930 . S
H713 C721 0.930 . S
H714 C722 0.930 . S
H715 C723 0.930 . S
H716 C726 0.930 . S
H717 C727 0.930 . S
C718 H712 0.930 . S
C718 C719 1.355 . S
C718 C720 1.415 . S
C719 C718 1.355 . S
C719 C721 1.419 . S
C720 C718 1.415 . S
C720 C725 1.425 . S
C720 C727 1.409 . S
C721 H713 0.930 . S
C721 C719 1.419 . S
C721 C722 1.362 . S
C722 H714 0.930 . S
C722 C721 1.362 . S
C722 C725 1.409 . S
C723 H715 0.930 . S
C723 C724 1.355 . S
C723 C725 1.415 . S
C724 C723 1.355 . S
C724 C726 1.419 . S
C725 C720 1.425 . S
C725 C722 1.409 . S
C725 C723 1.415 . S
C726 H716 0.930 . S
C726 C724 1.419 . S
C726 C727 1.362 . S
C727 H717 0.930 . S
C727 C720 1.409 . S
C727 C726 1.362 . S
C479 C328 1.579 . S
C484 C33 1.594 . S
C495 C416 1.561 . S
C500 C64 1.580 . S
C511 C170 1.601 . S
C516 C406 1.575 . S
C527 C180 1.583 . S
C532 C241 1.594 . S
C543 C359 1.581 . S
C548 C3 1.590 . S
C559 C111 1.577 . S
C564 C288 1.602 . S
C575 C298 1.592 . S
C580 C123 1.583 . S
C591 C210 1.580 . S
C596 C446 1.593 . S
C607 C239 1.592 . S
C612 C300 1.583 . S
C623 C92 1.592 . S
C628 C151 1.583 . S
C639 C182 1.578 . S
C644 C121 1.587 . S
C655 C229 1.573 . S
C660 C52 1.599 . S
C671 C62 1.592 . S
C676 C5 1.583 . S
C687 C418 1.587 . S
C692 C357 1.564 . S
C703 C269 1.585 . S
C708 C387 1.589 . S
C719 C347 1.596 . S
C724 C465 1.591 . S
