# Generated by pormake.
# Topology smc, (6)-cn, num edge types: 1
# Building blocks:
#     Node 0, Type 0, BuildingBlock: PAMTOO_clean_sbu_0, # of connection points: 6
#     Node 1, Type 0, BuildingBlock: PAMTOO_clean_sbu_0, # of connection points: 6
#     Node 2, Type 0, BuildingBlock: PAMTOO_clean_sbu_0, # of connection points: 6
#     Node 3, Type 0, BuildingBlock: PAMTOO_clean_sbu_0, # of connection points: 6
#     Node 4, Type 0, BuildingBlock: PAMTOO_clean_sbu_0, # of connection points: 6
#     Node 5, Type 0, BuildingBlock: PAMTOO_clean_sbu_0, # of connection points: 6
#     Node 6, Type 0, BuildingBlock: PAMTOO_clean_sbu_0, # of connection points: 6
#     Node 7, Type 0, BuildingBlock: PAMTOO_clean_sbu_0, # of connection points: 6
#     Node 8, Type 0, BuildingBlock: PAMTOO_clean_sbu_0, # of connection points: 6
#     Edge 9, Type (0, 0), BuildingBlock: XUDNAN_clean_linker_2, # of connection points: 2
#     Edge 10, Type (0, 0), BuildingBlock: XUDNAN_clean_linker_2, # of connection points: 2
#     Edge 11, Type (0, 0), BuildingBlock: XUDNAN_clean_linker_2, # of connection points: 2
#     Edge 12, Type (0, 0), BuildingBlock: XUDNAN_clean_linker_2, # of connection points: 2
#     Edge 13, Type (0, 0), BuildingBlock: XUDNAN_clean_linker_2, # of connection points: 2
#     Edge 14, Type (0, 0), BuildingBlock: XUDNAN_clean_linker_2, # of connection points: 2
#     Edge 15, Type (0, 0), BuildingBlock: XUDNAN_clean_linker_2, # of connection points: 2
#     Edge 16, Type (0, 0), BuildingBlock: XUDNAN_clean_linker_2, # of connection points: 2
#     Edge 17, Type (0, 0), BuildingBlock: XUDNAN_clean_linker_2, # of connection points: 2
#     Edge 18, Type (0, 0), BuildingBlock: XUDNAN_clean_linker_2, # of connection points: 2
#     Edge 19, Type (0, 0), BuildingBlock: XUDNAN_clean_linker_2, # of connection points: 2
#     Edge 20, Type (0, 0), BuildingBlock: XUDNAN_clean_linker_2, # of connection points: 2
#     Edge 21, Type (0, 0), BuildingBlock: XUDNAN_clean_linker_2, # of connection points: 2
#     Edge 22, Type (0, 0), BuildingBlock: XUDNAN_clean_linker_2, # of connection points: 2
#     Edge 23, Type (0, 0), BuildingBlock: XUDNAN_clean_linker_2, # of connection points: 2
#     Edge 24, Type (0, 0), BuildingBlock: XUDNAN_clean_linker_2, # of connection points: 2
#     Edge 25, Type (0, 0), BuildingBlock: XUDNAN_clean_linker_2, # of connection points: 2
#     Edge 26, Type (0, 0), BuildingBlock: XUDNAN_clean_linker_2, # of connection points: 2
#     Edge 27, Type (0, 0), BuildingBlock: XUDNAN_clean_linker_2, # of connection points: 2
#     Edge 28, Type (0, 0), BuildingBlock: XUDNAN_clean_linker_2, # of connection points: 2
#     Edge 29, Type (0, 0), BuildingBlock: XUDNAN_clean_linker_2, # of connection points: 2
#     Edge 30, Type (0, 0), BuildingBlock: XUDNAN_clean_linker_2, # of connection points: 2
#     Edge 31, Type (0, 0), BuildingBlock: XUDNAN_clean_linker_2, # of connection points: 2
#     Edge 32, Type (0, 0), BuildingBlock: XUDNAN_clean_linker_2, # of connection points: 2
#     Edge 33, Type (0, 0), BuildingBlock: XUDNAN_clean_linker_2, # of connection points: 2
#     Edge 34, Type (0, 0), BuildingBlock: XUDNAN_clean_linker_2, # of connection points: 2
#     Edge 35, Type (0, 0), BuildingBlock: XUDNAN_clean_linker_2, # of connection points: 2
# Relax obj value: 0.297
# Max RMSD: 0.345
# Mean RMSD: 0.309
data_MOF--net-smc--node1-PAMTOO_clean_sbu_0--edge1-XUDNAN_clean_linker_2
_symmetry_space_group_name_H-M    P1
_symmetry_Int_Tables_number       1
_symmetry_cell_setting            triclinic
loop_
_symmetry_equiv_pos_as_xyz
'x, y, z'
_cell_length_a     43.178662
_cell_length_b     32.967722
_cell_length_c     40.351025
_cell_angle_alpha  90.896281
_cell_angle_beta   90.400937
_cell_angle_gamma 119.85016
loop_
_atom_site_label
_atom_site_type_symbol
_atom_site_fract_x
_atom_site_fract_y
_atom_site_fract_z
_atom_type_partial_charge
Dy0 Dy 0.07136 0.40294 1.00099 0.0
Dy1 Dy 0.04884 0.47781 0.02313 0.0
C2 C 0.09007 0.44569 0.07355 0.0
O3 O 1.01241 0.35925 0.00596 0.0
O4 O 1.00481 0.40945 0.04027 0.0
O5 O 0.08018 0.34524 0.01187 0.0
O6 O 0.09379 0.37791 0.96398 0.0
O7 O 1.01534 0.44575 0.9759 0.0
O8 O 1.04342 0.40748 0.95497 0.0
O9 O 0.09659 0.51984 0.9927 0.0
O10 O 0.12163 0.47465 1.00234 0.0
O11 O 1.03628 0.53271 0.01547 0.0
O12 O 1.03888 0.51042 0.06522 0.0
C13 C 0.99233 0.36853 0.02531 0.0
O14 O 0.07477 0.40589 0.0568 0.0
O15 O 0.09034 0.48224 0.06053 0.0
C16 C 0.13748 0.36941 0.99076 0.0
C17 C 0.20701 0.44531 0.98868 0.0
C18 C 0.18839 0.43428 0.01855 0.0
C19 C 0.15391 0.39626 0.01968 0.0
C20 C 0.15835 0.37538 0.96283 0.0
C21 C 0.19296 0.41344 0.9617 0.0
C22 C 0.09938 0.35286 0.98536 0.0
C23 C 1.01969 0.4213 0.95184 0.0
C24 C 0.12487 0.51523 0.9944 0.0
C25 C 0.99603 0.53227 0.05502 0.0
C26 C 0.93094 0.52549 0.07273 0.0
C27 C 0.9329 0.50192 0.04422 0.0
C28 C 0.96518 0.50488 0.03558 0.0
C29 C 0.99402 0.5553 0.08367 0.0
C30 C 0.96166 0.55182 0.09256 0.0
C31 C 1.03008 0.53532 0.04683 0.0
H32 H 0.19868 0.45772 0.03997 0.0
H33 H 0.13863 0.39233 0.04178 0.0
H34 H 0.14632 0.35492 0.94033 0.0
H35 H 0.20748 0.42015 0.93879 0.0
H36 H 0.90949 0.48135 0.02861 0.0
H37 H 0.96606 0.486 0.01372 0.0
H38 H 1.01755 0.57612 0.0991 0.0
H39 H 0.96091 0.57088 0.11437 0.0
Dy40 Dy 0.63079 0.63531 0.01144 0.0
Dy41 Dy 0.55966 0.59364 0.97956 0.0
C42 C 0.63324 0.63158 0.9337 0.0
O43 O 0.61663 0.69835 0.00927 0.0
O44 O 0.56206 0.66431 0.98449 0.0
O45 O 0.68818 0.6679 0.01167 0.0
O46 O 0.66103 0.66816 0.05644 0.0
O47 O 0.56048 0.61688 0.03481 0.0
O48 O 0.59566 0.59005 0.04984 0.0
O49 O 0.55969 0.52307 0.98582 0.0
O50 O 0.61449 0.55438 0.01044 0.0
O51 O 0.50301 0.54671 0.98358 0.0
O52 O 0.52497 0.58317 0.93769 0.0
C53 C 0.58828 0.7022 0.99847 0.0
O54 O 0.64969 0.63188 0.96086 0.0
O55 O 0.59963 0.6227 0.93557 0.0
C56 C 0.71164 0.65929 0.06138 0.0
C57 C 0.75199 0.61982 0.08388 0.0
C58 C 0.76905 0.66558 0.072 0.0
C59 C 0.74895 0.6853 0.06095 0.0
C60 C 0.69455 0.61435 0.07478 0.0
C61 C 0.71472 0.59486 0.08632 0.0
C62 C 0.69111 0.67648 0.04348 0.0
C63 C 0.57508 0.60564 0.05938 0.0
C64 C 0.58457 0.51566 0.99935 0.0
C65 C 0.47462 0.5831 0.95779 0.0
C66 C 0.43493 0.62944 0.96181 0.0
C67 C 0.46001 0.63629 0.98673 0.0
C68 C 0.4793 0.61291 0.98494 0.0
C69 C 0.45146 0.57842 0.9318 0.0
C70 C 0.43158 0.60119 0.93384 0.0
C71 C 0.4965 0.56069 0.95554 0.0
H72 H 0.79785 0.68516 0.06982 0.0
H73 H 0.76244 0.7198 0.05036 0.0
H74 H 0.66568 0.59352 0.07484 0.0
H75 H 0.70119 0.55931 0.09507 0.0
H76 H 0.46331 0.65767 0.00857 0.0
H77 H 0.49745 0.61755 0.00518 0.0
H78 H 0.44814 0.55634 0.91035 0.0
H79 H 0.41199 0.59416 0.91443 0.0
Dy80 Dy 0.47997 1.03418 1.00385 0.0
Dy81 Dy 0.5556 0.09187 0.03052 0.0
C82 C 0.48708 0.03758 0.0805 0.0
O83 O 0.49484 0.11824 0.00585 0.0
O84 O 0.55392 0.15726 0.02035 0.0
O85 O 0.42343 1.00632 0.01318 0.0
O86 O 0.44041 0.99715 0.96496 0.0
O87 O 0.55411 0.11316 0.97611 0.0
O88 O 0.51056 0.04273 0.95884 0.0
O89 O 0.55352 1.02102 0.02322 0.0
O90 O 0.49697 0.97464 1.00436 0.0
O91 O 0.60678 0.09652 0.03108 0.0
O92 O 0.59773 0.14251 0.06369 0.0
C93 C 0.52569 0.16038 0.01213 0.0
O94 O 0.47245 1.00866 0.05552 0.0
O95 O 0.51815 0.07602 0.0756 0.0
C96 C 0.38657 0.93322 0.98521 0.0
C97 C 0.33503 0.83582 0.98758 0.0
C98 C 0.37036 0.85119 0.97756 0.0
C99 C 0.39573 0.89907 0.97651 0.0
C100 C 0.35139 0.91817 0.99507 0.0
C101 C 0.32598 0.87021 0.99624 0.0
C102 C 0.41342 0.98424 0.98462 0.0
C103 C 0.53417 0.08499 0.95147 0.0
C104 C 0.52871 0.97882 0.01285 0.0
C105 C 0.65754 0.16773 0.04646 0.0
C106 C 0.73134 0.21774 0.03442 0.0
C107 C 0.70652 0.20335 0.00794 0.0
C108 C 0.66987 0.17866 0.0139 0.0
C109 C 0.68216 0.18537 0.073 0.0
C110 C 0.71881 0.21039 0.06706 0.0
C111 C 0.62072 0.13087 0.05283 0.0
H112 H 0.37849 0.82621 0.97018 0.0
H113 H 0.42261 0.90931 0.9689 0.0
H114 H 0.34357 0.9436 1.00213 0.0
H115 H 0.29937 0.86015 1.00457 0.0
H116 H 0.71547 0.2092 0.98255 0.0
H117 H 0.65131 0.16544 0.99302 0.0
H118 H 0.67316 0.17698 0.09827 0.0
H119 H 0.7373 0.2209 0.08795 0.0
Dy120 Dy 0.73732 0.75908 0.33675 0.0
Dy121 Dy 0.67796 0.80537 0.35536 0.0
C122 C 0.72437 0.78351 0.41295 0.0
O123 O 0.6788 0.69454 0.34555 0.0
O124 O 0.64401 0.72949 0.35913 0.0
O125 O 0.79524 0.79879 0.34404 0.0
O126 O 0.77276 0.72931 0.32202 0.0
O127 O 0.67109 0.77888 0.30097 0.0
O128 O 0.70562 0.74339 0.28897 0.0
O129 O 0.73406 0.86244 0.35806 0.0
O130 O 0.75017 0.82898 0.31759 0.0
O131 O 0.66227 0.85655 0.34056 0.0
O132 O 0.63471 0.80964 0.3807 0.0
C133 C 0.64715 0.69252 0.35288 0.0
O134 O 0.73158 0.75857 0.39182 0.0
O135 O 0.70697 0.80603 0.40416 0.0
C136 C 0.84287 0.77916 0.32897 0.0
C137 C 0.92008 0.80252 0.32456 0.0
C138 C 0.90969 0.83647 0.33218 0.0
C139 C 0.87274 0.82524 0.33429 0.0
C140 C 0.85307 0.7452 0.32167 0.0
C141 C 0.88989 0.75629 0.31974 0.0
C142 C 0.80248 0.76769 0.33154 0.0
C143 C 0.68087 0.75457 0.28082 0.0
C144 C 0.75772 0.86481 0.33718 0.0
C145 C 0.60659 0.85422 0.35886 0.0
C146 C 0.55055 0.87928 0.35232 0.0
C147 C 0.54532 0.83505 0.3413 0.0
C148 C 0.57274 0.82281 0.34446 0.0
C149 C 0.61144 0.89765 0.3703 0.0
C150 C 0.58433 0.90975 0.3673 0.0
C151 C 0.63748 0.84413 0.36288 0.0
H152 H 0.93027 0.87253 0.33625 0.0
H153 H 0.86761 0.85353 0.34006 0.0
H154 H 0.83233 0.70919 0.31759 0.0
H155 H 0.89421 0.72725 0.31472 0.0
H156 H 0.52021 0.81002 0.32956 0.0
H157 H 0.5675 0.78887 0.33537 0.0
H158 H 0.63667 0.92281 0.38188 0.0
H159 H 0.59013 0.94351 0.37726 0.0
Dy160 Dy 0.28234 0.97574 0.32048 0.0
Dy161 Dy 0.25421 0.87204 0.3203 0.0
C162 C 0.27469 0.93116 0.38979 0.0
O163 O 0.33395 0.96887 0.32584 0.0
O164 O 0.3094 0.89112 0.33639 0.0
O165 O 0.28809 0.03863 0.34342 0.0
O166 O 0.31309 0.04175 0.29653 0.0
O167 O 0.2933 0.90108 0.27644 0.0
O168 O 0.28512 0.96155 0.26652 0.0
O169 O 0.20148 0.87038 0.31062 0.0
O170 O 0.21938 0.94581 0.32353 0.0
O171 O 0.22561 0.81004 0.28967 0.0
O172 O 0.24358 0.8057 0.33946 0.0
C173 C 0.33791 0.93214 0.33328 0.0
O174 O 0.29595 0.96636 0.37175 0.0
O175 O 0.25039 0.89172 0.3748 0.0
C176 C 0.28789 0.08915 0.3041 0.0
C177 C 0.24891 0.13342 0.2895 0.0
C178 C 0.2838 0.15935 0.30275 0.0
C179 C 0.30317 0.13717 0.31021 0.0
C180 C 0.25455 0.06413 0.28784 0.0
C181 C 0.23508 0.08626 0.2805 0.0
C182 C 0.30447 0.06405 0.31803 0.0
C183 C 0.29937 0.93634 0.25741 0.0
C184 C 0.19244 0.90244 0.31684 0.0
C185 C 0.25626 0.76822 0.29533 0.0
C186 C 0.29486 0.72775 0.26815 0.0
C187 C 0.27722 0.74403 0.24729 0.0
C188 C 0.25726 0.76273 0.26081 0.0
C189 C 0.27917 0.7604 0.31553 0.0
C190 C 0.29894 0.74159 0.30203 0.0
C191 C 0.23413 0.78632 0.30981 0.0
H192 H 0.29493 0.19594 0.30966 0.0
H193 H 0.329 0.1568 0.32255 0.0
H194 H 0.24262 1.02689 0.28287 0.0
H195 H 0.20816 0.06566 0.27052 0.0
H196 H 0.27571 0.73816 0.22074 0.0
H197 H 0.24166 0.77134 0.2442 0.0
H198 H 0.28094 0.76712 0.34204 0.0
H199 H 0.31437 0.73379 0.31928 0.0
Dy200 Dy 0.1031 0.37733 0.36198 0.0
Dy201 Dy 0.19538 0.42698 0.38127 0.0
C202 C 0.12856 0.37034 0.43117 0.0
O203 O 0.12321 0.45376 0.37032 0.0
O204 O 0.17258 0.47001 0.3992 0.0
O205 O 0.05143 0.34759 0.38515 0.0
O206 O 0.05563 0.35049 0.3316 0.0
O207 O 0.18824 0.43402 0.32427 0.0
O208 O 0.12705 0.40178 0.31361 0.0
O209 O 0.17398 0.35192 0.36785 0.0
O210 O 0.11947 0.32823 0.34051 0.0
O211 O 0.24962 0.48496 0.37526 0.0
O212 O 0.24155 0.42721 0.40561 0.0
C213 C 0.15635 0.48381 0.37875 0.0
O214 O 0.11702 0.3467 0.40355 0.0
O215 O 0.16095 0.40837 0.43004 0.0
C216 C 1.00751 0.28245 0.35331 0.0
C217 C 0.95976 0.18541 0.34639 0.0
C218 C 0.96818 0.2073 0.37794 0.0
C219 C 0.99185 0.25541 0.38137 0.0
C220 C 0.9982 0.2606 0.32174 0.0
C221 C 0.97476 0.21264 0.31835 0.0
C222 C 1.03443 0.33272 0.35666 0.0
C223 C 0.16013 0.42131 0.30359 0.0
C224 C 0.14658 0.32249 0.34891 0.0
C225 C 0.30415 0.48054 0.38759 0.0
C226 C 0.3809 0.51439 0.38054 0.0
C227 C 0.35904 0.51298 0.35355 0.0
C228 C 0.32163 0.49626 0.35695 0.0
C229 C 0.3259 0.48187 0.41438 0.0
C230 C 0.36301 0.49814 0.411 0.0
C231 C 0.26508 0.46762 0.39364 0.0
H232 H 0.95697 0.18712 0.4 0.0
H233 H 0.99822 0.27125 0.406 0.0
H234 H 1.00935 0.28045 0.29953 0.0
H235 H 0.96814 0.19691 0.29368 0.0
H236 H 0.37072 0.52435 0.32944 0.0
H237 H 0.30641 0.49584 0.33544 0.0
H238 H 0.31424 0.47109 0.43859 0.0
H239 H 0.37786 0.49892 0.43293 0.0
Dy240 Dy 0.39971 0.05133 0.67348 0.0
Dy241 Dy 0.37962 0.13051 0.68468 0.0
C242 C 0.42083 0.10665 0.74241 0.0
O243 O 0.33939 1.01213 0.6791 0.0
O244 O 0.33677 0.06906 0.70989 0.0
O245 O 0.40218 0.9906 0.68988 0.0
O246 O 0.42172 1.01928 0.64172 0.0
O247 O 0.34594 0.08612 0.63989 0.0
O248 O 0.38583 0.06473 0.62286 0.0
O249 O 0.42934 0.164 0.65561 0.0
O250 O 0.45218 0.12147 0.67704 0.0
O251 O 0.37471 0.18752 0.6652 0.0
O252 O 0.36459 0.17037 0.71709 0.0
C253 C 0.32194 1.02579 0.69884 0.0
O254 O 0.40676 0.06511 0.72819 0.0
O255 O 0.41837 0.14036 0.72734 0.0
C256 C 0.46016 1.00739 0.67505 0.0
C257 C 0.52881 0.08476 0.67669 0.0
C258 C 0.50837 0.07247 0.70546 0.0
C259 C 0.47427 1.03335 0.70482 0.0
C260 C 0.48358 1.01362 0.64919 0.0
C261 C 0.51773 0.05278 0.64977 0.0
C262 C 0.42333 0.99427 0.66571 0.0
C263 C 0.35758 0.06844 0.61663 0.0
C264 C 0.45719 0.16115 0.66469 0.0
C265 C 0.33266 0.20194 0.69136 0.0
C266 C 0.27415 0.2166 0.68643 0.0
C267 C 0.2728 0.17721 0.67099 0.0
C268 C 0.30187 0.1698 0.67356 0.0
C269 C 0.33389 0.24079 0.70717 0.0
C270 C 0.30482 0.24807 0.7048 0.0
C271 C 0.36401 0.19612 0.69321 0.0
H272 H 0.51668 0.09596 0.72689 0.0
H273 H 0.45722 1.0285 0.7257 0.0
H274 H 0.47358 0.99344 0.62625 0.0
H275 H 0.53381 0.06073 0.62777 0.0
H276 H 0.24929 0.1522 0.65699 0.0
H277 H 0.30049 0.13938 0.66142 0.0
H278 H 0.35755 0.26584 0.72101 0.0
H279 H 0.30667 0.27895 0.71664 0.0
Dy280 Dy 0.946 0.30178 0.69333 0.0
Dy281 Dy 0.8764 0.26179 0.65986 0.0
C282 C 0.95009 0.29283 0.61565 0.0
O283 O 0.92995 0.36414 0.69609 0.0
O284 O 0.8887 0.33669 0.65504 0.0
O285 O 1.00126 0.35591 0.6987 0.0
O286 O 0.977 0.30515 0.73677 0.0
O287 O 0.87593 0.28724 0.71442 0.0
O288 O 0.90779 0.25652 0.7298 0.0
O289 O 0.87251 0.19121 0.6705 0.0
O290 O 0.93077 0.22032 0.68398 0.0
O291 O 0.8194 0.21802 0.66375 0.0
O292 O 0.8424 0.25465 0.61818 0.0
C293 C 0.90738 0.37115 0.67631 0.0
O294 O 0.96816 0.31098 0.64295 0.0
O295 O 0.91451 0.26882 0.61667 0.0
C296 C 1.0341 0.3238 0.71991 0.0
C297 C 0.08721 0.30135 0.70465 0.0
C298 C 0.0528 0.27512 0.69066 0.0
C299 C 1.0266 0.28638 0.69812 0.0
C300 C 0.06808 0.34955 0.73468 0.0
C301 C 0.09456 0.33826 0.72717 0.0
C302 C 1.0068 0.33716 0.7245 0.0
C303 C 0.88908 0.27469 0.73935 0.0
C304 C 0.89822 0.18194 0.67782 0.0
C305 C 0.79217 0.25552 0.63772 0.0
C306 C 0.74932 0.29705 0.64369 0.0
C307 C 0.77746 0.30884 0.66638 0.0
C308 C 0.79851 0.28789 0.66358 0.0
C309 C 0.7662 0.24662 0.61348 0.0
C310 C 0.74485 0.26718 0.61643 0.0
C311 C 0.81363 0.23258 0.63566 0.0
H312 H 0.04613 0.24597 0.67375 0.0
H313 H 1.00058 0.26641 0.68626 0.0
H314 H 0.07429 0.3788 0.75134 0.0
H315 H 0.12095 0.35911 0.7382 0.0
H316 H 0.78161 0.33179 0.68751 0.0
H317 H 0.81919 0.2961 0.68211 0.0
H318 H 0.7615 0.2224 0.59305 0.0
H319 H 0.72302 0.25659 0.59878 0.0
Dy320 Dy 0.79595 0.70047 0.67899 0.0
Dy321 Dy 0.87633 0.76384 0.69503 0.0
C322 C 0.81481 0.71927 0.75248 0.0
O323 O 0.80978 0.78346 0.68077 0.0
O324 O 0.8695 0.82754 0.69458 0.0
O325 O 0.74136 0.66879 0.69658 0.0
O326 O 0.75094 0.65713 0.64602 0.0
O327 O 0.86341 0.78119 0.64253 0.0
O328 O 0.81723 0.71053 0.62854 0.0
O329 O 0.87312 0.69046 0.6937 0.0
O330 O 0.8155 0.64481 0.67674 0.0
O331 O 0.92933 0.79393 0.67452 0.0
O332 O 0.92279 0.79766 0.72829 0.0
C333 C 0.83954 0.82692 0.68695 0.0
O334 O 0.8008 0.68443 0.73138 0.0
O335 O 0.84326 0.75814 0.74236 0.0
C336 C 0.7022 0.59235 0.67194 0.0
C337 C 0.6544 0.49311 0.67486 0.0
C338 C 0.67694 0.51878 0.70204 0.0
C339 C 0.70046 0.56747 0.70059 0.0
C340 C 0.67961 0.56703 0.64493 0.0
C341 C 0.65618 0.51837 0.64631 0.0
C342 C 0.72746 0.64409 0.66937 0.0
C343 C 0.83957 0.75284 0.61995 0.0
C344 C 0.84696 0.64809 0.68465 0.0
C345 C 0.98436 0.83189 0.70816 0.0
C346 C 0.05989 0.87213 0.71485 0.0
C347 C 1.04416 0.8755 0.68503 0.0
C348 C 1.00692 0.85537 0.68168 0.0
C349 C 0.99987 0.82899 0.73804 0.0
C350 C 1.03699 0.84843 0.74127 0.0
C351 C 0.94481 0.80686 0.70371 0.0
H352 H 0.67628 0.5014 0.72477 0.0
H353 H 0.71735 0.58557 0.72196 0.0
H354 H 0.68028 0.58494 0.62243 0.0
H355 H 0.63994 0.50048 0.62459 0.0
H356 H 0.06056 0.89396 0.66424 0.0
H357 H 0.99577 0.85803 0.65823 0.0
H358 H 0.98321 0.81035 0.75869 0.0
H359 H 0.04756 0.84383 0.76442 0.0
H360 H 0.40251 0.62198 0.02005 0.0
H361 H 0.40204 0.66023 0.91812 0.0
H362 H 0.33865 0.63676 0.9222 0.0
H363 H 0.34292 0.52627 0.01601 0.0
H364 H 0.31856 0.51796 0.05378 0.0
H365 H 0.36432 0.56226 0.05249 0.0
H366 H 0.34953 0.62634 0.06975 0.0
H367 H 0.30329 0.58157 0.07292 0.0
H368 H 0.31539 0.63165 0.04761 0.0
H369 H 0.2766 0.57771 0.92684 0.0
H370 H 0.22262 0.50176 0.93519 0.0
H371 H 0.26168 0.49488 0.03294 0.0
C372 C 0.38975 0.62873 0.99941 0.0
C373 C 0.4066 0.64122 0.96847 0.0
C374 C 0.38921 0.64957 0.94188 0.0
C375 C 0.35313 0.63645 0.9441 0.0
C376 C 0.33531 0.61591 0.97322 0.0
C377 C 0.35345 0.6141 1.00119 0.0
C378 C 0.32794 0.58002 0.02607 0.0
C379 C 0.33911 0.54456 0.03764 0.0
C380 C 0.32378 0.60648 0.05583 0.0
C381 C 0.29418 0.5568 0.0052 0.0
C382 C 0.29833 0.57971 0.97569 0.0
C383 C 0.2727 0.56047 0.95029 0.0
C384 C 0.24252 0.51673 0.95493 0.0
C385 C 0.23846 0.49218 0.98454 0.0
C386 C 0.26408 0.51324 0.01026 0.0
H387 H 0.49354 0.87662 0.98918 0.0
H388 H 0.59169 0.98569 0.03499 0.0
H389 H 0.61542 0.93209 0.03615 0.0
H390 H 0.4921 0.77727 0.03525 0.0
H391 H 0.47546 0.73693 1.00032 0.0
H392 H 0.46531 0.78358 1.00348 0.0
H393 H 0.49161 0.81022 0.94541 0.0
H394 H 0.50241 0.76398 0.94302 0.0
H395 H 0.53685 0.82388 0.93775 0.0
H396 H 0.63171 0.8634 0.03309 0.0
H397 H 0.63644 0.79194 0.02565 0.0
H398 H 0.53041 0.72127 0.98115 0.0
C399 C 0.52006 0.88973 0.99962 0.0
C400 C 0.53986 0.93832 0.01213 0.0
C401 C 0.57462 0.95067 0.02506 0.0
C402 C 0.58889 0.91956 0.0259 0.0
C403 C 0.56921 0.87323 0.01365 0.0
C404 C 0.5353 0.85813 1.00061 0.0
C405 C 0.52021 0.80591 0.98903 0.0
C406 C 0.48624 0.77402 0.00816 0.0
C407 C 0.51228 0.80068 0.95157 0.0
C408 C 0.55055 0.79437 0.99742 0.0
C409 C 0.5786 0.83416 0.01175 0.0
C410 C 0.60951 0.83256 0.02177 0.0
C411 C 0.61214 0.79083 0.01733 0.0
C412 C 0.58439 0.7484 1.0026 0.0
C413 C 0.55291 0.75159 0.99258 0.0
H414 H 0.26203 0.78978 0.97332 0.0
H415 H 0.3466 0.7642 0.00638 0.0
H416 H 0.30315 0.67994 0.00916 0.0
H417 H 0.19386 0.70571 0.02616 0.0
H418 H 0.15852 0.68823 0.99569 0.0
H419 H 0.19651 0.74648 0.99551 0.0
H420 H 0.20797 0.7338 0.93431 0.0
H421 H 0.17014 0.67539 0.93438 0.0
H422 H 0.21349 0.68462 0.92316 0.0
H423 H 0.24909 0.59806 0.01212 0.0
H424 H 0.19041 0.52536 0.01047 0.0
H425 H 0.14091 0.60369 0.97537 0.0
C426 C 0.27151 0.76668 0.98145 0.0
C427 C 0.30816 0.78433 0.98948 0.0
C428 C 0.31904 0.75212 0.99952 0.0
C429 C 0.2944 0.70396 1.00149 0.0
C430 C 0.25862 0.68796 0.9935 0.0
C431 C 0.24721 0.71837 0.98359 0.0
C432 C 0.20722 0.69214 0.97639 0.0
C433 C 0.18789 0.70915 0.99984 0.0
C434 C 0.19925 0.69677 0.93989 0.0
C435 C 0.19791 0.64229 0.98382 0.0
C436 C 0.22791 0.64063 0.99381 0.0
C437 C 0.22566 0.59874 1.00335 0.0
C438 C 0.19212 0.55749 1.00231 0.0
C439 C 0.1609 0.55816 0.99214 0.0
C440 C 0.16417 0.60146 0.98274 0.0
H441 H 0.49064 0.21528 0.98281 0.0
H442 H 0.5819 0.23636 0.04238 0.0
H443 H 0.60431 0.31999 0.04414 0.0
H444 H 0.53964 0.32601 0.93579 0.0
H445 H 0.50464 0.34071 0.93613 0.0
H446 H 0.49367 0.2804 0.93849 0.0
H447 H 0.45959 0.27196 0.99233 0.0
H448 H 0.47043 0.33223 0.99008 0.0
H449 H 0.48203 0.31182 0.02673 0.0
H450 H 0.62144 0.40868 0.03972 0.0
H451 H 0.62767 0.48639 0.03131 0.0
H452 H 0.52718 0.42035 0.97645 0.0
C453 C 0.5152 0.23691 0.99662 0.0
C454 C 0.53361 0.21449 0.01237 0.0
C455 C 0.56594 0.24822 0.02943 0.0
C456 C 0.57953 0.2977 0.03079 0.0
C457 C 0.56156 0.31796 0.01519 0.0
C458 C 0.52969 0.28855 0.99853 0.0
C459 C 0.51619 0.32141 0.98441 0.0
C460 C 0.51333 0.31684 0.94644 0.0
C461 C 0.47987 0.30857 0.99924 0.0
C462 C 0.54514 0.37276 0.99549 0.0
C463 C 0.57112 0.36924 0.01323 0.0
C464 C 0.60078 0.41086 0.02587 0.0
C465 C 0.60427 0.45614 0.02082 0.0
C466 C 0.57858 0.46314 1.00308 0.0
C467 C 0.54818 0.41899 0.99028 0.0
H468 H 0.79 0.29248 0.06428 0.0
H469 H 0.75901 0.18062 0.99095 0.0
H470 H 0.82234 0.20413 0.98322 0.0
H471 H 0.87007 0.37762 0.02288 0.0
H472 H 0.89466 0.40162 0.06122 0.0
H473 H 0.84686 0.37598 0.06026 0.0
H474 H 0.84283 0.32088 0.10737 0.0
H475 H 0.89064 0.34594 0.10758 0.0
H476 H 0.86207 0.28372 0.10158 0.0
H477 H 0.88869 0.23844 0.98421 0.0
H478 H 0.95421 0.28656 0.98958 0.0
H479 H 0.94225 0.3765 0.06205 0.0
C480 C 0.79663 0.27311 0.04653 0.0
C481 C 0.76963 0.23489 0.02808 0.0
C482 C 0.7793 0.21048 1.00496 0.0
C483 C 0.81515 0.22325 1.00063 0.0
C484 C 0.84106 0.26063 0.01952 0.0
C485 C 0.83235 0.28564 0.04168 0.0
C486 C 0.86549 0.32509 0.05828 0.0
C487 C 0.86948 0.37289 0.05014 0.0
C488 C 0.86523 0.31848 0.09594 0.0
C489 C 0.89413 0.31833 0.04192 0.0
C490 C 0.87944 0.28067 0.0199 0.0
C491 C 0.90056 0.268 1.00142 0.0
C492 C 0.93778 0.2954 1.00482 0.0
C493 C 0.95348 0.33521 0.02636 0.0
C494 C 0.93118 0.34609 0.04558 0.0
H495 H 0.8914 0.54446 0.03007 0.0
H496 H 0.89757 0.51107 0.13249 0.0
H497 H 0.84694 0.52348 0.14588 0.0
H498 H 0.87877 0.63692 0.04664 0.0
H499 H 0.84862 0.62662 0.01232 0.0
H500 H 0.88055 0.6069 0.00959 0.0
H501 H 0.82967 0.52218 0.99687 0.0
H502 H 0.79748 0.54175 0.99912 0.0
H503 H 0.79268 0.49469 0.0247 0.0
H504 H 0.79962 0.54735 0.14882 0.0
H505 H 0.76121 0.5831 0.14114 0.0
H506 H 0.78909 0.6036 0.03746 0.0
C507 C 0.88124 0.53814 0.05505 0.0
C508 C 0.89787 0.52627 0.0802 0.0
C509 C 0.88487 0.51997 0.11291 0.0
C510 C 0.8561 0.52671 0.12066 0.0
C511 C 0.84087 0.53974 0.09538 0.0
C512 C 0.85297 0.54522 0.0632 0.0
C513 C 0.83498 0.56433 0.04129 0.0
C514 C 0.86237 0.61148 0.02663 0.0
C515 C 0.81235 0.52859 0.01388 0.0
C516 C 0.81175 0.57032 0.06638 0.0
C517 C 0.81483 0.55508 0.09731 0.0
C518 C 0.79673 0.55896 0.12464 0.0
C519 C 0.77517 0.5793 0.12017 0.0
C520 C 0.77276 0.59615 0.08885 0.0
C521 C 0.79086 0.59106 0.06167 0.0
H522 H 0.99018 0.88346 0.34552 0.0
H523 H 0.94659 0.74925 0.29357 0.0
H524 H 1.00677 0.76158 0.28748 0.0
H525 H 0.07182 0.94357 0.29394 0.0
H526 H 0.10145 0.97787 0.3276 0.0
H527 H 0.0546 0.95982 0.32919 0.0
H528 H 0.0501 0.92117 0.38528 0.0
H529 H 0.09694 0.93915 0.38386 0.0
H530 H 0.06425 0.87833 0.38868 0.0
H531 H 0.07385 0.78661 0.28612 0.0
H532 H 0.13873 0.82115 0.2893 0.0
H533 H 0.14757 0.94333 0.34054 0.0
C534 C 0.99285 0.8563 0.33278 0.0
C535 C 0.96074 0.81402 0.32087 0.0
C536 C 0.96815 0.78113 0.3043 0.0
C537 C 1.00332 0.78814 0.30026 0.0
C538 C 1.03343 0.82901 0.31238 0.0
C539 C 1.02878 0.86294 0.32828 0.0
C540 C 0.06675 0.9039 0.33852 0.0
C541 C 0.07409 0.94899 0.32131 0.0
C542 C 0.06968 0.91109 0.37634 0.0
C543 C 0.09312 0.88757 0.32615 0.0
C544 C 0.07264 0.84399 0.31113 0.0
C545 C 0.08964 0.82073 0.29788 0.0
C546 C 0.12751 0.84127 0.29991 0.0
C547 C 0.15078 0.88603 0.31505 0.0
C548 C 0.13224 0.90945 0.32835 0.0
H549 H 0.17442 0.2768 0.3807 0.0
H550 H 0.12154 0.27665 0.289 0.0
H551 H 0.13528 0.21793 0.26466 0.0
H552 H 0.24543 0.28049 0.34613 0.0
H553 H 0.25138 0.24387 0.3752 0.0
H554 H 0.22984 0.27596 0.38799 0.0
H555 H 0.17392 0.19942 0.40577 0.0
H556 H 0.19565 0.16696 0.39381 0.0
H557 H 0.15228 0.15087 0.37667 0.0
H558 H 0.16486 0.17066 0.24776 0.0
H559 H 0.20472 0.13675 0.2412 0.0
H560 H 0.23826 0.17159 0.34412 0.0
C561 C 0.1647 0.26322 0.35585 0.0
C562 C 0.1471 0.28091 0.33658 0.0
C563 C 0.13482 0.26283 0.30415 0.0
C564 C 0.14255 0.22966 0.29019 0.0
C565 C 0.16192 0.21481 0.30936 0.0
C566 C 0.1722 0.23052 0.34177 0.0
C567 C 0.19645 0.21442 0.35606 0.0
C568 C 0.2329 0.25617 0.36695 0.0
C569 C 0.17848 0.1809 0.38477 0.0
C570 C 0.19978 0.18916 0.32618 0.0
C571 C 0.17931 0.18878 0.29956 0.0
C572 C 0.18051 0.17006 0.26862 0.0
C573 C 0.20328 0.1513 0.265 0.0
C574 C 0.22481 0.15264 0.29203 0.0
C575 C 0.22246 0.17101 0.32294 0.0
H576 H 0.89598 0.13294 0.37709 0.0
H577 H 0.96732 0.12314 0.30635 0.0
H578 H 0.92398 0.03915 0.29698 0.0
H579 H 0.86309 1.01743 0.4125 0.0
H580 H 0.81848 1.00794 0.41704 0.0
H581 H 0.85614 0.06647 0.41937 0.0
H582 H 0.82781 0.09101 0.37252 0.0
H583 H 0.79025 1.0325 0.36985 0.0
H584 H 0.8159 0.05915 0.33346 0.0
H585 H 0.87154 0.95686 0.29375 0.0
H586 H 0.81436 0.88253 0.29755 0.0
H587 H 0.77807 0.94727 0.37046 0.0
C588 C 0.90277 0.11293 0.36009 0.0
C589 C 0.93494 0.13445 0.34243 0.0
C590 C 0.9426 0.10733 0.31989 0.0
C591 C 0.91827 0.05962 0.31453 0.0
C592 C 0.88649 0.03964 0.33196 0.0
C593 C 0.87879 0.0654 0.35439 0.0
C594 C 0.84229 1.03609 0.36909 0.0
C595 C 0.84519 1.03172 0.40673 0.0
C596 C 0.81762 0.05587 0.36071 0.0
C597 C 0.83047 0.98999 0.35111 0.0
C598 C 0.85634 0.99258 0.32992 0.0
C599 C 0.8511 0.95439 0.31033 0.0
C600 C 0.81851 0.91242 0.31254 0.0
C601 C 0.79168 0.90919 0.33413 0.0
C602 C 0.79796 0.94857 0.35364 0.0
H603 H 0.33042 0.68503 0.29844 0.0
H604 H 0.2647 0.66602 0.21236 0.0
H605 H 0.21847 0.59083 0.23261 0.0
H606 H 0.28932 0.55078 0.31866 0.0
H607 H 0.29618 0.56934 0.36184 0.0
H608 H 0.32701 0.60623 0.33135 0.0
H609 H 0.31481 0.67106 0.35564 0.0
H610 H 0.28038 0.63067 0.38207 0.0
H611 H 0.2702 0.66252 0.35221 0.0
H612 H 0.17126 0.54397 0.27277 0.0
H613 H 0.13359 0.4987 0.3188 0.0
H614 H 0.22816 0.54733 0.38156 0.0
C615 C 0.30677 0.66409 0.28326 0.0
C616 C 0.29693 0.68504 0.25802 0.0
C617 C 0.26996 0.65383 0.23529 0.0
C618 C 0.24318 0.61074 0.24661 0.0
C619 C 0.24749 0.59787 0.27825 0.0
C620 C 0.2796 0.62197 0.29557 0.0
C621 C 0.27593 0.605 0.3308 0.0
C622 C 0.29837 0.58129 0.33597 0.0
C623 C 0.28594 0.64473 0.35662 0.0
C624 C 0.23625 0.57024 0.33111 0.0
C625 C 0.22038 0.56731 0.30067 0.0
C626 C 0.18344 0.54372 0.29624 0.0
C627 C 0.16224 0.51873 0.32276 0.0
C628 C 0.1781 0.51764 0.35336 0.0
C629 C 0.21547 0.5455 0.35792 0.0
H630 H 0.43377 0.58358 0.33927 0.0
H631 H 0.42234 0.48498 0.41472 0.0
H632 H 0.48684 0.513 0.41261 0.0
H633 H 0.50189 0.5738 0.29111 0.0
H634 H 0.5263 0.63507 0.2816 0.0
H635 H 0.47888 0.60669 0.28834 0.0
H636 H 0.48898 0.66791 0.33428 0.0
H637 H 0.53628 0.69664 0.32724 0.0
H638 H 0.51946 0.67754 0.36818 0.0
H639 H 0.55718 0.55657 0.40386 0.0
H640 H 0.62097 0.61126 0.39104 0.0
H641 H 0.587 0.67845 0.31971 0.0
C642 C 0.44449 0.56727 0.35519 0.0
C643 C 0.4215 0.53164 0.37749 0.0
C644 C 0.43816 0.51263 0.39781 0.0
C645 C 0.47534 0.52823 0.39659 0.0
C646 C 0.497 0.56338 0.37471 0.0
C647 C 0.48196 0.58263 0.35432 0.0
C648 C 0.51126 0.62093 0.33362 0.0
C649 C 0.50414 0.60836 0.29646 0.0
C650 C 0.51416 0.66856 0.34129 0.0
C651 C 0.54492 0.62037 0.34548 0.0
C652 C 0.53635 0.58692 0.36921 0.0
C653 C 0.56372 0.58224 0.38483 0.0
C654 C 0.60029 0.61312 0.37696 0.0
C655 C 0.61003 0.64865 0.35323 0.0
C656 C 0.58116 0.65086 0.33704 0.0
H657 H 0.35271 0.85897 0.34055 0.0
H658 H 0.40684 1.00969 0.33127 0.0
H659 H 0.46516 1.012 0.33441 0.0
H660 H 0.41482 0.85326 0.39814 0.0
H661 H 0.41189 0.80142 0.37943 0.0
H662 H 0.37459 0.81143 0.37628 0.0
H663 H 0.37489 0.8048 0.31228 0.0
H664 H 0.41155 0.79355 0.31558 0.0
H665 H 0.41555 0.84069 0.29053 0.0
H666 H 0.51913 0.9972 0.33816 0.0
H667 H 0.56183 0.96887 0.34272 0.0
H668 H 0.47393 0.82659 0.35052 0.0
C669 C 0.37675 0.89276 0.33935 0.0
C670 C 0.37436 0.93447 0.33593 0.0
C671 C 0.40712 0.97727 0.33409 0.0
C672 C 0.44065 0.97881 0.3358 0.0
C673 C 0.44184 0.9372 0.33918 0.0
C674 C 0.41057 0.89487 0.34084 0.0
C675 C 0.41914 0.85504 0.34406 0.0
C676 C 0.40422 0.82873 0.37641 0.0
C677 C 0.40441 0.82151 0.31382 0.0
C678 C 0.46014 0.88138 0.34466 0.0
C679 C 0.47258 0.92876 0.34155 0.0
C680 C 0.5093 0.96019 0.34095 0.0
C681 C 0.5337 0.94341 0.34392 0.0
C682 C 0.52235 0.89505 0.34783 0.0
C683 C 0.48444 0.86374 0.34772 0.0
H684 H 0.71959 0.28367 0.70364 0.0
H685 H 0.70985 0.32204 0.6038 0.0
H686 H 0.64526 0.28786 0.61067 0.0
H687 H 0.66619 0.18352 0.69791 0.0
H688 H 0.64321 0.1694 0.73683 0.0
H689 H 0.687 0.21888 0.73477 0.0
H690 H 0.66545 0.27361 0.75714 0.0
H691 H 0.62085 0.22447 0.76055 0.0
H692 H 0.62843 0.27496 0.73758 0.0
H693 H 0.58688 0.22041 0.61574 0.0
H694 H 0.53821 0.14007 0.6241 0.0
H695 H 0.58327 0.13912 0.72011 0.0
C696 C 0.70417 0.2881 0.68425 0.0
C697 C 0.71921 0.30405 0.65292 0.0
C698 C 0.69854 0.30921 0.62786 0.0
C699 C 0.66171 0.28972 0.63163 0.0
C700 C 0.64645 0.26602 0.66073 0.0
C701 C 0.66723 0.26704 0.68748 0.0
C702 C 0.6451 0.22971 0.71222 0.0
C703 C 0.66135 0.19859 0.72082 0.0
C704 C 0.63959 0.252 0.74372 0.0
C705 C 0.61064 0.20278 0.69259 0.0
C706 C 0.61141 0.22535 0.66368 0.0
C707 C 0.58547 0.2033 0.6388 0.0
C708 C 0.55838 0.15726 0.64342 0.0
C709 C 0.55757 0.13345 0.67257 0.0
C710 C 0.58334 0.157 0.69781 0.0
H711 H 0.93769 0.46903 0.70977 0.0
H712 H 0.85293 0.37309 0.64252 0.0
H713 H 0.82975 0.42668 0.63999 0.0
H714 H 0.8859 0.51719 0.75275 0.0
H715 H 0.92132 0.57732 0.75406 0.0
H716 H 0.93183 0.53075 0.75322 0.0
H717 H 0.96998 0.56562 0.70153 0.0
H718 H 0.95959 0.6123 0.70226 0.0
H719 H 0.95036 0.57616 0.66545 0.0
H720 H 0.81148 0.49216 0.64454 0.0
H721 H 0.80519 0.56212 0.65192 0.0
H722 H 0.90277 0.62782 0.71119 0.0
C723 C 0.91415 0.4587 0.69448 0.0
C724 C 0.89742 0.41293 0.67707 0.0
C725 C 0.86697 0.40491 0.6573 0.0
C726 C 0.85315 0.43631 0.65534 0.0
C727 C 0.86961 0.47956 0.67247 0.0
C728 C 0.90002 0.4915 0.69135 0.0
C729 C 0.913 0.54222 0.70566 0.0
C730 C 0.91305 0.54187 0.74369 0.0
C731 C 0.95048 0.5761 0.693 0.0
C732 C 0.88528 0.55616 0.69229 0.0
C733 C 0.86027 0.5186 0.67342 0.0
C734 C 0.83147 0.5215 0.65913 0.0
C735 C 0.82795 0.56242 0.6636 0.0
C736 C 0.85298 0.60331 0.68202 0.0
C737 C 0.88247 0.59887 0.69656 0.0
H738 H 0.58706 0.43789 0.64507 0.0
H739 H 0.6652 0.42742 0.70719 0.0
H740 H 0.62496 0.34218 0.71015 0.0
H741 H 0.50893 0.35066 0.68525 0.0
H742 H 0.48305 0.32796 0.64741 0.0
H743 H 0.51802 0.38819 0.65032 0.0
H744 H 0.54762 0.37587 0.59844 0.0
H745 H 0.51276 0.31554 0.59544 0.0
H746 H 0.55885 0.33001 0.59792 0.0
H747 H 0.57306 0.25647 0.70918 0.0
H748 H 0.518 0.17985 0.70036 0.0
H749 H 0.47561 0.24556 0.63624 0.0
C750 C 0.5961 0.4179 0.65908 0.0
C751 C 0.62969 0.4405 0.67614 0.0
C752 C 0.63958 0.41202 0.69443 0.0
C753 C 0.61687 0.36314 0.6961 0.0
C754 C 0.58401 0.34232 0.67924 0.0
C755 C 0.5738 0.3689 0.66086 0.0
C756 C 0.53713 0.33808 0.64493 0.0
C757 C 0.5102 0.35206 0.65774 0.0
C758 C 0.53923 0.34 0.60692 0.0
C759 C 0.52829 0.29006 0.65709 0.0
C760 C 0.55548 0.29316 0.67711 0.0
C761 C 0.5522 0.25363 0.69272 0.0
C762 C 0.52077 0.20998 0.68744 0.0
C763 C 0.49259 0.20582 0.66682 0.0
C764 C 0.49681 0.24682 0.65151 0.0
H765 H 0.89871 0.9224 0.69814 0.0
H766 H 0.78689 0.85195 0.6692 0.0
H767 H 0.79086 0.92941 0.66427 0.0
H768 H 0.89962 1.0199 0.74663 0.0
H769 H 0.94335 0.06387 0.73377 0.0
H770 H 0.93219 1.00343 0.73515 0.0
H771 H 0.94926 1.0059 0.67396 0.0
H772 H 0.96044 0.06634 0.67237 0.0
H773 H 0.92843 1.02402 0.6432 0.0
H774 H 0.80772 1.02072 0.66206 0.0
H775 H 0.83228 0.10544 0.66289 0.0
H776 H 0.9356 0.12554 0.6934 0.0
C777 C 0.87464 0.9226 0.69082 0.0
C778 C 0.84188 0.87755 0.68436 0.0
C779 C 0.81226 0.88302 0.67471 0.0
C780 C 0.81447 0.92815 0.67175 0.0
C781 C 0.84673 0.97083 0.67829 0.0
C782 C 0.87648 0.96825 0.68772 0.0
C783 C 0.90807 1.01978 0.69326 0.0
C784 C 0.92164 1.02719 0.72935 0.0
C785 C 0.93838 1.0296 0.66929 0.0
C786 C 0.89194 0.0521 0.68565 0.0
C787 C 0.85632 1.02242 0.67702 0.0
C788 C 0.83556 0.04303 0.66889 0.0
C789 C 0.85039 0.09298 0.66948 0.0
C790 C 0.88685 0.12656 0.67813 0.0
C791 C 0.90775 0.10384 0.68641 0.0
H792 H 0.1101 0.88287 0.66721 0.0
H793 H 0.10116 0.91155 0.77119 0.0
H794 H 0.1658 0.94481 0.77874 0.0
H795 H 0.1813 0.85516 0.67657 0.0
H796 H 0.20416 0.88498 0.63973 0.0
H797 H 0.15645 0.86001 0.64226 0.0
H798 H 0.16262 0.94046 0.62961 0.0
H799 H 0.21025 0.9654 0.62665 0.0
H800 H 0.19218 0.99081 0.65496 0.0
H801 H 0.23146 0.97856 0.77534 0.0
H802 H 0.29484 1.016 0.76002 0.0
H803 H 0.26381 0.96858 0.65811 0.0
C804 C 0.1216 0.89621 0.6916 0.0
C805 C 0.09977 0.89343 0.71874 0.0
C806 C 0.11651 0.91154 0.75012 0.0
C807 C 0.15349 0.93092 0.75468 0.0
C808 C 0.17393 0.93259 0.72764 0.0
C809 C 0.15877 0.91624 0.6966 0.0
C810 C 0.18744 0.92487 0.67139 0.0
C811 C 0.182 0.87848 0.65662 0.0
C812 C 0.18816 0.95732 0.64404 0.0
C813 C 0.22103 0.94892 0.69315 0.0
C814 C 0.21237 0.95256 0.72558 0.0
C815 C 0.23853 0.97545 0.75013 0.0
C816 C 0.27449 0.99641 0.74123 0.0
C817 C 0.28427 0.99427 0.70812 0.0
C818 C 0.25712 0.96937 0.68384 0.0
H819 H 0.24342 0.24313 0.73484 0.0
H820 H 0.23779 0.21146 0.62942 0.0
H821 H 0.18991 0.23115 0.62251 0.0
H822 H 0.14878 0.19662 0.74557 0.0
H823 H 0.15483 0.24146 0.77531 0.0
H824 H 0.18818 0.22408 0.77185 0.0
H825 H 0.2364 0.31025 0.76196 0.0
H826 H 0.20313 0.32782 0.76508 0.0
H827 H 0.23017 0.34144 0.72864 0.0
H828 H 0.14451 0.25672 0.62679 0.0
H829 H 0.10125 0.28157 0.64247 0.0
H830 H 0.13589 0.29543 0.74534 0.0
C831 C 0.23211 0.24041 0.71031 0.0
C832 C 0.24422 0.22588 0.68262 0.0
C833 C 0.22855 0.22211 0.65097 0.0
C834 C 0.20158 0.23351 0.64678 0.0
C835 C 0.1906 0.24836 0.67453 0.0
C836 C 0.20511 0.25144 0.70572 0.0
C837 C 0.18826 0.26787 0.7315 0.0
C838 C 0.16886 0.23026 0.75759 0.0
C839 C 0.21616 0.31463 0.74774 0.0
C840 C 0.16216 0.27387 0.70986 0.0
C841 C 0.16404 0.26256 0.67708 0.0
C842 C 0.14258 0.26534 0.6524 0.0
C843 C 0.11805 0.27931 0.66157 0.0
C844 C 0.11509 0.29004 0.69515 0.0
C845 C 0.13779 0.28781 0.71947 0.0
H846 H 0.11107 0.36749 0.25588 0.0
H847 H 0.21531 0.49142 0.2663 0.0
H848 H 0.20953 0.51223 0.2083 0.0
H849 H 0.12208 0.34192 0.16819 0.0
H850 H 0.07529 0.31883 0.159 0.0
H851 H 0.08958 0.31389 0.20007 0.0
H852 H 0.05678 0.35504 0.22434 0.0
H853 H 1.04298 0.36103 0.1834 0.0
H854 H 0.06769 0.41204 0.20988 0.0
H855 H 0.1856 0.52458 0.15048 0.0
H856 H 0.1538 0.51888 0.09751 0.0
H857 H 0.06872 0.3818 0.12393 0.0
C858 C 0.13315 0.39885 0.24601 0.0
C859 C 0.16314 0.42896 0.26657 0.0
C860 C 0.19159 0.46856 0.25181 0.0
C861 C 0.18838 0.4806 0.21875 0.0
C862 C 0.15716 0.45161 0.2001 0.0
C863 C 0.13073 0.41049 0.21306 0.0
C864 C 0.10001 0.3842 0.18833 0.0
C865 C 0.09654 0.33691 0.1783 0.0
C866 C 0.0648 0.37772 0.20233 0.0
C867 C 0.11236 0.41744 0.15949 0.0
C868 C 0.14521 0.45651 0.16672 0.0
C869 C 0.16034 0.49353 0.14459 0.0
C870 C 0.14191 0.49016 0.11453 0.0
C871 C 0.10881 0.44972 0.10617 0.0
C872 C 0.09418 0.41291 0.12915 0.0
H873 H 0.68284 0.69175 0.23437 0.0
H874 H 0.63369 0.77723 0.25114 0.0
H875 H 0.59971 0.74722 0.19842 0.0
H876 H 0.69045 0.70445 0.14459 0.0
H877 H 0.6805 0.64506 0.13742 0.0
H878 H 0.70144 0.67492 0.17584 0.0
H879 H 0.65034 0.60711 0.20766 0.0
H880 H 0.62914 0.57807 0.16903 0.0
H881 H 0.6047 0.59168 0.199 0.0
H882 H 0.5708 0.70749 0.14118 0.0
H883 H 0.55161 0.66343 0.0874 0.0
H884 H 0.61709 0.60117 0.10955 0.0
C885 C 0.66519 0.70459 0.22696 0.0
C886 C 0.66156 0.73756 0.24744 0.0
C887 C 0.63752 0.75242 0.23636 0.0
C888 C 0.61786 0.73538 0.20623 0.0
C889 C 0.62192 0.70283 0.18686 0.0
C890 C 0.64507 0.68761 0.19692 0.0
C891 C 0.64439 0.65211 0.17181 0.0
C892 C 0.6814 0.67025 0.15651 0.0
C893 C 0.63137 0.60442 0.18784 0.0
C894 C 0.61735 0.64965 0.14613 0.0
C895 C 0.60472 0.67931 0.15503 0.0
C896 C 0.58044 0.68392 0.1343 0.0
C897 C 0.56937 0.6584 0.10372 0.0
C898 C 0.58216 0.62796 0.09386 0.0
C899 C 0.60613 0.62342 0.11604 0.0
H900 H 0.42673 0.95538 0.10101 0.0
H901 H 0.49605 0.10023 0.13137 0.0
H902 H 0.45638 0.08925 0.17854 0.0
H903 H 0.3434 0.94735 0.12143 0.0
H904 H 0.32307 0.88888 0.13712 0.0
H905 H 0.35722 0.90717 0.10631 0.0
H906 H 0.3943 0.88479 0.14463 0.0
H907 H 0.36015 0.86612 0.17549 0.0
H908 H 0.4056 0.9092 0.18617 0.0
H909 H 0.40575 0.06417 0.22045 0.0
H910 H 0.35357 1.02627 0.25649 0.0
H911 H 0.31724 0.89455 0.20345 0.0
C912 C 0.43401 0.98476 0.11784 0.0
C913 C 0.46526 1.029 0.112 0.0
C914 C 0.47299 0.06604 0.13493 0.0
C915 C 0.45025 0.06008 0.16188 0.0
C916 C 0.41959 1.01649 0.16649 0.0
C917 C 0.41178 0.97912 0.14541 0.0
C918 C 0.37724 0.93575 0.15626 0.0
C919 C 0.34854 0.91878 0.12863 0.0
C920 C 0.38477 0.89664 0.16623 0.0
C921 C 0.36646 0.95458 0.18643 0.0
C922 C 0.39125 1.00148 0.19151 0.0
C923 C 0.38657 1.02741 0.21667 0.0
C924 C 0.35637 1.00538 0.23709 0.0
C925 C 0.33054 0.95714 0.23333 0.0
C926 C 0.33617 0.93135 0.2075 0.0
H927 H 0.49999 1.03209 0.89588 0.0
H928 H 0.55295 0.17541 0.93299 0.0
H929 H 0.53133 0.19821 0.88326 0.0
H930 H 0.51437 0.05775 0.80657 0.0
H931 H 0.47117 1.00909 0.79532 0.0
H932 H 0.49449 1.00634 0.83166 0.0
H933 H 0.43954 0.98862 0.86715 0.0
H934 H 0.41631 0.99206 0.83106 0.0
H935 H 0.42247 1.02861 0.86702 0.0
H936 H 0.49813 0.20301 0.82935 0.0
H937 H 0.46135 0.18994 0.77841 0.0
H938 H 0.42953 0.04279 0.77888 0.0
C939 C 0.50805 0.06866 0.89324 0.0
C940 C 0.52891 0.10202 0.91848 0.0
C941 C 0.53788 0.14922 0.91394 0.0
C942 C 0.52529 0.16237 0.88577 0.0
C943 C 0.50371 0.12809 0.86201 0.0
C944 C 0.49566 0.08222 0.86546 0.0
C945 C 0.47071 0.05116 0.83768 0.0
C946 C 0.48877 1.02983 0.81656 0.0
C947 C 0.43516 1.01286 0.85156 0.0
C948 C 0.46538 0.08627 0.8181 0.0
C949 C 0.48466 0.13061 0.83223 0.0
C950 C 0.48318 0.16831 0.81826 0.0
C951 C 0.46197 0.16052 0.78927 0.0
C952 C 0.44211 0.11529 0.77428 0.0
C953 C 0.44411 0.07793 0.78934 0.0
H954 H 1.0069 0.35017 0.90692 0.0
H955 H 0.97727 0.45582 0.92672 0.0
H956 H 0.93813 0.42907 0.87635 0.0
H957 H 1.00835 0.35596 0.81788 0.0
H958 H 0.99 0.29385 0.81192 0.0
H959 H 1.01581 0.32272 0.84881 0.0
H960 H 0.96304 0.26532 0.88481 0.0
H961 H 0.93698 0.23669 0.84795 0.0
H962 H 0.91972 0.25994 0.87885 0.0
H963 H 0.90329 0.39064 0.81919 0.0
H964 H 0.8773 0.34499 0.76657 0.0
H965 H 0.92604 0.26096 0.78911 0.0
C966 C 0.99241 0.36806 0.90072 0.0
C967 C 0.99585 0.40579 0.92102 0.0
C968 C 0.97557 0.42716 0.91181 0.0
C969 C 0.95313 0.41207 0.88306 0.0
C970 C 0.95043 0.37476 0.86363 0.0
C971 C 0.96947 0.35291 0.8725 0.0
C972 C 0.96174 0.31302 0.84832 0.0
C973 C 0.99601 0.32194 0.8307 0.0
C974 C 0.94433 0.26596 0.86604 0.0
C975 C 0.93557 0.31569 0.82425 0.0
C976 C 0.92944 0.35173 0.83297 0.0
C977 C 0.9077 0.36198 0.81268 0.0
C978 C 0.89266 0.33552 0.78279 0.0
C979 C 0.89885 0.29852 0.77336 0.0
C980 C 0.92007 0.2884 0.79524 0.0
H981 H 0.77595 0.6453 0.79548 0.0
H982 H 0.79886 0.78615 0.77558 0.0
H983 H 0.7529 0.77723 0.81598 0.0
H984 H 0.68199 0.59246 0.80726 0.0
H985 H 0.68007 0.5567 0.8414 0.0
H986 H 0.71465 0.57387 0.81113 0.0
H987 H 0.76308 0.61035 0.85744 0.0
H988 H 0.72863 0.59253 0.8879 0.0
H989 H 0.76304 0.65303 0.8859 0.0
H990 H 0.6984 0.74881 0.85631 0.0
H991 H 0.65206 0.71166 0.89911 0.0
H992 H 0.66898 0.59284 0.89893 0.0
C993 C 0.77196 0.67479 0.80014 0.0
C994 C 0.79202 0.71698 0.78215 0.0
C995 C 0.78497 0.75396 0.7891 0.0
C996 C 0.75832 0.74885 0.81192 0.0
C997 C 0.73876 0.70669 0.82872 0.0
C998 C 0.74614 0.67079 0.82381 0.0
C999 C 0.72255 0.62984 0.84617 0.0
C1000 C 0.69839 0.58559 0.82524 0.0
C1001 C 0.7457 0.62091 0.87082 0.0
C1002 C 0.70039 0.64779 0.86419 0.0
C1003 C 0.70957 0.69185 0.85317 0.0
C1004 C 0.69157 0.71457 0.86513 0.0
C1005 C 0.66471 0.69281 0.88936 0.0
C1006 C 0.65581 0.64866 0.90248 0.0
C1007 C 0.67432 0.62617 0.88937 0.0
H1008 H 0.73329 0.71761 0.44671 0.0
H1009 H 0.75219 0.85907 0.45773 0.0
H1010 H 0.78662 0.86906 0.50987 0.0
H1011 H 0.72217 0.69092 0.53543 0.0
H1012 H 0.74311 0.65545 0.53263 0.0
H1013 H 0.71956 0.66019 0.49723 0.0
H1014 H 0.77632 0.6877 0.46224 0.0
H1015 H 0.80026 0.68396 0.49771 0.0
H1016 H 0.81754 0.73814 0.47595 0.0
H1017 H 0.82392 0.86413 0.56072 0.0
H1018 H 0.85043 0.84141 0.60664 0.0
H1019 H 0.8043 0.70197 0.56319 0.0
C1020 C 0.74409 0.75057 0.46031 0.0
C1021 C 0.73946 0.78746 0.44778 0.0
C1022 C 0.75451 0.82989 0.46668 0.0
C1023 C 0.77459 0.83601 0.4963 0.0
C1024 C 0.77932 0.79924 0.50739 0.0
C1025 C 0.76365 0.75693 0.49015 0.0
C1026 C 0.77176 0.72226 0.5073 0.0
C1027 C 0.73709 0.67969 0.51883 0.0
C1028 C 0.79271 0.70713 0.48443 0.0
C1029 C 0.7948 0.75148 0.53676 0.0
C1030 C 0.79933 0.79605 0.53634 0.0
C1031 C 0.82019 0.82916 0.56104 0.0
C1032 C 0.83567 0.8161 0.58701 0.0
C1033 C 0.8302 0.76998 0.58875 0.0
C1034 C 0.80963 0.73771 0.56275 0.0
H1035 H 0.33651 0.97936 0.4264 0.0
H1036 H 0.22167 0.90566 0.43685 0.0
H1037 H 0.22946 0.93447 0.49543 0.0
H1038 H 0.35741 0.95666 0.51032 0.0
H1039 H 0.39751 1.01291 0.51382 0.0
H1040 H 0.38202 0.98475 0.47374 0.0
H1041 H 0.38196 0.05847 0.45267 0.0
H1042 H 0.39677 0.08651 0.49285 0.0
H1043 H 0.35645 0.08004 0.47423 0.0
H1044 H 0.2516 0.97972 0.55319 0.0
H1045 H 0.28457 1.02392 0.60417 0.0
H1046 H 0.38468 0.06286 0.55615 0.0
C1047 C 0.31291 0.96835 0.44119 0.0
C1048 C 0.27837 0.93963 0.42683 0.0
C1049 C 0.24837 0.9267 0.44719 0.0
C1050 C 0.25264 0.9435 0.4805 0.0
C1051 C 0.28716 0.9728 0.49355 0.0
C1052 C 0.31676 0.98403 0.47453 0.0
C1053 C 0.35108 1.01532 0.49406 0.0
C1054 C 0.37331 0.99095 0.49823 0.0
C1055 C 0.37284 0.06289 0.47745 0.0
C1056 C 0.3365 1.02064 0.52705 0.0
C1057 C 0.29956 0.99651 0.52632 0.0
C1058 C 0.28049 0.99815 0.55383 0.0
C1059 C 0.2995 1.02383 0.58273 0.0
C1060 C 0.33737 0.04721 0.58447 0.0
C1061 C 0.35579 0.0455 0.5559 0.0
H1062 H 1.01967 0.36286 0.60136 0.0
H1063 H 0.93065 0.23682 0.55855 0.0
H1064 H 0.96786 0.24303 0.51026 0.0
H1065 H 0.05098 0.42385 0.52231 0.0
H1066 H 0.09764 0.45157 0.53381 0.0
H1067 H 0.06456 0.43723 0.5653 0.0
H1068 H 0.08849 0.3898 0.59572 0.0
H1069 H 0.12146 0.40362 0.56419 0.0
H1070 H 0.09092 0.34346 0.57376 0.0
H1071 H 1.01607 0.25898 0.46877 0.0
H1072 H 0.06638 0.28813 0.43182 0.0
H1073 H 0.12614 0.41135 0.49563 0.0
C1074 C 1.00778 0.33662 0.58171 0.0
C1075 C 0.9716 0.29894 0.58429 0.0
C1076 C 0.95768 0.26595 0.55762 0.0
C1077 C 0.97894 0.26916 0.53004 0.0
C1078 C 1.01434 0.30615 0.52863 0.0
C1079 C 1.02853 0.33997 0.55342 0.0
C1080 C 0.06709 0.37705 0.54487 0.0
C1081 C 0.07026 0.4253 0.54137 0.0
C1082 C 0.09356 0.37858 0.57121 0.0
C1083 C 0.07256 0.35878 0.51137 0.0
C1084 C 1.04169 0.31727 0.5032 0.0
C1085 C 1.0399 0.29188 0.47477 0.0
C1086 C 0.06936 0.30934 0.45366 0.0
C1087 C 0.10127 0.35322 0.4595 0.0
C1088 C 0.10275 0.37801 0.48959 0.0
loop_
_geom_bond_atom_site_label_1
_geom_bond_atom_site_label_2
_geom_bond_distance
_geom_bond_site_symmetry_2
_ccdc_geom_bond_type
Dy0 O3 2.307 1_456 S
Dy0 O5 2.394 1_556 S
Dy0 O6 2.380 . S
Dy0 O8 2.340 . S
Dy0 O10 2.298 . S
Dy0 O14 2.274 1_556 S
Dy0 C22 2.738 . S
Dy1 O4 2.298 . S
Dy1 O7 2.275 1_554 S
Dy1 O9 2.307 1_655 S
Dy1 O11 2.395 1_554 S
Dy1 O12 2.379 . S
Dy1 O15 2.333 1_655 S
Dy1 C31 2.738 . S
C2 O14 1.254 . S
C2 O15 1.273 . S
O3 Dy0 2.307 1_654 S
O3 C13 1.266 . S
O4 Dy1 2.298 . S
O4 C13 1.236 . S
O5 Dy0 2.394 1_554 S
O5 C22 1.240 1_554 S
O6 Dy0 2.380 . S
O6 C22 1.264 . S
O7 Dy1 2.275 1_556 S
O7 C23 1.254 . S
O8 Dy0 2.340 . S
O8 C23 1.257 1_455 S
O9 Dy1 2.307 1_455 S
O9 C24 1.266 . S
O10 Dy0 2.298 . S
O10 C24 1.236 1_556 S
O11 Dy1 2.395 1_556 S
O11 C31 1.255 1_556 S
O12 Dy1 2.379 . S
O12 C31 1.249 . S
C13 O3 1.266 . S
C13 O4 1.236 . S
O14 Dy0 2.274 1_554 S
O14 C2 1.254 . S
O15 Dy1 2.333 1_455 S
O15 C2 1.273 . S
C16 C19 1.337 1_556 S
C16 C20 1.335 . S
C16 C22 1.516 . S
C17 C18 1.304 . S
C17 C21 1.323 1_554 S
C18 C17 1.304 . S
C18 C19 1.371 . S
C18 H32 0.930 . S
C19 C16 1.337 1_554 S
C19 C18 1.371 . S
C19 H33 0.931 . S
C20 C16 1.335 . S
C20 C21 1.433 . S
C20 H34 0.931 . S
C21 C17 1.323 1_556 S
C21 C20 1.433 . S
C21 H35 0.933 . S
C22 Dy0 2.738 . S
C22 O5 1.240 1_556 S
C22 O6 1.264 . S
C22 C16 1.516 . S
C23 O7 1.254 . S
C23 O8 1.257 1_655 S
C24 O9 1.266 . S
C24 O10 1.236 1_554 S
C25 C28 1.344 1_554 S
C25 C29 1.328 . S
C25 C31 1.516 . S
C26 C27 1.304 1_554 S
C26 C30 1.323 . S
C27 C26 1.304 1_556 S
C27 C28 1.371 . S
C27 H36 0.930 . S
C28 C25 1.344 1_556 S
C28 C27 1.371 . S
C28 H37 0.931 . S
C29 C25 1.328 . S
C29 C30 1.433 . S
C29 H38 0.931 . S
C30 C26 1.323 . S
C30 C29 1.433 . S
C30 H39 0.933 . S
C31 Dy1 2.738 . S
C31 O11 1.255 1_554 S
C31 O12 1.249 . S
C31 C25 1.516 . S
H32 C18 0.930 . S
H33 C19 0.931 . S
H34 C20 0.931 . S
H35 C21 0.933 . S
H36 C27 0.930 . S
H37 C28 0.931 . S
H38 C29 0.931 . S
H39 C30 0.933 . S
Dy40 O43 2.307 . S
Dy40 O45 2.395 1_554 S
Dy40 O46 2.379 . S
Dy40 O48 2.339 . S
Dy40 O50 2.298 . S
Dy40 O54 2.275 1_554 S
Dy40 C62 2.738 . S
Dy41 O44 2.298 . S
Dy41 O47 2.275 1_556 S
Dy41 O49 2.307 . S
Dy41 O51 2.395 1_556 S
Dy41 O52 2.379 . S
Dy41 O55 2.339 . S
Dy41 C71 2.738 . S
C42 O54 1.254 . S
C42 O55 1.257 . S
O43 Dy40 2.307 . S
O43 C53 1.266 1_554 S
O44 Dy41 2.298 . S
O44 C53 1.236 . S
O45 Dy40 2.395 1_556 S
O45 C62 1.255 1_556 S
O46 Dy40 2.379 . S
O46 C62 1.249 . S
O47 Dy41 2.275 1_554 S
O47 C63 1.254 . S
O48 Dy40 2.339 . S
O48 C63 1.257 . S
O49 Dy41 2.307 . S
O49 C64 1.266 1_556 S
O50 Dy40 2.298 . S
O50 C64 1.236 . S
O51 Dy41 2.395 1_554 S
O51 C71 1.255 1_554 S
O52 Dy41 2.379 . S
O52 C71 1.249 . S
C53 O43 1.266 1_556 S
C53 O44 1.236 . S
O54 Dy40 2.275 1_556 S
O54 C42 1.254 . S
O55 Dy41 2.339 . S
O55 C42 1.257 . S
C56 C59 1.344 1_554 S
C56 C60 1.328 . S
C56 C62 1.516 . S
C57 C58 1.304 1_554 S
C57 C61 1.323 . S
C58 C57 1.304 1_556 S
C58 C59 1.371 . S
C58 H72 0.930 . S
C59 C56 1.344 1_556 S
C59 C58 1.371 . S
C59 H73 0.931 . S
C60 C56 1.328 . S
C60 C61 1.433 . S
C60 H74 0.931 . S
C61 C57 1.323 . S
C61 C60 1.433 . S
C61 H75 0.933 . S
C62 Dy40 2.738 . S
C62 O45 1.255 1_554 S
C62 O46 1.249 . S
C62 C56 1.516 . S
C63 O47 1.254 . S
C63 O48 1.257 . S
C64 O49 1.266 1_554 S
C64 O50 1.236 . S
C65 C68 1.344 1_556 S
C65 C69 1.328 . S
C65 C71 1.516 . S
C66 C67 1.304 1_556 S
C66 C70 1.323 . S
C67 C66 1.304 1_554 S
C67 C68 1.371 . S
C67 H76 0.930 . S
C68 C65 1.344 1_554 S
C68 C67 1.371 . S
C68 H77 0.931 . S
C69 C65 1.328 . S
C69 C70 1.433 . S
C69 H78 0.931 . S
C70 C66 1.323 . S
C70 C69 1.433 . S
C70 H79 0.933 . S
C71 Dy41 2.738 . S
C71 O51 1.255 1_556 S
C71 O52 1.249 . S
C71 C65 1.516 . S
H72 C58 0.930 . S
H73 C59 0.931 . S
H74 C60 0.931 . S
H75 C61 0.933 . S
H76 C67 0.930 . S
H77 C68 0.931 . S
H78 C69 0.931 . S
H79 C70 0.933 . S
Dy80 O83 2.307 1_566 S
Dy80 O85 2.395 1_556 S
Dy80 O86 2.379 . S
Dy80 O88 2.339 . S
Dy80 O90 2.298 . S
Dy80 O94 2.275 1_556 S
Dy80 C102 2.738 . S
Dy81 O84 2.298 . S
Dy81 O87 2.275 1_554 S
Dy81 O89 2.307 1_545 S
Dy81 O91 2.395 1_554 S
Dy81 O92 2.379 . S
Dy81 O95 2.339 . S
Dy81 C111 2.738 . S
C82 O94 1.254 . S
C82 O95 1.257 1_565 S
O83 Dy80 2.307 1_544 S
O83 C93 1.266 . S
O84 Dy81 2.298 . S
O84 C93 1.236 . S
O85 Dy80 2.395 1_554 S
O85 C102 1.255 1_554 S
O86 Dy80 2.379 . S
O86 C102 1.249 . S
O87 Dy81 2.275 1_556 S
O87 C103 1.254 . S
O88 Dy80 2.339 . S
O88 C103 1.257 1_565 S
O89 Dy81 2.307 1_565 S
O89 C104 1.266 . S
O90 Dy80 2.298 . S
O90 C104 1.236 1_556 S
O91 Dy81 2.395 1_556 S
O91 C111 1.255 1_556 S
O92 Dy81 2.379 . S
O92 C111 1.249 . S
C93 O83 1.266 . S
C93 O84 1.236 . S
O94 Dy80 2.275 1_554 S
O94 C82 1.254 . S
O95 Dy81 2.339 . S
O95 C82 1.257 1_545 S
C96 C99 1.321 1_556 S
C96 C100 1.350 . S
C96 C102 1.517 . S
C97 C98 1.304 . S
C97 C101 1.323 1_554 S
C98 C97 1.304 . S
C98 C99 1.371 . S
C98 H112 0.930 . S
C99 C96 1.321 1_554 S
C99 C98 1.371 . S
C99 H113 0.931 . S
C100 C96 1.350 . S
C100 C101 1.433 . S
C100 H114 0.931 . S
C101 C97 1.323 1_556 S
C101 C100 1.433 . S
C101 H115 0.933 . S
C102 Dy80 2.738 . S
C102 O85 1.255 1_556 S
C102 O86 1.249 . S
C102 C96 1.517 . S
C103 O87 1.254 . S
C103 O88 1.257 1_545 S
C104 O89 1.266 . S
C104 O90 1.236 1_554 S
C105 C108 1.344 1_554 S
C105 C109 1.328 . S
C105 C111 1.516 . S
C106 C107 1.304 1_554 S
C106 C110 1.323 . S
C107 C106 1.304 1_556 S
C107 C108 1.371 . S
C107 H116 0.930 . S
C108 C105 1.344 1_556 S
C108 C107 1.371 . S
C108 H117 0.931 . S
C109 C105 1.328 . S
C109 C110 1.433 . S
C109 H118 0.931 . S
C110 C106 1.323 . S
C110 C109 1.433 . S
C110 H119 0.933 . S
C111 Dy81 2.738 . S
C111 O91 1.255 1_554 S
C111 O92 1.249 . S
C111 C105 1.516 . S
H112 C98 0.930 . S
H113 C99 0.931 . S
H114 C100 0.931 . S
H115 C101 0.933 . S
H116 C107 0.930 . S
H117 C108 0.931 . S
H118 C109 0.931 . S
H119 C110 0.933 . S
Dy120 O123 2.307 . S
Dy120 O125 2.395 . S
Dy120 O126 2.379 . S
Dy120 O128 2.339 . S
Dy120 O130 2.298 . S
Dy120 O134 2.275 . S
Dy120 C142 2.738 . S
Dy121 O124 2.298 . S
Dy121 O127 2.275 . S
Dy121 O129 2.307 . S
Dy121 O131 2.395 . S
Dy121 O132 2.379 . S
Dy121 O135 2.339 . S
Dy121 C151 2.738 . S
C122 O134 1.254 . S
C122 O135 1.257 . S
O123 Dy120 2.307 . S
O123 C133 1.266 . S
O124 Dy121 2.298 . S
O124 C133 1.236 . S
O125 Dy120 2.395 . S
O125 C142 1.255 . S
O126 Dy120 2.379 . S
O126 C142 1.249 . S
O127 Dy121 2.275 . S
O127 C143 1.254 . S
O128 Dy120 2.339 . S
O128 C143 1.257 . S
O129 Dy121 2.307 . S
O129 C144 1.266 . S
O130 Dy120 2.298 . S
O130 C144 1.236 . S
O131 Dy121 2.395 . S
O131 C151 1.255 . S
O132 Dy121 2.379 . S
O132 C151 1.249 . S
C133 O123 1.266 . S
C133 O124 1.236 . S
O134 Dy120 2.275 . S
O134 C122 1.254 . S
O135 Dy121 2.339 . S
O135 C122 1.257 . S
C136 C139 1.344 . S
C136 C140 1.328 . S
C136 C142 1.516 . S
C137 C138 1.304 . S
C137 C141 1.323 . S
C138 C137 1.304 . S
C138 C139 1.371 . S
C138 H152 0.930 . S
C139 C136 1.344 . S
C139 C138 1.371 . S
C139 H153 0.931 . S
C140 C136 1.328 . S
C140 C141 1.433 . S
C140 H154 0.931 . S
C141 C137 1.323 . S
C141 C140 1.433 . S
C141 H155 0.933 . S
C142 Dy120 2.738 . S
C142 O125 1.255 . S
C142 O126 1.249 . S
C142 C136 1.516 . S
C143 O127 1.254 . S
C143 O128 1.257 . S
C144 O129 1.266 . S
C144 O130 1.236 . S
C145 C148 1.344 . S
C145 C149 1.328 . S
C145 C151 1.516 . S
C146 C147 1.304 . S
C146 C150 1.323 . S
C147 C146 1.304 . S
C147 C148 1.371 . S
C147 H156 0.930 . S
C148 C145 1.344 . S
C148 C147 1.371 . S
C148 H157 0.931 . S
C149 C145 1.328 . S
C149 C150 1.433 . S
C149 H158 0.931 . S
C150 C146 1.323 . S
C150 C149 1.433 . S
C150 H159 0.933 . S
C151 Dy121 2.738 . S
C151 O131 1.255 . S
C151 O132 1.249 . S
C151 C145 1.516 . S
H152 C138 0.930 . S
H153 C139 0.931 . S
H154 C140 0.931 . S
H155 C141 0.933 . S
H156 C147 0.930 . S
H157 C148 0.931 . S
H158 C149 0.931 . S
H159 C150 0.933 . S
Dy160 O163 2.307 . S
Dy160 O165 2.395 . S
Dy160 O166 2.379 1_565 S
Dy160 O168 2.339 . S
Dy160 O170 2.298 . S
Dy160 O174 2.275 . S
Dy160 C182 2.738 1_565 S
Dy161 O164 2.298 . S
Dy161 O167 2.275 . S
Dy161 O169 2.307 . S
Dy161 O171 2.395 . S
Dy161 O172 2.379 . S
Dy161 O175 2.339 . S
Dy161 C191 2.738 . S
C162 O174 1.254 . S
C162 O175 1.257 . S
O163 Dy160 2.307 . S
O163 C173 1.266 . S
O164 Dy161 2.298 . S
O164 C173 1.236 . S
O165 Dy160 2.395 . S
O165 C182 1.255 1_565 S
O166 Dy160 2.379 1_545 S
O166 C182 1.249 . S
O167 Dy161 2.275 . S
O167 C183 1.254 . S
O168 Dy160 2.339 . S
O168 C183 1.257 . S
O169 Dy161 2.307 . S
O169 C184 1.266 . S
O170 Dy160 2.298 . S
O170 C184 1.236 . S
O171 Dy161 2.395 . S
O171 C191 1.255 . S
O172 Dy161 2.379 . S
O172 C191 1.249 . S
C173 O163 1.266 . S
C173 O164 1.236 . S
O174 Dy160 2.275 . S
O174 C162 1.254 . S
O175 Dy161 2.339 . S
O175 C162 1.257 . S
C176 C179 1.344 . S
C176 C180 1.328 . S
C176 C182 1.516 . S
C177 C178 1.304 . S
C177 C181 1.323 . S
C178 C177 1.304 . S
C178 C179 1.371 . S
C178 H192 0.930 . S
C179 C176 1.344 . S
C179 C178 1.371 . S
C179 H193 0.931 . S
C180 C176 1.328 . S
C180 C181 1.433 . S
C180 H194 0.931 . S
C181 C177 1.323 . S
C181 C180 1.433 . S
C181 H195 0.933 . S
C182 Dy160 2.738 1_545 S
C182 O165 1.255 1_545 S
C182 O166 1.249 . S
C182 C176 1.516 . S
C183 O167 1.254 . S
C183 O168 1.257 . S
C184 O169 1.266 . S
C184 O170 1.236 . S
C185 C188 1.344 . S
C185 C189 1.328 . S
C185 C191 1.516 . S
C186 C187 1.304 . S
C186 C190 1.323 . S
C187 C186 1.304 . S
C187 C188 1.371 . S
C187 H196 0.930 . S
C188 C185 1.344 . S
C188 C187 1.371 . S
C188 H197 0.931 . S
C189 C185 1.328 . S
C189 C190 1.433 . S
C189 H198 0.931 . S
C190 C186 1.323 . S
C190 C189 1.433 . S
C190 H199 0.933 . S
C191 Dy161 2.738 . S
C191 O171 1.255 . S
C191 O172 1.249 . S
C191 C185 1.516 . S
H192 C178 0.930 . S
H193 C179 0.931 . S
H194 C180 0.931 . S
H195 C181 0.933 . S
H196 C187 0.930 . S
H197 C188 0.931 . S
H198 C189 0.931 . S
H199 C190 0.933 . S
Dy200 O203 2.307 . S
Dy200 O205 2.395 . S
Dy200 O206 2.379 . S
Dy200 O208 2.339 . S
Dy200 O210 2.298 . S
Dy200 O214 2.275 . S
Dy200 C222 2.738 . S
Dy201 O204 2.298 . S
Dy201 O207 2.275 . S
Dy201 O209 2.307 . S
Dy201 O211 2.395 . S
Dy201 O212 2.379 . S
Dy201 O215 2.339 . S
Dy201 C231 2.738 . S
C202 O214 1.254 . S
C202 O215 1.257 . S
O203 Dy200 2.307 . S
O203 C213 1.266 . S
O204 Dy201 2.298 . S
O204 C213 1.236 . S
O205 Dy200 2.395 . S
O205 C222 1.255 . S
O206 Dy200 2.379 . S
O206 C222 1.249 . S
O207 Dy201 2.275 . S
O207 C223 1.254 . S
O208 Dy200 2.339 . S
O208 C223 1.257 . S
O209 Dy201 2.307 . S
O209 C224 1.266 . S
O210 Dy200 2.298 . S
O210 C224 1.236 . S
O211 Dy201 2.395 . S
O211 C231 1.255 . S
O212 Dy201 2.379 . S
O212 C231 1.249 . S
C213 O203 1.266 . S
C213 O204 1.236 . S
O214 Dy200 2.275 . S
O214 C202 1.254 . S
O215 Dy201 2.339 . S
O215 C202 1.257 . S
C216 C219 1.344 . S
C216 C220 1.328 . S
C216 C222 1.516 1_655 S
C217 C218 1.304 . S
C217 C221 1.323 . S
C218 C217 1.304 . S
C218 C219 1.371 . S
C218 H232 0.930 . S
C219 C216 1.344 . S
C219 C218 1.371 . S
C219 H233 0.931 . S
C220 C216 1.328 . S
C220 C221 1.433 . S
C220 H234 0.931 . S
C221 C217 1.323 . S
C221 C220 1.433 . S
C221 H235 0.933 . S
C222 Dy200 2.738 . S
C222 O205 1.255 . S
C222 O206 1.249 . S
C222 C216 1.516 1_455 S
C223 O207 1.254 . S
C223 O208 1.257 . S
C224 O209 1.266 . S
C224 O210 1.236 . S
C225 C228 1.344 . S
C225 C229 1.328 . S
C225 C231 1.516 . S
C226 C227 1.304 . S
C226 C230 1.323 . S
C227 C226 1.304 . S
C227 C228 1.371 . S
C227 H236 0.930 . S
C228 C225 1.344 . S
C228 C227 1.371 . S
C228 H237 0.931 . S
C229 C225 1.328 . S
C229 C230 1.433 . S
C229 H238 0.931 . S
C230 C226 1.323 . S
C230 C229 1.433 . S
C230 H239 0.933 . S
C231 Dy201 2.738 . S
C231 O211 1.255 . S
C231 O212 1.249 . S
C231 C225 1.516 . S
H232 C218 0.930 . S
H233 C219 0.931 . S
H234 C220 0.931 . S
H235 C221 0.933 . S
H236 C227 0.930 . S
H237 C228 0.931 . S
H238 C229 0.931 . S
H239 C230 0.933 . S
Dy240 O243 2.307 . S
Dy240 O245 2.395 . S
Dy240 O246 2.379 . S
Dy240 O248 2.339 . S
Dy240 O250 2.298 . S
Dy240 O254 2.275 . S
Dy240 C262 2.738 . S
Dy241 O244 2.298 . S
Dy241 O247 2.275 . S
Dy241 O249 2.307 . S
Dy241 O251 2.395 . S
Dy241 O252 2.379 . S
Dy241 O255 2.339 . S
Dy241 C271 2.738 . S
C242 O254 1.254 . S
C242 O255 1.257 . S
O243 Dy240 2.307 . S
O243 C253 1.266 . S
O244 Dy241 2.298 . S
O244 C253 1.236 . S
O245 Dy240 2.395 . S
O245 C262 1.255 . S
O246 Dy240 2.379 . S
O246 C262 1.249 . S
O247 Dy241 2.275 . S
O247 C263 1.254 . S
O248 Dy240 2.339 . S
O248 C263 1.257 . S
O249 Dy241 2.307 . S
O249 C264 1.266 . S
O250 Dy240 2.298 . S
O250 C264 1.236 . S
O251 Dy241 2.395 . S
O251 C271 1.255 . S
O252 Dy241 2.379 . S
O252 C271 1.249 . S
C253 O243 1.266 . S
C253 O244 1.236 . S
O254 Dy240 2.275 . S
O254 C242 1.254 . S
O255 Dy241 2.339 . S
O255 C242 1.257 . S
C256 C259 1.344 . S
C256 C260 1.328 . S
C256 C262 1.516 . S
C257 C258 1.304 . S
C257 C261 1.323 . S
C258 C257 1.304 . S
C258 C259 1.371 . S
C258 H272 0.930 . S
C259 C256 1.344 . S
C259 C258 1.371 . S
C259 H273 0.931 . S
C260 C256 1.328 . S
C260 C261 1.433 . S
C260 H274 0.931 . S
C261 C257 1.323 . S
C261 C260 1.433 . S
C261 H275 0.933 . S
C262 Dy240 2.738 . S
C262 O245 1.255 . S
C262 O246 1.249 . S
C262 C256 1.516 . S
C263 O247 1.254 . S
C263 O248 1.257 . S
C264 O249 1.266 . S
C264 O250 1.236 . S
C265 C268 1.344 . S
C265 C269 1.328 . S
C265 C271 1.516 . S
C266 C267 1.304 . S
C266 C270 1.323 . S
C267 C266 1.304 . S
C267 C268 1.371 . S
C267 H276 0.930 . S
C268 C265 1.344 . S
C268 C267 1.371 . S
C268 H277 0.931 . S
C269 C265 1.328 . S
C269 C270 1.433 . S
C269 H278 0.931 . S
C270 C266 1.323 . S
C270 C269 1.433 . S
C270 H279 0.933 . S
C271 Dy241 2.738 . S
C271 O251 1.255 . S
C271 O252 1.249 . S
C271 C265 1.516 . S
H272 C258 0.930 . S
H273 C259 0.931 . S
H274 C260 0.931 . S
H275 C261 0.933 . S
H276 C267 0.930 . S
H277 C268 0.931 . S
H278 C269 0.931 . S
H279 C270 0.933 . S
Dy280 O283 2.307 . S
Dy280 O285 2.395 . S
Dy280 O286 2.379 . S
Dy280 O288 2.339 . S
Dy280 O290 2.298 . S
Dy280 O294 2.275 . S
Dy280 C302 2.738 . S
Dy281 O284 2.298 . S
Dy281 O287 2.275 . S
Dy281 O289 2.307 . S
Dy281 O291 2.395 . S
Dy281 O292 2.379 . S
Dy281 O295 2.339 . S
Dy281 C311 2.738 . S
C282 O294 1.254 . S
C282 O295 1.257 . S
O283 Dy280 2.307 . S
O283 C293 1.266 . S
O284 Dy281 2.298 . S
O284 C293 1.236 . S
O285 Dy280 2.395 . S
O285 C302 1.255 . S
O286 Dy280 2.379 . S
O286 C302 1.249 . S
O287 Dy281 2.275 . S
O287 C303 1.254 . S
O288 Dy280 2.339 . S
O288 C303 1.257 . S
O289 Dy281 2.307 . S
O289 C304 1.266 . S
O290 Dy280 2.298 . S
O290 C304 1.236 . S
O291 Dy281 2.395 . S
O291 C311 1.255 . S
O292 Dy281 2.379 . S
O292 C311 1.249 . S
C293 O283 1.266 . S
C293 O284 1.236 . S
O294 Dy280 2.275 . S
O294 C282 1.254 . S
O295 Dy281 2.339 . S
O295 C282 1.257 . S
C296 C299 1.344 . S
C296 C300 1.328 . S
C296 C302 1.516 1_455 S
C297 C298 1.304 . S
C297 C301 1.323 . S
C298 C297 1.304 . S
C298 C299 1.371 . S
C298 H312 0.930 . S
C299 C296 1.344 . S
C299 C298 1.371 . S
C299 H313 0.931 . S
C300 C296 1.328 . S
C300 C301 1.433 . S
C300 H314 0.931 . S
C301 C297 1.323 . S
C301 C300 1.433 . S
C301 H315 0.933 . S
C302 Dy280 2.738 . S
C302 O285 1.255 . S
C302 O286 1.249 . S
C302 C296 1.516 1_655 S
C303 O287 1.254 . S
C303 O288 1.257 . S
C304 O289 1.266 . S
C304 O290 1.236 . S
C305 C308 1.344 . S
C305 C309 1.328 . S
C305 C311 1.516 . S
C306 C307 1.304 . S
C306 C310 1.323 . S
C307 C306 1.304 . S
C307 C308 1.371 . S
C307 H316 0.930 . S
C308 C305 1.344 . S
C308 C307 1.371 . S
C308 H317 0.931 . S
C309 C305 1.328 . S
C309 C310 1.433 . S
C309 H318 0.931 . S
C310 C306 1.323 . S
C310 C309 1.433 . S
C310 H319 0.933 . S
C311 Dy281 2.738 . S
C311 O291 1.255 . S
C311 O292 1.249 . S
C311 C305 1.516 . S
H312 C298 0.930 . S
H313 C299 0.931 . S
H314 C300 0.931 . S
H315 C301 0.933 . S
H316 C307 0.930 . S
H317 C308 0.931 . S
H318 C309 0.931 . S
H319 C310 0.933 . S
Dy320 O323 2.307 . S
Dy320 O325 2.395 . S
Dy320 O326 2.379 . S
Dy320 O328 2.339 . S
Dy320 O330 2.298 . S
Dy320 O334 2.275 . S
Dy320 C342 2.738 . S
Dy321 O324 2.298 . S
Dy321 O327 2.275 . S
Dy321 O329 2.307 . S
Dy321 O331 2.395 . S
Dy321 O332 2.379 . S
Dy321 O335 2.339 . S
Dy321 C351 2.738 . S
C322 O334 1.254 . S
C322 O335 1.257 . S
O323 Dy320 2.307 . S
O323 C333 1.266 . S
O324 Dy321 2.298 . S
O324 C333 1.236 . S
O325 Dy320 2.395 . S
O325 C342 1.255 . S
O326 Dy320 2.379 . S
O326 C342 1.249 . S
O327 Dy321 2.275 . S
O327 C343 1.254 . S
O328 Dy320 2.339 . S
O328 C343 1.257 . S
O329 Dy321 2.307 . S
O329 C344 1.266 . S
O330 Dy320 2.298 . S
O330 C344 1.236 . S
O331 Dy321 2.395 . S
O331 C351 1.255 . S
O332 Dy321 2.379 . S
O332 C351 1.249 . S
C333 O323 1.266 . S
C333 O324 1.236 . S
O334 Dy320 2.275 . S
O334 C322 1.254 . S
O335 Dy321 2.339 . S
O335 C322 1.257 . S
C336 C339 1.344 . S
C336 C340 1.328 . S
C336 C342 1.516 . S
C337 C338 1.304 . S
C337 C341 1.323 . S
C338 C337 1.304 . S
C338 C339 1.371 . S
C338 H352 0.930 . S
C339 C336 1.344 . S
C339 C338 1.371 . S
C339 H353 0.931 . S
C340 C336 1.328 . S
C340 C341 1.433 . S
C340 H354 0.931 . S
C341 C337 1.323 . S
C341 C340 1.433 . S
C341 H355 0.933 . S
C342 Dy320 2.738 . S
C342 O325 1.255 . S
C342 O326 1.249 . S
C342 C336 1.516 . S
C343 O327 1.254 . S
C343 O328 1.257 . S
C344 O329 1.266 . S
C344 O330 1.236 . S
C345 C348 1.344 . S
C345 C349 1.328 . S
C345 C351 1.516 . S
C346 C347 1.304 1_455 S
C346 C350 1.323 1_455 S
C347 C346 1.304 1_655 S
C347 C348 1.371 . S
C347 H356 0.930 . S
C348 C345 1.344 . S
C348 C347 1.371 . S
C348 H357 0.931 . S
C349 C345 1.328 . S
C349 C350 1.433 . S
C349 H358 0.931 . S
C350 C346 1.323 1_655 S
C350 C349 1.433 . S
C350 H359 0.933 1_655 S
C351 Dy321 2.738 . S
C351 O331 1.255 . S
C351 O332 1.249 . S
C351 C345 1.516 . S
H352 C338 0.930 . S
H353 C339 0.931 . S
H354 C340 0.931 . S
H355 C341 0.933 . S
H356 C347 0.930 . S
H357 C348 0.931 . S
H358 C349 0.931 . S
H359 C350 0.933 1_455 S
H360 C372 0.930 . S
H361 C374 0.930 . S
H362 C375 0.930 . S
H363 C379 0.959 . S
H364 C379 0.959 . S
H365 C379 0.961 . S
H366 C380 0.960 . S
H367 C380 0.961 . S
H368 C380 0.959 . S
H369 C383 0.929 . S
H370 C384 0.931 . S
H371 C386 0.930 . S
C372 H360 0.930 . S
C372 C373 1.399 1_554 S
C372 C377 1.399 . S
C373 C372 1.399 1_556 S
C373 C374 1.376 . S
C374 H361 0.930 . S
C374 C373 1.376 . S
C374 C375 1.388 . S
C375 H362 0.930 . S
C375 C374 1.388 . S
C375 C376 1.390 . S
C376 C375 1.390 . S
C376 C377 1.394 1_556 S
C376 C382 1.465 . S
C377 C372 1.399 . S
C377 C376 1.394 1_554 S
C377 C378 1.516 . S
C378 C377 1.516 . S
C378 C379 1.502 . S
C378 C380 1.561 . S
C378 C381 1.526 . S
C379 H363 0.959 . S
C379 H364 0.959 . S
C379 H365 0.961 . S
C379 C378 1.502 . S
C380 H366 0.960 . S
C380 H367 0.961 . S
C380 H368 0.959 . S
C380 C378 1.561 . S
C381 C378 1.526 . S
C381 C382 1.396 1_554 S
C381 C386 1.390 . S
C382 C376 1.465 . S
C382 C381 1.396 1_556 S
C382 C383 1.399 . S
C383 H369 0.929 . S
C383 C382 1.399 . S
C383 C384 1.385 . S
C384 H370 0.931 . S
C384 C383 1.385 . S
C384 C385 1.389 . S
C385 C384 1.389 . S
C385 C386 1.387 1_556 S
C386 H371 0.930 . S
C386 C381 1.390 . S
C386 C385 1.387 1_554 S
H387 C399 0.930 . S
H388 C401 0.930 . S
H389 C402 0.930 . S
H390 C406 0.959 . S
H391 C406 0.959 . S
H392 C406 0.961 . S
H393 C407 0.960 . S
H394 C407 0.961 . S
H395 C407 0.959 . S
H396 C410 0.929 . S
H397 C411 0.931 . S
H398 C413 0.930 . S
C399 H387 0.930 . S
C399 C400 1.388 1_554 S
C399 C404 1.399 . S
C400 C399 1.388 1_556 S
C400 C401 1.390 . S
C401 H388 0.930 . S
C401 C400 1.390 . S
C401 C402 1.388 . S
C402 H389 0.930 . S
C402 C401 1.388 . S
C402 C403 1.390 . S
C403 C402 1.390 . S
C403 C404 1.394 1_556 S
C403 C409 1.465 . S
C404 C399 1.399 . S
C404 C403 1.394 1_554 S
C404 C405 1.516 . S
C405 C404 1.516 . S
C405 C406 1.502 . S
C405 C407 1.561 . S
C405 C408 1.526 . S
C406 H390 0.959 . S
C406 H391 0.959 . S
C406 H392 0.961 . S
C406 C405 1.502 . S
C407 H393 0.960 . S
C407 H394 0.961 . S
C407 H395 0.959 . S
C407 C405 1.561 . S
C408 C405 1.526 . S
C408 C409 1.396 1_554 S
C408 C413 1.390 . S
C409 C403 1.465 . S
C409 C408 1.396 1_556 S
C409 C410 1.399 . S
C410 H396 0.929 . S
C410 C409 1.399 . S
C410 C411 1.385 . S
C411 H397 0.931 . S
C411 C410 1.385 . S
C411 C412 1.389 . S
C412 C411 1.389 . S
C412 C413 1.387 1_556 S
C413 H398 0.930 . S
C413 C408 1.390 . S
C413 C412 1.387 1_554 S
H414 C426 0.930 . S
H415 C428 0.930 . S
H416 C429 0.930 . S
H417 C433 0.959 . S
H418 C433 0.959 . S
H419 C433 0.961 . S
H420 C434 0.960 . S
H421 C434 0.961 . S
H422 C434 0.959 . S
H423 C437 0.929 . S
H424 C438 0.931 . S
H425 C440 0.930 . S
C426 H414 0.930 . S
C426 C427 1.399 1_556 S
C426 C431 1.399 . S
C427 C426 1.399 1_554 S
C427 C428 1.376 . S
C428 H415 0.930 . S
C428 C427 1.376 . S
C428 C429 1.388 . S
C429 H416 0.930 . S
C429 C428 1.388 . S
C429 C430 1.390 . S
C430 C429 1.390 . S
C430 C431 1.394 1_554 S
C430 C436 1.465 . S
C431 C426 1.399 . S
C431 C430 1.394 1_556 S
C431 C432 1.516 . S
C432 C431 1.516 . S
C432 C433 1.502 . S
C432 C434 1.561 . S
C432 C435 1.526 . S
C433 H417 0.959 . S
C433 H418 0.959 . S
C433 H419 0.961 . S
C433 C432 1.502 . S
C434 H420 0.960 . S
C434 H421 0.961 . S
C434 H422 0.959 . S
C434 C432 1.561 . S
C435 C432 1.526 . S
C435 C436 1.396 1_556 S
C435 C440 1.390 . S
C436 C430 1.465 . S
C436 C435 1.396 1_554 S
C436 C437 1.399 . S
C437 H423 0.929 . S
C437 C436 1.399 . S
C437 C438 1.385 . S
C438 H424 0.931 . S
C438 C437 1.385 . S
C438 C439 1.389 . S
C439 C438 1.389 . S
C439 C440 1.387 1_554 S
C440 H425 0.930 . S
C440 C435 1.390 . S
C440 C439 1.387 1_556 S
H441 C453 0.930 . S
H442 C455 0.930 . S
H443 C456 0.930 . S
H444 C460 0.959 . S
H445 C460 0.959 . S
H446 C460 0.961 . S
H447 C461 0.960 . S
H448 C461 0.961 . S
H449 C461 0.959 . S
H450 C464 0.929 . S
H451 C465 0.931 . S
H452 C467 0.930 . S
C453 H441 0.930 . S
C453 C454 1.399 . S
C453 C458 1.399 . S
C454 C453 1.399 . S
C454 C455 1.376 1_554 S
C455 H442 0.930 . S
C455 C454 1.376 1_556 S
C455 C456 1.388 . S
C456 H443 0.930 . S
C456 C455 1.388 . S
C456 C457 1.390 . S
C457 C456 1.390 . S
C457 C458 1.394 1_556 S
C457 C463 1.465 . S
C458 C453 1.399 . S
C458 C457 1.394 1_554 S
C458 C459 1.516 . S
C459 C458 1.516 . S
C459 C460 1.502 . S
C459 C461 1.561 . S
C459 C462 1.526 . S
C460 H444 0.959 . S
C460 H445 0.959 . S
C460 H446 0.961 . S
C460 C459 1.502 . S
C461 H447 0.960 . S
C461 H448 0.961 . S
C461 H449 0.959 . S
C461 C459 1.561 . S
C462 C459 1.526 . S
C462 C463 1.396 1_554 S
C462 C467 1.390 . S
C463 C457 1.465 . S
C463 C462 1.396 1_556 S
C463 C464 1.399 . S
C464 H450 0.929 . S
C464 C463 1.399 . S
C464 C465 1.385 . S
C465 H451 0.931 . S
C465 C464 1.385 . S
C465 C466 1.389 1_556 S
C466 C465 1.389 1_554 S
C466 C467 1.387 . S
C467 H452 0.930 . S
C467 C462 1.390 . S
C467 C466 1.387 . S
H468 C480 0.930 . S
H469 C482 0.930 . S
H470 C483 0.930 . S
H471 C487 0.959 . S
H472 C487 0.959 . S
H473 C487 0.961 . S
H474 C488 0.960 . S
H475 C488 0.961 . S
H476 C488 0.959 . S
H477 C491 0.929 . S
H478 C492 0.931 . S
H479 C494 0.930 . S
C480 H468 0.930 . S
C480 C481 1.399 . S
C480 C485 1.399 . S
C481 C480 1.399 . S
C481 C482 1.376 1_554 S
C482 H469 0.930 . S
C482 C481 1.376 1_556 S
C482 C483 1.388 . S
C483 H470 0.930 . S
C483 C482 1.388 . S
C483 C484 1.390 1_556 S
C484 C483 1.390 1_554 S
C484 C485 1.394 . S
C484 C490 1.466 . S
C485 C480 1.399 . S
C485 C484 1.394 . S
C485 C486 1.516 . S
C486 C485 1.516 . S
C486 C487 1.502 . S
C486 C488 1.561 . S
C486 C489 1.526 . S
C487 H471 0.959 . S
C487 H472 0.959 . S
C487 H473 0.961 . S
C487 C486 1.502 . S
C488 H474 0.960 . S
C488 H475 0.961 . S
C488 H476 0.959 . S
C488 C486 1.561 . S
C489 C486 1.526 . S
C489 C490 1.409 . S
C489 C494 1.390 . S
C490 C484 1.466 . S
C490 C489 1.409 . S
C490 C491 1.388 1_554 S
C491 H477 0.929 . S
C491 C490 1.388 1_556 S
C491 C492 1.385 . S
C492 H478 0.931 . S
C492 C491 1.385 . S
C492 C493 1.389 1_556 S
C493 C492 1.389 1_554 S
C493 C494 1.387 . S
C494 H479 0.930 . S
C494 C489 1.390 . S
C494 C493 1.387 . S
H495 C507 0.932 . S
H496 C509 0.930 . S
H497 C510 0.930 . S
H498 C514 0.959 . S
H499 C514 0.959 . S
H500 C514 0.961 . S
H501 C515 0.960 . S
H502 C515 0.961 . S
H503 C515 0.959 . S
H504 C518 0.929 . S
H505 C519 0.931 . S
H506 C521 0.930 . S
C507 H495 0.932 . S
C507 C508 1.397 1_556 S
C507 C512 1.399 1_556 S
C508 C507 1.397 1_554 S
C508 C509 1.376 . S
C509 H496 0.930 . S
C509 C508 1.376 . S
C509 C510 1.388 . S
C510 H497 0.930 . S
C510 C509 1.388 . S
C510 C511 1.390 . S
C511 C510 1.390 . S
C511 C512 1.394 . S
C511 C517 1.465 . S
C512 C507 1.399 1_554 S
C512 C511 1.394 . S
C512 C513 1.516 1_554 S
C513 C512 1.516 1_556 S
C513 C514 1.502 . S
C513 C515 1.561 . S
C513 C516 1.530 . S
C514 H498 0.959 . S
C514 H499 0.959 . S
C514 H500 0.961 . S
C514 C513 1.502 . S
C515 H501 0.960 . S
C515 H502 0.961 . S
C515 H503 0.959 . S
C515 C513 1.561 . S
C516 C513 1.530 . S
C516 C517 1.389 1_556 S
C516 C521 1.392 . S
C517 C511 1.465 . S
C517 C516 1.389 1_554 S
C517 C518 1.399 . S
C518 H504 0.929 . S
C518 C517 1.399 . S
C518 C519 1.385 . S
C519 H505 0.931 . S
C519 C518 1.385 . S
C519 C520 1.389 . S
C520 C519 1.389 . S
C520 C521 1.387 1_554 S
C521 H506 0.930 . S
C521 C516 1.392 . S
C521 C520 1.387 1_556 S
H522 C534 0.930 . S
H523 C536 0.930 . S
H524 C537 0.930 . S
H525 C541 0.959 . S
H526 C541 0.959 . S
H527 C541 0.961 . S
H528 C542 0.960 1_655 S
H529 C542 0.961 . S
H530 C542 0.959 . S
H531 C545 0.929 . S
H532 C546 0.931 . S
H533 C548 0.930 . S
C534 H522 0.930 . S
C534 C535 1.399 . S
C534 C539 1.399 . S
C535 C534 1.399 . S
C535 C536 1.376 . S
C536 H523 0.930 . S
C536 C535 1.376 . S
C536 C537 1.388 . S
C537 H524 0.930 . S
C537 C536 1.388 . S
C537 C538 1.390 . S
C538 C537 1.390 . S
C538 C539 1.394 . S
C538 C544 1.465 1_655 S
C539 C534 1.399 . S
C539 C538 1.394 . S
C539 C540 1.516 1_655 S
C540 C539 1.516 1_455 S
C540 C541 1.502 . S
C540 C542 1.561 . S
C540 C543 1.526 . S
C541 H525 0.959 . S
C541 H526 0.959 . S
C541 H527 0.961 . S
C541 C540 1.502 . S
C542 H528 0.960 1_455 S
C542 H529 0.961 . S
C542 H530 0.959 . S
C542 C540 1.561 . S
C543 C540 1.526 . S
C543 C544 1.396 . S
C543 C548 1.390 . S
C544 C538 1.465 1_455 S
C544 C543 1.396 . S
C544 C545 1.399 . S
C545 H531 0.929 . S
C545 C544 1.399 . S
C545 C546 1.385 . S
C546 H532 0.931 . S
C546 C545 1.385 . S
C546 C547 1.389 . S
C547 C546 1.389 . S
C547 C548 1.387 . S
C548 H533 0.930 . S
C548 C543 1.390 . S
C548 C547 1.387 . S
H549 C561 0.930 . S
H550 C563 0.930 . S
H551 C564 0.930 . S
H552 C568 0.959 . S
H553 C568 0.959 . S
H554 C568 0.961 . S
H555 C569 0.960 . S
H556 C569 0.961 . S
H557 C569 0.959 . S
H558 C572 0.929 . S
H559 C573 0.931 . S
H560 C575 0.930 . S
C561 H549 0.930 . S
C561 C562 1.399 . S
C561 C566 1.399 . S
C562 C561 1.399 . S
C562 C563 1.376 . S
C563 H550 0.930 . S
C563 C562 1.376 . S
C563 C564 1.388 . S
C564 H551 0.930 . S
C564 C563 1.388 . S
C564 C565 1.390 . S
C565 C564 1.390 . S
C565 C566 1.394 . S
C565 C571 1.465 . S
C566 C561 1.399 . S
C566 C565 1.394 . S
C566 C567 1.516 . S
C567 C566 1.516 . S
C567 C568 1.502 . S
C567 C569 1.561 . S
C567 C570 1.526 . S
C568 H552 0.959 . S
C568 H553 0.959 . S
C568 H554 0.961 . S
C568 C567 1.502 . S
C569 H555 0.960 . S
C569 H556 0.961 . S
C569 H557 0.959 . S
C569 C567 1.561 . S
C570 C567 1.526 . S
C570 C571 1.396 . S
C570 C575 1.390 . S
C571 C565 1.465 . S
C571 C570 1.396 . S
C571 C572 1.399 . S
C572 H558 0.929 . S
C572 C571 1.399 . S
C572 C573 1.385 . S
C573 H559 0.931 . S
C573 C572 1.385 . S
C573 C574 1.389 . S
C574 C573 1.389 . S
C574 C575 1.387 . S
C575 H560 0.930 . S
C575 C570 1.390 . S
C575 C574 1.387 . S
H576 C588 0.930 . S
H577 C590 0.930 . S
H578 C591 0.930 . S
H579 C595 0.959 . S
H580 C595 0.959 . S
H581 C595 0.961 . S
H582 C596 0.960 . S
H583 C596 0.961 1_565 S
H584 C596 0.959 . S
H585 C599 0.929 . S
H586 C600 0.931 . S
H587 C602 0.930 . S
C588 H576 0.930 . S
C588 C589 1.399 . S
C588 C593 1.399 . S
C589 C588 1.399 . S
C589 C590 1.376 . S
C590 H577 0.930 . S
C590 C589 1.376 . S
C590 C591 1.388 . S
C591 H578 0.930 . S
C591 C590 1.388 . S
C591 C592 1.390 . S
C592 C591 1.390 . S
C592 C593 1.394 . S
C592 C598 1.465 1_545 S
C593 C588 1.399 . S
C593 C592 1.394 . S
C593 C594 1.516 1_545 S
C594 C593 1.516 1_565 S
C594 C595 1.502 . S
C594 C596 1.561 1_565 S
C594 C597 1.526 . S
C595 H579 0.959 . S
C595 H580 0.959 . S
C595 H581 0.961 . S
C595 C594 1.502 . S
C596 H582 0.960 . S
C596 H583 0.961 1_545 S
C596 H584 0.959 . S
C596 C594 1.561 1_545 S
C597 C594 1.526 . S
C597 C598 1.396 . S
C597 C602 1.390 . S
C598 C592 1.465 1_565 S
C598 C597 1.396 . S
C598 C599 1.399 . S
C599 H585 0.929 . S
C599 C598 1.399 . S
C599 C600 1.385 . S
C600 H586 0.931 . S
C600 C599 1.385 . S
C600 C601 1.389 . S
C601 C600 1.389 . S
C601 C602 1.387 . S
C602 H587 0.930 . S
C602 C597 1.390 . S
C602 C601 1.387 . S
H603 C615 0.930 . S
H604 C617 0.930 . S
H605 C618 0.930 . S
H606 C622 0.959 . S
H607 C622 0.959 . S
H608 C622 0.961 . S
H609 C623 0.960 . S
H610 C623 0.961 . S
H611 C623 0.959 . S
H612 C626 0.929 . S
H613 C627 0.931 . S
H614 C629 0.930 . S
C615 H603 0.930 . S
C615 C616 1.399 . S
C615 C620 1.399 . S
C616 C615 1.399 . S
C616 C617 1.376 . S
C617 H604 0.930 . S
C617 C616 1.376 . S
C617 C618 1.388 . S
C618 H605 0.930 . S
C618 C617 1.388 . S
C618 C619 1.390 . S
C619 C618 1.390 . S
C619 C620 1.394 . S
C619 C625 1.465 . S
C620 C615 1.399 . S
C620 C619 1.394 . S
C620 C621 1.516 . S
C621 C620 1.516 . S
C621 C622 1.502 . S
C621 C623 1.561 . S
C621 C624 1.526 . S
C622 H606 0.959 . S
C622 H607 0.959 . S
C622 H608 0.961 . S
C622 C621 1.502 . S
C623 H609 0.960 . S
C623 H610 0.961 . S
C623 H611 0.959 . S
C623 C621 1.561 . S
C624 C621 1.526 . S
C624 C625 1.396 . S
C624 C629 1.390 . S
C625 C619 1.465 . S
C625 C624 1.396 . S
C625 C626 1.399 . S
C626 H612 0.929 . S
C626 C625 1.399 . S
C626 C627 1.385 . S
C627 H613 0.931 . S
C627 C626 1.385 . S
C627 C628 1.389 . S
C628 C627 1.389 . S
C628 C629 1.387 . S
C629 H614 0.930 . S
C629 C624 1.390 . S
C629 C628 1.387 . S
H630 C642 0.930 . S
H631 C644 0.930 . S
H632 C645 0.930 . S
H633 C649 0.959 . S
H634 C649 0.959 . S
H635 C649 0.961 . S
H636 C650 0.960 . S
H637 C650 0.961 . S
H638 C650 0.959 . S
H639 C653 0.929 . S
H640 C654 0.931 . S
H641 C656 0.930 . S
C642 H630 0.930 . S
C642 C643 1.399 . S
C642 C647 1.399 . S
C643 C642 1.399 . S
C643 C644 1.376 . S
C644 H631 0.930 . S
C644 C643 1.376 . S
C644 C645 1.388 . S
C645 H632 0.930 . S
C645 C644 1.388 . S
C645 C646 1.390 . S
C646 C645 1.390 . S
C646 C647 1.394 . S
C646 C652 1.465 . S
C647 C642 1.399 . S
C647 C646 1.394 . S
C647 C648 1.516 . S
C648 C647 1.516 . S
C648 C649 1.502 . S
C648 C650 1.561 . S
C648 C651 1.526 . S
C649 H633 0.959 . S
C649 H634 0.959 . S
C649 H635 0.961 . S
C649 C648 1.502 . S
C650 H636 0.960 . S
C650 H637 0.961 . S
C650 H638 0.959 . S
C650 C648 1.561 . S
C651 C648 1.526 . S
C651 C652 1.396 . S
C651 C656 1.390 . S
C652 C646 1.465 . S
C652 C651 1.396 . S
C652 C653 1.399 . S
C653 H639 0.929 . S
C653 C652 1.399 . S
C653 C654 1.385 . S
C654 H640 0.931 . S
C654 C653 1.385 . S
C654 C655 1.389 . S
C655 C654 1.389 . S
C655 C656 1.387 . S
C656 H641 0.930 . S
C656 C651 1.390 . S
C656 C655 1.387 . S
H657 C669 0.930 . S
H658 C671 0.930 . S
H659 C672 0.930 . S
H660 C676 0.959 . S
H661 C676 0.959 . S
H662 C676 0.961 . S
H663 C677 0.960 . S
H664 C677 0.961 . S
H665 C677 0.959 . S
H666 C680 0.929 . S
H667 C681 0.931 . S
H668 C683 0.930 . S
C669 H657 0.930 . S
C669 C670 1.399 . S
C669 C674 1.399 . S
C670 C669 1.399 . S
C670 C671 1.376 . S
C671 H658 0.930 . S
C671 C670 1.376 . S
C671 C672 1.388 . S
C672 H659 0.930 . S
C672 C671 1.388 . S
C672 C673 1.390 . S
C673 C672 1.390 . S
C673 C674 1.394 . S
C673 C679 1.465 . S
C674 C669 1.399 . S
C674 C673 1.394 . S
C674 C675 1.516 . S
C675 C674 1.516 . S
C675 C676 1.502 . S
C675 C677 1.561 . S
C675 C678 1.526 . S
C676 H660 0.959 . S
C676 H661 0.959 . S
C676 H662 0.961 . S
C676 C675 1.502 . S
C677 H663 0.960 . S
C677 H664 0.961 . S
C677 H665 0.959 . S
C677 C675 1.561 . S
C678 C675 1.526 . S
C678 C679 1.396 . S
C678 C683 1.390 . S
C679 C673 1.465 . S
C679 C678 1.396 . S
C679 C680 1.399 . S
C680 H666 0.929 . S
C680 C679 1.399 . S
C680 C681 1.385 . S
C681 H667 0.931 . S
C681 C680 1.385 . S
C681 C682 1.389 . S
C682 C681 1.389 . S
C682 C683 1.387 . S
C683 H668 0.930 . S
C683 C678 1.390 . S
C683 C682 1.387 . S
H684 C696 0.930 . S
H685 C698 0.930 . S
H686 C699 0.930 . S
H687 C703 0.959 . S
H688 C703 0.959 . S
H689 C703 0.961 . S
H690 C704 0.960 . S
H691 C704 0.961 . S
H692 C704 0.959 . S
H693 C707 0.929 . S
H694 C708 0.931 . S
H695 C710 0.930 . S
C696 H684 0.930 . S
C696 C697 1.399 . S
C696 C701 1.399 . S
C697 C696 1.399 . S
C697 C698 1.376 . S
C698 H685 0.930 . S
C698 C697 1.376 . S
C698 C699 1.388 . S
C699 H686 0.930 . S
C699 C698 1.388 . S
C699 C700 1.390 . S
C700 C699 1.390 . S
C700 C701 1.394 . S
C700 C706 1.465 . S
C701 C696 1.399 . S
C701 C700 1.394 . S
C701 C702 1.516 . S
C702 C701 1.516 . S
C702 C703 1.502 . S
C702 C704 1.561 . S
C702 C705 1.526 . S
C703 H687 0.959 . S
C703 H688 0.959 . S
C703 H689 0.961 . S
C703 C702 1.502 . S
C704 H690 0.960 . S
C704 H691 0.961 . S
C704 H692 0.959 . S
C704 C702 1.561 . S
C705 C702 1.526 . S
C705 C706 1.396 . S
C705 C710 1.390 . S
C706 C700 1.465 . S
C706 C705 1.396 . S
C706 C707 1.399 . S
C707 H693 0.929 . S
C707 C706 1.399 . S
C707 C708 1.385 . S
C708 H694 0.931 . S
C708 C707 1.385 . S
C708 C709 1.389 . S
C709 C708 1.389 . S
C709 C710 1.387 . S
C710 H695 0.930 . S
C710 C705 1.390 . S
C710 C709 1.387 . S
H711 C723 0.930 . S
H712 C725 0.930 . S
H713 C726 0.930 . S
H714 C730 0.959 . S
H715 C730 0.959 . S
H716 C730 0.961 . S
H717 C731 0.960 . S
H718 C731 0.961 . S
H719 C731 0.959 . S
H720 C734 0.929 . S
H721 C735 0.931 . S
H722 C737 0.930 . S
C723 H711 0.930 . S
C723 C724 1.399 . S
C723 C728 1.399 . S
C724 C723 1.399 . S
C724 C725 1.376 . S
C725 H712 0.930 . S
C725 C724 1.376 . S
C725 C726 1.388 . S
C726 H713 0.930 . S
C726 C725 1.388 . S
C726 C727 1.390 . S
C727 C726 1.390 . S
C727 C728 1.394 . S
C727 C733 1.465 . S
C728 C723 1.399 . S
C728 C727 1.394 . S
C728 C729 1.516 . S
C729 C728 1.516 . S
C729 C730 1.502 . S
C729 C731 1.561 . S
C729 C732 1.526 . S
C730 H714 0.959 . S
C730 H715 0.959 . S
C730 H716 0.961 . S
C730 C729 1.502 . S
C731 H717 0.960 . S
C731 H718 0.961 . S
C731 H719 0.959 . S
C731 C729 1.561 . S
C732 C729 1.526 . S
C732 C733 1.396 . S
C732 C737 1.390 . S
C733 C727 1.465 . S
C733 C732 1.396 . S
C733 C734 1.399 . S
C734 H720 0.929 . S
C734 C733 1.399 . S
C734 C735 1.385 . S
C735 H721 0.931 . S
C735 C734 1.385 . S
C735 C736 1.389 . S
C736 C735 1.389 . S
C736 C737 1.387 . S
C737 H722 0.930 . S
C737 C732 1.390 . S
C737 C736 1.387 . S
H738 C750 0.930 . S
H739 C752 0.930 . S
H740 C753 0.930 . S
H741 C757 0.959 . S
H742 C757 0.959 . S
H743 C757 0.961 . S
H744 C758 0.960 . S
H745 C758 0.961 . S
H746 C758 0.959 . S
H747 C761 0.929 . S
H748 C762 0.931 . S
H749 C764 0.930 . S
C750 H738 0.930 . S
C750 C751 1.399 . S
C750 C755 1.399 . S
C751 C750 1.399 . S
C751 C752 1.376 . S
C752 H739 0.930 . S
C752 C751 1.376 . S
C752 C753 1.388 . S
C753 H740 0.930 . S
C753 C752 1.388 . S
C753 C754 1.390 . S
C754 C753 1.390 . S
C754 C755 1.394 . S
C754 C760 1.465 . S
C755 C750 1.399 . S
C755 C754 1.394 . S
C755 C756 1.516 . S
C756 C755 1.516 . S
C756 C757 1.502 . S
C756 C758 1.561 . S
C756 C759 1.526 . S
C757 H741 0.959 . S
C757 H742 0.959 . S
C757 H743 0.961 . S
C757 C756 1.502 . S
C758 H744 0.960 . S
C758 H745 0.961 . S
C758 H746 0.959 . S
C758 C756 1.561 . S
C759 C756 1.526 . S
C759 C760 1.396 . S
C759 C764 1.390 . S
C760 C754 1.465 . S
C760 C759 1.396 . S
C760 C761 1.399 . S
C761 H747 0.929 . S
C761 C760 1.399 . S
C761 C762 1.385 . S
C762 H748 0.931 . S
C762 C761 1.385 . S
C762 C763 1.389 . S
C763 C762 1.389 . S
C763 C764 1.387 . S
C764 H749 0.930 . S
C764 C759 1.390 . S
C764 C763 1.387 . S
H765 C777 0.930 . S
H766 C779 0.930 . S
H767 C780 0.930 . S
H768 C784 0.959 . S
H769 C784 0.959 . S
H770 C784 0.961 . S
H771 C785 0.960 . S
H772 C785 0.961 . S
H773 C785 0.959 . S
H774 C788 0.929 . S
H775 C789 0.931 . S
H776 C791 0.930 . S
C777 H765 0.930 . S
C777 C778 1.399 . S
C777 C782 1.399 . S
C778 C777 1.399 . S
C778 C779 1.376 . S
C779 H766 0.930 . S
C779 C778 1.376 . S
C779 C780 1.388 . S
C780 H767 0.930 . S
C780 C779 1.388 . S
C780 C781 1.390 . S
C781 C780 1.390 . S
C781 C782 1.394 . S
C781 C787 1.465 . S
C782 C777 1.399 . S
C782 C781 1.394 . S
C782 C783 1.516 . S
C783 C782 1.516 . S
C783 C784 1.502 . S
C783 C785 1.561 . S
C783 C786 1.526 . S
C784 H768 0.959 . S
C784 H769 0.959 . S
C784 H770 0.961 . S
C784 C783 1.502 . S
C785 H771 0.960 . S
C785 H772 0.961 . S
C785 H773 0.959 . S
C785 C783 1.561 . S
C786 C783 1.526 . S
C786 C787 1.396 . S
C786 C791 1.390 1_565 S
C787 C781 1.465 . S
C787 C786 1.396 . S
C787 C788 1.399 . S
C788 H774 0.929 . S
C788 C787 1.399 . S
C788 C789 1.385 1_565 S
C789 H775 0.931 . S
C789 C788 1.385 1_545 S
C789 C790 1.389 . S
C790 C789 1.389 . S
C790 C791 1.387 . S
C791 H776 0.930 . S
C791 C786 1.390 1_545 S
C791 C790 1.387 . S
H792 C804 0.930 . S
H793 C806 0.930 . S
H794 C807 0.930 1_545 S
H795 C811 0.959 . S
H796 C811 0.959 . S
H797 C811 0.961 . S
H798 C812 0.960 . S
H799 C812 0.961 . S
H800 C812 0.959 1_545 S
H801 C815 0.929 . S
H802 C816 0.931 . S
H803 C818 0.930 . S
C804 H792 0.930 . S
C804 C805 1.399 . S
C804 C809 1.399 . S
C805 C804 1.399 . S
C805 C806 1.376 . S
C806 H793 0.930 . S
C806 C805 1.376 . S
C806 C807 1.388 . S
C807 H794 0.930 1_565 S
C807 C806 1.388 . S
C807 C808 1.390 . S
C808 C807 1.390 . S
C808 C809 1.394 . S
C808 C814 1.465 . S
C809 C804 1.399 . S
C809 C808 1.394 . S
C809 C810 1.516 . S
C810 C809 1.516 . S
C810 C811 1.502 . S
C810 C812 1.561 . S
C810 C813 1.526 . S
C811 H795 0.959 . S
C811 H796 0.959 . S
C811 H797 0.961 . S
C811 C810 1.502 . S
C812 H798 0.960 . S
C812 H799 0.961 . S
C812 H800 0.959 1_565 S
C812 C810 1.561 . S
C813 C810 1.526 . S
C813 C814 1.396 . S
C813 C818 1.390 . S
C814 C808 1.465 . S
C814 C813 1.396 . S
C814 C815 1.399 1_565 S
C815 H801 0.929 . S
C815 C814 1.399 1_545 S
C815 C816 1.385 . S
C816 H802 0.931 . S
C816 C815 1.385 . S
C816 C817 1.389 . S
C817 C816 1.389 . S
C817 C818 1.387 1_545 S
C818 H803 0.930 . S
C818 C813 1.390 . S
C818 C817 1.387 1_565 S
H819 C831 0.930 . S
H820 C833 0.930 . S
H821 C834 0.930 . S
H822 C838 0.959 . S
H823 C838 0.959 . S
H824 C838 0.961 . S
H825 C839 0.960 . S
H826 C839 0.961 . S
H827 C839 0.959 . S
H828 C842 0.929 . S
H829 C843 0.931 . S
H830 C845 0.930 . S
C831 H819 0.930 . S
C831 C832 1.399 . S
C831 C836 1.399 . S
C832 C831 1.399 . S
C832 C833 1.376 . S
C833 H820 0.930 . S
C833 C832 1.376 . S
C833 C834 1.388 . S
C834 H821 0.930 . S
C834 C833 1.388 . S
C834 C835 1.390 . S
C835 C834 1.390 . S
C835 C836 1.394 . S
C835 C841 1.465 . S
C836 C831 1.399 . S
C836 C835 1.394 . S
C836 C837 1.516 . S
C837 C836 1.516 . S
C837 C838 1.502 . S
C837 C839 1.561 . S
C837 C840 1.526 . S
C838 H822 0.959 . S
C838 H823 0.959 . S
C838 H824 0.961 . S
C838 C837 1.502 . S
C839 H825 0.960 . S
C839 H826 0.961 . S
C839 H827 0.959 . S
C839 C837 1.561 . S
C840 C837 1.526 . S
C840 C841 1.396 . S
C840 C845 1.390 . S
C841 C835 1.465 . S
C841 C840 1.396 . S
C841 C842 1.399 . S
C842 H828 0.929 . S
C842 C841 1.399 . S
C842 C843 1.385 . S
C843 H829 0.931 . S
C843 C842 1.385 . S
C843 C844 1.389 . S
C844 C843 1.389 . S
C844 C845 1.387 . S
C845 H830 0.930 . S
C845 C840 1.390 . S
C845 C844 1.387 . S
H846 C858 0.930 . S
H847 C860 0.930 . S
H848 C861 0.930 . S
H849 C865 0.959 . S
H850 C865 0.959 . S
H851 C865 0.961 . S
H852 C866 0.960 . S
H853 C866 0.961 . S
H854 C866 0.959 . S
H855 C869 0.929 . S
H856 C870 0.931 . S
H857 C872 0.930 . S
C858 H846 0.930 . S
C858 C859 1.399 . S
C858 C863 1.399 . S
C859 C858 1.399 . S
C859 C860 1.376 . S
C860 H847 0.930 . S
C860 C859 1.376 . S
C860 C861 1.388 . S
C861 H848 0.930 . S
C861 C860 1.388 . S
C861 C862 1.390 . S
C862 C861 1.390 . S
C862 C863 1.394 . S
C862 C868 1.465 . S
C863 C858 1.399 . S
C863 C862 1.394 . S
C863 C864 1.516 . S
C864 C863 1.516 . S
C864 C865 1.502 . S
C864 C866 1.561 . S
C864 C867 1.526 . S
C865 H849 0.959 . S
C865 H850 0.959 . S
C865 H851 0.961 . S
C865 C864 1.502 . S
C866 H852 0.960 . S
C866 H853 0.961 . S
C866 H854 0.959 . S
C866 C864 1.561 . S
C867 C864 1.526 . S
C867 C868 1.396 . S
C867 C872 1.390 . S
C868 C862 1.465 . S
C868 C867 1.396 . S
C868 C869 1.399 . S
C869 H855 0.929 . S
C869 C868 1.399 . S
C869 C870 1.385 . S
C870 H856 0.931 . S
C870 C869 1.385 . S
C870 C871 1.389 . S
C871 C870 1.389 . S
C871 C872 1.387 . S
C872 H857 0.930 . S
C872 C867 1.390 . S
C872 C871 1.387 . S
H873 C885 0.930 . S
H874 C887 0.930 . S
H875 C888 0.930 . S
H876 C892 0.959 . S
H877 C892 0.959 . S
H878 C892 0.961 . S
H879 C893 0.960 . S
H880 C893 0.961 . S
H881 C893 0.959 . S
H882 C896 0.929 . S
H883 C897 0.931 . S
H884 C899 0.930 . S
C885 H873 0.930 . S
C885 C886 1.399 . S
C885 C890 1.399 . S
C886 C885 1.399 . S
C886 C887 1.376 . S
C887 H874 0.930 . S
C887 C886 1.376 . S
C887 C888 1.388 . S
C888 H875 0.930 . S
C888 C887 1.388 . S
C888 C889 1.390 . S
C889 C888 1.390 . S
C889 C890 1.394 . S
C889 C895 1.465 . S
C890 C885 1.399 . S
C890 C889 1.394 . S
C890 C891 1.516 . S
C891 C890 1.516 . S
C891 C892 1.502 . S
C891 C893 1.561 . S
C891 C894 1.526 . S
C892 H876 0.959 . S
C892 H877 0.959 . S
C892 H878 0.961 . S
C892 C891 1.502 . S
C893 H879 0.960 . S
C893 H880 0.961 . S
C893 H881 0.959 . S
C893 C891 1.561 . S
C894 C891 1.526 . S
C894 C895 1.396 . S
C894 C899 1.390 . S
C895 C889 1.465 . S
C895 C894 1.396 . S
C895 C896 1.399 . S
C896 H882 0.929 . S
C896 C895 1.399 . S
C896 C897 1.385 . S
C897 H883 0.931 . S
C897 C896 1.385 . S
C897 C898 1.389 . S
C898 C897 1.389 . S
C898 C899 1.387 . S
C899 H884 0.930 . S
C899 C894 1.390 . S
C899 C898 1.387 . S
H900 C912 0.930 . S
H901 C914 0.930 1_545 S
H902 C915 0.907 1_545 S
H903 C919 0.959 . S
H904 C919 0.959 . S
H905 C919 0.961 . S
H906 C920 0.960 . S
H907 C920 0.961 . S
H908 C920 0.959 . S
H909 C923 0.929 . S
H910 C924 0.931 . S
H911 C926 0.930 . S
C912 H900 0.930 . S
C912 C913 1.399 . S
C912 C917 1.399 . S
C913 C912 1.399 . S
C913 C914 1.376 . S
C914 H901 0.930 1_565 S
C914 C913 1.376 . S
C914 C915 1.388 . S
C915 H902 0.907 1_565 S
C915 C914 1.388 . S
C915 C916 1.390 . S
C916 C915 1.390 . S
C916 C917 1.394 . S
C916 C922 1.465 . S
C917 C912 1.399 . S
C917 C916 1.394 . S
C917 C918 1.516 . S
C918 C917 1.516 . S
C918 C919 1.502 . S
C918 C920 1.561 . S
C918 C921 1.526 . S
C919 H903 0.959 . S
C919 H904 0.959 . S
C919 H905 0.961 . S
C919 C918 1.502 . S
C920 H906 0.960 . S
C920 H907 0.961 . S
C920 H908 0.959 . S
C920 C918 1.561 . S
C921 C918 1.526 . S
C921 C922 1.396 . S
C921 C926 1.390 . S
C922 C916 1.465 . S
C922 C921 1.396 . S
C922 C923 1.399 . S
C923 H909 0.929 . S
C923 C922 1.399 . S
C923 C924 1.385 . S
C924 H910 0.931 . S
C924 C923 1.385 . S
C924 C925 1.389 . S
C925 C924 1.389 . S
C925 C926 1.387 . S
C926 H911 0.930 . S
C926 C921 1.390 . S
C926 C925 1.387 . S
H927 C939 0.930 1_565 S
H928 C941 0.930 . S
H929 C942 0.930 . S
H930 C946 0.959 . S
H931 C946 0.959 . S
H932 C946 0.961 1_565 S
H933 C947 0.960 . S
H934 C947 0.961 . S
H935 C947 0.959 . S
H936 C950 0.929 . S
H937 C951 0.931 . S
H938 C953 0.930 . S
C939 H927 0.930 1_545 S
C939 C940 1.399 . S
C939 C944 1.399 . S
C940 C939 1.399 . S
C940 C941 1.376 . S
C941 H928 0.930 . S
C941 C940 1.376 . S
C941 C942 1.388 . S
C942 H929 0.930 . S
C942 C941 1.388 . S
C942 C943 1.390 . S
C943 C942 1.390 . S
C943 C944 1.394 . S
C943 C949 1.465 . S
C944 C939 1.399 . S
C944 C943 1.394 . S
C944 C945 1.516 . S
C945 C944 1.516 . S
C945 C946 1.502 . S
C945 C947 1.561 1_545 S
C945 C948 1.526 . S
C946 H930 0.959 . S
C946 H931 0.959 . S
C946 H932 0.961 1_545 S
C946 C945 1.502 . S
C947 H933 0.960 . S
C947 H934 0.961 . S
C947 H935 0.959 . S
C947 C945 1.561 1_565 S
C948 C945 1.526 . S
C948 C949 1.396 . S
C948 C953 1.390 . S
C949 C943 1.465 . S
C949 C948 1.396 . S
C949 C950 1.399 . S
C950 H936 0.929 . S
C950 C949 1.399 . S
C950 C951 1.385 . S
C951 H937 0.931 . S
C951 C950 1.385 . S
C951 C952 1.389 . S
C952 C951 1.389 . S
C952 C953 1.387 . S
C953 H938 0.930 . S
C953 C948 1.390 . S
C953 C952 1.387 . S
H954 C966 0.930 . S
H955 C968 0.930 . S
H956 C969 0.930 . S
H957 C973 0.959 . S
H958 C973 0.959 . S
H959 C973 0.961 1_455 S
H960 C974 0.960 . S
H961 C974 0.961 . S
H962 C974 0.959 . S
H963 C977 0.929 . S
H964 C978 0.931 . S
H965 C980 0.930 . S
C966 H954 0.930 . S
C966 C967 1.399 . S
C966 C971 1.399 . S
C967 C966 1.399 . S
C967 C968 1.376 . S
C968 H955 0.930 . S
C968 C967 1.376 . S
C968 C969 1.388 . S
C969 H956 0.930 . S
C969 C968 1.388 . S
C969 C970 1.390 . S
C970 C969 1.390 . S
C970 C971 1.394 . S
C970 C976 1.465 . S
C971 C966 1.399 . S
C971 C970 1.394 . S
C971 C972 1.516 . S
C972 C971 1.516 . S
C972 C973 1.502 . S
C972 C974 1.561 . S
C972 C975 1.526 . S
C973 H957 0.959 . S
C973 H958 0.959 . S
C973 H959 0.961 1_655 S
C973 C972 1.502 . S
C974 H960 0.960 . S
C974 H961 0.961 . S
C974 H962 0.959 . S
C974 C972 1.561 . S
C975 C972 1.526 . S
C975 C976 1.396 . S
C975 C980 1.390 . S
C976 C970 1.465 . S
C976 C975 1.396 . S
C976 C977 1.399 . S
C977 H963 0.929 . S
C977 C976 1.399 . S
C977 C978 1.385 . S
C978 H964 0.931 . S
C978 C977 1.385 . S
C978 C979 1.389 . S
C979 C978 1.389 . S
C979 C980 1.387 . S
C980 H965 0.930 . S
C980 C975 1.390 . S
C980 C979 1.387 . S
H981 C993 0.930 . S
H982 C995 0.930 . S
H983 C996 0.930 . S
H984 C1000 0.959 . S
H985 C1000 0.959 . S
H986 C1000 0.961 . S
H987 C1001 0.960 . S
H988 C1001 0.961 . S
H989 C1001 0.959 . S
H990 C1004 0.929 . S
H991 C1005 0.931 . S
H992 C1007 0.930 . S
C993 H981 0.930 . S
C993 C994 1.399 . S
C993 C998 1.399 . S
C994 C993 1.399 . S
C994 C995 1.376 . S
C995 H982 0.930 . S
C995 C994 1.376 . S
C995 C996 1.388 . S
C996 H983 0.930 . S
C996 C995 1.388 . S
C996 C997 1.390 . S
C997 C996 1.390 . S
C997 C998 1.394 . S
C997 C1003 1.465 . S
C998 C993 1.399 . S
C998 C997 1.394 . S
C998 C999 1.516 . S
C999 C998 1.516 . S
C999 C1000 1.502 . S
C999 C1001 1.561 . S
C999 C1002 1.526 . S
C1000 H984 0.959 . S
C1000 H985 0.959 . S
C1000 H986 0.961 . S
C1000 C999 1.502 . S
C1001 H987 0.960 . S
C1001 H988 0.961 . S
C1001 H989 0.959 . S
C1001 C999 1.561 . S
C1002 C999 1.526 . S
C1002 C1003 1.396 . S
C1002 C1007 1.390 . S
C1003 C997 1.465 . S
C1003 C1002 1.396 . S
C1003 C1004 1.399 . S
C1004 H990 0.929 . S
C1004 C1003 1.399 . S
C1004 C1005 1.385 . S
C1005 H991 0.931 . S
C1005 C1004 1.385 . S
C1005 C1006 1.389 . S
C1006 C1005 1.389 . S
C1006 C1007 1.387 . S
C1007 H992 0.930 . S
C1007 C1002 1.390 . S
C1007 C1006 1.387 . S
H1008 C1020 0.930 . S
H1009 C1022 0.930 . S
H1010 C1023 0.930 . S
H1011 C1027 0.959 . S
H1012 C1027 0.959 . S
H1013 C1027 0.961 . S
H1014 C1028 0.960 . S
H1015 C1028 0.961 . S
H1016 C1028 0.959 . S
H1017 C1031 0.929 . S
H1018 C1032 0.931 . S
H1019 C1034 0.930 . S
C1020 H1008 0.930 . S
C1020 C1021 1.399 . S
C1020 C1025 1.399 . S
C1021 C1020 1.399 . S
C1021 C1022 1.376 . S
C1022 H1009 0.930 . S
C1022 C1021 1.376 . S
C1022 C1023 1.388 . S
C1023 H1010 0.930 . S
C1023 C1022 1.388 . S
C1023 C1024 1.390 . S
C1024 C1023 1.390 . S
C1024 C1025 1.394 . S
C1024 C1030 1.465 . S
C1025 C1020 1.399 . S
C1025 C1024 1.394 . S
C1025 C1026 1.516 . S
C1026 C1025 1.516 . S
C1026 C1027 1.502 . S
C1026 C1028 1.561 . S
C1026 C1029 1.526 . S
C1027 H1011 0.959 . S
C1027 H1012 0.959 . S
C1027 H1013 0.961 . S
C1027 C1026 1.502 . S
C1028 H1014 0.960 . S
C1028 H1015 0.961 . S
C1028 H1016 0.959 . S
C1028 C1026 1.561 . S
C1029 C1026 1.526 . S
C1029 C1030 1.396 . S
C1029 C1034 1.390 . S
C1030 C1024 1.465 . S
C1030 C1029 1.396 . S
C1030 C1031 1.399 . S
C1031 H1017 0.929 . S
C1031 C1030 1.399 . S
C1031 C1032 1.385 . S
C1032 H1018 0.931 . S
C1032 C1031 1.385 . S
C1032 C1033 1.389 . S
C1033 C1032 1.389 . S
C1033 C1034 1.387 . S
C1034 H1019 0.930 . S
C1034 C1029 1.390 . S
C1034 C1033 1.387 . S
H1035 C1047 0.930 . S
H1036 C1049 0.930 . S
H1037 C1050 0.930 . S
H1038 C1054 0.959 1_565 S
H1039 C1054 0.959 . S
H1040 C1054 0.961 . S
H1041 C1055 0.960 . S
H1042 C1055 0.961 . S
H1043 C1055 0.959 . S
H1044 C1058 0.929 1_565 S
H1045 C1059 0.931 . S
H1046 C1061 0.930 . S
C1047 H1035 0.930 . S
C1047 C1048 1.399 . S
C1047 C1052 1.399 . S
C1048 C1047 1.399 . S
C1048 C1049 1.376 . S
C1049 H1036 0.930 . S
C1049 C1048 1.376 . S
C1049 C1050 1.388 . S
C1050 H1037 0.930 . S
C1050 C1049 1.388 . S
C1050 C1051 1.390 . S
C1051 C1050 1.390 . S
C1051 C1052 1.394 . S
C1051 C1057 1.465 1_565 S
C1052 C1047 1.399 . S
C1052 C1051 1.394 . S
C1052 C1053 1.516 1_565 S
C1053 C1052 1.516 1_545 S
C1053 C1054 1.502 . S
C1053 C1055 1.561 . S
C1053 C1056 1.526 . S
C1054 H1038 0.959 1_545 S
C1054 H1039 0.959 . S
C1054 H1040 0.961 . S
C1054 C1053 1.502 . S
C1055 H1041 0.960 . S
C1055 H1042 0.961 . S
C1055 H1043 0.959 . S
C1055 C1053 1.561 . S
C1056 C1053 1.526 . S
C1056 C1057 1.396 . S
C1056 C1061 1.390 . S
C1057 C1051 1.465 1_545 S
C1057 C1056 1.396 . S
C1057 C1058 1.399 . S
C1058 H1044 0.929 1_545 S
C1058 C1057 1.399 . S
C1058 C1059 1.385 . S
C1059 H1045 0.931 . S
C1059 C1058 1.385 . S
C1059 C1060 1.389 . S
C1060 C1059 1.389 . S
C1060 C1061 1.387 . S
C1061 H1046 0.930 . S
C1061 C1056 1.390 . S
C1061 C1060 1.387 . S
H1062 C1074 0.930 . S
H1063 C1076 0.930 . S
H1064 C1077 0.930 . S
H1065 C1081 0.959 . S
H1066 C1081 0.959 . S
H1067 C1081 0.961 . S
H1068 C1082 0.960 . S
H1069 C1082 0.961 . S
H1070 C1082 0.959 . S
H1071 C1085 0.929 . S
H1072 C1086 0.931 . S
H1073 C1088 0.930 . S
C1074 H1062 0.930 . S
C1074 C1075 1.399 . S
C1074 C1079 1.399 . S
C1075 C1074 1.399 . S
C1075 C1076 1.376 . S
C1076 H1063 0.930 . S
C1076 C1075 1.376 . S
C1076 C1077 1.388 . S
C1077 H1064 0.930 . S
C1077 C1076 1.388 . S
C1077 C1078 1.390 . S
C1078 C1077 1.390 . S
C1078 C1079 1.394 . S
C1078 C1084 1.465 1_655 S
C1079 C1074 1.399 . S
C1079 C1078 1.394 . S
C1079 C1080 1.516 1_655 S
C1080 C1079 1.516 1_455 S
C1080 C1081 1.502 . S
C1080 C1082 1.561 . S
C1080 C1083 1.526 . S
C1081 H1065 0.959 . S
C1081 H1066 0.959 . S
C1081 H1067 0.961 . S
C1081 C1080 1.502 . S
C1082 H1068 0.960 . S
C1082 H1069 0.961 . S
C1082 H1070 0.959 . S
C1082 C1080 1.561 . S
C1083 C1080 1.526 . S
C1083 C1084 1.396 . S
C1083 C1088 1.390 . S
C1084 C1078 1.465 1_455 S
C1084 C1083 1.396 . S
C1084 C1085 1.399 . S
C1085 H1071 0.929 . S
C1085 C1084 1.399 . S
C1085 C1086 1.385 . S
C1086 H1072 0.931 . S
C1086 C1085 1.385 . S
C1086 C1087 1.389 . S
C1087 C1086 1.389 . S
C1087 C1088 1.387 . S
C1088 H1073 0.930 . S
C1088 C1083 1.390 . S
C1088 C1087 1.387 . S
C373 C66 0.643 . S
C385 C17 0.573 1_556 S
C400 C104 3.343 1_556 S
C412 C53 3.373 . S
C427 C97 0.949 . S
C439 C24 0.995 . S
C454 C93 2.998 . S
C466 C64 2.995 . S
C481 C106 1.960 . S
C493 C13 2.000 . S
C508 C26 0.636 . S
C520 C57 0.743 . S
C535 C137 2.824 . S
C547 C184 2.835 . S
C562 C224 0.802 . S
C574 C177 0.911 . S
C589 C217 0.863 . S
C601 C144 0.819 . S
C616 C186 0.278 . S
C628 C213 0.398 . S
C643 C226 2.099 . S
C655 C133 2.052 . S
C670 C173 2.300 . S
C682 C146 2.305 . S
C697 C306 0.647 . S
C709 C257 0.531 . S
C724 C293 3.416 . S
C736 C344 3.375 . S
C751 C337 0.966 . S
C763 C264 1.021 . S
C778 C333 2.944 . S
C790 C304 2.915 . S
C805 C346 2.030 . S
C817 C253 1.975 . S
C832 C266 0.488 . S
C844 C297 0.711 . S
C859 C223 2.298 . S
C871 C2 2.605 . S
C886 C143 1.978 . S
C898 C63 1.990 . S
C913 C82 2.963 . S
C925 C183 2.767 . S
C940 C103 2.309 . S
C952 C242 2.613 . S
C967 C23 2.008 . S
C979 C303 1.962 . S
C994 C322 2.954 . S
C1006 C42 2.977 . S
C1021 C122 2.652 . S
C1033 C343 2.400 . S
C1048 C162 2.158 . S
C1060 C263 2.001 . S
C1075 C282 2.946 . S
C1087 C202 2.923 . S
