# Generated by pormake.
# Topology wjx, (5)-cn, num edge types: 1
# Building blocks:
#     Node 0, Type 0, BuildingBlock: XOMCOT_clean_sbu_0, # of connection points: 5
#     Node 1, Type 0, BuildingBlock: XOMCOT_clean_sbu_0, # of connection points: 5
#     Node 2, Type 0, BuildingBlock: XOMCOT_clean_sbu_0, # of connection points: 5
#     Node 3, Type 0, BuildingBlock: XOMCOT_clean_sbu_0, # of connection points: 5
#     Node 4, Type 0, BuildingBlock: XOMCOT_clean_sbu_0, # of connection points: 5
#     Node 5, Type 0, BuildingBlock: XOMCOT_clean_sbu_0, # of connection points: 5
#     Node 6, Type 0, BuildingBlock: XOMCOT_clean_sbu_0, # of connection points: 5
#     Node 7, Type 0, BuildingBlock: XOMCOT_clean_sbu_0, # of connection points: 5
#     Node 8, Type 0, BuildingBlock: XOMCOT_clean_sbu_0, # of connection points: 5
#     Node 9, Type 0, BuildingBlock: XOMCOT_clean_sbu_0, # of connection points: 5
#     Node 10, Type 0, BuildingBlock: XOMCOT_clean_sbu_0, # of connection points: 5
#     Node 11, Type 0, BuildingBlock: XOMCOT_clean_sbu_0, # of connection points: 5
#     Edge 12, Type (0, 0), BuildingBlock: XIVTED_clean_linker_0, # of connection points: 2
#     Edge 13, Type (0, 0), BuildingBlock: XIVTED_clean_linker_0, # of connection points: 2
#     Edge 14, Type (0, 0), BuildingBlock: XIVTED_clean_linker_0, # of connection points: 2
#     Edge 15, Type (0, 0), BuildingBlock: XIVTED_clean_linker_0, # of connection points: 2
#     Edge 16, Type (0, 0), BuildingBlock: XIVTED_clean_linker_0, # of connection points: 2
#     Edge 17, Type (0, 0), BuildingBlock: XIVTED_clean_linker_0, # of connection points: 2
#     Edge 18, Type (0, 0), BuildingBlock: XIVTED_clean_linker_0, # of connection points: 2
#     Edge 19, Type (0, 0), BuildingBlock: XIVTED_clean_linker_0, # of connection points: 2
#     Edge 20, Type (0, 0), BuildingBlock: XIVTED_clean_linker_0, # of connection points: 2
#     Edge 21, Type (0, 0), BuildingBlock: XIVTED_clean_linker_0, # of connection points: 2
#     Edge 22, Type (0, 0), BuildingBlock: XIVTED_clean_linker_0, # of connection points: 2
#     Edge 23, Type (0, 0), BuildingBlock: XIVTED_clean_linker_0, # of connection points: 2
#     Edge 24, Type (0, 0), BuildingBlock: XIVTED_clean_linker_0, # of connection points: 2
#     Edge 25, Type (0, 0), BuildingBlock: XIVTED_clean_linker_0, # of connection points: 2
#     Edge 26, Type (0, 0), BuildingBlock: XIVTED_clean_linker_0, # of connection points: 2
#     Edge 27, Type (0, 0), BuildingBlock: XIVTED_clean_linker_0, # of connection points: 2
#     Edge 28, Type (0, 0), BuildingBlock: XIVTED_clean_linker_0, # of connection points: 2
#     Edge 29, Type (0, 0), BuildingBlock: XIVTED_clean_linker_0, # of connection points: 2
#     Edge 30, Type (0, 0), BuildingBlock: XIVTED_clean_linker_0, # of connection points: 2
#     Edge 31, Type (0, 0), BuildingBlock: XIVTED_clean_linker_0, # of connection points: 2
#     Edge 32, Type (0, 0), BuildingBlock: XIVTED_clean_linker_0, # of connection points: 2
#     Edge 33, Type (0, 0), BuildingBlock: XIVTED_clean_linker_0, # of connection points: 2
#     Edge 34, Type (0, 0), BuildingBlock: XIVTED_clean_linker_0, # of connection points: 2
#     Edge 35, Type (0, 0), BuildingBlock: XIVTED_clean_linker_0, # of connection points: 2
#     Edge 36, Type (0, 0), BuildingBlock: XIVTED_clean_linker_0, # of connection points: 2
#     Edge 37, Type (0, 0), BuildingBlock: XIVTED_clean_linker_0, # of connection points: 2
#     Edge 38, Type (0, 0), BuildingBlock: XIVTED_clean_linker_0, # of connection points: 2
#     Edge 39, Type (0, 0), BuildingBlock: XIVTED_clean_linker_0, # of connection points: 2
#     Edge 40, Type (0, 0), BuildingBlock: XIVTED_clean_linker_0, # of connection points: 2
#     Edge 41, Type (0, 0), BuildingBlock: XIVTED_clean_linker_0, # of connection points: 2
# Relax obj value: 0.154
# Max RMSD: 0.142
# Mean RMSD: 0.142
data_MOF--net-wjx--node1-XOMCOT_clean_sbu_0--edge1-XIVTED_clean_linker_0
_symmetry_space_group_name_H-M    P1
_symmetry_Int_Tables_number       1
_symmetry_cell_setting            triclinic
loop_
_symmetry_equiv_pos_as_xyz
'x, y, z'
_cell_length_a     72.229471
_cell_length_b     72.117305
_cell_length_c     17.799047
_cell_angle_alpha  89.985514
_cell_angle_beta   89.940498
_cell_angle_gamma 120.08048
loop_
_atom_site_label
_atom_site_type_symbol
_atom_site_fract_x
_atom_site_fract_y
_atom_site_fract_z
_atom_type_partial_charge
Co0 Co 0.11632 0.433 0.14409 0.0
C1 C 0.11849 0.43261 0.31259 0.0
C2 C 0.13171 0.41516 0.2599 0.0
C3 C 0.13245 0.41304 0.33645 0.0
N4 N 0.1235 0.42793 0.24463 0.0
N5 N 0.12408 0.424 0.36952 0.0
H6 H 0.11024 0.44137 0.32101 0.0
H7 H 0.13624 0.40731 0.218 0.0
C8 C 0.16224 0.44601 0.13523 0.0
O9 O 0.16445 0.45713 0.19646 0.0
N10 N 0.10872 0.4371 0.04411 0.0
C11 C 0.09752 0.44677 0.02609 0.0
C12 C 0.09568 0.44673 0.94916 0.0
C13 C 0.11349 0.43119 0.97833 0.0
N14 N 0.10573 0.43694 0.91909 0.0
C15 C 0.12128 0.47208 0.20708 0.0
C16 C 0.15236 0.4995 0.10748 0.0
C17 C 0.14377 0.50795 0.15847 0.0
C18 C 0.12825 0.49398 0.20947 0.0
C19 C 0.14516 0.47754 0.10771 0.0
N20 N 0.13009 0.46404 0.15827 0.0
H21 H 0.10754 0.46153 0.24029 0.0
H22 H 0.15078 0.47129 0.06373 0.0
H23 H 0.09136 0.45363 0.06613 0.0
H24 H 0.12232 0.42276 0.97414 0.0
O25 O 0.08803 0.42515 0.17891 0.0
O26 O 0.0973 0.4023 0.13334 0.0
O27 O 0.1438 0.43533 0.10439 0.0
C28 C 0.08251 0.40556 0.16144 0.0
H29 H 0.13786 0.40342 0.36532 0.0
H30 H 0.08794 0.45381 0.9179 0.0
H31 H 0.16398 0.50965 0.06577 0.0
H32 H 0.12043 0.49967 0.24734 0.0
Co33 Co 0.69152 0.11705 0.51274 0.0
C34 C 0.69473 0.11968 0.68159 0.0
C35 C 0.72479 0.13001 0.6273 0.0
C36 C 0.72799 0.13139 0.70382 0.0
N37 N 0.70397 0.12296 0.61308 0.0
N38 N 0.70904 0.12492 0.73792 0.0
H39 H 0.6779 0.11292 0.69123 0.0
H40 H 0.73686 0.13382 0.58466 0.0
C41 C 0.7234 0.16359 0.51271 0.0
O42 O 0.71477 0.16445 0.57671 0.0
N43 N 0.67975 0.11096 0.41262 0.0
C44 C 0.65888 0.09987 0.39422 0.0
C45 C 0.65717 0.09914 0.31715 0.0
C46 C 0.6905 0.11663 0.34689 0.0
N47 N 0.67705 0.10968 0.28743 0.0
C48 C 0.65564 0.11694 0.58095 0.0
C49 C 0.65695 0.14975 0.49673 0.0
C50 C 0.63917 0.1375 0.54289 0.0
C51 C 0.63908 0.12141 0.58716 0.0
C52 C 0.67347 0.1449 0.49294 0.0
N53 N 0.67286 0.12875 0.53545 0.0
H54 H 0.65349 0.10268 0.6083 0.0
H55 H 0.68578 0.15303 0.45113 0.0
H56 H 0.64582 0.09281 0.43411 0.0
H57 H 0.70776 0.12586 0.34282 0.0
O58 O 0.67219 0.08779 0.54139 0.0
O59 O 0.7045 0.09946 0.49313 0.0
O60 O 0.71573 0.14579 0.47739 0.0
C61 C 0.68675 0.08354 0.51914 0.0
H62 H 0.74312 0.13683 0.73191 0.0
H63 H 0.64241 0.09116 0.2855 0.0
H64 H 0.65736 0.16186 0.45969 0.0
H65 H 0.62558 0.11136 0.62302 0.0
Co66 Co 0.57806 0.68811 0.81214 0.0
C67 C 0.57838 0.69144 0.98079 0.0
C68 C 0.59685 0.72185 0.92693 0.0
C69 C 0.59871 0.72494 1.00355 0.0
N70 N 0.58367 0.70086 0.9123 0.0
N71 N 0.58702 0.70576 0.03741 0.0
H72 H 0.56949 0.67447 0.99016 0.0
H73 H 0.60489 0.73409 0.88458 0.0
C74 C 0.5656 0.72171 0.80157 0.0
O75 O 0.55548 0.71451 0.86576 0.0
N76 N 0.57335 0.67601 0.71244 0.0
C77 C 0.56344 0.65506 0.69464 0.0
C78 C 0.56276 0.65318 0.61755 0.0
C79 C 0.57875 0.68661 0.64633 0.0
N80 N 0.57236 0.67302 0.58718 0.0
C81 C 0.54064 0.65357 0.87858 0.0
C82 C 0.51102 0.65513 0.78479 0.0
C83 C 0.50421 0.63767 0.83393 0.0
C84 C 0.51928 0.63765 0.88336 0.0
C85 C 0.53266 0.67127 0.78351 0.0
N86 N 0.54728 0.67043 0.83035 0.0
H87 H 0.55196 0.65102 0.90923 0.0
H88 H 0.53783 0.6834 0.74042 0.0
H89 H 0.55698 0.64208 0.73491 0.0
H90 H 0.58681 0.70388 0.64172 0.0
O91 O 0.58654 0.66813 0.84644 0.0
O92 O 0.60873 0.70011 0.79811 0.0
O93 O 0.57514 0.7127 0.77119 0.0
C94 C 0.60586 0.68222 0.82679 0.0
H95 H 0.60806 0.74014 0.03187 0.0
H96 H 0.55583 0.63831 0.58639 0.0
H97 H 0.50011 0.65563 0.74424 0.0
H98 H 0.51493 0.62465 0.9227 0.0
Co99 Co 0.88918 0.57422 0.14102 0.0
C100 C 0.88688 0.57438 0.30686 0.0
C101 C 0.86965 0.58826 0.25626 0.0
C102 C 0.86851 0.58949 0.33323 0.0
N103 N 0.88108 0.5787 0.23993 0.0
N104 N 0.8794 0.58082 0.36512 0.0
H105 H 0.89649 0.56682 0.31253 0.0
H106 H 0.86306 0.59439 0.21515 0.0
C107 C 0.84874 0.55691 0.05043 0.0
O108 O 0.85301 0.54272 0.02126 0.0
N109 N 0.89771 0.57034 0.04071 0.0
C110 C 0.90968 0.56153 0.02128 0.0
C111 C 0.9122 0.56255 0.94448 0.0
C112 C 0.89396 0.57743 0.97517 0.0
N113 N 0.90215 0.57239 0.9153 0.0
C114 C 0.89061 0.53638 0.17814 0.0
C115 C 0.84711 0.50832 0.18893 0.0
C116 C 0.86121 0.50043 0.19634 0.0
C117 C 0.88319 0.51484 0.19295 0.0
C118 C 0.85533 0.53028 0.17601 0.0
N119 N 0.87681 0.54376 0.16503 0.0
H120 H 0.90765 0.54712 0.1778 0.0
H121 H 0.84435 0.53629 0.17538 0.0
H122 H 0.91658 0.55506 0.05933 0.0
H123 H 0.88536 0.58609 0.97144 0.0
O124 O 0.91777 0.58421 0.17729 0.0
O125 O 0.90672 0.60506 0.12679 0.0
O126 O 0.86124 0.57019 0.09973 0.0
C127 C 0.92215 0.60326 0.15712 0.0
H128 H 0.86083 0.59688 0.3632 0.0
H129 H 0.9205 0.55614 0.91264 0.0
H130 H 0.83001 0.49772 0.1945 0.0
H131 H 0.89461 0.50943 0.20075 0.0
Co132 Co 0.31714 0.88834 0.48461 0.0
C133 C 0.31394 0.88666 0.65407 0.0
C134 C 0.2854 0.8815 0.59903 0.0
C135 C 0.2821 0.88061 0.67536 0.0
N136 N 0.30529 0.88506 0.58532 0.0
N137 N 0.30006 0.88384 0.71002 0.0
H138 H 0.33007 0.89031 0.66407 0.0
H139 H 0.274 0.8796 0.55606 0.0
C140 C 0.28128 0.84349 0.49179 0.0
O141 O 0.28937 0.84245 0.55672 0.0
N142 N 0.32845 0.89197 0.38399 0.0
C143 C 0.3492 0.90031 0.36546 0.0
C144 C 0.35085 0.90028 0.28853 0.0
C145 C 0.31772 0.88719 0.31831 0.0
N146 N 0.33108 0.89203 0.25889 0.0
C147 C 0.35034 0.88367 0.55412 0.0
C148 C 0.34367 0.84802 0.47428 0.0
C149 C 0.36166 0.85834 0.52094 0.0
C150 C 0.36465 0.87616 0.5621 0.0
C151 C 0.32951 0.8559 0.46873 0.0
N152 N 0.33265 0.87336 0.50946 0.0
H153 H 0.35452 0.8988 0.57979 0.0
H154 H 0.31694 0.84881 0.42737 0.0
H155 H 0.36224 0.90609 0.40521 0.0
H156 H 0.30055 0.88018 0.31423 0.0
O157 O 0.33942 0.91691 0.50806 0.0
O158 O 0.30774 0.90889 0.46259 0.0
O159 O 0.29057 0.86084 0.45335 0.0
C160 C 0.32673 0.92353 0.48473 0.0
H161 H 0.26749 0.8776 0.70295 0.0
H162 H 0.36555 0.90626 0.25684 0.0
H163 H 0.34102 0.8345 0.43999 0.0
H164 H 0.37883 0.88526 0.59614 0.0
Co165 Co 0.42172 0.31431 0.8047 0.0
C166 C 0.4223 0.31179 0.97092 0.0
C167 C 0.41071 0.28103 0.91927 0.0
C168 C 0.40977 0.27846 0.99606 0.0
N169 N 0.41863 0.30191 0.90359 0.0
N170 N 0.41695 0.29778 0.02878 0.0
H171 H 0.42816 0.32876 0.97709 0.0
H172 H 0.40556 0.26843 0.87789 0.0
C173 C 0.44139 0.29255 0.71875 0.0
O174 O 0.45615 0.31144 0.69406 0.0
N175 N 0.424 0.32645 0.70399 0.0
C176 C 0.42596 0.34562 0.68684 0.0
C177 C 0.42565 0.34765 0.61015 0.0
C178 C 0.42103 0.31659 0.63654 0.0
N179 N 0.42271 0.32944 0.57835 0.0
C180 C 0.46022 0.3548 0.81868 0.0
C181 C 0.48744 0.33957 0.85397 0.0
C182 C 0.49599 0.36147 0.83979 0.0
C183 C 0.48207 0.36912 0.82436 0.0
C184 C 0.46529 0.32566 0.84675 0.0
N185 N 0.4522 0.33324 0.82395 0.0
H186 H 0.44981 0.36121 0.81032 0.0
H187 H 0.45877 0.30875 0.85732 0.0
H188 H 0.42646 0.35713 0.7267 0.0
H189 H 0.41734 0.30022 0.62976 0.0
O190 O 0.41146 0.33238 0.84411 0.0
O191 O 0.39081 0.30011 0.79491 0.0
O192 O 0.42651 0.29098 0.76197 0.0
C193 C 0.39241 0.31726 0.82572 0.0
H194 H 0.40411 0.2634 0.0252 0.0
H195 H 0.42671 0.36123 0.5803 0.0
H196 H 0.49777 0.33323 0.86832 0.0
H197 H 0.48807 0.3861 0.81641 0.0
Co198 Co 0.57574 0.89194 0.54208 0.0
C199 C 0.57477 0.88754 0.37426 0.0
C200 C 0.59858 0.88249 0.42625 0.0
C201 C 0.60042 0.88158 0.34954 0.0
N202 N 0.58237 0.88604 0.44197 0.0
N203 N 0.58545 0.88484 0.31674 0.0
H204 H 0.56202 0.89091 0.36643 0.0
H205 H 0.60881 0.88125 0.46791 0.0
C206 C 0.56688 0.84684 0.54751 0.0
O207 O 0.55797 0.84408 0.48104 0.0
N208 N 0.56992 0.89823 0.64169 0.0
C209 C 0.56003 0.90926 0.65912 0.0
C210 C 0.55904 0.91028 0.73609 0.0
C211 C 0.57488 0.89273 0.70787 0.0
N212 N 0.56833 0.89982 0.76694 0.0
C213 C 0.53717 0.8873 0.4785 0.0
C214 C 0.50891 0.85204 0.56189 0.0
C215 C 0.50078 0.8619 0.51507 0.0
C216 C 0.51525 0.87962 0.47243 0.0
C217 C 0.53101 0.86012 0.56563 0.0
N218 N 0.54494 0.87728 0.52278 0.0
H219 H 0.5479 0.90215 0.45055 0.0
H220 H 0.5368 0.85331 0.60689 0.0
H221 H 0.554 0.91611 0.61864 0.0
H222 H 0.58295 0.88357 0.71235 0.0
O223 O 0.5831 0.92034 0.50931 0.0
O224 O 0.60608 0.91182 0.55787 0.0
O225 O 0.57435 0.86487 0.58114 0.0
C226 C 0.60258 0.92644 0.52958 0.0
H227 H 0.61243 0.87954 0.32048 0.0
H228 H 0.55221 0.9184 0.76655 0.0
H229 H 0.49835 0.83864 0.5973 0.0
H230 H 0.50981 0.88835 0.43808 0.0
Co231 Co 0.68396 0.57031 0.86909 0.0
C232 C 0.68699 0.57075 0.70011 0.0
C233 C 0.71722 0.58997 0.75401 0.0
C234 C 0.72035 0.59202 0.67755 0.0
N235 N 0.69636 0.57629 0.76852 0.0
N236 N 0.70131 0.57993 0.64356 0.0
H237 H 0.67005 0.56115 0.69102 0.0
H238 H 0.72935 0.59817 0.79644 0.0
C239 C 0.71667 0.55703 0.87218 0.0
O240 O 0.70779 0.54676 0.80956 0.0
N241 N 0.67208 0.56522 0.96922 0.0
C242 C 0.65113 0.55543 0.98661 0.0
C243 C 0.64903 0.55427 0.06353 0.0
C244 C 0.68251 0.57008 0.03554 0.0
N245 N 0.66875 0.56344 0.09432 0.0
C246 C 0.64914 0.53245 0.80351 0.0
C247 C 0.65288 0.50316 0.89281 0.0
C248 C 0.63564 0.4957 0.84282 0.0
C249 C 0.634 0.51071 0.79748 0.0
C250 C 0.66777 0.52509 0.89672 0.0
N251 N 0.66626 0.5395 0.85067 0.0
H252 H 0.64606 0.54366 0.77405 0.0
H253 H 0.67982 0.5305 0.94003 0.0
H254 H 0.63827 0.5494 0.94606 0.0
H255 H 0.69973 0.57792 0.04057 0.0
O256 O 0.66394 0.57897 0.83698 0.0
O257 O 0.69607 0.60097 0.8841 0.0
O258 O 0.70884 0.56721 0.90632 0.0
C259 C 0.6782 0.59829 0.85635 0.0
H260 H 0.73551 0.60177 0.64943 0.0
H261 H 0.63411 0.54736 0.09434 0.0
H262 H 0.65454 0.49225 0.93028 0.0
H263 H 0.62038 0.50589 0.76083 0.0
Co264 Co 0.11037 0.68749 0.21295 0.0
C265 C 0.11258 0.6902 0.04724 0.0
C266 C 0.12897 0.72139 0.09797 0.0
C267 C 0.12998 0.72379 0.02095 0.0
N268 N 0.1181 0.70034 0.11422 0.0
N269 N 0.11963 0.70417 0.98896 0.0
H270 H 0.10308 0.67298 0.0416 0.0
H271 H 0.13542 0.73411 0.13917 0.0
C272 C 0.15097 0.71072 0.30287 0.0
O273 O 0.14687 0.69219 0.33102 0.0
N274 N 0.10217 0.67469 0.31299 0.0
C275 C 0.09047 0.65375 0.33114 0.0
C276 C 0.08826 0.65178 0.40793 0.0
C277 C 0.10597 0.68516 0.37944 0.0
N278 N 0.09822 0.67153 0.43862 0.0
C279 C 0.10891 0.64842 0.17211 0.0
C280 C 0.15241 0.66395 0.16302 0.0
C281 C 0.13828 0.64193 0.15474 0.0
C282 C 0.11631 0.63434 0.15684 0.0
C283 C 0.14421 0.67766 0.1761 0.0
N284 N 0.12273 0.66958 0.18671 0.0
H285 H 0.09188 0.64206 0.17229 0.0
H286 H 0.15523 0.69468 0.17766 0.0
H287 H 0.08346 0.64059 0.29215 0.0
H288 H 0.11474 0.70243 0.38437 0.0
O289 O 0.0817 0.66878 0.17749 0.0
O290 O 0.09276 0.70056 0.22947 0.0
O291 O 0.1384 0.71151 0.25397 0.0
C292 C 0.07729 0.6833 0.19914 0.0
H293 H 0.13779 0.73889 0.99104 0.0
H294 H 0.07968 0.63686 0.43856 0.0
H295 H 0.16953 0.67048 0.15867 0.0
H296 H 0.10488 0.61748 0.14866 0.0
Co297 Co 0.42844 0.11656 0.50274 0.0
C298 C 0.42674 0.11771 0.33429 0.0
C299 C 0.41211 0.13383 0.38667 0.0
C300 C 0.40994 0.13453 0.31006 0.0
N301 N 0.42337 0.12396 0.40216 0.0
N302 N 0.41926 0.12445 0.27716 0.0
H303 H 0.433 0.10712 0.3261 0.0
H304 H 0.40541 0.13972 0.42829 0.0
C305 C 0.44173 0.16251 0.51593 0.0
O306 O 0.45339 0.16512 0.45582 0.0
N307 N 0.43249 0.10874 0.6026 0.0
C308 C 0.44202 0.09737 0.62012 0.0
C309 C 0.44236 0.09574 0.69705 0.0
C310 C 0.42698 0.11376 0.66877 0.0
N311 N 0.43295 0.10609 0.72768 0.0
C312 C 0.46714 0.12237 0.43663 0.0
C313 C 0.49478 0.1503 0.54337 0.0
C314 C 0.50242 0.14106 0.49164 0.0
C315 C 0.48849 0.12769 0.43595 0.0
C316 C 0.47318 0.14474 0.54141 0.0
N317 N 0.45949 0.13075 0.48861 0.0
H318 H 0.45655 0.1097 0.4001 0.0
H319 H 0.46715 0.15032 0.58638 0.0
H320 H 0.44851 0.09093 0.57973 0.0
H321 H 0.41921 0.12321 0.67364 0.0
O322 O 0.42174 0.08886 0.46719 0.0
O323 O 0.39767 0.09643 0.51186 0.0
O324 O 0.43029 0.14372 0.54389 0.0
C325 C 0.40191 0.08227 0.48339 0.0
H326 H 0.40198 0.14177 0.2811 0.0
H327 H 0.44895 0.08746 0.72789 0.0
H328 H 0.5049 0.16031 0.58849 0.0
H329 H 0.49365 0.12001 0.39535 0.0
Co330 Co 0.31414 0.42501 0.86092 0.0
C331 C 0.3116 0.42502 0.69466 0.0
C332 C 0.28082 0.41312 0.74642 0.0
C333 C 0.27827 0.41211 0.66957 0.0
N334 N 0.30171 0.42131 0.76203 0.0
N335 N 0.29762 0.41956 0.63688 0.0
H336 H 0.32865 0.4315 0.6883 0.0
H337 H 0.26823 0.40779 0.78796 0.0
C338 C 0.29359 0.44519 0.95171 0.0
O339 O 0.31228 0.45826 0.98203 0.0
N340 N 0.32639 0.42814 0.96123 0.0
C341 C 0.34701 0.43532 0.97967 0.0
C342 C 0.3486 0.43423 0.05635 0.0
C343 C 0.31566 0.42191 0.02737 0.0
N344 N 0.3289 0.42595 0.08659 0.0
C345 C 0.35516 0.46008 0.82254 0.0
C346 C 0.34517 0.49235 0.82447 0.0
C347 C 0.36673 0.4978 0.82194 0.0
C348 C 0.37143 0.48126 0.81635 0.0
C349 C 0.32918 0.47064 0.82977 0.0
N350 N 0.33455 0.45499 0.83626 0.0
H351 H 0.3595 0.44785 0.81901 0.0
H352 H 0.31266 0.46665 0.83051 0.0
H353 H 0.36016 0.44065 0.94089 0.0
H354 H 0.29846 0.41454 0.03198 0.0
O355 O 0.3306 0.41244 0.82558 0.0
O356 O 0.29837 0.39411 0.87678 0.0
O357 O 0.29194 0.43173 0.90165 0.0
C358 C 0.31489 0.39413 0.84728 0.0
H359 H 0.26319 0.40574 0.6402 0.0
H360 H 0.36327 0.43948 0.08738 0.0
H361 H 0.34076 0.50466 0.82539 0.0
H362 H 0.38776 0.48467 0.80976 0.0
Co363 Co 0.8937 0.32139 0.23739 0.0
C364 C 0.89042 0.31928 0.0715 0.0
C365 C 0.87209 0.28822 0.1222 0.0
C366 C 0.87059 0.28587 0.04535 0.0
N367 N 0.88445 0.30915 0.13848 0.0
N368 N 0.88222 0.30539 0.01328 0.0
H369 H 0.90114 0.33635 0.06583 0.0
H370 H 0.86505 0.27545 0.16319 0.0
C371 C 0.85256 0.29792 0.32521 0.0
O372 O 0.85614 0.31642 0.3519 0.0
N373 N 0.90351 0.33338 0.33805 0.0
C374 C 0.92008 0.35294 0.35554 0.0
C375 C 0.92253 0.35473 0.43222 0.0
C376 C 0.89718 0.32313 0.40505 0.0
N377 N 0.90799 0.33601 0.46349 0.0
C378 C 0.89413 0.36108 0.22492 0.0
C379 C 0.8511 0.34466 0.19662 0.0
C380 C 0.86406 0.36662 0.21117 0.0
C381 C 0.88594 0.37486 0.22251 0.0
C382 C 0.86005 0.3313 0.20039 0.0
N383 N 0.88104 0.33944 0.22034 0.0
H384 H 0.91111 0.36797 0.23063 0.0
H385 H 0.84997 0.31435 0.18979 0.0
H386 H 0.93059 0.36494 0.3159 0.0
H387 H 0.88511 0.30648 0.4113 0.0
O388 O 0.92175 0.34048 0.19728 0.0
O389 O 0.91152 0.30831 0.24499 0.0
O390 O 0.86605 0.29718 0.28043 0.0
C391 C 0.92653 0.32589 0.21433 0.0
H392 H 0.8617 0.27083 0.01568 0.0
H393 H 0.93458 0.36855 0.4624 0.0
H394 H 0.8342 0.33785 0.18504 0.0
H395 H 0.89664 0.39191 0.23013 0.0
H396 H 0.05711 0.37454 0.06093 0.0
H397 H 0.9526 0.3234 0.31934 0.0
H398 H 0.05728 0.39798 0.28374 0.0
H399 H 0.95069 0.33979 0.08781 0.0
H400 H 0.99161 0.33864 0.3081 0.0
H401 H 0.01824 0.34967 0.07259 0.0
C402 C 0.04904 0.37401 0.11291 0.0
C403 C 0.06021 0.38825 0.17147 0.0
C404 C 0.98248 0.33834 0.25939 0.0
C405 C 0.01632 0.35984 0.18558 0.0
C406 C 0.96032 0.32953 0.26556 0.0
C407 C 0.9486 0.33032 0.20424 0.0
C408 C 0.99273 0.34744 0.19095 0.0
C409 C 0.9593 0.33887 0.13615 0.0
C410 C 0.02697 0.35997 0.11934 0.0
C411 C 0.04909 0.38725 0.23735 0.0
N412 N 0.98081 0.34712 0.13121 0.0
N413 N 0.02773 0.37325 0.24278 0.0
H414 H 0.67991 0.05802 0.64005 0.0
H415 H 0.60655 0.95412 0.41908 0.0
H416 H 0.68108 0.05831 0.39819 0.0
H417 H 0.63681 0.95011 0.62217 0.0
H418 H 0.63249 0.99255 0.41207 0.0
H419 H 0.6636 0.01882 0.63869 0.0
C420 C 0.6773 0.0498 0.58678 0.0
C421 C 0.6821 0.06125 0.51915 0.0
C422 C 0.63367 0.98321 0.45754 0.0
C423 C 0.66264 0.01662 0.51699 0.0
C424 C 0.61882 0.96135 0.4618 0.0
C425 C 0.61958 0.94903 0.52139 0.0
C426 C 0.64896 0.99297 0.51458 0.0
C427 C 0.6358 0.9591 0.57522 0.0
C428 C 0.66796 0.02751 0.58599 0.0
C429 C 0.67794 0.04997 0.45141 0.0
N430 N 0.64963 0.98063 0.57145 0.0
N431 N 0.66801 0.02818 0.45194 0.0
H432 H 0.66024 0.60622 0.73623 0.0
H433 H 0.61725 0.66904 0.95196 0.0
H434 H 0.68529 0.62986 0.95713 0.0
H435 H 0.6323 0.68242 0.71692 0.0
H436 H 0.64065 0.65346 0.95809 0.0
H437 H 0.64818 0.63246 0.72773 0.0
C438 C 0.66346 0.6172 0.78245 0.0
C439 C 0.67376 0.616 0.8474 0.0
C440 C 0.63925 0.66029 0.90565 0.0
C441 C 0.65953 0.64551 0.83898 0.0
C442 C 0.62595 0.66915 0.90215 0.0
C443 C 0.62312 0.67714 0.83403 0.0
C444 C 0.64905 0.65867 0.83983 0.0
C445 C 0.63438 0.67665 0.77064 0.0
C446 C 0.65668 0.63219 0.77745 0.0
C447 C 0.67752 0.63047 0.90595 0.0
N448 N 0.6465 0.66707 0.77458 0.0
N449 N 0.66995 0.64435 0.90113 0.0
H450 H 0.0521 0.68581 0.30832 0.0
H451 H 0.94658 0.63411 0.05429 0.0
H452 H 0.05256 0.67069 0.07442 0.0
H453 H 0.94734 0.613 0.2802 0.0
H454 H 0.98527 0.65982 0.06422 0.0
H455 H 0.01314 0.67131 0.30032 0.0
C456 C 0.04408 0.68011 0.25482 0.0
C457 C 0.05535 0.67938 0.19187 0.0
C458 C 0.97677 0.6499 0.11208 0.0
C459 C 0.0113 0.66313 0.1822 0.0
C460 C 0.95479 0.63538 0.10662 0.0
C461 C 0.94396 0.6215 0.16649 0.0
C462 C 0.98768 0.65078 0.17851 0.0
C463 C 0.95526 0.62345 0.2328 0.0
C464 C 0.02195 0.67174 0.25042 0.0
C465 C 0.04429 0.67147 0.12407 0.0
N466 N 0.97655 0.6378 0.23709 0.0
N467 N 0.02283 0.66359 0.12095 0.0
H468 H 0.36293 0.05701 0.55523 0.0
H469 H 0.367 0.95369 0.45144 0.0
H470 H 0.40472 0.05543 0.38516 0.0
H471 H 0.30516 0.94612 0.50184 0.0
H472 H 0.38188 0.9922 0.44264 0.0
H473 H 0.34121 0.01743 0.54861 0.0
C474 C 0.36722 0.04843 0.51543 0.0
C475 C 0.38584 0.05943 0.47159 0.0
C476 C 0.36501 0.98219 0.45521 0.0
C477 C 0.36151 0.01468 0.46468 0.0
C478 C 0.35653 0.9602 0.4607 0.0
C479 C 0.33485 0.94675 0.47742 0.0
C480 C 0.35189 0.99107 0.46806 0.0
C481 C 0.32197 0.95604 0.48842 0.0
C482 C 0.35489 0.02593 0.51182 0.0
C483 C 0.39076 0.04759 0.42111 0.0
N484 N 0.33077 0.9778 0.48455 0.0
N485 N 0.37891 0.02594 0.41991 0.0
H486 H 0.31205 0.36818 0.96297 0.0
H487 H 0.36049 0.30823 0.7251 0.0
H488 H 0.32455 0.37811 0.72537 0.0
H489 H 0.38342 0.33483 0.94498 0.0
H490 H 0.33465 0.32104 0.73125 0.0
H491 H 0.32551 0.34282 0.96192 0.0
C492 C 0.31682 0.36433 0.91018 0.0
C493 C 0.31715 0.37502 0.84405 0.0
C494 C 0.34499 0.32352 0.77881 0.0
C495 C 0.33237 0.34629 0.84239 0.0
C496 C 0.35957 0.31614 0.77554 0.0
C497 C 0.37403 0.32059 0.83457 0.0
C498 C 0.34461 0.3349 0.8423 0.0
C499 C 0.37253 0.3312 0.89827 0.0
C500 C 0.32464 0.35007 0.90972 0.0
C501 C 0.324 0.37002 0.77732 0.0
N502 N 0.35812 0.33806 0.90045 0.0
N503 N 0.33143 0.35604 0.77813 0.0
H504 H 0.13661 0.43137 0.85261 0.0
H505 H 0.09341 0.42964 0.43685 0.0
H506 H 0.08027 0.43558 0.80434 0.0
H507 H 0.14737 0.42129 0.48418 0.0
H508 H 0.08862 0.43218 0.57143 0.0
H509 H 0.14078 0.42742 0.71833 0.0
C510 C 0.12501 0.4313 0.81405 0.0
C511 C 0.10809 0.43391 0.84019 0.0
C512 C 0.10151 0.42977 0.55244 0.0
C513 C 0.11295 0.42965 0.68591 0.0
C514 C 0.10435 0.42847 0.47542 0.0
C515 C 0.12089 0.42533 0.44895 0.0
C516 C 0.11534 0.428 0.60364 0.0
C517 C 0.13429 0.42351 0.50198 0.0
C518 C 0.12748 0.42917 0.7372 0.0
C519 C 0.09375 0.43399 0.78704 0.0
N520 N 0.13127 0.42493 0.5767 0.0
N521 N 0.09654 0.43194 0.71262 0.0
H522 H 0.67571 0.12523 0.8081 0.0
H523 H 0.71361 0.11542 0.22169 0.0
H524 H 0.73259 0.12153 0.85118 0.0
H525 H 0.6531 0.11114 0.17274 0.0
H526 H 0.72212 0.11998 0.08736 0.0
H527 H 0.66828 0.12201 0.94238 0.0
C528 C 0.6866 0.1236 0.84554 0.0
C529 C 0.70475 0.12349 0.8177 0.0
C530 C 0.70698 0.11804 0.10609 0.0
C531 C 0.69644 0.12013 0.97258 0.0
C532 C 0.70217 0.11557 0.18285 0.0
C533 C 0.68256 0.1128 0.20866 0.0
C534 C 0.69214 0.11789 0.05474 0.0
C535 C 0.66825 0.11289 0.15548 0.0
C536 C 0.68239 0.12189 0.92251 0.0
C537 C 0.7185 0.12186 0.86974 0.0
N538 N 0.67333 0.1154 0.08124 0.0
N539 N 0.71405 0.12021 0.94457 0.0
H540 H 0.6027 0.70992 0.52084 0.0
H541 H 0.5547 0.67114 0.1078 0.0
H542 H 0.54729 0.64851 0.47231 0.0
H543 H 0.61372 0.73001 0.1505 0.0
H544 H 0.55119 0.66337 0.24188 0.0
H545 H 0.60627 0.71848 0.3866 0.0
C546 C 0.59122 0.69827 0.48216 0.0
C547 C 0.5747 0.67841 0.50819 0.0
C548 C 0.56494 0.67799 0.222 0.0
C549 C 0.57877 0.68807 0.35414 0.0
C550 C 0.56703 0.6824 0.1451 0.0
C551 C 0.58464 0.70122 0.11716 0.0
C552 C 0.5805 0.6925 0.27196 0.0
C553 C 0.59979 0.7154 0.16911 0.0
C554 C 0.59334 0.70312 0.40539 0.0
C555 C 0.56046 0.66387 0.45504 0.0
N556 N 0.59739 0.71073 0.24386 0.0
N557 N 0.56281 0.669 0.38081 0.0
H558 H 0.87 0.57602 0.85017 0.0
H559 H 0.91225 0.57854 0.43104 0.0
H560 H 0.92792 0.57505 0.79919 0.0
H561 H 0.85488 0.58063 0.48172 0.0
H562 H 0.91827 0.57731 0.56555 0.0
H563 H 0.86461 0.57858 0.7158 0.0
C564 C 0.88173 0.57659 0.81095 0.0
C565 C 0.89944 0.57528 0.83643 0.0
C566 C 0.90436 0.57805 0.54725 0.0
C567 C 0.89317 0.57786 0.68185 0.0
C568 C 0.90082 0.57859 0.47023 0.0
C569 C 0.883 0.57969 0.44454 0.0
C570 C 0.88997 0.57854 0.59937 0.0
C571 C 0.86897 0.58006 0.49856 0.0
C572 C 0.87855 0.57788 0.73402 0.0
C573 C 0.91389 0.57572 0.78242 0.0
N574 N 0.87274 0.57947 0.57317 0.0
N575 N 0.91041 0.57693 0.70794 0.0
H576 H 0.35234 0.88535 0.14629 0.0
H577 H 0.27916 0.89174 0.82202 0.0
H578 H 0.29764 0.89265 0.19106 0.0
H579 H 0.32929 0.87689 0.78207 0.0
H580 H 0.28569 0.89245 0.95678 0.0
H581 H 0.3443 0.88273 0.01241 0.0
C582 C 0.33865 0.88646 0.12794 0.0
C583 C 0.32573 0.88938 0.18007 0.0
C584 C 0.29523 0.889 0.91847 0.0
C585 C 0.31631 0.88626 0.02633 0.0
C586 C 0.29146 0.8885 0.84131 0.0
C587 C 0.30372 0.8843 0.79002 0.0
C588 C 0.31143 0.88534 0.94485 0.0
C589 C 0.31965 0.88055 0.81891 0.0
C590 C 0.33399 0.88484 0.05141 0.0
C591 C 0.30794 0.89028 0.15299 0.0
N592 N 0.32305 0.8812 0.8942 0.0
N593 N 0.30383 0.88885 0.07794 0.0
H594 H 0.39521 0.26938 0.1415 0.0
H595 H 0.44125 0.35826 0.46515 0.0
H596 H 0.44028 0.33625 0.10009 0.0
H597 H 0.40253 0.29047 0.50891 0.0
H598 H 0.43987 0.35068 0.33103 0.0
H599 H 0.39683 0.27696 0.27525 0.0
C600 C 0.40559 0.28565 0.16015 0.0
C601 C 0.41771 0.30216 0.10854 0.0
C602 C 0.43167 0.33744 0.3699 0.0
C603 C 0.41933 0.311 0.26301 0.0
C604 C 0.43231 0.34177 0.44665 0.0
C605 C 0.42189 0.32499 0.4988 0.0
C606 C 0.42044 0.31616 0.34453 0.0
C607 C 0.41094 0.30391 0.47117 0.0
C608 C 0.4064 0.28998 0.23694 0.0
C609 C 0.43048 0.323 0.13706 0.0
N610 N 0.41044 0.30012 0.39603 0.0
N611 N 0.43094 0.3268 0.21218 0.0
H612 H 0.59475 0.88752 0.83245 0.0
H613 H 0.56471 0.90337 0.2496 0.0
H614 H 0.54724 0.9053 0.88443 0.0
H615 H 0.59932 0.87031 0.20019 0.0
H616 H 0.56006 0.90619 0.11581 0.0
H617 H 0.59847 0.88306 0.96638 0.0
C618 C 0.585 0.89041 0.87147 0.0
C619 C 0.57068 0.89691 0.84614 0.0
C620 C 0.56862 0.89825 0.13427 0.0
C621 C 0.57518 0.89208 1.0004 0.0
C622 C 0.57121 0.8965 0.2111 0.0
C623 C 0.5824 0.88648 0.23717 0.0
C624 C 0.57741 0.89012 0.0825 0.0
C625 C 0.5908 0.87839 0.18333 0.0
C626 C 0.58721 0.88791 0.94822 0.0
C627 C 0.55874 0.90063 0.90046 0.0
N628 N 0.58818 0.88044 0.10868 0.0
N629 N 0.56133 0.89824 0.97474 0.0
H630 H 0.72556 0.6074 0.53209 0.0
H631 H 0.6439 0.5374 0.20677 0.0
H632 H 0.66735 0.54739 0.57123 0.0
H633 H 0.70503 0.59374 0.16327 0.0
H634 H 0.65197 0.54139 0.34072 0.0
H635 H 0.71819 0.60313 0.39755 0.0
C636 C 0.71128 0.59326 0.51267 0.0
C637 C 0.69707 0.57773 0.56369 0.0
C638 C 0.66366 0.55289 0.30198 0.0
C639 C 0.68841 0.5729 0.40898 0.0
C640 C 0.659 0.55069 0.22535 0.0
C641 C 0.67375 0.56534 0.17347 0.0
C642 C 0.6832 0.56993 0.32746 0.0
C643 C 0.69325 0.58199 0.20104 0.0
C644 C 0.70704 0.59089 0.43561 0.0
C645 C 0.67864 0.55995 0.5346 0.0
N646 N 0.69737 0.58389 0.27614 0.0
N647 N 0.67486 0.55804 0.45938 0.0
H648 H 0.10696 0.70912 0.506 0.0
H649 H 0.11096 0.66695 0.91986 0.0
H650 H 0.0963 0.64581 0.55391 0.0
H651 H 0.12077 0.73009 0.8752 0.0
H652 H 0.10539 0.65901 0.78579 0.0
H653 H 0.11228 0.71733 0.6404 0.0
C654 C 0.10575 0.69694 0.54445 0.0
C655 C 0.10104 0.67667 0.51799 0.0
C656 C 0.10877 0.67462 0.80528 0.0
C657 C 0.10704 0.68597 0.67251 0.0
C658 C 0.11184 0.67914 0.88215 0.0
C659 C 0.11636 0.69926 0.9095 0.0
C660 C 0.11018 0.69029 0.75484 0.0
C661 C 0.11761 0.71447 0.8571 0.0
C662 C 0.10871 0.70162 0.62139 0.0
C663 C 0.09951 0.66152 0.57117 0.0
N664 N 0.11453 0.70968 0.78254 0.0
N665 N 0.10251 0.66648 0.6455 0.0
H666 H 0.44881 0.11763 0.2078 0.0
H667 H 0.40324 0.11349 0.79413 0.0
H668 H 0.39379 0.12452 0.16415 0.0
H669 H 0.45716 0.10516 0.84268 0.0
H670 H 0.39954 0.11799 0.92863 0.0
H671 H 0.45184 0.11294 0.07379 0.0
C672 C 0.43722 0.11797 0.17023 0.0
C673 C 0.42095 0.12139 0.19776 0.0
C674 C 0.41216 0.11514 0.90973 0.0
C675 C 0.42454 0.11633 0.04318 0.0
C676 C 0.41436 0.11269 0.83285 0.0
C677 C 0.43051 0.10886 0.80674 0.0
C678 C 0.42625 0.11383 0.96098 0.0
C679 C 0.44427 0.10773 0.85992 0.0
C680 C 0.43906 0.11544 0.09341 0.0
C681 C 0.4067 0.12213 0.1457 0.0
N682 N 0.44183 0.11022 0.93424 0.0
N683 N 0.40883 0.11961 0.07098 0.0
H684 H 0.27403 0.42214 0.52247 0.0
H685 H 0.351 0.42075 0.2005 0.0
H686 H 0.3312 0.41923 0.56782 0.0
H687 H 0.29493 0.42561 0.15492 0.0
H688 H 0.34346 0.41922 0.33473 0.0
H689 H 0.28093 0.42257 0.38804 0.0
C690 C 0.288 0.42149 0.50436 0.0
C691 C 0.302 0.42057 0.5571 0.0
C692 C 0.33275 0.42056 0.29544 0.0
C693 C 0.3101 0.42122 0.40225 0.0
C694 C 0.33709 0.4215 0.21855 0.0
C695 C 0.32365 0.42342 0.16585 0.0
C696 C 0.31482 0.42155 0.32045 0.0
C697 C 0.30564 0.42393 0.19308 0.0
C698 C 0.29198 0.42184 0.42733 0.0
C699 C 0.32005 0.42016 0.52968 0.0
N700 N 0.30182 0.42309 0.26835 0.0
N701 N 0.32353 0.42044 0.45434 0.0
H702 H 0.89081 0.29687 0.53103 0.0
H703 H 0.89588 0.34381 0.94356 0.0
H704 H 0.91674 0.36411 0.57786 0.0
H705 H 0.87727 0.27782 0.89989 0.0
H706 H 0.90246 0.35134 0.8094 0.0
H707 H 0.88427 0.28928 0.66542 0.0
C708 C 0.8951 0.31004 0.56938 0.0
C709 C 0.90443 0.33119 0.5428 0.0
C710 C 0.89693 0.33521 0.82928 0.0
C711 C 0.89703 0.32262 0.69713 0.0
C712 C 0.89324 0.33089 0.90615 0.0
C713 C 0.88597 0.31011 0.93382 0.0
C714 C 0.89328 0.31863 0.77928 0.0
C715 C 0.88256 0.29401 0.88174 0.0
C716 C 0.89145 0.30571 0.64626 0.0
C717 C 0.90984 0.34761 0.59562 0.0
N718 N 0.88622 0.29861 0.80726 0.0
N719 N 0.90601 0.34298 0.67002 0.0
H720 H 0.14535 0.53008 0.03173 0.0
H721 H 0.16289 0.63441 0.25221 0.0
H722 H 0.15317 0.53703 0.27217 0.0
H723 H 0.12996 0.61371 0.04037 0.0
H724 H 0.16907 0.60383 0.24958 0.0
H725 H 0.14933 0.56579 0.02445 0.0
C726 C 0.14835 0.53931 0.08283 0.0
C727 C 0.14885 0.53056 0.15275 0.0
C728 C 0.16084 0.60624 0.20309 0.0
C729 C 0.15331 0.57136 0.14474 0.0
C730 C 0.15749 0.62373 0.20425 0.0
C731 C 0.1459 0.62645 0.14643 0.0
C732 C 0.15276 0.59162 0.14319 0.0
C733 C 0.13894 0.61206 0.086 0.0
C734 C 0.15046 0.55961 0.07865 0.0
C735 C 0.15248 0.54313 0.21727 0.0
N736 N 0.14239 0.5952 0.08606 0.0
N737 N 0.1545 0.56288 0.21178 0.0
H738 H 0.59817 0.10471 0.5334 0.0
H739 H 0.54224 0.17656 0.51901 0.0
H740 H 0.63524 0.1738 0.53777 0.0
H741 H 0.51013 0.10799 0.4897 0.0
H742 H 0.57642 0.17691 0.53332 0.0
H743 H 0.56572 0.10657 0.52479 0.0
C744 C 0.59948 0.12035 0.53347 0.0
C745 C 0.61949 0.13913 0.53757 0.0
C746 C 0.56185 0.16186 0.52346 0.0
C747 C 0.58203 0.14143 0.5259 0.0
C748 C 0.5424 0.16165 0.51557 0.0
C749 C 0.5234 0.14227 0.50183 0.0
C750 C 0.56209 0.14251 0.51855 0.0
C751 C 0.52442 0.12337 0.49833 0.0
C752 C 0.58087 0.12141 0.52785 0.0
C753 C 0.62012 0.15893 0.53489 0.0
N754 N 0.54335 0.124 0.50654 0.0
N755 N 0.60161 0.15959 0.52945 0.0
H756 H 0.46496 0.63495 0.8066 0.0
H757 H 0.40095 0.51166 0.91347 0.0
H758 H 0.49374 0.59585 0.84672 0.0
H759 H 0.37334 0.53489 0.74996 0.0
H760 H 0.43301 0.54678 0.91623 0.0
H761 H 0.42946 0.60201 0.805 0.0
C762 C 0.46389 0.61958 0.81507 0.0
C763 C 0.48243 0.61833 0.82904 0.0
C764 C 0.41993 0.54428 0.87984 0.0
C765 C 0.44213 0.58099 0.82845 0.0
C766 C 0.40163 0.52422 0.87814 0.0
C767 C 0.38469 0.52017 0.82983 0.0
C768 C 0.42145 0.56067 0.83337 0.0
C769 C 0.38618 0.53732 0.78732 0.0
C770 C 0.44367 0.60088 0.81427 0.0
C771 C 0.48002 0.5979 0.839 0.0
N772 N 0.40444 0.55691 0.78942 0.0
N773 N 0.46034 0.58021 0.83934 0.0
H774 H 0.86549 0.38956 0.33302 0.0
H775 H 0.8367 0.46689 0.10255 0.0
H776 H 0.84391 0.37754 0.10333 0.0
H777 H 0.86949 0.48214 0.31521 0.0
H778 H 0.83093 0.43028 0.11207 0.0
H779 H 0.85825 0.41915 0.33784 0.0
C780 C 0.85881 0.39297 0.284 0.0
C781 C 0.85542 0.3813 0.21755 0.0
C782 C 0.839 0.44152 0.1573 0.0
C783 C 0.84756 0.41548 0.22181 0.0
C784 C 0.84214 0.4623 0.15213 0.0
C785 C 0.85362 0.47742 0.20815 0.0
C786 C 0.84731 0.43595 0.21918 0.0
C787 C 0.86062 0.4709 0.27081 0.0
C788 C 0.85476 0.40991 0.28658 0.0
C789 C 0.84671 0.38623 0.15557 0.0
N790 N 0.85749 0.45072 0.27436 0.0
N791 N 0.84337 0.40323 0.15874 0.0
H792 H 0.47423 0.85185 0.63712 0.0
H793 H 0.37873 0.84885 0.3994 0.0
H794 H 0.47493 0.85771 0.39574 0.0
H795 H 0.38384 0.85518 0.64061 0.0
H796 H 0.41038 0.84478 0.39752 0.0
H797 H 0.43777 0.84586 0.63918 0.0
C798 C 0.46657 0.85147 0.58439 0.0
C799 C 0.47772 0.85543 0.51615 0.0
C800 C 0.40442 0.84679 0.45097 0.0
C801 C 0.43605 0.84886 0.51824 0.0
C802 C 0.38623 0.84892 0.45216 0.0
C803 C 0.37869 0.85249 0.52027 0.0
C804 C 0.41515 0.84818 0.51837 0.0
C805 C 0.38927 0.85274 0.58677 0.0
C806 C 0.44581 0.84822 0.58568 0.0
C807 C 0.46705 0.85502 0.44969 0.0
N808 N 0.40703 0.85078 0.58411 0.0
N809 N 0.44688 0.85195 0.45243 0.0
H810 H 0.61718 0.46867 0.9634 0.0
H811 H 0.52008 0.38195 0.71842 0.0
H812 H 0.61421 0.47069 0.72159 0.0
H813 H 0.52411 0.37623 0.95787 0.0
H814 H 0.55678 0.41203 0.71754 0.0
H815 H 0.58566 0.43276 0.96214 0.0
C816 C 0.61017 0.46143 0.90989 0.0
C817 C 0.61827 0.47285 0.84247 0.0
C818 C 0.54987 0.40406 0.77029 0.0
C819 C 0.58192 0.43182 0.84083 0.0
C820 C 0.52897 0.38684 0.77062 0.0
C821 C 0.51924 0.37669 0.83824 0.0
C822 C 0.56102 0.41148 0.8384 0.0
C823 C 0.53122 0.38364 0.9046 0.0
C824 C 0.59207 0.44094 0.90929 0.0
C825 C 0.6083 0.46268 0.77502 0.0
N826 N 0.55145 0.40084 0.90323 0.0
N827 N 0.59058 0.44288 0.77601 0.0
H828 H 0.29075 0.47029 0.06118 0.0
H829 H 0.16452 0.42362 0.0132 0.0
H830 H 0.25251 0.42198 0.89742 0.0
H831 H 0.20345 0.4687 0.18458 0.0
H832 H 0.1965 0.42376 0.96527 0.0
H833 H 0.25889 0.47093 0.10243 0.0
C834 C 0.27567 0.45985 0.03364 0.0
C835 C 0.27436 0.44605 0.97573 0.0
C836 C 0.19799 0.43362 0.01329 0.0
C837 C 0.23761 0.44665 0.02302 0.0
C838 C 0.17975 0.43357 0.04062 0.0
C839 C 0.18125 0.4461 0.10321 0.0
C840 C 0.21785 0.44636 0.04871 0.0
C841 C 0.20143 0.45871 0.13639 0.0
C842 C 0.25742 0.4602 0.05735 0.0
C843 C 0.25429 0.43287 0.94235 0.0
N844 N 0.21885 0.45848 0.10883 0.0
N845 N 0.23671 0.43347 0.96652 0.0
H846 H 0.83806 0.2568 0.2751 0.0
H847 H 0.74022 0.20443 0.56568 0.0
H848 H 0.82286 0.29319 0.43057 0.0
H849 H 0.74874 0.16804 0.39028 0.0
H850 H 0.77111 0.23685 0.5181 0.0
H851 H 0.80621 0.22398 0.3176 0.0
C852 C 0.82805 0.25792 0.3181 0.0
C853 C 0.83321 0.27784 0.34936 0.0
C854 C 0.76624 0.22182 0.48974 0.0
C855 C 0.79674 0.24028 0.39837 0.0
C856 C 0.74857 0.20323 0.517 0.0
C857 C 0.74185 0.1834 0.48209 0.0
C858 C 0.77751 0.2207 0.42719 0.0
C859 C 0.75334 0.18296 0.41899 0.0
C860 C 0.80983 0.23916 0.34222 0.0
C861 C 0.81958 0.27825 0.40477 0.0
N862 N 0.77066 0.20131 0.39376 0.0
N863 N 0.80206 0.25979 0.42758 0.0
H864 H 0.56282 0.81079 0.48156 0.0
H865 H 0.55757 0.75148 0.86522 0.0
H866 H 0.57184 0.84138 0.69742 0.0
H867 H 0.57461 0.73444 0.65433 0.0
H868 H 0.55849 0.78234 0.80391 0.0
H869 H 0.56295 0.78051 0.54316 0.0
C870 C 0.56481 0.81114 0.54195 0.0
C871 C 0.56733 0.82866 0.58442 0.0
C872 C 0.56207 0.77186 0.77116 0.0
C873 C 0.56728 0.79393 0.65527 0.0
C874 C 0.56144 0.75419 0.80596 0.0
C875 C 0.56602 0.74035 0.76482 0.0
C876 C 0.56694 0.77555 0.69432 0.0
C877 C 0.57105 0.74473 0.68826 0.0
C878 C 0.56497 0.79389 0.57697 0.0
C879 C 0.56995 0.82826 0.66247 0.0
N880 N 0.57123 0.76186 0.65536 0.0
N881 N 0.56968 0.81109 0.69548 0.0
H882 H 0.83263 0.58154 0.1065 0.0
H883 H 0.7343 0.53396 0.81859 0.0
H884 H 0.82004 0.53272 0.94163 0.0
H885 H 0.74233 0.579 0.99295 0.0
H886 H 0.76597 0.53383 0.86367 0.0
H887 H 0.80013 0.58144 0.0663 0.0
C888 C 0.82305 0.5708 0.06191 0.0
C889 C 0.82911 0.55711 0.02742 0.0
C890 C 0.76085 0.54373 0.89238 0.0
C891 C 0.7919 0.55695 0.98118 0.0
C892 C 0.7427 0.54384 0.86658 0.0
C893 C 0.73561 0.55656 0.90189 0.0
C894 C 0.77221 0.55652 0.954 0.0
C895 C 0.74721 0.56894 0.96401 0.0
C896 C 0.80448 0.57074 0.03911 0.0
C897 C 0.81604 0.54353 0.97002 0.0
N898 N 0.765 0.56868 0.98796 0.0
N899 N 0.79814 0.54383 0.94873 0.0
H900 H 0.26089 0.80345 0.55336 0.0
H901 H 0.16756 0.75157 0.24639 0.0
H902 H 0.25792 0.8392 0.36372 0.0
H903 H 0.17852 0.71539 0.41611 0.0
H904 H 0.1994 0.7842 0.29036 0.0
H905 H 0.22954 0.77154 0.50609 0.0
C906 C 0.25364 0.80464 0.50169 0.0
C907 C 0.26212 0.82412 0.46253 0.0
C908 C 0.19484 0.7691 0.31776 0.0
C909 C 0.22593 0.78736 0.40782 0.0
C910 C 0.17664 0.75046 0.29281 0.0
C911 C 0.17032 0.73066 0.32758 0.0
C912 C 0.20671 0.76796 0.37828 0.0
C913 C 0.18275 0.73023 0.38739 0.0
C914 C 0.23571 0.78632 0.47458 0.0
C915 C 0.25196 0.82454 0.39575 0.0
N916 N 0.20025 0.74856 0.41088 0.0
N917 N 0.23435 0.80643 0.37058 0.0
H918 H 0.41422 0.25065 0.76034 0.0
H919 H 0.46718 0.20436 0.47644 0.0
H920 H 0.4687 0.28977 0.61882 0.0
H921 H 0.41705 0.16406 0.63186 0.0
H922 H 0.46734 0.23559 0.52835 0.0
H923 H 0.4144 0.21868 0.71464 0.0
C924 C 0.42624 0.25255 0.7198 0.0
C925 C 0.44144 0.27298 0.69327 0.0
C926 C 0.4563 0.21996 0.55143 0.0
C927 C 0.44169 0.23642 0.64068 0.0
C928 C 0.45617 0.20204 0.52165 0.0
C929 C 0.44201 0.18147 0.54958 0.0
C930 C 0.4421 0.21747 0.60962 0.0
C931 C 0.42822 0.1796 0.60852 0.0
C932 C 0.42634 0.23427 0.69383 0.0
C933 C 0.45664 0.27441 0.6409 0.0
N934 N 0.42854 0.19737 0.63642 0.0
N935 N 0.45632 0.25642 0.61627 0.0
loop_
_geom_bond_atom_site_label_1
_geom_bond_atom_site_label_2
_geom_bond_distance
_geom_bond_site_symmetry_2
_ccdc_geom_bond_type
Co0 N4 2.148 . S
Co0 N10 2.128 . S
Co0 N20 2.194 . S
Co0 O25 2.351 . S
Co0 O26 2.155 . S
Co0 O27 2.096 . S
C1 N4 1.301 . S
C1 N5 1.328 . S
C1 H6 0.930 . S
C2 C3 1.333 . S
C2 N4 1.317 . S
C2 H7 0.930 . S
C3 C2 1.333 . S
C3 N5 1.350 . S
C3 H29 0.931 . S
N4 Co0 2.148 . S
N4 C1 1.301 . S
N4 C2 1.317 . S
N5 C1 1.328 . S
N5 C3 1.350 . S
H6 C1 0.930 . S
H7 C2 0.930 . S
C8 O9 1.224 . S
C8 O27 1.247 . S
O9 C8 1.224 . S
N10 Co0 2.128 . S
N10 C11 1.355 1_554 S
N10 C13 1.311 1_554 S
C11 N10 1.355 1_556 S
C11 C12 1.363 . S
C11 H23 0.929 1_556 S
C12 C11 1.363 . S
C12 N14 1.375 . S
C12 H30 0.931 . S
C13 N10 1.311 1_556 S
C13 N14 1.347 . S
C13 H24 0.929 . S
N14 C12 1.375 . S
N14 C13 1.347 . S
C15 C18 1.365 . S
C15 N20 1.328 . S
C15 H21 0.929 . S
C16 C17 1.362 . S
C16 C19 1.378 . S
C16 H31 0.929 . S
C17 C16 1.362 . S
C17 C18 1.366 . S
C18 C15 1.365 . S
C18 C17 1.366 . S
C18 H32 0.930 . S
C19 C16 1.378 . S
C19 N20 1.315 . S
C19 H22 0.930 . S
N20 Co0 2.194 . S
N20 C15 1.328 . S
N20 C19 1.315 . S
H21 C15 0.929 . S
H22 C19 0.930 . S
H23 C11 0.929 1_554 S
H24 C13 0.929 . S
O25 Co0 2.351 . S
O25 C28 1.244 . S
O26 Co0 2.155 . S
O26 C28 1.240 . S
O27 Co0 2.096 . S
O27 C8 1.247 . S
C28 O25 1.244 . S
C28 O26 1.240 . S
H29 C3 0.931 . S
H30 C12 0.931 . S
H31 C16 0.929 . S
H32 C18 0.930 . S
Co33 N37 2.148 . S
Co33 N43 2.128 . S
Co33 N53 2.194 . S
Co33 O58 2.351 . S
Co33 O59 2.155 . S
Co33 O60 2.096 . S
C34 N37 1.301 . S
C34 N38 1.328 . S
C34 H39 0.930 . S
C35 C36 1.333 . S
C35 N37 1.317 . S
C35 H40 0.930 . S
C36 C35 1.333 . S
C36 N38 1.350 . S
C36 H62 0.931 . S
N37 Co33 2.148 . S
N37 C34 1.301 . S
N37 C35 1.317 . S
N38 C34 1.328 . S
N38 C36 1.350 . S
H39 C34 0.930 . S
H40 C35 0.930 . S
C41 O42 1.224 . S
C41 O60 1.247 . S
O42 C41 1.224 . S
N43 Co33 2.128 . S
N43 C44 1.355 . S
N43 C46 1.311 . S
C44 N43 1.355 . S
C44 C45 1.363 . S
C44 H56 0.929 . S
C45 C44 1.363 . S
C45 N47 1.375 . S
C45 H63 0.931 . S
C46 N43 1.311 . S
C46 N47 1.347 . S
C46 H57 0.929 . S
N47 C45 1.375 . S
N47 C46 1.347 . S
C48 C51 1.365 . S
C48 N53 1.328 . S
C48 H54 0.929 . S
C49 C50 1.362 . S
C49 C52 1.378 . S
C49 H64 0.929 . S
C50 C49 1.362 . S
C50 C51 1.366 . S
C51 C48 1.365 . S
C51 C50 1.366 . S
C51 H65 0.930 . S
C52 C49 1.378 . S
C52 N53 1.315 . S
C52 H55 0.930 . S
N53 Co33 2.194 . S
N53 C48 1.328 . S
N53 C52 1.315 . S
H54 C48 0.929 . S
H55 C52 0.930 . S
H56 C44 0.929 . S
H57 C46 0.929 . S
O58 Co33 2.351 . S
O58 C61 1.244 . S
O59 Co33 2.155 . S
O59 C61 1.240 . S
O60 Co33 2.096 . S
O60 C41 1.247 . S
C61 O58 1.244 . S
C61 O59 1.240 . S
H62 C36 0.931 . S
H63 C45 0.931 . S
H64 C49 0.929 . S
H65 C51 0.930 . S
Co66 N70 2.148 . S
Co66 N76 2.128 . S
Co66 N86 2.194 . S
Co66 O91 2.351 . S
Co66 O92 2.155 . S
Co66 O93 2.096 . S
C67 N70 1.301 . S
C67 N71 1.328 1_556 S
C67 H72 0.930 . S
C68 C69 1.333 1_556 S
C68 N70 1.317 . S
C68 H73 0.930 . S
C69 C68 1.333 1_554 S
C69 N71 1.350 . S
C69 H95 0.931 . S
N70 Co66 2.148 . S
N70 C67 1.301 . S
N70 C68 1.317 . S
N71 C67 1.328 1_554 S
N71 C69 1.350 . S
H72 C67 0.930 . S
H73 C68 0.930 . S
C74 O75 1.224 . S
C74 O93 1.247 . S
O75 C74 1.224 . S
N76 Co66 2.128 . S
N76 C77 1.355 . S
N76 C79 1.311 . S
C77 N76 1.355 . S
C77 C78 1.363 . S
C77 H89 0.929 . S
C78 C77 1.363 . S
C78 N80 1.375 . S
C78 H96 0.931 . S
C79 N76 1.311 . S
C79 N80 1.347 . S
C79 H90 0.929 . S
N80 C78 1.375 . S
N80 C79 1.347 . S
C81 C84 1.365 . S
C81 N86 1.328 . S
C81 H87 0.929 . S
C82 C83 1.362 . S
C82 C85 1.378 . S
C82 H97 0.929 . S
C83 C82 1.362 . S
C83 C84 1.366 . S
C84 C81 1.365 . S
C84 C83 1.366 . S
C84 H98 0.930 . S
C85 C82 1.378 . S
C85 N86 1.315 . S
C85 H88 0.930 . S
N86 Co66 2.194 . S
N86 C81 1.328 . S
N86 C85 1.315 . S
H87 C81 0.929 . S
H88 C85 0.930 . S
H89 C77 0.929 . S
H90 C79 0.929 . S
O91 Co66 2.351 . S
O91 C94 1.244 . S
O92 Co66 2.155 . S
O92 C94 1.240 . S
O93 Co66 2.096 . S
O93 C74 1.247 . S
C94 O91 1.244 . S
C94 O92 1.240 . S
H95 C69 0.931 . S
H96 C78 0.931 . S
H97 C82 0.929 . S
H98 C84 0.930 . S
Co99 N103 2.148 . S
Co99 N109 2.128 . S
Co99 N119 2.194 . S
Co99 O124 2.351 . S
Co99 O125 2.155 . S
Co99 O126 2.096 . S
C100 N103 1.301 . S
C100 N104 1.328 . S
C100 H105 0.930 . S
C101 C102 1.333 . S
C101 N103 1.317 . S
C101 H106 0.930 . S
C102 C101 1.333 . S
C102 N104 1.350 . S
C102 H128 0.931 . S
N103 Co99 2.148 . S
N103 C100 1.301 . S
N103 C101 1.317 . S
N104 C100 1.328 . S
N104 C102 1.350 . S
H105 C100 0.930 . S
H106 C101 0.930 . S
C107 O108 1.224 . S
C107 O126 1.247 . S
O108 C107 1.224 . S
N109 Co99 2.128 . S
N109 C110 1.355 1_554 S
N109 C112 1.311 1_554 S
C110 N109 1.355 1_556 S
C110 C111 1.363 . S
C110 H122 0.929 1_556 S
C111 C110 1.363 . S
C111 N113 1.375 . S
C111 H129 0.931 . S
C112 N109 1.311 1_556 S
C112 N113 1.347 . S
C112 H123 0.929 . S
N113 C111 1.375 . S
N113 C112 1.347 . S
C114 C117 1.365 . S
C114 N119 1.328 . S
C114 H120 0.929 . S
C115 C116 1.362 . S
C115 C118 1.378 . S
C115 H130 0.929 . S
C116 C115 1.362 . S
C116 C117 1.366 . S
C117 C114 1.365 . S
C117 C116 1.366 . S
C117 H131 0.930 . S
C118 C115 1.378 . S
C118 N119 1.315 . S
C118 H121 0.930 . S
N119 Co99 2.194 . S
N119 C114 1.328 . S
N119 C118 1.315 . S
H120 C114 0.929 . S
H121 C118 0.930 . S
H122 C110 0.929 1_554 S
H123 C112 0.929 . S
O124 Co99 2.351 . S
O124 C127 1.244 . S
O125 Co99 2.155 . S
O125 C127 1.240 . S
O126 Co99 2.096 . S
O126 C107 1.247 . S
C127 O124 1.244 . S
C127 O125 1.240 . S
H128 C102 0.931 . S
H129 C111 0.931 . S
H130 C115 0.929 . S
H131 C117 0.930 . S
Co132 N136 2.148 . S
Co132 N142 2.128 . S
Co132 N152 2.194 . S
Co132 O157 2.351 . S
Co132 O158 2.155 . S
Co132 O159 2.096 . S
C133 N136 1.301 . S
C133 N137 1.328 . S
C133 H138 0.930 . S
C134 C135 1.333 . S
C134 N136 1.317 . S
C134 H139 0.930 . S
C135 C134 1.333 . S
C135 N137 1.350 . S
C135 H161 0.931 . S
N136 Co132 2.148 . S
N136 C133 1.301 . S
N136 C134 1.317 . S
N137 C133 1.328 . S
N137 C135 1.350 . S
H138 C133 0.930 . S
H139 C134 0.930 . S
C140 O141 1.224 . S
C140 O159 1.247 . S
O141 C140 1.224 . S
N142 Co132 2.128 . S
N142 C143 1.355 . S
N142 C145 1.311 . S
C143 N142 1.355 . S
C143 C144 1.363 . S
C143 H155 0.929 . S
C144 C143 1.363 . S
C144 N146 1.375 . S
C144 H162 0.931 . S
C145 N142 1.311 . S
C145 N146 1.347 . S
C145 H156 0.929 . S
N146 C144 1.375 . S
N146 C145 1.347 . S
C147 C150 1.365 . S
C147 N152 1.328 . S
C147 H153 0.929 . S
C148 C149 1.362 . S
C148 C151 1.378 . S
C148 H163 0.929 . S
C149 C148 1.362 . S
C149 C150 1.366 . S
C150 C147 1.365 . S
C150 C149 1.366 . S
C150 H164 0.930 . S
C151 C148 1.378 . S
C151 N152 1.315 . S
C151 H154 0.930 . S
N152 Co132 2.194 . S
N152 C147 1.328 . S
N152 C151 1.315 . S
H153 C147 0.929 . S
H154 C151 0.930 . S
H155 C143 0.929 . S
H156 C145 0.929 . S
O157 Co132 2.351 . S
O157 C160 1.244 . S
O158 Co132 2.155 . S
O158 C160 1.240 . S
O159 Co132 2.096 . S
O159 C140 1.247 . S
C160 O157 1.244 . S
C160 O158 1.240 . S
H161 C135 0.931 . S
H162 C144 0.931 . S
H163 C148 0.929 . S
H164 C150 0.930 . S
Co165 N169 2.148 . S
Co165 N175 2.128 . S
Co165 N185 2.194 . S
Co165 O190 2.351 . S
Co165 O191 2.155 . S
Co165 O192 2.096 . S
C166 N169 1.301 . S
C166 N170 1.328 1_556 S
C166 H171 0.930 . S
C167 C168 1.333 1_556 S
C167 N169 1.317 . S
C167 H172 0.930 . S
C168 C167 1.333 1_554 S
C168 N170 1.350 . S
C168 H194 0.931 . S
N169 Co165 2.148 . S
N169 C166 1.301 . S
N169 C167 1.317 . S
N170 C166 1.328 1_554 S
N170 C168 1.350 . S
H171 C166 0.930 . S
H172 C167 0.930 . S
C173 O174 1.224 . S
C173 O192 1.247 . S
O174 C173 1.224 . S
N175 Co165 2.128 . S
N175 C176 1.355 . S
N175 C178 1.311 . S
C176 N175 1.355 . S
C176 C177 1.363 . S
C176 H188 0.929 . S
C177 C176 1.363 . S
C177 N179 1.375 . S
C177 H195 0.931 . S
C178 N175 1.311 . S
C178 N179 1.347 . S
C178 H189 0.929 . S
N179 C177 1.375 . S
N179 C178 1.347 . S
C180 C183 1.365 . S
C180 N185 1.328 . S
C180 H186 0.929 . S
C181 C182 1.362 . S
C181 C184 1.378 . S
C181 H196 0.929 . S
C182 C181 1.362 . S
C182 C183 1.366 . S
C183 C180 1.365 . S
C183 C182 1.366 . S
C183 H197 0.930 . S
C184 C181 1.378 . S
C184 N185 1.315 . S
C184 H187 0.930 . S
N185 Co165 2.194 . S
N185 C180 1.328 . S
N185 C184 1.315 . S
H186 C180 0.929 . S
H187 C184 0.930 . S
H188 C176 0.929 . S
H189 C178 0.929 . S
O190 Co165 2.351 . S
O190 C193 1.244 . S
O191 Co165 2.155 . S
O191 C193 1.240 . S
O192 Co165 2.096 . S
O192 C173 1.247 . S
C193 O190 1.244 . S
C193 O191 1.240 . S
H194 C168 0.931 . S
H195 C177 0.931 . S
H196 C181 0.929 . S
H197 C183 0.930 . S
Co198 N202 2.148 . S
Co198 N208 2.128 . S
Co198 N218 2.194 . S
Co198 O223 2.351 . S
Co198 O224 2.155 . S
Co198 O225 2.096 . S
C199 N202 1.301 . S
C199 N203 1.328 . S
C199 H204 0.930 . S
C200 C201 1.333 . S
C200 N202 1.317 . S
C200 H205 0.930 . S
C201 C200 1.333 . S
C201 N203 1.350 . S
C201 H227 0.931 . S
N202 Co198 2.148 . S
N202 C199 1.301 . S
N202 C200 1.317 . S
N203 C199 1.328 . S
N203 C201 1.350 . S
H204 C199 0.930 . S
H205 C200 0.930 . S
C206 O207 1.224 . S
C206 O225 1.247 . S
O207 C206 1.224 . S
N208 Co198 2.128 . S
N208 C209 1.355 . S
N208 C211 1.311 . S
C209 N208 1.355 . S
C209 C210 1.363 . S
C209 H221 0.929 . S
C210 C209 1.363 . S
C210 N212 1.375 . S
C210 H228 0.931 . S
C211 N208 1.311 . S
C211 N212 1.347 . S
C211 H222 0.929 . S
N212 C210 1.375 . S
N212 C211 1.347 . S
C213 C216 1.365 . S
C213 N218 1.328 . S
C213 H219 0.929 . S
C214 C215 1.362 . S
C214 C217 1.378 . S
C214 H229 0.929 . S
C215 C214 1.362 . S
C215 C216 1.366 . S
C216 C213 1.365 . S
C216 C215 1.366 . S
C216 H230 0.930 . S
C217 C214 1.378 . S
C217 N218 1.315 . S
C217 H220 0.930 . S
N218 Co198 2.194 . S
N218 C213 1.328 . S
N218 C217 1.315 . S
H219 C213 0.929 . S
H220 C217 0.930 . S
H221 C209 0.929 . S
H222 C211 0.929 . S
O223 Co198 2.351 . S
O223 C226 1.244 . S
O224 Co198 2.155 . S
O224 C226 1.240 . S
O225 Co198 2.096 . S
O225 C206 1.247 . S
C226 O223 1.244 . S
C226 O224 1.240 . S
H227 C201 0.931 . S
H228 C210 0.931 . S
H229 C214 0.929 . S
H230 C216 0.930 . S
Co231 N235 2.148 . S
Co231 N241 2.128 . S
Co231 N251 2.194 . S
Co231 O256 2.351 . S
Co231 O257 2.155 . S
Co231 O258 2.096 . S
C232 N235 1.301 . S
C232 N236 1.328 . S
C232 H237 0.930 . S
C233 C234 1.333 . S
C233 N235 1.317 . S
C233 H238 0.930 . S
C234 C233 1.333 . S
C234 N236 1.350 . S
C234 H260 0.931 . S
N235 Co231 2.148 . S
N235 C232 1.301 . S
N235 C233 1.317 . S
N236 C232 1.328 . S
N236 C234 1.350 . S
H237 C232 0.930 . S
H238 C233 0.930 . S
C239 O240 1.224 . S
C239 O258 1.247 . S
O240 C239 1.224 . S
N241 Co231 2.128 . S
N241 C242 1.355 1_556 S
N241 C244 1.311 1_556 S
C242 N241 1.355 1_554 S
C242 C243 1.363 . S
C242 H254 0.929 1_554 S
C243 C242 1.363 . S
C243 N245 1.375 . S
C243 H261 0.931 . S
C244 N241 1.311 1_554 S
C244 N245 1.347 . S
C244 H255 0.929 . S
N245 C243 1.375 . S
N245 C244 1.347 . S
C246 C249 1.365 . S
C246 N251 1.328 . S
C246 H252 0.929 . S
C247 C248 1.362 . S
C247 C250 1.378 . S
C247 H262 0.929 . S
C248 C247 1.362 . S
C248 C249 1.366 . S
C249 C246 1.365 . S
C249 C248 1.366 . S
C249 H263 0.930 . S
C250 C247 1.378 . S
C250 N251 1.315 . S
C250 H253 0.930 . S
N251 Co231 2.194 . S
N251 C246 1.328 . S
N251 C250 1.315 . S
H252 C246 0.929 . S
H253 C250 0.930 . S
H254 C242 0.929 1_556 S
H255 C244 0.929 . S
O256 Co231 2.351 . S
O256 C259 1.244 . S
O257 Co231 2.155 . S
O257 C259 1.240 . S
O258 Co231 2.096 . S
O258 C239 1.247 . S
C259 O256 1.244 . S
C259 O257 1.240 . S
H260 C234 0.931 . S
H261 C243 0.931 . S
H262 C247 0.929 . S
H263 C249 0.930 . S
Co264 N268 2.148 . S
Co264 N274 2.128 . S
Co264 N284 2.194 . S
Co264 O289 2.351 . S
Co264 O290 2.155 . S
Co264 O291 2.096 . S
C265 N268 1.301 . S
C265 N269 1.328 1_554 S
C265 H270 0.930 . S
C266 C267 1.333 1_554 S
C266 N268 1.317 . S
C266 H271 0.930 . S
C267 C266 1.333 1_556 S
C267 N269 1.350 . S
C267 H293 0.931 . S
N268 Co264 2.148 . S
N268 C265 1.301 . S
N268 C266 1.317 . S
N269 C265 1.328 1_556 S
N269 C267 1.350 . S
H270 C265 0.930 . S
H271 C266 0.930 . S
C272 O273 1.224 . S
C272 O291 1.247 . S
O273 C272 1.224 . S
N274 Co264 2.128 . S
N274 C275 1.355 . S
N274 C277 1.311 . S
C275 N274 1.355 . S
C275 C276 1.363 . S
C275 H287 0.929 . S
C276 C275 1.363 . S
C276 N278 1.375 . S
C276 H294 0.931 . S
C277 N274 1.311 . S
C277 N278 1.347 . S
C277 H288 0.929 . S
N278 C276 1.375 . S
N278 C277 1.347 . S
C279 C282 1.365 . S
C279 N284 1.328 . S
C279 H285 0.929 . S
C280 C281 1.362 . S
C280 C283 1.378 . S
C280 H295 0.929 . S
C281 C280 1.362 . S
C281 C282 1.366 . S
C282 C279 1.365 . S
C282 C281 1.366 . S
C282 H296 0.930 . S
C283 C280 1.378 . S
C283 N284 1.315 . S
C283 H286 0.930 . S
N284 Co264 2.194 . S
N284 C279 1.328 . S
N284 C283 1.315 . S
H285 C279 0.929 . S
H286 C283 0.930 . S
H287 C275 0.929 . S
H288 C277 0.929 . S
O289 Co264 2.351 . S
O289 C292 1.244 . S
O290 Co264 2.155 . S
O290 C292 1.240 . S
O291 Co264 2.096 . S
O291 C272 1.247 . S
C292 O289 1.244 . S
C292 O290 1.240 . S
H293 C267 0.931 . S
H294 C276 0.931 . S
H295 C280 0.929 . S
H296 C282 0.930 . S
Co297 N301 2.148 . S
Co297 N307 2.128 . S
Co297 N317 2.194 . S
Co297 O322 2.351 . S
Co297 O323 2.155 . S
Co297 O324 2.096 . S
C298 N301 1.301 . S
C298 N302 1.328 . S
C298 H303 0.930 . S
C299 C300 1.333 . S
C299 N301 1.317 . S
C299 H304 0.930 . S
C300 C299 1.333 . S
C300 N302 1.350 . S
C300 H326 0.931 . S
N301 Co297 2.148 . S
N301 C298 1.301 . S
N301 C299 1.317 . S
N302 C298 1.328 . S
N302 C300 1.350 . S
H303 C298 0.930 . S
H304 C299 0.930 . S
C305 O306 1.224 . S
C305 O324 1.247 . S
O306 C305 1.224 . S
N307 Co297 2.128 . S
N307 C308 1.355 . S
N307 C310 1.311 . S
C308 N307 1.355 . S
C308 C309 1.363 . S
C308 H320 0.929 . S
C309 C308 1.363 . S
C309 N311 1.375 . S
C309 H327 0.931 . S
C310 N307 1.311 . S
C310 N311 1.347 . S
C310 H321 0.929 . S
N311 C309 1.375 . S
N311 C310 1.347 . S
C312 C315 1.365 . S
C312 N317 1.328 . S
C312 H318 0.929 . S
C313 C314 1.362 . S
C313 C316 1.378 . S
C313 H328 0.929 . S
C314 C313 1.362 . S
C314 C315 1.366 . S
C315 C312 1.365 . S
C315 C314 1.366 . S
C315 H329 0.930 . S
C316 C313 1.378 . S
C316 N317 1.315 . S
C316 H319 0.930 . S
N317 Co297 2.194 . S
N317 C312 1.328 . S
N317 C316 1.315 . S
H318 C312 0.929 . S
H319 C316 0.930 . S
H320 C308 0.929 . S
H321 C310 0.929 . S
O322 Co297 2.351 . S
O322 C325 1.244 . S
O323 Co297 2.155 . S
O323 C325 1.240 . S
O324 Co297 2.096 . S
O324 C305 1.247 . S
C325 O322 1.244 . S
C325 O323 1.240 . S
H326 C300 0.931 . S
H327 C309 0.931 . S
H328 C313 0.929 . S
H329 C315 0.930 . S
Co330 N334 2.148 . S
Co330 N340 2.128 . S
Co330 N350 2.194 . S
Co330 O355 2.351 . S
Co330 O356 2.155 . S
Co330 O357 2.096 . S
C331 N334 1.301 . S
C331 N335 1.328 . S
C331 H336 0.930 . S
C332 C333 1.333 . S
C332 N334 1.317 . S
C332 H337 0.930 . S
C333 C332 1.333 . S
C333 N335 1.350 . S
C333 H359 0.931 . S
N334 Co330 2.148 . S
N334 C331 1.301 . S
N334 C332 1.317 . S
N335 C331 1.328 . S
N335 C333 1.350 . S
H336 C331 0.930 . S
H337 C332 0.930 . S
C338 O339 1.224 . S
C338 O357 1.247 . S
O339 C338 1.224 . S
N340 Co330 2.128 . S
N340 C341 1.355 1_556 S
N340 C343 1.311 1_556 S
C341 N340 1.355 1_554 S
C341 C342 1.363 . S
C341 H353 0.929 1_554 S
C342 C341 1.363 . S
C342 N344 1.375 . S
C342 H360 0.931 . S
C343 N340 1.311 1_554 S
C343 N344 1.347 . S
C343 H354 0.929 . S
N344 C342 1.375 . S
N344 C343 1.347 . S
C345 C348 1.365 . S
C345 N350 1.328 . S
C345 H351 0.929 . S
C346 C347 1.362 . S
C346 C349 1.378 . S
C346 H361 0.929 . S
C347 C346 1.362 . S
C347 C348 1.366 . S
C348 C345 1.365 . S
C348 C347 1.366 . S
C348 H362 0.930 . S
C349 C346 1.378 . S
C349 N350 1.315 . S
C349 H352 0.930 . S
N350 Co330 2.194 . S
N350 C345 1.328 . S
N350 C349 1.315 . S
H351 C345 0.929 . S
H352 C349 0.930 . S
H353 C341 0.929 1_556 S
H354 C343 0.929 . S
O355 Co330 2.351 . S
O355 C358 1.244 . S
O356 Co330 2.155 . S
O356 C358 1.240 . S
O357 Co330 2.096 . S
O357 C338 1.247 . S
C358 O355 1.244 . S
C358 O356 1.240 . S
H359 C333 0.931 . S
H360 C342 0.931 . S
H361 C346 0.929 . S
H362 C348 0.930 . S
Co363 N367 2.148 . S
Co363 N373 2.128 . S
Co363 N383 2.194 . S
Co363 O388 2.351 . S
Co363 O389 2.155 . S
Co363 O390 2.096 . S
C364 N367 1.301 . S
C364 N368 1.328 1_554 S
C364 H369 0.930 . S
C365 C366 1.333 1_554 S
C365 N367 1.317 . S
C365 H370 0.930 . S
C366 C365 1.333 1_556 S
C366 N368 1.350 . S
C366 H392 0.931 . S
N367 Co363 2.148 . S
N367 C364 1.301 . S
N367 C365 1.317 . S
N368 C364 1.328 1_556 S
N368 C366 1.350 . S
H369 C364 0.930 . S
H370 C365 0.930 . S
C371 O372 1.224 . S
C371 O390 1.247 . S
O372 C371 1.224 . S
N373 Co363 2.128 . S
N373 C374 1.355 . S
N373 C376 1.311 . S
C374 N373 1.355 . S
C374 C375 1.363 . S
C374 H386 0.929 . S
C375 C374 1.363 . S
C375 N377 1.375 . S
C375 H393 0.931 . S
C376 N373 1.311 . S
C376 N377 1.347 . S
C376 H387 0.929 . S
N377 C375 1.375 . S
N377 C376 1.347 . S
C378 C381 1.365 . S
C378 N383 1.328 . S
C378 H384 0.929 . S
C379 C380 1.362 . S
C379 C382 1.378 . S
C379 H394 0.929 . S
C380 C379 1.362 . S
C380 C381 1.366 . S
C381 C378 1.365 . S
C381 C380 1.366 . S
C381 H395 0.930 . S
C382 C379 1.378 . S
C382 N383 1.315 . S
C382 H385 0.930 . S
N383 Co363 2.194 . S
N383 C378 1.328 . S
N383 C382 1.315 . S
H384 C378 0.929 . S
H385 C382 0.930 . S
H386 C374 0.929 . S
H387 C376 0.929 . S
O388 Co363 2.351 . S
O388 C391 1.244 . S
O389 Co363 2.155 . S
O389 C391 1.240 . S
O390 Co363 2.096 . S
O390 C371 1.247 . S
C391 O388 1.244 . S
C391 O389 1.240 . S
H392 C366 0.931 . S
H393 C375 0.931 . S
H394 C379 0.929 . S
H395 C381 0.930 . S
H396 C402 0.930 . S
H397 C406 0.930 . S
H398 C411 0.929 . S
H399 C409 0.929 . S
H400 C404 0.929 . S
H401 C410 0.929 . S
C402 H396 0.930 . S
C402 C403 1.367 . S
C402 C410 1.378 . S
C403 C402 1.367 . S
C403 C411 1.433 . S
C404 H400 0.929 . S
C404 C406 1.378 . S
C404 C408 1.350 . S
C405 C408 1.463 1_455 S
C405 C410 1.350 . S
C405 N413 1.427 . S
C406 H397 0.930 . S
C406 C404 1.378 . S
C406 C407 1.367 . S
C407 C406 1.367 . S
C407 C409 1.433 . S
C408 C404 1.350 . S
C408 C405 1.463 1_655 S
C408 N412 1.427 . S
C409 H399 0.929 . S
C409 C407 1.433 . S
C409 N412 1.384 . S
C410 H401 0.929 . S
C410 C402 1.378 . S
C410 C405 1.350 . S
C411 H398 0.929 . S
C411 C403 1.433 . S
C411 N413 1.384 . S
N412 C408 1.427 . S
N412 C409 1.384 . S
N413 C405 1.427 . S
N413 C411 1.384 . S
H414 C420 0.930 . S
H415 C424 0.930 . S
H416 C429 0.929 . S
H417 C427 0.929 . S
H418 C422 0.929 . S
H419 C428 0.929 . S
C420 H414 0.930 . S
C420 C421 1.367 . S
C420 C428 1.378 . S
C421 C420 1.367 . S
C421 C429 1.433 . S
C422 H418 0.929 . S
C422 C424 1.378 . S
C422 C426 1.350 . S
C423 C426 1.463 1_545 S
C423 C428 1.350 . S
C423 N431 1.427 . S
C424 H415 0.930 . S
C424 C422 1.378 . S
C424 C425 1.367 . S
C425 C424 1.367 . S
C425 C427 1.433 . S
C426 C422 1.350 . S
C426 C423 1.463 1_565 S
C426 N430 1.427 . S
C427 H417 0.929 . S
C427 C425 1.433 . S
C427 N430 1.384 . S
C428 H419 0.929 . S
C428 C420 1.378 . S
C428 C423 1.350 . S
C429 H416 0.929 . S
C429 C421 1.433 . S
C429 N431 1.384 . S
N430 C426 1.427 . S
N430 C427 1.384 . S
N431 C423 1.427 . S
N431 C429 1.384 . S
H432 C438 0.930 . S
H433 C442 0.930 . S
H434 C447 0.929 . S
H435 C445 0.929 . S
H436 C440 0.929 . S
H437 C446 0.929 . S
C438 H432 0.930 . S
C438 C439 1.367 . S
C438 C446 1.378 . S
C439 C438 1.367 . S
C439 C447 1.433 . S
C440 H436 0.929 . S
C440 C442 1.378 . S
C440 C444 1.350 . S
C441 C444 1.463 . S
C441 C446 1.350 . S
C441 N449 1.427 . S
C442 H433 0.930 . S
C442 C440 1.378 . S
C442 C443 1.367 . S
C443 C442 1.367 . S
C443 C445 1.433 . S
C444 C440 1.350 . S
C444 C441 1.463 . S
C444 N448 1.427 . S
C445 H435 0.929 . S
C445 C443 1.433 . S
C445 N448 1.384 . S
C446 H437 0.929 . S
C446 C438 1.378 . S
C446 C441 1.350 . S
C447 H434 0.929 . S
C447 C439 1.433 . S
C447 N449 1.384 . S
N448 C444 1.427 . S
N448 C445 1.384 . S
N449 C441 1.427 . S
N449 C447 1.384 . S
H450 C456 0.930 . S
H451 C460 0.930 . S
H452 C465 0.929 . S
H453 C463 0.929 . S
H454 C458 0.929 . S
H455 C464 0.929 . S
C456 H450 0.930 . S
C456 C457 1.367 . S
C456 C464 1.378 . S
C457 C456 1.367 . S
C457 C465 1.433 . S
C458 H454 0.929 . S
C458 C460 1.378 . S
C458 C462 1.350 . S
C459 C462 1.463 1_455 S
C459 C464 1.350 . S
C459 N467 1.427 . S
C460 H451 0.930 . S
C460 C458 1.378 . S
C460 C461 1.367 . S
C461 C460 1.367 . S
C461 C463 1.433 . S
C462 C458 1.350 . S
C462 C459 1.463 1_655 S
C462 N466 1.427 . S
C463 H453 0.929 . S
C463 C461 1.433 . S
C463 N466 1.384 . S
C464 H455 0.929 . S
C464 C456 1.378 . S
C464 C459 1.350 . S
C465 H452 0.929 . S
C465 C457 1.433 . S
C465 N467 1.384 . S
N466 C462 1.427 . S
N466 C463 1.384 . S
N467 C459 1.427 . S
N467 C465 1.384 . S
H468 C474 0.930 . S
H469 C478 0.930 . S
H470 C483 0.929 . S
H471 C481 0.929 . S
H472 C476 0.929 . S
H473 C482 0.929 . S
C474 H468 0.930 . S
C474 C475 1.367 . S
C474 C482 1.378 . S
C475 C474 1.367 . S
C475 C483 1.433 . S
C476 H472 0.929 . S
C476 C478 1.378 . S
C476 C480 1.350 . S
C477 C480 1.463 1_545 S
C477 C482 1.350 . S
C477 N485 1.427 . S
C478 H469 0.930 . S
C478 C476 1.378 . S
C478 C479 1.367 . S
C479 C478 1.367 . S
C479 C481 1.433 . S
C480 C476 1.350 . S
C480 C477 1.463 1_565 S
C480 N484 1.427 . S
C481 H471 0.929 . S
C481 C479 1.433 . S
C481 N484 1.384 . S
C482 H473 0.929 . S
C482 C474 1.378 . S
C482 C477 1.350 . S
C483 H470 0.929 . S
C483 C475 1.433 . S
C483 N485 1.384 . S
N484 C480 1.427 . S
N484 C481 1.384 . S
N485 C477 1.427 . S
N485 C483 1.384 . S
H486 C492 0.930 . S
H487 C496 0.930 . S
H488 C501 0.929 . S
H489 C499 0.929 . S
H490 C494 0.929 . S
H491 C500 0.929 . S
C492 H486 0.930 . S
C492 C493 1.367 . S
C492 C500 1.378 . S
C493 C492 1.367 . S
C493 C501 1.433 . S
C494 H490 0.929 . S
C494 C496 1.378 . S
C494 C498 1.350 . S
C495 C498 1.463 . S
C495 C500 1.350 . S
C495 N503 1.427 . S
C496 H487 0.930 . S
C496 C494 1.378 . S
C496 C497 1.367 . S
C497 C496 1.367 . S
C497 C499 1.433 . S
C498 C494 1.350 . S
C498 C495 1.463 . S
C498 N502 1.427 . S
C499 H489 0.929 . S
C499 C497 1.433 . S
C499 N502 1.384 . S
C500 H491 0.929 . S
C500 C492 1.378 . S
C500 C495 1.350 . S
C501 H488 0.929 . S
C501 C493 1.433 . S
C501 N503 1.384 . S
N502 C498 1.427 . S
N502 C499 1.384 . S
N503 C495 1.427 . S
N503 C501 1.384 . S
H504 C510 0.930 . S
H505 C514 0.930 . S
H506 C519 0.929 . S
H507 C517 0.929 . S
H508 C512 0.929 . S
H509 C518 0.929 . S
C510 H504 0.930 . S
C510 C511 1.367 . S
C510 C518 1.378 . S
C511 C510 1.367 . S
C511 C519 1.433 . S
C512 H508 0.929 . S
C512 C514 1.378 . S
C512 C516 1.350 . S
C513 C516 1.463 . S
C513 C518 1.350 . S
C513 N521 1.427 . S
C514 H505 0.930 . S
C514 C512 1.378 . S
C514 C515 1.367 . S
C515 C514 1.367 . S
C515 C517 1.433 . S
C516 C512 1.350 . S
C516 C513 1.463 . S
C516 N520 1.427 . S
C517 H507 0.929 . S
C517 C515 1.433 . S
C517 N520 1.384 . S
C518 H509 0.929 . S
C518 C510 1.378 . S
C518 C513 1.350 . S
C519 H506 0.929 . S
C519 C511 1.433 . S
C519 N521 1.384 . S
N520 C516 1.427 . S
N520 C517 1.384 . S
N521 C513 1.427 . S
N521 C519 1.384 . S
H522 C528 0.930 . S
H523 C532 0.930 . S
H524 C537 0.929 . S
H525 C535 0.929 . S
H526 C530 0.929 . S
H527 C536 0.929 . S
C528 H522 0.930 . S
C528 C529 1.367 . S
C528 C536 1.378 . S
C529 C528 1.367 . S
C529 C537 1.433 . S
C530 H526 0.929 . S
C530 C532 1.378 . S
C530 C534 1.346 1_554 S
C531 C534 1.470 . S
C531 C536 1.350 . S
C531 N539 1.427 . S
C532 H523 0.930 . S
C532 C530 1.378 . S
C532 C533 1.367 . S
C533 C532 1.367 . S
C533 C535 1.433 . S
C534 C530 1.346 1_556 S
C534 C531 1.470 . S
C534 N538 1.424 1_556 S
C535 H525 0.929 . S
C535 C533 1.433 . S
C535 N538 1.384 . S
C536 H527 0.929 . S
C536 C528 1.378 . S
C536 C531 1.350 . S
C537 H524 0.929 . S
C537 C529 1.433 . S
C537 N539 1.384 . S
N538 C534 1.424 1_554 S
N538 C535 1.384 . S
N539 C531 1.427 . S
N539 C537 1.384 . S
H540 C546 0.930 . S
H541 C550 0.930 . S
H542 C555 0.929 . S
H543 C553 0.929 . S
H544 C548 0.929 . S
H545 C554 0.929 . S
C546 H540 0.930 . S
C546 C547 1.367 . S
C546 C554 1.378 . S
C547 C546 1.367 . S
C547 C555 1.433 . S
C548 H544 0.929 . S
C548 C550 1.378 . S
C548 C552 1.350 . S
C549 C552 1.463 . S
C549 C554 1.350 . S
C549 N557 1.427 . S
C550 H541 0.930 . S
C550 C548 1.378 . S
C550 C551 1.367 . S
C551 C550 1.367 . S
C551 C553 1.433 . S
C552 C548 1.350 . S
C552 C549 1.463 . S
C552 N556 1.427 . S
C553 H543 0.929 . S
C553 C551 1.433 . S
C553 N556 1.384 . S
C554 H545 0.929 . S
C554 C546 1.378 . S
C554 C549 1.350 . S
C555 H542 0.929 . S
C555 C547 1.433 . S
C555 N557 1.384 . S
N556 C552 1.427 . S
N556 C553 1.384 . S
N557 C549 1.427 . S
N557 C555 1.384 . S
H558 C564 0.930 . S
H559 C568 0.930 . S
H560 C573 0.929 . S
H561 C571 0.929 . S
H562 C566 0.929 . S
H563 C572 0.929 . S
C564 H558 0.930 . S
C564 C565 1.367 . S
C564 C572 1.378 . S
C565 C564 1.367 . S
C565 C573 1.433 . S
C566 H562 0.929 . S
C566 C568 1.378 . S
C566 C570 1.350 . S
C567 C570 1.463 . S
C567 C572 1.350 . S
C567 N575 1.427 . S
C568 H559 0.930 . S
C568 C566 1.378 . S
C568 C569 1.367 . S
C569 C568 1.367 . S
C569 C571 1.433 . S
C570 C566 1.350 . S
C570 C567 1.463 . S
C570 N574 1.427 . S
C571 H561 0.929 . S
C571 C569 1.433 . S
C571 N574 1.384 . S
C572 H563 0.929 . S
C572 C564 1.378 . S
C572 C567 1.350 . S
C573 H560 0.929 . S
C573 C565 1.433 . S
C573 N575 1.384 . S
N574 C570 1.427 . S
N574 C571 1.384 . S
N575 C567 1.427 . S
N575 C573 1.384 . S
H576 C582 0.930 . S
H577 C586 0.930 . S
H578 C591 0.929 . S
H579 C589 0.929 . S
H580 C584 0.929 . S
H581 C590 0.929 . S
C582 H576 0.930 . S
C582 C583 1.367 . S
C582 C590 1.378 . S
C583 C582 1.367 . S
C583 C591 1.433 . S
C584 H580 0.929 . S
C584 C586 1.378 . S
C584 C588 1.350 . S
C585 C588 1.473 . S
C585 C590 1.345 1_556 S
C585 N593 1.422 1_556 S
C586 H577 0.930 . S
C586 C584 1.378 . S
C586 C587 1.367 . S
C587 C586 1.367 . S
C587 C589 1.433 . S
C588 C584 1.350 . S
C588 C585 1.473 . S
C588 N592 1.427 . S
C589 H579 0.929 . S
C589 C587 1.433 . S
C589 N592 1.384 . S
C590 H581 0.929 . S
C590 C582 1.378 . S
C590 C585 1.345 1_554 S
C591 H578 0.929 . S
C591 C583 1.433 . S
C591 N593 1.384 . S
N592 C588 1.427 . S
N592 C589 1.384 . S
N593 C585 1.422 1_554 S
N593 C591 1.384 . S
H594 C600 0.930 . S
H595 C604 0.930 . S
H596 C609 0.929 . S
H597 C607 0.929 . S
H598 C602 0.929 . S
H599 C608 0.929 . S
C600 H594 0.930 . S
C600 C601 1.367 . S
C600 C608 1.378 . S
C601 C600 1.367 . S
C601 C609 1.433 . S
C602 H598 0.929 . S
C602 C604 1.378 . S
C602 C606 1.350 . S
C603 C606 1.463 . S
C603 C608 1.350 . S
C603 N611 1.427 . S
C604 H595 0.930 . S
C604 C602 1.378 . S
C604 C605 1.367 . S
C605 C604 1.367 . S
C605 C607 1.433 . S
C606 C602 1.350 . S
C606 C603 1.463 . S
C606 N610 1.427 . S
C607 H597 0.929 . S
C607 C605 1.433 . S
C607 N610 1.384 . S
C608 H599 0.929 . S
C608 C600 1.378 . S
C608 C603 1.350 . S
C609 H596 0.929 . S
C609 C601 1.433 . S
C609 N611 1.384 . S
N610 C606 1.427 . S
N610 C607 1.384 . S
N611 C603 1.427 . S
N611 C609 1.384 . S
H612 C618 0.930 . S
H613 C622 0.930 . S
H614 C627 0.929 . S
H615 C625 0.929 . S
H616 C620 0.929 . S
H617 C626 0.929 . S
C618 H612 0.930 . S
C618 C619 1.367 . S
C618 C626 1.378 . S
C619 C618 1.367 . S
C619 C627 1.433 . S
C620 H616 0.929 . S
C620 C622 1.378 . S
C620 C624 1.350 . S
C621 C624 1.471 . S
C621 C626 1.346 1_554 S
C621 N629 1.423 1_554 S
C622 H613 0.930 . S
C622 C620 1.378 . S
C622 C623 1.367 . S
C623 C622 1.367 . S
C623 C625 1.433 . S
C624 C620 1.350 . S
C624 C621 1.471 . S
C624 N628 1.427 . S
C625 H615 0.929 . S
C625 C623 1.433 . S
C625 N628 1.384 . S
C626 H617 0.929 . S
C626 C618 1.378 . S
C626 C621 1.346 1_556 S
C627 H614 0.929 . S
C627 C619 1.433 . S
C627 N629 1.384 . S
N628 C624 1.427 . S
N628 C625 1.384 . S
N629 C621 1.423 1_556 S
N629 C627 1.384 . S
H630 C636 0.930 . S
H631 C640 0.930 . S
H632 C645 0.929 . S
H633 C643 0.929 . S
H634 C638 0.929 . S
H635 C644 0.929 . S
C636 H630 0.930 . S
C636 C637 1.367 . S
C636 C644 1.378 . S
C637 C636 1.367 . S
C637 C645 1.433 . S
C638 H634 0.929 . S
C638 C640 1.378 . S
C638 C642 1.350 . S
C639 C642 1.463 . S
C639 C644 1.350 . S
C639 N647 1.427 . S
C640 H631 0.930 . S
C640 C638 1.378 . S
C640 C641 1.367 . S
C641 C640 1.367 . S
C641 C643 1.433 . S
C642 C638 1.350 . S
C642 C639 1.463 . S
C642 N646 1.427 . S
C643 H633 0.929 . S
C643 C641 1.433 . S
C643 N646 1.384 . S
C644 H635 0.929 . S
C644 C636 1.378 . S
C644 C639 1.350 . S
C645 H632 0.929 . S
C645 C637 1.433 . S
C645 N647 1.384 . S
N646 C642 1.427 . S
N646 C643 1.384 . S
N647 C639 1.427 . S
N647 C645 1.384 . S
H648 C654 0.930 . S
H649 C658 0.930 . S
H650 C663 0.929 . S
H651 C661 0.929 . S
H652 C656 0.929 . S
H653 C662 0.929 . S
C654 H648 0.930 . S
C654 C655 1.367 . S
C654 C662 1.378 . S
C655 C654 1.367 . S
C655 C663 1.433 . S
C656 H652 0.929 . S
C656 C658 1.378 . S
C656 C660 1.350 . S
C657 C660 1.463 . S
C657 C662 1.350 . S
C657 N665 1.427 . S
C658 H649 0.930 . S
C658 C656 1.378 . S
C658 C659 1.367 . S
C659 C658 1.367 . S
C659 C661 1.433 . S
C660 C656 1.350 . S
C660 C657 1.463 . S
C660 N664 1.427 . S
C661 H651 0.929 . S
C661 C659 1.433 . S
C661 N664 1.384 . S
C662 H653 0.929 . S
C662 C654 1.378 . S
C662 C657 1.350 . S
C663 H650 0.929 . S
C663 C655 1.433 . S
C663 N665 1.384 . S
N664 C660 1.427 . S
N664 C661 1.384 . S
N665 C657 1.427 . S
N665 C663 1.384 . S
H666 C672 0.930 . S
H667 C676 0.930 . S
H668 C681 0.929 . S
H669 C679 0.929 . S
H670 C674 0.929 . S
H671 C680 0.929 . S
C672 H666 0.930 . S
C672 C673 1.367 . S
C672 C680 1.378 . S
C673 C672 1.367 . S
C673 C681 1.433 . S
C674 H670 0.929 . S
C674 C676 1.378 . S
C674 C678 1.346 1_556 S
C675 C678 1.471 . S
C675 C680 1.350 . S
C675 N683 1.427 . S
C676 H667 0.930 . S
C676 C674 1.378 . S
C676 C677 1.367 . S
C677 C676 1.367 . S
C677 C679 1.433 . S
C678 C674 1.346 1_554 S
C678 C675 1.471 . S
C678 N682 1.424 1_554 S
C679 H669 0.929 . S
C679 C677 1.433 . S
C679 N682 1.384 . S
C680 H671 0.929 . S
C680 C672 1.378 . S
C680 C675 1.350 . S
C681 H668 0.929 . S
C681 C673 1.433 . S
C681 N683 1.384 . S
N682 C678 1.424 1_556 S
N682 C679 1.384 . S
N683 C675 1.427 . S
N683 C681 1.384 . S
H684 C690 0.930 . S
H685 C694 0.930 . S
H686 C699 0.929 . S
H687 C697 0.929 . S
H688 C692 0.929 . S
H689 C698 0.929 . S
C690 H684 0.930 . S
C690 C691 1.367 . S
C690 C698 1.378 . S
C691 C690 1.367 . S
C691 C699 1.433 . S
C692 H688 0.929 . S
C692 C694 1.378 . S
C692 C696 1.350 . S
C693 C696 1.463 . S
C693 C698 1.350 . S
C693 N701 1.427 . S
C694 H685 0.930 . S
C694 C692 1.378 . S
C694 C695 1.367 . S
C695 C694 1.367 . S
C695 C697 1.433 . S
C696 C692 1.350 . S
C696 C693 1.463 . S
C696 N700 1.427 . S
C697 H687 0.929 . S
C697 C695 1.433 . S
C697 N700 1.384 . S
C698 H689 0.929 . S
C698 C690 1.378 . S
C698 C693 1.350 . S
C699 H686 0.929 . S
C699 C691 1.433 . S
C699 N701 1.384 . S
N700 C696 1.427 . S
N700 C697 1.384 . S
N701 C693 1.427 . S
N701 C699 1.384 . S
H702 C708 0.930 . S
H703 C712 0.930 . S
H704 C717 0.929 . S
H705 C715 0.929 . S
H706 C710 0.929 . S
H707 C716 0.929 . S
C708 H702 0.930 . S
C708 C709 1.367 . S
C708 C716 1.378 . S
C709 C708 1.367 . S
C709 C717 1.433 . S
C710 H706 0.929 . S
C710 C712 1.378 . S
C710 C714 1.350 . S
C711 C714 1.463 . S
C711 C716 1.350 . S
C711 N719 1.427 . S
C712 H703 0.930 . S
C712 C710 1.378 . S
C712 C713 1.367 . S
C713 C712 1.367 . S
C713 C715 1.433 . S
C714 C710 1.350 . S
C714 C711 1.463 . S
C714 N718 1.427 . S
C715 H705 0.929 . S
C715 C713 1.433 . S
C715 N718 1.384 . S
C716 H707 0.929 . S
C716 C708 1.378 . S
C716 C711 1.350 . S
C717 H704 0.929 . S
C717 C709 1.433 . S
C717 N719 1.384 . S
N718 C714 1.427 . S
N718 C715 1.384 . S
N719 C711 1.427 . S
N719 C717 1.384 . S
H720 C726 0.930 . S
H721 C730 0.930 . S
H722 C735 0.929 . S
H723 C733 0.929 . S
H724 C728 0.929 . S
H725 C734 0.929 . S
C726 H720 0.930 . S
C726 C727 1.367 . S
C726 C734 1.378 . S
C727 C726 1.367 . S
C727 C735 1.433 . S
C728 H724 0.929 . S
C728 C730 1.378 . S
C728 C732 1.350 . S
C729 C732 1.463 . S
C729 C734 1.350 . S
C729 N737 1.427 . S
C730 H721 0.930 . S
C730 C728 1.378 . S
C730 C731 1.367 . S
C731 C730 1.367 . S
C731 C733 1.433 . S
C732 C728 1.350 . S
C732 C729 1.463 . S
C732 N736 1.427 . S
C733 H723 0.929 . S
C733 C731 1.433 . S
C733 N736 1.384 . S
C734 H725 0.929 . S
C734 C726 1.378 . S
C734 C729 1.350 . S
C735 H722 0.929 . S
C735 C727 1.433 . S
C735 N737 1.384 . S
N736 C732 1.427 . S
N736 C733 1.384 . S
N737 C729 1.427 . S
N737 C735 1.384 . S
H738 C744 0.930 . S
H739 C748 0.930 . S
H740 C753 0.929 . S
H741 C751 0.929 . S
H742 C746 0.929 . S
H743 C752 0.929 . S
C744 H738 0.930 . S
C744 C745 1.367 . S
C744 C752 1.378 . S
C745 C744 1.367 . S
C745 C753 1.433 . S
C746 H742 0.929 . S
C746 C748 1.378 . S
C746 C750 1.350 . S
C747 C750 1.463 . S
C747 C752 1.350 . S
C747 N755 1.427 . S
C748 H739 0.930 . S
C748 C746 1.378 . S
C748 C749 1.367 . S
C749 C748 1.367 . S
C749 C751 1.433 . S
C750 C746 1.350 . S
C750 C747 1.463 . S
C750 N754 1.427 . S
C751 H741 0.929 . S
C751 C749 1.433 . S
C751 N754 1.384 . S
C752 H743 0.929 . S
C752 C744 1.378 . S
C752 C747 1.350 . S
C753 H740 0.929 . S
C753 C745 1.433 . S
C753 N755 1.384 . S
N754 C750 1.427 . S
N754 C751 1.384 . S
N755 C747 1.427 . S
N755 C753 1.384 . S
H756 C762 0.930 . S
H757 C766 0.930 . S
H758 C771 0.929 . S
H759 C769 0.929 . S
H760 C764 0.929 . S
H761 C770 0.929 . S
C762 H756 0.930 . S
C762 C763 1.367 . S
C762 C770 1.378 . S
C763 C762 1.367 . S
C763 C771 1.433 . S
C764 H760 0.929 . S
C764 C766 1.378 . S
C764 C768 1.350 . S
C765 C768 1.463 . S
C765 C770 1.350 . S
C765 N773 1.427 . S
C766 H757 0.930 . S
C766 C764 1.378 . S
C766 C767 1.367 . S
C767 C766 1.367 . S
C767 C769 1.433 . S
C768 C764 1.350 . S
C768 C765 1.463 . S
C768 N772 1.427 . S
C769 H759 0.929 . S
C769 C767 1.433 . S
C769 N772 1.384 . S
C770 H761 0.929 . S
C770 C762 1.378 . S
C770 C765 1.350 . S
C771 H758 0.929 . S
C771 C763 1.433 . S
C771 N773 1.384 . S
N772 C768 1.427 . S
N772 C769 1.384 . S
N773 C765 1.427 . S
N773 C771 1.384 . S
H774 C780 0.930 . S
H775 C784 0.930 . S
H776 C789 0.929 . S
H777 C787 0.929 . S
H778 C782 0.929 . S
H779 C788 0.929 . S
C780 H774 0.930 . S
C780 C781 1.367 . S
C780 C788 1.378 . S
C781 C780 1.367 . S
C781 C789 1.433 . S
C782 H778 0.929 . S
C782 C784 1.378 . S
C782 C786 1.350 . S
C783 C786 1.463 . S
C783 C788 1.350 . S
C783 N791 1.427 . S
C784 H775 0.930 . S
C784 C782 1.378 . S
C784 C785 1.367 . S
C785 C784 1.367 . S
C785 C787 1.433 . S
C786 C782 1.350 . S
C786 C783 1.463 . S
C786 N790 1.427 . S
C787 H777 0.929 . S
C787 C785 1.433 . S
C787 N790 1.384 . S
C788 H779 0.929 . S
C788 C780 1.378 . S
C788 C783 1.350 . S
C789 H776 0.929 . S
C789 C781 1.433 . S
C789 N791 1.384 . S
N790 C786 1.427 . S
N790 C787 1.384 . S
N791 C783 1.427 . S
N791 C789 1.384 . S
H792 C798 0.930 . S
H793 C802 0.930 . S
H794 C807 0.929 . S
H795 C805 0.929 . S
H796 C800 0.929 . S
H797 C806 0.929 . S
C798 H792 0.930 . S
C798 C799 1.367 . S
C798 C806 1.378 . S
C799 C798 1.367 . S
C799 C807 1.433 . S
C800 H796 0.929 . S
C800 C802 1.378 . S
C800 C804 1.350 . S
C801 C804 1.463 . S
C801 C806 1.350 . S
C801 N809 1.427 . S
C802 H793 0.930 . S
C802 C800 1.378 . S
C802 C803 1.367 . S
C803 C802 1.367 . S
C803 C805 1.433 . S
C804 C800 1.350 . S
C804 C801 1.463 . S
C804 N808 1.427 . S
C805 H795 0.929 . S
C805 C803 1.433 . S
C805 N808 1.384 . S
C806 H797 0.929 . S
C806 C798 1.378 . S
C806 C801 1.350 . S
C807 H794 0.929 . S
C807 C799 1.433 . S
C807 N809 1.384 . S
N808 C804 1.427 . S
N808 C805 1.384 . S
N809 C801 1.427 . S
N809 C807 1.384 . S
H810 C816 0.930 . S
H811 C820 0.930 . S
H812 C825 0.929 . S
H813 C823 0.929 . S
H814 C818 0.929 . S
H815 C824 0.929 . S
C816 H810 0.930 . S
C816 C817 1.367 . S
C816 C824 1.378 . S
C817 C816 1.367 . S
C817 C825 1.433 . S
C818 H814 0.929 . S
C818 C820 1.378 . S
C818 C822 1.350 . S
C819 C822 1.463 . S
C819 C824 1.350 . S
C819 N827 1.427 . S
C820 H811 0.930 . S
C820 C818 1.378 . S
C820 C821 1.367 . S
C821 C820 1.367 . S
C821 C823 1.433 . S
C822 C818 1.350 . S
C822 C819 1.463 . S
C822 N826 1.427 . S
C823 H813 0.929 . S
C823 C821 1.433 . S
C823 N826 1.384 . S
C824 H815 0.929 . S
C824 C816 1.378 . S
C824 C819 1.350 . S
C825 H812 0.929 . S
C825 C817 1.433 . S
C825 N827 1.384 . S
N826 C822 1.427 . S
N826 C823 1.384 . S
N827 C819 1.427 . S
N827 C825 1.384 . S
H828 C834 0.930 . S
H829 C838 0.930 . S
H830 C843 0.929 . S
H831 C841 0.929 . S
H832 C836 0.929 . S
H833 C842 0.929 . S
C834 H828 0.930 . S
C834 C835 1.367 . S
C834 C842 1.378 1_556 S
C835 C834 1.367 . S
C835 C843 1.433 . S
C836 H832 0.929 . S
C836 C838 1.378 1_556 S
C836 C840 1.350 1_556 S
C837 C840 1.463 1_556 S
C837 C842 1.350 1_556 S
C837 N845 1.427 . S
C838 H829 0.930 . S
C838 C836 1.378 1_554 S
C838 C839 1.367 . S
C839 C838 1.367 . S
C839 C841 1.433 . S
C840 C836 1.350 1_554 S
C840 C837 1.463 1_554 S
C840 N844 1.427 . S
C841 H831 0.929 . S
C841 C839 1.433 . S
C841 N844 1.384 . S
C842 H833 0.929 . S
C842 C834 1.378 1_554 S
C842 C837 1.350 1_554 S
C843 H830 0.929 . S
C843 C835 1.433 . S
C843 N845 1.384 . S
N844 C840 1.427 . S
N844 C841 1.384 . S
N845 C837 1.427 . S
N845 C843 1.384 . S
H846 C852 0.930 . S
H847 C856 0.930 . S
H848 C861 0.929 . S
H849 C859 0.929 . S
H850 C854 0.929 . S
H851 C860 0.929 . S
C852 H846 0.930 . S
C852 C853 1.367 . S
C852 C860 1.378 . S
C853 C852 1.367 . S
C853 C861 1.433 . S
C854 H850 0.929 . S
C854 C856 1.378 . S
C854 C858 1.350 . S
C855 C858 1.463 . S
C855 C860 1.350 . S
C855 N863 1.427 . S
C856 H847 0.930 . S
C856 C854 1.378 . S
C856 C857 1.367 . S
C857 C856 1.367 . S
C857 C859 1.433 . S
C858 C854 1.350 . S
C858 C855 1.463 . S
C858 N862 1.427 . S
C859 H849 0.929 . S
C859 C857 1.433 . S
C859 N862 1.384 . S
C860 H851 0.929 . S
C860 C852 1.378 . S
C860 C855 1.350 . S
C861 H848 0.929 . S
C861 C853 1.433 . S
C861 N863 1.384 . S
N862 C858 1.427 . S
N862 C859 1.384 . S
N863 C855 1.427 . S
N863 C861 1.384 . S
H864 C870 0.930 . S
H865 C874 0.930 . S
H866 C879 0.929 . S
H867 C877 0.929 . S
H868 C872 0.929 . S
H869 C878 0.929 . S
C870 H864 0.930 . S
C870 C871 1.367 . S
C870 C878 1.378 . S
C871 C870 1.367 . S
C871 C879 1.433 . S
C872 H868 0.929 . S
C872 C874 1.378 . S
C872 C876 1.350 . S
C873 C876 1.463 . S
C873 C878 1.350 . S
C873 N881 1.427 . S
C874 H865 0.930 . S
C874 C872 1.378 . S
C874 C875 1.367 . S
C875 C874 1.367 . S
C875 C877 1.433 . S
C876 C872 1.350 . S
C876 C873 1.463 . S
C876 N880 1.427 . S
C877 H867 0.929 . S
C877 C875 1.433 . S
C877 N880 1.384 . S
C878 H869 0.929 . S
C878 C870 1.378 . S
C878 C873 1.350 . S
C879 H866 0.929 . S
C879 C871 1.433 . S
C879 N881 1.384 . S
N880 C876 1.427 . S
N880 C877 1.384 . S
N881 C873 1.427 . S
N881 C879 1.384 . S
H882 C888 0.930 . S
H883 C892 0.930 . S
H884 C897 0.929 . S
H885 C895 0.929 . S
H886 C890 0.929 . S
H887 C896 0.929 . S
C888 H882 0.930 . S
C888 C889 1.367 . S
C888 C896 1.378 1_554 S
C889 C888 1.367 . S
C889 C897 1.433 . S
C890 H886 0.929 . S
C890 C892 1.378 1_554 S
C890 C894 1.350 1_554 S
C891 C894 1.463 1_554 S
C891 C896 1.350 1_554 S
C891 N899 1.427 . S
C892 H883 0.930 . S
C892 C890 1.378 1_556 S
C892 C893 1.367 . S
C893 C892 1.367 . S
C893 C895 1.433 . S
C894 C890 1.350 1_556 S
C894 C891 1.463 1_556 S
C894 N898 1.427 . S
C895 H885 0.929 . S
C895 C893 1.433 . S
C895 N898 1.384 . S
C896 H887 0.929 . S
C896 C888 1.378 1_556 S
C896 C891 1.350 1_556 S
C897 H884 0.929 . S
C897 C889 1.433 . S
C897 N899 1.384 . S
N898 C894 1.427 . S
N898 C895 1.384 . S
N899 C891 1.427 . S
N899 C897 1.384 . S
H900 C906 0.930 . S
H901 C910 0.930 . S
H902 C915 0.929 . S
H903 C913 0.929 . S
H904 C908 0.929 . S
H905 C914 0.929 . S
C906 H900 0.930 . S
C906 C907 1.367 . S
C906 C914 1.378 . S
C907 C906 1.367 . S
C907 C915 1.433 . S
C908 H904 0.929 . S
C908 C910 1.378 . S
C908 C912 1.350 . S
C909 C912 1.463 . S
C909 C914 1.350 . S
C909 N917 1.427 . S
C910 H901 0.930 . S
C910 C908 1.378 . S
C910 C911 1.367 . S
C911 C910 1.367 . S
C911 C913 1.433 . S
C912 C908 1.350 . S
C912 C909 1.463 . S
C912 N916 1.427 . S
C913 H903 0.929 . S
C913 C911 1.433 . S
C913 N916 1.384 . S
C914 H905 0.929 . S
C914 C906 1.378 . S
C914 C909 1.350 . S
C915 H902 0.929 . S
C915 C907 1.433 . S
C915 N917 1.384 . S
N916 C912 1.427 . S
N916 C913 1.384 . S
N917 C909 1.427 . S
N917 C915 1.384 . S
H918 C924 0.930 . S
H919 C928 0.930 . S
H920 C933 0.929 . S
H921 C931 0.929 . S
H922 C926 0.929 . S
H923 C932 0.929 . S
C924 H918 0.930 . S
C924 C925 1.367 . S
C924 C932 1.378 . S
C925 C924 1.367 . S
C925 C933 1.433 . S
C926 H922 0.929 . S
C926 C928 1.378 . S
C926 C930 1.350 . S
C927 C930 1.463 . S
C927 C932 1.350 . S
C927 N935 1.427 . S
C928 H919 0.930 . S
C928 C926 1.378 . S
C928 C929 1.367 . S
C929 C928 1.367 . S
C929 C931 1.433 . S
C930 C926 1.350 . S
C930 C927 1.463 . S
C930 N934 1.427 . S
C931 H921 0.929 . S
C931 C929 1.433 . S
C931 N934 1.384 . S
C932 H923 0.929 . S
C932 C924 1.378 . S
C932 C927 1.350 . S
C933 H920 0.929 . S
C933 C925 1.433 . S
C933 N935 1.384 . S
N934 C930 1.427 . S
N934 C931 1.384 . S
N935 C927 1.427 . S
N935 C933 1.384 . S
C403 C28 1.285 . S
C407 C391 1.282 . S
C421 C61 1.285 . S
C425 C226 1.291 . S
C439 C259 1.286 . S
C443 C94 1.290 . S
C457 C292 1.284 . S
C461 C127 1.282 . S
C475 C325 1.290 . S
C479 C160 1.280 . S
C493 C358 1.281 . S
C497 C193 1.290 . S
C511 N14 1.427 . S
C515 N5 1.431 . S
C529 N38 1.425 . S
C533 N47 1.422 . S
C547 N80 1.424 . S
C551 N71 1.428 . S
C565 N113 1.426 . S
C569 N104 1.430 . S
C583 N146 1.424 . S
C587 N137 1.429 . S
C601 N170 1.426 . S
C605 N179 1.421 . S
C619 N212 1.428 . S
C623 N203 1.432 . S
C637 N236 1.423 . S
C641 N245 1.418 . S
C655 N278 1.422 . S
C659 N269 1.425 . S
C673 N302 1.424 . S
C677 N311 1.420 . S
C691 N335 1.422 . S
C695 N344 1.417 . S
C709 N377 1.426 . S
C713 N368 1.430 . S
C727 C17 1.607 . S
C731 C281 1.608 . S
C745 C50 1.603 . S
C749 C314 1.608 . S
C763 C83 1.607 . S
C767 C347 1.603 . S
C781 C380 1.605 . S
C785 C116 1.609 . S
C799 C215 1.608 . S
C803 C149 1.606 . S
C817 C248 1.609 . S
C821 C182 1.605 . S
C835 C338 1.089 . S
C839 C8 1.083 . S
C853 C371 1.090 . S
C857 C41 1.083 . S
C871 C206 1.092 . S
C875 C74 1.093 . S
C889 C107 1.090 . S
C893 C239 1.083 . S
C907 C140 1.083 . S
C911 C272 1.091 . S
C925 C173 1.092 . S
C929 C305 1.085 . S
