# Generated by pormake.
# Topology uoe, (4)-cn, num edge types: 1
# Building blocks:
#     Node 0, Type 0, BuildingBlock: NAWXER_clean_sbu_0, # of connection points: 4
#     Node 1, Type 0, BuildingBlock: NAWXER_clean_sbu_0, # of connection points: 4
#     Node 2, Type 0, BuildingBlock: NAWXER_clean_sbu_0, # of connection points: 4
#     Node 3, Type 0, BuildingBlock: NAWXER_clean_sbu_0, # of connection points: 4
#     Node 4, Type 0, BuildingBlock: NAWXER_clean_sbu_0, # of connection points: 4
#     Node 5, Type 0, BuildingBlock: NAWXER_clean_sbu_0, # of connection points: 4
#     Node 6, Type 0, BuildingBlock: NAWXER_clean_sbu_0, # of connection points: 4
#     Node 7, Type 0, BuildingBlock: NAWXER_clean_sbu_0, # of connection points: 4
#     Node 8, Type 0, BuildingBlock: NAWXER_clean_sbu_0, # of connection points: 4
#     Node 9, Type 0, BuildingBlock: NAWXER_clean_sbu_0, # of connection points: 4
#     Node 10, Type 0, BuildingBlock: NAWXER_clean_sbu_0, # of connection points: 4
#     Node 11, Type 0, BuildingBlock: NAWXER_clean_sbu_0, # of connection points: 4
#     Node 12, Type 0, BuildingBlock: NAWXER_clean_sbu_0, # of connection points: 4
#     Node 13, Type 0, BuildingBlock: NAWXER_clean_sbu_0, # of connection points: 4
#     Node 14, Type 0, BuildingBlock: NAWXER_clean_sbu_0, # of connection points: 4
#     Node 15, Type 0, BuildingBlock: NAWXER_clean_sbu_0, # of connection points: 4
#     Node 16, Type 0, BuildingBlock: NAWXER_clean_sbu_0, # of connection points: 4
#     Node 17, Type 0, BuildingBlock: NAWXER_clean_sbu_0, # of connection points: 4
#     Node 18, Type 0, BuildingBlock: NAWXER_clean_sbu_0, # of connection points: 4
#     Node 19, Type 0, BuildingBlock: NAWXER_clean_sbu_0, # of connection points: 4
#     Node 20, Type 0, BuildingBlock: NAWXER_clean_sbu_0, # of connection points: 4
#     Node 21, Type 0, BuildingBlock: NAWXER_clean_sbu_0, # of connection points: 4
#     Node 22, Type 0, BuildingBlock: NAWXER_clean_sbu_0, # of connection points: 4
#     Node 23, Type 0, BuildingBlock: NAWXER_clean_sbu_0, # of connection points: 4
#     Node 24, Type 0, BuildingBlock: NAWXER_clean_sbu_0, # of connection points: 4
#     Node 25, Type 0, BuildingBlock: NAWXER_clean_sbu_0, # of connection points: 4
#     Node 26, Type 0, BuildingBlock: NAWXER_clean_sbu_0, # of connection points: 4
#     Node 27, Type 0, BuildingBlock: NAWXER_clean_sbu_0, # of connection points: 4
#     Node 28, Type 0, BuildingBlock: NAWXER_clean_sbu_0, # of connection points: 4
#     Node 29, Type 0, BuildingBlock: NAWXER_clean_sbu_0, # of connection points: 4
#     Node 30, Type 0, BuildingBlock: NAWXER_clean_sbu_0, # of connection points: 4
#     Node 31, Type 0, BuildingBlock: NAWXER_clean_sbu_0, # of connection points: 4
#     Edge 32, Type (0, 0), BuildingBlock: CIFDUS_clean_linker_0, # of connection points: 2
#     Edge 33, Type (0, 0), BuildingBlock: CIFDUS_clean_linker_0, # of connection points: 2
#     Edge 34, Type (0, 0), BuildingBlock: CIFDUS_clean_linker_0, # of connection points: 2
#     Edge 35, Type (0, 0), BuildingBlock: CIFDUS_clean_linker_0, # of connection points: 2
#     Edge 36, Type (0, 0), BuildingBlock: CIFDUS_clean_linker_0, # of connection points: 2
#     Edge 37, Type (0, 0), BuildingBlock: CIFDUS_clean_linker_0, # of connection points: 2
#     Edge 38, Type (0, 0), BuildingBlock: CIFDUS_clean_linker_0, # of connection points: 2
#     Edge 39, Type (0, 0), BuildingBlock: CIFDUS_clean_linker_0, # of connection points: 2
#     Edge 40, Type (0, 0), BuildingBlock: CIFDUS_clean_linker_0, # of connection points: 2
#     Edge 41, Type (0, 0), BuildingBlock: CIFDUS_clean_linker_0, # of connection points: 2
#     Edge 42, Type (0, 0), BuildingBlock: CIFDUS_clean_linker_0, # of connection points: 2
#     Edge 43, Type (0, 0), BuildingBlock: CIFDUS_clean_linker_0, # of connection points: 2
#     Edge 44, Type (0, 0), BuildingBlock: CIFDUS_clean_linker_0, # of connection points: 2
#     Edge 45, Type (0, 0), BuildingBlock: CIFDUS_clean_linker_0, # of connection points: 2
#     Edge 46, Type (0, 0), BuildingBlock: CIFDUS_clean_linker_0, # of connection points: 2
#     Edge 47, Type (0, 0), BuildingBlock: CIFDUS_clean_linker_0, # of connection points: 2
#     Edge 48, Type (0, 0), BuildingBlock: CIFDUS_clean_linker_0, # of connection points: 2
#     Edge 49, Type (0, 0), BuildingBlock: CIFDUS_clean_linker_0, # of connection points: 2
#     Edge 50, Type (0, 0), BuildingBlock: CIFDUS_clean_linker_0, # of connection points: 2
#     Edge 51, Type (0, 0), BuildingBlock: CIFDUS_clean_linker_0, # of connection points: 2
#     Edge 52, Type (0, 0), BuildingBlock: CIFDUS_clean_linker_0, # of connection points: 2
#     Edge 53, Type (0, 0), BuildingBlock: CIFDUS_clean_linker_0, # of connection points: 2
#     Edge 54, Type (0, 0), BuildingBlock: CIFDUS_clean_linker_0, # of connection points: 2
#     Edge 55, Type (0, 0), BuildingBlock: CIFDUS_clean_linker_0, # of connection points: 2
#     Edge 56, Type (0, 0), BuildingBlock: CIFDUS_clean_linker_0, # of connection points: 2
#     Edge 57, Type (0, 0), BuildingBlock: CIFDUS_clean_linker_0, # of connection points: 2
#     Edge 58, Type (0, 0), BuildingBlock: CIFDUS_clean_linker_0, # of connection points: 2
#     Edge 59, Type (0, 0), BuildingBlock: CIFDUS_clean_linker_0, # of connection points: 2
#     Edge 60, Type (0, 0), BuildingBlock: CIFDUS_clean_linker_0, # of connection points: 2
#     Edge 61, Type (0, 0), BuildingBlock: CIFDUS_clean_linker_0, # of connection points: 2
#     Edge 62, Type (0, 0), BuildingBlock: CIFDUS_clean_linker_0, # of connection points: 2
#     Edge 63, Type (0, 0), BuildingBlock: CIFDUS_clean_linker_0, # of connection points: 2
#     Edge 64, Type (0, 0), BuildingBlock: CIFDUS_clean_linker_0, # of connection points: 2
#     Edge 65, Type (0, 0), BuildingBlock: CIFDUS_clean_linker_0, # of connection points: 2
#     Edge 66, Type (0, 0), BuildingBlock: CIFDUS_clean_linker_0, # of connection points: 2
#     Edge 67, Type (0, 0), BuildingBlock: CIFDUS_clean_linker_0, # of connection points: 2
#     Edge 68, Type (0, 0), BuildingBlock: CIFDUS_clean_linker_0, # of connection points: 2
#     Edge 69, Type (0, 0), BuildingBlock: CIFDUS_clean_linker_0, # of connection points: 2
#     Edge 70, Type (0, 0), BuildingBlock: CIFDUS_clean_linker_0, # of connection points: 2
#     Edge 71, Type (0, 0), BuildingBlock: CIFDUS_clean_linker_0, # of connection points: 2
#     Edge 72, Type (0, 0), BuildingBlock: CIFDUS_clean_linker_0, # of connection points: 2
#     Edge 73, Type (0, 0), BuildingBlock: CIFDUS_clean_linker_0, # of connection points: 2
#     Edge 74, Type (0, 0), BuildingBlock: CIFDUS_clean_linker_0, # of connection points: 2
#     Edge 75, Type (0, 0), BuildingBlock: CIFDUS_clean_linker_0, # of connection points: 2
#     Edge 76, Type (0, 0), BuildingBlock: CIFDUS_clean_linker_0, # of connection points: 2
#     Edge 77, Type (0, 0), BuildingBlock: CIFDUS_clean_linker_0, # of connection points: 2
#     Edge 78, Type (0, 0), BuildingBlock: CIFDUS_clean_linker_0, # of connection points: 2
#     Edge 79, Type (0, 0), BuildingBlock: CIFDUS_clean_linker_0, # of connection points: 2
#     Edge 80, Type (0, 0), BuildingBlock: CIFDUS_clean_linker_0, # of connection points: 2
#     Edge 81, Type (0, 0), BuildingBlock: CIFDUS_clean_linker_0, # of connection points: 2
#     Edge 82, Type (0, 0), BuildingBlock: CIFDUS_clean_linker_0, # of connection points: 2
#     Edge 83, Type (0, 0), BuildingBlock: CIFDUS_clean_linker_0, # of connection points: 2
#     Edge 84, Type (0, 0), BuildingBlock: CIFDUS_clean_linker_0, # of connection points: 2
#     Edge 85, Type (0, 0), BuildingBlock: CIFDUS_clean_linker_0, # of connection points: 2
#     Edge 86, Type (0, 0), BuildingBlock: CIFDUS_clean_linker_0, # of connection points: 2
#     Edge 87, Type (0, 0), BuildingBlock: CIFDUS_clean_linker_0, # of connection points: 2
#     Edge 88, Type (0, 0), BuildingBlock: CIFDUS_clean_linker_0, # of connection points: 2
#     Edge 89, Type (0, 0), BuildingBlock: CIFDUS_clean_linker_0, # of connection points: 2
#     Edge 90, Type (0, 0), BuildingBlock: CIFDUS_clean_linker_0, # of connection points: 2
#     Edge 91, Type (0, 0), BuildingBlock: CIFDUS_clean_linker_0, # of connection points: 2
#     Edge 92, Type (0, 0), BuildingBlock: CIFDUS_clean_linker_0, # of connection points: 2
#     Edge 93, Type (0, 0), BuildingBlock: CIFDUS_clean_linker_0, # of connection points: 2
#     Edge 94, Type (0, 0), BuildingBlock: CIFDUS_clean_linker_0, # of connection points: 2
#     Edge 95, Type (0, 0), BuildingBlock: CIFDUS_clean_linker_0, # of connection points: 2
# Relax obj value: 0.105
# Max RMSD: 0.239
# Mean RMSD: 0.239
data_MOF--net-uoe--node1-NAWXER_clean_sbu_0--edge1-CIFDUS_clean_linker_0
_symmetry_space_group_name_H-M    P1
_symmetry_Int_Tables_number       1
_symmetry_cell_setting            triclinic
loop_
_symmetry_equiv_pos_as_xyz
'x, y, z'
_cell_length_a     64.084316
_cell_length_b     64.293764
_cell_length_c     25.142969
_cell_angle_alpha  90.078967
_cell_angle_beta   90.020772
_cell_angle_gamma 89.950973
loop_
_atom_site_label
_atom_site_type_symbol
_atom_site_fract_x
_atom_site_fract_y
_atom_site_fract_z
_atom_type_partial_charge
C0 C 0.13677 0.45519 0.09215 0.0
C1 C 0.07041 0.48612 0.04276 0.0
O2 O 0.13862 0.47506 0.08948 0.0
Zn3 Zn 0.11834 0.50031 0.06261 0.0
O4 O 0.12053 0.44667 0.07326 0.0
Zn5 Zn 0.1048 0.47123 0.05625 0.0
O6 O 0.11586 0.48342 0.98111 0.0
O7 O 0.13043 0.51328 0.00198 0.0
O8 O 0.07555 0.46704 0.04303 0.0
O9 O 0.08464 0.50005 0.04823 0.0
O10 O 0.11836 0.51732 0.1241 0.0
O11 O 0.10322 0.48659 0.13389 0.0
C12 C 0.12525 0.50016 0.96693 0.0
C13 C 0.10891 0.50422 0.15318 0.0
C14 C 0.78078 0.80214 0.30089 0.0
C15 C 0.81406 0.86683 0.34859 0.0
O16 O 0.76692 0.81639 0.30751 0.0
Zn17 Zn 0.76772 0.85019 0.32182 0.0
O18 O 0.79992 0.80715 0.29981 0.0
Zn19 Zn 0.79608 0.83608 0.31325 0.0
O20 O 0.78123 0.83498 0.39304 0.0
O21 O 0.75069 0.8507 0.38245 0.0
O22 O 0.82145 0.85079 0.32616 0.0
O23 O 0.79414 0.86931 0.34963 0.0
O24 O 0.75451 0.86294 0.26224 0.0
O25 O 0.78337 0.84711 0.23837 0.0
C26 C 0.76358 0.84114 0.41191 0.0
C27 C 0.7668 0.85719 0.22584 0.0
C28 C 0.40416 0.51956 0.66161 0.0
C29 C 0.39264 0.51701 0.47225 0.0
O30 O 0.41212 0.53542 0.63839 0.0
Zn31 Zn 0.41438 0.54715 0.55787 0.0
O32 O 0.39474 0.50568 0.63472 0.0
Zn33 Zn 0.39788 0.51937 0.56824 0.0
O34 O 0.43113 0.5158 0.55856 0.0
O35 O 0.44447 0.54718 0.54955 0.0
O36 O 0.386 0.50533 0.50897 0.0
O37 O 0.40311 0.53341 0.48428 0.0
O38 O 0.40048 0.57362 0.56788 0.0
O39 O 0.37969 0.54708 0.58394 0.0
C40 C 0.44708 0.52762 0.55288 0.0
C41 C 0.38304 0.56675 0.58421 0.0
C42 C 0.74846 0.16234 0.90518 0.0
C43 C 0.74618 0.14727 0.71847 0.0
O44 O 0.73113 0.16892 0.88546 0.0
Zn45 Zn 0.71686 0.16859 0.80551 0.0
O46 O 0.76146 0.15262 0.87629 0.0
Zn47 Zn 0.74502 0.15372 0.81444 0.0
O48 O 0.74663 0.18741 0.80154 0.0
O49 O 0.71403 0.19788 0.79319 0.0
O50 O 0.75839 0.14122 0.75473 0.0
O51 O 0.7297 0.1575 0.73107 0.0
O52 O 0.69123 0.15413 0.81724 0.0
O53 O 0.71819 0.13488 0.83951 0.0
C54 C 0.73334 0.20219 0.79516 0.0
C55 C 0.69832 0.13769 0.83834 0.0
C56 C 0.10425 0.50873 0.46629 0.0
C57 C 0.12189 0.51222 0.6518 0.0
O58 O 0.09911 0.52653 0.48565 0.0
Zn59 Zn 0.10132 0.5417 0.56369 0.0
O60 O 0.11318 0.49525 0.49535 0.0
Zn61 Zn 0.1139 0.51223 0.55667 0.0
O62 O 0.0804 0.51342 0.572 0.0
O63 O 0.07233 0.54667 0.57812 0.0
O64 O 0.12611 0.4989 0.61644 0.0
O65 O 0.1129 0.52929 0.6383 0.0
O66 O 0.11736 0.5659 0.54596 0.0
O67 O 0.13457 0.53699 0.52893 0.0
C68 C 0.06664 0.52777 0.57813 0.0
C69 C 0.13317 0.5569 0.52614 0.0
C70 C 0.74964 0.86225 0.91162 0.0
C71 C 0.75296 0.84856 0.72409 0.0
O72 O 0.73302 0.85254 0.89775 0.0
Zn73 Zn 0.72013 0.8431 0.82184 0.0
O74 O 0.7619 0.86873 0.876 0.0
Zn75 Zn 0.74861 0.8571 0.81473 0.0
O76 O 0.72255 0.87693 0.7886 0.0
O77 O 0.69505 0.85847 0.81016 0.0
O78 O 0.76569 0.85816 0.75402 0.0
O79 O 0.73528 0.84236 0.74256 0.0
O80 O 0.7158 0.81411 0.83258 0.0
O81 O 0.74895 0.82299 0.82585 0.0
C82 C 0.70261 0.87473 0.78945 0.0
C83 C 0.73488 0.80885 0.83099 0.0
C84 C 0.37926 0.44795 0.04805 0.0
C85 C 0.44523 0.48421 0.07782 0.0
O86 O 0.37682 0.46776 0.04787 0.0
Zn87 Zn 0.39634 0.4946 0.06284 0.0
O88 O 0.39645 0.44034 0.06415 0.0
Zn89 Zn 0.41167 0.46611 0.0734 0.0
O90 O 0.40125 0.48054 0.14686 0.0
O91 O 0.38528 0.50932 0.12219 0.0
O92 O 0.44183 0.46477 0.08135 0.0
O93 O 0.42975 0.49667 0.07217 0.0
O94 O 0.39373 0.50827 0.99614 0.0
O95 O 0.40977 0.47775 0.99282 0.0
C96 C 0.39155 0.49741 0.15892 0.0
C97 C 0.40251 0.49392 0.96943 0.0
C98 C 0.76943 0.19948 0.3284 0.0
C99 C 0.8094 0.13835 0.28054 0.0
O100 O 0.75736 0.18363 0.32336 0.0
Zn101 Zn 0.76177 0.15024 0.30839 0.0
O102 O 0.78907 0.19688 0.32741 0.0
Zn103 Zn 0.78862 0.16755 0.31542 0.0
O104 O 0.77336 0.16695 0.23707 0.0
O105 O 0.74477 0.14798 0.24737 0.0
O106 O 0.81534 0.15526 0.30159 0.0
O107 O 0.78984 0.13394 0.28079 0.0
O108 O 0.75041 0.13644 0.36886 0.0
O109 O 0.77735 0.15577 0.39072 0.0
C110 C 0.75651 0.15899 0.21809 0.0
C111 C 0.7621 0.14401 0.40442 0.0
C112 C 0.91245 0.51697 0.96593 0.0
C113 C 0.90268 0.52594 0.15567 0.0
O114 O 0.90417 0.50462 -0.00078 0.0
Zn115 Zn 0.90732 0.52262 0.05856 0.0
O116 O 0.91955 0.53467 0.98148 0.0
Zn117 Zn 0.9218 0.55122 0.05793 0.0
O118 O 0.9513 0.55456 0.06512 0.0
O119 O 0.94142 0.52176 0.06509 0.0
O120 O 0.91201 0.54187 0.13633 0.0
O121 O 0.89688 0.51159 0.12457 0.0
O122 O 0.88712 0.54858 0.0331 0.0
O123 O 0.90699 0.57618 0.04333 0.0
C124 C 0.95605 0.53542 0.06643 0.0
C125 C 0.88975 0.56835 0.02886 0.0
C126 C 0.24236 0.14024 0.91383 0.0
C127 C 0.2532 0.14839 0.72379 0.0
O128 O 0.25606 0.13231 0.88369 0.0
Zn129 Zn 0.24645 0.14309 0.81659 0.0
O130 O 0.22733 0.1507 0.89313 0.0
Zn131 Zn 0.21893 0.16044 0.81339 0.0
O132 O 0.19285 0.14736 0.79495 0.0
O133 O 0.2192 0.12544 0.79043 0.0
O134 O 0.23611 0.1569 0.73922 0.0
O135 O 0.26462 0.13875 0.757 0.0
O136 O 0.25015 0.17651 0.82475 0.0
O137 O 0.21874 0.19037 0.81915 0.0
C138 C 0.19978 0.1295 0.78265 0.0
C139 C 0.23834 0.19265 0.8241 0.0
C140 C 0.62281 0.49924 0.65901 0.0
C141 C 0.60851 0.50352 0.47261 0.0
O142 O 0.62961 0.51168 0.62422 0.0
Zn143 Zn 0.61611 0.50001 0.56393 0.0
O144 O 0.61117 0.48396 0.64502 0.0
Zn145 Zn 0.59841 0.47305 0.57107 0.0
O146 O 0.61059 0.44625 0.558 0.0
O147 O 0.63258 0.47163 0.54066 0.0
O148 O 0.6002 0.48717 0.49277 0.0
O149 O 0.61913 0.51588 0.50127 0.0
O150 O 0.58289 0.50494 0.57668 0.0
O151 O 0.56872 0.4738 0.58232 0.0
C152 C 0.62808 0.45215 0.53981 0.0
C153 C 0.56664 0.49345 0.58171 0.0
C154 C 0.26411 0.85627 0.21229 0.0
C155 C 0.26529 0.87 0.39999 0.0
O156 O 0.25259 0.86839 0.23933 0.0
Zn157 Zn 0.26697 0.86415 0.30382 0.0
O158 O 0.27944 0.84663 0.23407 0.0
Zn159 Zn 0.29265 0.84517 0.31448 0.0
O160 O 0.29081 0.8158 0.32584 0.0
O161 O 0.2602 0.83109 0.31607 0.0
O162 O 0.28034 0.85763 0.38824 0.0
O163 O 0.25467 0.8781 0.36305 0.0
O164 O 0.29627 0.87894 0.28215 0.0
O165 O 0.32036 0.85618 0.30386 0.0
C166 C 0.27105 0.81448 0.3229 0.0
C167 C 0.31555 0.87355 0.28335 0.0
C168 C 0.90898 0.50447 0.65164 0.0
C169 C 0.89838 0.4943 0.46238 0.0
O170 O 0.90094 0.51693 0.61817 0.0
Zn171 Zn 0.90285 0.49821 0.55942 0.0
O172 O 0.91512 0.48635 0.63659 0.0
Zn173 Zn 0.91599 0.46884 0.56174 0.0
O174 O 0.94527 0.46392 0.55458 0.0
O175 O 0.93687 0.49716 0.55243 0.0
O176 O 0.90684 0.47806 0.48268 0.0
O177 O 0.89301 0.50908 0.4927 0.0
O178 O 0.88154 0.47374 0.58701 0.0
O179 O 0.9 0.44496 0.57994 0.0
C180 C 0.95085 0.48281 0.55199 0.0
C181 C 0.8833 0.45401 0.59396 0.0
C182 C 0.26565 0.15555 0.40988 0.0
C183 C 0.27543 0.14547 0.22036 0.0
O184 O 0.25333 0.14739 0.37621 0.0
Zn185 Zn 0.27172 0.15035 0.31728 0.0
O186 O 0.28344 0.16264 0.39483 0.0
Zn187 Zn 0.30052 0.16479 0.31926 0.0
O188 O 0.3036 0.1944 0.31198 0.0
O189 O 0.27084 0.18414 0.31 0.0
O190 O 0.29149 0.15465 0.24 0.0
O191 O 0.26093 0.13985 0.25126 0.0
O192 O 0.29751 0.13034 0.34408 0.0
O193 O 0.3255 0.15004 0.33775 0.0
C194 C 0.28435 0.19889 0.30928 0.0
C195 C 0.31721 0.13295 0.35139 0.0
C196 C 0.62214 0.50665 0.97305 0.0
C197 C 0.60791 0.50299 0.15949 0.0
O198 O 0.62857 0.49405 0.00796 0.0
Zn199 Zn 0.61542 0.5062 0.06811 0.0
O200 O 0.61091 0.52227 0.98687 0.0
Zn201 Zn 0.59841 0.53355 0.0608 0.0
O202 O 0.6112 0.56001 0.07357 0.0
O203 O 0.6327 0.53421 0.09103 0.0
O204 O 0.59996 0.51953 0.1393 0.0
O205 O 0.61817 0.49033 0.1308 0.0
O206 O 0.582 0.50209 0.05569 0.0
O207 O 0.56871 0.53361 0.04963 0.0
C208 C 0.6286 0.55379 0.09168 0.0
C209 C 0.56606 0.51404 0.05056 0.0
C210 C 0.24133 0.8234 0.80162 0.0
C211 C 0.19647 0.88319 0.83293 0.0
O212 O 0.22153 0.82447 0.80094 0.0
Zn213 Zn 0.21946 0.85415 0.80589 0.0
O214 O 0.25205 0.8403 0.80394 0.0
Zn215 Zn 0.2449 0.8737 0.80994 0.0
O216 O 0.26018 0.88059 0.87151 0.0
O217 O 0.23382 0.85881 0.88446 0.0
O218 O 0.21567 0.8888 0.83128 0.0
O219 O 0.19164 0.86519 0.81635 0.0
O220 O 0.23077 0.8639 0.72838 0.0
O221 O 0.25607 0.88581 0.74707 0.0
C222 C 0.24919 0.86955 0.90254 0.0
C223 C 0.2454 0.8761 0.71285 0.0
C224 C 0.57484 0.9906 0.55998 0.0
C225 C 0.63864 0.95186 0.59916 0.0
O226 O 0.59114 1.00218 0.55927 0.0
Zn227 Zn 0.6246 0.99836 0.56678 0.0
O228 O 0.57699 0.97103 0.56468 0.0
Zn229 Zn 0.60716 0.97075 0.57036 0.0
O230 O 0.61113 0.9876 0.64397 0.0
O231 O 0.62925 0.01614 0.62705 0.0
O232 O 0.62054 0.9449 0.58889 0.0
O233 O 0.64258 0.97118 0.59092 0.0
O234 O 0.63524 0.00782 0.49974 0.0
O235 O 0.61732 0.97877 0.49129 0.0
C236 C 0.61976 1.00448 0.65992 0.0
C237 C 0.62773 0.99369 0.47025 0.0
C238 C 0.27408 0.31172 0.81003 0.0
C239 C 0.31532 0.37255 0.8537 0.0
O240 O 0.26269 0.32818 0.81028 0.0
Zn241 Zn 0.26795 0.36152 0.81954 0.0
O242 O 0.29374 0.31348 0.81425 0.0
Zn243 Zn 0.29454 0.34316 0.82122 0.0
O244 O 0.27766 0.34706 0.89635 0.0
O245 O 0.24985 0.36633 0.87859 0.0
O246 O 0.32125 0.35471 0.83827 0.0
O247 O 0.29604 0.37765 0.84798 0.0
O248 O 0.25894 0.37345 0.75307 0.0
O249 O 0.28666 0.35377 0.74222 0.0
C250 C 0.26087 0.35622 0.91173 0.0
C251 C 0.27223 0.36521 0.72234 0.0
C252 C 0.88955 0.02119 0.96868 0.0
C253 C 0.89708 0.01784 0.16154 0.0
O254 O 0.89943 0.03705 0.98692 0.0
Zn255 Zn 0.91 0.04762 0.06394 0.0
O256 O 0.88304 0.00742 0.00073 0.0
Zn257 Zn 0.89341 0.01929 0.06608 0.0
O258 O 0.87471 0.04674 0.08256 0.0
O259 O 0.89585 0.07373 0.07702 0.0
O260 O 0.88865 1.0043 0.13146 0.0
O261 O 0.90559 0.03402 0.14128 0.0
O262 O 0.94031 0.04738 0.05848 0.0
O263 O 0.92672 0.01595 0.05949 0.0
C264 C 0.87789 0.06637 0.08747 0.0
C265 C 0.94281 0.02776 0.05758 0.0
C266 C 0.24038 0.64386 0.20791 0.0
C267 C 0.24328 0.65088 0.40211 0.0
O268 O 0.22474 0.65412 0.22601 0.0
Zn269 Zn 0.21378 0.66392 0.30291 0.0
O270 O 0.25345 0.63624 0.24041 0.0
Zn271 Zn 0.24151 0.64653 0.30681 0.0
O272 O 0.2133 0.62892 0.32524 0.0
O273 O 0.18721 0.65072 0.31287 0.0
O274 O 0.25666 0.64191 0.37242 0.0
O275 O 0.22713 0.65948 0.38149 0.0
O276 O 0.21426 0.69397 0.29838 0.0
O277 O 0.24555 0.67977 0.30163 0.0
C278 C 0.19367 0.63293 0.32748 0.0
C279 C 0.23398 0.69604 0.29946 0.0
C280 C 0.56714 0.02999 0.07457 0.0
C281 C 0.63314 0.06389 0.03375 0.0
O282 O 0.58223 0.01685 0.07394 0.0
Zn283 Zn 0.61601 0.01835 0.06674 0.0
O284 O 0.57124 0.04926 0.07157 0.0
Zn285 Zn 0.6011 0.04703 0.06413 0.0
O286 O 0.60398 0.03019 0.98921 0.0
O287 O 0.61963 1.00029 0.00739 0.0
O288 O 0.61566 0.07202 0.04539 0.0
O289 O 0.63591 0.04432 0.04161 0.0
O290 O 0.62666 0.00798 0.13262 0.0
O291 O 0.61188 0.03862 0.14274 0.0
C292 C 0.61149 0.01266 0.97389 0.0
C293 C 0.62127 0.02281 0.16277 0.0
C294 C 0.24829 0.35464 0.22602 0.0
C295 C 0.23935 0.36455 0.41588 0.0
O296 O 0.23065 0.34734 0.2417 0.0
Zn297 Zn 0.2141 0.34508 0.31812 0.0
O298 O 0.26058 0.36321 0.2591 0.0
Zn299 Zn 0.2425 0.36012 0.3185 0.0
O300 O 0.24404 0.3262 0.32593 0.0
O301 O 0.2114 0.31554 0.3254 0.0
O302 O 0.25345 0.37081 0.38457 0.0
O303 O 0.2235 0.35495 0.39668 0.0
O304 O 0.18877 0.35944 0.30299 0.0
O305 O 0.2161 0.37962 0.29193 0.0
C306 C 0.23071 0.31128 0.32728 0.0
C307 C 0.19632 0.37662 0.28757 0.0
C308 C 0.88884 0.98693 0.66314 0.0
C309 C 0.89528 0.99063 0.47004 0.0
O310 O 0.89935 0.97154 0.64452 0.0
Zn311 Zn 0.90993 0.96141 0.5672 0.0
O312 O 0.88143 1.00034 0.63134 0.0
Zn313 Zn 0.89194 0.98896 0.5655 0.0
O314 O 0.87445 0.96072 0.54928 0.0
O315 O 0.8969 0.93475 0.5544 0.0
O316 O 0.88631 1.0038 0.50022 0.0
O317 O 0.90455 0.97483 0.4901 0.0
O318 O 0.94028 0.96306 0.57152 0.0
O319 O 0.92508 0.99378 0.57089 0.0
C320 C 0.87857 0.94127 0.54428 0.0
C321 C 0.94177 0.98278 0.57219 0.0
C322 C 0.32234 0.64344 0.78149 0.0
C323 C 0.28017 0.70501 0.81581 0.0
O324 O 0.30286 0.63886 0.78471 0.0
Zn325 Zn 0.27418 0.65539 0.80512 0.0
O326 O 0.32842 0.66128 0.79682 0.0
Zn327 Zn 0.30132 0.67337 0.80913 0.0
O328 O 0.29135 0.66189 0.88588 0.0
O329 O 0.26302 0.64364 0.87023 0.0
O330 O 0.29991 0.70332 0.81616 0.0
O331 O 0.26898 0.6885 0.81265 0.0
O332 O 0.259 0.65024 0.74022 0.0
O333 O 0.28774 0.66888 0.73029 0.0
C334 C 0.27613 0.65084 0.90321 0.0
C335 C 0.27189 0.65957 0.71003 0.0
C336 C 0.39321 0.0693 0.54528 0.0
C337 C 0.45557 0.02761 0.57676 0.0
O338 O 0.41114 0.07531 0.5604 0.0
Zn339 Zn 0.4237 0.04847 0.57123 0.0
O340 O 0.38875 0.04983 0.54752 0.0
Zn341 Zn 0.40575 0.0213 0.567 0.0
O342 O 0.3945 0.00984 0.63266 0.0
O343 O 0.41302 0.03799 0.64784 0.0
O344 O 0.43908 0.01634 0.57403 0.0
O345 O 0.45376 0.0473 0.57715 0.0
O346 O 0.41935 0.03514 0.49263 0.0
O347 O 0.40094 0.00624 0.50158 0.0
C348 C 0.40216 0.02273 0.66549 0.0
C349 C 0.41034 0.01926 0.47193 0.0
C350 C 0.75081 0.63303 0.40095 0.0
C351 C 0.75463 0.64856 0.21461 0.0
O352 O 0.76414 0.62806 0.36617 0.0
Zn353 Zn 0.75079 0.63945 0.3053 0.0
O354 O 0.73376 0.64187 0.38639 0.0
Zn355 Zn 0.72122 0.65218 0.3109 0.0
O356 O 0.69705 0.63577 0.29458 0.0
O357 O 0.72605 0.6184 0.27952 0.0
O358 O 0.73673 0.65387 0.2334 0.0
O359 O 0.7679 0.63953 0.24414 0.0
O360 O 0.74946 0.67307 0.3188 0.0
O361 O 0.71606 0.68119 0.32357 0.0
C362 C 0.70607 0.61964 0.27679 0.0
C363 C 0.73504 0.68684 0.32388 0.0
C364 C 0.12751 0.95542 0.02517 0.0
C365 C 0.06301 0.9929 0.06737 0.0
O366 O 0.10962 0.94786 0.03517 0.0
Zn367 Zn 0.09572 0.97345 0.05564 0.0
O368 O 0.13091 0.97476 0.03472 0.0
Zn369 Zn 0.11252 1.00146 0.06018 0.0
O370 O 0.12333 0.01076 0.12685 0.0
O371 O 0.10624 0.9812 0.13496 0.0
O372 O 0.07912 1.00472 0.06831 0.0
O373 O 0.06548 0.97339 0.06174 0.0
O374 O 0.09954 0.99066 0.98262 0.0
O375 O 0.11691 0.01959 0.00089 0.0
C376 C 0.11643 0.9963 0.15609 0.0
C377 C 0.10792 0.00776 0.96745 0.0
C378 C 0.77761 0.36744 0.91722 0.0
C379 C 0.7692 0.35857 0.72722 0.0
O380 O 0.76344 0.37359 0.88594 0.0
Zn381 Zn 0.77457 0.36311 0.82001 0.0
O382 O 0.79347 0.35783 0.89812 0.0
Zn383 Zn 0.8029 0.34794 0.81982 0.0
O384 O 0.82838 0.36201 0.80639 0.0
O385 O 0.80123 0.38255 0.79539 0.0
O386 O 0.78673 0.35097 0.74286 0.0
O387 O 0.75683 0.36692 0.76051 0.0
O388 O 0.77282 0.3292 0.82548 0.0
O389 O 0.80545 0.31842 0.82644 0.0
C390 C 0.821 0.37939 0.79177 0.0
C391 C 0.78612 0.31424 0.82691 0.0
C392 C 0.4109 0.98972 0.1638 0.0
C393 C 0.40232 0.98673 0.97044 0.0
O394 O 0.40346 1.0038 0.13369 0.0
Zn395 Zn 0.40663 0.98816 0.06853 0.0
O396 O 0.41781 0.97274 0.14352 0.0
Zn397 Zn 0.42045 0.9586 0.06545 0.0
O398 O 0.45045 0.9557 0.05894 0.0
O399 O 0.44028 0.98838 0.06257 0.0
O400 O 0.41074 0.97 0.98835 0.0
O401 O 0.39719 1.00092 0.00298 0.0
O402 O 0.38561 0.96243 0.08666 0.0
O403 O 0.40435 0.9338 0.07899 0.0
C404 C 0.45504 0.97491 0.05978 0.0
C405 C 0.38723 0.94259 0.09121 0.0
C406 C 0.76036 0.65474 0.90181 0.0
C407 C 0.76313 0.63862 0.71567 0.0
O408 O 0.74686 0.64596 0.87244 0.0
Zn409 Zn 0.76362 0.646 0.81099 0.0
O410 O 0.77813 0.66016 0.88257 0.0
Zn411 Zn 0.79293 0.65876 0.80365 0.0
O412 O 0.79774 0.68774 0.79046 0.0
O413 O 0.76447 0.67964 0.79816 0.0
O414 O 0.78027 0.64757 0.72901 0.0
O415 O 0.74991 0.63428 0.75116 0.0
O416 O 0.78886 0.62524 0.8366 0.0
O417 O 0.81743 0.64291 0.81891 0.0
C418 C 0.77879 0.69342 0.79211 0.0
C419 C 0.80884 0.62684 0.83818 0.0
C420 C 0.10574 0.01415 0.65317 0.0
C421 C 0.11325 0.02499 0.4641 0.0
O422 O 0.11555 1.0029 0.61991 0.0
Zn423 Zn 0.10956 0.02025 0.56046 0.0
O424 O 0.09588 0.03045 0.63767 0.0
Zn425 Zn 0.09053 0.04661 0.56305 0.0
O426 O 0.06048 0.04434 0.55724 0.0
O427 O 0.07642 0.01404 0.55314 0.0
O428 O 0.10165 0.03922 0.48434 0.0
O429 O 0.12135 0.01143 0.49416 0.0
O430 O 0.12548 0.04863 0.58623 0.0
O431 O 0.10198 0.07352 0.58026 0.0
C432 C 0.05945 0.02466 0.55344 0.0
C433 C 0.12027 0.06776 0.5931 0.0
C434 C 0.70433 0.3853 0.35373 0.0
C435 C 0.7398 0.32022 0.31441 0.0
O436 O 0.6966 0.36764 0.34285 0.0
Zn437 Zn 0.72194 0.35336 0.3246 0.0
O438 O 0.72388 0.38843 0.34567 0.0
Zn439 Zn 0.75023 0.36934 0.32049 0.0
O440 O 0.76008 0.37954 0.25345 0.0
O441 O 0.73036 0.36273 0.24481 0.0
O442 O 0.75236 0.33576 0.31325 0.0
O443 O 0.72034 0.32348 0.31931 0.0
O444 O 0.73944 0.35649 0.39835 0.0
O445 O 0.76869 0.37322 0.37959 0.0
C446 C 0.74577 0.37248 0.22377 0.0
C447 C 0.75693 0.36429 0.41325 0.0
H448 H 0.97225 0.49685 0.04669 0.0
H449 H 0.99004 0.56002 0.08331 0.0
H450 H 0.02679 0.55057 0.07664 0.0
H451 H 0.05397 0.52451 0.06049 0.0
H452 H 0.0365 0.46124 0.02411 0.0
H453 H 0.99963 0.47068 0.02996 0.0
C454 C 0.98416 0.50851 0.05364 0.0
C455 C 0.97833 0.5291 0.06572 0.0
C456 C 1.00537 0.50302 0.04919 0.0
C457 C 0.99403 0.54405 0.07403 0.0
C458 C 0.01509 0.53868 0.07006 0.0
C459 C 0.04212 0.5128 0.0533 0.0
C460 C 0.04806 0.49221 0.04164 0.0
C461 C 0.02094 0.51825 0.05741 0.0
C462 C 0.03243 0.47723 0.03299 0.0
C463 C 0.01131 0.48259 0.03655 0.0
H464 H 0.74297 0.78491 0.32444 0.0
H465 H 0.80558 0.76917 0.2753 0.0
H466 H 0.79719 0.73226 0.28045 0.0
H467 H 0.77237 0.70439 0.29985 0.0
H468 H 0.7096 0.71975 0.34817 0.0
H469 H 0.71786 0.75681 0.343 0.0
C470 C 0.75471 0.77341 0.31432 0.0
C471 C 0.77486 0.77986 0.29937 0.0
C472 C 0.74986 0.75211 0.31789 0.0
C473 C 0.78994 0.7647 0.28689 0.0
C474 C 0.78519 0.74355 0.29001 0.0
C475 C 0.76053 0.71581 0.30977 0.0
C476 C 0.74044 0.70926 0.32476 0.0
C477 C 0.76528 0.73708 0.30592 0.0
C478 C 0.72522 0.72434 0.33673 0.0
C479 C 0.72991 0.74555 0.33357 0.0
H480 H 0.48438 0.54759 0.56619 0.0
H481 H 0.45738 0.48664 0.54495 0.0
H482 H 0.49167 0.4707 0.55479 0.0
H483 H 0.5293 0.47388 0.56973 0.0
H484 H 0.55663 0.53468 0.59052 0.0
H485 H 0.52226 0.55076 0.58131 0.0
C486 C 0.48603 0.53084 0.56322 0.0
C487 C 0.46829 0.51837 0.55462 0.0
C488 C 0.50584 0.52168 0.56952 0.0
C489 C 0.47072 0.49665 0.55146 0.0
C490 C 0.49034 0.48748 0.55728 0.0
C491 C 0.52775 0.49064 0.5728 0.0
C492 C 0.54556 0.50301 0.58108 0.0
C493 C 0.50799 0.49982 0.56668 0.0
C494 C 0.54321 0.52474 0.58436 0.0
C495 C 0.52355 0.53397 0.57884 0.0
H496 H 0.77214 0.21707 0.81723 0.0
H497 H 0.70993 0.23689 0.77508 0.0
H498 H 0.72051 0.27324 0.78307 0.0
H499 H 0.74732 0.29948 0.80325 0.0
H500 H 0.80951 0.27951 0.84518 0.0
H501 H 0.79894 0.24321 0.83663 0.0
C502 C 0.76093 0.22932 0.80927 0.0
C503 C 0.74028 0.2242 0.79538 0.0
C504 C 0.76704 0.25021 0.81453 0.0
C505 C 0.72594 0.24034 0.7857 0.0
C506 C 0.73195 0.26116 0.79049 0.0
C507 C 0.75852 0.28719 0.81096 0.0
C508 C 0.77915 0.29226 0.82511 0.0
C509 C 0.75241 0.26629 0.80533 0.0
C510 C 0.79351 0.2761 0.83433 0.0
C511 C 0.78751 0.25531 0.82928 0.0
H512 H 0.04902 0.48998 0.55983 0.0
H513 H 0.03362 0.55371 0.59737 0.0
H514 H 0.99647 0.54562 0.59061 0.0
H515 H 0.96834 0.52058 0.57252 0.0
H516 H 0.98391 0.45688 0.53511 0.0
H517 H 0.02099 0.46494 0.5427 0.0
C518 C 0.03756 0.50208 0.5671 0.0
C519 C 0.04414 0.52241 0.57928 0.0
C520 C 0.01623 0.4974 0.56247 0.0
C521 C 0.02902 0.53791 0.58808 0.0
C522 C 0.00776 0.53333 0.58398 0.0
C523 C 0.97984 0.5085 0.56556 0.0
C524 C 0.97333 0.48819 0.55294 0.0
C525 C 1.00118 0.51317 0.57066 0.0
C526 C 0.98847 0.47267 0.54473 0.0
C527 C 0.0097 0.47724 0.54925 0.0
H528 H 0.74201 0.71102 0.82159 0.0
H529 H 0.80393 0.72631 0.76678 0.0
H530 H 0.79621 0.76336 0.77643 0.0
H531 H 0.77193 0.79147 0.8012 0.0
H532 H 0.71012 0.7759 0.85646 0.0
H533 H 0.71789 0.73896 0.8466 0.0
C534 C 0.75375 0.72244 0.81116 0.0
C535 C 0.77347 0.71586 0.79312 0.0
C536 C 0.74934 0.7437 0.81763 0.0
C537 C 0.78859 0.73092 0.78053 0.0
C538 C 0.78423 0.75212 0.7863 0.0
C539 C 0.76024 0.77999 0.81166 0.0
C540 C 0.7405 0.78648 0.82978 0.0
C541 C 0.76471 0.7587 0.80524 0.0
C542 C 0.72546 0.77137 0.84252 0.0
C543 C 0.72985 0.75022 0.83668 0.0
H544 H 0.52933 0.53487 0.06122 0.0
H545 H 0.55473 0.47308 0.0432 0.0
H546 H 0.5198 0.45823 0.05202 0.0
H547 H 0.48192 0.4628 0.06591 0.0
H548 H 0.45698 0.52479 0.08459 0.0
H549 H 0.49181 0.53943 0.07512 0.0
C550 C 0.52725 0.51816 0.05869 0.0
C551 C 0.54468 0.50515 0.05126 0.0
C552 C 0.50717 0.5097 0.06459 0.0
C553 C 0.54162 0.4835 0.04869 0.0
C554 C 0.52164 0.47497 0.05397 0.0
C555 C 0.48413 0.47949 0.06838 0.0
C556 C 0.46679 0.49263 0.07613 0.0
C557 C 0.50429 0.48791 0.06237 0.0
C558 C 0.46998 0.51426 0.0787 0.0
C559 C 0.48992 0.52269 0.07311 0.0
H560 H 0.71847 0.28377 0.3276 0.0
H561 H 0.78029 0.30835 0.30096 0.0
H562 H 0.79487 0.2734 0.30555 0.0
H563 H 0.79027 0.23594 0.3172 0.0
H564 H 0.7286 0.2109 0.34234 0.0
H565 H 0.71385 0.24597 0.33887 0.0
C566 C 0.73512 0.28148 0.32245 0.0
C567 C 0.74823 0.29873 0.31383 0.0
C568 C 0.74348 0.26127 0.3254 0.0
C569 C 0.76979 0.29542 0.30755 0.0
C570 C 0.77819 0.27541 0.31034 0.0
C571 C 0.77362 0.23812 0.32241 0.0
C572 C 0.76059 0.22079 0.33033 0.0
C573 C 0.76521 0.25826 0.31951 0.0
C574 C 0.73901 0.22396 0.33637 0.0
C575 C 0.73054 0.24401 0.33419 0.0
H576 H 0.29292 0.27433 0.82568 0.0
H577 H 0.23301 0.30221 0.79275 0.0
H578 H 0.21651 0.26798 0.79587 0.0
H579 H 0.21908 0.23007 0.80839 0.0
H580 H 0.27913 0.20249 0.84187 0.0
H581 H 0.29547 0.23667 0.8386 0.0
C582 C 0.27627 0.27294 0.81881 0.0
C583 C 0.26426 0.29084 0.80876 0.0
C584 C 0.26685 0.25325 0.82125 0.0
C585 C 0.24267 0.28871 0.80043 0.0
C586 C 0.23319 0.26913 0.80237 0.0
C587 C 0.23572 0.23155 0.81535 0.0
C588 C 0.24782 0.21369 0.82547 0.0
C589 C 0.24511 0.25129 0.81302 0.0
C590 C 0.26939 0.21592 0.83404 0.0
C591 C 0.2788 0.23548 0.83203 0.0
H592 H 0.28971 0.77664 0.3159 0.0
H593 H 0.22924 0.8059 0.32735 0.0
H594 H 0.21232 0.77195 0.31983 0.0
H595 H 0.21472 0.73389 0.30877 0.0
H596 H 0.27545 0.70511 0.29604 0.0
H597 H 0.29214 0.73894 0.30476 0.0
C598 C 0.27283 0.77562 0.31724 0.0
C599 C 0.26079 0.79382 0.32246 0.0
C600 C 0.2632 0.75612 0.31209 0.0
C601 C 0.23891 0.79215 0.32353 0.0
C602 C 0.22921 0.77274 0.31903 0.0
C603 C 0.2316 0.73503 0.30757 0.0
C604 C 0.24377 0.71693 0.30163 0.0
C605 C 0.24119 0.75461 0.31289 0.0
C606 C 0.26564 0.71873 0.30049 0.0
C607 C 0.27525 0.7381 0.30564 0.0
H608 H 0.2449 0.21397 0.32173 0.0
H609 H 0.3086 0.23358 0.29781 0.0
H610 H 0.29782 0.26997 0.30294 0.0
H611 H 0.27031 0.29632 0.31472 0.0
H612 H 0.20665 0.27656 0.33894 0.0
H613 H 0.21747 0.24024 0.33368 0.0
C614 C 0.25642 0.22618 0.31724 0.0
C615 C 0.27753 0.22098 0.30917 0.0
C616 C 0.25016 0.24711 0.32079 0.0
C617 C 0.29224 0.23708 0.30394 0.0
C618 C 0.2861 0.25793 0.30703 0.0
C619 C 0.25882 0.28408 0.31924 0.0
C620 C 0.23769 0.28924 0.32738 0.0
C621 C 0.26511 0.26314 0.31573 0.0
C622 C 0.22302 0.27311 0.33272 0.0
C623 C 0.22918 0.25229 0.32957 0.0
H624 H 0.29876 0.74323 0.80993 0.0
H625 H 0.23852 0.71353 0.82125 0.0
H626 H 0.22134 0.74731 0.81674 0.0
H627 H 0.22321 0.78523 0.8087 0.0
H628 H 0.28327 0.81524 0.79759 0.0
H629 H 0.30063 0.78143 0.80255 0.0
C630 C 0.28188 0.74415 0.81174 0.0
C631 C 0.27 0.72579 0.816 0.0
C632 C 0.27201 0.76369 0.80876 0.0
C633 C 0.24811 0.72733 0.81801 0.0
C634 C 0.23823 0.74667 0.81531 0.0
C635 C 0.2401 0.78442 0.80711 0.0
C636 C 0.25187 0.80281 0.80255 0.0
C637 C 0.25 0.76494 0.81038 0.0
C638 C 0.27377 0.80138 0.80094 0.0
C639 C 0.28373 0.78203 0.8039 0.0
H640 H 0.49339 0.04619 0.56255 0.0
H641 H 0.46472 0.98639 0.58914 0.0
H642 H 0.49884 0.96955 0.58458 0.0
H643 H 0.53694 0.97173 0.57312 0.0
H644 H 0.56542 0.0316 0.54573 0.0
H645 H 0.53133 0.04833 0.55004 0.0
C646 C 0.4946 0.02949 0.56769 0.0
C647 C 0.47648 0.01763 0.57643 0.0
C648 C 0.51427 0.01984 0.56444 0.0
C649 C 0.47838 0.99595 0.58246 0.0
C650 C 0.4979 0.98627 0.57973 0.0
C651 C 0.53569 0.98842 0.56771 0.0
C652 C 0.5538 1.00033 0.55905 0.0
C653 C 0.51597 0.99804 0.57056 0.0
C654 C 0.55181 0.02198 0.55241 0.0
C655 C 0.53229 0.03161 0.55503 0.0
H656 H 0.98045 0.04711 0.0714 0.0
H657 H 0.95283 0.98693 0.04265 0.0
H658 H 0.98724 0.97075 0.04475 0.0
H659 H 0.02533 0.97353 0.05466 0.0
H660 H 0.05296 0.03368 0.0839 0.0
H661 H 0.01854 0.04984 0.08212 0.0
C662 C 0.98196 0.03048 0.0653 0.0
C663 C 0.964 0.01832 0.0567 0.0
C664 C 1.00186 0.02116 0.06702 0.0
C665 C 0.96632 0.99673 0.04932 0.0
C666 C 0.98603 0.98741 0.05061 0.0
C667 C 0.02383 0.99015 0.06099 0.0
C668 C 0.0418 1.0023 0.06947 0.0
C669 C 1.00392 0.99945 0.0596 0.0
C670 C 0.03947 0.02387 0.07733 0.0
C671 C 0.01976 0.03318 0.07618 0.0
H672 H 0.55269 0.99018 0.06498 0.0
H673 H 0.5319 0.0536 0.08482 0.0
H674 H 0.49563 0.04221 0.08099 0.0
H675 H 0.46972 0.01442 0.07104 0.0
H676 H 0.49027 0.95094 0.05089 0.0
H677 H 0.52664 0.96223 0.05545 0.0
C678 C 0.54024 1.00151 0.06885 0.0
C679 C 0.54511 0.02274 0.07533 0.0
C680 C 0.51932 0.99487 0.06613 0.0
C681 C 0.52869 0.03718 0.07986 0.0
C682 C 0.5079 0.03068 0.07755 0.0
C683 C 0.48213 1.00302 0.0674 0.0
C684 C 0.47718 0.98184 0.06043 0.0
C685 C 0.50302 0.0096 0.07037 0.0
C686 C 0.49355 0.96734 0.05613 0.0
C687 C 0.51439 0.97378 0.05887 0.0
H688 H 0.02081 0.04164 0.56782 0.0
H689 H 0.05195 0.98313 0.53937 0.0
H690 H 0.0186 0.9649 0.54411 0.0
H691 H 0.98043 0.96544 0.55703 0.0
H692 H 0.94954 0.02411 0.58556 0.0
H693 H 0.98285 0.04221 0.58052 0.0
C694 C 0.02032 0.02492 0.56228 0.0
C695 C 0.03894 0.01384 0.55308 0.0
C696 C 1.00108 0.01445 0.56552 0.0
C697 C 0.03792 0.99212 0.5464 0.0
C698 C 0.01882 0.98163 0.54926 0.0
C699 C 0.981 0.98216 0.56247 0.0
C700 C 0.96242 0.99332 0.57178 0.0
C701 C 1.00029 0.99261 0.5591 0.0
C702 C 0.96352 0.01504 0.57834 0.0
C703 C 0.9826 0.02547 0.57536 0.0
H704 H 0.12623 0.47378 0.88201 0.0
H705 H 0.1296 0.53874 0.92441 0.0
H706 H 0.1295 0.54843 0.83071 0.0
H707 H 0.12609 0.53857 0.73635 0.0
H708 H 0.12486 0.47352 0.694 0.0
H709 H 0.12662 0.46383 0.78752 0.0
C710 C 0.12717 0.49003 0.87064 0.0
C711 C 0.12776 0.50548 0.91009 0.0
C712 C 0.12738 0.49553 0.81655 0.0
C713 C 0.12918 0.52649 0.89481 0.0
C714 C 0.12901 0.53209 0.84119 0.0
C715 C 0.12641 0.5223 0.74768 0.0
C716 C 0.12519 0.50684 0.70834 0.0
C717 C 0.12775 0.51676 0.80168 0.0
C718 C 0.12583 0.48578 0.72351 0.0
C719 C 0.12675 0.48018 0.77705 0.0
H720 H 0.7246 0.86214 -0.00067 0.0
H721 H 0.78904 0.8654 0.95055 0.0
H722 H 0.80029 0.86429 0.04318 0.0
H723 H 0.79192 0.86065 0.13851 0.0
H724 H 0.72741 0.86004 0.18738 0.0
H725 H 0.71618 0.86194 0.09488 0.0
C726 C 0.74108 0.86279 0.00911 0.0
C727 C 0.75592 0.86373 0.96815 0.0
C728 C 0.74748 0.86253 0.06263 0.0
C729 C 0.77724 0.86476 0.98137 0.0
C730 C 0.78374 0.86402 0.03437 0.0
C731 C 0.77543 0.86108 0.12878 0.0
C732 C 0.76056 0.86008 0.16968 0.0
C733 C 0.76902 0.86263 0.07537 0.0
C734 C 0.73921 0.86088 0.15661 0.0
C735 C 0.73274 0.86188 0.10367 0.0
H736 H 0.38948 0.47321 0.24766 0.0
H737 H 0.38955 0.53709 0.19546 0.0
H738 H 0.38963 0.54903 0.2876 0.0
H739 H 0.39137 0.54134 0.38353 0.0
H740 H 0.3887 0.47751 0.43566 0.0
H741 H 0.38782 0.4656 0.34355 0.0
C742 C 0.38935 0.48972 0.25659 0.0
C743 C 0.38963 0.50421 0.21489 0.0
C744 C 0.38899 0.49653 0.30976 0.0
C745 C 0.38924 0.52559 0.22691 0.0
C746 C 0.38939 0.53246 0.27961 0.0
C747 C 0.39044 0.52486 0.37459 0.0
C748 C 0.39023 0.51036 0.41628 0.0
C749 C 0.38952 0.51808 0.32141 0.0
C750 C 0.3888 0.48902 0.40424 0.0
C751 C 0.38839 0.48216 0.35155 0.0
H752 H 0.72104 0.14185 0.63217 0.0
H753 H 0.78551 0.14706 0.67937 0.0
H754 H 0.79647 0.146 0.58646 0.0
H755 H 0.78758 0.14547 0.49114 0.0
H756 H 0.72334 0.13741 0.4442 0.0
H757 H 0.7125 0.13747 0.53716 0.0
C758 C 0.73746 0.14258 0.62195 0.0
C759 C 0.75241 0.14467 0.66236 0.0
C760 C 0.74373 0.14146 0.56842 0.0
C761 C 0.7737 0.14537 0.64884 0.0
C762 C 0.77999 0.14485 0.59572 0.0
C763 C 0.77126 0.14351 0.50142 0.0
C764 C 0.75631 0.14157 0.46093 0.0
C765 C 0.76513 0.14316 0.5551 0.0
C766 C 0.73521 0.13884 0.4747 0.0
C767 C 0.72894 0.13899 0.52787 0.0
H768 H 0.89795 0.49008 0.21132 0.0
H769 H 0.90161 0.55665 0.2308 0.0
H770 H 0.89882 0.55271 0.32733 0.0
H771 H 0.8971 0.53028 0.40629 0.0
H772 H 0.89647 0.4636 0.38721 0.0
H773 H 0.89618 0.46762 0.29039 0.0
C774 C 0.89791 0.50374 0.23667 0.0
C775 C 0.89988 0.52365 0.21389 0.0
C776 C 0.89691 0.50131 0.29219 0.0
C777 C 0.90014 0.54117 0.24733 0.0
C778 C 0.89854 0.53892 0.30251 0.0
C779 C 0.89663 0.51662 0.38094 0.0
C780 C 0.89665 0.49665 0.40391 0.0
C781 C 0.89715 0.51906 0.3254 0.0
C782 C 0.89643 0.47912 0.37052 0.0
C783 C 0.89629 0.48142 0.31518 0.0
H784 H 0.27862 0.13789 0.96935 0.0
H785 H 0.21188 0.14103 0.98976 0.0
H786 H 0.21631 0.14152 0.08653 0.0
H787 H 0.23919 0.14255 0.16508 0.0
H788 H 0.306 0.14281 0.14453 0.0
H789 H 0.30156 0.1395 0.04806 0.0
C790 C 0.26503 0.13842 0.99504 0.0
C791 C 0.24491 0.13918 0.97242 0.0
C792 C 0.26775 0.13945 0.05056 0.0
C793 C 0.2275 0.14034 0.00617 0.0
C794 C 0.23004 0.14065 0.06148 0.0
C795 C 0.2528 0.14169 0.13954 0.0
C796 C 0.27293 0.14275 0.16203 0.0
C797 C 0.25009 0.14042 0.08409 0.0
C798 C 0.29037 0.142 0.12826 0.0
C799 C 0.28782 0.1401 0.07312 0.0
H800 H 0.62593 0.53414 0.89208 0.0
H801 H 0.62595 0.46856 0.92793 0.0
H802 H 0.6272 0.46022 0.83324 0.0
H803 H 0.62538 0.47166 0.74008 0.0
H804 H 0.62772 0.5372 0.70423 0.0
H805 H 0.62868 0.54551 0.79897 0.0
C806 C 0.62645 0.51806 0.87898 0.0
C807 C 0.62563 0.502 0.91653 0.0
C808 C 0.62751 0.51338 0.82459 0.0
C809 C 0.6266 0.48119 0.8995 0.0
C810 C 0.62721 0.4764 0.84543 0.0
C811 C 0.62636 0.48772 0.75318 0.0
C812 C 0.62626 0.5038 0.7156 0.0
C813 C 0.62723 0.49237 0.80761 0.0
C814 C 0.62781 0.52456 0.73268 0.0
C815 C 0.62824 0.52934 0.78678 0.0
H816 H 0.22096 0.8752 0.62388 0.0
H817 H 0.28496 0.87788 0.67638 0.0
H818 H 0.29707 0.87606 0.58449 0.0
H819 H 0.28954 0.87255 0.48876 0.0
H820 H 0.22559 0.87338 0.43554 0.0
H821 H 0.21342 0.87511 0.52749 0.0
C822 C 0.23752 0.87553 0.61496 0.0
C823 C 0.25203 0.8766 0.65666 0.0
C824 C 0.24441 0.87509 0.56181 0.0
C825 C 0.27347 0.8772 0.64478 0.0
C826 C 0.28044 0.87607 0.59228 0.0
C827 C 0.27297 0.87326 0.49747 0.0
C828 C 0.2585 0.87276 0.45565 0.0
C829 C 0.26607 0.87484 0.55043 0.0
C830 C 0.23705 0.87388 0.46722 0.0
C831 C 0.23006 0.87477 0.51978 0.0
H832 H 0.62548 0.98744 0.22009 0.0
H833 H 0.62394 0.05425 0.23584 0.0
H834 H 0.62778 0.05105 0.33242 0.0
H835 H 0.6298 0.02917 0.41256 0.0
H836 H 0.62795 0.96239 0.39698 0.0
H837 H 0.62739 0.96562 0.29998 0.0
C838 C 0.62621 1.00132 0.24461 0.0
C839 C 0.62456 0.02108 0.22086 0.0
C840 C 0.62777 0.99933 0.30007 0.0
C841 C 0.62516 0.03889 0.25321 0.0
C842 C 0.62737 0.03706 0.30837 0.0
C843 C 0.62957 0.01533 0.38785 0.0
C844 C 0.62912 0.99555 0.41176 0.0
C845 C 0.62847 0.01735 0.33227 0.0
C846 C 0.62837 0.97776 0.3794 0.0
C847 C 0.62801 0.97961 0.32402 0.0
H848 H 0.27572 0.366 0.47104 0.0
H849 H 0.20893 0.3678 0.4915 0.0
H850 H 0.21338 0.36999 0.58812 0.0
H851 H 0.23623 0.36975 0.6669 0.0
H852 H 0.30282 0.36426 0.64672 0.0
H853 H 0.29855 0.36526 0.5499 0.0
C854 C 0.26215 0.3671 0.49667 0.0
C855 C 0.24201 0.36693 0.47415 0.0
C856 C 0.26483 0.36762 0.55221 0.0
C857 C 0.22457 0.36794 0.50787 0.0
C858 C 0.22712 0.36919 0.56308 0.0
C859 C 0.24983 0.36903 0.64127 0.0
C860 C 0.26985 0.36716 0.66391 0.0
C861 C 0.24717 0.36884 0.58572 0.0
C862 C 0.28727 0.36578 0.63023 0.0
C863 C 0.28482 0.36633 0.57491 0.0
H864 H 0.88684 0.9847 0.91449 0.0
H865 H 0.8873 0.05119 0.89222 0.0
H866 H 0.88532 0.04642 0.79574 0.0
H867 H 0.88527 0.02332 0.71745 0.0
H868 H 0.88825 0.95689 0.73965 0.0
H869 H 0.88698 0.96161 0.83622 0.0
C870 C 0.88625 0.99814 0.8885 0.0
C871 C 0.88706 0.01828 0.91049 0.0
C872 C 0.88583 0.99526 0.833 0.0
C873 C 0.88669 0.03554 0.87628 0.0
C874 C 0.88556 0.03281 0.82111 0.0
C875 C 0.88538 0.00987 0.74346 0.0
C876 C 0.88668 0.98976 0.72142 0.0
C877 C 0.88537 0.01275 0.79898 0.0
C878 C 0.88723 0.97251 0.75564 0.0
C879 C 0.88651 0.97521 0.81085 0.0
H880 H 0.23963 0.6445 0.95616 0.0
H881 H 0.30593 0.65045 0.98104 0.0
H882 H 0.30092 0.64687 0.07716 0.0
H883 H 0.27746 0.64378 0.15481 0.0
H884 H 0.21094 0.64144 0.12998 0.0
H885 H 0.21621 0.64172 0.03356 0.0
C886 C 0.25301 0.64479 0.98259 0.0
C887 C 0.27316 0.64759 0.96133 0.0
C888 C 0.24993 0.64341 0.038 0.0
C889 C 0.29027 0.64831 0.99628 0.0
C890 C 0.28741 0.64625 0.05129 0.0
C891 C 0.26415 0.64304 0.12821 0.0
C892 C 0.24383 0.64236 0.14956 0.0
C893 C 0.26729 0.64401 0.07271 0.0
C894 C 0.22672 0.64189 0.11459 0.0
C895 C 0.22974 0.64208 0.05943 0.0
H896 H 0.40067 0.02357 0.91725 0.0
H897 H 0.39909 0.95721 0.89244 0.0
H898 H 0.39709 0.96252 0.79617 0.0
H899 H 0.39756 0.98603 0.71852 0.0
H900 H 0.40238 0.05222 0.74353 0.0
H901 H 0.40121 0.04702 0.83986 0.0
C902 C 0.39965 0.01026 0.89081 0.0
C903 C 0.39989 0.99 0.91216 0.0
C904 C 0.39916 0.01343 0.83535 0.0
C905 C 0.39893 0.97295 0.87717 0.0
C906 C 0.39779 0.97599 0.82206 0.0
C907 C 0.39809 0.99933 0.74509 0.0
C908 C 0.39989 0.01952 0.72378 0.0
C909 C 0.39812 0.99615 0.80061 0.0
C910 C 0.40096 0.03654 0.75882 0.0
C911 C 0.40032 0.03356 0.81395 0.0
H912 H 0.7244 0.6329 0.4858 0.0
H913 H 0.78955 0.62879 0.44367 0.0
H914 H 0.79931 0.62964 0.53733 0.0
H915 H 0.78947 0.63384 0.63142 0.0
H916 H 0.72425 0.63595 0.67364 0.0
H917 H 0.71446 0.63351 0.58019 0.0
C918 C 0.7407 0.63197 0.49722 0.0
C919 C 0.75618 0.63094 0.45785 0.0
C920 C 0.74625 0.63223 0.55127 0.0
C921 C 0.77727 0.62954 0.47321 0.0
C922 C 0.78291 0.63014 0.5268 0.0
C923 C 0.77314 0.6336 0.62006 0.0
C924 C 0.75765 0.63524 0.65927 0.0
C925 C 0.76756 0.63185 0.56618 0.0
C926 C 0.73651 0.63466 0.64416 0.0
C927 C 0.73086 0.63335 0.59069 0.0
H928 H 0.11837 0.9898 0.40643 0.0
H929 H 0.11327 0.05642 0.39137 0.0
H930 H 0.11569 0.05339 0.29445 0.0
H931 H 0.1175 0.03165 0.21413 0.0
H932 H 0.11882 0.96485 0.22879 0.0
H933 H 0.11974 0.96801 0.32593 0.0
C934 C 0.11804 1.00366 0.38189 0.0
C935 C 0.11583 0.02334 0.40587 0.0
C936 C 0.11868 1.00171 0.32627 0.0
C937 C 0.11499 0.04114 0.3737 0.0
C938 C 0.11637 0.03939 0.31838 0.0
C939 C 0.11826 0.0178 0.23863 0.0
C940 C 0.11831 0.99804 0.21449 0.0
C941 C 0.11799 0.01975 0.29425 0.0
C942 C 0.11883 0.9802 0.24659 0.0
C943 C 0.11933 0.98202 0.30203 0.0
H944 H 0.7817 0.37459 0.16751 0.0
H945 H 0.71484 0.37236 0.14881 0.0
H946 H 0.71884 0.37211 0.0519 0.0
H947 H 0.74146 0.37091 0.97273 0.0
H948 H 0.80833 0.36981 0.99216 0.0
H949 H 0.80426 0.37303 0.08861 0.0
C950 C 0.76799 0.37432 0.14219 0.0
C951 C 0.74798 0.3737 0.16524 0.0
C952 C 0.77046 0.37345 0.0867 0.0
C953 C 0.73039 0.3729 0.13198 0.0
C954 C 0.73268 0.37274 0.07662 0.0
C955 C 0.75514 0.37158 -0.00192 0.0
C956 C 0.77519 0.37027 0.97535 0.0
C957 C 0.75265 0.37278 0.05357 0.0
C958 C 0.79276 0.37079 0.00872 0.0
C959 C 0.79043 0.37264 0.06383 0.0
H960 H 0.10282 0.53702 0.38763 0.0
H961 H 0.09977 0.47107 0.41832 0.0
H962 H 0.09889 0.464 0.32279 0.0
H963 H 0.102 0.47647 0.23139 0.0
H964 H 0.10801 0.54226 0.20095 0.0
H965 H 0.10463 0.54958 0.29596 0.0
C966 C 0.1016 0.52113 0.37331 0.0
C967 C 0.10136 0.50456 0.40951 0.0
C968 C 0.10184 0.51719 0.31864 0.0
C969 C 0.10008 0.48403 0.39082 0.0
C970 C 0.09959 0.47999 0.33638 0.0
C971 C 0.1023 0.49242 0.24552 0.0
C972 C 0.10531 0.50881 0.20957 0.0
C973 C 0.10094 0.49644 0.30003 0.0
C974 C 0.10586 0.5294 0.2282 0.0
C975 C 0.1039 0.53359 0.28236 0.0
H976 H 0.72673 0.8402 0.64254 0.0
H977 H 0.79185 0.84844 0.68098 0.0
H978 H 0.80119 0.84427 0.5875 0.0
H979 H 0.79057 0.84107 0.49418 0.0
H980 H 0.72526 0.83569 0.45519 0.0
H981 H 0.71624 0.83563 0.54961 0.0
C982 C 0.74297 0.84085 0.63045 0.0
C983 C 0.75856 0.84474 0.66829 0.0
C984 C 0.74818 0.83896 0.5766 0.0
C985 C 0.77955 0.84567 0.65227 0.0
C986 C 0.78492 0.84324 0.59894 0.0
C987 C 0.77443 0.8395 0.50657 0.0
C988 C 0.75858 0.83838 0.4683 0.0
C989 C 0.76933 0.84025 0.56067 0.0
C990 C 0.73767 0.83666 0.48436 0.0
C991 C 0.73252 0.83667 0.53818 0.0
H992 H 0.40363 0.48462 0.72095 0.0
H993 H 0.40663 0.55154 0.73162 0.0
H994 H 0.40633 0.54957 0.82858 0.0
H995 H 0.40433 0.52881 0.91011 0.0
H996 H 0.40325 0.46183 0.89951 0.0
H997 H 0.40373 0.46379 0.80252 0.0
C998 C 0.40426 0.49872 0.74466 0.0
C999 C 0.40505 0.51815 0.71964 0.0
C1000 C 0.4044 0.49747 0.80016 0.0
C1001 C 0.40612 0.53638 0.75036 0.0
C1002 C 0.40586 0.53529 0.80566 0.0
C1003 C 0.40422 0.51469 0.88641 0.0
C1004 C 0.40364 0.49526 0.91142 0.0
C1005 C 0.40486 0.51592 0.83093 0.0
C1006 C 0.40378 0.47699 0.88074 0.0
C1007 C 0.40398 0.47808 0.82544 0.0
H1008 H 0.78316 0.16662 0.13774 0.0
H1009 H 0.71792 0.15765 0.17318 0.0
H1010 H 0.70935 0.1602 0.07867 0.0
H1011 H 0.7208 0.16244 0.98576 0.0
H1012 H 0.78639 0.16813 0.95034 0.0
H1013 H 0.79451 0.16964 0.04526 0.0
C1014 C 0.76705 0.1655 0.12473 0.0
C1015 C 0.75118 0.16195 0.16194 0.0
C1016 C 0.76236 0.16633 0.07049 0.0
C1017 C 0.73039 0.16025 0.14487 0.0
C1018 C 0.72548 0.16174 0.091 0.0
C1019 C 0.73681 0.16433 -0.00097 0.0
C1020 C 0.75301 0.16521 0.96171 0.0
C1021 C 0.74139 0.16442 0.05343 0.0
C1022 C 0.77374 0.16734 0.97883 0.0
C1023 C 0.77837 0.16819 0.0329 0.0
H1024 H 0.9118 0.47862 0.73578 0.0
H1025 H 0.90969 0.54363 0.69366 0.0
H1026 H 0.9118 0.55327 0.78767 0.0
H1027 H 0.91325 0.54311 0.88178 0.0
H1028 H 0.91297 0.47804 0.92359 0.0
H1029 H 0.91289 0.46848 0.82949 0.0
C1030 C 0.91197 0.4949 0.74718 0.0
C1031 C 0.9107 0.51041 0.70803 0.0
C1032 C 0.91273 0.50028 0.80111 0.0
C1033 C 0.91061 0.53143 0.72325 0.0
C1034 C 0.91185 0.53694 0.77689 0.0
C1035 C 0.91336 0.52685 0.87018 0.0
C1036 C 0.91322 0.51128 0.9093 0.0
C1037 C 0.91279 0.52149 0.81614 0.0
C1038 C 0.91304 0.49027 0.89399 0.0
C1039 C 0.91301 0.4848 0.8403 0.0
H1040 H 0.22752 0.15424 0.64017 0.0
H1041 H 0.29228 0.14527 0.68117 0.0
H1042 H 0.302 0.14797 0.58726 0.0
H1043 H 0.29189 0.15237 0.49352 0.0
H1044 H 0.22682 0.1587 0.45256 0.0
H1045 H 0.21734 0.1577 0.54676 0.0
C1046 C 0.24377 0.15297 0.62855 0.0
C1047 C 0.2592 0.14969 0.66736 0.0
C1048 C 0.24914 0.15412 0.57467 0.0
C1049 C 0.28015 0.14775 0.65183 0.0
C1050 C 0.28571 0.14936 0.59827 0.0
C1051 C 0.27566 0.15373 0.50541 0.0
C1052 C 0.26005 0.1558 0.46654 0.0
C1053 C 0.27032 0.15252 0.55938 0.0
C1054 C 0.23906 0.15712 0.48203 0.0
C1055 C 0.23365 0.15654 0.53575 0.0
H1056 H 0.60588 0.53227 0.23504 0.0
H1057 H 0.60651 0.46583 0.21065 0.0
H1058 H 0.60516 0.46022 0.30685 0.0
H1059 H 0.60543 0.47435 0.39706 0.0
H1060 H 0.60801 0.54074 0.42149 0.0
H1061 H 0.60641 0.5464 0.32531 0.0
C1062 C 0.60548 0.51658 0.25093 0.0
C1063 C 0.60616 0.49945 0.21652 0.0
C1064 C 0.60537 0.51355 0.30581 0.0
C1065 C 0.60603 0.47918 0.23697 0.0
C1066 C 0.60524 0.476 0.29168 0.0
C1067 C 0.6054 0.49004 0.3812 0.0
C1068 C 0.6067 0.50714 0.41561 0.0
C1069 C 0.60513 0.49308 0.32634 0.0
C1070 C 0.60706 0.52741 0.39517 0.0
C1071 C 0.60612 0.53063 0.34047 0.0
H1072 H 0.24796 0.83727 0.97083 0.0
H1073 H 0.25944 0.90323 0.96098 0.0
H1074 H 0.26441 0.90498 0.05726 0.0
H1075 H 0.26492 0.8878 0.14405 0.0
H1076 H 0.25703 0.82141 0.154 0.0
H1077 H 0.25118 0.81955 0.05749 0.0
C1078 C 0.2516 0.85194 0.99005 0.0
C1079 C 0.25325 0.87011 0.95964 0.0
C1080 C 0.25498 0.8527 0.04502 0.0
C1081 C 0.25823 0.88908 0.98413 0.0
C1082 C 0.26097 0.8901 0.03897 0.0
C1083 C 0.26186 0.87299 0.12478 0.0
C1084 C 0.26102 0.85481 0.15511 0.0
C1085 C 0.25927 0.87204 0.06972 0.0
C1086 C 0.25756 0.83555 0.13061 0.0
C1087 C 0.25423 0.83452 0.07579 0.0
H1088 H 0.61513 0.9777 0.74094 0.0
H1089 H 0.62248 0.04296 0.70578 0.0
H1090 H 0.61957 0.0513 0.80063 0.0
H1091 H 0.6149 0.03985 0.89305 0.0
H1092 H 0.60988 0.97436 0.92805 0.0
H1093 H 0.61176 0.96619 0.83308 0.0
C1094 C 0.61602 0.99377 0.75404 0.0
C1095 C 0.61882 0.00975 0.71671 0.0
C1096 C 0.61466 0.99833 0.80827 0.0
C1097 C 0.62034 0.03044 0.73405 0.0
C1098 C 0.6186 0.03519 0.78808 0.0
C1099 C 0.61403 0.02381 0.87971 0.0
C1100 C 0.612 0.00769 0.917 0.0
C1101 C 0.61569 0.01925 0.82544 0.0
C1102 C 0.61137 0.98696 0.89973 0.0
C1103 C 0.61245 0.98231 0.84562 0.0
H1104 H 0.22209 0.35584 0.14193 0.0
H1105 H 0.28723 0.35171 0.18392 0.0
H1106 H 0.29679 0.35089 0.08976 0.0
H1107 H 0.28663 0.35211 0.99584 0.0
H1108 H 0.22175 0.35906 0.95365 0.0
H1109 H 0.21199 0.35805 0.04775 0.0
C1110 C 0.23835 0.35459 0.13031 0.0
C1111 C 0.25396 0.35366 0.16945 0.0
C1112 C 0.24373 0.35472 0.07628 0.0
C1113 C 0.27499 0.35245 0.15423 0.0
C1114 C 0.28045 0.35196 0.10054 0.0
C1115 C 0.27034 0.35325 0.00732 0.0
C1116 C 0.25488 0.35549 0.96816 0.0
C1117 C 0.26495 0.35319 0.06128 0.0
C1118 C 0.23389 0.35735 0.98333 0.0
C1119 C 0.22832 0.35673 0.03699 0.0
H1120 H 0.89461 0.02604 0.41131 0.0
H1121 H 0.89407 0.95914 0.39878 0.0
H1122 H 0.89366 0.96146 0.30191 0.0
H1123 H 0.89443 0.98252 0.22044 0.0
H1124 H 0.89746 0.04938 0.23306 0.0
H1125 H 0.89596 0.0471 0.32979 0.0
C1126 C 0.89428 0.01204 0.3872 0.0
C1127 C 0.89438 0.99251 0.41182 0.0
C1128 C 0.89461 0.01346 0.3315 0.0
C1129 C 0.89416 0.97439 0.38044 0.0
C1130 C 0.89389 0.97568 0.32511 0.0
C1131 C 0.89469 0.99654 0.24449 0.0
C1132 C 0.89611 0.01603 0.21985 0.0
C1133 C 0.89428 0.99513 0.30017 0.0
C1134 C 0.89659 0.03414 0.25129 0.0
C1135 C 0.89565 0.03289 0.30658 0.0
H1136 H 0.23654 0.65332 0.65217 0.0
H1137 H 0.30288 0.66295 0.63693 0.0
H1138 H 0.30025 0.65985 0.54042 0.0
H1139 H 0.27899 0.65476 0.45972 0.0
H1140 H 0.21236 0.64768 0.4747 0.0
H1141 H 0.21518 0.64925 0.57154 0.0
C1142 C 0.25038 0.65475 0.62763 0.0
C1143 C 0.26982 0.65842 0.65159 0.0
C1144 C 0.24872 0.65332 0.57202 0.0
C1145 C 0.28766 0.66035 0.61937 0.0
C1146 C 0.28621 0.65847 0.56417 0.0
C1147 C 0.26517 0.65342 0.48437 0.0
C1148 C 0.24555 0.65103 0.46042 0.0
C1149 C 0.26682 0.65497 0.54 0.0
C1150 C 0.22765 0.64961 0.49249 0.0
C1151 C 0.22923 0.65049 0.5478 0.0
H1152 H 0.41123 0.02555 0.22158 0.0
H1153 H 0.4097 0.95874 0.23681 0.0
H1154 H 0.40859 0.96182 0.33348 0.0
H1155 H 0.40832 0.98352 0.41417 0.0
H1156 H 0.41215 0.05022 0.39909 0.0
H1157 H 0.41206 0.0472 0.30231 0.0
C1158 C 0.41063 0.01171 0.24616 0.0
C1159 C 0.41056 0.99199 0.22219 0.0
C1160 C 0.41042 0.01356 0.30185 0.0
C1161 C 0.40995 0.97413 0.25441 0.0
C1162 C 0.40923 0.97586 0.3097 0.0
C1163 C 0.40907 0.99735 0.38957 0.0
C1164 C 0.41022 0.01702 0.41356 0.0
C1165 C 0.4095 0.99549 0.3339 0.0
C1166 C 0.4114 0.03486 0.38141 0.0
C1167 C 0.4113 0.03317 0.32608 0.0
H1168 H 0.72713 0.65594 0.13572 0.0
H1169 H 0.79298 0.64943 0.16798 0.0
H1170 H 0.80074 0.65322 0.07338 0.0
H1171 H 0.78852 0.65557 0.98128 0.0
H1172 H 0.7225 0.65928 0.94886 0.0
H1173 H 0.71503 0.65967 0.04414 0.0
C1174 C 0.74319 0.6556 0.12209 0.0
C1175 C 0.75946 0.65232 0.15844 0.0
C1176 C 0.74747 0.65725 0.06778 0.0
C1177 C 0.7802 0.65177 0.14043 0.0
C1178 C 0.78464 0.65397 0.08648 0.0
C1179 C 0.77255 0.65682 0.99522 0.0
C1180 C 0.75606 0.65736 0.95858 0.0
C1181 C 0.76836 0.65632 0.04976 0.0
C1182 C 0.7354 0.65872 0.97671 0.0
C1183 C 0.73113 0.65892 0.03101 0.0
H1184 H 0.10846 0.98041 0.887 0.0
H1185 H 0.10781 0.04617 0.92137 0.0
H1186 H 0.10666 0.0539 0.82594 0.0
H1187 H 0.10534 0.04172 0.73345 0.0
H1188 H 0.10835 0.976 0.6994 0.0
H1189 H 0.10908 0.96832 0.79477 0.0
C1190 C 0.10798 0.99643 0.87351 0.0
C1191 C 0.10792 0.01275 0.91066 0.0
C1192 C 0.10773 1.00067 0.81908 0.0
C1193 C 0.1078 0.03343 0.89311 0.0
C1194 C 0.10709 0.03781 0.83878 0.0
C1195 C 0.10604 0.02573 0.74707 0.0
C1196 C 0.1065 0.00938 0.71002 0.0
C1197 C 0.10693 0.02153 0.80154 0.0
C1198 C 0.10792 0.98875 0.7276 0.0
C1199 C 0.1083 0.98439 0.7819 0.0
H1200 H 0.79561 0.36064 0.64362 0.0
H1201 H 0.73038 0.35635 0.68451 0.0
H1202 H 0.72094 0.35708 0.59034 0.0
H1203 H 0.73118 0.35969 0.49701 0.0
H1204 H 0.79615 0.36646 0.45561 0.0
H1205 H 0.80583 0.36412 0.54964 0.0
C1206 C 0.77936 0.35968 0.63171 0.0
C1207 C 0.76369 0.35828 0.67055 0.0
C1208 C 0.77405 0.36069 0.57769 0.0
C1209 C 0.74267 0.35744 0.65504 0.0
C1210 C 0.73728 0.35785 0.60135 0.0
C1211 C 0.74747 0.36054 0.50855 0.0
C1212 C 0.76296 0.36311 0.46963 0.0
C1213 C 0.75283 0.3596 0.56243 0.0
C1214 C 0.78397 0.36453 0.48505 0.0
C1215 C 0.7895 0.36313 0.53868 0.0
H1216 H 0.12724 0.42168 0.15129 0.0
H1217 H 0.17879 0.46137 0.10942 0.0
H1218 H 0.20189 0.44133 0.1684 0.0
H1219 H 0.20731 0.41183 0.23125 0.0
H1220 H 0.15427 0.37428 0.27592 0.0
H1221 H 0.13191 0.3944 0.21739 0.0
C1222 C 0.1436 0.42583 0.15452 0.0
C1223 C 0.15141 0.44269 0.12501 0.0
C1224 C 0.15648 0.41477 0.18977 0.0
C1225 C 0.17248 0.44826 0.1311 0.0
C1226 C 0.18564 0.43687 0.16505 0.0
C1227 C 0.19081 0.40827 0.22882 0.0
C1228 C 0.18262 0.3914 0.25807 0.0
C1229 C 0.1778 0.42005 0.19475 0.0
C1230 C 0.16114 0.38705 0.25405 0.0
C1231 C 0.14828 0.3985 0.22024 0.0
H1232 H 0.88722 0.91013 0.47552 0.0
H1233 H 0.83585 0.943 0.54752 0.0
H1234 H 0.81112 0.9236 0.49187 0.0
H1235 H 0.80423 0.8975 0.42106 0.0
H1236 H 0.85647 0.86667 0.34623 0.0
H1237 H 0.88058 0.88532 0.40368 0.0
C1238 C 0.87058 0.91276 0.47981 0.0
C1239 C 0.86336 0.92764 0.51651 0.0
C1240 C 0.85658 0.9022 0.4462 0.0
C1241 C 0.84178 0.93138 0.5202 0.0
C1242 C 0.82766 0.92041 0.48803 0.0
C1243 C 0.8209 0.89509 0.41682 0.0
C1244 C 0.82842 0.88064 0.37908 0.0
C1245 C 0.83488 0.90592 0.45035 0.0
C1246 C 0.85012 0.87765 0.37467 0.0
C1247 C 0.864 0.88823 0.40783 0.0
H1248 H 0.39269 0.60105 0.64212 0.0
H1249 H 0.3409 0.56235 0.59539 0.0
H1250 H 0.31776 0.58183 0.65487 0.0
H1251 H 0.31243 0.60944 0.72146 0.0
H1252 H 0.36464 0.64729 0.77046 0.0
H1253 H 0.38749 0.62822 0.70985 0.0
C1254 C 0.37624 0.59715 0.64413 0.0
C1255 C 0.36843 0.58053 0.61351 0.0
C1256 C 0.36321 0.60794 0.67988 0.0
C1257 C 0.34722 0.57527 0.61791 0.0
C1258 C 0.33404 0.58628 0.65231 0.0
C1259 C 0.32887 0.61334 0.71959 0.0
C1260 C 0.33677 0.62975 0.75098 0.0
C1261 C 0.34192 0.60247 0.68403 0.0
C1262 C 0.3581 0.63468 0.74722 0.0
C1263 C 0.37118 0.62389 0.71216 0.0
H1264 H 0.70771 0.10491 0.90486 0.0
H1265 H 0.65595 0.13949 0.83918 0.0
H1266 H 0.63182 0.12075 0.89609 0.0
H1267 H 0.62514 0.09541 0.96616 0.0
H1268 H 0.67574 0.0588 0.02931 0.0
H1269 H 0.70054 0.07759 0.97246 0.0
C1270 C 0.69112 0.10812 0.90243 0.0
C1271 C 0.68377 0.12372 0.86763 0.0
C1272 C 0.67712 0.09719 0.93561 0.0
C1273 C 0.66218 0.12766 0.8654 0.0
C1274 C 0.6483 0.11701 0.89825 0.0
C1275 C 0.64164 0.0917 0.96807 0.0
C1276 C 0.64865 0.07605 0.00284 0.0
C1277 C 0.6556 0.10201 0.93405 0.0
C1278 C 0.66999 0.071 0.00347 0.0
C1279 C 0.68414 0.08166 0.97071 0.0
H1280 H 0.20327 0.59699 0.381 0.0
H1281 H 0.15165 0.63726 0.34073 0.0
H1282 H 0.12901 0.61798 0.40074 0.0
H1283 H 0.12403 0.59083 0.46762 0.0
H1284 H 0.17454 0.54908 0.50545 0.0
H1285 H 0.19752 0.56798 0.44409 0.0
C1286 C 0.18697 0.60133 0.38457 0.0
C1287 C 0.17926 0.61867 0.35621 0.0
C1288 C 0.17394 0.5902 0.41966 0.0
C1289 C 0.15809 0.62404 0.36179 0.0
C1290 C 0.14512 0.61311 0.39651 0.0
C1291 C 0.14015 0.586 0.46297 0.0
C1292 C 0.14773 0.56888 0.49205 0.0
C1293 C 0.15297 0.59646 0.42641 0.0
C1294 C 0.16844 0.5624 0.48417 0.0
C1295 C 0.18152 0.57313 0.44884 0.0
H1296 H 0.62997 0.92023 0.66615 0.0
H1297 H 0.68142 0.95487 0.60064 0.0
H1298 H 0.70597 0.93486 0.65547 0.0
H1299 H 0.71269 0.90718 0.72243 0.0
H1300 H 0.66023 0.87454 0.7905 0.0
H1301 H 0.63633 0.89433 0.73519 0.0
C1302 C 0.64658 0.92323 0.66326 0.0
C1303 C 0.65388 0.93873 0.62848 0.0
C1304 C 0.66046 0.91222 0.69617 0.0
C1305 C 0.67542 0.94283 0.62654 0.0
C1306 C 0.68944 0.93147 0.65816 0.0
C1307 C 0.69602 0.90462 0.72571 0.0
C1308 C 0.68839 0.88926 0.76076 0.0
C1309 C 0.68214 0.91616 0.69344 0.0
C1310 C 0.66668 0.88616 0.76405 0.0
C1311 C 0.65292 0.89741 0.73213 0.0
H1312 H 0.30642 0.40722 0.91342 0.0
H1313 H 0.35722 0.36712 0.86603 0.0
H1314 H 0.38074 0.38551 0.92586 0.0
H1315 H 0.38714 0.41283 0.99198 0.0
H1316 H 0.33726 0.45431 0.03672 0.0
H1317 H 0.31311 0.43531 0.97869 0.0
C1318 C 0.3227 0.40269 0.9156 0.0
C1319 C 0.32997 0.3858 0.88487 0.0
C1320 C 0.33626 0.41332 0.95057 0.0
C1321 C 0.35112 0.38006 0.88887 0.0
C1322 C 0.36461 0.3905 0.92344 0.0
C1323 C 0.37088 0.41746 0.98988 0.0
C1324 C 0.36391 0.43471 0.01952 0.0
C1325 C 0.35732 0.40698 0.9549 0.0
C1326 C 0.34294 0.4409 0.01495 0.0
C1327 C 0.32918 0.43015 0.98138 0.0
H1328 H 0.80166 0.10594 0.21201 0.0
H1329 H 0.85168 0.1426 0.27876 0.0
H1330 H 0.87674 0.12508 0.22133 0.0
H1331 H 0.88474 0.09945 0.15199 0.0
H1332 H 0.83549 0.06133 0.08773 0.0
H1333 H 0.8099 0.07954 0.1433 0.0
C1334 C 0.81807 0.10991 0.21449 0.0
C1335 C 0.82469 0.12558 0.25002 0.0
C1336 C 0.83254 0.09978 0.18093 0.0
C1337 C 0.84605 0.1306 0.2521 0.0
C1338 C 0.86044 0.12067 0.21894 0.0
C1339 C 0.86834 0.0954 0.14934 0.0
C1340 C 0.86199 0.07932 0.11494 0.0
C1341 C 0.85386 0.10539 0.18284 0.0
C1342 C 0.84075 0.07384 0.1133 0.0
C1343 C 0.82614 0.08414 0.14544 0.0
H1344 H 0.85419 0.55686 0.97413 0.0
H1345 H 0.89109 0.61033 0.01892 0.0
H1346 H 0.87001 0.63243 0.9621 0.0
H1347 H 0.84227 0.63673 0.89707 0.0
H1348 H 0.80314 0.58481 0.85497 0.0
H1349 H 0.82397 0.56195 0.91281 0.0
C1350 C 0.85738 0.5734 0.97211 0.0
C1351 C 0.87438 0.5818 0.00074 0.0
C1352 C 0.84505 0.58626 0.93904 0.0
C1353 C 0.87825 0.60331 0.99739 0.0
C1354 C 0.86625 0.61602 0.96458 0.0
C1355 C 0.8384 0.62035 0.90003 0.0
C1356 C 0.82153 0.61234 0.87073 0.0
C1357 C 0.84991 0.60762 0.93453 0.0
C1358 C 0.81627 0.59125 0.87649 0.0
C1359 C 0.82813 0.57824 0.90976 0.0
H1360 H 0.15631 0.05851 0.64683 0.0
H1361 H 0.11513 0.10952 0.60846 0.0
H1362 H 0.13522 0.13253 0.66618 0.0
H1363 H 0.16407 0.13824 0.72866 0.0
H1364 H 0.206 0.08778 0.76576 0.0
H1365 H 0.18584 0.06448 0.70826 0.0
C1366 C 0.15188 0.07473 0.65046 0.0
C1367 C 0.13421 0.08222 0.62288 0.0
C1368 C 0.16343 0.08793 0.68434 0.0
C1369 C 0.12865 0.10327 0.62881 0.0
C1370 C 0.14007 0.11646 0.66217 0.0
C1371 C 0.16868 0.12208 0.7248 0.0
C1372 C 0.18641 0.11474 0.75222 0.0
C1373 C 0.15733 0.10892 0.69059 0.0
C1374 C 0.19234 0.09383 0.74563 0.0
C1375 C 0.18088 0.08052 0.71244 0.0
H1376 H 0.66985 0.3782 0.41318 0.0
H1377 H 0.71103 0.42733 0.36241 0.0
H1378 H 0.69176 0.45229 0.4175 0.0
H1379 H 0.66311 0.46006 0.48052 0.0
H1380 H 0.62316 0.41011 0.53329 0.0
H1381 H 0.6423 0.38559 0.47782 0.0
C1382 C 0.67448 0.39443 0.41355 0.0
C1383 C 0.69167 0.40094 0.38297 0.0
C1384 C 0.66374 0.40851 0.44647 0.0
C1385 C 0.69773 0.42194 0.38509 0.0
C1386 C 0.68678 0.43619 0.41686 0.0
C1387 C 0.65876 0.44376 0.48046 0.0
C1388 C 0.64167 0.43702 0.51131 0.0
C1389 C 0.66983 0.42963 0.44804 0.0
C1390 C 0.63622 0.41582 0.51023 0.0
C1391 C 0.6471 0.40176 0.47819 0.0
H1392 H 0.39239 0.90869 0.15382 0.0
H1393 H 0.34536 0.95099 0.09604 0.0
H1394 H 0.31915 0.9341 0.15228 0.0
H1395 H 0.30972 0.90747 0.21896 0.0
H1396 H 0.35754 0.86643 0.27933 0.0
H1397 H 0.38329 0.88295 0.22197 0.0
C1398 C 0.37632 0.91399 0.1528 0.0
C1399 C 0.37076 0.93082 0.11989 0.0
C1400 C 0.36153 0.9047 0.18665 0.0
C1401 C 0.34999 0.93789 0.12039 0.0
C1402 C 0.33504 0.92833 0.1529 0.0
C1403 C 0.32583 0.90231 0.22017 0.0
C1404 C 0.3316 0.88571 0.25381 0.0
C1405 C 0.34066 0.91184 0.18664 0.0
C1406 C 0.35257 0.87919 0.25422 0.0
C1407 C 0.36734 0.88854 0.22106 0.0
H1408 H 0.81038 0.41271 0.72834 0.0
H1409 H 0.86328 0.37897 0.79092 0.0
H1410 H 0.88664 0.39848 0.73369 0.0
H1411 H 0.8922 0.42358 0.66298 0.0
H1412 H 0.84066 0.45947 0.60217 0.0
H1413 H 0.81659 0.44056 0.66111 0.0
C1414 C 0.82705 0.40994 0.73017 0.0
C1415 C 0.83498 0.39424 0.76385 0.0
C1416 C 0.8406 0.42128 0.69667 0.0
C1417 C 0.85666 0.39082 0.76537 0.0
C1418 C 0.87008 0.40191 0.73238 0.0
C1419 C 0.87565 0.42716 0.66213 0.0
C1420 C 0.86812 0.4425 0.62726 0.0
C1421 C 0.86219 0.41679 0.69711 0.0
C1422 C 0.84676 0.44746 0.62806 0.0
C1423 C 0.83305 0.43673 0.66196 0.0
H1424 H 0.35768 0.06054 0.48841 0.0
H1425 H 0.39767 0.11132 0.53593 0.0
H1426 H 0.37847 0.13488 0.47799 0.0
H1427 H 0.35125 0.14104 0.41159 0.0
H1428 H 0.30998 0.09119 0.36593 0.0
H1429 H 0.32894 0.06726 0.42469 0.0
C1430 C 0.36199 0.07683 0.48682 0.0
C1431 C 0.37918 0.08407 0.51679 0.0
C1432 C 0.35091 0.0904 0.45286 0.0
C1433 C 0.38455 0.10524 0.51364 0.0
C1434 C 0.37365 0.11875 0.48013 0.0
C1435 C 0.34652 0.12487 0.4139 0.0
C1436 C 0.32946 0.11782 0.38347 0.0
C1437 C 0.35706 0.11143 0.4489 0.0
C1438 C 0.32321 0.09696 0.3883 0.0
C1439 C 0.33398 0.08331 0.42218 0.0
H1440 H 0.66537 0.54589 0.14463 0.0
H1441 H 0.6227 0.59545 0.10393 0.0
H1442 H 0.64217 0.61947 0.15976 0.0
H1443 H 0.67055 0.6265 0.22201 0.0
H1444 H 0.71487 0.57828 0.2598 0.0
H1445 H 0.69542 0.55364 0.20389 0.0
C1446 C 0.66049 0.56201 0.14741 0.0
C1447 C 0.64248 0.56874 0.11997 0.0
C1448 C 0.67185 0.57594 0.17983 0.0
C1449 C 0.63644 0.58972 0.12433 0.0
C1450 C 0.64751 0.60352 0.15661 0.0
C1451 C 0.67585 0.61053 0.21856 0.0
C1452 C 0.6939 0.60412 0.24593 0.0
C1453 C 0.66503 0.59674 0.1851 0.0
C1454 C 0.70088 0.58353 0.23969 0.0
C1455 C 0.68981 0.56949 0.2075 0.0
H1456 H 0.20326 0.91739 0.89547 0.0
H1457 H 0.15425 0.8773 0.83752 0.0
H1458 H 0.12902 0.89509 0.89438 0.0
H1459 H 0.12083 0.9216 0.96199 0.0
H1460 H 0.16954 0.96225 0.01862 0.0
H1461 H 0.19489 0.94446 0.96175 0.0
C1462 C 0.187 0.91273 0.8946 0.0
C1463 C 0.18072 0.89604 0.86179 0.0
C1464 C 0.17255 0.92288 0.92808 0.0
C1465 C 0.15959 0.89012 0.86198 0.0
C1466 C 0.14513 0.9002 0.89485 0.0
C1467 C 0.13706 0.92638 0.96251 0.0
C1468 C 0.1433 0.94307 0.99525 0.0
C1469 C 0.15147 0.91642 0.9286 0.0
C1470 C 0.16432 0.94934 0.99431 0.0
C1471 C 0.17881 0.93925 0.96148 0.0
loop_
_geom_bond_atom_site_label_1
_geom_bond_atom_site_label_2
_geom_bond_distance
_geom_bond_site_symmetry_2
_ccdc_geom_bond_type
C0 O2 1.247 . S
C0 O4 1.258 . S
C1 O8 1.247 . S
C1 O9 1.258 . S
O2 C0 1.247 . S
O2 Zn3 2.028 . S
Zn3 O2 2.028 . S
Zn3 O7 2.035 . S
Zn3 O9 2.035 . S
Zn3 O10 2.028 . S
O4 C0 1.258 . S
O4 Zn5 2.035 . S
Zn5 O4 2.035 . S
Zn5 O6 2.028 . S
Zn5 O8 2.028 . S
Zn5 O11 2.035 . S
O6 Zn5 2.028 . S
O6 C12 1.247 1_554 S
O7 Zn3 2.035 . S
O7 C12 1.258 1_554 S
O8 C1 1.247 . S
O8 Zn5 2.028 . S
O9 C1 1.258 . S
O9 Zn3 2.035 . S
O10 Zn3 2.028 . S
O10 C13 1.247 . S
O11 Zn5 2.035 . S
O11 C13 1.258 . S
C12 O6 1.247 1_556 S
C12 O7 1.258 1_556 S
C13 O10 1.247 . S
C13 O11 1.258 . S
C14 O16 1.247 . S
C14 O18 1.258 . S
C15 O22 1.247 . S
C15 O23 1.258 . S
O16 C14 1.247 . S
O16 Zn17 2.028 . S
Zn17 O16 2.028 . S
Zn17 O21 2.035 . S
Zn17 O23 2.035 . S
Zn17 O24 2.028 . S
O18 C14 1.258 . S
O18 Zn19 2.035 . S
Zn19 O18 2.035 . S
Zn19 O20 2.028 . S
Zn19 O22 2.028 . S
Zn19 O25 2.035 . S
O20 Zn19 2.028 . S
O20 C26 1.247 . S
O21 Zn17 2.035 . S
O21 C26 1.258 . S
O22 C15 1.247 . S
O22 Zn19 2.028 . S
O23 C15 1.258 . S
O23 Zn17 2.035 . S
O24 Zn17 2.028 . S
O24 C27 1.247 . S
O25 Zn19 2.035 . S
O25 C27 1.258 . S
C26 O20 1.247 . S
C26 O21 1.258 . S
C27 O24 1.247 . S
C27 O25 1.258 . S
C28 O30 1.247 . S
C28 O32 1.258 . S
C29 O36 1.247 . S
C29 O37 1.258 . S
O30 C28 1.247 . S
O30 Zn31 2.028 . S
Zn31 O30 2.028 . S
Zn31 O35 2.035 . S
Zn31 O37 2.035 . S
Zn31 O38 2.028 . S
O32 C28 1.258 . S
O32 Zn33 2.035 . S
Zn33 O32 2.035 . S
Zn33 O34 2.028 . S
Zn33 O36 2.028 . S
Zn33 O39 2.035 . S
O34 Zn33 2.028 . S
O34 C40 1.247 . S
O35 Zn31 2.035 . S
O35 C40 1.258 . S
O36 C29 1.247 . S
O36 Zn33 2.028 . S
O37 C29 1.258 . S
O37 Zn31 2.035 . S
O38 Zn31 2.028 . S
O38 C41 1.247 . S
O39 Zn33 2.035 . S
O39 C41 1.258 . S
C40 O34 1.247 . S
C40 O35 1.258 . S
C41 O38 1.247 . S
C41 O39 1.258 . S
C42 O44 1.247 . S
C42 O46 1.258 . S
C43 O50 1.247 . S
C43 O51 1.258 . S
O44 C42 1.247 . S
O44 Zn45 2.028 . S
Zn45 O44 2.028 . S
Zn45 O49 2.035 . S
Zn45 O51 2.035 . S
Zn45 O52 2.028 . S
O46 C42 1.258 . S
O46 Zn47 2.035 . S
Zn47 O46 2.035 . S
Zn47 O48 2.028 . S
Zn47 O50 2.028 . S
Zn47 O53 2.035 . S
O48 Zn47 2.028 . S
O48 C54 1.247 . S
O49 Zn45 2.035 . S
O49 C54 1.258 . S
O50 C43 1.247 . S
O50 Zn47 2.028 . S
O51 C43 1.258 . S
O51 Zn45 2.035 . S
O52 Zn45 2.028 . S
O52 C55 1.247 . S
O53 Zn47 2.035 . S
O53 C55 1.258 . S
C54 O48 1.247 . S
C54 O49 1.258 . S
C55 O52 1.247 . S
C55 O53 1.258 . S
C56 O58 1.247 . S
C56 O60 1.258 . S
C57 O64 1.247 . S
C57 O65 1.258 . S
O58 C56 1.247 . S
O58 Zn59 2.028 . S
Zn59 O58 2.028 . S
Zn59 O63 2.035 . S
Zn59 O65 2.035 . S
Zn59 O66 2.028 . S
O60 C56 1.258 . S
O60 Zn61 2.035 . S
Zn61 O60 2.035 . S
Zn61 O62 2.028 . S
Zn61 O64 2.028 . S
Zn61 O67 2.035 . S
O62 Zn61 2.028 . S
O62 C68 1.247 . S
O63 Zn59 2.035 . S
O63 C68 1.258 . S
O64 C57 1.247 . S
O64 Zn61 2.028 . S
O65 C57 1.258 . S
O65 Zn59 2.035 . S
O66 Zn59 2.028 . S
O66 C69 1.247 . S
O67 Zn61 2.035 . S
O67 C69 1.258 . S
C68 O62 1.247 . S
C68 O63 1.258 . S
C69 O66 1.247 . S
C69 O67 1.258 . S
C70 O72 1.247 . S
C70 O74 1.258 . S
C71 O78 1.247 . S
C71 O79 1.258 . S
O72 C70 1.247 . S
O72 Zn73 2.028 . S
Zn73 O72 2.028 . S
Zn73 O77 2.035 . S
Zn73 O79 2.035 . S
Zn73 O80 2.028 . S
O74 C70 1.258 . S
O74 Zn75 2.035 . S
Zn75 O74 2.035 . S
Zn75 O76 2.028 . S
Zn75 O78 2.028 . S
Zn75 O81 2.035 . S
O76 Zn75 2.028 . S
O76 C82 1.247 . S
O77 Zn73 2.035 . S
O77 C82 1.258 . S
O78 C71 1.247 . S
O78 Zn75 2.028 . S
O79 C71 1.258 . S
O79 Zn73 2.035 . S
O80 Zn73 2.028 . S
O80 C83 1.247 . S
O81 Zn75 2.035 . S
O81 C83 1.258 . S
C82 O76 1.247 . S
C82 O77 1.258 . S
C83 O80 1.247 . S
C83 O81 1.258 . S
C84 O86 1.247 . S
C84 O88 1.258 . S
C85 O92 1.247 . S
C85 O93 1.258 . S
O86 C84 1.247 . S
O86 Zn87 2.028 . S
Zn87 O86 2.028 . S
Zn87 O91 2.035 . S
Zn87 O93 2.035 . S
Zn87 O94 2.028 1_554 S
O88 C84 1.258 . S
O88 Zn89 2.035 . S
Zn89 O88 2.035 . S
Zn89 O90 2.028 . S
Zn89 O92 2.028 . S
Zn89 O95 2.035 1_554 S
O90 Zn89 2.028 . S
O90 C96 1.247 . S
O91 Zn87 2.035 . S
O91 C96 1.258 . S
O92 C85 1.247 . S
O92 Zn89 2.028 . S
O93 C85 1.258 . S
O93 Zn87 2.035 . S
O94 Zn87 2.028 1_556 S
O94 C97 1.247 . S
O95 Zn89 2.035 1_556 S
O95 C97 1.258 . S
C96 O90 1.247 . S
C96 O91 1.258 . S
C97 O94 1.247 . S
C97 O95 1.258 . S
C98 O100 1.247 . S
C98 O102 1.258 . S
C99 O106 1.247 . S
C99 O107 1.258 . S
O100 C98 1.247 . S
O100 Zn101 2.028 . S
Zn101 O100 2.028 . S
Zn101 O105 2.035 . S
Zn101 O107 2.035 . S
Zn101 O108 2.028 . S
O102 C98 1.258 . S
O102 Zn103 2.035 . S
Zn103 O102 2.035 . S
Zn103 O104 2.028 . S
Zn103 O106 2.028 . S
Zn103 O109 2.035 . S
O104 Zn103 2.028 . S
O104 C110 1.247 . S
O105 Zn101 2.035 . S
O105 C110 1.258 . S
O106 C99 1.247 . S
O106 Zn103 2.028 . S
O107 C99 1.258 . S
O107 Zn101 2.035 . S
O108 Zn101 2.028 . S
O108 C111 1.247 . S
O109 Zn103 2.035 . S
O109 C111 1.258 . S
C110 O104 1.247 . S
C110 O105 1.258 . S
C111 O108 1.247 . S
C111 O109 1.258 . S
C112 O114 1.247 . S
C112 O116 1.258 . S
C113 O120 1.247 . S
C113 O121 1.258 . S
O114 C112 1.247 . S
O114 Zn115 2.028 1_556 S
Zn115 O114 2.028 1_554 S
Zn115 O119 2.035 . S
Zn115 O121 2.035 . S
Zn115 O122 2.028 . S
O116 C112 1.258 . S
O116 Zn117 2.035 1_556 S
Zn117 O116 2.035 1_554 S
Zn117 O118 2.028 . S
Zn117 O120 2.028 . S
Zn117 O123 2.035 . S
O118 Zn117 2.028 . S
O118 C124 1.247 . S
O119 Zn115 2.035 . S
O119 C124 1.258 . S
O120 C113 1.247 . S
O120 Zn117 2.028 . S
O121 C113 1.258 . S
O121 Zn115 2.035 . S
O122 Zn115 2.028 . S
O122 C125 1.247 . S
O123 Zn117 2.035 . S
O123 C125 1.258 . S
C124 O118 1.247 . S
C124 O119 1.258 . S
C125 O122 1.247 . S
C125 O123 1.258 . S
C126 O128 1.247 . S
C126 O130 1.258 . S
C127 O134 1.247 . S
C127 O135 1.258 . S
O128 C126 1.247 . S
O128 Zn129 2.028 . S
Zn129 O128 2.028 . S
Zn129 O133 2.035 . S
Zn129 O135 2.035 . S
Zn129 O136 2.028 . S
O130 C126 1.258 . S
O130 Zn131 2.035 . S
Zn131 O130 2.035 . S
Zn131 O132 2.028 . S
Zn131 O134 2.028 . S
Zn131 O137 2.035 . S
O132 Zn131 2.028 . S
O132 C138 1.247 . S
O133 Zn129 2.035 . S
O133 C138 1.258 . S
O134 C127 1.247 . S
O134 Zn131 2.028 . S
O135 C127 1.258 . S
O135 Zn129 2.035 . S
O136 Zn129 2.028 . S
O136 C139 1.247 . S
O137 Zn131 2.035 . S
O137 C139 1.258 . S
C138 O132 1.247 . S
C138 O133 1.258 . S
C139 O136 1.247 . S
C139 O137 1.258 . S
C140 O142 1.247 . S
C140 O144 1.258 . S
C141 O148 1.247 . S
C141 O149 1.258 . S
O142 C140 1.247 . S
O142 Zn143 2.028 . S
Zn143 O142 2.028 . S
Zn143 O147 2.035 . S
Zn143 O149 2.035 . S
Zn143 O150 2.028 . S
O144 C140 1.258 . S
O144 Zn145 2.035 . S
Zn145 O144 2.035 . S
Zn145 O146 2.028 . S
Zn145 O148 2.028 . S
Zn145 O151 2.035 . S
O146 Zn145 2.028 . S
O146 C152 1.247 . S
O147 Zn143 2.035 . S
O147 C152 1.258 . S
O148 C141 1.247 . S
O148 Zn145 2.028 . S
O149 C141 1.258 . S
O149 Zn143 2.035 . S
O150 Zn143 2.028 . S
O150 C153 1.247 . S
O151 Zn145 2.035 . S
O151 C153 1.258 . S
C152 O146 1.247 . S
C152 O147 1.258 . S
C153 O150 1.247 . S
C153 O151 1.258 . S
C154 O156 1.247 . S
C154 O158 1.258 . S
C155 O162 1.247 . S
C155 O163 1.258 . S
O156 C154 1.247 . S
O156 Zn157 2.028 . S
Zn157 O156 2.028 . S
Zn157 O161 2.035 . S
Zn157 O163 2.035 . S
Zn157 O164 2.028 . S
O158 C154 1.258 . S
O158 Zn159 2.035 . S
Zn159 O158 2.035 . S
Zn159 O160 2.028 . S
Zn159 O162 2.028 . S
Zn159 O165 2.035 . S
O160 Zn159 2.028 . S
O160 C166 1.247 . S
O161 Zn157 2.035 . S
O161 C166 1.258 . S
O162 C155 1.247 . S
O162 Zn159 2.028 . S
O163 C155 1.258 . S
O163 Zn157 2.035 . S
O164 Zn157 2.028 . S
O164 C167 1.247 . S
O165 Zn159 2.035 . S
O165 C167 1.258 . S
C166 O160 1.247 . S
C166 O161 1.258 . S
C167 O164 1.247 . S
C167 O165 1.258 . S
C168 O170 1.247 . S
C168 O172 1.258 . S
C169 O176 1.247 . S
C169 O177 1.258 . S
O170 C168 1.247 . S
O170 Zn171 2.028 . S
Zn171 O170 2.028 . S
Zn171 O175 2.035 . S
Zn171 O177 2.035 . S
Zn171 O178 2.028 . S
O172 C168 1.258 . S
O172 Zn173 2.035 . S
Zn173 O172 2.035 . S
Zn173 O174 2.028 . S
Zn173 O176 2.028 . S
Zn173 O179 2.035 . S
O174 Zn173 2.028 . S
O174 C180 1.247 . S
O175 Zn171 2.035 . S
O175 C180 1.258 . S
O176 C169 1.247 . S
O176 Zn173 2.028 . S
O177 C169 1.258 . S
O177 Zn171 2.035 . S
O178 Zn171 2.028 . S
O178 C181 1.247 . S
O179 Zn173 2.035 . S
O179 C181 1.258 . S
C180 O174 1.247 . S
C180 O175 1.258 . S
C181 O178 1.247 . S
C181 O179 1.258 . S
C182 O184 1.247 . S
C182 O186 1.258 . S
C183 O190 1.247 . S
C183 O191 1.258 . S
O184 C182 1.247 . S
O184 Zn185 2.028 . S
Zn185 O184 2.028 . S
Zn185 O189 2.035 . S
Zn185 O191 2.035 . S
Zn185 O192 2.028 . S
O186 C182 1.258 . S
O186 Zn187 2.035 . S
Zn187 O186 2.035 . S
Zn187 O188 2.028 . S
Zn187 O190 2.028 . S
Zn187 O193 2.035 . S
O188 Zn187 2.028 . S
O188 C194 1.247 . S
O189 Zn185 2.035 . S
O189 C194 1.258 . S
O190 C183 1.247 . S
O190 Zn187 2.028 . S
O191 C183 1.258 . S
O191 Zn185 2.035 . S
O192 Zn185 2.028 . S
O192 C195 1.247 . S
O193 Zn187 2.035 . S
O193 C195 1.258 . S
C194 O188 1.247 . S
C194 O189 1.258 . S
C195 O192 1.247 . S
C195 O193 1.258 . S
C196 O198 1.247 1_556 S
C196 O200 1.258 1_556 S
C197 O204 1.247 . S
C197 O205 1.258 . S
O198 C196 1.247 1_554 S
O198 Zn199 2.028 . S
Zn199 O198 2.028 . S
Zn199 O203 2.035 . S
Zn199 O205 2.035 . S
Zn199 O206 2.028 . S
O200 C196 1.258 1_554 S
O200 Zn201 2.035 . S
Zn201 O200 2.035 . S
Zn201 O202 2.028 . S
Zn201 O204 2.028 . S
Zn201 O207 2.035 . S
O202 Zn201 2.028 . S
O202 C208 1.247 . S
O203 Zn199 2.035 . S
O203 C208 1.258 . S
O204 C197 1.247 . S
O204 Zn201 2.028 . S
O205 C197 1.258 . S
O205 Zn199 2.035 . S
O206 Zn199 2.028 . S
O206 C209 1.247 . S
O207 Zn201 2.035 . S
O207 C209 1.258 . S
C208 O202 1.247 . S
C208 O203 1.258 . S
C209 O206 1.247 . S
C209 O207 1.258 . S
C210 O212 1.247 . S
C210 O214 1.258 . S
C211 O218 1.247 . S
C211 O219 1.258 . S
O212 C210 1.247 . S
O212 Zn213 2.028 . S
Zn213 O212 2.028 . S
Zn213 O217 2.035 . S
Zn213 O219 2.035 . S
Zn213 O220 2.028 . S
O214 C210 1.258 . S
O214 Zn215 2.035 . S
Zn215 O214 2.035 . S
Zn215 O216 2.028 . S
Zn215 O218 2.028 . S
Zn215 O221 2.035 . S
O216 Zn215 2.028 . S
O216 C222 1.247 . S
O217 Zn213 2.035 . S
O217 C222 1.258 . S
O218 C211 1.247 . S
O218 Zn215 2.028 . S
O219 C211 1.258 . S
O219 Zn213 2.035 . S
O220 Zn213 2.028 . S
O220 C223 1.247 . S
O221 Zn215 2.035 . S
O221 C223 1.258 . S
C222 O216 1.247 . S
C222 O217 1.258 . S
C223 O220 1.247 . S
C223 O221 1.258 . S
C224 O226 1.247 . S
C224 O228 1.258 1_545 S
C225 O232 1.247 . S
C225 O233 1.258 . S
O226 C224 1.247 . S
O226 Zn227 2.028 . S
Zn227 O226 2.028 . S
Zn227 O231 2.035 . S
Zn227 O233 2.035 1_545 S
Zn227 O234 2.028 . S
O228 C224 1.258 1_565 S
O228 Zn229 2.035 . S
Zn229 O228 2.035 . S
Zn229 O230 2.028 . S
Zn229 O232 2.028 . S
Zn229 O235 2.035 . S
O230 Zn229 2.028 . S
O230 C236 1.247 . S
O231 Zn227 2.035 . S
O231 C236 1.258 1_545 S
O232 C225 1.247 . S
O232 Zn229 2.028 . S
O233 C225 1.258 . S
O233 Zn227 2.035 1_565 S
O234 Zn227 2.028 . S
O234 C237 1.247 1_545 S
O235 Zn229 2.035 . S
O235 C237 1.258 . S
C236 O230 1.247 . S
C236 O231 1.258 1_565 S
C237 O234 1.247 1_565 S
C237 O235 1.258 . S
C238 O240 1.247 . S
C238 O242 1.258 . S
C239 O246 1.247 . S
C239 O247 1.258 . S
O240 C238 1.247 . S
O240 Zn241 2.028 . S
Zn241 O240 2.028 . S
Zn241 O245 2.035 . S
Zn241 O247 2.035 . S
Zn241 O248 2.028 . S
O242 C238 1.258 . S
O242 Zn243 2.035 . S
Zn243 O242 2.035 . S
Zn243 O244 2.028 . S
Zn243 O246 2.028 . S
Zn243 O249 2.035 . S
O244 Zn243 2.028 . S
O244 C250 1.247 . S
O245 Zn241 2.035 . S
O245 C250 1.258 . S
O246 C239 1.247 . S
O246 Zn243 2.028 . S
O247 C239 1.258 . S
O247 Zn241 2.035 . S
O248 Zn241 2.028 . S
O248 C251 1.247 . S
O249 Zn243 2.035 . S
O249 C251 1.258 . S
C250 O244 1.247 . S
C250 O245 1.258 . S
C251 O248 1.247 . S
C251 O249 1.258 . S
C252 O254 1.247 1_556 S
C252 O256 1.258 1_546 S
C253 O260 1.247 1_545 S
C253 O261 1.258 . S
O254 C252 1.247 1_554 S
O254 Zn255 2.028 . S
Zn255 O254 2.028 . S
Zn255 O259 2.035 . S
Zn255 O261 2.035 . S
Zn255 O262 2.028 . S
O256 C252 1.258 1_564 S
O256 Zn257 2.035 . S
Zn257 O256 2.035 . S
Zn257 O258 2.028 1_565 S
Zn257 O260 2.028 . S
Zn257 O263 2.035 . S
O258 Zn257 2.028 1_545 S
O258 C264 1.247 . S
O259 Zn255 2.035 . S
O259 C264 1.258 . S
O260 C253 1.247 1_565 S
O260 Zn257 2.028 . S
O261 C253 1.258 . S
O261 Zn255 2.035 . S
O262 Zn255 2.028 . S
O262 C265 1.247 1_545 S
O263 Zn257 2.035 . S
O263 C265 1.258 . S
C264 O258 1.247 . S
C264 O259 1.258 . S
C265 O262 1.247 1_565 S
C265 O263 1.258 . S
C266 O268 1.247 . S
C266 O270 1.258 . S
C267 O274 1.247 . S
C267 O275 1.258 . S
O268 C266 1.247 . S
O268 Zn269 2.028 . S
Zn269 O268 2.028 . S
Zn269 O273 2.035 . S
Zn269 O275 2.035 . S
Zn269 O276 2.028 . S
O270 C266 1.258 . S
O270 Zn271 2.035 . S
Zn271 O270 2.035 . S
Zn271 O272 2.028 . S
Zn271 O274 2.028 . S
Zn271 O277 2.035 . S
O272 Zn271 2.028 . S
O272 C278 1.247 . S
O273 Zn269 2.035 . S
O273 C278 1.258 . S
O274 C267 1.247 . S
O274 Zn271 2.028 . S
O275 C267 1.258 . S
O275 Zn269 2.035 . S
O276 Zn269 2.028 . S
O276 C279 1.247 . S
O277 Zn271 2.035 . S
O277 C279 1.258 . S
C278 O272 1.247 . S
C278 O273 1.258 . S
C279 O276 1.247 . S
C279 O277 1.258 . S
C280 O282 1.247 . S
C280 O284 1.258 1_565 S
C281 O288 1.247 . S
C281 O289 1.258 . S
O282 C280 1.247 . S
O282 Zn283 2.028 . S
Zn283 O282 2.028 . S
Zn283 O287 2.035 1_554 S
Zn283 O289 2.035 1_565 S
Zn283 O290 2.028 . S
O284 C280 1.258 1_545 S
O284 Zn285 2.035 . S
Zn285 O284 2.035 . S
Zn285 O286 2.028 1_554 S
Zn285 O288 2.028 . S
Zn285 O291 2.035 . S
O286 Zn285 2.028 1_556 S
O286 C292 1.247 . S
O287 Zn283 2.035 1_556 S
O287 C292 1.258 1_565 S
O288 C281 1.247 . S
O288 Zn285 2.028 . S
O289 C281 1.258 . S
O289 Zn283 2.035 1_545 S
O290 Zn283 2.028 . S
O290 C293 1.247 1_565 S
O291 Zn285 2.035 . S
O291 C293 1.258 . S
C292 O286 1.247 . S
C292 O287 1.258 1_545 S
C293 O290 1.247 1_545 S
C293 O291 1.258 . S
C294 O296 1.247 . S
C294 O298 1.258 . S
C295 O302 1.247 . S
C295 O303 1.258 . S
O296 C294 1.247 . S
O296 Zn297 2.028 . S
Zn297 O296 2.028 . S
Zn297 O301 2.035 . S
Zn297 O303 2.035 . S
Zn297 O304 2.028 . S
O298 C294 1.258 . S
O298 Zn299 2.035 . S
Zn299 O298 2.035 . S
Zn299 O300 2.028 . S
Zn299 O302 2.028 . S
Zn299 O305 2.035 . S
O300 Zn299 2.028 . S
O300 C306 1.247 . S
O301 Zn297 2.035 . S
O301 C306 1.258 . S
O302 C295 1.247 . S
O302 Zn299 2.028 . S
O303 C295 1.258 . S
O303 Zn297 2.035 . S
O304 Zn297 2.028 . S
O304 C307 1.247 . S
O305 Zn299 2.035 . S
O305 C307 1.258 . S
C306 O300 1.247 . S
C306 O301 1.258 . S
C307 O304 1.247 . S
C307 O305 1.258 . S
C308 O310 1.247 . S
C308 O312 1.258 1_565 S
C309 O316 1.247 1_565 S
C309 O317 1.258 . S
O310 C308 1.247 . S
O310 Zn311 2.028 . S
Zn311 O310 2.028 . S
Zn311 O315 2.035 . S
Zn311 O317 2.035 . S
Zn311 O318 2.028 . S
O312 C308 1.258 1_545 S
O312 Zn313 2.035 . S
Zn313 O312 2.035 . S
Zn313 O314 2.028 1_545 S
Zn313 O316 2.028 . S
Zn313 O319 2.035 . S
O314 Zn313 2.028 1_565 S
O314 C320 1.247 . S
O315 Zn311 2.035 . S
O315 C320 1.258 . S
O316 C309 1.247 1_545 S
O316 Zn313 2.028 . S
O317 C309 1.258 . S
O317 Zn311 2.035 . S
O318 Zn311 2.028 . S
O318 C321 1.247 1_565 S
O319 Zn313 2.035 . S
O319 C321 1.258 . S
C320 O314 1.247 . S
C320 O315 1.258 . S
C321 O318 1.247 1_545 S
C321 O319 1.258 . S
C322 O324 1.247 . S
C322 O326 1.258 . S
C323 O330 1.247 . S
C323 O331 1.258 . S
O324 C322 1.247 . S
O324 Zn325 2.028 . S
Zn325 O324 2.028 . S
Zn325 O329 2.035 . S
Zn325 O331 2.035 . S
Zn325 O332 2.028 . S
O326 C322 1.258 . S
O326 Zn327 2.035 . S
Zn327 O326 2.035 . S
Zn327 O328 2.028 . S
Zn327 O330 2.028 . S
Zn327 O333 2.035 . S
O328 Zn327 2.028 . S
O328 C334 1.247 . S
O329 Zn325 2.035 . S
O329 C334 1.258 . S
O330 C323 1.247 . S
O330 Zn327 2.028 . S
O331 C323 1.258 . S
O331 Zn325 2.035 . S
O332 Zn325 2.028 . S
O332 C335 1.247 . S
O333 Zn327 2.035 . S
O333 C335 1.258 . S
C334 O328 1.247 . S
C334 O329 1.258 . S
C335 O332 1.247 . S
C335 O333 1.258 . S
C336 O338 1.247 . S
C336 O340 1.258 . S
C337 O344 1.247 . S
C337 O345 1.258 1_565 S
O338 C336 1.247 . S
O338 Zn339 2.028 . S
Zn339 O338 2.028 . S
Zn339 O343 2.035 . S
Zn339 O345 2.035 . S
Zn339 O346 2.028 . S
O340 C336 1.258 . S
O340 Zn341 2.035 1_545 S
Zn341 O340 2.035 1_565 S
Zn341 O342 2.028 . S
Zn341 O344 2.028 . S
Zn341 O347 2.035 . S
O342 Zn341 2.028 . S
O342 C348 1.247 1_565 S
O343 Zn339 2.035 . S
O343 C348 1.258 . S
O344 C337 1.247 . S
O344 Zn341 2.028 . S
O345 C337 1.258 1_545 S
O345 Zn339 2.035 . S
O346 Zn339 2.028 . S
O346 C349 1.247 . S
O347 Zn341 2.035 . S
O347 C349 1.258 1_565 S
C348 O342 1.247 1_545 S
C348 O343 1.258 . S
C349 O346 1.247 . S
C349 O347 1.258 1_545 S
C350 O352 1.247 . S
C350 O354 1.258 . S
C351 O358 1.247 . S
C351 O359 1.258 . S
O352 C350 1.247 . S
O352 Zn353 2.028 . S
Zn353 O352 2.028 . S
Zn353 O357 2.035 . S
Zn353 O359 2.035 . S
Zn353 O360 2.028 . S
O354 C350 1.258 . S
O354 Zn355 2.035 . S
Zn355 O354 2.035 . S
Zn355 O356 2.028 . S
Zn355 O358 2.028 . S
Zn355 O361 2.035 . S
O356 Zn355 2.028 . S
O356 C362 1.247 . S
O357 Zn353 2.035 . S
O357 C362 1.258 . S
O358 C351 1.247 . S
O358 Zn355 2.028 . S
O359 C351 1.258 . S
O359 Zn353 2.035 . S
O360 Zn353 2.028 . S
O360 C363 1.247 . S
O361 Zn355 2.035 . S
O361 C363 1.258 . S
C362 O356 1.247 . S
C362 O357 1.258 . S
C363 O360 1.247 . S
C363 O361 1.258 . S
C364 O366 1.247 . S
C364 O368 1.258 . S
C365 O372 1.247 . S
C365 O373 1.258 1_545 S
O366 C364 1.247 . S
O366 Zn367 2.028 . S
Zn367 O366 2.028 . S
Zn367 O371 2.035 . S
Zn367 O373 2.035 . S
Zn367 O374 2.028 1_554 S
O368 C364 1.258 . S
O368 Zn369 2.035 1_565 S
Zn369 O368 2.035 1_545 S
Zn369 O370 2.028 . S
Zn369 O372 2.028 . S
Zn369 O375 2.035 1_554 S
O370 Zn369 2.028 . S
O370 C376 1.247 1_545 S
O371 Zn367 2.035 . S
O371 C376 1.258 . S
O372 C365 1.247 . S
O372 Zn369 2.028 . S
O373 C365 1.258 1_565 S
O373 Zn367 2.035 . S
O374 Zn367 2.028 1_556 S
O374 C377 1.247 . S
O375 Zn369 2.035 1_556 S
O375 C377 1.258 1_545 S
C376 O370 1.247 1_565 S
C376 O371 1.258 . S
C377 O374 1.247 . S
C377 O375 1.258 1_565 S
C378 O380 1.247 . S
C378 O382 1.258 . S
C379 O386 1.247 . S
C379 O387 1.258 . S
O380 C378 1.247 . S
O380 Zn381 2.028 . S
Zn381 O380 2.028 . S
Zn381 O385 2.035 . S
Zn381 O387 2.035 . S
Zn381 O388 2.028 . S
O382 C378 1.258 . S
O382 Zn383 2.035 . S
Zn383 O382 2.035 . S
Zn383 O384 2.028 . S
Zn383 O386 2.028 . S
Zn383 O389 2.035 . S
O384 Zn383 2.028 . S
O384 C390 1.247 . S
O385 Zn381 2.035 . S
O385 C390 1.258 . S
O386 C379 1.247 . S
O386 Zn383 2.028 . S
O387 C379 1.258 . S
O387 Zn381 2.035 . S
O388 Zn381 2.028 . S
O388 C391 1.247 . S
O389 Zn383 2.035 . S
O389 C391 1.258 . S
C390 O384 1.247 . S
C390 O385 1.258 . S
C391 O388 1.247 . S
C391 O389 1.258 . S
C392 O394 1.247 1_565 S
C392 O396 1.258 . S
C393 O400 1.247 1_556 S
C393 O401 1.258 1_566 S
O394 C392 1.247 1_545 S
O394 Zn395 2.028 . S
Zn395 O394 2.028 . S
Zn395 O399 2.035 . S
Zn395 O401 2.035 . S
Zn395 O402 2.028 1_545 S
O396 C392 1.258 . S
O396 Zn397 2.035 . S
Zn397 O396 2.035 . S
Zn397 O398 2.028 . S
Zn397 O400 2.028 . S
Zn397 O403 2.035 . S
O398 Zn397 2.028 . S
O398 C404 1.247 1_565 S
O399 Zn395 2.035 . S
O399 C404 1.258 . S
O400 C393 1.247 1_554 S
O400 Zn397 2.028 . S
O401 C393 1.258 1_544 S
O401 Zn395 2.035 . S
O402 Zn395 2.028 1_565 S
O402 C405 1.247 . S
O403 Zn397 2.035 . S
O403 C405 1.258 . S
C404 O398 1.247 1_545 S
C404 O399 1.258 . S
C405 O402 1.247 . S
C405 O403 1.258 . S
C406 O408 1.247 . S
C406 O410 1.258 . S
C407 O414 1.247 . S
C407 O415 1.258 . S
O408 C406 1.247 . S
O408 Zn409 2.028 . S
Zn409 O408 2.028 . S
Zn409 O413 2.035 . S
Zn409 O415 2.035 . S
Zn409 O416 2.028 . S
O410 C406 1.258 . S
O410 Zn411 2.035 . S
Zn411 O410 2.035 . S
Zn411 O412 2.028 . S
Zn411 O414 2.028 . S
Zn411 O417 2.035 . S
O412 Zn411 2.028 . S
O412 C418 1.247 . S
O413 Zn409 2.035 . S
O413 C418 1.258 . S
O414 C407 1.247 . S
O414 Zn411 2.028 . S
O415 C407 1.258 . S
O415 Zn409 2.035 . S
O416 Zn409 2.028 . S
O416 C419 1.247 . S
O417 Zn411 2.035 . S
O417 C419 1.258 . S
C418 O412 1.247 . S
C418 O413 1.258 . S
C419 O416 1.247 . S
C419 O417 1.258 . S
C420 O422 1.247 1_545 S
C420 O424 1.258 . S
C421 O428 1.247 . S
C421 O429 1.258 1_545 S
O422 C420 1.247 1_565 S
O422 Zn423 2.028 . S
Zn423 O422 2.028 . S
Zn423 O427 2.035 . S
Zn423 O429 2.035 . S
Zn423 O430 2.028 1_565 S
O424 C420 1.258 . S
O424 Zn425 2.035 . S
Zn425 O424 2.035 . S
Zn425 O426 2.028 . S
Zn425 O428 2.028 . S
Zn425 O431 2.035 . S
O426 Zn425 2.028 . S
O426 C432 1.247 1_545 S
O427 Zn423 2.035 . S
O427 C432 1.258 . S
O428 C421 1.247 . S
O428 Zn425 2.028 . S
O429 C421 1.258 1_565 S
O429 Zn423 2.035 . S
O430 Zn423 2.028 1_545 S
O430 C433 1.247 . S
O431 Zn425 2.035 . S
O431 C433 1.258 . S
C432 O426 1.247 1_565 S
C432 O427 1.258 . S
C433 O430 1.247 . S
C433 O431 1.258 . S
C434 O436 1.247 . S
C434 O438 1.258 . S
C435 O442 1.247 . S
C435 O443 1.258 . S
O436 C434 1.247 . S
O436 Zn437 2.028 . S
Zn437 O436 2.028 . S
Zn437 O441 2.035 . S
Zn437 O443 2.035 . S
Zn437 O444 2.028 . S
O438 C434 1.258 . S
O438 Zn439 2.035 . S
Zn439 O438 2.035 . S
Zn439 O440 2.028 . S
Zn439 O442 2.028 . S
Zn439 O445 2.035 . S
O440 Zn439 2.028 . S
O440 C446 1.247 . S
O441 Zn437 2.035 . S
O441 C446 1.258 . S
O442 C435 1.247 . S
O442 Zn439 2.028 . S
O443 C435 1.258 . S
O443 Zn437 2.035 . S
O444 Zn437 2.028 . S
O444 C447 1.247 . S
O445 Zn439 2.035 . S
O445 C447 1.258 . S
C446 O440 1.247 . S
C446 O441 1.258 . S
C447 O444 1.247 . S
C447 O445 1.258 . S
H448 C454 0.930 . S
H449 C457 0.930 . S
H450 C458 0.930 . S
H451 C459 0.930 . S
H452 C462 0.930 . S
H453 C463 0.930 . S
C454 H448 0.930 . S
C454 C455 1.355 . S
C454 C456 1.415 . S
C455 C454 1.355 . S
C455 C457 1.419 . S
C456 C454 1.415 . S
C456 C461 1.425 1_655 S
C456 C463 1.409 1_655 S
C457 H449 0.930 . S
C457 C455 1.419 . S
C457 C458 1.362 . S
C458 H450 0.930 . S
C458 C457 1.362 . S
C458 C461 1.409 1_655 S
C459 H451 0.930 . S
C459 C460 1.355 . S
C459 C461 1.415 . S
C460 C459 1.355 . S
C460 C462 1.419 . S
C461 C456 1.425 1_455 S
C461 C458 1.409 1_455 S
C461 C459 1.415 . S
C462 H452 0.930 . S
C462 C460 1.419 . S
C462 C463 1.362 . S
C463 H453 0.930 . S
C463 C456 1.409 1_455 S
C463 C462 1.362 . S
H464 C470 0.930 . S
H465 C473 0.930 . S
H466 C474 0.930 . S
H467 C475 0.930 . S
H468 C478 0.930 . S
H469 C479 0.930 . S
C470 H464 0.930 . S
C470 C471 1.355 . S
C470 C472 1.415 . S
C471 C470 1.355 . S
C471 C473 1.419 . S
C472 C470 1.415 . S
C472 C477 1.425 . S
C472 C479 1.409 . S
C473 H465 0.930 . S
C473 C471 1.419 . S
C473 C474 1.362 . S
C474 H466 0.930 . S
C474 C473 1.362 . S
C474 C477 1.409 . S
C475 H467 0.930 . S
C475 C476 1.355 . S
C475 C477 1.415 . S
C476 C475 1.355 . S
C476 C478 1.419 . S
C477 C472 1.425 . S
C477 C474 1.409 . S
C477 C475 1.415 . S
C478 H468 0.930 . S
C478 C476 1.419 . S
C478 C479 1.362 . S
C479 H469 0.930 . S
C479 C472 1.409 . S
C479 C478 1.362 . S
H480 C486 0.930 . S
H481 C489 0.930 . S
H482 C490 0.930 . S
H483 C491 0.930 . S
H484 C494 0.930 . S
H485 C495 0.930 . S
C486 H480 0.930 . S
C486 C487 1.355 . S
C486 C488 1.415 . S
C487 C486 1.355 . S
C487 C489 1.419 . S
C488 C486 1.415 . S
C488 C493 1.425 . S
C488 C495 1.409 . S
C489 H481 0.930 . S
C489 C487 1.419 . S
C489 C490 1.362 . S
C490 H482 0.930 . S
C490 C489 1.362 . S
C490 C493 1.409 . S
C491 H483 0.930 . S
C491 C492 1.355 . S
C491 C493 1.415 . S
C492 C491 1.355 . S
C492 C494 1.419 . S
C493 C488 1.425 . S
C493 C490 1.409 . S
C493 C491 1.415 . S
C494 H484 0.930 . S
C494 C492 1.419 . S
C494 C495 1.362 . S
C495 H485 0.930 . S
C495 C488 1.409 . S
C495 C494 1.362 . S
H496 C502 0.930 . S
H497 C505 0.930 . S
H498 C506 0.930 . S
H499 C507 0.930 . S
H500 C510 0.930 . S
H501 C511 0.930 . S
C502 H496 0.930 . S
C502 C503 1.355 . S
C502 C504 1.415 . S
C503 C502 1.355 . S
C503 C505 1.419 . S
C504 C502 1.415 . S
C504 C509 1.425 . S
C504 C511 1.409 . S
C505 H497 0.930 . S
C505 C503 1.419 . S
C505 C506 1.362 . S
C506 H498 0.930 . S
C506 C505 1.362 . S
C506 C509 1.409 . S
C507 H499 0.930 . S
C507 C508 1.355 . S
C507 C509 1.415 . S
C508 C507 1.355 . S
C508 C510 1.419 . S
C509 C504 1.425 . S
C509 C506 1.409 . S
C509 C507 1.415 . S
C510 H500 0.930 . S
C510 C508 1.419 . S
C510 C511 1.362 . S
C511 H501 0.930 . S
C511 C504 1.409 . S
C511 C510 1.362 . S
H512 C518 0.930 . S
H513 C521 0.930 . S
H514 C522 0.930 . S
H515 C523 0.930 . S
H516 C526 0.930 . S
H517 C527 0.930 . S
C518 H512 0.930 . S
C518 C519 1.355 . S
C518 C520 1.415 . S
C519 C518 1.355 . S
C519 C521 1.419 . S
C520 C518 1.415 . S
C520 C525 1.425 1_455 S
C520 C527 1.409 1_455 S
C521 H513 0.930 . S
C521 C519 1.419 . S
C521 C522 1.362 . S
C522 H514 0.930 . S
C522 C521 1.362 . S
C522 C525 1.409 1_455 S
C523 H515 0.930 . S
C523 C524 1.355 . S
C523 C525 1.415 . S
C524 C523 1.355 . S
C524 C526 1.419 . S
C525 C520 1.425 1_655 S
C525 C522 1.409 1_655 S
C525 C523 1.415 . S
C526 H516 0.930 . S
C526 C524 1.419 . S
C526 C527 1.362 . S
C527 H517 0.930 . S
C527 C520 1.409 1_655 S
C527 C526 1.362 . S
H528 C534 0.930 . S
H529 C537 0.930 . S
H530 C538 0.930 . S
H531 C539 0.930 . S
H532 C542 0.930 . S
H533 C543 0.930 . S
C534 H528 0.930 . S
C534 C535 1.355 . S
C534 C536 1.415 . S
C535 C534 1.355 . S
C535 C537 1.419 . S
C536 C534 1.415 . S
C536 C541 1.425 . S
C536 C543 1.409 . S
C537 H529 0.930 . S
C537 C535 1.419 . S
C537 C538 1.362 . S
C538 H530 0.930 . S
C538 C537 1.362 . S
C538 C541 1.409 . S
C539 H531 0.930 . S
C539 C540 1.355 . S
C539 C541 1.415 . S
C540 C539 1.355 . S
C540 C542 1.419 . S
C541 C536 1.425 . S
C541 C538 1.409 . S
C541 C539 1.415 . S
C542 H532 0.930 . S
C542 C540 1.419 . S
C542 C543 1.362 . S
C543 H533 0.930 . S
C543 C536 1.409 . S
C543 C542 1.362 . S
H544 C550 0.930 . S
H545 C553 0.930 . S
H546 C554 0.930 . S
H547 C555 0.930 . S
H548 C558 0.930 . S
H549 C559 0.930 . S
C550 H544 0.930 . S
C550 C551 1.355 . S
C550 C552 1.415 . S
C551 C550 1.355 . S
C551 C553 1.419 . S
C552 C550 1.415 . S
C552 C557 1.425 . S
C552 C559 1.409 . S
C553 H545 0.930 . S
C553 C551 1.419 . S
C553 C554 1.362 . S
C554 H546 0.930 . S
C554 C553 1.362 . S
C554 C557 1.409 . S
C555 H547 0.930 . S
C555 C556 1.355 . S
C555 C557 1.415 . S
C556 C555 1.355 . S
C556 C558 1.419 . S
C557 C552 1.425 . S
C557 C554 1.409 . S
C557 C555 1.415 . S
C558 H548 0.930 . S
C558 C556 1.419 . S
C558 C559 1.362 . S
C559 H549 0.930 . S
C559 C552 1.409 . S
C559 C558 1.362 . S
H560 C566 0.930 . S
H561 C569 0.930 . S
H562 C570 0.930 . S
H563 C571 0.930 . S
H564 C574 0.930 . S
H565 C575 0.930 . S
C566 H560 0.930 . S
C566 C567 1.355 . S
C566 C568 1.415 . S
C567 C566 1.355 . S
C567 C569 1.419 . S
C568 C566 1.415 . S
C568 C573 1.425 . S
C568 C575 1.409 . S
C569 H561 0.930 . S
C569 C567 1.419 . S
C569 C570 1.362 . S
C570 H562 0.930 . S
C570 C569 1.362 . S
C570 C573 1.409 . S
C571 H563 0.930 . S
C571 C572 1.355 . S
C571 C573 1.415 . S
C572 C571 1.355 . S
C572 C574 1.419 . S
C573 C568 1.425 . S
C573 C570 1.409 . S
C573 C571 1.415 . S
C574 H564 0.930 . S
C574 C572 1.419 . S
C574 C575 1.362 . S
C575 H565 0.930 . S
C575 C568 1.409 . S
C575 C574 1.362 . S
H576 C582 0.930 . S
H577 C585 0.930 . S
H578 C586 0.930 . S
H579 C587 0.930 . S
H580 C590 0.930 . S
H581 C591 0.930 . S
C582 H576 0.930 . S
C582 C583 1.355 . S
C582 C584 1.415 . S
C583 C582 1.355 . S
C583 C585 1.419 . S
C584 C582 1.415 . S
C584 C589 1.425 . S
C584 C591 1.409 . S
C585 H577 0.930 . S
C585 C583 1.419 . S
C585 C586 1.362 . S
C586 H578 0.930 . S
C586 C585 1.362 . S
C586 C589 1.409 . S
C587 H579 0.930 . S
C587 C588 1.355 . S
C587 C589 1.415 . S
C588 C587 1.355 . S
C588 C590 1.419 . S
C589 C584 1.425 . S
C589 C586 1.409 . S
C589 C587 1.415 . S
C590 H580 0.930 . S
C590 C588 1.419 . S
C590 C591 1.362 . S
C591 H581 0.930 . S
C591 C584 1.409 . S
C591 C590 1.362 . S
H592 C598 0.930 . S
H593 C601 0.930 . S
H594 C602 0.930 . S
H595 C603 0.930 . S
H596 C606 0.930 . S
H597 C607 0.930 . S
C598 H592 0.930 . S
C598 C599 1.355 . S
C598 C600 1.415 . S
C599 C598 1.355 . S
C599 C601 1.419 . S
C600 C598 1.415 . S
C600 C605 1.425 . S
C600 C607 1.409 . S
C601 H593 0.930 . S
C601 C599 1.419 . S
C601 C602 1.362 . S
C602 H594 0.930 . S
C602 C601 1.362 . S
C602 C605 1.409 . S
C603 H595 0.930 . S
C603 C604 1.355 . S
C603 C605 1.415 . S
C604 C603 1.355 . S
C604 C606 1.419 . S
C605 C600 1.425 . S
C605 C602 1.409 . S
C605 C603 1.415 . S
C606 H596 0.930 . S
C606 C604 1.419 . S
C606 C607 1.362 . S
C607 H597 0.930 . S
C607 C600 1.409 . S
C607 C606 1.362 . S
H608 C614 0.930 . S
H609 C617 0.930 . S
H610 C618 0.930 . S
H611 C619 0.930 . S
H612 C622 0.930 . S
H613 C623 0.930 . S
C614 H608 0.930 . S
C614 C615 1.355 . S
C614 C616 1.415 . S
C615 C614 1.355 . S
C615 C617 1.419 . S
C616 C614 1.415 . S
C616 C621 1.425 . S
C616 C623 1.409 . S
C617 H609 0.930 . S
C617 C615 1.419 . S
C617 C618 1.362 . S
C618 H610 0.930 . S
C618 C617 1.362 . S
C618 C621 1.409 . S
C619 H611 0.930 . S
C619 C620 1.355 . S
C619 C621 1.415 . S
C620 C619 1.355 . S
C620 C622 1.419 . S
C621 C616 1.425 . S
C621 C618 1.409 . S
C621 C619 1.415 . S
C622 H612 0.930 . S
C622 C620 1.419 . S
C622 C623 1.362 . S
C623 H613 0.930 . S
C623 C616 1.409 . S
C623 C622 1.362 . S
H624 C630 0.930 . S
H625 C633 0.930 . S
H626 C634 0.930 . S
H627 C635 0.930 . S
H628 C638 0.930 . S
H629 C639 0.930 . S
C630 H624 0.930 . S
C630 C631 1.355 . S
C630 C632 1.415 . S
C631 C630 1.355 . S
C631 C633 1.419 . S
C632 C630 1.415 . S
C632 C637 1.425 . S
C632 C639 1.409 . S
C633 H625 0.930 . S
C633 C631 1.419 . S
C633 C634 1.362 . S
C634 H626 0.930 . S
C634 C633 1.362 . S
C634 C637 1.409 . S
C635 H627 0.930 . S
C635 C636 1.355 . S
C635 C637 1.415 . S
C636 C635 1.355 . S
C636 C638 1.419 . S
C637 C632 1.425 . S
C637 C634 1.409 . S
C637 C635 1.415 . S
C638 H628 0.930 . S
C638 C636 1.419 . S
C638 C639 1.362 . S
C639 H629 0.930 . S
C639 C632 1.409 . S
C639 C638 1.362 . S
H640 C646 0.930 . S
H641 C649 0.930 . S
H642 C650 0.930 . S
H643 C651 0.930 . S
H644 C654 0.930 . S
H645 C655 0.930 . S
C646 H640 0.930 . S
C646 C647 1.355 1_545 S
C646 C648 1.415 . S
C647 C646 1.355 1_565 S
C647 C649 1.419 . S
C648 C646 1.415 . S
C648 C653 1.425 1_545 S
C648 C655 1.409 . S
C649 H641 0.930 . S
C649 C647 1.419 . S
C649 C650 1.362 . S
C650 H642 0.930 . S
C650 C649 1.362 . S
C650 C653 1.409 . S
C651 H643 0.930 . S
C651 C652 1.355 1_565 S
C651 C653 1.415 . S
C652 C651 1.355 1_545 S
C652 C654 1.419 . S
C653 C648 1.425 1_565 S
C653 C650 1.409 . S
C653 C651 1.415 . S
C654 H644 0.930 . S
C654 C652 1.419 . S
C654 C655 1.362 . S
C655 H645 0.930 . S
C655 C648 1.409 . S
C655 C654 1.362 . S
H656 C662 0.930 . S
H657 C665 0.930 . S
H658 C666 0.930 1_455 S
H659 C667 0.930 . S
H660 C670 0.930 . S
H661 C671 0.930 1_655 S
C662 H656 0.930 . S
C662 C663 1.355 1_545 S
C662 C664 1.415 . S
C663 C662 1.355 1_565 S
C663 C665 1.419 . S
C664 C662 1.415 . S
C664 C669 1.425 1_645 S
C664 C671 1.409 1_655 S
C665 H657 0.930 . S
C665 C663 1.419 . S
C665 C666 1.362 . S
C666 H658 0.930 1_655 S
C666 C665 1.362 . S
C666 C669 1.409 1_655 S
C667 H659 0.930 . S
C667 C668 1.355 1_565 S
C667 C669 1.415 . S
C668 C667 1.355 1_545 S
C668 C670 1.419 . S
C669 C664 1.425 1_465 S
C669 C666 1.409 1_455 S
C669 C667 1.415 . S
C670 H660 0.930 . S
C670 C668 1.419 . S
C670 C671 1.362 . S
C671 H661 0.930 1_455 S
C671 C664 1.409 1_455 S
C671 C670 1.362 . S
H672 C678 0.930 . S
H673 C681 0.930 . S
H674 C682 0.930 . S
H675 C683 0.930 . S
H676 C686 0.930 . S
H677 C687 0.930 . S
C678 H672 0.930 . S
C678 C679 1.355 . S
C678 C680 1.415 . S
C679 C678 1.355 . S
C679 C681 1.419 1_565 S
C680 C678 1.415 . S
C680 C685 1.425 1_565 S
C680 C687 1.409 . S
C681 H673 0.930 . S
C681 C679 1.419 1_545 S
C681 C682 1.362 . S
C682 H674 0.930 . S
C682 C681 1.362 . S
C682 C685 1.409 . S
C683 H675 0.930 . S
C683 C684 1.355 . S
C683 C685 1.415 . S
C684 C683 1.355 . S
C684 C686 1.419 1_545 S
C685 C680 1.425 1_545 S
C685 C682 1.409 . S
C685 C683 1.415 . S
C686 H676 0.930 . S
C686 C684 1.419 1_565 S
C686 C687 1.362 . S
C687 H677 0.930 . S
C687 C680 1.409 . S
C687 C686 1.362 . S
H688 C694 0.930 . S
H689 C697 0.930 . S
H690 C698 0.930 1_655 S
H691 C699 0.930 . S
H692 C702 0.930 . S
H693 C703 0.930 1_455 S
C694 H688 0.930 . S
C694 C695 1.355 1_545 S
C694 C696 1.415 . S
C695 C694 1.355 1_565 S
C695 C697 1.419 . S
C696 C694 1.415 . S
C696 C701 1.425 1_445 S
C696 C703 1.409 1_455 S
C697 H689 0.930 . S
C697 C695 1.419 . S
C697 C698 1.362 . S
C698 H690 0.930 1_455 S
C698 C697 1.362 . S
C698 C701 1.409 1_455 S
C699 H691 0.930 . S
C699 C700 1.355 1_565 S
C699 C701 1.415 . S
C700 C699 1.355 1_545 S
C700 C702 1.419 . S
C701 C696 1.425 1_665 S
C701 C698 1.409 1_655 S
C701 C699 1.415 . S
C702 H692 0.930 . S
C702 C700 1.419 . S
C702 C703 1.362 . S
C703 H693 0.930 1_655 S
C703 C696 1.409 1_655 S
C703 C702 1.362 . S
H704 C710 0.930 . S
H705 C713 0.930 . S
H706 C714 0.930 . S
H707 C715 0.930 . S
H708 C718 0.930 . S
H709 C719 0.930 . S
C710 H704 0.930 . S
C710 C711 1.355 . S
C710 C712 1.415 . S
C711 C710 1.355 . S
C711 C713 1.419 . S
C712 C710 1.415 . S
C712 C717 1.425 . S
C712 C719 1.409 . S
C713 H705 0.930 . S
C713 C711 1.419 . S
C713 C714 1.362 . S
C714 H706 0.930 . S
C714 C713 1.362 . S
C714 C717 1.409 . S
C715 H707 0.930 . S
C715 C716 1.355 . S
C715 C717 1.415 . S
C716 C715 1.355 . S
C716 C718 1.419 . S
C717 C712 1.425 . S
C717 C714 1.409 . S
C717 C715 1.415 . S
C718 H708 0.930 . S
C718 C716 1.419 . S
C718 C719 1.362 . S
C719 H709 0.930 . S
C719 C712 1.409 . S
C719 C718 1.362 . S
H720 C726 0.930 . S
H721 C729 0.930 . S
H722 C730 0.930 . S
H723 C731 0.930 . S
H724 C734 0.930 . S
H725 C735 0.930 . S
C726 H720 0.930 . S
C726 C727 1.355 1_554 S
C726 C728 1.415 . S
C727 C726 1.355 1_556 S
C727 C729 1.419 . S
C728 C726 1.415 . S
C728 C733 1.425 . S
C728 C735 1.409 . S
C729 H721 0.930 . S
C729 C727 1.419 . S
C729 C730 1.362 1_556 S
C730 H722 0.930 . S
C730 C729 1.362 1_554 S
C730 C733 1.409 . S
C731 H723 0.930 . S
C731 C732 1.355 . S
C731 C733 1.415 . S
C732 C731 1.355 . S
C732 C734 1.419 . S
C733 C728 1.425 . S
C733 C730 1.409 . S
C733 C731 1.415 . S
C734 H724 0.930 . S
C734 C732 1.419 . S
C734 C735 1.362 . S
C735 H725 0.930 . S
C735 C728 1.409 . S
C735 C734 1.362 . S
H736 C742 0.930 . S
H737 C745 0.930 . S
H738 C746 0.930 . S
H739 C747 0.930 . S
H740 C750 0.930 . S
H741 C751 0.930 . S
C742 H736 0.930 . S
C742 C743 1.355 . S
C742 C744 1.415 . S
C743 C742 1.355 . S
C743 C745 1.419 . S
C744 C742 1.415 . S
C744 C749 1.425 . S
C744 C751 1.409 . S
C745 H737 0.930 . S
C745 C743 1.419 . S
C745 C746 1.362 . S
C746 H738 0.930 . S
C746 C745 1.362 . S
C746 C749 1.409 . S
C747 H739 0.930 . S
C747 C748 1.355 . S
C747 C749 1.415 . S
C748 C747 1.355 . S
C748 C750 1.419 . S
C749 C744 1.425 . S
C749 C746 1.409 . S
C749 C747 1.415 . S
C750 H740 0.930 . S
C750 C748 1.419 . S
C750 C751 1.362 . S
C751 H741 0.930 . S
C751 C744 1.409 . S
C751 C750 1.362 . S
H752 C758 0.930 . S
H753 C761 0.930 . S
H754 C762 0.930 . S
H755 C763 0.930 . S
H756 C766 0.930 . S
H757 C767 0.930 . S
C758 H752 0.930 . S
C758 C759 1.355 . S
C758 C760 1.415 . S
C759 C758 1.355 . S
C759 C761 1.419 . S
C760 C758 1.415 . S
C760 C765 1.425 . S
C760 C767 1.409 . S
C761 H753 0.930 . S
C761 C759 1.419 . S
C761 C762 1.362 . S
C762 H754 0.930 . S
C762 C761 1.362 . S
C762 C765 1.409 . S
C763 H755 0.930 . S
C763 C764 1.355 . S
C763 C765 1.415 . S
C764 C763 1.355 . S
C764 C766 1.419 . S
C765 C760 1.425 . S
C765 C762 1.409 . S
C765 C763 1.415 . S
C766 H756 0.930 . S
C766 C764 1.419 . S
C766 C767 1.362 . S
C767 H757 0.930 . S
C767 C760 1.409 . S
C767 C766 1.362 . S
H768 C774 0.930 . S
H769 C777 0.930 . S
H770 C778 0.930 . S
H771 C779 0.930 . S
H772 C782 0.930 . S
H773 C783 0.930 . S
C774 H768 0.930 . S
C774 C775 1.355 . S
C774 C776 1.415 . S
C775 C774 1.355 . S
C775 C777 1.419 . S
C776 C774 1.415 . S
C776 C781 1.425 . S
C776 C783 1.409 . S
C777 H769 0.930 . S
C777 C775 1.419 . S
C777 C778 1.362 . S
C778 H770 0.930 . S
C778 C777 1.362 . S
C778 C781 1.409 . S
C779 H771 0.930 . S
C779 C780 1.355 . S
C779 C781 1.415 . S
C780 C779 1.355 . S
C780 C782 1.419 . S
C781 C776 1.425 . S
C781 C778 1.409 . S
C781 C779 1.415 . S
C782 H772 0.930 . S
C782 C780 1.419 . S
C782 C783 1.362 . S
C783 H773 0.930 . S
C783 C776 1.409 . S
C783 C782 1.362 . S
H784 C790 0.930 1_556 S
H785 C793 0.930 . S
H786 C794 0.930 . S
H787 C795 0.930 . S
H788 C798 0.930 . S
H789 C799 0.930 . S
C790 H784 0.930 1_554 S
C790 C791 1.355 1_554 S
C790 C792 1.415 . S
C791 C790 1.355 1_556 S
C791 C793 1.419 . S
C792 C790 1.415 . S
C792 C797 1.425 . S
C792 C799 1.409 . S
C793 H785 0.930 . S
C793 C791 1.419 . S
C793 C794 1.362 1_556 S
C794 H786 0.930 . S
C794 C793 1.362 1_554 S
C794 C797 1.409 . S
C795 H787 0.930 . S
C795 C796 1.355 . S
C795 C797 1.415 . S
C796 C795 1.355 . S
C796 C798 1.419 . S
C797 C792 1.425 . S
C797 C794 1.409 . S
C797 C795 1.415 . S
C798 H788 0.930 . S
C798 C796 1.419 . S
C798 C799 1.362 . S
C799 H789 0.930 . S
C799 C792 1.409 . S
C799 C798 1.362 . S
H800 C806 0.930 . S
H801 C809 0.930 . S
H802 C810 0.930 . S
H803 C811 0.930 . S
H804 C814 0.930 . S
H805 C815 0.930 . S
C806 H800 0.930 . S
C806 C807 1.355 . S
C806 C808 1.415 . S
C807 C806 1.355 . S
C807 C809 1.419 . S
C808 C806 1.415 . S
C808 C813 1.425 . S
C808 C815 1.409 . S
C809 H801 0.930 . S
C809 C807 1.419 . S
C809 C810 1.362 . S
C810 H802 0.930 . S
C810 C809 1.362 . S
C810 C813 1.409 . S
C811 H803 0.930 . S
C811 C812 1.355 . S
C811 C813 1.415 . S
C812 C811 1.355 . S
C812 C814 1.419 . S
C813 C808 1.425 . S
C813 C810 1.409 . S
C813 C811 1.415 . S
C814 H804 0.930 . S
C814 C812 1.419 . S
C814 C815 1.362 . S
C815 H805 0.930 . S
C815 C808 1.409 . S
C815 C814 1.362 . S
H816 C822 0.930 . S
H817 C825 0.930 . S
H818 C826 0.930 . S
H819 C827 0.930 . S
H820 C830 0.930 . S
H821 C831 0.930 . S
C822 H816 0.930 . S
C822 C823 1.355 . S
C822 C824 1.415 . S
C823 C822 1.355 . S
C823 C825 1.419 . S
C824 C822 1.415 . S
C824 C829 1.425 . S
C824 C831 1.409 . S
C825 H817 0.930 . S
C825 C823 1.419 . S
C825 C826 1.362 . S
C826 H818 0.930 . S
C826 C825 1.362 . S
C826 C829 1.409 . S
C827 H819 0.930 . S
C827 C828 1.355 . S
C827 C829 1.415 . S
C828 C827 1.355 . S
C828 C830 1.419 . S
C829 C824 1.425 . S
C829 C826 1.409 . S
C829 C827 1.415 . S
C830 H820 0.930 . S
C830 C828 1.419 . S
C830 C831 1.362 . S
C831 H821 0.930 . S
C831 C824 1.409 . S
C831 C830 1.362 . S
H832 C838 0.930 . S
H833 C841 0.930 . S
H834 C842 0.930 . S
H835 C843 0.930 . S
H836 C846 0.930 . S
H837 C847 0.930 . S
C838 H832 0.930 . S
C838 C839 1.355 1_565 S
C838 C840 1.415 . S
C839 C838 1.355 1_545 S
C839 C841 1.419 . S
C840 C838 1.415 . S
C840 C845 1.425 1_565 S
C840 C847 1.409 . S
C841 H833 0.930 . S
C841 C839 1.419 . S
C841 C842 1.362 . S
C842 H834 0.930 . S
C842 C841 1.362 . S
C842 C845 1.409 . S
C843 H835 0.930 . S
C843 C844 1.355 1_545 S
C843 C845 1.415 . S
C844 C843 1.355 1_565 S
C844 C846 1.419 . S
C845 C840 1.425 1_545 S
C845 C842 1.409 . S
C845 C843 1.415 . S
C846 H836 0.930 . S
C846 C844 1.419 . S
C846 C847 1.362 . S
C847 H837 0.930 . S
C847 C840 1.409 . S
C847 C846 1.362 . S
H848 C854 0.930 . S
H849 C857 0.930 . S
H850 C858 0.930 . S
H851 C859 0.930 . S
H852 C862 0.930 . S
H853 C863 0.930 . S
C854 H848 0.930 . S
C854 C855 1.355 . S
C854 C856 1.415 . S
C855 C854 1.355 . S
C855 C857 1.419 . S
C856 C854 1.415 . S
C856 C861 1.425 . S
C856 C863 1.409 . S
C857 H849 0.930 . S
C857 C855 1.419 . S
C857 C858 1.362 . S
C858 H850 0.930 . S
C858 C857 1.362 . S
C858 C861 1.409 . S
C859 H851 0.930 . S
C859 C860 1.355 . S
C859 C861 1.415 . S
C860 C859 1.355 . S
C860 C862 1.419 . S
C861 C856 1.425 . S
C861 C858 1.409 . S
C861 C859 1.415 . S
C862 H852 0.930 . S
C862 C860 1.419 . S
C862 C863 1.362 . S
C863 H853 0.930 . S
C863 C856 1.409 . S
C863 C862 1.362 . S
H864 C870 0.930 . S
H865 C873 0.930 . S
H866 C874 0.930 . S
H867 C875 0.930 . S
H868 C878 0.930 . S
H869 C879 0.930 . S
C870 H864 0.930 . S
C870 C871 1.355 . S
C870 C872 1.415 . S
C871 C870 1.355 . S
C871 C873 1.419 . S
C872 C870 1.415 . S
C872 C877 1.425 1_545 S
C872 C879 1.409 . S
C873 H865 0.930 . S
C873 C871 1.419 . S
C873 C874 1.362 1_545 S
C874 H866 0.930 . S
C874 C873 1.362 1_565 S
C874 C877 1.409 . S
C875 H867 0.930 . S
C875 C876 1.355 . S
C875 C877 1.415 . S
C876 C875 1.355 . S
C876 C878 1.419 . S
C877 C872 1.425 1_565 S
C877 C874 1.409 . S
C877 C875 1.415 . S
C878 H868 0.930 . S
C878 C876 1.419 . S
C878 C879 1.362 1_565 S
C879 H869 0.930 . S
C879 C872 1.409 . S
C879 C878 1.362 1_545 S
H880 C886 0.930 1_556 S
H881 C889 0.930 . S
H882 C890 0.930 . S
H883 C891 0.930 . S
H884 C894 0.930 . S
H885 C895 0.930 . S
C886 H880 0.930 1_554 S
C886 C887 1.355 1_554 S
C886 C888 1.415 . S
C887 C886 1.355 1_556 S
C887 C889 1.419 . S
C888 C886 1.415 . S
C888 C893 1.425 . S
C888 C895 1.409 . S
C889 H881 0.930 . S
C889 C887 1.419 . S
C889 C890 1.362 1_556 S
C890 H882 0.930 . S
C890 C889 1.362 1_554 S
C890 C893 1.409 . S
C891 H883 0.930 . S
C891 C892 1.355 . S
C891 C893 1.415 . S
C892 C891 1.355 . S
C892 C894 1.419 . S
C893 C888 1.425 . S
C893 C890 1.409 . S
C893 C891 1.415 . S
C894 H884 0.930 . S
C894 C892 1.419 . S
C894 C895 1.362 . S
C895 H885 0.930 . S
C895 C888 1.409 . S
C895 C894 1.362 . S
H896 C902 0.930 1_545 S
H897 C905 0.930 . S
H898 C906 0.930 . S
H899 C907 0.930 1_565 S
H900 C910 0.930 . S
H901 C911 0.930 . S
C902 H896 0.930 1_565 S
C902 C903 1.355 . S
C902 C904 1.415 1_565 S
C903 C902 1.355 . S
C903 C905 1.419 . S
C904 C902 1.415 1_545 S
C904 C909 1.425 1_545 S
C904 C911 1.409 . S
C905 H897 0.930 . S
C905 C903 1.419 . S
C905 C906 1.362 . S
C906 H898 0.930 . S
C906 C905 1.362 . S
C906 C909 1.409 . S
C907 H899 0.930 1_545 S
C907 C908 1.355 . S
C907 C909 1.415 1_545 S
C908 C907 1.355 . S
C908 C910 1.419 . S
C909 C904 1.425 1_565 S
C909 C906 1.409 . S
C909 C907 1.415 1_565 S
C910 H900 0.930 . S
C910 C908 1.419 . S
C910 C911 1.362 . S
C911 H901 0.930 . S
C911 C904 1.409 . S
C911 C910 1.362 . S
H912 C918 0.930 . S
H913 C921 0.930 . S
H914 C922 0.930 . S
H915 C923 0.930 . S
H916 C926 0.930 . S
H917 C927 0.930 . S
C918 H912 0.930 . S
C918 C919 1.355 . S
C918 C920 1.415 . S
C919 C918 1.355 . S
C919 C921 1.419 . S
C920 C918 1.415 . S
C920 C925 1.425 . S
C920 C927 1.409 . S
C921 H913 0.930 . S
C921 C919 1.419 . S
C921 C922 1.362 . S
C922 H914 0.930 . S
C922 C921 1.362 . S
C922 C925 1.409 . S
C923 H915 0.930 . S
C923 C924 1.355 . S
C923 C925 1.415 . S
C924 C923 1.355 . S
C924 C926 1.419 . S
C925 C920 1.425 . S
C925 C922 1.409 . S
C925 C923 1.415 . S
C926 H916 0.930 . S
C926 C924 1.419 . S
C926 C927 1.362 . S
C927 H917 0.930 . S
C927 C920 1.409 . S
C927 C926 1.362 . S
H928 C934 0.930 . S
H929 C937 0.930 . S
H930 C938 0.930 . S
H931 C939 0.930 . S
H932 C942 0.930 . S
H933 C943 0.930 . S
C934 H928 0.930 . S
C934 C935 1.355 . S
C934 C936 1.415 . S
C935 C934 1.355 . S
C935 C937 1.419 1_545 S
C936 C934 1.415 . S
C936 C941 1.425 1_545 S
C936 C943 1.409 . S
C937 H929 0.930 . S
C937 C935 1.419 1_565 S
C937 C938 1.362 . S
C938 H930 0.930 . S
C938 C937 1.362 . S
C938 C941 1.409 . S
C939 H931 0.930 . S
C939 C940 1.355 . S
C939 C941 1.415 . S
C940 C939 1.355 . S
C940 C942 1.419 1_565 S
C941 C936 1.425 1_565 S
C941 C938 1.409 . S
C941 C939 1.415 . S
C942 H932 0.930 . S
C942 C940 1.419 1_545 S
C942 C943 1.362 . S
C943 H933 0.930 . S
C943 C936 1.409 . S
C943 C942 1.362 . S
H944 C950 0.930 . S
H945 C953 0.930 . S
H946 C954 0.930 . S
H947 C955 0.930 . S
H948 C958 0.930 . S
H949 C959 0.930 . S
C950 H944 0.930 . S
C950 C951 1.355 . S
C950 C952 1.415 . S
C951 C950 1.355 . S
C951 C953 1.419 . S
C952 C950 1.415 . S
C952 C957 1.425 . S
C952 C959 1.409 . S
C953 H945 0.930 . S
C953 C951 1.419 . S
C953 C954 1.362 . S
C954 H946 0.930 . S
C954 C953 1.362 . S
C954 C957 1.409 . S
C955 H947 0.930 . S
C955 C956 1.355 . S
C955 C957 1.415 1_556 S
C956 C955 1.355 . S
C956 C958 1.419 . S
C957 C952 1.425 . S
C957 C954 1.409 . S
C957 C955 1.415 1_554 S
C958 H948 0.930 . S
C958 C956 1.419 . S
C958 C959 1.362 1_556 S
C959 H949 0.930 . S
C959 C952 1.409 . S
C959 C958 1.362 1_554 S
H960 C966 0.930 . S
H961 C969 0.930 . S
H962 C970 0.930 . S
H963 C971 0.930 . S
H964 C974 0.930 . S
H965 C975 0.930 . S
C966 H960 0.930 . S
C966 C967 1.355 . S
C966 C968 1.415 . S
C967 C966 1.355 . S
C967 C969 1.419 . S
C968 C966 1.415 . S
C968 C973 1.425 . S
C968 C975 1.409 . S
C969 H961 0.930 . S
C969 C967 1.419 . S
C969 C970 1.362 . S
C970 H962 0.930 . S
C970 C969 1.362 . S
C970 C973 1.409 . S
C971 H963 0.930 . S
C971 C972 1.355 . S
C971 C973 1.415 . S
C972 C971 1.355 . S
C972 C974 1.419 . S
C973 C968 1.425 . S
C973 C970 1.409 . S
C973 C971 1.415 . S
C974 H964 0.930 . S
C974 C972 1.419 . S
C974 C975 1.362 . S
C975 H965 0.930 . S
C975 C968 1.409 . S
C975 C974 1.362 . S
H976 C982 0.930 . S
H977 C985 0.930 . S
H978 C986 0.930 . S
H979 C987 0.930 . S
H980 C990 0.930 . S
H981 C991 0.930 . S
C982 H976 0.930 . S
C982 C983 1.355 . S
C982 C984 1.415 . S
C983 C982 1.355 . S
C983 C985 1.419 . S
C984 C982 1.415 . S
C984 C989 1.425 . S
C984 C991 1.409 . S
C985 H977 0.930 . S
C985 C983 1.419 . S
C985 C986 1.362 . S
C986 H978 0.930 . S
C986 C985 1.362 . S
C986 C989 1.409 . S
C987 H979 0.930 . S
C987 C988 1.355 . S
C987 C989 1.415 . S
C988 C987 1.355 . S
C988 C990 1.419 . S
C989 C984 1.425 . S
C989 C986 1.409 . S
C989 C987 1.415 . S
C990 H980 0.930 . S
C990 C988 1.419 . S
C990 C991 1.362 . S
C991 H981 0.930 . S
C991 C984 1.409 . S
C991 C990 1.362 . S
H992 C998 0.930 . S
H993 C1001 0.930 . S
H994 C1002 0.930 . S
H995 C1003 0.930 . S
H996 C1006 0.930 . S
H997 C1007 0.930 . S
C998 H992 0.930 . S
C998 C999 1.355 . S
C998 C1000 1.415 . S
C999 C998 1.355 . S
C999 C1001 1.419 . S
C1000 C998 1.415 . S
C1000 C1005 1.425 . S
C1000 C1007 1.409 . S
C1001 H993 0.930 . S
C1001 C999 1.419 . S
C1001 C1002 1.362 . S
C1002 H994 0.930 . S
C1002 C1001 1.362 . S
C1002 C1005 1.409 . S
C1003 H995 0.930 . S
C1003 C1004 1.355 . S
C1003 C1005 1.415 . S
C1004 C1003 1.355 . S
C1004 C1006 1.419 . S
C1005 C1000 1.425 . S
C1005 C1002 1.409 . S
C1005 C1003 1.415 . S
C1006 H996 0.930 . S
C1006 C1004 1.419 . S
C1006 C1007 1.362 . S
C1007 H997 0.930 . S
C1007 C1000 1.409 . S
C1007 C1006 1.362 . S
H1008 C1014 0.930 . S
H1009 C1017 0.930 . S
H1010 C1018 0.930 . S
H1011 C1019 0.930 . S
H1012 C1022 0.930 . S
H1013 C1023 0.930 . S
C1014 H1008 0.930 . S
C1014 C1015 1.355 . S
C1014 C1016 1.415 . S
C1015 C1014 1.355 . S
C1015 C1017 1.419 . S
C1016 C1014 1.415 . S
C1016 C1021 1.425 . S
C1016 C1023 1.409 . S
C1017 H1009 0.930 . S
C1017 C1015 1.419 . S
C1017 C1018 1.362 . S
C1018 H1010 0.930 . S
C1018 C1017 1.362 . S
C1018 C1021 1.409 . S
C1019 H1011 0.930 . S
C1019 C1020 1.355 1_554 S
C1019 C1021 1.415 . S
C1020 C1019 1.355 1_556 S
C1020 C1022 1.419 . S
C1021 C1016 1.425 . S
C1021 C1018 1.409 . S
C1021 C1019 1.415 . S
C1022 H1012 0.930 . S
C1022 C1020 1.419 . S
C1022 C1023 1.362 1_556 S
C1023 H1013 0.930 . S
C1023 C1016 1.409 . S
C1023 C1022 1.362 1_554 S
H1024 C1030 0.930 . S
H1025 C1033 0.930 . S
H1026 C1034 0.930 . S
H1027 C1035 0.930 . S
H1028 C1038 0.930 . S
H1029 C1039 0.930 . S
C1030 H1024 0.930 . S
C1030 C1031 1.355 . S
C1030 C1032 1.415 . S
C1031 C1030 1.355 . S
C1031 C1033 1.419 . S
C1032 C1030 1.415 . S
C1032 C1037 1.425 . S
C1032 C1039 1.409 . S
C1033 H1025 0.930 . S
C1033 C1031 1.419 . S
C1033 C1034 1.362 . S
C1034 H1026 0.930 . S
C1034 C1033 1.362 . S
C1034 C1037 1.409 . S
C1035 H1027 0.930 . S
C1035 C1036 1.355 . S
C1035 C1037 1.415 . S
C1036 C1035 1.355 . S
C1036 C1038 1.419 . S
C1037 C1032 1.425 . S
C1037 C1034 1.409 . S
C1037 C1035 1.415 . S
C1038 H1028 0.930 . S
C1038 C1036 1.419 . S
C1038 C1039 1.362 . S
C1039 H1029 0.930 . S
C1039 C1032 1.409 . S
C1039 C1038 1.362 . S
H1040 C1046 0.930 . S
H1041 C1049 0.930 . S
H1042 C1050 0.930 . S
H1043 C1051 0.930 . S
H1044 C1054 0.930 . S
H1045 C1055 0.930 . S
C1046 H1040 0.930 . S
C1046 C1047 1.355 . S
C1046 C1048 1.415 . S
C1047 C1046 1.355 . S
C1047 C1049 1.419 . S
C1048 C1046 1.415 . S
C1048 C1053 1.425 . S
C1048 C1055 1.409 . S
C1049 H1041 0.930 . S
C1049 C1047 1.419 . S
C1049 C1050 1.362 . S
C1050 H1042 0.930 . S
C1050 C1049 1.362 . S
C1050 C1053 1.409 . S
C1051 H1043 0.930 . S
C1051 C1052 1.355 . S
C1051 C1053 1.415 . S
C1052 C1051 1.355 . S
C1052 C1054 1.419 . S
C1053 C1048 1.425 . S
C1053 C1050 1.409 . S
C1053 C1051 1.415 . S
C1054 H1044 0.930 . S
C1054 C1052 1.419 . S
C1054 C1055 1.362 . S
C1055 H1045 0.930 . S
C1055 C1048 1.409 . S
C1055 C1054 1.362 . S
H1056 C1062 0.930 . S
H1057 C1065 0.930 . S
H1058 C1066 0.930 . S
H1059 C1067 0.930 . S
H1060 C1070 0.930 . S
H1061 C1071 0.930 . S
C1062 H1056 0.930 . S
C1062 C1063 1.355 . S
C1062 C1064 1.415 . S
C1063 C1062 1.355 . S
C1063 C1065 1.419 . S
C1064 C1062 1.415 . S
C1064 C1069 1.425 . S
C1064 C1071 1.409 . S
C1065 H1057 0.930 . S
C1065 C1063 1.419 . S
C1065 C1066 1.362 . S
C1066 H1058 0.930 . S
C1066 C1065 1.362 . S
C1066 C1069 1.409 . S
C1067 H1059 0.930 . S
C1067 C1068 1.355 . S
C1067 C1069 1.415 . S
C1068 C1067 1.355 . S
C1068 C1070 1.419 . S
C1069 C1064 1.425 . S
C1069 C1066 1.409 . S
C1069 C1067 1.415 . S
C1070 H1060 0.930 . S
C1070 C1068 1.419 . S
C1070 C1071 1.362 . S
C1071 H1061 0.930 . S
C1071 C1064 1.409 . S
C1071 C1070 1.362 . S
H1072 C1078 0.930 1_556 S
H1073 C1081 0.930 . S
H1074 C1082 0.930 . S
H1075 C1083 0.930 . S
H1076 C1086 0.930 . S
H1077 C1087 0.930 . S
C1078 H1072 0.930 1_554 S
C1078 C1079 1.355 1_554 S
C1078 C1080 1.415 . S
C1079 C1078 1.355 1_556 S
C1079 C1081 1.419 . S
C1080 C1078 1.415 . S
C1080 C1085 1.425 . S
C1080 C1087 1.409 . S
C1081 H1073 0.930 . S
C1081 C1079 1.419 . S
C1081 C1082 1.362 1_556 S
C1082 H1074 0.930 . S
C1082 C1081 1.362 1_554 S
C1082 C1085 1.409 . S
C1083 H1075 0.930 . S
C1083 C1084 1.355 . S
C1083 C1085 1.415 . S
C1084 C1083 1.355 . S
C1084 C1086 1.419 . S
C1085 C1080 1.425 . S
C1085 C1082 1.409 . S
C1085 C1083 1.415 . S
C1086 H1076 0.930 . S
C1086 C1084 1.419 . S
C1086 C1087 1.362 . S
C1087 H1077 0.930 . S
C1087 C1080 1.409 . S
C1087 C1086 1.362 . S
H1088 C1094 0.930 . S
H1089 C1097 0.930 . S
H1090 C1098 0.930 . S
H1091 C1099 0.930 . S
H1092 C1102 0.930 . S
H1093 C1103 0.930 . S
C1094 H1088 0.930 . S
C1094 C1095 1.355 . S
C1094 C1096 1.415 . S
C1095 C1094 1.355 . S
C1095 C1097 1.419 1_565 S
C1096 C1094 1.415 . S
C1096 C1101 1.425 1_565 S
C1096 C1103 1.409 . S
C1097 H1089 0.930 . S
C1097 C1095 1.419 1_545 S
C1097 C1098 1.362 . S
C1098 H1090 0.930 . S
C1098 C1097 1.362 . S
C1098 C1101 1.409 . S
C1099 H1091 0.930 . S
C1099 C1100 1.355 . S
C1099 C1101 1.415 . S
C1100 C1099 1.355 . S
C1100 C1102 1.419 1_545 S
C1101 C1096 1.425 1_545 S
C1101 C1098 1.409 . S
C1101 C1099 1.415 . S
C1102 H1092 0.930 . S
C1102 C1100 1.419 1_565 S
C1102 C1103 1.362 . S
C1103 H1093 0.930 . S
C1103 C1096 1.409 . S
C1103 C1102 1.362 . S
H1104 C1110 0.930 . S
H1105 C1113 0.930 . S
H1106 C1114 0.930 . S
H1107 C1115 0.930 . S
H1108 C1118 0.930 . S
H1109 C1119 0.930 . S
C1110 H1104 0.930 . S
C1110 C1111 1.355 . S
C1110 C1112 1.415 . S
C1111 C1110 1.355 . S
C1111 C1113 1.419 . S
C1112 C1110 1.415 . S
C1112 C1117 1.425 . S
C1112 C1119 1.409 . S
C1113 H1105 0.930 . S
C1113 C1111 1.419 . S
C1113 C1114 1.362 . S
C1114 H1106 0.930 . S
C1114 C1113 1.362 . S
C1114 C1117 1.409 . S
C1115 H1107 0.930 . S
C1115 C1116 1.355 1_554 S
C1115 C1117 1.415 . S
C1116 C1115 1.355 1_556 S
C1116 C1118 1.419 . S
C1117 C1112 1.425 . S
C1117 C1114 1.409 . S
C1117 C1115 1.415 . S
C1118 H1108 0.930 . S
C1118 C1116 1.419 . S
C1118 C1119 1.362 1_556 S
C1119 H1109 0.930 . S
C1119 C1112 1.409 . S
C1119 C1118 1.362 1_554 S
H1120 C1126 0.930 . S
H1121 C1129 0.930 . S
H1122 C1130 0.930 . S
H1123 C1131 0.930 . S
H1124 C1134 0.930 . S
H1125 C1135 0.930 . S
C1126 H1120 0.930 . S
C1126 C1127 1.355 1_545 S
C1126 C1128 1.415 . S
C1127 C1126 1.355 1_565 S
C1127 C1129 1.419 . S
C1128 C1126 1.415 . S
C1128 C1133 1.425 1_545 S
C1128 C1135 1.409 . S
C1129 H1121 0.930 . S
C1129 C1127 1.419 . S
C1129 C1130 1.362 . S
C1130 H1122 0.930 . S
C1130 C1129 1.362 . S
C1130 C1133 1.409 . S
C1131 H1123 0.930 . S
C1131 C1132 1.355 1_565 S
C1131 C1133 1.415 . S
C1132 C1131 1.355 1_545 S
C1132 C1134 1.419 . S
C1133 C1128 1.425 1_565 S
C1133 C1130 1.409 . S
C1133 C1131 1.415 . S
C1134 H1124 0.930 . S
C1134 C1132 1.419 . S
C1134 C1135 1.362 . S
C1135 H1125 0.930 . S
C1135 C1128 1.409 . S
C1135 C1134 1.362 . S
H1136 C1142 0.930 . S
H1137 C1145 0.930 . S
H1138 C1146 0.930 . S
H1139 C1147 0.930 . S
H1140 C1150 0.930 . S
H1141 C1151 0.930 . S
C1142 H1136 0.930 . S
C1142 C1143 1.355 . S
C1142 C1144 1.415 . S
C1143 C1142 1.355 . S
C1143 C1145 1.419 . S
C1144 C1142 1.415 . S
C1144 C1149 1.425 . S
C1144 C1151 1.409 . S
C1145 H1137 0.930 . S
C1145 C1143 1.419 . S
C1145 C1146 1.362 . S
C1146 H1138 0.930 . S
C1146 C1145 1.362 . S
C1146 C1149 1.409 . S
C1147 H1139 0.930 . S
C1147 C1148 1.355 . S
C1147 C1149 1.415 . S
C1148 C1147 1.355 . S
C1148 C1150 1.419 . S
C1149 C1144 1.425 . S
C1149 C1146 1.409 . S
C1149 C1147 1.415 . S
C1150 H1140 0.930 . S
C1150 C1148 1.419 . S
C1150 C1151 1.362 . S
C1151 H1141 0.930 . S
C1151 C1144 1.409 . S
C1151 C1150 1.362 . S
H1152 C1158 0.930 . S
H1153 C1161 0.930 . S
H1154 C1162 0.930 . S
H1155 C1163 0.930 . S
H1156 C1166 0.930 . S
H1157 C1167 0.930 . S
C1158 H1152 0.930 . S
C1158 C1159 1.355 1_545 S
C1158 C1160 1.415 . S
C1159 C1158 1.355 1_565 S
C1159 C1161 1.419 . S
C1160 C1158 1.415 . S
C1160 C1165 1.425 1_545 S
C1160 C1167 1.409 . S
C1161 H1153 0.930 . S
C1161 C1159 1.419 . S
C1161 C1162 1.362 . S
C1162 H1154 0.930 . S
C1162 C1161 1.362 . S
C1162 C1165 1.409 . S
C1163 H1155 0.930 . S
C1163 C1164 1.355 1_565 S
C1163 C1165 1.415 . S
C1164 C1163 1.355 1_545 S
C1164 C1166 1.419 . S
C1165 C1160 1.425 1_565 S
C1165 C1162 1.409 . S
C1165 C1163 1.415 . S
C1166 H1156 0.930 . S
C1166 C1164 1.419 . S
C1166 C1167 1.362 . S
C1167 H1157 0.930 . S
C1167 C1160 1.409 . S
C1167 C1166 1.362 . S
H1168 C1174 0.930 . S
H1169 C1177 0.930 . S
H1170 C1178 0.930 . S
H1171 C1179 0.930 . S
H1172 C1182 0.930 . S
H1173 C1183 0.930 . S
C1174 H1168 0.930 . S
C1174 C1175 1.355 . S
C1174 C1176 1.415 . S
C1175 C1174 1.355 . S
C1175 C1177 1.419 . S
C1176 C1174 1.415 . S
C1176 C1181 1.425 . S
C1176 C1183 1.409 . S
C1177 H1169 0.930 . S
C1177 C1175 1.419 . S
C1177 C1178 1.362 . S
C1178 H1170 0.930 . S
C1178 C1177 1.362 . S
C1178 C1181 1.409 . S
C1179 H1171 0.930 . S
C1179 C1180 1.355 1_554 S
C1179 C1181 1.415 . S
C1180 C1179 1.355 1_556 S
C1180 C1182 1.419 . S
C1181 C1176 1.425 . S
C1181 C1178 1.409 . S
C1181 C1179 1.415 . S
C1182 H1172 0.930 . S
C1182 C1180 1.419 . S
C1182 C1183 1.362 1_556 S
C1183 H1173 0.930 . S
C1183 C1176 1.409 . S
C1183 C1182 1.362 1_554 S
H1184 C1190 0.930 . S
H1185 C1193 0.930 . S
H1186 C1194 0.930 . S
H1187 C1195 0.930 . S
H1188 C1198 0.930 . S
H1189 C1199 0.930 . S
C1190 H1184 0.930 . S
C1190 C1191 1.355 . S
C1190 C1192 1.415 . S
C1191 C1190 1.355 . S
C1191 C1193 1.419 . S
C1192 C1190 1.415 . S
C1192 C1197 1.425 1_565 S
C1192 C1199 1.409 . S
C1193 H1185 0.930 . S
C1193 C1191 1.419 . S
C1193 C1194 1.363 1_565 S
C1194 H1186 0.930 . S
C1194 C1193 1.363 1_545 S
C1194 C1197 1.409 . S
C1195 H1187 0.930 . S
C1195 C1196 1.355 . S
C1195 C1197 1.415 . S
C1196 C1195 1.355 . S
C1196 C1198 1.419 . S
C1197 C1192 1.425 1_545 S
C1197 C1194 1.409 . S
C1197 C1195 1.415 . S
C1198 H1188 0.930 . S
C1198 C1196 1.419 . S
C1198 C1199 1.363 1_545 S
C1199 H1189 0.930 . S
C1199 C1192 1.409 . S
C1199 C1198 1.363 1_565 S
H1200 C1206 0.930 . S
H1201 C1209 0.930 . S
H1202 C1210 0.930 . S
H1203 C1211 0.930 . S
H1204 C1214 0.930 . S
H1205 C1215 0.930 . S
C1206 H1200 0.930 . S
C1206 C1207 1.355 . S
C1206 C1208 1.415 . S
C1207 C1206 1.355 . S
C1207 C1209 1.419 . S
C1208 C1206 1.415 . S
C1208 C1213 1.425 . S
C1208 C1215 1.409 . S
C1209 H1201 0.930 . S
C1209 C1207 1.419 . S
C1209 C1210 1.362 . S
C1210 H1202 0.930 . S
C1210 C1209 1.362 . S
C1210 C1213 1.409 . S
C1211 H1203 0.930 . S
C1211 C1212 1.355 . S
C1211 C1213 1.415 . S
C1212 C1211 1.355 . S
C1212 C1214 1.419 . S
C1213 C1208 1.425 . S
C1213 C1210 1.409 . S
C1213 C1211 1.415 . S
C1214 H1204 0.930 . S
C1214 C1212 1.419 . S
C1214 C1215 1.362 . S
C1215 H1205 0.930 . S
C1215 C1208 1.409 . S
C1215 C1214 1.362 . S
H1216 C1222 0.930 . S
H1217 C1225 0.930 . S
H1218 C1226 0.930 . S
H1219 C1227 0.930 . S
H1220 C1230 0.930 . S
H1221 C1231 0.930 . S
C1222 H1216 0.930 . S
C1222 C1223 1.355 . S
C1222 C1224 1.415 . S
C1223 C1222 1.355 . S
C1223 C1225 1.419 . S
C1224 C1222 1.415 . S
C1224 C1229 1.425 . S
C1224 C1231 1.409 . S
C1225 H1217 0.930 . S
C1225 C1223 1.419 . S
C1225 C1226 1.362 . S
C1226 H1218 0.930 . S
C1226 C1225 1.362 . S
C1226 C1229 1.409 . S
C1227 H1219 0.930 . S
C1227 C1228 1.355 . S
C1227 C1229 1.415 . S
C1228 C1227 1.355 . S
C1228 C1230 1.419 . S
C1229 C1224 1.425 . S
C1229 C1226 1.409 . S
C1229 C1227 1.415 . S
C1230 H1220 0.930 . S
C1230 C1228 1.419 . S
C1230 C1231 1.362 . S
C1231 H1221 0.930 . S
C1231 C1224 1.409 . S
C1231 C1230 1.362 . S
H1232 C1238 0.930 . S
H1233 C1241 0.930 . S
H1234 C1242 0.930 . S
H1235 C1243 0.930 . S
H1236 C1246 0.930 . S
H1237 C1247 0.930 . S
C1238 H1232 0.930 . S
C1238 C1239 1.355 . S
C1238 C1240 1.415 . S
C1239 C1238 1.355 . S
C1239 C1241 1.419 . S
C1240 C1238 1.415 . S
C1240 C1245 1.425 . S
C1240 C1247 1.409 . S
C1241 H1233 0.930 . S
C1241 C1239 1.419 . S
C1241 C1242 1.362 . S
C1242 H1234 0.930 . S
C1242 C1241 1.362 . S
C1242 C1245 1.409 . S
C1243 H1235 0.930 . S
C1243 C1244 1.355 . S
C1243 C1245 1.415 . S
C1244 C1243 1.355 . S
C1244 C1246 1.419 . S
C1245 C1240 1.425 . S
C1245 C1242 1.409 . S
C1245 C1243 1.415 . S
C1246 H1236 0.930 . S
C1246 C1244 1.419 . S
C1246 C1247 1.362 . S
C1247 H1237 0.930 . S
C1247 C1240 1.409 . S
C1247 C1246 1.362 . S
H1248 C1254 0.930 . S
H1249 C1257 0.930 . S
H1250 C1258 0.930 . S
H1251 C1259 0.930 . S
H1252 C1262 0.930 . S
H1253 C1263 0.930 . S
C1254 H1248 0.930 . S
C1254 C1255 1.355 . S
C1254 C1256 1.415 . S
C1255 C1254 1.355 . S
C1255 C1257 1.419 . S
C1256 C1254 1.415 . S
C1256 C1261 1.425 . S
C1256 C1263 1.409 . S
C1257 H1249 0.930 . S
C1257 C1255 1.419 . S
C1257 C1258 1.362 . S
C1258 H1250 0.930 . S
C1258 C1257 1.362 . S
C1258 C1261 1.409 . S
C1259 H1251 0.930 . S
C1259 C1260 1.355 . S
C1259 C1261 1.415 . S
C1260 C1259 1.355 . S
C1260 C1262 1.419 . S
C1261 C1256 1.425 . S
C1261 C1258 1.409 . S
C1261 C1259 1.415 . S
C1262 H1252 0.930 . S
C1262 C1260 1.419 . S
C1262 C1263 1.362 . S
C1263 H1253 0.930 . S
C1263 C1256 1.409 . S
C1263 C1262 1.362 . S
H1264 C1270 0.930 . S
H1265 C1273 0.930 . S
H1266 C1274 0.930 . S
H1267 C1275 0.930 . S
H1268 C1278 0.930 1_554 S
H1269 C1279 0.930 . S
C1270 H1264 0.930 . S
C1270 C1271 1.355 . S
C1270 C1272 1.415 . S
C1271 C1270 1.355 . S
C1271 C1273 1.419 . S
C1272 C1270 1.415 . S
C1272 C1277 1.425 . S
C1272 C1279 1.409 . S
C1273 H1265 0.930 . S
C1273 C1271 1.419 . S
C1273 C1274 1.362 . S
C1274 H1266 0.930 . S
C1274 C1273 1.362 . S
C1274 C1277 1.409 . S
C1275 H1267 0.930 . S
C1275 C1276 1.355 . S
C1275 C1277 1.415 . S
C1276 C1275 1.355 . S
C1276 C1278 1.419 . S
C1277 C1272 1.425 . S
C1277 C1274 1.409 . S
C1277 C1275 1.415 . S
C1278 H1268 0.930 1_556 S
C1278 C1276 1.419 . S
C1278 C1279 1.362 . S
C1279 H1269 0.930 . S
C1279 C1272 1.409 . S
C1279 C1278 1.362 . S
H1280 C1286 0.930 . S
H1281 C1289 0.930 . S
H1282 C1290 0.930 . S
H1283 C1291 0.930 . S
H1284 C1294 0.930 . S
H1285 C1295 0.930 . S
C1286 H1280 0.930 . S
C1286 C1287 1.355 . S
C1286 C1288 1.415 . S
C1287 C1286 1.355 . S
C1287 C1289 1.419 . S
C1288 C1286 1.415 . S
C1288 C1293 1.425 . S
C1288 C1295 1.409 . S
C1289 H1281 0.930 . S
C1289 C1287 1.419 . S
C1289 C1290 1.362 . S
C1290 H1282 0.930 . S
C1290 C1289 1.362 . S
C1290 C1293 1.409 . S
C1291 H1283 0.930 . S
C1291 C1292 1.355 . S
C1291 C1293 1.415 . S
C1292 C1291 1.355 . S
C1292 C1294 1.419 . S
C1293 C1288 1.425 . S
C1293 C1290 1.409 . S
C1293 C1291 1.415 . S
C1294 H1284 0.930 . S
C1294 C1292 1.419 . S
C1294 C1295 1.362 . S
C1295 H1285 0.930 . S
C1295 C1288 1.409 . S
C1295 C1294 1.362 . S
H1296 C1302 0.930 . S
H1297 C1305 0.930 . S
H1298 C1306 0.930 . S
H1299 C1307 0.930 . S
H1300 C1310 0.930 . S
H1301 C1311 0.930 . S
C1302 H1296 0.930 . S
C1302 C1303 1.355 . S
C1302 C1304 1.415 . S
C1303 C1302 1.355 . S
C1303 C1305 1.419 . S
C1304 C1302 1.415 . S
C1304 C1309 1.425 . S
C1304 C1311 1.409 . S
C1305 H1297 0.930 . S
C1305 C1303 1.419 . S
C1305 C1306 1.362 . S
C1306 H1298 0.930 . S
C1306 C1305 1.362 . S
C1306 C1309 1.409 . S
C1307 H1299 0.930 . S
C1307 C1308 1.355 . S
C1307 C1309 1.415 . S
C1308 C1307 1.355 . S
C1308 C1310 1.419 . S
C1309 C1304 1.425 . S
C1309 C1306 1.409 . S
C1309 C1307 1.415 . S
C1310 H1300 0.930 . S
C1310 C1308 1.419 . S
C1310 C1311 1.362 . S
C1311 H1301 0.930 . S
C1311 C1304 1.409 . S
C1311 C1310 1.362 . S
H1312 C1318 0.930 . S
H1313 C1321 0.930 . S
H1314 C1322 0.930 1_554 S
H1315 C1323 0.930 . S
H1316 C1326 0.930 . S
H1317 C1327 0.930 . S
C1318 H1312 0.930 . S
C1318 C1319 1.355 . S
C1318 C1320 1.415 . S
C1319 C1318 1.355 . S
C1319 C1321 1.419 . S
C1320 C1318 1.415 . S
C1320 C1325 1.425 . S
C1320 C1327 1.409 . S
C1321 H1313 0.930 . S
C1321 C1319 1.419 . S
C1321 C1322 1.362 . S
C1322 H1314 0.930 1_556 S
C1322 C1321 1.362 . S
C1322 C1325 1.409 . S
C1323 H1315 0.930 . S
C1323 C1324 1.355 1_554 S
C1323 C1325 1.415 1_554 S
C1324 C1323 1.355 1_556 S
C1324 C1326 1.419 . S
C1325 C1320 1.425 . S
C1325 C1322 1.409 . S
C1325 C1323 1.415 1_556 S
C1326 H1316 0.930 . S
C1326 C1324 1.419 . S
C1326 C1327 1.362 . S
C1327 H1317 0.930 . S
C1327 C1320 1.409 . S
C1327 C1326 1.362 . S
H1328 C1334 0.930 . S
H1329 C1337 0.930 . S
H1330 C1338 0.930 . S
H1331 C1339 0.930 . S
H1332 C1342 0.930 . S
H1333 C1343 0.930 . S
C1334 H1328 0.930 . S
C1334 C1335 1.355 . S
C1334 C1336 1.415 . S
C1335 C1334 1.355 . S
C1335 C1337 1.419 . S
C1336 C1334 1.415 . S
C1336 C1341 1.425 . S
C1336 C1343 1.409 . S
C1337 H1329 0.930 . S
C1337 C1335 1.419 . S
C1337 C1338 1.362 . S
C1338 H1330 0.930 . S
C1338 C1337 1.362 . S
C1338 C1341 1.409 . S
C1339 H1331 0.930 . S
C1339 C1340 1.355 . S
C1339 C1341 1.415 . S
C1340 C1339 1.355 . S
C1340 C1342 1.419 . S
C1341 C1336 1.425 . S
C1341 C1338 1.409 . S
C1341 C1339 1.415 . S
C1342 H1332 0.930 . S
C1342 C1340 1.419 . S
C1342 C1343 1.362 . S
C1343 H1333 0.930 . S
C1343 C1336 1.409 . S
C1343 C1342 1.362 . S
H1344 C1350 0.930 . S
H1345 C1353 0.930 . S
H1346 C1354 0.930 . S
H1347 C1355 0.930 . S
H1348 C1358 0.930 . S
H1349 C1359 0.930 . S
C1350 H1344 0.930 . S
C1350 C1351 1.355 . S
C1350 C1352 1.415 . S
C1351 C1350 1.355 . S
C1351 C1353 1.419 . S
C1352 C1350 1.415 . S
C1352 C1357 1.425 . S
C1352 C1359 1.409 . S
C1353 H1345 0.930 . S
C1353 C1351 1.419 . S
C1353 C1354 1.362 . S
C1354 H1346 0.930 . S
C1354 C1353 1.362 . S
C1354 C1357 1.409 . S
C1355 H1347 0.930 . S
C1355 C1356 1.355 . S
C1355 C1357 1.415 . S
C1356 C1355 1.355 . S
C1356 C1358 1.419 . S
C1357 C1352 1.425 . S
C1357 C1354 1.409 . S
C1357 C1355 1.415 . S
C1358 H1348 0.930 . S
C1358 C1356 1.419 . S
C1358 C1359 1.362 . S
C1359 H1349 0.930 . S
C1359 C1352 1.409 . S
C1359 C1358 1.362 . S
H1360 C1366 0.930 . S
H1361 C1369 0.930 . S
H1362 C1370 0.930 . S
H1363 C1371 0.930 . S
H1364 C1374 0.930 . S
H1365 C1375 0.930 . S
C1366 H1360 0.930 . S
C1366 C1367 1.355 . S
C1366 C1368 1.415 . S
C1367 C1366 1.355 . S
C1367 C1369 1.419 . S
C1368 C1366 1.415 . S
C1368 C1373 1.425 . S
C1368 C1375 1.409 . S
C1369 H1361 0.930 . S
C1369 C1367 1.419 . S
C1369 C1370 1.362 . S
C1370 H1362 0.930 . S
C1370 C1369 1.362 . S
C1370 C1373 1.409 . S
C1371 H1363 0.930 . S
C1371 C1372 1.355 . S
C1371 C1373 1.415 . S
C1372 C1371 1.355 . S
C1372 C1374 1.419 . S
C1373 C1368 1.425 . S
C1373 C1370 1.409 . S
C1373 C1371 1.415 . S
C1374 H1364 0.930 . S
C1374 C1372 1.419 . S
C1374 C1375 1.362 . S
C1375 H1365 0.930 . S
C1375 C1368 1.409 . S
C1375 C1374 1.362 . S
H1376 C1382 0.930 . S
H1377 C1385 0.930 . S
H1378 C1386 0.930 . S
H1379 C1387 0.930 . S
H1380 C1390 0.930 . S
H1381 C1391 0.930 . S
C1382 H1376 0.930 . S
C1382 C1383 1.355 . S
C1382 C1384 1.415 . S
C1383 C1382 1.355 . S
C1383 C1385 1.419 . S
C1384 C1382 1.415 . S
C1384 C1389 1.425 . S
C1384 C1391 1.409 . S
C1385 H1377 0.930 . S
C1385 C1383 1.419 . S
C1385 C1386 1.362 . S
C1386 H1378 0.930 . S
C1386 C1385 1.362 . S
C1386 C1389 1.409 . S
C1387 H1379 0.930 . S
C1387 C1388 1.355 . S
C1387 C1389 1.415 . S
C1388 C1387 1.355 . S
C1388 C1390 1.419 . S
C1389 C1384 1.425 . S
C1389 C1386 1.409 . S
C1389 C1387 1.415 . S
C1390 H1380 0.930 . S
C1390 C1388 1.419 . S
C1390 C1391 1.362 . S
C1391 H1381 0.930 . S
C1391 C1384 1.409 . S
C1391 C1390 1.362 . S
H1392 C1398 0.930 . S
H1393 C1401 0.930 . S
H1394 C1402 0.930 . S
H1395 C1403 0.930 . S
H1396 C1406 0.930 . S
H1397 C1407 0.930 . S
C1398 H1392 0.930 . S
C1398 C1399 1.355 . S
C1398 C1400 1.415 . S
C1399 C1398 1.355 . S
C1399 C1401 1.419 . S
C1400 C1398 1.415 . S
C1400 C1405 1.425 . S
C1400 C1407 1.409 . S
C1401 H1393 0.930 . S
C1401 C1399 1.419 . S
C1401 C1402 1.362 . S
C1402 H1394 0.930 . S
C1402 C1401 1.362 . S
C1402 C1405 1.409 . S
C1403 H1395 0.930 . S
C1403 C1404 1.355 . S
C1403 C1405 1.415 . S
C1404 C1403 1.355 . S
C1404 C1406 1.419 . S
C1405 C1400 1.425 . S
C1405 C1402 1.409 . S
C1405 C1403 1.415 . S
C1406 H1396 0.930 . S
C1406 C1404 1.419 . S
C1406 C1407 1.362 . S
C1407 H1397 0.930 . S
C1407 C1400 1.409 . S
C1407 C1406 1.362 . S
H1408 C1414 0.930 . S
H1409 C1417 0.930 . S
H1410 C1418 0.930 . S
H1411 C1419 0.930 . S
H1412 C1422 0.930 . S
H1413 C1423 0.930 . S
C1414 H1408 0.930 . S
C1414 C1415 1.355 . S
C1414 C1416 1.415 . S
C1415 C1414 1.355 . S
C1415 C1417 1.419 . S
C1416 C1414 1.415 . S
C1416 C1421 1.425 . S
C1416 C1423 1.409 . S
C1417 H1409 0.930 . S
C1417 C1415 1.419 . S
C1417 C1418 1.362 . S
C1418 H1410 0.930 . S
C1418 C1417 1.362 . S
C1418 C1421 1.409 . S
C1419 H1411 0.930 . S
C1419 C1420 1.355 . S
C1419 C1421 1.415 . S
C1420 C1419 1.355 . S
C1420 C1422 1.419 . S
C1421 C1416 1.425 . S
C1421 C1418 1.409 . S
C1421 C1419 1.415 . S
C1422 H1412 0.930 . S
C1422 C1420 1.419 . S
C1422 C1423 1.362 . S
C1423 H1413 0.930 . S
C1423 C1416 1.409 . S
C1423 C1422 1.362 . S
H1424 C1430 0.930 . S
H1425 C1433 0.930 . S
H1426 C1434 0.930 . S
H1427 C1435 0.930 . S
H1428 C1438 0.930 . S
H1429 C1439 0.930 . S
C1430 H1424 0.930 . S
C1430 C1431 1.355 . S
C1430 C1432 1.415 . S
C1431 C1430 1.355 . S
C1431 C1433 1.419 . S
C1432 C1430 1.415 . S
C1432 C1437 1.425 . S
C1432 C1439 1.409 . S
C1433 H1425 0.930 . S
C1433 C1431 1.419 . S
C1433 C1434 1.362 . S
C1434 H1426 0.930 . S
C1434 C1433 1.362 . S
C1434 C1437 1.409 . S
C1435 H1427 0.930 . S
C1435 C1436 1.355 . S
C1435 C1437 1.415 . S
C1436 C1435 1.355 . S
C1436 C1438 1.419 . S
C1437 C1432 1.425 . S
C1437 C1434 1.409 . S
C1437 C1435 1.415 . S
C1438 H1428 0.930 . S
C1438 C1436 1.419 . S
C1438 C1439 1.362 . S
C1439 H1429 0.930 . S
C1439 C1432 1.409 . S
C1439 C1438 1.362 . S
H1440 C1446 0.930 . S
H1441 C1449 0.930 . S
H1442 C1450 0.930 . S
H1443 C1451 0.930 . S
H1444 C1454 0.930 . S
H1445 C1455 0.930 . S
C1446 H1440 0.930 . S
C1446 C1447 1.355 . S
C1446 C1448 1.415 . S
C1447 C1446 1.355 . S
C1447 C1449 1.419 . S
C1448 C1446 1.415 . S
C1448 C1453 1.425 . S
C1448 C1455 1.409 . S
C1449 H1441 0.930 . S
C1449 C1447 1.419 . S
C1449 C1450 1.362 . S
C1450 H1442 0.930 . S
C1450 C1449 1.362 . S
C1450 C1453 1.409 . S
C1451 H1443 0.930 . S
C1451 C1452 1.355 . S
C1451 C1453 1.415 . S
C1452 C1451 1.355 . S
C1452 C1454 1.419 . S
C1453 C1448 1.425 . S
C1453 C1450 1.409 . S
C1453 C1451 1.415 . S
C1454 H1444 0.930 . S
C1454 C1452 1.419 . S
C1454 C1455 1.362 . S
C1455 H1445 0.930 . S
C1455 C1448 1.409 . S
C1455 C1454 1.362 . S
H1456 C1462 0.930 . S
H1457 C1465 0.930 . S
H1458 C1466 0.917 1_554 S
H1459 C1467 0.930 1_554 S
H1460 C1470 0.930 . S
H1461 C1471 0.930 . S
C1462 H1456 0.930 . S
C1462 C1463 1.355 . S
C1462 C1464 1.415 . S
C1463 C1462 1.355 . S
C1463 C1465 1.419 . S
C1464 C1462 1.415 . S
C1464 C1469 1.425 . S
C1464 C1471 1.409 . S
C1465 H1457 0.930 . S
C1465 C1463 1.419 . S
C1465 C1466 1.362 . S
C1466 H1458 0.917 1_556 S
C1466 C1465 1.362 . S
C1466 C1469 1.409 . S
C1467 H1459 0.930 1_556 S
C1467 C1468 1.355 . S
C1467 C1469 1.415 . S
C1468 C1467 1.355 . S
C1468 C1470 1.419 . S
C1469 C1464 1.425 . S
C1469 C1466 1.409 . S
C1469 C1467 1.415 . S
C1470 H1460 0.930 . S
C1470 C1468 1.419 . S
C1470 C1471 1.362 . S
C1471 H1461 0.930 . S
C1471 C1464 1.409 . S
C1471 C1470 1.362 . S
C455 C124 1.940 . S
C460 C1 1.940 . S
C471 C14 1.939 . S
C476 C363 1.939 . S
C487 C40 2.000 . S
C492 C153 2.000 . S
C503 C54 1.938 . S
C508 C391 1.938 . S
C519 C68 1.946 . S
C524 C180 1.942 . S
C535 C418 1.942 . S
C540 C83 1.942 . S
C551 C209 1.992 . S
C556 C85 1.989 . S
C567 C435 2.001 . S
C572 C98 2.001 . S
C583 C238 1.993 . S
C588 C139 1.993 . S
C599 C166 1.999 . S
C604 C279 1.999 . S
C615 C194 1.973 . S
C620 C306 1.977 . S
C631 C323 1.968 . S
C636 C210 1.968 . S
C647 C337 1.993 . S
C652 C224 1.993 . S
C663 C265 1.998 . S
C668 C365 2.001 . S
C679 C280 1.938 . S
C684 C404 1.934 . S
C695 C432 1.992 . S
C700 C321 1.992 . S
C711 C12 1.808 . S
C716 C57 1.810 . S
C727 C70 1.808 . S
C732 C27 1.804 . S
C743 C96 1.807 . S
C748 C29 1.804 . S
C759 C43 1.806 . S
C764 C111 1.804 . S
C775 C113 1.821 . S
C780 C169 1.817 . S
C791 C126 1.825 . S
C796 C183 1.822 . S
C807 C196 1.810 . S
C812 C140 1.806 . S
C823 C223 1.806 . S
C828 C155 1.807 . S
C839 C293 1.826 . S
C844 C237 1.822 . S
C855 C295 1.829 . S
C860 C251 1.829 . S
C871 C252 1.818 . S
C876 C308 1.822 . S
C887 C334 1.816 . S
C892 C266 1.820 . S
C903 C393 1.827 . S
C908 C348 1.823 . S
C919 C350 1.805 . S
C924 C407 1.805 . S
C935 C421 1.813 . S
C940 C376 1.807 . S
C951 C446 1.829 . S
C956 C378 1.830 . S
C967 C56 0.665 . S
C972 C13 0.660 . S
C983 C71 0.669 . S
C988 C26 0.663 . S
C999 C28 0.703 . S
C1004 C97 0.692 . S
C1015 C110 0.661 . S
C1020 C42 0.662 . S
C1031 C168 0.670 . S
C1036 C112 0.680 . S
C1047 C127 0.704 . S
C1052 C182 0.694 . S
C1063 C197 0.697 . S
C1068 C141 0.684 . S
C1079 C222 0.704 . S
C1084 C154 0.694 . S
C1095 C236 0.662 . S
C1100 C292 0.668 . S
C1111 C294 0.663 . S
C1116 C250 0.672 . S
C1127 C309 0.714 . S
C1132 C253 0.711 . S
C1143 C335 0.714 . S
C1148 C267 0.712 . S
C1159 C392 0.714 . S
C1164 C349 0.708 . S
C1175 C351 0.670 . S
C1180 C406 0.661 . S
C1191 C377 0.671 . S
C1196 C420 0.683 . S
C1207 C379 0.663 . S
C1212 C447 0.671 . S
C1223 C0 2.027 . S
C1228 C307 1.991 . S
C1239 C320 2.012 . S
C1244 C15 1.987 . S
C1255 C41 2.003 . S
C1260 C322 1.994 . S
C1271 C55 1.998 . S
C1276 C281 2.028 1_556 S
C1287 C278 2.016 . S
C1292 C69 2.022 . S
C1303 C225 2.016 . S
C1308 C82 1.988 . S
C1319 C239 1.989 . S
C1324 C84 2.006 1_556 S
C1335 C99 2.001 . S
C1340 C264 2.030 . S
C1351 C125 1.988 1_556 S
C1356 C419 2.020 . S
C1367 C433 2.001 . S
C1372 C138 1.993 . S
C1383 C434 2.028 . S
C1388 C152 1.994 . S
C1399 C405 2.021 . S
C1404 C167 2.020 . S
C1415 C390 1.987 . S
C1420 C181 2.021 . S
C1431 C336 1.987 . S
C1436 C195 2.011 . S
C1447 C208 1.990 . S
C1452 C362 2.003 . S
C1463 C211 1.992 . S
C1468 C364 2.004 1_556 S
