# Generated by pormake.
# Topology umb, (4)-cn, num edge types: 1
# Building blocks:
#     Node 0, Type 0, BuildingBlock: NAWXER_clean_sbu_0, # of connection points: 4
#     Node 1, Type 0, BuildingBlock: NAWXER_clean_sbu_0, # of connection points: 4
#     Node 2, Type 0, BuildingBlock: NAWXER_clean_sbu_0, # of connection points: 4
#     Node 3, Type 0, BuildingBlock: NAWXER_clean_sbu_0, # of connection points: 4
#     Node 4, Type 0, BuildingBlock: NAWXER_clean_sbu_0, # of connection points: 4
#     Node 5, Type 0, BuildingBlock: NAWXER_clean_sbu_0, # of connection points: 4
#     Node 6, Type 0, BuildingBlock: NAWXER_clean_sbu_0, # of connection points: 4
#     Node 7, Type 0, BuildingBlock: NAWXER_clean_sbu_0, # of connection points: 4
#     Node 8, Type 0, BuildingBlock: NAWXER_clean_sbu_0, # of connection points: 4
#     Node 9, Type 0, BuildingBlock: NAWXER_clean_sbu_0, # of connection points: 4
#     Node 10, Type 0, BuildingBlock: NAWXER_clean_sbu_0, # of connection points: 4
#     Node 11, Type 0, BuildingBlock: NAWXER_clean_sbu_0, # of connection points: 4
#     Edge 12, Type (0, 0), BuildingBlock: EZIPEK_clean_linker_0, # of connection points: 2
#     Edge 13, Type (0, 0), BuildingBlock: EZIPEK_clean_linker_0, # of connection points: 2
#     Edge 14, Type (0, 0), BuildingBlock: EZIPEK_clean_linker_0, # of connection points: 2
#     Edge 15, Type (0, 0), BuildingBlock: EZIPEK_clean_linker_0, # of connection points: 2
#     Edge 16, Type (0, 0), BuildingBlock: EZIPEK_clean_linker_0, # of connection points: 2
#     Edge 17, Type (0, 0), BuildingBlock: EZIPEK_clean_linker_0, # of connection points: 2
#     Edge 18, Type (0, 0), BuildingBlock: EZIPEK_clean_linker_0, # of connection points: 2
#     Edge 19, Type (0, 0), BuildingBlock: EZIPEK_clean_linker_0, # of connection points: 2
#     Edge 20, Type (0, 0), BuildingBlock: EZIPEK_clean_linker_0, # of connection points: 2
#     Edge 21, Type (0, 0), BuildingBlock: EZIPEK_clean_linker_0, # of connection points: 2
#     Edge 22, Type (0, 0), BuildingBlock: EZIPEK_clean_linker_0, # of connection points: 2
#     Edge 23, Type (0, 0), BuildingBlock: EZIPEK_clean_linker_0, # of connection points: 2
#     Edge 24, Type (0, 0), BuildingBlock: EZIPEK_clean_linker_0, # of connection points: 2
#     Edge 25, Type (0, 0), BuildingBlock: EZIPEK_clean_linker_0, # of connection points: 2
#     Edge 26, Type (0, 0), BuildingBlock: EZIPEK_clean_linker_0, # of connection points: 2
#     Edge 27, Type (0, 0), BuildingBlock: EZIPEK_clean_linker_0, # of connection points: 2
#     Edge 28, Type (0, 0), BuildingBlock: EZIPEK_clean_linker_0, # of connection points: 2
#     Edge 29, Type (0, 0), BuildingBlock: EZIPEK_clean_linker_0, # of connection points: 2
#     Edge 30, Type (0, 0), BuildingBlock: EZIPEK_clean_linker_0, # of connection points: 2
#     Edge 31, Type (0, 0), BuildingBlock: EZIPEK_clean_linker_0, # of connection points: 2
#     Edge 32, Type (0, 0), BuildingBlock: EZIPEK_clean_linker_0, # of connection points: 2
#     Edge 33, Type (0, 0), BuildingBlock: EZIPEK_clean_linker_0, # of connection points: 2
#     Edge 34, Type (0, 0), BuildingBlock: EZIPEK_clean_linker_0, # of connection points: 2
#     Edge 35, Type (0, 0), BuildingBlock: EZIPEK_clean_linker_0, # of connection points: 2
# Relax obj value: 0.192
# Max RMSD: 0.212
# Mean RMSD: 0.211
data_MOF--net-umb--node1-NAWXER_clean_sbu_0--edge1-EZIPEK_clean_linker_0
_symmetry_space_group_name_H-M    P1
_symmetry_Int_Tables_number       1
_symmetry_cell_setting            triclinic
loop_
_symmetry_equiv_pos_as_xyz
'x, y, z'
_cell_length_a     34.536656
_cell_length_b     34.389846
_cell_length_c     26.695472
_cell_angle_alpha  89.890763
_cell_angle_beta   89.208326
_cell_angle_gamma 119.78475
loop_
_atom_site_label
_atom_site_type_symbol
_atom_site_fract_x
_atom_site_fract_y
_atom_site_fract_z
_atom_type_partial_charge
C0 C 0.58223 0.23986 0.37078 0.0
C1 C 0.52773 0.08369 0.33725 0.0
O2 O 0.60168 0.22192 0.34749 0.0
Zn3 Zn 0.55471 0.16227 0.35245 0.0
O4 O 0.54286 0.21536 0.38896 0.0
Zn5 Zn 0.4939 0.14523 0.39065 0.0
O6 O 0.4889 0.13327 0.46329 0.0
O7 O 0.55506 0.15076 0.43174 0.0
O8 O 0.49947 0.08969 0.36288 0.0
O9 O 0.56385 0.117 0.32168 0.0
O10 O 0.5079 0.16854 0.30722 0.0
O11 O 0.44627 0.14658 0.35183 0.0
C12 C 0.52828 0.13997 0.46953 0.0
C13 C 0.46854 0.16295 0.31131 0.0
C14 C 0.30779 0.57747 0.69408 0.0
C15 C 0.40033 0.51033 0.67181 0.0
O16 O 0.3452 0.59331 0.67107 0.0
Zn17 Zn 0.35213 0.54273 0.67953 0.0
O18 O 0.28959 0.5382 0.71352 0.0
Zn19 Zn 0.30425 0.48465 0.71857 0.0
O20 O 0.30675 0.48185 0.79208 0.0
O21 O 0.36064 0.54506 0.75981 0.0
O22 O 0.3643 0.48422 0.69636 0.0
O23 O 0.40569 0.54654 0.65293 0.0
O24 O 0.29876 0.49796 0.6333 0.0
O25 O 0.25446 0.43857 0.67901 0.0
C26 C 0.34108 0.52027 0.79831 0.0
C27 C 0.26291 0.46015 0.63773 0.0
C28 C 0.83176 0.38892 0.12685 0.0
C29 C 0.79633 0.29231 0.97815 0.0
O30 O 0.82912 0.35072 0.12445 0.0
Zn31 Zn 0.82095 0.34128 1.05154 0.0
O32 O 0.83079 0.40828 0.08629 0.0
Zn33 Zn 0.82459 0.39411 1.00779 0.0
O34 O 0.77437 0.40061 0.99422 0.0
O35 O 0.75948 0.34216 1.04154 0.0
O36 O 0.80414 0.33213 0.96817 0.0
O37 O 0.80418 0.28325 1.02185 0.0
O38 O 0.88526 0.38402 1.0179 0.0
O39 O 0.88052 0.43801 0.97955 0.0
C40 C 0.74595 0.36543 1.01759 0.0
C41 C 0.90383 0.42073 0.99257 0.0
C42 C 0.44524 0.82608 0.46367 0.0
C43 C 0.50321 0.79016 0.30927 0.0
O44 O 0.47883 0.82009 0.46079 0.0
Zn45 Zn 0.48062 0.8145 0.38704 0.0
O46 O 0.4263 0.8271 0.42327 0.0
Zn47 Zn 0.43051 0.81724 0.34482 0.0
O48 O 0.37286 0.76664 0.3391 0.0
O49 O 0.41965 0.75233 0.37964 0.0
O50 O 0.47006 0.79638 0.30213 0.0
O51 O 0.52213 0.79974 0.35166 0.0
O52 O 0.49704 0.8805 0.36162 0.0
O53 O 0.4406 0.87244 0.3161 0.0
C54 C 0.3808 0.73906 0.36233 0.0
C55 C 0.47815 0.89765 0.3356 0.0
C56 C 0.67871 0.50761 0.64477 0.0
C57 C 0.59103 0.44351 0.80085 0.0
O58 O 0.68654 0.52582 0.68763 0.0
Zn59 Zn 0.6325 0.48009 0.72293 0.0
O60 O 0.64125 0.47218 0.63751 0.0
Zn61 Zn 0.58319 0.42784 0.68097 0.0
O62 O 0.53458 0.43208 0.65414 0.0
O63 O 0.57808 0.49013 0.7008 0.0
O64 O 0.57125 0.42146 0.76159 0.0
O65 O 0.6278 0.48017 0.79607 0.0
O66 O 0.63915 0.42105 0.7138 0.0
O67 O 0.58263 0.37368 0.66847 0.0
C68 C 0.54285 0.46851 0.67458 0.0
C69 C 0.61831 0.38339 0.69135 0.0
C70 C 0.11898 0.58956 0.11875 0.0
C71 C 0.16225 0.68556 0.96544 0.0
O72 O 0.10885 0.61978 0.10937 0.0
Zn73 Zn 0.13408 0.63492 1.0407 0.0
O74 O 0.13755 0.57861 0.08381 0.0
Zn75 Zn 0.16105 0.59775 1.00692 0.0
O76 O 0.2206 0.61176 1.01566 0.0
O77 O 0.2028 0.65671 1.05711 0.0
O78 O 0.17137 0.65384 0.96272 0.0
O79 O 0.13944 0.68678 1.00264 0.0
O80 O 0.08696 0.57558 1.00265 0.0
O81 O 0.12418 0.54532 0.96837 0.0
C82 C 0.2309 0.64398 1.04566 0.0
C83 C 0.08757 0.5443 0.97721 0.0
C84 C 0.73051 0.39848 0.41241 0.0
C85 C 0.88643 0.47941 0.45342 0.0
O86 O 0.75194 0.38459 0.43828 0.0
Zn87 Zn 0.80685 0.4391 0.43603 0.0
O88 O 0.74929 0.43908 0.39645 0.0
Zn89 Zn 0.81465 0.49736 0.39912 0.0
O90 O 0.8304 0.50548 0.32695 0.0
O91 O 0.82102 0.44163 0.35689 0.0
O92 O 0.87428 0.504 0.4301 0.0
O93 O 0.8573 0.43984 0.46614 0.0
O94 O 0.7896 0.47939 0.48175 0.0
O95 O 0.80183 0.53868 0.43741 0.0
C96 C 0.82905 0.46819 0.31958 0.0
C97 C 0.7881 0.51572 0.47782 0.0
C98 C 0.32321 0.73687 0.7456 0.0
C99 C 0.41301 0.89203 0.79372 0.0
O100 O 0.35712 0.75302 0.77374 0.0
Zn101 Zn 0.36629 0.81232 0.77363 0.0
O102 O 0.30743 0.76129 0.72985 0.0
Zn103 Zn 0.32368 0.83006 0.73494 0.0
O104 O 0.33815 0.84783 0.66337 0.0
O105 O 0.38236 0.82587 0.69545 0.0
O106 O 0.37861 0.88527 0.76932 0.0
O107 O 0.41779 0.85906 0.80614 0.0
O108 O 0.30854 0.80004 0.81616 0.0
O109 O 0.26947 0.82149 0.77075 0.0
C110 C 0.3698 0.83912 0.65741 0.0
C111 C 0.27367 0.80356 0.81064 0.0
C112 C 0.51096 0.36328 0.99487 0.0
C113 C 0.46541 0.26927 0.14806 0.0
O114 O 0.47918 0.32296 0.99939 0.0
Zn115 Zn 0.4826 0.31744 0.07192 0.0
O116 O 0.53098 0.38503 1.03415 0.0
Zn117 Zn 0.52976 0.37146 0.11434 0.0
O118 O 0.59032 0.38593 0.12053 0.0
O119 O 0.54917 0.32734 0.07258 0.0
O120 O 0.49593 0.30971 0.15605 0.0
O121 O 0.44688 0.25926 0.10562 0.0
O122 O 0.45983 0.36127 0.09996 0.0
O123 O 0.51411 0.41169 0.14527 0.0
C124 C 0.5868 0.35524 0.09131 0.0
C125 C 0.47548 0.39623 0.12739 0.0
C126 C 0.11931 0.51373 0.31678 0.0
C127 C 0.15979 0.46202 0.47237 0.0
O128 O 0.11617 0.47558 0.32384 0.0
Zn129 Zn 0.13316 0.48268 0.39508 0.0
O130 O 0.12879 0.53951 0.35466 0.0
Zn131 Zn 0.14206 0.53979 0.43374 0.0
O132 O 0.19641 0.59423 0.43525 0.0
O133 O 0.19896 0.54179 0.38909 0.0
O134 O 0.15884 0.49851 0.47766 0.0
O135 O 0.146 0.44033 0.43178 0.0
O136 O 0.07294 0.47621 0.42732 0.0
O137 O 0.0923 0.53973 0.46584 0.0
C138 C 0.21756 0.58178 0.40624 0.0
C139 C 0.06219 0.50149 0.45194 0.0
C140 C 0.68911 0.18133 0.818 0.0
C141 C 0.59988 0.13434 0.66451 0.0
O142 O 0.69944 0.17017 0.77671 0.0
Zn143 Zn 0.6434 0.15128 0.74197 0.0
O144 O 0.6495 0.17481 0.82464 0.0
Zn145 Zn 0.58961 0.15011 0.78244 0.0
O146 O 0.54597 0.09567 0.81501 0.0
O147 O 0.59649 0.08741 0.77299 0.0
O148 O 0.57833 0.13632 0.70299 0.0
O149 O 0.63861 0.13909 0.67002 0.0
O150 O 0.63932 0.21168 0.73966 0.0
O151 O 0.58027 0.2004 0.78522 0.0
C152 C 0.5606 0.07044 0.79963 0.0
C153 C 0.61353 0.22543 0.75706 0.0
C154 C 0.41795 0.59144 0.99442 0.0
C155 C 0.49359 0.6793 0.14584 0.0
O156 O 0.45769 0.62428 0.99665 0.0
Zn157 Zn 0.46123 0.63331 0.0699 0.0
O158 O 0.39545 0.57588 1.03525 0.0
Zn159 Zn 0.40575 0.58839 0.11423 0.0
O160 O 0.35773 0.59789 0.12968 0.0
O161 O 0.41012 0.65108 0.0824 0.0
O162 O 0.45608 0.64397 0.15487 0.0
O163 O 0.51124 0.68528 0.10221 0.0
O164 O 0.46439 0.57604 0.09655 0.0
O165 O 0.40271 0.53541 0.14092 0.0
C166 C 0.37346 0.63565 0.10749 0.0
C167 C 0.43893 0.54064 0.12227 0.0
C168 C 0.58228 0.1772 0.53951 0.0
C169 C 0.54511 0.13813 0.52034 0.0
C170 C 0.54261 0.09656 0.59671 0.0
C171 C 0.58231 0.1344 0.61361 0.0
N172 N 0.64195 0.21039 0.59953 0.0
N173 N 0.49404 0.05872 0.52693 0.0
C174 C 0.60287 0.17449 0.58431 0.0
C175 C 0.52624 0.09729 0.54803 0.0
N176 N 0.59654 0.21758 0.5161 0.0
N177 N 0.52004 0.06008 0.62752 0.0
H178 H 0.48121 0.05791 0.49156 0.0
H179 H 0.48266 0.02702 0.54253 0.0
H180 H 0.5317 0.05773 0.66254 0.0
H181 H 0.48831 0.03367 0.61999 0.0
H182 H 0.61975 0.24826 0.53095 0.0
H183 H 0.58218 0.22094 0.48356 0.0
H184 H 0.66158 0.23827 0.57694 0.0
H185 H 0.65649 0.2116 0.63383 0.0
C186 C 0.36722 0.51116 0.88374 0.0
C187 C 0.35875 0.53755 0.84952 0.0
C188 C 0.39113 0.60025 0.90934 0.0
C189 C 0.39641 0.57251 0.945 0.0
N190 N 0.37593 0.49687 0.97022 0.0
N191 N 0.35338 0.60405 0.83512 0.0
C192 C 0.38021 0.52653 0.93356 0.0
C193 C 0.36836 0.58136 0.86372 0.0
N194 N 0.3652 0.47235 0.86823 0.0
N195 N 0.40683 0.64453 0.91936 0.0
H196 H 0.33514 0.59088 0.80273 0.0
H197 H 0.35486 0.63381 0.84603 0.0
H198 H 0.41938 0.65883 0.95401 0.0
H199 H 0.40938 0.66767 0.89241 0.0
H200 H 0.37593 0.45448 0.89009 0.0
H201 H 0.35749 0.46055 0.83172 0.0
H202 H 0.36041 0.46241 0.96459 0.0
H203 H 0.38309 0.50566 1.00754 0.0
C204 C 0.86507 0.43858 0.25849 0.0
C205 C 0.83318 0.45268 0.26816 0.0
C206 C 0.79814 0.4206 0.18748 0.0
C207 C 0.83216 0.40998 0.17609 0.0
N208 N 0.90268 0.41636 0.19691 0.0
N209 N 0.77329 0.46305 0.23727 0.0
C210 C 0.8669 0.42099 0.21059 0.0
C211 C 0.80134 0.44602 0.23097 0.0
N212 N 0.89345 0.44143 0.29528 0.0
N213 N 0.76095 0.40371 0.15853 0.0
H214 H 0.77147 0.47877 0.26975 0.0
H215 H 0.75367 0.46423 0.20866 0.0
H216 H 0.75617 0.38331 0.12776 0.0
H217 H 0.73265 0.40573 0.168 0.0
H218 H 0.91333 0.42656 0.29291 0.0
H219 H 0.8952 0.45631 0.32969 0.0
H220 H 0.93155 0.42861 0.2179 0.0
H221 H 0.90521 0.40368 0.16234 0.0
C222 C 0.37932 0.80571 0.52248 0.0
C223 C 0.42626 0.83055 0.51296 0.0
C224 C 0.4366 0.85964 0.59873 0.0
C225 C 0.38931 0.83883 0.60655 0.0
N226 N 0.31551 0.79528 0.5715 0.0
N227 N 0.49788 0.89037 0.53838 0.0
C228 C 0.36075 0.81355 0.56683 0.0
C229 C 0.45439 0.86012 0.55004 0.0
N230 N 0.3523 0.77206 0.49097 0.0
N231 N 0.46512 0.87814 0.63769 0.0
H232 H 0.51204 0.8929 0.50294 0.0
H233 H 0.51847 0.91621 0.5622 0.0
H234 H 0.45495 0.87925 0.67412 0.0
H235 H 0.49908 0.88882 0.63473 0.0
H236 H 0.31911 0.74883 0.49944 0.0
H237 H 0.36374 0.76402 0.45864 0.0
H238 H 0.29426 0.78306 0.54108 0.0
H239 H 0.29885 0.79377 0.60479 0.0
C240 C 0.52945 0.4221 0.92745 0.0
C241 C 0.5301 0.38324 0.9445 0.0
C242 C 0.571 0.38435 0.86767 0.0
C243 C 0.5719 0.42422 0.85144 0.0
N244 N 0.55733 0.4846 0.86837 0.0
N245 N 0.55988 0.33318 0.93607 0.0
C246 C 0.55282 0.44423 0.88222 0.0
C247 C 0.55297 0.3658 0.9159 0.0
N248 N 0.50526 0.43698 0.95386 0.0
N249 N 0.5875 0.36405 0.83691 0.0
H250 H 0.54734 0.31847 0.97106 0.0
H251 H 0.58125 0.32323 0.9202 0.0
H252 H 0.60447 0.37834 0.80338 0.0
H253 H 0.58239 0.33194 0.84325 0.0
H254 H 0.49905 0.46196 0.94121 0.0
H255 H 0.48856 0.42198 0.98732 0.0
H256 H 0.54853 0.50351 0.89128 0.0
H257 H 0.5727 0.50091 0.83483 0.0
C258 C 0.10854 0.56884 0.26182 0.0
C259 C 0.11371 0.53006 0.26576 0.0
C260 C 0.10589 0.52409 0.17421 0.0
C261 C 0.11254 0.56821 0.17001 0.0
N262 N 0.13211 0.63691 0.21454 0.0
N263 N 0.12959 0.47879 0.21815 0.0
C264 C 0.11724 0.59198 0.21507 0.0
C265 C 0.11571 0.50965 0.21991 0.0
N266 N 0.09364 0.58318 0.30141 0.0
N267 N 0.0892 0.49533 0.13508 0.0
H268 H 0.14335 0.47095 0.24817 0.0
H269 H 0.13366 0.46592 0.18437 0.0
H270 H 0.07759 0.5034 0.10311 0.0
H271 H 0.08122 0.46187 0.13773 0.0
H272 H 0.08712 0.60962 0.29812 0.0
H273 H 0.08135 0.56515 0.33469 0.0
H274 H 0.13915 0.65541 0.24742 0.0
H275 H 0.1428 0.65666 0.18223 0.0
C276 C 0.65126 0.34672 0.43624 0.0
C277 C 0.68458 0.36692 0.39819 0.0
C278 C 0.63413 0.31477 0.33668 0.0
C279 C 0.60611 0.28891 0.37668 0.0
N280 N 0.57474 0.29098 0.45716 0.0
N281 N 0.70726 0.37364 0.31089 0.0
C282 C 0.6102 0.30825 0.42441 0.0
C283 C 0.67534 0.35303 0.34755 0.0
N284 N 0.65984 0.36329 0.48378 0.0
N285 N 0.62087 0.30192 0.28865 0.0
H286 H 0.73798 0.4018 0.31731 0.0
H287 H 0.70437 0.36166 0.27457 0.0
H288 H 0.58994 0.27401 0.28101 0.0
H289 H 0.6379 0.32085 0.25708 0.0
H290 H 0.63942 0.34695 0.51468 0.0
H291 H 0.68859 0.39316 0.49255 0.0
H292 H 0.57489 0.30507 0.49167 0.0
H293 H 0.54324 0.26535 0.44747 0.0
C294 C 0.28411 0.65514 0.76452 0.0
C295 C 0.30318 0.69043 0.72862 0.0
C296 C 0.29596 0.63789 0.6633 0.0
C297 C 0.28791 0.60632 0.70129 0.0
N298 N 0.25044 0.57513 0.78017 0.0
N299 N 0.32314 0.71545 0.64229 0.0
C300 C 0.27405 0.6116 0.74965 0.0
C301 C 0.30639 0.68159 0.67708 0.0
N302 N 0.2772 0.66382 0.81279 0.0
N303 N 0.29429 0.62557 0.61441 0.0
H304 H 0.33114 0.74799 0.65067 0.0
H305 H 0.33121 0.712 0.60549 0.0
H306 H 0.28607 0.59292 0.60484 0.0
H307 H 0.29664 0.64566 0.58399 0.0
H308 H 0.26841 0.64096 0.84225 0.0
H309 H 0.28154 0.69486 0.8237 0.0
H310 H 0.23772 0.5764 0.81529 0.0
H311 H 0.23886 0.54254 0.76781 0.0
C312 C 0.63468 0.32067 0.08144 0.0
C313 C 0.62662 0.35625 0.07036 0.0
C314 C 0.68543 0.38478 1.00584 0.0
C315 C 0.69872 0.3546 1.02371 0.0
N316 N 0.67126 0.27953 1.05485 0.0
N317 N 0.64341 0.42253 1.02172 0.0
C318 C 0.669 0.31805 1.05471 0.0
C319 C 0.65156 0.38834 1.03226 0.0
N320 N 0.6106 0.29042 0.11856 0.0
N321 N 0.70212 0.40664 0.96118 0.0
H322 H 0.61815 0.426 1.03913 0.0
H323 H 0.66391 0.4495 0.99833 0.0
H324 H 0.7222 0.39948 0.93782 0.0
H325 H 0.69097 0.42635 0.94386 0.0
H326 H 0.61821 0.26658 0.13193 0.0
H327 H 0.58508 0.29145 0.13885 0.0
H328 H 0.64855 0.25041 0.07391 0.0
H329 H 0.69204 0.27481 1.02988 0.0
C330 C 0.33763 0.66893 0.41666 0.0
C331 C 0.34467 0.69212 0.36985 0.0
C332 C 0.27005 0.63669 0.34321 0.0
C333 C 0.26289 0.61457 0.39001 0.0
N334 N 0.29278 0.5999 0.46373 0.0
N335 N 0.3243 0.68873 0.28327 0.0
C336 C 0.29786 0.62741 0.4241 0.0
C337 C 0.31298 0.67274 0.3313 0.0
N338 N 0.36647 0.68728 0.4555 0.0
N339 N 0.23553 0.62442 0.31105 0.0
H340 H 0.35696 0.71204 0.27245 0.0
H341 H 0.30265 0.6762 0.25338 0.0
H342 H 0.20412 0.5967 0.3174 0.0
H343 H 0.23716 0.64335 0.2798 0.0
H344 H 0.35872 0.67442 0.49191 0.0
H345 H 0.39674 0.71693 0.45368 0.0
H346 H 0.31877 0.6051 0.48716 0.0
H347 H 0.26364 0.56931 0.47002 0.0
C348 C 0.60911 0.30905 0.66952 0.0
C349 C 0.63123 0.34842 0.69807 0.0
C350 C 0.64886 0.30854 0.76154 0.0
C351 C 0.61936 0.26787 0.73765 0.0
N352 N 0.56947 0.22827 0.66999 0.0
N353 N 0.69195 0.38952 0.75446 0.0
C354 C 0.59944 0.26777 0.69147 0.0
C355 C 0.65723 0.34962 0.73934 0.0
N356 N 0.59935 0.31185 0.62069 0.0
N357 N 0.66759 0.30769 0.80602 0.0
H358 H 0.70305 0.41901 0.73377 0.0
H359 H 0.71376 0.39246 0.78262 0.0
H360 H 0.66271 0.27805 0.82264 0.0
H361 H 0.68533 0.3358 0.82819 0.0
H362 H 0.58658 0.28486 0.59627 0.0
H363 H 0.60948 0.34269 0.60318 0.0
H364 H 0.55079 0.22634 0.63883 0.0
H365 H 0.56014 0.19714 0.68592 0.0
C366 C 0.31358 0.6849 1.04451 0.0
C367 C 0.27311 0.66222 0.07213 0.0
C368 C 0.30938 0.64414 0.13848 0.0
C369 C 0.34691 0.65885 0.10598 0.0
N370 N 0.39376 0.71705 1.04666 0.0
N371 N 0.23632 0.63644 0.15266 0.0
C372 C 0.35224 0.68731 0.06489 0.0
C373 C 0.2724 0.64763 0.122 0.0
N374 N 0.31443 0.70239 0.99829 0.0
N375 N 0.30904 0.62582 0.18401 0.0
H376 H 0.20998 0.64101 0.14209 0.0
H377 H 0.23394 0.62641 0.18986 0.0
H378 H 0.33819 0.62927 0.19946 0.0
H379 H 0.28065 0.60794 0.20648 0.0
H380 H 0.34189 0.7147 0.97389 0.0
H381 H 0.28669 0.70289 0.98394 0.0
H382 H 0.39936 0.74 1.01806 0.0
H383 H 0.42261 0.72307 0.06511 0.0
C384 C 0.51074 0.01457 0.28844 0.0
C385 C 0.52154 0.03819 0.33419 0.0
C386 C 0.50525 0.97044 0.38037 0.0
C387 C 0.49659 0.94678 0.33451 0.0
N388 N 0.50035 0.94852 0.24418 0.0
N389 N 0.54287 0.04245 0.4205 0.0
C390 C 0.50219 0.96956 0.28817 0.0
C391 C 0.52334 0.01734 0.37908 0.0
N392 N 0.50718 0.03455 0.24582 0.0
N393 N 0.49319 0.94813 0.42533 0.0
H394 H 0.5577 0.07725 0.42048 0.0
H395 H 0.54877 0.02931 0.45285 0.0
H396 H 0.47723 0.91348 0.42865 0.0
H397 H 0.49445 0.96373 0.45919 0.0
H398 H 0.49465 0.01747 0.21249 0.0
H399 H 0.5141 0.06774 0.24478 0.0
H400 H 0.50808 0.96463 0.20941 0.0
H401 H 0.49513 0.91593 0.2429 0.0
C402 C 0.45663 0.49667 0.62592 0.0
C403 C 0.43804 0.50139 0.67169 0.0
C404 C 0.48748 0.48355 0.71892 0.0
C405 C 0.5087 0.48247 0.6735 0.0
N406 N 0.51903 0.49553 0.58434 0.0
N407 N 0.44435 0.5115 0.76142 0.0
C408 C 0.4949 0.49126 0.62705 0.0
C409 C 0.45597 0.49841 0.71812 0.0
N410 N 0.43677 0.49567 0.58165 0.0
N411 N 0.49549 0.46817 0.76262 0.0
H412 H 0.42273 0.52436 0.76239 0.0
H413 H 0.45995 0.51429 0.79542 0.0
H414 H 0.51722 0.45551 0.76495 0.0
H415 H 0.47711 0.46367 0.79555 0.0
H416 H 0.44599 0.48769 0.54756 0.0
H417 H 0.40851 0.49917 0.57953 0.0
H418 H 0.5133 0.50626 0.55016 0.0
H419 H 0.54747 0.49221 0.58409 0.0
C420 C -0.0161 0.44316 1.01381 0.0
C421 C 0.95258 0.44442 0.98048 0.0
C422 C 0.01434 0.50582 0.93368 0.0
C423 C 0.0447 0.50378 0.96692 0.0
N424 N 0.05931 0.45712 1.02187 0.0
N425 N 0.94124 0.46465 0.89718 0.0
C426 C 0.02976 0.46741 1.00073 0.0
C427 C 0.96878 0.47183 0.93652 0.0
N428 N 0.97146 0.42331 0.06011 0.0
N429 N 0.02885 0.54043 0.90013 0.0
H430 H 0.90875 0.43761 0.89631 0.0
H431 H 0.95242 0.48199 0.86321 0.0
H432 H 0.06258 0.56431 0.89573 0.0
H433 H 0.00722 0.54622 0.87862 0.0
H434 H -0.0054 0.42551 0.08627 0.0
H435 H 0.93959 0.41008 0.07558 0.0
H436 H 0.04907 0.42849 1.04396 0.0
H437 H 0.09332 0.47452 1.01308 0.0
C438 C -0.00655 0.48706 0.50122 0.0
C439 C 0.01524 0.49127 0.45441 0.0
C440 C 0.9611 0.5056 0.41323 0.0
C441 C 0.93447 0.49338 0.4576 0.0
N442 N 0.92544 0.47289 0.54514 0.0
N443 N 0.01051 0.49048 0.36386 0.0
C444 C 0.95071 0.48411 0.50214 0.0
C445 C -0.00391 0.49587 0.40982 0.0
N446 N 0.01355 0.48585 0.54444 0.0
N447 N 0.95464 0.52784 0.37467 0.0
H448 H 0.03483 0.48143 0.35879 0.0
H449 H -0.00557 0.48991 0.33084 0.0
H450 H 0.93247 0.53996 0.3762 0.0
H451 H 0.97605 0.53986 0.3435 0.0
H452 H 0.00173 0.4875 0.58001 0.0
H453 H 0.04342 0.48513 0.54447 0.0
H454 H 0.93277 0.46075 0.57727 0.0
H455 H 0.89622 0.47474 0.54803 0.0
C456 C 0.50554 0.00118 0.848 0.0
C457 C 0.53121 0.02105 0.80362 0.0
C458 C 0.47562 0.9605 0.75427 0.0
C459 C 0.45112 0.93814 0.79827 0.0
N460 N 0.44593 0.93418 0.88848 0.0
N461 N 0.54972 0.00576 0.72075 0.0
C462 C 0.46731 0.95735 0.84584 0.0
C463 C 0.51941 -0.00367 0.75878 0.0
N464 N 0.51775 0.02431 0.89182 0.0
N465 N 0.45733 0.9489 0.70793 0.0
H466 H 0.58366 0.02809 0.7242 0.0
H467 H 0.54208 -0.01381 0.68865 0.0
H468 H 0.4246 0.92419 0.7018 0.0
H469 H 0.4737 0.9673 0.67574 0.0
H470 H 0.49795 0.01419 0.92424 0.0
H471 H 0.54765 0.05454 0.89502 0.0
H472 H 0.45849 0.94446 0.92422 0.0
H473 H 0.41647 0.90334 0.88779 0.0
C474 C 0.45214 0.48675 0.17323 0.0
C475 C 0.44861 0.50334 0.12569 0.0
C476 C 0.44045 0.43586 0.08633 0.0
C477 C 0.45332 0.42378 0.13111 0.0
N478 N 0.46722 0.43473 0.2194 0.0
N479 N 0.45101 0.49789 1.0352 0.0
C480 C 0.45763 0.44829 0.17546 0.0
C481 C 0.44644 0.47935 0.08168 0.0
N482 N 0.45098 0.50811 0.21587 0.0
N483 N 0.42094 0.40571 1.04877 0.0
H484 H 0.45709 0.53032 1.02906 0.0
H485 H 0.45339 0.4824 1.00267 0.0
H486 H 0.41098 0.3719 1.05267 0.0
H487 H 0.40852 0.4129 1.01681 0.0
H488 H 0.44863 0.49521 0.25178 0.0
H489 H 0.45075 0.53833 0.21526 0.0
H490 H 0.47614 0.45363 0.25195 0.0
H491 H 0.46691 0.40431 0.22271 0.0
C492 C 0.44631 0.2182 0.27851 0.0
C493 C 0.45305 0.1811 0.27006 0.0
C494 C 0.46127 0.19764 0.17959 0.0
C495 C 0.45435 0.23459 0.188 0.0
N496 N 0.42758 0.27174 0.24305 0.0
N497 N 0.45395 0.1282 0.21207 0.0
C498 C 0.44254 0.24197 0.23674 0.0
C499 C 0.4559 0.16834 0.22026 0.0
N500 N 0.44689 0.23308 0.32608 0.0
N501 N 0.47629 0.1923 0.1339 0.0
H502 H 0.44975 0.10614 0.2413 0.0
H503 H 0.45185 0.11493 0.17651 0.0
H504 H 0.48164 0.21324 0.10323 0.0
H505 H 0.48702 0.16927 0.12747 0.0
H506 H 0.44812 0.26335 0.33381 0.0
H507 H 0.44927 0.21698 0.35796 0.0
H508 H 0.41441 0.27555 0.27683 0.0
H509 H 0.42408 0.28928 0.21312 0.0
C510 C 0.16151 0.44122 0.5622 0.0
C511 C 0.17998 0.44808 0.51304 0.0
C512 C 0.24431 0.44462 0.54671 0.0
C513 C 0.22985 0.44629 0.59631 0.0
N514 N 0.17541 0.44984 0.65125 0.0
N515 N 0.24096 0.45914 0.45837 0.0
C516 C 0.18816 0.44462 0.60419 0.0
C517 C 0.22156 0.44967 0.50506 0.0
N518 N 0.1183 0.43155 0.56866 0.0
N519 N 0.28008 0.43836 0.5396 0.0
H520 H 0.22558 0.46285 0.42686 0.0
H521 H 0.27363 0.46638 0.45139 0.0
H522 H 0.297 0.43431 0.56947 0.0
H523 H 0.29008 0.43278 0.50465 0.0
H524 H 0.10128 0.42192 0.60298 0.0
H525 H 0.09811 0.42877 0.53857 0.0
H526 H 0.14846 0.45483 0.65827 0.0
H527 H 0.19342 0.45249 0.68324 0.0
C528 C 0.73373 0.21699 0.94872 0.0
C529 C 0.77476 0.25724 0.93891 0.0
C530 C 0.76294 0.24467 0.8484 0.0
C531 C 0.72248 0.20403 0.85821 0.0
N532 N 0.67718 0.14516 0.91714 0.0
N533 N 0.83451 0.30091 0.88015 0.0
C534 C 0.7106 0.18811 0.90827 0.0
C535 C 0.79137 0.26809 0.8889 0.0
N536 N 0.7148 0.2076 0.99565 0.0
N537 N 0.77292 0.26295 0.80125 0.0
H538 H 0.85637 0.31791 0.90915 0.0
H539 H 0.84977 0.30767 0.84481 0.0
H540 H 0.7528 0.24805 0.77048 0.0
H541 H 0.79931 0.29503 0.7935 0.0
H542 H 0.68239 0.18179 1.00303 0.0
H543 H 0.72951 0.22743 1.02672 0.0
H544 H 0.66977 0.13022 0.95259 0.0
H545 H 0.66015 0.12299 0.88828 0.0
C546 C 0.51496 0.70108 0.23497 0.0
C547 C 0.51181 0.71443 0.18558 0.0
C548 C 0.52224 0.78563 0.21921 0.0
C549 C 0.51555 0.76801 0.26866 0.0
N550 N 0.50256 0.70644 0.32354 0.0
N551 N 0.50982 0.76961 0.13083 0.0
C552 C 0.51211 0.72545 0.27675 0.0
C553 C 0.51575 0.75723 0.1775 0.0
N554 N 0.52019 0.66459 0.24179 0.0
N555 N 0.5346 0.82969 0.21222 0.0
H556 H 0.50525 0.75056 0.09895 0.0
H557 H 0.50634 0.79757 0.12421 0.0
H558 H 0.53993 0.8512 0.24214 0.0
H559 H 0.54402 0.84581 0.17745 0.0
H560 H 0.52672 0.65527 0.27644 0.0
H561 H 0.52262 0.64647 0.21174 0.0
H562 H 0.49412 0.67329 0.33035 0.0
H563 H 0.49973 0.7224 0.3553 0.0
C564 C 0.75388 0.52239 0.61104 0.0
C565 C 0.71351 0.52322 0.60402 0.0
C566 C 0.72663 0.52848 0.51277 0.0
C567 C 0.76699 0.52767 0.51985 0.0
N568 N 0.82516 0.5373 0.57553 0.0
N569 N 0.66844 0.53987 0.54995 0.0
C570 C 0.78265 0.52932 0.56906 0.0
C571 C 0.7024 0.53073 0.55535 0.0
N572 N 0.76329 0.51148 0.6568 0.0
N573 N 0.70949 0.52371 0.4659 0.0
H574 H 0.65046 0.54202 0.58056 0.0
H575 H 0.6612 0.54974 0.51607 0.0
H576 H 0.72571 0.52185 0.4336 0.0
H577 H 0.67756 0.51835 0.45933 0.0
H578 H 0.78923 0.5048 0.66239 0.0
H579 H 0.74335 0.50559 0.68866 0.0
H580 H 0.84013 0.54302 0.6104 0.0
H581 H 0.84695 0.54281 0.5454 0.0
C582 C 0.16948 0.71111 0.8761 0.0
C583 C 0.18213 0.72198 0.92667 0.0
C584 C 0.24458 0.7949 0.89885 0.0
C585 C 0.23669 0.78049 0.84843 0.0
N586 N 0.1922 0.72374 0.7885 0.0
N587 N 0.23251 0.774 0.98699 0.0
C588 C 0.19868 0.73868 0.83673 0.0
C589 C 0.21936 0.76429 0.93839 0.0
N590 N 0.12945 0.67414 0.86593 0.0
N591 N 0.27658 0.83795 0.90868 0.0
H592 H 0.21459 0.75299 1.01699 0.0
H593 H 0.26247 0.80162 0.99745 0.0
H594 H 0.29526 0.86076 0.88021 0.0
H595 H 0.2817 0.85219 0.94407 0.0
H596 H 0.11608 0.66626 0.83022 0.0
H597 H 0.10759 0.65366 0.89422 0.0
H598 H 0.16876 0.69123 0.77855 0.0
H599 H 0.21204 0.74302 0.75842 0.0
loop_
_geom_bond_atom_site_label_1
_geom_bond_atom_site_label_2
_geom_bond_distance
_geom_bond_site_symmetry_2
_ccdc_geom_bond_type
C0 O2 1.247 . S
C0 O4 1.258 . S
C1 O8 1.247 . S
C1 O9 1.258 . S
O2 C0 1.247 . S
O2 Zn3 2.028 . S
Zn3 O2 2.028 . S
Zn3 O7 2.035 . S
Zn3 O9 2.035 . S
Zn3 O10 2.028 . S
O4 C0 1.258 . S
O4 Zn5 2.035 . S
Zn5 O4 2.035 . S
Zn5 O6 2.028 . S
Zn5 O8 2.028 . S
Zn5 O11 2.035 . S
O6 Zn5 2.028 . S
O6 C12 1.247 . S
O7 Zn3 2.035 . S
O7 C12 1.258 . S
O8 C1 1.247 . S
O8 Zn5 2.028 . S
O9 C1 1.258 . S
O9 Zn3 2.035 . S
O10 Zn3 2.028 . S
O10 C13 1.247 . S
O11 Zn5 2.035 . S
O11 C13 1.258 . S
C12 O6 1.247 . S
C12 O7 1.258 . S
C13 O10 1.247 . S
C13 O11 1.258 . S
C14 O16 1.247 . S
C14 O18 1.258 . S
C15 O22 1.247 . S
C15 O23 1.258 . S
O16 C14 1.247 . S
O16 Zn17 2.028 . S
Zn17 O16 2.028 . S
Zn17 O21 2.035 . S
Zn17 O23 2.035 . S
Zn17 O24 2.028 . S
O18 C14 1.258 . S
O18 Zn19 2.035 . S
Zn19 O18 2.035 . S
Zn19 O20 2.028 . S
Zn19 O22 2.028 . S
Zn19 O25 2.035 . S
O20 Zn19 2.028 . S
O20 C26 1.247 . S
O21 Zn17 2.035 . S
O21 C26 1.258 . S
O22 C15 1.247 . S
O22 Zn19 2.028 . S
O23 C15 1.258 . S
O23 Zn17 2.035 . S
O24 Zn17 2.028 . S
O24 C27 1.247 . S
O25 Zn19 2.035 . S
O25 C27 1.258 . S
C26 O20 1.247 . S
C26 O21 1.258 . S
C27 O24 1.247 . S
C27 O25 1.258 . S
C28 O30 1.247 . S
C28 O32 1.258 . S
C29 O36 1.247 . S
C29 O37 1.258 . S
O30 C28 1.247 . S
O30 Zn31 2.028 . S
Zn31 O30 2.028 . S
Zn31 O35 2.035 . S
Zn31 O37 2.035 1_554 S
Zn31 O38 2.028 . S
O32 C28 1.258 . S
O32 Zn33 2.035 1_554 S
Zn33 O32 2.035 1_556 S
Zn33 O34 2.028 . S
Zn33 O36 2.028 . S
Zn33 O39 2.035 . S
O34 Zn33 2.028 . S
O34 C40 1.247 1_556 S
O35 Zn31 2.035 . S
O35 C40 1.258 . S
O36 C29 1.247 . S
O36 Zn33 2.028 . S
O37 C29 1.258 . S
O37 Zn31 2.035 1_556 S
O38 Zn31 2.028 . S
O38 C41 1.247 1_554 S
O39 Zn33 2.035 . S
O39 C41 1.258 . S
C40 O34 1.247 1_554 S
C40 O35 1.258 . S
C41 O38 1.247 1_556 S
C41 O39 1.258 . S
C42 O44 1.247 . S
C42 O46 1.258 . S
C43 O50 1.247 . S
C43 O51 1.258 . S
O44 C42 1.247 . S
O44 Zn45 2.028 . S
Zn45 O44 2.028 . S
Zn45 O49 2.035 . S
Zn45 O51 2.035 . S
Zn45 O52 2.028 . S
O46 C42 1.258 . S
O46 Zn47 2.035 . S
Zn47 O46 2.035 . S
Zn47 O48 2.028 . S
Zn47 O50 2.028 . S
Zn47 O53 2.035 . S
O48 Zn47 2.028 . S
O48 C54 1.247 . S
O49 Zn45 2.035 . S
O49 C54 1.258 . S
O50 C43 1.247 . S
O50 Zn47 2.028 . S
O51 C43 1.258 . S
O51 Zn45 2.035 . S
O52 Zn45 2.028 . S
O52 C55 1.247 . S
O53 Zn47 2.035 . S
O53 C55 1.258 . S
C54 O48 1.247 . S
C54 O49 1.258 . S
C55 O52 1.247 . S
C55 O53 1.258 . S
C56 O58 1.247 . S
C56 O60 1.258 . S
C57 O64 1.247 . S
C57 O65 1.258 . S
O58 C56 1.247 . S
O58 Zn59 2.028 . S
Zn59 O58 2.028 . S
Zn59 O63 2.035 . S
Zn59 O65 2.035 . S
Zn59 O66 2.028 . S
O60 C56 1.258 . S
O60 Zn61 2.035 . S
Zn61 O60 2.035 . S
Zn61 O62 2.028 . S
Zn61 O64 2.028 . S
Zn61 O67 2.035 . S
O62 Zn61 2.028 . S
O62 C68 1.247 . S
O63 Zn59 2.035 . S
O63 C68 1.258 . S
O64 C57 1.247 . S
O64 Zn61 2.028 . S
O65 C57 1.258 . S
O65 Zn59 2.035 . S
O66 Zn59 2.028 . S
O66 C69 1.247 . S
O67 Zn61 2.035 . S
O67 C69 1.258 . S
C68 O62 1.247 . S
C68 O63 1.258 . S
C69 O66 1.247 . S
C69 O67 1.258 . S
C70 O72 1.247 . S
C70 O74 1.258 . S
C71 O78 1.247 . S
C71 O79 1.258 . S
O72 C70 1.247 . S
O72 Zn73 2.028 . S
Zn73 O72 2.028 . S
Zn73 O77 2.035 . S
Zn73 O79 2.035 1_554 S
Zn73 O80 2.028 . S
O74 C70 1.258 . S
O74 Zn75 2.035 1_554 S
Zn75 O74 2.035 1_556 S
Zn75 O76 2.028 . S
Zn75 O78 2.028 . S
Zn75 O81 2.035 . S
O76 Zn75 2.028 . S
O76 C82 1.247 1_556 S
O77 Zn73 2.035 . S
O77 C82 1.258 . S
O78 C71 1.247 . S
O78 Zn75 2.028 . S
O79 C71 1.258 . S
O79 Zn73 2.035 1_556 S
O80 Zn73 2.028 . S
O80 C83 1.247 1_554 S
O81 Zn75 2.035 . S
O81 C83 1.258 . S
C82 O76 1.247 1_554 S
C82 O77 1.258 . S
C83 O80 1.247 1_556 S
C83 O81 1.258 . S
C84 O86 1.247 . S
C84 O88 1.258 . S
C85 O92 1.247 . S
C85 O93 1.258 . S
O86 C84 1.247 . S
O86 Zn87 2.028 . S
Zn87 O86 2.028 . S
Zn87 O91 2.035 . S
Zn87 O93 2.035 . S
Zn87 O94 2.028 . S
O88 C84 1.258 . S
O88 Zn89 2.035 . S
Zn89 O88 2.035 . S
Zn89 O90 2.028 . S
Zn89 O92 2.028 . S
Zn89 O95 2.035 . S
O90 Zn89 2.028 . S
O90 C96 1.247 . S
O91 Zn87 2.035 . S
O91 C96 1.258 . S
O92 C85 1.247 . S
O92 Zn89 2.028 . S
O93 C85 1.258 . S
O93 Zn87 2.035 . S
O94 Zn87 2.028 . S
O94 C97 1.247 . S
O95 Zn89 2.035 . S
O95 C97 1.258 . S
C96 O90 1.247 . S
C96 O91 1.258 . S
C97 O94 1.247 . S
C97 O95 1.258 . S
C98 O100 1.247 . S
C98 O102 1.258 . S
C99 O106 1.247 . S
C99 O107 1.258 . S
O100 C98 1.247 . S
O100 Zn101 2.028 . S
Zn101 O100 2.028 . S
Zn101 O105 2.035 . S
Zn101 O107 2.035 . S
Zn101 O108 2.028 . S
O102 C98 1.258 . S
O102 Zn103 2.035 . S
Zn103 O102 2.035 . S
Zn103 O104 2.028 . S
Zn103 O106 2.028 . S
Zn103 O109 2.035 . S
O104 Zn103 2.028 . S
O104 C110 1.247 . S
O105 Zn101 2.035 . S
O105 C110 1.258 . S
O106 C99 1.247 . S
O106 Zn103 2.028 . S
O107 C99 1.258 . S
O107 Zn101 2.035 . S
O108 Zn101 2.028 . S
O108 C111 1.247 . S
O109 Zn103 2.035 . S
O109 C111 1.258 . S
C110 O104 1.247 . S
C110 O105 1.258 . S
C111 O108 1.247 . S
C111 O109 1.258 . S
C112 O114 1.247 . S
C112 O116 1.258 . S
C113 O120 1.247 . S
C113 O121 1.258 . S
O114 C112 1.247 . S
O114 Zn115 2.028 . S
Zn115 O114 2.028 . S
Zn115 O119 2.035 . S
Zn115 O121 2.035 1_556 S
Zn115 O122 2.028 . S
O116 C112 1.258 . S
O116 Zn117 2.035 1_556 S
Zn117 O116 2.035 1_554 S
Zn117 O118 2.028 . S
Zn117 O120 2.028 . S
Zn117 O123 2.035 . S
O118 Zn117 2.028 . S
O118 C124 1.247 1_554 S
O119 Zn115 2.035 . S
O119 C124 1.258 . S
O120 C113 1.247 . S
O120 Zn117 2.028 . S
O121 C113 1.258 . S
O121 Zn115 2.035 1_554 S
O122 Zn115 2.028 . S
O122 C125 1.247 1_556 S
O123 Zn117 2.035 . S
O123 C125 1.258 . S
C124 O118 1.247 1_556 S
C124 O119 1.258 . S
C125 O122 1.247 1_554 S
C125 O123 1.258 . S
C126 O128 1.247 . S
C126 O130 1.258 . S
C127 O134 1.247 . S
C127 O135 1.258 . S
O128 C126 1.247 . S
O128 Zn129 2.028 . S
Zn129 O128 2.028 . S
Zn129 O133 2.035 . S
Zn129 O135 2.035 . S
Zn129 O136 2.028 . S
O130 C126 1.258 . S
O130 Zn131 2.035 . S
Zn131 O130 2.035 . S
Zn131 O132 2.028 . S
Zn131 O134 2.028 . S
Zn131 O137 2.035 . S
O132 Zn131 2.028 . S
O132 C138 1.247 . S
O133 Zn129 2.035 . S
O133 C138 1.258 . S
O134 C127 1.247 . S
O134 Zn131 2.028 . S
O135 C127 1.258 . S
O135 Zn129 2.035 . S
O136 Zn129 2.028 . S
O136 C139 1.247 . S
O137 Zn131 2.035 . S
O137 C139 1.258 . S
C138 O132 1.247 . S
C138 O133 1.258 . S
C139 O136 1.247 . S
C139 O137 1.258 . S
C140 O142 1.247 . S
C140 O144 1.258 . S
C141 O148 1.247 . S
C141 O149 1.258 . S
O142 C140 1.247 . S
O142 Zn143 2.028 . S
Zn143 O142 2.028 . S
Zn143 O147 2.035 . S
Zn143 O149 2.035 . S
Zn143 O150 2.028 . S
O144 C140 1.258 . S
O144 Zn145 2.035 . S
Zn145 O144 2.035 . S
Zn145 O146 2.028 . S
Zn145 O148 2.028 . S
Zn145 O151 2.035 . S
O146 Zn145 2.028 . S
O146 C152 1.247 . S
O147 Zn143 2.035 . S
O147 C152 1.258 . S
O148 C141 1.247 . S
O148 Zn145 2.028 . S
O149 C141 1.258 . S
O149 Zn143 2.035 . S
O150 Zn143 2.028 . S
O150 C153 1.247 . S
O151 Zn145 2.035 . S
O151 C153 1.258 . S
C152 O146 1.247 . S
C152 O147 1.258 . S
C153 O150 1.247 . S
C153 O151 1.258 . S
C154 O156 1.247 . S
C154 O158 1.258 . S
C155 O162 1.247 . S
C155 O163 1.258 . S
O156 C154 1.247 . S
O156 Zn157 2.028 . S
Zn157 O156 2.028 . S
Zn157 O161 2.035 . S
Zn157 O163 2.035 1_556 S
Zn157 O164 2.028 . S
O158 C154 1.258 . S
O158 Zn159 2.035 1_556 S
Zn159 O158 2.035 1_554 S
Zn159 O160 2.028 . S
Zn159 O162 2.028 . S
Zn159 O165 2.035 . S
O160 Zn159 2.028 . S
O160 C166 1.247 1_554 S
O161 Zn157 2.035 . S
O161 C166 1.258 . S
O162 C155 1.247 . S
O162 Zn159 2.028 . S
O163 C155 1.258 . S
O163 Zn157 2.035 1_554 S
O164 Zn157 2.028 . S
O164 C167 1.247 1_556 S
O165 Zn159 2.035 . S
O165 C167 1.258 . S
C166 O160 1.247 1_556 S
C166 O161 1.258 . S
C167 O164 1.247 1_554 S
C167 O165 1.258 . S
C168 C169 1.363 . S
C168 C174 1.379 . S
C168 N176 1.356 . S
C169 C168 1.363 . S
C169 C175 1.363 . S
C170 C171 1.363 . S
C170 C175 1.379 . S
C170 N177 1.356 . S
C171 C170 1.363 . S
C171 C174 1.363 . S
N172 C174 1.356 . S
N172 H184 0.984 . S
N172 H185 0.985 . S
N173 C175 1.356 . S
N173 H178 0.984 . S
N173 H179 0.985 . S
C174 C168 1.379 . S
C174 C171 1.363 . S
C174 N172 1.356 . S
C175 C169 1.363 . S
C175 C170 1.379 . S
C175 N173 1.356 . S
N176 C168 1.356 . S
N176 H182 0.984 . S
N176 H183 0.984 . S
N177 C170 1.356 . S
N177 H180 0.984 . S
N177 H181 0.985 . S
H178 N173 0.984 . S
H179 N173 0.985 . S
H180 N177 0.984 . S
H181 N177 0.985 . S
H182 N176 0.984 . S
H183 N176 0.984 . S
H184 N172 0.984 . S
H185 N172 0.985 . S
C186 C187 1.363 . S
C186 C192 1.379 . S
C186 N194 1.356 . S
C187 C186 1.363 . S
C187 C193 1.363 . S
C188 C189 1.363 . S
C188 C193 1.379 . S
C188 N195 1.356 . S
C189 C188 1.363 . S
C189 C192 1.363 . S
N190 C192 1.356 . S
N190 H202 0.984 . S
N190 H203 0.985 . S
N191 C193 1.356 . S
N191 H196 0.984 . S
N191 H197 0.985 . S
C192 C186 1.379 . S
C192 C189 1.363 . S
C192 N190 1.356 . S
C193 C187 1.363 . S
C193 C188 1.379 . S
C193 N191 1.356 . S
N194 C186 1.356 . S
N194 H200 0.984 . S
N194 H201 0.984 . S
N195 C188 1.356 . S
N195 H198 0.984 . S
N195 H199 0.985 . S
H196 N191 0.984 . S
H197 N191 0.985 . S
H198 N195 0.984 . S
H199 N195 0.985 . S
H200 N194 0.984 . S
H201 N194 0.984 . S
H202 N190 0.984 . S
H203 N190 0.985 . S
C204 C205 1.363 . S
C204 C210 1.379 . S
C204 N212 1.356 . S
C205 C204 1.363 . S
C205 C211 1.363 . S
C206 C207 1.363 . S
C206 C211 1.379 . S
C206 N213 1.356 . S
C207 C206 1.363 . S
C207 C210 1.363 . S
N208 C210 1.356 . S
N208 H220 0.984 . S
N208 H221 0.985 . S
N209 C211 1.356 . S
N209 H214 0.984 . S
N209 H215 0.985 . S
C210 C204 1.379 . S
C210 C207 1.363 . S
C210 N208 1.356 . S
C211 C205 1.363 . S
C211 C206 1.379 . S
C211 N209 1.356 . S
N212 C204 1.356 . S
N212 H218 0.984 . S
N212 H219 0.984 . S
N213 C206 1.356 . S
N213 H216 0.984 . S
N213 H217 0.985 . S
H214 N209 0.984 . S
H215 N209 0.985 . S
H216 N213 0.984 . S
H217 N213 0.985 . S
H218 N212 0.984 . S
H219 N212 0.984 . S
H220 N208 0.984 . S
H221 N208 0.985 . S
C222 C223 1.363 . S
C222 C228 1.379 . S
C222 N230 1.356 . S
C223 C222 1.363 . S
C223 C229 1.363 . S
C224 C225 1.363 . S
C224 C229 1.379 . S
C224 N231 1.356 . S
C225 C224 1.363 . S
C225 C228 1.363 . S
N226 C228 1.356 . S
N226 H238 0.984 . S
N226 H239 0.985 . S
N227 C229 1.356 . S
N227 H232 0.984 . S
N227 H233 0.985 . S
C228 C222 1.379 . S
C228 C225 1.363 . S
C228 N226 1.356 . S
C229 C223 1.363 . S
C229 C224 1.379 . S
C229 N227 1.356 . S
N230 C222 1.356 . S
N230 H236 0.984 . S
N230 H237 0.984 . S
N231 C224 1.356 . S
N231 H234 0.984 . S
N231 H235 0.985 . S
H232 N227 0.984 . S
H233 N227 0.985 . S
H234 N231 0.984 . S
H235 N231 0.985 . S
H236 N230 0.984 . S
H237 N230 0.984 . S
H238 N226 0.984 . S
H239 N226 0.985 . S
C240 C241 1.363 . S
C240 C246 1.379 . S
C240 N248 1.356 . S
C241 C240 1.363 . S
C241 C247 1.363 . S
C242 C243 1.363 . S
C242 C247 1.379 . S
C242 N249 1.356 . S
C243 C242 1.363 . S
C243 C246 1.363 . S
N244 C246 1.356 . S
N244 H256 0.984 . S
N244 H257 0.985 . S
N245 C247 1.356 . S
N245 H250 0.984 . S
N245 H251 0.985 . S
C246 C240 1.379 . S
C246 C243 1.363 . S
C246 N244 1.356 . S
C247 C241 1.363 . S
C247 C242 1.379 . S
C247 N245 1.356 . S
N248 C240 1.356 . S
N248 H254 0.984 . S
N248 H255 0.984 . S
N249 C242 1.356 . S
N249 H252 0.984 . S
N249 H253 0.985 . S
H250 N245 0.984 . S
H251 N245 0.985 . S
H252 N249 0.984 . S
H253 N249 0.985 . S
H254 N248 0.984 . S
H255 N248 0.984 . S
H256 N244 0.984 . S
H257 N244 0.985 . S
C258 C259 1.363 . S
C258 C264 1.379 . S
C258 N266 1.356 . S
C259 C258 1.363 . S
C259 C265 1.363 . S
C260 C261 1.363 . S
C260 C265 1.379 . S
C260 N267 1.356 . S
C261 C260 1.363 . S
C261 C264 1.363 . S
N262 C264 1.356 . S
N262 H274 0.984 . S
N262 H275 0.985 . S
N263 C265 1.356 . S
N263 H268 0.984 . S
N263 H269 0.985 . S
C264 C258 1.379 . S
C264 C261 1.363 . S
C264 N262 1.356 . S
C265 C259 1.363 . S
C265 C260 1.379 . S
C265 N263 1.356 . S
N266 C258 1.356 . S
N266 H272 0.984 . S
N266 H273 0.984 . S
N267 C260 1.356 . S
N267 H270 0.984 . S
N267 H271 0.985 . S
H268 N263 0.984 . S
H269 N263 0.985 . S
H270 N267 0.984 . S
H271 N267 0.985 . S
H272 N266 0.984 . S
H273 N266 0.984 . S
H274 N262 0.984 . S
H275 N262 0.985 . S
C276 C277 1.363 . S
C276 C282 1.379 . S
C276 N284 1.356 . S
C277 C276 1.363 . S
C277 C283 1.363 . S
C278 C279 1.363 . S
C278 C283 1.379 . S
C278 N285 1.356 . S
C279 C278 1.363 . S
C279 C282 1.363 . S
N280 C282 1.356 . S
N280 H292 0.984 . S
N280 H293 0.985 . S
N281 C283 1.356 . S
N281 H286 0.984 . S
N281 H287 0.985 . S
C282 C276 1.379 . S
C282 C279 1.363 . S
C282 N280 1.356 . S
C283 C277 1.363 . S
C283 C278 1.379 . S
C283 N281 1.356 . S
N284 C276 1.356 . S
N284 H290 0.984 . S
N284 H291 0.984 . S
N285 C278 1.356 . S
N285 H288 0.984 . S
N285 H289 0.985 . S
H286 N281 0.984 . S
H287 N281 0.985 . S
H288 N285 0.984 . S
H289 N285 0.985 . S
H290 N284 0.984 . S
H291 N284 0.984 . S
H292 N280 0.984 . S
H293 N280 0.985 . S
C294 C295 1.363 . S
C294 C300 1.379 . S
C294 N302 1.356 . S
C295 C294 1.363 . S
C295 C301 1.363 . S
C296 C297 1.363 . S
C296 C301 1.379 . S
C296 N303 1.356 . S
C297 C296 1.363 . S
C297 C300 1.363 . S
N298 C300 1.356 . S
N298 H310 0.984 . S
N298 H311 0.985 . S
N299 C301 1.356 . S
N299 H304 0.984 . S
N299 H305 0.985 . S
C300 C294 1.379 . S
C300 C297 1.363 . S
C300 N298 1.356 . S
C301 C295 1.363 . S
C301 C296 1.379 . S
C301 N299 1.356 . S
N302 C294 1.356 . S
N302 H308 0.984 . S
N302 H309 0.984 . S
N303 C296 1.356 . S
N303 H306 0.984 . S
N303 H307 0.985 . S
H304 N299 0.984 . S
H305 N299 0.985 . S
H306 N303 0.984 . S
H307 N303 0.985 . S
H308 N302 0.984 . S
H309 N302 0.984 . S
H310 N298 0.984 . S
H311 N298 0.985 . S
C312 C313 1.363 1_554 S
C312 C318 1.379 . S
C312 N320 1.356 . S
C313 C312 1.363 1_556 S
C313 C319 1.363 . S
C314 C315 1.363 1_556 S
C314 C319 1.379 . S
C314 N321 1.356 . S
C315 C314 1.363 1_554 S
C315 C318 1.363 . S
N316 C318 1.356 . S
N316 H328 0.984 . S
N316 H329 0.985 . S
N317 C319 1.356 . S
N317 H322 0.984 . S
N317 H323 0.985 . S
C318 C312 1.379 . S
C318 C315 1.363 . S
C318 N316 1.356 . S
C319 C313 1.363 . S
C319 C314 1.379 . S
C319 N317 1.356 . S
N320 C312 1.356 . S
N320 H326 0.984 . S
N320 H327 0.984 . S
N321 C314 1.356 . S
N321 H324 0.984 . S
N321 H325 0.985 . S
H322 N317 0.984 . S
H323 N317 0.985 . S
H324 N321 0.984 . S
H325 N321 0.985 . S
H326 N320 0.984 . S
H327 N320 0.984 . S
H328 N316 0.984 . S
H329 N316 0.985 . S
C330 C331 1.363 . S
C330 C336 1.379 . S
C330 N338 1.356 . S
C331 C330 1.363 . S
C331 C337 1.363 . S
C332 C333 1.363 . S
C332 C337 1.379 . S
C332 N339 1.356 . S
C333 C332 1.363 . S
C333 C336 1.363 . S
N334 C336 1.356 . S
N334 H346 0.984 . S
N334 H347 0.985 . S
N335 C337 1.356 . S
N335 H340 0.984 . S
N335 H341 0.985 . S
C336 C330 1.379 . S
C336 C333 1.363 . S
C336 N334 1.356 . S
C337 C331 1.363 . S
C337 C332 1.379 . S
C337 N335 1.356 . S
N338 C330 1.356 . S
N338 H344 0.984 . S
N338 H345 0.984 . S
N339 C332 1.356 . S
N339 H342 0.984 . S
N339 H343 0.985 . S
H340 N335 0.984 . S
H341 N335 0.985 . S
H342 N339 0.984 . S
H343 N339 0.985 . S
H344 N338 0.984 . S
H345 N338 0.984 . S
H346 N334 0.984 . S
H347 N334 0.985 . S
C348 C349 1.363 . S
C348 C354 1.379 . S
C348 N356 1.356 . S
C349 C348 1.363 . S
C349 C355 1.363 . S
C350 C351 1.363 . S
C350 C355 1.379 . S
C350 N357 1.356 . S
C351 C350 1.363 . S
C351 C354 1.363 . S
N352 C354 1.356 . S
N352 H364 0.984 . S
N352 H365 0.985 . S
N353 C355 1.356 . S
N353 H358 0.984 . S
N353 H359 0.985 . S
C354 C348 1.379 . S
C354 C351 1.363 . S
C354 N352 1.356 . S
C355 C349 1.363 . S
C355 C350 1.379 . S
C355 N353 1.356 . S
N356 C348 1.356 . S
N356 H362 0.984 . S
N356 H363 0.984 . S
N357 C350 1.356 . S
N357 H360 0.984 . S
N357 H361 0.985 . S
H358 N353 0.984 . S
H359 N353 0.985 . S
H360 N357 0.984 . S
H361 N357 0.985 . S
H362 N356 0.984 . S
H363 N356 0.984 . S
H364 N352 0.984 . S
H365 N352 0.985 . S
C366 C367 1.363 1_556 S
C366 C372 1.379 . S
C366 N374 1.356 . S
C367 C366 1.363 1_554 S
C367 C373 1.363 . S
C368 C369 1.363 1_554 S
C368 C373 1.379 . S
C368 N375 1.356 . S
C369 C368 1.363 1_556 S
C369 C372 1.363 . S
N370 C372 1.356 . S
N370 H382 0.984 . S
N370 H383 0.985 . S
N371 C373 1.356 . S
N371 H376 0.984 . S
N371 H377 0.985 . S
C372 C366 1.379 . S
C372 C369 1.363 . S
C372 N370 1.356 . S
C373 C367 1.363 . S
C373 C368 1.379 . S
C373 N371 1.356 . S
N374 C366 1.356 . S
N374 H380 0.984 . S
N374 H381 0.984 . S
N375 C368 1.356 . S
N375 H378 0.984 . S
N375 H379 0.985 . S
H376 N371 0.984 . S
H377 N371 0.985 . S
H378 N375 0.984 . S
H379 N375 0.985 . S
H380 N374 0.984 . S
H381 N374 0.984 . S
H382 N370 0.984 . S
H383 N370 0.985 . S
C384 C385 1.363 1_565 S
C384 C390 1.379 . S
C384 N392 1.356 1_565 S
C385 C384 1.363 1_545 S
C385 C391 1.363 . S
C386 C387 1.363 1_545 S
C386 C391 1.379 . S
C386 N393 1.356 1_545 S
C387 C386 1.363 1_565 S
C387 C390 1.363 . S
N388 C390 1.356 . S
N388 H400 0.984 . S
N388 H401 0.985 . S
N389 C391 1.356 . S
N389 H394 0.984 . S
N389 H395 0.985 . S
C390 C384 1.379 . S
C390 C387 1.363 . S
C390 N388 1.356 . S
C391 C385 1.363 . S
C391 C386 1.379 . S
C391 N389 1.356 . S
N392 C384 1.356 1_545 S
N392 H398 0.984 1_545 S
N392 H399 0.984 . S
N393 C386 1.356 1_565 S
N393 H396 0.984 . S
N393 H397 0.985 1_565 S
H394 N389 0.984 . S
H395 N389 0.985 . S
H396 N393 0.984 . S
H397 N393 0.985 1_545 S
H398 N392 0.984 1_565 S
H399 N392 0.984 . S
H400 N388 0.984 . S
H401 N388 0.985 . S
C402 C403 1.363 . S
C402 C408 1.379 . S
C402 N410 1.356 . S
C403 C402 1.363 . S
C403 C409 1.363 . S
C404 C405 1.363 . S
C404 C409 1.379 . S
C404 N411 1.356 . S
C405 C404 1.363 . S
C405 C408 1.363 . S
N406 C408 1.356 . S
N406 H418 0.984 . S
N406 H419 0.985 . S
N407 C409 1.356 . S
N407 H412 0.984 . S
N407 H413 0.985 . S
C408 C402 1.379 . S
C408 C405 1.363 . S
C408 N406 1.356 . S
C409 C403 1.363 . S
C409 C404 1.379 . S
C409 N407 1.356 . S
N410 C402 1.356 . S
N410 H416 0.984 . S
N410 H417 0.984 . S
N411 C404 1.356 . S
N411 H414 0.984 . S
N411 H415 0.985 . S
H412 N407 0.984 . S
H413 N407 0.985 . S
H414 N411 0.984 . S
H415 N411 0.985 . S
H416 N410 0.984 . S
H417 N410 0.984 . S
H418 N406 0.984 . S
H419 N406 0.985 . S
C420 C421 1.363 1_554 S
C420 C426 1.379 . S
C420 N428 1.356 . S
C421 C420 1.363 1_556 S
C421 C427 1.363 1_655 S
C422 C423 1.363 . S
C422 C427 1.379 . S
C422 N429 1.356 . S
C423 C422 1.363 . S
C423 C426 1.363 1_456 S
N424 C426 1.356 1_455 S
N424 H436 0.984 1_455 S
N424 H437 0.985 . S
N425 C427 1.356 1_655 S
N425 H430 0.984 . S
N425 H431 0.985 1_655 S
C426 C420 1.379 . S
C426 C423 1.363 1_654 S
C426 N424 1.356 1_655 S
C427 C421 1.363 1_455 S
C427 C422 1.379 . S
C427 N425 1.356 1_455 S
N428 C420 1.356 . S
N428 H434 0.984 . S
N428 H435 0.984 . S
N429 C422 1.356 . S
N429 H432 0.984 . S
N429 H433 0.985 . S
H430 N425 0.984 . S
H431 N425 0.985 1_455 S
H432 N429 0.984 . S
H433 N429 0.985 . S
H434 N428 0.984 . S
H435 N428 0.984 . S
H436 N424 0.984 1_655 S
H437 N424 0.985 . S
C438 C439 1.363 1_655 S
C438 C444 1.379 . S
C438 N446 1.356 1_655 S
C439 C438 1.363 1_455 S
C439 C445 1.363 . S
C440 C441 1.363 1_455 S
C440 C445 1.379 . S
C440 N447 1.356 1_455 S
C441 C440 1.363 1_655 S
C441 C444 1.363 . S
N442 C444 1.356 . S
N442 H454 0.984 . S
N442 H455 0.985 . S
N443 C445 1.356 . S
N443 H448 0.984 . S
N443 H449 0.985 . S
C444 C438 1.379 . S
C444 C441 1.363 . S
C444 N442 1.356 . S
C445 C439 1.363 . S
C445 C440 1.379 . S
C445 N443 1.356 . S
N446 C438 1.356 1_455 S
N446 H452 0.984 1_455 S
N446 H453 0.984 . S
N447 C440 1.356 1_655 S
N447 H450 0.984 . S
N447 H451 0.985 1_655 S
H448 N443 0.984 . S
H449 N443 0.985 . S
H450 N447 0.984 . S
H451 N447 0.985 1_455 S
H452 N446 0.984 1_655 S
H453 N446 0.984 . S
H454 N442 0.984 . S
H455 N442 0.985 . S
C456 C457 1.363 1_565 S
C456 C462 1.379 . S
C456 N464 1.356 1_565 S
C457 C456 1.363 1_545 S
C457 C463 1.363 . S
C458 C459 1.363 1_545 S
C458 C463 1.379 . S
C458 N465 1.356 1_545 S
C459 C458 1.363 1_565 S
C459 C462 1.363 . S
N460 C462 1.356 . S
N460 H472 0.984 . S
N460 H473 0.985 . S
N461 C463 1.356 . S
N461 H466 0.984 . S
N461 H467 0.985 . S
C462 C456 1.379 . S
C462 C459 1.363 . S
C462 N460 1.356 . S
C463 C457 1.363 . S
C463 C458 1.379 . S
C463 N461 1.356 . S
N464 C456 1.356 1_545 S
N464 H470 0.984 1_545 S
N464 H471 0.984 . S
N465 C458 1.356 1_565 S
N465 H468 0.984 . S
N465 H469 0.985 1_565 S
H466 N461 0.984 . S
H467 N461 0.985 . S
H468 N465 0.984 . S
H469 N465 0.985 1_545 S
H470 N464 0.984 1_565 S
H471 N464 0.984 . S
H472 N460 0.984 . S
H473 N460 0.985 . S
C474 C475 1.363 . S
C474 C480 1.379 . S
C474 N482 1.356 . S
C475 C474 1.363 . S
C475 C481 1.363 1_554 S
C476 C477 1.363 1_556 S
C476 C481 1.379 . S
C476 N483 1.356 . S
C477 C476 1.363 1_554 S
C477 C480 1.363 . S
N478 C480 1.356 . S
N478 H490 0.984 . S
N478 H491 0.985 . S
N479 C481 1.356 . S
N479 H484 0.984 . S
N479 H485 0.985 . S
C480 C474 1.379 . S
C480 C477 1.363 . S
C480 N478 1.356 . S
C481 C475 1.363 1_556 S
C481 C476 1.379 . S
C481 N479 1.356 . S
N482 C474 1.356 . S
N482 H488 0.984 . S
N482 H489 0.984 . S
N483 C476 1.356 . S
N483 H486 0.984 . S
N483 H487 0.985 . S
H484 N479 0.984 . S
H485 N479 0.985 . S
H486 N483 0.984 . S
H487 N483 0.985 . S
H488 N482 0.984 . S
H489 N482 0.984 . S
H490 N478 0.984 . S
H491 N478 0.985 . S
C492 C493 1.363 . S
C492 C498 1.379 . S
C492 N500 1.356 . S
C493 C492 1.363 . S
C493 C499 1.363 . S
C494 C495 1.363 . S
C494 C499 1.379 . S
C494 N501 1.356 . S
C495 C494 1.363 . S
C495 C498 1.363 . S
N496 C498 1.356 . S
N496 H508 0.984 . S
N496 H509 0.985 . S
N497 C499 1.356 . S
N497 H502 0.984 . S
N497 H503 0.985 . S
C498 C492 1.379 . S
C498 C495 1.363 . S
C498 N496 1.356 . S
C499 C493 1.363 . S
C499 C494 1.379 . S
C499 N497 1.356 . S
N500 C492 1.356 . S
N500 H506 0.984 . S
N500 H507 0.984 . S
N501 C494 1.356 . S
N501 H504 0.984 . S
N501 H505 0.985 . S
H502 N497 0.984 . S
H503 N497 0.985 . S
H504 N501 0.984 . S
H505 N501 0.985 . S
H506 N500 0.984 . S
H507 N500 0.984 . S
H508 N496 0.984 . S
H509 N496 0.985 . S
C510 C511 1.363 . S
C510 C516 1.379 . S
C510 N518 1.356 . S
C511 C510 1.363 . S
C511 C517 1.363 . S
C512 C513 1.363 . S
C512 C517 1.379 . S
C512 N519 1.356 . S
C513 C512 1.363 . S
C513 C516 1.363 . S
N514 C516 1.356 . S
N514 H526 0.984 . S
N514 H527 0.985 . S
N515 C517 1.356 . S
N515 H520 0.984 . S
N515 H521 0.985 . S
C516 C510 1.379 . S
C516 C513 1.363 . S
C516 N514 1.356 . S
C517 C511 1.363 . S
C517 C512 1.379 . S
C517 N515 1.356 . S
N518 C510 1.356 . S
N518 H524 0.984 . S
N518 H525 0.984 . S
N519 C512 1.356 . S
N519 H522 0.984 . S
N519 H523 0.985 . S
H520 N515 0.984 . S
H521 N515 0.985 . S
H522 N519 0.984 . S
H523 N519 0.985 . S
H524 N518 0.984 . S
H525 N518 0.984 . S
H526 N514 0.984 . S
H527 N514 0.985 . S
C528 C529 1.363 . S
C528 C534 1.379 . S
C528 N536 1.356 . S
C529 C528 1.363 . S
C529 C535 1.363 . S
C530 C531 1.363 . S
C530 C535 1.379 . S
C530 N537 1.356 . S
C531 C530 1.363 . S
C531 C534 1.363 . S
N532 C534 1.356 . S
N532 H544 0.984 . S
N532 H545 0.985 . S
N533 C535 1.356 . S
N533 H538 0.984 . S
N533 H539 0.985 . S
C534 C528 1.379 . S
C534 C531 1.363 . S
C534 N532 1.356 . S
C535 C529 1.363 . S
C535 C530 1.379 . S
C535 N533 1.356 . S
N536 C528 1.356 . S
N536 H542 0.984 . S
N536 H543 0.984 . S
N537 C530 1.356 . S
N537 H540 0.984 . S
N537 H541 0.985 . S
H538 N533 0.984 . S
H539 N533 0.985 . S
H540 N537 0.984 . S
H541 N537 0.985 . S
H542 N536 0.984 . S
H543 N536 0.984 . S
H544 N532 0.984 . S
H545 N532 0.985 . S
C546 C547 1.363 . S
C546 C552 1.379 . S
C546 N554 1.356 . S
C547 C546 1.363 . S
C547 C553 1.363 . S
C548 C549 1.363 . S
C548 C553 1.379 . S
C548 N555 1.356 . S
C549 C548 1.363 . S
C549 C552 1.363 . S
N550 C552 1.356 . S
N550 H562 0.984 . S
N550 H563 0.985 . S
N551 C553 1.356 . S
N551 H556 0.984 . S
N551 H557 0.985 . S
C552 C546 1.379 . S
C552 C549 1.363 . S
C552 N550 1.356 . S
C553 C547 1.363 . S
C553 C548 1.379 . S
C553 N551 1.356 . S
N554 C546 1.356 . S
N554 H560 0.984 . S
N554 H561 0.984 . S
N555 C548 1.356 . S
N555 H558 0.984 . S
N555 H559 0.985 . S
H556 N551 0.984 . S
H557 N551 0.985 . S
H558 N555 0.984 . S
H559 N555 0.985 . S
H560 N554 0.984 . S
H561 N554 0.984 . S
H562 N550 0.984 . S
H563 N550 0.985 . S
C564 C565 1.363 . S
C564 C570 1.379 . S
C564 N572 1.356 . S
C565 C564 1.363 . S
C565 C571 1.363 . S
C566 C567 1.363 . S
C566 C571 1.379 . S
C566 N573 1.356 . S
C567 C566 1.363 . S
C567 C570 1.363 . S
N568 C570 1.356 . S
N568 H580 0.984 . S
N568 H581 0.985 . S
N569 C571 1.356 . S
N569 H574 0.984 . S
N569 H575 0.985 . S
C570 C564 1.379 . S
C570 C567 1.363 . S
C570 N568 1.356 . S
C571 C565 1.363 . S
C571 C566 1.379 . S
C571 N569 1.356 . S
N572 C564 1.356 . S
N572 H578 0.984 . S
N572 H579 0.984 . S
N573 C566 1.356 . S
N573 H576 0.984 . S
N573 H577 0.985 . S
H574 N569 0.984 . S
H575 N569 0.985 . S
H576 N573 0.984 . S
H577 N573 0.985 . S
H578 N572 0.984 . S
H579 N572 0.984 . S
H580 N568 0.984 . S
H581 N568 0.985 . S
C582 C583 1.363 . S
C582 C588 1.379 . S
C582 N590 1.356 . S
C583 C582 1.363 . S
C583 C589 1.363 . S
C584 C585 1.363 . S
C584 C589 1.379 . S
C584 N591 1.356 . S
C585 C584 1.363 . S
C585 C588 1.363 . S
N586 C588 1.356 . S
N586 H598 0.984 . S
N586 H599 0.985 . S
N587 C589 1.356 . S
N587 H592 0.984 . S
N587 H593 0.985 . S
C588 C582 1.379 . S
C588 C585 1.363 . S
C588 N586 1.356 . S
C589 C583 1.363 . S
C589 C584 1.379 . S
C589 N587 1.356 . S
N590 C582 1.356 . S
N590 H596 0.984 . S
N590 H597 0.984 . S
N591 C584 1.356 . S
N591 H594 0.984 . S
N591 H595 0.985 . S
H592 N587 0.984 . S
H593 N587 0.985 . S
H594 N591 0.984 . S
H595 N591 0.985 . S
H596 N590 0.984 . S
H597 N590 0.984 . S
H598 N586 0.984 . S
H599 N586 0.985 . S
C169 C12 1.510 . S
C171 C141 1.509 . S
C187 C26 1.531 . S
C189 C154 1.533 . S
C205 C96 1.531 . S
C207 C28 1.533 . S
C223 C42 1.510 . S
C225 C110 1.510 . S
C241 C112 1.530 . S
C243 C57 1.533 . S
C259 C126 1.531 . S
C261 C70 1.533 . S
C277 C84 1.289 . S
C279 C0 1.289 . S
C295 C98 1.289 . S
C297 C14 1.289 . S
C313 C124 1.287 . S
C315 C40 1.287 . S
C331 C54 1.289 . S
C333 C138 1.289 . S
C349 C69 1.291 . S
C351 C153 1.291 . S
C367 C82 1.287 . S
C369 C166 1.287 . S
C385 C1 2.269 . S
C387 C55 2.269 . S
C403 C15 2.269 . S
C405 C68 2.263 . S
C421 C41 2.266 . S
C423 C83 2.266 . S
C439 C139 2.269 . S
C441 C85 2.269 . S
C457 C152 2.263 . S
C459 C99 2.269 . S
C475 C167 2.266 . S
C477 C125 2.266 . S
C493 C13 1.861 . S
C495 C113 1.859 . S
C511 C127 1.880 . S
C513 C27 1.880 . S
C529 C29 1.862 . S
C531 C140 1.858 . S
C547 C155 1.862 . S
C549 C43 1.859 . S
C565 C56 1.880 . S
C567 C97 1.880 . S
C583 C71 1.862 . S
C585 C111 1.859 . S
