# Generated by pormake.
# Topology umy, (4)-cn, num edge types: 1
# Building blocks:
#     Node 0, Type 0, BuildingBlock: CEKHIL_clean_sbu_0, # of connection points: 4
#     Node 1, Type 0, BuildingBlock: CEKHIL_clean_sbu_0, # of connection points: 4
#     Node 2, Type 0, BuildingBlock: CEKHIL_clean_sbu_0, # of connection points: 4
#     Node 3, Type 0, BuildingBlock: CEKHIL_clean_sbu_0, # of connection points: 4
#     Node 4, Type 0, BuildingBlock: CEKHIL_clean_sbu_0, # of connection points: 4
#     Node 5, Type 0, BuildingBlock: CEKHIL_clean_sbu_0, # of connection points: 4
#     Node 6, Type 0, BuildingBlock: CEKHIL_clean_sbu_0, # of connection points: 4
#     Node 7, Type 0, BuildingBlock: CEKHIL_clean_sbu_0, # of connection points: 4
#     Node 8, Type 0, BuildingBlock: CEKHIL_clean_sbu_0, # of connection points: 4
#     Node 9, Type 0, BuildingBlock: CEKHIL_clean_sbu_0, # of connection points: 4
#     Node 10, Type 0, BuildingBlock: CEKHIL_clean_sbu_0, # of connection points: 4
#     Node 11, Type 0, BuildingBlock: CEKHIL_clean_sbu_0, # of connection points: 4
#     Edge 12, Type (0, 0), BuildingBlock: CIFDUS_clean_linker_0, # of connection points: 2
#     Edge 13, Type (0, 0), BuildingBlock: CIFDUS_clean_linker_0, # of connection points: 2
#     Edge 14, Type (0, 0), BuildingBlock: CIFDUS_clean_linker_0, # of connection points: 2
#     Edge 15, Type (0, 0), BuildingBlock: CIFDUS_clean_linker_0, # of connection points: 2
#     Edge 16, Type (0, 0), BuildingBlock: CIFDUS_clean_linker_0, # of connection points: 2
#     Edge 17, Type (0, 0), BuildingBlock: CIFDUS_clean_linker_0, # of connection points: 2
#     Edge 18, Type (0, 0), BuildingBlock: CIFDUS_clean_linker_0, # of connection points: 2
#     Edge 19, Type (0, 0), BuildingBlock: CIFDUS_clean_linker_0, # of connection points: 2
#     Edge 20, Type (0, 0), BuildingBlock: CIFDUS_clean_linker_0, # of connection points: 2
#     Edge 21, Type (0, 0), BuildingBlock: CIFDUS_clean_linker_0, # of connection points: 2
#     Edge 22, Type (0, 0), BuildingBlock: CIFDUS_clean_linker_0, # of connection points: 2
#     Edge 23, Type (0, 0), BuildingBlock: CIFDUS_clean_linker_0, # of connection points: 2
#     Edge 24, Type (0, 0), BuildingBlock: CIFDUS_clean_linker_0, # of connection points: 2
#     Edge 25, Type (0, 0), BuildingBlock: CIFDUS_clean_linker_0, # of connection points: 2
#     Edge 26, Type (0, 0), BuildingBlock: CIFDUS_clean_linker_0, # of connection points: 2
#     Edge 27, Type (0, 0), BuildingBlock: CIFDUS_clean_linker_0, # of connection points: 2
#     Edge 28, Type (0, 0), BuildingBlock: CIFDUS_clean_linker_0, # of connection points: 2
#     Edge 29, Type (0, 0), BuildingBlock: CIFDUS_clean_linker_0, # of connection points: 2
#     Edge 30, Type (0, 0), BuildingBlock: CIFDUS_clean_linker_0, # of connection points: 2
#     Edge 31, Type (0, 0), BuildingBlock: CIFDUS_clean_linker_0, # of connection points: 2
#     Edge 32, Type (0, 0), BuildingBlock: CIFDUS_clean_linker_0, # of connection points: 2
#     Edge 33, Type (0, 0), BuildingBlock: CIFDUS_clean_linker_0, # of connection points: 2
#     Edge 34, Type (0, 0), BuildingBlock: CIFDUS_clean_linker_0, # of connection points: 2
#     Edge 35, Type (0, 0), BuildingBlock: CIFDUS_clean_linker_0, # of connection points: 2
# Relax obj value: 0.118
# Max RMSD: 0.082
# Mean RMSD: 0.082
data_MOF--net-umy--node1-CEKHIL_clean_sbu_0--edge1-CIFDUS_clean_linker_0
_symmetry_space_group_name_H-M    P1
_symmetry_Int_Tables_number       1
_symmetry_cell_setting            triclinic
loop_
_symmetry_equiv_pos_as_xyz
'x, y, z'
_cell_length_a     32.804149
_cell_length_b     32.767952
_cell_length_c     44.919166
_cell_angle_alpha  90.047043
_cell_angle_beta   90.063728
_cell_angle_gamma 120.05419
loop_
_atom_site_label
_atom_site_type_symbol
_atom_site_fract_x
_atom_site_fract_y
_atom_site_fract_z
_atom_type_partial_charge
Co0 Co 0.07844 0.36985 0.14075 0.0
O1 O 0.05165 0.39171 0.1112 0.0
O2 O 0.11567 0.43848 0.13713 0.0
C3 C 1.00922 0.3218 0.16441 0.0
O4 O 0.11394 0.35872 0.17446 0.0
Co5 Co 0.04784 0.26392 0.14054 0.0
O6 O 0.08093 0.28008 0.17945 0.0
C7 C 0.11836 0.32627 0.09694 0.0
C8 C 0.08438 0.4342 0.11758 0.0
C9 C 0.10927 0.32204 0.18823 0.0
O10 O 0.11917 0.36199 0.10967 0.0
O11 O 0.08925 0.28359 0.10428 0.0
O12 O 0.03285 0.36664 0.17003 0.0
O13 O 0.02543 0.30837 0.14254 0.0
Co14 Co 0.71894 0.06868 0.298 0.0
O15 O 0.66867 0.04924 0.26872 0.0
O16 O 0.68817 0.10562 0.30213 0.0
C17 C 0.70044 0.99535 0.31401 0.0
O18 O 0.76519 0.0979 0.33264 0.0
Co19 Co 0.79675 0.04093 0.29443 0.0
O20 O 0.81242 0.06677 0.33551 0.0
C21 C 0.79944 0.11241 0.25328 0.0
C22 C 0.6603 0.08044 0.2807 0.0
C23 C 0.79688 0.0925 0.34607 0.0
O24 O 0.7674 0.11524 0.26847 0.0
O25 O 0.81165 0.08159 0.25831 0.0
O26 O 0.67743 0.01525 0.32402 0.0
O27 O 0.72992 0.01813 0.29303 0.0
Co28 Co 0.66816 0.71559 0.46266 0.0
O29 O 0.63783 0.66801 0.43218 0.0
O30 O 0.60008 0.68374 0.46705 0.0
C31 C 0.72337 0.6969 0.47729 0.0
O32 O 0.6877 0.76094 0.49804 0.0
Co33 Co 0.77305 0.79356 0.45426 0.0
O34 O 0.76665 0.80714 0.4965 0.0
C35 C 0.69962 0.79933 0.42 0.0
C36 C 0.59803 0.65859 0.44407 0.0
C37 C 0.72719 0.79225 0.50957 0.0
O38 O 0.66749 0.76504 0.43539 0.0
O39 O 0.74346 0.8127 0.42219 0.0
O40 O 0.68038 0.67287 0.48693 0.0
O41 O 0.72958 0.7266 0.45642 0.0
Co42 Co 0.94526 0.64548 0.63742 0.0
O43 O 0.97292 0.62271 0.60881 0.0
O44 O 0.90989 0.57662 0.63549 0.0
C45 C 0.01405 0.69753 0.66036 0.0
O46 O 0.90885 0.65658 0.6705 0.0
Co47 Co 0.97147 0.75062 0.63541 0.0
O48 O 0.93829 0.73494 0.67424 0.0
C49 C 0.90356 0.6846 0.5917 0.0
C50 C 0.94106 0.58027 0.61615 0.0
C51 C 0.91163 0.69299 0.68359 0.0
O52 O 0.90316 0.64989 0.60561 0.0
O53 O 0.93177 0.72782 0.59843 0.0
O54 O 0.99264 0.65299 0.66696 0.0
O55 O 0.99609 0.70812 0.6381 0.0
Co56 Co 0.29953 0.95279 0.79276 0.0
O57 O 0.34494 0.97216 0.7608 0.0
O58 O 0.32495 0.91082 0.79024 0.0
C59 C 0.32717 0.0249 0.81424 0.0
O60 O 0.2565 0.92283 0.82852 0.0
Co61 Co 0.2293 0.98992 0.7969 0.0
O62 O 0.21567 0.95998 0.83683 0.0
C63 C 0.21254 0.91665 0.75254 0.0
C64 C 0.35092 0.93735 0.76859 0.0
C65 C 0.22828 0.9304 0.84439 0.0
O66 O 0.24601 0.91191 0.76413 0.0
O67 O 0.20356 0.94881 0.76064 0.0
O68 O 0.34711 0.99998 0.81948 0.0
O69 O 0.29502 0.00801 0.79381 0.0
Co70 Co 0.3517 0.29759 0.9606 0.0
O71 O 0.37643 0.34702 0.93074 0.0
O72 O 0.42012 0.33146 0.96093 0.0
C73 C 0.29689 0.31283 0.98089 0.0
O74 O 0.34036 0.25193 0.99487 0.0
Co75 Co 0.24724 0.21622 0.95942 0.0
O76 O 0.26268 0.20105 0.99911 0.0
C77 C 0.31379 0.21756 0.91501 0.0
C78 C 0.41821 0.35748 0.93979 0.0
C79 C 0.30483 0.21846 0.00859 0.0
O80 O 0.34894 0.25008 0.92983 0.0
O81 O 0.27078 0.20343 0.9215 0.0
O82 O 0.34096 0.33791 0.98846 0.0
O83 O 0.28873 0.28369 0.95932 0.0
Co84 Co 0.65145 0.94487 0.70296 0.0
O85 O 0.62418 0.96589 0.73317 0.0
O86 O 0.58336 0.9068 0.70191 0.0
C87 C 0.70293 0.01671 0.68351 0.0
O88 O 0.66655 0.91403 0.66853 0.0
Co89 Co 0.7571 0.97404 0.70651 0.0
O90 O 0.7449 0.94351 0.66678 0.0
C91 C 0.68981 0.90027 0.74678 0.0
C92 C 0.58343 0.93314 0.72358 0.0
C93 C 0.70364 0.91769 0.65613 0.0
O94 O 0.65551 0.89988 0.73245 0.0
O95 O 0.7331 0.93045 0.74173 0.0
O96 O 0.65876 0.99497 0.676 0.0
O97 O 0.71325 0.99724 0.70507 0.0
Co98 Co 0.71486 0.66364 0.87945 0.0
O99 O 0.66601 0.63463 0.90936 0.0
O100 O 0.68343 0.59521 0.87669 0.0
C101 C 0.69608 0.71763 0.86221 0.0
O102 O 0.76095 0.68087 0.84455 0.0
Co103 Co 0.79187 0.76972 0.88498 0.0
O104 O 0.80505 0.76006 0.84327 0.0
C105 C 0.79533 0.70054 0.92491 0.0
C106 C 0.65704 0.5942 0.89858 0.0
C107 C 0.79096 0.7196 0.83165 0.0
O108 O 0.76381 0.66624 0.90899 0.0
O109 O 0.8072 0.7437 0.92077 0.0
O110 O 0.67272 0.67412 0.85316 0.0
O111 O 0.72527 0.72512 0.88361 0.0
Co112 Co 0.07289 0.71843 0.03484 0.0
O113 O 0.05491 0.66666 0.06175 0.0
O114 O 0.1181 0.69633 0.03308 0.0
C115 C 1.00078 0.6922 0.01399 0.0
O116 O 0.10039 0.77036 1.00331 0.0
Co117 Co 0.03035 0.78296 0.04508 0.0
O118 O 0.05821 0.80733 0.00534 0.0
C119 C 0.10963 0.79698 0.08254 0.0
C120 C 0.09158 0.66504 0.05272 0.0
C121 C 0.08922 0.80027 0.99308 0.0
O122 O 0.1124 0.76551 0.06688 0.0
O123 O 0.07668 0.80671 0.07906 0.0
O124 O 0.02777 0.6761 0.00525 0.0
O125 O 0.01555 0.71872 0.03749 0.0
Co126 Co 0.35972 0.06828 0.20346 0.0
O127 O 0.39408 0.05062 0.23079 0.0
O128 O 0.42695 0.10468 0.19568 0.0
C129 C 0.30293 0.99439 0.18974 0.0
O130 O 0.33616 0.09445 0.17035 0.0
Co131 Co 0.2558 0.04051 0.21696 0.0
O132 O 0.25755 0.06088 0.17519 0.0
C133 C 0.3325 0.11769 0.25089 0.0
C134 C 0.43212 0.08091 0.21706 0.0
C135 C 0.29552 0.08581 0.16068 0.0
O136 O 0.36327 0.11749 0.233 0.0
O137 O 0.28868 0.08668 0.24992 0.0
O138 O 0.34457 0.01374 0.17786 0.0
O139 O 0.29921 0.01756 0.21182 0.0
Co140 Co 0.3059 0.35123 0.38374 0.0
O141 O 0.35392 0.3811 0.41401 0.0
O142 O 0.33461 0.41942 0.3816 0.0
C143 C 0.32824 0.30001 0.36639 0.0
O144 O 0.25982 0.33269 0.34872 0.0
Co145 Co 0.23253 0.24396 0.38841 0.0
O146 O 0.21817 0.2534 0.34691 0.0
C147 C 0.22505 0.31082 0.42864 0.0
C148 C 0.36113 0.42113 0.40367 0.0
C149 C 0.23064 0.29372 0.33565 0.0
O150 O 0.25582 0.34597 0.41307 0.0
O151 O 0.21499 0.2682 0.4242 0.0
O152 O 0.34982 0.34356 0.35746 0.0
O153 O 0.29843 0.29095 0.3876 0.0
Co154 Co 0.9503 0.28961 0.54279 0.0
O155 O 0.96816 0.34101 0.57035 0.0
O156 O 0.9038 0.31019 0.54267 0.0
C157 C 0.02214 0.31866 0.52094 0.0
O158 O 0.92262 0.23858 0.51039 0.0
Co159 Co 0.99716 0.22769 0.54824 0.0
O160 O 0.96839 0.20549 0.50836 0.0
C161 C 0.92138 0.21166 0.58995 0.0
C162 C 0.93092 0.34208 0.56191 0.0
C163 C 0.93547 0.21129 0.49789 0.0
O164 O 0.91381 0.24101 0.5751 0.0
O165 O 0.95575 0.2048 0.58434 0.0
O166 O 0.99383 0.33365 0.51303 0.0
O167 O 1.00845 0.29115 0.54385 0.0
H168 H 0.02651 0.57915 0.07135 0.0
H169 H 0.17609 0.66643 0.0583 0.0
H170 H 0.18839 0.60361 0.07858 0.0
H171 H 0.1554 0.52275 0.1005 0.0
H172 H 1.00455 0.43571 0.10871 0.0
H173 H 0.99399 0.4994 0.09007 0.0
C174 C 0.06189 0.58455 0.07297 0.0
C175 C 0.10035 0.62745 0.06364 0.0
C176 C 0.0684 0.54816 0.08389 0.0
C177 C 0.14589 0.6336 0.06537 0.0
C178 C 0.15289 0.59775 0.07705 0.0
C179 C 0.12039 0.51804 0.0982 0.0
C180 C 0.08079 0.47461 0.10607 0.0
C181 C 0.11431 0.55475 0.0865 0.0
C182 C 0.03555 0.46866 0.10268 0.0
C183 C 0.02941 0.5051 0.09207 0.0
H184 H 0.62718 0.08496 0.22544 0.0
H185 H 0.59819 0.08238 0.31916 0.0
H186 H 0.52488 0.08182 0.3081 0.0
H187 H 0.4674 0.07961 0.27164 0.0
H188 H 0.50041 0.0918 0.17815 0.0
H189 H 0.57353 0.09151 0.18903 0.0
C190 C 0.60482 0.08454 0.24334 0.0
C191 C 0.61779 0.08331 0.27307 0.0
C192 C 0.5634 0.086 0.23681 0.0
C193 C 0.58893 0.08341 0.29612 0.0
C194 C 0.54693 0.08296 0.28981 0.0
C195 C 0.49087 0.08258 0.25372 0.0
C196 C 0.47842 0.0854 0.22413 0.0
C197 C 0.53359 0.08391 0.26024 0.0
C198 C 0.50935 0.08978 0.20111 0.0
C199 C 0.55105 0.08937 0.20733 0.0
H200 H 0.5234 0.59157 0.47521 0.0
H201 H 0.57268 0.63871 0.38607 0.0
H202 H 0.50092 0.57212 0.36554 0.0
H203 H 0.42624 0.49732 0.37291 0.0
H204 H 0.38244 0.44462 0.46185 0.0
H205 H 0.44925 0.51612 0.48256 0.0
C206 C 0.51797 0.58746 0.45132 0.0
C207 C 0.55292 0.62016 0.43214 0.0
C208 C 0.47756 0.54782 0.43968 0.0
C209 C 0.54611 0.61399 0.40122 0.0
C210 C 0.50513 0.57591 0.3895 0.0
C211 C 0.43108 0.50198 0.39681 0.0
C212 C 0.39926 0.46618 0.41589 0.0
C213 C 0.47088 0.54218 0.40848 0.0
C214 C 0.40643 0.47192 0.44679 0.0
C215 C 0.44466 0.51273 0.45861 0.0
H216 H 0.86992 0.48871 0.60556 0.0
H217 H 0.02078 0.57989 0.60292 0.0
H218 H 0.0306 0.51428 0.58719 0.0
H219 H 0.99726 0.43126 0.5743 0.0
H220 H 0.84679 0.33983 0.57142 0.0
H221 H 0.83572 0.4048 0.58901 0.0
C222 C 0.90481 0.49401 0.60146 0.0
C223 C 0.94459 0.53919 0.60553 0.0
C224 C 0.91029 0.45603 0.59145 0.0
C225 C 0.98958 0.54567 0.59983 0.0
C226 C 0.9953 0.50808 0.59092 0.0
C227 C 0.96199 0.42546 0.57763 0.0
C228 C 0.92291 0.38068 0.57198 0.0
C229 C 0.95604 0.46318 0.58672 0.0
C230 C 0.87743 0.37398 0.57574 0.0
C231 C 0.87116 0.41113 0.58582 0.0
H232 H 0.51057 0.93083 0.69366 0.0
H233 H 0.55905 0.92483 0.78181 0.0
H234 H 0.48826 0.92021 0.80344 0.0
H235 H 0.4147 0.92254 0.79736 0.0
H236 H 0.37212 0.94017 0.70982 0.0
H237 H 0.43794 0.93538 0.68768 0.0
C238 C 0.50514 0.92793 0.71756 0.0
C239 C 0.53939 0.92752 0.7362 0.0
C240 C 0.46547 0.92758 0.72985 0.0
C241 C 0.53285 0.92493 0.76714 0.0
C242 C 0.49248 0.92235 0.77946 0.0
C243 C 0.4196 0.92465 0.77341 0.0
C244 C 0.38841 0.93097 0.75512 0.0
C245 C 0.45881 0.92422 0.76107 0.0
C246 C 0.39564 0.93496 0.72422 0.0
C247 C 0.43327 0.93232 0.71162 0.0
H248 H 0.49768 0.42029 0.96931 0.0
H249 H 0.43489 0.38598 0.88196 0.0
H250 H 0.50507 0.4537 0.86091 0.0
H251 H 0.58361 0.52485 0.86767 0.0
H252 H 0.64144 0.56475 0.956 0.0
H253 H 0.57454 0.49309 0.97639 0.0
C254 C 0.49963 0.42753 0.94564 0.0
C255 C 0.46138 0.39792 0.92714 0.0
C256 C 0.53935 0.46772 0.93392 0.0
C257 C 0.46391 0.40822 0.89662 0.0
C258 C 0.50406 0.44693 0.88458 0.0
C259 C 0.58164 0.51742 0.89132 0.0
C260 C 0.61767 0.54951 0.91031 0.0
C261 C 0.54192 0.47718 0.90303 0.0
C262 C 0.61426 0.54028 0.94099 0.0
C263 C 0.57598 0.49938 0.95263 0.0
H264 H 0.1125 0.2684 0.05157 0.0
H265 H 0.20764 0.4021 0.09248 0.0
H266 H 0.27148 0.41048 0.06016 0.0
H267 H 0.3016 0.37719 0.02205 0.0
H268 H 0.20395 0.24588 0.97935 0.0
H269 H 0.14032 0.23927 0.01047 0.0
C270 C 0.14708 0.29963 0.05323 0.0
C271 C 0.15523 0.33439 0.0746 0.0
C272 C 0.18351 0.30446 0.03437 0.0
C273 C 0.20021 0.37486 0.07617 0.0
C274 C 0.23689 0.37953 0.05781 0.0
C275 C 0.26633 0.3473 0.01947 0.0
C276 C 0.25798 0.31171 0.99863 0.0
C277 C 0.22919 0.34415 0.03712 0.0
C278 C 0.21181 0.27359 0.99532 0.0
C279 C 0.17518 0.26974 0.01315 0.0
H280 H 0.84592 0.20837 0.25766 0.0
H281 H 0.81813 0.09445 0.19785 0.0
H282 H 0.87963 0.14928 0.16417 0.0
H283 H 0.94705 0.22836 0.15422 0.0
H284 H 0.97662 0.34221 0.21473 0.0
H285 H 0.9095 0.28911 0.24548 0.0
C286 C 0.85236 0.19597 0.23676 0.0
C287 C 0.82713 0.14754 0.23006 0.0
C288 C 0.8891 0.2276 0.21792 0.0
C289 C 0.83676 0.13168 0.2033 0.0
C290 C 0.87229 0.16295 0.18418 0.0
C291 C 0.93864 0.24157 0.17404 0.0
C292 C 0.96721 0.28913 0.18224 0.0
C293 C 0.89975 0.21076 0.19171 0.0
C294 C 0.95549 0.30571 0.20792 0.0
C295 C 0.91694 0.27535 0.22555 0.0
H296 H 0.74242 0.84313 0.36886 0.0
H297 H 0.6289 0.82021 0.42739 0.0
H298 H 0.6173 0.87781 0.39923 0.0
H299 H 0.64438 0.93993 0.36008 0.0
H300 H 0.75609 0.95849 0.30092 0.0
H301 H 0.76333 0.89772 0.32715 0.0
C302 C 0.7147 0.85026 0.37525 0.0
C303 C 0.68683 0.82767 0.40032 0.0
C304 C 0.70825 0.88321 0.35899 0.0
C305 C 0.65072 0.83693 0.40809 0.0
C306 C 0.64435 0.87019 0.39212 0.0
C307 C 0.66996 0.93032 0.3528 0.0
C308 C 0.70022 0.95459 0.32882 0.0
C309 C 0.67365 0.89439 0.36787 0.0
C310 C 0.73276 0.94115 0.3195 0.0
C311 C 0.73695 0.90619 0.33448 0.0
H312 H 0.71981 0.63252 0.51752 0.0
H313 H 0.81714 0.7613 0.47255 0.0
H314 H 0.88181 0.76734 0.50267 0.0
H315 H 0.90997 0.73948 0.54445 0.0
H316 H 0.8143 0.60858 0.58786 0.0
H317 H 0.7502 0.59948 0.55542 0.0
C318 C 0.75527 0.66162 0.5141 0.0
C319 C 0.76329 0.69686 0.4931 0.0
C320 C 0.79272 0.66451 0.53126 0.0
C321 C 0.80963 0.73394 0.4887 0.0
C322 C 0.84678 0.73746 0.50597 0.0
C323 C 0.87524 0.7086 0.54655 0.0
C324 C 0.86695 0.67496 0.56877 0.0
C325 C 0.8386 0.70348 0.52771 0.0
C326 C 0.82181 0.63492 0.57092 0.0
C327 C 0.785 0.62989 0.5525 0.0
H328 H 0.05541 0.79354 0.65794 0.0
H329 H 0.06419 0.68182 0.70273 0.0
H330 H 0.1295 0.73966 0.73314 0.0
H331 H 0.18179 0.82221 0.74907 0.0
H332 H 0.16942 0.93323 0.70623 0.0
H333 H 0.10876 0.87592 0.67297 0.0
C334 C 0.0718 0.78187 0.67422 0.0
C335 C 0.05476 0.73333 0.67803 0.0
C336 C 0.109 0.81539 0.69205 0.0
C337 C 0.07637 0.71891 0.69937 0.0
C338 C 0.11387 0.75202 0.71678 0.0
C339 C 0.16639 0.83387 0.73209 0.0
C340 C 0.18039 0.88203 0.73007 0.0
C341 C 0.13026 0.8004 0.71356 0.0
C342 C 0.15936 0.89642 0.70829 0.0
C343 C 0.1245 0.86361 0.68929 0.0
H344 H 0.28748 0.08048 0.8096 0.0
H345 H 0.38715 0.06142 0.86172 0.0
H346 H 0.39725 0.12433 0.89556 0.0
H347 H 0.37199 0.18008 0.91315 0.0
H348 H 0.26982 0.19596 0.86173 0.0
H349 H 0.26724 0.14014 0.82473 0.0
C350 C 0.31177 0.09038 0.82818 0.0
C351 C 0.33617 0.06589 0.83319 0.0
C352 C 0.31712 0.12638 0.84775 0.0
C353 C 0.36767 0.07944 0.85736 0.0
C354 C 0.37351 0.1155 0.87678 0.0
C355 C 0.35028 0.17227 0.89339 0.0
C356 C 0.32137 0.19238 0.89008 0.0
C357 C 0.34777 0.13872 0.87255 0.0
C358 C 0.29255 0.1811 0.86469 0.0
C359 C 0.29079 0.1489 0.84362 0.0
H360 H 0.63609 0.71317 0.81794 0.0
H361 H 0.75728 0.81158 0.86918 0.0
H362 H 0.76494 0.87652 0.83888 0.0
H363 H 0.74058 0.90535 0.79588 0.0
H364 H 0.61659 0.80913 0.74622 0.0
H365 H 0.60624 0.74386 0.77801 0.0
C366 C 0.66388 0.74888 0.82262 0.0
C367 C 0.69659 0.75714 0.84552 0.0
C368 C 0.66763 0.78664 0.80536 0.0
C369 C 0.73196 0.80382 0.85152 0.0
C370 C 0.73641 0.84119 0.83417 0.0
C371 C 0.71098 0.87017 0.7922 0.0
C372 C 0.67966 0.86212 0.76853 0.0
C373 C 0.70498 0.83296 0.81073 0.0
C374 C 0.64116 0.8164 0.76433 0.0
C375 C 0.6354 0.77897 0.78239 0.0
H376 H 0.84047 0.65 0.91971 0.0
H377 H 0.81421 0.73543 0.98094 0.0
H378 H 0.87354 0.73825 0.01516 0.0
H379 H 0.93899 0.72356 0.02531 0.0
H380 H 0.96774 0.64102 0.96294 0.0
H381 H 0.90214 0.63021 0.93176 0.0
C382 C 0.84682 0.66795 0.94096 0.0
C383 C 0.82264 0.69203 0.94794 0.0
C384 C 0.88238 0.6709 0.96012 0.0
C385 C 0.83212 0.71629 0.97521 0.0
C386 C 0.86636 0.71827 0.99467 0.0
C387 C 0.93059 0.70284 0.00506 0.0
C388 C 0.95858 0.68345 0.99647 0.0
C389 C 0.89278 0.69695 0.98698 0.0
C390 C 0.94704 0.65659 0.97012 0.0
C391 C 0.90937 0.65029 0.9522 0.0
H392 H 0.30174 0.93358 0.14774 0.0
H393 H 0.20991 0.9649 0.19932 0.0
H394 H 0.14185 0.90568 0.17163 0.0
H395 H 0.10867 0.84826 0.13044 0.0
H396 H 0.19976 0.81328 0.08097 0.0
H397 H 0.26726 0.86979 0.11034 0.0
C398 C 0.26677 0.92713 0.1531 0.0
C399 C 0.26121 0.95438 0.17526 0.0
C400 C 0.22744 0.89221 0.13741 0.0
C401 C 0.2155 0.94499 0.1822 0.0
C402 C 0.17641 0.91103 0.16633 0.0
C403 C 0.14319 0.85261 0.12629 0.0
C404 C 0.149 0.8267 0.10329 0.0
C405 C 0.18201 0.88497 0.14352 0.0
C406 C 0.19403 0.83253 0.09852 0.0
C407 C 0.23283 0.86513 0.11522 0.0
H408 H 0.29448 0.11278 0.30491 0.0
H409 H 0.40018 0.2111 0.24469 0.0
H410 H 0.41062 0.27711 0.27607 0.0
H411 H 0.38335 0.30684 0.31826 0.0
H412 H 0.27836 0.20633 0.37826 0.0
H413 H 0.27403 0.14152 0.34938 0.0
C414 C 0.32038 0.14864 0.29886 0.0
C415 C 0.34624 0.15701 0.27238 0.0
C416 C 0.32584 0.18616 0.31682 0.0
C417 C 0.37999 0.20364 0.26504 0.0
C418 C 0.38561 0.24141 0.28285 0.0
C419 C 0.35997 0.27076 0.32517 0.0
C420 C 0.33065 0.26164 0.3502 0.0
C421 C 0.35777 0.23316 0.30842 0.0
C422 C 0.3009 0.21461 0.35897 0.0
C423 C 0.29839 0.17735 0.34245 0.0
H424 H 0.18099 0.36285 0.42534 0.0
H425 H 0.20421 0.27181 0.48344 0.0
H426 H 0.14577 0.26879 0.51834 0.0
H427 H 0.08245 0.28542 0.53004 0.0
H428 H 0.05565 0.37304 0.47097 0.0
H429 H 0.12061 0.38397 0.43897 0.0
C430 C 0.17406 0.34346 0.44603 0.0
C431 C 0.19712 0.31786 0.45191 0.0
C432 C 0.13901 0.3405 0.46562 0.0
C433 C 0.18705 0.29196 0.4785 0.0
C434 C 0.15339 0.28996 0.49838 0.0
C435 C 0.09108 0.30727 0.51032 0.0
C436 C 0.06392 0.32807 0.50286 0.0
C437 C 0.12818 0.31296 0.49179 0.0
C438 C 0.07576 0.35637 0.47721 0.0
C439 C 0.11299 0.36269 0.45886 0.0
H440 H 0.82721 0.18182 0.59367 0.0
H441 H 0.93837 0.17117 0.63778 0.0
H442 H 0.88137 0.11221 0.67179 0.0
H443 H 0.79903 0.05903 0.68684 0.0
H444 H 0.68744 0.06689 0.64118 0.0
H445 H 0.74511 0.13114 0.61027 0.0
C446 C 0.83906 0.16725 0.61108 0.0
C447 C 0.88714 0.18109 0.61309 0.0
C448 C 0.80578 0.13222 0.63018 0.0
C449 C 0.90164 0.16119 0.63559 0.0
C450 C 0.86899 0.12728 0.65505 0.0
C451 C 0.78737 0.07509 0.67032 0.0
C452 C 0.73887 0.05791 0.66633 0.0
C453 C 0.82082 0.11174 0.65219 0.0
C454 C 0.72448 0.07915 0.6447 0.0
C455 C 0.7575 0.11602 0.62696 0.0
H456 H 0.22851 0.36795 0.30786 0.0
H457 H 0.18518 0.22053 0.29732 0.0
H458 H 0.1459 0.21751 0.25102 0.0
H459 H 0.12108 0.25456 0.21443 0.0
H460 H 0.16208 0.40138 0.22296 0.0
H461 H 0.20527 0.40675 0.26888 0.0
C462 C 0.21074 0.33531 0.29531 0.0
C463 C 0.20956 0.29442 0.30643 0.0
C464 C 0.18761 0.33353 0.26834 0.0
C465 C 0.18634 0.25246 0.28973 0.0
C466 C 0.16382 0.25061 0.26309 0.0
C467 C 0.13935 0.28793 0.2262 0.0
C468 C 0.13783 0.32739 0.21528 0.0
C469 C 0.16372 0.29064 0.25241 0.0
C470 C 0.1625 0.37036 0.23082 0.0
C471 C 0.18712 0.37339 0.25714 0.0
H472 H 0.86722 0.21564 0.46426 0.0
H473 H 0.95053 0.14713 0.4688 0.0
H474 H 0.91494 0.10479 0.42313 0.0
H475 H 0.86151 0.08737 0.38137 0.0
H476 H 0.7774 0.15463 0.37539 0.0
H477 H 0.81182 0.19681 0.42195 0.0
C478 C 0.87746 0.19135 0.45532 0.0
C479 C 0.91175 0.18496 0.47019 0.0
C480 C 0.85677 0.16673 0.42864 0.0
C481 C 0.92446 0.1532 0.45806 0.0
C482 C 0.90408 0.12876 0.43181 0.0
C483 C 0.85052 0.1112 0.39014 0.0
C484 C 0.81692 0.11776 0.37467 0.0
C485 C 0.87043 0.13537 0.41684 0.0
C486 C 0.80322 0.14879 0.38668 0.0
C487 C 0.82293 0.17301 0.41337 0.0
H488 H 0.77136 0.90657 0.62924 0.0
H489 H 0.62462 0.86592 0.62157 0.0
H490 H 0.61784 0.82111 0.57635 0.0
H491 H 0.65474 0.79555 0.53796 0.0
H492 H 0.80182 0.83773 0.54687 0.0
H493 H 0.80695 0.87944 0.5927 0.0
C494 C 0.73777 0.88804 0.61776 0.0
C495 C 0.69868 0.89002 0.62878 0.0
C496 C 0.73411 0.86239 0.59193 0.0
C497 C 0.65541 0.86521 0.6136 0.0
C498 C 0.65148 0.83953 0.58772 0.0
C499 C 0.68773 0.81347 0.55012 0.0
C500 C 0.72788 0.81371 0.53878 0.0
C501 C 0.69072 0.83805 0.57657 0.0
C502 C 0.77043 0.8373 0.55481 0.0
C503 C 0.77349 0.86123 0.58109 0.0
H504 H 0.89539 0.75845 0.70871 0.0
H505 H 0.86322 0.6145 0.71949 0.0
H506 H 0.82059 0.60854 0.76568 0.0
H507 H 0.79585 0.64637 0.80448 0.0
H508 H 0.83055 0.79101 0.79191 0.0
H509 H 0.86857 0.79423 0.74505 0.0
C510 C 0.87912 0.72558 0.72103 0.0
C511 C 0.88304 0.68715 0.71067 0.0
C512 C 0.8551 0.72255 0.74745 0.0
C513 C 0.86094 0.64475 0.7269 0.0
C514 C 0.83663 0.64138 0.75338 0.0
C515 C 0.81142 0.67839 0.79133 0.0
C516 C 0.81074 0.71856 0.80206 0.0
C517 C 0.83393 0.68032 0.7641 0.0
C518 C 0.83107 0.75975 0.78462 0.0
C519 C 0.85282 0.76169 0.75767 0.0
H520 H 0.16828 0.93702 0.88296 0.0
H521 H 0.24293 0.86143 0.86837 0.0
H522 H 0.20733 0.81476 0.91326 0.0
H523 H 0.15334 0.79435 0.95635 0.0
H524 H 0.07916 0.87104 0.96927 0.0
H525 H 0.11628 0.91795 0.92542 0.0
C526 C 0.177 0.91044 0.88949 0.0
C527 C 0.20821 0.90281 0.87213 0.0
C528 C 0.1563 0.88363 0.91512 0.0
C529 C 0.21899 0.86816 0.88122 0.0
C530 C 0.19858 0.84136 0.90691 0.0
C531 C 0.14538 0.82136 0.9496 0.0
C532 C 0.11321 0.82875 0.96624 0.0
C533 C 0.16691 0.84859 0.92399 0.0
C534 C 0.10346 0.86408 0.95703 0.0
C535 C 0.12476 0.89118 0.93186 0.0
H536 H 0.36575 0.15578 0.12667 0.0
H537 H 0.21553 0.0593 0.12901 0.0
H538 H 0.20588 0.0914 0.08268 0.0
H539 H 0.23866 0.14712 0.04199 0.0
H540 H 0.38826 0.24495 0.03818 0.0
H541 H 0.39931 0.21201 0.08442 0.0
C542 C 0.33098 0.14168 0.11695 0.0
C543 C 0.29147 0.10528 0.13162 0.0
C544 C 0.32537 0.16059 0.09003 0.0
C545 C 0.24665 0.08755 0.11859 0.0
C546 C 0.24097 0.10583 0.09195 0.0
C547 C 0.27385 0.16143 0.05111 0.0
C548 C 0.31251 0.19864 0.03648 0.0
C549 C 0.27993 0.1425 0.07761 0.0
C550 C 0.35774 0.21637 0.04887 0.0
C551 C 0.36411 0.19752 0.07536 0.0
loop_
_geom_bond_atom_site_label_1
_geom_bond_atom_site_label_2
_geom_bond_distance
_geom_bond_site_symmetry_2
_ccdc_geom_bond_type
Co0 O1 2.216 . S
Co0 O2 2.091 . S
Co0 O4 2.004 . S
Co0 O10 2.021 . S
Co0 O12 2.137 1_455 S
Co0 O13 2.244 . S
O1 Co0 2.216 . S
O1 C8 1.247 . S
O2 Co0 2.091 . S
O2 C8 1.261 . S
C3 O12 1.247 . S
C3 O13 1.272 1_655 S
O4 Co0 2.004 . S
O4 C9 1.259 . S
Co5 O6 2.061 . S
Co5 O11 2.052 . S
Co5 O13 2.134 . S
O6 Co5 2.061 . S
O6 C9 1.235 . S
C7 O10 1.238 . S
C7 O11 1.241 . S
C8 O1 1.247 . S
C8 O2 1.261 . S
C9 O4 1.259 . S
C9 O6 1.235 . S
O10 Co0 2.021 . S
O10 C7 1.238 . S
O11 Co5 2.052 . S
O11 C7 1.241 . S
O12 Co0 2.137 1_655 S
O12 C3 1.247 . S
O13 Co0 2.244 . S
O13 C3 1.272 1_455 S
O13 Co5 2.134 . S
Co14 O15 2.216 . S
Co14 O16 2.091 . S
Co14 O18 2.004 . S
Co14 O24 2.021 . S
Co14 O26 2.137 1_545 S
Co14 O27 2.244 . S
O15 Co14 2.216 . S
O15 C22 1.247 . S
O16 Co14 2.091 . S
O16 C22 1.261 . S
C17 O26 1.247 . S
C17 O27 1.272 1_565 S
O18 Co14 2.004 . S
O18 C23 1.259 . S
Co19 O20 2.061 . S
Co19 O25 2.052 . S
Co19 O27 2.135 . S
O20 Co19 2.061 . S
O20 C23 1.235 . S
C21 O24 1.238 . S
C21 O25 1.241 . S
C22 O15 1.247 . S
C22 O16 1.261 . S
C23 O18 1.259 . S
C23 O20 1.235 . S
O24 Co14 2.021 . S
O24 C21 1.238 . S
O25 Co19 2.052 . S
O25 C21 1.241 . S
O26 Co14 2.137 1_565 S
O26 C17 1.247 . S
O27 Co14 2.244 . S
O27 C17 1.272 1_545 S
O27 Co19 2.135 . S
Co28 O29 2.216 . S
Co28 O30 2.091 . S
Co28 O32 2.004 . S
Co28 O38 2.021 . S
Co28 O40 2.137 . S
Co28 O41 2.244 . S
O29 Co28 2.216 . S
O29 C36 1.247 . S
O30 Co28 2.091 . S
O30 C36 1.261 . S
C31 O40 1.247 . S
C31 O41 1.272 . S
O32 Co28 2.004 . S
O32 C37 1.259 . S
Co33 O34 2.061 . S
Co33 O39 2.052 . S
Co33 O41 2.135 . S
O34 Co33 2.061 . S
O34 C37 1.235 . S
C35 O38 1.238 . S
C35 O39 1.241 . S
C36 O29 1.247 . S
C36 O30 1.261 . S
C37 O32 1.259 . S
C37 O34 1.235 . S
O38 Co28 2.021 . S
O38 C35 1.238 . S
O39 Co33 2.052 . S
O39 C35 1.241 . S
O40 Co28 2.137 . S
O40 C31 1.247 . S
O41 Co28 2.244 . S
O41 C31 1.272 . S
O41 Co33 2.135 . S
Co42 O43 2.216 . S
Co42 O44 2.091 . S
Co42 O46 2.004 . S
Co42 O52 2.021 . S
Co42 O54 2.137 1_655 S
Co42 O55 2.244 . S
O43 Co42 2.216 . S
O43 C50 1.247 . S
O44 Co42 2.091 . S
O44 C50 1.261 . S
C45 O54 1.247 . S
C45 O55 1.272 1_455 S
O46 Co42 2.004 . S
O46 C51 1.259 . S
Co47 O48 2.061 . S
Co47 O53 2.052 . S
Co47 O55 2.134 . S
O48 Co47 2.061 . S
O48 C51 1.235 . S
C49 O52 1.238 . S
C49 O53 1.241 . S
C50 O43 1.247 . S
C50 O44 1.261 . S
C51 O46 1.259 . S
C51 O48 1.235 . S
O52 Co42 2.021 . S
O52 C49 1.238 . S
O53 Co47 2.052 . S
O53 C49 1.241 . S
O54 Co42 2.137 1_455 S
O54 C45 1.247 . S
O55 Co42 2.244 . S
O55 C45 1.272 1_655 S
O55 Co47 2.134 . S
Co56 O57 2.216 . S
Co56 O58 2.091 . S
Co56 O60 2.004 . S
Co56 O66 2.021 . S
Co56 O68 2.137 1_565 S
Co56 O69 2.244 . S
O57 Co56 2.216 . S
O57 C64 1.247 . S
O58 Co56 2.091 . S
O58 C64 1.261 . S
C59 O68 1.247 . S
C59 O69 1.272 1_545 S
O60 Co56 2.004 . S
O60 C65 1.259 . S
Co61 O62 2.061 . S
Co61 O67 2.052 . S
Co61 O69 2.135 . S
O62 Co61 2.061 . S
O62 C65 1.235 . S
C63 O66 1.238 . S
C63 O67 1.241 . S
C64 O57 1.247 . S
C64 O58 1.261 . S
C65 O60 1.259 . S
C65 O62 1.235 . S
O66 Co56 2.021 . S
O66 C63 1.238 . S
O67 Co61 2.052 . S
O67 C63 1.241 . S
O68 Co56 2.137 1_545 S
O68 C59 1.247 . S
O69 Co56 2.244 . S
O69 C59 1.272 1_565 S
O69 Co61 2.135 . S
Co70 O71 2.216 . S
Co70 O72 2.091 . S
Co70 O74 2.004 1_556 S
Co70 O80 2.021 . S
Co70 O82 2.137 . S
Co70 O83 2.244 . S
O71 Co70 2.216 . S
O71 C78 1.247 . S
O72 Co70 2.091 . S
O72 C78 1.261 . S
C73 O82 1.247 . S
C73 O83 1.272 . S
O74 Co70 2.004 1_554 S
O74 C79 1.259 . S
Co75 O76 2.061 1_556 S
Co75 O81 2.052 . S
Co75 O83 2.135 . S
O76 Co75 2.061 1_554 S
O76 C79 1.235 . S
C77 O80 1.238 . S
C77 O81 1.241 . S
C78 O71 1.247 . S
C78 O72 1.261 . S
C79 O74 1.259 . S
C79 O76 1.235 . S
O80 Co70 2.021 . S
O80 C77 1.238 . S
O81 Co75 2.052 . S
O81 C77 1.241 . S
O82 Co70 2.137 . S
O82 C73 1.247 . S
O83 Co70 2.244 . S
O83 C73 1.272 . S
O83 Co75 2.135 . S
Co84 O85 2.216 . S
Co84 O86 2.091 . S
Co84 O88 2.004 . S
Co84 O94 2.021 . S
Co84 O96 2.137 1_565 S
Co84 O97 2.244 . S
O85 Co84 2.216 . S
O85 C92 1.247 . S
O86 Co84 2.091 . S
O86 C92 1.261 . S
C87 O96 1.247 . S
C87 O97 1.272 1_545 S
O88 Co84 2.004 . S
O88 C93 1.259 . S
Co89 O90 2.061 . S
Co89 O95 2.052 . S
Co89 O97 2.134 . S
O90 Co89 2.061 . S
O90 C93 1.235 . S
C91 O94 1.238 . S
C91 O95 1.241 . S
C92 O85 1.247 . S
C92 O86 1.261 . S
C93 O88 1.259 . S
C93 O90 1.235 . S
O94 Co84 2.021 . S
O94 C91 1.238 . S
O95 Co89 2.052 . S
O95 C91 1.241 . S
O96 Co84 2.137 1_545 S
O96 C87 1.247 . S
O97 Co84 2.244 . S
O97 C87 1.272 1_565 S
O97 Co89 2.134 . S
Co98 O99 2.216 . S
Co98 O100 2.091 . S
Co98 O102 2.004 . S
Co98 O108 2.021 . S
Co98 O110 2.137 . S
Co98 O111 2.244 . S
O99 Co98 2.216 . S
O99 C106 1.247 . S
O100 Co98 2.091 . S
O100 C106 1.261 . S
C101 O110 1.247 . S
C101 O111 1.272 . S
O102 Co98 2.004 . S
O102 C107 1.259 . S
Co103 O104 2.061 . S
Co103 O109 2.052 . S
Co103 O111 2.135 . S
O104 Co103 2.061 . S
O104 C107 1.235 . S
C105 O108 1.238 . S
C105 O109 1.241 . S
C106 O99 1.247 . S
C106 O100 1.261 . S
C107 O102 1.259 . S
C107 O104 1.235 . S
O108 Co98 2.021 . S
O108 C105 1.238 . S
O109 Co103 2.052 . S
O109 C105 1.241 . S
O110 Co98 2.137 . S
O110 C101 1.247 . S
O111 Co98 2.244 . S
O111 C101 1.272 . S
O111 Co103 2.135 . S
Co112 O113 2.216 . S
Co112 O114 2.091 . S
Co112 O116 2.004 1_554 S
Co112 O122 2.021 . S
Co112 O124 2.137 1_455 S
Co112 O125 2.244 . S
O113 Co112 2.216 . S
O113 C120 1.247 . S
O114 Co112 2.091 . S
O114 C120 1.261 . S
C115 O124 1.247 . S
C115 O125 1.272 1_655 S
O116 Co112 2.004 1_556 S
O116 C121 1.259 . S
Co117 O118 2.061 1_554 S
Co117 O123 2.052 . S
Co117 O125 2.135 . S
O118 Co117 2.061 1_556 S
O118 C121 1.235 . S
C119 O122 1.238 . S
C119 O123 1.241 . S
C120 O113 1.247 . S
C120 O114 1.261 . S
C121 O116 1.259 . S
C121 O118 1.235 . S
O122 Co112 2.021 . S
O122 C119 1.238 . S
O123 Co117 2.052 . S
O123 C119 1.241 . S
O124 Co112 2.137 1_655 S
O124 C115 1.247 . S
O125 Co112 2.244 . S
O125 C115 1.272 1_455 S
O125 Co117 2.135 . S
Co126 O127 2.216 . S
Co126 O128 2.091 . S
Co126 O130 2.004 . S
Co126 O136 2.021 . S
Co126 O138 2.137 1_545 S
Co126 O139 2.244 . S
O127 Co126 2.216 . S
O127 C134 1.247 . S
O128 Co126 2.091 . S
O128 C134 1.261 . S
C129 O138 1.247 . S
C129 O139 1.272 1_565 S
O130 Co126 2.004 . S
O130 C135 1.259 . S
Co131 O132 2.061 . S
Co131 O137 2.052 . S
Co131 O139 2.134 . S
O132 Co131 2.061 . S
O132 C135 1.235 . S
C133 O136 1.238 . S
C133 O137 1.241 . S
C134 O127 1.247 . S
C134 O128 1.261 . S
C135 O130 1.259 . S
C135 O132 1.235 . S
O136 Co126 2.021 . S
O136 C133 1.238 . S
O137 Co131 2.052 . S
O137 C133 1.241 . S
O138 Co126 2.137 1_565 S
O138 C129 1.247 . S
O139 Co126 2.244 . S
O139 C129 1.272 1_545 S
O139 Co131 2.134 . S
Co140 O141 2.216 . S
Co140 O142 2.091 . S
Co140 O144 2.004 . S
Co140 O150 2.021 . S
Co140 O152 2.137 . S
Co140 O153 2.244 . S
O141 Co140 2.216 . S
O141 C148 1.247 . S
O142 Co140 2.091 . S
O142 C148 1.261 . S
C143 O152 1.247 . S
C143 O153 1.272 . S
O144 Co140 2.004 . S
O144 C149 1.259 . S
Co145 O146 2.061 . S
Co145 O151 2.052 . S
Co145 O153 2.135 . S
O146 Co145 2.061 . S
O146 C149 1.235 . S
C147 O150 1.238 . S
C147 O151 1.241 . S
C148 O141 1.247 . S
C148 O142 1.261 . S
C149 O144 1.259 . S
C149 O146 1.235 . S
O150 Co140 2.021 . S
O150 C147 1.238 . S
O151 Co145 2.052 . S
O151 C147 1.241 . S
O152 Co140 2.137 . S
O152 C143 1.247 . S
O153 Co140 2.244 . S
O153 C143 1.272 . S
O153 Co145 2.135 . S
Co154 O155 2.216 . S
Co154 O156 2.091 . S
Co154 O158 2.004 . S
Co154 O164 2.021 . S
Co154 O166 2.137 1_655 S
Co154 O167 2.244 . S
O155 Co154 2.216 . S
O155 C162 1.247 . S
O156 Co154 2.091 . S
O156 C162 1.261 . S
C157 O166 1.247 . S
C157 O167 1.272 1_455 S
O158 Co154 2.004 . S
O158 C163 1.259 . S
Co159 O160 2.061 . S
Co159 O165 2.052 . S
Co159 O167 2.135 . S
O160 Co159 2.061 . S
O160 C163 1.235 . S
C161 O164 1.238 . S
C161 O165 1.241 . S
C162 O155 1.247 . S
C162 O156 1.261 . S
C163 O158 1.259 . S
C163 O160 1.235 . S
O164 Co154 2.021 . S
O164 C161 1.238 . S
O165 Co159 2.052 . S
O165 C161 1.241 . S
O166 Co154 2.137 1_455 S
O166 C157 1.247 . S
O167 Co154 2.244 . S
O167 C157 1.272 1_655 S
O167 Co159 2.135 . S
H168 C174 0.930 1_655 S
H169 C177 0.930 . S
H170 C178 0.930 . S
H171 C179 0.930 . S
H172 C182 0.930 . S
H173 C183 0.930 . S
C174 H168 0.930 1_455 S
C174 C175 1.355 . S
C174 C176 1.415 . S
C175 C174 1.355 . S
C175 C177 1.419 . S
C176 C174 1.415 . S
C176 C181 1.425 . S
C176 C183 1.409 1_455 S
C177 H169 0.930 . S
C177 C175 1.419 . S
C177 C178 1.362 . S
C178 H170 0.930 . S
C178 C177 1.362 . S
C178 C181 1.409 . S
C179 H171 0.930 . S
C179 C180 1.355 . S
C179 C181 1.415 . S
C180 C179 1.355 . S
C180 C182 1.419 1_455 S
C181 C176 1.425 . S
C181 C178 1.409 . S
C181 C179 1.415 . S
C182 H172 0.930 . S
C182 C180 1.419 1_655 S
C182 C183 1.362 . S
C183 H173 0.930 . S
C183 C176 1.409 1_655 S
C183 C182 1.362 . S
H184 C190 0.930 . S
H185 C193 0.930 . S
H186 C194 0.930 . S
H187 C195 0.930 . S
H188 C198 0.930 . S
H189 C199 0.930 . S
C190 H184 0.930 . S
C190 C191 1.355 . S
C190 C192 1.415 . S
C191 C190 1.355 . S
C191 C193 1.419 . S
C192 C190 1.415 . S
C192 C197 1.425 . S
C192 C199 1.409 . S
C193 H185 0.930 . S
C193 C191 1.419 . S
C193 C194 1.362 . S
C194 H186 0.930 . S
C194 C193 1.362 . S
C194 C197 1.409 . S
C195 H187 0.930 . S
C195 C196 1.355 . S
C195 C197 1.415 . S
C196 C195 1.355 . S
C196 C198 1.419 . S
C197 C192 1.425 . S
C197 C194 1.409 . S
C197 C195 1.415 . S
C198 H188 0.930 . S
C198 C196 1.419 . S
C198 C199 1.362 . S
C199 H189 0.930 . S
C199 C192 1.409 . S
C199 C198 1.362 . S
H200 C206 0.930 . S
H201 C209 0.930 . S
H202 C210 0.930 . S
H203 C211 0.930 . S
H204 C214 0.930 . S
H205 C215 0.930 . S
C206 H200 0.930 . S
C206 C207 1.355 . S
C206 C208 1.415 . S
C207 C206 1.355 . S
C207 C209 1.419 . S
C208 C206 1.415 . S
C208 C213 1.425 . S
C208 C215 1.409 . S
C209 H201 0.930 . S
C209 C207 1.419 . S
C209 C210 1.362 . S
C210 H202 0.930 . S
C210 C209 1.362 . S
C210 C213 1.409 . S
C211 H203 0.930 . S
C211 C212 1.355 . S
C211 C213 1.415 . S
C212 C211 1.355 . S
C212 C214 1.419 . S
C213 C208 1.425 . S
C213 C210 1.409 . S
C213 C211 1.415 . S
C214 H204 0.930 . S
C214 C212 1.419 . S
C214 C215 1.362 . S
C215 H205 0.930 . S
C215 C208 1.409 . S
C215 C214 1.362 . S
H216 C222 0.930 . S
H217 C225 0.930 . S
H218 C226 0.930 . S
H219 C227 0.930 . S
H220 C230 0.930 . S
H221 C231 0.930 . S
C222 H216 0.930 . S
C222 C223 1.355 . S
C222 C224 1.415 . S
C223 C222 1.355 . S
C223 C225 1.419 . S
C224 C222 1.415 . S
C224 C229 1.425 . S
C224 C231 1.409 . S
C225 H217 0.930 . S
C225 C223 1.419 . S
C225 C226 1.362 . S
C226 H218 0.930 . S
C226 C225 1.362 . S
C226 C229 1.409 . S
C227 H219 0.930 . S
C227 C228 1.355 . S
C227 C229 1.415 . S
C228 C227 1.355 . S
C228 C230 1.419 . S
C229 C224 1.425 . S
C229 C226 1.409 . S
C229 C227 1.415 . S
C230 H220 0.930 . S
C230 C228 1.419 . S
C230 C231 1.362 . S
C231 H221 0.930 . S
C231 C224 1.409 . S
C231 C230 1.362 . S
H232 C238 0.930 . S
H233 C241 0.930 . S
H234 C242 0.930 . S
H235 C243 0.930 . S
H236 C246 0.930 . S
H237 C247 0.930 . S
C238 H232 0.930 . S
C238 C239 1.355 . S
C238 C240 1.415 . S
C239 C238 1.355 . S
C239 C241 1.419 . S
C240 C238 1.415 . S
C240 C245 1.425 . S
C240 C247 1.409 . S
C241 H233 0.930 . S
C241 C239 1.419 . S
C241 C242 1.362 . S
C242 H234 0.930 . S
C242 C241 1.362 . S
C242 C245 1.409 . S
C243 H235 0.930 . S
C243 C244 1.355 . S
C243 C245 1.415 . S
C244 C243 1.355 . S
C244 C246 1.419 . S
C245 C240 1.425 . S
C245 C242 1.409 . S
C245 C243 1.415 . S
C246 H236 0.930 . S
C246 C244 1.419 . S
C246 C247 1.362 . S
C247 H237 0.930 . S
C247 C240 1.409 . S
C247 C246 1.362 . S
H248 C254 0.930 . S
H249 C257 0.930 . S
H250 C258 0.930 . S
H251 C259 0.930 . S
H252 C262 0.930 . S
H253 C263 0.930 . S
C254 H248 0.930 . S
C254 C255 1.355 . S
C254 C256 1.415 . S
C255 C254 1.355 . S
C255 C257 1.419 . S
C256 C254 1.415 . S
C256 C261 1.425 . S
C256 C263 1.409 . S
C257 H249 0.930 . S
C257 C255 1.419 . S
C257 C258 1.362 . S
C258 H250 0.930 . S
C258 C257 1.362 . S
C258 C261 1.409 . S
C259 H251 0.930 . S
C259 C260 1.355 . S
C259 C261 1.415 . S
C260 C259 1.355 . S
C260 C262 1.419 . S
C261 C256 1.425 . S
C261 C258 1.409 . S
C261 C259 1.415 . S
C262 H252 0.930 . S
C262 C260 1.419 . S
C262 C263 1.362 . S
C263 H253 0.930 . S
C263 C256 1.409 . S
C263 C262 1.362 . S
H264 C270 0.930 . S
H265 C273 0.930 . S
H266 C274 0.930 . S
H267 C275 0.930 . S
H268 C278 0.930 . S
H269 C279 0.915 1_556 S
C270 H264 0.930 . S
C270 C271 1.355 . S
C270 C272 1.415 . S
C271 C270 1.355 . S
C271 C273 1.419 . S
C272 C270 1.415 . S
C272 C277 1.425 . S
C272 C279 1.440 . S
C273 H265 0.930 . S
C273 C271 1.419 . S
C273 C274 1.362 . S
C274 H266 0.930 . S
C274 C273 1.362 . S
C274 C277 1.409 . S
C275 H267 0.930 . S
C275 C276 1.355 . S
C275 C277 1.415 . S
C276 C275 1.355 . S
C276 C278 1.419 1_554 S
C277 C272 1.425 . S
C277 C274 1.409 . S
C277 C275 1.415 . S
C278 H268 0.930 . S
C278 C276 1.419 1_556 S
C278 C279 1.347 1_556 S
C279 H269 0.915 1_554 S
C279 C272 1.440 . S
C279 C278 1.347 1_554 S
H280 C286 0.930 . S
H281 C289 0.930 . S
H282 C290 0.930 . S
H283 C291 0.930 . S
H284 C294 0.930 . S
H285 C295 0.930 . S
C286 H280 0.930 . S
C286 C287 1.355 . S
C286 C288 1.415 . S
C287 C286 1.355 . S
C287 C289 1.419 . S
C288 C286 1.415 . S
C288 C293 1.425 . S
C288 C295 1.409 . S
C289 H281 0.930 . S
C289 C287 1.419 . S
C289 C290 1.362 . S
C290 H282 0.930 . S
C290 C289 1.362 . S
C290 C293 1.409 . S
C291 H283 0.930 . S
C291 C292 1.355 . S
C291 C293 1.415 . S
C292 C291 1.355 . S
C292 C294 1.419 . S
C293 C288 1.425 . S
C293 C290 1.409 . S
C293 C291 1.415 . S
C294 H284 0.930 . S
C294 C292 1.419 . S
C294 C295 1.362 . S
C295 H285 0.930 . S
C295 C288 1.409 . S
C295 C294 1.362 . S
H296 C302 0.930 . S
H297 C305 0.930 . S
H298 C306 0.930 . S
H299 C307 0.930 . S
H300 C310 0.930 . S
H301 C311 0.930 . S
C302 H296 0.930 . S
C302 C303 1.355 . S
C302 C304 1.415 . S
C303 C302 1.355 . S
C303 C305 1.419 . S
C304 C302 1.415 . S
C304 C309 1.425 . S
C304 C311 1.409 . S
C305 H297 0.930 . S
C305 C303 1.419 . S
C305 C306 1.362 . S
C306 H298 0.930 . S
C306 C305 1.362 . S
C306 C309 1.409 . S
C307 H299 0.930 . S
C307 C308 1.355 . S
C307 C309 1.415 . S
C308 C307 1.355 . S
C308 C310 1.419 . S
C309 C304 1.425 . S
C309 C306 1.409 . S
C309 C307 1.415 . S
C310 H300 0.930 . S
C310 C308 1.419 . S
C310 C311 1.362 . S
C311 H301 0.930 . S
C311 C304 1.409 . S
C311 C310 1.362 . S
H312 C318 0.930 . S
H313 C321 0.930 . S
H314 C322 0.930 . S
H315 C323 0.930 . S
H316 C326 0.930 . S
H317 C327 0.930 . S
C318 H312 0.930 . S
C318 C319 1.355 . S
C318 C320 1.415 . S
C319 C318 1.355 . S
C319 C321 1.419 . S
C320 C318 1.415 . S
C320 C325 1.425 . S
C320 C327 1.409 . S
C321 H313 0.930 . S
C321 C319 1.419 . S
C321 C322 1.362 . S
C322 H314 0.930 . S
C322 C321 1.362 . S
C322 C325 1.409 . S
C323 H315 0.930 . S
C323 C324 1.355 . S
C323 C325 1.415 . S
C324 C323 1.355 . S
C324 C326 1.419 . S
C325 C320 1.425 . S
C325 C322 1.409 . S
C325 C323 1.415 . S
C326 H316 0.930 . S
C326 C324 1.419 . S
C326 C327 1.362 . S
C327 H317 0.930 . S
C327 C320 1.409 . S
C327 C326 1.362 . S
H328 C334 0.930 . S
H329 C337 0.930 . S
H330 C338 0.930 . S
H331 C339 0.930 . S
H332 C342 0.930 . S
H333 C343 0.930 . S
C334 H328 0.930 . S
C334 C335 1.355 . S
C334 C336 1.415 . S
C335 C334 1.355 . S
C335 C337 1.419 . S
C336 C334 1.415 . S
C336 C341 1.425 . S
C336 C343 1.409 . S
C337 H329 0.930 . S
C337 C335 1.419 . S
C337 C338 1.362 . S
C338 H330 0.930 . S
C338 C337 1.362 . S
C338 C341 1.409 . S
C339 H331 0.930 . S
C339 C340 1.355 . S
C339 C341 1.415 . S
C340 C339 1.355 . S
C340 C342 1.419 . S
C341 C336 1.425 . S
C341 C338 1.409 . S
C341 C339 1.415 . S
C342 H332 0.930 . S
C342 C340 1.419 . S
C342 C343 1.362 . S
C343 H333 0.930 . S
C343 C336 1.409 . S
C343 C342 1.362 . S
H344 C350 0.930 . S
H345 C353 0.930 . S
H346 C354 0.930 . S
H347 C355 0.930 . S
H348 C358 0.930 . S
H349 C359 0.930 . S
C350 H344 0.930 . S
C350 C351 1.355 . S
C350 C352 1.415 . S
C351 C350 1.355 . S
C351 C353 1.419 . S
C352 C350 1.415 . S
C352 C357 1.425 . S
C352 C359 1.409 . S
C353 H345 0.930 . S
C353 C351 1.419 . S
C353 C354 1.362 . S
C354 H346 0.930 . S
C354 C353 1.362 . S
C354 C357 1.409 . S
C355 H347 0.930 . S
C355 C356 1.355 . S
C355 C357 1.415 . S
C356 C355 1.355 . S
C356 C358 1.419 . S
C357 C352 1.425 . S
C357 C354 1.409 . S
C357 C355 1.415 . S
C358 H348 0.930 . S
C358 C356 1.419 . S
C358 C359 1.362 . S
C359 H349 0.930 . S
C359 C352 1.409 . S
C359 C358 1.362 . S
H360 C366 0.930 . S
H361 C369 0.930 . S
H362 C370 0.930 . S
H363 C371 0.930 . S
H364 C374 0.930 . S
H365 C375 0.930 . S
C366 H360 0.930 . S
C366 C367 1.355 . S
C366 C368 1.415 . S
C367 C366 1.355 . S
C367 C369 1.419 . S
C368 C366 1.415 . S
C368 C373 1.425 . S
C368 C375 1.409 . S
C369 H361 0.930 . S
C369 C367 1.419 . S
C369 C370 1.362 . S
C370 H362 0.930 . S
C370 C369 1.362 . S
C370 C373 1.409 . S
C371 H363 0.930 . S
C371 C372 1.355 . S
C371 C373 1.415 . S
C372 C371 1.355 . S
C372 C374 1.419 . S
C373 C368 1.425 . S
C373 C370 1.409 . S
C373 C371 1.415 . S
C374 H364 0.930 . S
C374 C372 1.419 . S
C374 C375 1.362 . S
C375 H365 0.930 . S
C375 C368 1.409 . S
C375 C374 1.362 . S
H376 C382 0.930 . S
H377 C385 0.930 . S
H378 C386 0.930 1_554 S
H379 C387 0.951 . S
H380 C390 0.930 . S
H381 C391 0.930 . S
C382 H376 0.930 . S
C382 C383 1.355 . S
C382 C384 1.415 . S
C383 C382 1.355 . S
C383 C385 1.419 . S
C384 C382 1.415 . S
C384 C389 1.425 . S
C384 C391 1.409 . S
C385 H377 0.930 . S
C385 C383 1.419 . S
C385 C386 1.362 . S
C386 H378 0.930 1_556 S
C386 C385 1.362 . S
C386 C389 1.409 . S
C387 H379 0.951 . S
C387 C388 1.350 1_554 S
C387 C389 1.398 1_554 S
C388 C387 1.350 1_556 S
C388 C390 1.419 . S
C389 C384 1.425 . S
C389 C386 1.409 . S
C389 C387 1.398 1_556 S
C390 H380 0.930 . S
C390 C388 1.419 . S
C390 C391 1.362 . S
C391 H381 0.930 . S
C391 C384 1.409 . S
C391 C390 1.362 . S
H392 C398 0.930 . S
H393 C401 0.930 . S
H394 C402 0.930 . S
H395 C403 0.930 . S
H396 C406 0.930 . S
H397 C407 0.930 . S
C398 H392 0.930 . S
C398 C399 1.355 . S
C398 C400 1.415 . S
C399 C398 1.355 . S
C399 C401 1.419 . S
C400 C398 1.415 . S
C400 C405 1.425 . S
C400 C407 1.409 . S
C401 H393 0.930 . S
C401 C399 1.419 . S
C401 C402 1.362 . S
C402 H394 0.930 . S
C402 C401 1.362 . S
C402 C405 1.409 . S
C403 H395 0.930 . S
C403 C404 1.355 . S
C403 C405 1.415 . S
C404 C403 1.355 . S
C404 C406 1.419 . S
C405 C400 1.425 . S
C405 C402 1.409 . S
C405 C403 1.415 . S
C406 H396 0.930 . S
C406 C404 1.419 . S
C406 C407 1.362 . S
C407 H397 0.930 . S
C407 C400 1.409 . S
C407 C406 1.362 . S
H408 C414 0.930 . S
H409 C417 0.930 . S
H410 C418 0.930 . S
H411 C419 0.930 . S
H412 C422 0.930 . S
H413 C423 0.930 . S
C414 H408 0.930 . S
C414 C415 1.355 . S
C414 C416 1.415 . S
C415 C414 1.355 . S
C415 C417 1.419 . S
C416 C414 1.415 . S
C416 C421 1.425 . S
C416 C423 1.409 . S
C417 H409 0.930 . S
C417 C415 1.419 . S
C417 C418 1.362 . S
C418 H410 0.930 . S
C418 C417 1.362 . S
C418 C421 1.409 . S
C419 H411 0.930 . S
C419 C420 1.355 . S
C419 C421 1.415 . S
C420 C419 1.355 . S
C420 C422 1.419 . S
C421 C416 1.425 . S
C421 C418 1.409 . S
C421 C419 1.415 . S
C422 H412 0.930 . S
C422 C420 1.419 . S
C422 C423 1.362 . S
C423 H413 0.930 . S
C423 C416 1.409 . S
C423 C422 1.362 . S
H424 C430 0.930 . S
H425 C433 0.930 . S
H426 C434 0.930 . S
H427 C435 0.930 . S
H428 C438 0.930 . S
H429 C439 0.930 . S
C430 H424 0.930 . S
C430 C431 1.355 . S
C430 C432 1.415 . S
C431 C430 1.355 . S
C431 C433 1.419 . S
C432 C430 1.415 . S
C432 C437 1.425 . S
C432 C439 1.409 . S
C433 H425 0.930 . S
C433 C431 1.419 . S
C433 C434 1.362 . S
C434 H426 0.930 . S
C434 C433 1.362 . S
C434 C437 1.409 . S
C435 H427 0.930 . S
C435 C436 1.355 . S
C435 C437 1.415 . S
C436 C435 1.355 . S
C436 C438 1.419 . S
C437 C432 1.425 . S
C437 C434 1.409 . S
C437 C435 1.415 . S
C438 H428 0.930 . S
C438 C436 1.419 . S
C438 C439 1.362 . S
C439 H429 0.930 . S
C439 C432 1.409 . S
C439 C438 1.362 . S
H440 C446 0.930 . S
H441 C449 0.930 . S
H442 C450 0.930 . S
H443 C451 0.930 . S
H444 C454 0.930 . S
H445 C455 0.930 . S
C446 H440 0.930 . S
C446 C447 1.355 . S
C446 C448 1.415 . S
C447 C446 1.355 . S
C447 C449 1.419 . S
C448 C446 1.415 . S
C448 C453 1.425 . S
C448 C455 1.409 . S
C449 H441 0.930 . S
C449 C447 1.419 . S
C449 C450 1.362 . S
C450 H442 0.930 . S
C450 C449 1.362 . S
C450 C453 1.409 . S
C451 H443 0.930 . S
C451 C452 1.355 . S
C451 C453 1.415 . S
C452 C451 1.355 . S
C452 C454 1.419 . S
C453 C448 1.425 . S
C453 C450 1.409 . S
C453 C451 1.415 . S
C454 H444 0.930 . S
C454 C452 1.419 . S
C454 C455 1.362 . S
C455 H445 0.930 . S
C455 C448 1.409 . S
C455 C454 1.362 . S
H456 C462 0.930 . S
H457 C465 0.930 . S
H458 C466 0.930 . S
H459 C467 0.930 . S
H460 C470 0.930 . S
H461 C471 0.930 . S
C462 H456 0.930 . S
C462 C463 1.355 . S
C462 C464 1.415 . S
C463 C462 1.355 . S
C463 C465 1.419 . S
C464 C462 1.415 . S
C464 C469 1.425 . S
C464 C471 1.409 . S
C465 H457 0.930 . S
C465 C463 1.419 . S
C465 C466 1.362 . S
C466 H458 0.930 . S
C466 C465 1.362 . S
C466 C469 1.409 . S
C467 H459 0.930 . S
C467 C468 1.355 . S
C467 C469 1.415 . S
C468 C467 1.355 . S
C468 C470 1.419 . S
C469 C464 1.425 . S
C469 C466 1.409 . S
C469 C467 1.415 . S
C470 H460 0.930 . S
C470 C468 1.419 . S
C470 C471 1.362 . S
C471 H461 0.930 . S
C471 C464 1.409 . S
C471 C470 1.362 . S
H472 C478 0.930 . S
H473 C481 0.930 . S
H474 C482 0.930 . S
H475 C483 0.930 . S
H476 C486 0.930 . S
H477 C487 0.930 . S
C478 H472 0.930 . S
C478 C479 1.355 . S
C478 C480 1.415 . S
C479 C478 1.355 . S
C479 C481 1.419 . S
C480 C478 1.415 . S
C480 C485 1.425 . S
C480 C487 1.409 . S
C481 H473 0.930 . S
C481 C479 1.419 . S
C481 C482 1.362 . S
C482 H474 0.930 . S
C482 C481 1.362 . S
C482 C485 1.409 . S
C483 H475 0.930 . S
C483 C484 1.355 . S
C483 C485 1.415 . S
C484 C483 1.355 . S
C484 C486 1.419 . S
C485 C480 1.425 . S
C485 C482 1.409 . S
C485 C483 1.415 . S
C486 H476 0.930 . S
C486 C484 1.419 . S
C486 C487 1.362 . S
C487 H477 0.930 . S
C487 C480 1.409 . S
C487 C486 1.362 . S
H488 C494 0.930 . S
H489 C497 0.930 . S
H490 C498 0.930 . S
H491 C499 0.930 . S
H492 C502 0.930 . S
H493 C503 0.930 . S
C494 H488 0.930 . S
C494 C495 1.355 . S
C494 C496 1.415 . S
C495 C494 1.355 . S
C495 C497 1.419 . S
C496 C494 1.415 . S
C496 C501 1.425 . S
C496 C503 1.409 . S
C497 H489 0.930 . S
C497 C495 1.419 . S
C497 C498 1.362 . S
C498 H490 0.930 . S
C498 C497 1.362 . S
C498 C501 1.409 . S
C499 H491 0.930 . S
C499 C500 1.355 . S
C499 C501 1.415 . S
C500 C499 1.355 . S
C500 C502 1.419 . S
C501 C496 1.425 . S
C501 C498 1.409 . S
C501 C499 1.415 . S
C502 H492 0.930 . S
C502 C500 1.419 . S
C502 C503 1.362 . S
C503 H493 0.930 . S
C503 C496 1.409 . S
C503 C502 1.362 . S
H504 C510 0.930 . S
H505 C513 0.930 . S
H506 C514 0.930 . S
H507 C515 0.930 . S
H508 C518 0.930 . S
H509 C519 0.930 . S
C510 H504 0.930 . S
C510 C511 1.355 . S
C510 C512 1.415 . S
C511 C510 1.355 . S
C511 C513 1.419 . S
C512 C510 1.415 . S
C512 C517 1.425 . S
C512 C519 1.409 . S
C513 H505 0.930 . S
C513 C511 1.419 . S
C513 C514 1.362 . S
C514 H506 0.930 . S
C514 C513 1.362 . S
C514 C517 1.409 . S
C515 H507 0.930 . S
C515 C516 1.355 . S
C515 C517 1.415 . S
C516 C515 1.355 . S
C516 C518 1.419 . S
C517 C512 1.425 . S
C517 C514 1.409 . S
C517 C515 1.415 . S
C518 H508 0.930 . S
C518 C516 1.419 . S
C518 C519 1.362 . S
C519 H509 0.930 . S
C519 C512 1.409 . S
C519 C518 1.362 . S
H520 C526 0.930 . S
H521 C529 0.930 . S
H522 C530 0.930 . S
H523 C531 0.930 . S
H524 C534 0.930 . S
H525 C535 0.930 . S
C526 H520 0.930 . S
C526 C527 1.355 . S
C526 C528 1.415 . S
C527 C526 1.355 . S
C527 C529 1.419 . S
C528 C526 1.415 . S
C528 C533 1.425 . S
C528 C535 1.409 . S
C529 H521 0.930 . S
C529 C527 1.419 . S
C529 C530 1.362 . S
C530 H522 0.930 . S
C530 C529 1.362 . S
C530 C533 1.409 . S
C531 H523 0.930 . S
C531 C532 1.355 . S
C531 C533 1.415 . S
C532 C531 1.355 . S
C532 C534 1.419 . S
C533 C528 1.425 . S
C533 C530 1.409 . S
C533 C531 1.415 . S
C534 H524 0.930 . S
C534 C532 1.419 . S
C534 C535 1.362 . S
C535 H525 0.930 . S
C535 C528 1.409 . S
C535 C534 1.362 . S
H536 C542 0.930 . S
H537 C545 0.930 . S
H538 C546 0.930 . S
H539 C547 0.930 . S
H540 C550 0.930 . S
H541 C551 0.930 . S
C542 H536 0.930 . S
C542 C543 1.355 . S
C542 C544 1.415 . S
C543 C542 1.355 . S
C543 C545 1.419 . S
C544 C542 1.415 . S
C544 C549 1.425 . S
C544 C551 1.409 . S
C545 H537 0.930 . S
C545 C543 1.419 . S
C545 C546 1.362 . S
C546 H538 0.930 . S
C546 C545 1.362 . S
C546 C549 1.409 . S
C547 H539 0.930 . S
C547 C548 1.355 . S
C547 C549 1.415 . S
C548 C547 1.355 . S
C548 C550 1.419 . S
C549 C544 1.425 . S
C549 C546 1.409 . S
C549 C547 1.415 . S
C550 H540 0.930 . S
C550 C548 1.419 . S
C550 C551 1.362 . S
C551 H541 0.930 . S
C551 C544 1.409 . S
C551 C550 1.362 . S
C175 C120 1.406 . S
C180 C8 1.424 . S
C191 C22 1.398 . S
C196 C134 1.404 . S
C207 C36 1.445 . S
C212 C148 1.441 . S
C223 C50 1.400 . S
C228 C162 1.400 . S
C239 C92 1.444 . S
C244 C64 1.444 . S
C255 C78 1.443 . S
C260 C106 1.444 . S
C271 C7 1.496 . S
C276 C73 1.548 1_554 S
C287 C21 1.516 . S
C292 C3 1.531 . S
C303 C35 1.502 . S
C308 C17 1.543 . S
C319 C31 1.529 . S
C324 C49 1.519 . S
C335 C45 1.540 . S
C340 C63 1.505 . S
C351 C59 1.531 . S
C356 C77 1.515 . S
C367 C101 1.548 . S
C372 C91 1.496 . S
C383 C105 1.546 . S
C388 C115 1.505 1_556 S
C399 C129 1.531 . S
C404 C119 1.516 . S
C415 C133 1.496 . S
C420 C143 1.548 . S
C431 C147 1.543 . S
C436 C157 1.508 . S
C447 C161 1.503 . S
C452 C87 1.541 . S
C463 C149 1.271 . S
C468 C9 1.308 . S
C479 C163 1.277 . S
C484 C23 1.295 . S
C495 C93 1.310 . S
C500 C37 1.268 . S
C511 C51 1.285 . S
C516 C107 1.287 . S
C527 C65 1.302 . S
C532 C121 1.270 . S
C543 C135 1.284 . S
C548 C79 1.297 . S
