# Generated by pormake.
# Topology mer, (4)-cn, num edge types: 1
# Building blocks:
#     Node 0, Type 0, BuildingBlock: GALJAG_clean_sbu_0, # of connection points: 4
#     Node 1, Type 0, BuildingBlock: GALJAG_clean_sbu_0, # of connection points: 4
#     Node 2, Type 0, BuildingBlock: GALJAG_clean_sbu_0, # of connection points: 4
#     Node 3, Type 0, BuildingBlock: GALJAG_clean_sbu_0, # of connection points: 4
#     Node 4, Type 0, BuildingBlock: GALJAG_clean_sbu_0, # of connection points: 4
#     Node 5, Type 0, BuildingBlock: GALJAG_clean_sbu_0, # of connection points: 4
#     Node 6, Type 0, BuildingBlock: GALJAG_clean_sbu_0, # of connection points: 4
#     Node 7, Type 0, BuildingBlock: GALJAG_clean_sbu_0, # of connection points: 4
#     Node 8, Type 0, BuildingBlock: GALJAG_clean_sbu_0, # of connection points: 4
#     Node 9, Type 0, BuildingBlock: GALJAG_clean_sbu_0, # of connection points: 4
#     Node 10, Type 0, BuildingBlock: GALJAG_clean_sbu_0, # of connection points: 4
#     Node 11, Type 0, BuildingBlock: GALJAG_clean_sbu_0, # of connection points: 4
#     Node 12, Type 0, BuildingBlock: GALJAG_clean_sbu_0, # of connection points: 4
#     Node 13, Type 0, BuildingBlock: GALJAG_clean_sbu_0, # of connection points: 4
#     Node 14, Type 0, BuildingBlock: GALJAG_clean_sbu_0, # of connection points: 4
#     Node 15, Type 0, BuildingBlock: GALJAG_clean_sbu_0, # of connection points: 4
#     Node 16, Type 0, BuildingBlock: GALJAG_clean_sbu_0, # of connection points: 4
#     Node 17, Type 0, BuildingBlock: GALJAG_clean_sbu_0, # of connection points: 4
#     Node 18, Type 0, BuildingBlock: GALJAG_clean_sbu_0, # of connection points: 4
#     Node 19, Type 0, BuildingBlock: GALJAG_clean_sbu_0, # of connection points: 4
#     Node 20, Type 0, BuildingBlock: GALJAG_clean_sbu_0, # of connection points: 4
#     Node 21, Type 0, BuildingBlock: GALJAG_clean_sbu_0, # of connection points: 4
#     Node 22, Type 0, BuildingBlock: GALJAG_clean_sbu_0, # of connection points: 4
#     Node 23, Type 0, BuildingBlock: GALJAG_clean_sbu_0, # of connection points: 4
#     Node 24, Type 0, BuildingBlock: GALJAG_clean_sbu_0, # of connection points: 4
#     Node 25, Type 0, BuildingBlock: GALJAG_clean_sbu_0, # of connection points: 4
#     Node 26, Type 0, BuildingBlock: GALJAG_clean_sbu_0, # of connection points: 4
#     Node 27, Type 0, BuildingBlock: GALJAG_clean_sbu_0, # of connection points: 4
#     Node 28, Type 0, BuildingBlock: GALJAG_clean_sbu_0, # of connection points: 4
#     Node 29, Type 0, BuildingBlock: GALJAG_clean_sbu_0, # of connection points: 4
#     Node 30, Type 0, BuildingBlock: GALJAG_clean_sbu_0, # of connection points: 4
#     Node 31, Type 0, BuildingBlock: GALJAG_clean_sbu_0, # of connection points: 4
#     Edge 32, Type (0, 0), BuildingBlock: ZUJKAS_clean_linker_0, # of connection points: 2
#     Edge 33, Type (0, 0), BuildingBlock: ZUJKAS_clean_linker_0, # of connection points: 2
#     Edge 34, Type (0, 0), BuildingBlock: ZUJKAS_clean_linker_0, # of connection points: 2
#     Edge 35, Type (0, 0), BuildingBlock: ZUJKAS_clean_linker_0, # of connection points: 2
#     Edge 36, Type (0, 0), BuildingBlock: ZUJKAS_clean_linker_0, # of connection points: 2
#     Edge 37, Type (0, 0), BuildingBlock: ZUJKAS_clean_linker_0, # of connection points: 2
#     Edge 38, Type (0, 0), BuildingBlock: ZUJKAS_clean_linker_0, # of connection points: 2
#     Edge 39, Type (0, 0), BuildingBlock: ZUJKAS_clean_linker_0, # of connection points: 2
#     Edge 40, Type (0, 0), BuildingBlock: ZUJKAS_clean_linker_0, # of connection points: 2
#     Edge 41, Type (0, 0), BuildingBlock: ZUJKAS_clean_linker_0, # of connection points: 2
#     Edge 42, Type (0, 0), BuildingBlock: ZUJKAS_clean_linker_0, # of connection points: 2
#     Edge 43, Type (0, 0), BuildingBlock: ZUJKAS_clean_linker_0, # of connection points: 2
#     Edge 44, Type (0, 0), BuildingBlock: ZUJKAS_clean_linker_0, # of connection points: 2
#     Edge 45, Type (0, 0), BuildingBlock: ZUJKAS_clean_linker_0, # of connection points: 2
#     Edge 46, Type (0, 0), BuildingBlock: ZUJKAS_clean_linker_0, # of connection points: 2
#     Edge 47, Type (0, 0), BuildingBlock: ZUJKAS_clean_linker_0, # of connection points: 2
#     Edge 48, Type (0, 0), BuildingBlock: ZUJKAS_clean_linker_0, # of connection points: 2
#     Edge 49, Type (0, 0), BuildingBlock: ZUJKAS_clean_linker_0, # of connection points: 2
#     Edge 50, Type (0, 0), BuildingBlock: ZUJKAS_clean_linker_0, # of connection points: 2
#     Edge 51, Type (0, 0), BuildingBlock: ZUJKAS_clean_linker_0, # of connection points: 2
#     Edge 52, Type (0, 0), BuildingBlock: ZUJKAS_clean_linker_0, # of connection points: 2
#     Edge 53, Type (0, 0), BuildingBlock: ZUJKAS_clean_linker_0, # of connection points: 2
#     Edge 54, Type (0, 0), BuildingBlock: ZUJKAS_clean_linker_0, # of connection points: 2
#     Edge 55, Type (0, 0), BuildingBlock: ZUJKAS_clean_linker_0, # of connection points: 2
#     Edge 56, Type (0, 0), BuildingBlock: ZUJKAS_clean_linker_0, # of connection points: 2
#     Edge 57, Type (0, 0), BuildingBlock: ZUJKAS_clean_linker_0, # of connection points: 2
#     Edge 58, Type (0, 0), BuildingBlock: ZUJKAS_clean_linker_0, # of connection points: 2
#     Edge 59, Type (0, 0), BuildingBlock: ZUJKAS_clean_linker_0, # of connection points: 2
#     Edge 60, Type (0, 0), BuildingBlock: ZUJKAS_clean_linker_0, # of connection points: 2
#     Edge 61, Type (0, 0), BuildingBlock: ZUJKAS_clean_linker_0, # of connection points: 2
#     Edge 62, Type (0, 0), BuildingBlock: ZUJKAS_clean_linker_0, # of connection points: 2
#     Edge 63, Type (0, 0), BuildingBlock: ZUJKAS_clean_linker_0, # of connection points: 2
#     Edge 64, Type (0, 0), BuildingBlock: ZUJKAS_clean_linker_0, # of connection points: 2
#     Edge 65, Type (0, 0), BuildingBlock: ZUJKAS_clean_linker_0, # of connection points: 2
#     Edge 66, Type (0, 0), BuildingBlock: ZUJKAS_clean_linker_0, # of connection points: 2
#     Edge 67, Type (0, 0), BuildingBlock: ZUJKAS_clean_linker_0, # of connection points: 2
#     Edge 68, Type (0, 0), BuildingBlock: ZUJKAS_clean_linker_0, # of connection points: 2
#     Edge 69, Type (0, 0), BuildingBlock: ZUJKAS_clean_linker_0, # of connection points: 2
#     Edge 70, Type (0, 0), BuildingBlock: ZUJKAS_clean_linker_0, # of connection points: 2
#     Edge 71, Type (0, 0), BuildingBlock: ZUJKAS_clean_linker_0, # of connection points: 2
#     Edge 72, Type (0, 0), BuildingBlock: ZUJKAS_clean_linker_0, # of connection points: 2
#     Edge 73, Type (0, 0), BuildingBlock: ZUJKAS_clean_linker_0, # of connection points: 2
#     Edge 74, Type (0, 0), BuildingBlock: ZUJKAS_clean_linker_0, # of connection points: 2
#     Edge 75, Type (0, 0), BuildingBlock: ZUJKAS_clean_linker_0, # of connection points: 2
#     Edge 76, Type (0, 0), BuildingBlock: ZUJKAS_clean_linker_0, # of connection points: 2
#     Edge 77, Type (0, 0), BuildingBlock: ZUJKAS_clean_linker_0, # of connection points: 2
#     Edge 78, Type (0, 0), BuildingBlock: ZUJKAS_clean_linker_0, # of connection points: 2
#     Edge 79, Type (0, 0), BuildingBlock: ZUJKAS_clean_linker_0, # of connection points: 2
#     Edge 80, Type (0, 0), BuildingBlock: ZUJKAS_clean_linker_0, # of connection points: 2
#     Edge 81, Type (0, 0), BuildingBlock: ZUJKAS_clean_linker_0, # of connection points: 2
#     Edge 82, Type (0, 0), BuildingBlock: ZUJKAS_clean_linker_0, # of connection points: 2
#     Edge 83, Type (0, 0), BuildingBlock: ZUJKAS_clean_linker_0, # of connection points: 2
#     Edge 84, Type (0, 0), BuildingBlock: ZUJKAS_clean_linker_0, # of connection points: 2
#     Edge 85, Type (0, 0), BuildingBlock: ZUJKAS_clean_linker_0, # of connection points: 2
#     Edge 86, Type (0, 0), BuildingBlock: ZUJKAS_clean_linker_0, # of connection points: 2
#     Edge 87, Type (0, 0), BuildingBlock: ZUJKAS_clean_linker_0, # of connection points: 2
#     Edge 88, Type (0, 0), BuildingBlock: ZUJKAS_clean_linker_0, # of connection points: 2
#     Edge 89, Type (0, 0), BuildingBlock: ZUJKAS_clean_linker_0, # of connection points: 2
#     Edge 90, Type (0, 0), BuildingBlock: ZUJKAS_clean_linker_0, # of connection points: 2
#     Edge 91, Type (0, 0), BuildingBlock: ZUJKAS_clean_linker_0, # of connection points: 2
#     Edge 92, Type (0, 0), BuildingBlock: ZUJKAS_clean_linker_0, # of connection points: 2
#     Edge 93, Type (0, 0), BuildingBlock: ZUJKAS_clean_linker_0, # of connection points: 2
#     Edge 94, Type (0, 0), BuildingBlock: ZUJKAS_clean_linker_0, # of connection points: 2
#     Edge 95, Type (0, 0), BuildingBlock: ZUJKAS_clean_linker_0, # of connection points: 2
# Relax obj value: 0.054
# Max RMSD: 0.080
# Mean RMSD: 0.080
data_MOF--net-mer--node1-GALJAG_clean_sbu_0--edge1-ZUJKAS_clean_linker_0
_symmetry_space_group_name_H-M    P1
_symmetry_Int_Tables_number       1
_symmetry_cell_setting            triclinic
loop_
_symmetry_equiv_pos_as_xyz
'x, y, z'
_cell_length_a     82.588151
_cell_length_b     82.577073
_cell_length_c     70.743757
_cell_angle_alpha  90.006518
_cell_angle_beta   90.005191
_cell_angle_gamma 90.000467
loop_
_atom_site_label
_atom_site_type_symbol
_atom_site_fract_x
_atom_site_fract_y
_atom_site_fract_z
_atom_type_partial_charge
In0 In 0.11505 0.28513 0.36066 0.0
O1 O 0.12603 0.30764 0.34684 0.0
O2 O 0.11525 0.28991 0.32906 0.0
C3 C 0.11773 0.29248 0.39767 0.0
C4 C 0.13733 0.26147 0.357 0.0
C5 C 0.08266 0.28199 0.35813 0.0
O6 O 0.11999 0.30293 0.3849 0.0
O7 O 0.11407 0.27858 0.39171 0.0
O8 O 0.09213 0.27002 0.35725 0.0
O9 O 0.08954 0.29552 0.36021 0.0
C10 C 0.12256 0.30327 0.33022 0.0
O11 O 0.12247 0.25913 0.35388 0.0
O12 O 0.14092 0.27574 0.36179 0.0
In13 In 0.7111 0.1191 0.3632 0.0
O14 O 0.73791 0.12533 0.36009 0.0
O15 O 0.72078 0.14451 0.35829 0.0
C16 C 0.71384 0.0866 0.3619 0.0
C17 C 0.69281 0.12567 0.33261 0.0
C18 C 0.70326 0.12412 0.39978 0.0
O19 O 0.72547 0.09591 0.35789 0.0
O20 O 0.70095 0.0937 0.36666 0.0
O21 O 0.69265 0.12314 0.38698 0.0
O22 O 0.71763 0.12261 0.39409 0.0
C23 C 0.73547 0.14031 0.35789 0.0
O24 O 0.68951 0.13123 0.34878 0.0
O25 O 0.7052 0.11676 0.33198 0.0
In26 In 0.87981 0.71158 0.36115 0.0
O27 O 0.86758 0.69016 0.34647 0.0
O28 O 0.88249 0.70563 0.32994 0.0
C29 C 0.87481 0.70416 0.39781 0.0
C30 C 0.85871 0.73607 0.3559 0.0
C31 C 0.91232 0.7139 0.36111 0.0
O32 O 0.8748 0.69347 0.38504 0.0
O33 O 0.87732 0.71838 0.39203 0.0
O34 O 0.90327 0.72579 0.35732 0.0
O35 O 0.90495 0.70091 0.36486 0.0
C36 C 0.8734 0.69337 0.3304 0.0
O37 O 0.87385 0.7382 0.3557 0.0
O38 O 0.8543 0.72162 0.35852 0.0
In39 In 0.28569 0.87894 0.36172 0.0
O40 O 0.30717 0.86567 0.34833 0.0
O41 O 0.29697 0.88543 0.33337 0.0
C42 C 0.29559 0.87285 0.39733 0.0
C43 C 0.26075 0.85853 0.35499 0.0
C44 C 0.27867 0.91083 0.36196 0.0
O45 O 0.30507 0.87834 0.38486 0.0
O46 O 0.28131 0.87032 0.39172 0.0
O47 O 0.27402 0.90151 0.34892 0.0
O48 O 0.28669 0.90406 0.37489 0.0
C49 C 0.30738 0.8743 0.33363 0.0
O50 O 0.25863 0.87298 0.3602 0.0
O51 O 0.27536 0.8545 0.35302 0.0
In52 In 0.11872 0.71107 0.634 0.0
O53 O 0.12558 0.73737 0.63984 0.0
O54 O 0.14361 0.72187 0.62832 0.0
C55 C 0.08679 0.71534 0.64003 0.0
C56 C 0.12778 0.69363 0.66443 0.0
C57 C 0.12016 0.70087 0.59774 0.0
O58 O 0.09616 0.72689 0.63597 0.0
O59 O 0.09355 0.70168 0.64123 0.0
O60 O 0.12843 0.69434 0.61067 0.0
O61 O 0.11122 0.71231 0.60317 0.0
C62 C 0.13998 0.73585 0.63414 0.0
O63 O 0.12367 0.68704 0.64905 0.0
O64 O 0.12727 0.70889 0.66437 0.0
In65 In 0.28692 0.11842 0.63144 0.0
O66 O 0.30971 0.1279 0.64603 0.0
O67 O 0.29015 0.11993 0.66323 0.0
C68 C 0.29522 0.12072 0.59468 0.0
C69 C 0.26282 0.14038 0.63381 0.0
C70 C 0.28516 0.08598 0.63468 0.0
O71 O 0.30444 0.1256 0.60774 0.0
O72 O 0.28194 0.11488 0.60023 0.0
O73 O 0.27278 0.09493 0.63558 0.0
O74 O 0.29834 0.09342 0.63227 0.0
C75 C 0.30426 0.12574 0.66252 0.0
O76 O 0.26046 0.12541 0.63614 0.0
O77 O 0.27729 0.14421 0.63026 0.0
In78 In 0.8809 0.28631 0.6353 0.0
O79 O 0.8755 0.25918 0.63757 0.0
O80 O 0.85596 0.2751 0.63167 0.0
C81 C 0.91291 0.2848 0.64182 0.0
C82 C 0.87152 0.3028 0.66631 0.0
C83 C 0.8798 0.296 0.59888 0.0
O84 O 0.90412 0.2723 0.64093 0.0
O85 O 0.90551 0.29804 0.63953 0.0
O86 O 0.87038 0.30171 0.61124 0.0
O87 O 0.88969 0.28561 0.60492 0.0
C88 C 0.86054 0.26074 0.63446 0.0
O89 O 0.87214 0.30933 0.65019 0.0
O90 O 0.87566 0.28812 0.66668 0.0
In91 In 0.71181 0.87944 0.63431 0.0
O92 O 0.68917 0.86842 0.64769 0.0
O93 O 0.70693 0.87868 0.66586 0.0
C94 C 0.70546 0.87612 0.59711 0.0
C95 C 0.73616 0.85799 0.63823 0.0
C96 C 0.713 0.91193 0.63729 0.0
O97 O 0.69491 0.87323 0.60959 0.0
O98 O 0.71898 0.88067 0.60344 0.0
O99 O 0.72524 0.90309 0.64005 0.0
O100 O 0.70022 0.90437 0.63309 0.0
C101 C 0.69349 0.87153 0.66442 0.0
O102 O 0.73838 0.87309 0.63936 0.0
O103 O 0.7217 0.85379 0.63528 0.0
In104 In 0.88175 0.71234 0.6333 0.0
O105 O 0.87508 0.73901 0.63696 0.0
O106 O 0.85601 0.72174 0.63653 0.0
C107 C 0.91414 0.71576 0.63504 0.0
C108 C 0.87525 0.69358 0.66357 0.0
C109 C 0.87749 0.70472 0.59658 0.0
O110 O 0.90451 0.7267 0.64041 0.0
O111 O 0.90741 0.70313 0.62878 0.0
O112 O 0.87728 0.69411 0.60944 0.0
O113 O 0.87989 0.71898 0.6023 0.0
C114 C 0.86003 0.73643 0.63783 0.0
O115 O 0.86994 0.69032 0.64728 0.0
O116 O 0.88391 0.70612 0.66447 0.0
In117 In 0.28732 0.87996 0.63301 0.0
O118 O 0.26085 0.87329 0.6384 0.0
O119 O 0.27724 0.85438 0.63144 0.0
C120 C 0.28555 0.9124 0.63586 0.0
C121 C 0.30448 0.87203 0.66408 0.0
C122 C 0.29555 0.87771 0.59622 0.0
O123 O 0.27321 0.90343 0.63698 0.0
O124 O 0.29875 0.90499 0.63339 0.0
O125 O 0.30533 0.87408 0.60929 0.0
O126 O 0.28183 0.88239 0.60178 0.0
C127 C 0.26292 0.85835 0.63552 0.0
O128 O 0.30902 0.86813 0.64765 0.0
O129 O 0.29145 0.87995 0.66472 0.0
In130 In 0.11822 0.28745 0.63472 0.0
O131 O 0.12531 0.26107 0.63962 0.0
O132 O 0.14408 0.27794 0.63365 0.0
C133 C 0.08591 0.28535 0.63923 0.0
C134 C 0.12615 0.30567 0.66493 0.0
C135 C 0.12015 0.29436 0.59753 0.0
O136 O 0.09513 0.27324 0.64081 0.0
O137 O 0.093 0.29847 0.63536 0.0
O138 O 0.12439 0.30441 0.61005 0.0
O139 O 0.11497 0.28106 0.60383 0.0
C140 C 0.14027 0.26346 0.63719 0.0
O141 O 0.12783 0.31073 0.6482 0.0
O142 O 0.12056 0.29151 0.6663 0.0
In143 In 0.71228 0.11787 0.63523 0.0
O144 O 0.68989 0.12894 0.64907 0.0
O145 O 0.70841 0.1198 0.66699 0.0
C146 C 0.70385 0.11993 0.59847 0.0
C147 C 0.73748 0.13868 0.63674 0.0
C148 C 0.71309 0.0855 0.63952 0.0
O149 O 0.69523 0.12587 0.61148 0.0
O150 O 0.71661 0.11305 0.60404 0.0
O151 O 0.72558 0.09422 0.64106 0.0
O152 O 0.70021 0.09314 0.63596 0.0
C153 C 0.69477 0.12658 0.66575 0.0
O154 O 0.7392 0.12362 0.639 0.0
O155 O 0.72312 0.14317 0.63377 0.0
In156 In 0.8776 0.28861 0.3619 0.0
O157 O 0.87191 0.26155 0.36091 0.0
O158 O 0.8532 0.2781 0.35354 0.0
C159 C 0.90978 0.28294 0.36137 0.0
C160 C 0.87129 0.30944 0.33339 0.0
C161 C 0.87163 0.2969 0.39816 0.0
O162 O 0.89988 0.27442 0.3521 0.0
O163 O 0.90342 0.29416 0.37089 0.0
O164 O 0.87799 0.3066 0.38655 0.0
O165 O 0.86815 0.28321 0.39142 0.0
C166 C 0.85741 0.26353 0.35571 0.0
O167 O 0.86461 0.31059 0.34937 0.0
O168 O 0.8813 0.29801 0.33196 0.0
In169 In 0.71225 0.88083 0.35995 0.0
O170 O 0.68952 0.87021 0.34622 0.0
O171 O 0.70843 0.87855 0.3283 0.0
C172 C 0.70534 0.878 0.39706 0.0
C173 C 0.73667 0.85933 0.35725 0.0
C174 C 0.71367 0.91328 0.35633 0.0
O175 O 0.69514 0.87447 0.38441 0.0
O176 O 0.71878 0.88296 0.39094 0.0
O177 O 0.72591 0.90432 0.3542 0.0
O178 O 0.70073 0.90586 0.36015 0.0
C179 C 0.69463 0.8721 0.32954 0.0
O180 O 0.73883 0.87436 0.35522 0.0
O181 O 0.72224 0.85521 0.36057 0.0
In182 In 0.1183 0.71038 0.3626 0.0
O183 O 0.12428 0.73719 0.35888 0.0
O184 O 0.14371 0.72031 0.35832 0.0
C185 C 0.08578 0.71293 0.36256 0.0
C186 C 0.1243 0.69246 0.33154 0.0
C187 C 0.12367 0.70237 0.39906 0.0
O188 O 0.09492 0.72466 0.35844 0.0
O189 O 0.09306 0.69995 0.36662 0.0
O190 O 0.12353 0.69191 0.38605 0.0
O191 O 0.1212 0.71669 0.39361 0.0
C192 C 0.13933 0.73492 0.35731 0.0
O193 O 0.13001 0.68887 0.34756 0.0
O194 O 0.1155 0.70493 0.3313 0.0
In195 In 0.28396 0.11636 0.36055 0.0
O196 O 0.30689 0.12539 0.34589 0.0
O197 O 0.28685 0.11846 0.32877 0.0
C198 C 0.29413 0.11766 0.39678 0.0
C199 C 0.26012 0.13867 0.35853 0.0
C200 C 0.2802 0.0841 0.3572 0.0
O201 O 0.30248 0.12334 0.38339 0.0
O202 O 0.28084 0.11149 0.39183 0.0
O203 O 0.2686 0.09345 0.36117 0.0
O204 O 0.29366 0.09103 0.35478 0.0
C205 C 0.30115 0.1238 0.32943 0.0
O206 O 0.25804 0.12409 0.35381 0.0
O207 O 0.27417 0.14197 0.36429 0.0
In208 In 0.61677 0.78687 0.86233 0.0
O209 O 0.629 0.8085 0.84803 0.0
O210 O 0.61507 0.79253 0.83099 0.0
C211 C 0.62046 0.79463 0.89915 0.0
C212 C 0.63855 0.76294 0.85744 0.0
C213 C 0.58436 0.78361 0.86055 0.0
O214 O 0.61999 0.80527 0.88635 0.0
O215 O 0.61908 0.78027 0.89333 0.0
O216 O 0.59386 0.77179 0.85834 0.0
O217 O 0.59122 0.79699 0.86373 0.0
C218 C 0.62383 0.80501 0.83173 0.0
O219 O 0.62347 0.76046 0.8568 0.0
O220 O 0.64257 0.77746 0.86046 0.0
In221 In 0.21236 0.61326 0.86117 0.0
O222 O 0.18884 0.61769 0.84481 0.0
O223 O 0.21117 0.6214 0.83055 0.0
C224 C 0.20086 0.61418 0.8969 0.0
C225 C 0.23625 0.63545 0.86285 0.0
C226 C 0.21789 0.58152 0.85521 0.0
O227 O 0.19465 0.62242 0.88375 0.0
O228 O 0.21267 0.6055 0.89196 0.0
O229 O 0.22913 0.59144 0.8587 0.0
O230 O 0.20391 0.58766 0.85455 0.0
C231 C 0.19594 0.62171 0.82972 0.0
O232 O 0.2387 0.62102 0.85769 0.0
O233 O 0.22179 0.63864 0.86721 0.0
In234 In 0.37663 0.20924 0.86147 0.0
O235 O 0.3642 0.18732 0.84797 0.0
O236 O 0.38114 0.20058 0.8315 0.0
C237 C 0.37093 0.20284 0.89826 0.0
C238 C 0.35575 0.23354 0.85416 0.0
C239 C 0.40899 0.21312 0.86115 0.0
O240 O 0.37256 0.19169 0.88618 0.0
O241 O 0.37201 0.21697 0.89169 0.0
O242 O 0.39948 0.2231 0.85344 0.0
O243 O 0.40216 0.20122 0.869 0.0
C244 C 0.37128 0.18895 0.83227 0.0
O245 O 0.37049 0.23601 0.85789 0.0
O246 O 0.35162 0.21884 0.854 0.0
In247 In 0.78215 0.38071 0.86235 0.0
O248 O 0.80502 0.37169 0.84749 0.0
O249 O 0.78426 0.37665 0.83069 0.0
C250 C 0.79176 0.37951 0.89876 0.0
C251 C 0.75775 0.359 0.86233 0.0
C252 C 0.77979 0.41298 0.85769 0.0
O253 O 0.79991 0.37311 0.88563 0.0
O254 O 0.77889 0.38636 0.89346 0.0
O255 O 0.76753 0.40388 0.85834 0.0
O256 O 0.7932 0.40577 0.85916 0.0
C257 C 0.79877 0.37194 0.8312 0.0
O258 O 0.75565 0.37369 0.8581 0.0
O259 O 0.77211 0.35531 0.86659 0.0
In260 In 0.61699 0.20925 0.13323 0.0
O261 O 0.6287 0.18738 0.14746 0.0
O262 O 0.61725 0.20492 0.16494 0.0
C263 C 0.61976 0.19998 0.09676 0.0
C264 C 0.63927 0.23288 0.13667 0.0
C265 C 0.5847 0.2136 0.13579 0.0
O266 O 0.61865 0.18986 0.11006 0.0
O267 O 0.61942 0.21458 0.10189 0.0
O268 O 0.59449 0.22529 0.13483 0.0
O269 O 0.59119 0.19979 0.13542 0.0
C270 C 0.62502 0.1918 0.164 0.0
O271 O 0.6243 0.23546 0.13874 0.0
O272 O 0.64295 0.21838 0.13301 0.0
In273 In 0.78749 0.61635 0.13315 0.0
O274 O 0.76051 0.62195 0.13688 0.0
O275 O 0.77596 0.64096 0.12788 0.0
C276 C 0.78408 0.58456 0.14003 0.0
C277 C 0.80514 0.62565 0.16338 0.0
C278 C 0.79769 0.61683 0.09683 0.0
O279 O 0.77212 0.59377 0.13712 0.0
O280 O 0.79775 0.59144 0.13956 0.0
O281 O 0.80127 0.62788 0.1084 0.0
O282 O 0.7892 0.60558 0.10361 0.0
C283 C 0.76181 0.63661 0.13212 0.0
O284 O 0.81125 0.6242 0.14712 0.0
O285 O 0.79025 0.62244 0.1643 0.0
In286 In 0.37878 0.78667 0.13619 0.0
O287 O 0.36973 0.81018 0.14964 0.0
O288 O 0.37694 0.79096 0.16779 0.0
C289 C 0.37751 0.79404 0.09906 0.0
C290 C 0.35613 0.76325 0.1389 0.0
C291 C 0.41099 0.78353 0.14077 0.0
O292 O 0.37283 0.80384 0.11165 0.0
O293 O 0.38268 0.78071 0.10526 0.0
O294 O 0.40146 0.7716 0.14151 0.0
O295 O 0.40426 0.797 0.13773 0.0
C296 C 0.37158 0.8052 0.16639 0.0
O297 O 0.371 0.76056 0.14154 0.0
O298 O 0.35269 0.77774 0.13495 0.0
In299 In 0.21128 0.38087 0.13485 0.0
O300 O 0.1888 0.36968 0.14829 0.0
O301 O 0.20597 0.38094 0.16641 0.0
C302 C 0.20394 0.37755 0.09786 0.0
C303 C 0.23562 0.35934 0.13889 0.0
C304 C 0.21312 0.41336 0.13749 0.0
O305 O 0.19386 0.37444 0.11077 0.0
O306 O 0.2176 0.38222 0.10365 0.0
O307 O 0.22511 0.40427 0.14066 0.0
O308 O 0.20023 0.40603 0.13318 0.0
C309 C 0.19278 0.37334 0.16498 0.0
O310 O 0.23798 0.37444 0.13907 0.0
O311 O 0.22106 0.35517 0.13669 0.0
In312 In 0.37955 0.21239 0.13556 0.0
O313 O 0.36714 0.19003 0.14785 0.0
O314 O 0.38175 0.20421 0.16619 0.0
C315 C 0.37491 0.20584 0.09861 0.0
C316 C 0.35837 0.23677 0.1413 0.0
C317 C 0.41198 0.21581 0.13701 0.0
O318 O 0.37559 0.19481 0.11094 0.0
O319 O 0.37652 0.22001 0.10497 0.0
O320 O 0.40244 0.2259 0.14445 0.0
O321 O 0.40516 0.20398 0.12902 0.0
C322 C 0.3726 0.19209 0.16433 0.0
O323 O 0.37338 0.23917 0.13939 0.0
O324 O 0.35413 0.22212 0.14045 0.0
In325 In 0.78445 0.37953 0.13351 0.0
O326 O 0.80691 0.3698 0.14866 0.0
O327 O 0.78744 0.37881 0.16531 0.0
C328 C 0.7932 0.37783 0.09684 0.0
C329 C 0.76083 0.35705 0.13548 0.0
C330 C 0.7818 0.41183 0.1373 0.0
O331 O 0.80249 0.3732 0.10996 0.0
O332 O 0.77968 0.38316 0.1023 0.0
O333 O 0.76964 0.40256 0.13753 0.0
O334 O 0.79523 0.40479 0.13511 0.0
C335 C 0.80139 0.37261 0.16499 0.0
O336 O 0.75809 0.37197 0.13762 0.0
O337 O 0.77544 0.35352 0.13234 0.0
In338 In 0.61598 0.7823 0.13405 0.0
O339 O 0.62473 0.80516 0.14922 0.0
O340 O 0.62098 0.7839 0.16556 0.0
C341 C 0.61686 0.79225 0.09773 0.0
C342 C 0.63739 0.75764 0.13313 0.0
C343 C 0.58384 0.78018 0.13987 0.0
O344 O 0.6241 0.7998 0.11076 0.0
O345 O 0.60927 0.77982 0.10307 0.0
O346 O 0.59284 0.76784 0.13896 0.0
O347 O 0.59108 0.79353 0.13794 0.0
C348 C 0.62517 0.79858 0.16532 0.0
O349 O 0.62266 0.75558 0.13718 0.0
O350 O 0.64126 0.77209 0.1295 0.0
In351 In 0.20872 0.61923 0.1316 0.0
O352 O 0.1866 0.6308 0.14553 0.0
O353 O 0.2036 0.61877 0.16316 0.0
C354 C 0.20085 0.62255 0.0948 0.0
C355 C 0.23266 0.64114 0.13559 0.0
C356 C 0.21168 0.58676 0.13349 0.0
O357 O 0.19034 0.623 0.10775 0.0
O358 O 0.21518 0.62049 0.10046 0.0
O359 O 0.22352 0.59616 0.13606 0.0
O360 O 0.19843 0.59375 0.13006 0.0
C361 C 0.19059 0.6267 0.16208 0.0
O362 O 0.23508 0.6261 0.13707 0.0
O363 O 0.21819 0.64508 0.13217 0.0
In364 In 0.37902 0.7845 0.86258 0.0
O365 O 0.37198 0.75806 0.85792 0.0
O366 O 0.35342 0.77462 0.86558 0.0
C367 C 0.41127 0.78245 0.85769 0.0
C368 C 0.37015 0.80196 0.83209 0.0
C369 C 0.37839 0.79269 0.89947 0.0
O370 O 0.40215 0.7702 0.85707 0.0
O371 O 0.4041 0.79571 0.86062 0.0
O372 O 0.37342 0.80218 0.88673 0.0
O373 O 0.38355 0.77925 0.89355 0.0
C374 C 0.35717 0.76023 0.86154 0.0
O375 O 0.3679 0.80694 0.84877 0.0
O376 O 0.37686 0.78829 0.83088 0.0
In377 In 0.21012 0.37815 0.8627 0.0
O378 O 0.18836 0.36581 0.84873 0.0
O379 O 0.20083 0.38391 0.8332 0.0
C380 C 0.20105 0.37232 0.89876 0.0
C381 C 0.23413 0.3568 0.85606 0.0
C382 C 0.21748 0.40995 0.8623 0.0
O383 O 0.19129 0.37768 0.88653 0.0
O384 O 0.21518 0.3698 0.89274 0.0
O385 O 0.22568 0.39955 0.85342 0.0
O386 O 0.20565 0.40429 0.87144 0.0
C387 C 0.18953 0.37368 0.8335 0.0
O388 O 0.23679 0.37098 0.86194 0.0
O389 O 0.21939 0.35343 0.85348 0.0
In390 In 0.6142 0.21076 0.86312 0.0
O391 O 0.62625 0.18926 0.84841 0.0
O392 O 0.61527 0.20733 0.83127 0.0
C393 C 0.61489 0.20052 0.89931 0.0
C394 C 0.63587 0.23525 0.86226 0.0
C395 C 0.58194 0.21351 0.85912 0.0
O396 O 0.61996 0.19184 0.88587 0.0
O397 O 0.6096 0.21422 0.89445 0.0
O398 O 0.59112 0.22565 0.86082 0.0
O399 O 0.58906 0.19998 0.85929 0.0
C400 C 0.62302 0.19419 0.83194 0.0
O401 O 0.62125 0.23712 0.85761 0.0
O402 O 0.63951 0.22109 0.86735 0.0
In403 In 0.78511 0.61869 0.85887 0.0
O404 O 0.8073 0.6308 0.84581 0.0
O405 O 0.79146 0.61779 0.82763 0.0
C406 C 0.79238 0.62252 0.89582 0.0
C407 C 0.76131 0.64042 0.85325 0.0
C408 C 0.78139 0.58628 0.85723 0.0
O409 O 0.80314 0.61995 0.88352 0.0
O410 O 0.77815 0.62317 0.88948 0.0
O411 O 0.7696 0.5959 0.85552 0.0
O412 O 0.7949 0.59303 0.85974 0.0
C413 C 0.80413 0.62619 0.82919 0.0
O414 O 0.75885 0.62532 0.85247 0.0
O415 O 0.77577 0.64446 0.85667 0.0
H416 H 0.22878 0.13426 0.34731 0.0
H417 H 0.20738 0.15475 0.34532 0.0
H418 H 0.24074 0.19111 0.36529 0.0
H419 H 0.26221 0.17076 0.36719 0.0
H420 H 0.19533 0.17457 0.37502 0.0
H421 H 0.22164 0.2111 0.31674 0.0
H422 H 0.22824 0.19073 0.32193 0.0
H423 H 0.23524 0.20739 0.33609 0.0
C424 C 0.23156 0.14663 0.3512 0.0
C425 C 0.24717 0.15094 0.35733 0.0
C426 C 0.21934 0.1583 0.35006 0.0
C427 C 0.22258 0.17446 0.35489 0.0
C428 C 0.23811 0.17876 0.36115 0.0
H429 H 0.1696 0.26369 0.36454 0.0
H430 H 0.18973 0.242 0.36351 0.0
C431 C 0.25032 0.16711 0.36233 0.0
C432 C 0.2096 0.18677 0.35392 0.0
H433 H 0.19931 0.22262 0.33316 0.0
C434 C 0.19609 0.18502 0.36576 0.0
C435 C 0.21071 0.20035 0.34183 0.0
C436 C 0.22466 0.20249 0.32829 0.0
C437 C 0.18385 0.19679 0.36628 0.0
C438 C 0.18505 0.21049 0.35434 0.0
C439 C 0.19846 0.21211 0.3423 0.0
C440 C 0.17278 0.22354 0.35456 0.0
C441 C 0.17003 0.19475 0.38003 0.0
C442 C 0.15664 0.22038 0.34959 0.0
C443 C 0.14509 0.23275 0.35022 0.0
C444 C 0.14955 0.24849 0.3557 0.0
C445 C 0.1658 0.25168 0.3603 0.0
C446 C 0.17731 0.23931 0.3597 0.0
H447 H 0.17289 0.18573 0.39119 0.0
H448 H 0.16698 0.20645 0.38691 0.0
H449 H 0.15917 0.19046 0.37228 0.0
H450 H 0.15298 0.20836 0.34521 0.0
H451 H 0.13268 0.22997 0.34649 0.0
H452 H 0.76806 0.13479 0.36015 0.0
H453 H 0.78983 0.15494 0.35854 0.0
H454 H 0.75455 0.19255 0.34885 0.0
H455 H 0.73276 0.17259 0.35077 0.0
H456 H 0.79875 0.17681 0.32998 0.0
H457 H 0.77935 0.20895 0.39499 0.0
H458 H 0.77175 0.18919 0.38867 0.0
H459 H 0.76358 0.20706 0.37768 0.0
C460 C 0.76497 0.14735 0.35762 0.0
C461 C 0.74872 0.15216 0.35577 0.0
C462 C 0.7774 0.15883 0.35669 0.0
C463 C 0.77375 0.17525 0.35393 0.0
C464 C 0.75758 0.17998 0.35142 0.0
H465 H 0.8255 0.26532 0.34629 0.0
H466 H 0.80594 0.24313 0.34477 0.0
C467 C 0.74516 0.16855 0.35243 0.0
C468 C 0.78679 0.18755 0.35394 0.0
H469 H 0.79929 0.22203 0.37617 0.0
C470 C 0.79897 0.18664 0.34014 0.0
C471 C 0.78706 0.20029 0.36731 0.0
C472 C 0.77483 0.20139 0.38312 0.0
C473 C 0.81115 0.19847 0.33899 0.0
C474 C 0.81116 0.21139 0.35209 0.0
C475 C 0.79914 0.21215 0.36606 0.0
C476 C 0.82338 0.22446 0.35151 0.0
C477 C 0.82366 0.19734 0.32352 0.0
C478 C 0.83967 0.22125 0.35572 0.0
C479 C 0.85088 0.23391 0.35665 0.0
C480 C 0.84593 0.24997 0.35343 0.0
C481 C 0.82968 0.25307 0.34883 0.0
C482 C 0.81849 0.24043 0.34796 0.0
H483 H 0.82013 0.1885 0.31241 0.0
H484 H 0.82559 0.20935 0.31683 0.0
H485 H 0.83536 0.19337 0.32969 0.0
H486 H 0.84361 0.20901 0.3588 0.0
H487 H 0.86333 0.23118 0.36028 0.0
H488 H 0.82584 0.73412 0.35721 0.0
H489 H 0.80638 0.75641 0.35615 0.0
H490 H 0.84551 0.79058 0.34994 0.0
H491 H 0.86512 0.76829 0.35088 0.0
H492 H 0.80604 0.78302 0.38211 0.0
H493 H 0.81304 0.80298 0.3074 0.0
H494 H 0.81963 0.78331 0.31551 0.0
H495 H 0.83137 0.801 0.32095 0.0
C496 C 0.83031 0.74636 0.35542 0.0
C497 C 0.847 0.74948 0.35411 0.0
C498 C 0.81918 0.75906 0.35484 0.0
C499 C 0.82452 0.77508 0.35281 0.0
C500 C 0.84116 0.77825 0.35123 0.0
H501 H 0.76888 0.8652 0.35138 0.0
H502 H 0.79093 0.8453 0.35062 0.0
C503 C 0.85233 0.76553 0.35185 0.0
C504 C 0.81264 0.78846 0.35336 0.0
H505 H 0.79533 0.81822 0.32666 0.0
C506 C 0.8037 0.79074 0.37 0.0
C507 C 0.80976 0.79856 0.33759 0.0
C508 C 0.81885 0.79635 0.31927 0.0
C509 C 0.79183 0.80282 0.37128 0.0
C510 C 0.78862 0.81264 0.35534 0.0
C511 C 0.79781 0.81062 0.33882 0.0
C512 C 0.77533 0.82465 0.35537 0.0
C513 C 0.78292 0.80504 0.38972 0.0
C514 C 0.75928 0.81956 0.35794 0.0
C515 C 0.74672 0.83085 0.35842 0.0
C516 C 0.74998 0.84743 0.35619 0.0
C517 C 0.76603 0.8525 0.3532 0.0
C518 C 0.77861 0.84117 0.35275 0.0
H519 H 0.78982 0.7999 0.4018 0.0
H520 H 0.78054 0.81805 0.39257 0.0
H521 H 0.77112 0.79865 0.38896 0.0
H522 H 0.75647 0.80682 0.3596 0.0
H523 H 0.73446 0.82657 0.36061 0.0
H524 H 0.17187 0.73259 0.35177 0.0
H525 H 0.19149 0.75468 0.34975 0.0
H526 H 0.15298 0.78953 0.35621 0.0
H527 H 0.13319 0.76744 0.35791 0.0
H528 H 0.17556 0.79794 0.32822 0.0
H529 H 0.20593 0.78131 0.39541 0.0
H530 H 0.20488 0.76493 0.37878 0.0
H531 H 0.18653 0.77312 0.38859 0.0
C532 C 0.16756 0.74495 0.3527 0.0
C533 C 0.15102 0.7483 0.35516 0.0
C534 C 0.17879 0.75755 0.35163 0.0
C535 C 0.1737 0.7737 0.35321 0.0
C536 C 0.15714 0.77712 0.35509 0.0
H537 H 0.22827 0.8642 0.35862 0.0
H538 H 0.20634 0.84421 0.35703 0.0
C539 C 0.14587 0.76451 0.35608 0.0
C540 C 0.18575 0.78696 0.35315 0.0
H541 H 0.21929 0.80082 0.37621 0.0
C542 C 0.18506 0.79867 0.33878 0.0
C543 C 0.19804 0.78792 0.36704 0.0
C544 C 0.19884 0.77625 0.38344 0.0
C545 C 0.19671 0.81103 0.33758 0.0
C546 C 0.20921 0.81168 0.35119 0.0
C547 C 0.20973 0.80016 0.36573 0.0
C548 C 0.22212 0.82405 0.35054 0.0
C549 C 0.19586 0.82303 0.32155 0.0
C550 C 0.23819 0.81929 0.34741 0.0
C551 C 0.25069 0.83062 0.34831 0.0
C552 C 0.24734 0.84691 0.35254 0.0
C553 C 0.23119 0.85173 0.3553 0.0
C554 C 0.21866 0.84037 0.35432 0.0
H555 H 0.18718 0.81918 0.31041 0.0
H556 H 0.19188 0.83495 0.32711 0.0
H557 H 0.20799 0.82468 0.31505 0.0
H558 H 0.24107 0.80672 0.34456 0.0
H559 H 0.26302 0.82655 0.34613 0.0
H560 H 0.13486 0.76708 0.64543 0.0
H561 H 0.15475 0.78908 0.64684 0.0
H562 H 0.19156 0.75688 0.62547 0.0
H563 H 0.17181 0.73483 0.6241 0.0
H564 H 0.20031 0.77522 0.65864 0.0
H565 H 0.17491 0.8137 0.60124 0.0
H566 H 0.16098 0.80733 0.61931 0.0
H567 H 0.16977 0.79255 0.6038 0.0
C568 C 0.14717 0.76472 0.64094 0.0
C569 C 0.15179 0.74926 0.63461 0.0
C570 C 0.15848 0.7773 0.64169 0.0
C571 C 0.17455 0.77461 0.63607 0.0
C572 C 0.17919 0.75918 0.6298 0.0
H573 H 0.26468 0.826 0.6285 0.0
H574 H 0.24276 0.80618 0.62978 0.0
C575 C 0.16789 0.74662 0.629 0.0
C576 C 0.1867 0.78771 0.63717 0.0
H577 H 0.19756 0.82392 0.61768 0.0
C578 C 0.19972 0.78589 0.64973 0.0
C579 C 0.18577 0.80164 0.62562 0.0
C580 C 0.17219 0.80396 0.61161 0.0
C581 C 0.21193 0.79764 0.65098 0.0
C582 C 0.21126 0.81137 0.63905 0.0
C583 C 0.19804 0.81336 0.62678 0.0
C584 C 0.2245 0.82344 0.63849 0.0
C585 C 0.22538 0.79529 0.66517 0.0
C586 C 0.2214 0.8398 0.64248 0.0
C587 C 0.2339 0.8512 0.6416 0.0
C588 C 0.24966 0.8464 0.63663 0.0
C589 C 0.25268 0.83003 0.63251 0.0
C590 C 0.2402 0.81868 0.63335 0.0
H591 H 0.22165 0.78706 0.6768 0.0
H592 H 0.23597 0.78976 0.65799 0.0
H593 H 0.22924 0.80703 0.67137 0.0
H594 H 0.20933 0.84372 0.64634 0.0
H595 H 0.23122 0.86375 0.64479 0.0
H596 H 0.2654 0.17306 0.6295 0.0
H597 H 0.24379 0.19321 0.63159 0.0
H598 H 0.20917 0.15542 0.64328 0.0
H599 H 0.23073 0.1351 0.64102 0.0
H600 H 0.19913 0.17766 0.61541 0.0
H601 H 0.22113 0.20915 0.67976 0.0
H602 H 0.23612 0.20724 0.6615 0.0
H603 H 0.22833 0.18937 0.67283 0.0
C604 C 0.2532 0.16903 0.63259 0.0
C605 C 0.24975 0.15252 0.63517 0.0
C606 C 0.24089 0.18057 0.63389 0.0
C607 C 0.22495 0.17582 0.6379 0.0
C608 C 0.22143 0.15932 0.6403 0.0
H609 H 0.13493 0.23137 0.64428 0.0
H610 H 0.15502 0.20955 0.64504 0.0
C611 C 0.23375 0.14775 0.63902 0.0
C612 C 0.21191 0.18807 0.63899 0.0
H613 H 0.20028 0.22234 0.66231 0.0
C614 C 0.19926 0.18735 0.62577 0.0
C615 C 0.21217 0.20067 0.65252 0.0
C616 C 0.22508 0.20162 0.66758 0.0
C617 C 0.18712 0.19923 0.62532 0.0
C618 C 0.18754 0.21199 0.63866 0.0
C619 C 0.20004 0.21255 0.65207 0.0
C620 C 0.17536 0.22513 0.63861 0.0
C621 C 0.17426 0.19835 0.6102 0.0
C622 C 0.18022 0.24115 0.63524 0.0
C623 C 0.16881 0.25363 0.6349 0.0
C624 C 0.15235 0.2503 0.63804 0.0
C625 C 0.14753 0.23428 0.64172 0.0
C626 C 0.15896 0.2218 0.64206 0.0
H627 H 0.17774 0.19002 0.59855 0.0
H628 H 0.16284 0.1938 0.61652 0.0
H629 H 0.17185 0.21052 0.60415 0.0
H630 H 0.19284 0.24396 0.63263 0.0
H631 H 0.17289 0.26586 0.63207 0.0
H632 H 0.76958 0.13194 0.64217 0.0
H633 H 0.7921 0.15131 0.64323 0.0
H634 H 0.7587 0.19059 0.63356 0.0
H635 H 0.73619 0.17142 0.63266 0.0
H636 H 0.802 0.17348 0.6149 0.0
H637 H 0.78385 0.20504 0.68075 0.0
H638 H 0.77572 0.18557 0.67403 0.0
H639 H 0.76792 0.20381 0.66354 0.0
C640 C 0.76706 0.14472 0.64036 0.0
C641 C 0.75113 0.15019 0.63743 0.0
C642 C 0.77991 0.15574 0.64095 0.0
C643 C 0.77701 0.17238 0.63878 0.0
C644 C 0.76114 0.17783 0.63566 0.0
H645 H 0.82796 0.26181 0.62898 0.0
H646 H 0.80878 0.2393 0.63017 0.0
C647 C 0.74831 0.16685 0.63505 0.0
C648 C 0.79053 0.18411 0.63925 0.0
H649 H 0.80371 0.21825 0.66165 0.0
C650 C 0.80253 0.18316 0.62525 0.0
C651 C 0.79117 0.19666 0.65282 0.0
C652 C 0.77907 0.19778 0.66875 0.0
C653 C 0.81478 0.19491 0.62395 0.0
C654 C 0.81508 0.20775 0.63716 0.0
C655 C 0.80336 0.20841 0.65149 0.0
C656 C 0.82697 0.2211 0.63588 0.0
C657 C 0.82691 0.19388 0.60805 0.0
C658 C 0.84355 0.21828 0.63874 0.0
C659 C 0.85456 0.23114 0.63807 0.0
C660 C 0.84912 0.24699 0.63459 0.0
C661 C 0.83252 0.24973 0.63166 0.0
C662 C 0.82154 0.2369 0.63236 0.0
H663 H 0.82318 0.18503 0.59704 0.0
H664 H 0.82857 0.20591 0.6013 0.0
H665 H 0.83878 0.18999 0.6138 0.0
H666 H 0.84792 0.20619 0.64176 0.0
H667 H 0.86728 0.2287 0.64045 0.0
H668 H 0.86568 0.76896 0.64077 0.0
H669 H 0.8455 0.7907 0.64215 0.0
H670 H 0.80716 0.75528 0.6401 0.0
H671 H 0.8272 0.73352 0.63861 0.0
H672 H 0.80456 0.78111 0.61333 0.0
H673 H 0.81511 0.80344 0.68652 0.0
H674 H 0.83274 0.80162 0.67175 0.0
H675 H 0.82185 0.78375 0.67863 0.0
C676 C 0.85295 0.76581 0.64078 0.0
C677 C 0.848 0.74956 0.63959 0.0
C678 C 0.84146 0.77823 0.64166 0.0
C679 C 0.82487 0.77455 0.64142 0.0
C680 C 0.81992 0.75833 0.64038 0.0
H681 H 0.7338 0.82513 0.63723 0.0
H682 H 0.75583 0.8054 0.63817 0.0
C683 C 0.83138 0.74593 0.63954 0.0
C684 C 0.81261 0.78759 0.64127 0.0
H685 H 0.79628 0.81796 0.6679 0.0
C686 C 0.80273 0.78918 0.62525 0.0
C687 C 0.81039 0.79813 0.6568 0.0
C688 C 0.82048 0.79665 0.67449 0.0
C689 C 0.79063 0.80104 0.62433 0.0
C690 C 0.78814 0.81136 0.64003 0.0
C691 C 0.79821 0.80998 0.65593 0.0
C692 C 0.77483 0.82335 0.64034 0.0
C693 C 0.78074 0.80255 0.60648 0.0
C694 C 0.7782 0.83995 0.6419 0.0
C695 C 0.76561 0.85127 0.64151 0.0
C696 C 0.74947 0.84612 0.63961 0.0
C697 C 0.74613 0.82946 0.63855 0.0
C698 C 0.7587 0.81818 0.63899 0.0
H699 H 0.78701 0.79702 0.59417 0.0
H700 H 0.76904 0.79614 0.60841 0.0
H701 H 0.77811 0.81543 0.60319 0.0
H702 H 0.79059 0.84415 0.64308 0.0
H703 H 0.76853 0.86403 0.64241 0.0
H704 H 0.63296 0.73071 0.85139 0.0
H705 H 0.65313 0.70897 0.84945 0.0
H706 H 0.6914 0.74395 0.85676 0.0
H707 H 0.67138 0.76568 0.85887 0.0
H708 H 0.6801 0.70526 0.82415 0.0
H709 H 0.69923 0.71045 0.89914 0.0
H710 H 0.6807 0.71928 0.89035 0.0
H711 H 0.69976 0.7292 0.88629 0.0
C712 C 0.64567 0.73375 0.85255 0.0
C713 C 0.6506 0.74986 0.85542 0.0
C714 C 0.65716 0.72134 0.85141 0.0
C715 C 0.6737 0.72486 0.85326 0.0
C716 C 0.67866 0.74098 0.85565 0.0
H717 H 0.76395 0.67323 0.85528 0.0
H718 H 0.74211 0.69318 0.85406 0.0
C719 C 0.66721 0.75337 0.85677 0.0
C720 C 0.68586 0.71172 0.85286 0.0
H721 H 0.71555 0.69401 0.87924 0.0
C722 C 0.68779 0.70268 0.83621 0.0
C723 C 0.69579 0.7084 0.86867 0.0
C724 C 0.69371 0.71722 0.8872 0.0
C725 C 0.69982 0.69072 0.83475 0.0
C726 C 0.70996 0.68764 0.85046 0.0
C727 C 0.70781 0.69649 0.86719 0.0
C728 C 0.72312 0.67551 0.84982 0.0
C729 C 0.70192 0.68182 0.8163 0.0
C730 C 0.71964 0.65897 0.84777 0.0
C731 C 0.73211 0.64752 0.84846 0.0
C732 C 0.74821 0.65246 0.85129 0.0
C733 C 0.75166 0.66905 0.85305 0.0
C734 C 0.73921 0.68046 0.85238 0.0
H735 H 0.6956 0.68801 0.80447 0.0
H736 H 0.71495 0.68064 0.81267 0.0
H737 H 0.69681 0.66945 0.81767 0.0
H738 H 0.70726 0.65489 0.84611 0.0
H739 H 0.7291 0.6348 0.84714 0.0
H740 H 0.26826 0.63137 0.85442 0.0
H741 H 0.2896 0.65199 0.85487 0.0
H742 H 0.25475 0.68787 0.87241 0.0
H743 H 0.23343 0.66733 0.87226 0.0
H744 H 0.29105 0.68063 0.83401 0.0
H745 H 0.29114 0.69338 0.91102 0.0
H746 H 0.28155 0.67569 0.90103 0.0
H747 H 0.27153 0.69501 0.90025 0.0
C748 C 0.26518 0.64364 0.8585 0.0
C749 C 0.24921 0.64774 0.8634 0.0
C750 C 0.27737 0.65538 0.85872 0.0
C751 C 0.27379 0.67138 0.86395 0.0
C752 C 0.25783 0.67552 0.86874 0.0
H753 H 0.32492 0.76225 0.86927 0.0
H754 H 0.30507 0.74025 0.86932 0.0
C755 C 0.24566 0.66379 0.86854 0.0
C756 C 0.28661 0.68389 0.86376 0.0
H757 H 0.30582 0.71172 0.89151 0.0
C758 C 0.2944 0.68735 0.8466 0.0
C759 C 0.29091 0.69261 0.88022 0.0
C760 C 0.28347 0.68891 0.89922 0.0
C761 C 0.30609 0.69964 0.84534 0.0
C762 C 0.31022 0.70849 0.86175 0.0
C763 C 0.30256 0.70491 0.87895 0.0
C764 C 0.32228 0.72172 0.86134 0.0
C765 C 0.31358 0.70335 0.82637 0.0
C766 C 0.33854 0.71853 0.85695 0.0
C767 C 0.34991 0.73107 0.85689 0.0
C768 C 0.34519 0.74698 0.86131 0.0
C769 C 0.3289 0.75011 0.86576 0.0
C770 C 0.31756 0.73758 0.86583 0.0
H771 H 0.30647 0.69808 0.81454 0.0
H772 H 0.31458 0.71663 0.82418 0.0
H773 H 0.32596 0.69815 0.82584 0.0
H774 H 0.34247 0.70632 0.85377 0.0
H775 H 0.36239 0.7283 0.8535 0.0
H776 H 0.32411 0.23089 0.84379 0.0
H777 H 0.30417 0.25264 0.84106 0.0
H778 H 0.34078 0.28771 0.85578 0.0
H779 H 0.36089 0.26603 0.85816 0.0
H780 H 0.295 0.27266 0.86998 0.0
H781 H 0.31929 0.30885 0.81026 0.0
H782 H 0.32603 0.28848 0.8152 0.0
H783 H 0.33365 0.30521 0.82883 0.0
C784 C 0.32797 0.24326 0.84619 0.0
C785 C 0.34405 0.24678 0.85119 0.0
C786 C 0.31657 0.25566 0.84462 0.0
C787 C 0.32104 0.2718 0.848 0.0
C788 C 0.33716 0.27538 0.8527 0.0
H789 H 0.26651 0.3607 0.86248 0.0
H790 H 0.28777 0.34012 0.85975 0.0
C791 C 0.3486 0.26298 0.85418 0.0
C792 C 0.30854 0.28464 0.84804 0.0
H793 H 0.29778 0.32067 0.82794 0.0
C794 C 0.29555 0.2831 0.86069 0.0
C795 C 0.30937 0.29829 0.836 0.0
C796 C 0.32275 0.30029 0.82168 0.0
C797 C 0.28343 0.29494 0.86181 0.0
C798 C 0.28422 0.30855 0.84974 0.0
C799 C 0.29724 0.31018 0.83713 0.0
C800 C 0.2716 0.32123 0.85012 0.0
C801 C 0.27006 0.29293 0.87616 0.0
C802 C 0.25559 0.31747 0.84518 0.0
C803 C 0.24345 0.32915 0.84677 0.0
C804 C 0.24715 0.34481 0.85323 0.0
C805 C 0.2633 0.34871 0.85754 0.0
C806 C 0.27544 0.337 0.85596 0.0
H807 H 0.27328 0.28397 0.88725 0.0
H808 H 0.26719 0.30466 0.88308 0.0
H809 H 0.25896 0.28858 0.86891 0.0
H810 H 0.25245 0.30542 0.84034 0.0
H811 H 0.23113 0.32583 0.84321 0.0
H812 H 0.63086 0.26676 0.85198 0.0
H813 H 0.65094 0.28862 0.85086 0.0
H814 H 0.68776 0.2556 0.87043 0.0
H815 H 0.66786 0.2337 0.87142 0.0
H816 H 0.67037 0.30075 0.88074 0.0
H817 H 0.70771 0.27557 0.82253 0.0
H818 H 0.68745 0.26853 0.8275 0.0
H819 H 0.70421 0.26165 0.8416 0.0
C820 C 0.64325 0.26416 0.85598 0.0
C821 C 0.64783 0.24852 0.8617 0.0
C822 C 0.65468 0.27665 0.85535 0.0
C823 C 0.67085 0.27363 0.86028 0.0
C824 C 0.6754 0.25807 0.8662 0.0
H825 H 0.75962 0.32701 0.87145 0.0
H826 H 0.73782 0.30698 0.87087 0.0
C827 C 0.664 0.24561 0.86686 0.0
C828 C 0.68297 0.28681 0.85965 0.0
H829 H 0.71899 0.29763 0.83971 0.0
C830 C 0.68094 0.30018 0.87166 0.0
C831 C 0.6967 0.28598 0.84776 0.0
C832 C 0.69912 0.27224 0.83398 0.0
C833 C 0.6926 0.31252 0.87256 0.0
C834 C 0.70648 0.31154 0.86092 0.0
C835 C 0.70835 0.2983 0.84867 0.0
C836 C 0.71946 0.32387 0.86155 0.0
C837 C 0.69023 0.32623 0.88641 0.0
C838 C 0.71635 0.33998 0.85637 0.0
C839 C 0.72878 0.35147 0.85673 0.0
C840 C 0.74452 0.34698 0.86216 0.0
C841 C 0.7476 0.33083 0.86724 0.0
C842 C 0.73518 0.31937 0.8669 0.0
H843 H 0.68097 0.32328 0.89726 0.0
H844 H 0.70178 0.32923 0.89365 0.0
H845 H 0.68612 0.33716 0.87865 0.0
H846 H 0.70436 0.34362 0.85185 0.0
H847 H 0.72608 0.36382 0.85264 0.0
H848 H 0.63421 0.26513 0.14297 0.0
H849 H 0.65454 0.28676 0.14328 0.0
H850 H 0.69218 0.25155 0.13339 0.0
H851 H 0.67196 0.22993 0.13284 0.0
H852 H 0.68225 0.29061 0.16651 0.0
H853 H 0.69866 0.2847 0.09072 0.0
H854 H 0.68059 0.27576 0.10055 0.0
H855 H 0.69991 0.26613 0.10384 0.0
C856 C 0.64683 0.26201 0.14089 0.0
C857 C 0.6515 0.24587 0.13775 0.0
C858 C 0.6584 0.27436 0.14108 0.0
C859 C 0.6748 0.27076 0.13804 0.0
C860 C 0.67954 0.25461 0.13538 0.0
H861 H 0.76416 0.32441 0.13138 0.0
H862 H 0.74289 0.30384 0.13273 0.0
C863 C 0.66798 0.24227 0.13517 0.0
C864 C 0.68699 0.28387 0.13764 0.0
H865 H 0.7154 0.30169 0.10946 0.0
C866 C 0.68944 0.29313 0.15402 0.0
C867 C 0.6963 0.2871 0.12129 0.0
C868 C 0.69367 0.27801 0.10303 0.0
C869 C 0.70132 0.30529 0.15466 0.0
C870 C 0.71075 0.30838 0.13837 0.0
C871 C 0.70817 0.29923 0.12193 0.0
C872 C 0.72355 0.32091 0.1381 0.0
C873 C 0.70397 0.31441 0.17287 0.0
C874 C 0.71967 0.33732 0.14053 0.0
C875 C 0.73181 0.34911 0.13978 0.0
C876 C 0.74799 0.34465 0.13648 0.0
C877 C 0.75181 0.32821 0.13398 0.0
C878 C 0.73968 0.31645 0.13473 0.0
H879 H 0.69849 0.30805 0.18515 0.0
H880 H 0.71709 0.31616 0.17563 0.0
H881 H 0.69827 0.32654 0.17176 0.0
H882 H 0.70724 0.34103 0.14278 0.0
H883 H 0.7285 0.3617 0.14167 0.0
H884 H 0.73026 0.63041 0.14149 0.0
H885 H 0.70768 0.6497 0.14203 0.0
H886 H 0.73964 0.68759 0.12282 0.0
H887 H 0.76224 0.66848 0.12241 0.0
H888 H 0.72063 0.69575 0.15477 0.0
H889 H 0.6834 0.6698 0.09662 0.0
H890 H 0.68941 0.65594 0.11491 0.0
H891 H 0.7045 0.66475 0.09981 0.0
C892 C 0.73243 0.64283 0.13727 0.0
C893 C 0.74799 0.64795 0.13189 0.0
C894 C 0.71952 0.6538 0.1375 0.0
C895 C 0.72199 0.67 0.13227 0.0
C896 C 0.7375 0.67511 0.12684 0.0
H897 H 0.6694 0.75946 0.12416 0.0
H898 H 0.68933 0.7376 0.12457 0.0
C899 C 0.75038 0.66418 0.1266 0.0
C900 C 0.70862 0.6819 0.13312 0.0
H901 H 0.67251 0.69224 0.11297 0.0
C902 C 0.71009 0.69498 0.14566 0.0
C903 C 0.69486 0.68076 0.12131 0.0
C904 C 0.69291 0.66714 0.10728 0.0
C905 C 0.69819 0.70706 0.14662 0.0
C906 C 0.68463 0.70617 0.13445 0.0
C907 C 0.68296 0.69289 0.12222 0.0
C908 C 0.67239 0.71923 0.13377 0.0
C909 C 0.7002 0.72061 0.16075 0.0
C910 C 0.65615 0.71602 0.13825 0.0
C911 C 0.64469 0.72848 0.13791 0.0
C912 C 0.6493 0.74432 0.13299 0.0
C913 C 0.66551 0.7474 0.12815 0.0
C914 C 0.67693 0.73495 0.12847 0.0
H915 H 0.70853 0.71716 0.1724 0.0
H916 H 0.70541 0.73133 0.15351 0.0
H917 H 0.68836 0.72416 0.16694 0.0
H918 H 0.65241 0.70392 0.14225 0.0
H919 H 0.63227 0.72575 0.14165 0.0
H920 H 0.23022 0.67389 0.13184 0.0
H921 H 0.252 0.69389 0.1338 0.0
H922 H 0.28632 0.65583 0.14555 0.0
H923 H 0.26462 0.63569 0.14333 0.0
H924 H 0.27291 0.70083 0.16393 0.0
H925 H 0.30672 0.67967 0.10063 0.0
H926 H 0.2862 0.67342 0.10556 0.0
H927 H 0.30282 0.66435 0.11808 0.0
C928 C 0.24241 0.66977 0.13482 0.0
C929 C 0.24575 0.65323 0.13732 0.0
C930 C 0.25482 0.68121 0.13597 0.0
C931 C 0.27078 0.67631 0.13955 0.0
C932 C 0.27412 0.65982 0.1424 0.0
H933 H 0.36077 0.73113 0.14632 0.0
H934 H 0.34017 0.70981 0.14773 0.0
C935 C 0.26171 0.64836 0.14123 0.0
C936 C 0.28388 0.68852 0.14035 0.0
H937 H 0.31876 0.70057 0.11862 0.0
C938 C 0.28294 0.70079 0.15404 0.0
C939 C 0.29695 0.68839 0.12743 0.0
C940 C 0.29823 0.67585 0.11198 0.0
C941 C 0.29479 0.71293 0.1552 0.0
C942 C 0.30774 0.7129 0.14214 0.0
C943 C 0.3088 0.70052 0.12862 0.0
C944 C 0.32009 0.72588 0.14189 0.0
C945 C 0.29343 0.72558 0.1705 0.0
C946 C 0.3156 0.74192 0.13797 0.0
C947 C 0.32732 0.7541 0.13715 0.0
C948 C 0.34373 0.75041 0.14012 0.0
C949 C 0.3482 0.73433 0.14401 0.0
C950 C 0.33647 0.72215 0.14481 0.0
H951 H 0.28547 0.7215 0.18224 0.0
H952 H 0.30552 0.72865 0.17637 0.0
H953 H 0.28811 0.73677 0.16443 0.0
H954 H 0.30306 0.74498 0.1353 0.0
H955 H 0.32353 0.76637 0.13403 0.0
H956 H 0.2682 0.36515 0.14029 0.0
H957 H 0.29003 0.34504 0.14178 0.0
H958 H 0.25464 0.30666 0.1435 0.0
H959 H 0.23283 0.32659 0.14165 0.0
H960 H 0.29693 0.3211 0.16871 0.0
H961 H 0.28317 0.29396 0.09881 0.0
H962 H 0.27482 0.31311 0.1063 0.0
H963 H 0.26608 0.29442 0.11445 0.0
C964 C 0.2651 0.35242 0.14099 0.0
C965 C 0.24883 0.34741 0.14066 0.0
C966 C 0.27756 0.34097 0.14187 0.0
C967 C 0.27393 0.32437 0.14239 0.0
C968 C 0.25769 0.3194 0.14266 0.0
H969 H 0.32573 0.23415 0.14559 0.0
H970 H 0.30588 0.25609 0.14705 0.0
C971 C 0.24525 0.3308 0.14169 0.0
C972 C 0.28707 0.31219 0.14252 0.0
H973 H 0.30166 0.27955 0.11834 0.0
C974 C 0.29807 0.31207 0.15765 0.0
C975 C 0.28854 0.30051 0.12799 0.0
C976 C 0.27763 0.30056 0.11087 0.0
C977 C 0.31021 0.30021 0.15895 0.0
C978 C 0.31142 0.28833 0.14463 0.0
C979 C 0.30059 0.28863 0.12936 0.0
C980 C 0.32366 0.27527 0.14523 0.0
C981 C 0.32135 0.30019 0.17585 0.0
C982 C 0.34023 0.27883 0.1438 0.0
C983 C 0.35161 0.26631 0.14296 0.0
C984 C 0.34656 0.25005 0.14344 0.0
C985 C 0.32998 0.24656 0.14519 0.0
C986 C 0.31863 0.25906 0.14602 0.0
H987 H 0.31663 0.30788 0.1875 0.0
H988 H 0.32312 0.28769 0.18125 0.0
H989 H 0.33335 0.30499 0.17158 0.0
H990 H 0.34432 0.29126 0.14283 0.0
H991 H 0.36431 0.26935 0.14154 0.0
H992 H 0.93269 0.29828 0.38238 0.0
H993 H 0.96207 0.29513 0.38045 0.0
H994 H 0.95627 0.25884 0.33715 0.0
H995 H 0.92674 0.26191 0.33897 0.0
H996 H 0.98131 0.26537 0.38482 0.0
H997 H 0.98678 0.29472 0.31419 0.0
H998 H 0.96912 0.29724 0.32895 0.0
H999 H 0.97229 0.27856 0.31655 0.0
C1000 C 0.93765 0.28958 0.37249 0.0
C1001 C 0.92745 0.2804 0.36075 0.0
C1002 C 0.95441 0.28778 0.37144 0.0
C1003 C 0.96127 0.27686 0.35856 0.0
C1004 C 0.95115 0.26743 0.34705 0.0
H1005 H 0.06502 0.25404 0.35638 0.0
H1006 H 0.03545 0.2514 0.35564 0.0
C1007 C 0.93433 0.26917 0.34816 0.0
C1008 C 0.97906 0.27572 0.35703 0.0
H1009 H 0.01091 0.2862 0.32883 0.0
C1010 C 0.98782 0.26975 0.37253 0.0
C1011 C 0.98742 0.2816 0.341 0.0
C1012 C 0.9785 0.2885 0.32422 0.0
C1013 C 0.0048 0.26973 0.37253 0.0
C1014 C 0.01315 0.27577 0.35658 0.0
C1015 C 0.0044 0.28151 0.34097 0.0
C1016 C 0.03098 0.2772 0.35637 0.0
C1017 C 0.01371 0.26381 0.38982 0.0
C1018 C 0.03816 0.29258 0.35668 0.0
C1019 C 0.05498 0.29413 0.35713 0.0
C1020 C 0.0649 0.28031 0.35713 0.0
C1021 C 0.05767 0.2649 0.35645 0.0
C1022 C 0.04081 0.26336 0.35608 0.0
H1023 H 0.00547 0.26196 0.40205 0.0
H1024 H 0.01967 0.2521 0.38656 0.0
H1025 H 0.0233 0.27256 0.39394 0.0
H1026 H 0.03072 0.30339 0.35687 0.0
H1027 H 0.06021 0.30616 0.35759 0.0
H1028 H 0.69005 0.06458 0.36885 0.0
H1029 H 0.69177 0.0351 0.36638 0.0
H1030 H 0.74182 0.0389 0.34957 0.0
H1031 H 0.74024 0.06847 0.35213 0.0
H1032 H 0.70049 0.01681 0.33343 0.0
H1033 H 0.74217 0.00606 0.39398 0.0
H1034 H 0.73113 0.02478 0.39106 0.0
H1035 H 0.74867 0.02076 0.37682 0.0
C1036 C 0.70145 0.05915 0.36472 0.0
C1037 C 0.71504 0.06881 0.36074 0.0
C1038 C 0.7024 0.04232 0.36328 0.0
C1039 C 0.71695 0.03486 0.35797 0.0
C1040 C 0.73055 0.04445 0.35396 0.0
H1041 H 0.74014 0.93195 0.34851 0.0
H1042 H 0.74149 0.96158 0.34723 0.0
C1043 C 0.72961 0.06131 0.35536 0.0
C1044 C 0.71769 0.01704 0.35629 0.0
H1045 H 0.7343 0.98325 0.37616 0.0
C1046 C 0.70791 0.00945 0.34272 0.0
C1047 C 0.72747 0.00755 0.36837 0.0
C1048 C 0.73789 0.01513 0.3835 0.0
C1049 C 0.70756 0.99254 0.34096 0.0
C1050 C 0.717 0.98301 0.35338 0.0
C1051 C 0.72707 0.99062 0.36668 0.0
C1052 C 0.71607 0.96512 0.35339 0.0
C1053 C 0.69715 0.98505 0.32576 0.0
C1054 C 0.70136 0.95735 0.35741 0.0
C1055 C 0.70055 0.94048 0.35811 0.0
C1056 C 0.71448 0.93109 0.35496 0.0
C1057 C 0.72921 0.93889 0.35094 0.0
C1058 C 0.73 0.95579 0.35022 0.0
H1059 H 0.6946 0.99377 0.31418 0.0
H1060 H 0.70303 0.97414 0.31965 0.0
H1061 H 0.6854 0.98133 0.332 0.0
H1062 H 0.69055 0.96435 0.36031 0.0
H1063 H 0.68906 0.93481 0.36136 0.0
H1064 H 0.06736 0.73945 0.35413 0.0
H1065 H 0.03774 0.74144 0.35453 0.0
H1066 H 0.03449 0.69133 0.37128 0.0
H1067 H 0.06401 0.68928 0.37111 0.0
H1068 H 0.0152 0.7231 0.33354 0.0
H1069 H 0.00658 0.71484 0.4107 0.0
H1070 H 0.02595 0.71984 0.4004 0.0
H1071 H 0.01867 0.69932 0.39989 0.0
C1072 C 0.06032 0.72888 0.35797 0.0
C1073 C 0.06797 0.71423 0.36268 0.0
C1074 C 0.04343 0.73004 0.35818 0.0
C1075 C 0.03398 0.71661 0.36323 0.0
C1076 C 0.0416 0.70193 0.36773 0.0
H1077 H 0.93388 0.68993 0.36913 0.0
H1078 H 0.96343 0.69172 0.3693 0.0
C1079 C 0.05845 0.70075 0.36752 0.0
C1080 C 0.01612 0.71773 0.3633 0.0
H1081 H 0.98297 0.71266 0.39147 0.0
C1082 C 0.00812 0.72099 0.34622 0.0
C1083 C 0.00698 0.715 0.3799 0.0
C1084 C 0.01497 0.71221 0.39881 0.0
C1085 C 0.99115 0.72099 0.34515 0.0
C1086 C 0.98203 0.71788 0.36167 0.0
C1087 C 0.99004 0.71497 0.37882 0.0
C1088 C 0.96416 0.717 0.36136 0.0
C1089 C 0.98312 0.72374 0.32626 0.0
C1090 C 0.95482 0.73069 0.35698 0.0
C1091 C 0.93792 0.72971 0.35685 0.0
C1092 C 0.93014 0.71504 0.36119 0.0
C1093 C 0.93954 0.70139 0.36569 0.0
C1094 C 0.95641 0.70239 0.36582 0.0
H1095 H 0.99181 0.72254 0.31435 0.0
H1096 H 0.97305 0.71504 0.32409 0.0
H1097 H 0.97799 0.73616 0.32586 0.0
H1098 H 0.9606 0.74215 0.35381 0.0
H1099 H 0.93097 0.74044 0.35342 0.0
H1100 H 0.28069 0.93172 0.39156 0.0
H1101 H 0.278 0.96119 0.39077 0.0
H1102 H 0.26866 0.95917 0.33078 0.0
H1103 H 0.27058 0.92962 0.33171 0.0
H1104 H 0.29656 0.98149 0.37328 0.0
H1105 H 0.23429 0.99026 0.34636 0.0
H1106 H 0.24159 0.97082 0.35429 0.0
H1107 H 0.24614 0.97789 0.33079 0.0
C1108 C 0.27778 0.93757 0.37827 0.0
C1109 C 0.2758 0.92844 0.3617 0.0
C1110 C 0.27626 0.95439 0.37783 0.0
C1111 C 0.27293 0.96242 0.36076 0.0
C1112 C 0.27077 0.95326 0.34421 0.0
H1113 H 0.30099 0.06232 0.34154 0.0
H1114 H 0.29865 0.0328 0.3416 0.0
C1115 C 0.27199 0.93638 0.34472 0.0
C1116 C 0.27306 0.98037 0.36009 0.0
H1117 H 0.25172 0.01344 0.34531 0.0
C1118 C 0.28668 0.98846 0.36731 0.0
C1119 C 0.2601 0.98951 0.3525 0.0
C1120 C 0.24464 0.98167 0.34574 0.0
C1121 C 0.28779 0.00539 0.36698 0.0
C1122 C 0.27522 0.01448 0.35849 0.0
C1123 C 0.26147 0.00644 0.35153 0.0
C1124 C 0.27601 0.03237 0.35706 0.0
C1125 C 0.30229 0.01331 0.37613 0.0
C1126 C 0.26364 0.04195 0.36481 0.0
C1127 C 0.26477 0.05883 0.36438 0.0
C1128 C 0.27837 0.06637 0.35633 0.0
C1129 C 0.29049 0.05679 0.34806 0.0
C1130 C 0.28921 0.03994 0.3482 0.0
H1131 H 0.30795 0.00526 0.38685 0.0
H1132 H 0.31154 0.01589 0.36517 0.0
H1133 H 0.29892 0.02488 0.3831 0.0
H1134 H 0.25329 0.03637 0.3716 0.0
H1135 H 0.25524 0.06595 0.37083 0.0
H1136 H 0.06905 0.74268 0.63362 0.0
H1137 H 0.03953 0.7455 0.63492 0.0
H1138 H 0.03525 0.69562 0.65225 0.0
H1139 H 0.06471 0.69268 0.65098 0.0
H1140 H 0.01759 0.72603 0.61305 0.0
H1141 H 0.00631 0.72106 0.69021 0.0
H1142 H 0.02589 0.72626 0.68053 0.0
H1143 H 0.01919 0.70556 0.6806 0.0
C1144 C 0.06183 0.73238 0.63794 0.0
C1145 C 0.06915 0.71745 0.64219 0.0
C1146 C 0.045 0.73401 0.63866 0.0
C1147 C 0.03529 0.72082 0.64387 0.0
C1148 C 0.04259 0.70601 0.6485 0.0
H1149 H 0.93697 0.69515 0.62116 0.0
H1150 H 0.96643 0.69787 0.62327 0.0
C1151 C 0.05939 0.70433 0.64767 0.0
C1152 C 0.01746 0.72212 0.64314 0.0
H1153 H 0.98333 0.7184 0.66998 0.0
C1154 C 0.01009 0.72454 0.62551 0.0
C1155 C 0.00777 0.72028 0.65946 0.0
C1156 C 0.01515 0.71828 0.67882 0.0
C1157 C 0.99319 0.72457 0.62366 0.0
C1158 C 0.98351 0.72202 0.63984 0.0
C1159 C 0.99085 0.72022 0.65759 0.0
C1160 C 0.96573 0.72059 0.63847 0.0
C1161 C 0.98578 0.72716 0.6044 0.0
C1162 C 0.95568 0.73239 0.64654 0.0
C1163 C 0.93886 0.73091 0.6453 0.0
C1164 C 0.93188 0.71749 0.63617 0.0
C1165 C 0.94201 0.70563 0.62825 0.0
C1166 C 0.95881 0.70719 0.62938 0.0
H1167 H 0.9946 0.73247 0.59428 0.0
H1168 H 0.98168 0.71534 0.59867 0.0
H1169 H 0.97507 0.73525 0.60534 0.0
H1170 H 0.96086 0.74277 0.65369 0.0
H1171 H 0.93133 0.7402 0.65159 0.0
H1172 H 0.31051 0.93388 0.63372 0.0
H1173 H 0.30899 0.96345 0.63466 0.0
H1174 H 0.25712 0.96077 0.64103 0.0
H1175 H 0.25855 0.93114 0.64031 0.0
H1176 H 0.29151 0.98324 0.60949 0.0
H1177 H 0.27108 0.99168 0.68375 0.0
H1178 H 0.27965 0.97289 0.67534 0.0
H1179 H 0.25907 0.97804 0.66976 0.0
C1180 C 0.29879 0.93958 0.63546 0.0
C1181 C 0.28464 0.93022 0.63698 0.0
C1182 C 0.29795 0.95645 0.63598 0.0
C1183 C 0.28297 0.96425 0.63813 0.0
C1184 C 0.26882 0.95495 0.63971 0.0
H1185 H 0.25823 0.06706 0.639 0.0
H1186 H 0.25703 0.03738 0.63967 0.0
C1187 C 0.26965 0.93805 0.63919 0.0
C1188 C 0.2822 0.98214 0.63788 0.0
H1189 H 0.27269 0.01518 0.6647 0.0
C1190 C 0.2874 0.99024 0.62155 0.0
C1191 C 0.27672 0.99118 0.65362 0.0
C1192 C 0.27142 0.98306 0.67169 0.0
C1193 C 0.28732 0.00718 0.62052 0.0
C1194 C 0.28216 0.01624 0.63638 0.0
C1195 C 0.27666 0.00816 0.6526 0.0
C1196 C 0.28288 0.03412 0.63653 0.0
C1197 C 0.29264 0.01526 0.60241 0.0
C1198 C 0.29784 0.04204 0.63493 0.0
C1199 C 0.29856 0.05891 0.63453 0.0
C1200 C 0.28433 0.06817 0.63585 0.0
C1201 C 0.26938 0.06023 0.6379 0.0
C1202 C 0.26867 0.04331 0.6383 0.0
H1203 H 0.29204 0.00681 0.5902 0.0
H1204 H 0.28503 0.02601 0.59927 0.0
H1205 H 0.30537 0.01935 0.60392 0.0
H1206 H 0.30896 0.03514 0.63392 0.0
H1207 H 0.31027 0.06469 0.63307 0.0
H1208 H 0.06783 0.25836 0.64652 0.0
H1209 H 0.03832 0.25668 0.64965 0.0
H1210 H 0.03457 0.30814 0.64022 0.0
H1211 H 0.06402 0.30996 0.63721 0.0
H1212 H 0.01578 0.29583 0.67141 0.0
H1213 H 0.00625 0.26124 0.60479 0.0
H1214 H 0.02069 0.25288 0.62113 0.0
H1215 H 0.02486 0.27189 0.60981 0.0
C1216 C 0.06071 0.26931 0.64513 0.0
C1217 C 0.06819 0.28428 0.64151 0.0
C1218 C 0.04388 0.26832 0.64686 0.0
C1219 C 0.03431 0.28226 0.64495 0.0
C1220 C 0.04178 0.29725 0.64169 0.0
H1221 H 0.93425 0.30996 0.64263 0.0
H1222 H 0.96372 0.30852 0.6452 0.0
C1223 C 0.05858 0.29825 0.63992 0.0
C1224 C 0.01648 0.28129 0.64617 0.0
H1225 H 0.98315 0.26694 0.62313 0.0
C1226 C 0.00862 0.28947 0.66092 0.0
C1227 C 0.00725 0.27292 0.63247 0.0
C1228 C 0.01512 0.26431 0.61605 0.0
C1229 C 0.99168 0.28958 0.6623 0.0
C1230 C 0.98242 0.28155 0.64833 0.0
C1231 C 0.99031 0.27307 0.63382 0.0
C1232 C 0.96453 0.28242 0.64794 0.0
C1233 C 0.98386 0.2982 0.67874 0.0
C1234 C 0.95524 0.2682 0.64831 0.0
C1235 C 0.9384 0.26897 0.64668 0.0
C1236 C 0.9306 0.28399 0.64455 0.0
C1237 C 0.93992 0.29822 0.64437 0.0
C1238 C 0.95675 0.29743 0.64597 0.0
H1239 H 0.99233 0.29938 0.69086 0.0
H1240 H 0.9803 0.31057 0.67427 0.0
H1241 H 0.97282 0.29173 0.68358 0.0
H1242 H 0.96105 0.25649 0.64969 0.0
H1243 H 0.93152 0.25781 0.64682 0.0
H1244 H 0.68793 0.06444 0.63558 0.0
H1245 H 0.6889 0.03485 0.63674 0.0
H1246 H 0.74023 0.03672 0.64776 0.0
H1247 H 0.73935 0.06637 0.64677 0.0
H1248 H 0.70816 0.01503 0.61284 0.0
H1249 H 0.72266 0.00571 0.68884 0.0
H1250 H 0.71475 0.02459 0.67985 0.0
H1251 H 0.73567 0.0195 0.67636 0.0
C1252 C 0.6994 0.05856 0.63843 0.0
C1253 C 0.71357 0.06769 0.64111 0.0
C1254 C 0.69993 0.04168 0.63907 0.0
C1255 C 0.71459 0.03365 0.64253 0.0
C1256 C 0.72874 0.04272 0.64539 0.0
H1257 H 0.7392 0.93102 0.64511 0.0
H1258 H 0.74009 0.96068 0.64626 0.0
C1259 C 0.72823 0.05963 0.64473 0.0
C1260 C 0.71516 0.01577 0.64214 0.0
H1261 H 0.7224 0.98241 0.66935 0.0
C1262 C 0.71124 0.00788 0.62519 0.0
C1263 C 0.71932 0.00654 0.65826 0.0
C1264 C 0.72323 0.01445 0.67693 0.0
C1265 C 0.71139 0.99095 0.62389 0.0
C1266 C 0.71526 0.98169 0.64009 0.0
C1267 C 0.71942 0.98957 0.65698 0.0
C1268 C 0.71466 0.9638 0.63984 0.0
C1269 C 0.70761 0.98312 0.60512 0.0
C1270 C 0.70002 0.95579 0.63618 0.0
C1271 C 0.69948 0.93892 0.63548 0.0
C1272 C 0.71357 0.92975 0.63856 0.0
C1273 C 0.72816 0.93778 0.64262 0.0
C1274 C 0.72869 0.9547 0.6433 0.0
H1275 H 0.70926 0.99171 0.59318 0.0
H1276 H 0.71541 0.97237 0.60267 0.0
H1277 H 0.6948 0.97907 0.60507 0.0
H1278 H 0.68899 0.96262 0.63385 0.0
H1279 H 0.68803 0.93306 0.63245 0.0
H1280 H 0.56193 0.80761 0.86377 0.0
H1281 H 0.5325 0.80517 0.86141 0.0
H1282 H 0.53718 0.75381 0.85179 0.0
H1283 H 0.56671 0.75612 0.85426 0.0
H1284 H 0.51428 0.79275 0.83003 0.0
H1285 H 0.50451 0.75753 0.89616 0.0
H1286 H 0.52302 0.76849 0.89157 0.0
H1287 H 0.51922 0.74957 0.87988 0.0
C1288 C 0.55671 0.79578 0.86122 0.0
C1289 C 0.5666 0.78204 0.85927 0.0
C1290 C 0.53991 0.79442 0.85984 0.0
C1291 C 0.53271 0.7793 0.85661 0.0
C1292 C 0.54253 0.76555 0.85456 0.0
H1293 H 0.42957 0.75523 0.85255 0.0
H1294 H 0.45915 0.75351 0.85043 0.0
C1295 C 0.55937 0.7669 0.85591 0.0
C1296 C 0.5149 0.77808 0.85518 0.0
H1297 H 0.48147 0.76347 0.87781 0.0
C1298 C 0.50709 0.78629 0.84041 0.0
C1299 C 0.50562 0.76955 0.86869 0.0
C1300 C 0.51344 0.76085 0.88508 0.0
C1301 C 0.49016 0.78637 0.83891 0.0
C1302 C 0.48085 0.77827 0.85276 0.0
C1303 C 0.48867 0.76967 0.86723 0.0
C1304 C 0.46298 0.77933 0.85312 0.0
C1305 C 0.4824 0.79509 0.82251 0.0
C1306 C 0.45539 0.7944 0.85545 0.0
C1307 C 0.43856 0.79542 0.85666 0.0
C1308 C 0.42902 0.78136 0.85568 0.0
C1309 C 0.43663 0.76627 0.85329 0.0
C1310 C 0.45349 0.76526 0.85209 0.0
H1311 H 0.49094 0.79642 0.81046 0.0
H1312 H 0.47142 0.78861 0.81751 0.0
H1313 H 0.47875 0.80741 0.82709 0.0
H1314 H 0.46252 0.80536 0.85669 0.0
H1315 H 0.43304 0.8072 0.8586 0.0
H1316 H 0.23992 0.42536 0.84036 0.0
H1317 H 0.24455 0.45462 0.83783 0.0
H1318 H 0.20743 0.46316 0.87953 0.0
H1319 H 0.20276 0.43403 0.88217 0.0
H1320 H 0.22085 0.47785 0.82722 0.0
H1321 H 0.24613 0.49052 0.89828 0.0
H1322 H 0.24555 0.47041 0.88823 0.0
H1323 H 0.22772 0.47895 0.89889 0.0
C1324 C 0.23288 0.43348 0.84913 0.0
C1325 C 0.22099 0.42744 0.86148 0.0
C1326 C 0.23553 0.45015 0.84766 0.0
C1327 C 0.22647 0.46098 0.85867 0.0
C1328 C 0.21475 0.45496 0.87117 0.0
H1329 H 0.19561 0.55821 0.84716 0.0
H1330 H 0.1999 0.52895 0.84597 0.0
C1331 C 0.21203 0.43833 0.87258 0.0
C1332 C 0.22844 0.47865 0.85634 0.0
H1333 H 0.23583 0.51332 0.88107 0.0
C1334 C 0.22437 0.48562 0.83889 0.0
C1335 C 0.23324 0.4887 0.87151 0.0
C1336 C 0.23857 0.48177 0.89024 0.0
C1337 C 0.22412 0.50248 0.83652 0.0
C1338 C 0.22786 0.51255 0.85208 0.0
C1339 C 0.2328 0.50556 0.86922 0.0
C1340 C 0.22567 0.5303 0.85133 0.0
C1341 C 0.21961 0.50937 0.81749 0.0
C1342 C 0.23872 0.54072 0.85493 0.0
C1343 C 0.23629 0.55746 0.85569 0.0
C1344 C 0.22074 0.56399 0.85305 0.0
C1345 C 0.20774 0.55353 0.84918 0.0
C1346 C 0.21019 0.53682 0.84837 0.0
H1347 H 0.22189 0.50052 0.80595 0.0
H1348 H 0.20651 0.51233 0.81741 0.0
H1349 H 0.22649 0.52063 0.81447 0.0
H1350 H 0.25073 0.53588 0.85738 0.0
H1351 H 0.24652 0.56525 0.85874 0.0
H1352 H 0.43136 0.19497 0.87985 0.0
H1353 H 0.46085 0.19767 0.87871 0.0
H1354 H 0.45622 0.23802 0.84041 0.0
H1355 H 0.42664 0.23545 0.84152 0.0
H1356 H 0.47879 0.21213 0.82931 0.0
H1357 H 0.48872 0.23519 0.90221 0.0
H1358 H 0.47587 0.21767 0.90043 0.0
H1359 H 0.46939 0.23654 0.89033 0.0
C1360 C 0.43661 0.20447 0.87127 0.0
C1361 C 0.42673 0.21502 0.86079 0.0
C1362 C 0.45343 0.20603 0.87069 0.0
C1363 C 0.46062 0.21813 0.85962 0.0
C1364 C 0.45082 0.22867 0.84911 0.0
H1365 H 0.56379 0.24102 0.86191 0.0
H1366 H 0.53423 0.24326 0.86069 0.0
C1367 C 0.43397 0.2272 0.84978 0.0
C1368 C 0.47843 0.21934 0.85856 0.0
H1369 H 0.51204 0.22641 0.88533 0.0
C1370 C 0.48609 0.21539 0.84148 0.0
C1371 C 0.48782 0.22375 0.87444 0.0
C1372 C 0.48007 0.22867 0.89288 0.0
C1373 C 0.50303 0.21518 0.84006 0.0
C1374 C 0.51243 0.21892 0.85618 0.0
C1375 C 0.50475 0.22344 0.87306 0.0
C1376 C 0.53027 0.21768 0.85601 0.0
C1377 C 0.51075 0.21089 0.8214 0.0
C1378 C 0.53773 0.20254 0.85387 0.0
C1379 C 0.55457 0.20121 0.85465 0.0
C1380 C 0.56419 0.21501 0.85759 0.0
C1381 C 0.55668 0.23019 0.85957 0.0
C1382 C 0.53982 0.23149 0.85889 0.0
H1383 H 0.50211 0.21218 0.80947 0.0
H1384 H 0.52148 0.21864 0.81864 0.0
H1385 H 0.51488 0.1981 0.82185 0.0
H1386 H 0.53051 0.19171 0.85193 0.0
H1387 H 0.56003 0.18935 0.85313 0.0
H1388 H 0.80456 0.43473 0.85702 0.0
H1389 H 0.80262 0.46426 0.85643 0.0
H1390 H 0.75054 0.46102 0.85459 0.0
H1391 H 0.75235 0.43136 0.85507 0.0
H1392 H 0.76505 0.48405 0.82854 0.0
H1393 H 0.78673 0.49132 0.90234 0.0
H1394 H 0.79954 0.47898 0.88772 0.0
H1395 H 0.77938 0.47227 0.89319 0.0
C1396 C 0.79269 0.44029 0.85641 0.0
C1397 C 0.7786 0.43076 0.85622 0.0
C1398 C 0.79161 0.45714 0.85616 0.0
C1399 C 0.77644 0.46476 0.85577 0.0
C1400 C 0.76234 0.45531 0.855 0.0
H1401 H 0.75349 0.56863 0.85373 0.0
H1402 H 0.7509 0.53903 0.8532 0.0
C1403 C 0.76341 0.43841 0.85529 0.0
C1404 C 0.7754 0.48261 0.85642 0.0
H1405 H 0.78544 0.51519 0.88362 0.0
C1406 C 0.76934 0.4909 0.84063 0.0
C1407 C 0.78094 0.49142 0.87227 0.0
C1408 C 0.78688 0.48307 0.88993 0.0
C1409 C 0.76935 0.5079 0.83995 0.0
C1410 C 0.77533 0.51671 0.85562 0.0
C1411 C 0.78094 0.50837 0.8716 0.0
C1412 C 0.77666 0.53457 0.85545 0.0
C1413 C 0.76357 0.51628 0.82223 0.0
C1414 C 0.79194 0.54181 0.85723 0.0
C1415 C 0.79344 0.55862 0.85769 0.0
C1416 C 0.77965 0.56852 0.85644 0.0
C1417 C 0.76432 0.56128 0.85463 0.0
C1418 C 0.76283 0.5444 0.85422 0.0
H1419 H 0.76264 0.50778 0.8101 0.0
H1420 H 0.7514 0.52152 0.82481 0.0
H1421 H 0.77186 0.52632 0.81832 0.0
H1422 H 0.80275 0.53441 0.85826 0.0
H1423 H 0.8054 0.56385 0.85909 0.0
H1424 H 0.42967 0.23803 0.15685 0.0
H1425 H 0.45925 0.24086 0.15754 0.0
H1426 H 0.4638 0.20077 0.11885 0.0
H1427 H 0.43434 0.19779 0.11816 0.0
H1428 H 0.48238 0.21504 0.16787 0.0
H1429 H 0.49084 0.23893 0.09513 0.0
H1430 H 0.47173 0.24005 0.10752 0.0
H1431 H 0.47808 0.22135 0.09688 0.0
C1432 C 0.43699 0.22986 0.14845 0.0
C1433 C 0.42974 0.21769 0.13744 0.0
C1434 C 0.45384 0.2315 0.14887 0.0
C1435 C 0.46362 0.22114 0.13807 0.0
C1436 C 0.4564 0.20901 0.12707 0.0
H1437 H 0.56185 0.19029 0.14109 0.0
H1438 H 0.5325 0.19382 0.14295 0.0
C1439 C 0.4396 0.20727 0.12677 0.0
C1440 C 0.48143 0.22254 0.13874 0.0
H1441 H 0.5145 0.22958 0.11105 0.0
C1442 C 0.48943 0.2184 0.15554 0.0
C1443 C 0.49051 0.22709 0.12267 0.0
C1444 C 0.48239 0.23225 0.10454 0.0
C1445 C 0.50639 0.218 0.15642 0.0
C1446 C 0.51547 0.22174 0.14006 0.0
C1447 C 0.50747 0.2266 0.12352 0.0
C1448 C 0.53325 0.21984 0.13953 0.0
C1449 C 0.51449 0.21337 0.17476 0.0
C1450 C 0.54331 0.2333 0.13671 0.0
C1451 C 0.5601 0.23133 0.13567 0.0
C1452 C 0.56702 0.21583 0.13719 0.0
C1453 C 0.55687 0.20238 0.13991 0.0
C1454 C 0.54012 0.20437 0.14108 0.0
H1455 H 0.5062 0.21483 0.18701 0.0
H1456 H 0.51823 0.20047 0.17406 0.0
H1457 H 0.5255 0.2208 0.1772 0.0
H1458 H 0.53817 0.24532 0.13535 0.0
H1459 H 0.56764 0.2419 0.1335 0.0
H1460 H 0.75612 0.56692 0.14045 0.0
H1461 H 0.75344 0.53747 0.14321 0.0
H1462 H 0.80532 0.53305 0.14806 0.0
H1463 H 0.80808 0.56243 0.14558 0.0
H1464 H 0.76655 0.51488 0.11881 0.0
H1465 H 0.78927 0.50497 0.19157 0.0
H1466 H 0.78325 0.52467 0.18301 0.0
H1467 H 0.80292 0.51666 0.17731 0.0
C1468 C 0.76693 0.55967 0.14235 0.0
C1469 C 0.78231 0.56695 0.14284 0.0
C1470 C 0.76538 0.54288 0.14391 0.0
C1471 C 0.77916 0.53312 0.14612 0.0
C1472 C 0.7945 0.54039 0.14681 0.0
H1473 H 0.80642 0.43371 0.13899 0.0
H1474 H 0.8043 0.46314 0.1419 0.0
C1475 C 0.79607 0.55717 0.14526 0.0
C1476 C 0.77767 0.51527 0.14634 0.0
H1477 H 0.78809 0.48159 0.17151 0.0
C1478 C 0.77103 0.50758 0.13044 0.0
C1479 C 0.78352 0.50583 0.16156 0.0
C1480 C 0.79 0.51345 0.17941 0.0
C1481 C 0.77073 0.49065 0.12898 0.0
C1482 C 0.77708 0.48123 0.14393 0.0
C1483 C 0.7833 0.4889 0.16006 0.0
C1484 C 0.77812 0.46342 0.14265 0.0
C1485 C 0.76425 0.48295 0.11118 0.0
C1486 C 0.76407 0.45388 0.14231 0.0
C1487 C 0.76523 0.43705 0.14067 0.0
C1488 C 0.78047 0.42955 0.13935 0.0
C1489 C 0.79451 0.43915 0.13992 0.0
C1490 C 0.79333 0.45594 0.14162 0.0
H1491 H 0.76246 0.49194 0.09968 0.0
H1492 H 0.7726 0.47336 0.10607 0.0
H1493 H 0.7524 0.47719 0.11425 0.0
H1494 H 0.75223 0.45945 0.14332 0.0
H1495 H 0.75422 0.42993 0.14034 0.0
H1496 H 0.42845 0.75569 0.14517 0.0
H1497 H 0.45792 0.75311 0.14808 0.0
H1498 H 0.4628 0.805 0.14408 0.0
H1499 H 0.43342 0.80769 0.14127 0.0
H1500 H 0.48114 0.76401 0.12131 0.0
H1501 H 0.48973 0.79318 0.19123 0.0
H1502 H 0.4703 0.78584 0.18319 0.0
H1503 H 0.47792 0.80497 0.17494 0.0
C1504 C 0.43581 0.76655 0.14506 0.0
C1505 C 0.42866 0.7819 0.14304 0.0
C1506 C 0.45261 0.76505 0.14672 0.0
C1507 C 0.46247 0.77888 0.14657 0.0
C1508 C 0.45535 0.79421 0.14461 0.0
H1509 H 0.56226 0.80508 0.1412 0.0
H1510 H 0.5328 0.80333 0.14382 0.0
C1511 C 0.43859 0.79571 0.14288 0.0
C1512 C 0.48028 0.77733 0.14745 0.0
H1513 H 0.51345 0.78953 0.17241 0.0
C1514 C 0.48824 0.76938 0.13259 0.0
C1515 C 0.48942 0.78437 0.1622 0.0
C1516 C 0.48142 0.79245 0.1789 0.0
C1517 C 0.5052 0.76891 0.13166 0.0
C1518 C 0.51435 0.77633 0.14617 0.0
C1519 C 0.50637 0.78388 0.1613 0.0
C1520 C 0.53222 0.77716 0.14537 0.0
C1521 C 0.51316 0.76109 0.11476 0.0
C1522 C 0.54164 0.76303 0.1457 0.0
C1523 C 0.55849 0.76398 0.14415 0.0
C1524 C 0.56614 0.77911 0.14236 0.0
C1525 C 0.55669 0.79325 0.14251 0.0
C1526 C 0.53988 0.79228 0.14403 0.0
H1527 H 0.50446 0.75907 0.10302 0.0
H1528 H 0.5233 0.76866 0.10947 0.0
H1529 H 0.51818 0.74916 0.11898 0.0
H1530 H 0.53596 0.75126 0.14707 0.0
H1531 H 0.56549 0.75289 0.14418 0.0
H1532 H 0.2396 0.43192 0.14573 0.0
H1533 H 0.24136 0.46155 0.14563 0.0
H1534 H 0.19081 0.46457 0.13074 0.0
H1535 H 0.18899 0.43503 0.13062 0.0
H1536 H 0.21162 0.48357 0.10796 0.0
H1537 H 0.22257 0.49361 0.18469 0.0
H1538 H 0.23592 0.47951 0.17321 0.0
H1539 H 0.21481 0.47474 0.17551 0.0
C1540 C 0.22885 0.43892 0.14257 0.0
C1541 C 0.21415 0.43118 0.13822 0.0
C1542 C 0.22986 0.45582 0.14261 0.0
C1543 C 0.21617 0.46521 0.13838 0.0
C1544 C 0.20149 0.45751 0.1341 0.0
H1545 H 0.18795 0.56453 0.12723 0.0
H1546 H 0.19029 0.53505 0.12813 0.0
C1547 C 0.20046 0.44064 0.13406 0.0
C1548 C 0.21718 0.48308 0.1377 0.0
H1549 H 0.22287 0.5167 0.16499 0.0
C1550 C 0.21411 0.49082 0.12041 0.0
C1551 C 0.22056 0.49246 0.15395 0.0
C1552 C 0.22354 0.48472 0.17295 0.0
C1553 C 0.21417 0.50775 0.11897 0.0
C1554 C 0.21711 0.51714 0.13532 0.0
C1555 C 0.22059 0.50942 0.15251 0.0
C1556 C 0.21582 0.53499 0.135 0.0
C1557 C 0.21112 0.51544 0.09995 0.0
C1558 C 0.22933 0.54469 0.13902 0.0
C1559 C 0.22803 0.56157 0.13857 0.0
C1560 C 0.21315 0.56896 0.13424 0.0
C1561 C 0.19959 0.55919 0.13052 0.0
C1562 C 0.20092 0.54235 0.13093 0.0
H1563 H 0.21347 0.50684 0.08819 0.0
H1564 H 0.19826 0.51927 0.09909 0.0
H1565 H 0.21883 0.52633 0.09795 0.0
H1566 H 0.2409 0.53919 0.14232 0.0
H1567 H 0.23865 0.56882 0.14156 0.0
H1568 H 0.1253 0.32141 0.41469 0.0
H1569 H 0.12879 0.32646 0.44873 0.0
H1570 H 0.11752 0.27646 0.46037 0.0
H1571 H 0.11411 0.27131 0.42668 0.0
H1572 H 0.10576 0.32104 0.47899 0.0
H1573 H 0.16122 0.2841 0.48744 0.0
H1574 H 0.15428 0.29126 0.4647 0.0
H1575 H 0.14539 0.27351 0.47521 0.0
C1576 C 0.1236 0.31152 0.42455 0.0
C1577 C 0.11953 0.29594 0.41804 0.0
C1578 C 0.12559 0.31442 0.44393 0.0
C1579 C 0.12369 0.30176 0.45697 0.0
C1580 C 0.11936 0.28631 0.45048 0.0
H1581 H 0.1129 0.2737 0.56892 0.0
H1582 H 0.11521 0.2785 0.53501 0.0
C1583 C 0.11734 0.28342 0.43123 0.0
C1584 C 0.12583 0.30445 0.47749 0.0
H1585 H 0.14573 0.28905 0.51571 0.0
C1586 C 0.11474 0.31438 0.48705 0.0
C1587 C 0.13763 0.29582 0.48788 0.0
C1588 C 0.15042 0.2857 0.47827 0.0
C1589 C 0.11438 0.31493 0.5069 0.0
C1590 C 0.12546 0.30538 0.51727 0.0
C1591 C 0.13719 0.29627 0.50767 0.0
C1592 C 0.12388 0.30308 0.53789 0.0
C1593 C 0.10157 0.32486 0.51671 0.0
C1594 C 0.12803 0.31537 0.5507 0.0
C1595 C 0.12677 0.31265 0.5702 0.0
C1596 C 0.12133 0.29761 0.57705 0.0
C1597 C 0.11712 0.28542 0.5641 0.0
C1598 C 0.11844 0.28812 0.54472 0.0
H1599 H 0.09318 0.33077 0.50657 0.0
H1600 H 0.09444 0.31706 0.52642 0.0
H1601 H 0.10745 0.3344 0.52538 0.0
H1602 H 0.13238 0.32696 0.54563 0.0
H1603 H 0.13011 0.32225 0.57987 0.0
H1604 H 0.67958 0.13774 0.58221 0.0
H1605 H 0.67336 0.14009 0.54835 0.0
H1606 H 0.71224 0.107 0.53551 0.0
H1607 H 0.71855 0.10466 0.56912 0.0
H1608 H 0.69612 0.15063 0.51952 0.0
H1609 H 0.67243 0.08891 0.50607 0.0
H1610 H 0.67318 0.09776 0.52943 0.0
H1611 H 0.6911 0.08911 0.51911 0.0
C1612 C 0.68669 0.13088 0.57215 0.0
C1613 C 0.69954 0.12101 0.57827 0.0
C1614 C 0.68313 0.13223 0.55287 0.0
C1615 C 0.6922 0.12353 0.53952 0.0
C1616 C 0.70492 0.11358 0.54564 0.0
H1617 H 0.7242 0.13084 0.4283 0.0
H1618 H 0.71827 0.1328 0.46201 0.0
C1619 C 0.70857 0.11234 0.56483 0.0
C1620 C 0.68923 0.12548 0.51905 0.0
H1621 H 0.68214 0.10361 0.47899 0.0
C1622 C 0.69273 0.14047 0.51065 0.0
C1623 C 0.6846 0.11225 0.50758 0.0
C1624 C 0.67995 0.09613 0.516 0.0
C1625 C 0.69284 0.14223 0.49093 0.0
C1626 C 0.68948 0.12864 0.47943 0.0
C1627 C 0.68484 0.11398 0.48786 0.0
C1628 C 0.69252 0.12883 0.45884 0.0
C1629 C 0.69708 0.15847 0.48253 0.0
C1630 C 0.67999 0.12582 0.44591 0.0
C1631 C 0.68334 0.12472 0.42655 0.0
C1632 C 0.69932 0.12636 0.41996 0.0
C1633 C 0.71177 0.12954 0.43296 0.0
C1634 C 0.7084 0.13077 0.45221 0.0
H1635 H 0.69457 0.16848 0.49261 0.0
H1636 H 0.7102 0.15871 0.47913 0.0
H1637 H 0.69021 0.16068 0.46928 0.0
H1638 H 0.66768 0.12412 0.45082 0.0
H1639 H 0.67353 0.1222 0.41683 0.0
H1640 H 0.87278 0.67439 0.41489 0.0
H1641 H 0.86965 0.66886 0.44886 0.0
H1642 H 0.86832 0.72018 0.46003 0.0
H1643 H 0.8714 0.72578 0.4264 0.0
H1644 H 0.8909 0.67974 0.47821 0.0
H1645 H 0.8286 0.7026 0.48869 0.0
H1646 H 0.83647 0.69723 0.46569 0.0
H1647 H 0.84108 0.71664 0.47593 0.0
C1648 C 0.87166 0.68446 0.42462 0.0
C1649 C 0.8723 0.70052 0.41803 0.0
C1650 C 0.86988 0.68129 0.44396 0.0
C1651 C 0.86848 0.69412 0.45686 0.0
C1652 C 0.86903 0.71011 0.45025 0.0
H1653 H 0.87588 0.72607 0.56747 0.0
H1654 H 0.87238 0.72015 0.53393 0.0
C1655 C 0.8709 0.71329 0.43103 0.0
C1656 C 0.86747 0.69113 0.47744 0.0
H1657 H 0.84575 0.70213 0.51638 0.0
C1658 C 0.88087 0.68422 0.4866 0.0
C1659 C 0.85431 0.69693 0.48827 0.0
C1660 C 0.83923 0.70362 0.47913 0.0
C1661 C 0.88201 0.68417 0.50641 0.0
C1662 C 0.86935 0.69106 0.51718 0.0
C1663 C 0.85548 0.69695 0.50803 0.0
C1664 C 0.87112 0.69417 0.53765 0.0
C1665 C 0.89718 0.67778 0.51565 0.0
C1666 C 0.87147 0.68149 0.55084 0.0
C1667 C 0.87347 0.68485 0.57011 0.0
C1668 C 0.87516 0.70093 0.57637 0.0
C1669 C 0.87466 0.71356 0.56308 0.0
C1670 C 0.87262 0.7102 0.54393 0.0
H1671 H 0.90657 0.67435 0.50515 0.0
H1672 H 0.90233 0.68703 0.52535 0.0
H1673 H 0.89416 0.66693 0.52421 0.0
H1674 H 0.87018 0.66905 0.54624 0.0
H1675 H 0.87376 0.67489 0.58006 0.0
H1676 H 0.27676 0.88671 0.56656 0.0
H1677 H 0.28293 0.88451 0.53294 0.0
H1678 H 0.32961 0.86405 0.54615 0.0
H1679 H 0.32349 0.86617 0.58008 0.0
H1680 H 0.31043 0.89841 0.51298 0.0
H1681 H 0.30726 0.83105 0.50909 0.0
H1682 H 0.29845 0.84225 0.52846 0.0
H1683 H 0.32001 0.84007 0.52687 0.0
C1684 C 0.28836 0.88174 0.56236 0.0
C1685 C 0.29963 0.87655 0.57594 0.0
C1686 C 0.29187 0.88053 0.54315 0.0
C1687 C 0.30666 0.87403 0.53711 0.0
C1688 C 0.31806 0.86896 0.55058 0.0
H1689 H 0.32436 0.88095 0.41417 0.0
H1690 H 0.33071 0.88006 0.44806 0.0
C1691 C 0.31457 0.87022 0.5699 0.0
C1692 C 0.3098 0.87256 0.51661 0.0
H1693 H 0.30973 0.8452 0.48045 0.0
C1694 C 0.31062 0.88679 0.50583 0.0
C1695 C 0.30993 0.85736 0.50744 0.0
C1696 C 0.3088 0.84175 0.51845 0.0
C1697 C 0.31077 0.88626 0.48601 0.0
C1698 C 0.31028 0.87107 0.4768 0.0
C1699 C 0.31022 0.85681 0.4876 0.0
C1700 C 0.3076 0.86985 0.45617 0.0
C1701 C 0.31043 0.90196 0.47509 0.0
C1702 C 0.29277 0.86388 0.44952 0.0
C1703 C 0.28913 0.86434 0.43028 0.0
C1704 C 0.30031 0.87074 0.41731 0.0
C1705 C 0.31549 0.87602 0.42387 0.0
C1706 C 0.31912 0.87557 0.4432 0.0
H1707 H 0.30848 0.91261 0.48442 0.0
H1708 H 0.32214 0.9036 0.46765 0.0
H1709 H 0.30069 0.90171 0.46427 0.0
H1710 H 0.28373 0.85941 0.45932 0.0
H1711 H 0.27737 0.86011 0.42564 0.0
H1712 H 0.12627 0.67228 0.41521 0.0
H1713 H 0.1284 0.66598 0.44908 0.0
H1714 H 0.12811 0.71702 0.46201 0.0
H1715 H 0.1261 0.72339 0.42843 0.0
H1716 H 0.15197 0.69829 0.48207 0.0
H1717 H 0.08972 0.67242 0.48625 0.0
H1718 H 0.10331 0.6642 0.46883 0.0
H1719 H 0.09623 0.68464 0.46651 0.0
C1720 C 0.12678 0.68213 0.4253 0.0
C1721 C 0.12592 0.69832 0.41921 0.0
C1722 C 0.12794 0.67852 0.4446 0.0
C1723 C 0.12827 0.69105 0.458 0.0
C1724 C 0.12787 0.70719 0.45187 0.0
H1725 H 0.10211 0.71233 0.56861 0.0
H1726 H 0.10516 0.70637 0.53503 0.0
C1727 C 0.12667 0.7108 0.43268 0.0
C1728 C 0.12838 0.68767 0.47853 0.0
H1729 H 0.10362 0.67628 0.51479 0.0
C1730 C 0.14156 0.69317 0.48926 0.0
C1731 C 0.11471 0.68107 0.48776 0.0
C1732 C 0.1001 0.67529 0.47685 0.0
C1733 C 0.14111 0.693 0.50909 0.0
C1734 C 0.12716 0.68702 0.51834 0.0
C1735 C 0.11431 0.68077 0.50759 0.0
C1736 C 0.12474 0.68928 0.53889 0.0
C1737 C 0.15509 0.70017 0.51998 0.0
C1738 C 0.13456 0.68139 0.55221 0.0
C1739 C 0.13285 0.6848 0.5715 0.0
C1740 C 0.1213 0.69614 0.57766 0.0
C1741 C 0.11116 0.70359 0.56429 0.0
C1742 C 0.11285 0.70016 0.54511 0.0
H1743 H 0.16402 0.70622 0.51059 0.0
H1744 H 0.15063 0.70914 0.53046 0.0
H1745 H 0.16142 0.69042 0.52784 0.0
H1746 H 0.14369 0.67281 0.54767 0.0
H1747 H 0.14078 0.67884 0.58152 0.0
H1748 H 0.32004 0.13371 0.41231 0.0
H1749 H 0.32749 0.135 0.44597 0.0
H1750 H 0.28699 0.1042 0.45969 0.0
H1751 H 0.27953 0.10286 0.42642 0.0
H1752 H 0.30702 0.14636 0.47616 0.0
H1753 H 0.32555 0.0827 0.48704 0.0
H1754 H 0.32468 0.09195 0.46391 0.0
H1755 H 0.30656 0.08429 0.47485 0.0
C1756 C 0.31285 0.12712 0.42253 0.0
C1757 C 0.29923 0.11817 0.41677 0.0
C1758 C 0.31711 0.12787 0.4417 0.0
C1759 C 0.30794 0.11947 0.45522 0.0
C1760 C 0.29442 0.11049 0.44942 0.0
H1761 H 0.27793 0.10878 0.5652 0.0
H1762 H 0.28484 0.10959 0.5317 0.0
C1763 C 0.29011 0.10983 0.43041 0.0
C1764 C 0.3116 0.1207 0.47563 0.0
H1765 H 0.31606 0.09704 0.51479 0.0
C1766 C 0.30947 0.1357 0.48464 0.0
C1767 C 0.3149 0.10677 0.48658 0.0
C1768 C 0.31822 0.09055 0.47758 0.0
C1769 C 0.30916 0.13683 0.50445 0.0
C1770 C 0.31112 0.12263 0.51534 0.0
C1771 C 0.31446 0.10788 0.50634 0.0
C1772 C 0.30743 0.12236 0.53577 0.0
C1773 C 0.30555 0.15292 0.51362 0.0
C1774 C 0.31792 0.12928 0.54911 0.0
C1775 C 0.31401 0.1288 0.56838 0.0
C1776 C 0.29955 0.12145 0.57445 0.0
C1777 C 0.28914 0.11457 0.56098 0.0
C1778 C 0.29307 0.11498 0.54183 0.0
H1779 H 0.30361 0.16269 0.50307 0.0
H1780 H 0.29457 0.15189 0.52261 0.0
H1781 H 0.31579 0.15643 0.52292 0.0
H1782 H 0.32911 0.13495 0.54464 0.0
H1783 H 0.32227 0.13418 0.57849 0.0
H1784 H 0.88682 0.32047 0.41861 0.0
H1785 H 0.88679 0.32354 0.45309 0.0
H1786 H 0.8517 0.28503 0.4577 0.0
H1787 H 0.85219 0.28149 0.42339 0.0
H1788 H 0.86444 0.32956 0.48096 0.0
H1789 H 0.88925 0.26746 0.48794 0.0
H1790 H 0.88766 0.2776 0.46546 0.0
H1791 H 0.87021 0.26796 0.47578 0.0
C1792 C 0.87895 0.31282 0.42699 0.0
C1793 C 0.86971 0.30057 0.41842 0.0
C1794 C 0.87893 0.31459 0.44666 0.0
C1795 C 0.86955 0.30423 0.45796 0.0
C1796 C 0.85937 0.29284 0.44927 0.0
H1797 H 0.85438 0.30957 0.57984 0.0
H1798 H 0.85198 0.31334 0.54559 0.0
C1799 C 0.8596 0.29088 0.42968 0.0
C1800 C 0.87131 0.30447 0.47881 0.0
H1801 H 0.88136 0.28051 0.51625 0.0
C1802 C 0.86819 0.31888 0.48872 0.0
C1803 C 0.87653 0.29059 0.48884 0.0
C1804 C 0.88127 0.27508 0.47896 0.0
C1805 C 0.86992 0.31969 0.50847 0.0
C1806 C 0.87452 0.30561 0.51854 0.0
C1807 C 0.87775 0.29128 0.50855 0.0
C1808 C 0.87638 0.30527 0.53941 0.0
C1809 C 0.86716 0.33568 0.51827 0.0
C1810 C 0.89082 0.2994 0.54734 0.0
C1811 C 0.89205 0.29687 0.56677 0.0
C1812 C 0.87893 0.30035 0.5787 0.0
C1813 C 0.86471 0.30691 0.57093 0.0
C1814 C 0.86338 0.30917 0.55138 0.0
H1815 H 0.86859 0.34602 0.50836 0.0
H1816 H 0.85461 0.33603 0.52387 0.0
H1817 H 0.87567 0.33733 0.53026 0.0
H1818 H 0.90101 0.29631 0.5384 0.0
H1819 H 0.90318 0.29189 0.57241 0.0
H1820 H 0.6771 0.86784 0.57931 0.0
H1821 H 0.67266 0.8648 0.54511 0.0
H1822 H 0.72257 0.87735 0.53481 0.0
H1823 H 0.7271 0.88033 0.56868 0.0
H1824 H 0.67794 0.88871 0.51594 0.0
H1825 H 0.71623 0.83437 0.50584 0.0
H1826 H 0.70869 0.84049 0.52873 0.0
H1827 H 0.72632 0.85009 0.51882 0.0
C1828 C 0.68711 0.86988 0.56971 0.0
C1829 C 0.70247 0.87425 0.57664 0.0
C1830 C 0.68456 0.86815 0.55024 0.0
C1831 C 0.69737 0.87058 0.53751 0.0
C1832 C 0.71262 0.87509 0.54444 0.0
H1833 H 0.72617 0.884 0.42589 0.0
H1834 H 0.72139 0.88073 0.4597 0.0
C1835 C 0.71516 0.87688 0.56379 0.0
C1836 C 0.69496 0.86898 0.51688 0.0
H1837 H 0.7111 0.85049 0.47811 0.0
C1838 C 0.68487 0.88012 0.50762 0.0
C1839 C 0.70395 0.85769 0.50615 0.0
C1840 C 0.71429 0.84487 0.5154 0.0
C1841 C 0.68449 0.88103 0.48779 0.0
C1842 C 0.69434 0.87044 0.47711 0.0
C1843 C 0.70364 0.85866 0.48638 0.0
C1844 C 0.69666 0.87255 0.45654 0.0
C1845 C 0.67437 0.89392 0.47838 0.0
C1846 C 0.68429 0.869 0.44359 0.0
C1847 C 0.687 0.87084 0.42415 0.0
C1848 C 0.70211 0.87625 0.41749 0.0
C1849 C 0.7144 0.87982 0.43057 0.0
C1850 C 0.71171 0.87794 0.44989 0.0
H1851 H 0.66861 0.90219 0.48879 0.0
H1852 H 0.68196 0.9012 0.46859 0.0
H1853 H 0.66468 0.8881 0.46989 0.0
H1854 H 0.67265 0.86467 0.44849 0.0
H1855 H 0.67733 0.86796 0.41437 0.0
H1856 H 0.63551 0.81598 0.08164 0.0
H1857 H 0.63732 0.82291 0.04793 0.0
H1858 H 0.60153 0.7865 0.03512 0.0
H1859 H 0.59965 0.77954 0.06856 0.0
H1860 H 0.64627 0.80108 0.01886 0.0
H1861 H 0.58527 0.82656 0.00607 0.0
H1862 H 0.59392 0.82483 0.02946 0.0
H1863 H 0.58462 0.80756 0.01837 0.0
C1864 C 0.6279 0.80961 0.07163 0.0
C1865 C 0.61744 0.79722 0.0777 0.0
C1866 C 0.62895 0.81358 0.05242 0.0
C1867 C 0.61937 0.80539 0.03911 0.0
C1868 C 0.60877 0.7932 0.04522 0.0
H1869 H 0.62598 0.7735 0.92782 0.0
H1870 H 0.62759 0.77935 0.96157 0.0
C1871 C 0.6078 0.78916 0.06432 0.0
C1872 C 0.62125 0.80848 0.01863 0.0
H1873 H 0.59934 0.81613 0.97872 0.0
C1874 C 0.63612 0.80472 0.0101 0.0
C1875 C 0.60807 0.81343 0.00726 0.0
C1876 C 0.59211 0.81849 0.01577 0.0
C1877 C 0.63778 0.80462 0.99036 0.0
C1878 C 0.6242 0.80825 0.97897 0.0
C1879 C 0.60969 0.81319 0.98751 0.0
C1880 C 0.62425 0.8052 0.95837 0.0
C1881 C 0.65389 0.80009 0.98184 0.0
C1882 C 0.62164 0.8178 0.94541 0.0
C1883 C 0.62075 0.81448 0.92602 0.0
C1884 C 0.62218 0.79848 0.91942 0.0
C1885 C 0.62484 0.78594 0.93247 0.0
C1886 C 0.62588 0.78928 0.95175 0.0
H1887 H 0.664 0.80239 0.99186 0.0
H1888 H 0.65387 0.78698 0.97839 0.0
H1889 H 0.65616 0.80695 0.9686 0.0
H1890 H 0.6202 0.83014 0.95032 0.0
H1891 H 0.61863 0.82436 0.91627 0.0
H1892 H 0.21081 0.59547 0.92625 0.0
H1893 H 0.20397 0.59849 0.95959 0.0
H1894 H 0.17211 0.63821 0.94602 0.0
H1895 H 0.17899 0.63528 0.91241 0.0
H1896 H 0.19462 0.64529 0.9743 0.0
H1897 H 0.16319 0.58772 0.99 0.0
H1898 H 0.18191 0.58453 0.97769 0.0
H1899 H 0.1657 0.59528 0.96621 0.0
C1900 C 0.20216 0.6047 0.9303 0.0
C1901 C 0.19545 0.61516 0.91675 0.0
C1902 C 0.19816 0.60632 0.94935 0.0
C1903 C 0.18734 0.61841 0.95523 0.0
C1904 C 0.18036 0.62871 0.94171 0.0
H1905 H 0.17079 0.62271 0.0784 0.0
H1906 H 0.16455 0.6238 0.04445 0.0
C1907 C 0.18429 0.62702 0.92256 0.0
C1908 C 0.18476 0.62116 0.97568 0.0
H1909 H 0.17581 0.60121 0.0166 0.0
C1910 C 0.19016 0.6358 0.98354 0.0
C1911 C 0.17874 0.60886 0.98768 0.0
C1912 C 0.1719 0.59328 0.97995 0.0
C1913 C 0.19083 0.63798 0.00318 0.0
C1914 C 0.18613 0.62513 0.01519 0.0
C1915 C 0.17958 0.61097 0.00734 0.0
C1916 C 0.18959 0.62546 0.03569 0.0
C1917 C 0.19708 0.65381 0.01093 0.0
C1918 C 0.20571 0.6259 0.04189 0.0
C1919 C 0.20929 0.62517 0.06113 0.0
C1920 C 0.19682 0.62397 0.07455 0.0
C1921 C 0.18064 0.62369 0.06835 0.0
C1922 C 0.17706 0.62431 0.04902 0.0
H1923 H 0.19546 0.66382 0.00062 0.0
H1924 H 0.19083 0.65706 0.02431 0.0
H1925 H 0.21022 0.65263 0.01392 0.0
H1926 H 0.21556 0.62647 0.0318 0.0
H1927 H 0.22187 0.62537 0.06547 0.0
H1928 H 0.37329 0.17639 0.08078 0.0
H1929 H 0.37192 0.17142 0.04655 0.0
H1930 H 0.37078 0.2229 0.03646 0.0
H1931 H 0.37225 0.22796 0.07039 0.0
H1932 H 0.34825 0.1828 0.01828 0.0
H1933 H 0.41044 0.20584 0.00607 0.0
H1934 H 0.40325 0.19984 0.02915 0.0
H1935 H 0.39802 0.21936 0.01968 0.0
C1936 C 0.37266 0.18662 0.07123 0.0
C1937 C 0.37304 0.20257 0.07822 0.0
C1938 C 0.37186 0.18376 0.05174 0.0
C1939 C 0.3715 0.19681 0.03905 0.0
C1940 C 0.37132 0.21269 0.04605 0.0
H1941 H 0.3661 0.22524 0.92573 0.0
H1942 H 0.36555 0.22093 0.95983 0.0
C1943 C 0.37212 0.21555 0.06544 0.0
C1944 C 0.37175 0.1941 0.0184 0.0
H1945 H 0.39325 0.20399 0.97892 0.0
C1946 C 0.35819 0.18713 0.00962 0.0
C1947 C 0.38482 0.19965 0.00725 0.0
C1948 C 0.40004 0.20645 0.016 0.0
C1949 C 0.35696 0.18652 0.98981 0.0
C1950 C 0.36963 0.19298 0.97872 0.0
C1951 C 0.38352 0.19915 0.98753 0.0
C1952 C 0.36821 0.19493 0.95805 0.0
C1953 C 0.34185 0.1798 0.9808 0.0
C1954 C 0.36968 0.18165 0.94579 0.0
C1955 C 0.37002 0.18407 0.92619 0.0
C1956 C 0.36897 0.19982 0.9187 0.0
C1957 C 0.36699 0.21298 0.93106 0.0
C1958 C 0.36665 0.21055 0.95055 0.0
H1959 H 0.33264 0.17619 0.99145 0.0
H1960 H 0.33645 0.18894 0.97117 0.0
H1961 H 0.345 0.16903 0.97217 0.0
H1962 H 0.37106 0.16952 0.95139 0.0
H1963 H 0.37159 0.17372 0.91698 0.0
H1964 H 0.77588 0.38969 0.06737 0.0
H1965 H 0.78267 0.38869 0.03384 0.0
H1966 H 0.82711 0.36364 0.04679 0.0
H1967 H 0.8204 0.36463 0.08067 0.0
H1968 H 0.81422 0.40101 0.01649 0.0
H1969 H 0.8007 0.33542 0.0059 0.0
H1970 H 0.79174 0.3466 0.0252 0.0
H1971 H 0.8129 0.34184 0.02568 0.0
C1972 C 0.78711 0.38396 0.06315 0.0
C1973 C 0.7976 0.3772 0.07663 0.0
C1974 C 0.79098 0.38344 0.04399 0.0
C1975 C 0.80533 0.37606 0.03792 0.0
C1976 C 0.81593 0.36932 0.05128 0.0
H1977 H 0.81702 0.36281 0.91472 0.0
H1978 H 0.82436 0.36178 0.9484 0.0
C1979 C 0.8121 0.36992 0.07056 0.0
C1980 C 0.80885 0.37552 0.01747 0.0
H1981 H 0.80393 0.35145 0.9787 0.0
C1982 C 0.81235 0.39011 0.00821 0.0
C1983 C 0.80651 0.36124 0.00681 0.0
C1984 C 0.80273 0.34532 0.01627 0.0
C1985 C 0.81262 0.391 0.98843 0.0
C1986 C 0.80896 0.37701 0.97773 0.0
C1987 C 0.80665 0.36216 0.98698 0.0
C1988 C 0.8053 0.37805 0.9573 0.0
C1989 C 0.8162 0.40705 0.97915 0.0
C1990 C 0.79206 0.38734 0.95129 0.0
C1991 C 0.7878 0.38787 0.93225 0.0
C1992 C 0.79669 0.37906 0.9188 0.0
C1993 C 0.81 0.36976 0.92479 0.0
C1994 C 0.81421 0.36917 0.94396 0.0
H1995 H 0.82377 0.41485 0.98842 0.0
H1996 H 0.82251 0.40537 0.96543 0.0
H1997 H 0.80464 0.41352 0.97648 0.0
H1998 H 0.78481 0.394 0.96142 0.0
H1999 H 0.77746 0.3951 0.92809 0.0
H2000 H 0.61529 0.16998 0.08099 0.0
H2001 H 0.6163 0.16298 0.04722 0.0
H2002 H 0.6283 0.21248 0.03377 0.0
H2003 H 0.62721 0.21955 0.06723 0.0
H2004 H 0.59656 0.17837 0.01834 0.0
H2005 H 0.66219 0.18498 0.00427 0.0
H2006 H 0.65411 0.18168 0.02771 0.0
H2007 H 0.65384 0.2016 0.01744 0.0
C2008 C 0.6183 0.1793 0.07081 0.0
C2009 C 0.62115 0.19531 0.0767 0.0
C2010 C 0.61888 0.17528 0.05159 0.0
C2011 C 0.62261 0.18717 0.0381 0.0
C2012 C 0.6257 0.20308 0.04402 0.0
H2013 H 0.60046 0.21533 0.92911 0.0
H2014 H 0.60206 0.20785 0.96242 0.0
C2015 C 0.62495 0.20712 0.06312 0.0
C2016 C 0.62211 0.18354 0.01765 0.0
H2017 H 0.64441 0.18786 0.97739 0.0
C2018 C 0.60708 0.18003 0.00938 0.0
C2019 C 0.6359 0.18553 0.00605 0.0
C2020 C 0.65246 0.1885 0.01432 0.0
C2021 C 0.60525 0.17976 0.98967 0.0
C2022 C 0.61876 0.18319 0.97807 0.0
C2023 C 0.63404 0.18538 0.98634 0.0
C2024 C 0.61691 0.18665 0.95769 0.0
C2025 C 0.58874 0.17648 0.9814 0.0
C2026 C 0.62489 0.17727 0.94402 0.0
C2027 C 0.62396 0.18151 0.92488 0.0
C2028 C 0.61527 0.19534 0.91926 0.0
C2029 C 0.60724 0.20461 0.93301 0.0
C2030 C 0.60804 0.20029 0.95203 0.0
H2031 H 0.58107 0.16941 0.99132 0.0
H2032 H 0.58256 0.18818 0.97861 0.0
H2033 H 0.5897 0.16979 0.96783 0.0
H2034 H 0.63193 0.16679 0.94818 0.0
H2035 H 0.63031 0.17419 0.91456 0.0
H2036 H 0.8054 0.64351 0.07592 0.0
H2037 H 0.80778 0.64501 0.04141 0.0
H2038 H 0.80225 0.59314 0.03781 0.0
H2039 H 0.79911 0.59169 0.07214 0.0
H2040 H 0.82697 0.63233 0.01399 0.0
H2041 H 0.76447 0.60858 0.00689 0.0
H2042 H 0.77294 0.61435 0.02937 0.0
H2043 H 0.77763 0.59492 0.0192 0.0
C2044 C 0.8049 0.63242 0.06775 0.0
C2045 C 0.8018 0.61752 0.07659 0.0
C2046 C 0.80628 0.63329 0.04806 0.0
C2047 C 0.80475 0.61923 0.03702 0.0
C2048 C 0.80296 0.60419 0.04602 0.0
H2049 H 0.81934 0.61231 0.91484 0.0
H2050 H 0.82355 0.61234 0.94914 0.0
C2051 C 0.80126 0.60336 0.06561 0.0
C2052 C 0.80385 0.62042 0.01614 0.0
H2053 H 0.77951 0.61139 0.97865 0.0
C2054 C 0.81659 0.62781 0.00622 0.0
C2055 C 0.79014 0.61479 0.00608 0.0
C2056 C 0.77545 0.60788 0.01593 0.0
C2057 C 0.81606 0.62956 0.98646 0.0
C2058 C 0.8026 0.62338 0.97638 0.0
C2059 C 0.78987 0.61605 0.98636 0.0
C2060 C 0.80104 0.62465 0.95553 0.0
C2061 C 0.82969 0.63838 0.97668 0.0
C2062 C 0.78694 0.63138 0.9477 0.0
C2063 C 0.78435 0.63099 0.92824 0.0
C2064 C 0.7959 0.62405 0.91616 0.0
C2065 C 0.8103 0.61784 0.92386 0.0
C2066 C 0.81277 0.61797 0.94344 0.0
H2067 H 0.83634 0.64641 0.98661 0.0
H2068 H 0.83843 0.6294 0.97103 0.0
H2069 H 0.82513 0.6458 0.96473 0.0
H2070 H 0.77772 0.6366 0.95673 0.0
H2071 H 0.77317 0.63593 0.92266 0.0
H2072 H 0.36581 0.81976 0.91656 0.0
H2073 H 0.36562 0.82599 0.95056 0.0
H2074 H 0.39039 0.78107 0.96193 0.0
H2075 H 0.39067 0.7748 0.92827 0.0
H2076 H 0.35185 0.80648 0.98032 0.0
H2077 H 0.41775 0.81545 0.98986 0.0
H2078 H 0.40805 0.81643 0.96699 0.0
H2079 H 0.41304 0.79715 0.97732 0.0
C2080 C 0.37129 0.81128 0.92634 0.0
C2081 C 0.3783 0.79682 0.91978 0.0
C2082 C 0.37116 0.81486 0.94571 0.0
C2083 C 0.37823 0.80411 0.95867 0.0
C2084 C 0.38517 0.78967 0.95211 0.0
H2085 H 0.38823 0.77498 0.07043 0.0
H2086 H 0.38779 0.78074 0.03662 0.0
C2087 C 0.38522 0.78606 0.93287 0.0
C2088 C 0.37788 0.80737 0.97922 0.0
H2089 H 0.40257 0.80857 0.01784 0.0
C2090 C 0.36289 0.80735 0.98856 0.0
C2091 C 0.39232 0.80859 0.98985 0.0
C2092 C 0.4087 0.80958 0.98048 0.0
C2093 C 0.36204 0.80724 0.0084 0.0
C2094 C 0.37655 0.80732 0.019 0.0
C2095 C 0.39147 0.80841 0.00963 0.0
C2096 C 0.37664 0.80431 0.0396 0.0
C2097 C 0.34573 0.80597 0.01789 0.0
C2098 C 0.37056 0.81573 0.05246 0.0
C2099 C 0.3708 0.81247 0.0719 0.0
C2100 C 0.37713 0.79775 0.07865 0.0
C2101 C 0.38325 0.78642 0.06567 0.0
C2102 C 0.38304 0.78969 0.04635 0.0
H2103 H 0.33574 0.80431 0.00755 0.0
H2104 H 0.34563 0.79566 0.02796 0.0
H2105 H 0.34336 0.81719 0.02608 0.0
H2106 H 0.36573 0.82715 0.04749 0.0
H2107 H 0.36606 0.82143 0.0816 0.0
H2108 H 0.21891 0.35748 0.92597 0.0
H2109 H 0.21335 0.35638 0.95983 0.0
H2110 H 0.16813 0.38138 0.95102 0.0
H2111 H 0.17363 0.38254 0.91694 0.0
H2112 H 0.18854 0.39574 0.9781 0.0
H2113 H 0.18119 0.3302 0.99213 0.0
H2114 H 0.19885 0.33467 0.97827 0.0
H2115 H 0.17907 0.33886 0.96879 0.0
C2116 C 0.20765 0.36251 0.93118 0.0
C2117 C 0.19672 0.37013 0.91884 0.0
C2118 C 0.20443 0.36175 0.95052 0.0
C2119 C 0.19023 0.36861 0.95789 0.0
C2120 C 0.17908 0.37589 0.94556 0.0
H2121 H 0.17609 0.3661 0.08157 0.0
H2122 H 0.17001 0.36411 0.04763 0.0
C2123 C 0.18224 0.37653 0.92613 0.0
C2124 C 0.18808 0.36966 0.97862 0.0
H2125 H 0.1887 0.34681 0.01882 0.0
C2126 C 0.18823 0.38505 0.98701 0.0
C2127 C 0.18753 0.35571 0.99019 0.0
C2128 C 0.18648 0.33892 0.98189 0.0
C2129 C 0.18891 0.38683 0.0067 0.0
C2130 C 0.18959 0.37286 0.01822 0.0
C2131 C 0.18836 0.35749 0.00991 0.0
C2132 C 0.19302 0.37401 0.03869 0.0
C2133 C 0.18939 0.40365 0.01503 0.0
C2134 C 0.20803 0.37997 0.04477 0.0
C2135 C 0.21156 0.38103 0.06401 0.0
C2136 C 0.20011 0.37614 0.07754 0.0
C2137 C 0.18511 0.37001 0.07144 0.0
C2138 C 0.18162 0.36886 0.05211 0.0
H2139 H 0.18433 0.41277 0.0051 0.0
H2140 H 0.18252 0.40419 0.02851 0.0
H2141 H 0.20215 0.40699 0.01802 0.0
H2142 H 0.21708 0.38374 0.03459 0.0
H2143 H 0.22324 0.38575 0.06826 0.0
H2144 H 0.19838 0.38104 0.20189 0.0
H2145 H 0.18398 0.37086 0.22973 0.0
H2146 H 0.15145 0.34416 0.19364 0.0
H2147 H 0.16578 0.35428 0.1657 0.0
H2148 H 0.14881 0.37208 0.23943 0.0
H2149 H 0.1738 0.31006 0.22944 0.0
H2150 H 0.1826 0.32767 0.21834 0.0
H2151 H 0.16422 0.31911 0.2092 0.0
C2152 C 0.18807 0.37312 0.19988 0.0
C2153 C 0.18327 0.36834 0.18165 0.0
C2154 C 0.17985 0.36736 0.21577 0.0
C2155 C 0.1668 0.35666 0.21368 0.0
C2156 C 0.16162 0.35231 0.19549 0.0
H2157 H 0.11457 0.29697 0.29364 0.0
H2158 H 0.12394 0.31114 0.26536 0.0
C2159 C 0.16978 0.35811 0.17958 0.0
C2160 C 0.15916 0.34941 0.23054 0.0
H2161 H 0.15539 0.31376 0.25446 0.0
C2162 C 0.15019 0.35934 0.24276 0.0
C2163 C 0.16106 0.3328 0.23477 0.0
C2164 C 0.17103 0.32175 0.22237 0.0
C2165 C 0.14285 0.35299 0.25907 0.0
C2166 C 0.14488 0.33638 0.26338 0.0
C2167 C 0.15382 0.32648 0.25109 0.0
C2168 C 0.13804 0.32892 0.28066 0.0
C2169 C 0.13279 0.36404 0.27132 0.0
C2170 C 0.14278 0.33429 0.29866 0.0
C2171 C 0.13738 0.32625 0.31488 0.0
C2172 C 0.1273 0.3126 0.31331 0.0
C2173 C 0.12235 0.30744 0.29529 0.0
C2174 C 0.12768 0.31552 0.27912 0.0
H2175 H 0.12869 0.37492 0.26343 0.0
H2176 H 0.12199 0.35763 0.27695 0.0
H2177 H 0.1402 0.36819 0.28348 0.0
H2178 H 0.15106 0.34437 0.30016 0.0
H2179 H 0.14145 0.33044 0.32859 0.0
H2180 H 0.61841 0.1992 0.20073 0.0
H2181 H 0.62825 0.18531 0.22903 0.0
H2182 H 0.65253 0.15005 0.19411 0.0
H2183 H 0.64285 0.16397 0.16567 0.0
H2184 H 0.62475 0.15213 0.2412 0.0
H2185 H 0.68873 0.16973 0.22759 0.0
H2186 H 0.6719 0.17923 0.21568 0.0
H2187 H 0.67866 0.15949 0.2085 0.0
C2188 C 0.62577 0.18844 0.19907 0.0
C2189 C 0.63 0.18274 0.18101 0.0
C2190 C 0.63133 0.1805 0.21524 0.0
C2191 C 0.64126 0.16681 0.21361 0.0
C2192 C 0.64506 0.16076 0.19561 0.0
H2193 H 0.69699 0.11379 0.29706 0.0
H2194 H 0.68312 0.12228 0.26819 0.0
C2195 C 0.63949 0.16868 0.17941 0.0
C2196 C 0.64817 0.15929 0.23076 0.0
H2197 H 0.68381 0.15307 0.25398 0.0
C2198 C 0.63766 0.15228 0.24402 0.0
C2199 C 0.665 0.15957 0.23434 0.0
C2200 C 0.67676 0.16751 0.22089 0.0
C2201 C 0.6436 0.14537 0.26078 0.0
C2202 C 0.66043 0.14581 0.26445 0.0
C2203 C 0.67092 0.15271 0.25109 0.0
C2204 C 0.66751 0.13956 0.28222 0.0
C2205 C 0.63185 0.13751 0.27428 0.0
C2206 C 0.66324 0.14639 0.2997 0.0
C2207 C 0.67112 0.14152 0.31624 0.0
C2208 C 0.6835 0.12987 0.31551 0.0
C2209 C 0.68751 0.12282 0.29805 0.0
C2210 C 0.6796 0.12764 0.28155 0.0
H2211 H 0.62037 0.13411 0.26711 0.0
H2212 H 0.63718 0.1265 0.28081 0.0
H2213 H 0.62886 0.14618 0.28575 0.0
H2214 H 0.6542 0.15587 0.30047 0.0
H2215 H 0.66784 0.14722 0.32949 0.0
H2216 H 0.79501 0.62642 0.19995 0.0
H2217 H 0.81002 0.6361 0.22753 0.0
H2218 H 0.85128 0.64648 0.19222 0.0
H2219 H 0.83635 0.63669 0.16444 0.0
H2220 H 0.84411 0.62518 0.24054 0.0
H2221 H 0.83697 0.69019 0.22091 0.0
H2222 H 0.82339 0.67475 0.21219 0.0
H2223 H 0.84358 0.67612 0.20305 0.0
C2224 C 0.80731 0.63068 0.19805 0.0
C2225 C 0.8145 0.63089 0.18004 0.0
C2226 C 0.81586 0.63615 0.21381 0.0
C2227 C 0.83168 0.64203 0.21181 0.0
C2228 C 0.83903 0.64201 0.19394 0.0
H2229 H 0.88693 0.69619 0.29545 0.0
H2230 H 0.87882 0.68227 0.26645 0.0
C2231 C 0.83051 0.63643 0.17815 0.0
C2232 C 0.84015 0.64874 0.22841 0.0
H2233 H 0.85 0.68447 0.2496 0.0
C2234 C 0.84555 0.63813 0.24252 0.0
C2235 C 0.84201 0.66561 0.23078 0.0
C2236 C 0.83615 0.67743 0.21603 0.0
C2237 C 0.85271 0.644 0.25917 0.0
C2238 C 0.85404 0.66093 0.26189 0.0
C2239 C 0.84896 0.6715 0.2475 0.0
C2240 C 0.85999 0.66807 0.27981 0.0
C2241 C 0.85885 0.63202 0.27358 0.0
C2242 C 0.85216 0.66464 0.29697 0.0
C2243 C 0.85686 0.67249 0.31359 0.0
C2244 C 0.8693 0.68408 0.31325 0.0
C2245 C 0.87729 0.68732 0.29613 0.0
C2246 C 0.87267 0.67938 0.27956 0.0
H2247 H 0.86182 0.6202 0.26693 0.0
H2248 H 0.86979 0.63664 0.28093 0.0
H2249 H 0.84927 0.62984 0.28429 0.0
H2250 H 0.84206 0.65629 0.29742 0.0
H2251 H 0.85042 0.66984 0.32657 0.0
H2252 H 0.35865 0.8357 0.16728 0.0
H2253 H 0.35102 0.8514 0.19534 0.0
H2254 H 0.36759 0.81252 0.23116 0.0
H2255 H 0.37537 0.79689 0.20332 0.0
H2256 H 0.32854 0.84166 0.22214 0.0
H2257 H 0.38814 0.85223 0.25585 0.0
H2258 H 0.38609 0.84612 0.23145 0.0
H2259 H 0.38465 0.83136 0.25008 0.0
C2260 C 0.36083 0.8306 0.18115 0.0
C2261 C 0.36759 0.81508 0.18313 0.0
C2262 C 0.3565 0.83958 0.19714 0.0
C2263 C 0.35901 0.83322 0.21531 0.0
C2264 C 0.36592 0.81781 0.21729 0.0
H2265 H 0.32762 0.84849 0.32875 0.0
H2266 H 0.34145 0.84052 0.29958 0.0
C2267 C 0.37023 0.80883 0.20136 0.0
C2268 C 0.35313 0.842 0.2322 0.0
H2269 H 0.36477 0.85593 0.27557 0.0
C2270 C 0.33648 0.84504 0.23371 0.0
C2271 C 0.36354 0.84631 0.24726 0.0
C2272 C 0.38163 0.84398 0.24605 0.0
C2273 C 0.32982 0.85161 0.25024 0.0
C2274 C 0.34017 0.85553 0.26551 0.0
C2275 C 0.35689 0.8529 0.26383 0.0
C2276 C 0.33364 0.8615 0.28368 0.0
C2277 C 0.31168 0.85363 0.25153 0.0
C2278 C 0.32521 0.87622 0.28455 0.0
C2279 C 0.31724 0.88075 0.30113 0.0
C2280 C 0.31771 0.87069 0.31715 0.0
C2281 C 0.32701 0.85645 0.3166 0.0
C2282 C 0.33492 0.85189 0.29997 0.0
H2283 H 0.30525 0.84687 0.24021 0.0
H2284 H 0.30712 0.8494 0.26545 0.0
H2285 H 0.30858 0.86665 0.25006 0.0
H2286 H 0.32435 0.88393 0.27221 0.0
H2287 H 0.31028 0.89186 0.3012 0.0
H2288 H 0.2088 0.63539 0.79821 0.0
H2289 H 0.1945 0.6449 0.77016 0.0
H2290 H 0.14924 0.62845 0.79382 0.0
H2291 H 0.16348 0.61938 0.82234 0.0
H2292 H 0.17655 0.62939 0.74422 0.0
H2293 H 0.13886 0.67499 0.78169 0.0
H2294 H 0.15552 0.66472 0.79297 0.0
H2295 H 0.1364 0.6546 0.78998 0.0
C2296 C 0.1958 0.6338 0.79746 0.0
C2297 C 0.18722 0.62679 0.81252 0.0
C2298 C 0.18764 0.6392 0.7814 0.0
C2299 C 0.17077 0.63761 0.78001 0.0
C2300 C 0.16221 0.63015 0.79479 0.0
H2301 H 0.12507 0.66102 0.6706 0.0
H2302 H 0.1338 0.64593 0.69867 0.0
C2303 C 0.17036 0.62491 0.81101 0.0
C2304 C 0.16232 0.64406 0.76312 0.0
H2305 H 0.13489 0.67245 0.74888 0.0
C2306 C 0.16736 0.63874 0.74521 0.0
C2307 C 0.15043 0.65633 0.76449 0.0
C2308 C 0.14505 0.66313 0.78329 0.0
C2309 C 0.16122 0.64571 0.7286 0.0
C2310 C 0.14935 0.65802 0.72997 0.0
C2311 C 0.14393 0.66296 0.74788 0.0
C2312 C 0.14342 0.66694 0.71316 0.0
C2313 C 0.16809 0.64038 0.70983 0.0
C2314 C 0.14544 0.68379 0.71226 0.0
C2315 C 0.14022 0.69243 0.69647 0.0
C2316 C 0.13296 0.68436 0.68118 0.0
C2317 C 0.13078 0.66751 0.68212 0.0
C2318 C 0.13583 0.65887 0.69809 0.0
H2319 H 0.17973 0.63378 0.71153 0.0
H2320 H 0.15939 0.6321 0.70282 0.0
H2321 H 0.17015 0.65092 0.70038 0.0
H2322 H 0.15125 0.69027 0.72373 0.0
H2323 H 0.14206 0.70541 0.69614 0.0
H2324 H 0.2946 0.12216 0.69907 0.0
H2325 H 0.30906 0.13054 0.7276 0.0
H2326 H 0.34907 0.14708 0.69351 0.0
H2327 H 0.33458 0.13888 0.66481 0.0
H2328 H 0.34037 0.12168 0.74165 0.0
H2329 H 0.33546 0.18726 0.72449 0.0
H2330 H 0.32353 0.17204 0.7126 0.0
H2331 H 0.34447 0.17479 0.70652 0.0
C2332 C 0.30651 0.12753 0.69764 0.0
C2333 C 0.31342 0.13001 0.67972 0.0
C2334 C 0.31476 0.13225 0.71394 0.0
C2335 C 0.33002 0.13958 0.7126 0.0
C2336 C 0.33719 0.14164 0.69478 0.0
H2337 H 0.38672 0.18905 0.79831 0.0
H2338 H 0.37848 0.17512 0.76938 0.0
C2339 C 0.32892 0.13693 0.67843 0.0
C2340 C 0.33808 0.14562 0.72988 0.0
H2341 H 0.34947 0.18036 0.75227 0.0
C2342 C 0.34245 0.13449 0.74399 0.0
C2343 C 0.34072 0.16234 0.73282 0.0
C2344 C 0.33571 0.17486 0.71841 0.0
C2345 C 0.34945 0.13968 0.76103 0.0
C2346 C 0.35184 0.15644 0.76409 0.0
C2347 C 0.34768 0.16751 0.74984 0.0
C2348 C 0.35803 0.16296 0.78219 0.0
C2349 C 0.35433 0.1272 0.77552 0.0
C2350 C 0.3494 0.16053 0.79906 0.0
C2351 C 0.35414 0.16841 0.81565 0.0
C2352 C 0.36745 0.179 0.81554 0.0
C2353 C 0.37638 0.18098 0.7988 0.0
C2354 C 0.3717 0.17304 0.78227 0.0
H2355 H 0.35621 0.11512 0.76896 0.0
H2356 H 0.3656 0.13082 0.78295 0.0
H2357 H 0.34454 0.12601 0.78618 0.0
H2358 H 0.33861 0.15308 0.79922 0.0
H2359 H 0.34699 0.16674 0.82834 0.0
H2360 H 0.85994 0.33378 0.66902 0.0
H2361 H 0.84918 0.34715 0.69732 0.0
H2362 H 0.85984 0.30455 0.73034 0.0
H2363 H 0.87038 0.29108 0.70219 0.0
H2364 H 0.82835 0.31559 0.7345 0.0
H2365 H 0.87267 0.36556 0.74393 0.0
H2366 H 0.86391 0.36418 0.72073 0.0
H2367 H 0.8767 0.34815 0.7292 0.0
C2368 C 0.86013 0.32735 0.68236 0.0
C2369 C 0.86596 0.31138 0.68341 0.0
C2370 C 0.85408 0.33503 0.69852 0.0
C2371 C 0.85389 0.32688 0.71593 0.0
C2372 C 0.85995 0.31105 0.71703 0.0
H2373 H 0.83 0.36117 0.82856 0.0
H2374 H 0.84375 0.35084 0.80028 0.0
C2375 C 0.86595 0.30338 0.70093 0.0
C2376 C 0.84639 0.33435 0.7328 0.0
H2377 H 0.84926 0.36616 0.76348 0.0
C2378 C 0.83293 0.32663 0.74086 0.0
C2379 C 0.85252 0.34867 0.74112 0.0
C2380 C 0.86733 0.35709 0.73344 0.0
C2381 C 0.8253 0.33292 0.75695 0.0
C2382 C 0.83117 0.34744 0.765 0.0
C2383 C 0.84475 0.35509 0.75712 0.0
C2384 C 0.82331 0.35473 0.78171 0.0
C2385 C 0.81116 0.32386 0.76536 0.0
C2386 C 0.80743 0.36062 0.78045 0.0
C2387 C 0.79957 0.36649 0.79651 0.0
C2388 C 0.80749 0.36661 0.81409 0.0
C2389 C 0.82359 0.36116 0.81521 0.0
C2390 C 0.83146 0.3553 0.7991 0.0
H2391 H 0.81049 0.31119 0.76012 0.0
H2392 H 0.81196 0.32365 0.78103 0.0
H2393 H 0.79974 0.33008 0.76142 0.0
H2394 H 0.80103 0.36045 0.76708 0.0
H2395 H 0.7872 0.3707 0.7952 0.0
H2396 H 0.70047 0.87749 0.70139 0.0
H2397 H 0.6858 0.86785 0.72923 0.0
H2398 H 0.65037 0.84507 0.69319 0.0
H2399 H 0.66507 0.85457 0.6652 0.0
H2400 H 0.65247 0.87242 0.74056 0.0
H2401 H 0.66831 0.80797 0.72683 0.0
H2402 H 0.6786 0.82456 0.71536 0.0
H2403 H 0.65878 0.81857 0.70763 0.0
C2404 C 0.68951 0.8705 0.69938 0.0
C2405 C 0.68398 0.86665 0.68113 0.0
C2406 C 0.68113 0.86506 0.71529 0.0
C2407 C 0.66714 0.85561 0.71322 0.0
C2408 C 0.66128 0.85217 0.69503 0.0
H2409 H 0.61227 0.8008 0.79604 0.0
H2410 H 0.62118 0.81445 0.76721 0.0
C2411 C 0.66965 0.85764 0.67909 0.0
C2412 C 0.65912 0.84884 0.73014 0.0
H2413 H 0.65176 0.81332 0.75316 0.0
C2414 C 0.65223 0.8595 0.74333 0.0
C2415 C 0.6589 0.83199 0.73365 0.0
C2416 C 0.66664 0.82007 0.72024 0.0
C2417 C 0.64501 0.85371 0.75998 0.0
C2418 C 0.64501 0.83687 0.76363 0.0
C2419 C 0.65174 0.82623 0.7503 0.0
C2420 C 0.63851 0.82992 0.78137 0.0
C2421 C 0.63731 0.86565 0.77339 0.0
C2422 C 0.64523 0.83418 0.79892 0.0
C2423 C 0.64009 0.82645 0.81545 0.0
C2424 C 0.62831 0.8142 0.81463 0.0
C2425 C 0.62139 0.81018 0.7971 0.0
C2426 C 0.62646 0.81797 0.78062 0.0
H2427 H 0.6341 0.87714 0.76612 0.0
H2428 H 0.62621 0.86053 0.77993 0.0
H2429 H 0.64601 0.86857 0.78484 0.0
H2430 H 0.65481 0.8431 0.79977 0.0
H2431 H 0.64569 0.82972 0.82876 0.0
H2432 H 0.85352 0.66873 0.66621 0.0
H2433 H 0.84416 0.65533 0.69514 0.0
H2434 H 0.87776 0.68374 0.72799 0.0
H2435 H 0.88696 0.69736 0.69926 0.0
H2436 H 0.86045 0.63763 0.72397 0.0
H2437 H 0.83345 0.6948 0.75094 0.0
H2438 H 0.83999 0.69244 0.72677 0.0
H2439 H 0.85458 0.6961 0.74513 0.0
C2440 C 0.85901 0.672 0.67959 0.0
C2441 C 0.87082 0.68421 0.68054 0.0
C2442 C 0.85367 0.66433 0.69607 0.0
C2443 C 0.86007 0.66879 0.71369 0.0
C2444 C 0.87245 0.68039 0.71455 0.0
H2445 H 0.83102 0.64544 0.82872 0.0
H2446 H 0.84625 0.65454 0.80097 0.0
C2447 C 0.87773 0.6881 0.69812 0.0
C2448 C 0.85325 0.6619 0.73126 0.0
H2449 H 0.83262 0.67219 0.77128 0.0
C2450 C 0.85438 0.64516 0.73435 0.0
C2451 C 0.84532 0.67179 0.74471 0.0
C2452 C 0.8431 0.68976 0.74171 0.0
C2453 C 0.84787 0.63803 0.75069 0.0
C2454 C 0.83986 0.64792 0.76406 0.0
C2455 C 0.83888 0.66467 0.76104 0.0
C2456 C 0.8317 0.64115 0.7809 0.0
C2457 C 0.84973 0.62003 0.75359 0.0
C2458 C 0.8185 0.63062 0.77875 0.0
C2459 C 0.80978 0.62544 0.79453 0.0
C2460 C 0.81406 0.6308 0.81272 0.0
C2461 C 0.82746 0.64111 0.81488 0.0
C2462 C 0.83617 0.6463 0.79907 0.0
H2463 H 0.85982 0.61502 0.74501 0.0
H2464 H 0.85196 0.61715 0.76871 0.0
H2465 H 0.83841 0.61386 0.74919 0.0
H2466 H 0.81464 0.62679 0.76482 0.0
H2467 H 0.79947 0.61753 0.79244 0.0
H2468 H 0.35297 0.83024 0.83092 0.0
H2469 H 0.34326 0.84455 0.80272 0.0
H2470 H 0.36593 0.80871 0.76716 0.0
H2471 H 0.37567 0.79435 0.7952 0.0
H2472 H 0.37061 0.84313 0.75632 0.0
H2473 H 0.30641 0.82528 0.76832 0.0
H2474 H 0.31686 0.83438 0.78794 0.0
H2475 H 0.32312 0.81489 0.77943 0.0
C2476 C 0.35595 0.82547 0.81709 0.0
C2477 C 0.36497 0.81113 0.81524 0.0
C2478 C 0.35038 0.83362 0.80104 0.0
C2479 C 0.35378 0.82756 0.78294 0.0
C2480 C 0.36318 0.81353 0.78104 0.0
H2481 H 0.32992 0.85101 0.66703 0.0
H2482 H 0.34282 0.84137 0.6961 0.0
C2483 C 0.36868 0.80533 0.79706 0.0
C2484 C 0.3471 0.8355 0.76593 0.0
H2485 H 0.3118 0.84195 0.74212 0.0
C2486 C 0.35775 0.84295 0.75319 0.0
C2487 C 0.33033 0.83519 0.76199 0.0
C2488 C 0.31846 0.82693 0.77502 0.0
C2489 C 0.35204 0.85026 0.73655 0.0
C2490 C 0.33528 0.84972 0.73243 0.0
C2491 C 0.32463 0.84237 0.74532 0.0
C2492 C 0.32843 0.85641 0.71472 0.0
C2493 C 0.36395 0.85869 0.72373 0.0
C2494 C 0.31591 0.86788 0.71555 0.0
C2495 C 0.30839 0.87321 0.69902 0.0
C2496 C 0.31325 0.86717 0.68134 0.0
C2497 C 0.32601 0.85595 0.68046 0.0
C2498 C 0.33346 0.85052 0.69704 0.0
H2499 H 0.37511 0.86224 0.73146 0.0
H2500 H 0.36753 0.85031 0.7122 0.0
H2501 H 0.35854 0.86968 0.71726 0.0
H2502 H 0.3118 0.87253 0.72904 0.0
H2503 H 0.2986 0.88189 0.70012 0.0
H2504 H 0.13858 0.33638 0.66592 0.0
H2505 H 0.14676 0.35181 0.69398 0.0
H2506 H 0.13196 0.31214 0.72967 0.0
H2507 H 0.12359 0.29677 0.70183 0.0
H2508 H 0.12219 0.34324 0.7429 0.0
H2509 H 0.18772 0.34064 0.72468 0.0
H2510 H 0.17459 0.34888 0.70685 0.0
H2511 H 0.17286 0.32792 0.7133 0.0
C2512 C 0.13702 0.331 0.67976 0.0
C2513 C 0.13057 0.31533 0.6817 0.0
C2514 C 0.14173 0.33979 0.69574 0.0
C2515 C 0.14013 0.33301 0.71384 0.0
C2516 C 0.1333 0.31756 0.71581 0.0
H2517 H 0.16757 0.34928 0.82883 0.0
H2518 H 0.15385 0.34153 0.79955 0.0
C2519 C 0.12859 0.30878 0.69988 0.0
C2520 C 0.14606 0.34165 0.73079 0.0
H2521 H 0.18066 0.3541 0.75272 0.0
C2522 C 0.13496 0.34574 0.74503 0.0
C2523 C 0.16271 0.34489 0.73346 0.0
C2524 C 0.17523 0.34027 0.71887 0.0
C2525 C 0.1401 0.35286 0.76202 0.0
C2526 C 0.15681 0.35566 0.76491 0.0
C2527 C 0.16785 0.35197 0.75044 0.0
C2528 C 0.16336 0.36153 0.78315 0.0
C2529 C 0.12762 0.35732 0.77669 0.0
C2530 C 0.17327 0.37532 0.78365 0.0
C2531 C 0.18125 0.37966 0.80029 0.0
C2532 C 0.17949 0.37025 0.81672 0.0
C2533 C 0.16907 0.35681 0.81641 0.0
C2534 C 0.16115 0.35243 0.79972 0.0
H2535 H 0.11551 0.3592 0.77021 0.0
H2536 H 0.12655 0.3473 0.78707 0.0
H2537 H 0.13113 0.36849 0.78442 0.0
H2538 H 0.17519 0.38246 0.771 0.0
H2539 H 0.18919 0.3901 0.80012 0.0
H2540 H 0.70168 0.12031 0.70268 0.0
H2541 H 0.68725 0.13018 0.73061 0.0
H2542 H 0.65281 0.15462 0.69477 0.0
H2543 H 0.66715 0.14474 0.6667 0.0
H2544 H 0.66863 0.17401 0.72434 0.0
H2545 H 0.64146 0.11693 0.75139 0.0
H2546 H 0.66256 0.11605 0.74518 0.0
H2547 H 0.64772 0.11941 0.72708 0.0
C2548 C 0.69094 0.12765 0.70074 0.0
C2549 C 0.68554 0.13178 0.68253 0.0
C2550 C 0.68267 0.13319 0.7167 0.0
C2551 C 0.6689 0.14296 0.71469 0.0
C2552 C 0.66337 0.14698 0.69654 0.0
H2553 H 0.61407 0.20036 0.79562 0.0
H2554 H 0.62422 0.18739 0.7669 0.0
C2555 C 0.67156 0.14134 0.68056 0.0
C2556 C 0.66097 0.1499 0.73155 0.0
H2557 H 0.63988 0.13994 0.77136 0.0
C2558 C 0.66222 0.16662 0.73457 0.0
C2559 C 0.65279 0.14013 0.74488 0.0
C2560 C 0.6509 0.12213 0.742 0.0
C2561 C 0.6558 0.17385 0.75086 0.0
C2562 C 0.64752 0.16412 0.76419 0.0
C2563 C 0.64619 0.14737 0.76109 0.0
C2564 C 0.64043 0.17109 0.78161 0.0
C2565 C 0.65845 0.19176 0.7539 0.0
C2566 C 0.64561 0.1657 0.79943 0.0
C2567 C 0.63964 0.17292 0.81588 0.0
C2568 C 0.62843 0.18568 0.81474 0.0
C2569 C 0.62285 0.19068 0.79691 0.0
C2570 C 0.6287 0.18335 0.78049 0.0
H2571 H 0.66868 0.19641 0.74527 0.0
H2572 H 0.64738 0.19844 0.74964 0.0
H2573 H 0.66094 0.19447 0.769 0.0
H2574 H 0.65458 0.15618 0.80059 0.0
H2575 H 0.64411 0.1688 0.82945 0.0
H2576 H 0.83005 0.35624 0.1685 0.0
H2577 H 0.84356 0.34819 0.19793 0.0
H2578 H 0.80638 0.37228 0.23023 0.0
H2579 H 0.7927 0.38009 0.20101 0.0
H2580 H 0.85542 0.36659 0.22903 0.0
H2581 H 0.80517 0.3256 0.24987 0.0
H2582 H 0.80707 0.33374 0.22631 0.0
H2583 H 0.79898 0.34602 0.24504 0.0
C2584 C 0.82481 0.35986 0.18188 0.0
C2585 C 0.81023 0.36861 0.18249 0.0
C2586 C 0.83255 0.3553 0.19865 0.0
C2587 C 0.8258 0.35942 0.21621 0.0
C2588 C 0.8116 0.36871 0.21681 0.0
H2589 H 0.84772 0.33258 0.33197 0.0
H2590 H 0.83786 0.34683 0.30387 0.0
C2591 C 0.80383 0.37319 0.2001 0.0
C2592 C 0.83323 0.35355 0.23393 0.0
H2593 H 0.82586 0.32979 0.27243 0.0
C2594 C 0.849 0.35853 0.23853 0.0
C2595 C 0.8248 0.34301 0.24624 0.0
C2596 C 0.80813 0.33664 0.24159 0.0
C2597 C 0.85649 0.3534 0.25532 0.0
C2598 C 0.84801 0.3429 0.26762 0.0
C2599 C 0.83225 0.33798 0.26303 0.0
C2600 C 0.85544 0.33615 0.28492 0.0
C2601 C 0.8733 0.35937 0.25989 0.0
C2602 C 0.8687 0.32561 0.28356 0.0
C2603 C 0.87431 0.31744 0.29955 0.0
C2604 C 0.8667 0.31963 0.31713 0.0
C2605 C 0.85383 0.33068 0.3186 0.0
C2606 C 0.84819 0.33881 0.30259 0.0
H2607 H 0.87637 0.37048 0.25178 0.0
H2608 H 0.87454 0.36197 0.27522 0.0
H2609 H 0.88222 0.34985 0.25612 0.0
H2610 H 0.87425 0.32315 0.26999 0.0
H2611 H 0.88424 0.30897 0.29798 0.0
H2612 H 0.62767 0.78632 0.20091 0.0
H2613 H 0.63737 0.80013 0.22929 0.0
H2614 H 0.64453 0.84391 0.19711 0.0
H2615 H 0.63471 0.83018 0.1686 0.0
H2616 H 0.66825 0.81414 0.23334 0.0
H2617 H 0.61915 0.85918 0.24438 0.0
H2618 H 0.61667 0.8415 0.22961 0.0
H2619 H 0.62763 0.85877 0.22098 0.0
C2620 C 0.63117 0.79893 0.19989 0.0
C2621 C 0.63044 0.80718 0.18254 0.0
C2622 C 0.6367 0.80679 0.21611 0.0
C2623 C 0.64148 0.82307 0.21532 0.0
C2624 C 0.64062 0.83141 0.19807 0.0
H2625 H 0.70432 0.87364 0.29282 0.0
H2626 H 0.69067 0.86226 0.26518 0.0
C2627 C 0.63511 0.82354 0.18179 0.0
C2628 C 0.64833 0.83094 0.23232 0.0
H2629 H 0.64262 0.86194 0.26359 0.0
C2630 C 0.66263 0.82456 0.23999 0.0
C2631 C 0.64086 0.84443 0.24101 0.0
C2632 C 0.62515 0.85133 0.23372 0.0
C2633 C 0.66984 0.83149 0.25599 0.0
C2634 C 0.66262 0.84523 0.2644 0.0
C2635 C 0.64816 0.85146 0.25696 0.0
C2636 C 0.67008 0.85327 0.28088 0.0
C2637 C 0.68507 0.824 0.26389 0.0
C2638 C 0.66276 0.85233 0.29874 0.0
C2639 C 0.67054 0.8588 0.31459 0.0
C2640 C 0.6857 0.86638 0.31274 0.0
C2641 C 0.69268 0.86781 0.2947 0.0
C2642 C 0.68493 0.8613 0.27891 0.0
H2643 H 0.68718 0.81163 0.25824 0.0
H2644 H 0.69561 0.83165 0.26002 0.0
H2645 H 0.6845 0.82336 0.27956 0.0
H2646 H 0.65126 0.84618 0.30047 0.0
H2647 H 0.66486 0.85757 0.32832 0.0
H2648 H 0.11233 0.69743 0.29615 0.0
H2649 H 0.12051 0.68395 0.2669 0.0
H2650 H 0.15381 0.654 0.29829 0.0
H2651 H 0.14546 0.66724 0.32768 0.0
H2652 H 0.15125 0.68448 0.25254 0.0
H2653 H 0.13154 0.62107 0.26421 0.0
H2654 H 0.12419 0.63773 0.27835 0.0
H2655 H 0.14375 0.62903 0.28304 0.0
C2656 C 0.12121 0.6878 0.29686 0.0
C2657 C 0.12828 0.68338 0.31418 0.0
C2658 C 0.12586 0.68012 0.28015 0.0
C2659 C 0.13762 0.66786 0.28046 0.0
C2660 C 0.14445 0.66318 0.29779 0.0
H2661 H 0.19724 0.61934 0.1988 0.0
H2662 H 0.18301 0.62889 0.22699 0.0
C2663 C 0.13976 0.67083 0.31455 0.0
C2664 C 0.14373 0.661 0.26249 0.0
H2665 H 0.14981 0.62562 0.23854 0.0
C2666 C 0.15076 0.67163 0.24937 0.0
C2667 C 0.14313 0.64424 0.25846 0.0
C2668 C 0.13511 0.63236 0.27167 0.0
C2669 C 0.15765 0.66591 0.23254 0.0
C2670 C 0.15725 0.64912 0.22862 0.0
C2671 C 0.15005 0.63849 0.24161 0.0
C2672 C 0.16492 0.64238 0.21146 0.0
C2673 C 0.16578 0.67779 0.2194 0.0
C2674 C 0.15921 0.64652 0.19342 0.0
C2675 C 0.16733 0.64112 0.17728 0.0
C2676 C 0.18125 0.63144 0.17897 0.0
C2677 C 0.18659 0.62684 0.19706 0.0
C2678 C 0.17846 0.63224 0.21317 0.0
H2679 H 0.16804 0.68965 0.22635 0.0
H2680 H 0.17749 0.67291 0.21421 0.0
H2681 H 0.15787 0.67993 0.20697 0.0
H2682 H 0.14862 0.65414 0.19185 0.0
H2683 H 0.1629 0.64477 0.16351 0.0
H2684 H 0.29186 0.11927 0.29292 0.0
H2685 H 0.30606 0.12784 0.26433 0.0
H2686 H 0.3448 0.14729 0.29837 0.0
H2687 H 0.33079 0.13843 0.32708 0.0
H2688 H 0.31339 0.15898 0.2553 0.0
H2689 H 0.36956 0.1222 0.25819 0.0
H2690 H 0.352 0.1177 0.27247 0.0
H2691 H 0.3657 0.13357 0.27935 0.0
C2692 C 0.3035 0.12519 0.29432 0.0
C2693 C 0.31022 0.1282 0.31222 0.0
C2694 C 0.3116 0.13006 0.27797 0.0
C2695 C 0.32657 0.13801 0.27921 0.0
C2696 C 0.33343 0.14084 0.29707 0.0
H2697 H 0.38349 0.19388 0.20065 0.0
H2698 H 0.37296 0.17929 0.22817 0.0
C2699 C 0.32536 0.13589 0.31345 0.0
C2700 C 0.33429 0.14444 0.26189 0.0
H2701 H 0.36899 0.14368 0.2356 0.0
C2702 C 0.32549 0.15552 0.2509 0.0
C2703 C 0.3501 0.13994 0.25625 0.0
C2704 C 0.35985 0.12758 0.26707 0.0
C2705 C 0.33216 0.16244 0.2346 0.0
C2706 C 0.34798 0.15804 0.22904 0.0
C2707 C 0.35683 0.14696 0.23995 0.0
C2708 C 0.3556 0.16528 0.21216 0.0
C2709 C 0.32238 0.17472 0.22365 0.0
C2710 C 0.3496 0.16184 0.19406 0.0
C2711 C 0.35559 0.17012 0.17833 0.0
C2712 C 0.36764 0.18198 0.18051 0.0
C2713 C 0.37414 0.18486 0.19857 0.0
C2714 C 0.36818 0.17652 0.21428 0.0
H2715 H 0.31164 0.17897 0.2317 0.0
H2716 H 0.32995 0.18537 0.21994 0.0
H2717 H 0.31808 0.16915 0.21029 0.0
H2718 H 0.33996 0.15308 0.1922 0.0
H2719 H 0.3504 0.16761 0.16457 0.0
loop_
_geom_bond_atom_site_label_1
_geom_bond_atom_site_label_2
_geom_bond_distance
_geom_bond_site_symmetry_2
_ccdc_geom_bond_type
In0 O1 2.294 . S
In0 O2 2.326 . S
In0 O6 2.266 . S
In0 O7 2.326 . S
In0 O8 2.266 . S
In0 O9 2.326 . S
In0 O11 2.294 . S
In0 O12 2.326 . S
O1 In0 2.294 . S
O1 C10 1.240 . S
O2 In0 2.326 . S
O2 C10 1.252 . S
C3 O6 1.252 . S
C3 O7 1.260 . S
C4 O11 1.240 . S
C4 O12 1.252 . S
C5 O8 1.252 . S
C5 O9 1.260 . S
O6 In0 2.266 . S
O6 C3 1.252 . S
O7 In0 2.326 . S
O7 C3 1.260 . S
O8 In0 2.266 . S
O8 C5 1.252 . S
O9 In0 2.326 . S
O9 C5 1.260 . S
C10 O1 1.240 . S
C10 O2 1.252 . S
O11 In0 2.294 . S
O11 C4 1.240 . S
O12 In0 2.326 . S
O12 C4 1.252 . S
In13 O14 2.294 . S
In13 O15 2.326 . S
In13 O19 2.266 . S
In13 O20 2.326 . S
In13 O21 2.266 . S
In13 O22 2.326 . S
In13 O24 2.294 . S
In13 O25 2.326 . S
O14 In13 2.294 . S
O14 C23 1.240 . S
O15 In13 2.326 . S
O15 C23 1.252 . S
C16 O19 1.252 . S
C16 O20 1.260 . S
C17 O24 1.240 . S
C17 O25 1.252 . S
C18 O21 1.252 . S
C18 O22 1.260 . S
O19 In13 2.266 . S
O19 C16 1.252 . S
O20 In13 2.326 . S
O20 C16 1.260 . S
O21 In13 2.266 . S
O21 C18 1.252 . S
O22 In13 2.326 . S
O22 C18 1.260 . S
C23 O14 1.240 . S
C23 O15 1.252 . S
O24 In13 2.294 . S
O24 C17 1.240 . S
O25 In13 2.326 . S
O25 C17 1.252 . S
In26 O27 2.294 . S
In26 O28 2.326 . S
In26 O32 2.266 . S
In26 O33 2.326 . S
In26 O34 2.266 . S
In26 O35 2.326 . S
In26 O37 2.294 . S
In26 O38 2.326 . S
O27 In26 2.294 . S
O27 C36 1.240 . S
O28 In26 2.326 . S
O28 C36 1.252 . S
C29 O32 1.252 . S
C29 O33 1.260 . S
C30 O37 1.240 . S
C30 O38 1.252 . S
C31 O34 1.252 . S
C31 O35 1.260 . S
O32 In26 2.266 . S
O32 C29 1.252 . S
O33 In26 2.326 . S
O33 C29 1.260 . S
O34 In26 2.266 . S
O34 C31 1.252 . S
O35 In26 2.326 . S
O35 C31 1.260 . S
C36 O27 1.240 . S
C36 O28 1.252 . S
O37 In26 2.294 . S
O37 C30 1.240 . S
O38 In26 2.326 . S
O38 C30 1.252 . S
In39 O40 2.294 . S
In39 O41 2.326 . S
In39 O45 2.266 . S
In39 O46 2.326 . S
In39 O47 2.266 . S
In39 O48 2.326 . S
In39 O50 2.294 . S
In39 O51 2.326 . S
O40 In39 2.294 . S
O40 C49 1.240 . S
O41 In39 2.326 . S
O41 C49 1.252 . S
C42 O45 1.252 . S
C42 O46 1.260 . S
C43 O50 1.240 . S
C43 O51 1.252 . S
C44 O47 1.252 . S
C44 O48 1.260 . S
O45 In39 2.266 . S
O45 C42 1.252 . S
O46 In39 2.326 . S
O46 C42 1.260 . S
O47 In39 2.266 . S
O47 C44 1.252 . S
O48 In39 2.326 . S
O48 C44 1.260 . S
C49 O40 1.240 . S
C49 O41 1.252 . S
O50 In39 2.294 . S
O50 C43 1.240 . S
O51 In39 2.326 . S
O51 C43 1.252 . S
In52 O53 2.294 . S
In52 O54 2.326 . S
In52 O58 2.266 . S
In52 O59 2.326 . S
In52 O60 2.266 . S
In52 O61 2.326 . S
In52 O63 2.294 . S
In52 O64 2.326 . S
O53 In52 2.294 . S
O53 C62 1.240 . S
O54 In52 2.326 . S
O54 C62 1.252 . S
C55 O58 1.252 . S
C55 O59 1.260 . S
C56 O63 1.240 . S
C56 O64 1.252 . S
C57 O60 1.252 . S
C57 O61 1.260 . S
O58 In52 2.266 . S
O58 C55 1.252 . S
O59 In52 2.326 . S
O59 C55 1.260 . S
O60 In52 2.266 . S
O60 C57 1.252 . S
O61 In52 2.326 . S
O61 C57 1.260 . S
C62 O53 1.240 . S
C62 O54 1.252 . S
O63 In52 2.294 . S
O63 C56 1.240 . S
O64 In52 2.326 . S
O64 C56 1.252 . S
In65 O66 2.294 . S
In65 O67 2.326 . S
In65 O71 2.266 . S
In65 O72 2.326 . S
In65 O73 2.266 . S
In65 O74 2.326 . S
In65 O76 2.294 . S
In65 O77 2.326 . S
O66 In65 2.294 . S
O66 C75 1.240 . S
O67 In65 2.326 . S
O67 C75 1.252 . S
C68 O71 1.252 . S
C68 O72 1.260 . S
C69 O76 1.240 . S
C69 O77 1.252 . S
C70 O73 1.252 . S
C70 O74 1.260 . S
O71 In65 2.266 . S
O71 C68 1.252 . S
O72 In65 2.326 . S
O72 C68 1.260 . S
O73 In65 2.266 . S
O73 C70 1.252 . S
O74 In65 2.326 . S
O74 C70 1.260 . S
C75 O66 1.240 . S
C75 O67 1.252 . S
O76 In65 2.294 . S
O76 C69 1.240 . S
O77 In65 2.326 . S
O77 C69 1.252 . S
In78 O79 2.294 . S
In78 O80 2.326 . S
In78 O84 2.266 . S
In78 O85 2.326 . S
In78 O86 2.266 . S
In78 O87 2.326 . S
In78 O89 2.294 . S
In78 O90 2.326 . S
O79 In78 2.294 . S
O79 C88 1.240 . S
O80 In78 2.326 . S
O80 C88 1.252 . S
C81 O84 1.252 . S
C81 O85 1.260 . S
C82 O89 1.240 . S
C82 O90 1.252 . S
C83 O86 1.252 . S
C83 O87 1.260 . S
O84 In78 2.266 . S
O84 C81 1.252 . S
O85 In78 2.326 . S
O85 C81 1.260 . S
O86 In78 2.266 . S
O86 C83 1.252 . S
O87 In78 2.326 . S
O87 C83 1.260 . S
C88 O79 1.240 . S
C88 O80 1.252 . S
O89 In78 2.294 . S
O89 C82 1.240 . S
O90 In78 2.326 . S
O90 C82 1.252 . S
In91 O92 2.294 . S
In91 O93 2.326 . S
In91 O97 2.266 . S
In91 O98 2.326 . S
In91 O99 2.266 . S
In91 O100 2.326 . S
In91 O102 2.294 . S
In91 O103 2.326 . S
O92 In91 2.294 . S
O92 C101 1.240 . S
O93 In91 2.326 . S
O93 C101 1.252 . S
C94 O97 1.252 . S
C94 O98 1.260 . S
C95 O102 1.240 . S
C95 O103 1.252 . S
C96 O99 1.252 . S
C96 O100 1.260 . S
O97 In91 2.266 . S
O97 C94 1.252 . S
O98 In91 2.326 . S
O98 C94 1.260 . S
O99 In91 2.266 . S
O99 C96 1.252 . S
O100 In91 2.326 . S
O100 C96 1.260 . S
C101 O92 1.240 . S
C101 O93 1.252 . S
O102 In91 2.294 . S
O102 C95 1.240 . S
O103 In91 2.326 . S
O103 C95 1.252 . S
In104 O105 2.294 . S
In104 O106 2.326 . S
In104 O110 2.266 . S
In104 O111 2.326 . S
In104 O112 2.266 . S
In104 O113 2.326 . S
In104 O115 2.294 . S
In104 O116 2.326 . S
O105 In104 2.294 . S
O105 C114 1.240 . S
O106 In104 2.326 . S
O106 C114 1.252 . S
C107 O110 1.252 . S
C107 O111 1.260 . S
C108 O115 1.240 . S
C108 O116 1.252 . S
C109 O112 1.252 . S
C109 O113 1.260 . S
O110 In104 2.266 . S
O110 C107 1.252 . S
O111 In104 2.326 . S
O111 C107 1.260 . S
O112 In104 2.266 . S
O112 C109 1.252 . S
O113 In104 2.326 . S
O113 C109 1.260 . S
C114 O105 1.240 . S
C114 O106 1.252 . S
O115 In104 2.294 . S
O115 C108 1.240 . S
O116 In104 2.326 . S
O116 C108 1.252 . S
In117 O118 2.294 . S
In117 O119 2.326 . S
In117 O123 2.266 . S
In117 O124 2.326 . S
In117 O125 2.266 . S
In117 O126 2.326 . S
In117 O128 2.294 . S
In117 O129 2.326 . S
O118 In117 2.294 . S
O118 C127 1.240 . S
O119 In117 2.326 . S
O119 C127 1.252 . S
C120 O123 1.252 . S
C120 O124 1.260 . S
C121 O128 1.240 . S
C121 O129 1.252 . S
C122 O125 1.252 . S
C122 O126 1.260 . S
O123 In117 2.266 . S
O123 C120 1.252 . S
O124 In117 2.326 . S
O124 C120 1.260 . S
O125 In117 2.266 . S
O125 C122 1.252 . S
O126 In117 2.326 . S
O126 C122 1.260 . S
C127 O118 1.240 . S
C127 O119 1.252 . S
O128 In117 2.294 . S
O128 C121 1.240 . S
O129 In117 2.326 . S
O129 C121 1.252 . S
In130 O131 2.294 . S
In130 O132 2.326 . S
In130 O136 2.266 . S
In130 O137 2.326 . S
In130 O138 2.266 . S
In130 O139 2.326 . S
In130 O141 2.294 . S
In130 O142 2.326 . S
O131 In130 2.294 . S
O131 C140 1.240 . S
O132 In130 2.326 . S
O132 C140 1.252 . S
C133 O136 1.252 . S
C133 O137 1.260 . S
C134 O141 1.240 . S
C134 O142 1.252 . S
C135 O138 1.252 . S
C135 O139 1.260 . S
O136 In130 2.266 . S
O136 C133 1.252 . S
O137 In130 2.326 . S
O137 C133 1.260 . S
O138 In130 2.266 . S
O138 C135 1.252 . S
O139 In130 2.326 . S
O139 C135 1.260 . S
C140 O131 1.240 . S
C140 O132 1.252 . S
O141 In130 2.294 . S
O141 C134 1.240 . S
O142 In130 2.326 . S
O142 C134 1.252 . S
In143 O144 2.294 . S
In143 O145 2.326 . S
In143 O149 2.266 . S
In143 O150 2.326 . S
In143 O151 2.266 . S
In143 O152 2.326 . S
In143 O154 2.294 . S
In143 O155 2.326 . S
O144 In143 2.294 . S
O144 C153 1.240 . S
O145 In143 2.326 . S
O145 C153 1.252 . S
C146 O149 1.252 . S
C146 O150 1.260 . S
C147 O154 1.240 . S
C147 O155 1.252 . S
C148 O151 1.252 . S
C148 O152 1.260 . S
O149 In143 2.266 . S
O149 C146 1.252 . S
O150 In143 2.326 . S
O150 C146 1.260 . S
O151 In143 2.266 . S
O151 C148 1.252 . S
O152 In143 2.326 . S
O152 C148 1.260 . S
C153 O144 1.240 . S
C153 O145 1.252 . S
O154 In143 2.294 . S
O154 C147 1.240 . S
O155 In143 2.326 . S
O155 C147 1.252 . S
In156 O157 2.294 . S
In156 O158 2.326 . S
In156 O162 2.266 . S
In156 O163 2.326 . S
In156 O164 2.266 . S
In156 O165 2.326 . S
In156 O167 2.294 . S
In156 O168 2.326 . S
O157 In156 2.294 . S
O157 C166 1.240 . S
O158 In156 2.326 . S
O158 C166 1.252 . S
C159 O162 1.252 . S
C159 O163 1.260 . S
C160 O167 1.240 . S
C160 O168 1.252 . S
C161 O164 1.252 . S
C161 O165 1.260 . S
O162 In156 2.266 . S
O162 C159 1.252 . S
O163 In156 2.326 . S
O163 C159 1.260 . S
O164 In156 2.266 . S
O164 C161 1.252 . S
O165 In156 2.326 . S
O165 C161 1.260 . S
C166 O157 1.240 . S
C166 O158 1.252 . S
O167 In156 2.294 . S
O167 C160 1.240 . S
O168 In156 2.326 . S
O168 C160 1.252 . S
In169 O170 2.294 . S
In169 O171 2.326 . S
In169 O175 2.266 . S
In169 O176 2.326 . S
In169 O177 2.266 . S
In169 O178 2.326 . S
In169 O180 2.294 . S
In169 O181 2.326 . S
O170 In169 2.294 . S
O170 C179 1.240 . S
O171 In169 2.326 . S
O171 C179 1.252 . S
C172 O175 1.252 . S
C172 O176 1.260 . S
C173 O180 1.240 . S
C173 O181 1.252 . S
C174 O177 1.252 . S
C174 O178 1.260 . S
O175 In169 2.266 . S
O175 C172 1.252 . S
O176 In169 2.326 . S
O176 C172 1.260 . S
O177 In169 2.266 . S
O177 C174 1.252 . S
O178 In169 2.326 . S
O178 C174 1.260 . S
C179 O170 1.240 . S
C179 O171 1.252 . S
O180 In169 2.294 . S
O180 C173 1.240 . S
O181 In169 2.326 . S
O181 C173 1.252 . S
In182 O183 2.294 . S
In182 O184 2.326 . S
In182 O188 2.266 . S
In182 O189 2.326 . S
In182 O190 2.266 . S
In182 O191 2.326 . S
In182 O193 2.294 . S
In182 O194 2.326 . S
O183 In182 2.294 . S
O183 C192 1.240 . S
O184 In182 2.326 . S
O184 C192 1.252 . S
C185 O188 1.252 . S
C185 O189 1.260 . S
C186 O193 1.240 . S
C186 O194 1.252 . S
C187 O190 1.252 . S
C187 O191 1.260 . S
O188 In182 2.266 . S
O188 C185 1.252 . S
O189 In182 2.326 . S
O189 C185 1.260 . S
O190 In182 2.266 . S
O190 C187 1.252 . S
O191 In182 2.326 . S
O191 C187 1.260 . S
C192 O183 1.240 . S
C192 O184 1.252 . S
O193 In182 2.294 . S
O193 C186 1.240 . S
O194 In182 2.326 . S
O194 C186 1.252 . S
In195 O196 2.294 . S
In195 O197 2.326 . S
In195 O201 2.266 . S
In195 O202 2.326 . S
In195 O203 2.266 . S
In195 O204 2.326 . S
In195 O206 2.294 . S
In195 O207 2.326 . S
O196 In195 2.294 . S
O196 C205 1.240 . S
O197 In195 2.326 . S
O197 C205 1.252 . S
C198 O201 1.252 . S
C198 O202 1.260 . S
C199 O206 1.240 . S
C199 O207 1.252 . S
C200 O203 1.252 . S
C200 O204 1.260 . S
O201 In195 2.266 . S
O201 C198 1.252 . S
O202 In195 2.326 . S
O202 C198 1.260 . S
O203 In195 2.266 . S
O203 C200 1.252 . S
O204 In195 2.326 . S
O204 C200 1.260 . S
C205 O196 1.240 . S
C205 O197 1.252 . S
O206 In195 2.294 . S
O206 C199 1.240 . S
O207 In195 2.326 . S
O207 C199 1.252 . S
In208 O209 2.294 . S
In208 O210 2.326 . S
In208 O214 2.266 . S
In208 O215 2.326 . S
In208 O216 2.266 . S
In208 O217 2.326 . S
In208 O219 2.294 . S
In208 O220 2.326 . S
O209 In208 2.294 . S
O209 C218 1.240 . S
O210 In208 2.326 . S
O210 C218 1.252 . S
C211 O214 1.252 . S
C211 O215 1.260 . S
C212 O219 1.240 . S
C212 O220 1.252 . S
C213 O216 1.252 . S
C213 O217 1.260 . S
O214 In208 2.266 . S
O214 C211 1.252 . S
O215 In208 2.326 . S
O215 C211 1.260 . S
O216 In208 2.266 . S
O216 C213 1.252 . S
O217 In208 2.326 . S
O217 C213 1.260 . S
C218 O209 1.240 . S
C218 O210 1.252 . S
O219 In208 2.294 . S
O219 C212 1.240 . S
O220 In208 2.326 . S
O220 C212 1.252 . S
In221 O222 2.294 . S
In221 O223 2.326 . S
In221 O227 2.266 . S
In221 O228 2.326 . S
In221 O229 2.266 . S
In221 O230 2.326 . S
In221 O232 2.294 . S
In221 O233 2.326 . S
O222 In221 2.294 . S
O222 C231 1.240 . S
O223 In221 2.326 . S
O223 C231 1.252 . S
C224 O227 1.252 . S
C224 O228 1.260 . S
C225 O232 1.240 . S
C225 O233 1.252 . S
C226 O229 1.252 . S
C226 O230 1.260 . S
O227 In221 2.266 . S
O227 C224 1.252 . S
O228 In221 2.326 . S
O228 C224 1.260 . S
O229 In221 2.266 . S
O229 C226 1.252 . S
O230 In221 2.326 . S
O230 C226 1.260 . S
C231 O222 1.240 . S
C231 O223 1.252 . S
O232 In221 2.294 . S
O232 C225 1.240 . S
O233 In221 2.326 . S
O233 C225 1.252 . S
In234 O235 2.294 . S
In234 O236 2.326 . S
In234 O240 2.266 . S
In234 O241 2.326 . S
In234 O242 2.266 . S
In234 O243 2.326 . S
In234 O245 2.294 . S
In234 O246 2.326 . S
O235 In234 2.294 . S
O235 C244 1.240 . S
O236 In234 2.326 . S
O236 C244 1.252 . S
C237 O240 1.252 . S
C237 O241 1.260 . S
C238 O245 1.240 . S
C238 O246 1.252 . S
C239 O242 1.252 . S
C239 O243 1.260 . S
O240 In234 2.266 . S
O240 C237 1.252 . S
O241 In234 2.326 . S
O241 C237 1.260 . S
O242 In234 2.266 . S
O242 C239 1.252 . S
O243 In234 2.326 . S
O243 C239 1.260 . S
C244 O235 1.240 . S
C244 O236 1.252 . S
O245 In234 2.294 . S
O245 C238 1.240 . S
O246 In234 2.326 . S
O246 C238 1.252 . S
In247 O248 2.294 . S
In247 O249 2.326 . S
In247 O253 2.266 . S
In247 O254 2.326 . S
In247 O255 2.266 . S
In247 O256 2.326 . S
In247 O258 2.294 . S
In247 O259 2.326 . S
O248 In247 2.294 . S
O248 C257 1.240 . S
O249 In247 2.326 . S
O249 C257 1.252 . S
C250 O253 1.252 . S
C250 O254 1.260 . S
C251 O258 1.240 . S
C251 O259 1.252 . S
C252 O255 1.252 . S
C252 O256 1.260 . S
O253 In247 2.266 . S
O253 C250 1.252 . S
O254 In247 2.326 . S
O254 C250 1.260 . S
O255 In247 2.266 . S
O255 C252 1.252 . S
O256 In247 2.326 . S
O256 C252 1.260 . S
C257 O248 1.240 . S
C257 O249 1.252 . S
O258 In247 2.294 . S
O258 C251 1.240 . S
O259 In247 2.326 . S
O259 C251 1.252 . S
In260 O261 2.294 . S
In260 O262 2.326 . S
In260 O266 2.266 . S
In260 O267 2.326 . S
In260 O268 2.266 . S
In260 O269 2.326 . S
In260 O271 2.294 . S
In260 O272 2.326 . S
O261 In260 2.294 . S
O261 C270 1.240 . S
O262 In260 2.326 . S
O262 C270 1.252 . S
C263 O266 1.252 . S
C263 O267 1.260 . S
C264 O271 1.240 . S
C264 O272 1.252 . S
C265 O268 1.252 . S
C265 O269 1.260 . S
O266 In260 2.266 . S
O266 C263 1.252 . S
O267 In260 2.326 . S
O267 C263 1.260 . S
O268 In260 2.266 . S
O268 C265 1.252 . S
O269 In260 2.326 . S
O269 C265 1.260 . S
C270 O261 1.240 . S
C270 O262 1.252 . S
O271 In260 2.294 . S
O271 C264 1.240 . S
O272 In260 2.326 . S
O272 C264 1.252 . S
In273 O274 2.294 . S
In273 O275 2.326 . S
In273 O279 2.266 . S
In273 O280 2.326 . S
In273 O281 2.266 . S
In273 O282 2.326 . S
In273 O284 2.294 . S
In273 O285 2.326 . S
O274 In273 2.294 . S
O274 C283 1.240 . S
O275 In273 2.326 . S
O275 C283 1.252 . S
C276 O279 1.252 . S
C276 O280 1.260 . S
C277 O284 1.240 . S
C277 O285 1.252 . S
C278 O281 1.252 . S
C278 O282 1.260 . S
O279 In273 2.266 . S
O279 C276 1.252 . S
O280 In273 2.326 . S
O280 C276 1.260 . S
O281 In273 2.266 . S
O281 C278 1.252 . S
O282 In273 2.326 . S
O282 C278 1.260 . S
C283 O274 1.240 . S
C283 O275 1.252 . S
O284 In273 2.294 . S
O284 C277 1.240 . S
O285 In273 2.326 . S
O285 C277 1.252 . S
In286 O287 2.294 . S
In286 O288 2.326 . S
In286 O292 2.266 . S
In286 O293 2.326 . S
In286 O294 2.266 . S
In286 O295 2.326 . S
In286 O297 2.294 . S
In286 O298 2.326 . S
O287 In286 2.294 . S
O287 C296 1.240 . S
O288 In286 2.326 . S
O288 C296 1.252 . S
C289 O292 1.252 . S
C289 O293 1.260 . S
C290 O297 1.240 . S
C290 O298 1.252 . S
C291 O294 1.252 . S
C291 O295 1.260 . S
O292 In286 2.266 . S
O292 C289 1.252 . S
O293 In286 2.326 . S
O293 C289 1.260 . S
O294 In286 2.266 . S
O294 C291 1.252 . S
O295 In286 2.326 . S
O295 C291 1.260 . S
C296 O287 1.240 . S
C296 O288 1.252 . S
O297 In286 2.294 . S
O297 C290 1.240 . S
O298 In286 2.326 . S
O298 C290 1.252 . S
In299 O300 2.294 . S
In299 O301 2.326 . S
In299 O305 2.266 . S
In299 O306 2.326 . S
In299 O307 2.266 . S
In299 O308 2.326 . S
In299 O310 2.294 . S
In299 O311 2.326 . S
O300 In299 2.294 . S
O300 C309 1.240 . S
O301 In299 2.326 . S
O301 C309 1.252 . S
C302 O305 1.252 . S
C302 O306 1.260 . S
C303 O310 1.240 . S
C303 O311 1.252 . S
C304 O307 1.252 . S
C304 O308 1.260 . S
O305 In299 2.266 . S
O305 C302 1.252 . S
O306 In299 2.326 . S
O306 C302 1.260 . S
O307 In299 2.266 . S
O307 C304 1.252 . S
O308 In299 2.326 . S
O308 C304 1.260 . S
C309 O300 1.240 . S
C309 O301 1.252 . S
O310 In299 2.294 . S
O310 C303 1.240 . S
O311 In299 2.326 . S
O311 C303 1.252 . S
In312 O313 2.294 . S
In312 O314 2.326 . S
In312 O318 2.266 . S
In312 O319 2.326 . S
In312 O320 2.266 . S
In312 O321 2.326 . S
In312 O323 2.294 . S
In312 O324 2.326 . S
O313 In312 2.294 . S
O313 C322 1.240 . S
O314 In312 2.326 . S
O314 C322 1.252 . S
C315 O318 1.252 . S
C315 O319 1.260 . S
C316 O323 1.240 . S
C316 O324 1.252 . S
C317 O320 1.252 . S
C317 O321 1.260 . S
O318 In312 2.266 . S
O318 C315 1.252 . S
O319 In312 2.326 . S
O319 C315 1.260 . S
O320 In312 2.266 . S
O320 C317 1.252 . S
O321 In312 2.326 . S
O321 C317 1.260 . S
C322 O313 1.240 . S
C322 O314 1.252 . S
O323 In312 2.294 . S
O323 C316 1.240 . S
O324 In312 2.326 . S
O324 C316 1.252 . S
In325 O326 2.294 . S
In325 O327 2.326 . S
In325 O331 2.266 . S
In325 O332 2.326 . S
In325 O333 2.266 . S
In325 O334 2.326 . S
In325 O336 2.294 . S
In325 O337 2.326 . S
O326 In325 2.294 . S
O326 C335 1.240 . S
O327 In325 2.326 . S
O327 C335 1.252 . S
C328 O331 1.252 . S
C328 O332 1.260 . S
C329 O336 1.240 . S
C329 O337 1.252 . S
C330 O333 1.252 . S
C330 O334 1.260 . S
O331 In325 2.266 . S
O331 C328 1.252 . S
O332 In325 2.326 . S
O332 C328 1.260 . S
O333 In325 2.266 . S
O333 C330 1.252 . S
O334 In325 2.326 . S
O334 C330 1.260 . S
C335 O326 1.240 . S
C335 O327 1.252 . S
O336 In325 2.294 . S
O336 C329 1.240 . S
O337 In325 2.326 . S
O337 C329 1.252 . S
In338 O339 2.294 . S
In338 O340 2.326 . S
In338 O344 2.266 . S
In338 O345 2.326 . S
In338 O346 2.266 . S
In338 O347 2.326 . S
In338 O349 2.294 . S
In338 O350 2.326 . S
O339 In338 2.294 . S
O339 C348 1.240 . S
O340 In338 2.326 . S
O340 C348 1.252 . S
C341 O344 1.252 . S
C341 O345 1.260 . S
C342 O349 1.240 . S
C342 O350 1.252 . S
C343 O346 1.252 . S
C343 O347 1.260 . S
O344 In338 2.266 . S
O344 C341 1.252 . S
O345 In338 2.326 . S
O345 C341 1.260 . S
O346 In338 2.266 . S
O346 C343 1.252 . S
O347 In338 2.326 . S
O347 C343 1.260 . S
C348 O339 1.240 . S
C348 O340 1.252 . S
O349 In338 2.294 . S
O349 C342 1.240 . S
O350 In338 2.326 . S
O350 C342 1.252 . S
In351 O352 2.294 . S
In351 O353 2.326 . S
In351 O357 2.266 . S
In351 O358 2.326 . S
In351 O359 2.266 . S
In351 O360 2.326 . S
In351 O362 2.294 . S
In351 O363 2.326 . S
O352 In351 2.294 . S
O352 C361 1.240 . S
O353 In351 2.326 . S
O353 C361 1.252 . S
C354 O357 1.252 . S
C354 O358 1.260 . S
C355 O362 1.240 . S
C355 O363 1.252 . S
C356 O359 1.252 . S
C356 O360 1.260 . S
O357 In351 2.266 . S
O357 C354 1.252 . S
O358 In351 2.326 . S
O358 C354 1.260 . S
O359 In351 2.266 . S
O359 C356 1.252 . S
O360 In351 2.326 . S
O360 C356 1.260 . S
C361 O352 1.240 . S
C361 O353 1.252 . S
O362 In351 2.294 . S
O362 C355 1.240 . S
O363 In351 2.326 . S
O363 C355 1.252 . S
In364 O365 2.294 . S
In364 O366 2.326 . S
In364 O370 2.266 . S
In364 O371 2.326 . S
In364 O372 2.266 . S
In364 O373 2.326 . S
In364 O375 2.294 . S
In364 O376 2.326 . S
O365 In364 2.294 . S
O365 C374 1.240 . S
O366 In364 2.326 . S
O366 C374 1.252 . S
C367 O370 1.252 . S
C367 O371 1.260 . S
C368 O375 1.240 . S
C368 O376 1.252 . S
C369 O372 1.252 . S
C369 O373 1.260 . S
O370 In364 2.266 . S
O370 C367 1.252 . S
O371 In364 2.326 . S
O371 C367 1.260 . S
O372 In364 2.266 . S
O372 C369 1.252 . S
O373 In364 2.326 . S
O373 C369 1.260 . S
C374 O365 1.240 . S
C374 O366 1.252 . S
O375 In364 2.294 . S
O375 C368 1.240 . S
O376 In364 2.326 . S
O376 C368 1.252 . S
In377 O378 2.294 . S
In377 O379 2.326 . S
In377 O383 2.266 . S
In377 O384 2.326 . S
In377 O385 2.266 . S
In377 O386 2.326 . S
In377 O388 2.294 . S
In377 O389 2.326 . S
O378 In377 2.294 . S
O378 C387 1.240 . S
O379 In377 2.326 . S
O379 C387 1.252 . S
C380 O383 1.252 . S
C380 O384 1.260 . S
C381 O388 1.240 . S
C381 O389 1.252 . S
C382 O385 1.252 . S
C382 O386 1.260 . S
O383 In377 2.266 . S
O383 C380 1.252 . S
O384 In377 2.326 . S
O384 C380 1.260 . S
O385 In377 2.266 . S
O385 C382 1.252 . S
O386 In377 2.326 . S
O386 C382 1.260 . S
C387 O378 1.240 . S
C387 O379 1.252 . S
O388 In377 2.294 . S
O388 C381 1.240 . S
O389 In377 2.326 . S
O389 C381 1.252 . S
In390 O391 2.294 . S
In390 O392 2.326 . S
In390 O396 2.266 . S
In390 O397 2.326 . S
In390 O398 2.266 . S
In390 O399 2.326 . S
In390 O401 2.294 . S
In390 O402 2.326 . S
O391 In390 2.294 . S
O391 C400 1.240 . S
O392 In390 2.326 . S
O392 C400 1.252 . S
C393 O396 1.252 . S
C393 O397 1.260 . S
C394 O401 1.240 . S
C394 O402 1.252 . S
C395 O398 1.252 . S
C395 O399 1.260 . S
O396 In390 2.266 . S
O396 C393 1.252 . S
O397 In390 2.326 . S
O397 C393 1.260 . S
O398 In390 2.266 . S
O398 C395 1.252 . S
O399 In390 2.326 . S
O399 C395 1.260 . S
C400 O391 1.240 . S
C400 O392 1.252 . S
O401 In390 2.294 . S
O401 C394 1.240 . S
O402 In390 2.326 . S
O402 C394 1.252 . S
In403 O404 2.294 . S
In403 O405 2.326 . S
In403 O409 2.266 . S
In403 O410 2.326 . S
In403 O411 2.266 . S
In403 O412 2.326 . S
In403 O414 2.294 . S
In403 O415 2.326 . S
O404 In403 2.294 . S
O404 C413 1.240 . S
O405 In403 2.326 . S
O405 C413 1.252 . S
C406 O409 1.252 . S
C406 O410 1.260 . S
C407 O414 1.240 . S
C407 O415 1.252 . S
C408 O411 1.252 . S
C408 O412 1.260 . S
O409 In403 2.266 . S
O409 C406 1.252 . S
O410 In403 2.326 . S
O410 C406 1.260 . S
O411 In403 2.266 . S
O411 C408 1.252 . S
O412 In403 2.326 . S
O412 C408 1.260 . S
C413 O404 1.240 . S
C413 O405 1.252 . S
O414 In403 2.294 . S
O414 C407 1.240 . S
O415 In403 2.326 . S
O415 C407 1.252 . S
H416 C424 0.929 . S
H417 C426 0.930 . S
H418 C428 0.930 . S
H419 C431 0.929 . S
H420 C434 0.930 . S
H421 C436 0.960 . S
H422 C436 0.960 . S
H423 C436 0.960 . S
C424 H416 0.929 . S
C424 C425 1.377 . S
C424 C426 1.384 . S
C425 C424 1.377 . S
C425 C431 1.390 . S
C426 H417 0.930 . S
C426 C424 1.384 . S
C426 C427 1.372 . S
C427 C426 1.372 . S
C427 C428 1.400 . S
C427 C432 1.490 . S
C428 H418 0.930 . S
C428 C427 1.400 . S
C428 C431 1.386 . S
H429 C445 0.930 . S
H430 C446 0.931 . S
C431 H419 0.929 . S
C431 C425 1.390 . S
C431 C428 1.386 . S
C432 C427 1.490 . S
C432 C434 1.395 . S
C432 C435 1.403 . S
H433 C439 0.930 . S
C434 H420 0.930 . S
C434 C432 1.395 . S
C434 C437 1.403 . S
C435 C432 1.403 . S
C435 C436 1.524 . S
C435 C439 1.400 . S
C436 H421 0.960 . S
C436 H422 0.960 . S
C436 H423 0.960 . S
C436 C435 1.524 . S
C437 C434 1.403 . S
C437 C438 1.392 . S
C437 C441 1.495 . S
C438 C437 1.392 . S
C438 C439 1.385 . S
C438 C440 1.478 . S
C439 H433 0.930 . S
C439 C435 1.400 . S
C439 C438 1.385 . S
C440 C438 1.478 . S
C440 C442 1.381 . S
C440 C446 1.383 . S
C441 C437 1.495 . S
C441 H447 0.959 . S
C441 H448 0.961 . S
C441 H449 0.960 . S
C442 C440 1.381 . S
C442 C443 1.394 . S
C442 H450 0.930 . S
C443 C442 1.394 . S
C443 C444 1.383 . S
C443 H451 0.929 . S
C444 C443 1.383 . S
C444 C445 1.377 . S
C445 H429 0.930 . S
C445 C444 1.377 . S
C445 C446 1.379 . S
C446 H430 0.931 . S
C446 C440 1.383 . S
C446 C445 1.379 . S
H447 C441 0.959 . S
H448 C441 0.961 . S
H449 C441 0.960 . S
H450 C442 0.930 . S
H451 C443 0.929 . S
H452 C460 0.929 . S
H453 C462 0.930 . S
H454 C464 0.930 . S
H455 C467 0.929 . S
H456 C470 0.930 . S
H457 C472 0.960 . S
H458 C472 0.960 . S
H459 C472 0.960 . S
C460 H452 0.929 . S
C460 C461 1.377 . S
C460 C462 1.384 . S
C461 C460 1.377 . S
C461 C467 1.390 . S
C462 H453 0.930 . S
C462 C460 1.384 . S
C462 C463 1.372 . S
C463 C462 1.372 . S
C463 C464 1.400 . S
C463 C468 1.490 . S
C464 H454 0.930 . S
C464 C463 1.400 . S
C464 C467 1.386 . S
H465 C481 0.930 . S
H466 C482 0.931 . S
C467 H455 0.929 . S
C467 C461 1.390 . S
C467 C464 1.386 . S
C468 C463 1.490 . S
C468 C470 1.395 . S
C468 C471 1.403 . S
H469 C475 0.930 . S
C470 H456 0.930 . S
C470 C468 1.395 . S
C470 C473 1.403 . S
C471 C468 1.403 . S
C471 C472 1.524 . S
C471 C475 1.400 . S
C472 H457 0.960 . S
C472 H458 0.960 . S
C472 H459 0.960 . S
C472 C471 1.524 . S
C473 C470 1.403 . S
C473 C474 1.392 . S
C473 C477 1.495 . S
C474 C473 1.392 . S
C474 C475 1.385 . S
C474 C476 1.478 . S
C475 H469 0.930 . S
C475 C471 1.400 . S
C475 C474 1.385 . S
C476 C474 1.478 . S
C476 C478 1.381 . S
C476 C482 1.383 . S
C477 C473 1.495 . S
C477 H483 0.959 . S
C477 H484 0.961 . S
C477 H485 0.960 . S
C478 C476 1.381 . S
C478 C479 1.394 . S
C478 H486 0.930 . S
C479 C478 1.394 . S
C479 C480 1.383 . S
C479 H487 0.929 . S
C480 C479 1.383 . S
C480 C481 1.377 . S
C481 H465 0.930 . S
C481 C480 1.377 . S
C481 C482 1.379 . S
C482 H466 0.931 . S
C482 C476 1.383 . S
C482 C481 1.379 . S
H483 C477 0.959 . S
H484 C477 0.961 . S
H485 C477 0.960 . S
H486 C478 0.930 . S
H487 C479 0.929 . S
H488 C496 0.929 . S
H489 C498 0.930 . S
H490 C500 0.930 . S
H491 C503 0.929 . S
H492 C506 0.930 . S
H493 C508 0.960 . S
H494 C508 0.960 . S
H495 C508 0.960 . S
C496 H488 0.929 . S
C496 C497 1.377 . S
C496 C498 1.384 . S
C497 C496 1.377 . S
C497 C503 1.390 . S
C498 H489 0.930 . S
C498 C496 1.384 . S
C498 C499 1.372 . S
C499 C498 1.372 . S
C499 C500 1.400 . S
C499 C504 1.490 . S
C500 H490 0.930 . S
C500 C499 1.400 . S
C500 C503 1.386 . S
H501 C517 0.930 . S
H502 C518 0.931 . S
C503 H491 0.929 . S
C503 C497 1.390 . S
C503 C500 1.386 . S
C504 C499 1.490 . S
C504 C506 1.395 . S
C504 C507 1.403 . S
H505 C511 0.930 . S
C506 H492 0.930 . S
C506 C504 1.395 . S
C506 C509 1.403 . S
C507 C504 1.403 . S
C507 C508 1.524 . S
C507 C511 1.400 . S
C508 H493 0.960 . S
C508 H494 0.960 . S
C508 H495 0.960 . S
C508 C507 1.524 . S
C509 C506 1.403 . S
C509 C510 1.392 . S
C509 C513 1.495 . S
C510 C509 1.392 . S
C510 C511 1.385 . S
C510 C512 1.478 . S
C511 H505 0.930 . S
C511 C507 1.400 . S
C511 C510 1.385 . S
C512 C510 1.478 . S
C512 C514 1.381 . S
C512 C518 1.383 . S
C513 C509 1.495 . S
C513 H519 0.959 . S
C513 H520 0.961 . S
C513 H521 0.960 . S
C514 C512 1.381 . S
C514 C515 1.394 . S
C514 H522 0.930 . S
C515 C514 1.394 . S
C515 C516 1.383 . S
C515 H523 0.929 . S
C516 C515 1.383 . S
C516 C517 1.377 . S
C517 H501 0.930 . S
C517 C516 1.377 . S
C517 C518 1.379 . S
C518 H502 0.931 . S
C518 C512 1.383 . S
C518 C517 1.379 . S
H519 C513 0.959 . S
H520 C513 0.961 . S
H521 C513 0.960 . S
H522 C514 0.930 . S
H523 C515 0.929 . S
H524 C532 0.929 . S
H525 C534 0.930 . S
H526 C536 0.930 . S
H527 C539 0.929 . S
H528 C542 0.930 . S
H529 C544 0.960 . S
H530 C544 0.960 . S
H531 C544 0.960 . S
C532 H524 0.929 . S
C532 C533 1.377 . S
C532 C534 1.384 . S
C533 C532 1.377 . S
C533 C539 1.390 . S
C534 H525 0.930 . S
C534 C532 1.384 . S
C534 C535 1.372 . S
C535 C534 1.372 . S
C535 C536 1.400 . S
C535 C540 1.490 . S
C536 H526 0.930 . S
C536 C535 1.400 . S
C536 C539 1.386 . S
H537 C553 0.930 . S
H538 C554 0.931 . S
C539 H527 0.929 . S
C539 C533 1.390 . S
C539 C536 1.386 . S
C540 C535 1.490 . S
C540 C542 1.395 . S
C540 C543 1.403 . S
H541 C547 0.930 . S
C542 H528 0.930 . S
C542 C540 1.395 . S
C542 C545 1.403 . S
C543 C540 1.403 . S
C543 C544 1.524 . S
C543 C547 1.400 . S
C544 H529 0.960 . S
C544 H530 0.960 . S
C544 H531 0.960 . S
C544 C543 1.524 . S
C545 C542 1.403 . S
C545 C546 1.392 . S
C545 C549 1.495 . S
C546 C545 1.392 . S
C546 C547 1.385 . S
C546 C548 1.478 . S
C547 H541 0.930 . S
C547 C543 1.400 . S
C547 C546 1.385 . S
C548 C546 1.478 . S
C548 C550 1.381 . S
C548 C554 1.383 . S
C549 C545 1.495 . S
C549 H555 0.959 . S
C549 H556 0.961 . S
C549 H557 0.960 . S
C550 C548 1.381 . S
C550 C551 1.394 . S
C550 H558 0.930 . S
C551 C550 1.394 . S
C551 C552 1.383 . S
C551 H559 0.929 . S
C552 C551 1.383 . S
C552 C553 1.377 . S
C553 H537 0.930 . S
C553 C552 1.377 . S
C553 C554 1.379 . S
C554 H538 0.931 . S
C554 C548 1.383 . S
C554 C553 1.379 . S
H555 C549 0.959 . S
H556 C549 0.961 . S
H557 C549 0.960 . S
H558 C550 0.930 . S
H559 C551 0.929 . S
H560 C568 0.929 . S
H561 C570 0.930 . S
H562 C572 0.930 . S
H563 C575 0.929 . S
H564 C578 0.930 . S
H565 C580 0.960 . S
H566 C580 0.960 . S
H567 C580 0.960 . S
C568 H560 0.929 . S
C568 C569 1.377 . S
C568 C570 1.384 . S
C569 C568 1.377 . S
C569 C575 1.390 . S
C570 H561 0.930 . S
C570 C568 1.384 . S
C570 C571 1.372 . S
C571 C570 1.372 . S
C571 C572 1.400 . S
C571 C576 1.490 . S
C572 H562 0.930 . S
C572 C571 1.400 . S
C572 C575 1.386 . S
H573 C589 0.930 . S
H574 C590 0.931 . S
C575 H563 0.929 . S
C575 C569 1.390 . S
C575 C572 1.386 . S
C576 C571 1.490 . S
C576 C578 1.395 . S
C576 C579 1.403 . S
H577 C583 0.930 . S
C578 H564 0.930 . S
C578 C576 1.395 . S
C578 C581 1.403 . S
C579 C576 1.403 . S
C579 C580 1.524 . S
C579 C583 1.400 . S
C580 H565 0.960 . S
C580 H566 0.960 . S
C580 H567 0.960 . S
C580 C579 1.524 . S
C581 C578 1.403 . S
C581 C582 1.392 . S
C581 C585 1.495 . S
C582 C581 1.392 . S
C582 C583 1.385 . S
C582 C584 1.478 . S
C583 H577 0.930 . S
C583 C579 1.400 . S
C583 C582 1.385 . S
C584 C582 1.478 . S
C584 C586 1.381 . S
C584 C590 1.383 . S
C585 C581 1.495 . S
C585 H591 0.959 . S
C585 H592 0.961 . S
C585 H593 0.960 . S
C586 C584 1.381 . S
C586 C587 1.394 . S
C586 H594 0.930 . S
C587 C586 1.394 . S
C587 C588 1.383 . S
C587 H595 0.929 . S
C588 C587 1.383 . S
C588 C589 1.377 . S
C589 H573 0.930 . S
C589 C588 1.377 . S
C589 C590 1.379 . S
C590 H574 0.931 . S
C590 C584 1.383 . S
C590 C589 1.379 . S
H591 C585 0.959 . S
H592 C585 0.961 . S
H593 C585 0.960 . S
H594 C586 0.930 . S
H595 C587 0.929 . S
H596 C604 0.929 . S
H597 C606 0.930 . S
H598 C608 0.930 . S
H599 C611 0.929 . S
H600 C614 0.930 . S
H601 C616 0.960 . S
H602 C616 0.960 . S
H603 C616 0.960 . S
C604 H596 0.929 . S
C604 C605 1.377 . S
C604 C606 1.384 . S
C605 C604 1.377 . S
C605 C611 1.390 . S
C606 H597 0.930 . S
C606 C604 1.384 . S
C606 C607 1.372 . S
C607 C606 1.372 . S
C607 C608 1.400 . S
C607 C612 1.490 . S
C608 H598 0.930 . S
C608 C607 1.400 . S
C608 C611 1.386 . S
H609 C625 0.930 . S
H610 C626 0.931 . S
C611 H599 0.929 . S
C611 C605 1.390 . S
C611 C608 1.386 . S
C612 C607 1.490 . S
C612 C614 1.395 . S
C612 C615 1.403 . S
H613 C619 0.930 . S
C614 H600 0.930 . S
C614 C612 1.395 . S
C614 C617 1.403 . S
C615 C612 1.403 . S
C615 C616 1.524 . S
C615 C619 1.400 . S
C616 H601 0.960 . S
C616 H602 0.960 . S
C616 H603 0.960 . S
C616 C615 1.524 . S
C617 C614 1.403 . S
C617 C618 1.392 . S
C617 C621 1.495 . S
C618 C617 1.392 . S
C618 C619 1.385 . S
C618 C620 1.478 . S
C619 H613 0.930 . S
C619 C615 1.400 . S
C619 C618 1.385 . S
C620 C618 1.478 . S
C620 C622 1.381 . S
C620 C626 1.383 . S
C621 C617 1.495 . S
C621 H627 0.959 . S
C621 H628 0.961 . S
C621 H629 0.960 . S
C622 C620 1.381 . S
C622 C623 1.394 . S
C622 H630 0.930 . S
C623 C622 1.394 . S
C623 C624 1.383 . S
C623 H631 0.929 . S
C624 C623 1.383 . S
C624 C625 1.377 . S
C625 H609 0.930 . S
C625 C624 1.377 . S
C625 C626 1.379 . S
C626 H610 0.931 . S
C626 C620 1.383 . S
C626 C625 1.379 . S
H627 C621 0.959 . S
H628 C621 0.961 . S
H629 C621 0.960 . S
H630 C622 0.930 . S
H631 C623 0.929 . S
H632 C640 0.929 . S
H633 C642 0.930 . S
H634 C644 0.930 . S
H635 C647 0.929 . S
H636 C650 0.930 . S
H637 C652 0.960 . S
H638 C652 0.960 . S
H639 C652 0.960 . S
C640 H632 0.929 . S
C640 C641 1.377 . S
C640 C642 1.384 . S
C641 C640 1.377 . S
C641 C647 1.390 . S
C642 H633 0.930 . S
C642 C640 1.384 . S
C642 C643 1.372 . S
C643 C642 1.372 . S
C643 C644 1.400 . S
C643 C648 1.490 . S
C644 H634 0.930 . S
C644 C643 1.400 . S
C644 C647 1.386 . S
H645 C661 0.930 . S
H646 C662 0.931 . S
C647 H635 0.929 . S
C647 C641 1.390 . S
C647 C644 1.386 . S
C648 C643 1.490 . S
C648 C650 1.395 . S
C648 C651 1.403 . S
H649 C655 0.930 . S
C650 H636 0.930 . S
C650 C648 1.395 . S
C650 C653 1.403 . S
C651 C648 1.403 . S
C651 C652 1.524 . S
C651 C655 1.400 . S
C652 H637 0.960 . S
C652 H638 0.960 . S
C652 H639 0.960 . S
C652 C651 1.524 . S
C653 C650 1.403 . S
C653 C654 1.392 . S
C653 C657 1.495 . S
C654 C653 1.392 . S
C654 C655 1.385 . S
C654 C656 1.478 . S
C655 H649 0.930 . S
C655 C651 1.400 . S
C655 C654 1.385 . S
C656 C654 1.478 . S
C656 C658 1.381 . S
C656 C662 1.383 . S
C657 C653 1.495 . S
C657 H663 0.959 . S
C657 H664 0.961 . S
C657 H665 0.960 . S
C658 C656 1.381 . S
C658 C659 1.394 . S
C658 H666 0.930 . S
C659 C658 1.394 . S
C659 C660 1.383 . S
C659 H667 0.929 . S
C660 C659 1.383 . S
C660 C661 1.377 . S
C661 H645 0.930 . S
C661 C660 1.377 . S
C661 C662 1.379 . S
C662 H646 0.931 . S
C662 C656 1.383 . S
C662 C661 1.379 . S
H663 C657 0.959 . S
H664 C657 0.961 . S
H665 C657 0.960 . S
H666 C658 0.930 . S
H667 C659 0.929 . S
H668 C676 0.929 . S
H669 C678 0.930 . S
H670 C680 0.930 . S
H671 C683 0.929 . S
H672 C686 0.930 . S
H673 C688 0.960 . S
H674 C688 0.960 . S
H675 C688 0.960 . S
C676 H668 0.929 . S
C676 C677 1.377 . S
C676 C678 1.384 . S
C677 C676 1.377 . S
C677 C683 1.390 . S
C678 H669 0.930 . S
C678 C676 1.384 . S
C678 C679 1.372 . S
C679 C678 1.372 . S
C679 C680 1.400 . S
C679 C684 1.490 . S
C680 H670 0.930 . S
C680 C679 1.400 . S
C680 C683 1.386 . S
H681 C697 0.930 . S
H682 C698 0.931 . S
C683 H671 0.929 . S
C683 C677 1.390 . S
C683 C680 1.386 . S
C684 C679 1.490 . S
C684 C686 1.395 . S
C684 C687 1.403 . S
H685 C691 0.930 . S
C686 H672 0.930 . S
C686 C684 1.395 . S
C686 C689 1.403 . S
C687 C684 1.403 . S
C687 C688 1.524 . S
C687 C691 1.400 . S
C688 H673 0.960 . S
C688 H674 0.960 . S
C688 H675 0.960 . S
C688 C687 1.524 . S
C689 C686 1.403 . S
C689 C690 1.392 . S
C689 C693 1.495 . S
C690 C689 1.392 . S
C690 C691 1.385 . S
C690 C692 1.478 . S
C691 H685 0.930 . S
C691 C687 1.400 . S
C691 C690 1.385 . S
C692 C690 1.478 . S
C692 C694 1.381 . S
C692 C698 1.383 . S
C693 C689 1.495 . S
C693 H699 0.959 . S
C693 H700 0.961 . S
C693 H701 0.960 . S
C694 C692 1.381 . S
C694 C695 1.394 . S
C694 H702 0.930 . S
C695 C694 1.394 . S
C695 C696 1.383 . S
C695 H703 0.929 . S
C696 C695 1.383 . S
C696 C697 1.377 . S
C697 H681 0.930 . S
C697 C696 1.377 . S
C697 C698 1.379 . S
C698 H682 0.931 . S
C698 C692 1.383 . S
C698 C697 1.379 . S
H699 C693 0.959 . S
H700 C693 0.961 . S
H701 C693 0.960 . S
H702 C694 0.930 . S
H703 C695 0.929 . S
H704 C712 0.929 . S
H705 C714 0.930 . S
H706 C716 0.930 . S
H707 C719 0.929 . S
H708 C722 0.930 . S
H709 C724 0.960 . S
H710 C724 0.960 . S
H711 C724 0.960 . S
C712 H704 0.929 . S
C712 C713 1.377 . S
C712 C714 1.384 . S
C713 C712 1.377 . S
C713 C719 1.390 . S
C714 H705 0.930 . S
C714 C712 1.384 . S
C714 C715 1.372 . S
C715 C714 1.372 . S
C715 C716 1.400 . S
C715 C720 1.490 . S
C716 H706 0.930 . S
C716 C715 1.400 . S
C716 C719 1.386 . S
H717 C733 0.930 . S
H718 C734 0.931 . S
C719 H707 0.929 . S
C719 C713 1.390 . S
C719 C716 1.386 . S
C720 C715 1.490 . S
C720 C722 1.395 . S
C720 C723 1.403 . S
H721 C727 0.930 . S
C722 H708 0.930 . S
C722 C720 1.395 . S
C722 C725 1.403 . S
C723 C720 1.403 . S
C723 C724 1.524 . S
C723 C727 1.400 . S
C724 H709 0.960 . S
C724 H710 0.960 . S
C724 H711 0.960 . S
C724 C723 1.524 . S
C725 C722 1.403 . S
C725 C726 1.392 . S
C725 C729 1.495 . S
C726 C725 1.392 . S
C726 C727 1.385 . S
C726 C728 1.478 . S
C727 H721 0.930 . S
C727 C723 1.400 . S
C727 C726 1.385 . S
C728 C726 1.478 . S
C728 C730 1.381 . S
C728 C734 1.383 . S
C729 C725 1.495 . S
C729 H735 0.959 . S
C729 H736 0.961 . S
C729 H737 0.960 . S
C730 C728 1.381 . S
C730 C731 1.394 . S
C730 H738 0.930 . S
C731 C730 1.394 . S
C731 C732 1.383 . S
C731 H739 0.929 . S
C732 C731 1.383 . S
C732 C733 1.377 . S
C733 H717 0.930 . S
C733 C732 1.377 . S
C733 C734 1.379 . S
C734 H718 0.931 . S
C734 C728 1.383 . S
C734 C733 1.379 . S
H735 C729 0.959 . S
H736 C729 0.961 . S
H737 C729 0.960 . S
H738 C730 0.930 . S
H739 C731 0.929 . S
H740 C748 0.929 . S
H741 C750 0.930 . S
H742 C752 0.930 . S
H743 C755 0.929 . S
H744 C758 0.930 . S
H745 C760 0.960 . S
H746 C760 0.960 . S
H747 C760 0.960 . S
C748 H740 0.929 . S
C748 C749 1.377 . S
C748 C750 1.384 . S
C749 C748 1.377 . S
C749 C755 1.390 . S
C750 H741 0.930 . S
C750 C748 1.384 . S
C750 C751 1.372 . S
C751 C750 1.372 . S
C751 C752 1.400 . S
C751 C756 1.490 . S
C752 H742 0.930 . S
C752 C751 1.400 . S
C752 C755 1.386 . S
H753 C769 0.930 . S
H754 C770 0.931 . S
C755 H743 0.929 . S
C755 C749 1.390 . S
C755 C752 1.386 . S
C756 C751 1.490 . S
C756 C758 1.395 . S
C756 C759 1.403 . S
H757 C763 0.930 . S
C758 H744 0.930 . S
C758 C756 1.395 . S
C758 C761 1.403 . S
C759 C756 1.403 . S
C759 C760 1.524 . S
C759 C763 1.400 . S
C760 H745 0.960 . S
C760 H746 0.960 . S
C760 H747 0.960 . S
C760 C759 1.524 . S
C761 C758 1.403 . S
C761 C762 1.392 . S
C761 C765 1.495 . S
C762 C761 1.392 . S
C762 C763 1.385 . S
C762 C764 1.478 . S
C763 H757 0.930 . S
C763 C759 1.400 . S
C763 C762 1.385 . S
C764 C762 1.478 . S
C764 C766 1.381 . S
C764 C770 1.383 . S
C765 C761 1.495 . S
C765 H771 0.959 . S
C765 H772 0.961 . S
C765 H773 0.960 . S
C766 C764 1.381 . S
C766 C767 1.394 . S
C766 H774 0.930 . S
C767 C766 1.394 . S
C767 C768 1.383 . S
C767 H775 0.929 . S
C768 C767 1.383 . S
C768 C769 1.377 . S
C769 H753 0.930 . S
C769 C768 1.377 . S
C769 C770 1.379 . S
C770 H754 0.931 . S
C770 C764 1.383 . S
C770 C769 1.379 . S
H771 C765 0.959 . S
H772 C765 0.961 . S
H773 C765 0.960 . S
H774 C766 0.930 . S
H775 C767 0.929 . S
H776 C784 0.929 . S
H777 C786 0.930 . S
H778 C788 0.930 . S
H779 C791 0.929 . S
H780 C794 0.930 . S
H781 C796 0.960 . S
H782 C796 0.960 . S
H783 C796 0.960 . S
C784 H776 0.929 . S
C784 C785 1.377 . S
C784 C786 1.384 . S
C785 C784 1.377 . S
C785 C791 1.390 . S
C786 H777 0.930 . S
C786 C784 1.384 . S
C786 C787 1.372 . S
C787 C786 1.372 . S
C787 C788 1.400 . S
C787 C792 1.490 . S
C788 H778 0.930 . S
C788 C787 1.400 . S
C788 C791 1.386 . S
H789 C805 0.930 . S
H790 C806 0.931 . S
C791 H779 0.929 . S
C791 C785 1.390 . S
C791 C788 1.386 . S
C792 C787 1.490 . S
C792 C794 1.395 . S
C792 C795 1.403 . S
H793 C799 0.930 . S
C794 H780 0.930 . S
C794 C792 1.395 . S
C794 C797 1.403 . S
C795 C792 1.403 . S
C795 C796 1.524 . S
C795 C799 1.400 . S
C796 H781 0.960 . S
C796 H782 0.960 . S
C796 H783 0.960 . S
C796 C795 1.524 . S
C797 C794 1.403 . S
C797 C798 1.392 . S
C797 C801 1.495 . S
C798 C797 1.392 . S
C798 C799 1.385 . S
C798 C800 1.478 . S
C799 H793 0.930 . S
C799 C795 1.400 . S
C799 C798 1.385 . S
C800 C798 1.478 . S
C800 C802 1.381 . S
C800 C806 1.383 . S
C801 C797 1.495 . S
C801 H807 0.959 . S
C801 H808 0.961 . S
C801 H809 0.960 . S
C802 C800 1.381 . S
C802 C803 1.394 . S
C802 H810 0.930 . S
C803 C802 1.394 . S
C803 C804 1.383 . S
C803 H811 0.929 . S
C804 C803 1.383 . S
C804 C805 1.377 . S
C805 H789 0.930 . S
C805 C804 1.377 . S
C805 C806 1.379 . S
C806 H790 0.931 . S
C806 C800 1.383 . S
C806 C805 1.379 . S
H807 C801 0.959 . S
H808 C801 0.961 . S
H809 C801 0.960 . S
H810 C802 0.930 . S
H811 C803 0.929 . S
H812 C820 0.929 . S
H813 C822 0.930 . S
H814 C824 0.930 . S
H815 C827 0.929 . S
H816 C830 0.930 . S
H817 C832 0.960 . S
H818 C832 0.960 . S
H819 C832 0.960 . S
C820 H812 0.929 . S
C820 C821 1.377 . S
C820 C822 1.384 . S
C821 C820 1.377 . S
C821 C827 1.390 . S
C822 H813 0.930 . S
C822 C820 1.384 . S
C822 C823 1.372 . S
C823 C822 1.372 . S
C823 C824 1.400 . S
C823 C828 1.490 . S
C824 H814 0.930 . S
C824 C823 1.400 . S
C824 C827 1.386 . S
H825 C841 0.930 . S
H826 C842 0.931 . S
C827 H815 0.929 . S
C827 C821 1.390 . S
C827 C824 1.386 . S
C828 C823 1.490 . S
C828 C830 1.395 . S
C828 C831 1.403 . S
H829 C835 0.930 . S
C830 H816 0.930 . S
C830 C828 1.395 . S
C830 C833 1.403 . S
C831 C828 1.403 . S
C831 C832 1.524 . S
C831 C835 1.400 . S
C832 H817 0.960 . S
C832 H818 0.960 . S
C832 H819 0.960 . S
C832 C831 1.524 . S
C833 C830 1.403 . S
C833 C834 1.392 . S
C833 C837 1.495 . S
C834 C833 1.392 . S
C834 C835 1.385 . S
C834 C836 1.478 . S
C835 H829 0.930 . S
C835 C831 1.400 . S
C835 C834 1.385 . S
C836 C834 1.478 . S
C836 C838 1.381 . S
C836 C842 1.383 . S
C837 C833 1.495 . S
C837 H843 0.959 . S
C837 H844 0.961 . S
C837 H845 0.960 . S
C838 C836 1.381 . S
C838 C839 1.394 . S
C838 H846 0.930 . S
C839 C838 1.394 . S
C839 C840 1.383 . S
C839 H847 0.929 . S
C840 C839 1.383 . S
C840 C841 1.377 . S
C841 H825 0.930 . S
C841 C840 1.377 . S
C841 C842 1.379 . S
C842 H826 0.931 . S
C842 C836 1.383 . S
C842 C841 1.379 . S
H843 C837 0.959 . S
H844 C837 0.961 . S
H845 C837 0.960 . S
H846 C838 0.930 . S
H847 C839 0.929 . S
H848 C856 0.929 . S
H849 C858 0.930 . S
H850 C860 0.930 . S
H851 C863 0.929 . S
H852 C866 0.930 . S
H853 C868 0.960 . S
H854 C868 0.960 . S
H855 C868 0.960 . S
C856 H848 0.929 . S
C856 C857 1.377 . S
C856 C858 1.384 . S
C857 C856 1.377 . S
C857 C863 1.390 . S
C858 H849 0.930 . S
C858 C856 1.384 . S
C858 C859 1.372 . S
C859 C858 1.372 . S
C859 C860 1.400 . S
C859 C864 1.490 . S
C860 H850 0.930 . S
C860 C859 1.400 . S
C860 C863 1.386 . S
H861 C877 0.930 . S
H862 C878 0.931 . S
C863 H851 0.929 . S
C863 C857 1.390 . S
C863 C860 1.386 . S
C864 C859 1.490 . S
C864 C866 1.395 . S
C864 C867 1.403 . S
H865 C871 0.930 . S
C866 H852 0.930 . S
C866 C864 1.395 . S
C866 C869 1.403 . S
C867 C864 1.403 . S
C867 C868 1.524 . S
C867 C871 1.400 . S
C868 H853 0.960 . S
C868 H854 0.960 . S
C868 H855 0.960 . S
C868 C867 1.524 . S
C869 C866 1.403 . S
C869 C870 1.392 . S
C869 C873 1.495 . S
C870 C869 1.392 . S
C870 C871 1.385 . S
C870 C872 1.478 . S
C871 H865 0.930 . S
C871 C867 1.400 . S
C871 C870 1.385 . S
C872 C870 1.478 . S
C872 C874 1.381 . S
C872 C878 1.383 . S
C873 C869 1.495 . S
C873 H879 0.959 . S
C873 H880 0.961 . S
C873 H881 0.960 . S
C874 C872 1.381 . S
C874 C875 1.394 . S
C874 H882 0.930 . S
C875 C874 1.394 . S
C875 C876 1.383 . S
C875 H883 0.929 . S
C876 C875 1.383 . S
C876 C877 1.377 . S
C877 H861 0.930 . S
C877 C876 1.377 . S
C877 C878 1.379 . S
C878 H862 0.931 . S
C878 C872 1.383 . S
C878 C877 1.379 . S
H879 C873 0.959 . S
H880 C873 0.961 . S
H881 C873 0.960 . S
H882 C874 0.930 . S
H883 C875 0.929 . S
H884 C892 0.929 . S
H885 C894 0.930 . S
H886 C896 0.930 . S
H887 C899 0.929 . S
H888 C902 0.930 . S
H889 C904 0.960 . S
H890 C904 0.960 . S
H891 C904 0.960 . S
C892 H884 0.929 . S
C892 C893 1.377 . S
C892 C894 1.384 . S
C893 C892 1.377 . S
C893 C899 1.390 . S
C894 H885 0.930 . S
C894 C892 1.384 . S
C894 C895 1.372 . S
C895 C894 1.372 . S
C895 C896 1.400 . S
C895 C900 1.490 . S
C896 H886 0.930 . S
C896 C895 1.400 . S
C896 C899 1.386 . S
H897 C913 0.930 . S
H898 C914 0.931 . S
C899 H887 0.929 . S
C899 C893 1.390 . S
C899 C896 1.386 . S
C900 C895 1.490 . S
C900 C902 1.395 . S
C900 C903 1.403 . S
H901 C907 0.930 . S
C902 H888 0.930 . S
C902 C900 1.395 . S
C902 C905 1.403 . S
C903 C900 1.403 . S
C903 C904 1.524 . S
C903 C907 1.400 . S
C904 H889 0.960 . S
C904 H890 0.960 . S
C904 H891 0.960 . S
C904 C903 1.524 . S
C905 C902 1.403 . S
C905 C906 1.392 . S
C905 C909 1.495 . S
C906 C905 1.392 . S
C906 C907 1.385 . S
C906 C908 1.478 . S
C907 H901 0.930 . S
C907 C903 1.400 . S
C907 C906 1.385 . S
C908 C906 1.478 . S
C908 C910 1.381 . S
C908 C914 1.383 . S
C909 C905 1.495 . S
C909 H915 0.959 . S
C909 H916 0.961 . S
C909 H917 0.960 . S
C910 C908 1.381 . S
C910 C911 1.394 . S
C910 H918 0.930 . S
C911 C910 1.394 . S
C911 C912 1.383 . S
C911 H919 0.929 . S
C912 C911 1.383 . S
C912 C913 1.377 . S
C913 H897 0.930 . S
C913 C912 1.377 . S
C913 C914 1.379 . S
C914 H898 0.931 . S
C914 C908 1.383 . S
C914 C913 1.379 . S
H915 C909 0.959 . S
H916 C909 0.961 . S
H917 C909 0.960 . S
H918 C910 0.930 . S
H919 C911 0.929 . S
H920 C928 0.929 . S
H921 C930 0.930 . S
H922 C932 0.930 . S
H923 C935 0.929 . S
H924 C938 0.930 . S
H925 C940 0.960 . S
H926 C940 0.960 . S
H927 C940 0.960 . S
C928 H920 0.929 . S
C928 C929 1.377 . S
C928 C930 1.384 . S
C929 C928 1.377 . S
C929 C935 1.390 . S
C930 H921 0.930 . S
C930 C928 1.384 . S
C930 C931 1.372 . S
C931 C930 1.372 . S
C931 C932 1.400 . S
C931 C936 1.490 . S
C932 H922 0.930 . S
C932 C931 1.400 . S
C932 C935 1.386 . S
H933 C949 0.930 . S
H934 C950 0.931 . S
C935 H923 0.929 . S
C935 C929 1.390 . S
C935 C932 1.386 . S
C936 C931 1.490 . S
C936 C938 1.395 . S
C936 C939 1.403 . S
H937 C943 0.930 . S
C938 H924 0.930 . S
C938 C936 1.395 . S
C938 C941 1.403 . S
C939 C936 1.403 . S
C939 C940 1.524 . S
C939 C943 1.400 . S
C940 H925 0.960 . S
C940 H926 0.960 . S
C940 H927 0.960 . S
C940 C939 1.524 . S
C941 C938 1.403 . S
C941 C942 1.392 . S
C941 C945 1.495 . S
C942 C941 1.392 . S
C942 C943 1.385 . S
C942 C944 1.478 . S
C943 H937 0.930 . S
C943 C939 1.400 . S
C943 C942 1.385 . S
C944 C942 1.478 . S
C944 C946 1.381 . S
C944 C950 1.383 . S
C945 C941 1.495 . S
C945 H951 0.959 . S
C945 H952 0.961 . S
C945 H953 0.960 . S
C946 C944 1.381 . S
C946 C947 1.394 . S
C946 H954 0.930 . S
C947 C946 1.394 . S
C947 C948 1.383 . S
C947 H955 0.929 . S
C948 C947 1.383 . S
C948 C949 1.377 . S
C949 H933 0.930 . S
C949 C948 1.377 . S
C949 C950 1.379 . S
C950 H934 0.931 . S
C950 C944 1.383 . S
C950 C949 1.379 . S
H951 C945 0.959 . S
H952 C945 0.961 . S
H953 C945 0.960 . S
H954 C946 0.930 . S
H955 C947 0.929 . S
H956 C964 0.929 . S
H957 C966 0.930 . S
H958 C968 0.930 . S
H959 C971 0.929 . S
H960 C974 0.930 . S
H961 C976 0.960 . S
H962 C976 0.960 . S
H963 C976 0.960 . S
C964 H956 0.929 . S
C964 C965 1.377 . S
C964 C966 1.384 . S
C965 C964 1.377 . S
C965 C971 1.390 . S
C966 H957 0.930 . S
C966 C964 1.384 . S
C966 C967 1.372 . S
C967 C966 1.372 . S
C967 C968 1.400 . S
C967 C972 1.490 . S
C968 H958 0.930 . S
C968 C967 1.400 . S
C968 C971 1.386 . S
H969 C985 0.930 . S
H970 C986 0.931 . S
C971 H959 0.929 . S
C971 C965 1.390 . S
C971 C968 1.386 . S
C972 C967 1.490 . S
C972 C974 1.395 . S
C972 C975 1.403 . S
H973 C979 0.930 . S
C974 H960 0.930 . S
C974 C972 1.395 . S
C974 C977 1.403 . S
C975 C972 1.403 . S
C975 C976 1.524 . S
C975 C979 1.400 . S
C976 H961 0.960 . S
C976 H962 0.960 . S
C976 H963 0.960 . S
C976 C975 1.524 . S
C977 C974 1.403 . S
C977 C978 1.392 . S
C977 C981 1.495 . S
C978 C977 1.392 . S
C978 C979 1.385 . S
C978 C980 1.478 . S
C979 H973 0.930 . S
C979 C975 1.400 . S
C979 C978 1.385 . S
C980 C978 1.478 . S
C980 C982 1.381 . S
C980 C986 1.383 . S
C981 C977 1.495 . S
C981 H987 0.959 . S
C981 H988 0.961 . S
C981 H989 0.960 . S
C982 C980 1.381 . S
C982 C983 1.394 . S
C982 H990 0.930 . S
C983 C982 1.394 . S
C983 C984 1.383 . S
C983 H991 0.929 . S
C984 C983 1.383 . S
C984 C985 1.377 . S
C985 H969 0.930 . S
C985 C984 1.377 . S
C985 C986 1.379 . S
C986 H970 0.931 . S
C986 C980 1.383 . S
C986 C985 1.379 . S
H987 C981 0.959 . S
H988 C981 0.961 . S
H989 C981 0.960 . S
H990 C982 0.930 . S
H991 C983 0.929 . S
H992 C1000 0.929 . S
H993 C1002 0.930 . S
H994 C1004 0.930 . S
H995 C1007 0.929 . S
H996 C1010 0.930 . S
H997 C1012 0.960 . S
H998 C1012 0.960 . S
H999 C1012 0.960 . S
C1000 H992 0.929 . S
C1000 C1001 1.377 . S
C1000 C1002 1.384 . S
C1001 C1000 1.377 . S
C1001 C1007 1.390 . S
C1002 H993 0.930 . S
C1002 C1000 1.384 . S
C1002 C1003 1.372 . S
C1003 C1002 1.372 . S
C1003 C1004 1.400 . S
C1003 C1008 1.490 . S
C1004 H994 0.930 . S
C1004 C1003 1.400 . S
C1004 C1007 1.386 . S
H1005 C1021 0.930 . S
H1006 C1022 0.931 . S
C1007 H995 0.929 . S
C1007 C1001 1.390 . S
C1007 C1004 1.386 . S
C1008 C1003 1.490 . S
C1008 C1010 1.395 . S
C1008 C1011 1.403 . S
H1009 C1015 0.930 . S
C1010 H996 0.930 . S
C1010 C1008 1.395 . S
C1010 C1013 1.403 1_655 S
C1011 C1008 1.403 . S
C1011 C1012 1.524 . S
C1011 C1015 1.400 1_655 S
C1012 H997 0.960 . S
C1012 H998 0.960 . S
C1012 H999 0.960 . S
C1012 C1011 1.524 . S
C1013 C1010 1.403 1_455 S
C1013 C1014 1.392 . S
C1013 C1017 1.495 . S
C1014 C1013 1.392 . S
C1014 C1015 1.385 . S
C1014 C1016 1.478 . S
C1015 H1009 0.930 . S
C1015 C1011 1.400 1_455 S
C1015 C1014 1.385 . S
C1016 C1014 1.478 . S
C1016 C1018 1.381 . S
C1016 C1022 1.383 . S
C1017 C1013 1.495 . S
C1017 H1023 0.959 . S
C1017 H1024 0.961 . S
C1017 H1025 0.960 . S
C1018 C1016 1.381 . S
C1018 C1019 1.394 . S
C1018 H1026 0.930 . S
C1019 C1018 1.394 . S
C1019 C1020 1.383 . S
C1019 H1027 0.929 . S
C1020 C1019 1.383 . S
C1020 C1021 1.377 . S
C1021 H1005 0.930 . S
C1021 C1020 1.377 . S
C1021 C1022 1.379 . S
C1022 H1006 0.931 . S
C1022 C1016 1.383 . S
C1022 C1021 1.379 . S
H1023 C1017 0.959 . S
H1024 C1017 0.961 . S
H1025 C1017 0.960 . S
H1026 C1018 0.930 . S
H1027 C1019 0.929 . S
H1028 C1036 0.929 . S
H1029 C1038 0.930 . S
H1030 C1040 0.930 . S
H1031 C1043 0.929 . S
H1032 C1046 0.930 . S
H1033 C1048 0.960 . S
H1034 C1048 0.960 . S
H1035 C1048 0.960 . S
C1036 H1028 0.929 . S
C1036 C1037 1.377 . S
C1036 C1038 1.384 . S
C1037 C1036 1.377 . S
C1037 C1043 1.390 . S
C1038 H1029 0.930 . S
C1038 C1036 1.384 . S
C1038 C1039 1.372 . S
C1039 C1038 1.372 . S
C1039 C1040 1.400 . S
C1039 C1044 1.490 . S
C1040 H1030 0.930 . S
C1040 C1039 1.400 . S
C1040 C1043 1.386 . S
H1041 C1057 0.930 . S
H1042 C1058 0.931 . S
C1043 H1031 0.929 . S
C1043 C1037 1.390 . S
C1043 C1040 1.386 . S
C1044 C1039 1.490 . S
C1044 C1046 1.395 . S
C1044 C1047 1.403 . S
H1045 C1051 0.930 . S
C1046 H1032 0.930 . S
C1046 C1044 1.395 . S
C1046 C1049 1.403 1_545 S
C1047 C1044 1.403 . S
C1047 C1048 1.524 . S
C1047 C1051 1.400 1_545 S
C1048 H1033 0.960 . S
C1048 H1034 0.960 . S
C1048 H1035 0.960 . S
C1048 C1047 1.524 . S
C1049 C1046 1.403 1_565 S
C1049 C1050 1.392 . S
C1049 C1053 1.495 . S
C1050 C1049 1.392 . S
C1050 C1051 1.385 . S
C1050 C1052 1.478 . S
C1051 H1045 0.930 . S
C1051 C1047 1.400 1_565 S
C1051 C1050 1.385 . S
C1052 C1050 1.478 . S
C1052 C1054 1.381 . S
C1052 C1058 1.383 . S
C1053 C1049 1.495 . S
C1053 H1059 0.959 . S
C1053 H1060 0.961 . S
C1053 H1061 0.960 . S
C1054 C1052 1.381 . S
C1054 C1055 1.394 . S
C1054 H1062 0.930 . S
C1055 C1054 1.394 . S
C1055 C1056 1.383 . S
C1055 H1063 0.929 . S
C1056 C1055 1.383 . S
C1056 C1057 1.377 . S
C1057 H1041 0.930 . S
C1057 C1056 1.377 . S
C1057 C1058 1.379 . S
C1058 H1042 0.931 . S
C1058 C1052 1.383 . S
C1058 C1057 1.379 . S
H1059 C1053 0.959 . S
H1060 C1053 0.961 . S
H1061 C1053 0.960 . S
H1062 C1054 0.930 . S
H1063 C1055 0.929 . S
H1064 C1072 0.929 . S
H1065 C1074 0.930 . S
H1066 C1076 0.930 . S
H1067 C1079 0.929 . S
H1068 C1082 0.930 . S
H1069 C1084 0.960 . S
H1070 C1084 0.960 . S
H1071 C1084 0.960 . S
C1072 H1064 0.929 . S
C1072 C1073 1.377 . S
C1072 C1074 1.384 . S
C1073 C1072 1.377 . S
C1073 C1079 1.390 . S
C1074 H1065 0.930 . S
C1074 C1072 1.384 . S
C1074 C1075 1.372 . S
C1075 C1074 1.372 . S
C1075 C1076 1.400 . S
C1075 C1080 1.490 . S
C1076 H1066 0.930 . S
C1076 C1075 1.400 . S
C1076 C1079 1.386 . S
H1077 C1093 0.930 . S
H1078 C1094 0.931 . S
C1079 H1067 0.929 . S
C1079 C1073 1.390 . S
C1079 C1076 1.386 . S
C1080 C1075 1.490 . S
C1080 C1082 1.395 . S
C1080 C1083 1.403 . S
H1081 C1087 0.930 . S
C1082 H1068 0.930 . S
C1082 C1080 1.395 . S
C1082 C1085 1.403 1_455 S
C1083 C1080 1.403 . S
C1083 C1084 1.524 . S
C1083 C1087 1.400 1_455 S
C1084 H1069 0.960 . S
C1084 H1070 0.960 . S
C1084 H1071 0.960 . S
C1084 C1083 1.524 . S
C1085 C1082 1.403 1_655 S
C1085 C1086 1.392 . S
C1085 C1089 1.495 . S
C1086 C1085 1.392 . S
C1086 C1087 1.385 . S
C1086 C1088 1.478 . S
C1087 H1081 0.930 . S
C1087 C1083 1.400 1_655 S
C1087 C1086 1.385 . S
C1088 C1086 1.478 . S
C1088 C1090 1.381 . S
C1088 C1094 1.383 . S
C1089 C1085 1.495 . S
C1089 H1095 0.959 . S
C1089 H1096 0.961 . S
C1089 H1097 0.960 . S
C1090 C1088 1.381 . S
C1090 C1091 1.394 . S
C1090 H1098 0.930 . S
C1091 C1090 1.394 . S
C1091 C1092 1.383 . S
C1091 H1099 0.929 . S
C1092 C1091 1.383 . S
C1092 C1093 1.377 . S
C1093 H1077 0.930 . S
C1093 C1092 1.377 . S
C1093 C1094 1.379 . S
C1094 H1078 0.931 . S
C1094 C1088 1.383 . S
C1094 C1093 1.379 . S
H1095 C1089 0.959 . S
H1096 C1089 0.961 . S
H1097 C1089 0.960 . S
H1098 C1090 0.930 . S
H1099 C1091 0.929 . S
H1100 C1108 0.929 . S
H1101 C1110 0.930 . S
H1102 C1112 0.930 . S
H1103 C1115 0.929 . S
H1104 C1118 0.930 . S
H1105 C1120 0.960 . S
H1106 C1120 0.960 . S
H1107 C1120 0.960 . S
C1108 H1100 0.929 . S
C1108 C1109 1.377 . S
C1108 C1110 1.384 . S
C1109 C1108 1.377 . S
C1109 C1115 1.390 . S
C1110 H1101 0.930 . S
C1110 C1108 1.384 . S
C1110 C1111 1.372 . S
C1111 C1110 1.372 . S
C1111 C1112 1.400 . S
C1111 C1116 1.490 . S
C1112 H1102 0.930 . S
C1112 C1111 1.400 . S
C1112 C1115 1.386 . S
H1113 C1129 0.930 . S
H1114 C1130 0.931 . S
C1115 H1103 0.929 . S
C1115 C1109 1.390 . S
C1115 C1112 1.386 . S
C1116 C1111 1.490 . S
C1116 C1118 1.395 . S
C1116 C1119 1.403 . S
H1117 C1123 0.930 . S
C1118 H1104 0.930 . S
C1118 C1116 1.395 . S
C1118 C1121 1.403 1_565 S
C1119 C1116 1.403 . S
C1119 C1120 1.524 . S
C1119 C1123 1.400 1_565 S
C1120 H1105 0.960 . S
C1120 H1106 0.960 . S
C1120 H1107 0.960 . S
C1120 C1119 1.524 . S
C1121 C1118 1.403 1_545 S
C1121 C1122 1.392 . S
C1121 C1125 1.495 . S
C1122 C1121 1.392 . S
C1122 C1123 1.385 . S
C1122 C1124 1.478 . S
C1123 H1117 0.930 . S
C1123 C1119 1.400 1_545 S
C1123 C1122 1.385 . S
C1124 C1122 1.478 . S
C1124 C1126 1.381 . S
C1124 C1130 1.383 . S
C1125 C1121 1.495 . S
C1125 H1131 0.959 . S
C1125 H1132 0.961 . S
C1125 H1133 0.960 . S
C1126 C1124 1.381 . S
C1126 C1127 1.394 . S
C1126 H1134 0.930 . S
C1127 C1126 1.394 . S
C1127 C1128 1.383 . S
C1127 H1135 0.929 . S
C1128 C1127 1.383 . S
C1128 C1129 1.377 . S
C1129 H1113 0.930 . S
C1129 C1128 1.377 . S
C1129 C1130 1.379 . S
C1130 H1114 0.931 . S
C1130 C1124 1.383 . S
C1130 C1129 1.379 . S
H1131 C1125 0.959 . S
H1132 C1125 0.961 . S
H1133 C1125 0.960 . S
H1134 C1126 0.930 . S
H1135 C1127 0.929 . S
H1136 C1144 0.929 . S
H1137 C1146 0.930 . S
H1138 C1148 0.930 . S
H1139 C1151 0.929 . S
H1140 C1154 0.930 . S
H1141 C1156 0.960 . S
H1142 C1156 0.960 . S
H1143 C1156 0.960 . S
C1144 H1136 0.929 . S
C1144 C1145 1.377 . S
C1144 C1146 1.384 . S
C1145 C1144 1.377 . S
C1145 C1151 1.390 . S
C1146 H1137 0.930 . S
C1146 C1144 1.384 . S
C1146 C1147 1.372 . S
C1147 C1146 1.372 . S
C1147 C1148 1.400 . S
C1147 C1152 1.490 . S
C1148 H1138 0.930 . S
C1148 C1147 1.400 . S
C1148 C1151 1.386 . S
H1149 C1165 0.930 . S
H1150 C1166 0.931 . S
C1151 H1139 0.929 . S
C1151 C1145 1.390 . S
C1151 C1148 1.386 . S
C1152 C1147 1.490 . S
C1152 C1154 1.395 . S
C1152 C1155 1.403 . S
H1153 C1159 0.930 . S
C1154 H1140 0.930 . S
C1154 C1152 1.395 . S
C1154 C1157 1.403 1_455 S
C1155 C1152 1.403 . S
C1155 C1156 1.524 . S
C1155 C1159 1.400 1_455 S
C1156 H1141 0.960 . S
C1156 H1142 0.960 . S
C1156 H1143 0.960 . S
C1156 C1155 1.524 . S
C1157 C1154 1.403 1_655 S
C1157 C1158 1.392 . S
C1157 C1161 1.495 . S
C1158 C1157 1.392 . S
C1158 C1159 1.385 . S
C1158 C1160 1.478 . S
C1159 H1153 0.930 . S
C1159 C1155 1.400 1_655 S
C1159 C1158 1.385 . S
C1160 C1158 1.478 . S
C1160 C1162 1.381 . S
C1160 C1166 1.383 . S
C1161 C1157 1.495 . S
C1161 H1167 0.959 . S
C1161 H1168 0.961 . S
C1161 H1169 0.960 . S
C1162 C1160 1.381 . S
C1162 C1163 1.394 . S
C1162 H1170 0.930 . S
C1163 C1162 1.394 . S
C1163 C1164 1.383 . S
C1163 H1171 0.929 . S
C1164 C1163 1.383 . S
C1164 C1165 1.377 . S
C1165 H1149 0.930 . S
C1165 C1164 1.377 . S
C1165 C1166 1.379 . S
C1166 H1150 0.931 . S
C1166 C1160 1.383 . S
C1166 C1165 1.379 . S
H1167 C1161 0.959 . S
H1168 C1161 0.961 . S
H1169 C1161 0.960 . S
H1170 C1162 0.930 . S
H1171 C1163 0.929 . S
H1172 C1180 0.929 . S
H1173 C1182 0.930 . S
H1174 C1184 0.930 . S
H1175 C1187 0.929 . S
H1176 C1190 0.930 . S
H1177 C1192 0.960 . S
H1178 C1192 0.960 . S
H1179 C1192 0.960 . S
C1180 H1172 0.929 . S
C1180 C1181 1.377 . S
C1180 C1182 1.384 . S
C1181 C1180 1.377 . S
C1181 C1187 1.390 . S
C1182 H1173 0.930 . S
C1182 C1180 1.384 . S
C1182 C1183 1.372 . S
C1183 C1182 1.372 . S
C1183 C1184 1.400 . S
C1183 C1188 1.490 . S
C1184 H1174 0.930 . S
C1184 C1183 1.400 . S
C1184 C1187 1.386 . S
H1185 C1201 0.930 . S
H1186 C1202 0.931 . S
C1187 H1175 0.929 . S
C1187 C1181 1.390 . S
C1187 C1184 1.386 . S
C1188 C1183 1.490 . S
C1188 C1190 1.395 . S
C1188 C1191 1.403 . S
H1189 C1195 0.930 . S
C1190 H1176 0.930 . S
C1190 C1188 1.395 . S
C1190 C1193 1.403 1_565 S
C1191 C1188 1.403 . S
C1191 C1192 1.524 . S
C1191 C1195 1.400 1_565 S
C1192 H1177 0.960 . S
C1192 H1178 0.960 . S
C1192 H1179 0.960 . S
C1192 C1191 1.524 . S
C1193 C1190 1.403 1_545 S
C1193 C1194 1.392 . S
C1193 C1197 1.495 . S
C1194 C1193 1.392 . S
C1194 C1195 1.385 . S
C1194 C1196 1.478 . S
C1195 H1189 0.930 . S
C1195 C1191 1.400 1_545 S
C1195 C1194 1.385 . S
C1196 C1194 1.478 . S
C1196 C1198 1.381 . S
C1196 C1202 1.383 . S
C1197 C1193 1.495 . S
C1197 H1203 0.959 . S
C1197 H1204 0.961 . S
C1197 H1205 0.960 . S
C1198 C1196 1.381 . S
C1198 C1199 1.394 . S
C1198 H1206 0.930 . S
C1199 C1198 1.394 . S
C1199 C1200 1.383 . S
C1199 H1207 0.929 . S
C1200 C1199 1.383 . S
C1200 C1201 1.377 . S
C1201 H1185 0.930 . S
C1201 C1200 1.377 . S
C1201 C1202 1.379 . S
C1202 H1186 0.931 . S
C1202 C1196 1.383 . S
C1202 C1201 1.379 . S
H1203 C1197 0.959 . S
H1204 C1197 0.961 . S
H1205 C1197 0.960 . S
H1206 C1198 0.930 . S
H1207 C1199 0.929 . S
H1208 C1216 0.929 . S
H1209 C1218 0.930 . S
H1210 C1220 0.930 . S
H1211 C1223 0.929 . S
H1212 C1226 0.930 . S
H1213 C1228 0.960 . S
H1214 C1228 0.960 . S
H1215 C1228 0.960 . S
C1216 H1208 0.929 . S
C1216 C1217 1.377 . S
C1216 C1218 1.384 . S
C1217 C1216 1.377 . S
C1217 C1223 1.390 . S
C1218 H1209 0.930 . S
C1218 C1216 1.384 . S
C1218 C1219 1.372 . S
C1219 C1218 1.372 . S
C1219 C1220 1.400 . S
C1219 C1224 1.490 . S
C1220 H1210 0.930 . S
C1220 C1219 1.400 . S
C1220 C1223 1.386 . S
H1221 C1237 0.930 . S
H1222 C1238 0.931 . S
C1223 H1211 0.929 . S
C1223 C1217 1.390 . S
C1223 C1220 1.386 . S
C1224 C1219 1.490 . S
C1224 C1226 1.395 . S
C1224 C1227 1.403 . S
H1225 C1231 0.930 . S
C1226 H1212 0.930 . S
C1226 C1224 1.395 . S
C1226 C1229 1.403 1_455 S
C1227 C1224 1.403 . S
C1227 C1228 1.524 . S
C1227 C1231 1.400 1_455 S
C1228 H1213 0.960 . S
C1228 H1214 0.960 . S
C1228 H1215 0.960 . S
C1228 C1227 1.524 . S
C1229 C1226 1.403 1_655 S
C1229 C1230 1.392 . S
C1229 C1233 1.495 . S
C1230 C1229 1.392 . S
C1230 C1231 1.385 . S
C1230 C1232 1.478 . S
C1231 H1225 0.930 . S
C1231 C1227 1.400 1_655 S
C1231 C1230 1.385 . S
C1232 C1230 1.478 . S
C1232 C1234 1.381 . S
C1232 C1238 1.383 . S
C1233 C1229 1.495 . S
C1233 H1239 0.959 . S
C1233 H1240 0.961 . S
C1233 H1241 0.960 . S
C1234 C1232 1.381 . S
C1234 C1235 1.394 . S
C1234 H1242 0.930 . S
C1235 C1234 1.394 . S
C1235 C1236 1.383 . S
C1235 H1243 0.929 . S
C1236 C1235 1.383 . S
C1236 C1237 1.377 . S
C1237 H1221 0.930 . S
C1237 C1236 1.377 . S
C1237 C1238 1.379 . S
C1238 H1222 0.931 . S
C1238 C1232 1.383 . S
C1238 C1237 1.379 . S
H1239 C1233 0.959 . S
H1240 C1233 0.961 . S
H1241 C1233 0.960 . S
H1242 C1234 0.930 . S
H1243 C1235 0.929 . S
H1244 C1252 0.929 . S
H1245 C1254 0.930 . S
H1246 C1256 0.930 . S
H1247 C1259 0.929 . S
H1248 C1262 0.930 . S
H1249 C1264 0.960 . S
H1250 C1264 0.960 . S
H1251 C1264 0.960 . S
C1252 H1244 0.929 . S
C1252 C1253 1.377 . S
C1252 C1254 1.384 . S
C1253 C1252 1.377 . S
C1253 C1259 1.390 . S
C1254 H1245 0.930 . S
C1254 C1252 1.384 . S
C1254 C1255 1.372 . S
C1255 C1254 1.372 . S
C1255 C1256 1.400 . S
C1255 C1260 1.490 . S
C1256 H1246 0.930 . S
C1256 C1255 1.400 . S
C1256 C1259 1.386 . S
H1257 C1273 0.930 . S
H1258 C1274 0.931 . S
C1259 H1247 0.929 . S
C1259 C1253 1.390 . S
C1259 C1256 1.386 . S
C1260 C1255 1.490 . S
C1260 C1262 1.395 . S
C1260 C1263 1.403 . S
H1261 C1267 0.930 . S
C1262 H1248 0.930 . S
C1262 C1260 1.395 . S
C1262 C1265 1.403 1_545 S
C1263 C1260 1.403 . S
C1263 C1264 1.524 . S
C1263 C1267 1.400 1_545 S
C1264 H1249 0.960 . S
C1264 H1250 0.960 . S
C1264 H1251 0.960 . S
C1264 C1263 1.524 . S
C1265 C1262 1.403 1_565 S
C1265 C1266 1.392 . S
C1265 C1269 1.495 . S
C1266 C1265 1.392 . S
C1266 C1267 1.385 . S
C1266 C1268 1.478 . S
C1267 H1261 0.930 . S
C1267 C1263 1.400 1_565 S
C1267 C1266 1.385 . S
C1268 C1266 1.478 . S
C1268 C1270 1.381 . S
C1268 C1274 1.383 . S
C1269 C1265 1.495 . S
C1269 H1275 0.959 . S
C1269 H1276 0.961 . S
C1269 H1277 0.960 . S
C1270 C1268 1.381 . S
C1270 C1271 1.394 . S
C1270 H1278 0.930 . S
C1271 C1270 1.394 . S
C1271 C1272 1.383 . S
C1271 H1279 0.929 . S
C1272 C1271 1.383 . S
C1272 C1273 1.377 . S
C1273 H1257 0.930 . S
C1273 C1272 1.377 . S
C1273 C1274 1.379 . S
C1274 H1258 0.931 . S
C1274 C1268 1.383 . S
C1274 C1273 1.379 . S
H1275 C1269 0.959 . S
H1276 C1269 0.961 . S
H1277 C1269 0.960 . S
H1278 C1270 0.930 . S
H1279 C1271 0.929 . S
H1280 C1288 0.929 . S
H1281 C1290 0.930 . S
H1282 C1292 0.930 . S
H1283 C1295 0.929 . S
H1284 C1298 0.930 . S
H1285 C1300 0.960 . S
H1286 C1300 0.960 . S
H1287 C1300 0.960 . S
C1288 H1280 0.929 . S
C1288 C1289 1.377 . S
C1288 C1290 1.384 . S
C1289 C1288 1.377 . S
C1289 C1295 1.390 . S
C1290 H1281 0.930 . S
C1290 C1288 1.384 . S
C1290 C1291 1.372 . S
C1291 C1290 1.372 . S
C1291 C1292 1.400 . S
C1291 C1296 1.490 . S
C1292 H1282 0.930 . S
C1292 C1291 1.400 . S
C1292 C1295 1.386 . S
H1293 C1309 0.930 . S
H1294 C1310 0.931 . S
C1295 H1283 0.929 . S
C1295 C1289 1.390 . S
C1295 C1292 1.386 . S
C1296 C1291 1.490 . S
C1296 C1298 1.395 . S
C1296 C1299 1.403 . S
H1297 C1303 0.930 . S
C1298 H1284 0.930 . S
C1298 C1296 1.395 . S
C1298 C1301 1.403 . S
C1299 C1296 1.403 . S
C1299 C1300 1.524 . S
C1299 C1303 1.400 . S
C1300 H1285 0.960 . S
C1300 H1286 0.960 . S
C1300 H1287 0.960 . S
C1300 C1299 1.524 . S
C1301 C1298 1.403 . S
C1301 C1302 1.392 . S
C1301 C1305 1.495 . S
C1302 C1301 1.392 . S
C1302 C1303 1.385 . S
C1302 C1304 1.478 . S
C1303 H1297 0.930 . S
C1303 C1299 1.400 . S
C1303 C1302 1.385 . S
C1304 C1302 1.478 . S
C1304 C1306 1.381 . S
C1304 C1310 1.383 . S
C1305 C1301 1.495 . S
C1305 H1311 0.959 . S
C1305 H1312 0.961 . S
C1305 H1313 0.960 . S
C1306 C1304 1.381 . S
C1306 C1307 1.394 . S
C1306 H1314 0.930 . S
C1307 C1306 1.394 . S
C1307 C1308 1.383 . S
C1307 H1315 0.929 . S
C1308 C1307 1.383 . S
C1308 C1309 1.377 . S
C1309 H1293 0.930 . S
C1309 C1308 1.377 . S
C1309 C1310 1.379 . S
C1310 H1294 0.931 . S
C1310 C1304 1.383 . S
C1310 C1309 1.379 . S
H1311 C1305 0.959 . S
H1312 C1305 0.961 . S
H1313 C1305 0.960 . S
H1314 C1306 0.930 . S
H1315 C1307 0.929 . S
H1316 C1324 0.929 . S
H1317 C1326 0.930 . S
H1318 C1328 0.930 . S
H1319 C1331 0.929 . S
H1320 C1334 0.930 . S
H1321 C1336 0.960 . S
H1322 C1336 0.960 . S
H1323 C1336 0.960 . S
C1324 H1316 0.929 . S
C1324 C1325 1.377 . S
C1324 C1326 1.384 . S
C1325 C1324 1.377 . S
C1325 C1331 1.390 . S
C1326 H1317 0.930 . S
C1326 C1324 1.384 . S
C1326 C1327 1.372 . S
C1327 C1326 1.372 . S
C1327 C1328 1.400 . S
C1327 C1332 1.490 . S
C1328 H1318 0.930 . S
C1328 C1327 1.400 . S
C1328 C1331 1.386 . S
H1329 C1345 0.930 . S
H1330 C1346 0.931 . S
C1331 H1319 0.929 . S
C1331 C1325 1.390 . S
C1331 C1328 1.386 . S
C1332 C1327 1.490 . S
C1332 C1334 1.395 . S
C1332 C1335 1.403 . S
H1333 C1339 0.930 . S
C1334 H1320 0.930 . S
C1334 C1332 1.395 . S
C1334 C1337 1.403 . S
C1335 C1332 1.403 . S
C1335 C1336 1.524 . S
C1335 C1339 1.400 . S
C1336 H1321 0.960 . S
C1336 H1322 0.960 . S
C1336 H1323 0.960 . S
C1336 C1335 1.524 . S
C1337 C1334 1.403 . S
C1337 C1338 1.392 . S
C1337 C1341 1.495 . S
C1338 C1337 1.392 . S
C1338 C1339 1.385 . S
C1338 C1340 1.478 . S
C1339 H1333 0.930 . S
C1339 C1335 1.400 . S
C1339 C1338 1.385 . S
C1340 C1338 1.478 . S
C1340 C1342 1.381 . S
C1340 C1346 1.383 . S
C1341 C1337 1.495 . S
C1341 H1347 0.959 . S
C1341 H1348 0.961 . S
C1341 H1349 0.960 . S
C1342 C1340 1.381 . S
C1342 C1343 1.394 . S
C1342 H1350 0.930 . S
C1343 C1342 1.394 . S
C1343 C1344 1.383 . S
C1343 H1351 0.929 . S
C1344 C1343 1.383 . S
C1344 C1345 1.377 . S
C1345 H1329 0.930 . S
C1345 C1344 1.377 . S
C1345 C1346 1.379 . S
C1346 H1330 0.931 . S
C1346 C1340 1.383 . S
C1346 C1345 1.379 . S
H1347 C1341 0.959 . S
H1348 C1341 0.961 . S
H1349 C1341 0.960 . S
H1350 C1342 0.930 . S
H1351 C1343 0.929 . S
H1352 C1360 0.929 . S
H1353 C1362 0.930 . S
H1354 C1364 0.930 . S
H1355 C1367 0.929 . S
H1356 C1370 0.930 . S
H1357 C1372 0.960 . S
H1358 C1372 0.960 . S
H1359 C1372 0.960 . S
C1360 H1352 0.929 . S
C1360 C1361 1.377 . S
C1360 C1362 1.384 . S
C1361 C1360 1.377 . S
C1361 C1367 1.390 . S
C1362 H1353 0.930 . S
C1362 C1360 1.384 . S
C1362 C1363 1.372 . S
C1363 C1362 1.372 . S
C1363 C1364 1.400 . S
C1363 C1368 1.490 . S
C1364 H1354 0.930 . S
C1364 C1363 1.400 . S
C1364 C1367 1.386 . S
H1365 C1381 0.930 . S
H1366 C1382 0.931 . S
C1367 H1355 0.929 . S
C1367 C1361 1.390 . S
C1367 C1364 1.386 . S
C1368 C1363 1.490 . S
C1368 C1370 1.395 . S
C1368 C1371 1.403 . S
H1369 C1375 0.930 . S
C1370 H1356 0.930 . S
C1370 C1368 1.395 . S
C1370 C1373 1.403 . S
C1371 C1368 1.403 . S
C1371 C1372 1.524 . S
C1371 C1375 1.400 . S
C1372 H1357 0.960 . S
C1372 H1358 0.960 . S
C1372 H1359 0.960 . S
C1372 C1371 1.524 . S
C1373 C1370 1.403 . S
C1373 C1374 1.392 . S
C1373 C1377 1.495 . S
C1374 C1373 1.392 . S
C1374 C1375 1.385 . S
C1374 C1376 1.478 . S
C1375 H1369 0.930 . S
C1375 C1371 1.400 . S
C1375 C1374 1.385 . S
C1376 C1374 1.478 . S
C1376 C1378 1.381 . S
C1376 C1382 1.383 . S
C1377 C1373 1.495 . S
C1377 H1383 0.959 . S
C1377 H1384 0.961 . S
C1377 H1385 0.960 . S
C1378 C1376 1.381 . S
C1378 C1379 1.394 . S
C1378 H1386 0.930 . S
C1379 C1378 1.394 . S
C1379 C1380 1.383 . S
C1379 H1387 0.929 . S
C1380 C1379 1.383 . S
C1380 C1381 1.377 . S
C1381 H1365 0.930 . S
C1381 C1380 1.377 . S
C1381 C1382 1.379 . S
C1382 H1366 0.931 . S
C1382 C1376 1.383 . S
C1382 C1381 1.379 . S
H1383 C1377 0.959 . S
H1384 C1377 0.961 . S
H1385 C1377 0.960 . S
H1386 C1378 0.930 . S
H1387 C1379 0.929 . S
H1388 C1396 0.929 . S
H1389 C1398 0.930 . S
H1390 C1400 0.930 . S
H1391 C1403 0.929 . S
H1392 C1406 0.930 . S
H1393 C1408 0.960 . S
H1394 C1408 0.960 . S
H1395 C1408 0.960 . S
C1396 H1388 0.929 . S
C1396 C1397 1.377 . S
C1396 C1398 1.384 . S
C1397 C1396 1.377 . S
C1397 C1403 1.390 . S
C1398 H1389 0.930 . S
C1398 C1396 1.384 . S
C1398 C1399 1.372 . S
C1399 C1398 1.372 . S
C1399 C1400 1.400 . S
C1399 C1404 1.490 . S
C1400 H1390 0.930 . S
C1400 C1399 1.400 . S
C1400 C1403 1.386 . S
H1401 C1417 0.930 . S
H1402 C1418 0.931 . S
C1403 H1391 0.929 . S
C1403 C1397 1.390 . S
C1403 C1400 1.386 . S
C1404 C1399 1.490 . S
C1404 C1406 1.395 . S
C1404 C1407 1.403 . S
H1405 C1411 0.930 . S
C1406 H1392 0.930 . S
C1406 C1404 1.395 . S
C1406 C1409 1.403 . S
C1407 C1404 1.403 . S
C1407 C1408 1.524 . S
C1407 C1411 1.400 . S
C1408 H1393 0.960 . S
C1408 H1394 0.960 . S
C1408 H1395 0.960 . S
C1408 C1407 1.524 . S
C1409 C1406 1.403 . S
C1409 C1410 1.392 . S
C1409 C1413 1.495 . S
C1410 C1409 1.392 . S
C1410 C1411 1.385 . S
C1410 C1412 1.478 . S
C1411 H1405 0.930 . S
C1411 C1407 1.400 . S
C1411 C1410 1.385 . S
C1412 C1410 1.478 . S
C1412 C1414 1.381 . S
C1412 C1418 1.383 . S
C1413 C1409 1.495 . S
C1413 H1419 0.959 . S
C1413 H1420 0.961 . S
C1413 H1421 0.960 . S
C1414 C1412 1.381 . S
C1414 C1415 1.394 . S
C1414 H1422 0.930 . S
C1415 C1414 1.394 . S
C1415 C1416 1.383 . S
C1415 H1423 0.929 . S
C1416 C1415 1.383 . S
C1416 C1417 1.377 . S
C1417 H1401 0.930 . S
C1417 C1416 1.377 . S
C1417 C1418 1.379 . S
C1418 H1402 0.931 . S
C1418 C1412 1.383 . S
C1418 C1417 1.379 . S
H1419 C1413 0.959 . S
H1420 C1413 0.961 . S
H1421 C1413 0.960 . S
H1422 C1414 0.930 . S
H1423 C1415 0.929 . S
H1424 C1432 0.929 . S
H1425 C1434 0.930 . S
H1426 C1436 0.930 . S
H1427 C1439 0.929 . S
H1428 C1442 0.930 . S
H1429 C1444 0.960 . S
H1430 C1444 0.960 . S
H1431 C1444 0.960 . S
C1432 H1424 0.929 . S
C1432 C1433 1.377 . S
C1432 C1434 1.384 . S
C1433 C1432 1.377 . S
C1433 C1439 1.390 . S
C1434 H1425 0.930 . S
C1434 C1432 1.384 . S
C1434 C1435 1.372 . S
C1435 C1434 1.372 . S
C1435 C1436 1.400 . S
C1435 C1440 1.490 . S
C1436 H1426 0.930 . S
C1436 C1435 1.400 . S
C1436 C1439 1.386 . S
H1437 C1453 0.930 . S
H1438 C1454 0.931 . S
C1439 H1427 0.929 . S
C1439 C1433 1.390 . S
C1439 C1436 1.386 . S
C1440 C1435 1.490 . S
C1440 C1442 1.395 . S
C1440 C1443 1.403 . S
H1441 C1447 0.930 . S
C1442 H1428 0.930 . S
C1442 C1440 1.395 . S
C1442 C1445 1.403 . S
C1443 C1440 1.403 . S
C1443 C1444 1.524 . S
C1443 C1447 1.400 . S
C1444 H1429 0.960 . S
C1444 H1430 0.960 . S
C1444 H1431 0.960 . S
C1444 C1443 1.524 . S
C1445 C1442 1.403 . S
C1445 C1446 1.392 . S
C1445 C1449 1.495 . S
C1446 C1445 1.392 . S
C1446 C1447 1.385 . S
C1446 C1448 1.478 . S
C1447 H1441 0.930 . S
C1447 C1443 1.400 . S
C1447 C1446 1.385 . S
C1448 C1446 1.478 . S
C1448 C1450 1.381 . S
C1448 C1454 1.383 . S
C1449 C1445 1.495 . S
C1449 H1455 0.959 . S
C1449 H1456 0.961 . S
C1449 H1457 0.960 . S
C1450 C1448 1.381 . S
C1450 C1451 1.394 . S
C1450 H1458 0.930 . S
C1451 C1450 1.394 . S
C1451 C1452 1.383 . S
C1451 H1459 0.929 . S
C1452 C1451 1.383 . S
C1452 C1453 1.377 . S
C1453 H1437 0.930 . S
C1453 C1452 1.377 . S
C1453 C1454 1.379 . S
C1454 H1438 0.931 . S
C1454 C1448 1.383 . S
C1454 C1453 1.379 . S
H1455 C1449 0.959 . S
H1456 C1449 0.961 . S
H1457 C1449 0.960 . S
H1458 C1450 0.930 . S
H1459 C1451 0.929 . S
H1460 C1468 0.929 . S
H1461 C1470 0.930 . S
H1462 C1472 0.930 . S
H1463 C1475 0.929 . S
H1464 C1478 0.930 . S
H1465 C1480 0.960 . S
H1466 C1480 0.960 . S
H1467 C1480 0.960 . S
C1468 H1460 0.929 . S
C1468 C1469 1.377 . S
C1468 C1470 1.384 . S
C1469 C1468 1.377 . S
C1469 C1475 1.390 . S
C1470 H1461 0.930 . S
C1470 C1468 1.384 . S
C1470 C1471 1.372 . S
C1471 C1470 1.372 . S
C1471 C1472 1.400 . S
C1471 C1476 1.490 . S
C1472 H1462 0.930 . S
C1472 C1471 1.400 . S
C1472 C1475 1.386 . S
H1473 C1489 0.930 . S
H1474 C1490 0.931 . S
C1475 H1463 0.929 . S
C1475 C1469 1.390 . S
C1475 C1472 1.386 . S
C1476 C1471 1.490 . S
C1476 C1478 1.395 . S
C1476 C1479 1.403 . S
H1477 C1483 0.930 . S
C1478 H1464 0.930 . S
C1478 C1476 1.395 . S
C1478 C1481 1.403 . S
C1479 C1476 1.403 . S
C1479 C1480 1.524 . S
C1479 C1483 1.400 . S
C1480 H1465 0.960 . S
C1480 H1466 0.960 . S
C1480 H1467 0.960 . S
C1480 C1479 1.524 . S
C1481 C1478 1.403 . S
C1481 C1482 1.392 . S
C1481 C1485 1.495 . S
C1482 C1481 1.392 . S
C1482 C1483 1.385 . S
C1482 C1484 1.478 . S
C1483 H1477 0.930 . S
C1483 C1479 1.400 . S
C1483 C1482 1.385 . S
C1484 C1482 1.478 . S
C1484 C1486 1.381 . S
C1484 C1490 1.383 . S
C1485 C1481 1.495 . S
C1485 H1491 0.959 . S
C1485 H1492 0.961 . S
C1485 H1493 0.960 . S
C1486 C1484 1.381 . S
C1486 C1487 1.394 . S
C1486 H1494 0.930 . S
C1487 C1486 1.394 . S
C1487 C1488 1.383 . S
C1487 H1495 0.929 . S
C1488 C1487 1.383 . S
C1488 C1489 1.377 . S
C1489 H1473 0.930 . S
C1489 C1488 1.377 . S
C1489 C1490 1.379 . S
C1490 H1474 0.931 . S
C1490 C1484 1.383 . S
C1490 C1489 1.379 . S
H1491 C1485 0.959 . S
H1492 C1485 0.961 . S
H1493 C1485 0.960 . S
H1494 C1486 0.930 . S
H1495 C1487 0.929 . S
H1496 C1504 0.929 . S
H1497 C1506 0.930 . S
H1498 C1508 0.930 . S
H1499 C1511 0.929 . S
H1500 C1514 0.930 . S
H1501 C1516 0.960 . S
H1502 C1516 0.960 . S
H1503 C1516 0.960 . S
C1504 H1496 0.929 . S
C1504 C1505 1.377 . S
C1504 C1506 1.384 . S
C1505 C1504 1.377 . S
C1505 C1511 1.390 . S
C1506 H1497 0.930 . S
C1506 C1504 1.384 . S
C1506 C1507 1.372 . S
C1507 C1506 1.372 . S
C1507 C1508 1.400 . S
C1507 C1512 1.490 . S
C1508 H1498 0.930 . S
C1508 C1507 1.400 . S
C1508 C1511 1.386 . S
H1509 C1525 0.930 . S
H1510 C1526 0.931 . S
C1511 H1499 0.929 . S
C1511 C1505 1.390 . S
C1511 C1508 1.386 . S
C1512 C1507 1.490 . S
C1512 C1514 1.395 . S
C1512 C1515 1.403 . S
H1513 C1519 0.930 . S
C1514 H1500 0.930 . S
C1514 C1512 1.395 . S
C1514 C1517 1.403 . S
C1515 C1512 1.403 . S
C1515 C1516 1.524 . S
C1515 C1519 1.400 . S
C1516 H1501 0.960 . S
C1516 H1502 0.960 . S
C1516 H1503 0.960 . S
C1516 C1515 1.524 . S
C1517 C1514 1.403 . S
C1517 C1518 1.392 . S
C1517 C1521 1.495 . S
C1518 C1517 1.392 . S
C1518 C1519 1.385 . S
C1518 C1520 1.478 . S
C1519 H1513 0.930 . S
C1519 C1515 1.400 . S
C1519 C1518 1.385 . S
C1520 C1518 1.478 . S
C1520 C1522 1.381 . S
C1520 C1526 1.383 . S
C1521 C1517 1.495 . S
C1521 H1527 0.959 . S
C1521 H1528 0.961 . S
C1521 H1529 0.960 . S
C1522 C1520 1.381 . S
C1522 C1523 1.394 . S
C1522 H1530 0.930 . S
C1523 C1522 1.394 . S
C1523 C1524 1.383 . S
C1523 H1531 0.929 . S
C1524 C1523 1.383 . S
C1524 C1525 1.377 . S
C1525 H1509 0.930 . S
C1525 C1524 1.377 . S
C1525 C1526 1.379 . S
C1526 H1510 0.931 . S
C1526 C1520 1.383 . S
C1526 C1525 1.379 . S
H1527 C1521 0.959 . S
H1528 C1521 0.961 . S
H1529 C1521 0.960 . S
H1530 C1522 0.930 . S
H1531 C1523 0.929 . S
H1532 C1540 0.929 . S
H1533 C1542 0.930 . S
H1534 C1544 0.930 . S
H1535 C1547 0.929 . S
H1536 C1550 0.930 . S
H1537 C1552 0.960 . S
H1538 C1552 0.960 . S
H1539 C1552 0.960 . S
C1540 H1532 0.929 . S
C1540 C1541 1.377 . S
C1540 C1542 1.384 . S
C1541 C1540 1.377 . S
C1541 C1547 1.390 . S
C1542 H1533 0.930 . S
C1542 C1540 1.384 . S
C1542 C1543 1.372 . S
C1543 C1542 1.372 . S
C1543 C1544 1.400 . S
C1543 C1548 1.490 . S
C1544 H1534 0.930 . S
C1544 C1543 1.400 . S
C1544 C1547 1.386 . S
H1545 C1561 0.930 . S
H1546 C1562 0.931 . S
C1547 H1535 0.929 . S
C1547 C1541 1.390 . S
C1547 C1544 1.386 . S
C1548 C1543 1.490 . S
C1548 C1550 1.395 . S
C1548 C1551 1.403 . S
H1549 C1555 0.930 . S
C1550 H1536 0.930 . S
C1550 C1548 1.395 . S
C1550 C1553 1.403 . S
C1551 C1548 1.403 . S
C1551 C1552 1.524 . S
C1551 C1555 1.400 . S
C1552 H1537 0.960 . S
C1552 H1538 0.960 . S
C1552 H1539 0.960 . S
C1552 C1551 1.524 . S
C1553 C1550 1.403 . S
C1553 C1554 1.392 . S
C1553 C1557 1.495 . S
C1554 C1553 1.392 . S
C1554 C1555 1.385 . S
C1554 C1556 1.478 . S
C1555 H1549 0.930 . S
C1555 C1551 1.400 . S
C1555 C1554 1.385 . S
C1556 C1554 1.478 . S
C1556 C1558 1.381 . S
C1556 C1562 1.383 . S
C1557 C1553 1.495 . S
C1557 H1563 0.959 . S
C1557 H1564 0.961 . S
C1557 H1565 0.960 . S
C1558 C1556 1.381 . S
C1558 C1559 1.394 . S
C1558 H1566 0.930 . S
C1559 C1558 1.394 . S
C1559 C1560 1.383 . S
C1559 H1567 0.929 . S
C1560 C1559 1.383 . S
C1560 C1561 1.377 . S
C1561 H1545 0.930 . S
C1561 C1560 1.377 . S
C1561 C1562 1.379 . S
C1562 H1546 0.931 . S
C1562 C1556 1.383 . S
C1562 C1561 1.379 . S
H1563 C1557 0.959 . S
H1564 C1557 0.961 . S
H1565 C1557 0.960 . S
H1566 C1558 0.930 . S
H1567 C1559 0.929 . S
H1568 C1576 0.929 . S
H1569 C1578 0.930 . S
H1570 C1580 0.930 . S
H1571 C1583 0.929 . S
H1572 C1586 0.930 . S
H1573 C1588 0.960 . S
H1574 C1588 0.960 . S
H1575 C1588 0.960 . S
C1576 H1568 0.929 . S
C1576 C1577 1.377 . S
C1576 C1578 1.384 . S
C1577 C1576 1.377 . S
C1577 C1583 1.390 . S
C1578 H1569 0.930 . S
C1578 C1576 1.384 . S
C1578 C1579 1.372 . S
C1579 C1578 1.372 . S
C1579 C1580 1.400 . S
C1579 C1584 1.490 . S
C1580 H1570 0.930 . S
C1580 C1579 1.400 . S
C1580 C1583 1.386 . S
H1581 C1597 0.930 . S
H1582 C1598 0.931 . S
C1583 H1571 0.929 . S
C1583 C1577 1.390 . S
C1583 C1580 1.386 . S
C1584 C1579 1.490 . S
C1584 C1586 1.395 . S
C1584 C1587 1.403 . S
H1585 C1591 0.930 . S
C1586 H1572 0.930 . S
C1586 C1584 1.395 . S
C1586 C1589 1.403 . S
C1587 C1584 1.403 . S
C1587 C1588 1.524 . S
C1587 C1591 1.400 . S
C1588 H1573 0.960 . S
C1588 H1574 0.960 . S
C1588 H1575 0.960 . S
C1588 C1587 1.524 . S
C1589 C1586 1.403 . S
C1589 C1590 1.392 . S
C1589 C1593 1.495 . S
C1590 C1589 1.392 . S
C1590 C1591 1.385 . S
C1590 C1592 1.478 . S
C1591 H1585 0.930 . S
C1591 C1587 1.400 . S
C1591 C1590 1.385 . S
C1592 C1590 1.478 . S
C1592 C1594 1.381 . S
C1592 C1598 1.383 . S
C1593 C1589 1.495 . S
C1593 H1599 0.959 . S
C1593 H1600 0.961 . S
C1593 H1601 0.960 . S
C1594 C1592 1.381 . S
C1594 C1595 1.394 . S
C1594 H1602 0.930 . S
C1595 C1594 1.394 . S
C1595 C1596 1.383 . S
C1595 H1603 0.929 . S
C1596 C1595 1.383 . S
C1596 C1597 1.377 . S
C1597 H1581 0.930 . S
C1597 C1596 1.377 . S
C1597 C1598 1.379 . S
C1598 H1582 0.931 . S
C1598 C1592 1.383 . S
C1598 C1597 1.379 . S
H1599 C1593 0.959 . S
H1600 C1593 0.961 . S
H1601 C1593 0.960 . S
H1602 C1594 0.930 . S
H1603 C1595 0.929 . S
H1604 C1612 0.929 . S
H1605 C1614 0.930 . S
H1606 C1616 0.930 . S
H1607 C1619 0.929 . S
H1608 C1622 0.930 . S
H1609 C1624 0.960 . S
H1610 C1624 0.960 . S
H1611 C1624 0.960 . S
C1612 H1604 0.929 . S
C1612 C1613 1.377 . S
C1612 C1614 1.384 . S
C1613 C1612 1.377 . S
C1613 C1619 1.390 . S
C1614 H1605 0.930 . S
C1614 C1612 1.384 . S
C1614 C1615 1.372 . S
C1615 C1614 1.372 . S
C1615 C1616 1.400 . S
C1615 C1620 1.490 . S
C1616 H1606 0.930 . S
C1616 C1615 1.400 . S
C1616 C1619 1.386 . S
H1617 C1633 0.930 . S
H1618 C1634 0.931 . S
C1619 H1607 0.929 . S
C1619 C1613 1.390 . S
C1619 C1616 1.386 . S
C1620 C1615 1.490 . S
C1620 C1622 1.395 . S
C1620 C1623 1.403 . S
H1621 C1627 0.930 . S
C1622 H1608 0.930 . S
C1622 C1620 1.395 . S
C1622 C1625 1.403 . S
C1623 C1620 1.403 . S
C1623 C1624 1.524 . S
C1623 C1627 1.400 . S
C1624 H1609 0.960 . S
C1624 H1610 0.960 . S
C1624 H1611 0.960 . S
C1624 C1623 1.524 . S
C1625 C1622 1.403 . S
C1625 C1626 1.392 . S
C1625 C1629 1.495 . S
C1626 C1625 1.392 . S
C1626 C1627 1.385 . S
C1626 C1628 1.478 . S
C1627 H1621 0.930 . S
C1627 C1623 1.400 . S
C1627 C1626 1.385 . S
C1628 C1626 1.478 . S
C1628 C1630 1.381 . S
C1628 C1634 1.383 . S
C1629 C1625 1.495 . S
C1629 H1635 0.959 . S
C1629 H1636 0.961 . S
C1629 H1637 0.960 . S
C1630 C1628 1.381 . S
C1630 C1631 1.394 . S
C1630 H1638 0.930 . S
C1631 C1630 1.394 . S
C1631 C1632 1.383 . S
C1631 H1639 0.929 . S
C1632 C1631 1.383 . S
C1632 C1633 1.377 . S
C1633 H1617 0.930 . S
C1633 C1632 1.377 . S
C1633 C1634 1.379 . S
C1634 H1618 0.931 . S
C1634 C1628 1.383 . S
C1634 C1633 1.379 . S
H1635 C1629 0.959 . S
H1636 C1629 0.961 . S
H1637 C1629 0.960 . S
H1638 C1630 0.930 . S
H1639 C1631 0.929 . S
H1640 C1648 0.929 . S
H1641 C1650 0.930 . S
H1642 C1652 0.930 . S
H1643 C1655 0.929 . S
H1644 C1658 0.930 . S
H1645 C1660 0.960 . S
H1646 C1660 0.960 . S
H1647 C1660 0.960 . S
C1648 H1640 0.929 . S
C1648 C1649 1.377 . S
C1648 C1650 1.384 . S
C1649 C1648 1.377 . S
C1649 C1655 1.390 . S
C1650 H1641 0.930 . S
C1650 C1648 1.384 . S
C1650 C1651 1.372 . S
C1651 C1650 1.372 . S
C1651 C1652 1.400 . S
C1651 C1656 1.490 . S
C1652 H1642 0.930 . S
C1652 C1651 1.400 . S
C1652 C1655 1.386 . S
H1653 C1669 0.930 . S
H1654 C1670 0.931 . S
C1655 H1643 0.929 . S
C1655 C1649 1.390 . S
C1655 C1652 1.386 . S
C1656 C1651 1.490 . S
C1656 C1658 1.395 . S
C1656 C1659 1.403 . S
H1657 C1663 0.930 . S
C1658 H1644 0.930 . S
C1658 C1656 1.395 . S
C1658 C1661 1.403 . S
C1659 C1656 1.403 . S
C1659 C1660 1.524 . S
C1659 C1663 1.400 . S
C1660 H1645 0.960 . S
C1660 H1646 0.960 . S
C1660 H1647 0.960 . S
C1660 C1659 1.524 . S
C1661 C1658 1.403 . S
C1661 C1662 1.392 . S
C1661 C1665 1.495 . S
C1662 C1661 1.392 . S
C1662 C1663 1.385 . S
C1662 C1664 1.478 . S
C1663 H1657 0.930 . S
C1663 C1659 1.400 . S
C1663 C1662 1.385 . S
C1664 C1662 1.478 . S
C1664 C1666 1.381 . S
C1664 C1670 1.383 . S
C1665 C1661 1.495 . S
C1665 H1671 0.959 . S
C1665 H1672 0.961 . S
C1665 H1673 0.960 . S
C1666 C1664 1.381 . S
C1666 C1667 1.394 . S
C1666 H1674 0.930 . S
C1667 C1666 1.394 . S
C1667 C1668 1.383 . S
C1667 H1675 0.929 . S
C1668 C1667 1.383 . S
C1668 C1669 1.377 . S
C1669 H1653 0.930 . S
C1669 C1668 1.377 . S
C1669 C1670 1.379 . S
C1670 H1654 0.931 . S
C1670 C1664 1.383 . S
C1670 C1669 1.379 . S
H1671 C1665 0.959 . S
H1672 C1665 0.961 . S
H1673 C1665 0.960 . S
H1674 C1666 0.930 . S
H1675 C1667 0.929 . S
H1676 C1684 0.929 . S
H1677 C1686 0.930 . S
H1678 C1688 0.930 . S
H1679 C1691 0.929 . S
H1680 C1694 0.930 . S
H1681 C1696 0.960 . S
H1682 C1696 0.960 . S
H1683 C1696 0.960 . S
C1684 H1676 0.929 . S
C1684 C1685 1.377 . S
C1684 C1686 1.384 . S
C1685 C1684 1.377 . S
C1685 C1691 1.390 . S
C1686 H1677 0.930 . S
C1686 C1684 1.384 . S
C1686 C1687 1.372 . S
C1687 C1686 1.372 . S
C1687 C1688 1.400 . S
C1687 C1692 1.490 . S
C1688 H1678 0.930 . S
C1688 C1687 1.400 . S
C1688 C1691 1.386 . S
H1689 C1705 0.930 . S
H1690 C1706 0.931 . S
C1691 H1679 0.929 . S
C1691 C1685 1.390 . S
C1691 C1688 1.386 . S
C1692 C1687 1.490 . S
C1692 C1694 1.395 . S
C1692 C1695 1.403 . S
H1693 C1699 0.930 . S
C1694 H1680 0.930 . S
C1694 C1692 1.395 . S
C1694 C1697 1.403 . S
C1695 C1692 1.403 . S
C1695 C1696 1.524 . S
C1695 C1699 1.400 . S
C1696 H1681 0.960 . S
C1696 H1682 0.960 . S
C1696 H1683 0.960 . S
C1696 C1695 1.524 . S
C1697 C1694 1.403 . S
C1697 C1698 1.392 . S
C1697 C1701 1.495 . S
C1698 C1697 1.392 . S
C1698 C1699 1.385 . S
C1698 C1700 1.478 . S
C1699 H1693 0.930 . S
C1699 C1695 1.400 . S
C1699 C1698 1.385 . S
C1700 C1698 1.478 . S
C1700 C1702 1.381 . S
C1700 C1706 1.383 . S
C1701 C1697 1.495 . S
C1701 H1707 0.959 . S
C1701 H1708 0.961 . S
C1701 H1709 0.960 . S
C1702 C1700 1.381 . S
C1702 C1703 1.394 . S
C1702 H1710 0.930 . S
C1703 C1702 1.394 . S
C1703 C1704 1.383 . S
C1703 H1711 0.929 . S
C1704 C1703 1.383 . S
C1704 C1705 1.377 . S
C1705 H1689 0.930 . S
C1705 C1704 1.377 . S
C1705 C1706 1.379 . S
C1706 H1690 0.931 . S
C1706 C1700 1.383 . S
C1706 C1705 1.379 . S
H1707 C1701 0.959 . S
H1708 C1701 0.961 . S
H1709 C1701 0.960 . S
H1710 C1702 0.930 . S
H1711 C1703 0.929 . S
H1712 C1720 0.929 . S
H1713 C1722 0.930 . S
H1714 C1724 0.930 . S
H1715 C1727 0.929 . S
H1716 C1730 0.930 . S
H1717 C1732 0.960 . S
H1718 C1732 0.960 . S
H1719 C1732 0.960 . S
C1720 H1712 0.929 . S
C1720 C1721 1.377 . S
C1720 C1722 1.384 . S
C1721 C1720 1.377 . S
C1721 C1727 1.390 . S
C1722 H1713 0.930 . S
C1722 C1720 1.384 . S
C1722 C1723 1.372 . S
C1723 C1722 1.372 . S
C1723 C1724 1.400 . S
C1723 C1728 1.490 . S
C1724 H1714 0.930 . S
C1724 C1723 1.400 . S
C1724 C1727 1.386 . S
H1725 C1741 0.930 . S
H1726 C1742 0.931 . S
C1727 H1715 0.929 . S
C1727 C1721 1.390 . S
C1727 C1724 1.386 . S
C1728 C1723 1.490 . S
C1728 C1730 1.395 . S
C1728 C1731 1.403 . S
H1729 C1735 0.930 . S
C1730 H1716 0.930 . S
C1730 C1728 1.395 . S
C1730 C1733 1.403 . S
C1731 C1728 1.403 . S
C1731 C1732 1.524 . S
C1731 C1735 1.400 . S
C1732 H1717 0.960 . S
C1732 H1718 0.960 . S
C1732 H1719 0.960 . S
C1732 C1731 1.524 . S
C1733 C1730 1.403 . S
C1733 C1734 1.392 . S
C1733 C1737 1.495 . S
C1734 C1733 1.392 . S
C1734 C1735 1.385 . S
C1734 C1736 1.478 . S
C1735 H1729 0.930 . S
C1735 C1731 1.400 . S
C1735 C1734 1.385 . S
C1736 C1734 1.478 . S
C1736 C1738 1.381 . S
C1736 C1742 1.383 . S
C1737 C1733 1.495 . S
C1737 H1743 0.959 . S
C1737 H1744 0.961 . S
C1737 H1745 0.960 . S
C1738 C1736 1.381 . S
C1738 C1739 1.394 . S
C1738 H1746 0.930 . S
C1739 C1738 1.394 . S
C1739 C1740 1.383 . S
C1739 H1747 0.929 . S
C1740 C1739 1.383 . S
C1740 C1741 1.377 . S
C1741 H1725 0.930 . S
C1741 C1740 1.377 . S
C1741 C1742 1.379 . S
C1742 H1726 0.931 . S
C1742 C1736 1.383 . S
C1742 C1741 1.379 . S
H1743 C1737 0.959 . S
H1744 C1737 0.961 . S
H1745 C1737 0.960 . S
H1746 C1738 0.930 . S
H1747 C1739 0.929 . S
H1748 C1756 0.929 . S
H1749 C1758 0.930 . S
H1750 C1760 0.930 . S
H1751 C1763 0.929 . S
H1752 C1766 0.930 . S
H1753 C1768 0.960 . S
H1754 C1768 0.960 . S
H1755 C1768 0.960 . S
C1756 H1748 0.929 . S
C1756 C1757 1.377 . S
C1756 C1758 1.384 . S
C1757 C1756 1.377 . S
C1757 C1763 1.390 . S
C1758 H1749 0.930 . S
C1758 C1756 1.384 . S
C1758 C1759 1.372 . S
C1759 C1758 1.372 . S
C1759 C1760 1.400 . S
C1759 C1764 1.490 . S
C1760 H1750 0.930 . S
C1760 C1759 1.400 . S
C1760 C1763 1.386 . S
H1761 C1777 0.930 . S
H1762 C1778 0.931 . S
C1763 H1751 0.929 . S
C1763 C1757 1.390 . S
C1763 C1760 1.386 . S
C1764 C1759 1.490 . S
C1764 C1766 1.395 . S
C1764 C1767 1.403 . S
H1765 C1771 0.930 . S
C1766 H1752 0.930 . S
C1766 C1764 1.395 . S
C1766 C1769 1.403 . S
C1767 C1764 1.403 . S
C1767 C1768 1.524 . S
C1767 C1771 1.400 . S
C1768 H1753 0.960 . S
C1768 H1754 0.960 . S
C1768 H1755 0.960 . S
C1768 C1767 1.524 . S
C1769 C1766 1.403 . S
C1769 C1770 1.392 . S
C1769 C1773 1.495 . S
C1770 C1769 1.392 . S
C1770 C1771 1.385 . S
C1770 C1772 1.478 . S
C1771 H1765 0.930 . S
C1771 C1767 1.400 . S
C1771 C1770 1.385 . S
C1772 C1770 1.478 . S
C1772 C1774 1.381 . S
C1772 C1778 1.383 . S
C1773 C1769 1.495 . S
C1773 H1779 0.959 . S
C1773 H1780 0.961 . S
C1773 H1781 0.960 . S
C1774 C1772 1.381 . S
C1774 C1775 1.394 . S
C1774 H1782 0.930 . S
C1775 C1774 1.394 . S
C1775 C1776 1.383 . S
C1775 H1783 0.929 . S
C1776 C1775 1.383 . S
C1776 C1777 1.377 . S
C1777 H1761 0.930 . S
C1777 C1776 1.377 . S
C1777 C1778 1.379 . S
C1778 H1762 0.931 . S
C1778 C1772 1.383 . S
C1778 C1777 1.379 . S
H1779 C1773 0.959 . S
H1780 C1773 0.961 . S
H1781 C1773 0.960 . S
H1782 C1774 0.930 . S
H1783 C1775 0.929 . S
H1784 C1792 0.929 . S
H1785 C1794 0.930 . S
H1786 C1796 0.930 . S
H1787 C1799 0.929 . S
H1788 C1802 0.930 . S
H1789 C1804 0.960 . S
H1790 C1804 0.960 . S
H1791 C1804 0.960 . S
C1792 H1784 0.929 . S
C1792 C1793 1.377 . S
C1792 C1794 1.384 . S
C1793 C1792 1.377 . S
C1793 C1799 1.390 . S
C1794 H1785 0.930 . S
C1794 C1792 1.384 . S
C1794 C1795 1.372 . S
C1795 C1794 1.372 . S
C1795 C1796 1.400 . S
C1795 C1800 1.490 . S
C1796 H1786 0.930 . S
C1796 C1795 1.400 . S
C1796 C1799 1.386 . S
H1797 C1813 0.930 . S
H1798 C1814 0.931 . S
C1799 H1787 0.929 . S
C1799 C1793 1.390 . S
C1799 C1796 1.386 . S
C1800 C1795 1.490 . S
C1800 C1802 1.395 . S
C1800 C1803 1.403 . S
H1801 C1807 0.930 . S
C1802 H1788 0.930 . S
C1802 C1800 1.395 . S
C1802 C1805 1.403 . S
C1803 C1800 1.403 . S
C1803 C1804 1.524 . S
C1803 C1807 1.400 . S
C1804 H1789 0.960 . S
C1804 H1790 0.960 . S
C1804 H1791 0.960 . S
C1804 C1803 1.524 . S
C1805 C1802 1.403 . S
C1805 C1806 1.392 . S
C1805 C1809 1.495 . S
C1806 C1805 1.392 . S
C1806 C1807 1.385 . S
C1806 C1808 1.478 . S
C1807 H1801 0.930 . S
C1807 C1803 1.400 . S
C1807 C1806 1.385 . S
C1808 C1806 1.478 . S
C1808 C1810 1.381 . S
C1808 C1814 1.383 . S
C1809 C1805 1.495 . S
C1809 H1815 0.959 . S
C1809 H1816 0.961 . S
C1809 H1817 0.960 . S
C1810 C1808 1.381 . S
C1810 C1811 1.394 . S
C1810 H1818 0.930 . S
C1811 C1810 1.394 . S
C1811 C1812 1.383 . S
C1811 H1819 0.929 . S
C1812 C1811 1.383 . S
C1812 C1813 1.377 . S
C1813 H1797 0.930 . S
C1813 C1812 1.377 . S
C1813 C1814 1.379 . S
C1814 H1798 0.931 . S
C1814 C1808 1.383 . S
C1814 C1813 1.379 . S
H1815 C1809 0.959 . S
H1816 C1809 0.961 . S
H1817 C1809 0.960 . S
H1818 C1810 0.930 . S
H1819 C1811 0.929 . S
H1820 C1828 0.929 . S
H1821 C1830 0.930 . S
H1822 C1832 0.930 . S
H1823 C1835 0.929 . S
H1824 C1838 0.930 . S
H1825 C1840 0.960 . S
H1826 C1840 0.960 . S
H1827 C1840 0.960 . S
C1828 H1820 0.929 . S
C1828 C1829 1.377 . S
C1828 C1830 1.384 . S
C1829 C1828 1.377 . S
C1829 C1835 1.390 . S
C1830 H1821 0.930 . S
C1830 C1828 1.384 . S
C1830 C1831 1.372 . S
C1831 C1830 1.372 . S
C1831 C1832 1.400 . S
C1831 C1836 1.490 . S
C1832 H1822 0.930 . S
C1832 C1831 1.400 . S
C1832 C1835 1.386 . S
H1833 C1849 0.930 . S
H1834 C1850 0.931 . S
C1835 H1823 0.929 . S
C1835 C1829 1.390 . S
C1835 C1832 1.386 . S
C1836 C1831 1.490 . S
C1836 C1838 1.395 . S
C1836 C1839 1.403 . S
H1837 C1843 0.930 . S
C1838 H1824 0.930 . S
C1838 C1836 1.395 . S
C1838 C1841 1.403 . S
C1839 C1836 1.403 . S
C1839 C1840 1.524 . S
C1839 C1843 1.400 . S
C1840 H1825 0.960 . S
C1840 H1826 0.960 . S
C1840 H1827 0.960 . S
C1840 C1839 1.524 . S
C1841 C1838 1.403 . S
C1841 C1842 1.392 . S
C1841 C1845 1.495 . S
C1842 C1841 1.392 . S
C1842 C1843 1.385 . S
C1842 C1844 1.478 . S
C1843 H1837 0.930 . S
C1843 C1839 1.400 . S
C1843 C1842 1.385 . S
C1844 C1842 1.478 . S
C1844 C1846 1.381 . S
C1844 C1850 1.383 . S
C1845 C1841 1.495 . S
C1845 H1851 0.959 . S
C1845 H1852 0.961 . S
C1845 H1853 0.960 . S
C1846 C1844 1.381 . S
C1846 C1847 1.394 . S
C1846 H1854 0.930 . S
C1847 C1846 1.394 . S
C1847 C1848 1.383 . S
C1847 H1855 0.929 . S
C1848 C1847 1.383 . S
C1848 C1849 1.377 . S
C1849 H1833 0.930 . S
C1849 C1848 1.377 . S
C1849 C1850 1.379 . S
C1850 H1834 0.931 . S
C1850 C1844 1.383 . S
C1850 C1849 1.379 . S
H1851 C1845 0.959 . S
H1852 C1845 0.961 . S
H1853 C1845 0.960 . S
H1854 C1846 0.930 . S
H1855 C1847 0.929 . S
H1856 C1864 0.929 . S
H1857 C1866 0.930 . S
H1858 C1868 0.930 . S
H1859 C1871 0.929 . S
H1860 C1874 0.930 . S
H1861 C1876 0.960 . S
H1862 C1876 0.960 . S
H1863 C1876 0.960 . S
C1864 H1856 0.929 . S
C1864 C1865 1.377 . S
C1864 C1866 1.384 . S
C1865 C1864 1.377 . S
C1865 C1871 1.390 . S
C1866 H1857 0.930 . S
C1866 C1864 1.384 . S
C1866 C1867 1.372 . S
C1867 C1866 1.372 . S
C1867 C1868 1.400 . S
C1867 C1872 1.490 . S
C1868 H1858 0.930 . S
C1868 C1867 1.400 . S
C1868 C1871 1.386 . S
H1869 C1885 0.930 . S
H1870 C1886 0.931 . S
C1871 H1859 0.929 . S
C1871 C1865 1.390 . S
C1871 C1868 1.386 . S
C1872 C1867 1.490 . S
C1872 C1874 1.395 . S
C1872 C1875 1.403 . S
H1873 C1879 0.930 . S
C1874 H1860 0.930 . S
C1874 C1872 1.395 . S
C1874 C1877 1.403 1_554 S
C1875 C1872 1.403 . S
C1875 C1876 1.524 . S
C1875 C1879 1.400 1_554 S
C1876 H1861 0.960 . S
C1876 H1862 0.960 . S
C1876 H1863 0.960 . S
C1876 C1875 1.524 . S
C1877 C1874 1.403 1_556 S
C1877 C1878 1.392 . S
C1877 C1881 1.495 . S
C1878 C1877 1.392 . S
C1878 C1879 1.385 . S
C1878 C1880 1.478 . S
C1879 H1873 0.930 . S
C1879 C1875 1.400 1_556 S
C1879 C1878 1.385 . S
C1880 C1878 1.478 . S
C1880 C1882 1.381 . S
C1880 C1886 1.383 . S
C1881 C1877 1.495 . S
C1881 H1887 0.959 . S
C1881 H1888 0.961 . S
C1881 H1889 0.960 . S
C1882 C1880 1.381 . S
C1882 C1883 1.394 . S
C1882 H1890 0.930 . S
C1883 C1882 1.394 . S
C1883 C1884 1.383 . S
C1883 H1891 0.929 . S
C1884 C1883 1.383 . S
C1884 C1885 1.377 . S
C1885 H1869 0.930 . S
C1885 C1884 1.377 . S
C1885 C1886 1.379 . S
C1886 H1870 0.931 . S
C1886 C1880 1.383 . S
C1886 C1885 1.379 . S
H1887 C1881 0.959 . S
H1888 C1881 0.961 . S
H1889 C1881 0.960 . S
H1890 C1882 0.930 . S
H1891 C1883 0.929 . S
H1892 C1900 0.929 . S
H1893 C1902 0.930 . S
H1894 C1904 0.930 . S
H1895 C1907 0.929 . S
H1896 C1910 0.930 . S
H1897 C1912 0.960 . S
H1898 C1912 0.960 . S
H1899 C1912 0.960 . S
C1900 H1892 0.929 . S
C1900 C1901 1.377 . S
C1900 C1902 1.384 . S
C1901 C1900 1.377 . S
C1901 C1907 1.390 . S
C1902 H1893 0.930 . S
C1902 C1900 1.384 . S
C1902 C1903 1.372 . S
C1903 C1902 1.372 . S
C1903 C1904 1.400 . S
C1903 C1908 1.490 . S
C1904 H1894 0.930 . S
C1904 C1903 1.400 . S
C1904 C1907 1.386 . S
H1905 C1921 0.930 . S
H1906 C1922 0.931 . S
C1907 H1895 0.929 . S
C1907 C1901 1.390 . S
C1907 C1904 1.386 . S
C1908 C1903 1.490 . S
C1908 C1910 1.395 . S
C1908 C1911 1.403 . S
H1909 C1915 0.930 . S
C1910 H1896 0.930 . S
C1910 C1908 1.395 . S
C1910 C1913 1.403 1_556 S
C1911 C1908 1.403 . S
C1911 C1912 1.524 . S
C1911 C1915 1.400 1_556 S
C1912 H1897 0.960 . S
C1912 H1898 0.960 . S
C1912 H1899 0.960 . S
C1912 C1911 1.524 . S
C1913 C1910 1.403 1_554 S
C1913 C1914 1.392 . S
C1913 C1917 1.495 . S
C1914 C1913 1.392 . S
C1914 C1915 1.385 . S
C1914 C1916 1.478 . S
C1915 H1909 0.930 . S
C1915 C1911 1.400 1_554 S
C1915 C1914 1.385 . S
C1916 C1914 1.478 . S
C1916 C1918 1.381 . S
C1916 C1922 1.383 . S
C1917 C1913 1.495 . S
C1917 H1923 0.959 . S
C1917 H1924 0.961 . S
C1917 H1925 0.960 . S
C1918 C1916 1.381 . S
C1918 C1919 1.394 . S
C1918 H1926 0.930 . S
C1919 C1918 1.394 . S
C1919 C1920 1.383 . S
C1919 H1927 0.929 . S
C1920 C1919 1.383 . S
C1920 C1921 1.377 . S
C1921 H1905 0.930 . S
C1921 C1920 1.377 . S
C1921 C1922 1.379 . S
C1922 H1906 0.931 . S
C1922 C1916 1.383 . S
C1922 C1921 1.379 . S
H1923 C1917 0.959 . S
H1924 C1917 0.961 . S
H1925 C1917 0.960 . S
H1926 C1918 0.930 . S
H1927 C1919 0.929 . S
H1928 C1936 0.929 . S
H1929 C1938 0.930 . S
H1930 C1940 0.930 . S
H1931 C1943 0.929 . S
H1932 C1946 0.930 . S
H1933 C1948 0.960 . S
H1934 C1948 0.960 . S
H1935 C1948 0.960 . S
C1936 H1928 0.929 . S
C1936 C1937 1.377 . S
C1936 C1938 1.384 . S
C1937 C1936 1.377 . S
C1937 C1943 1.390 . S
C1938 H1929 0.930 . S
C1938 C1936 1.384 . S
C1938 C1939 1.372 . S
C1939 C1938 1.372 . S
C1939 C1940 1.400 . S
C1939 C1944 1.490 . S
C1940 H1930 0.930 . S
C1940 C1939 1.400 . S
C1940 C1943 1.386 . S
H1941 C1957 0.930 . S
H1942 C1958 0.931 . S
C1943 H1931 0.929 . S
C1943 C1937 1.390 . S
C1943 C1940 1.386 . S
C1944 C1939 1.490 . S
C1944 C1946 1.395 . S
C1944 C1947 1.403 . S
H1945 C1951 0.930 . S
C1946 H1932 0.930 . S
C1946 C1944 1.395 . S
C1946 C1949 1.403 1_554 S
C1947 C1944 1.403 . S
C1947 C1948 1.524 . S
C1947 C1951 1.400 1_554 S
C1948 H1933 0.960 . S
C1948 H1934 0.960 . S
C1948 H1935 0.960 . S
C1948 C1947 1.524 . S
C1949 C1946 1.403 1_556 S
C1949 C1950 1.392 . S
C1949 C1953 1.495 . S
C1950 C1949 1.392 . S
C1950 C1951 1.385 . S
C1950 C1952 1.478 . S
C1951 H1945 0.930 . S
C1951 C1947 1.400 1_556 S
C1951 C1950 1.385 . S
C1952 C1950 1.478 . S
C1952 C1954 1.381 . S
C1952 C1958 1.383 . S
C1953 C1949 1.495 . S
C1953 H1959 0.959 . S
C1953 H1960 0.961 . S
C1953 H1961 0.960 . S
C1954 C1952 1.381 . S
C1954 C1955 1.394 . S
C1954 H1962 0.930 . S
C1955 C1954 1.394 . S
C1955 C1956 1.383 . S
C1955 H1963 0.929 . S
C1956 C1955 1.383 . S
C1956 C1957 1.377 . S
C1957 H1941 0.930 . S
C1957 C1956 1.377 . S
C1957 C1958 1.379 . S
C1958 H1942 0.931 . S
C1958 C1952 1.383 . S
C1958 C1957 1.379 . S
H1959 C1953 0.959 . S
H1960 C1953 0.961 . S
H1961 C1953 0.960 . S
H1962 C1954 0.930 . S
H1963 C1955 0.929 . S
H1964 C1972 0.929 . S
H1965 C1974 0.930 . S
H1966 C1976 0.930 . S
H1967 C1979 0.929 . S
H1968 C1982 0.930 . S
H1969 C1984 0.960 . S
H1970 C1984 0.960 . S
H1971 C1984 0.960 . S
C1972 H1964 0.929 . S
C1972 C1973 1.377 . S
C1972 C1974 1.384 . S
C1973 C1972 1.377 . S
C1973 C1979 1.390 . S
C1974 H1965 0.930 . S
C1974 C1972 1.384 . S
C1974 C1975 1.372 . S
C1975 C1974 1.372 . S
C1975 C1976 1.400 . S
C1975 C1980 1.490 . S
C1976 H1966 0.930 . S
C1976 C1975 1.400 . S
C1976 C1979 1.386 . S
H1977 C1993 0.930 . S
H1978 C1994 0.931 . S
C1979 H1967 0.929 . S
C1979 C1973 1.390 . S
C1979 C1976 1.386 . S
C1980 C1975 1.490 . S
C1980 C1982 1.395 . S
C1980 C1983 1.403 . S
H1981 C1987 0.930 . S
C1982 H1968 0.930 . S
C1982 C1980 1.395 . S
C1982 C1985 1.403 1_554 S
C1983 C1980 1.403 . S
C1983 C1984 1.524 . S
C1983 C1987 1.400 1_554 S
C1984 H1969 0.960 . S
C1984 H1970 0.960 . S
C1984 H1971 0.960 . S
C1984 C1983 1.524 . S
C1985 C1982 1.403 1_556 S
C1985 C1986 1.392 . S
C1985 C1989 1.495 . S
C1986 C1985 1.392 . S
C1986 C1987 1.385 . S
C1986 C1988 1.478 . S
C1987 H1981 0.930 . S
C1987 C1983 1.400 1_556 S
C1987 C1986 1.385 . S
C1988 C1986 1.478 . S
C1988 C1990 1.381 . S
C1988 C1994 1.383 . S
C1989 C1985 1.495 . S
C1989 H1995 0.959 . S
C1989 H1996 0.961 . S
C1989 H1997 0.960 . S
C1990 C1988 1.381 . S
C1990 C1991 1.394 . S
C1990 H1998 0.930 . S
C1991 C1990 1.394 . S
C1991 C1992 1.383 . S
C1991 H1999 0.929 . S
C1992 C1991 1.383 . S
C1992 C1993 1.377 . S
C1993 H1977 0.930 . S
C1993 C1992 1.377 . S
C1993 C1994 1.379 . S
C1994 H1978 0.931 . S
C1994 C1988 1.383 . S
C1994 C1993 1.379 . S
H1995 C1989 0.959 . S
H1996 C1989 0.961 . S
H1997 C1989 0.960 . S
H1998 C1990 0.930 . S
H1999 C1991 0.929 . S
H2000 C2008 0.929 . S
H2001 C2010 0.930 . S
H2002 C2012 0.930 . S
H2003 C2015 0.929 . S
H2004 C2018 0.930 . S
H2005 C2020 0.960 . S
H2006 C2020 0.960 . S
H2007 C2020 0.960 . S
C2008 H2000 0.929 . S
C2008 C2009 1.377 . S
C2008 C2010 1.384 . S
C2009 C2008 1.377 . S
C2009 C2015 1.390 . S
C2010 H2001 0.930 . S
C2010 C2008 1.384 . S
C2010 C2011 1.372 . S
C2011 C2010 1.372 . S
C2011 C2012 1.400 . S
C2011 C2016 1.490 . S
C2012 H2002 0.930 . S
C2012 C2011 1.400 . S
C2012 C2015 1.386 . S
H2013 C2029 0.930 . S
H2014 C2030 0.931 . S
C2015 H2003 0.929 . S
C2015 C2009 1.390 . S
C2015 C2012 1.386 . S
C2016 C2011 1.490 . S
C2016 C2018 1.395 . S
C2016 C2019 1.403 . S
H2017 C2023 0.930 . S
C2018 H2004 0.930 . S
C2018 C2016 1.395 . S
C2018 C2021 1.403 1_554 S
C2019 C2016 1.403 . S
C2019 C2020 1.524 . S
C2019 C2023 1.400 1_554 S
C2020 H2005 0.960 . S
C2020 H2006 0.960 . S
C2020 H2007 0.960 . S
C2020 C2019 1.524 . S
C2021 C2018 1.403 1_556 S
C2021 C2022 1.392 . S
C2021 C2025 1.495 . S
C2022 C2021 1.392 . S
C2022 C2023 1.385 . S
C2022 C2024 1.478 . S
C2023 H2017 0.930 . S
C2023 C2019 1.400 1_556 S
C2023 C2022 1.385 . S
C2024 C2022 1.478 . S
C2024 C2026 1.381 . S
C2024 C2030 1.383 . S
C2025 C2021 1.495 . S
C2025 H2031 0.959 . S
C2025 H2032 0.961 . S
C2025 H2033 0.960 . S
C2026 C2024 1.381 . S
C2026 C2027 1.394 . S
C2026 H2034 0.930 . S
C2027 C2026 1.394 . S
C2027 C2028 1.383 . S
C2027 H2035 0.929 . S
C2028 C2027 1.383 . S
C2028 C2029 1.377 . S
C2029 H2013 0.930 . S
C2029 C2028 1.377 . S
C2029 C2030 1.379 . S
C2030 H2014 0.931 . S
C2030 C2024 1.383 . S
C2030 C2029 1.379 . S
H2031 C2025 0.959 . S
H2032 C2025 0.961 . S
H2033 C2025 0.960 . S
H2034 C2026 0.930 . S
H2035 C2027 0.929 . S
H2036 C2044 0.929 . S
H2037 C2046 0.930 . S
H2038 C2048 0.930 . S
H2039 C2051 0.929 . S
H2040 C2054 0.930 . S
H2041 C2056 0.960 . S
H2042 C2056 0.960 . S
H2043 C2056 0.960 . S
C2044 H2036 0.929 . S
C2044 C2045 1.377 . S
C2044 C2046 1.384 . S
C2045 C2044 1.377 . S
C2045 C2051 1.390 . S
C2046 H2037 0.930 . S
C2046 C2044 1.384 . S
C2046 C2047 1.372 . S
C2047 C2046 1.372 . S
C2047 C2048 1.400 . S
C2047 C2052 1.490 . S
C2048 H2038 0.930 . S
C2048 C2047 1.400 . S
C2048 C2051 1.386 . S
H2049 C2065 0.930 . S
H2050 C2066 0.931 . S
C2051 H2039 0.929 . S
C2051 C2045 1.390 . S
C2051 C2048 1.386 . S
C2052 C2047 1.490 . S
C2052 C2054 1.395 . S
C2052 C2055 1.403 . S
H2053 C2059 0.930 . S
C2054 H2040 0.930 . S
C2054 C2052 1.395 . S
C2054 C2057 1.403 1_554 S
C2055 C2052 1.403 . S
C2055 C2056 1.524 . S
C2055 C2059 1.400 1_554 S
C2056 H2041 0.960 . S
C2056 H2042 0.960 . S
C2056 H2043 0.960 . S
C2056 C2055 1.524 . S
C2057 C2054 1.403 1_556 S
C2057 C2058 1.392 . S
C2057 C2061 1.495 . S
C2058 C2057 1.392 . S
C2058 C2059 1.385 . S
C2058 C2060 1.478 . S
C2059 H2053 0.930 . S
C2059 C2055 1.400 1_556 S
C2059 C2058 1.385 . S
C2060 C2058 1.478 . S
C2060 C2062 1.381 . S
C2060 C2066 1.383 . S
C2061 C2057 1.495 . S
C2061 H2067 0.959 . S
C2061 H2068 0.961 . S
C2061 H2069 0.960 . S
C2062 C2060 1.381 . S
C2062 C2063 1.394 . S
C2062 H2070 0.930 . S
C2063 C2062 1.394 . S
C2063 C2064 1.383 . S
C2063 H2071 0.929 . S
C2064 C2063 1.383 . S
C2064 C2065 1.377 . S
C2065 H2049 0.930 . S
C2065 C2064 1.377 . S
C2065 C2066 1.379 . S
C2066 H2050 0.931 . S
C2066 C2060 1.383 . S
C2066 C2065 1.379 . S
H2067 C2061 0.959 . S
H2068 C2061 0.961 . S
H2069 C2061 0.960 . S
H2070 C2062 0.930 . S
H2071 C2063 0.929 . S
H2072 C2080 0.929 . S
H2073 C2082 0.930 . S
H2074 C2084 0.930 . S
H2075 C2087 0.929 . S
H2076 C2090 0.930 . S
H2077 C2092 0.960 . S
H2078 C2092 0.960 . S
H2079 C2092 0.960 . S
C2080 H2072 0.929 . S
C2080 C2081 1.377 . S
C2080 C2082 1.384 . S
C2081 C2080 1.377 . S
C2081 C2087 1.390 . S
C2082 H2073 0.930 . S
C2082 C2080 1.384 . S
C2082 C2083 1.372 . S
C2083 C2082 1.372 . S
C2083 C2084 1.400 . S
C2083 C2088 1.490 . S
C2084 H2074 0.930 . S
C2084 C2083 1.400 . S
C2084 C2087 1.386 . S
H2085 C2101 0.930 . S
H2086 C2102 0.931 . S
C2087 H2075 0.929 . S
C2087 C2081 1.390 . S
C2087 C2084 1.386 . S
C2088 C2083 1.490 . S
C2088 C2090 1.395 . S
C2088 C2091 1.403 . S
H2089 C2095 0.930 . S
C2090 H2076 0.930 . S
C2090 C2088 1.395 . S
C2090 C2093 1.403 1_556 S
C2091 C2088 1.403 . S
C2091 C2092 1.524 . S
C2091 C2095 1.400 1_556 S
C2092 H2077 0.960 . S
C2092 H2078 0.960 . S
C2092 H2079 0.960 . S
C2092 C2091 1.524 . S
C2093 C2090 1.403 1_554 S
C2093 C2094 1.392 . S
C2093 C2097 1.495 . S
C2094 C2093 1.392 . S
C2094 C2095 1.385 . S
C2094 C2096 1.478 . S
C2095 H2089 0.930 . S
C2095 C2091 1.400 1_554 S
C2095 C2094 1.385 . S
C2096 C2094 1.478 . S
C2096 C2098 1.381 . S
C2096 C2102 1.383 . S
C2097 C2093 1.495 . S
C2097 H2103 0.959 . S
C2097 H2104 0.961 . S
C2097 H2105 0.960 . S
C2098 C2096 1.381 . S
C2098 C2099 1.394 . S
C2098 H2106 0.930 . S
C2099 C2098 1.394 . S
C2099 C2100 1.383 . S
C2099 H2107 0.929 . S
C2100 C2099 1.383 . S
C2100 C2101 1.377 . S
C2101 H2085 0.930 . S
C2101 C2100 1.377 . S
C2101 C2102 1.379 . S
C2102 H2086 0.931 . S
C2102 C2096 1.383 . S
C2102 C2101 1.379 . S
H2103 C2097 0.959 . S
H2104 C2097 0.961 . S
H2105 C2097 0.960 . S
H2106 C2098 0.930 . S
H2107 C2099 0.929 . S
H2108 C2116 0.929 . S
H2109 C2118 0.930 . S
H2110 C2120 0.930 . S
H2111 C2123 0.929 . S
H2112 C2126 0.930 . S
H2113 C2128 0.960 . S
H2114 C2128 0.960 . S
H2115 C2128 0.960 . S
C2116 H2108 0.929 . S
C2116 C2117 1.377 . S
C2116 C2118 1.384 . S
C2117 C2116 1.377 . S
C2117 C2123 1.390 . S
C2118 H2109 0.930 . S
C2118 C2116 1.384 . S
C2118 C2119 1.372 . S
C2119 C2118 1.372 . S
C2119 C2120 1.400 . S
C2119 C2124 1.490 . S
C2120 H2110 0.930 . S
C2120 C2119 1.400 . S
C2120 C2123 1.386 . S
H2121 C2137 0.930 . S
H2122 C2138 0.931 . S
C2123 H2111 0.929 . S
C2123 C2117 1.390 . S
C2123 C2120 1.386 . S
C2124 C2119 1.490 . S
C2124 C2126 1.395 . S
C2124 C2127 1.403 . S
H2125 C2131 0.930 . S
C2126 H2112 0.930 . S
C2126 C2124 1.395 . S
C2126 C2129 1.403 1_556 S
C2127 C2124 1.403 . S
C2127 C2128 1.524 . S
C2127 C2131 1.400 1_556 S
C2128 H2113 0.960 . S
C2128 H2114 0.960 . S
C2128 H2115 0.960 . S
C2128 C2127 1.524 . S
C2129 C2126 1.403 1_554 S
C2129 C2130 1.392 . S
C2129 C2133 1.495 . S
C2130 C2129 1.392 . S
C2130 C2131 1.385 . S
C2130 C2132 1.478 . S
C2131 H2125 0.930 . S
C2131 C2127 1.400 1_554 S
C2131 C2130 1.385 . S
C2132 C2130 1.478 . S
C2132 C2134 1.381 . S
C2132 C2138 1.383 . S
C2133 C2129 1.495 . S
C2133 H2139 0.959 . S
C2133 H2140 0.961 . S
C2133 H2141 0.960 . S
C2134 C2132 1.381 . S
C2134 C2135 1.394 . S
C2134 H2142 0.930 . S
C2135 C2134 1.394 . S
C2135 C2136 1.383 . S
C2135 H2143 0.929 . S
C2136 C2135 1.383 . S
C2136 C2137 1.377 . S
C2137 H2121 0.930 . S
C2137 C2136 1.377 . S
C2137 C2138 1.379 . S
C2138 H2122 0.931 . S
C2138 C2132 1.383 . S
C2138 C2137 1.379 . S
H2139 C2133 0.959 . S
H2140 C2133 0.961 . S
H2141 C2133 0.960 . S
H2142 C2134 0.930 . S
H2143 C2135 0.929 . S
H2144 C2152 0.929 . S
H2145 C2154 0.930 . S
H2146 C2156 0.930 . S
H2147 C2159 0.929 . S
H2148 C2162 0.930 . S
H2149 C2164 0.960 . S
H2150 C2164 0.960 . S
H2151 C2164 0.960 . S
C2152 H2144 0.929 . S
C2152 C2153 1.377 . S
C2152 C2154 1.384 . S
C2153 C2152 1.377 . S
C2153 C2159 1.390 . S
C2154 H2145 0.930 . S
C2154 C2152 1.384 . S
C2154 C2155 1.372 . S
C2155 C2154 1.372 . S
C2155 C2156 1.400 . S
C2155 C2160 1.490 . S
C2156 H2146 0.930 . S
C2156 C2155 1.400 . S
C2156 C2159 1.386 . S
H2157 C2173 0.930 . S
H2158 C2174 0.931 . S
C2159 H2147 0.929 . S
C2159 C2153 1.390 . S
C2159 C2156 1.386 . S
C2160 C2155 1.490 . S
C2160 C2162 1.395 . S
C2160 C2163 1.403 . S
H2161 C2167 0.930 . S
C2162 H2148 0.930 . S
C2162 C2160 1.395 . S
C2162 C2165 1.403 . S
C2163 C2160 1.403 . S
C2163 C2164 1.524 . S
C2163 C2167 1.400 . S
C2164 H2149 0.960 . S
C2164 H2150 0.960 . S
C2164 H2151 0.960 . S
C2164 C2163 1.524 . S
C2165 C2162 1.403 . S
C2165 C2166 1.392 . S
C2165 C2169 1.495 . S
C2166 C2165 1.392 . S
C2166 C2167 1.385 . S
C2166 C2168 1.478 . S
C2167 H2161 0.930 . S
C2167 C2163 1.400 . S
C2167 C2166 1.385 . S
C2168 C2166 1.478 . S
C2168 C2170 1.381 . S
C2168 C2174 1.383 . S
C2169 C2165 1.495 . S
C2169 H2175 0.959 . S
C2169 H2176 0.961 . S
C2169 H2177 0.960 . S
C2170 C2168 1.381 . S
C2170 C2171 1.394 . S
C2170 H2178 0.930 . S
C2171 C2170 1.394 . S
C2171 C2172 1.383 . S
C2171 H2179 0.929 . S
C2172 C2171 1.383 . S
C2172 C2173 1.377 . S
C2173 H2157 0.930 . S
C2173 C2172 1.377 . S
C2173 C2174 1.379 . S
C2174 H2158 0.931 . S
C2174 C2168 1.383 . S
C2174 C2173 1.379 . S
H2175 C2169 0.959 . S
H2176 C2169 0.961 . S
H2177 C2169 0.960 . S
H2178 C2170 0.930 . S
H2179 C2171 0.929 . S
H2180 C2188 0.929 . S
H2181 C2190 0.930 . S
H2182 C2192 0.930 . S
H2183 C2195 0.929 . S
H2184 C2198 0.930 . S
H2185 C2200 0.960 . S
H2186 C2200 0.960 . S
H2187 C2200 0.960 . S
C2188 H2180 0.929 . S
C2188 C2189 1.377 . S
C2188 C2190 1.384 . S
C2189 C2188 1.377 . S
C2189 C2195 1.390 . S
C2190 H2181 0.930 . S
C2190 C2188 1.384 . S
C2190 C2191 1.372 . S
C2191 C2190 1.372 . S
C2191 C2192 1.400 . S
C2191 C2196 1.490 . S
C2192 H2182 0.930 . S
C2192 C2191 1.400 . S
C2192 C2195 1.386 . S
H2193 C2209 0.930 . S
H2194 C2210 0.931 . S
C2195 H2183 0.929 . S
C2195 C2189 1.390 . S
C2195 C2192 1.386 . S
C2196 C2191 1.490 . S
C2196 C2198 1.395 . S
C2196 C2199 1.403 . S
H2197 C2203 0.930 . S
C2198 H2184 0.930 . S
C2198 C2196 1.395 . S
C2198 C2201 1.403 . S
C2199 C2196 1.403 . S
C2199 C2200 1.524 . S
C2199 C2203 1.400 . S
C2200 H2185 0.960 . S
C2200 H2186 0.960 . S
C2200 H2187 0.960 . S
C2200 C2199 1.524 . S
C2201 C2198 1.403 . S
C2201 C2202 1.392 . S
C2201 C2205 1.495 . S
C2202 C2201 1.392 . S
C2202 C2203 1.385 . S
C2202 C2204 1.478 . S
C2203 H2197 0.930 . S
C2203 C2199 1.400 . S
C2203 C2202 1.385 . S
C2204 C2202 1.478 . S
C2204 C2206 1.381 . S
C2204 C2210 1.383 . S
C2205 C2201 1.495 . S
C2205 H2211 0.959 . S
C2205 H2212 0.961 . S
C2205 H2213 0.960 . S
C2206 C2204 1.381 . S
C2206 C2207 1.394 . S
C2206 H2214 0.930 . S
C2207 C2206 1.394 . S
C2207 C2208 1.383 . S
C2207 H2215 0.929 . S
C2208 C2207 1.383 . S
C2208 C2209 1.377 . S
C2209 H2193 0.930 . S
C2209 C2208 1.377 . S
C2209 C2210 1.379 . S
C2210 H2194 0.931 . S
C2210 C2204 1.383 . S
C2210 C2209 1.379 . S
H2211 C2205 0.959 . S
H2212 C2205 0.961 . S
H2213 C2205 0.960 . S
H2214 C2206 0.930 . S
H2215 C2207 0.929 . S
H2216 C2224 0.929 . S
H2217 C2226 0.930 . S
H2218 C2228 0.930 . S
H2219 C2231 0.929 . S
H2220 C2234 0.930 . S
H2221 C2236 0.960 . S
H2222 C2236 0.960 . S
H2223 C2236 0.960 . S
C2224 H2216 0.929 . S
C2224 C2225 1.377 . S
C2224 C2226 1.384 . S
C2225 C2224 1.377 . S
C2225 C2231 1.390 . S
C2226 H2217 0.930 . S
C2226 C2224 1.384 . S
C2226 C2227 1.372 . S
C2227 C2226 1.372 . S
C2227 C2228 1.400 . S
C2227 C2232 1.490 . S
C2228 H2218 0.930 . S
C2228 C2227 1.400 . S
C2228 C2231 1.386 . S
H2229 C2245 0.930 . S
H2230 C2246 0.931 . S
C2231 H2219 0.929 . S
C2231 C2225 1.390 . S
C2231 C2228 1.386 . S
C2232 C2227 1.490 . S
C2232 C2234 1.395 . S
C2232 C2235 1.403 . S
H2233 C2239 0.930 . S
C2234 H2220 0.930 . S
C2234 C2232 1.395 . S
C2234 C2237 1.403 . S
C2235 C2232 1.403 . S
C2235 C2236 1.524 . S
C2235 C2239 1.400 . S
C2236 H2221 0.960 . S
C2236 H2222 0.960 . S
C2236 H2223 0.960 . S
C2236 C2235 1.524 . S
C2237 C2234 1.403 . S
C2237 C2238 1.392 . S
C2237 C2241 1.495 . S
C2238 C2237 1.392 . S
C2238 C2239 1.385 . S
C2238 C2240 1.478 . S
C2239 H2233 0.930 . S
C2239 C2235 1.400 . S
C2239 C2238 1.385 . S
C2240 C2238 1.478 . S
C2240 C2242 1.381 . S
C2240 C2246 1.383 . S
C2241 C2237 1.495 . S
C2241 H2247 0.959 . S
C2241 H2248 0.961 . S
C2241 H2249 0.960 . S
C2242 C2240 1.381 . S
C2242 C2243 1.394 . S
C2242 H2250 0.930 . S
C2243 C2242 1.394 . S
C2243 C2244 1.383 . S
C2243 H2251 0.929 . S
C2244 C2243 1.383 . S
C2244 C2245 1.377 . S
C2245 H2229 0.930 . S
C2245 C2244 1.377 . S
C2245 C2246 1.379 . S
C2246 H2230 0.931 . S
C2246 C2240 1.383 . S
C2246 C2245 1.379 . S
H2247 C2241 0.959 . S
H2248 C2241 0.961 . S
H2249 C2241 0.960 . S
H2250 C2242 0.930 . S
H2251 C2243 0.929 . S
H2252 C2260 0.929 . S
H2253 C2262 0.930 . S
H2254 C2264 0.930 . S
H2255 C2267 0.929 . S
H2256 C2270 0.930 . S
H2257 C2272 0.960 . S
H2258 C2272 0.960 . S
H2259 C2272 0.960 . S
C2260 H2252 0.929 . S
C2260 C2261 1.377 . S
C2260 C2262 1.384 . S
C2261 C2260 1.377 . S
C2261 C2267 1.390 . S
C2262 H2253 0.930 . S
C2262 C2260 1.384 . S
C2262 C2263 1.372 . S
C2263 C2262 1.372 . S
C2263 C2264 1.400 . S
C2263 C2268 1.490 . S
C2264 H2254 0.930 . S
C2264 C2263 1.400 . S
C2264 C2267 1.386 . S
H2265 C2281 0.930 . S
H2266 C2282 0.931 . S
C2267 H2255 0.929 . S
C2267 C2261 1.390 . S
C2267 C2264 1.386 . S
C2268 C2263 1.490 . S
C2268 C2270 1.395 . S
C2268 C2271 1.403 . S
H2269 C2275 0.930 . S
C2270 H2256 0.930 . S
C2270 C2268 1.395 . S
C2270 C2273 1.403 . S
C2271 C2268 1.403 . S
C2271 C2272 1.524 . S
C2271 C2275 1.400 . S
C2272 H2257 0.960 . S
C2272 H2258 0.960 . S
C2272 H2259 0.960 . S
C2272 C2271 1.524 . S
C2273 C2270 1.403 . S
C2273 C2274 1.392 . S
C2273 C2277 1.495 . S
C2274 C2273 1.392 . S
C2274 C2275 1.385 . S
C2274 C2276 1.478 . S
C2275 H2269 0.930 . S
C2275 C2271 1.400 . S
C2275 C2274 1.385 . S
C2276 C2274 1.478 . S
C2276 C2278 1.381 . S
C2276 C2282 1.383 . S
C2277 C2273 1.495 . S
C2277 H2283 0.959 . S
C2277 H2284 0.961 . S
C2277 H2285 0.960 . S
C2278 C2276 1.381 . S
C2278 C2279 1.394 . S
C2278 H2286 0.930 . S
C2279 C2278 1.394 . S
C2279 C2280 1.383 . S
C2279 H2287 0.929 . S
C2280 C2279 1.383 . S
C2280 C2281 1.377 . S
C2281 H2265 0.930 . S
C2281 C2280 1.377 . S
C2281 C2282 1.379 . S
C2282 H2266 0.931 . S
C2282 C2276 1.383 . S
C2282 C2281 1.379 . S
H2283 C2277 0.959 . S
H2284 C2277 0.961 . S
H2285 C2277 0.960 . S
H2286 C2278 0.930 . S
H2287 C2279 0.929 . S
H2288 C2296 0.929 . S
H2289 C2298 0.930 . S
H2290 C2300 0.930 . S
H2291 C2303 0.929 . S
H2292 C2306 0.930 . S
H2293 C2308 0.960 . S
H2294 C2308 0.960 . S
H2295 C2308 0.960 . S
C2296 H2288 0.929 . S
C2296 C2297 1.377 . S
C2296 C2298 1.384 . S
C2297 C2296 1.377 . S
C2297 C2303 1.390 . S
C2298 H2289 0.930 . S
C2298 C2296 1.384 . S
C2298 C2299 1.372 . S
C2299 C2298 1.372 . S
C2299 C2300 1.400 . S
C2299 C2304 1.490 . S
C2300 H2290 0.930 . S
C2300 C2299 1.400 . S
C2300 C2303 1.386 . S
H2301 C2317 0.930 . S
H2302 C2318 0.931 . S
C2303 H2291 0.929 . S
C2303 C2297 1.390 . S
C2303 C2300 1.386 . S
C2304 C2299 1.490 . S
C2304 C2306 1.395 . S
C2304 C2307 1.403 . S
H2305 C2311 0.930 . S
C2306 H2292 0.930 . S
C2306 C2304 1.395 . S
C2306 C2309 1.403 . S
C2307 C2304 1.403 . S
C2307 C2308 1.524 . S
C2307 C2311 1.400 . S
C2308 H2293 0.960 . S
C2308 H2294 0.960 . S
C2308 H2295 0.960 . S
C2308 C2307 1.524 . S
C2309 C2306 1.403 . S
C2309 C2310 1.392 . S
C2309 C2313 1.495 . S
C2310 C2309 1.392 . S
C2310 C2311 1.385 . S
C2310 C2312 1.478 . S
C2311 H2305 0.930 . S
C2311 C2307 1.400 . S
C2311 C2310 1.385 . S
C2312 C2310 1.478 . S
C2312 C2314 1.381 . S
C2312 C2318 1.383 . S
C2313 C2309 1.495 . S
C2313 H2319 0.959 . S
C2313 H2320 0.961 . S
C2313 H2321 0.960 . S
C2314 C2312 1.381 . S
C2314 C2315 1.394 . S
C2314 H2322 0.930 . S
C2315 C2314 1.394 . S
C2315 C2316 1.383 . S
C2315 H2323 0.929 . S
C2316 C2315 1.383 . S
C2316 C2317 1.377 . S
C2317 H2301 0.930 . S
C2317 C2316 1.377 . S
C2317 C2318 1.379 . S
C2318 H2302 0.931 . S
C2318 C2312 1.383 . S
C2318 C2317 1.379 . S
H2319 C2313 0.959 . S
H2320 C2313 0.961 . S
H2321 C2313 0.960 . S
H2322 C2314 0.930 . S
H2323 C2315 0.929 . S
H2324 C2332 0.929 . S
H2325 C2334 0.930 . S
H2326 C2336 0.930 . S
H2327 C2339 0.929 . S
H2328 C2342 0.930 . S
H2329 C2344 0.960 . S
H2330 C2344 0.960 . S
H2331 C2344 0.960 . S
C2332 H2324 0.929 . S
C2332 C2333 1.377 . S
C2332 C2334 1.384 . S
C2333 C2332 1.377 . S
C2333 C2339 1.390 . S
C2334 H2325 0.930 . S
C2334 C2332 1.384 . S
C2334 C2335 1.372 . S
C2335 C2334 1.372 . S
C2335 C2336 1.400 . S
C2335 C2340 1.490 . S
C2336 H2326 0.930 . S
C2336 C2335 1.400 . S
C2336 C2339 1.386 . S
H2337 C2353 0.930 . S
H2338 C2354 0.931 . S
C2339 H2327 0.929 . S
C2339 C2333 1.390 . S
C2339 C2336 1.386 . S
C2340 C2335 1.490 . S
C2340 C2342 1.395 . S
C2340 C2343 1.403 . S
H2341 C2347 0.930 . S
C2342 H2328 0.930 . S
C2342 C2340 1.395 . S
C2342 C2345 1.403 . S
C2343 C2340 1.403 . S
C2343 C2344 1.524 . S
C2343 C2347 1.400 . S
C2344 H2329 0.960 . S
C2344 H2330 0.960 . S
C2344 H2331 0.960 . S
C2344 C2343 1.524 . S
C2345 C2342 1.403 . S
C2345 C2346 1.392 . S
C2345 C2349 1.495 . S
C2346 C2345 1.392 . S
C2346 C2347 1.385 . S
C2346 C2348 1.478 . S
C2347 H2341 0.930 . S
C2347 C2343 1.400 . S
C2347 C2346 1.385 . S
C2348 C2346 1.478 . S
C2348 C2350 1.381 . S
C2348 C2354 1.383 . S
C2349 C2345 1.495 . S
C2349 H2355 0.959 . S
C2349 H2356 0.961 . S
C2349 H2357 0.960 . S
C2350 C2348 1.381 . S
C2350 C2351 1.394 . S
C2350 H2358 0.930 . S
C2351 C2350 1.394 . S
C2351 C2352 1.383 . S
C2351 H2359 0.929 . S
C2352 C2351 1.383 . S
C2352 C2353 1.377 . S
C2353 H2337 0.930 . S
C2353 C2352 1.377 . S
C2353 C2354 1.379 . S
C2354 H2338 0.931 . S
C2354 C2348 1.383 . S
C2354 C2353 1.379 . S
H2355 C2349 0.959 . S
H2356 C2349 0.961 . S
H2357 C2349 0.960 . S
H2358 C2350 0.930 . S
H2359 C2351 0.929 . S
H2360 C2368 0.929 . S
H2361 C2370 0.930 . S
H2362 C2372 0.930 . S
H2363 C2375 0.929 . S
H2364 C2378 0.930 . S
H2365 C2380 0.960 . S
H2366 C2380 0.960 . S
H2367 C2380 0.960 . S
C2368 H2360 0.929 . S
C2368 C2369 1.377 . S
C2368 C2370 1.384 . S
C2369 C2368 1.377 . S
C2369 C2375 1.390 . S
C2370 H2361 0.930 . S
C2370 C2368 1.384 . S
C2370 C2371 1.372 . S
C2371 C2370 1.372 . S
C2371 C2372 1.400 . S
C2371 C2376 1.490 . S
C2372 H2362 0.930 . S
C2372 C2371 1.400 . S
C2372 C2375 1.386 . S
H2373 C2389 0.930 . S
H2374 C2390 0.931 . S
C2375 H2363 0.929 . S
C2375 C2369 1.390 . S
C2375 C2372 1.386 . S
C2376 C2371 1.490 . S
C2376 C2378 1.395 . S
C2376 C2379 1.403 . S
H2377 C2383 0.930 . S
C2378 H2364 0.930 . S
C2378 C2376 1.395 . S
C2378 C2381 1.403 . S
C2379 C2376 1.403 . S
C2379 C2380 1.524 . S
C2379 C2383 1.400 . S
C2380 H2365 0.960 . S
C2380 H2366 0.960 . S
C2380 H2367 0.960 . S
C2380 C2379 1.524 . S
C2381 C2378 1.403 . S
C2381 C2382 1.392 . S
C2381 C2385 1.495 . S
C2382 C2381 1.392 . S
C2382 C2383 1.385 . S
C2382 C2384 1.478 . S
C2383 H2377 0.930 . S
C2383 C2379 1.400 . S
C2383 C2382 1.385 . S
C2384 C2382 1.478 . S
C2384 C2386 1.381 . S
C2384 C2390 1.383 . S
C2385 C2381 1.495 . S
C2385 H2391 0.959 . S
C2385 H2392 0.961 . S
C2385 H2393 0.960 . S
C2386 C2384 1.381 . S
C2386 C2387 1.394 . S
C2386 H2394 0.930 . S
C2387 C2386 1.394 . S
C2387 C2388 1.383 . S
C2387 H2395 0.929 . S
C2388 C2387 1.383 . S
C2388 C2389 1.377 . S
C2389 H2373 0.930 . S
C2389 C2388 1.377 . S
C2389 C2390 1.379 . S
C2390 H2374 0.931 . S
C2390 C2384 1.383 . S
C2390 C2389 1.379 . S
H2391 C2385 0.959 . S
H2392 C2385 0.961 . S
H2393 C2385 0.960 . S
H2394 C2386 0.930 . S
H2395 C2387 0.929 . S
H2396 C2404 0.929 . S
H2397 C2406 0.930 . S
H2398 C2408 0.930 . S
H2399 C2411 0.929 . S
H2400 C2414 0.930 . S
H2401 C2416 0.960 . S
H2402 C2416 0.960 . S
H2403 C2416 0.960 . S
C2404 H2396 0.929 . S
C2404 C2405 1.377 . S
C2404 C2406 1.384 . S
C2405 C2404 1.377 . S
C2405 C2411 1.390 . S
C2406 H2397 0.930 . S
C2406 C2404 1.384 . S
C2406 C2407 1.372 . S
C2407 C2406 1.372 . S
C2407 C2408 1.400 . S
C2407 C2412 1.490 . S
C2408 H2398 0.930 . S
C2408 C2407 1.400 . S
C2408 C2411 1.386 . S
H2409 C2425 0.930 . S
H2410 C2426 0.931 . S
C2411 H2399 0.929 . S
C2411 C2405 1.390 . S
C2411 C2408 1.386 . S
C2412 C2407 1.490 . S
C2412 C2414 1.395 . S
C2412 C2415 1.403 . S
H2413 C2419 0.930 . S
C2414 H2400 0.930 . S
C2414 C2412 1.395 . S
C2414 C2417 1.403 . S
C2415 C2412 1.403 . S
C2415 C2416 1.524 . S
C2415 C2419 1.400 . S
C2416 H2401 0.960 . S
C2416 H2402 0.960 . S
C2416 H2403 0.960 . S
C2416 C2415 1.524 . S
C2417 C2414 1.403 . S
C2417 C2418 1.392 . S
C2417 C2421 1.495 . S
C2418 C2417 1.392 . S
C2418 C2419 1.385 . S
C2418 C2420 1.478 . S
C2419 H2413 0.930 . S
C2419 C2415 1.400 . S
C2419 C2418 1.385 . S
C2420 C2418 1.478 . S
C2420 C2422 1.381 . S
C2420 C2426 1.383 . S
C2421 C2417 1.495 . S
C2421 H2427 0.959 . S
C2421 H2428 0.961 . S
C2421 H2429 0.960 . S
C2422 C2420 1.381 . S
C2422 C2423 1.394 . S
C2422 H2430 0.930 . S
C2423 C2422 1.394 . S
C2423 C2424 1.383 . S
C2423 H2431 0.929 . S
C2424 C2423 1.383 . S
C2424 C2425 1.377 . S
C2425 H2409 0.930 . S
C2425 C2424 1.377 . S
C2425 C2426 1.379 . S
C2426 H2410 0.931 . S
C2426 C2420 1.383 . S
C2426 C2425 1.379 . S
H2427 C2421 0.959 . S
H2428 C2421 0.961 . S
H2429 C2421 0.960 . S
H2430 C2422 0.930 . S
H2431 C2423 0.929 . S
H2432 C2440 0.929 . S
H2433 C2442 0.930 . S
H2434 C2444 0.930 . S
H2435 C2447 0.929 . S
H2436 C2450 0.930 . S
H2437 C2452 0.960 . S
H2438 C2452 0.960 . S
H2439 C2452 0.960 . S
C2440 H2432 0.929 . S
C2440 C2441 1.377 . S
C2440 C2442 1.384 . S
C2441 C2440 1.377 . S
C2441 C2447 1.390 . S
C2442 H2433 0.930 . S
C2442 C2440 1.384 . S
C2442 C2443 1.372 . S
C2443 C2442 1.372 . S
C2443 C2444 1.400 . S
C2443 C2448 1.490 . S
C2444 H2434 0.930 . S
C2444 C2443 1.400 . S
C2444 C2447 1.386 . S
H2445 C2461 0.930 . S
H2446 C2462 0.931 . S
C2447 H2435 0.929 . S
C2447 C2441 1.390 . S
C2447 C2444 1.386 . S
C2448 C2443 1.490 . S
C2448 C2450 1.395 . S
C2448 C2451 1.403 . S
H2449 C2455 0.930 . S
C2450 H2436 0.930 . S
C2450 C2448 1.395 . S
C2450 C2453 1.403 . S
C2451 C2448 1.403 . S
C2451 C2452 1.524 . S
C2451 C2455 1.400 . S
C2452 H2437 0.960 . S
C2452 H2438 0.960 . S
C2452 H2439 0.960 . S
C2452 C2451 1.524 . S
C2453 C2450 1.403 . S
C2453 C2454 1.392 . S
C2453 C2457 1.495 . S
C2454 C2453 1.392 . S
C2454 C2455 1.385 . S
C2454 C2456 1.478 . S
C2455 H2449 0.930 . S
C2455 C2451 1.400 . S
C2455 C2454 1.385 . S
C2456 C2454 1.478 . S
C2456 C2458 1.381 . S
C2456 C2462 1.383 . S
C2457 C2453 1.495 . S
C2457 H2463 0.959 . S
C2457 H2464 0.961 . S
C2457 H2465 0.960 . S
C2458 C2456 1.381 . S
C2458 C2459 1.394 . S
C2458 H2466 0.930 . S
C2459 C2458 1.394 . S
C2459 C2460 1.383 . S
C2459 H2467 0.929 . S
C2460 C2459 1.383 . S
C2460 C2461 1.377 . S
C2461 H2445 0.930 . S
C2461 C2460 1.377 . S
C2461 C2462 1.379 . S
C2462 H2446 0.931 . S
C2462 C2456 1.383 . S
C2462 C2461 1.379 . S
H2463 C2457 0.959 . S
H2464 C2457 0.961 . S
H2465 C2457 0.960 . S
H2466 C2458 0.930 . S
H2467 C2459 0.929 . S
H2468 C2476 0.929 . S
H2469 C2478 0.930 . S
H2470 C2480 0.930 . S
H2471 C2483 0.929 . S
H2472 C2486 0.930 . S
H2473 C2488 0.960 . S
H2474 C2488 0.960 . S
H2475 C2488 0.960 . S
C2476 H2468 0.929 . S
C2476 C2477 1.377 . S
C2476 C2478 1.384 . S
C2477 C2476 1.377 . S
C2477 C2483 1.390 . S
C2478 H2469 0.930 . S
C2478 C2476 1.384 . S
C2478 C2479 1.372 . S
C2479 C2478 1.372 . S
C2479 C2480 1.400 . S
C2479 C2484 1.490 . S
C2480 H2470 0.930 . S
C2480 C2479 1.400 . S
C2480 C2483 1.386 . S
H2481 C2497 0.930 . S
H2482 C2498 0.931 . S
C2483 H2471 0.929 . S
C2483 C2477 1.390 . S
C2483 C2480 1.386 . S
C2484 C2479 1.490 . S
C2484 C2486 1.395 . S
C2484 C2487 1.403 . S
H2485 C2491 0.930 . S
C2486 H2472 0.930 . S
C2486 C2484 1.395 . S
C2486 C2489 1.403 . S
C2487 C2484 1.403 . S
C2487 C2488 1.524 . S
C2487 C2491 1.400 . S
C2488 H2473 0.960 . S
C2488 H2474 0.960 . S
C2488 H2475 0.960 . S
C2488 C2487 1.524 . S
C2489 C2486 1.403 . S
C2489 C2490 1.392 . S
C2489 C2493 1.495 . S
C2490 C2489 1.392 . S
C2490 C2491 1.385 . S
C2490 C2492 1.478 . S
C2491 H2485 0.930 . S
C2491 C2487 1.400 . S
C2491 C2490 1.385 . S
C2492 C2490 1.478 . S
C2492 C2494 1.381 . S
C2492 C2498 1.383 . S
C2493 C2489 1.495 . S
C2493 H2499 0.959 . S
C2493 H2500 0.961 . S
C2493 H2501 0.960 . S
C2494 C2492 1.381 . S
C2494 C2495 1.394 . S
C2494 H2502 0.930 . S
C2495 C2494 1.394 . S
C2495 C2496 1.383 . S
C2495 H2503 0.929 . S
C2496 C2495 1.383 . S
C2496 C2497 1.377 . S
C2497 H2481 0.930 . S
C2497 C2496 1.377 . S
C2497 C2498 1.379 . S
C2498 H2482 0.931 . S
C2498 C2492 1.383 . S
C2498 C2497 1.379 . S
H2499 C2493 0.959 . S
H2500 C2493 0.961 . S
H2501 C2493 0.960 . S
H2502 C2494 0.930 . S
H2503 C2495 0.929 . S
H2504 C2512 0.929 . S
H2505 C2514 0.930 . S
H2506 C2516 0.930 . S
H2507 C2519 0.929 . S
H2508 C2522 0.930 . S
H2509 C2524 0.960 . S
H2510 C2524 0.960 . S
H2511 C2524 0.960 . S
C2512 H2504 0.929 . S
C2512 C2513 1.377 . S
C2512 C2514 1.384 . S
C2513 C2512 1.377 . S
C2513 C2519 1.390 . S
C2514 H2505 0.930 . S
C2514 C2512 1.384 . S
C2514 C2515 1.372 . S
C2515 C2514 1.372 . S
C2515 C2516 1.400 . S
C2515 C2520 1.490 . S
C2516 H2506 0.930 . S
C2516 C2515 1.400 . S
C2516 C2519 1.386 . S
H2517 C2533 0.930 . S
H2518 C2534 0.931 . S
C2519 H2507 0.929 . S
C2519 C2513 1.390 . S
C2519 C2516 1.386 . S
C2520 C2515 1.490 . S
C2520 C2522 1.395 . S
C2520 C2523 1.403 . S
H2521 C2527 0.930 . S
C2522 H2508 0.930 . S
C2522 C2520 1.395 . S
C2522 C2525 1.403 . S
C2523 C2520 1.403 . S
C2523 C2524 1.524 . S
C2523 C2527 1.400 . S
C2524 H2509 0.960 . S
C2524 H2510 0.960 . S
C2524 H2511 0.960 . S
C2524 C2523 1.524 . S
C2525 C2522 1.403 . S
C2525 C2526 1.392 . S
C2525 C2529 1.495 . S
C2526 C2525 1.392 . S
C2526 C2527 1.385 . S
C2526 C2528 1.478 . S
C2527 H2521 0.930 . S
C2527 C2523 1.400 . S
C2527 C2526 1.385 . S
C2528 C2526 1.478 . S
C2528 C2530 1.381 . S
C2528 C2534 1.383 . S
C2529 C2525 1.495 . S
C2529 H2535 0.959 . S
C2529 H2536 0.961 . S
C2529 H2537 0.960 . S
C2530 C2528 1.381 . S
C2530 C2531 1.394 . S
C2530 H2538 0.930 . S
C2531 C2530 1.394 . S
C2531 C2532 1.383 . S
C2531 H2539 0.929 . S
C2532 C2531 1.383 . S
C2532 C2533 1.377 . S
C2533 H2517 0.930 . S
C2533 C2532 1.377 . S
C2533 C2534 1.379 . S
C2534 H2518 0.931 . S
C2534 C2528 1.383 . S
C2534 C2533 1.379 . S
H2535 C2529 0.959 . S
H2536 C2529 0.961 . S
H2537 C2529 0.960 . S
H2538 C2530 0.930 . S
H2539 C2531 0.929 . S
H2540 C2548 0.929 . S
H2541 C2550 0.930 . S
H2542 C2552 0.930 . S
H2543 C2555 0.929 . S
H2544 C2558 0.930 . S
H2545 C2560 0.960 . S
H2546 C2560 0.960 . S
H2547 C2560 0.960 . S
C2548 H2540 0.929 . S
C2548 C2549 1.377 . S
C2548 C2550 1.384 . S
C2549 C2548 1.377 . S
C2549 C2555 1.390 . S
C2550 H2541 0.930 . S
C2550 C2548 1.384 . S
C2550 C2551 1.372 . S
C2551 C2550 1.372 . S
C2551 C2552 1.400 . S
C2551 C2556 1.490 . S
C2552 H2542 0.930 . S
C2552 C2551 1.400 . S
C2552 C2555 1.386 . S
H2553 C2569 0.930 . S
H2554 C2570 0.931 . S
C2555 H2543 0.929 . S
C2555 C2549 1.390 . S
C2555 C2552 1.386 . S
C2556 C2551 1.490 . S
C2556 C2558 1.395 . S
C2556 C2559 1.403 . S
H2557 C2563 0.930 . S
C2558 H2544 0.930 . S
C2558 C2556 1.395 . S
C2558 C2561 1.403 . S
C2559 C2556 1.403 . S
C2559 C2560 1.524 . S
C2559 C2563 1.400 . S
C2560 H2545 0.960 . S
C2560 H2546 0.960 . S
C2560 H2547 0.960 . S
C2560 C2559 1.524 . S
C2561 C2558 1.403 . S
C2561 C2562 1.392 . S
C2561 C2565 1.495 . S
C2562 C2561 1.392 . S
C2562 C2563 1.385 . S
C2562 C2564 1.478 . S
C2563 H2557 0.930 . S
C2563 C2559 1.400 . S
C2563 C2562 1.385 . S
C2564 C2562 1.478 . S
C2564 C2566 1.381 . S
C2564 C2570 1.383 . S
C2565 C2561 1.495 . S
C2565 H2571 0.959 . S
C2565 H2572 0.961 . S
C2565 H2573 0.960 . S
C2566 C2564 1.381 . S
C2566 C2567 1.394 . S
C2566 H2574 0.930 . S
C2567 C2566 1.394 . S
C2567 C2568 1.383 . S
C2567 H2575 0.929 . S
C2568 C2567 1.383 . S
C2568 C2569 1.377 . S
C2569 H2553 0.930 . S
C2569 C2568 1.377 . S
C2569 C2570 1.379 . S
C2570 H2554 0.931 . S
C2570 C2564 1.383 . S
C2570 C2569 1.379 . S
H2571 C2565 0.959 . S
H2572 C2565 0.961 . S
H2573 C2565 0.960 . S
H2574 C2566 0.930 . S
H2575 C2567 0.929 . S
H2576 C2584 0.929 . S
H2577 C2586 0.930 . S
H2578 C2588 0.930 . S
H2579 C2591 0.929 . S
H2580 C2594 0.930 . S
H2581 C2596 0.960 . S
H2582 C2596 0.960 . S
H2583 C2596 0.960 . S
C2584 H2576 0.929 . S
C2584 C2585 1.377 . S
C2584 C2586 1.384 . S
C2585 C2584 1.377 . S
C2585 C2591 1.390 . S
C2586 H2577 0.930 . S
C2586 C2584 1.384 . S
C2586 C2587 1.372 . S
C2587 C2586 1.372 . S
C2587 C2588 1.400 . S
C2587 C2592 1.490 . S
C2588 H2578 0.930 . S
C2588 C2587 1.400 . S
C2588 C2591 1.386 . S
H2589 C2605 0.930 . S
H2590 C2606 0.931 . S
C2591 H2579 0.929 . S
C2591 C2585 1.390 . S
C2591 C2588 1.386 . S
C2592 C2587 1.490 . S
C2592 C2594 1.395 . S
C2592 C2595 1.403 . S
H2593 C2599 0.930 . S
C2594 H2580 0.930 . S
C2594 C2592 1.395 . S
C2594 C2597 1.403 . S
C2595 C2592 1.403 . S
C2595 C2596 1.524 . S
C2595 C2599 1.400 . S
C2596 H2581 0.960 . S
C2596 H2582 0.960 . S
C2596 H2583 0.960 . S
C2596 C2595 1.524 . S
C2597 C2594 1.403 . S
C2597 C2598 1.392 . S
C2597 C2601 1.495 . S
C2598 C2597 1.392 . S
C2598 C2599 1.385 . S
C2598 C2600 1.478 . S
C2599 H2593 0.930 . S
C2599 C2595 1.400 . S
C2599 C2598 1.385 . S
C2600 C2598 1.478 . S
C2600 C2602 1.381 . S
C2600 C2606 1.383 . S
C2601 C2597 1.495 . S
C2601 H2607 0.959 . S
C2601 H2608 0.961 . S
C2601 H2609 0.960 . S
C2602 C2600 1.381 . S
C2602 C2603 1.394 . S
C2602 H2610 0.930 . S
C2603 C2602 1.394 . S
C2603 C2604 1.383 . S
C2603 H2611 0.929 . S
C2604 C2603 1.383 . S
C2604 C2605 1.377 . S
C2605 H2589 0.930 . S
C2605 C2604 1.377 . S
C2605 C2606 1.379 . S
C2606 H2590 0.931 . S
C2606 C2600 1.383 . S
C2606 C2605 1.379 . S
H2607 C2601 0.959 . S
H2608 C2601 0.961 . S
H2609 C2601 0.960 . S
H2610 C2602 0.930 . S
H2611 C2603 0.929 . S
H2612 C2620 0.929 . S
H2613 C2622 0.930 . S
H2614 C2624 0.930 . S
H2615 C2627 0.929 . S
H2616 C2630 0.930 . S
H2617 C2632 0.960 . S
H2618 C2632 0.960 . S
H2619 C2632 0.960 . S
C2620 H2612 0.929 . S
C2620 C2621 1.377 . S
C2620 C2622 1.384 . S
C2621 C2620 1.377 . S
C2621 C2627 1.390 . S
C2622 H2613 0.930 . S
C2622 C2620 1.384 . S
C2622 C2623 1.372 . S
C2623 C2622 1.372 . S
C2623 C2624 1.400 . S
C2623 C2628 1.490 . S
C2624 H2614 0.930 . S
C2624 C2623 1.400 . S
C2624 C2627 1.386 . S
H2625 C2641 0.930 . S
H2626 C2642 0.931 . S
C2627 H2615 0.929 . S
C2627 C2621 1.390 . S
C2627 C2624 1.386 . S
C2628 C2623 1.490 . S
C2628 C2630 1.395 . S
C2628 C2631 1.403 . S
H2629 C2635 0.930 . S
C2630 H2616 0.930 . S
C2630 C2628 1.395 . S
C2630 C2633 1.403 . S
C2631 C2628 1.403 . S
C2631 C2632 1.524 . S
C2631 C2635 1.400 . S
C2632 H2617 0.960 . S
C2632 H2618 0.960 . S
C2632 H2619 0.960 . S
C2632 C2631 1.524 . S
C2633 C2630 1.403 . S
C2633 C2634 1.392 . S
C2633 C2637 1.495 . S
C2634 C2633 1.392 . S
C2634 C2635 1.385 . S
C2634 C2636 1.478 . S
C2635 H2629 0.930 . S
C2635 C2631 1.400 . S
C2635 C2634 1.385 . S
C2636 C2634 1.478 . S
C2636 C2638 1.381 . S
C2636 C2642 1.383 . S
C2637 C2633 1.495 . S
C2637 H2643 0.959 . S
C2637 H2644 0.961 . S
C2637 H2645 0.960 . S
C2638 C2636 1.381 . S
C2638 C2639 1.394 . S
C2638 H2646 0.930 . S
C2639 C2638 1.394 . S
C2639 C2640 1.383 . S
C2639 H2647 0.929 . S
C2640 C2639 1.383 . S
C2640 C2641 1.377 . S
C2641 H2625 0.930 . S
C2641 C2640 1.377 . S
C2641 C2642 1.379 . S
C2642 H2626 0.931 . S
C2642 C2636 1.383 . S
C2642 C2641 1.379 . S
H2643 C2637 0.959 . S
H2644 C2637 0.961 . S
H2645 C2637 0.960 . S
H2646 C2638 0.930 . S
H2647 C2639 0.929 . S
H2648 C2656 0.929 . S
H2649 C2658 0.930 . S
H2650 C2660 0.930 . S
H2651 C2663 0.929 . S
H2652 C2666 0.930 . S
H2653 C2668 0.960 . S
H2654 C2668 0.960 . S
H2655 C2668 0.960 . S
C2656 H2648 0.929 . S
C2656 C2657 1.377 . S
C2656 C2658 1.384 . S
C2657 C2656 1.377 . S
C2657 C2663 1.390 . S
C2658 H2649 0.930 . S
C2658 C2656 1.384 . S
C2658 C2659 1.372 . S
C2659 C2658 1.372 . S
C2659 C2660 1.400 . S
C2659 C2664 1.490 . S
C2660 H2650 0.930 . S
C2660 C2659 1.400 . S
C2660 C2663 1.386 . S
H2661 C2677 0.930 . S
H2662 C2678 0.931 . S
C2663 H2651 0.929 . S
C2663 C2657 1.390 . S
C2663 C2660 1.386 . S
C2664 C2659 1.490 . S
C2664 C2666 1.395 . S
C2664 C2667 1.403 . S
H2665 C2671 0.930 . S
C2666 H2652 0.930 . S
C2666 C2664 1.395 . S
C2666 C2669 1.403 . S
C2667 C2664 1.403 . S
C2667 C2668 1.524 . S
C2667 C2671 1.400 . S
C2668 H2653 0.960 . S
C2668 H2654 0.960 . S
C2668 H2655 0.960 . S
C2668 C2667 1.524 . S
C2669 C2666 1.403 . S
C2669 C2670 1.392 . S
C2669 C2673 1.495 . S
C2670 C2669 1.392 . S
C2670 C2671 1.385 . S
C2670 C2672 1.478 . S
C2671 H2665 0.930 . S
C2671 C2667 1.400 . S
C2671 C2670 1.385 . S
C2672 C2670 1.478 . S
C2672 C2674 1.381 . S
C2672 C2678 1.383 . S
C2673 C2669 1.495 . S
C2673 H2679 0.959 . S
C2673 H2680 0.961 . S
C2673 H2681 0.960 . S
C2674 C2672 1.381 . S
C2674 C2675 1.394 . S
C2674 H2682 0.930 . S
C2675 C2674 1.394 . S
C2675 C2676 1.383 . S
C2675 H2683 0.929 . S
C2676 C2675 1.383 . S
C2676 C2677 1.377 . S
C2677 H2661 0.930 . S
C2677 C2676 1.377 . S
C2677 C2678 1.379 . S
C2678 H2662 0.931 . S
C2678 C2672 1.383 . S
C2678 C2677 1.379 . S
H2679 C2673 0.959 . S
H2680 C2673 0.961 . S
H2681 C2673 0.960 . S
H2682 C2674 0.930 . S
H2683 C2675 0.929 . S
H2684 C2692 0.929 . S
H2685 C2694 0.930 . S
H2686 C2696 0.930 . S
H2687 C2699 0.929 . S
H2688 C2702 0.930 . S
H2689 C2704 0.960 . S
H2690 C2704 0.960 . S
H2691 C2704 0.960 . S
C2692 H2684 0.929 . S
C2692 C2693 1.377 . S
C2692 C2694 1.384 . S
C2693 C2692 1.377 . S
C2693 C2699 1.390 . S
C2694 H2685 0.930 . S
C2694 C2692 1.384 . S
C2694 C2695 1.372 . S
C2695 C2694 1.372 . S
C2695 C2696 1.400 . S
C2695 C2700 1.490 . S
C2696 H2686 0.930 . S
C2696 C2695 1.400 . S
C2696 C2699 1.386 . S
H2697 C2713 0.930 . S
H2698 C2714 0.931 . S
C2699 H2687 0.929 . S
C2699 C2693 1.390 . S
C2699 C2696 1.386 . S
C2700 C2695 1.490 . S
C2700 C2702 1.395 . S
C2700 C2703 1.403 . S
H2701 C2707 0.930 . S
C2702 H2688 0.930 . S
C2702 C2700 1.395 . S
C2702 C2705 1.403 . S
C2703 C2700 1.403 . S
C2703 C2704 1.524 . S
C2703 C2707 1.400 . S
C2704 H2689 0.960 . S
C2704 H2690 0.960 . S
C2704 H2691 0.960 . S
C2704 C2703 1.524 . S
C2705 C2702 1.403 . S
C2705 C2706 1.392 . S
C2705 C2709 1.495 . S
C2706 C2705 1.392 . S
C2706 C2707 1.385 . S
C2706 C2708 1.478 . S
C2707 H2701 0.930 . S
C2707 C2703 1.400 . S
C2707 C2706 1.385 . S
C2708 C2706 1.478 . S
C2708 C2710 1.381 . S
C2708 C2714 1.383 . S
C2709 C2705 1.495 . S
C2709 H2715 0.959 . S
C2709 H2716 0.961 . S
C2709 H2717 0.960 . S
C2710 C2708 1.381 . S
C2710 C2711 1.394 . S
C2710 H2718 0.930 . S
C2711 C2710 1.394 . S
C2711 C2712 1.383 . S
C2711 H2719 0.929 . S
C2712 C2711 1.383 . S
C2712 C2713 1.377 . S
C2713 H2697 0.930 . S
C2713 C2712 1.377 . S
C2713 C2714 1.379 . S
C2714 H2698 0.931 . S
C2714 C2708 1.383 . S
C2714 C2713 1.379 . S
H2715 C2709 0.959 . S
H2716 C2709 0.961 . S
H2717 C2709 0.960 . S
H2718 C2710 0.930 . S
H2719 C2711 0.929 . S
C425 C199 1.557 . S
C444 C4 1.557 . S
C461 C23 1.556 . S
C480 C166 1.557 . S
C497 C30 1.557 . S
C516 C173 1.549 . S
C533 C192 1.557 . S
C552 C43 1.558 . S
C569 C62 1.558 . S
C588 C127 1.553 . S
C605 C69 1.556 . S
C624 C140 1.553 . S
C641 C147 1.558 . S
C660 C88 1.553 . S
C677 C114 1.557 . S
C696 C95 1.549 . S
C713 C212 1.557 . S
C732 C407 1.557 . S
C749 C225 1.556 . S
C768 C374 1.556 . S
C785 C238 1.558 . S
C804 C381 1.552 . S
C821 C394 1.557 . S
C840 C251 1.556 . S
C857 C264 1.556 . S
C876 C329 1.557 . S
C893 C283 1.558 . S
C912 C342 1.553 . S
C929 C355 1.556 . S
C948 C290 1.553 . S
C965 C303 1.556 . S
C984 C316 1.555 . S
C1001 C159 1.462 . S
C1020 C5 1.456 . S
C1037 C16 1.461 . S
C1056 C174 1.461 . S
C1073 C185 1.462 . S
C1092 C31 1.462 . S
C1109 C44 1.462 . S
C1128 C200 1.458 . S
C1145 C55 1.462 . S
C1164 C107 1.456 . S
C1181 C120 1.463 . S
C1200 C70 1.456 . S
C1217 C133 1.462 . S
C1236 C81 1.461 . S
C1253 C148 1.462 . S
C1272 C96 1.456 . S
C1289 C213 1.462 . S
C1308 C367 1.462 . S
C1325 C382 1.462 . S
C1344 C226 1.462 . S
C1361 C239 1.462 . S
C1380 C395 1.462 . S
C1397 C252 1.462 . S
C1416 C408 1.462 . S
C1433 C317 1.462 . S
C1452 C265 1.462 . S
C1469 C276 1.462 . S
C1488 C330 1.456 . S
C1505 C291 1.463 . S
C1524 C343 1.456 . S
C1541 C304 1.462 . S
C1560 C356 1.456 . S
C1577 C3 1.404 . S
C1596 C135 1.413 . S
C1613 C146 1.407 . S
C1632 C18 1.397 . S
C1649 C29 1.405 . S
C1668 C109 1.410 . S
C1685 C122 1.402 . S
C1704 C42 1.406 . S
C1721 C187 1.407 . S
C1740 C57 1.394 . S
C1757 C198 1.407 . S
C1776 C68 1.404 . S
C1793 C161 1.404 . S
C1812 C83 1.413 . S
C1829 C94 1.403 . S
C1848 C172 1.413 . S
C1865 C341 1.407 . S
C1884 C211 1.400 . S
C1901 C224 1.403 . S
C1920 C354 1.401 . S
C1937 C315 1.405 . S
C1956 C237 1.412 . S
C1973 C328 1.402 . S
C1992 C250 1.408 . S
C2009 C263 1.406 . S
C2028 C393 1.407 . S
C2045 C278 1.402 . S
C2064 C406 1.409 . S
C2081 C369 1.405 . S
C2100 C289 1.410 . S
C2117 C380 1.405 . S
C2136 C302 1.392 . S
C2153 C309 1.286 . S
C2172 C10 1.293 . S
C2189 C270 1.286 . S
C2208 C17 1.294 . S
C2225 C277 1.286 . S
C2244 C36 1.294 . S
C2261 C296 1.289 . S
C2280 C49 1.278 . S
C2297 C231 1.287 . S
C2316 C56 1.287 . S
C2333 C75 1.286 . S
C2352 C244 1.291 . S
C2369 C82 1.288 . S
C2388 C257 1.284 . S
C2405 C101 1.286 . S
C2424 C218 1.292 . S
C2441 C108 1.286 . S
C2460 C413 1.280 . S
C2477 C368 1.289 . S
C2496 C121 1.294 . S
C2513 C134 1.289 . S
C2532 C387 1.294 . S
C2549 C153 1.286 . S
C2568 C400 1.276 . S
C2585 C335 1.288 . S
C2604 C160 1.293 . S
C2621 C348 1.287 . S
C2640 C179 1.276 . S
C2657 C186 1.289 . S
C2676 C361 1.285 . S
C2693 C205 1.287 . S
C2712 C322 1.276 . S
