# Generated by pormake.
# Topology ooa, (5)-cn, num edge types: 1
# Building blocks:
#     Node 0, Type 0, BuildingBlock: XOMCOT_clean_sbu_1, # of connection points: 5
#     Node 1, Type 0, BuildingBlock: XOMCOT_clean_sbu_1, # of connection points: 5
#     Node 2, Type 0, BuildingBlock: XOMCOT_clean_sbu_1, # of connection points: 5
#     Node 3, Type 0, BuildingBlock: XOMCOT_clean_sbu_1, # of connection points: 5
#     Node 4, Type 0, BuildingBlock: XOMCOT_clean_sbu_1, # of connection points: 5
#     Node 5, Type 0, BuildingBlock: XOMCOT_clean_sbu_1, # of connection points: 5
#     Node 6, Type 0, BuildingBlock: XOMCOT_clean_sbu_1, # of connection points: 5
#     Node 7, Type 0, BuildingBlock: XOMCOT_clean_sbu_1, # of connection points: 5
#     Edge 8, Type (0, 0), BuildingBlock: TEMPAE_clean_linker_10, # of connection points: 2
#     Edge 9, Type (0, 0), BuildingBlock: TEMPAE_clean_linker_10, # of connection points: 2
#     Edge 10, Type (0, 0), BuildingBlock: TEMPAE_clean_linker_10, # of connection points: 2
#     Edge 11, Type (0, 0), BuildingBlock: TEMPAE_clean_linker_10, # of connection points: 2
#     Edge 12, Type (0, 0), BuildingBlock: TEMPAE_clean_linker_10, # of connection points: 2
#     Edge 13, Type (0, 0), BuildingBlock: TEMPAE_clean_linker_10, # of connection points: 2
#     Edge 14, Type (0, 0), BuildingBlock: TEMPAE_clean_linker_10, # of connection points: 2
#     Edge 15, Type (0, 0), BuildingBlock: TEMPAE_clean_linker_10, # of connection points: 2
#     Edge 16, Type (0, 0), BuildingBlock: TEMPAE_clean_linker_10, # of connection points: 2
#     Edge 17, Type (0, 0), BuildingBlock: TEMPAE_clean_linker_10, # of connection points: 2
#     Edge 18, Type (0, 0), BuildingBlock: TEMPAE_clean_linker_10, # of connection points: 2
#     Edge 19, Type (0, 0), BuildingBlock: TEMPAE_clean_linker_10, # of connection points: 2
#     Edge 20, Type (0, 0), BuildingBlock: TEMPAE_clean_linker_10, # of connection points: 2
#     Edge 21, Type (0, 0), BuildingBlock: TEMPAE_clean_linker_10, # of connection points: 2
#     Edge 22, Type (0, 0), BuildingBlock: TEMPAE_clean_linker_10, # of connection points: 2
#     Edge 23, Type (0, 0), BuildingBlock: TEMPAE_clean_linker_10, # of connection points: 2
#     Edge 24, Type (0, 0), BuildingBlock: TEMPAE_clean_linker_10, # of connection points: 2
#     Edge 25, Type (0, 0), BuildingBlock: TEMPAE_clean_linker_10, # of connection points: 2
#     Edge 26, Type (0, 0), BuildingBlock: TEMPAE_clean_linker_10, # of connection points: 2
#     Edge 27, Type (0, 0), BuildingBlock: TEMPAE_clean_linker_10, # of connection points: 2
# Relax obj value: 0.416
# Max RMSD: 0.218
# Mean RMSD: 0.218
data_MOF--net-ooa--node1-XOMCOT_clean_sbu_1--edge1-TEMPAE_clean_linker_10
_symmetry_space_group_name_H-M    P1
_symmetry_Int_Tables_number       1
_symmetry_cell_setting            triclinic
loop_
_symmetry_equiv_pos_as_xyz
'x, y, z'
_cell_length_a     29.277601
_cell_length_b     30.965773
_cell_length_c     49.144291
_cell_angle_alpha  90.026265
_cell_angle_beta   90.007326
_cell_angle_gamma 90.051215
loop_
_atom_site_label
_atom_site_type_symbol
_atom_site_fract_x
_atom_site_fract_y
_atom_site_fract_z
_atom_type_partial_charge
C0 C 0.08113 0.13148 0.09842 0.0
C1 C 0.10729 0.0953 0.10299 0.0
N2 N 0.14156 0.095 0.08471 0.0
N3 N 0.09907 0.1538 0.07746 0.0
C4 C 0.13578 0.13077 0.06949 0.0
H5 H 0.05022 0.14035 0.1091 0.0
Co6 Co 0.07183 0.20045 0.06057 0.0
C7 C 0.15237 0.25471 0.04589 0.0
O8 O 0.13337 0.28914 0.05669 0.0
N9 N 0.04144 0.24566 0.04269 0.0
C10 C 1.01533 0.28742 0.00921 0.0
C11 C 0.05361 0.26923 0.02068 0.0
C12 C 0.99548 0.24938 0.0436 0.0
N13 N 0.97865 0.27444 0.02354 0.0
O14 O 0.06333 0.16544 0.02965 0.0
H15 H 0.08691 0.26936 0.0113 0.0
H16 H 0.97419 0.2297 0.0566 0.0
O17 O 0.13106 0.21868 0.04614 0.0
C18 C 0.02744 0.14235 0.02959 0.0
O19 O 0.99611 0.14907 0.04823 0.0
N20 N 0.07941 0.23279 0.0928 0.0
C21 C 0.08307 0.24798 0.14869 0.0
C22 C 0.12321 0.24101 0.13388 0.0
C23 C 0.12062 0.23304 0.10599 0.0
C24 C 0.04054 0.24308 0.10663 0.0
C25 C 0.04168 0.25126 0.13453 0.0
H26 H 0.15119 0.22198 0.09588 0.0
H27 H 1.00773 0.2405 0.09697 0.0
H28 H 0.15636 0.13867 0.05193 0.0
H29 H 0.10136 0.07092 0.11837 0.0
H30 H 1.01433 0.30571 0.99046 0.0
H31 H 0.15576 0.23738 0.1441 0.0
H32 H 1.00989 0.25673 0.14526 0.0
C33 C 0.45655 0.84639 0.10338 0.0
C34 C 0.42667 0.87961 0.10834 0.0
N35 N 0.39338 0.87833 0.08937 0.0
N36 N 0.44214 0.82404 0.0815 0.0
C37 C 0.40373 0.84429 0.07328 0.0
H38 H 0.48752 0.83951 0.11457 0.0
Co39 Co 0.47468 0.77931 0.06564 0.0
C40 C 0.39616 0.72215 0.04791 0.0
O41 O 0.41208 0.68799 0.0605 0.0
N42 N 0.51063 0.73482 0.04951 0.0
C43 C 0.55354 0.67557 0.04514 0.0
C44 C 0.51418 0.69252 0.0562 0.0
C45 C 0.54808 0.74214 0.03393 0.0
N46 N 0.57482 0.70702 0.03121 0.0
O47 O 0.48369 0.81539 0.03512 0.0
H48 H 0.49279 0.67591 0.0707 0.0
H49 H 0.55848 0.77351 0.02677 0.0
O50 O 0.41833 0.75769 0.04875 0.0
C51 C 0.51507 0.8431 0.03919 0.0
O52 O 0.54126 0.83923 0.06077 0.0
N53 N 0.46691 0.74733 0.09753 0.0
C54 C 0.46341 0.73449 0.15346 0.0
C55 C 0.42307 0.73608 0.13815 0.0
C56 C 0.42552 0.74305 0.11013 0.0
C57 C 0.50641 0.74243 0.11185 0.0
C58 C 0.50544 0.73545 0.13983 0.0
H59 H 0.39428 0.75023 0.09938 0.0
H60 H 0.53889 0.74821 0.102 0.0
H61 H 0.38421 0.83458 0.05562 0.0
H62 H 0.4302 0.90366 0.12417 0.0
H63 H 0.5671 0.64355 0.04871 0.0
H64 H 0.38999 0.73637 0.14803 0.0
H65 H 0.53733 0.73422 0.15098 0.0
C66 C 0.1076 0.32714 0.39031 0.0
C67 C 0.13961 0.35854 0.38494 0.0
N68 N 0.16192 0.36735 0.40822 0.0
N69 N 0.11047 0.31565 0.41676 0.0
C70 C 0.14371 0.34103 0.42717 0.0
H71 H 0.08294 0.31442 0.37601 0.0
Co72 Co 0.07253 0.27753 0.43576 0.0
C73 C 0.13566 0.24779 0.4783 0.0
O74 O 0.10444 0.25489 0.49697 0.0
N75 N 0.03371 0.24039 0.45467 0.0
C76 C 0.99586 0.18303 0.46995 0.0
C77 C 0.03598 0.1972 0.45816 0.0
C78 C 0.99248 0.25175 0.46466 0.0
N79 N 0.96881 0.21757 0.47408 0.0
O80 O 0.06611 0.31966 0.4635 0.0
H81 H 0.06409 0.17717 0.4515 0.0
H82 H 0.97888 0.28418 0.46372 0.0
O83 O 0.12609 0.25388 0.45329 0.0
C84 C 0.04182 0.35113 0.45541 0.0
O85 O 0.02288 0.34936 0.43119 0.0
N86 N 0.07663 0.2383 0.40723 0.0
C87 C 0.07851 0.21591 0.35271 0.0
C88 C 0.11866 0.21419 0.36831 0.0
C89 C 0.11697 0.22544 0.39587 0.0
C90 C 0.03668 0.23462 0.39327 0.0
C91 C 0.03679 0.22292 0.36597 0.0
H92 H 0.14869 0.22938 0.40685 0.0
H93 H 1.00519 0.24572 0.4024 0.0
H94 H 0.15348 0.34112 0.44842 0.0
H95 H 0.14466 0.37511 0.36577 0.0
H96 H 0.98687 0.14995 0.47465 0.0
H97 H 0.15153 0.20895 0.35876 0.0
H98 H 1.005 0.2237 0.35469 0.0
C99 C 0.43339 0.65435 0.39651 0.0
C100 C 0.40195 0.62262 0.39068 0.0
N101 N 0.37672 0.61587 0.41312 0.0
N102 N 0.42713 0.66803 0.42233 0.0
C103 C 0.39273 0.6434 0.43208 0.0
H104 H 0.45986 0.66601 0.38302 0.0
Co105 Co 0.46359 0.70719 0.44123 0.0
C106 C 0.38976 0.76686 0.46068 0.0
O107 O 0.40911 0.80043 0.44906 0.0
N108 N 0.50286 0.74423 0.46069 0.0
C109 C 0.53905 0.78461 0.49151 0.0
C110 C 0.497 0.77347 0.48083 0.0
C111 C 0.5485 0.73772 0.46005 0.0
N112 N 0.57136 0.76163 0.4785 0.0
O113 O 0.47034 0.66555 0.46901 0.0
H114 H 0.4646 0.78383 0.48894 0.0
H115 H 0.56468 0.7146 0.4467 0.0
O116 O 0.4089 0.72979 0.45949 0.0
C117 C 0.50105 0.63787 0.46355 0.0
O118 O 0.52531 0.64235 0.44124 0.0
N119 N 0.45864 0.74645 0.41193 0.0
C120 C 0.45799 0.76942 0.35719 0.0
C121 C 0.41686 0.76463 0.37141 0.0
C122 C 0.41789 0.75294 0.39885 0.0
C123 C 0.49866 0.75585 0.39903 0.0
C124 C 0.49906 0.76793 0.37175 0.0
H125 H 0.38613 0.7434 0.40829 0.0
H126 H 0.53092 0.74914 0.40859 0.0
H127 H 0.38063 0.64462 0.45289 0.0
H128 H 0.39911 0.60453 0.37189 0.0
H129 H 0.54501 0.80566 0.50874 0.0
H130 H 0.38441 0.76502 0.36083 0.0
H131 H 0.53156 0.77188 0.36149 0.0
C132 C 0.93841 0.82854 0.89261 0.0
C133 C 0.90915 0.86222 0.88771 0.0
N134 N 0.88551 0.87042 0.91069 0.0
N135 N 0.93291 0.81489 0.91845 0.0
C136 C 0.90045 0.84104 0.929 0.0
H137 H 0.96314 0.81563 0.87845 0.0
Co138 Co 0.97008 0.77415 0.93566 0.0
C139 C 0.89913 0.71892 0.96287 0.0
O140 O 0.91798 0.6834 0.9537 0.0
N141 N 1.01032 0.73395 0.95292 0.0
C142 C 0.0559 0.67721 0.96014 0.0
C143 C 1.01586 0.6911 0.94839 0.0
C144 C 0.04775 0.74486 0.96776 0.0
N145 N 0.07601 0.71119 0.97221 0.0
O146 O 0.9843 0.81668 0.9621 0.0
H147 H 0.99469 0.67151 0.93529 0.0
H148 H 0.05652 0.77753 0.97337 0.0
O149 O 0.91738 0.75548 0.95755 0.0
C150 C 1.01178 0.84389 0.9516 0.0
O151 O 0.02978 0.83508 0.92773 0.0
N152 N 0.95738 0.73543 0.90739 0.0
C153 C 0.9432 0.71465 0.85305 0.0
C154 C 0.90624 0.71688 0.87113 0.0
C155 C 0.914 0.72768 0.8983 0.0
C156 C 0.99392 0.72914 0.89067 0.0
C157 C 0.98762 0.7182 0.86343 0.0
H158 H 0.8848 0.73556 0.91074 0.0
H159 H 0.02782 0.73762 0.89763 0.0
H160 H 0.88982 0.83998 0.95008 0.0
H161 H 0.90608 0.87968 0.86873 0.0
H162 H 0.07035 0.64513 0.9586 0.0
H163 H 0.87144 0.7145 0.86379 0.0
H164 H 1.01703 0.71746 0.85007 0.0
C165 C 0.59982 0.14901 0.8957 0.0
C166 C 0.62733 0.11412 0.89023 0.0
N167 N 0.65353 0.10635 0.91227 0.0
N168 N 0.60903 0.16363 0.92094 0.0
C169 C 0.64177 0.13698 0.93055 0.0
H170 H 0.57384 0.16214 0.88244 0.0
Co171 Co 0.57654 0.2057 0.94002 0.0
C172 C 0.65283 0.26027 0.96057 0.0
O173 O 0.63268 0.29517 0.95119 0.0
N174 N 0.54176 0.24598 0.95991 0.0
C175 C 0.51273 0.28249 0.99494 0.0
C176 C 0.55206 0.26769 0.98301 0.0
C177 C 0.49556 0.24708 0.95891 0.0
N178 N 0.47702 0.26893 0.97999 0.0
O179 O 0.56513 0.16451 0.96754 0.0
H180 H 0.58498 0.26872 0.99277 0.0
H181 H 0.47572 0.22805 0.94472 0.0
O182 O 0.63336 0.22349 0.95796 0.0
C183 C 0.53384 0.13923 0.95917 0.0
O184 O 0.51288 0.1484 0.93624 0.0
N185 N 0.5855 0.24415 0.91078 0.0
C186 C 0.59245 0.26337 0.85556 0.0
C187 C 0.63177 0.25932 0.8716 0.0
C188 C 0.62762 0.24886 0.89904 0.0
C189 C 0.54707 0.25317 0.89617 0.0
C190 C 0.54976 0.26295 0.86848 0.0
H191 H 0.65816 0.23878 0.90953 0.0
H192 H 0.51386 0.24721 0.90483 0.0
H193 H 0.65486 0.13864 0.95111 0.0
H194 H 0.62752 0.09565 0.87153 0.0
H195 H 0.51057 0.29895 0.01433 0.0
H196 H 0.66544 0.25979 0.86247 0.0
H197 H 0.51845 0.26539 0.85684 0.0
C198 C 0.94422 0.64878 0.61333 0.0
C199 C 0.91525 0.61498 0.61884 0.0
N200 N 0.89 0.60695 0.59644 0.0
N201 N 0.93694 0.66248 0.58768 0.0
C202 C 0.90382 0.63636 0.57787 0.0
H203 H 0.96962 0.66194 0.62698 0.0
Co204 Co 0.97038 0.70438 0.56927 0.0
C205 C 0.9045 0.72863 0.52612 0.0
O206 O 0.9357 0.72524 0.50703 0.0
N207 N 1.00542 0.7457 0.55094 0.0
C208 C 0.03786 0.80654 0.53636 0.0
C209 C 0.9995 0.78877 0.54841 0.0
C210 C 0.04705 0.7381 0.54011 0.0
N211 N 0.06737 0.77432 0.53105 0.0
O212 O 0.98253 0.66325 0.54177 0.0
H213 H 0.97006 0.80629 0.5558 0.0
H214 H 0.06353 0.70693 0.54002 0.0
O215 O 0.9153 0.72225 0.55089 0.0
C216 C 1.0132 0.63642 0.54882 0.0
O217 O 0.03477 0.64245 0.57198 0.0
N218 N 0.95986 0.74272 0.59772 0.0
C219 C 0.94682 0.76525 0.65172 0.0
C220 C 0.90987 0.76494 0.63356 0.0
C221 C 0.91707 0.75341 0.60648 0.0
C222 C 0.99683 0.74831 0.61414 0.0
C223 C 0.99109 0.75971 0.64138 0.0
H224 H 0.88759 0.74825 0.59371 0.0
H225 H 0.03029 0.73877 0.607 0.0
H226 H 0.89153 0.63781 0.55712 0.0
H227 H 0.91325 0.59756 0.63789 0.0
H228 H 0.0439 0.84039 0.5322 0.0
H229 H 0.87525 0.76961 0.64077 0.0
H230 H 1.02052 0.75942 0.65473 0.0
C231 C 0.59863 0.33334 0.61222 0.0
C232 C 0.62729 0.36736 0.61769 0.0
N233 N 0.65296 0.37499 0.59542 0.0
N234 N 0.60658 0.31904 0.58675 0.0
C235 C 0.63979 0.34507 0.57698 0.0
H236 H 0.57273 0.32052 0.62568 0.0
Co237 Co 0.5714 0.2779 0.56855 0.0
C238 C 0.64733 0.22338 0.54637 0.0
O239 O 0.63074 0.18861 0.55811 0.0
N240 N 0.53338 0.23865 0.55006 0.0
C241 C 0.49815 0.19648 0.51982 0.0
C242 C 0.53991 0.2097 0.52981 0.0
C243 C 0.48748 0.24297 0.55142 0.0
N244 N 0.46521 0.21788 0.5333 0.0
O245 O 0.5585 0.31968 0.54148 0.0
H246 H 0.5723 0.20123 0.52091 0.0
H247 H 0.47074 0.26588 0.5647 0.0
O248 O 0.6261 0.25935 0.54834 0.0
C249 C 0.52996 0.34699 0.55072 0.0
O250 O 0.51187 0.34035 0.57483 0.0
N251 N 0.58194 0.23893 0.59734 0.0
C252 C 0.59089 0.21882 0.65232 0.0
C253 C 0.62965 0.22371 0.63589 0.0
C254 C 0.62449 0.23454 0.60856 0.0
C255 C 0.54411 0.22905 0.61229 0.0
C256 C 0.5478 0.2188 0.63986 0.0
H257 H 0.65453 0.24511 0.5977 0.0
H258 H 0.51051 0.23458 0.60404 0.0
H259 H 0.65229 0.34347 0.55628 0.0
H260 H 0.62863 0.38536 0.63655 0.0
H261 H 0.49266 0.17547 0.50251 0.0
H262 H 0.6636 0.22357 0.64465 0.0
H263 H 0.51689 0.21569 0.65181 0.0
C264 C 0.98515 0.08385 0.00591 0.0
C265 C 0.02673 0.10154 0.01445 0.0
C266 C 0.98325 0.04204 0.99503 0.0
C267 C 0.0237 0.01708 0.99371 0.0
C268 C 0.06587 0.03502 0.00213 0.0
C269 C 0.06698 0.07743 0.01197 0.0
C270 C 0.9379 0.02432 0.98546 0.0
C271 C 0.10948 0.00897 0.00168 0.0
C272 C 1.00917 0.8954 0.99074 0.0
C273 C 1.0171 0.88743 0.96311 0.0
C274 C 1.01212 0.93752 1.00117 0.0
C275 C 0.02198 0.97223 0.98333 0.0
C276 C 0.02987 0.96424 0.95542 0.0
C277 C 0.02785 0.92184 0.94571 0.0
C278 C 1.00453 0.94493 0.0312 0.0
C279 C 0.03947 0.00056 0.9357 0.0
H280 H 0.95407 0.10257 0.00805 0.0
H281 H 0.09902 0.09089 0.01907 0.0
H282 H 0.9408 0.0126 0.96419 0.0
H283 H 0.92793 -0.0037 0.9982 0.0
H284 H 0.91024 0.04881 0.98644 0.0
H285 H 0.13925 0.0276 0.00939 0.0
H286 H 0.1054 0.97961 0.0144 0.0
H287 H 0.11697 -0.00193 0.98065 0.0
H288 H 1.00086 0.86875 0.00415 0.0
H289 H 0.03333 0.91585 0.92422 0.0
H290 H 0.97425 0.96586 0.03428 0.0
H291 H 0.03434 0.962 0.04011 0.0
H292 H 0.99916 0.91426 0.04248 0.0
H293 H 1.01071 0.02387 0.93586 0.0
H294 H 0.04441 0.9888 0.91454 0.0
H295 H 0.07056 0.01841 0.94203 0.0
C296 C 0.52613 0.06064 0.95237 0.0
C297 C 0.52956 0.09559 0.97037 0.0
C298 C 0.52384 0.01827 0.96205 0.0
C299 C 0.52366 0.01093 0.99042 0.0
C300 C 0.52648 0.04623 0.00874 0.0
C301 C 0.53024 0.08834 0.99842 0.0
C302 C 0.52247 0.98138 0.94193 0.0
C303 C 0.52546 0.03948 0.03915 0.0
C304 C 0.47708 0.90423 0.01596 0.0
C305 C 0.51739 0.88284 0.02314 0.0
C306 C 0.47856 0.94611 0.00522 0.0
C307 C 0.52144 0.96617 1.00089 0.0
C308 C 0.56229 0.94366 0.00685 0.0
C309 C 0.55971 0.90242 0.0184 0.0
C310 C 0.4343 0.96951 0.99959 0.0
C311 C 0.60864 0.96354 0.0017 0.0
H312 H 0.52654 0.0664 0.9306 0.0
H313 H 0.53298 0.11559 0.0122 0.0
H314 H 0.55195 0.95956 0.94541 0.0
H315 H 0.49099 0.96201 0.94494 0.0
H316 H 0.52347 -0.00727 0.9205 0.0
H317 H 0.52584 0.07047 0.05055 0.0
H318 H 0.49437 0.02111 0.04494 0.0
H319 H 0.55539 0.02003 0.04554 0.0
H320 H 0.44436 0.88922 0.02018 0.0
H321 H 0.59077 0.88567 0.02414 0.0
H322 H 0.43291 0.97974 0.97799 0.0
H323 H 0.43245 -0.00082 0.01222 0.0
H324 H 0.40387 0.94922 0.00403 0.0
H325 H 0.61107 0.97497 0.98035 0.0
H326 H 0.63693 0.94046 0.00556 0.0
H327 H 0.61343 -0.00793 0.01506 0.0
C328 C 0.9878 0.58079 0.51552 0.0
C329 C 0.02144 0.59684 0.53307 0.0
C330 C 0.99313 0.54052 0.50292 0.0
C331 C 0.03336 0.51633 0.50772 0.0
C332 C 0.06815 0.53318 0.52463 0.0
C333 C 0.06157 0.57316 0.53732 0.0
C334 C 0.95519 0.52329 0.48513 0.0
C335 C 0.1118 0.50858 0.52983 0.0
C336 C 0.02655 0.39541 0.4965 0.0
C337 C 0.04267 0.39226 0.46985 0.0
C338 C 0.02369 0.43581 0.5093 0.0
C339 C 0.03869 0.47317 0.49521 0.0
C340 C 0.05722 0.4695 0.46874 0.0
C341 C 0.05815 0.42902 0.45615 0.0
C342 C 1.00327 0.43872 0.53745 0.0
C343 C 0.07514 0.50832 0.4535 0.0
H344 H 0.95656 0.59892 0.51244 0.0
H345 H 0.08769 0.58567 0.55084 0.0
H346 H 0.96838 0.51646 0.46442 0.0
H347 H 0.94225 0.49238 0.49358 0.0
H348 H 0.92617 0.54623 0.48344 0.0
H349 H 0.13755 0.52839 0.5408 0.0
H350 H 0.10427 0.47949 0.54221 0.0
H351 H 0.12687 0.49735 0.51038 0.0
H352 H 1.01458 0.36661 0.50684 0.0
H353 H 0.0711 0.42601 0.43555 0.0
H354 H 0.97197 0.45889 0.53686 0.0
H355 H 0.02761 0.45464 0.55155 0.0
H356 H 0.99424 0.40649 0.5458 0.0
H357 H 0.04639 0.53009 0.44827 0.0
H358 H 0.09303 0.4991 0.43442 0.0
H359 H 0.09918 0.52692 0.46646 0.0
C360 C 0.54799 0.5782 0.48191 0.0
C361 C 0.50523 0.5979 0.47929 0.0
C362 C 0.5522 0.53758 0.49413 0.0
C363 C 0.51243 0.51578 0.50306 0.0
C364 C 0.46913 0.53577 0.50061 0.0
C365 C 0.46614 0.57708 0.4891 0.0
C366 C 0.59907 0.51778 0.49715 0.0
C367 C 0.42595 0.51331 0.5097 0.0
C368 C 0.5212 0.394 0.50986 0.0
C369 C 0.52496 0.38955 0.53806 0.0
C370 C 0.51601 0.43505 0.49814 0.0
C371 C 0.51629 0.47212 0.51509 0.0
C372 C 0.52099 0.46759 0.54357 0.0
C373 C 0.52461 0.42623 0.55474 0.0
C374 C 0.50981 0.4388 0.46774 0.0
C375 C 0.5229 0.50639 0.56218 0.0
H376 H 0.57814 0.59455 0.47425 0.0
H377 H 0.43301 0.59224 0.48666 0.0
H378 H 0.60525 0.5088 0.5187 0.0
H379 H 0.60121 0.48773 0.48492 0.0
H380 H 0.62667 0.54002 0.49046 0.0
H381 H 0.39472 0.53075 0.50307 0.0
H382 H 0.42469 0.4799 0.50155 0.0
H383 H 0.42555 0.51094 0.53221 0.0
H384 H 0.5214 0.36542 0.49711 0.0
H385 H 0.52832 0.42262 0.57658 0.0
H386 H 0.53803 0.45811 0.45887 0.0
H387 H 0.47746 0.45603 0.4632 0.0
H388 H 0.50899 0.40677 0.45756 0.0
H389 H 0.55138 0.52794 0.55603 0.0
H390 H 0.52781 0.49719 0.58384 0.0
H391 H 0.49088 0.52528 0.56045 0.0
C392 C 0.34058 0.93189 0.10911 0.0
C393 C 0.35583 0.90819 0.08654 0.0
C394 C 0.30512 0.96198 0.10674 0.0
C395 C 0.28372 0.96818 0.08123 0.0
C396 C 0.29834 0.94402 0.05839 0.0
C397 C 0.33444 0.9145 0.06127 0.0
C398 C 0.29063 0.98724 0.1316 0.0
C399 C 0.27602 0.94952 0.03091 0.0
C400 C 0.16642 0.01912 0.08654 0.0
C401 C 0.17634 0.06265 0.08152 0.0
C402 C 0.20066 0.98756 0.08505 0.0
C403 C 0.246 4e-05 0.0788 0.0
C404 C 0.25584 0.04377 0.07271 0.0
C405 C 0.22075 0.07454 0.07397 0.0
C406 C 0.1886 0.94111 0.09105 0.0
C407 C 0.30379 0.05845 0.06616 0.0
H408 H 0.35616 0.92676 0.12881 0.0
H409 H 0.34628 0.89688 0.0436 0.0
H410 H 0.29371 0.02239 0.12758 0.0
H411 H 0.25425 0.98053 0.13628 0.0
H412 H 0.31145 0.97924 0.14981 0.0
H413 H 0.29003 0.9269 0.01547 0.0
H414 H 0.23865 0.94415 0.03259 0.0
H415 H 0.28109 0.98305 0.02357 0.0
H416 H 0.13184 0.00982 0.09178 0.0
H417 H 0.22841 0.10823 0.07012 0.0
H418 H 0.2048 0.93107 0.11045 0.0
H419 H 0.20199 0.91964 0.07482 0.0
H420 H 0.15113 0.93611 0.09278 0.0
H421 H 0.32564 0.0549 0.08448 0.0
H422 H 0.30495 0.09272 0.05948 0.0
H423 H 0.3188 0.038 0.04994 0.0
C424 C 0.18948 0.43016 0.43415 0.0
C425 C 0.19451 0.40135 0.41237 0.0
C426 C 0.21869 0.4659 0.43695 0.0
C427 C 0.25434 0.47216 0.41787 0.0
C428 C 0.26059 0.44199 0.3965 0.0
C429 C 0.23011 0.40731 0.39379 0.0
C430 C 0.21002 0.49789 0.45954 0.0
C431 C 0.29898 0.44679 0.3762 0.0
C432 C 0.30319 0.58275 0.402 0.0
C433 C 0.34391 0.58213 0.41678 0.0
C434 C 0.27247 0.54804 0.40337 0.0
C435 C 0.28379 0.51129 0.41917 0.0
C436 C 0.32481 0.51094 0.4345 0.0
C437 C 0.35412 0.54684 0.43344 0.0
C438 C 0.22863 0.55012 0.38725 0.0
C439 C 0.33848 0.47215 0.45121 0.0
H440 H 0.16152 0.42564 0.4483 0.0
H441 H 0.23394 0.38469 0.37711 0.0
H442 H 0.24212 0.50543 0.47054 0.0
H443 H 0.19716 0.52853 0.45071 0.0
H444 H 0.18445 0.48577 0.47437 0.0
H445 H 0.30121 0.41878 0.36212 0.0
H446 H 0.29382 0.47647 0.36395 0.0
H447 H 0.33208 0.45025 0.38699 0.0
H448 H 0.29579 0.61033 0.38916 0.0
H449 H 0.38603 0.54668 0.44464 0.0
H450 H 0.1991 0.54198 0.40044 0.0
H451 H 0.22959 0.52599 0.37056 0.0
H452 H 0.22291 0.58255 0.37821 0.0
H453 H 0.31383 0.46753 0.4681 0.0
H454 H 0.37327 0.47561 0.45995 0.0
H455 H 0.33757 0.44251 0.43852 0.0
C456 C 0.81831 0.90154 0.93426 0.0
C457 C 0.85337 0.90513 0.9149 0.0
C458 C 0.78539 0.9343 0.93723 0.0
C459 C 0.78753 0.97133 0.92035 0.0
C460 C 0.82372 0.97573 0.90147 0.0
C461 C 0.85621 0.94277 0.8991 0.0
C462 C 0.7476 0.92871 0.95783 0.0
C463 C 0.82733 0.01468 0.88308 0.0
C464 C 0.68061 0.03301 0.90094 0.0
C465 C 0.68545 0.07129 0.91596 0.0
C466 C 0.71267 -0.00044 0.90303 0.0
C467 C 0.75045 0.00421 0.92077 0.0
C468 C 0.7546 0.04194 0.93689 0.0
C469 C 0.72214 0.07511 0.93422 0.0
C470 C 0.70698 0.95991 0.88543 0.0
C471 C 0.7942 0.04793 0.95622 0.0
H472 H 0.81581 0.87259 0.94653 0.0
H473 H 0.88383 0.94646 0.88465 0.0
H474 H 0.74494 0.95784 0.97089 0.0
H475 H 0.71443 0.92495 0.94717 0.0
H476 H 0.75303 0.90003 0.97102 0.0
H477 H 0.8586 0.01399 0.87027 0.0
H478 H 0.7971 0.0161 0.86948 0.0
H479 H 0.82759 0.04476 0.89533 0.0
H480 H 0.65182 0.0292 0.88733 0.0
H481 H 0.72631 0.10456 0.94585 0.0
H482 H 0.70812 0.93031 0.89811 0.0
H483 H 0.73562 0.95793 0.87069 0.0
H484 H 0.67435 0.96016 0.8739 0.0
H485 H 0.79832 0.01896 0.96927 0.0
H486 H 0.78978 0.0767 0.96948 0.0
H487 H 0.82629 0.05186 0.94448 0.0
C488 C 0.72225 0.40505 0.57361 0.0
C489 C 0.68564 0.40944 0.59184 0.0
C490 C 0.75557 0.43755 0.57119 0.0
C491 C 0.75227 0.47516 0.58749 0.0
C492 C 0.71459 0.48037 0.60521 0.0
C493 C 0.68172 0.44759 0.60706 0.0
C494 C 0.79506 0.431 0.55187 0.0
C495 C 0.70978 0.51995 0.62297 0.0
C496 C 0.85915 0.53541 0.60883 0.0
C497 C 0.85681 0.5729 0.59287 0.0
C498 C 0.82607 0.50286 0.60665 0.0
C499 C 0.78982 0.50758 0.58784 0.0
C500 C 0.78798 0.54459 0.57096 0.0
C501 C 0.82142 0.57691 0.57375 0.0
C502 C 0.82922 0.46395 0.6251 0.0
C503 C 0.75002 0.55061 0.55051 0.0
H504 H 0.72563 0.37567 0.56183 0.0
H505 H 0.65297 0.45182 0.62065 0.0
H506 H 0.79916 0.45966 0.53855 0.0
H507 H 0.8272 0.42738 0.56361 0.0
H508 H 0.79051 0.40191 0.5389 0.0
H509 H 0.67726 0.52005 0.63462 0.0
H510 H 0.7386 0.52141 0.63761 0.0
H511 H 0.71131 0.54963 0.61038 0.0
H512 H 0.88687 0.53145 0.62318 0.0
H513 H 0.81912 0.60581 0.56143 0.0
H514 H 0.82891 0.43382 0.61289 0.0
H515 H 0.79907 0.46294 0.63877 0.0
H516 H 0.86059 0.46431 0.63782 0.0
H517 H 0.74707 0.52165 0.53732 0.0
H518 H 0.7555 0.57942 0.53744 0.0
H519 H 0.71697 0.55437 0.56129 0.0
C520 C 0.2191 0.29781 0.02918 0.0
C521 C 0.19868 0.2575 0.03385 0.0
C522 C 0.26358 0.30089 0.01865 0.0
C523 C 0.28844 0.26274 0.01298 0.0
C524 C 0.26778 0.22195 0.01727 0.0
C525 C 0.22305 0.21984 0.02746 0.0
C526 C 0.28435 0.34498 0.01419 0.0
C527 C 0.29333 0.18047 0.01183 0.0
C528 C 0.39479 0.26804 0.96849 0.0
C529 C 0.42962 0.26905 0.98808 0.0
C530 C 0.34858 0.26639 0.97623 0.0
C531 C 0.33703 0.26545 0.00422 0.0
C532 C 0.37202 0.26663 0.02405 0.0
C533 C 0.41778 0.26846 0.01576 0.0
C534 C 0.31215 0.26541 0.95451 0.0
C535 C 0.36119 0.2653 0.0541 0.0
H536 H 0.2004 0.32708 0.03385 0.0
H537 H 0.20761 0.18857 0.03098 0.0
H538 H 0.31391 0.34946 0.02803 0.0
H539 H 0.29734 0.34777 0.99305 0.0
H540 H 0.25951 0.37143 0.01791 0.0
H541 H 0.27181 0.15141 0.01528 0.0
H542 H 0.30594 0.17994 0.99055 0.0
H543 H 0.32363 0.1785 0.02533 0.0
H544 H 0.40375 0.26871 0.94711 0.0
H545 H 0.44436 0.26824 0.03106 0.0
H546 H 0.28829 0.29286 0.95735 0.0
H547 H 0.2918 0.2353 0.95629 0.0
H548 H 0.32674 0.26714 0.93367 0.0
H549 H 0.33858 0.29267 0.05961 0.0
H550 H 0.39238 0.26691 0.06694 0.0
H551 H 0.34252 0.2351 0.05902 0.0
C552 C 0.13144 0.73892 0.00588 0.0
C553 C 0.12171 0.71315 0.98316 0.0
C554 C 0.176 0.74142 0.01655 0.0
C555 C 0.21192 0.71841 0.00374 0.0
C556 C 0.20233 0.69298 0.98045 0.0
C557 C 0.15732 0.69028 0.97065 0.0
C558 C 0.1845 0.76814 0.04175 0.0
C559 C 0.23969 0.66876 0.96577 0.0
C560 C 0.33487 0.75303 0.01783 0.0
C561 C 0.34948 0.721 0.03604 0.0
C562 C 0.29032 0.75253 0.00702 0.0
C563 C 0.25927 0.71979 0.01509 0.0
C564 C 0.27371 0.68774 0.03375 0.0
C565 C 0.31868 0.68845 0.04373 0.0
C566 C 0.27661 0.78683 0.98679 0.0
C567 C 0.24149 0.65283 0.04338 0.0
H568 H 0.10391 0.75653 0.01557 0.0
H569 H 0.15007 0.671 0.95276 0.0
H570 H 0.19851 0.74736 0.05813 0.0
H571 H 0.21031 0.79347 0.03747 0.0
H572 H 0.15291 0.78394 0.04933 0.0
H573 H 0.22696 0.65201 0.94726 0.0
H574 H 0.26729 0.69141 0.95975 0.0
H575 H 0.25505 0.6444 0.97954 0.0
H576 H 0.35843 0.77831 0.0118 0.0
H577 H 0.32942 0.66386 0.05805 0.0
H578 H 0.24723 0.80555 0.99475 0.0
H579 H 0.2654 0.77145 0.96751 0.0
H580 H 0.30496 0.80958 0.98225 0.0
H581 H 0.21053 0.66762 0.05247 0.0
H582 H 0.25747 0.63124 0.05871 0.0
H583 H 0.23013 0.63292 0.02587 0.0
C584 C 0.39469 0.18218 0.5171 0.0
C585 C 0.41721 0.21921 0.52661 0.0
C586 C 0.3483 0.18351 0.50964 0.0
C587 C 0.32404 0.22299 0.51136 0.0
C588 C 0.34664 0.26045 0.52102 0.0
C589 C 0.39279 0.25805 0.52865 0.0
C590 C 0.32535 0.14276 0.49974 0.0
C591 C 0.32231 0.30336 0.52278 0.0
C592 C 0.21896 0.24152 0.46733 0.0
C593 C 0.18337 0.23759 0.48632 0.0
C594 C 0.26477 0.23593 0.47508 0.0
C595 C 0.27538 0.22565 0.50243 0.0
C596 C 0.23954 0.22017 0.5215 0.0
C597 C 0.19401 0.22646 0.51326 0.0
C598 C 0.30191 0.24253 0.45416 0.0
C599 C 0.24938 0.20874 0.55077 0.0
H600 H 0.41339 0.15209 0.51565 0.0
H601 H 0.41016 0.28697 0.53548 0.0
H602 H 0.29472 0.13583 0.5123 0.0
H603 H 0.31354 0.14715 0.47847 0.0
H604 H 0.34848 0.11437 0.5005 0.0
H605 H 0.34459 0.32934 0.531 0.0
H606 H 0.31027 0.31316 0.50228 0.0
H607 H 0.29175 0.30045 0.53599 0.0
H608 H 0.2112 0.25035 0.44649 0.0
H609 H 0.16676 0.2232 0.52805 0.0
H610 H 0.32443 0.21378 0.4533 0.0
H611 H 0.3235 0.27046 0.46009 0.0
H612 H 0.28793 0.24858 0.43349 0.0
H613 H 0.27129 0.17957 0.55179 0.0
H614 H 0.21768 0.20264 0.56259 0.0
H615 H 0.26843 0.23548 0.56064 0.0
C616 C 0.14443 0.80653 0.53081 0.0
C617 C 0.11282 0.77714 0.52008 0.0
C618 C 0.19022 0.8064 0.52208 0.0
C619 C 0.20423 0.77705 0.50155 0.0
C620 C 0.17186 0.74827 0.49007 0.0
C621 C 0.12677 0.74821 0.49982 0.0
C622 C 0.22389 0.8367 0.5354 0.0
C623 C 0.18487 0.71737 0.4676 0.0
C624 C 0.31269 0.80132 0.46161 0.0
C625 C 0.34332 0.77099 0.47235 0.0
C626 C 0.26739 0.80372 0.47095 0.0
C627 C 0.25274 0.77604 0.49216 0.0
C628 C 0.28402 0.74626 0.50367 0.0
C629 C 0.32871 0.74356 0.49328 0.0
C630 C 0.23483 0.83489 0.45748 0.0
C631 C 0.27018 0.71698 0.5268 0.0
H632 H 0.13363 0.82839 0.54678 0.0
H633 H 0.10212 0.72556 0.49159 0.0
H634 H 0.25169 0.8178 0.54507 0.0
H635 H 0.2399 0.85785 0.5199 0.0
H636 H 0.20762 0.85735 0.55114 0.0
H637 H 0.15503 0.69902 0.45975 0.0
H638 H 0.20069 0.73532 0.45048 0.0
H639 H 0.21061 0.69401 0.47515 0.0
H640 H 0.32366 0.82221 0.44516 0.0
H641 H 0.35236 0.72015 0.50167 0.0
H642 H 0.22007 0.85714 0.47282 0.0
H643 H 0.20602 0.81677 0.44823 0.0
H644 H 0.25165 0.8544 0.44138 0.0
H645 H 0.25516 0.73628 0.5436 0.0
H646 H 0.29946 0.69818 0.53492 0.0
H647 H 0.24357 0.69401 0.5198 0.0
C648 C 0.65618 0.68797 0.03636 0.0
C649 C 0.62105 0.70696 0.02113 0.0
C650 C 0.70196 0.69086 0.02793 0.0
C651 C 0.71279 0.71233 0.00329 0.0
C652 C 0.67727 0.73098 0.98762 0.0
C653 C 0.63193 0.72859 0.99694 0.0
C654 C 0.73882 0.67149 0.04559 0.0
C655 C 0.68711 0.75319 0.96091 0.0
C656 C 0.8345 0.75122 0.98976 0.0
C657 C 0.85233 0.71693 0.97445 0.0
C658 C 0.7894 0.74991 0.99971 0.0
C659 C 0.76108 0.71404 0.99352 0.0
C660 C 0.77887 0.67958 0.97785 0.0
C661 C 0.82434 0.68119 0.96884 0.0
C662 C 0.77207 0.7869 0.01684 0.0
C663 C 0.74956 0.64132 0.9701 0.0
H664 H 0.64791 0.67205 0.05536 0.0
H665 H 0.60472 0.74334 0.98525 0.0
H666 H 0.75708 0.64577 0.03426 0.0
H667 H 0.76438 0.69658 0.05095 0.0
H668 H 0.72494 0.65741 0.06467 0.0
H669 H 0.65555 0.76511 0.95086 0.0
H670 H 0.7104 0.78095 0.96422 0.0
H671 H 0.70467 0.73052 0.94689 0.0
H672 H 0.8559 0.77898 0.9941 0.0
H673 H 0.83754 0.65481 0.95666 0.0
H674 H 0.75866 0.77453 0.03647 0.0
H675 H 0.74341 0.80324 0.00629 0.0
H676 H 0.79909 0.81119 0.0211 0.0
H677 H 0.73735 0.62454 0.98866 0.0
H678 H 0.76821 0.61768 0.95723 0.0
H679 H 0.71893 0.6525 0.95882 0.0
C680 C 0.71865 0.30399 0.97769 0.0
C681 C 0.6992 0.26341 0.97243 0.0
C682 C 0.76362 0.30774 0.98728 0.0
C683 C 0.78989 0.27001 0.99155 0.0
C684 C 0.77018 0.22889 0.98679 0.0
C685 C 0.72499 0.22608 0.97738 0.0
C686 C 0.78337 0.35212 0.99225 0.0
C687 C 0.79717 0.18788 0.99098 0.0
C688 C 0.91912 0.27832 0.98799 0.0
C689 C 0.93132 0.2771 0.01559 0.0
C690 C 0.87319 0.27654 0.97993 0.0
C691 C 0.83856 0.2736 0.99994 0.0
C692 C 0.85052 0.27345 0.02785 0.0
C693 C 0.89677 0.27516 0.03532 0.0
C694 C 0.8618 0.27666 0.94995 0.0
C695 C 0.81452 0.27068 0.04977 0.0
H696 H 0.69889 0.333 0.97404 0.0
H697 H 0.71029 0.19461 0.97329 0.0
H698 H 0.79697 0.35437 0.01328 0.0
H699 H 0.81235 0.35788 0.97817 0.0
H700 H 0.75773 0.37812 0.98927 0.0
H701 H 0.77624 0.15845 0.98748 0.0
H702 H 0.82668 0.18725 0.97682 0.0
H703 H 0.81106 0.18679 0.01197 0.0
H704 H 0.94554 0.27906 0.97259 0.0
H705 H 0.90604 0.27455 0.05666 0.0
H706 H 0.83787 0.3034 0.94527 0.0
H707 H 0.8444 0.24604 0.94441 0.0
H708 H 0.89264 0.2803 0.93698 0.0
H709 H 0.78955 0.29735 0.04741 0.0
H710 H 0.8294 0.27234 0.07054 0.0
H711 H 0.79535 0.23993 0.04776 0.0
C712 C 0.84329 0.74923 0.49264 0.0
C713 C 0.8559 0.73676 0.51903 0.0
C714 C 0.79712 0.75535 0.48566 0.0
C715 C 0.76268 0.74852 0.50547 0.0
C716 C 0.77526 0.7363 0.53219 0.0
C717 C 0.82159 0.73068 0.53864 0.0
C718 C 0.7851 0.76847 0.45696 0.0
C719 C 0.7397 0.72821 0.55387 0.0
C720 C 0.64325 0.79476 0.4949 0.0
C721 C 0.61938 0.75874 0.48502 0.0
C722 C 0.69002 0.79213 0.50133 0.0
C723 C 0.71339 0.75239 0.49804 0.0
C724 C 0.68937 0.71587 0.48822 0.0
C725 C 0.64281 0.71952 0.48178 0.0
C726 C 0.71443 0.83181 0.5117 0.0
C727 C 0.71271 0.67271 0.48479 0.0
H728 H 0.8695 0.75404 0.47736 0.0
H729 H 0.83081 0.72059 0.55903 0.0
H730 H 0.76432 0.74278 0.44721 0.0
H731 H 0.76409 0.79826 0.45721 0.0
H732 H 0.81589 0.77431 0.44427 0.0
H733 H 0.75518 0.72051 0.57393 0.0
H734 H 0.71749 0.75698 0.55621 0.0
H735 H 0.71746 0.70087 0.5477 0.0
H736 H 0.62539 0.82515 0.4973 0.0
H737 H 0.62446 0.69128 0.47472 0.0
H738 H 0.74387 0.83946 0.49832 0.0
H739 H 0.72823 0.8256 0.53236 0.0
H740 H 0.69165 0.86044 0.51263 0.0
H741 H 0.74223 0.67595 0.47079 0.0
H742 H 0.68931 0.64758 0.47663 0.0
H743 H 0.72621 0.6615 0.50467 0.0
C744 C 0.89047 0.18848 0.47433 0.0
C745 C 0.92269 0.21805 0.48416 0.0
C746 C 0.84479 0.18991 0.48312 0.0
C747 C 0.83147 0.22076 0.50291 0.0
C748 C 0.8642 0.25037 0.51314 0.0
C749 C 0.90924 0.2491 0.50328 0.0
C750 C 0.81072 0.15869 0.47106 0.0
C751 C 0.85188 0.28288 0.53484 0.0
C752 C 0.70598 0.24968 0.51304 0.0
C753 C 0.6937 0.22207 0.53441 0.0
C754 C 0.75042 0.24895 0.50212 0.0
C755 C 0.78373 0.22111 0.51356 0.0
C756 C 0.77153 0.19368 0.53544 0.0
C757 C 0.72651 0.19398 0.54526 0.0
C758 C 0.76167 0.27777 0.47828 0.0
C759 C 0.80627 0.16462 0.54886 0.0
H760 H 0.90087 0.16495 0.45923 0.0
H761 H 0.93437 0.27185 0.51085 0.0
H762 H 0.79718 0.13712 0.48716 0.0
H763 H 0.78128 0.17668 0.46247 0.0
H764 H 0.82594 0.13844 0.45475 0.0
H765 H 0.88154 0.30304 0.54101 0.0
H766 H 0.82438 0.30449 0.52744 0.0
H767 H 0.83857 0.26591 0.55308 0.0
H768 H 0.68063 0.27142 0.50463 0.0
H769 H 0.71734 0.17306 0.56209 0.0
H770 H 0.77588 0.25821 0.46135 0.0
H771 H 0.7882 0.30155 0.48422 0.0
H772 H 0.7313 0.2956 0.47074 0.0
H773 H 0.82004 0.14128 0.53384 0.0
H774 H 0.79162 0.14626 0.56621 0.0
H775 H 0.83545 0.18415 0.55639 0.0
C776 C 0.05724 0.25247 0.30952 0.0
C777 C 0.08071 0.21892 0.32265 0.0
C778 C 0.0596 0.25773 0.2813 0.0
C779 C 0.08618 0.22876 0.26573 0.0
C780 C 0.11051 0.19509 0.27881 0.0
C781 C 0.10768 0.19068 0.30724 0.0
C782 C 0.03341 0.29423 0.26816 0.0
C783 C 0.13906 0.16355 0.26274 0.0
C784 C 0.05134 0.21825 0.19185 0.0
C785 C 0.08344 0.24475 0.17879 0.0
C786 C 0.05254 0.21208 0.22006 0.0
C787 C 0.08665 0.23295 0.23564 0.0
C788 C 0.11933 0.25963 0.22262 0.0
C789 C 0.11743 0.26511 0.19427 0.0
C790 C 1.01714 0.18332 0.2332 0.0
C791 C 0.15596 0.28267 0.23867 0.0
H792 H 0.03746 0.27523 0.32143 0.0
H793 H 0.12612 0.16497 0.31739 0.0
H794 H 0.05696 0.31497 0.25625 0.0
H795 H 1.00778 0.28098 0.25377 0.0
H796 H 1.01541 0.31469 0.28332 0.0
H797 H 0.1569 0.13995 0.27603 0.0
H798 H 0.11704 0.14556 0.24826 0.0
H799 H 0.16491 0.18118 0.25053 0.0
H800 H 0.02574 0.20148 0.17991 0.0
H801 H 0.14237 0.28548 0.18421 0.0
H802 H 0.99628 0.20238 0.24772 0.0
H803 H 0.03413 0.15734 0.24498 0.0
H804 H 0.99391 0.16823 0.21805 0.0
H805 H 0.13999 0.30543 0.25328 0.0
H806 H 0.17973 0.30105 0.22538 0.0
H807 H 0.17597 0.25906 0.25073 0.0
C808 C 0.48918 0.77023 0.19616 0.0
C809 C 0.46179 0.739 0.18343 0.0
C810 C 0.48693 0.77701 0.22428 0.0
C811 C 0.45663 0.75184 0.24011 0.0
C812 C 0.42857 0.72045 0.2274 0.0
C813 C 0.43132 0.71454 0.19911 0.0
C814 C 0.51721 0.81094 0.23707 0.0
C815 C 0.39614 0.69278 0.24373 0.0
C816 C 0.48802 0.73795 0.31422 0.0
C817 C 0.45859 0.7673 0.32708 0.0
C818 C 0.48732 0.73239 0.28598 0.0
C819 C 0.45643 0.75681 0.27013 0.0
C820 C 0.4266 0.78658 0.2829 0.0
C821 C 0.42785 0.79132 0.31134 0.0
C822 C 0.51945 0.7001 0.27314 0.0
C823 C 0.39346 0.81337 0.26653 0.0
H824 H 0.51191 0.79004 0.184 0.0
H825 H 0.40998 0.69055 0.18926 0.0
H826 H 0.49621 0.83432 0.24874 0.0
H827 H 0.5411 0.79553 0.25165 0.0
H828 H 0.53752 0.82897 0.22172 0.0
H829 H 0.37559 0.67086 0.23066 0.0
H830 H 0.41567 0.67296 0.2585 0.0
H831 H 0.37257 0.7135 0.25563 0.0
H832 H 0.51094 0.71836 0.32636 0.0
H833 H 0.40489 0.8138 0.32127 0.0
H834 H 0.54233 0.71668 0.25848 0.0
H835 H 0.49971 0.67562 0.26157 0.0
H836 H 0.54087 0.68319 0.28845 0.0
H837 H 0.41239 0.8335 0.25164 0.0
H838 H 0.37241 0.83487 0.27956 0.0
H839 H 0.37037 0.79195 0.25475 0.0
C840 C 0.96723 0.78468 0.69975 0.0
C841 C 0.93886 0.76264 0.68145 0.0
C842 C 0.96433 0.7769 0.72783 0.0
C843 C 0.93258 0.74611 0.73771 0.0
C844 C 0.90278 0.72492 0.71943 0.0
C845 C 0.90626 0.73347 0.69152 0.0
C846 C 0.99633 0.80049 0.74682 0.0
C847 C 0.86862 0.69179 0.72919 0.0
C848 C 0.96266 0.69386 0.80517 0.0
C849 C 0.93571 0.71769 0.82331 0.0
C850 C 0.96095 0.70192 0.7771 0.0
C851 C 0.93188 0.73482 0.76705 0.0
C852 C 0.9034 0.75789 0.78517 0.0
C853 C 0.90562 0.74901 0.81308 0.0
C854 C 0.99142 0.67629 0.7583 0.0
C855 C 0.87211 0.79328 0.77522 0.0
H856 H 0.99241 0.80724 0.69202 0.0
H857 H 0.88491 0.71558 0.67744 0.0
H858 H 0.9767 0.81651 0.76327 0.0
H859 H 1.01982 0.77708 0.75661 0.0
H860 H 1.01707 0.82525 0.73609 0.0
H861 H 0.84593 0.68029 0.71257 0.0
H862 H 0.88695 0.66359 0.7378 0.0
H863 H 0.84715 0.70548 0.74566 0.0
H864 H 0.98592 0.66969 0.81305 0.0
H865 H 0.88545 0.76822 0.82707 0.0
H866 H 1.01682 0.6981 0.7487 0.0
H867 H 0.97093 0.66165 0.74169 0.0
H868 H 1.01001 0.65019 0.76913 0.0
H869 H 0.89277 0.82017 0.76677 0.0
H870 H 0.85008 0.80626 0.79171 0.0
H871 H 0.84995 0.78112 0.75859 0.0
C872 C 0.62412 0.25314 0.69381 0.0
C873 C 0.59478 0.22213 0.68238 0.0
C874 C 0.62507 0.26055 0.72191 0.0
C875 C 0.5957 0.23665 0.73906 0.0
C876 C 0.56646 0.20484 0.7278 0.0
C877 C 0.56635 0.19794 0.69955 0.0
C878 C 0.65685 0.29463 0.73317 0.0
C879 C 0.53478 0.17863 0.74555 0.0
C880 C 0.6251 0.22899 0.81395 0.0
C881 C 0.59556 0.25968 0.82549 0.0
C882 C 0.62572 0.22147 0.78586 0.0
C883 C 0.5958 0.24492 0.76883 0.0
C884 C 0.56625 0.27632 0.7802 0.0
C885 C 0.56648 0.28334 0.80844 0.0
C886 C 0.65782 0.18782 0.77448 0.0
C887 C 0.53396 0.30203 0.76257 0.0
H888 H 0.64531 0.27288 0.68068 0.0
H889 H 0.54366 0.17395 0.69084 0.0
H890 H 0.63674 0.32042 0.74326 0.0
H891 H 0.67955 0.28031 0.74883 0.0
H892 H 0.6784 0.30959 0.71713 0.0
H893 H 0.5146 0.15478 0.73367 0.0
H894 H 0.55469 0.16112 0.76126 0.0
H895 H 0.51082 0.20042 0.75637 0.0
H896 H 0.6468 0.20963 0.82699 0.0
H897 H 0.54361 0.30706 0.81723 0.0
H898 H 0.68021 0.20247 0.75877 0.0
H899 H 0.63795 0.16179 0.76443 0.0
H900 H 0.6797 0.1731 0.79045 0.0
H901 H 0.55343 0.31991 0.74682 0.0
H902 H 0.51348 0.3255 0.77454 0.0
H903 H 0.51028 0.27987 0.75179 0.0
loop_
_geom_bond_atom_site_label_1
_geom_bond_atom_site_label_2
_geom_bond_distance
_geom_bond_site_symmetry_2
_ccdc_geom_bond_type
C0 C1 1.351 . S
C0 N3 1.368 . S
C0 H5 0.931 . S
C1 C0 1.351 . S
C1 N2 1.373 . S
C1 H29 0.930 . S
N2 C1 1.373 . S
N2 C4 1.340 . S
N3 C0 1.368 . S
N3 C4 1.321 . S
N3 Co6 2.135 . S
C4 N2 1.340 . S
C4 N3 1.321 . S
C4 H28 0.930 . S
H5 C0 0.931 . S
Co6 N3 2.135 . S
Co6 N9 2.121 . S
Co6 O14 2.055 . S
Co6 O17 2.039 . S
Co6 N20 2.140 . S
C7 O8 1.227 . S
C7 O17 1.265 . S
O8 C7 1.227 . S
N9 Co6 2.121 . S
N9 C11 1.375 . S
N9 C12 1.313 1_455 S
C10 C11 1.338 . S
C10 N13 1.377 1_455 S
C10 H30 0.930 . S
C11 N9 1.375 . S
C11 C10 1.338 . S
C11 H15 0.931 . S
C12 N9 1.313 1_655 S
C12 N13 1.344 . S
C12 H16 0.930 . S
N13 C10 1.377 1_655 S
N13 C12 1.344 . S
O14 Co6 2.055 . S
O14 C18 1.253 . S
H15 C11 0.931 . S
H16 C12 0.930 . S
O17 Co6 2.039 . S
O17 C7 1.265 . S
C18 O14 1.253 . S
C18 O19 1.227 . S
O19 C18 1.227 . S
N20 Co6 2.140 . S
N20 C23 1.346 . S
N20 C24 1.345 . S
C21 C22 1.387 . S
C21 C25 1.391 . S
C22 C21 1.387 . S
C22 C23 1.369 . S
C22 H31 0.929 . S
C23 N20 1.346 . S
C23 C22 1.369 . S
C23 H26 0.928 . S
C24 N20 1.345 . S
C24 C25 1.371 . S
C24 H27 0.931 . S
C25 C21 1.391 . S
C25 C24 1.371 . S
C25 H32 0.930 1_455 S
H26 C23 0.928 . S
H27 C24 0.931 . S
H28 C4 0.930 . S
H29 C1 0.930 . S
H30 C10 0.930 . S
H31 C22 0.929 . S
H32 C25 0.930 1_655 S
C33 C34 1.351 . S
C33 N36 1.368 . S
C33 H38 0.931 . S
C34 C33 1.351 . S
C34 N35 1.373 . S
C34 H62 0.930 . S
N35 C34 1.373 . S
N35 C37 1.340 . S
N36 C33 1.368 . S
N36 C37 1.321 . S
N36 Co39 2.135 . S
C37 N35 1.340 . S
C37 N36 1.321 . S
C37 H61 0.930 . S
H38 C33 0.931 . S
Co39 N36 2.135 . S
Co39 N42 2.121 . S
Co39 O47 2.055 . S
Co39 O50 2.039 . S
Co39 N53 2.140 . S
C40 O41 1.227 . S
C40 O50 1.265 . S
O41 C40 1.227 . S
N42 Co39 2.121 . S
N42 C44 1.375 . S
N42 C45 1.313 . S
C43 C44 1.338 . S
C43 N46 1.377 . S
C43 H63 0.930 . S
C44 N42 1.375 . S
C44 C43 1.338 . S
C44 H48 0.931 . S
C45 N42 1.313 . S
C45 N46 1.344 . S
C45 H49 0.930 . S
N46 C43 1.377 . S
N46 C45 1.344 . S
O47 Co39 2.055 . S
O47 C51 1.253 . S
H48 C44 0.931 . S
H49 C45 0.930 . S
O50 Co39 2.039 . S
O50 C40 1.265 . S
C51 O47 1.253 . S
C51 O52 1.227 . S
O52 C51 1.227 . S
N53 Co39 2.140 . S
N53 C56 1.346 . S
N53 C57 1.345 . S
C54 C55 1.387 . S
C54 C58 1.391 . S
C55 C54 1.387 . S
C55 C56 1.369 . S
C55 H64 0.929 . S
C56 N53 1.346 . S
C56 C55 1.369 . S
C56 H59 0.928 . S
C57 N53 1.345 . S
C57 C58 1.371 . S
C57 H60 0.931 . S
C58 C54 1.391 . S
C58 C57 1.371 . S
C58 H65 0.930 . S
H59 C56 0.928 . S
H60 C57 0.931 . S
H61 C37 0.930 . S
H62 C34 0.930 . S
H63 C43 0.930 . S
H64 C55 0.929 . S
H65 C58 0.930 . S
C66 C67 1.351 . S
C66 N69 1.368 . S
C66 H71 0.931 . S
C67 C66 1.351 . S
C67 N68 1.373 . S
C67 H95 0.930 . S
N68 C67 1.373 . S
N68 C70 1.340 . S
N69 C66 1.368 . S
N69 C70 1.321 . S
N69 Co72 2.135 . S
C70 N68 1.340 . S
C70 N69 1.321 . S
C70 H94 0.930 . S
H71 C66 0.931 . S
Co72 N69 2.135 . S
Co72 N75 2.121 . S
Co72 O80 2.055 . S
Co72 O83 2.039 . S
Co72 N86 2.140 . S
C73 O74 1.227 . S
C73 O83 1.265 . S
O74 C73 1.227 . S
N75 Co72 2.121 . S
N75 C77 1.375 . S
N75 C78 1.313 1_455 S
C76 C77 1.338 . S
C76 N79 1.377 1_455 S
C76 H96 0.930 . S
C77 N75 1.375 . S
C77 C76 1.338 . S
C77 H81 0.931 . S
C78 N75 1.313 1_655 S
C78 N79 1.344 . S
C78 H82 0.930 . S
N79 C76 1.377 1_655 S
N79 C78 1.344 . S
O80 Co72 2.055 . S
O80 C84 1.253 . S
H81 C77 0.931 . S
H82 C78 0.930 . S
O83 Co72 2.039 . S
O83 C73 1.265 . S
C84 O80 1.253 . S
C84 O85 1.227 . S
O85 C84 1.227 . S
N86 Co72 2.140 . S
N86 C89 1.346 . S
N86 C90 1.345 . S
C87 C88 1.387 . S
C87 C91 1.391 . S
C88 C87 1.387 . S
C88 C89 1.369 . S
C88 H97 0.929 . S
C89 N86 1.346 . S
C89 C88 1.369 . S
C89 H92 0.928 . S
C90 N86 1.345 . S
C90 C91 1.371 . S
C90 H93 0.931 . S
C91 C87 1.391 . S
C91 C90 1.371 . S
C91 H98 0.930 1_455 S
H92 C89 0.928 . S
H93 C90 0.931 . S
H94 C70 0.930 . S
H95 C67 0.930 . S
H96 C76 0.930 . S
H97 C88 0.929 . S
H98 C91 0.930 1_655 S
C99 C100 1.351 . S
C99 N102 1.368 . S
C99 H104 0.931 . S
C100 C99 1.351 . S
C100 N101 1.373 . S
C100 H128 0.930 . S
N101 C100 1.373 . S
N101 C103 1.340 . S
N102 C99 1.368 . S
N102 C103 1.321 . S
N102 Co105 2.135 . S
C103 N101 1.340 . S
C103 N102 1.321 . S
C103 H127 0.930 . S
H104 C99 0.931 . S
Co105 N102 2.135 . S
Co105 N108 2.121 . S
Co105 O113 2.055 . S
Co105 O116 2.039 . S
Co105 N119 2.140 . S
C106 O107 1.227 . S
C106 O116 1.265 . S
O107 C106 1.227 . S
N108 Co105 2.121 . S
N108 C110 1.375 . S
N108 C111 1.313 . S
C109 C110 1.338 . S
C109 N112 1.377 . S
C109 H129 0.930 . S
C110 N108 1.375 . S
C110 C109 1.338 . S
C110 H114 0.931 . S
C111 N108 1.313 . S
C111 N112 1.344 . S
C111 H115 0.930 . S
N112 C109 1.377 . S
N112 C111 1.344 . S
O113 Co105 2.055 . S
O113 C117 1.253 . S
H114 C110 0.931 . S
H115 C111 0.930 . S
O116 Co105 2.039 . S
O116 C106 1.265 . S
C117 O113 1.253 . S
C117 O118 1.227 . S
O118 C117 1.227 . S
N119 Co105 2.140 . S
N119 C122 1.346 . S
N119 C123 1.345 . S
C120 C121 1.387 . S
C120 C124 1.391 . S
C121 C120 1.387 . S
C121 C122 1.369 . S
C121 H130 0.929 . S
C122 N119 1.346 . S
C122 C121 1.369 . S
C122 H125 0.928 . S
C123 N119 1.345 . S
C123 C124 1.371 . S
C123 H126 0.931 . S
C124 C120 1.391 . S
C124 C123 1.371 . S
C124 H131 0.930 . S
H125 C122 0.928 . S
H126 C123 0.931 . S
H127 C103 0.930 . S
H128 C100 0.930 . S
H129 C109 0.930 . S
H130 C121 0.929 . S
H131 C124 0.930 . S
C132 C133 1.351 . S
C132 N135 1.368 . S
C132 H137 0.931 . S
C133 C132 1.351 . S
C133 N134 1.373 . S
C133 H161 0.930 . S
N134 C133 1.373 . S
N134 C136 1.340 . S
N135 C132 1.368 . S
N135 C136 1.321 . S
N135 Co138 2.135 . S
C136 N134 1.340 . S
C136 N135 1.321 . S
C136 H160 0.930 . S
H137 C132 0.931 . S
Co138 N135 2.135 . S
Co138 N141 2.121 . S
Co138 O146 2.055 . S
Co138 O149 2.039 . S
Co138 N152 2.140 . S
C139 O140 1.227 . S
C139 O149 1.265 . S
O140 C139 1.227 . S
N141 Co138 2.121 . S
N141 C143 1.375 . S
N141 C144 1.313 1_655 S
C142 C143 1.338 . S
C142 N145 1.377 1_655 S
C142 H162 0.930 . S
C143 N141 1.375 . S
C143 C142 1.338 . S
C143 H147 0.931 . S
C144 N141 1.313 1_455 S
C144 N145 1.344 . S
C144 H148 0.930 . S
N145 C142 1.377 1_455 S
N145 C144 1.344 . S
O146 Co138 2.055 . S
O146 C150 1.253 . S
H147 C143 0.931 . S
H148 C144 0.930 . S
O149 Co138 2.039 . S
O149 C139 1.265 . S
C150 O146 1.253 . S
C150 O151 1.227 . S
O151 C150 1.227 . S
N152 Co138 2.140 . S
N152 C155 1.346 . S
N152 C156 1.345 . S
C153 C154 1.387 . S
C153 C157 1.391 . S
C154 C153 1.387 . S
C154 C155 1.369 . S
C154 H163 0.929 . S
C155 N152 1.346 . S
C155 C154 1.369 . S
C155 H158 0.928 . S
C156 N152 1.345 . S
C156 C157 1.371 . S
C156 H159 0.931 . S
C157 C153 1.391 . S
C157 C156 1.371 . S
C157 H164 0.930 1_655 S
H158 C155 0.928 . S
H159 C156 0.931 . S
H160 C136 0.930 . S
H161 C133 0.930 . S
H162 C142 0.930 . S
H163 C154 0.929 . S
H164 C157 0.930 1_455 S
C165 C166 1.351 . S
C165 N168 1.368 . S
C165 H170 0.931 . S
C166 C165 1.351 . S
C166 N167 1.373 . S
C166 H194 0.930 . S
N167 C166 1.373 . S
N167 C169 1.340 . S
N168 C165 1.368 . S
N168 C169 1.321 . S
N168 Co171 2.135 . S
C169 N167 1.340 . S
C169 N168 1.321 . S
C169 H193 0.930 . S
H170 C165 0.931 . S
Co171 N168 2.135 . S
Co171 N174 2.121 . S
Co171 O179 2.055 . S
Co171 O182 2.039 . S
Co171 N185 2.140 . S
C172 O173 1.227 . S
C172 O182 1.265 . S
O173 C172 1.227 . S
N174 Co171 2.121 . S
N174 C176 1.375 . S
N174 C177 1.313 . S
C175 C176 1.338 . S
C175 N178 1.377 . S
C175 H195 0.930 . S
C176 N174 1.375 . S
C176 C175 1.338 . S
C176 H180 0.931 . S
C177 N174 1.313 . S
C177 N178 1.344 . S
C177 H181 0.930 . S
N178 C175 1.377 . S
N178 C177 1.344 . S
O179 Co171 2.055 . S
O179 C183 1.253 . S
H180 C176 0.931 . S
H181 C177 0.930 . S
O182 Co171 2.039 . S
O182 C172 1.265 . S
C183 O179 1.253 . S
C183 O184 1.227 . S
O184 C183 1.227 . S
N185 Co171 2.140 . S
N185 C188 1.346 . S
N185 C189 1.345 . S
C186 C187 1.387 . S
C186 C190 1.391 . S
C187 C186 1.387 . S
C187 C188 1.369 . S
C187 H196 0.929 . S
C188 N185 1.346 . S
C188 C187 1.369 . S
C188 H191 0.928 . S
C189 N185 1.345 . S
C189 C190 1.371 . S
C189 H192 0.931 . S
C190 C186 1.391 . S
C190 C189 1.371 . S
C190 H197 0.930 . S
H191 C188 0.928 . S
H192 C189 0.931 . S
H193 C169 0.930 . S
H194 C166 0.930 . S
H195 C175 0.930 . S
H196 C187 0.929 . S
H197 C190 0.930 . S
C198 C199 1.351 . S
C198 N201 1.368 . S
C198 H203 0.931 . S
C199 C198 1.351 . S
C199 N200 1.373 . S
C199 H227 0.930 . S
N200 C199 1.373 . S
N200 C202 1.340 . S
N201 C198 1.368 . S
N201 C202 1.321 . S
N201 Co204 2.135 . S
C202 N200 1.340 . S
C202 N201 1.321 . S
C202 H226 0.930 . S
H203 C198 0.931 . S
Co204 N201 2.135 . S
Co204 N207 2.121 . S
Co204 O212 2.055 . S
Co204 O215 2.039 . S
Co204 N218 2.140 . S
C205 O206 1.227 . S
C205 O215 1.265 . S
O206 C205 1.227 . S
N207 Co204 2.121 . S
N207 C209 1.375 . S
N207 C210 1.313 1_655 S
C208 C209 1.338 . S
C208 N211 1.377 1_655 S
C208 H228 0.930 . S
C209 N207 1.375 . S
C209 C208 1.338 . S
C209 H213 0.931 . S
C210 N207 1.313 1_455 S
C210 N211 1.344 . S
C210 H214 0.930 . S
N211 C208 1.377 1_455 S
N211 C210 1.344 . S
O212 Co204 2.055 . S
O212 C216 1.253 . S
H213 C209 0.931 . S
H214 C210 0.930 . S
O215 Co204 2.039 . S
O215 C205 1.265 . S
C216 O212 1.253 . S
C216 O217 1.227 . S
O217 C216 1.227 . S
N218 Co204 2.140 . S
N218 C221 1.346 . S
N218 C222 1.345 . S
C219 C220 1.387 . S
C219 C223 1.391 . S
C220 C219 1.387 . S
C220 C221 1.369 . S
C220 H229 0.929 . S
C221 N218 1.346 . S
C221 C220 1.369 . S
C221 H224 0.928 . S
C222 N218 1.345 . S
C222 C223 1.371 . S
C222 H225 0.931 . S
C223 C219 1.391 . S
C223 C222 1.371 . S
C223 H230 0.930 1_655 S
H224 C221 0.928 . S
H225 C222 0.931 . S
H226 C202 0.930 . S
H227 C199 0.930 . S
H228 C208 0.930 . S
H229 C220 0.929 . S
H230 C223 0.930 1_455 S
C231 C232 1.351 . S
C231 N234 1.368 . S
C231 H236 0.931 . S
C232 C231 1.351 . S
C232 N233 1.373 . S
C232 H260 0.930 . S
N233 C232 1.373 . S
N233 C235 1.340 . S
N234 C231 1.368 . S
N234 C235 1.321 . S
N234 Co237 2.135 . S
C235 N233 1.340 . S
C235 N234 1.321 . S
C235 H259 0.930 . S
H236 C231 0.931 . S
Co237 N234 2.135 . S
Co237 N240 2.121 . S
Co237 O245 2.055 . S
Co237 O248 2.039 . S
Co237 N251 2.140 . S
C238 O239 1.227 . S
C238 O248 1.265 . S
O239 C238 1.227 . S
N240 Co237 2.121 . S
N240 C242 1.375 . S
N240 C243 1.313 . S
C241 C242 1.338 . S
C241 N244 1.377 . S
C241 H261 0.930 . S
C242 N240 1.375 . S
C242 C241 1.338 . S
C242 H246 0.931 . S
C243 N240 1.313 . S
C243 N244 1.344 . S
C243 H247 0.930 . S
N244 C241 1.377 . S
N244 C243 1.344 . S
O245 Co237 2.055 . S
O245 C249 1.253 . S
H246 C242 0.931 . S
H247 C243 0.930 . S
O248 Co237 2.039 . S
O248 C238 1.265 . S
C249 O245 1.253 . S
C249 O250 1.227 . S
O250 C249 1.227 . S
N251 Co237 2.140 . S
N251 C254 1.346 . S
N251 C255 1.345 . S
C252 C253 1.387 . S
C252 C256 1.391 . S
C253 C252 1.387 . S
C253 C254 1.369 . S
C253 H262 0.929 . S
C254 N251 1.346 . S
C254 C253 1.369 . S
C254 H257 0.928 . S
C255 N251 1.345 . S
C255 C256 1.371 . S
C255 H258 0.931 . S
C256 C252 1.391 . S
C256 C255 1.371 . S
C256 H263 0.930 . S
H257 C254 0.928 . S
H258 C255 0.931 . S
H259 C235 0.930 . S
H260 C232 0.930 . S
H261 C241 0.930 . S
H262 C253 0.929 . S
H263 C256 0.930 . S
C264 C265 1.391 1_655 S
C264 C266 1.394 . S
C264 H280 0.931 . S
C265 C264 1.391 1_455 S
C265 C269 1.376 . S
C266 C264 1.394 . S
C266 C267 1.369 1_655 S
C266 C270 1.531 1_554 S
C267 C266 1.369 1_455 S
C267 C268 1.410 . S
C267 C275 1.503 1_444 S
C268 C267 1.410 . S
C268 C269 1.392 . S
C268 C271 1.511 . S
C269 C265 1.376 . S
C269 C268 1.392 . S
C269 H281 0.929 . S
C270 C266 1.531 1_556 S
C270 H282 0.960 . S
C270 H283 0.962 1_556 S
C270 H284 0.960 . S
C271 C268 1.511 . S
C271 H285 0.961 . S
C271 H286 0.961 1_545 S
C271 H287 0.961 1_554 S
C272 C273 1.370 . S
C272 C274 1.363 1_556 S
C272 H288 0.931 1_556 S
C273 C272 1.370 . S
C273 C277 1.409 . S
C274 C272 1.363 1_554 S
C274 C275 1.372 1_554 S
C274 C278 1.524 . S
C275 C267 1.503 1_666 S
C275 C274 1.372 1_556 S
C275 C276 1.402 1_655 S
C276 C275 1.402 1_455 S
C276 C277 1.403 1_455 S
C276 C279 1.542 1_565 S
C277 C273 1.409 . S
C277 C276 1.403 1_655 S
C277 H289 0.929 1_655 S
C278 C274 1.524 . S
C278 H290 0.956 . S
C278 H291 0.961 1_655 S
C278 H292 0.961 . S
C279 C276 1.542 1_545 S
C279 H293 0.958 1_455 S
C279 H294 0.961 . S
C279 H295 0.960 . S
H280 C264 0.931 . S
H281 C269 0.929 . S
H282 C270 0.960 . S
H283 C270 0.962 1_554 S
H284 C270 0.960 . S
H285 C271 0.961 . S
H286 C271 0.961 1_565 S
H287 C271 0.961 1_556 S
H288 C272 0.931 1_554 S
H289 C277 0.929 1_455 S
H290 C278 0.956 . S
H291 C278 0.961 1_455 S
H292 C278 0.961 . S
H293 C279 0.958 1_655 S
H294 C279 0.961 . S
H295 C279 0.960 . S
C296 C297 1.391 . S
C296 C298 1.394 . S
C296 H312 0.931 . S
C297 C296 1.391 . S
C297 C301 1.376 . S
C298 C296 1.394 . S
C298 C299 1.369 . S
C298 C302 1.531 1_545 S
C299 C298 1.369 . S
C299 C300 1.410 1_556 S
C299 C307 1.503 1_546 S
C300 C299 1.410 1_554 S
C300 C301 1.392 1_554 S
C300 C303 1.511 . S
C301 C297 1.376 . S
C301 C300 1.392 1_556 S
C301 H313 0.929 . S
C302 C298 1.531 1_565 S
C302 H314 0.960 . S
C302 H315 0.962 . S
C302 H316 0.963 . S
C303 C300 1.511 . S
C303 H317 0.961 . S
C303 H318 0.961 . S
C303 H319 0.961 . S
C304 C305 1.370 . S
C304 C306 1.363 . S
C304 H320 0.931 . S
C305 C304 1.370 . S
C305 C309 1.408 . S
C306 C304 1.363 . S
C306 C307 1.370 . S
C306 C310 1.524 1_554 S
C307 C299 1.503 1_564 S
C307 C306 1.370 . S
C307 C308 1.403 . S
C308 C307 1.403 . S
C308 C309 1.404 . S
C308 C311 1.545 . S
C309 C305 1.408 . S
C309 C308 1.404 . S
C309 H321 0.930 . S
C310 C306 1.524 1_556 S
C310 H322 0.956 . S
C310 H323 0.961 . S
C310 H324 0.961 . S
C311 C308 1.545 . S
C311 H325 0.960 . S
C311 H326 0.963 . S
C311 H327 0.951 1_565 S
H312 C296 0.931 . S
H313 C301 0.929 . S
H314 C302 0.960 . S
H315 C302 0.962 . S
H316 C302 0.963 . S
H317 C303 0.961 . S
H318 C303 0.961 . S
H319 C303 0.961 . S
H320 C304 0.931 . S
H321 C309 0.930 . S
H322 C310 0.956 . S
H323 C310 0.961 . S
H324 C310 0.961 . S
H325 C311 0.960 . S
H326 C311 0.963 . S
H327 C311 0.951 1_545 S
C328 C329 1.391 . S
C328 C330 1.394 . S
C328 H344 0.931 . S
C329 C328 1.391 . S
C329 C333 1.376 1_655 S
C330 C328 1.394 . S
C330 C331 1.369 1_655 S
C330 C334 1.531 . S
C331 C330 1.369 1_455 S
C331 C332 1.410 . S
C331 C339 1.503 . S
C332 C331 1.410 . S
C332 C333 1.392 . S
C332 C335 1.511 . S
C333 C329 1.376 1_455 S
C333 C332 1.392 . S
C333 H345 0.929 . S
C334 C330 1.531 . S
C334 H346 0.960 . S
C334 H347 0.962 . S
C334 H348 0.960 . S
C335 C332 1.511 . S
C335 H349 0.961 . S
C335 H350 0.961 . S
C335 H351 0.961 . S
C336 C337 1.370 1_655 S
C336 C338 1.363 . S
C336 H352 0.931 . S
C337 C336 1.370 1_455 S
C337 C341 1.408 . S
C338 C336 1.363 . S
C338 C339 1.370 1_655 S
C338 C342 1.524 . S
C339 C331 1.503 . S
C339 C338 1.370 1_455 S
C339 C340 1.403 . S
C340 C339 1.403 . S
C340 C341 1.404 . S
C340 C343 1.539 . S
C341 C337 1.408 . S
C341 C340 1.404 . S
C341 H353 0.930 . S
C342 C338 1.524 . S
C342 H354 0.956 . S
C342 H355 0.961 . S
C342 H356 0.961 . S
C343 C340 1.539 . S
C343 H357 0.958 . S
C343 H358 0.961 . S
C343 H359 0.960 . S
H344 C328 0.931 . S
H345 C333 0.929 . S
H346 C334 0.960 . S
H347 C334 0.962 . S
H348 C334 0.960 . S
H349 C335 0.961 . S
H350 C335 0.961 . S
H351 C335 0.961 . S
H352 C336 0.931 . S
H353 C341 0.930 . S
H354 C342 0.956 . S
H355 C342 0.961 . S
H356 C342 0.961 . S
H357 C343 0.958 . S
H358 C343 0.961 . S
H359 C343 0.960 . S
C360 C361 1.391 . S
C360 C362 1.394 . S
C360 H376 0.931 . S
C361 C360 1.391 . S
C361 C365 1.376 . S
C362 C360 1.394 . S
C362 C363 1.369 . S
C362 C366 1.531 . S
C363 C362 1.369 . S
C363 C364 1.410 . S
C363 C371 1.503 . S
C364 C363 1.410 . S
C364 C365 1.392 . S
C364 C367 1.511 . S
C365 C361 1.376 . S
C365 C364 1.392 . S
C365 H377 0.929 . S
C366 C362 1.531 . S
C366 H378 0.960 . S
C366 H379 0.962 . S
C366 H380 0.960 . S
C367 C364 1.511 . S
C367 H381 0.961 . S
C367 H382 0.961 . S
C367 H383 0.961 . S
C368 C369 1.370 . S
C368 C370 1.363 . S
C368 H384 0.931 . S
C369 C368 1.370 . S
C369 C373 1.408 . S
C370 C368 1.363 . S
C370 C371 1.370 . S
C370 C374 1.524 . S
C371 C363 1.503 . S
C371 C370 1.370 . S
C371 C372 1.403 . S
C372 C371 1.403 . S
C372 C373 1.404 . S
C372 C375 1.539 . S
C373 C369 1.408 . S
C373 C372 1.404 . S
C373 H385 0.930 . S
C374 C370 1.524 . S
C374 H386 0.956 . S
C374 H387 0.961 . S
C374 H388 0.961 . S
C375 C372 1.539 . S
C375 H389 0.958 . S
C375 H390 0.961 . S
C375 H391 0.960 . S
H376 C360 0.931 . S
H377 C365 0.929 . S
H378 C366 0.960 . S
H379 C366 0.962 . S
H380 C366 0.960 . S
H381 C367 0.961 . S
H382 C367 0.961 . S
H383 C367 0.961 . S
H384 C368 0.931 . S
H385 C373 0.930 . S
H386 C374 0.956 . S
H387 C374 0.961 . S
H388 C374 0.961 . S
H389 C375 0.958 . S
H390 C375 0.961 . S
H391 C375 0.960 . S
C392 C393 1.391 . S
C392 C394 1.394 . S
C392 H408 0.931 . S
C393 C392 1.391 . S
C393 C397 1.376 . S
C394 C392 1.394 . S
C394 C395 1.369 . S
C394 C398 1.531 . S
C395 C394 1.369 . S
C395 C396 1.410 . S
C395 C403 1.503 1_565 S
C396 C395 1.410 . S
C396 C397 1.392 . S
C396 C399 1.511 . S
C397 C393 1.376 . S
C397 C396 1.392 . S
C397 H409 0.929 . S
C398 C394 1.531 . S
C398 H410 0.960 1_565 S
C398 H411 0.962 . S
C398 H412 0.960 . S
C399 C396 1.511 . S
C399 H413 0.961 . S
C399 H414 0.961 1_565 S
C399 H415 0.961 1_565 S
C400 C401 1.370 . S
C400 C402 1.363 . S
C400 H416 0.931 . S
C401 C400 1.370 . S
C401 C405 1.408 . S
C402 C400 1.363 . S
C402 C403 1.370 . S
C402 C406 1.524 1_545 S
C403 C395 1.503 1_545 S
C403 C402 1.370 . S
C403 C404 1.403 . S
C404 C403 1.403 . S
C404 C405 1.404 . S
C404 C407 1.539 . S
C405 C401 1.408 . S
C405 C404 1.404 . S
C405 H417 0.930 . S
C406 C402 1.524 1_565 S
C406 H418 0.956 . S
C406 H419 0.961 . S
C406 H420 0.961 . S
C407 C404 1.539 . S
C407 H421 0.958 . S
C407 H422 0.961 . S
C407 H423 0.960 . S
H408 C392 0.931 . S
H409 C397 0.929 . S
H410 C398 0.960 1_545 S
H411 C398 0.962 . S
H412 C398 0.960 . S
H413 C399 0.961 . S
H414 C399 0.961 1_545 S
H415 C399 0.961 1_545 S
H416 C400 0.931 . S
H417 C405 0.930 . S
H418 C406 0.956 . S
H419 C406 0.961 . S
H420 C406 0.961 . S
H421 C407 0.958 . S
H422 C407 0.961 . S
H423 C407 0.960 . S
C424 C425 1.391 . S
C424 C426 1.394 . S
C424 H440 0.931 . S
C425 C424 1.391 . S
C425 C429 1.376 . S
C426 C424 1.394 . S
C426 C427 1.369 . S
C426 C430 1.531 . S
C427 C426 1.369 . S
C427 C428 1.410 . S
C427 C435 1.503 . S
C428 C427 1.410 . S
C428 C429 1.392 . S
C428 C431 1.511 . S
C429 C425 1.376 . S
C429 C428 1.392 . S
C429 H441 0.929 . S
C430 C426 1.531 . S
C430 H442 0.960 . S
C430 H443 0.962 . S
C430 H444 0.960 . S
C431 C428 1.511 . S
C431 H445 0.961 . S
C431 H446 0.961 . S
C431 H447 0.961 . S
C432 C433 1.370 . S
C432 C434 1.363 . S
C432 H448 0.931 . S
C433 C432 1.370 . S
C433 C437 1.408 . S
C434 C432 1.363 . S
C434 C435 1.370 . S
C434 C438 1.524 . S
C435 C427 1.503 . S
C435 C434 1.370 . S
C435 C436 1.403 . S
C436 C435 1.403 . S
C436 C437 1.404 . S
C436 C439 1.539 . S
C437 C433 1.408 . S
C437 C436 1.404 . S
C437 H449 0.930 . S
C438 C434 1.524 . S
C438 H450 0.956 . S
C438 H451 0.961 . S
C438 H452 0.961 . S
C439 C436 1.539 . S
C439 H453 0.958 . S
C439 H454 0.961 . S
C439 H455 0.960 . S
H440 C424 0.931 . S
H441 C429 0.929 . S
H442 C430 0.960 . S
H443 C430 0.962 . S
H444 C430 0.960 . S
H445 C431 0.961 . S
H446 C431 0.961 . S
H447 C431 0.961 . S
H448 C432 0.931 . S
H449 C437 0.930 . S
H450 C438 0.956 . S
H451 C438 0.961 . S
H452 C438 0.961 . S
H453 C439 0.958 . S
H454 C439 0.961 . S
H455 C439 0.960 . S
C456 C457 1.391 . S
C456 C458 1.394 . S
C456 H472 0.931 . S
C457 C456 1.391 . S
C457 C461 1.376 . S
C458 C456 1.394 . S
C458 C459 1.369 . S
C458 C462 1.531 . S
C459 C458 1.369 . S
C459 C460 1.410 . S
C459 C467 1.503 1_565 S
C460 C459 1.410 . S
C460 C461 1.392 . S
C460 C463 1.511 1_565 S
C461 C457 1.376 . S
C461 C460 1.392 . S
C461 H473 0.929 . S
C462 C458 1.531 . S
C462 H474 0.960 . S
C462 H475 0.962 . S
C462 H476 0.960 . S
C463 C460 1.511 1_545 S
C463 H477 0.961 . S
C463 H478 0.961 . S
C463 H479 0.961 . S
C464 C465 1.370 . S
C464 C466 1.363 . S
C464 H480 0.931 . S
C465 C464 1.370 . S
C465 C469 1.408 . S
C466 C464 1.363 . S
C466 C467 1.370 . S
C466 C470 1.524 . S
C467 C459 1.503 1_545 S
C467 C466 1.370 . S
C467 C468 1.403 . S
C468 C467 1.403 . S
C468 C469 1.404 . S
C468 C471 1.539 . S
C469 C465 1.408 . S
C469 C468 1.404 . S
C469 H481 0.930 . S
C470 C466 1.524 . S
C470 H482 0.956 1_545 S
C470 H483 0.961 1_545 S
C470 H484 0.961 . S
C471 C468 1.539 . S
C471 H485 0.958 . S
C471 H486 0.961 . S
C471 H487 0.960 . S
H472 C456 0.931 . S
H473 C461 0.929 . S
H474 C462 0.960 . S
H475 C462 0.962 . S
H476 C462 0.960 . S
H477 C463 0.961 . S
H478 C463 0.961 . S
H479 C463 0.961 . S
H480 C464 0.931 . S
H481 C469 0.930 . S
H482 C470 0.956 1_565 S
H483 C470 0.961 1_565 S
H484 C470 0.961 . S
H485 C471 0.958 . S
H486 C471 0.961 . S
H487 C471 0.960 . S
C488 C489 1.391 . S
C488 C490 1.394 . S
C488 H504 0.931 . S
C489 C488 1.391 . S
C489 C493 1.376 . S
C490 C488 1.394 . S
C490 C491 1.369 . S
C490 C494 1.531 . S
C491 C490 1.369 . S
C491 C492 1.410 . S
C491 C499 1.503 . S
C492 C491 1.410 . S
C492 C493 1.392 . S
C492 C495 1.511 . S
C493 C489 1.376 . S
C493 C492 1.392 . S
C493 H505 0.929 . S
C494 C490 1.531 . S
C494 H506 0.960 . S
C494 H507 0.962 . S
C494 H508 0.960 . S
C495 C492 1.511 . S
C495 H509 0.961 . S
C495 H510 0.961 . S
C495 H511 0.961 . S
C496 C497 1.370 . S
C496 C498 1.363 . S
C496 H512 0.931 . S
C497 C496 1.370 . S
C497 C501 1.408 . S
C498 C496 1.363 . S
C498 C499 1.370 . S
C498 C502 1.524 . S
C499 C491 1.503 . S
C499 C498 1.370 . S
C499 C500 1.403 . S
C500 C499 1.403 . S
C500 C501 1.404 . S
C500 C503 1.539 . S
C501 C497 1.408 . S
C501 C500 1.404 . S
C501 H513 0.930 . S
C502 C498 1.524 . S
C502 H514 0.956 . S
C502 H515 0.961 . S
C502 H516 0.961 . S
C503 C500 1.539 . S
C503 H517 0.958 . S
C503 H518 0.961 . S
C503 H519 0.960 . S
H504 C488 0.931 . S
H505 C493 0.929 . S
H506 C494 0.960 . S
H507 C494 0.962 . S
H508 C494 0.960 . S
H509 C495 0.961 . S
H510 C495 0.961 . S
H511 C495 0.961 . S
H512 C496 0.931 . S
H513 C501 0.930 . S
H514 C502 0.956 . S
H515 C502 0.961 . S
H516 C502 0.961 . S
H517 C503 0.958 . S
H518 C503 0.961 . S
H519 C503 0.960 . S
C520 C521 1.391 . S
C520 C522 1.394 1_554 S
C520 H536 0.931 1_554 S
C521 C520 1.391 . S
C521 C525 1.376 . S
C522 C520 1.394 1_556 S
C522 C523 1.369 1_556 S
C522 C526 1.531 . S
C523 C522 1.369 1_554 S
C523 C524 1.410 . S
C523 C531 1.504 1_554 S
C524 C523 1.410 . S
C524 C525 1.392 . S
C524 C527 1.511 . S
C525 C521 1.376 . S
C525 C524 1.392 . S
C525 H537 0.929 . S
C526 C522 1.531 . S
C526 H538 0.960 . S
C526 H539 0.962 . S
C526 H540 0.960 . S
C527 C524 1.511 . S
C527 H541 0.961 . S
C527 H542 0.961 . S
C527 H543 0.961 . S
C528 C529 1.370 . S
C528 C530 1.363 . S
C528 H544 0.931 . S
C529 C528 1.370 . S
C529 C533 1.408 . S
C530 C528 1.363 . S
C530 C531 1.369 . S
C530 C534 1.524 . S
C531 C523 1.504 1_556 S
C531 C530 1.369 . S
C531 C532 1.403 1_556 S
C532 C531 1.403 1_554 S
C532 C533 1.404 1_554 S
C532 C535 1.539 . S
C533 C529 1.408 . S
C533 C532 1.404 1_556 S
C533 H545 0.930 1_556 S
C534 C530 1.524 . S
C534 H546 0.956 . S
C534 H547 0.961 . S
C534 H548 0.961 . S
C535 C532 1.539 . S
C535 H549 0.958 . S
C535 H550 0.961 . S
C535 H551 0.960 . S
H536 C520 0.931 1_556 S
H537 C525 0.929 . S
H538 C526 0.960 . S
H539 C526 0.962 . S
H540 C526 0.960 . S
H541 C527 0.961 . S
H542 C527 0.961 . S
H543 C527 0.961 . S
H544 C528 0.931 . S
H545 C533 0.930 1_554 S
H546 C534 0.956 . S
H547 C534 0.961 . S
H548 C534 0.961 . S
H549 C535 0.958 . S
H550 C535 0.961 . S
H551 C535 0.960 . S
C552 C553 1.391 1_554 S
C552 C554 1.394 . S
C552 H568 0.931 . S
C553 C552 1.391 1_556 S
C553 C557 1.376 . S
C554 C552 1.394 . S
C554 C555 1.369 . S
C554 C558 1.531 . S
C555 C554 1.369 . S
C555 C556 1.410 1_554 S
C555 C563 1.503 . S
C556 C555 1.410 1_556 S
C556 C557 1.392 . S
C556 C559 1.511 . S
C557 C553 1.376 . S
C557 C556 1.392 . S
C557 H569 0.929 . S
C558 C554 1.531 . S
C558 H570 0.960 . S
C558 H571 0.962 . S
C558 H572 0.960 . S
C559 C556 1.511 . S
C559 H573 0.961 . S
C559 H574 0.961 . S
C559 H575 0.961 . S
C560 C561 1.370 . S
C560 C562 1.363 1_554 S
C560 H576 0.931 1_554 S
C561 C560 1.370 . S
C561 C565 1.408 . S
C562 C560 1.363 1_556 S
C562 C563 1.370 1_556 S
C562 C566 1.524 . S
C563 C555 1.503 . S
C563 C562 1.370 1_554 S
C563 C564 1.403 . S
C564 C563 1.403 . S
C564 C565 1.404 . S
C564 C567 1.539 . S
C565 C561 1.408 . S
C565 C564 1.404 . S
C565 H577 0.930 . S
C566 C562 1.524 . S
C566 H578 0.956 . S
C566 H579 0.961 . S
C566 H580 0.961 . S
C567 C564 1.539 . S
C567 H581 0.958 . S
C567 H582 0.961 . S
C567 H583 0.960 . S
H568 C552 0.931 . S
H569 C557 0.929 . S
H570 C558 0.960 . S
H571 C558 0.962 . S
H572 C558 0.960 . S
H573 C559 0.961 . S
H574 C559 0.961 . S
H575 C559 0.961 . S
H576 C560 0.931 1_556 S
H577 C565 0.930 . S
H578 C566 0.956 . S
H579 C566 0.961 . S
H580 C566 0.961 . S
H581 C567 0.958 . S
H582 C567 0.961 . S
H583 C567 0.960 . S
C584 C585 1.391 . S
C584 C586 1.394 . S
C584 H600 0.931 . S
C585 C584 1.391 . S
C585 C589 1.376 . S
C586 C584 1.394 . S
C586 C587 1.369 . S
C586 C590 1.531 . S
C587 C586 1.369 . S
C587 C588 1.410 . S
C587 C595 1.503 . S
C588 C587 1.410 . S
C588 C589 1.392 . S
C588 C591 1.511 . S
C589 C585 1.376 . S
C589 C588 1.392 . S
C589 H601 0.929 . S
C590 C586 1.531 . S
C590 H602 0.960 . S
C590 H603 0.962 . S
C590 H604 0.960 . S
C591 C588 1.511 . S
C591 H605 0.961 . S
C591 H606 0.961 . S
C591 H607 0.961 . S
C592 C593 1.370 . S
C592 C594 1.363 . S
C592 H608 0.931 . S
C593 C592 1.370 . S
C593 C597 1.408 . S
C594 C592 1.363 . S
C594 C595 1.370 . S
C594 C598 1.524 . S
C595 C587 1.503 . S
C595 C594 1.370 . S
C595 C596 1.403 . S
C596 C595 1.403 . S
C596 C597 1.404 . S
C596 C599 1.539 . S
C597 C593 1.408 . S
C597 C596 1.404 . S
C597 H609 0.930 . S
C598 C594 1.524 . S
C598 H610 0.956 . S
C598 H611 0.961 . S
C598 H612 0.961 . S
C599 C596 1.539 . S
C599 H613 0.958 . S
C599 H614 0.961 . S
C599 H615 0.960 . S
H600 C584 0.931 . S
H601 C589 0.929 . S
H602 C590 0.960 . S
H603 C590 0.962 . S
H604 C590 0.960 . S
H605 C591 0.961 . S
H606 C591 0.961 . S
H607 C591 0.961 . S
H608 C592 0.931 . S
H609 C597 0.930 . S
H610 C598 0.956 . S
H611 C598 0.961 . S
H612 C598 0.961 . S
H613 C599 0.958 . S
H614 C599 0.961 . S
H615 C599 0.960 . S
C616 C617 1.391 . S
C616 C618 1.394 . S
C616 H632 0.931 . S
C617 C616 1.391 . S
C617 C621 1.376 . S
C618 C616 1.394 . S
C618 C619 1.369 . S
C618 C622 1.531 . S
C619 C618 1.369 . S
C619 C620 1.410 . S
C619 C627 1.503 . S
C620 C619 1.410 . S
C620 C621 1.392 . S
C620 C623 1.511 . S
C621 C617 1.376 . S
C621 C620 1.392 . S
C621 H633 0.929 . S
C622 C618 1.531 . S
C622 H634 0.960 . S
C622 H635 0.962 . S
C622 H636 0.960 . S
C623 C620 1.511 . S
C623 H637 0.961 . S
C623 H638 0.961 . S
C623 H639 0.961 . S
C624 C625 1.370 . S
C624 C626 1.363 . S
C624 H640 0.931 . S
C625 C624 1.370 . S
C625 C629 1.408 . S
C626 C624 1.363 . S
C626 C627 1.370 . S
C626 C630 1.524 . S
C627 C619 1.503 . S
C627 C626 1.370 . S
C627 C628 1.403 . S
C628 C627 1.403 . S
C628 C629 1.404 . S
C628 C631 1.539 . S
C629 C625 1.408 . S
C629 C628 1.404 . S
C629 H641 0.930 . S
C630 C626 1.524 . S
C630 H642 0.956 . S
C630 H643 0.961 . S
C630 H644 0.961 . S
C631 C628 1.539 . S
C631 H645 0.958 . S
C631 H646 0.961 . S
C631 H647 0.960 . S
H632 C616 0.931 . S
H633 C621 0.929 . S
H634 C622 0.960 . S
H635 C622 0.962 . S
H636 C622 0.960 . S
H637 C623 0.961 . S
H638 C623 0.961 . S
H639 C623 0.961 . S
H640 C624 0.931 . S
H641 C629 0.930 . S
H642 C630 0.956 . S
H643 C630 0.961 . S
H644 C630 0.961 . S
H645 C631 0.958 . S
H646 C631 0.961 . S
H647 C631 0.960 . S
C648 C649 1.391 . S
C648 C650 1.394 . S
C648 H664 0.931 . S
C649 C648 1.391 . S
C649 C653 1.376 1_554 S
C650 C648 1.394 . S
C650 C651 1.369 1_554 S
C650 C654 1.531 . S
C651 C650 1.369 1_556 S
C651 C652 1.410 . S
C651 C659 1.503 . S
C652 C651 1.410 . S
C652 C653 1.392 . S
C652 C655 1.511 . S
C653 C649 1.376 1_556 S
C653 C652 1.392 . S
C653 H665 0.929 . S
C654 C650 1.531 . S
C654 H666 0.960 . S
C654 H667 0.962 . S
C654 H668 0.960 . S
C655 C652 1.511 . S
C655 H669 0.961 . S
C655 H670 0.961 . S
C655 H671 0.961 . S
C656 C657 1.370 . S
C656 C658 1.363 1_556 S
C656 H672 0.931 1_556 S
C657 C656 1.370 . S
C657 C661 1.408 . S
C658 C656 1.363 1_554 S
C658 C659 1.370 1_554 S
C658 C662 1.524 . S
C659 C651 1.503 . S
C659 C658 1.370 1_556 S
C659 C660 1.403 . S
C660 C659 1.403 . S
C660 C661 1.404 . S
C660 C663 1.539 . S
C661 C657 1.408 . S
C661 C660 1.404 . S
C661 H673 0.930 . S
C662 C658 1.524 . S
C662 H674 0.956 . S
C662 H675 0.961 . S
C662 H676 0.961 . S
C663 C660 1.539 . S
C663 H677 0.958 . S
C663 H678 0.961 . S
C663 H679 0.960 . S
H664 C648 0.931 . S
H665 C653 0.929 . S
H666 C654 0.960 . S
H667 C654 0.962 . S
H668 C654 0.960 . S
H669 C655 0.961 . S
H670 C655 0.961 . S
H671 C655 0.961 . S
H672 C656 0.931 1_554 S
H673 C661 0.930 . S
H674 C662 0.956 . S
H675 C662 0.961 . S
H676 C662 0.961 . S
H677 C663 0.958 . S
H678 C663 0.961 . S
H679 C663 0.960 . S
C680 C681 1.391 . S
C680 C682 1.394 1_556 S
C680 H696 0.931 . S
C681 C680 1.391 . S
C681 C685 1.376 . S
C682 C680 1.394 1_554 S
C682 C683 1.369 1_554 S
C682 C686 1.531 . S
C683 C682 1.369 1_556 S
C683 C684 1.410 . S
C683 C691 1.503 1_556 S
C684 C683 1.410 . S
C684 C685 1.392 . S
C684 C687 1.511 . S
C685 C681 1.376 . S
C685 C684 1.392 . S
C685 H697 0.929 . S
C686 C682 1.531 . S
C686 H698 0.960 . S
C686 H699 0.962 . S
C686 H700 0.960 . S
C687 C684 1.511 . S
C687 H701 0.961 . S
C687 H702 0.961 . S
C687 H703 0.961 . S
C688 C689 1.370 1_556 S
C688 C690 1.363 . S
C688 H704 0.931 . S
C689 C688 1.370 1_554 S
C689 C693 1.408 . S
C690 C688 1.363 . S
C690 C691 1.370 1_556 S
C690 C694 1.524 . S
C691 C683 1.503 1_554 S
C691 C690 1.370 1_554 S
C691 C692 1.403 . S
C692 C691 1.403 . S
C692 C693 1.404 . S
C692 C695 1.539 . S
C693 C689 1.408 . S
C693 C692 1.404 . S
C693 H705 0.930 . S
C694 C690 1.524 . S
C694 H706 0.956 . S
C694 H707 0.961 . S
C694 H708 0.961 . S
C695 C692 1.539 . S
C695 H709 0.958 . S
C695 H710 0.961 . S
C695 H711 0.960 . S
H696 C680 0.931 . S
H697 C685 0.929 . S
H698 C686 0.960 . S
H699 C686 0.962 . S
H700 C686 0.960 . S
H701 C687 0.961 . S
H702 C687 0.961 . S
H703 C687 0.961 . S
H704 C688 0.931 . S
H705 C693 0.930 . S
H706 C694 0.956 . S
H707 C694 0.961 . S
H708 C694 0.961 . S
H709 C695 0.958 . S
H710 C695 0.961 . S
H711 C695 0.960 . S
C712 C713 1.391 . S
C712 C714 1.394 . S
C712 H728 0.931 . S
C713 C712 1.391 . S
C713 C717 1.376 . S
C714 C712 1.394 . S
C714 C715 1.369 . S
C714 C718 1.531 . S
C715 C714 1.369 . S
C715 C716 1.410 . S
C715 C723 1.503 . S
C716 C715 1.410 . S
C716 C717 1.392 . S
C716 C719 1.511 . S
C717 C713 1.376 . S
C717 C716 1.392 . S
C717 H729 0.929 . S
C718 C714 1.531 . S
C718 H730 0.960 . S
C718 H731 0.962 . S
C718 H732 0.960 . S
C719 C716 1.511 . S
C719 H733 0.961 . S
C719 H734 0.961 . S
C719 H735 0.961 . S
C720 C721 1.370 . S
C720 C722 1.363 . S
C720 H736 0.931 . S
C721 C720 1.370 . S
C721 C725 1.408 . S
C722 C720 1.363 . S
C722 C723 1.370 . S
C722 C726 1.524 . S
C723 C715 1.503 . S
C723 C722 1.370 . S
C723 C724 1.403 . S
C724 C723 1.403 . S
C724 C725 1.404 . S
C724 C727 1.539 . S
C725 C721 1.408 . S
C725 C724 1.404 . S
C725 H737 0.930 . S
C726 C722 1.524 . S
C726 H738 0.956 . S
C726 H739 0.961 . S
C726 H740 0.961 . S
C727 C724 1.539 . S
C727 H741 0.958 . S
C727 H742 0.961 . S
C727 H743 0.960 . S
H728 C712 0.931 . S
H729 C717 0.929 . S
H730 C718 0.960 . S
H731 C718 0.962 . S
H732 C718 0.960 . S
H733 C719 0.961 . S
H734 C719 0.961 . S
H735 C719 0.961 . S
H736 C720 0.931 . S
H737 C725 0.930 . S
H738 C726 0.956 . S
H739 C726 0.961 . S
H740 C726 0.961 . S
H741 C727 0.958 . S
H742 C727 0.961 . S
H743 C727 0.960 . S
C744 C745 1.391 . S
C744 C746 1.394 . S
C744 H760 0.931 . S
C745 C744 1.391 . S
C745 C749 1.376 . S
C746 C744 1.394 . S
C746 C747 1.369 . S
C746 C750 1.531 . S
C747 C746 1.369 . S
C747 C748 1.410 . S
C747 C755 1.503 . S
C748 C747 1.410 . S
C748 C749 1.392 . S
C748 C751 1.511 . S
C749 C745 1.376 . S
C749 C748 1.392 . S
C749 H761 0.929 . S
C750 C746 1.531 . S
C750 H762 0.960 . S
C750 H763 0.962 . S
C750 H764 0.960 . S
C751 C748 1.511 . S
C751 H765 0.961 . S
C751 H766 0.961 . S
C751 H767 0.961 . S
C752 C753 1.370 . S
C752 C754 1.363 . S
C752 H768 0.931 . S
C753 C752 1.370 . S
C753 C757 1.408 . S
C754 C752 1.363 . S
C754 C755 1.370 . S
C754 C758 1.524 . S
C755 C747 1.503 . S
C755 C754 1.370 . S
C755 C756 1.403 . S
C756 C755 1.403 . S
C756 C757 1.404 . S
C756 C759 1.539 . S
C757 C753 1.408 . S
C757 C756 1.404 . S
C757 H769 0.930 . S
C758 C754 1.524 . S
C758 H770 0.956 . S
C758 H771 0.961 . S
C758 H772 0.961 . S
C759 C756 1.539 . S
C759 H773 0.958 . S
C759 H774 0.961 . S
C759 H775 0.960 . S
H760 C744 0.931 . S
H761 C749 0.929 . S
H762 C750 0.960 . S
H763 C750 0.962 . S
H764 C750 0.960 . S
H765 C751 0.961 . S
H766 C751 0.961 . S
H767 C751 0.961 . S
H768 C752 0.931 . S
H769 C757 0.930 . S
H770 C758 0.956 . S
H771 C758 0.961 . S
H772 C758 0.961 . S
H773 C759 0.958 . S
H774 C759 0.961 . S
H775 C759 0.960 . S
C776 C777 1.391 . S
C776 C778 1.394 . S
C776 H792 0.931 1_455 S
C777 C776 1.391 . S
C777 C781 1.376 . S
C778 C776 1.394 . S
C778 C779 1.369 . S
C778 C782 1.531 1_455 S
C779 C778 1.369 . S
C779 C780 1.410 . S
C779 C787 1.503 . S
C780 C779 1.410 . S
C780 C781 1.392 . S
C780 C783 1.511 . S
C781 C777 1.376 . S
C781 C780 1.392 . S
C781 H793 0.929 . S
C782 C778 1.531 1_655 S
C782 H794 0.960 . S
C782 H795 0.962 . S
C782 H796 0.960 . S
C783 C780 1.511 . S
C783 H797 0.961 . S
C783 H798 0.961 . S
C783 H799 0.961 . S
C784 C785 1.370 . S
C784 C786 1.363 . S
C784 H800 0.931 . S
C785 C784 1.370 . S
C785 C789 1.408 . S
C786 C784 1.363 . S
C786 C787 1.370 . S
C786 C790 1.524 . S
C787 C779 1.503 . S
C787 C786 1.370 . S
C787 C788 1.403 . S
C788 C787 1.403 . S
C788 C789 1.404 . S
C788 C791 1.539 . S
C789 C785 1.408 . S
C789 C788 1.404 . S
C789 H801 0.930 . S
C790 C786 1.524 . S
C790 H802 0.956 . S
C790 H803 0.961 . S
C790 H804 0.961 . S
C791 C788 1.539 . S
C791 H805 0.958 . S
C791 H806 0.961 . S
C791 H807 0.960 . S
H792 C776 0.931 1_655 S
H793 C781 0.929 . S
H794 C782 0.960 . S
H795 C782 0.962 . S
H796 C782 0.960 . S
H797 C783 0.961 . S
H798 C783 0.961 . S
H799 C783 0.961 . S
H800 C784 0.931 . S
H801 C789 0.930 . S
H802 C790 0.956 . S
H803 C790 0.961 . S
H804 C790 0.961 . S
H805 C791 0.958 . S
H806 C791 0.961 . S
H807 C791 0.960 . S
C808 C809 1.391 . S
C808 C810 1.394 . S
C808 H824 0.931 . S
C809 C808 1.391 . S
C809 C813 1.376 . S
C810 C808 1.394 . S
C810 C811 1.369 . S
C810 C814 1.531 . S
C811 C810 1.369 . S
C811 C812 1.410 . S
C811 C819 1.503 . S
C812 C811 1.410 . S
C812 C813 1.392 . S
C812 C815 1.511 . S
C813 C809 1.376 . S
C813 C812 1.392 . S
C813 H825 0.929 . S
C814 C810 1.531 . S
C814 H826 0.960 . S
C814 H827 0.962 . S
C814 H828 0.960 . S
C815 C812 1.511 . S
C815 H829 0.961 . S
C815 H830 0.961 . S
C815 H831 0.961 . S
C816 C817 1.370 . S
C816 C818 1.363 . S
C816 H832 0.931 . S
C817 C816 1.370 . S
C817 C821 1.408 . S
C818 C816 1.363 . S
C818 C819 1.370 . S
C818 C822 1.524 . S
C819 C811 1.503 . S
C819 C818 1.370 . S
C819 C820 1.403 . S
C820 C819 1.403 . S
C820 C821 1.404 . S
C820 C823 1.539 . S
C821 C817 1.408 . S
C821 C820 1.404 . S
C821 H833 0.930 . S
C822 C818 1.524 . S
C822 H834 0.956 . S
C822 H835 0.961 . S
C822 H836 0.961 . S
C823 C820 1.539 . S
C823 H837 0.958 . S
C823 H838 0.961 . S
C823 H839 0.960 . S
H824 C808 0.931 . S
H825 C813 0.929 . S
H826 C814 0.960 . S
H827 C814 0.962 . S
H828 C814 0.960 . S
H829 C815 0.961 . S
H830 C815 0.961 . S
H831 C815 0.961 . S
H832 C816 0.931 . S
H833 C821 0.930 . S
H834 C822 0.956 . S
H835 C822 0.961 . S
H836 C822 0.961 . S
H837 C823 0.958 . S
H838 C823 0.961 . S
H839 C823 0.960 . S
C840 C841 1.391 . S
C840 C842 1.394 . S
C840 H856 0.931 . S
C841 C840 1.391 . S
C841 C845 1.376 . S
C842 C840 1.394 . S
C842 C843 1.369 . S
C842 C846 1.531 . S
C843 C842 1.369 . S
C843 C844 1.410 . S
C843 C851 1.503 . S
C844 C843 1.410 . S
C844 C845 1.392 . S
C844 C847 1.511 . S
C845 C841 1.376 . S
C845 C844 1.392 . S
C845 H857 0.929 . S
C846 C842 1.531 . S
C846 H858 0.960 . S
C846 H859 0.962 1_655 S
C846 H860 0.960 . S
C847 C844 1.511 . S
C847 H861 0.961 . S
C847 H862 0.961 . S
C847 H863 0.961 . S
C848 C849 1.370 . S
C848 C850 1.363 . S
C848 H864 0.931 . S
C849 C848 1.370 . S
C849 C853 1.408 . S
C850 C848 1.363 . S
C850 C851 1.370 . S
C850 C854 1.512 1_655 S
C851 C843 1.503 . S
C851 C850 1.370 . S
C851 C852 1.403 . S
C852 C851 1.403 . S
C852 C853 1.404 . S
C852 C855 1.539 . S
C853 C849 1.408 . S
C853 C852 1.404 . S
C853 H865 0.930 . S
C854 C850 1.512 1_455 S
C854 H866 0.968 . S
C854 H867 0.951 1_455 S
C854 H868 0.971 . S
C855 C852 1.539 . S
C855 H869 0.958 . S
C855 H870 0.961 . S
C855 H871 0.960 . S
H856 C840 0.931 . S
H857 C845 0.929 . S
H858 C846 0.960 . S
H859 C846 0.962 1_455 S
H860 C846 0.960 . S
H861 C847 0.961 . S
H862 C847 0.961 . S
H863 C847 0.961 . S
H864 C848 0.931 . S
H865 C853 0.930 . S
H866 C854 0.968 . S
H867 C854 0.951 1_655 S
H868 C854 0.971 . S
H869 C855 0.958 . S
H870 C855 0.961 . S
H871 C855 0.960 . S
C872 C873 1.391 . S
C872 C874 1.394 . S
C872 H888 0.931 . S
C873 C872 1.391 . S
C873 C877 1.376 . S
C874 C872 1.394 . S
C874 C875 1.369 . S
C874 C878 1.531 . S
C875 C874 1.369 . S
C875 C876 1.410 . S
C875 C883 1.503 . S
C876 C875 1.410 . S
C876 C877 1.392 . S
C876 C879 1.511 . S
C877 C873 1.376 . S
C877 C876 1.392 . S
C877 H889 0.929 . S
C878 C874 1.531 . S
C878 H890 0.960 . S
C878 H891 0.962 . S
C878 H892 0.960 . S
C879 C876 1.511 . S
C879 H893 0.961 . S
C879 H894 0.961 . S
C879 H895 0.961 . S
C880 C881 1.370 . S
C880 C882 1.363 . S
C880 H896 0.931 . S
C881 C880 1.370 . S
C881 C885 1.408 . S
C882 C880 1.363 . S
C882 C883 1.370 . S
C882 C886 1.524 . S
C883 C875 1.503 . S
C883 C882 1.370 . S
C883 C884 1.403 . S
C884 C883 1.403 . S
C884 C885 1.404 . S
C884 C887 1.539 . S
C885 C881 1.408 . S
C885 C884 1.404 . S
C885 H897 0.930 . S
C886 C882 1.524 . S
C886 H898 0.956 . S
C886 H899 0.961 . S
C886 H900 0.961 . S
C887 C884 1.539 . S
C887 H901 0.958 . S
C887 H902 0.961 . S
C887 H903 0.960 . S
H888 C872 0.931 . S
H889 C877 0.929 . S
H890 C878 0.960 . S
H891 C878 0.962 . S
H892 C878 0.960 . S
H893 C879 0.961 . S
H894 C879 0.961 . S
H895 C879 0.961 . S
H896 C880 0.931 . S
H897 C885 0.930 . S
H898 C886 0.956 . S
H899 C886 0.961 . S
H900 C886 0.961 . S
H901 C887 0.958 . S
H902 C887 0.961 . S
H903 C887 0.960 . S
C265 C18 1.039 . S
C273 C150 1.050 . S
C297 C183 1.008 . S
C305 C51 1.058 . S
C329 C216 1.068 . S
C337 C84 1.033 . S
C361 C117 1.042 . S
C369 C249 1.049 . S
C393 N35 0.604 . S
C401 N2 0.742 . S
C425 N68 0.748 . S
C433 N101 0.658 . S
C457 N134 0.625 . S
C465 N167 0.714 . S
C489 N233 0.605 . S
C497 N200 0.725 . S
C521 C7 1.765 . S
C529 N178 1.852 . S
C553 N145 1.852 . S
C561 C40 1.765 . S
C585 N244 1.849 . S
C593 C73 1.772 . S
C617 N211 1.841 . S
C625 C106 1.765 . S
C649 N46 1.852 . S
C657 C139 1.760 . S
C681 C172 1.765 . S
C689 N13 1.846 . S
C713 C205 1.756 . S
C721 N112 1.845 . S
C745 N79 1.852 . S
C753 C238 1.760 . S
C777 C87 1.445 . S
C785 C21 1.472 . S
C809 C54 1.445 . S
C817 C120 1.470 . S
C841 C219 1.468 . S
C849 C153 1.461 . S
C873 C252 1.450 . S
C881 C186 1.474 . S
