# Generated by pormake.
# Topology whv, (6)-cn, num edge types: 1
# Building blocks:
#     Node 0, Type 0, BuildingBlock: OJICUG_clean_sbu_0, # of connection points: 6
#     Node 1, Type 0, BuildingBlock: OJICUG_clean_sbu_0, # of connection points: 6
#     Node 2, Type 0, BuildingBlock: OJICUG_clean_sbu_0, # of connection points: 6
#     Node 3, Type 0, BuildingBlock: OJICUG_clean_sbu_0, # of connection points: 6
#     Node 4, Type 0, BuildingBlock: OJICUG_clean_sbu_0, # of connection points: 6
#     Node 5, Type 0, BuildingBlock: OJICUG_clean_sbu_0, # of connection points: 6
#     Node 6, Type 0, BuildingBlock: OJICUG_clean_sbu_0, # of connection points: 6
#     Node 7, Type 0, BuildingBlock: OJICUG_clean_sbu_0, # of connection points: 6
#     Node 8, Type 0, BuildingBlock: OJICUG_clean_sbu_0, # of connection points: 6
#     Node 9, Type 0, BuildingBlock: OJICUG_clean_sbu_0, # of connection points: 6
#     Node 10, Type 0, BuildingBlock: OJICUG_clean_sbu_0, # of connection points: 6
#     Node 11, Type 0, BuildingBlock: OJICUG_clean_sbu_0, # of connection points: 6
#     Node 12, Type 0, BuildingBlock: OJICUG_clean_sbu_0, # of connection points: 6
#     Node 13, Type 0, BuildingBlock: OJICUG_clean_sbu_0, # of connection points: 6
#     Node 14, Type 0, BuildingBlock: OJICUG_clean_sbu_0, # of connection points: 6
#     Node 15, Type 0, BuildingBlock: OJICUG_clean_sbu_0, # of connection points: 6
#     Edge 16, Type (0, 0), BuildingBlock: XUDNAN_clean_linker_2, # of connection points: 2
#     Edge 17, Type (0, 0), BuildingBlock: XUDNAN_clean_linker_2, # of connection points: 2
#     Edge 18, Type (0, 0), BuildingBlock: XUDNAN_clean_linker_2, # of connection points: 2
#     Edge 19, Type (0, 0), BuildingBlock: XUDNAN_clean_linker_2, # of connection points: 2
#     Edge 20, Type (0, 0), BuildingBlock: XUDNAN_clean_linker_2, # of connection points: 2
#     Edge 21, Type (0, 0), BuildingBlock: XUDNAN_clean_linker_2, # of connection points: 2
#     Edge 22, Type (0, 0), BuildingBlock: XUDNAN_clean_linker_2, # of connection points: 2
#     Edge 23, Type (0, 0), BuildingBlock: XUDNAN_clean_linker_2, # of connection points: 2
#     Edge 24, Type (0, 0), BuildingBlock: XUDNAN_clean_linker_2, # of connection points: 2
#     Edge 25, Type (0, 0), BuildingBlock: XUDNAN_clean_linker_2, # of connection points: 2
#     Edge 26, Type (0, 0), BuildingBlock: XUDNAN_clean_linker_2, # of connection points: 2
#     Edge 27, Type (0, 0), BuildingBlock: XUDNAN_clean_linker_2, # of connection points: 2
#     Edge 28, Type (0, 0), BuildingBlock: XUDNAN_clean_linker_2, # of connection points: 2
#     Edge 29, Type (0, 0), BuildingBlock: XUDNAN_clean_linker_2, # of connection points: 2
#     Edge 30, Type (0, 0), BuildingBlock: XUDNAN_clean_linker_2, # of connection points: 2
#     Edge 31, Type (0, 0), BuildingBlock: XUDNAN_clean_linker_2, # of connection points: 2
#     Edge 32, Type (0, 0), BuildingBlock: XUDNAN_clean_linker_2, # of connection points: 2
#     Edge 33, Type (0, 0), BuildingBlock: XUDNAN_clean_linker_2, # of connection points: 2
#     Edge 34, Type (0, 0), BuildingBlock: XUDNAN_clean_linker_2, # of connection points: 2
#     Edge 35, Type (0, 0), BuildingBlock: XUDNAN_clean_linker_2, # of connection points: 2
#     Edge 36, Type (0, 0), BuildingBlock: XUDNAN_clean_linker_2, # of connection points: 2
#     Edge 37, Type (0, 0), BuildingBlock: XUDNAN_clean_linker_2, # of connection points: 2
#     Edge 38, Type (0, 0), BuildingBlock: XUDNAN_clean_linker_2, # of connection points: 2
#     Edge 39, Type (0, 0), BuildingBlock: XUDNAN_clean_linker_2, # of connection points: 2
#     Edge 40, Type (0, 0), BuildingBlock: XUDNAN_clean_linker_2, # of connection points: 2
#     Edge 41, Type (0, 0), BuildingBlock: XUDNAN_clean_linker_2, # of connection points: 2
#     Edge 42, Type (0, 0), BuildingBlock: XUDNAN_clean_linker_2, # of connection points: 2
#     Edge 43, Type (0, 0), BuildingBlock: XUDNAN_clean_linker_2, # of connection points: 2
#     Edge 44, Type (0, 0), BuildingBlock: XUDNAN_clean_linker_2, # of connection points: 2
#     Edge 45, Type (0, 0), BuildingBlock: XUDNAN_clean_linker_2, # of connection points: 2
#     Edge 46, Type (0, 0), BuildingBlock: XUDNAN_clean_linker_2, # of connection points: 2
#     Edge 47, Type (0, 0), BuildingBlock: XUDNAN_clean_linker_2, # of connection points: 2
#     Edge 48, Type (0, 0), BuildingBlock: XUDNAN_clean_linker_2, # of connection points: 2
#     Edge 49, Type (0, 0), BuildingBlock: XUDNAN_clean_linker_2, # of connection points: 2
#     Edge 50, Type (0, 0), BuildingBlock: XUDNAN_clean_linker_2, # of connection points: 2
#     Edge 51, Type (0, 0), BuildingBlock: XUDNAN_clean_linker_2, # of connection points: 2
#     Edge 52, Type (0, 0), BuildingBlock: XUDNAN_clean_linker_2, # of connection points: 2
#     Edge 53, Type (0, 0), BuildingBlock: XUDNAN_clean_linker_2, # of connection points: 2
#     Edge 54, Type (0, 0), BuildingBlock: XUDNAN_clean_linker_2, # of connection points: 2
#     Edge 55, Type (0, 0), BuildingBlock: XUDNAN_clean_linker_2, # of connection points: 2
#     Edge 56, Type (0, 0), BuildingBlock: XUDNAN_clean_linker_2, # of connection points: 2
#     Edge 57, Type (0, 0), BuildingBlock: XUDNAN_clean_linker_2, # of connection points: 2
#     Edge 58, Type (0, 0), BuildingBlock: XUDNAN_clean_linker_2, # of connection points: 2
#     Edge 59, Type (0, 0), BuildingBlock: XUDNAN_clean_linker_2, # of connection points: 2
#     Edge 60, Type (0, 0), BuildingBlock: XUDNAN_clean_linker_2, # of connection points: 2
#     Edge 61, Type (0, 0), BuildingBlock: XUDNAN_clean_linker_2, # of connection points: 2
#     Edge 62, Type (0, 0), BuildingBlock: XUDNAN_clean_linker_2, # of connection points: 2
#     Edge 63, Type (0, 0), BuildingBlock: XUDNAN_clean_linker_2, # of connection points: 2
# Relax obj value: 0.290
# Max RMSD: 0.262
# Mean RMSD: 0.262
data_MOF--net-whv--node1-OJICUG_clean_sbu_0--edge1-XUDNAN_clean_linker_2
_symmetry_space_group_name_H-M    P1
_symmetry_Int_Tables_number       1
_symmetry_cell_setting            triclinic
loop_
_symmetry_equiv_pos_as_xyz
'x, y, z'
_cell_length_a     51.449169
_cell_length_b     51.402151
_cell_length_c     26.904958
_cell_angle_alpha  89.948644
_cell_angle_beta   90.018495
_cell_angle_gamma 89.96695
loop_
_atom_site_label
_atom_site_type_symbol
_atom_site_fract_x
_atom_site_fract_y
_atom_site_fract_z
_atom_type_partial_charge
Sc0 Sc 0.2927 0.2176 0.00828 0.0
Sc1 Sc 0.30837 0.15342 0.98942 0.0
Sc2 Sc 0.34414 0.18984 0.0711 0.0
O3 O 0.31505 0.18712 0.02309 0.0
C4 C 0.35025 0.24144 0.0135 0.0
C5 C 0.29283 0.19498 0.90528 0.0
C6 C 0.36705 0.15308 0.98463 0.0
C7 C 0.2528 0.16913 0.01133 0.0
C8 C 0.29999 0.22535 0.12074 0.0
C9 C 0.32644 0.13588 0.0984 0.0
O10 O 0.32558 0.24469 0.01223 0.0
O11 O 0.29186 0.17183 0.92256 0.0
O12 O 0.36786 0.16213 0.02892 0.0
O13 O 0.25784 0.19287 0.00021 0.0
O14 O 0.32352 0.21755 0.11808 0.0
O15 O 0.32346 0.13081 0.05229 0.0
O16 O 0.28397 0.22281 0.08518 0.0
O17 O 0.27061 0.15284 0.02147 0.0
O18 O 0.32793 0.15901 0.11433 0.0
O19 O 0.30108 0.21367 0.93142 0.0
O20 O 0.36075 0.22056 0.02877 0.0
O21 O 0.34656 0.15405 0.95819 0.0
Sc22 Sc 0.54251 0.58134 0.29949 0.0
Sc23 Sc 0.59552 0.55762 0.23362 0.0
Sc24 Sc 0.54217 0.51847 0.24791 0.0
O25 O 0.5603 0.55235 0.26296 0.0
C26 C 0.51994 0.53206 0.35501 0.0
C27 C 0.60134 0.58091 0.3413 0.0
C28 C 0.59668 0.49756 0.26685 0.0
C29 C 0.57436 0.61516 0.22256 0.0
C30 C 0.49921 0.56075 0.22383 0.0
C31 C 0.56517 0.53138 0.14835 0.0
O32 O 0.52982 0.55477 0.35773 0.0
O33 O 0.6111 0.5667 0.30678 0.0
O34 O 0.5731 0.49603 0.28123 0.0
O35 O 0.5529 0.61159 0.24518 0.0
O36 O 0.51118 0.53991 0.21159 0.0
O37 O 0.57764 0.55179 0.16034 0.0
O38 O 0.50684 0.5757 0.25876 0.0
O39 O 0.59159 0.59776 0.22034 0.0
O40 O 0.56273 0.51339 0.17969 0.0
O41 O 0.57768 0.5886 0.34127 0.0
O42 O 0.52091 0.5184 0.31585 0.0
O43 O 0.60553 0.51728 0.24378 0.0
Sc44 Sc 0.16083 0.80963 0.56064 0.0
Sc45 Sc 0.1976 0.84958 0.48427 0.0
Sc46 Sc 0.21101 0.78474 0.4899 0.0
O47 O 0.19011 0.81471 0.51327 0.0
C48 C 0.20662 0.77247 0.60206 0.0
C49 C 0.17941 0.86274 0.59572 0.0
C50 C 0.25257 0.83133 0.50134 0.0
C51 C 0.13814 0.84904 0.47843 0.0
C52 C 0.15448 0.7615 0.49134 0.0
C53 C 0.20953 0.81189 0.3926 0.0
O54 O 0.18335 0.78133 0.60462 0.0
O55 O 0.1839 0.86973 0.55098 0.0
O56 O 0.24621 0.80894 0.48442 0.0
O57 O 0.13659 0.8382 0.52122 0.0
O58 O 0.17889 0.75776 0.49028 0.0
O59 O 0.21323 0.83383 0.41377 0.0
O60 O 0.14414 0.78066 0.51333 0.0
O61 O 0.15924 0.85083 0.45404 0.0
O62 O 0.19951 0.79335 0.41632 0.0
O63 O 0.17555 0.83926 0.60806 0.0
O64 O 0.22091 0.77499 0.56385 0.0
O65 O 0.23578 0.84797 0.51493 0.0
Sc66 Sc 0.96046 0.47188 0.76704 0.0
Sc67 Sc 0.90299 0.44152 0.73026 0.0
Sc68 Sc 0.94732 0.40922 0.8069 0.0
O69 O 0.93665 0.44101 0.7685 0.0
C70 C 0.99914 0.42408 0.75513 0.0
C71 C 0.94276 0.47055 0.65686 0.0
C72 C 0.91989 0.38448 0.71089 0.0
C73 C 0.90361 0.49855 0.76596 0.0
C74 C 0.96844 0.45562 0.87627 0.0
C75 C 0.8887 0.41114 0.83204 0.0
O76 O 0.99539 0.44827 0.76262 0.0
O77 O 0.91967 0.4632 0.66737 0.0
O78 O 0.93048 0.38242 0.75351 0.0
O79 O 0.9284 0.49959 0.76595 0.0
O80 O 0.96624 0.43164 0.86501 0.0
O81 O 0.8828 0.41974 0.7888 0.0
O82 O 0.9623 0.47374 0.84635 0.0
O83 O 0.89113 0.4773 0.76353 0.0
O84 O 0.91192 0.41012 0.84807 0.0
O85 O 0.96089 0.47134 0.68856 0.0
O86 O 0.98251 0.4068 0.76594 0.0
O87 O 0.91199 0.40597 0.69326 0.0
Sc88 Sc 0.71748 0.77488 0.03653 0.0
Sc89 Sc 0.70357 0.83985 0.04397 0.0
Sc90 Sc 0.66854 0.80041 0.9617 0.0
O91 O 0.69653 0.80513 0.01268 0.0
C92 C 0.71774 0.76765 0.92056 0.0
C93 C 0.75905 0.82211 0.0308 0.0
C94 C 0.68594 0.85671 0.93393 0.0
C95 C 0.7127 0.80084 0.13523 0.0
C96 C 0.66186 0.74838 0.02291 0.0
C97 C 0.64312 0.83557 0.04834 0.0
O98 O 0.7291 0.76656 0.96254 0.0
O99 O 0.74215 0.83844 0.01658 0.0
O100 O 0.67968 0.83402 0.92006 0.0
O101 O 0.70422 0.78219 0.1097 0.0
O102 O 0.65257 0.76718 0.99835 0.0
O103 O 0.66444 0.8415 0.06967 0.0
O104 O 0.6859 0.74689 0.0336 0.0
O105 O 0.71719 0.82291 0.11517 0.0
O106 O 0.6416 0.82298 0.00732 0.0
O107 O 0.75273 0.79933 0.04612 0.0
O108 O 0.69497 0.77745 0.91455 0.0
O109 O 0.69273 0.86197 0.97829 0.0
Sc110 Sc 0.45802 0.48536 0.78793 0.0
Sc111 Sc 0.40443 0.44928 0.83185 0.0
Sc112 Sc 0.45206 0.41879 0.75863 0.0
O113 O 0.43803 0.45119 0.79258 0.0
C114 C 0.46639 0.46275 0.67924 0.0
C115 C 0.3999 0.50538 0.78089 0.0
C116 C 0.39146 0.41496 0.73549 0.0
C117 C 0.43876 0.48655 0.90003 0.0
C118 C 0.50258 0.44306 0.80817 0.0
C119 C 0.42825 0.39369 0.85699 0.0
O120 O 0.46667 0.4811 0.71063 0.0
O121 O 0.39122 0.48572 0.80398 0.0
O122 O 0.4152 0.40974 0.72753 0.0
O123 O 0.45184 0.49469 0.86347 0.0
O124 O 0.49005 0.42467 0.78788 0.0
O125 O 0.41307 0.41263 0.86482 0.0
O126 O 0.49379 0.46621 0.8112 0.0
O127 O 0.422 0.46831 0.89673 0.0
O128 O 0.44439 0.39333 0.8212 0.0
O129 O 0.42373 0.50792 0.76872 0.0
O130 O 0.46099 0.43941 0.69087 0.0
O131 O 0.38397 0.42971 0.77099 0.0
Sc132 Sc 0.83488 0.18415 0.48412 0.0
Sc133 Sc 0.78905 0.15231 0.55622 0.0
Sc134 Sc 0.78275 0.21794 0.53337 0.0
O135 O 0.80254 0.18476 0.52451 0.0
C136 C 0.84129 0.23779 0.53599 0.0
C137 C 0.84798 0.14753 0.57877 0.0
C138 C 0.7762 0.19711 0.63657 0.0
C139 C 0.81186 0.13057 0.45381 0.0
C140 C 0.79487 0.21935 0.42067 0.0
C141 C 0.73764 0.17477 0.52888 0.0
O142 O 0.85088 0.21586 0.5249 0.0
O143 O 0.82473 0.14676 0.59491 0.0
O144 O 0.78767 0.21454 0.61151 0.0
O145 O 0.82126 0.1523 0.44078 0.0
O146 O 0.77811 0.22146 0.45514 0.0
O147 O 0.7536 0.15714 0.51668 0.0
O148 O 0.81752 0.20957 0.42764 0.0
O149 O 0.80258 0.12659 0.49708 0.0
O150 O 0.74538 0.19771 0.53936 0.0
O151 O 0.85423 0.15821 0.53739 0.0
O152 O 0.81708 0.2426 0.53217 0.0
O153 O 0.77277 0.17414 0.61945 0.0
Sc154 Sc 0.05797 0.59215 0.21497 0.0
Sc155 Sc 0.08328 0.57983 0.33123 0.0
Sc156 Sc 0.03693 0.53842 0.2825 0.0
O157 O 0.05959 0.56961 0.27579 0.0
C158 C -0.00053 0.58377 0.24192 0.0
C159 C 0.06394 0.6334 0.30333 0.0
C160 C 0.03552 0.55663 0.39217 0.0
C161 C 0.11527 0.59646 0.23251 0.0
C162 C 0.04776 0.5356 0.16895 0.0
C163 C 0.09311 0.52039 0.32594 0.0
O164 O 0.01791 0.59843 0.22786 0.0
O165 O 0.06352 0.61612 0.33704 0.0
O166 O 0.0235 0.54967 0.3536 0.0
O167 O 0.09872 0.58691 0.20264 0.0
O168 O 0.04745 0.52425 0.21075 0.0
O169 O 0.10256 0.54329 0.32645 0.0
O170 O 0.04914 0.56024 0.16473 0.0
O171 O 0.11106 0.59753 0.27932 0.0
O172 O 0.06933 0.51564 0.31444 0.0
O173 O 0.06594 0.6275 0.25738 0.0
O174 O 0.00295 0.56002 0.25501 0.0
O175 O 0.05893 0.56457 0.39134 0.0
Sc176 Sc 0.77806 0.71077 0.49363 0.0
Sc177 Sc 0.80672 0.65115 0.46549 0.0
Sc178 Sc 0.84247 0.69762 0.52947 0.0
O179 O 0.80892 0.68642 0.49734 0.0
C180 C 0.82627 0.74791 0.46848 0.0
C181 C 0.78128 0.68759 0.38544 0.0
C182 C 0.86543 0.66417 0.44231 0.0
C183 C 0.74798 0.65882 0.50348 0.0
C184 C 0.80001 0.7213 0.60266 0.0
C185 C 0.83353 0.63902 0.56795 0.0
O186 O 0.80265 0.74109 0.46245 0.0
O187 O 0.79854 0.67035 0.39463 0.0
O188 O 0.86599 0.68533 0.46664 0.0
O189 O 0.75057 0.68188 0.5201 0.0
O190 O 0.82218 0.71112 0.5947 0.0
O191 O 0.81626 0.63246 0.53601 0.0
O192 O 0.783 0.72406 0.56881 0.0
O193 O 0.76616 0.64725 0.48063 0.0
O194 O 0.84584 0.66052 0.5659 0.0
O195 O 0.76907 0.6997 0.41917 0.0
O196 O 0.84202 0.73548 0.49601 0.0
O197 O 0.84648 0.64862 0.44431 0.0
Sc198 Sc 0.05571 0.09505 0.78802 0.0
Sc199 Sc 0.09923 0.05349 0.72815 0.0
Sc200 Sc 0.04011 0.03061 0.76738 0.0
O201 O 0.06526 0.06004 0.76125 0.0
C202 C 0.03724 0.05346 0.8717 0.0
C203 C 0.1142 0.09122 0.81939 0.0
C204 C 0.09418 0.00022 0.77435 0.0
C205 C 0.08543 0.10877 0.68592 0.0
C206 C 0.00218 0.07797 0.74859 0.0
C207 C 0.05663 0.02494 0.65926 0.0
O208 O 0.03745 0.07672 0.85398 0.0
O209 O 0.12043 0.07694 0.78241 0.0
O210 O 0.06982 0.0002 0.76614 0.0
O211 O 0.07324 0.11593 0.72505 0.0
O212 O 0.00579 0.05536 0.76658 0.0
O213 O 0.08055 0.02888 0.67061 0.0
O214 O 0.02018 0.09474 0.74676 0.0
O215 O 0.09399 0.08583 0.67999 0.0
O216 O 0.03804 0.02872 0.68931 0.0
O217 O 0.09103 0.09792 0.82923 0.0
O218 O 0.04257 0.03358 0.84556 0.0
O219 O 0.10689 0.0212 0.77551 0.0
Sc220 Sc 0.65924 0.30796 0.07621 0.0
Sc221 Sc 0.6878 0.33867 0.97635 0.0
Sc222 Sc 0.70009 0.2744 0.99754 0.0
O223 O 0.68264 0.307 0.01757 0.0
C224 C 0.70745 0.27243 0.11157 0.0
C225 C 0.68183 0.36164 0.0869 0.0
C226 C 0.74311 0.31899 0.9807 0.0
C227 C 0.62975 0.34211 0.99295 0.0
C228 C 0.64371 0.25506 0.02916 0.0
C229 C 0.6881 0.29381 0.89474 0.0
O230 O 0.68469 0.28175 0.11949 0.0
O231 O 0.68087 0.36481 0.03981 0.0
O232 O 0.73496 0.29581 0.97272 0.0
O233 O 0.63259 0.33536 0.03855 0.0
O234 O 0.66741 0.24994 0.01916 0.0
O235 O 0.69526 0.31667 0.9073 0.0
O236 O 0.63648 0.27684 0.04644 0.0
O237 O 0.6474 0.33898 0.96053 0.0
O238 O 0.68217 0.27695 0.92686 0.0
O239 O 0.68091 0.33932 0.10661 0.0
O240 O 0.71731 0.27104 0.06846 0.0
O241 O 0.72812 0.33757 0.99275 0.0
Sc242 Sc 0.4754 0.96333 0.24957 0.0
Sc243 Sc 0.41258 0.94257 0.24114 0.0
Sc244 Sc 0.45537 0.91087 0.32066 0.0
O245 O 0.44779 0.93899 0.27183 0.0
C246 C 0.50636 0.91015 0.2565 0.0
C247 C 0.44926 0.95747 0.15077 0.0
C248 C 0.42234 0.88362 0.2326 0.0
C249 C 0.42397 0.99907 0.26056 0.0
C250 C 0.4851 0.96138 0.36395 0.0
C251 C 0.39878 0.92064 0.34957 0.0
O252 O 0.50636 0.93467 0.25012 0.0
O253 O 0.42719 0.96021 0.17165 0.0
O254 O 0.43361 0.88267 0.27518 0.0
O255 O 0.4471 0.99556 0.24407 0.0
O256 O 0.47791 0.93757 0.36787 0.0
O257 O 0.39278 0.92549 0.30459 0.0
O258 O 0.48325 0.97429 0.32381 0.0
O259 O 0.40943 0.98022 0.27307 0.0
O260 O 0.42209 0.92046 0.36463 0.0
O261 O 0.46898 0.951 0.17556 0.0
O262 O 0.48844 0.89844 0.27964 0.0
O263 O 0.41613 0.90473 0.21083 0.0
Sc264 Sc 0.21303 0.28 0.52758 0.0
Sc265 Sc 0.18386 0.33327 0.582 0.0
Sc266 Sc 0.16105 0.30932 0.46976 0.0
O267 O 0.18651 0.30808 0.52605 0.0
C268 C 0.21386 0.29271 0.41655 0.0
C269 C 0.24357 0.32953 0.5725 0.0
C270 C 0.17238 0.36706 0.48199 0.0
C271 C 0.19762 0.27981 0.63827 0.0
C272 C 0.16154 0.25106 0.49664 0.0
C273 C 0.12633 0.32812 0.56105 0.0
O274 O 0.22652 0.29181 0.45685 0.0
O275 O 0.22366 0.34407 0.57512 0.0
O276 O 0.17282 0.34788 0.45206 0.0
O277 O 0.20038 0.26714 0.59833 0.0
O278 O 0.14806 0.27153 0.49118 0.0
O279 O 0.14393 0.32319 0.5926 0.0
O280 O 0.18635 0.25126 0.49633 0.0
O281 O 0.19463 0.30451 0.6391 0.0
O282 O 0.13043 0.32655 0.51453 0.0
O283 O 0.24235 0.30553 0.56024 0.0
O284 O 0.18905 0.29378 0.41556 0.0
O285 O 0.17344 0.36455 0.52944 0.0
Sc286 Sc 0.95776 0.97496 0.28391 0.0
Sc287 Sc 0.91372 0.92728 0.31886 0.0
Sc288 Sc 0.95508 0.91684 0.21984 0.0
O289 O 0.9415 0.94032 0.27382 0.0
C290 C 0.96514 0.97261 0.1716 0.0
C291 C 0.89761 0.98631 0.30475 0.0
C292 C 0.89669 0.91335 0.20457 0.0
C293 C 0.95165 0.95603 0.39491 0.0
C294 C 0.00383 0.9336 0.27877 0.0
C295 C 0.93547 0.87472 0.29795 0.0
O296 O 0.95425 0.98412 0.20734 0.0
O297 O 0.8916 0.96275 0.31375 0.0
O298 O 0.91821 0.91985 0.18447 0.0
O299 O 0.9623 0.96948 0.3613 0.0
O300 O 0.99066 0.91475 0.26086 0.0
O301 O 0.935 0.89224 0.33046 0.0
O302 O 0.99628 0.95738 0.27672 0.0
O303 O 0.93298 0.9403 0.38681 0.0
O304 O 0.94017 0.88063 0.25297 0.0
O305 O 0.92057 0.99376 0.29404 0.0
O306 O 0.9709 0.94852 0.17402 0.0
O307 O 0.89323 0.91216 0.25205 0.0
Sc308 Sc 0.34094 0.6973 0.96566 0.0
Sc309 Sc 0.30662 0.6696 0.06197 0.0
Sc310 Sc 0.2936 0.73246 0.02436 0.0
O311 O 0.31343 0.69951 0.01714 0.0
C312 C 0.35108 0.75093 0.01141 0.0
C313 C 0.36538 0.66324 0.05386 0.0
C314 C 0.30252 0.71974 0.13366 0.0
C315 C 0.31693 0.64391 0.95399 0.0
C316 C 0.29567 0.72805 0.91129 0.0
C317 C 0.25087 0.68859 0.05003 0.0
O318 O 0.36046 0.72873 0.00119 0.0
O319 O 0.34675 0.66767 0.08366 0.0
O320 O 0.30668 0.73554 0.09845 0.0
O321 O 0.32134 0.66551 0.9328 0.0
O322 O 0.28088 0.72967 0.94895 0.0
O323 O 0.26646 0.66994 0.04185 0.0
O324 O 0.31986 0.72279 0.91505 0.0
O325 O 0.31428 0.64166 0.00124 0.0
O326 O 0.25835 0.71232 0.04959 0.0
O327 O 0.36466 0.67018 0.00839 0.0
O328 O 0.32712 0.75617 0.00398 0.0
O329 O 0.29836 0.69542 0.12623 0.0
Sc330 Sc 0.54419 0.08372 0.76165 0.0
Sc331 Sc 0.59622 0.05999 0.82964 0.0
Sc332 Sc 0.54815 0.01721 0.79221 0.0
O333 O 0.56314 0.05356 0.79282 0.0
C334 C 0.49874 0.05219 0.814 0.0
C335 C 0.56602 0.11217 0.85544 0.0
C336 C 0.56477 0.02445 0.90213 0.0
C337 C 0.60426 0.09418 0.73525 0.0
C338 C 0.53473 0.03872 0.68387 0.0
C339 C 0.60621 0.00302 0.78385 0.0
O340 O 0.5067 0.07073 0.78666 0.0
O341 O 0.58606 0.09794 0.85393 0.0
O342 O 0.56093 0.00877 0.86655 0.0
O343 O 0.5801 0.09968 0.73435 0.0
O344 O 0.53432 0.02102 0.71695 0.0
O345 O 0.61182 0.02236 0.81125 0.0
O346 O 0.54031 0.06233 0.69334 0.0
O347 O 0.61402 0.07676 0.76375 0.0
O348 O 0.5837 0.99992 0.765 0.0
O349 O 0.54644 0.10814 0.82762 0.0
O350 O 0.51223 0.03194 0.82298 0.0
O351 O 0.57687 0.0458 0.89601 0.0
H352 H 0.21544 0.18735 0.94676 0.0
H353 H 0.23246 0.12472 0.05009 0.0
H354 H 0.19683 0.09887 0.01449 0.0
H355 H 0.14163 0.17526 0.94467 0.0
H356 H 0.14009 0.18385 0.87976 0.0
H357 H 0.1635 0.19938 0.91983 0.0
H358 H 0.19977 0.18546 0.85981 0.0
H359 H 0.17711 0.16872 0.82033 0.0
H360 H 0.20451 0.15142 0.84602 0.0
H361 H 0.16623 0.07645 0.95747 0.0
H362 H 0.13596 0.06181 0.89152 0.0
H363 H 0.13657 0.13914 0.8274 0.0
C364 C 0.2108 0.16877 0.96358 0.0
C365 C 0.22676 0.15806 0.00124 0.0
C366 C 0.22051 0.13333 0.02127 0.0
C367 C 0.20034 0.11843 0.00119 0.0
C368 C 0.18617 0.12874 0.96178 0.0
C369 C 0.19044 0.15368 0.94424 0.0
C370 C 0.17335 0.15935 0.89949 0.0
C371 C 0.15346 0.18072 0.91168 0.0
C372 C 0.18968 0.16664 0.8537 0.0
C373 C 0.16019 0.13319 0.89287 0.0
C374 C 0.16777 0.11588 0.92944 0.0
C375 C 0.15968 0.08998 0.92928 0.0
C376 C 0.14283 0.08174 0.8915 0.0
C377 C 0.13432 0.09935 0.85465 0.0
C378 C 0.14302 0.12538 0.85532 0.0
H379 H 0.63361 0.3738 0.11617 0.0
H380 H 0.71409 0.39666 0.13305 0.0
H381 H 0.70091 0.42991 0.19537 0.0
H382 H 0.6068 0.43691 0.12099 0.0
H383 H 0.57803 0.42744 0.15465 0.0
H384 H 0.59406 0.40439 0.1151 0.0
H385 H 0.59849 0.37221 0.18828 0.0
H386 H 0.58247 0.39504 0.22884 0.0
H387 H 0.61411 0.38252 0.24492 0.0
H388 H 0.67829 0.4621 0.25128 0.0
H389 H 0.64821 0.49449 0.28709 0.0
H390 H 0.58249 0.44962 0.23478 0.0
C391 C 0.64836 0.38609 0.13264 0.0
C392 C 0.67473 0.38329 0.11953 0.0
C393 C 0.69374 0.39905 0.14233 0.0
C394 C 0.68643 0.41763 0.17805 0.0
C395 C 0.66014 0.41978 0.19061 0.0
C396 C 0.64139 0.4046 0.16809 0.0
C397 C 0.61433 0.41173 0.18544 0.0
C398 C 0.59734 0.42067 0.14144 0.0
C399 C 0.60161 0.38902 0.21355 0.0
C400 C 0.62059 0.43396 0.22022 0.0
C401 C 0.64716 0.43795 0.2235 0.0
C402 C 0.65752 0.45887 0.2497 0.0
C403 C 0.64031 0.47702 0.27037 0.0
C404 C 0.61309 0.47415 0.26459 0.0
C405 C 0.60316 0.45169 0.24143 0.0
H406 H 0.35975 0.88828 0.32356 0.0
H407 H 0.39388 0.92742 0.45039 0.0
H408 H 0.36201 0.90571 0.50598 0.0
H409 H 0.29395 0.89127 0.36366 0.0
H410 H 0.28643 0.8599 0.33797 0.0
H411 H 0.31175 0.87908 0.3108 0.0
H412 H 0.34332 0.8402 0.3226 0.0
H413 H 0.31825 0.82121 0.35203 0.0
H414 H 0.34849 0.82703 0.38396 0.0
H415 H 0.32396 0.88174 0.54587 0.0
H416 H 0.28394 0.85711 0.56673 0.0
H417 H 0.27881 0.83025 0.41461 0.0
C418 C 0.36031 0.89254 0.36299 0.0
C419 C 0.37878 0.90989 0.38277 0.0
C420 C 0.37952 0.91441 0.43464 0.0
C421 C 0.36166 0.90206 0.46639 0.0
C422 C 0.34381 0.88475 0.44561 0.0
C423 C 0.34327 0.87986 0.39513 0.0
C424 C 0.32225 0.86067 0.38162 0.0
C425 C 0.30242 0.87351 0.3465 0.0
C426 C 0.33378 0.83581 0.3587 0.0
C427 C 0.31081 0.85546 0.43241 0.0
C428 C 0.32332 0.8697 0.4689 0.0
C429 C 0.31445 0.87001 0.51789 0.0
C430 C 0.29188 0.85588 0.52952 0.0
C431 C 0.27897 0.8412 0.49257 0.0
C432 C 0.28895 0.84053 0.44384 0.0
H433 H 0.82538 0.58586 0.57722 0.0
H434 H 0.85759 0.65279 0.654 0.0
H435 H 0.87391 0.62435 0.72026 0.0
H436 H 0.8074 0.54848 0.69195 0.0
H437 H 0.8166 0.51787 0.66443 0.0
H438 H 0.80427 0.54378 0.62582 0.0
H439 H 0.84569 0.54129 0.57119 0.0
H440 H 0.85814 0.51546 0.60952 0.0
H441 H 0.87716 0.54447 0.60004 0.0
H442 H 0.89323 0.58863 0.77057 0.0
H443 H 0.91191 0.54757 0.80325 0.0
H444 H 0.86487 0.5039 0.69896 0.0
C445 C 0.83525 0.59456 0.60863 0.0
C446 C 0.84026 0.62157 0.61006 0.0
C447 C 0.85366 0.63213 0.65157 0.0
C448 C 0.86292 0.61616 0.68976 0.0
C449 C 0.85839 0.58958 0.68659 0.0
C450 C 0.84462 0.57882 0.64745 0.0
C451 C 0.8443 0.54941 0.65123 0.0
C452 C 0.81648 0.5393 0.65882 0.0
C453 C 0.85709 0.53694 0.60529 0.0
C454 C 0.86067 0.54545 0.69754 0.0
C455 C 0.86858 0.56887 0.71749 0.0
C456 C 0.88651 0.57012 0.75642 0.0
C457 C 0.89701 0.54678 0.77484 0.0
C458 C 0.88914 0.52264 0.75485 0.0
C459 C 0.87031 0.52205 0.71654 0.0
H460 H 0.79311 0.81022 0.10645 0.0
H461 H 0.78353 0.85946 0.97685 0.0
H462 H 0.81968 0.88716 0.00528 0.0
H463 H 0.80093 0.85897 0.19099 0.0
H464 H 0.82584 0.8441 0.22883 0.0
H465 H 0.80371 0.82411 0.19455 0.0
H466 H 0.84123 0.80064 0.15183 0.0
H467 H 0.86492 0.8204 0.1836 0.0
H468 H 0.86492 0.81896 0.11698 0.0
H469 H 0.85252 0.91306 0.05326 0.0
H470 H 0.88222 0.93312 0.11473 0.0
H471 H 0.867 0.86983 0.21713 0.0
C472 C 0.79909 0.8264 0.08348 0.0
C473 C 0.78537 0.83279 0.03964 0.0
C474 C 0.79386 0.85414 0.01046 0.0
C475 C 0.81427 0.8701 0.02647 0.0
C476 C 0.82602 0.86451 0.07183 0.0
C477 C 0.81903 0.84298 0.09966 0.0
C478 C 0.83349 0.84252 0.14878 0.0
C479 C 0.81485 0.84247 0.1934 0.0
C480 C 0.85222 0.81923 0.15043 0.0
C481 C 0.84821 0.86795 0.14562 0.0
C482 C 0.84424 0.87998 0.10034 0.0
C483 C 0.85585 0.90372 0.08876 0.0
C484 C 0.87242 0.91511 0.12402 0.0
C485 C 0.87653 0.90317 0.17081 0.0
C486 C 0.86393 0.8795 0.18189 0.0
H487 H 0.4129 0.55519 0.80181 0.0
H488 H 0.34753 0.50559 0.76605 0.0
H489 H 0.31752 0.53781 0.80249 0.0
H490 H 0.39387 0.57001 0.91559 0.0
H491 H 0.40437 0.60343 0.91716 0.0
H492 H 0.42022 0.58076 0.87647 0.0
H493 H 0.41019 0.60977 0.79996 0.0
H494 H 0.39522 0.63318 0.84076 0.0
H495 H 0.3773 0.62037 0.78867 0.0
H496 H 0.296 0.57042 0.8598 0.0
H497 H 0.28424 0.60523 0.92021 0.0
H498 H 0.36391 0.63232 0.91872 0.0
C499 C 0.39217 0.55195 0.7986 0.0
C500 C 0.38248 0.52813 0.78056 0.0
C501 C 0.35525 0.52397 0.77906 0.0
C502 C 0.33808 0.54204 0.80015 0.0
C503 C 0.34847 0.56426 0.82201 0.0
C504 C 0.37485 0.56967 0.82002 0.0
C505 C 0.38155 0.59321 0.85111 0.0
C506 C 0.40114 0.58641 0.8925 0.0
C507 C 0.39165 0.61545 0.81815 0.0
C508 C 0.35513 0.59949 0.87242 0.0
C509 C 0.33618 0.58276 0.85523 0.0
C510 C 0.31059 0.58399 0.87271 0.0
C511 C 0.30411 0.60344 0.90741 0.0
C512 C 0.32329 0.62104 0.924 0.0
C513 C 0.349 0.61887 0.90652 0.0
H514 H 0.64979 0.07973 0.68844 0.0
H515 H 0.59649 0.14437 0.70835 0.0
H516 H 0.62266 0.17112 0.65129 0.0
H517 H 0.70819 0.11786 0.68218 0.0
H518 H 0.72303 0.09776 0.63523 0.0
H519 H 0.69992 0.08385 0.67783 0.0
H520 H 0.67244 0.06774 0.60302 0.0
H521 H 0.69528 0.0821 0.5603 0.0
H522 H 0.66138 0.09084 0.55719 0.0
H523 H 0.65592 0.19184 0.59619 0.0
H524 H 0.69454 0.20483 0.54728 0.0
H525 H 0.72403 0.12585 0.5579 0.0
C526 C 0.64376 0.09953 0.68087 0.0
C527 C 0.62114 0.10996 0.70272 0.0
C528 C 0.6137 0.13591 0.69167 0.0
C529 C 0.62839 0.15129 0.65928 0.0
C530 C 0.65032 0.14035 0.63761 0.0
C531 C 0.65799 0.11508 0.6478 0.0
C532 C 0.68251 0.1082 0.61973 0.0
C533 C 0.70472 0.10154 0.6559 0.0
C534 C 0.67759 0.0859 0.58287 0.0
C535 C 0.68751 0.13362 0.59284 0.0
C536 C 0.66878 0.15197 0.60373 0.0
C537 C 0.6705 0.17753 0.58655 0.0
C538 C 0.69239 0.18471 0.5586 0.0
C539 C 0.71204 0.1663 0.5478 0.0
C540 C 0.70903 0.14027 0.56407 0.0
H541 H 0.12851 0.37908 0.43197 0.0
H542 H 0.20083 0.41203 0.48514 0.0
H543 H 0.18933 0.45429 0.44583 0.0
H544 H 0.12433 0.41242 0.31523 0.0
H545 H 0.08975 0.41769 0.31888 0.0
H546 H 0.10415 0.38996 0.34926 0.0
H547 H 0.084 0.40422 0.43328 0.0
H548 H 0.06928 0.43182 0.40305 0.0
H549 H 0.09006 0.43659 0.4562 0.0
H550 H 0.17043 0.49193 0.39855 0.0
H551 H 0.14356 0.52477 0.35683 0.0
H552 H 0.08147 0.46814 0.33952 0.0
C553 C 0.1419 0.39526 0.4351 0.0
C554 C 0.16568 0.39252 0.46081 0.0
C555 C 0.18262 0.41397 0.46527 0.0
C556 C 0.17626 0.43787 0.44293 0.0
C557 C 0.15271 0.4399 0.41733 0.0
C558 C 0.13556 0.41932 0.41417 0.0
C559 C 0.1108 0.42704 0.38729 0.0
C560 C 0.10705 0.41081 0.33985 0.0
C561 C 0.08714 0.42479 0.42202 0.0
C562 C 0.11681 0.45516 0.37504 0.0
C563 C 0.1412 0.46202 0.39226 0.0
C564 C 0.15124 0.48683 0.38524 0.0
C565 C 0.13574 0.50535 0.36122 0.0
C566 C 0.11019 0.4992 0.34485 0.0
C567 C 0.10086 0.47354 0.35132 0.0
H568 H 0.65189 0.56702 0.36307 0.0
H569 H 0.58953 0.6184 0.40996 0.0
H570 H 0.61904 0.63958 0.46922 0.0
H571 H 0.684 0.56208 0.48899 0.0
H572 H 0.71591 0.56183 0.46138 0.0
H573 H 0.68879 0.54782 0.42848 0.0
H574 H 0.69833 0.57766 0.35286 0.0
H575 H 0.72543 0.59158 0.38537 0.0
H576 H 0.70002 0.61238 0.36185 0.0
H577 H 0.6572 0.66065 0.5116 0.0
H578 H 0.70039 0.67827 0.5342 0.0
H579 H 0.73677 0.61104 0.46562 0.0
C580 C 0.64424 0.58224 0.38671 0.0
C581 C 0.61836 0.59095 0.38158 0.0
C582 C 0.60924 0.61117 0.41308 0.0
C583 C 0.62585 0.62336 0.44714 0.0
C584 C 0.65145 0.61482 0.45027 0.0
C585 C 0.66049 0.59441 0.42148 0.0
C586 C 0.68934 0.59041 0.42884 0.0
C587 C 0.69482 0.56396 0.4534 0.0
C588 C 0.70413 0.5932 0.37931 0.0
C589 C 0.69533 0.61262 0.46398 0.0
C590 C 0.67324 0.62637 0.47648 0.0
C591 C 0.67458 0.64963 0.50328 0.0
C592 C 0.6992 0.6595 0.5161 0.0
C593 C 0.72208 0.64608 0.50202 0.0
C594 C 0.71979 0.62176 0.47766 0.0
H595 H 0.1306 0.87688 0.61747 0.0
H596 H 0.21094 0.89244 0.65487 0.0
H597 H 0.19657 0.92486 0.71774 0.0
H598 H 0.10889 0.94125 0.62199 0.0
H599 H 0.07744 0.93309 0.64726 0.0
H600 H 0.09477 0.90975 0.61037 0.0
H601 H 0.09085 0.87676 0.68319 0.0
H602 H 0.07432 0.9007 0.72057 0.0
H603 H 0.1034 0.88527 0.7436 0.0
H604 H 0.17338 0.95735 0.77142 0.0
H605 H 0.14432 0.99159 0.80333 0.0
H606 H 0.07893 0.95499 0.72932 0.0
C607 C 0.14506 0.88703 0.63938 0.0
C608 C 0.17176 0.88246 0.63195 0.0
C609 C 0.19039 0.89597 0.66043 0.0
C610 C 0.18237 0.91411 0.69636 0.0
C611 C 0.15573 0.91818 0.70308 0.0
C612 C 0.13739 0.90516 0.67501 0.0
C613 C 0.11016 0.91468 0.68591 0.0
C614 C 0.09708 0.92535 0.63858 0.0
C615 C 0.09372 0.89306 0.70974 0.0
C616 C 0.11606 0.93602 0.72294 0.0
C617 C 0.14237 0.9372 0.73343 0.0
C618 C 0.15274 0.95644 0.76392 0.0
C619 C 0.13604 0.97577 0.78201 0.0
C620 C 0.10933 0.97593 0.76894 0.0
C621 C 0.09909 0.95511 0.74089 0.0
H622 H 0.8438 0.38714 0.80146 0.0
H623 H 0.88864 0.40655 0.93298 0.0
H624 H 0.85827 0.38109 0.98468 0.0
H625 H 0.78034 0.38953 0.85906 0.0
H626 H 0.76806 0.36235 0.82386 0.0
H627 H 0.79307 0.38273 0.798 0.0
H628 H 0.82213 0.34197 0.78491 0.0
H629 H 0.79709 0.32181 0.81127 0.0
H630 H 0.82939 0.32121 0.83717 0.0
H631 H 0.82264 0.35463 0.0224 0.0
H632 H 0.78219 0.33108 0.044 0.0
H633 H 0.76198 0.3266 0.88807 0.0
C634 C 0.84694 0.38642 0.84125 0.0
C635 C 0.86845 0.399 0.86331 0.0
C636 C 0.87222 0.39713 0.91537 0.0
C637 C 0.85518 0.38259 0.94499 0.0
C638 C 0.83463 0.36978 0.92193 0.0
C639 C 0.83031 0.37167 0.87134 0.0
C640 C 0.80671 0.356 0.85595 0.0
C641 C 0.78581 0.37371 0.83288 0.0
C642 C 0.81431 0.33393 0.82023 0.0
C643 C 0.79821 0.3454 0.90596 0.0
C644 C 0.81469 0.35348 0.9435 0.0
C645 C 0.80984 0.34777 0.99332 0.0
C646 C 0.78703 0.33422 0.00527 0.0
C647 C 0.76971 0.32631 0.96749 0.0
C648 C 0.77561 0.33148 0.91726 0.0
H649 H 0.4325 0.0345 0.18698 0.0
H650 H 0.38485 0.01963 0.31666 0.0
H651 H 0.35532 0.05534 0.29192 0.0
H652 H 0.42038 0.10628 0.17779 0.0
H653 H 0.41953 0.1047 0.11097 0.0
H654 H 0.43963 0.0824 0.14532 0.0
H655 H 0.41713 0.04517 0.0993 0.0
H656 H 0.39468 0.06614 0.06796 0.0
H657 H 0.38264 0.04006 0.10647 0.0
H658 H 0.32866 0.09011 0.24831 0.0
H659 H 0.30757 0.12084 0.18926 0.0
H660 H 0.369 0.10686 0.08292 0.0
C661 C 0.41632 0.03927 0.21089 0.0
C662 C 0.41101 0.02444 0.2538 0.0
C663 C 0.38939 0.03103 0.2839 0.0
C664 C 0.37246 0.05116 0.27001 0.0
C665 C 0.37726 0.06426 0.22561 0.0
C666 C 0.39875 0.05863 0.19657 0.0
C667 C 0.39805 0.07344 0.14797 0.0
C668 C 0.42072 0.09287 0.14538 0.0
C669 C 0.39809 0.05506 0.10284 0.0
C670 C 0.37226 0.08725 0.15319 0.0
C671 C 0.36091 0.08246 0.1988 0.0
C672 C 0.33732 0.09388 0.21236 0.0
C673 C 0.32533 0.111 0.1786 0.0
C674 C 0.33649 0.1155 0.13138 0.0
C675 C 0.35998 0.10323 0.11849 0.0
H676 H 0.3377 0.42095 0.73156 0.0
H677 H 0.40192 0.378 0.66576 0.0
H678 H 0.37135 0.35311 0.61511 0.0
H679 H 0.29368 0.36791 0.73873 0.0
H680 H 0.26529 0.38653 0.72201 0.0
H681 H 0.29224 0.40223 0.75229 0.0
H682 H 0.29523 0.4355 0.68002 0.0
H683 H 0.26823 0.41987 0.64955 0.0
H684 H 0.29862 0.42391 0.61713 0.0
H685 H 0.33432 0.33014 0.57604 0.0
H686 H 0.29225 0.31256 0.54707 0.0
H687 H 0.25181 0.37115 0.63385 0.0
C688 C 0.34533 0.40652 0.70614 0.0
C689 C 0.37232 0.40159 0.70298 0.0
C690 C 0.38141 0.3824 0.66914 0.0
C691 C 0.36419 0.36801 0.64 0.0
C692 C 0.33781 0.37309 0.64439 0.0
C693 C 0.32833 0.39202 0.67609 0.0
C694 C 0.29892 0.39317 0.67372 0.0
C695 C 0.28683 0.38709 0.72472 0.0
C696 C 0.28971 0.41969 0.65392 0.0
C697 C 0.29354 0.37163 0.6366 0.0
C698 C 0.31628 0.36028 0.62026 0.0
C699 C 0.31632 0.33908 0.58793 0.0
C700 C 0.29238 0.32918 0.57179 0.0
C701 C 0.26882 0.34065 0.58767 0.0
C702 C 0.26952 0.36227 0.62025 0.0
H703 H 0.81517 0.07839 0.47486 0.0
H704 H 0.8169 0.13388 0.35332 0.0
H705 H 0.83211 0.09957 0.29673 0.0
H706 H 0.87164 0.04935 0.44916 0.0
H707 H 0.8626 0.01643 0.46443 0.0
H708 H 0.8458 0.04317 0.49288 0.0
H709 H 0.80176 0.02547 0.4608 0.0
H710 H 0.81842 0.99836 0.43262 0.0
H711 H 0.79763 0.01886 0.39548 0.0
H712 H 0.85697 0.06355 0.25951 0.0
H713 H 0.88597 0.02624 0.2421 0.0
H714 H 0.86621 0.99249 0.38469 0.0
C715 C 0.8176 0.08298 0.43586 0.0
C716 C 0.81483 0.10876 0.41849 0.0
C717 C 0.81894 0.11425 0.36747 0.0
C718 C 0.82748 0.09485 0.33492 0.0
C719 C 0.83147 0.06994 0.35371 0.0
C720 C 0.82616 0.06374 0.40275 0.0
C721 C 0.83514 0.03637 0.4149 0.0
C722 C 0.85497 0.03636 0.45785 0.0
C723 C 0.81184 0.01872 0.42663 0.0
C724 C 0.84772 0.02886 0.36606 0.0
C725 C 0.84512 0.0484 0.33105 0.0
C726 C 0.85832 0.04765 0.28578 0.0
C727 C 0.87482 0.02654 0.27626 0.0
C728 C 0.87763 0.00639 0.31156 0.0
C729 C 0.86348 0.00727 0.35642 0.0
H730 H 0.14703 0.58701 0.15211 0.0
H731 H 0.12828 0.64479 0.26391 0.0
H732 H 0.15637 0.67668 0.2213 0.0
H733 H 0.215 0.60502 0.14462 0.0
H734 H 0.21729 0.59834 0.079 0.0
H735 H 0.19427 0.58083 0.11665 0.0
H736 H 0.1573 0.59553 0.05741 0.0
H737 H 0.18019 0.61364 0.02034 0.0
H738 H 0.1522 0.62975 0.04631 0.0
H739 H 0.18436 0.70298 0.16382 0.0
H740 H 0.2205 0.71846 0.11109 0.0
H741 H 0.22417 0.64266 0.0403 0.0
C742 C 0.14911 0.60631 0.16774 0.0
C743 C 0.1355 0.6135 0.21119 0.0
C744 C 0.13872 0.63885 0.23085 0.0
C745 C 0.15433 0.65721 0.20653 0.0
C746 C 0.16701 0.64976 0.16308 0.0
C747 C 0.1653 0.62469 0.14476 0.0
C748 C 0.18298 0.62106 0.10024 0.0
C749 C 0.20361 0.60008 0.11078 0.0
C750 C 0.16722 0.61462 0.0533 0.0
C751 C 0.19501 0.64794 0.09673 0.0
C752 C 0.18488 0.6644 0.13231 0.0
C753 C 0.19291 0.69019 0.13643 0.0
C754 C 0.21316 0.69892 0.10572 0.0
C755 C 0.22526 0.68177 0.07162 0.0
C756 C 0.21532 0.65625 0.06597 0.0
H757 H 0.6448 0.86393 0.87259 0.0
H758 H 0.71764 0.89865 0.91838 0.0
H759 H 0.70849 0.93689 0.86507 0.0
H760 H 0.64074 0.89258 0.74337 0.0
H761 H 0.60628 0.89807 0.74956 0.0
H762 H 0.62133 0.87084 0.78063 0.0
H763 H 0.60288 0.88674 0.865 0.0
H764 H 0.58766 0.91371 0.83415 0.0
H765 H 0.6096 0.91949 0.8852 0.0
H766 H 0.68906 0.97326 0.8172 0.0
H767 H 0.65873 0.00751 0.79022 0.0
H768 H 0.59684 0.95058 0.77966 0.0
C769 C 0.65924 0.87919 0.86976 0.0
C770 C 0.68221 0.87822 0.89842 0.0
C771 C 0.70014 0.89899 0.89599 0.0
C772 C 0.69517 0.92062 0.86553 0.0
C773 C 0.67204 0.92125 0.83832 0.0
C774 C 0.65421 0.90118 0.84063 0.0
C775 C 0.62888 0.90856 0.81544 0.0
C776 C 0.62403 0.89149 0.76951 0.0
C777 C 0.60592 0.90705 0.85214 0.0
C778 C 0.63476 0.93638 0.80057 0.0
C779 C 0.6601 0.94296 0.81254 0.0
C780 C 0.66936 0.96822 0.80694 0.0
C781 C 0.65197 0.98756 0.79149 0.0
C782 C 0.62546 0.98166 0.78259 0.0
C783 C 0.61712 0.95552 0.78484 0.0
H784 H 0.3808 0.1425 0.88819 0.0
H785 H 0.40247 0.12677 0.04094 0.0
H786 H 0.43293 0.0927 0.01268 0.0
H787 H 0.38702 0.07805 0.83756 0.0
H788 H 0.40235 0.08868 0.78084 0.0
H789 H 0.3801 0.10993 0.81289 0.0
H790 H 0.41534 0.14594 0.81774 0.0
H791 H 0.43732 0.12508 0.78436 0.0
H792 H 0.44672 0.13824 0.84379 0.0
H793 H 0.45917 0.05863 0.96745 0.0
H794 H 0.48972 0.03729 0.90938 0.0
H795 H 0.45587 0.08017 0.78669 0.0
C796 C 0.39199 0.13188 0.91564 0.0
C797 C 0.3886 0.13651 0.96693 0.0
C798 C 0.4042 0.12289 0.00163 0.0
C799 C 0.42143 0.10343 0.98592 0.0
C800 C 0.42348 0.09854 0.93517 0.0
C801 C 0.41003 0.11314 0.90048 0.0
C802 C 0.41835 0.10645 0.8481 0.0
C803 C 0.39559 0.0951 0.81809 0.0
C804 C 0.43014 0.13034 0.82198 0.0
C805 C 0.43869 0.08591 0.85879 0.0
C806 C 0.44064 0.08091 0.90913 0.0
C807 C 0.45808 0.06264 0.928 0.0
C808 C 0.47521 0.05047 0.89481 0.0
C809 C 0.47536 0.05744 0.84393 0.0
C810 C 0.45612 0.07451 0.82548 0.0
H811 H 0.62247 0.63212 0.20032 0.0
H812 H 0.54121 0.65276 0.18217 0.0
H813 H 0.55442 0.68907 0.12605 0.0
H814 H 0.65009 0.69544 0.19808 0.0
H815 H 0.67812 0.68477 0.16319 0.0
H816 H 0.66166 0.66247 0.20397 0.0
H817 H 0.65596 0.63062 0.13018 0.0
H818 H 0.67199 0.65318 0.08917 0.0
H819 H 0.63985 0.64158 0.07445 0.0
H820 H 0.57797 0.722 0.06815 0.0
H821 H 0.60838 0.74984 0.02112 0.0
H822 H 0.67336 0.70449 0.07695 0.0
C823 C 0.60724 0.6443 0.18506 0.0
C824 C 0.58073 0.63954 0.19563 0.0
C825 C 0.56164 0.65619 0.175 0.0
C826 C 0.569 0.67663 0.14273 0.0
C827 C 0.59541 0.67989 0.13158 0.0
C828 C 0.61412 0.66413 0.15259 0.0
C829 C 0.6411 0.67056 0.13428 0.0
C830 C 0.65877 0.67882 0.1775 0.0
C831 C 0.6529 0.64762 0.1053 0.0
C832 C 0.63505 0.69305 0.10025 0.0
C833 C 0.60861 0.69808 0.09856 0.0
C834 C 0.59864 0.71814 0.0694 0.0
C835 C 0.61614 0.73376 0.04252 0.0
C836 C 0.64341 0.72937 0.0451 0.0
C837 C 0.65274 0.70839 0.07382 0.0
H838 H 0.0381 0.89299 0.26872 0.0
H839 H 0.019 0.95885 0.3627 0.0
H840 H 0.05008 0.94321 0.42587 0.0
H841 H 0.04491 0.84605 0.36234 0.0
H842 H 0.07259 0.82984 0.33537 0.0
H843 H 0.04978 0.84665 0.29599 0.0
H844 H 0.08688 0.87475 0.25906 0.0
H845 H 0.1099 0.85756 0.29739 0.0
H846 H 0.108 0.89254 0.30029 0.0
H847 H 0.07905 0.91734 0.48321 0.0
H848 H 0.1118 0.88849 0.52262 0.0
H849 H 0.115 0.84193 0.38858 0.0
C850 C 0.04093 0.9044 0.30211 0.0
C851 C 0.02626 0.92717 0.31072 0.0
C852 C 0.03033 0.94155 0.35497 0.0
C853 C 0.04768 0.93264 0.3914 0.0
C854 C 0.06113 0.90959 0.38258 0.0
C855 C 0.05862 0.89612 0.33837 0.0
C856 C 0.07594 0.8723 0.33761 0.0
C857 C 0.05983 0.84724 0.33253 0.0
C858 C 0.0964 0.87443 0.29614 0.0
C859 C 0.08825 0.87426 0.38858 0.0
C860 C 0.07904 0.89561 0.41437 0.0
C861 C 0.0867 0.90079 0.46312 0.0
C862 C 0.105 0.8842 0.48539 0.0
C863 C 0.11563 0.86312 0.45848 0.0
C864 C 0.10699 0.85796 0.40975 0.0
H865 H 0.83037 0.28925 0.5545 0.0
H866 H 0.89163 0.23136 0.56655 0.0
H867 H 0.91947 0.26329 0.60915 0.0
H868 H 0.87319 0.34504 0.53289 0.0
H869 H 0.85319 0.36671 0.56908 0.0
H870 H 0.83862 0.33968 0.53686 0.0
H871 H 0.81861 0.32341 0.61975 0.0
H872 H 0.8332 0.35029 0.65221 0.0
H873 H 0.83958 0.31744 0.67225 0.0
H874 H 0.9389 0.30003 0.65833 0.0
H875 H 0.94971 0.34048 0.70404 0.0
H876 H 0.87698 0.37478 0.65538 0.0
C877 C 0.84976 0.28336 0.56542 0.0
C878 C 0.85876 0.25779 0.55708 0.0
C879 C 0.88428 0.25088 0.57221 0.0
C880 C 0.90027 0.26886 0.59658 0.0
C881 C 0.89061 0.29374 0.60502 0.0
C882 C 0.86608 0.30112 0.58935 0.0
C883 C 0.86011 0.32887 0.60409 0.0
C884 C 0.85605 0.34609 0.55797 0.0
C885 C 0.83648 0.33006 0.63915 0.0
C886 C 0.88496 0.33579 0.631 0.0
C887 C 0.90226 0.31524 0.63153 0.0
C888 C 0.92574 0.31646 0.65739 0.0
C889 C 0.93168 0.33938 0.68332 0.0
C890 C 0.91437 0.36074 0.68235 0.0
C891 C 0.89085 0.35892 0.65559 0.0
H892 H 0.633 0.88148 0.09436 0.0
H893 H 0.59975 0.80595 0.06124 0.0
H894 H 0.56179 0.81639 0.11432 0.0
H895 H 0.61359 0.88617 0.21998 0.0
H896 H 0.6057 0.92032 0.21746 0.0
H897 H 0.63002 0.90716 0.17642 0.0
H898 H 0.60496 0.92507 0.10044 0.0
H899 H 0.58031 0.93835 0.14067 0.0
H900 H 0.57141 0.91622 0.09159 0.0
H901 H 0.52983 0.83365 0.1761 0.0
H902 H 0.5015 0.85914 0.23118 0.0
H903 H 0.55403 0.92501 0.21924 0.0
C904 C 0.61754 0.8673 0.09796 0.0
C905 C 0.6191 0.84293 0.07408 0.0
C906 C 0.59861 0.82481 0.07907 0.0
C907 C 0.57719 0.83049 0.10939 0.0
C908 C 0.57652 0.85451 0.13344 0.0
C909 C 0.59582 0.87287 0.1271 0.0
C910 C 0.58995 0.89755 0.15566 0.0
C911 C 0.61108 0.90311 0.19469 0.0
C912 C 0.58644 0.92068 0.11998 0.0
C913 C 0.56454 0.89003 0.17992 0.0
C914 C 0.55737 0.86498 0.16711 0.0
C915 C 0.53508 0.85336 0.186 0.0
C916 C 0.51925 0.86797 0.21768 0.0
C917 C 0.52557 0.89411 0.22961 0.0
C918 C 0.5487 0.90512 0.21082 0.0
H919 H 0.33867 0.29313 -0.00096 0.0
H920 H 0.40117 0.23673 0.98607 0.0
H921 H 0.42978 0.27059 0.95138 0.0
H922 H 0.3506 0.32604 0.88744 0.0
H923 H 0.34313 0.3579 0.91146 0.0
H924 H 0.3283 0.3296 0.93866 0.0
H925 H 0.34601 0.34299 0.02522 0.0
H926 H 0.36102 0.37133 0.99814 0.0
H927 H 0.38037 0.34851 0.03315 0.0
H928 H 0.45015 0.3096 0.90969 0.0
H929 H 0.46064 0.35115 0.86737 0.0
H930 H 0.38571 0.38205 0.91258 0.0
C931 C 0.35845 0.28796 0.98941 0.0
C932 C 0.36763 0.26229 0.99532 0.0
C933 C 0.39369 0.25633 0.98222 0.0
C934 C 0.41015 0.27542 0.96246 0.0
C935 C 0.40042 0.3005 0.95672 0.0
C936 C 0.37527 0.30686 0.9703 0.0
C937 C 0.36927 0.33499 0.95879 0.0
C938 C 0.34649 0.33725 0.92189 0.0
C939 C 0.36386 0.35036 0.00668 0.0
C940 C 0.39469 0.34321 0.93531 0.0
C941 C 0.41249 0.32313 0.93448 0.0
C942 C 0.43655 0.32566 0.91094 0.0
C943 C 0.44235 0.34927 0.88698 0.0
C944 C 0.42419 0.36997 0.88716 0.0
C945 C 0.40034 0.36688 0.91261 0.0
H946 H 0.90117 0.15466 0.57673 0.0
H947 H 0.84017 0.11004 0.64879 0.0
H948 H 0.87293 0.08722 0.69914 0.0
H949 H 0.94907 0.10296 0.57276 0.0
H950 H 0.97603 0.12423 0.58603 0.0
H951 H 0.94782 0.13665 0.55419 0.0
H952 H 0.94273 0.1724 0.62149 0.0
H953 H 0.97089 0.16 0.65352 0.0
H954 H 0.94039 0.16309 0.68595 0.0
H955 H 0.91203 0.06839 0.74054 0.0
H956 H 0.95527 0.05669 0.77387 0.0
H957 H 0.99079 0.1148 0.67844 0.0
C958 C 0.89475 0.14002 0.60296 0.0
C959 C 0.86809 0.13418 0.60875 0.0
C960 C 0.86045 0.11502 0.64384 0.0
C961 C 0.87892 0.10183 0.67253 0.0
C962 C 0.90498 0.10809 0.66609 0.0
C963 C 0.91294 0.12683 0.63247 0.0
C964 C 0.94217 0.13027 0.634 0.0
C965 C 0.95449 0.12309 0.58376 0.0
C966 C 0.94947 0.15809 0.64969 0.0
C967 C 0.94926 0.11065 0.67385 0.0
C968 C 0.92754 0.09786 0.69142 0.0
C969 C 0.92921 0.07838 0.72736 0.0
C970 C 0.95381 0.07184 0.746 0.0
C971 C 0.97629 0.08502 0.72913 0.0
C972 C 0.97388 0.10467 0.69261 0.0
H973 H 0.05732 0.65393 0.39605 0.0
H974 H 0.08356 0.67318 0.24715 0.0
H975 H 0.10491 0.71241 0.2796 0.0
H976 H 0.05066 0.72476 0.44196 0.0
H977 H 0.06212 0.7153 0.50266 0.0
H978 H 0.04305 0.69294 0.46613 0.0
H979 H 0.07955 0.65859 0.47514 0.0
H980 H 0.09914 0.68094 0.51013 0.0
H981 H 0.11195 0.66637 0.45435 0.0
H982 H 0.13266 0.74133 0.32922 0.0
H983 H 0.15927 0.76364 0.39227 0.0
H984 H 0.11426 0.7277 0.50977 0.0
C985 C 0.06652 0.66706 0.36993 0.0
C986 C 0.06895 0.66041 0.31916 0.0
C987 C 0.08132 0.67791 0.28614 0.0
C988 C 0.0936 0.70025 0.30428 0.0
C989 C 0.09264 0.7051 0.3552 0.0
C990 C 0.07871 0.68951 0.38746 0.0
C991 C 0.08329 0.69727 0.44112 0.0
C992 C 0.05829 0.70823 0.46433 0.0
C993 C 0.09413 0.67443 0.47194 0.0
C994 C 0.10343 0.71837 0.43415 0.0
C995 C 0.10832 0.72271 0.38421 0.0
C996 C 0.1284 0.73879 0.36831 0.0
C997 C 0.14362 0.75106 0.40431 0.0
C998 C 0.13861 0.74726 0.45545 0.0
C999 C 0.1181 0.73103 0.47071 0.0
H1000 H 0.88433 0.61582 0.42532 0.0
H1001 H 0.89315 0.6964 0.38061 0.0
H1002 H 0.92353 0.6827 0.31387 0.0
H1003 H 0.94973 0.59879 0.41036 0.0
H1004 H 0.94367 0.56623 0.38802 0.0
H1005 H 0.9207 0.58176 0.42871 0.0
H1006 H 0.88392 0.57499 0.36513 0.0
H1007 H 0.90633 0.55904 0.32363 0.0
H1008 H 0.88778 0.58667 0.30238 0.0
H1009 H 0.95172 0.65983 0.25119 0.0
H1010 H 0.98419 0.63197 0.21069 0.0
H1011 H 0.95913 0.56648 0.30086 0.0
C1012 C 0.89274 0.63059 0.4015 0.0
C1013 C 0.88648 0.65715 0.40781 0.0
C1014 C 0.89798 0.676 0.37652 0.0
C1015 C 0.91484 0.66833 0.33812 0.0
C1016 C 0.91997 0.64182 0.33199 0.0
C1017 C 0.9097 0.62333 0.36357 0.0
C1018 C 0.92009 0.59642 0.3522 0.0
C1019 C 0.93442 0.58512 0.39747 0.0
C1020 C 0.89822 0.57821 0.3348 0.0
C1021 C 0.93852 0.60268 0.31005 0.0
C1022 C 0.93739 0.62882 0.29783 0.0
C1023 C 0.95288 0.63939 0.26067 0.0
C1024 C 0.9712 0.62328 0.23769 0.0
C1025 C 0.9745 0.59701 0.25296 0.0
C1026 C 0.95702 0.58633 0.28794 0.0
H1027 H 0.1311 0.2457 0.57745 0.0
H1028 H 0.16315 0.20299 0.45299 0.0
H1029 H 0.14176 0.16274 0.48356 0.0
H1030 H 0.1432 0.19642 0.66542 0.0
H1031 H 0.11458 0.20278 0.70205 0.0
H1032 H 0.12922 0.22858 0.66659 0.0
H1033 H 0.08524 0.23686 0.62221 0.0
H1034 H 0.07052 0.21089 0.65736 0.0
H1035 H 0.06929 0.21045 0.59041 0.0
H1036 H 0.11871 0.12744 0.52925 0.0
H1037 H 0.10053 0.0976 0.59138 0.0
H1038 H 0.08601 0.16264 0.69062 0.0
C1039 C 0.13302 0.22792 0.55613 0.0
C1040 C 0.14809 0.22728 0.5123 0.0
C1041 C 0.15127 0.2037 0.48619 0.0
C1042 C 0.13913 0.18092 0.5032 0.0
C1043 C 0.12438 0.18214 0.54674 0.0
C1044 C 0.12161 0.20495 0.57328 0.0
C1045 C 0.10733 0.20043 0.62186 0.0
C1046 C 0.12462 0.20746 0.6666 0.0
C1047 C 0.08156 0.21556 0.623 0.0
C1048 C 0.10268 0.17138 0.61883 0.0
C1049 C 0.11225 0.1614 0.5747 0.0
C1050 C 0.11113 0.13502 0.56385 0.0
C1051 C 0.10077 0.11823 0.5996 0.0
C1052 C 0.09195 0.12772 0.64621 0.0
C1053 C 0.09232 0.1548 0.65529 0.0
H1054 H 0.60008 0.33675 0.91045 0.0
H1055 H 0.61237 0.38594 0.03882 0.0
H1056 H 0.58389 0.41968 0.00176 0.0
H1057 H 0.60105 0.38564 0.8198 0.0
H1058 H 0.57562 0.37191 0.78195 0.0
H1059 H 0.59555 0.351 0.81984 0.0
H1060 H 0.55469 0.3324 0.86381 0.0
H1061 H 0.53462 0.35254 0.82473 0.0
H1062 H 0.53157 0.35447 0.89135 0.0
H1063 H 0.55786 0.44965 0.94518 0.0
H1064 H 0.52608 0.4688 0.88603 0.0
H1065 H 0.53158 0.39923 0.79524 0.0
C1066 C 0.59609 0.35432 0.93132 0.0
C1067 C 0.60788 0.35868 0.97784 0.0
C1068 C 0.60278 0.38203 0.00386 0.0
C1069 C 0.58708 0.40145 0.98259 0.0
C1070 C 0.57663 0.397 0.93551 0.0
C1071 C 0.5803 0.37367 0.91093 0.0
C1072 C 0.56648 0.37335 0.86139 0.0
C1073 C 0.58584 0.3703 0.81822 0.0
C1074 C 0.5456 0.35193 0.86028 0.0
C1075 C 0.55449 0.40019 0.86172 0.0
C1076 C 0.5609 0.41376 0.90423 0.0
C1077 C 0.55201 0.43902 0.91239 0.0
C1078 C 0.53442 0.4499 0.87813 0.0
C1079 C 0.52615 0.43544 0.8362 0.0
C1080 C 0.53735 0.41078 0.82704 0.0
H1081 H 0.3371 0.79863 0.04891 0.0
H1082 H 0.40194 0.74467 0.03945 0.0
H1083 H 0.42669 0.77162 0.0985 0.0
H1084 H 0.37588 0.8576 0.05732 0.0
H1085 H 0.35375 0.87278 0.10038 0.0
H1086 H 0.34178 0.84957 0.05585 0.0
H1087 H 0.32194 0.82221 0.12795 0.0
H1088 H 0.33414 0.84539 0.17236 0.0
H1089 H 0.34277 0.81155 0.17788 0.0
H1090 H 0.44325 0.80299 0.16393 0.0
H1091 H 0.45251 0.8401 0.22034 0.0
H1092 H 0.37744 0.8735 0.18429 0.0
C1093 C 0.3567 0.79272 0.05834 0.0
C1094 C 0.36751 0.76952 0.03933 0.0
C1095 C 0.39318 0.76242 0.05324 0.0
C1096 C 0.40738 0.77749 0.08711 0.0
C1097 C 0.39574 0.7997 0.10653 0.0
C1098 C 0.37118 0.80755 0.09192 0.0
C1099 C 0.36307 0.83223 0.11817 0.0
C1100 C 0.35836 0.85436 0.0807 0.0
C1101 C 0.33904 0.82756 0.15101 0.0
C1102 C 0.38697 0.83714 0.14947 0.0
C1103 C 0.40547 0.81797 0.14302 0.0
C1104 C 0.42897 0.81822 0.16905 0.0
C1105 C 0.43398 0.83914 0.20129 0.0
C1106 C 0.41568 0.85948 0.20636 0.0
C1107 C 0.39177 0.85815 0.1808 0.0
H1108 H 0.09914 0.32103 0.64715 0.0
H1109 H 0.10417 0.36985 0.5159 0.0
H1110 H 0.07413 0.40142 0.55429 0.0
H1111 H 0.02916 0.33382 0.66986 0.0
H1112 H 0.0334 0.33266 0.73633 0.0
H1113 H 0.05413 0.31355 0.69665 0.0
H1114 H 0.09437 0.33512 0.73746 0.0
H1115 H 0.07376 0.35495 0.77602 0.0
H1116 H 0.09756 0.37004 0.73621 0.0
H1117 H 0.048 0.43002 0.61113 0.0
H1118 H 0.0187 0.44895 0.67435 0.0
H1119 H 0.02804 0.37997 0.76561 0.0
C1120 C 0.09329 0.33801 0.62606 0.0
C1121 C 0.10378 0.34302 0.57862 0.0
C1122 C 0.09597 0.3655 0.55204 0.0
C1123 C 0.07922 0.38371 0.57378 0.0
C1124 C 0.07012 0.37877 0.6216 0.0
C1125 C 0.07612 0.35607 0.64672 0.0
C1126 C 0.0632 0.35519 0.69717 0.0
C1127 C 0.04382 0.33247 0.70015 0.0
C1128 C 0.08344 0.35374 0.73918 0.0
C1129 C 0.04942 0.38118 0.69688 0.0
C1130 C 0.05406 0.39471 0.65336 0.0
C1131 C 0.04398 0.41951 0.64516 0.0
C1132 C 0.0277 0.43025 0.6815 0.0
C1133 C 0.02135 0.4159 0.72475 0.0
C1134 C 0.03279 0.39134 0.73294 0.0
H1135 H 0.86634 0.78083 0.49086 0.0
H1136 H 0.81266 0.76018 0.37308 0.0
H1137 H 0.83807 0.78681 0.31374 0.0
H1138 H 0.87538 0.84823 0.45009 0.0
H1139 H 0.90897 0.84866 0.46915 0.0
H1140 H 0.88605 0.82821 0.50124 0.0
H1141 H 0.91569 0.78843 0.4838 0.0
H1142 H 0.93824 0.80864 0.45016 0.0
H1143 H 0.92417 0.78052 0.42058 0.0
H1144 H 0.87204 0.81253 0.26635 0.0
H1145 H 0.90502 0.84439 0.23757 0.0
H1146 H 0.93423 0.85059 0.38828 0.0
C1147 C 0.85964 0.78234 0.45278 0.0
C1148 C 0.83758 0.76839 0.43645 0.0
C1149 C 0.8294 0.77085 0.38639 0.0
C1150 C 0.84392 0.78566 0.35233 0.0
C1151 C 0.86626 0.79824 0.36924 0.0
C1152 C 0.87356 0.79742 0.41865 0.0
C1153 C 0.89761 0.8137 0.42793 0.0
C1154 C 0.89164 0.83603 0.46423 0.0
C1155 C 0.92026 0.7968 0.44673 0.0
C1156 C 0.90282 0.82373 0.37596 0.0
C1157 C 0.88491 0.81413 0.34243 0.0
C1158 C 0.88601 0.82051 0.29212 0.0
C1159 C 0.90495 0.83837 0.27614 0.0
C1160 C 0.92203 0.85014 0.31076 0.0
C1161 C 0.92148 0.84188 0.36091 0.0
H1162 H 0.38885 0.66155 0.14523 0.0
H1163 H 0.38878 0.6251 -4e-05 0.0
H1164 H 0.42051 0.59244 0.02962 0.0
H1165 H 0.45803 0.6538 0.16556 0.0
H1166 H 0.45444 0.64841 0.2314 0.0
H1167 H 0.43112 0.66813 0.19862 0.0
H1168 H 0.39405 0.63844 0.23101 0.0
H1169 H 0.41735 0.61836 0.26313 0.0
H1170 H 0.39531 0.60396 0.21894 0.0
H1171 H 0.4502 0.56202 0.07758 0.0
H1172 H 0.48212 0.54153 0.13434 0.0
H1173 H 0.46545 0.60048 0.24517 0.0
C1174 C 0.39567 0.64677 0.1197 0.0
C1175 C 0.38644 0.64577 0.07039 0.0
C1176 C 0.39587 0.6263 0.03778 0.0
C1177 C 0.41366 0.60752 0.05444 0.0
C1178 C 0.4221 0.60877 0.10359 0.0
C1179 C 0.4139 0.62827 0.13535 0.0
C1180 C 0.42716 0.62624 0.18539 0.0
C1181 C 0.44367 0.65058 0.19583 0.0
C1182 C 0.40728 0.62146 0.22707 0.0
C1183 C 0.44401 0.60252 0.17688 0.0
C1184 C 0.44045 0.59238 0.12987 0.0
C1185 C 0.45355 0.5701 0.11412 0.0
C1186 C 0.47162 0.55859 0.14655 0.0
C1187 C 0.47688 0.56978 0.19354 0.0
C1188 C 0.46224 0.5916 0.2092 0.0
H1189 H 0.60036 0.11861 0.93043 0.0
H1190 H 0.53536 0.15674 0.85773 0.0
H1191 H 0.54403 0.1965 0.90749 0.0
H1192 H 0.5964 0.1517 0.05335 0.0
H1193 H 0.63134 0.15327 0.05743 0.0
H1194 H 0.616 0.12655 0.0255 0.0
H1195 H 0.64312 0.13689 0.94669 0.0
H1196 H 0.65834 0.16364 0.97804 0.0
H1197 H 0.64161 0.16906 0.92007 0.0
H1198 H 0.56422 0.23381 0.95696 0.0
H1199 H 0.59467 0.26511 0.9954 0.0
H1200 H 0.64806 0.2022 0.02845 0.0
C1201 C 0.58741 0.13503 0.92556 0.0
C1202 C 0.56718 0.13457 0.89 0.0
C1203 C 0.55084 0.15658 0.885 0.0
C1204 C 0.55565 0.1792 0.91316 0.0
C1205 C 0.5767 0.17928 0.94616 0.0
C1206 C 0.59221 0.1576 0.95241 0.0
C1207 C 0.61578 0.16325 0.98413 0.0
C1208 C 0.61481 0.14778 0.03301 0.0
C1209 C 0.64119 0.15791 0.9555 0.0
C1210 C 0.61191 0.19191 0.99323 0.0
C1211 C 0.58889 0.20074 0.97246 0.0
C1212 C 0.58204 0.22696 0.97391 0.0
C1213 C 0.59943 0.24458 0.99593 0.0
C1214 C 0.62365 0.23595 0.01497 0.0
C1215 C 0.62961 0.20924 0.01448 0.0
H1216 H 0.25011 0.23041 0.15509 0.0
H1217 H 0.33006 0.25121 0.18814 0.0
H1218 H 0.31532 0.27527 0.2623 0.0
H1219 H 0.21973 0.29077 0.19797 0.0
H1220 H 0.19215 0.27431 0.22476 0.0
H1221 H 0.20852 0.26054 0.1717 0.0
H1222 H 0.21583 0.21752 0.22006 0.0
H1223 H 0.19927 0.23105 0.27296 0.0
H1224 H 0.23177 0.21841 0.27972 0.0
H1225 H 0.29266 0.29549 0.33332 0.0
H1226 H 0.26411 0.30671 0.40329 0.0
H1227 H 0.19853 0.27184 0.32665 0.0
C1228 C 0.26448 0.24026 0.17769 0.0
C1229 C 0.29123 0.23911 0.16579 0.0
C1230 C 0.3095 0.25181 0.19669 0.0
C1231 C 0.30129 0.26571 0.23857 0.0
C1232 C 0.27479 0.26657 0.24909 0.0
C1233 C 0.25666 0.25396 0.21999 0.0
C1234 C 0.2296 0.25621 0.24196 0.0
C1235 C 0.21143 0.27136 0.207 0.0
C1236 C 0.21848 0.22919 0.25443 0.0
C1237 C 0.23548 0.27165 0.28855 0.0
C1238 C 0.26162 0.27779 0.29125 0.0
C1239 C 0.27215 0.29092 0.3316 0.0
C1240 C 0.25575 0.29717 0.37116 0.0
C1241 C 0.22911 0.29008 0.37039 0.0
C1242 C 0.2187 0.27783 0.32788 0.0
H1243 H 0.49067 0.5063 0.64287 0.0
H1244 H 0.4545 0.43381 0.59702 0.0
H1245 H 0.46226 0.44534 0.50924 0.0
H1246 H 0.46657 0.54621 0.54232 0.0
H1247 H 0.49624 0.56456 0.53615 0.0
H1248 H 0.48723 0.55117 0.59561 0.0
H1249 H 0.53138 0.52704 0.60085 0.0
H1250 H 0.54061 0.5405 0.54162 0.0
H1251 H 0.54102 0.50576 0.5509 0.0
H1252 H 0.47346 0.4644 0.42768 0.0
H1253 H 0.49072 0.48795 0.35576 0.0
H1254 H 0.52114 0.548 0.45352 0.0
C1255 C 0.48429 0.49287 0.61437 0.0
C1256 C 0.47187 0.46917 0.62676 0.0
C1257 C 0.46411 0.45201 0.58842 0.0
C1258 C 0.46829 0.45846 0.53849 0.0
C1259 C 0.48038 0.48203 0.52763 0.0
C1260 C 0.48853 0.49888 0.56436 0.0
C1261 C 0.50202 0.52249 0.54247 0.0
C1262 C 0.48712 0.54759 0.55488 0.0
C1263 C 0.53044 0.52402 0.56 0.0
C1264 C 0.5003 0.51619 0.48758 0.0
C1265 C 0.48748 0.49287 0.4801 0.0
C1266 C 0.48359 0.48263 0.43299 0.0
C1267 C 0.49356 0.49624 0.39235 0.0
C1268 C 0.50751 0.51984 0.39886 0.0
C1269 C 0.51052 0.53012 0.44722 0.0
H1270 H 0.19763 0.78007 0.70237 0.0
H1271 H 0.24319 0.7348 0.59764 0.0
H1272 H 0.26931 0.71723 0.66626 0.0
H1273 H 0.2489 0.79823 0.77854 0.0
H1274 H 0.23195 0.79545 0.83692 0.0
H1275 H 0.21411 0.80227 0.78085 0.0
H1276 H 0.18485 0.76204 0.79594 0.0
H1277 H 0.20232 0.75532 0.85261 0.0
H1278 H 0.19963 0.73061 0.80539 0.0
H1279 H 0.29426 0.70931 0.74234 0.0
H1280 H 0.31385 0.70688 0.8257 0.0
H1281 H 0.25192 0.75554 0.88399 0.0
C1282 C 0.21255 0.76583 0.69425 0.0
C1283 C 0.21844 0.75884 0.64473 0.0
C1284 C 0.23846 0.74055 0.6353 0.0
C1285 C 0.25341 0.73041 0.674 0.0
C1286 C 0.24797 0.73852 0.7221 0.0
C1287 C 0.22777 0.75539 0.73275 0.0
C1288 C 0.22719 0.76182 0.78779 0.0
C1289 C 0.23075 0.79118 0.79651 0.0
C1290 C 0.202 0.75185 0.81185 0.0
C1291 C 0.25064 0.74653 0.80574 0.0
C1292 C 0.26227 0.7333 0.76704 0.0
C1293 C 0.28512 0.71918 0.77325 0.0
C1294 C 0.29624 0.71814 0.82061 0.0
C1295 C 0.28438 0.73098 0.86123 0.0
C1296 C 0.26125 0.74534 0.85364 0.0
H1297 H 0.02826 0.5516 0.07906 0.0
H1298 H 0.05403 0.48304 0.15966 0.0
H1299 H 0.03716 0.45512 0.09257 0.0
H1300 H 0.96954 0.52616 0.03911 0.0
H1301 H 0.96974 0.54117 0.97854 0.0
H1302 H 0.98675 0.55627 0.02934 0.0
H1303 H 0.02958 0.55606 0.97867 0.0
H1304 H 0.01257 0.54148 0.9272 0.0
H1305 H 0.04115 0.52598 0.95225 0.0
H1306 H 0.0135 0.43452 0.02164 0.0
H1307 H 0.98847 0.42267 0.94687 0.0
H1308 H 0.97781 0.50466 0.91283 0.0
C1309 C 0.03112 0.53077 0.08187 0.0
C1310 C 0.04256 0.51952 0.12453 0.0
C1311 C 0.04537 0.49211 0.12728 0.0
C1312 C 0.0358 0.47607 0.08943 0.0
C1313 C 0.02357 0.48773 0.049 0.0
C1314 C 0.02156 0.51445 0.04453 0.0
C1315 C 0.0063 0.52195 -0.00144 0.0
C1316 C 0.98162 0.53729 0.01224 0.0
C1317 C 0.02343 0.53727 0.962 0.0
C1318 C -0.00035 0.49527 0.97848 0.0
C1319 C 0.00983 0.47581 0.00807 0.0
C1320 C 0.00567 0.44958 0.99781 0.0
C1321 C 0.99126 0.44306 0.95541 0.0
C1322 C 0.98115 0.46269 0.92378 0.0
C1323 C 0.98524 0.48913 0.93607 0.0
H1324 H 0.70595 0.77126 0.81991 0.0
H1325 H 0.76407 0.74196 0.92328 0.0
H1326 H 0.79155 0.72872 0.85355 0.0
H1327 H 0.71441 0.7197 0.72841 0.0
H1328 H 0.70994 0.74108 0.67596 0.0
H1329 H 0.69429 0.74826 0.73424 0.0
H1330 H 0.71581 0.79384 0.73457 0.0
H1331 H 0.73176 0.78667 0.67657 0.0
H1332 H 0.75067 0.7964 0.7298 0.0
H1333 H 0.81378 0.71973 0.77408 0.0
H1334 H 0.82772 0.71198 0.68781 0.0
H1335 H 0.75551 0.74604 0.6345 0.0
C1336 C 0.72432 0.76185 0.82785 0.0
C1337 C 0.73275 0.75786 0.87733 0.0
C1338 C 0.75705 0.74547 0.88592 0.0
C1339 C 0.77295 0.73786 0.8465 0.0
C1340 C 0.76437 0.74255 0.79843 0.0
C1341 C 0.74055 0.75394 0.78871 0.0
C1342 C 0.73609 0.75635 0.73318 0.0
C1343 C 0.71227 0.74039 0.717 0.0
C1344 C 0.73343 0.78502 0.71763 0.0
C1345 C 0.76114 0.74456 0.71361 0.0
C1346 C 0.7772 0.73692 0.75199 0.0
C1347 C 0.80137 0.72555 0.74354 0.0
C1348 C 0.80918 0.72135 0.69435 0.0
C1349 C 0.79278 0.72837 0.6542 0.0
C1350 C 0.76856 0.74044 0.66423 0.0
H1351 H 0.69682 0.27228 0.21291 0.0
H1352 H 0.75598 0.25145 0.1045 0.0
H1353 H 0.78489 0.23737 0.17149 0.0
H1354 H 0.74105 0.29656 0.30622 0.0
H1355 H 0.72297 0.28345 0.35785 0.0
H1356 H 0.70636 0.29231 0.30135 0.0
H1357 H 0.68733 0.24576 0.29474 0.0
H1358 H 0.70374 0.23683 0.35139 0.0
H1359 H 0.70902 0.21819 0.29558 0.0
H1360 H 0.80793 0.22547 0.24913 0.0
H1361 H 0.82262 0.21451 0.33392 0.0
H1362 H 0.74905 0.24257 0.39267 0.0
C1363 C 0.71579 0.26469 0.20328 0.0
C1364 C 0.72395 0.26309 0.15321 0.0
C1365 C 0.74906 0.253 0.14239 0.0
C1366 C 0.7658 0.24494 0.18023 0.0
C1367 C 0.75731 0.24697 0.22899 0.0
C1368 C 0.7329 0.25643 0.2408 0.0
C1369 C 0.72865 0.25606 0.29651 0.0
C1370 C 0.72452 0.28375 0.31665 0.0
C1371 C 0.70584 0.23814 0.31035 0.0
C1372 C 0.75441 0.24486 0.31374 0.0
C1373 C 0.77069 0.2399 0.27417 0.0
C1374 C 0.7954 0.22927 0.28059 0.0
C1375 C 0.8036 0.22318 0.32891 0.0
C1376 C 0.78708 0.22766 0.37009 0.0
C1377 C 0.76226 0.23891 0.36213 0.0
H1378 H 0.0431 0.00868 0.92492 0.0
H1379 H 0.00887 0.08581 0.93291 0.0
H1380 H 0.9871 0.07349 0.01161 0.0
H1381 H 0.98854 0.97436 0.96436 0.0
H1382 H 0.00624 0.95036 -0.00032 0.0
H1383 H 0.02138 0.96599 0.94728 0.0
H1384 H 0.05957 0.9812 0.00292 0.0
H1385 H 0.04482 0.96518 0.05538 0.0
H1386 H 0.05282 0.99927 0.05884 0.0
H1387 H 0.96615 0.05128 0.08488 0.0
H1388 H 0.95042 0.02259 0.15156 0.0
H1389 H 0.99816 0.9596 0.09447 0.0
C1390 C 0.03139 0.02324 0.94352 0.0
C1391 C 0.02765 0.04827 0.92266 0.0
C1392 C 0.01218 0.06663 0.94834 0.0
C1393 C -0.00037 0.05973 0.99286 0.0
C1394 C 0.00295 0.0345 0.01115 0.0
C1395 C 0.01876 0.01668 0.98762 0.0
C1396 C 0.01841 0.99053 0.01369 0.0
C1397 C 0.00802 0.96905 0.97919 0.0
C1398 C 0.04551 0.98365 0.03392 0.0
C1399 C -0.00047 0.99622 0.05533 0.0
C1400 C 0.99089 0.0217 0.05322 0.0
C1401 C 0.97299 0.0314 0.08715 0.0
C1402 C 0.96412 0.01484 0.12484 0.0
C1403 C 0.9731 0.98875 0.12848 0.0
C1404 C 0.99084 0.97933 0.09274 0.0
H1405 H 0.51369 0.99284 0.65017 0.0
H1406 H 0.54329 0.06758 0.6 0.0
H1407 H 0.53531 0.05467 0.5132 0.0
H1408 H 0.54002 0.95428 0.55008 0.0
H1409 H 0.51203 0.93333 0.54572 0.0
H1410 H 0.52043 0.94803 0.60433 0.0
H1411 H 0.47437 0.96819 0.61042 0.0
H1412 H 0.46578 0.95345 0.55199 0.0
H1413 H 0.4624 0.98809 0.56016 0.0
H1414 H 0.52464 0.0342 0.43309 0.0
H1415 H 0.50929 0.00843 0.36257 0.0
H1416 H 0.48544 0.94664 0.46327 0.0
C1417 C 0.51856 0.00649 0.62095 0.0
C1418 C 0.52919 0.03123 0.63193 0.0
C1419 C 0.53507 0.04858 0.5926 0.0
C1420 C 0.53072 0.04139 0.54316 0.0
C1421 C 0.5204 0.01685 0.53372 0.0
C1422 C 0.51419 0.9997 0.57135 0.0
C1423 C 0.50262 0.97478 0.55079 0.0
C1424 C 0.51981 0.95121 0.56349 0.0
C1425 C 0.47463 0.97091 0.56945 0.0
C1426 C 0.50322 0.98071 0.49563 0.0
C1427 C 0.51376 0.00502 0.4869 0.0
C1428 C 0.51629 0.01516 0.43936 0.0
C1429 C 0.50742 0.00027 0.39951 0.0
C1430 C 0.49595 0.97545 0.40723 0.0
C1431 C 0.49416 0.96544 0.45606 0.0
H1432 H 0.22785 0.29488 0.71646 0.0
H1433 H 0.18212 0.23065 0.6597 0.0
H1434 H 0.20242 0.20113 0.72094 0.0
H1435 H 0.28489 0.26074 0.73029 0.0
H1436 H 0.29541 0.27611 0.78701 0.0
H1437 H 0.27451 0.29338 0.74467 0.0
H1438 H 0.24049 0.30072 0.81428 0.0
H1439 H 0.26174 0.28434 0.85736 0.0
H1440 H 0.22876 0.27327 0.84948 0.0
H1441 H 0.23226 0.17751 0.78012 0.0
H1442 H 0.26259 0.16326 0.84618 0.0
H1443 H 0.2899 0.24285 0.86116 0.0
C1444 C 0.22123 0.27491 0.71861 0.0
C1445 C 0.20313 0.26508 0.68406 0.0
C1446 C 0.19568 0.23856 0.68654 0.0
C1447 C 0.20732 0.22161 0.72075 0.0
C1448 C 0.22641 0.2315 0.75214 0.0
C1449 C 0.23286 0.25765 0.75227 0.0
C1450 C 0.25489 0.26305 0.78809 0.0
C1451 C 0.27883 0.27396 0.76086 0.0
C1452 C 0.24593 0.28142 0.82979 0.0
C1453 C 0.25996 0.23586 0.80753 0.0
C1454 C 0.2435 0.21789 0.78618 0.0
C1455 C 0.24493 0.19148 0.79791 0.0
C1456 C 0.26248 0.18349 0.83496 0.0
C1457 C 0.27863 0.20187 0.85914 0.0
C1458 C 0.27783 0.22821 0.8437 0.0
H1459 H 0.46059 0.46149 0.97851 0.0
H1460 H 0.43789 0.53741 0.92422 0.0
H1461 H 0.46875 0.55822 0.98209 0.0
H1462 H 0.47454 0.48268 0.11258 0.0
H1463 H 0.50148 0.4603 0.11568 0.0
H1464 H 0.47344 0.45253 0.07842 0.0
H1465 H 0.50402 0.44615 0.00259 0.0
H1466 H 0.53198 0.45532 0.03873 0.0
H1467 H 0.52403 0.47303 0.98285 0.0
H1468 H 0.50795 0.57007 0.03516 0.0
H1469 H 0.54558 0.57227 0.0928 0.0
H1470 H 0.54321 0.48828 0.10855 0.0
C1471 C 0.46085 0.4825 0.98139 0.0
C1472 C 0.44648 0.4979 0.94791 0.0
C1473 C 0.4483 0.52538 0.95066 0.0
C1474 C 0.46609 0.53734 0.98284 0.0
C1475 C 0.48165 0.52152 0.0125 0.0
C1476 C 0.47851 0.49474 0.01347 0.0
C1477 C 0.49895 0.48202 0.04576 0.0
C1478 C 0.48635 0.4686 0.09079 0.0
C1479 C 0.51573 0.46294 0.01571 0.0
C1480 C 0.51454 0.5056 0.06124 0.0
C1481 C 0.5044 0.52826 0.04179 0.0
C1482 C 0.51597 0.55242 0.05086 0.0
C1483 C 0.53758 0.55348 0.08299 0.0
C1484 C 0.54745 0.53047 0.105 0.0
C1485 C 0.53619 0.50626 0.09233 0.0
H1486 H 0.20394 0.76727 0.33851 0.0
H1487 H 0.24787 0.83908 0.3445 0.0
H1488 H 0.28009 0.82037 0.28563 0.0
H1489 H 0.257 0.72442 0.33721 0.0
H1490 H 0.2427 0.70152 0.29452 0.0
H1491 H 0.22217 0.72093 0.33408 0.0
H1492 H 0.19728 0.73908 0.25765 0.0
H1493 H 0.2171 0.71863 0.21887 0.0
H1494 H 0.2154 0.75309 0.20683 0.0
H1495 H 0.30927 0.7921 0.23355 0.0
H1496 H 0.32762 0.76125 0.17274 0.0
H1497 H 0.26372 0.70813 0.2 0.0
C1498 C 0.22003 0.77938 0.32675 0.0
C1499 C 0.22386 0.80454 0.34698 0.0
C1500 C 0.24494 0.81971 0.32997 0.0
C1501 C 0.26338 0.80912 0.29713 0.0
C1502 C 0.26009 0.78347 0.28126 0.0
C1503 C 0.23847 0.76914 0.29417 0.0
C1504 C 0.23915 0.74221 0.27135 0.0
C1505 C 0.24032 0.72103 0.31171 0.0
C1506 C 0.21582 0.73806 0.23657 0.0
C1507 C 0.26444 0.74365 0.24279 0.0
C1508 C 0.27649 0.76742 0.25004 0.0
C1509 C 0.29992 0.77355 0.2272 0.0
C1510 C 0.31035 0.75574 0.19327 0.0
C1511 C 0.29716 0.73222 0.18197 0.0
C1512 C 0.27455 0.7256 0.20879 0.0
H1513 H 0.0459 0.51921 0.46048 0.0
H1514 H 0.99272 0.58162 0.42442 0.0
H1515 H 0.96095 0.56432 0.48546 0.0
H1516 H 0.00022 0.47023 0.46844 0.0
H1517 H 0.01451 0.45325 0.52036 0.0
H1518 H 0.03472 0.47229 0.4796 0.0
H1519 H 0.05166 0.49949 0.55387 0.0
H1520 H 0.03234 0.47979 0.59505 0.0
H1521 H 0.02871 0.51466 0.59539 0.0
H1522 H 0.93298 0.53706 0.54239 0.0
H1523 H 0.9149 0.50723 0.60612 0.0
H1524 H 0.98621 0.46236 0.60284 0.0
C1525 C 0.02808 0.52986 0.46731 0.0
C1526 C 0.0218 0.55207 0.43904 0.0
C1527 C 0.99786 0.56491 0.44691 0.0
C1528 C 0.97964 0.55501 0.48074 0.0
C1529 C 0.98567 0.5321 0.50586 0.0
C1530 C 0.0096 0.52007 0.50065 0.0
C1531 C 0.01099 0.49534 0.53106 0.0
C1532 C 0.01536 0.47137 0.49785 0.0
C1533 C 0.03217 0.49746 0.57124 0.0
C1534 C 0.98403 0.49519 0.55358 0.0
C1535 C 0.96958 0.51639 0.53831 0.0
C1536 C 0.94414 0.52042 0.55479 0.0
C1537 C 0.93381 0.50316 0.59021 0.0
C1538 C 0.94906 0.4824 0.60864 0.0
C1539 C 0.97404 0.4779 0.58865 0.0
H1540 H 0.69302 0.76909 0.20653 0.0
H1541 H 0.76159 0.81258 0.16579 0.0
H1542 H 0.78859 0.7834 0.21875 0.0
H1543 H 0.71431 0.75621 0.33899 0.0
H1544 H 0.69853 0.72491 0.33809 0.0
H1545 H 0.68549 0.75138 0.30197 0.0
H1546 H 0.68798 0.72221 0.22386 0.0
H1547 H 0.70208 0.69603 0.25932 0.0
H1548 H 0.71872 0.70846 0.20529 0.0
H1549 H 0.80836 0.74576 0.26742 0.0
H1550 H 0.81789 0.71027 0.32709 0.0
H1551 H 0.73575 0.69283 0.33681 0.0
C1552 C 0.71351 0.77336 0.21087 0.0
C1553 C 0.72545 0.79292 0.18193 0.0
C1554 C 0.75231 0.79768 0.18778 0.0
C1555 C 0.76772 0.78108 0.21722 0.0
C1556 C 0.75565 0.76053 0.24189 0.0
C1557 C 0.72897 0.75742 0.24091 0.0
C1558 C 0.72067 0.73386 0.27059 0.0
C1559 C 0.70377 0.74208 0.31507 0.0
C1560 C 0.70654 0.71394 0.23779 0.0
C1561 C 0.74684 0.72369 0.2872 0.0
C1562 C 0.76688 0.73912 0.26992 0.0
C1563 C 0.79279 0.7336 0.28125 0.0
C1564 C 0.79812 0.713 0.31418 0.0
C1565 C 0.77759 0.69848 0.33549 0.0
C1566 C 0.75183 0.70315 0.31985 0.0
H1567 H 0.78673 0.23789 0.69846 0.0
H1568 H 0.72908 0.17847 0.66702 0.0
H1569 H 0.69795 0.20086 0.72224 0.0
H1570 H 0.76938 0.24576 0.8289 0.0
H1571 H 0.77529 0.28027 0.82907 0.0
H1572 H 0.79341 0.25951 0.7878 0.0
H1573 H 0.77879 0.28707 0.71281 0.0
H1574 H 0.75999 0.30802 0.75264 0.0
H1575 H 0.74461 0.29183 0.70106 0.0
H1576 H 0.67256 0.23072 0.77742 0.0
H1577 H 0.65751 0.26079 0.84284 0.0
H1578 H 0.73144 0.30101 0.83807 0.0
C1579 C 0.76775 0.22927 0.70415 0.0
C1580 C 0.76036 0.20636 0.67873 0.0
C1581 C 0.73532 0.19573 0.6868 0.0
C1582 C 0.71736 0.20856 0.71742 0.0
C1583 C 0.72487 0.23181 0.73994 0.0
C1584 C 0.74968 0.24169 0.73483 0.0
C1585 C 0.75314 0.26646 0.76462 0.0
C1586 C 0.77404 0.26278 0.80497 0.0
C1587 C 0.75952 0.28971 0.73074 0.0
C1588 C 0.72629 0.26912 0.78708 0.0
C1589 C 0.7102 0.24908 0.7718 0.0
C1590 C 0.68491 0.24654 0.78947 0.0
C1591 C 0.67641 0.2639 0.8261 0.0
C1592 C 0.69318 0.28346 0.84473 0.0
C1593 C 0.71798 0.28681 0.82334 0.0
H1594 H 0.95074 0.99761 0.45551 0.0
H1595 H 0.9831 0.92042 0.43869 0.0
H1596 H 0.01689 0.93076 0.50137 0.0
H1597 H 0.00849 0.03051 0.46215 0.0
H1598 H 0.99861 0.054 0.50814 0.0
H1599 H 0.97475 0.03954 0.46782 0.0
H1600 H 0.94811 0.02309 0.54338 0.0
H1601 H 0.97116 0.03872 0.58385 0.0
H1602 H 0.96418 0.00458 0.59135 0.0
H1603 H 0.05043 0.95214 0.55892 0.0
H1604 H 0.07451 0.9793 0.62 0.0
H1605 H 0.01973 0.04203 0.59663 0.0
C1606 C 0.96412 0.98248 0.46711 0.0
C1607 C 0.96391 0.95797 0.44385 0.0
C1608 C 0.9824 0.93894 0.45785 0.0
C1609 C 0.00194 0.94486 0.49259 0.0
C1610 C 0.00254 0.96985 0.51277 0.0
C1611 C 0.98358 0.98806 0.50164 0.0
C1612 C 0.98878 0.01374 0.52702 0.0
C1613 C 0.9929 0.03573 0.48899 0.0
C1614 C 0.96676 0.02041 0.56359 0.0
C1615 C 0.01376 0.00729 0.55385 0.0
C1616 C 0.02168 0.98203 0.54489 0.0
C1617 C 0.04428 0.9719 0.56635 0.0
C1618 C 0.05812 0.98752 0.60022 0.0
C1619 C 0.04909 0.01272 0.61215 0.0
C1620 C 0.02726 0.02295 0.58725 0.0
H1621 H 0.55326 0.97762 0.94355 0.0
H1622 H 0.54029 0.06049 0.96039 0.0
H1623 H 0.50392 0.05148 0.01816 0.0
H1624 H 0.48858 0.95776 0.94221 0.0
H1625 H 0.49336 0.92867 0.97856 0.0
H1626 H 0.51957 0.94137 0.94141 0.0
H1627 H 0.54967 0.94419 0.01861 0.0
H1628 H 0.52404 0.93012 0.05532 0.0
H1629 H 0.5383 0.96068 0.07358 0.0
H1630 H 0.46528 0.03273 0.0658 0.0
H1631 H 0.43748 0.00645 0.12196 0.0
H1632 H 0.47737 0.93662 0.07584 0.0
C1633 C 0.54324 0.99388 0.96054 0.0
C1634 C 0.54954 0.01973 0.94763 0.0
C1635 C 0.53603 0.04054 0.97047 0.0
C1636 C 0.51502 0.03558 0.00252 0.0
C1637 C 0.50804 0.00976 0.01139 0.0
C1638 C 0.52247 0.98931 0.99272 0.0
C1639 C 0.51189 0.96335 0.00964 0.0
C1640 C 0.50281 0.94682 0.96529 0.0
C1641 C 0.53216 0.94874 0.04118 0.0
C1642 C 0.48907 0.9723 0.0406 0.0
C1643 C 0.48669 0.99911 0.04013 0.0
C1644 C 0.46715 0.01176 0.06673 0.0
C1645 C 0.45112 0.99675 0.09781 0.0
C1646 C 0.45527 0.96972 0.10284 0.0
C1647 C 0.47347 0.95723 0.07178 0.0
loop_
_geom_bond_atom_site_label_1
_geom_bond_atom_site_label_2
_geom_bond_distance
_geom_bond_site_symmetry_2
_ccdc_geom_bond_type
Sc0 O3 2.025 . S
Sc0 O10 2.105 . S
Sc0 O13 2.105 . S
Sc0 O16 2.105 . S
Sc0 O19 2.105 1_554 S
Sc1 O3 2.025 1_556 S
Sc1 O11 2.105 . S
Sc1 O15 2.105 1_556 S
Sc1 O17 2.105 . S
Sc1 O21 2.105 . S
Sc2 O3 2.025 . S
Sc2 O12 2.105 . S
Sc2 O14 2.105 . S
Sc2 O18 2.105 . S
Sc2 O20 2.105 . S
O3 Sc0 2.025 . S
O3 Sc1 2.025 1_554 S
O3 Sc2 2.025 . S
C4 O10 1.268 . S
C4 O20 1.268 . S
C5 O11 1.268 . S
C5 O19 1.268 . S
C6 O12 1.268 1_556 S
C6 O21 1.268 . S
C7 O13 1.268 . S
C7 O17 1.268 1_554 S
C8 O14 1.268 . S
C8 O16 1.268 . S
C9 O15 1.268 . S
C9 O18 1.268 . S
O10 Sc0 2.105 . S
O10 C4 1.268 . S
O11 Sc1 2.105 . S
O11 C5 1.268 . S
O12 Sc2 2.105 . S
O12 C6 1.268 1_554 S
O13 Sc0 2.105 . S
O13 C7 1.268 . S
O14 Sc2 2.105 . S
O14 C8 1.268 . S
O15 Sc1 2.105 1_554 S
O15 C9 1.268 . S
O16 Sc0 2.105 . S
O16 C8 1.268 . S
O17 Sc1 2.105 . S
O17 C7 1.268 1_556 S
O18 Sc2 2.105 . S
O18 C9 1.268 . S
O19 Sc0 2.105 1_556 S
O19 C5 1.268 . S
O20 Sc2 2.105 . S
O20 C4 1.268 . S
O21 Sc1 2.105 . S
O21 C6 1.268 . S
Sc22 O25 2.025 . S
Sc22 O32 2.105 . S
Sc22 O35 2.105 . S
Sc22 O38 2.105 . S
Sc22 O41 2.105 . S
Sc23 O25 2.025 . S
Sc23 O33 2.105 . S
Sc23 O37 2.105 . S
Sc23 O39 2.105 . S
Sc23 O43 2.105 . S
Sc24 O25 2.025 . S
Sc24 O34 2.105 . S
Sc24 O36 2.105 . S
Sc24 O40 2.105 . S
Sc24 O42 2.105 . S
O25 Sc22 2.025 . S
O25 Sc23 2.025 . S
O25 Sc24 2.025 . S
C26 O32 1.268 . S
C26 O42 1.268 . S
C27 O33 1.268 . S
C27 O41 1.268 . S
C28 O34 1.268 . S
C28 O43 1.268 . S
C29 O35 1.268 . S
C29 O39 1.268 . S
C30 O36 1.268 . S
C30 O38 1.268 . S
C31 O37 1.268 . S
C31 O40 1.268 . S
O32 Sc22 2.105 . S
O32 C26 1.268 . S
O33 Sc23 2.105 . S
O33 C27 1.268 . S
O34 Sc24 2.105 . S
O34 C28 1.268 . S
O35 Sc22 2.105 . S
O35 C29 1.268 . S
O36 Sc24 2.105 . S
O36 C30 1.268 . S
O37 Sc23 2.105 . S
O37 C31 1.268 . S
O38 Sc22 2.105 . S
O38 C30 1.268 . S
O39 Sc23 2.105 . S
O39 C29 1.268 . S
O40 Sc24 2.105 . S
O40 C31 1.268 . S
O41 Sc22 2.105 . S
O41 C27 1.268 . S
O42 Sc24 2.105 . S
O42 C26 1.268 . S
O43 Sc23 2.105 . S
O43 C28 1.268 . S
Sc44 O47 2.025 . S
Sc44 O54 2.105 . S
Sc44 O57 2.105 . S
Sc44 O60 2.105 . S
Sc44 O63 2.105 . S
Sc45 O47 2.025 . S
Sc45 O55 2.105 . S
Sc45 O59 2.105 . S
Sc45 O61 2.105 . S
Sc45 O65 2.105 . S
Sc46 O47 2.025 . S
Sc46 O56 2.105 . S
Sc46 O58 2.105 . S
Sc46 O62 2.105 . S
Sc46 O64 2.105 . S
O47 Sc44 2.025 . S
O47 Sc45 2.025 . S
O47 Sc46 2.025 . S
C48 O54 1.268 . S
C48 O64 1.268 . S
C49 O55 1.268 . S
C49 O63 1.268 . S
C50 O56 1.268 . S
C50 O65 1.268 . S
C51 O57 1.268 . S
C51 O61 1.268 . S
C52 O58 1.268 . S
C52 O60 1.268 . S
C53 O59 1.268 . S
C53 O62 1.268 . S
O54 Sc44 2.105 . S
O54 C48 1.268 . S
O55 Sc45 2.105 . S
O55 C49 1.268 . S
O56 Sc46 2.105 . S
O56 C50 1.268 . S
O57 Sc44 2.105 . S
O57 C51 1.268 . S
O58 Sc46 2.105 . S
O58 C52 1.268 . S
O59 Sc45 2.105 . S
O59 C53 1.268 . S
O60 Sc44 2.105 . S
O60 C52 1.268 . S
O61 Sc45 2.105 . S
O61 C51 1.268 . S
O62 Sc46 2.105 . S
O62 C53 1.268 . S
O63 Sc44 2.105 . S
O63 C49 1.268 . S
O64 Sc46 2.105 . S
O64 C48 1.268 . S
O65 Sc45 2.105 . S
O65 C50 1.268 . S
Sc66 O69 2.025 . S
Sc66 O76 2.105 1_655 S
Sc66 O79 2.105 . S
Sc66 O82 2.105 . S
Sc66 O85 2.105 . S
Sc67 O69 2.025 . S
Sc67 O77 2.105 . S
Sc67 O81 2.105 . S
Sc67 O83 2.105 . S
Sc67 O87 2.105 . S
Sc68 O69 2.025 . S
Sc68 O78 2.105 . S
Sc68 O80 2.105 . S
Sc68 O84 2.105 . S
Sc68 O86 2.105 . S
O69 Sc66 2.025 . S
O69 Sc67 2.025 . S
O69 Sc68 2.025 . S
C70 O76 1.268 . S
C70 O86 1.268 1_455 S
C71 O77 1.268 . S
C71 O85 1.268 . S
C72 O78 1.268 . S
C72 O87 1.268 . S
C73 O79 1.268 . S
C73 O83 1.268 . S
C74 O80 1.268 . S
C74 O82 1.268 . S
C75 O81 1.268 . S
C75 O84 1.268 . S
O76 Sc66 2.105 1_455 S
O76 C70 1.268 . S
O77 Sc67 2.105 . S
O77 C71 1.268 . S
O78 Sc68 2.105 . S
O78 C72 1.268 . S
O79 Sc66 2.105 . S
O79 C73 1.268 . S
O80 Sc68 2.105 . S
O80 C74 1.268 . S
O81 Sc67 2.105 . S
O81 C75 1.268 . S
O82 Sc66 2.105 . S
O82 C74 1.268 . S
O83 Sc67 2.105 . S
O83 C73 1.268 . S
O84 Sc68 2.105 . S
O84 C75 1.268 . S
O85 Sc66 2.105 . S
O85 C71 1.268 . S
O86 Sc68 2.105 . S
O86 C70 1.268 1_655 S
O87 Sc67 2.105 . S
O87 C72 1.268 . S
Sc88 O91 2.025 . S
Sc88 O98 2.105 1_554 S
Sc88 O101 2.105 . S
Sc88 O104 2.105 . S
Sc88 O107 2.105 . S
Sc89 O91 2.025 . S
Sc89 O99 2.105 . S
Sc89 O103 2.105 . S
Sc89 O105 2.105 . S
Sc89 O109 2.105 . S
Sc90 O91 2.025 1_556 S
Sc90 O100 2.105 . S
Sc90 O102 2.105 1_556 S
Sc90 O106 2.105 1_556 S
Sc90 O108 2.105 . S
O91 Sc88 2.025 . S
O91 Sc89 2.025 . S
O91 Sc90 2.025 1_554 S
C92 O98 1.268 . S
C92 O108 1.268 . S
C93 O99 1.268 . S
C93 O107 1.268 . S
C94 O100 1.268 . S
C94 O109 1.268 1_556 S
C95 O101 1.268 . S
C95 O105 1.268 . S
C96 O102 1.268 . S
C96 O104 1.268 . S
C97 O103 1.268 . S
C97 O106 1.268 . S
O98 Sc88 2.105 1_556 S
O98 C92 1.268 . S
O99 Sc89 2.105 . S
O99 C93 1.268 . S
O100 Sc90 2.105 . S
O100 C94 1.268 . S
O101 Sc88 2.105 . S
O101 C95 1.268 . S
O102 Sc90 2.105 1_554 S
O102 C96 1.268 . S
O103 Sc89 2.105 . S
O103 C97 1.268 . S
O104 Sc88 2.105 . S
O104 C96 1.268 . S
O105 Sc89 2.105 . S
O105 C95 1.268 . S
O106 Sc90 2.105 1_554 S
O106 C97 1.268 . S
O107 Sc88 2.105 . S
O107 C93 1.268 . S
O108 Sc90 2.105 . S
O108 C92 1.268 . S
O109 Sc89 2.105 . S
O109 C94 1.268 1_554 S
Sc110 O113 2.025 . S
Sc110 O120 2.105 . S
Sc110 O123 2.105 . S
Sc110 O126 2.105 . S
Sc110 O129 2.105 . S
Sc111 O113 2.025 . S
Sc111 O121 2.105 . S
Sc111 O125 2.105 . S
Sc111 O127 2.105 . S
Sc111 O131 2.105 . S
Sc112 O113 2.025 . S
Sc112 O122 2.105 . S
Sc112 O124 2.105 . S
Sc112 O128 2.105 . S
Sc112 O130 2.105 . S
O113 Sc110 2.025 . S
O113 Sc111 2.025 . S
O113 Sc112 2.025 . S
C114 O120 1.268 . S
C114 O130 1.268 . S
C115 O121 1.268 . S
C115 O129 1.268 . S
C116 O122 1.268 . S
C116 O131 1.268 . S
C117 O123 1.268 . S
C117 O127 1.268 . S
C118 O124 1.268 . S
C118 O126 1.268 . S
C119 O125 1.268 . S
C119 O128 1.268 . S
O120 Sc110 2.105 . S
O120 C114 1.268 . S
O121 Sc111 2.105 . S
O121 C115 1.268 . S
O122 Sc112 2.105 . S
O122 C116 1.268 . S
O123 Sc110 2.105 . S
O123 C117 1.268 . S
O124 Sc112 2.105 . S
O124 C118 1.268 . S
O125 Sc111 2.105 . S
O125 C119 1.268 . S
O126 Sc110 2.105 . S
O126 C118 1.268 . S
O127 Sc111 2.105 . S
O127 C117 1.268 . S
O128 Sc112 2.105 . S
O128 C119 1.268 . S
O129 Sc110 2.105 . S
O129 C115 1.268 . S
O130 Sc112 2.105 . S
O130 C114 1.268 . S
O131 Sc111 2.105 . S
O131 C116 1.268 . S
Sc132 O135 2.025 . S
Sc132 O142 2.105 . S
Sc132 O145 2.105 . S
Sc132 O148 2.105 . S
Sc132 O151 2.105 . S
Sc133 O135 2.025 . S
Sc133 O143 2.105 . S
Sc133 O147 2.105 . S
Sc133 O149 2.105 . S
Sc133 O153 2.105 . S
Sc134 O135 2.025 . S
Sc134 O144 2.105 . S
Sc134 O146 2.105 . S
Sc134 O150 2.105 . S
Sc134 O152 2.105 . S
O135 Sc132 2.025 . S
O135 Sc133 2.025 . S
O135 Sc134 2.025 . S
C136 O142 1.268 . S
C136 O152 1.268 . S
C137 O143 1.268 . S
C137 O151 1.268 . S
C138 O144 1.268 . S
C138 O153 1.268 . S
C139 O145 1.268 . S
C139 O149 1.268 . S
C140 O146 1.268 . S
C140 O148 1.268 . S
C141 O147 1.268 . S
C141 O150 1.268 . S
O142 Sc132 2.105 . S
O142 C136 1.268 . S
O143 Sc133 2.105 . S
O143 C137 1.268 . S
O144 Sc134 2.105 . S
O144 C138 1.268 . S
O145 Sc132 2.105 . S
O145 C139 1.268 . S
O146 Sc134 2.105 . S
O146 C140 1.268 . S
O147 Sc133 2.105 . S
O147 C141 1.268 . S
O148 Sc132 2.105 . S
O148 C140 1.268 . S
O149 Sc133 2.105 . S
O149 C139 1.268 . S
O150 Sc134 2.105 . S
O150 C141 1.268 . S
O151 Sc132 2.105 . S
O151 C137 1.268 . S
O152 Sc134 2.105 . S
O152 C136 1.268 . S
O153 Sc133 2.105 . S
O153 C138 1.268 . S
Sc154 O157 2.025 . S
Sc154 O164 2.105 . S
Sc154 O167 2.105 . S
Sc154 O170 2.105 . S
Sc154 O173 2.105 . S
Sc155 O157 2.025 . S
Sc155 O165 2.105 . S
Sc155 O169 2.105 . S
Sc155 O171 2.105 . S
Sc155 O175 2.105 . S
Sc156 O157 2.025 . S
Sc156 O166 2.105 . S
Sc156 O168 2.105 . S
Sc156 O172 2.105 . S
Sc156 O174 2.105 1_455 S
O157 Sc154 2.025 . S
O157 Sc155 2.025 . S
O157 Sc156 2.025 . S
C158 O164 1.268 1_655 S
C158 O174 1.268 . S
C159 O165 1.268 . S
C159 O173 1.268 . S
C160 O166 1.268 . S
C160 O175 1.268 . S
C161 O167 1.268 . S
C161 O171 1.268 . S
C162 O168 1.268 . S
C162 O170 1.268 . S
C163 O169 1.268 . S
C163 O172 1.268 . S
O164 Sc154 2.105 . S
O164 C158 1.268 1_455 S
O165 Sc155 2.105 . S
O165 C159 1.268 . S
O166 Sc156 2.105 . S
O166 C160 1.268 . S
O167 Sc154 2.105 . S
O167 C161 1.268 . S
O168 Sc156 2.105 . S
O168 C162 1.268 . S
O169 Sc155 2.105 . S
O169 C163 1.268 . S
O170 Sc154 2.105 . S
O170 C162 1.268 . S
O171 Sc155 2.105 . S
O171 C161 1.268 . S
O172 Sc156 2.105 . S
O172 C163 1.268 . S
O173 Sc154 2.105 . S
O173 C159 1.268 . S
O174 Sc156 2.105 1_655 S
O174 C158 1.268 . S
O175 Sc155 2.105 . S
O175 C160 1.268 . S
Sc176 O179 2.025 . S
Sc176 O186 2.105 . S
Sc176 O189 2.105 . S
Sc176 O192 2.105 . S
Sc176 O195 2.105 . S
Sc177 O179 2.025 . S
Sc177 O187 2.105 . S
Sc177 O191 2.105 . S
Sc177 O193 2.105 . S
Sc177 O197 2.105 . S
Sc178 O179 2.025 . S
Sc178 O188 2.105 . S
Sc178 O190 2.105 . S
Sc178 O194 2.105 . S
Sc178 O196 2.105 . S
O179 Sc176 2.025 . S
O179 Sc177 2.025 . S
O179 Sc178 2.025 . S
C180 O186 1.268 . S
C180 O196 1.268 . S
C181 O187 1.268 . S
C181 O195 1.268 . S
C182 O188 1.268 . S
C182 O197 1.268 . S
C183 O189 1.268 . S
C183 O193 1.268 . S
C184 O190 1.268 . S
C184 O192 1.268 . S
C185 O191 1.268 . S
C185 O194 1.268 . S
O186 Sc176 2.105 . S
O186 C180 1.268 . S
O187 Sc177 2.105 . S
O187 C181 1.268 . S
O188 Sc178 2.105 . S
O188 C182 1.268 . S
O189 Sc176 2.105 . S
O189 C183 1.268 . S
O190 Sc178 2.105 . S
O190 C184 1.268 . S
O191 Sc177 2.105 . S
O191 C185 1.268 . S
O192 Sc176 2.105 . S
O192 C184 1.268 . S
O193 Sc177 2.105 . S
O193 C183 1.268 . S
O194 Sc178 2.105 . S
O194 C185 1.268 . S
O195 Sc176 2.105 . S
O195 C181 1.268 . S
O196 Sc178 2.105 . S
O196 C180 1.268 . S
O197 Sc177 2.105 . S
O197 C182 1.268 . S
Sc198 O201 2.025 . S
Sc198 O208 2.105 . S
Sc198 O211 2.105 . S
Sc198 O214 2.105 . S
Sc198 O217 2.105 . S
Sc199 O201 2.025 . S
Sc199 O209 2.105 . S
Sc199 O213 2.105 . S
Sc199 O215 2.105 . S
Sc199 O219 2.105 . S
Sc200 O201 2.025 . S
Sc200 O210 2.105 1_545 S
Sc200 O212 2.105 1_455 S
Sc200 O216 2.105 . S
Sc200 O218 2.105 . S
O201 Sc198 2.025 . S
O201 Sc199 2.025 . S
O201 Sc200 2.025 . S
C202 O208 1.268 . S
C202 O218 1.268 . S
C203 O209 1.268 . S
C203 O217 1.268 . S
C204 O210 1.268 . S
C204 O219 1.268 1_565 S
C205 O211 1.268 . S
C205 O215 1.268 . S
C206 O212 1.268 . S
C206 O214 1.268 1_655 S
C207 O213 1.268 . S
C207 O216 1.268 . S
O208 Sc198 2.105 . S
O208 C202 1.268 . S
O209 Sc199 2.105 . S
O209 C203 1.268 . S
O210 Sc200 2.105 1_565 S
O210 C204 1.268 . S
O211 Sc198 2.105 . S
O211 C205 1.268 . S
O212 Sc200 2.105 1_655 S
O212 C206 1.268 . S
O213 Sc199 2.105 . S
O213 C207 1.268 . S
O214 Sc198 2.105 . S
O214 C206 1.268 1_455 S
O215 Sc199 2.105 . S
O215 C205 1.268 . S
O216 Sc200 2.105 . S
O216 C207 1.268 . S
O217 Sc198 2.105 . S
O217 C203 1.268 . S
O218 Sc200 2.105 . S
O218 C202 1.268 . S
O219 Sc199 2.105 . S
O219 C204 1.268 1_545 S
Sc220 O223 2.025 . S
Sc220 O230 2.105 . S
Sc220 O233 2.105 . S
Sc220 O236 2.105 . S
Sc220 O239 2.105 . S
Sc221 O223 2.025 1_556 S
Sc221 O231 2.105 1_556 S
Sc221 O235 2.105 . S
Sc221 O237 2.105 . S
Sc221 O241 2.105 . S
Sc222 O223 2.025 . S
Sc222 O232 2.105 . S
Sc222 O234 2.105 . S
Sc222 O238 2.105 1_554 S
Sc222 O240 2.105 . S
O223 Sc220 2.025 . S
O223 Sc221 2.025 1_554 S
O223 Sc222 2.025 . S
C224 O230 1.268 . S
C224 O240 1.268 . S
C225 O231 1.268 . S
C225 O239 1.268 . S
C226 O232 1.268 . S
C226 O241 1.268 1_554 S
C227 O233 1.268 1_556 S
C227 O237 1.268 . S
C228 O234 1.268 . S
C228 O236 1.268 . S
C229 O235 1.268 . S
C229 O238 1.268 . S
O230 Sc220 2.105 . S
O230 C224 1.268 . S
O231 Sc221 2.105 1_554 S
O231 C225 1.268 . S
O232 Sc222 2.105 . S
O232 C226 1.268 . S
O233 Sc220 2.105 . S
O233 C227 1.268 1_554 S
O234 Sc222 2.105 . S
O234 C228 1.268 . S
O235 Sc221 2.105 . S
O235 C229 1.268 . S
O236 Sc220 2.105 . S
O236 C228 1.268 . S
O237 Sc221 2.105 . S
O237 C227 1.268 . S
O238 Sc222 2.105 1_556 S
O238 C229 1.268 . S
O239 Sc220 2.105 . S
O239 C225 1.268 . S
O240 Sc222 2.105 . S
O240 C224 1.268 . S
O241 Sc221 2.105 . S
O241 C226 1.268 1_556 S
Sc242 O245 2.025 . S
Sc242 O252 2.105 . S
Sc242 O255 2.105 1_565 S
Sc242 O258 2.105 . S
Sc242 O261 2.105 . S
Sc243 O245 2.025 . S
Sc243 O253 2.105 . S
Sc243 O257 2.105 . S
Sc243 O259 2.105 . S
Sc243 O263 2.105 . S
Sc244 O245 2.025 . S
Sc244 O254 2.105 . S
Sc244 O256 2.105 . S
Sc244 O260 2.105 . S
Sc244 O262 2.105 . S
O245 Sc242 2.025 . S
O245 Sc243 2.025 . S
O245 Sc244 2.025 . S
C246 O252 1.268 . S
C246 O262 1.268 . S
C247 O253 1.268 . S
C247 O261 1.268 . S
C248 O254 1.268 . S
C248 O263 1.268 . S
C249 O255 1.268 . S
C249 O259 1.268 1_545 S
C250 O256 1.268 . S
C250 O258 1.268 . S
C251 O257 1.268 . S
C251 O260 1.268 . S
O252 Sc242 2.105 . S
O252 C246 1.268 . S
O253 Sc243 2.105 . S
O253 C247 1.268 . S
O254 Sc244 2.105 . S
O254 C248 1.268 . S
O255 Sc242 2.105 1_545 S
O255 C249 1.268 . S
O256 Sc244 2.105 . S
O256 C250 1.268 . S
O257 Sc243 2.105 . S
O257 C251 1.268 . S
O258 Sc242 2.105 . S
O258 C250 1.268 . S
O259 Sc243 2.105 . S
O259 C249 1.268 1_565 S
O260 Sc244 2.105 . S
O260 C251 1.268 . S
O261 Sc242 2.105 . S
O261 C247 1.268 . S
O262 Sc244 2.105 . S
O262 C246 1.268 . S
O263 Sc243 2.105 . S
O263 C248 1.268 . S
Sc264 O267 2.025 . S
Sc264 O274 2.105 . S
Sc264 O277 2.105 . S
Sc264 O280 2.105 . S
Sc264 O283 2.105 . S
Sc265 O267 2.025 . S
Sc265 O275 2.105 . S
Sc265 O279 2.105 . S
Sc265 O281 2.105 . S
Sc265 O285 2.105 . S
Sc266 O267 2.025 . S
Sc266 O276 2.105 . S
Sc266 O278 2.105 . S
Sc266 O282 2.105 . S
Sc266 O284 2.105 . S
O267 Sc264 2.025 . S
O267 Sc265 2.025 . S
O267 Sc266 2.025 . S
C268 O274 1.268 . S
C268 O284 1.268 . S
C269 O275 1.268 . S
C269 O283 1.268 . S
C270 O276 1.268 . S
C270 O285 1.268 . S
C271 O277 1.268 . S
C271 O281 1.268 . S
C272 O278 1.268 . S
C272 O280 1.268 . S
C273 O279 1.268 . S
C273 O282 1.268 . S
O274 Sc264 2.105 . S
O274 C268 1.268 . S
O275 Sc265 2.105 . S
O275 C269 1.268 . S
O276 Sc266 2.105 . S
O276 C270 1.268 . S
O277 Sc264 2.105 . S
O277 C271 1.268 . S
O278 Sc266 2.105 . S
O278 C272 1.268 . S
O279 Sc265 2.105 . S
O279 C273 1.268 . S
O280 Sc264 2.105 . S
O280 C272 1.268 . S
O281 Sc265 2.105 . S
O281 C271 1.268 . S
O282 Sc266 2.105 . S
O282 C273 1.268 . S
O283 Sc264 2.105 . S
O283 C269 1.268 . S
O284 Sc266 2.105 . S
O284 C268 1.268 . S
O285 Sc265 2.105 . S
O285 C270 1.268 . S
Sc286 O289 2.025 . S
Sc286 O296 2.105 . S
Sc286 O299 2.105 . S
Sc286 O302 2.105 1_655 S
Sc286 O305 2.105 1_565 S
Sc287 O289 2.025 . S
Sc287 O297 2.105 . S
Sc287 O301 2.105 . S
Sc287 O303 2.105 . S
Sc287 O307 2.105 . S
Sc288 O289 2.025 . S
Sc288 O298 2.105 . S
Sc288 O300 2.105 . S
Sc288 O304 2.105 . S
Sc288 O306 2.105 . S
O289 Sc286 2.025 . S
O289 Sc287 2.025 . S
O289 Sc288 2.025 . S
C290 O296 1.268 . S
C290 O306 1.268 . S
C291 O297 1.268 1_545 S
C291 O305 1.268 . S
C292 O298 1.268 . S
C292 O307 1.268 . S
C293 O299 1.268 . S
C293 O303 1.268 . S
C294 O300 1.268 1_455 S
C294 O302 1.268 . S
C295 O301 1.268 . S
C295 O304 1.268 . S
O296 Sc286 2.105 . S
O296 C290 1.268 . S
O297 Sc287 2.105 . S
O297 C291 1.268 1_565 S
O298 Sc288 2.105 . S
O298 C292 1.268 . S
O299 Sc286 2.105 . S
O299 C293 1.268 . S
O300 Sc288 2.105 . S
O300 C294 1.268 1_655 S
O301 Sc287 2.105 . S
O301 C295 1.268 . S
O302 Sc286 2.105 1_455 S
O302 C294 1.268 . S
O303 Sc287 2.105 . S
O303 C293 1.268 . S
O304 Sc288 2.105 . S
O304 C295 1.268 . S
O305 Sc286 2.105 1_545 S
O305 C291 1.268 . S
O306 Sc288 2.105 . S
O306 C290 1.268 . S
O307 Sc287 2.105 . S
O307 C292 1.268 . S
Sc308 O311 2.025 1_556 S
Sc308 O318 2.105 1_556 S
Sc308 O321 2.105 . S
Sc308 O324 2.105 . S
Sc308 O327 2.105 1_556 S
Sc309 O311 2.025 . S
Sc309 O319 2.105 . S
Sc309 O323 2.105 . S
Sc309 O325 2.105 . S
Sc309 O329 2.105 . S
Sc310 O311 2.025 . S
Sc310 O320 2.105 . S
Sc310 O322 2.105 1_554 S
Sc310 O326 2.105 . S
Sc310 O328 2.105 . S
O311 Sc308 2.025 1_554 S
O311 Sc309 2.025 . S
O311 Sc310 2.025 . S
C312 O318 1.268 . S
C312 O328 1.268 . S
C313 O319 1.268 . S
C313 O327 1.268 . S
C314 O320 1.268 . S
C314 O329 1.268 . S
C315 O321 1.268 . S
C315 O325 1.268 1_556 S
C316 O322 1.268 . S
C316 O324 1.268 . S
C317 O323 1.268 . S
C317 O326 1.268 . S
O318 Sc308 2.105 1_554 S
O318 C312 1.268 . S
O319 Sc309 2.105 . S
O319 C313 1.268 . S
O320 Sc310 2.105 . S
O320 C314 1.268 . S
O321 Sc308 2.105 . S
O321 C315 1.268 . S
O322 Sc310 2.105 1_556 S
O322 C316 1.268 . S
O323 Sc309 2.105 . S
O323 C317 1.268 . S
O324 Sc308 2.105 . S
O324 C316 1.268 . S
O325 Sc309 2.105 . S
O325 C315 1.268 1_554 S
O326 Sc310 2.105 . S
O326 C317 1.268 . S
O327 Sc308 2.105 1_554 S
O327 C313 1.268 . S
O328 Sc310 2.105 . S
O328 C312 1.268 . S
O329 Sc309 2.105 . S
O329 C314 1.268 . S
Sc330 O333 2.025 . S
Sc330 O340 2.105 . S
Sc330 O343 2.105 . S
Sc330 O346 2.105 . S
Sc330 O349 2.105 . S
Sc331 O333 2.025 . S
Sc331 O341 2.105 . S
Sc331 O345 2.105 . S
Sc331 O347 2.105 . S
Sc331 O351 2.105 . S
Sc332 O333 2.025 . S
Sc332 O342 2.105 . S
Sc332 O344 2.105 . S
Sc332 O348 2.105 1_545 S
Sc332 O350 2.105 . S
O333 Sc330 2.025 . S
O333 Sc331 2.025 . S
O333 Sc332 2.025 . S
C334 O340 1.268 . S
C334 O350 1.268 . S
C335 O341 1.268 . S
C335 O349 1.268 . S
C336 O342 1.268 . S
C336 O351 1.268 . S
C337 O343 1.268 . S
C337 O347 1.268 . S
C338 O344 1.268 . S
C338 O346 1.268 . S
C339 O345 1.268 1_565 S
C339 O348 1.268 . S
O340 Sc330 2.105 . S
O340 C334 1.268 . S
O341 Sc331 2.105 . S
O341 C335 1.268 . S
O342 Sc332 2.105 . S
O342 C336 1.268 . S
O343 Sc330 2.105 . S
O343 C337 1.268 . S
O344 Sc332 2.105 . S
O344 C338 1.268 . S
O345 Sc331 2.105 . S
O345 C339 1.268 1_545 S
O346 Sc330 2.105 . S
O346 C338 1.268 . S
O347 Sc331 2.105 . S
O347 C337 1.268 . S
O348 Sc332 2.105 1_565 S
O348 C339 1.268 . S
O349 Sc330 2.105 . S
O349 C335 1.268 . S
O350 Sc332 2.105 . S
O350 C334 1.268 . S
O351 Sc331 2.105 . S
O351 C336 1.268 . S
H352 C364 0.930 . S
H353 C366 0.930 . S
H354 C367 0.930 1_554 S
H355 C371 0.959 . S
H356 C371 0.959 . S
H357 C371 0.961 . S
H358 C372 0.960 . S
H359 C372 0.961 . S
H360 C372 0.959 . S
H361 C375 0.929 . S
H362 C376 0.931 . S
H363 C378 0.930 . S
C364 H352 0.930 . S
C364 C365 1.399 . S
C364 C369 1.399 . S
C365 C364 1.399 . S
C365 C366 1.376 1_556 S
C366 H353 0.930 . S
C366 C365 1.376 1_554 S
C366 C367 1.388 1_554 S
C367 H354 0.930 1_556 S
C367 C366 1.388 1_556 S
C367 C368 1.390 . S
C368 C367 1.390 . S
C368 C369 1.394 . S
C368 C374 1.465 . S
C369 C364 1.399 . S
C369 C368 1.394 . S
C369 C370 1.516 . S
C370 C369 1.516 . S
C370 C371 1.502 . S
C370 C372 1.561 . S
C370 C373 1.526 . S
C371 H355 0.959 . S
C371 H356 0.959 . S
C371 H357 0.961 . S
C371 C370 1.502 . S
C372 H358 0.960 . S
C372 H359 0.961 . S
C372 H360 0.959 . S
C372 C370 1.561 . S
C373 C370 1.526 . S
C373 C374 1.396 . S
C373 C378 1.390 . S
C374 C368 1.465 . S
C374 C373 1.396 . S
C374 C375 1.399 . S
C375 H361 0.929 . S
C375 C374 1.399 . S
C375 C376 1.385 . S
C376 H362 0.931 . S
C376 C375 1.385 . S
C376 C377 1.389 . S
C377 C376 1.389 . S
C377 C378 1.387 . S
C378 H363 0.930 . S
C378 C373 1.390 . S
C378 C377 1.387 . S
H379 C391 0.930 . S
H380 C393 0.930 . S
H381 C394 0.930 . S
H382 C398 0.959 . S
H383 C398 0.959 . S
H384 C398 0.961 . S
H385 C399 0.960 . S
H386 C399 0.961 . S
H387 C399 0.959 . S
H388 C402 0.929 . S
H389 C403 0.931 . S
H390 C405 0.930 . S
C391 H379 0.930 . S
C391 C392 1.399 . S
C391 C396 1.399 . S
C392 C391 1.399 . S
C392 C393 1.376 . S
C393 H380 0.930 . S
C393 C392 1.376 . S
C393 C394 1.388 . S
C394 H381 0.930 . S
C394 C393 1.388 . S
C394 C395 1.390 . S
C395 C394 1.390 . S
C395 C396 1.394 . S
C395 C401 1.465 . S
C396 C391 1.399 . S
C396 C395 1.394 . S
C396 C397 1.516 . S
C397 C396 1.516 . S
C397 C398 1.502 . S
C397 C399 1.561 . S
C397 C400 1.526 . S
C398 H382 0.959 . S
C398 H383 0.959 . S
C398 H384 0.961 . S
C398 C397 1.502 . S
C399 H385 0.960 . S
C399 H386 0.961 . S
C399 H387 0.959 . S
C399 C397 1.561 . S
C400 C397 1.526 . S
C400 C401 1.396 . S
C400 C405 1.390 . S
C401 C395 1.465 . S
C401 C400 1.396 . S
C401 C402 1.399 . S
C402 H388 0.929 . S
C402 C401 1.399 . S
C402 C403 1.385 . S
C403 H389 0.931 . S
C403 C402 1.385 . S
C403 C404 1.389 . S
C404 C403 1.389 . S
C404 C405 1.387 . S
C405 H390 0.930 . S
C405 C400 1.390 . S
C405 C404 1.387 . S
H406 C418 0.930 . S
H407 C420 0.930 . S
H408 C421 0.930 . S
H409 C425 0.959 . S
H410 C425 0.959 . S
H411 C425 0.961 . S
H412 C426 0.960 . S
H413 C426 0.961 . S
H414 C426 0.959 . S
H415 C429 0.929 . S
H416 C430 0.931 . S
H417 C432 0.930 . S
C418 H406 0.930 . S
C418 C419 1.399 . S
C418 C423 1.399 . S
C419 C418 1.399 . S
C419 C420 1.376 . S
C420 H407 0.930 . S
C420 C419 1.376 . S
C420 C421 1.388 . S
C421 H408 0.930 . S
C421 C420 1.388 . S
C421 C422 1.390 . S
C422 C421 1.390 . S
C422 C423 1.394 . S
C422 C428 1.465 . S
C423 C418 1.399 . S
C423 C422 1.394 . S
C423 C424 1.516 . S
C424 C423 1.516 . S
C424 C425 1.502 . S
C424 C426 1.561 . S
C424 C427 1.526 . S
C425 H409 0.959 . S
C425 H410 0.959 . S
C425 H411 0.961 . S
C425 C424 1.502 . S
C426 H412 0.960 . S
C426 H413 0.961 . S
C426 H414 0.959 . S
C426 C424 1.561 . S
C427 C424 1.526 . S
C427 C428 1.396 . S
C427 C432 1.390 . S
C428 C422 1.465 . S
C428 C427 1.396 . S
C428 C429 1.399 . S
C429 H415 0.929 . S
C429 C428 1.399 . S
C429 C430 1.385 . S
C430 H416 0.931 . S
C430 C429 1.385 . S
C430 C431 1.389 . S
C431 C430 1.389 . S
C431 C432 1.387 . S
C432 H417 0.930 . S
C432 C427 1.390 . S
C432 C431 1.387 . S
H433 C445 0.930 . S
H434 C447 0.930 . S
H435 C448 0.930 . S
H436 C452 0.959 . S
H437 C452 0.959 . S
H438 C452 0.961 . S
H439 C453 0.960 . S
H440 C453 0.961 . S
H441 C453 0.959 . S
H442 C456 0.929 . S
H443 C457 0.931 . S
H444 C459 0.930 . S
C445 H433 0.930 . S
C445 C446 1.399 . S
C445 C450 1.399 . S
C446 C445 1.399 . S
C446 C447 1.376 . S
C447 H434 0.930 . S
C447 C446 1.376 . S
C447 C448 1.388 . S
C448 H435 0.930 . S
C448 C447 1.388 . S
C448 C449 1.390 . S
C449 C448 1.390 . S
C449 C450 1.394 . S
C449 C455 1.465 . S
C450 C445 1.399 . S
C450 C449 1.394 . S
C450 C451 1.516 . S
C451 C450 1.516 . S
C451 C452 1.502 . S
C451 C453 1.561 . S
C451 C454 1.526 . S
C452 H436 0.959 . S
C452 H437 0.959 . S
C452 H438 0.961 . S
C452 C451 1.502 . S
C453 H439 0.960 . S
C453 H440 0.961 . S
C453 H441 0.959 . S
C453 C451 1.561 . S
C454 C451 1.526 . S
C454 C455 1.396 . S
C454 C459 1.390 . S
C455 C449 1.465 . S
C455 C454 1.396 . S
C455 C456 1.399 . S
C456 H442 0.929 . S
C456 C455 1.399 . S
C456 C457 1.385 . S
C457 H443 0.931 . S
C457 C456 1.385 . S
C457 C458 1.389 . S
C458 C457 1.389 . S
C458 C459 1.387 . S
C459 H444 0.930 . S
C459 C454 1.390 . S
C459 C458 1.387 . S
H460 C472 0.930 . S
H461 C474 0.930 1_556 S
H462 C475 0.930 . S
H463 C479 0.959 . S
H464 C479 0.959 . S
H465 C479 0.961 . S
H466 C480 0.960 . S
H467 C480 0.961 . S
H468 C480 0.959 . S
H469 C483 0.929 . S
H470 C484 0.931 . S
H471 C486 0.930 . S
C472 H460 0.930 . S
C472 C473 1.399 . S
C472 C477 1.399 . S
C473 C472 1.399 . S
C473 C474 1.376 . S
C474 H461 0.930 1_554 S
C474 C473 1.376 . S
C474 C475 1.388 . S
C475 H462 0.930 . S
C475 C474 1.388 . S
C475 C476 1.390 . S
C476 C475 1.390 . S
C476 C477 1.394 . S
C476 C482 1.465 . S
C477 C472 1.399 . S
C477 C476 1.394 . S
C477 C478 1.516 . S
C478 C477 1.516 . S
C478 C479 1.502 . S
C478 C480 1.561 . S
C478 C481 1.526 . S
C479 H463 0.959 . S
C479 H464 0.959 . S
C479 H465 0.961 . S
C479 C478 1.502 . S
C480 H466 0.960 . S
C480 H467 0.961 . S
C480 H468 0.959 . S
C480 C478 1.561 . S
C481 C478 1.526 . S
C481 C482 1.396 . S
C481 C486 1.390 . S
C482 C476 1.465 . S
C482 C481 1.396 . S
C482 C483 1.399 . S
C483 H469 0.929 . S
C483 C482 1.399 . S
C483 C484 1.385 . S
C484 H470 0.931 . S
C484 C483 1.385 . S
C484 C485 1.389 . S
C485 C484 1.389 . S
C485 C486 1.387 . S
C486 H471 0.930 . S
C486 C481 1.390 . S
C486 C485 1.387 . S
H487 C499 0.930 . S
H488 C501 0.930 . S
H489 C502 0.930 . S
H490 C506 0.959 . S
H491 C506 0.959 . S
H492 C506 0.961 . S
H493 C507 0.960 . S
H494 C507 0.961 . S
H495 C507 0.959 . S
H496 C510 0.929 . S
H497 C511 0.931 . S
H498 C513 0.930 . S
C499 H487 0.930 . S
C499 C500 1.399 . S
C499 C504 1.399 . S
C500 C499 1.399 . S
C500 C501 1.376 . S
C501 H488 0.930 . S
C501 C500 1.376 . S
C501 C502 1.388 . S
C502 H489 0.930 . S
C502 C501 1.388 . S
C502 C503 1.390 . S
C503 C502 1.390 . S
C503 C504 1.394 . S
C503 C509 1.465 . S
C504 C499 1.399 . S
C504 C503 1.394 . S
C504 C505 1.516 . S
C505 C504 1.516 . S
C505 C506 1.502 . S
C505 C507 1.561 . S
C505 C508 1.526 . S
C506 H490 0.959 . S
C506 H491 0.959 . S
C506 H492 0.961 . S
C506 C505 1.502 . S
C507 H493 0.960 . S
C507 H494 0.961 . S
C507 H495 0.959 . S
C507 C505 1.561 . S
C508 C505 1.526 . S
C508 C509 1.396 . S
C508 C513 1.390 . S
C509 C503 1.465 . S
C509 C508 1.396 . S
C509 C510 1.399 . S
C510 H496 0.929 . S
C510 C509 1.399 . S
C510 C511 1.385 . S
C511 H497 0.931 . S
C511 C510 1.385 . S
C511 C512 1.389 . S
C512 C511 1.389 . S
C512 C513 1.387 . S
C513 H498 0.930 . S
C513 C508 1.390 . S
C513 C512 1.387 . S
H514 C526 0.930 . S
H515 C528 0.930 . S
H516 C529 0.930 . S
H517 C533 0.959 . S
H518 C533 0.959 . S
H519 C533 0.961 . S
H520 C534 0.960 . S
H521 C534 0.961 . S
H522 C534 0.959 . S
H523 C537 0.929 . S
H524 C538 0.931 . S
H525 C540 0.930 . S
C526 H514 0.930 . S
C526 C527 1.399 . S
C526 C531 1.399 . S
C527 C526 1.399 . S
C527 C528 1.376 . S
C528 H515 0.930 . S
C528 C527 1.376 . S
C528 C529 1.388 . S
C529 H516 0.930 . S
C529 C528 1.388 . S
C529 C530 1.390 . S
C530 C529 1.390 . S
C530 C531 1.394 . S
C530 C536 1.465 . S
C531 C526 1.399 . S
C531 C530 1.394 . S
C531 C532 1.516 . S
C532 C531 1.516 . S
C532 C533 1.502 . S
C532 C534 1.561 . S
C532 C535 1.526 . S
C533 H517 0.959 . S
C533 H518 0.959 . S
C533 H519 0.961 . S
C533 C532 1.502 . S
C534 H520 0.960 . S
C534 H521 0.961 . S
C534 H522 0.959 . S
C534 C532 1.561 . S
C535 C532 1.526 . S
C535 C536 1.396 . S
C535 C540 1.390 . S
C536 C530 1.465 . S
C536 C535 1.396 . S
C536 C537 1.399 . S
C537 H523 0.929 . S
C537 C536 1.399 . S
C537 C538 1.385 . S
C538 H524 0.931 . S
C538 C537 1.385 . S
C538 C539 1.389 . S
C539 C538 1.389 . S
C539 C540 1.387 . S
C540 H525 0.930 . S
C540 C535 1.390 . S
C540 C539 1.387 . S
H541 C553 0.930 . S
H542 C555 0.930 . S
H543 C556 0.930 . S
H544 C560 0.959 . S
H545 C560 0.959 . S
H546 C560 0.961 . S
H547 C561 0.960 . S
H548 C561 0.961 . S
H549 C561 0.959 . S
H550 C564 0.929 . S
H551 C565 0.931 . S
H552 C567 0.930 . S
C553 H541 0.930 . S
C553 C554 1.399 . S
C553 C558 1.399 . S
C554 C553 1.399 . S
C554 C555 1.376 . S
C555 H542 0.930 . S
C555 C554 1.376 . S
C555 C556 1.388 . S
C556 H543 0.930 . S
C556 C555 1.388 . S
C556 C557 1.390 . S
C557 C556 1.390 . S
C557 C558 1.394 . S
C557 C563 1.465 . S
C558 C553 1.399 . S
C558 C557 1.394 . S
C558 C559 1.516 . S
C559 C558 1.516 . S
C559 C560 1.502 . S
C559 C561 1.561 . S
C559 C562 1.526 . S
C560 H544 0.959 . S
C560 H545 0.959 . S
C560 H546 0.961 . S
C560 C559 1.502 . S
C561 H547 0.960 . S
C561 H548 0.961 . S
C561 H549 0.959 . S
C561 C559 1.561 . S
C562 C559 1.526 . S
C562 C563 1.396 . S
C562 C567 1.390 . S
C563 C557 1.465 . S
C563 C562 1.396 . S
C563 C564 1.399 . S
C564 H550 0.929 . S
C564 C563 1.399 . S
C564 C565 1.385 . S
C565 H551 0.931 . S
C565 C564 1.385 . S
C565 C566 1.389 . S
C566 C565 1.389 . S
C566 C567 1.387 . S
C567 H552 0.930 . S
C567 C562 1.390 . S
C567 C566 1.387 . S
H568 C580 0.930 . S
H569 C582 0.930 . S
H570 C583 0.930 . S
H571 C587 0.959 . S
H572 C587 0.959 . S
H573 C587 0.961 . S
H574 C588 0.960 . S
H575 C588 0.961 . S
H576 C588 0.959 . S
H577 C591 0.929 . S
H578 C592 0.931 . S
H579 C594 0.930 . S
C580 H568 0.930 . S
C580 C581 1.399 . S
C580 C585 1.399 . S
C581 C580 1.399 . S
C581 C582 1.376 . S
C582 H569 0.930 . S
C582 C581 1.376 . S
C582 C583 1.388 . S
C583 H570 0.930 . S
C583 C582 1.388 . S
C583 C584 1.390 . S
C584 C583 1.390 . S
C584 C585 1.394 . S
C584 C590 1.465 . S
C585 C580 1.399 . S
C585 C584 1.394 . S
C585 C586 1.516 . S
C586 C585 1.516 . S
C586 C587 1.502 . S
C586 C588 1.561 . S
C586 C589 1.526 . S
C587 H571 0.959 . S
C587 H572 0.959 . S
C587 H573 0.961 . S
C587 C586 1.502 . S
C588 H574 0.960 . S
C588 H575 0.961 . S
C588 H576 0.959 . S
C588 C586 1.561 . S
C589 C586 1.526 . S
C589 C590 1.396 . S
C589 C594 1.390 . S
C590 C584 1.465 . S
C590 C589 1.396 . S
C590 C591 1.399 . S
C591 H577 0.929 . S
C591 C590 1.399 . S
C591 C592 1.385 . S
C592 H578 0.931 . S
C592 C591 1.385 . S
C592 C593 1.389 . S
C593 C592 1.389 . S
C593 C594 1.387 . S
C594 H579 0.930 . S
C594 C589 1.390 . S
C594 C593 1.387 . S
H595 C607 0.930 . S
H596 C609 0.930 . S
H597 C610 0.930 . S
H598 C614 0.959 . S
H599 C614 0.959 . S
H600 C614 0.961 . S
H601 C615 0.960 . S
H602 C615 0.961 . S
H603 C615 0.959 . S
H604 C618 0.929 . S
H605 C619 0.931 1_545 S
H606 C621 0.930 . S
C607 H595 0.930 . S
C607 C608 1.399 . S
C607 C612 1.399 . S
C608 C607 1.399 . S
C608 C609 1.376 . S
C609 H596 0.930 . S
C609 C608 1.376 . S
C609 C610 1.388 . S
C610 H597 0.930 . S
C610 C609 1.388 . S
C610 C611 1.390 . S
C611 C610 1.390 . S
C611 C612 1.394 . S
C611 C617 1.465 . S
C612 C607 1.399 . S
C612 C611 1.394 . S
C612 C613 1.516 . S
C613 C612 1.516 . S
C613 C614 1.502 . S
C613 C615 1.561 . S
C613 C616 1.526 . S
C614 H598 0.959 . S
C614 H599 0.959 . S
C614 H600 0.961 . S
C614 C613 1.502 . S
C615 H601 0.960 . S
C615 H602 0.961 . S
C615 H603 0.959 . S
C615 C613 1.561 . S
C616 C613 1.526 . S
C616 C617 1.396 . S
C616 C621 1.390 . S
C617 C611 1.465 . S
C617 C616 1.396 . S
C617 C618 1.399 . S
C618 H604 0.929 . S
C618 C617 1.399 . S
C618 C619 1.385 . S
C619 H605 0.931 1_565 S
C619 C618 1.385 . S
C619 C620 1.389 . S
C620 C619 1.389 . S
C620 C621 1.387 . S
C621 H606 0.930 . S
C621 C616 1.390 . S
C621 C620 1.387 . S
H622 C634 0.930 . S
H623 C636 0.930 . S
H624 C637 0.930 . S
H625 C641 0.959 . S
H626 C641 0.959 . S
H627 C641 0.961 . S
H628 C642 0.960 . S
H629 C642 0.961 . S
H630 C642 0.959 . S
H631 C645 0.929 . S
H632 C646 0.931 . S
H633 C648 0.930 . S
C634 H622 0.930 . S
C634 C635 1.399 . S
C634 C639 1.399 . S
C635 C634 1.399 . S
C635 C636 1.376 . S
C636 H623 0.930 . S
C636 C635 1.376 . S
C636 C637 1.388 . S
C637 H624 0.930 . S
C637 C636 1.388 . S
C637 C638 1.390 . S
C638 C637 1.390 . S
C638 C639 1.394 . S
C638 C644 1.465 . S
C639 C634 1.399 . S
C639 C638 1.394 . S
C639 C640 1.516 . S
C640 C639 1.516 . S
C640 C641 1.502 . S
C640 C642 1.561 . S
C640 C643 1.526 . S
C641 H625 0.959 . S
C641 H626 0.959 . S
C641 H627 0.961 . S
C641 C640 1.502 . S
C642 H628 0.960 . S
C642 H629 0.961 . S
C642 H630 0.959 . S
C642 C640 1.561 . S
C643 C640 1.526 . S
C643 C644 1.396 . S
C643 C648 1.390 . S
C644 C638 1.465 . S
C644 C643 1.396 . S
C644 C645 1.399 1_556 S
C645 H631 0.929 . S
C645 C644 1.399 1_554 S
C645 C646 1.385 . S
C646 H632 0.931 . S
C646 C645 1.385 . S
C646 C647 1.389 . S
C647 C646 1.389 . S
C647 C648 1.387 1_554 S
C648 H633 0.930 . S
C648 C643 1.390 . S
C648 C647 1.387 1_556 S
H649 C661 0.930 . S
H650 C663 0.930 . S
H651 C664 0.930 . S
H652 C668 0.959 . S
H653 C668 0.959 . S
H654 C668 0.961 . S
H655 C669 0.960 . S
H656 C669 0.961 . S
H657 C669 0.959 . S
H658 C672 0.929 . S
H659 C673 0.931 . S
H660 C675 0.930 . S
C661 H649 0.930 . S
C661 C662 1.399 . S
C661 C666 1.399 . S
C662 C661 1.399 . S
C662 C663 1.376 . S
C663 H650 0.930 . S
C663 C662 1.376 . S
C663 C664 1.388 . S
C664 H651 0.930 . S
C664 C663 1.388 . S
C664 C665 1.390 . S
C665 C664 1.390 . S
C665 C666 1.394 . S
C665 C671 1.465 . S
C666 C661 1.399 . S
C666 C665 1.394 . S
C666 C667 1.516 . S
C667 C666 1.516 . S
C667 C668 1.502 . S
C667 C669 1.561 . S
C667 C670 1.526 . S
C668 H652 0.959 . S
C668 H653 0.959 . S
C668 H654 0.961 . S
C668 C667 1.502 . S
C669 H655 0.960 . S
C669 H656 0.961 . S
C669 H657 0.959 . S
C669 C667 1.561 . S
C670 C667 1.526 . S
C670 C671 1.396 . S
C670 C675 1.390 . S
C671 C665 1.465 . S
C671 C670 1.396 . S
C671 C672 1.399 . S
C672 H658 0.929 . S
C672 C671 1.399 . S
C672 C673 1.385 . S
C673 H659 0.931 . S
C673 C672 1.385 . S
C673 C674 1.389 . S
C674 C673 1.389 . S
C674 C675 1.387 . S
C675 H660 0.930 . S
C675 C670 1.390 . S
C675 C674 1.387 . S
H676 C688 0.930 . S
H677 C690 0.930 . S
H678 C691 0.930 . S
H679 C695 0.959 . S
H680 C695 0.959 . S
H681 C695 0.961 . S
H682 C696 0.960 . S
H683 C696 0.961 . S
H684 C696 0.959 . S
H685 C699 0.929 . S
H686 C700 0.931 . S
H687 C702 0.930 . S
C688 H676 0.930 . S
C688 C689 1.399 . S
C688 C693 1.399 . S
C689 C688 1.399 . S
C689 C690 1.376 . S
C690 H677 0.930 . S
C690 C689 1.376 . S
C690 C691 1.388 . S
C691 H678 0.930 . S
C691 C690 1.388 . S
C691 C692 1.390 . S
C692 C691 1.390 . S
C692 C693 1.394 . S
C692 C698 1.465 . S
C693 C688 1.399 . S
C693 C692 1.394 . S
C693 C694 1.516 . S
C694 C693 1.516 . S
C694 C695 1.502 . S
C694 C696 1.561 . S
C694 C697 1.526 . S
C695 H679 0.959 . S
C695 H680 0.959 . S
C695 H681 0.961 . S
C695 C694 1.502 . S
C696 H682 0.960 . S
C696 H683 0.961 . S
C696 H684 0.959 . S
C696 C694 1.561 . S
C697 C694 1.526 . S
C697 C698 1.396 . S
C697 C702 1.390 . S
C698 C692 1.465 . S
C698 C697 1.396 . S
C698 C699 1.399 . S
C699 H685 0.929 . S
C699 C698 1.399 . S
C699 C700 1.385 . S
C700 H686 0.931 . S
C700 C699 1.385 . S
C700 C701 1.389 . S
C701 C700 1.389 . S
C701 C702 1.387 . S
C702 H687 0.930 . S
C702 C697 1.390 . S
C702 C701 1.387 . S
H703 C715 0.930 . S
H704 C717 0.930 . S
H705 C718 0.930 . S
H706 C722 0.959 . S
H707 C722 0.959 . S
H708 C722 0.961 . S
H709 C723 0.960 . S
H710 C723 0.961 . S
H711 C723 0.959 . S
H712 C726 0.929 . S
H713 C727 0.931 . S
H714 C729 0.930 . S
C715 H703 0.930 . S
C715 C716 1.399 . S
C715 C720 1.399 . S
C716 C715 1.399 . S
C716 C717 1.376 . S
C717 H704 0.930 . S
C717 C716 1.376 . S
C717 C718 1.388 . S
C718 H705 0.930 . S
C718 C717 1.388 . S
C718 C719 1.390 . S
C719 C718 1.390 . S
C719 C720 1.394 . S
C719 C725 1.465 . S
C720 C715 1.399 . S
C720 C719 1.394 . S
C720 C721 1.516 . S
C721 C720 1.516 . S
C721 C722 1.502 . S
C721 C723 1.561 . S
C721 C724 1.526 . S
C722 H706 0.959 . S
C722 H707 0.959 . S
C722 H708 0.961 . S
C722 C721 1.502 . S
C723 H709 0.960 . S
C723 H710 0.961 . S
C723 H711 0.959 . S
C723 C721 1.561 . S
C724 C721 1.526 . S
C724 C725 1.396 . S
C724 C729 1.390 . S
C725 C719 1.465 . S
C725 C724 1.396 . S
C725 C726 1.399 . S
C726 H712 0.929 . S
C726 C725 1.399 . S
C726 C727 1.385 . S
C727 H713 0.931 . S
C727 C726 1.385 . S
C727 C728 1.389 . S
C728 C727 1.389 . S
C728 C729 1.387 . S
C729 H714 0.930 . S
C729 C724 1.390 . S
C729 C728 1.387 . S
H730 C742 0.930 . S
H731 C744 0.930 . S
H732 C745 0.930 . S
H733 C749 0.959 . S
H734 C749 0.959 . S
H735 C749 0.961 . S
H736 C750 0.960 . S
H737 C750 0.961 1_556 S
H738 C750 0.959 . S
H739 C753 0.929 . S
H740 C754 0.931 . S
H741 C756 0.930 . S
C742 H730 0.930 . S
C742 C743 1.399 . S
C742 C747 1.399 . S
C743 C742 1.399 . S
C743 C744 1.376 . S
C744 H731 0.930 . S
C744 C743 1.376 . S
C744 C745 1.388 . S
C745 H732 0.930 . S
C745 C744 1.388 . S
C745 C746 1.390 . S
C746 C745 1.390 . S
C746 C747 1.394 . S
C746 C752 1.465 . S
C747 C742 1.399 . S
C747 C746 1.394 . S
C747 C748 1.516 . S
C748 C747 1.516 . S
C748 C749 1.502 . S
C748 C750 1.561 . S
C748 C751 1.526 . S
C749 H733 0.959 . S
C749 H734 0.959 . S
C749 H735 0.961 . S
C749 C748 1.502 . S
C750 H736 0.960 . S
C750 H737 0.961 1_554 S
C750 H738 0.959 . S
C750 C748 1.561 . S
C751 C748 1.526 . S
C751 C752 1.396 . S
C751 C756 1.390 . S
C752 C746 1.465 . S
C752 C751 1.396 . S
C752 C753 1.399 . S
C753 H739 0.929 . S
C753 C752 1.399 . S
C753 C754 1.385 . S
C754 H740 0.931 . S
C754 C753 1.385 . S
C754 C755 1.389 . S
C755 C754 1.389 . S
C755 C756 1.387 . S
C756 H741 0.930 . S
C756 C751 1.390 . S
C756 C755 1.387 . S
H757 C769 0.930 . S
H758 C771 0.930 1_554 S
H759 C772 0.930 . S
H760 C776 0.959 . S
H761 C776 0.959 . S
H762 C776 0.961 . S
H763 C777 0.960 . S
H764 C777 0.961 . S
H765 C777 0.959 . S
H766 C780 0.929 . S
H767 C781 0.931 . S
H768 C783 0.930 . S
C769 H757 0.930 . S
C769 C770 1.399 . S
C769 C774 1.399 . S
C770 C769 1.399 . S
C770 C771 1.376 . S
C771 H758 0.930 1_556 S
C771 C770 1.376 . S
C771 C772 1.388 . S
C772 H759 0.930 . S
C772 C771 1.388 . S
C772 C773 1.390 . S
C773 C772 1.390 . S
C773 C774 1.394 . S
C773 C779 1.465 . S
C774 C769 1.399 . S
C774 C773 1.394 . S
C774 C775 1.516 . S
C775 C774 1.516 . S
C775 C776 1.502 . S
C775 C777 1.561 . S
C775 C778 1.526 . S
C776 H760 0.959 . S
C776 H761 0.959 . S
C776 H762 0.961 . S
C776 C775 1.502 . S
C777 H763 0.960 . S
C777 H764 0.961 . S
C777 H765 0.959 . S
C777 C775 1.561 . S
C778 C775 1.526 . S
C778 C779 1.396 . S
C778 C783 1.390 . S
C779 C773 1.465 . S
C779 C778 1.396 . S
C779 C780 1.399 . S
C780 H766 0.929 . S
C780 C779 1.399 . S
C780 C781 1.385 . S
C781 H767 0.931 . S
C781 C780 1.385 . S
C781 C782 1.389 . S
C782 C781 1.389 . S
C782 C783 1.387 . S
C783 H768 0.930 . S
C783 C778 1.390 . S
C783 C782 1.387 . S
H784 C796 0.930 . S
H785 C798 0.930 1_554 S
H786 C799 0.930 . S
H787 C803 0.959 . S
H788 C803 0.959 . S
H789 C803 0.961 . S
H790 C804 0.960 . S
H791 C804 0.961 . S
H792 C804 0.959 . S
H793 C807 0.929 . S
H794 C808 0.931 . S
H795 C810 0.930 . S
C796 H784 0.930 . S
C796 C797 1.399 . S
C796 C801 1.399 . S
C797 C796 1.399 . S
C797 C798 1.376 . S
C798 H785 0.930 1_556 S
C798 C797 1.376 . S
C798 C799 1.388 . S
C799 H786 0.930 . S
C799 C798 1.388 . S
C799 C800 1.390 . S
C800 C799 1.390 . S
C800 C801 1.394 . S
C800 C806 1.465 . S
C801 C796 1.399 . S
C801 C800 1.394 . S
C801 C802 1.516 . S
C802 C801 1.516 . S
C802 C803 1.502 . S
C802 C804 1.561 . S
C802 C805 1.526 . S
C803 H787 0.959 . S
C803 H788 0.959 . S
C803 H789 0.961 . S
C803 C802 1.502 . S
C804 H790 0.960 . S
C804 H791 0.961 . S
C804 H792 0.959 . S
C804 C802 1.561 . S
C805 C802 1.526 . S
C805 C806 1.396 . S
C805 C810 1.390 . S
C806 C800 1.465 . S
C806 C805 1.396 . S
C806 C807 1.399 . S
C807 H793 0.929 . S
C807 C806 1.399 . S
C807 C808 1.385 . S
C808 H794 0.931 . S
C808 C807 1.385 . S
C808 C809 1.389 . S
C809 C808 1.389 . S
C809 C810 1.387 . S
C810 H795 0.930 . S
C810 C805 1.390 . S
C810 C809 1.387 . S
H811 C823 0.930 . S
H812 C825 0.930 . S
H813 C826 0.930 . S
H814 C830 0.959 . S
H815 C830 0.959 . S
H816 C830 0.961 . S
H817 C831 0.960 . S
H818 C831 0.961 . S
H819 C831 0.959 . S
H820 C834 0.929 . S
H821 C835 0.931 . S
H822 C837 0.930 . S
C823 H811 0.930 . S
C823 C824 1.399 . S
C823 C828 1.399 . S
C824 C823 1.399 . S
C824 C825 1.376 . S
C825 H812 0.930 . S
C825 C824 1.376 . S
C825 C826 1.388 . S
C826 H813 0.930 . S
C826 C825 1.388 . S
C826 C827 1.390 . S
C827 C826 1.390 . S
C827 C828 1.394 . S
C827 C833 1.465 . S
C828 C823 1.399 . S
C828 C827 1.394 . S
C828 C829 1.516 . S
C829 C828 1.516 . S
C829 C830 1.502 . S
C829 C831 1.561 . S
C829 C832 1.526 . S
C830 H814 0.959 . S
C830 H815 0.959 . S
C830 H816 0.961 . S
C830 C829 1.502 . S
C831 H817 0.960 . S
C831 H818 0.961 . S
C831 H819 0.959 . S
C831 C829 1.561 . S
C832 C829 1.526 . S
C832 C833 1.396 . S
C832 C837 1.390 . S
C833 C827 1.465 . S
C833 C832 1.396 . S
C833 C834 1.399 . S
C834 H820 0.929 . S
C834 C833 1.399 . S
C834 C835 1.385 . S
C835 H821 0.931 . S
C835 C834 1.385 . S
C835 C836 1.389 . S
C836 C835 1.389 . S
C836 C837 1.387 . S
C837 H822 0.930 . S
C837 C832 1.390 . S
C837 C836 1.387 . S
H838 C850 0.930 . S
H839 C852 0.930 . S
H840 C853 0.930 . S
H841 C857 0.959 . S
H842 C857 0.959 . S
H843 C857 0.961 . S
H844 C858 0.960 . S
H845 C858 0.961 . S
H846 C858 0.959 . S
H847 C861 0.929 . S
H848 C862 0.931 . S
H849 C864 0.930 . S
C850 H838 0.930 . S
C850 C851 1.399 . S
C850 C855 1.399 . S
C851 C850 1.399 . S
C851 C852 1.376 . S
C852 H839 0.930 . S
C852 C851 1.376 . S
C852 C853 1.388 . S
C853 H840 0.930 . S
C853 C852 1.388 . S
C853 C854 1.390 . S
C854 C853 1.390 . S
C854 C855 1.394 . S
C854 C860 1.465 . S
C855 C850 1.399 . S
C855 C854 1.394 . S
C855 C856 1.516 . S
C856 C855 1.516 . S
C856 C857 1.502 . S
C856 C858 1.561 . S
C856 C859 1.526 . S
C857 H841 0.959 . S
C857 H842 0.959 . S
C857 H843 0.961 . S
C857 C856 1.502 . S
C858 H844 0.960 . S
C858 H845 0.961 . S
C858 H846 0.959 . S
C858 C856 1.561 . S
C859 C856 1.526 . S
C859 C860 1.396 . S
C859 C864 1.390 . S
C860 C854 1.465 . S
C860 C859 1.396 . S
C860 C861 1.399 . S
C861 H847 0.929 . S
C861 C860 1.399 . S
C861 C862 1.385 . S
C862 H848 0.931 . S
C862 C861 1.385 . S
C862 C863 1.389 . S
C863 C862 1.389 . S
C863 C864 1.387 . S
C864 H849 0.930 . S
C864 C859 1.390 . S
C864 C863 1.387 . S
H865 C877 0.930 . S
H866 C879 0.930 . S
H867 C880 0.930 . S
H868 C884 0.959 . S
H869 C884 0.959 . S
H870 C884 0.961 . S
H871 C885 0.960 . S
H872 C885 0.961 . S
H873 C885 0.959 . S
H874 C888 0.929 . S
H875 C889 0.931 . S
H876 C891 0.930 . S
C877 H865 0.930 . S
C877 C878 1.399 . S
C877 C882 1.399 . S
C878 C877 1.399 . S
C878 C879 1.376 . S
C879 H866 0.930 . S
C879 C878 1.376 . S
C879 C880 1.388 . S
C880 H867 0.930 . S
C880 C879 1.388 . S
C880 C881 1.390 . S
C881 C880 1.390 . S
C881 C882 1.394 . S
C881 C887 1.465 . S
C882 C877 1.399 . S
C882 C881 1.394 . S
C882 C883 1.516 . S
C883 C882 1.516 . S
C883 C884 1.502 . S
C883 C885 1.561 . S
C883 C886 1.526 . S
C884 H868 0.959 . S
C884 H869 0.959 . S
C884 H870 0.961 . S
C884 C883 1.502 . S
C885 H871 0.960 . S
C885 H872 0.961 . S
C885 H873 0.959 . S
C885 C883 1.561 . S
C886 C883 1.526 . S
C886 C887 1.396 . S
C886 C891 1.390 . S
C887 C881 1.465 . S
C887 C886 1.396 . S
C887 C888 1.399 . S
C888 H874 0.929 . S
C888 C887 1.399 . S
C888 C889 1.385 . S
C889 H875 0.931 . S
C889 C888 1.385 . S
C889 C890 1.389 . S
C890 C889 1.389 . S
C890 C891 1.387 . S
C891 H876 0.930 . S
C891 C886 1.390 . S
C891 C890 1.387 . S
H892 C904 0.930 . S
H893 C906 0.930 . S
H894 C907 0.930 . S
H895 C911 0.959 . S
H896 C911 0.959 . S
H897 C911 0.961 . S
H898 C912 0.960 . S
H899 C912 0.961 . S
H900 C912 0.959 . S
H901 C915 0.929 . S
H902 C916 0.931 . S
H903 C918 0.930 . S
C904 H892 0.930 . S
C904 C905 1.399 . S
C904 C909 1.399 . S
C905 C904 1.399 . S
C905 C906 1.376 . S
C906 H893 0.930 . S
C906 C905 1.376 . S
C906 C907 1.388 . S
C907 H894 0.930 . S
C907 C906 1.388 . S
C907 C908 1.390 . S
C908 C907 1.390 . S
C908 C909 1.394 . S
C908 C914 1.465 . S
C909 C904 1.399 . S
C909 C908 1.394 . S
C909 C910 1.516 . S
C910 C909 1.516 . S
C910 C911 1.502 . S
C910 C912 1.561 . S
C910 C913 1.526 . S
C911 H895 0.959 . S
C911 H896 0.959 . S
C911 H897 0.961 . S
C911 C910 1.502 . S
C912 H898 0.960 . S
C912 H899 0.961 . S
C912 H900 0.959 . S
C912 C910 1.561 . S
C913 C910 1.526 . S
C913 C914 1.396 . S
C913 C918 1.390 . S
C914 C908 1.465 . S
C914 C913 1.396 . S
C914 C915 1.399 . S
C915 H901 0.929 . S
C915 C914 1.399 . S
C915 C916 1.385 . S
C916 H902 0.931 . S
C916 C915 1.385 . S
C916 C917 1.389 . S
C917 C916 1.389 . S
C917 C918 1.387 . S
C918 H903 0.930 . S
C918 C913 1.390 . S
C918 C917 1.387 . S
H919 C931 0.930 1_554 S
H920 C933 0.930 . S
H921 C934 0.930 . S
H922 C938 0.959 . S
H923 C938 0.959 . S
H924 C938 0.961 1_554 S
H925 C939 0.960 . S
H926 C939 0.961 . S
H927 C939 0.959 . S
H928 C942 0.929 . S
H929 C943 0.931 . S
H930 C945 0.930 . S
C931 H919 0.930 1_556 S
C931 C932 1.399 . S
C931 C936 1.399 . S
C932 C931 1.399 . S
C932 C933 1.376 . S
C933 H920 0.930 . S
C933 C932 1.376 . S
C933 C934 1.388 . S
C934 H921 0.930 . S
C934 C933 1.388 . S
C934 C935 1.390 . S
C935 C934 1.390 . S
C935 C936 1.394 . S
C935 C941 1.465 . S
C936 C931 1.399 . S
C936 C935 1.394 . S
C936 C937 1.516 . S
C937 C936 1.516 . S
C937 C938 1.502 . S
C937 C939 1.561 1_556 S
C937 C940 1.526 . S
C938 H922 0.959 . S
C938 H923 0.959 . S
C938 H924 0.961 1_556 S
C938 C937 1.502 . S
C939 H925 0.960 . S
C939 H926 0.961 . S
C939 H927 0.959 . S
C939 C937 1.561 1_554 S
C940 C937 1.526 . S
C940 C941 1.396 . S
C940 C945 1.390 . S
C941 C935 1.465 . S
C941 C940 1.396 . S
C941 C942 1.399 . S
C942 H928 0.929 . S
C942 C941 1.399 . S
C942 C943 1.385 . S
C943 H929 0.931 . S
C943 C942 1.385 . S
C943 C944 1.389 . S
C944 C943 1.389 . S
C944 C945 1.387 . S
C945 H930 0.930 . S
C945 C940 1.390 . S
C945 C944 1.387 . S
H946 C958 0.930 . S
H947 C960 0.930 . S
H948 C961 0.930 . S
H949 C965 0.959 . S
H950 C965 0.959 . S
H951 C965 0.961 . S
H952 C966 0.960 . S
H953 C966 0.961 . S
H954 C966 0.959 . S
H955 C969 0.929 . S
H956 C970 0.931 . S
H957 C972 0.930 . S
C958 H946 0.930 . S
C958 C959 1.399 . S
C958 C963 1.399 . S
C959 C958 1.399 . S
C959 C960 1.376 . S
C960 H947 0.930 . S
C960 C959 1.376 . S
C960 C961 1.388 . S
C961 H948 0.930 . S
C961 C960 1.388 . S
C961 C962 1.390 . S
C962 C961 1.390 . S
C962 C963 1.394 . S
C962 C968 1.465 . S
C963 C958 1.399 . S
C963 C962 1.394 . S
C963 C964 1.516 . S
C964 C963 1.516 . S
C964 C965 1.502 . S
C964 C966 1.561 . S
C964 C967 1.526 . S
C965 H949 0.959 . S
C965 H950 0.959 . S
C965 H951 0.961 . S
C965 C964 1.502 . S
C966 H952 0.960 . S
C966 H953 0.961 . S
C966 H954 0.959 . S
C966 C964 1.561 . S
C967 C964 1.526 . S
C967 C968 1.396 . S
C967 C972 1.390 . S
C968 C962 1.465 . S
C968 C967 1.396 . S
C968 C969 1.399 . S
C969 H955 0.929 . S
C969 C968 1.399 . S
C969 C970 1.385 . S
C970 H956 0.931 . S
C970 C969 1.385 . S
C970 C971 1.389 . S
C971 C970 1.389 . S
C971 C972 1.387 . S
C972 H957 0.930 . S
C972 C967 1.390 . S
C972 C971 1.387 . S
H973 C985 0.930 . S
H974 C987 0.930 . S
H975 C988 0.930 . S
H976 C992 0.959 . S
H977 C992 0.959 . S
H978 C992 0.961 . S
H979 C993 0.960 . S
H980 C993 0.961 . S
H981 C993 0.959 . S
H982 C996 0.929 . S
H983 C997 0.931 . S
H984 C999 0.930 . S
C985 H973 0.930 . S
C985 C986 1.399 . S
C985 C990 1.399 . S
C986 C985 1.399 . S
C986 C987 1.376 . S
C987 H974 0.930 . S
C987 C986 1.376 . S
C987 C988 1.388 . S
C988 H975 0.930 . S
C988 C987 1.388 . S
C988 C989 1.390 . S
C989 C988 1.390 . S
C989 C990 1.394 . S
C989 C995 1.465 . S
C990 C985 1.399 . S
C990 C989 1.394 . S
C990 C991 1.516 . S
C991 C990 1.516 . S
C991 C992 1.502 . S
C991 C993 1.561 . S
C991 C994 1.526 . S
C992 H976 0.959 . S
C992 H977 0.959 . S
C992 H978 0.961 . S
C992 C991 1.502 . S
C993 H979 0.960 . S
C993 H980 0.961 . S
C993 H981 0.959 . S
C993 C991 1.561 . S
C994 C991 1.526 . S
C994 C995 1.396 . S
C994 C999 1.390 . S
C995 C989 1.465 . S
C995 C994 1.396 . S
C995 C996 1.399 . S
C996 H982 0.929 . S
C996 C995 1.399 . S
C996 C997 1.385 . S
C997 H983 0.931 . S
C997 C996 1.385 . S
C997 C998 1.389 . S
C998 C997 1.389 . S
C998 C999 1.387 . S
C999 H984 0.930 . S
C999 C994 1.390 . S
C999 C998 1.387 . S
H1000 C1012 0.930 . S
H1001 C1014 0.930 . S
H1002 C1015 0.930 . S
H1003 C1019 0.959 . S
H1004 C1019 0.959 . S
H1005 C1019 0.961 . S
H1006 C1020 0.960 . S
H1007 C1020 0.961 . S
H1008 C1020 0.959 . S
H1009 C1023 0.929 . S
H1010 C1024 0.931 . S
H1011 C1026 0.930 . S
C1012 H1000 0.930 . S
C1012 C1013 1.399 . S
C1012 C1017 1.399 . S
C1013 C1012 1.399 . S
C1013 C1014 1.376 . S
C1014 H1001 0.930 . S
C1014 C1013 1.376 . S
C1014 C1015 1.388 . S
C1015 H1002 0.930 . S
C1015 C1014 1.388 . S
C1015 C1016 1.390 . S
C1016 C1015 1.390 . S
C1016 C1017 1.394 . S
C1016 C1022 1.465 . S
C1017 C1012 1.399 . S
C1017 C1016 1.394 . S
C1017 C1018 1.516 . S
C1018 C1017 1.516 . S
C1018 C1019 1.502 . S
C1018 C1020 1.561 . S
C1018 C1021 1.526 . S
C1019 H1003 0.959 . S
C1019 H1004 0.959 . S
C1019 H1005 0.961 . S
C1019 C1018 1.502 . S
C1020 H1006 0.960 . S
C1020 H1007 0.961 . S
C1020 H1008 0.959 . S
C1020 C1018 1.561 . S
C1021 C1018 1.526 . S
C1021 C1022 1.396 . S
C1021 C1026 1.390 . S
C1022 C1016 1.465 . S
C1022 C1021 1.396 . S
C1022 C1023 1.399 . S
C1023 H1009 0.929 . S
C1023 C1022 1.399 . S
C1023 C1024 1.385 . S
C1024 H1010 0.931 . S
C1024 C1023 1.385 . S
C1024 C1025 1.389 . S
C1025 C1024 1.389 . S
C1025 C1026 1.387 . S
C1026 H1011 0.930 . S
C1026 C1021 1.390 . S
C1026 C1025 1.387 . S
H1027 C1039 0.930 . S
H1028 C1041 0.930 . S
H1029 C1042 0.930 . S
H1030 C1046 0.959 . S
H1031 C1046 0.959 . S
H1032 C1046 0.961 . S
H1033 C1047 0.960 . S
H1034 C1047 0.961 . S
H1035 C1047 0.959 . S
H1036 C1050 0.929 . S
H1037 C1051 0.931 . S
H1038 C1053 0.930 . S
C1039 H1027 0.930 . S
C1039 C1040 1.399 . S
C1039 C1044 1.399 . S
C1040 C1039 1.399 . S
C1040 C1041 1.376 . S
C1041 H1028 0.930 . S
C1041 C1040 1.376 . S
C1041 C1042 1.388 . S
C1042 H1029 0.930 . S
C1042 C1041 1.388 . S
C1042 C1043 1.390 . S
C1043 C1042 1.390 . S
C1043 C1044 1.394 . S
C1043 C1049 1.465 . S
C1044 C1039 1.399 . S
C1044 C1043 1.394 . S
C1044 C1045 1.516 . S
C1045 C1044 1.516 . S
C1045 C1046 1.502 . S
C1045 C1047 1.561 . S
C1045 C1048 1.526 . S
C1046 H1030 0.959 . S
C1046 H1031 0.959 . S
C1046 H1032 0.961 . S
C1046 C1045 1.502 . S
C1047 H1033 0.960 . S
C1047 H1034 0.961 . S
C1047 H1035 0.959 . S
C1047 C1045 1.561 . S
C1048 C1045 1.526 . S
C1048 C1049 1.396 . S
C1048 C1053 1.390 . S
C1049 C1043 1.465 . S
C1049 C1048 1.396 . S
C1049 C1050 1.399 . S
C1050 H1036 0.929 . S
C1050 C1049 1.399 . S
C1050 C1051 1.385 . S
C1051 H1037 0.931 . S
C1051 C1050 1.385 . S
C1051 C1052 1.389 . S
C1052 C1051 1.389 . S
C1052 C1053 1.387 . S
C1053 H1038 0.930 . S
C1053 C1048 1.390 . S
C1053 C1052 1.387 . S
H1054 C1066 0.930 . S
H1055 C1068 0.930 1_554 S
H1056 C1069 0.930 . S
H1057 C1073 0.959 . S
H1058 C1073 0.959 . S
H1059 C1073 0.961 . S
H1060 C1074 0.960 . S
H1061 C1074 0.961 . S
H1062 C1074 0.959 . S
H1063 C1077 0.929 . S
H1064 C1078 0.931 . S
H1065 C1080 0.930 . S
C1066 H1054 0.930 . S
C1066 C1067 1.399 . S
C1066 C1071 1.399 . S
C1067 C1066 1.399 . S
C1067 C1068 1.376 . S
C1068 H1055 0.930 1_556 S
C1068 C1067 1.376 . S
C1068 C1069 1.388 . S
C1069 H1056 0.930 . S
C1069 C1068 1.388 . S
C1069 C1070 1.390 . S
C1070 C1069 1.390 . S
C1070 C1071 1.394 . S
C1070 C1076 1.465 . S
C1071 C1066 1.399 . S
C1071 C1070 1.394 . S
C1071 C1072 1.516 . S
C1072 C1071 1.516 . S
C1072 C1073 1.502 . S
C1072 C1074 1.561 . S
C1072 C1075 1.526 . S
C1073 H1057 0.959 . S
C1073 H1058 0.959 . S
C1073 H1059 0.961 . S
C1073 C1072 1.502 . S
C1074 H1060 0.960 . S
C1074 H1061 0.961 . S
C1074 H1062 0.959 . S
C1074 C1072 1.561 . S
C1075 C1072 1.526 . S
C1075 C1076 1.396 . S
C1075 C1080 1.390 . S
C1076 C1070 1.465 . S
C1076 C1075 1.396 . S
C1076 C1077 1.399 . S
C1077 H1063 0.929 . S
C1077 C1076 1.399 . S
C1077 C1078 1.385 . S
C1078 H1064 0.931 . S
C1078 C1077 1.385 . S
C1078 C1079 1.389 . S
C1079 C1078 1.389 . S
C1079 C1080 1.387 . S
C1080 H1065 0.930 . S
C1080 C1075 1.390 . S
C1080 C1079 1.387 . S
H1081 C1093 0.930 . S
H1082 C1095 0.930 1_556 S
H1083 C1096 0.930 . S
H1084 C1100 0.959 . S
H1085 C1100 0.959 . S
H1086 C1100 0.961 . S
H1087 C1101 0.960 . S
H1088 C1101 0.961 . S
H1089 C1101 0.959 . S
H1090 C1104 0.929 . S
H1091 C1105 0.931 . S
H1092 C1107 0.930 . S
C1093 H1081 0.930 . S
C1093 C1094 1.399 . S
C1093 C1098 1.399 . S
C1094 C1093 1.399 . S
C1094 C1095 1.376 . S
C1095 H1082 0.930 1_554 S
C1095 C1094 1.376 . S
C1095 C1096 1.388 . S
C1096 H1083 0.930 . S
C1096 C1095 1.388 . S
C1096 C1097 1.390 . S
C1097 C1096 1.390 . S
C1097 C1098 1.394 . S
C1097 C1103 1.465 . S
C1098 C1093 1.399 . S
C1098 C1097 1.394 . S
C1098 C1099 1.516 . S
C1099 C1098 1.516 . S
C1099 C1100 1.502 . S
C1099 C1101 1.561 . S
C1099 C1102 1.526 . S
C1100 H1084 0.959 . S
C1100 H1085 0.959 . S
C1100 H1086 0.961 . S
C1100 C1099 1.502 . S
C1101 H1087 0.960 . S
C1101 H1088 0.961 . S
C1101 H1089 0.959 . S
C1101 C1099 1.561 . S
C1102 C1099 1.526 . S
C1102 C1103 1.396 . S
C1102 C1107 1.390 . S
C1103 C1097 1.465 . S
C1103 C1102 1.396 . S
C1103 C1104 1.399 . S
C1104 H1090 0.929 . S
C1104 C1103 1.399 . S
C1104 C1105 1.385 . S
C1105 H1091 0.931 . S
C1105 C1104 1.385 . S
C1105 C1106 1.389 . S
C1106 C1105 1.389 . S
C1106 C1107 1.387 . S
C1107 H1092 0.930 . S
C1107 C1102 1.390 . S
C1107 C1106 1.387 . S
H1108 C1120 0.930 . S
H1109 C1122 0.930 . S
H1110 C1123 0.930 . S
H1111 C1127 0.959 . S
H1112 C1127 0.959 . S
H1113 C1127 0.961 . S
H1114 C1128 0.960 . S
H1115 C1128 0.961 . S
H1116 C1128 0.959 . S
H1117 C1131 0.929 . S
H1118 C1132 0.931 . S
H1119 C1134 0.930 . S
C1120 H1108 0.930 . S
C1120 C1121 1.399 . S
C1120 C1125 1.399 . S
C1121 C1120 1.399 . S
C1121 C1122 1.376 . S
C1122 H1109 0.930 . S
C1122 C1121 1.376 . S
C1122 C1123 1.388 . S
C1123 H1110 0.930 . S
C1123 C1122 1.388 . S
C1123 C1124 1.390 . S
C1124 C1123 1.390 . S
C1124 C1125 1.394 . S
C1124 C1130 1.465 . S
C1125 C1120 1.399 . S
C1125 C1124 1.394 . S
C1125 C1126 1.516 . S
C1126 C1125 1.516 . S
C1126 C1127 1.502 . S
C1126 C1128 1.561 . S
C1126 C1129 1.526 . S
C1127 H1111 0.959 . S
C1127 H1112 0.959 . S
C1127 H1113 0.961 . S
C1127 C1126 1.502 . S
C1128 H1114 0.960 . S
C1128 H1115 0.961 . S
C1128 H1116 0.959 . S
C1128 C1126 1.561 . S
C1129 C1126 1.526 . S
C1129 C1130 1.396 . S
C1129 C1134 1.390 . S
C1130 C1124 1.465 . S
C1130 C1129 1.396 . S
C1130 C1131 1.399 . S
C1131 H1117 0.929 . S
C1131 C1130 1.399 . S
C1131 C1132 1.385 . S
C1132 H1118 0.931 . S
C1132 C1131 1.385 . S
C1132 C1133 1.389 . S
C1133 C1132 1.389 . S
C1133 C1134 1.387 . S
C1134 H1119 0.930 . S
C1134 C1129 1.390 . S
C1134 C1133 1.387 . S
H1135 C1147 0.930 . S
H1136 C1149 0.930 . S
H1137 C1150 0.930 . S
H1138 C1154 0.959 . S
H1139 C1154 0.959 . S
H1140 C1154 0.961 . S
H1141 C1155 0.960 . S
H1142 C1155 0.961 . S
H1143 C1155 0.959 . S
H1144 C1158 0.929 . S
H1145 C1159 0.931 . S
H1146 C1161 0.930 . S
C1147 H1135 0.930 . S
C1147 C1148 1.399 . S
C1147 C1152 1.399 . S
C1148 C1147 1.399 . S
C1148 C1149 1.376 . S
C1149 H1136 0.930 . S
C1149 C1148 1.376 . S
C1149 C1150 1.388 . S
C1150 H1137 0.930 . S
C1150 C1149 1.388 . S
C1150 C1151 1.390 . S
C1151 C1150 1.390 . S
C1151 C1152 1.394 . S
C1151 C1157 1.465 . S
C1152 C1147 1.399 . S
C1152 C1151 1.394 . S
C1152 C1153 1.516 . S
C1153 C1152 1.516 . S
C1153 C1154 1.502 . S
C1153 C1155 1.561 . S
C1153 C1156 1.526 . S
C1154 H1138 0.959 . S
C1154 H1139 0.959 . S
C1154 H1140 0.961 . S
C1154 C1153 1.502 . S
C1155 H1141 0.960 . S
C1155 H1142 0.961 . S
C1155 H1143 0.959 . S
C1155 C1153 1.561 . S
C1156 C1153 1.526 . S
C1156 C1157 1.396 . S
C1156 C1161 1.390 . S
C1157 C1151 1.465 . S
C1157 C1156 1.396 . S
C1157 C1158 1.399 . S
C1158 H1144 0.929 . S
C1158 C1157 1.399 . S
C1158 C1159 1.385 . S
C1159 H1145 0.931 . S
C1159 C1158 1.385 . S
C1159 C1160 1.389 . S
C1160 C1159 1.389 . S
C1160 C1161 1.387 . S
C1161 H1146 0.930 . S
C1161 C1156 1.390 . S
C1161 C1160 1.387 . S
H1162 C1174 0.930 . S
H1163 C1176 0.930 . S
H1164 C1177 0.930 . S
H1165 C1181 0.959 . S
H1166 C1181 0.959 . S
H1167 C1181 0.961 . S
H1168 C1182 0.960 . S
H1169 C1182 0.961 . S
H1170 C1182 0.959 . S
H1171 C1185 0.929 . S
H1172 C1186 0.931 . S
H1173 C1188 0.930 . S
C1174 H1162 0.930 . S
C1174 C1175 1.399 . S
C1174 C1179 1.399 . S
C1175 C1174 1.399 . S
C1175 C1176 1.376 . S
C1176 H1163 0.930 . S
C1176 C1175 1.376 . S
C1176 C1177 1.388 . S
C1177 H1164 0.930 . S
C1177 C1176 1.388 . S
C1177 C1178 1.390 . S
C1178 C1177 1.390 . S
C1178 C1179 1.394 . S
C1178 C1184 1.465 . S
C1179 C1174 1.399 . S
C1179 C1178 1.394 . S
C1179 C1180 1.516 . S
C1180 C1179 1.516 . S
C1180 C1181 1.502 . S
C1180 C1182 1.561 . S
C1180 C1183 1.526 . S
C1181 H1165 0.959 . S
C1181 H1166 0.959 . S
C1181 H1167 0.961 . S
C1181 C1180 1.502 . S
C1182 H1168 0.960 . S
C1182 H1169 0.961 . S
C1182 H1170 0.959 . S
C1182 C1180 1.561 . S
C1183 C1180 1.526 . S
C1183 C1184 1.396 . S
C1183 C1188 1.390 . S
C1184 C1178 1.465 . S
C1184 C1183 1.396 . S
C1184 C1185 1.399 . S
C1185 H1171 0.929 . S
C1185 C1184 1.399 . S
C1185 C1186 1.385 . S
C1186 H1172 0.931 . S
C1186 C1185 1.385 . S
C1186 C1187 1.389 . S
C1187 C1186 1.389 . S
C1187 C1188 1.387 . S
C1188 H1173 0.930 . S
C1188 C1183 1.390 . S
C1188 C1187 1.387 . S
H1189 C1201 0.930 . S
H1190 C1203 0.930 . S
H1191 C1204 0.930 . S
H1192 C1208 0.959 . S
H1193 C1208 0.959 1_554 S
H1194 C1208 0.961 . S
H1195 C1209 0.960 . S
H1196 C1209 0.961 . S
H1197 C1209 0.959 . S
H1198 C1212 0.929 . S
H1199 C1213 0.931 . S
H1200 C1215 0.930 1_554 S
C1201 H1189 0.930 . S
C1201 C1202 1.399 . S
C1201 C1206 1.399 . S
C1202 C1201 1.399 . S
C1202 C1203 1.376 . S
C1203 H1190 0.930 . S
C1203 C1202 1.376 . S
C1203 C1204 1.388 . S
C1204 H1191 0.930 . S
C1204 C1203 1.388 . S
C1204 C1205 1.390 . S
C1205 C1204 1.390 . S
C1205 C1206 1.394 . S
C1205 C1211 1.465 . S
C1206 C1201 1.399 . S
C1206 C1205 1.394 . S
C1206 C1207 1.516 . S
C1207 C1206 1.516 . S
C1207 C1208 1.502 . S
C1207 C1209 1.561 1_556 S
C1207 C1210 1.526 . S
C1208 H1192 0.959 . S
C1208 H1193 0.959 1_556 S
C1208 H1194 0.961 . S
C1208 C1207 1.502 . S
C1209 H1195 0.960 . S
C1209 H1196 0.961 . S
C1209 H1197 0.959 . S
C1209 C1207 1.561 1_554 S
C1210 C1207 1.526 . S
C1210 C1211 1.396 . S
C1210 C1215 1.390 . S
C1211 C1205 1.465 . S
C1211 C1210 1.396 . S
C1211 C1212 1.399 . S
C1212 H1198 0.929 . S
C1212 C1211 1.399 . S
C1212 C1213 1.385 . S
C1213 H1199 0.931 . S
C1213 C1212 1.385 . S
C1213 C1214 1.389 . S
C1214 C1213 1.389 . S
C1214 C1215 1.387 . S
C1215 H1200 0.930 1_556 S
C1215 C1210 1.390 . S
C1215 C1214 1.387 . S
H1216 C1228 0.930 . S
H1217 C1230 0.930 . S
H1218 C1231 0.930 . S
H1219 C1235 0.959 . S
H1220 C1235 0.959 . S
H1221 C1235 0.961 . S
H1222 C1236 0.960 . S
H1223 C1236 0.961 . S
H1224 C1236 0.959 . S
H1225 C1239 0.929 . S
H1226 C1240 0.931 . S
H1227 C1242 0.930 . S
C1228 H1216 0.930 . S
C1228 C1229 1.399 . S
C1228 C1233 1.399 . S
C1229 C1228 1.399 . S
C1229 C1230 1.376 . S
C1230 H1217 0.930 . S
C1230 C1229 1.376 . S
C1230 C1231 1.388 . S
C1231 H1218 0.930 . S
C1231 C1230 1.388 . S
C1231 C1232 1.390 . S
C1232 C1231 1.390 . S
C1232 C1233 1.394 . S
C1232 C1238 1.465 . S
C1233 C1228 1.399 . S
C1233 C1232 1.394 . S
C1233 C1234 1.516 . S
C1234 C1233 1.516 . S
C1234 C1235 1.502 . S
C1234 C1236 1.561 . S
C1234 C1237 1.526 . S
C1235 H1219 0.959 . S
C1235 H1220 0.959 . S
C1235 H1221 0.961 . S
C1235 C1234 1.502 . S
C1236 H1222 0.960 . S
C1236 H1223 0.961 . S
C1236 H1224 0.959 . S
C1236 C1234 1.561 . S
C1237 C1234 1.526 . S
C1237 C1238 1.396 . S
C1237 C1242 1.390 . S
C1238 C1232 1.465 . S
C1238 C1237 1.396 . S
C1238 C1239 1.399 . S
C1239 H1225 0.929 . S
C1239 C1238 1.399 . S
C1239 C1240 1.385 . S
C1240 H1226 0.931 . S
C1240 C1239 1.385 . S
C1240 C1241 1.389 . S
C1241 C1240 1.389 . S
C1241 C1242 1.387 . S
C1242 H1227 0.930 . S
C1242 C1237 1.390 . S
C1242 C1241 1.387 . S
H1243 C1255 0.930 . S
H1244 C1257 0.930 . S
H1245 C1258 0.930 . S
H1246 C1262 0.959 . S
H1247 C1262 0.959 . S
H1248 C1262 0.961 . S
H1249 C1263 0.960 . S
H1250 C1263 0.961 . S
H1251 C1263 0.959 . S
H1252 C1266 0.929 . S
H1253 C1267 0.931 . S
H1254 C1269 0.930 . S
C1255 H1243 0.930 . S
C1255 C1256 1.399 . S
C1255 C1260 1.399 . S
C1256 C1255 1.399 . S
C1256 C1257 1.376 . S
C1257 H1244 0.930 . S
C1257 C1256 1.376 . S
C1257 C1258 1.388 . S
C1258 H1245 0.930 . S
C1258 C1257 1.388 . S
C1258 C1259 1.390 . S
C1259 C1258 1.390 . S
C1259 C1260 1.394 . S
C1259 C1265 1.465 . S
C1260 C1255 1.399 . S
C1260 C1259 1.394 . S
C1260 C1261 1.516 . S
C1261 C1260 1.516 . S
C1261 C1262 1.502 . S
C1261 C1263 1.561 . S
C1261 C1264 1.526 . S
C1262 H1246 0.959 . S
C1262 H1247 0.959 . S
C1262 H1248 0.961 . S
C1262 C1261 1.502 . S
C1263 H1249 0.960 . S
C1263 H1250 0.961 . S
C1263 H1251 0.959 . S
C1263 C1261 1.561 . S
C1264 C1261 1.526 . S
C1264 C1265 1.396 . S
C1264 C1269 1.390 . S
C1265 C1259 1.465 . S
C1265 C1264 1.396 . S
C1265 C1266 1.399 . S
C1266 H1252 0.929 . S
C1266 C1265 1.399 . S
C1266 C1267 1.385 . S
C1267 H1253 0.931 . S
C1267 C1266 1.385 . S
C1267 C1268 1.389 . S
C1268 C1267 1.389 . S
C1268 C1269 1.387 . S
C1269 H1254 0.930 . S
C1269 C1264 1.390 . S
C1269 C1268 1.387 . S
H1270 C1282 0.930 . S
H1271 C1284 0.930 . S
H1272 C1285 0.930 . S
H1273 C1289 0.959 . S
H1274 C1289 0.959 . S
H1275 C1289 0.961 . S
H1276 C1290 0.960 . S
H1277 C1290 0.961 . S
H1278 C1290 0.959 . S
H1279 C1293 0.929 . S
H1280 C1294 0.931 . S
H1281 C1296 0.930 . S
C1282 H1270 0.930 . S
C1282 C1283 1.399 . S
C1282 C1287 1.399 . S
C1283 C1282 1.399 . S
C1283 C1284 1.376 . S
C1284 H1271 0.930 . S
C1284 C1283 1.376 . S
C1284 C1285 1.388 . S
C1285 H1272 0.930 . S
C1285 C1284 1.388 . S
C1285 C1286 1.390 . S
C1286 C1285 1.390 . S
C1286 C1287 1.394 . S
C1286 C1292 1.465 . S
C1287 C1282 1.399 . S
C1287 C1286 1.394 . S
C1287 C1288 1.516 . S
C1288 C1287 1.516 . S
C1288 C1289 1.502 . S
C1288 C1290 1.561 . S
C1288 C1291 1.526 . S
C1289 H1273 0.959 . S
C1289 H1274 0.959 . S
C1289 H1275 0.961 . S
C1289 C1288 1.502 . S
C1290 H1276 0.960 . S
C1290 H1277 0.961 . S
C1290 H1278 0.959 . S
C1290 C1288 1.561 . S
C1291 C1288 1.526 . S
C1291 C1292 1.396 . S
C1291 C1296 1.390 . S
C1292 C1286 1.465 . S
C1292 C1291 1.396 . S
C1292 C1293 1.399 . S
C1293 H1279 0.929 . S
C1293 C1292 1.399 . S
C1293 C1294 1.385 . S
C1294 H1280 0.931 . S
C1294 C1293 1.385 . S
C1294 C1295 1.389 . S
C1295 C1294 1.389 . S
C1295 C1296 1.387 . S
C1296 H1281 0.930 . S
C1296 C1291 1.390 . S
C1296 C1295 1.387 . S
H1297 C1309 0.930 . S
H1298 C1311 0.930 . S
H1299 C1312 0.930 . S
H1300 C1316 0.959 . S
H1301 C1316 0.959 1_556 S
H1302 C1316 0.961 . S
H1303 C1317 0.960 . S
H1304 C1317 0.961 1_655 S
H1305 C1317 0.959 . S
H1306 C1320 0.929 . S
H1307 C1321 0.931 . S
H1308 C1323 0.930 . S
C1309 H1297 0.930 . S
C1309 C1310 1.399 . S
C1309 C1314 1.399 . S
C1310 C1309 1.399 . S
C1310 C1311 1.376 . S
C1311 H1298 0.930 . S
C1311 C1310 1.376 . S
C1311 C1312 1.388 . S
C1312 H1299 0.930 . S
C1312 C1311 1.388 . S
C1312 C1313 1.390 . S
C1313 C1312 1.390 . S
C1313 C1314 1.394 . S
C1313 C1319 1.465 . S
C1314 C1309 1.399 . S
C1314 C1313 1.394 . S
C1314 C1315 1.516 1_455 S
C1315 C1314 1.516 1_655 S
C1315 C1316 1.502 . S
C1315 C1317 1.561 1_654 S
C1315 C1318 1.526 1_554 S
C1316 H1300 0.959 . S
C1316 H1301 0.959 1_554 S
C1316 H1302 0.961 . S
C1316 C1315 1.502 . S
C1317 H1303 0.960 . S
C1317 H1304 0.961 1_455 S
C1317 H1305 0.959 . S
C1317 C1315 1.561 1_456 S
C1318 C1315 1.526 1_556 S
C1318 C1319 1.396 1_656 S
C1318 C1323 1.390 . S
C1319 C1313 1.465 . S
C1319 C1318 1.396 1_454 S
C1319 C1320 1.399 1_554 S
C1320 H1306 0.929 . S
C1320 C1319 1.399 1_556 S
C1320 C1321 1.385 1_455 S
C1321 H1307 0.931 . S
C1321 C1320 1.385 1_655 S
C1321 C1322 1.389 . S
C1322 C1321 1.389 . S
C1322 C1323 1.387 . S
C1323 H1308 0.930 . S
C1323 C1318 1.390 . S
C1323 C1322 1.387 . S
H1324 C1336 0.930 . S
H1325 C1338 0.930 . S
H1326 C1339 0.930 . S
H1327 C1343 0.959 . S
H1328 C1343 0.959 . S
H1329 C1343 0.961 . S
H1330 C1344 0.960 . S
H1331 C1344 0.961 . S
H1332 C1344 0.959 . S
H1333 C1347 0.929 . S
H1334 C1348 0.931 . S
H1335 C1350 0.930 . S
C1336 H1324 0.930 . S
C1336 C1337 1.399 . S
C1336 C1341 1.399 . S
C1337 C1336 1.399 . S
C1337 C1338 1.376 . S
C1338 H1325 0.930 . S
C1338 C1337 1.376 . S
C1338 C1339 1.388 . S
C1339 H1326 0.930 . S
C1339 C1338 1.388 . S
C1339 C1340 1.390 . S
C1340 C1339 1.390 . S
C1340 C1341 1.394 . S
C1340 C1346 1.465 . S
C1341 C1336 1.399 . S
C1341 C1340 1.394 . S
C1341 C1342 1.516 . S
C1342 C1341 1.516 . S
C1342 C1343 1.502 . S
C1342 C1344 1.561 . S
C1342 C1345 1.526 . S
C1343 H1327 0.959 . S
C1343 H1328 0.959 . S
C1343 H1329 0.961 . S
C1343 C1342 1.502 . S
C1344 H1330 0.960 . S
C1344 H1331 0.961 . S
C1344 H1332 0.959 . S
C1344 C1342 1.561 . S
C1345 C1342 1.526 . S
C1345 C1346 1.396 . S
C1345 C1350 1.390 . S
C1346 C1340 1.465 . S
C1346 C1345 1.396 . S
C1346 C1347 1.399 . S
C1347 H1333 0.929 . S
C1347 C1346 1.399 . S
C1347 C1348 1.385 . S
C1348 H1334 0.931 . S
C1348 C1347 1.385 . S
C1348 C1349 1.389 . S
C1349 C1348 1.389 . S
C1349 C1350 1.387 . S
C1350 H1335 0.930 . S
C1350 C1345 1.390 . S
C1350 C1349 1.387 . S
H1351 C1363 0.930 . S
H1352 C1365 0.930 . S
H1353 C1366 0.930 . S
H1354 C1370 0.959 . S
H1355 C1370 0.959 . S
H1356 C1370 0.961 . S
H1357 C1371 0.960 . S
H1358 C1371 0.961 . S
H1359 C1371 0.959 . S
H1360 C1374 0.929 . S
H1361 C1375 0.931 . S
H1362 C1377 0.930 . S
C1363 H1351 0.930 . S
C1363 C1364 1.399 . S
C1363 C1368 1.399 . S
C1364 C1363 1.399 . S
C1364 C1365 1.376 . S
C1365 H1352 0.930 . S
C1365 C1364 1.376 . S
C1365 C1366 1.388 . S
C1366 H1353 0.930 . S
C1366 C1365 1.388 . S
C1366 C1367 1.390 . S
C1367 C1366 1.390 . S
C1367 C1368 1.394 . S
C1367 C1373 1.465 . S
C1368 C1363 1.399 . S
C1368 C1367 1.394 . S
C1368 C1369 1.516 . S
C1369 C1368 1.516 . S
C1369 C1370 1.502 . S
C1369 C1371 1.561 . S
C1369 C1372 1.526 . S
C1370 H1354 0.959 . S
C1370 H1355 0.959 . S
C1370 H1356 0.961 . S
C1370 C1369 1.502 . S
C1371 H1357 0.960 . S
C1371 H1358 0.961 . S
C1371 H1359 0.959 . S
C1371 C1369 1.561 . S
C1372 C1369 1.526 . S
C1372 C1373 1.396 . S
C1372 C1377 1.390 . S
C1373 C1367 1.465 . S
C1373 C1372 1.396 . S
C1373 C1374 1.399 . S
C1374 H1360 0.929 . S
C1374 C1373 1.399 . S
C1374 C1375 1.385 . S
C1375 H1361 0.931 . S
C1375 C1374 1.385 . S
C1375 C1376 1.389 . S
C1376 C1375 1.389 . S
C1376 C1377 1.387 . S
C1377 H1362 0.930 . S
C1377 C1372 1.390 . S
C1377 C1376 1.387 . S
H1378 C1390 0.930 1_565 S
H1379 C1392 0.930 . S
H1380 C1393 0.930 . S
H1381 C1397 0.959 . S
H1382 C1397 0.959 . S
H1383 C1397 0.961 . S
H1384 C1398 0.960 . S
H1385 C1398 0.961 1_655 S
H1386 C1398 0.959 1_554 S
H1387 C1401 0.929 . S
H1388 C1402 0.931 1_545 S
H1389 C1404 0.930 . S
C1390 H1378 0.930 1_545 S
C1390 C1391 1.399 . S
C1390 C1395 1.387 1_545 S
C1391 C1390 1.399 . S
C1391 C1392 1.376 . S
C1392 H1379 0.930 . S
C1392 C1391 1.376 . S
C1392 C1393 1.388 1_556 S
C1393 H1380 0.930 . S
C1393 C1392 1.388 1_554 S
C1393 C1394 1.390 . S
C1394 C1393 1.390 . S
C1394 C1395 1.370 1_544 S
C1394 C1400 1.465 . S
C1395 C1390 1.387 1_565 S
C1395 C1394 1.370 1_566 S
C1395 C1396 1.552 1_455 S
C1396 C1395 1.552 1_655 S
C1396 C1397 1.502 . S
C1396 C1398 1.561 1_655 S
C1396 C1399 1.526 1_556 S
C1397 H1381 0.959 . S
C1397 H1382 0.959 . S
C1397 H1383 0.961 . S
C1397 C1396 1.502 . S
C1398 H1384 0.960 . S
C1398 H1385 0.961 1_455 S
C1398 H1386 0.959 1_556 S
C1398 C1396 1.561 1_455 S
C1399 C1396 1.526 1_554 S
C1399 C1400 1.396 1_665 S
C1399 C1404 1.390 . S
C1400 C1394 1.465 . S
C1400 C1399 1.396 1_445 S
C1400 C1401 1.399 . S
C1401 H1387 0.929 . S
C1401 C1400 1.399 . S
C1401 C1402 1.385 1_445 S
C1402 H1388 0.931 1_565 S
C1402 C1401 1.385 1_665 S
C1402 C1403 1.389 . S
C1403 C1402 1.389 . S
C1403 C1404 1.387 . S
C1404 H1389 0.930 . S
C1404 C1399 1.390 . S
C1404 C1403 1.387 . S
H1405 C1417 0.930 1_565 S
H1406 C1419 0.930 . S
H1407 C1420 0.930 . S
H1408 C1424 0.959 . S
H1409 C1424 0.959 . S
H1410 C1424 0.961 . S
H1411 C1425 0.960 . S
H1412 C1425 0.961 . S
H1413 C1425 0.959 . S
H1414 C1428 0.929 . S
H1415 C1429 0.931 . S
H1416 C1431 0.930 . S
C1417 H1405 0.930 1_545 S
C1417 C1418 1.399 . S
C1417 C1422 1.399 1_545 S
C1418 C1417 1.399 . S
C1418 C1419 1.376 . S
C1419 H1406 0.930 . S
C1419 C1418 1.376 . S
C1419 C1420 1.388 . S
C1420 H1407 0.930 . S
C1420 C1419 1.388 . S
C1420 C1421 1.390 . S
C1421 C1420 1.390 . S
C1421 C1422 1.394 1_545 S
C1421 C1427 1.465 . S
C1422 C1417 1.399 1_565 S
C1422 C1421 1.394 1_565 S
C1422 C1423 1.516 . S
C1423 C1422 1.516 . S
C1423 C1424 1.502 . S
C1423 C1425 1.561 . S
C1423 C1426 1.526 . S
C1424 H1408 0.959 . S
C1424 H1409 0.959 . S
C1424 H1410 0.961 . S
C1424 C1423 1.502 . S
C1425 H1411 0.960 . S
C1425 H1412 0.961 . S
C1425 H1413 0.959 . S
C1425 C1423 1.561 . S
C1426 C1423 1.526 . S
C1426 C1427 1.396 1_565 S
C1426 C1431 1.390 . S
C1427 C1421 1.465 . S
C1427 C1426 1.396 1_545 S
C1427 C1428 1.399 . S
C1428 H1414 0.929 . S
C1428 C1427 1.399 . S
C1428 C1429 1.385 . S
C1429 H1415 0.931 . S
C1429 C1428 1.385 . S
C1429 C1430 1.389 1_545 S
C1430 C1429 1.389 1_565 S
C1430 C1431 1.387 . S
C1431 H1416 0.930 . S
C1431 C1426 1.390 . S
C1431 C1430 1.387 . S
H1432 C1444 0.930 . S
H1433 C1446 0.930 . S
H1434 C1447 0.930 . S
H1435 C1451 0.959 . S
H1436 C1451 0.959 . S
H1437 C1451 0.961 . S
H1438 C1452 0.960 . S
H1439 C1452 0.961 . S
H1440 C1452 0.959 . S
H1441 C1455 0.929 . S
H1442 C1456 0.931 . S
H1443 C1458 0.930 . S
C1444 H1432 0.930 . S
C1444 C1445 1.399 . S
C1444 C1449 1.399 . S
C1445 C1444 1.399 . S
C1445 C1446 1.376 . S
C1446 H1433 0.930 . S
C1446 C1445 1.376 . S
C1446 C1447 1.388 . S
C1447 H1434 0.930 . S
C1447 C1446 1.388 . S
C1447 C1448 1.390 . S
C1448 C1447 1.390 . S
C1448 C1449 1.394 . S
C1448 C1454 1.465 . S
C1449 C1444 1.399 . S
C1449 C1448 1.394 . S
C1449 C1450 1.516 . S
C1450 C1449 1.516 . S
C1450 C1451 1.502 . S
C1450 C1452 1.561 . S
C1450 C1453 1.526 . S
C1451 H1435 0.959 . S
C1451 H1436 0.959 . S
C1451 H1437 0.961 . S
C1451 C1450 1.502 . S
C1452 H1438 0.960 . S
C1452 H1439 0.961 . S
C1452 H1440 0.959 . S
C1452 C1450 1.561 . S
C1453 C1450 1.526 . S
C1453 C1454 1.396 . S
C1453 C1458 1.390 . S
C1454 C1448 1.465 . S
C1454 C1453 1.396 . S
C1454 C1455 1.399 . S
C1455 H1441 0.929 . S
C1455 C1454 1.399 . S
C1455 C1456 1.385 . S
C1456 H1442 0.931 . S
C1456 C1455 1.385 . S
C1456 C1457 1.389 . S
C1457 C1456 1.389 . S
C1457 C1458 1.387 . S
C1458 H1443 0.930 . S
C1458 C1453 1.390 . S
C1458 C1457 1.387 . S
H1459 C1471 0.930 1_554 S
H1460 C1473 0.930 . S
H1461 C1474 0.930 . S
H1462 C1478 0.959 . S
H1463 C1478 0.959 . S
H1464 C1478 0.961 . S
H1465 C1479 0.960 . S
H1466 C1479 0.961 . S
H1467 C1479 0.959 . S
H1468 C1482 0.929 1_556 S
H1469 C1483 0.931 . S
H1470 C1485 0.930 . S
C1471 H1459 0.930 1_556 S
C1471 C1472 1.399 . S
C1471 C1476 1.399 1_556 S
C1472 C1471 1.399 . S
C1472 C1473 1.376 . S
C1473 H1460 0.930 . S
C1473 C1472 1.376 . S
C1473 C1474 1.388 . S
C1474 H1461 0.930 . S
C1474 C1473 1.388 . S
C1474 C1475 1.390 . S
C1475 C1474 1.390 . S
C1475 C1476 1.394 1_556 S
C1475 C1481 1.465 1_556 S
C1476 C1471 1.399 1_554 S
C1476 C1475 1.394 1_554 S
C1476 C1477 1.516 . S
C1477 C1476 1.516 . S
C1477 C1478 1.502 . S
C1477 C1479 1.561 . S
C1477 C1480 1.526 . S
C1478 H1462 0.959 . S
C1478 H1463 0.959 . S
C1478 H1464 0.961 . S
C1478 C1477 1.502 . S
C1479 H1465 0.960 . S
C1479 H1466 0.961 . S
C1479 H1467 0.959 . S
C1479 C1477 1.561 . S
C1480 C1477 1.526 . S
C1480 C1481 1.396 . S
C1480 C1485 1.390 . S
C1481 C1475 1.465 1_554 S
C1481 C1480 1.396 . S
C1481 C1482 1.399 . S
C1482 H1468 0.929 1_554 S
C1482 C1481 1.399 . S
C1482 C1483 1.385 . S
C1483 H1469 0.931 . S
C1483 C1482 1.385 . S
C1483 C1484 1.389 . S
C1484 C1483 1.389 . S
C1484 C1485 1.387 . S
C1485 H1470 0.930 . S
C1485 C1480 1.390 . S
C1485 C1484 1.387 . S
H1486 C1498 0.930 . S
H1487 C1500 0.930 . S
H1488 C1501 0.930 . S
H1489 C1505 0.959 . S
H1490 C1505 0.959 . S
H1491 C1505 0.961 . S
H1492 C1506 0.960 . S
H1493 C1506 0.961 . S
H1494 C1506 0.959 . S
H1495 C1509 0.929 . S
H1496 C1510 0.931 . S
H1497 C1512 0.930 . S
C1498 H1486 0.930 . S
C1498 C1499 1.399 . S
C1498 C1503 1.399 . S
C1499 C1498 1.399 . S
C1499 C1500 1.376 . S
C1500 H1487 0.930 . S
C1500 C1499 1.376 . S
C1500 C1501 1.388 . S
C1501 H1488 0.930 . S
C1501 C1500 1.388 . S
C1501 C1502 1.390 . S
C1502 C1501 1.390 . S
C1502 C1503 1.394 . S
C1502 C1508 1.465 . S
C1503 C1498 1.399 . S
C1503 C1502 1.394 . S
C1503 C1504 1.516 . S
C1504 C1503 1.516 . S
C1504 C1505 1.502 . S
C1504 C1506 1.561 . S
C1504 C1507 1.526 . S
C1505 H1489 0.959 . S
C1505 H1490 0.959 . S
C1505 H1491 0.961 . S
C1505 C1504 1.502 . S
C1506 H1492 0.960 . S
C1506 H1493 0.961 . S
C1506 H1494 0.959 . S
C1506 C1504 1.561 . S
C1507 C1504 1.526 . S
C1507 C1508 1.396 . S
C1507 C1512 1.390 . S
C1508 C1502 1.465 . S
C1508 C1507 1.396 . S
C1508 C1509 1.399 . S
C1509 H1495 0.929 . S
C1509 C1508 1.399 . S
C1509 C1510 1.385 . S
C1510 H1496 0.931 . S
C1510 C1509 1.385 . S
C1510 C1511 1.389 . S
C1511 C1510 1.389 . S
C1511 C1512 1.387 . S
C1512 H1497 0.930 . S
C1512 C1507 1.390 . S
C1512 C1511 1.387 . S
H1513 C1525 0.930 . S
H1514 C1527 0.930 . S
H1515 C1528 0.930 . S
H1516 C1532 0.959 . S
H1517 C1532 0.959 . S
H1518 C1532 0.961 . S
H1519 C1533 0.960 . S
H1520 C1533 0.961 1_655 S
H1521 C1533 0.959 . S
H1522 C1536 0.929 1_455 S
H1523 C1537 0.931 . S
H1524 C1539 0.930 . S
C1525 H1513 0.930 . S
C1525 C1526 1.399 . S
C1525 C1530 1.399 . S
C1526 C1525 1.399 . S
C1526 C1527 1.376 . S
C1527 H1514 0.930 . S
C1527 C1526 1.376 . S
C1527 C1528 1.388 . S
C1528 H1515 0.930 . S
C1528 C1527 1.388 . S
C1528 C1529 1.390 . S
C1529 C1528 1.390 . S
C1529 C1530 1.394 . S
C1529 C1535 1.440 1_455 S
C1530 C1525 1.399 . S
C1530 C1529 1.394 . S
C1530 C1531 1.516 1_455 S
C1531 C1530 1.516 1_655 S
C1531 C1532 1.502 . S
C1531 C1533 1.561 1_655 S
C1531 C1534 1.526 . S
C1532 H1516 0.959 . S
C1532 H1517 0.959 . S
C1532 H1518 0.961 . S
C1532 C1531 1.502 . S
C1533 H1519 0.960 . S
C1533 H1520 0.961 1_455 S
C1533 H1521 0.959 . S
C1533 C1531 1.561 1_455 S
C1534 C1531 1.526 . S
C1534 C1535 1.421 . S
C1534 C1539 1.390 . S
C1535 C1529 1.440 1_655 S
C1535 C1534 1.421 . S
C1535 C1536 1.403 . S
C1536 H1522 0.929 1_655 S
C1536 C1535 1.403 . S
C1536 C1537 1.385 . S
C1537 H1523 0.931 . S
C1537 C1536 1.385 . S
C1537 C1538 1.389 . S
C1538 C1537 1.389 . S
C1538 C1539 1.387 . S
C1539 H1524 0.930 . S
C1539 C1534 1.390 . S
C1539 C1538 1.387 . S
H1540 C1552 0.930 . S
H1541 C1554 0.930 . S
H1542 C1555 0.930 . S
H1543 C1559 0.959 . S
H1544 C1559 0.959 . S
H1545 C1559 0.961 . S
H1546 C1560 0.960 . S
H1547 C1560 0.961 . S
H1548 C1560 0.959 . S
H1549 C1563 0.929 . S
H1550 C1564 0.931 . S
H1551 C1566 0.930 . S
C1552 H1540 0.930 . S
C1552 C1553 1.399 . S
C1552 C1557 1.399 . S
C1553 C1552 1.399 . S
C1553 C1554 1.376 . S
C1554 H1541 0.930 . S
C1554 C1553 1.376 . S
C1554 C1555 1.388 . S
C1555 H1542 0.930 . S
C1555 C1554 1.388 . S
C1555 C1556 1.390 . S
C1556 C1555 1.390 . S
C1556 C1557 1.394 . S
C1556 C1562 1.465 . S
C1557 C1552 1.399 . S
C1557 C1556 1.394 . S
C1557 C1558 1.516 . S
C1558 C1557 1.516 . S
C1558 C1559 1.502 . S
C1558 C1560 1.561 . S
C1558 C1561 1.526 . S
C1559 H1543 0.959 . S
C1559 H1544 0.959 . S
C1559 H1545 0.961 . S
C1559 C1558 1.502 . S
C1560 H1546 0.960 . S
C1560 H1547 0.961 . S
C1560 H1548 0.959 . S
C1560 C1558 1.561 . S
C1561 C1558 1.526 . S
C1561 C1562 1.396 . S
C1561 C1566 1.390 . S
C1562 C1556 1.465 . S
C1562 C1561 1.396 . S
C1562 C1563 1.399 . S
C1563 H1549 0.929 . S
C1563 C1562 1.399 . S
C1563 C1564 1.385 . S
C1564 H1550 0.931 . S
C1564 C1563 1.385 . S
C1564 C1565 1.389 . S
C1565 C1564 1.389 . S
C1565 C1566 1.387 . S
C1566 H1551 0.930 . S
C1566 C1561 1.390 . S
C1566 C1565 1.387 . S
H1567 C1579 0.930 . S
H1568 C1581 0.930 . S
H1569 C1582 0.930 . S
H1570 C1586 0.959 . S
H1571 C1586 0.959 . S
H1572 C1586 0.961 . S
H1573 C1587 0.960 . S
H1574 C1587 0.961 . S
H1575 C1587 0.959 . S
H1576 C1590 0.929 . S
H1577 C1591 0.931 . S
H1578 C1593 0.930 . S
C1579 H1567 0.930 . S
C1579 C1580 1.399 . S
C1579 C1584 1.399 . S
C1580 C1579 1.399 . S
C1580 C1581 1.376 . S
C1581 H1568 0.930 . S
C1581 C1580 1.376 . S
C1581 C1582 1.388 . S
C1582 H1569 0.930 . S
C1582 C1581 1.388 . S
C1582 C1583 1.390 . S
C1583 C1582 1.390 . S
C1583 C1584 1.394 . S
C1583 C1589 1.465 . S
C1584 C1579 1.399 . S
C1584 C1583 1.394 . S
C1584 C1585 1.516 . S
C1585 C1584 1.516 . S
C1585 C1586 1.502 . S
C1585 C1587 1.561 . S
C1585 C1588 1.526 . S
C1586 H1570 0.959 . S
C1586 H1571 0.959 . S
C1586 H1572 0.961 . S
C1586 C1585 1.502 . S
C1587 H1573 0.960 . S
C1587 H1574 0.961 . S
C1587 H1575 0.959 . S
C1587 C1585 1.561 . S
C1588 C1585 1.526 . S
C1588 C1589 1.396 . S
C1588 C1593 1.390 . S
C1589 C1583 1.465 . S
C1589 C1588 1.396 . S
C1589 C1590 1.399 . S
C1590 H1576 0.929 . S
C1590 C1589 1.399 . S
C1590 C1591 1.385 . S
C1591 H1577 0.931 . S
C1591 C1590 1.385 . S
C1591 C1592 1.389 . S
C1592 C1591 1.389 . S
C1592 C1593 1.387 . S
C1593 H1578 0.930 . S
C1593 C1588 1.390 . S
C1593 C1592 1.387 . S
H1594 C1606 0.930 . S
H1595 C1608 0.930 . S
H1596 C1609 0.930 . S
H1597 C1613 0.959 . S
H1598 C1613 0.959 . S
H1599 C1613 0.961 . S
H1600 C1614 0.960 . S
H1601 C1614 0.961 . S
H1602 C1614 0.959 . S
H1603 C1617 0.929 . S
H1604 C1618 0.931 . S
H1605 C1620 0.930 . S
C1606 H1594 0.930 . S
C1606 C1607 1.399 . S
C1606 C1611 1.399 . S
C1607 C1606 1.399 . S
C1607 C1608 1.376 . S
C1608 H1595 0.930 . S
C1608 C1607 1.376 . S
C1608 C1609 1.388 . S
C1609 H1596 0.930 . S
C1609 C1608 1.388 . S
C1609 C1610 1.390 . S
C1610 C1609 1.390 . S
C1610 C1611 1.394 . S
C1610 C1616 1.465 1_655 S
C1611 C1606 1.399 . S
C1611 C1610 1.394 . S
C1611 C1612 1.516 1_665 S
C1612 C1611 1.516 1_445 S
C1612 C1613 1.502 . S
C1612 C1614 1.561 1_455 S
C1612 C1615 1.526 . S
C1613 H1597 0.959 . S
C1613 H1598 0.959 . S
C1613 H1599 0.961 . S
C1613 C1612 1.502 . S
C1614 H1600 0.960 . S
C1614 H1601 0.961 . S
C1614 H1602 0.959 . S
C1614 C1612 1.561 1_655 S
C1615 C1612 1.526 . S
C1615 C1616 1.396 1_545 S
C1615 C1620 1.390 . S
C1616 C1610 1.465 1_455 S
C1616 C1615 1.396 1_565 S
C1616 C1617 1.399 . S
C1617 H1603 0.929 . S
C1617 C1616 1.399 . S
C1617 C1618 1.385 1_565 S
C1618 H1604 0.931 . S
C1618 C1617 1.385 1_545 S
C1618 C1619 1.389 . S
C1619 C1618 1.389 . S
C1619 C1620 1.387 . S
C1620 H1605 0.930 . S
C1620 C1615 1.390 . S
C1620 C1619 1.387 . S
H1621 C1633 0.930 . S
H1622 C1635 0.930 . S
H1623 C1636 0.930 . S
H1624 C1640 0.959 . S
H1625 C1640 0.959 1_554 S
H1626 C1640 0.961 . S
H1627 C1641 0.960 . S
H1628 C1641 0.961 . S
H1629 C1641 0.959 . S
H1630 C1644 0.929 . S
H1631 C1645 0.931 . S
H1632 C1647 0.930 . S
C1633 H1621 0.930 . S
C1633 C1634 1.399 . S
C1633 C1638 1.399 . S
C1634 C1633 1.399 . S
C1634 C1635 1.376 . S
C1635 H1622 0.930 . S
C1635 C1634 1.376 . S
C1635 C1636 1.388 . S
C1636 H1623 0.930 . S
C1636 C1635 1.388 . S
C1636 C1637 1.390 1_556 S
C1637 C1636 1.390 1_554 S
C1637 C1638 1.394 1_554 S
C1637 C1643 1.465 . S
C1638 C1633 1.399 . S
C1638 C1637 1.394 1_556 S
C1638 C1639 1.516 1_546 S
C1639 C1638 1.516 1_564 S
C1639 C1640 1.502 1_554 S
C1639 C1641 1.561 . S
C1639 C1642 1.526 . S
C1640 H1624 0.959 . S
C1640 H1625 0.959 1_556 S
C1640 H1626 0.961 . S
C1640 C1639 1.502 1_556 S
C1641 H1627 0.960 . S
C1641 H1628 0.961 . S
C1641 H1629 0.959 . S
C1641 C1639 1.561 . S
C1642 C1639 1.526 . S
C1642 C1643 1.396 1_565 S
C1642 C1647 1.390 . S
C1643 C1637 1.465 . S
C1643 C1642 1.396 1_545 S
C1643 C1644 1.399 . S
C1644 H1630 0.929 . S
C1644 C1643 1.399 . S
C1644 C1645 1.385 1_545 S
C1645 H1631 0.931 . S
C1645 C1644 1.385 1_565 S
C1645 C1646 1.389 . S
C1646 C1645 1.389 . S
C1646 C1647 1.387 . S
C1647 H1632 0.930 . S
C1647 C1642 1.390 . S
C1647 C1646 1.387 . S
C365 C7 1.527 1_556 S
C377 C203 1.635 . S
C392 C225 1.635 . S
C404 C28 1.528 . S
C419 C251 1.595 . S
C431 C50 1.579 . S
C446 C185 1.593 . S
C458 C73 1.579 . S
C473 C93 1.579 . S
C485 C292 1.621 . S
C500 C115 1.491 . S
C512 C315 1.608 . S
C527 C337 1.553 . S
C539 C141 1.477 . S
C554 C270 1.605 . S
C566 C163 1.488 . S
C581 C27 1.554 . S
C593 C183 1.552 . S
C608 C49 1.610 . S
C620 C204 1.472 . S
C635 C75 1.607 . S
C647 C226 1.575 . S
C662 C249 1.554 . S
C674 C9 1.627 . S
C689 C116 1.553 . S
C701 C269 1.477 . S
C716 C139 1.635 . S
C728 C291 1.558 . S
C743 C161 1.549 . S
C755 C317 1.494 . S
C770 C94 1.568 . S
C782 C339 1.469 . S
C797 C6 1.451 . S
C809 C334 1.499 . S
C824 C29 1.491 . S
C836 C96 1.501 . S
C851 C294 1.504 . S
C863 C51 1.430 . S
C878 C136 1.499 . S
C890 C72 1.450 . S
C905 C97 1.465 . S
C917 C246 1.498 . S
C932 C4 1.498 1_556 S
C944 C119 1.467 . S
C959 C137 1.406 . S
C971 C206 1.509 . S
C986 C159 1.408 . S
C998 C52 1.506 . S
C1013 C182 1.460 . S
C1025 C158 1.521 . S
C1040 C272 1.522 . S
C1052 C205 1.459 . S
C1067 C227 1.444 . S
C1079 C118 1.500 . S
C1094 C312 1.513 . S
C1106 C248 1.482 . S
C1121 C273 1.460 . S
C1133 C70 1.525 . S
C1148 C180 1.513 . S
C1160 C295 1.408 . S
C1175 C313 1.429 . S
C1187 C30 1.498 . S
C1202 C335 1.407 . S
C1214 C228 1.509 1_556 S
C1229 C8 1.349 . S
C1241 C268 1.389 . S
C1256 C114 1.336 . S
C1268 C26 1.391 . S
C1283 C48 1.340 . S
C1295 C316 1.395 . S
C1310 C162 1.390 . S
C1322 C74 1.348 . S
C1337 C92 1.371 . S
C1349 C184 1.371 . S
C1364 C224 1.338 . S
C1376 C140 1.396 . S
C1391 C202 1.391 . S
C1403 C290 1.348 . S
C1418 C338 1.351 . S
C1430 C250 1.372 . S
C1445 C271 1.139 . S
C1457 C5 1.158 . S
C1472 C117 1.104 . S
C1484 C31 1.186 . S
C1499 C53 1.127 . S
C1511 C314 1.168 . S
C1526 C160 1.185 . S
C1538 C71 1.083 . S
C1553 C95 1.077 . S
C1565 C181 1.193 . S
C1580 C138 1.115 . S
C1592 C229 1.145 . S
C1607 C293 1.192 . S
C1619 C207 1.079 . S
C1634 C336 1.186 . S
C1646 C247 1.105 . S
