# Generated by pormake.
# Topology wkt, (7)-cn, num edge types: 1
# Building blocks:
#     Node 0, Type 0, BuildingBlock: NUHQUE_clean_sbu_2, # of connection points: 7
#     Node 1, Type 0, BuildingBlock: NUHQUE_clean_sbu_2, # of connection points: 7
#     Node 2, Type 0, BuildingBlock: NUHQUE_clean_sbu_2, # of connection points: 7
#     Node 3, Type 0, BuildingBlock: NUHQUE_clean_sbu_2, # of connection points: 7
#     Node 4, Type 0, BuildingBlock: NUHQUE_clean_sbu_2, # of connection points: 7
#     Node 5, Type 0, BuildingBlock: NUHQUE_clean_sbu_2, # of connection points: 7
#     Node 6, Type 0, BuildingBlock: NUHQUE_clean_sbu_2, # of connection points: 7
#     Node 7, Type 0, BuildingBlock: NUHQUE_clean_sbu_2, # of connection points: 7
#     Node 8, Type 0, BuildingBlock: NUHQUE_clean_sbu_2, # of connection points: 7
#     Node 9, Type 0, BuildingBlock: NUHQUE_clean_sbu_2, # of connection points: 7
#     Node 10, Type 0, BuildingBlock: NUHQUE_clean_sbu_2, # of connection points: 7
#     Node 11, Type 0, BuildingBlock: NUHQUE_clean_sbu_2, # of connection points: 7
#     Edge 12, Type (0, 0), BuildingBlock: XUDNAN_clean_linker_2, # of connection points: 2
#     Edge 13, Type (0, 0), BuildingBlock: XUDNAN_clean_linker_2, # of connection points: 2
#     Edge 14, Type (0, 0), BuildingBlock: XUDNAN_clean_linker_2, # of connection points: 2
#     Edge 15, Type (0, 0), BuildingBlock: XUDNAN_clean_linker_2, # of connection points: 2
#     Edge 16, Type (0, 0), BuildingBlock: XUDNAN_clean_linker_2, # of connection points: 2
#     Edge 17, Type (0, 0), BuildingBlock: XUDNAN_clean_linker_2, # of connection points: 2
#     Edge 18, Type (0, 0), BuildingBlock: XUDNAN_clean_linker_2, # of connection points: 2
#     Edge 19, Type (0, 0), BuildingBlock: XUDNAN_clean_linker_2, # of connection points: 2
#     Edge 20, Type (0, 0), BuildingBlock: XUDNAN_clean_linker_2, # of connection points: 2
#     Edge 21, Type (0, 0), BuildingBlock: XUDNAN_clean_linker_2, # of connection points: 2
#     Edge 22, Type (0, 0), BuildingBlock: XUDNAN_clean_linker_2, # of connection points: 2
#     Edge 23, Type (0, 0), BuildingBlock: XUDNAN_clean_linker_2, # of connection points: 2
#     Edge 24, Type (0, 0), BuildingBlock: XUDNAN_clean_linker_2, # of connection points: 2
#     Edge 25, Type (0, 0), BuildingBlock: XUDNAN_clean_linker_2, # of connection points: 2
#     Edge 26, Type (0, 0), BuildingBlock: XUDNAN_clean_linker_2, # of connection points: 2
#     Edge 27, Type (0, 0), BuildingBlock: XUDNAN_clean_linker_2, # of connection points: 2
#     Edge 28, Type (0, 0), BuildingBlock: XUDNAN_clean_linker_2, # of connection points: 2
#     Edge 29, Type (0, 0), BuildingBlock: XUDNAN_clean_linker_2, # of connection points: 2
#     Edge 30, Type (0, 0), BuildingBlock: XUDNAN_clean_linker_2, # of connection points: 2
#     Edge 31, Type (0, 0), BuildingBlock: XUDNAN_clean_linker_2, # of connection points: 2
#     Edge 32, Type (0, 0), BuildingBlock: XUDNAN_clean_linker_2, # of connection points: 2
#     Edge 33, Type (0, 0), BuildingBlock: XUDNAN_clean_linker_2, # of connection points: 2
#     Edge 34, Type (0, 0), BuildingBlock: XUDNAN_clean_linker_2, # of connection points: 2
#     Edge 35, Type (0, 0), BuildingBlock: XUDNAN_clean_linker_2, # of connection points: 2
#     Edge 36, Type (0, 0), BuildingBlock: XUDNAN_clean_linker_2, # of connection points: 2
#     Edge 37, Type (0, 0), BuildingBlock: XUDNAN_clean_linker_2, # of connection points: 2
#     Edge 38, Type (0, 0), BuildingBlock: XUDNAN_clean_linker_2, # of connection points: 2
#     Edge 39, Type (0, 0), BuildingBlock: XUDNAN_clean_linker_2, # of connection points: 2
#     Edge 40, Type (0, 0), BuildingBlock: XUDNAN_clean_linker_2, # of connection points: 2
#     Edge 41, Type (0, 0), BuildingBlock: XUDNAN_clean_linker_2, # of connection points: 2
#     Edge 42, Type (0, 0), BuildingBlock: XUDNAN_clean_linker_2, # of connection points: 2
#     Edge 43, Type (0, 0), BuildingBlock: XUDNAN_clean_linker_2, # of connection points: 2
#     Edge 44, Type (0, 0), BuildingBlock: XUDNAN_clean_linker_2, # of connection points: 2
#     Edge 45, Type (0, 0), BuildingBlock: XUDNAN_clean_linker_2, # of connection points: 2
#     Edge 46, Type (0, 0), BuildingBlock: XUDNAN_clean_linker_2, # of connection points: 2
#     Edge 47, Type (0, 0), BuildingBlock: XUDNAN_clean_linker_2, # of connection points: 2
#     Edge 48, Type (0, 0), BuildingBlock: XUDNAN_clean_linker_2, # of connection points: 2
#     Edge 49, Type (0, 0), BuildingBlock: XUDNAN_clean_linker_2, # of connection points: 2
#     Edge 50, Type (0, 0), BuildingBlock: XUDNAN_clean_linker_2, # of connection points: 2
#     Edge 51, Type (0, 0), BuildingBlock: XUDNAN_clean_linker_2, # of connection points: 2
#     Edge 52, Type (0, 0), BuildingBlock: XUDNAN_clean_linker_2, # of connection points: 2
#     Edge 53, Type (0, 0), BuildingBlock: XUDNAN_clean_linker_2, # of connection points: 2
# Relax obj value: 0.267
# Max RMSD: 0.278
# Mean RMSD: 0.278
data_MOF--net-wkt--node1-NUHQUE_clean_sbu_2--edge1-XUDNAN_clean_linker_2
_symmetry_space_group_name_H-M    P1
_symmetry_Int_Tables_number       1
_symmetry_cell_setting            triclinic
loop_
_symmetry_equiv_pos_as_xyz
'x, y, z'
_cell_length_a     31.040644
_cell_length_b     31.232862
_cell_length_c     72.669081
_cell_angle_alpha  90.109465
_cell_angle_beta   89.850845
_cell_angle_gamma 119.52775
loop_
_atom_site_label
_atom_site_type_symbol
_atom_site_fract_x
_atom_site_fract_y
_atom_site_fract_z
_atom_type_partial_charge
O0 O 0.403 0.48894 0.01302 0.0
Tb1 Tb 0.44634 0.54827 -0.00626 0.0
Eu2 Eu 0.39941 0.44158 0.98024 0.0
C3 C 0.38284 0.50112 0.02658 0.0
O4 O 0.38979 0.54616 0.02699 0.0
C5 C 0.3375 0.50583 0.98113 0.0
O6 O 0.41438 0.455 0.95021 0.0
C7 C 0.36137 0.34838 -0.01326 0.0
C8 C 0.42753 0.49907 0.94415 0.0
O9 O 0.42822 0.53205 0.95546 0.0
C10 C 0.51832 0.51468 0.97897 0.0
C11 C 0.37598 0.30978 -0.01248 0.0
C12 C 0.36604 0.28197 0.00364 0.0
C13 C 0.37405 0.24171 0.00437 0.0
C14 C 0.39169 0.22876 -0.01128 0.0
C15 C 0.40511 0.25769 0.97253 0.0
C16 C 0.39694 0.29855 0.97225 0.0
O17 O 0.38009 0.54723 -0.01751 0.0
O18 O 0.33698 0.4629 -0.01748 0.0
O19 O 0.49149 0.58245 0.01793 0.0
O20 O 0.47279 0.62548 0.00045 0.0
C21 C 0.49657 0.62577 0.01524 0.0
O22 O 0.48359 0.47068 -0.0156 0.0
O23 O 0.50538 0.54866 0.97691 0.0
O24 O 0.36058 0.36623 0.97045 0.0
O25 O 0.3777 0.38173 -6e-05 0.0
H26 H 0.35067 0.2908 0.01553 0.0
H27 H 0.39486 0.19588 -0.01049 0.0
H28 H 0.40676 0.32197 0.96027 0.0
O29 O 0.94847 0.36394 0.1881 0.0
Tb30 Tb 0.92645 0.40074 0.16768 0.0
Eu31 Eu 0.98771 0.35673 0.14986 0.0
C32 C 0.91321 0.32613 0.19707 0.0
O33 O 0.86682 0.31081 0.19276 0.0
C34 C 0.86503 0.29305 0.15304 0.0
O35 O 0.97048 0.36744 0.12091 0.0
C36 C 1.04342 0.31651 0.15026 0.0
C37 C 0.94568 0.39045 0.11753 0.0
O38 O 0.93018 0.40693 0.13113 0.0
C39 C 1.03679 0.47627 0.15489 0.0
C40 C 0.09717 0.33311 0.15095 0.0
C41 C 0.1221 0.34402 0.1679 0.0
C42 C 0.17322 0.36085 0.16874 0.0
C43 C 0.19951 0.36708 0.15224 0.0
C44 C 0.17523 0.35612 0.13517 0.0
C45 C 0.12397 0.33845 0.13465 0.0
O46 O 0.86528 0.33536 0.15414 0.0
O47 O 0.90768 0.29328 0.15505 0.0
O48 O 0.91012 0.42585 0.19337 0.0
O49 O 0.87889 0.43395 0.16849 0.0
C50 C 0.8826 0.44189 0.18612 0.0
O51 O 1.04519 0.4387 0.15562 0.0
O52 O 0.99055 0.46717 0.15601 0.0
O53 O 1.02686 0.32583 0.135 0.0
O54 O 1.02315 0.32303 0.16522 0.0
H55 H 0.10183 0.34027 0.1805 0.0
H56 H 0.23887 0.37972 0.15262 0.0
H57 H 0.1053 0.3303 0.12146 0.0
O58 O 0.61285 0.91821 0.35722 0.0
Tb59 Tb 0.55103 0.90778 0.34006 0.0
Eu60 Eu 0.65179 0.95737 0.31878 0.0
C61 C 0.6075 0.87923 0.36618 0.0
O62 O 0.56622 0.83737 0.3639 0.0
C63 C 0.58312 0.83733 0.32174 0.0
O64 O 0.61704 0.92737 0.29151 0.0
C65 C 0.74761 1.00365 0.31904 0.0
C66 C 0.57 0.91377 0.28997 0.0
O67 O 0.54761 0.92253 0.30351 0.0
C68 C 0.58906 1.01776 0.32539 0.0
C69 C 0.7915 0.05326 0.32161 0.0
C70 C 0.81578 0.06503 0.33862 0.0
C71 C 0.85996 0.10944 0.34131 0.0
C72 C 0.8803 0.14232 0.32644 0.0
C73 C 0.85591 0.13256 0.30924 0.0
C74 C 0.81112 0.08754 0.30713 0.0
O75 O 0.54615 0.84665 0.32331 0.0
O76 O 0.62872 0.87476 0.32373 0.0
O77 O 0.51145 0.89053 0.3663 0.0
O78 O 0.47081 0.86218 0.34151 0.0
C79 C 0.46756 0.86422 0.35927 0.0
O80 O 0.63217 1.0206 0.32139 0.0
O81 O 0.5522 0.97586 0.33147 0.0
O82 O 0.72161 0.99476 0.3038 0.0
O83 O 0.72028 0.98258 0.33376 0.0
H84 H 0.79975 1.03934 0.34993 0.0
H85 H 0.91575 0.1751 0.32834 0.0
H86 H 0.79097 0.07887 0.29431 0.0
O87 O 0.73215 0.59391 0.5285 0.0
Tb88 Tb 0.6855 0.52919 0.51185 0.0
Eu89 Eu 0.74335 0.62607 0.48829 0.0
C90 C 0.7709 0.59626 0.53688 0.0
O91 O 0.78107 0.56052 0.53446 0.0
C92 C 0.78884 0.55197 0.49486 0.0
O93 O 0.72339 0.58602 0.46124 0.0
C94 C 0.79744 0.72092 0.48558 0.0
C95 C 0.69337 0.53828 0.46164 0.0
O96 O 0.67547 0.51702 0.47744 0.0
C97 C 0.62199 0.57447 0.49594 0.0
C98 C 0.7938 0.76664 0.48527 0.0
C99 C 0.80547 0.79614 0.50117 0.0
C100 C 0.80591 0.84133 0.50081 0.0
C101 C 0.79436 0.85697 0.48439 0.0
C102 C 0.78216 0.82803 0.46839 0.0
C103 C 0.78209 0.78293 0.46893 0.0
O104 O 0.74281 0.51734 0.49829 0.0
O105 O 0.79898 0.59839 0.49417 0.0
O106 O 0.66357 0.49716 0.53924 0.0
O107 O 0.64263 0.44987 0.51594 0.0
C108 C 0.64003 0.45168 0.53374 0.0
O109 O 0.66511 0.61556 0.49409 0.0
O110 O 0.62167 0.53348 0.50039 0.0
O111 O 0.78079 0.69146 0.4712 0.0
O112 O 0.78822 0.69718 0.50137 0.0
H113 H 0.81536 0.78455 0.51377 0.0
H114 H 0.79348 0.89124 0.48425 0.0
H115 H 0.77374 0.76102 0.45651 0.0
O116 O 0.20509 0.71523 0.70134 0.0
Tb117 Tb 0.22359 0.6887 0.67628 0.0
Eu118 Eu 0.17128 0.74106 0.65449 0.0
C119 C 0.20854 0.7588 0.703 0.0
O120 O 0.21615 0.78587 0.68837 0.0
C121 C 0.29545 0.79968 0.66126 0.0
O122 O 0.18086 0.70854 0.6285 0.0
C123 C 0.12394 0.78942 0.64972 0.0
C124 C 0.21256 0.69232 0.62832 0.0
O125 O 0.24008 0.69863 0.64273 0.0
C126 C 0.11293 0.62508 0.66373 0.0
C127 C 1.07469 0.78614 0.65192 0.0
C128 C 1.06485 0.80478 0.66802 0.0
C129 C 1.02115 0.80716 0.66996 0.0
C130 C 0.98759 0.79184 0.65524 0.0
C131 C 0.99444 0.76992 0.63929 0.0
C132 C 1.03885 0.76769 0.63781 0.0
O133 O 0.29202 0.75928 0.66871 0.0
O134 O 0.25473 0.80005 0.65579 0.0
O135 O 0.22751 0.64158 0.69733 0.0
O136 O 0.27088 0.65552 0.67303 0.0
C137 C 0.25801 0.63173 0.68854 0.0
O138 O 0.11192 0.66648 0.6665 0.0
O139 O 0.15707 0.62901 0.66217 0.0
O140 O 0.13016 0.76414 0.63649 0.0
O141 O 0.14779 0.7913 0.66493 0.0
H142 H 0.09129 0.81714 0.6792 0.0
H143 H 0.95616 0.79764 0.65642 0.0
H144 H 1.04594 0.75155 0.62584 0.0
O145 O 0.5477 0.1888 0.84593 0.0
Tb146 Tb 0.59742 0.20201 0.82254 0.0
Eu147 Eu 0.48947 0.1572 0.81629 0.0
C148 C 0.55244 0.22585 0.85618 0.0
O149 O 0.58586 0.27096 0.85176 0.0
C150 C 0.5609 0.2763 0.81263 0.0
O151 O 0.52166 0.17532 0.78812 0.0
C152 C 0.3937 0.11065 0.81811 0.0
C153 C 0.52046 0.14172 0.77704 0.0
O154 O 0.49212 0.09497 0.78109 0.0
C155 C 0.54593 0.09122 0.81569 0.0
C156 C 0.35326 0.05947 0.82164 0.0
C157 C 0.33153 1.04656 0.83926 0.0
C158 C 0.2931 0.99859 0.84305 0.0
C159 C 0.27599 0.96376 0.82877 0.0
C160 C 0.29804 0.97507 0.81126 0.0
C161 C 0.33625 1.0233 0.80769 0.0
O162 O 0.59465 0.26343 0.80885 0.0
O163 O 0.5178 0.24173 0.81942 0.0
O164 O 0.6467 0.21367 0.84547 0.0
O165 O 0.67788 0.2449 0.81951 0.0
C166 C 0.68763 0.23952 0.83645 0.0
O167 O 0.50809 0.09467 0.82272 0.0
O168 O 0.58455 0.13236 0.81025 0.0
O169 O 0.41813 0.1193 0.80246 0.0
O170 O 0.42237 0.1343 0.83222 0.0
H171 H 0.34539 0.07381 0.85014 0.0
H172 H 0.24499 0.92733 0.83123 0.0
H173 H 0.3534 1.03227 0.79421 0.0
O174 O 0.63342 0.73139 0.76858 0.0
Tb175 Tb 0.56887 0.68802 0.78603 0.0
Eu176 Eu 0.66792 0.74347 0.80694 0.0
C177 C 0.63752 0.77079 0.76029 0.0
O178 O 0.60418 0.78409 0.76353 0.0
C179 C 0.59268 0.7913 0.80284 0.0
O180 O 0.63325 0.70932 0.83393 0.0
C181 C 0.76361 0.79602 0.80885 0.0
C182 C 0.58487 0.68395 0.83494 0.0
O183 O 0.55818 0.685 0.82126 0.0
C184 C 0.61455 0.62467 0.79936 0.0
C185 C 0.81008 0.79331 0.80773 0.0
C186 C 0.8391 0.81119 0.7918 0.0
C187 C 0.88527 0.8139 0.79056 0.0
C188 C 0.90333 0.79971 0.80564 0.0
C189 C 0.87416 0.77842 0.82156 0.0
C190 C 0.82719 0.77591 0.8224 0.0
O191 O 0.55731 0.74663 0.79826 0.0
O192 O 0.63891 0.79976 0.80445 0.0
O193 O 0.53788 0.66319 0.75868 0.0
O194 O 0.48968 0.64054 0.78188 0.0
C195 C 0.49239 0.63671 0.76417 0.0
O196 O 0.6564 0.6671 0.79755 0.0
O197 O 0.57312 0.62626 0.79905 0.0
O198 O 0.73524 0.77821 0.8235 0.0
O199 O 0.73848 0.7885 0.79344 0.0
H200 H 0.82609 0.8238 0.78029 0.0
H201 H 0.94018 0.80474 0.80446 0.0
H202 H 0.80349 0.76033 0.83425 0.0
O203 O 0.95757 0.60149 0.93347 0.0
Tb204 Tb 0.93659 0.53253 0.94783 0.0
Eu205 Eu 0.98859 0.62397 0.97301 0.0
C206 C 0.92224 0.60511 0.92472 0.0
O207 O 0.8766 0.5685 0.92581 0.0
C208 C 0.8656 0.56385 0.96611 0.0
O209 O 0.97234 0.58346 -0.0001 0.0
C210 C 1.03678 0.71916 0.97568 0.0
C211 C 0.94395 0.53545 -0.00056 0.0
O212 O 0.92435 0.51405 -0.01619 0.0
C213 C 1.0403 0.55722 0.96481 0.0
C214 C 0.08649 0.76373 0.97632 0.0
C215 C 0.10517 0.79383 0.96064 0.0
C216 C 0.14949 0.83893 0.9615 0.0
C217 C 0.17559 0.85386 0.97813 0.0
C218 C 0.15812 0.82408 -0.00613 0.0
C219 C 0.11336 0.77916 -0.00712 0.0
O220 O 0.86819 0.52503 0.96043 0.0
O221 O 0.90731 0.60606 0.96861 0.0
O222 O 0.94357 0.5124 0.91973 0.0
O223 O 0.89037 0.45791 0.93758 0.0
C224 C 0.90989 0.4665 0.92121 0.0
O225 O 1.04894 0.60303 0.96602 0.0
O226 O 0.99448 0.52229 0.96153 0.0
O227 O 1.02186 0.68968 -0.00993 0.0
O228 O 1.0222 0.6957 0.95984 0.0
H229 H 0.08454 0.78296 0.94786 0.0
H230 H 0.21042 0.88815 0.97861 0.0
H231 H 0.09905 0.75677 0.00514 0.0
O232 O 0.40399 0.89837 0.10856 0.0
Tb233 Tb 0.44866 0.8804 0.12653 0.0
Eu234 Eu 0.40444 0.93856 0.14747 0.0
C235 C 0.37198 0.86156 0.09835 0.0
O236 O 0.37021 0.81881 0.1 0.0
C237 C 0.3406 0.8168 0.14141 0.0
O238 O 0.41096 0.9075 0.17451 0.0
C239 C 0.36111 0.9913 0.15006 0.0
C240 C 0.43277 0.88062 0.17493 0.0
O241 O 0.4545 0.87686 0.16011 0.0
C242 C 0.5239 0.98948 0.14012 0.0
C243 C 0.37041 1.04236 0.14715 0.0
C244 C 0.36321 0.05675 0.12963 0.0
C245 C 0.36684 0.1029 0.12667 0.0
C246 C 0.37898 0.13556 0.14163 0.0
C247 C 0.3872 0.12241 0.15929 0.0
C248 C 0.3826 0.07559 0.16192 0.0
O249 O 0.38305 0.81711 0.13934 0.0
O250 O 0.34081 0.85952 0.14084 0.0
O251 O 0.47669 0.87158 0.10014 0.0
O252 O 0.47965 0.83148 0.12335 0.0
C253 C 0.49018 0.84069 0.10597 0.0
O254 O 0.48556 0.99702 0.14038 0.0
O255 O 0.51546 0.94393 0.13832 0.0
O256 O 0.38235 0.98281 0.16419 0.0
O257 O 0.35948 0.96616 0.13523 0.0
H258 H 0.35454 1.03164 0.11816 0.0
H259 H 0.38189 0.17123 0.13959 0.0
H260 H 0.3874 0.06465 0.17556 0.0
O261 O 0.52976 0.38047 0.27314 0.0
Tb262 Tb 0.58786 0.42826 0.29236 0.0
Eu263 Eu 0.48407 0.37589 0.31058 0.0
C264 C 0.54019 0.35181 0.26286 0.0
O265 O 0.58329 0.3542 0.26524 0.0
C266 C 0.54967 0.32028 0.30627 0.0
O267 O 0.51776 0.38629 0.3386 0.0
C268 C 0.3884 0.33 0.31306 0.0
C269 C 0.56564 0.4128 0.34126 0.0
O270 O 0.59536 0.43567 0.3275 0.0
C271 C 0.5432 0.49518 0.30464 0.0
C272 C 0.34829 0.3426 0.31164 0.0
C273 C 0.3342 0.35212 0.29446 0.0
C274 C 0.29642 0.36418 0.29309 0.0
C275 C 0.27208 0.36652 0.30904 0.0
C276 C 0.28644 0.35828 0.32643 0.0
C277 C 0.32415 0.34574 0.32756 0.0
O278 O 0.58967 0.36448 0.30563 0.0
O279 O 0.50597 0.31724 0.3038 0.0
O280 O 0.6222 0.46347 0.26651 0.0
O281 O 0.6669 0.45727 0.28735 0.0
C282 C 0.66665 0.47324 0.27083 0.0
O283 O 0.50072 0.45393 0.30254 0.0
O284 O 0.58411 0.49212 0.30463 0.0
O285 O 0.41762 0.34743 0.32746 0.0
O286 O 0.41226 0.33178 0.29779 0.0
H287 H 0.35258 0.35028 0.28202 0.0
H288 H 0.24375 0.3771 0.30795 0.0
H289 H 0.33499 0.33881 0.34092 0.0
O290 O 0.18521 0.49169 0.44642 0.0
Tb291 Tb 0.19663 0.55266 0.46413 0.0
Eu292 Eu 0.15552 0.44838 0.48176 0.0
C293 C 0.22334 0.49873 0.43626 0.0
O294 O 0.26502 0.54045 0.43807 0.0
C295 C 0.27537 0.52576 0.47929 0.0
O296 O 0.16561 0.47044 0.51122 0.0
C297 C 0.11076 0.35336 0.47952 0.0
C298 C 0.18147 0.51674 0.51487 0.0
O299 O 0.19126 0.54786 0.50137 0.0
C300 C 0.08856 0.50567 0.47911 0.0
C301 C 1.05912 0.31178 0.47995 0.0
C302 C 1.0389 0.28406 0.46392 0.0
C303 C 0.99121 0.24298 0.46397 0.0
C304 C 0.96341 0.22931 0.48034 0.0
C305 C 0.98247 0.25695 0.49657 0.0
C306 C 1.03045 0.29825 0.49623 0.0
O307 O 0.26313 0.56074 0.47832 0.0
O308 O 0.24008 0.47926 0.4773 0.0
O309 O 0.19548 0.5855 0.43784 0.0
O310 O 0.24408 0.63115 0.45883 0.0
C311 C 0.22872 0.63009 0.44212 0.0
O312 O 0.08995 0.46386 0.47813 0.0
O313 O 0.12996 0.54761 0.47703 0.0
O314 O 0.12867 0.37753 0.49498 0.0
O315 O 0.12431 0.38207 0.46488 0.0
H316 H 1.06074 0.29389 0.45138 0.0
H317 H 0.92636 0.19782 0.48028 0.0
H318 H 1.04568 0.31918 0.50875 0.0
O319 O 0.75476 0.19084 0.61797 0.0
Tb320 Tb 0.70993 0.20388 0.63811 0.0
Eu321 Eu 0.7656 0.15388 0.64894 0.0
C322 C 0.78256 0.22694 0.60657 0.0
O323 O 0.78301 0.26904 0.60835 0.0
C324 C 0.81608 0.27681 0.65128 0.0
O325 O 0.74709 0.1501 0.67872 0.0
C326 C 0.81259 0.10645 0.64162 0.0
C327 C 0.77552 0.18385 0.69059 0.0
O328 O 0.81883 0.2199 0.68543 0.0
C329 C 0.64411 0.09809 0.65113 0.0
C330 C 0.80514 0.05598 0.63919 0.0
C331 C 0.81664 1.04314 0.6221 0.0
C332 C 0.81482 0.99769 0.61954 0.0
C333 C 0.80252 0.96558 0.63461 0.0
C334 C 0.78762 0.97574 0.65171 0.0
C335 C 0.7892 1.02162 0.65373 0.0
O336 O 0.76973 0.26721 0.65212 0.0
O337 O 0.82392 0.23941 0.6473 0.0
O338 O 0.66388 0.19655 0.61445 0.0
O339 O 0.68139 0.2544 0.63359 0.0
C340 C 0.65756 0.23352 0.61857 0.0
O341 O 0.68182 0.09336 0.64483 0.0
O342 O 0.65368 0.1433 0.65444 0.0
O343 O 0.80872 0.12052 0.65833 0.0
O344 O 0.79473 0.12306 0.62875 0.0
H345 H 0.82679 0.06877 0.61074 0.0
H346 H 0.80539 0.93274 0.63285 0.0
H347 H 0.77794 1.03102 0.66649 0.0
H348 H 0.49507 0.71203 0.01443 0.0
H349 H 0.54322 0.62723 0.04697 0.0
H350 H 0.5626 0.68508 0.07281 0.0
H351 H 0.58427 0.83801 0.03554 0.0
H352 H 0.53709 0.85565 0.03456 0.0
H353 H 0.53956 0.81568 0.01715 0.0
H354 H 0.44818 0.75145 0.02415 0.0
H355 H 0.44556 0.79064 0.04168 0.0
H356 H 0.4307 0.72867 0.04731 0.0
H357 H 0.55724 0.73809 0.09686 0.0
H358 H 0.53272 0.78663 0.11687 0.0
H359 H 0.49053 0.83906 0.06875 0.0
C360 C 0.51175 0.70705 0.02672 0.0
C361 C 0.51794 0.66562 0.0288 0.0
C362 C 0.53857 0.65914 0.04517 0.0
C363 C 0.54986 0.69188 0.05987 0.0
C364 C 0.54092 0.73113 0.05781 0.0
C365 C 0.52317 0.73944 0.04152 0.0
C366 C 0.5102 0.77992 0.04367 0.0
C367 C 0.54487 0.825 0.03204 0.0
C368 C 0.45543 0.76153 0.03894 0.0
C369 C 0.52007 0.79058 0.06398 0.0
C370 C 0.53867 0.76276 0.07184 0.0
C371 C 0.5443 0.76134 0.09082 0.0
C372 C 0.52998 0.78863 0.10208 0.0
C373 C 0.51038 0.81671 0.09422 0.0
C374 C 0.50658 0.81868 0.07498 0.0
H375 H 0.87755 0.44718 0.22321 0.0
H376 H 0.83135 0.48472 0.17235 0.0
H377 H 0.78345 0.51469 0.19011 0.0
H378 H 0.76594 0.39581 0.24393 0.0
H379 H 0.7878 0.4167 0.26695 0.0
H380 H 0.82726 0.40937 0.25068 0.0
H381 H 0.89495 0.50019 0.2558 0.0
H382 H 0.85539 0.50784 0.27213 0.0
H383 H 0.87999 0.54863 0.25266 0.0
H384 H 0.73002 0.52615 0.21244 0.0
H385 H 0.67129 0.51403 0.23746 0.0
H386 H 0.75166 0.46893 0.27404 0.0
C387 C 0.85854 0.46316 0.21588 0.0
C388 C 0.85813 0.4641 0.19652 0.0
C389 C 0.83208 0.48402 0.18725 0.0
C390 C 0.80522 0.50147 0.19722 0.0
C391 C 0.80526 0.49893 0.21637 0.0
C392 C 0.83135 0.48035 0.22563 0.0
C393 C 0.81956 0.47475 0.24598 0.0
C394 C 0.79889 0.42098 0.25223 0.0
C395 C 0.8652 0.50997 0.25731 0.0
C396 C 0.78043 0.49015 0.24656 0.0
C397 C 0.77376 0.50531 0.22943 0.0
C398 C 0.73569 0.51561 0.22601 0.0
C399 C 0.70247 0.5085 0.24027 0.0
C400 C 0.70751 0.49096 0.2576 0.0
C401 C 0.74794 0.48351 0.26099 0.0
H402 H 0.31582 0.71539 0.44578 0.0
H403 H 0.19239 0.63514 0.40871 0.0
H404 H 0.23618 0.69728 0.38455 0.0
H405 H 0.35598 0.84366 0.4275 0.0
H406 H 0.42035 0.86137 0.43021 0.0
H407 H 0.37476 0.81779 0.44589 0.0
H408 H 0.40444 0.75537 0.4383 0.0
H409 H 0.44962 0.79835 0.42254 0.0
H410 H 0.40488 0.73769 0.4147 0.0
H411 H 0.29807 0.75772 0.36309 0.0
H412 H 0.37405 0.81245 0.34572 0.0
H413 H 0.45826 0.85312 0.39645 0.0
C414 C 0.29733 0.71213 0.43281 0.0
C415 C 0.25072 0.6711 0.42906 0.0
C416 C 0.22803 0.66677 0.4118 0.0
C417 C 0.2525 0.70195 0.39806 0.0
C418 C 0.29945 0.74112 0.40189 0.0
C419 C 0.32156 0.74665 0.4189 0.0
C420 C 0.37486 0.78771 0.41867 0.0
C421 C 0.38188 0.83016 0.43132 0.0
C422 C 0.41051 0.76861 0.42385 0.0
C423 C 0.38004 0.80256 0.39865 0.0
C424 C 0.33581 0.77601 0.38931 0.0
C425 C 0.33261 0.77962 0.37031 0.0
C426 C 0.37591 0.81054 0.36055 0.0
C427 C 0.42161 0.837 0.36984 0.0
C428 C 0.42346 0.83386 0.38913 0.0
H429 H 0.64956 0.45182 0.57079 0.0
H430 H 0.58726 0.35538 0.52371 0.0
H431 H 0.56705 0.28353 0.54336 0.0
H432 H 0.71267 0.40058 0.58688 0.0
H433 H 0.70431 0.40648 0.61113 0.0
H434 H 0.70035 0.44801 0.59512 0.0
H435 H 0.61259 0.42381 0.60715 0.0
H436 H 0.61642 0.38225 0.6234 0.0
H437 H 0.56523 0.35995 0.60757 0.0
H438 H 0.57193 0.22666 0.56548 0.0
H439 H 0.60117 0.18885 0.5885 0.0
H440 H 0.66033 0.32146 0.62154 0.0
C441 C 0.62973 0.41531 0.56486 0.0
C442 C 0.61959 0.40872 0.54588 0.0
C443 C 0.59496 0.36084 0.53832 0.0
C444 C 0.58308 0.31988 0.5494 0.0
C445 C 0.59575 0.32765 0.56797 0.0
C446 C 0.61805 0.37419 0.57572 0.0
C447 C 0.6354 0.37377 0.59512 0.0
C448 C 0.69147 0.40927 0.59715 0.0
C449 C 0.60561 0.38563 0.60914 0.0
C450 C 0.62291 0.32061 0.59654 0.0
C451 C 0.59873 0.29426 0.58095 0.0
C452 C 0.58941 0.24634 0.578 0.0
C453 C 0.60638 0.22528 0.59106 0.0
C454 C 0.63255 0.25235 0.60673 0.0
C455 C 0.6394 0.2998 0.60981 0.0
H456 H 0.34673 0.63984 0.68029 0.0
H457 H 0.2179 0.56277 0.71521 0.0
H458 H 0.26239 0.53225 0.73424 0.0
H459 H 0.40301 0.55183 0.68978 0.0
H460 H 0.46411 0.60498 0.68981 0.0
H461 H 0.41732 0.60245 0.67445 0.0
H462 H 0.43131 0.6854 0.6876 0.0
H463 H 0.47717 0.6879 0.70306 0.0
H464 H 0.42456 0.69105 0.71202 0.0
H465 H 0.32455 0.53532 0.7547 0.0
H466 H 0.39882 0.56926 0.77426 0.0
H467 H 0.49054 0.64483 0.72717 0.0
C468 C 0.32737 0.61418 0.69133 0.0
C469 C 0.27929 0.60329 0.69638 0.0
C470 C 0.2549 0.57119 0.7112 0.0
C471 C 0.27979 0.55337 0.72197 0.0
C472 C 0.32894 0.56808 0.71768 0.0
C473 C 0.35237 0.59709 0.70245 0.0
C474 C 0.40778 0.61703 0.7032 0.0
C475 C 0.424 0.59259 0.68843 0.0
C476 C 0.43681 0.67364 0.70139 0.0
C477 C 0.41231 0.60023 0.72225 0.0
C478 C 0.36628 0.57008 0.73 0.0
C479 C 0.36079 0.55723 0.74858 0.0
C480 C 0.40303 0.57706 0.75965 0.0
C481 C 0.4499 0.60938 0.75206 0.0
C482 C 0.45491 0.61929 0.73306 0.0
H483 H 0.70828 0.23328 0.87197 0.0
H484 H 0.77521 0.30655 0.82066 0.0
H485 H 0.85129 0.36421 0.83735 0.0
H486 H 0.7398 0.33253 0.89581 0.0
H487 H 0.75216 0.313 0.91755 0.0
H488 H 0.71074 0.26802 0.90149 0.0
H489 H 0.76348 0.22457 0.90158 0.0
H490 H 0.80496 0.26914 0.918 0.0
H491 H 0.82886 0.25947 0.8967 0.0
H492 H 0.90897 0.42484 0.85978 0.0
H493 H 0.94426 0.48237 0.88594 0.0
H494 H 0.83886 0.37063 0.92276 0.0
C495 C 0.73989 0.26008 0.86418 0.0
C496 C 0.73639 0.26571 0.84514 0.0
C497 C 0.77767 0.30164 0.8353 0.0
C498 C 0.82101 0.33434 0.84466 0.0
C499 C 0.82227 0.32991 0.86373 0.0
C500 C 0.78296 0.29307 0.87336 0.0
C501 C 0.78939 0.30117 0.89391 0.0
C502 C 0.74545 0.30388 0.90268 0.0
C503 C 0.79716 0.26122 0.90309 0.0
C504 C 0.83626 0.3504 0.89432 0.0
C505 C 0.85561 0.36567 0.87684 0.0
C506 C 0.89513 0.4127 0.87357 0.0
C507 C 0.91468 0.4452 0.88845 0.0
C508 C 0.89408 0.43053 0.90624 0.0
C509 C 0.85553 0.38226 0.90928 0.0
H510 H 0.50055 0.27051 0.86815 0.0
H511 H 0.54463 0.16387 0.88379 0.0
H512 H 0.51085 0.1595 0.9151 0.0
H513 H 0.5256 0.33549 0.90965 0.0
H514 H 0.47164 0.343 0.90953 0.0
H515 H 0.49726 0.33646 0.88814 0.0
H516 H 0.41263 0.26208 0.87921 0.0
H517 H 0.38648 0.26887 0.90045 0.0
H518 H 0.38244 0.21078 0.8948 0.0
H519 H 0.48472 0.17748 0.94568 0.0
H520 H 0.45332 0.2022 0.97197 0.0
H521 H 0.4113 0.28583 0.93532 0.0
C522 C 0.50207 0.24553 0.87811 0.0
C523 C 0.52504 0.21739 0.87366 0.0
C524 C 0.52666 0.18521 0.88694 0.0
C525 C 0.50791 0.18282 0.90476 0.0
C526 C 0.48642 0.21183 0.90888 0.0
C527 C 0.48192 0.24139 0.89578 0.0
C528 C 0.45608 0.26785 0.90372 0.0
C529 C 0.48966 0.32403 0.9027 0.0
C530 C 0.40645 0.2514 0.89397 0.0
C531 C 0.44827 0.24984 0.9235 0.0
C532 C 0.46674 0.2182 0.92619 0.0
C533 C 0.46822 0.20058 0.94359 0.0
C534 C 0.44935 0.21464 0.95856 0.0
C535 C 0.42722 0.24488 0.95622 0.0
C536 C 0.42723 0.26266 0.93818 0.0
H537 H 0.25693 0.44133 0.12506 0.0
H538 H 0.15742 0.29312 0.10612 0.0
H539 H 0.20476 0.31105 0.07688 0.0
H540 H 0.26593 0.4989 0.08257 0.0
H541 H 0.32993 0.54513 0.08544 0.0
H542 H 0.29119 0.51845 0.10531 0.0
H543 H 0.35334 0.49304 0.11801 0.0
H544 H 0.39223 0.51951 0.0981 0.0
H545 H 0.37044 0.45606 0.104 0.0
H546 H 0.26297 0.3474 0.04905 0.0
H547 H 0.32036 0.40077 0.02458 0.0
H548 H 0.37773 0.52506 0.06192 0.0
C549 C 0.24569 0.4124 0.11488 0.0
C550 C 0.20404 0.36568 0.11787 0.0
C551 C 0.18945 0.32912 0.10405 0.0
C552 C 0.21626 0.33891 0.08748 0.0
C553 C 0.25722 0.38558 0.08492 0.0
C554 C 0.27147 0.42179 0.09824 0.0
C555 C 0.31409 0.47008 0.0917 0.0
C556 C 0.29938 0.5105 0.09122 0.0
C557 C 0.36026 0.48556 0.10366 0.0
C558 C 0.32135 0.45574 0.07254 0.0
C559 C 0.28895 0.4067 0.0689 0.0
C560 C 0.28862 0.38579 0.05182 0.0
C561 C 0.32148 0.41616 0.03804 0.0
C562 C 0.35338 0.46683 0.04142 0.0
C563 C 0.35365 0.48638 0.05897 0.0
H564 H 0.84068 0.11644 0.27131 0.0
H565 H 0.91816 0.23402 0.31123 0.0
H566 H 0.95229 0.29346 0.28604 0.0
H567 H 0.92747 0.16583 0.23332 0.0
H568 H 0.87938 0.14796 0.21633 0.0
H569 H 0.86762 0.11253 0.23714 0.0
H570 H 0.79216 0.1241 0.2444 0.0
H571 H 0.8033 0.15886 0.22352 0.0
H572 H 0.80037 0.18538 0.24522 0.0
H573 H 0.97619 0.34204 0.25624 0.0
H574 H 0.97481 0.37608 0.22558 0.0
H575 H 0.87171 0.22941 0.20621 0.0
C576 C 0.86449 0.15448 0.27507 0.0
C577 C 0.87701 0.16929 0.29369 0.0
C578 C 0.90904 0.22021 0.29732 0.0
C579 C 0.92859 0.25482 0.283 0.0
C580 C 0.91514 0.23869 0.26497 0.0
C581 C 0.8829 0.18985 0.26103 0.0
C582 C 0.86905 0.18284 0.24082 0.0
C583 C 0.88696 0.15036 0.23135 0.0
C584 C 0.81291 0.16156 0.23835 0.0
C585 C 0.89787 0.23553 0.23408 0.0
C586 C 0.92554 0.26705 0.24809 0.0
C587 C 0.95473 0.31764 0.24518 0.0
C588 C 0.9541 0.33665 0.2277 0.0
C589 C 0.9235 0.30525 0.21359 0.0
C590 C 0.89584 0.25405 0.21676 0.0
H591 H 0.60422 0.80333 0.38572 0.0
H592 H 0.69551 0.96034 0.37642 0.0
H593 H 0.75445 0.96351 0.40007 0.0
H594 H 0.6162 0.80639 0.43347 0.0
H595 H 0.61765 0.74952 0.43505 0.0
H596 H 0.58581 0.75923 0.41627 0.0
H597 H 0.63887 0.74217 0.39292 0.0
H598 H 0.67089 0.7323 0.41166 0.0
H599 H 0.70545 0.77738 0.39423 0.0
H600 H 0.7995 0.94983 0.42667 0.0
H601 H 0.8271 0.92091 0.45346 0.0
H602 H 0.70507 0.77299 0.44503 0.0
C603 C 0.63689 0.8384 0.38844 0.0
C604 C 0.64522 0.88167 0.37923 0.0
C605 C 0.68839 0.92674 0.38329 0.0
C606 C 0.72206 0.92883 0.39668 0.0
C607 C 0.7121 0.88548 0.40575 0.0
C608 C 0.67065 0.84108 0.40167 0.0
C609 C 0.6668 0.80013 0.4139 0.0
C610 C 0.61878 0.77752 0.42535 0.0
C611 C 0.67075 0.76067 0.4025 0.0
C612 C 0.71194 0.82853 0.42587 0.0
C613 C 0.73789 0.87762 0.42089 0.0
C614 C 0.77965 0.9114 0.43057 0.0
C615 C 0.79486 0.89468 0.44583 0.0
C616 C 0.7683 0.84464 0.45133 0.0
C617 C 0.7267 0.81122 0.44099 0.0
H618 H 0.87053 0.64449 0.54282 0.0
H619 H 0.73261 0.62919 0.56353 0.0
H620 H 0.77604 0.67665 0.59134 0.0
H621 H 0.91825 0.63076 0.58334 0.0
H622 H 0.98173 0.6772 0.57943 0.0
H623 H 0.94166 0.64725 0.56018 0.0
H624 H 0.95966 0.73145 0.54703 0.0
H625 H 1.00075 0.76192 0.56604 0.0
H626 H 0.95034 0.7734 0.56135 0.0
H627 H 0.83026 0.70859 0.61918 0.0
H628 H 0.89385 0.73917 0.64279 0.0
H629 H 1.00173 0.74852 0.60212 0.0
C630 C 0.84995 0.65261 0.55298 0.0
C631 C 0.79836 0.63351 0.55111 0.0
C632 C 0.77227 0.64418 0.56465 0.0
C633 C 0.79658 0.67076 0.58052 0.0
C634 C 0.84721 0.68757 0.58229 0.0
C635 C 0.874 0.68048 0.5686 0.0
C636 C 0.9279 0.70181 0.57409 0.0
C637 C 0.94325 0.66186 0.57427 0.0
C638 C 0.96166 0.74471 0.56137 0.0
C639 C 0.92667 0.7198 0.59338 0.0
C640 C 0.87967 0.71073 0.59786 0.0
C641 C 0.86781 0.71823 0.61556 0.0
C642 C 0.90506 0.73648 0.62895 0.0
C643 C 0.95478 0.74912 0.62463 0.0
C644 C 0.96508 0.74027 0.60637 0.0
H645 H 0.22581 0.85183 0.7112 0.0
H646 H 0.20151 0.71588 0.73658 0.0
H647 H 0.21936 0.75611 0.76703 0.0
H648 H 0.32716 0.93163 0.73814 0.0
H649 H 0.31064 0.97931 0.73989 0.0
H650 H 0.29118 0.93894 0.72024 0.0
H651 H 0.19963 0.91418 0.72662 0.0
H652 H 0.21886 0.95506 0.74616 0.0
H653 H 0.17337 0.89108 0.74901 0.0
H654 H 0.24725 0.81274 0.79414 0.0
H655 H 0.27749 0.88031 0.81667 0.0
H656 H 0.28261 0.97978 0.77396 0.0
C657 C 0.22321 0.83013 0.72318 0.0
C658 C 0.21211 0.78054 0.72147 0.0
C659 C 0.20968 0.75376 0.73751 0.0
C660 C 0.2199 0.77635 0.75488 0.0
C661 C 0.23222 0.82566 0.75599 0.0
C662 C 0.23333 0.85211 0.74062 0.0
C663 C 0.24949 0.90516 0.74551 0.0
C664 C 0.29746 0.94085 0.73534 0.0
C665 C 0.20785 0.91706 0.7416 0.0
C666 C 0.2583 0.90468 0.766 0.0
C667 C 0.24792 0.85837 0.77173 0.0
C668 C 0.25469 0.84894 0.78988 0.0
C669 C 0.27177 0.88762 0.80259 0.0
C670 C 0.28181 0.93532 0.79719 0.0
C671 C 0.27532 0.94386 0.77855 0.0
H672 H 0.84091 0.75347 0.85827 0.0
H673 H 0.9485 0.75233 0.81979 0.0
H674 H 0.98148 0.7242 0.84411 0.0
H675 H 0.91201 0.7802 0.9006 0.0
H676 H 0.86021 0.73555 0.91389 0.0
H677 H 0.84991 0.76546 0.89455 0.0
H678 H 0.79063 0.68066 0.87999 0.0
H679 H 0.80017 0.65066 0.8994 0.0
H680 H 0.81199 0.63705 0.87643 0.0
H681 H 1.00316 0.69339 0.87238 0.0
H682 H 0.99805 0.64459 0.89994 0.0
H683 H 0.86831 0.65088 0.91826 0.0
C684 C 0.87145 0.74778 0.85464 0.0
C685 C 0.89294 0.75852 0.83674 0.0
C686 C 0.93253 0.74865 0.83328 0.0
C687 C 0.95168 0.73172 0.84713 0.0
C688 C 0.93011 0.72254 0.86446 0.0
C689 C 0.88981 0.72866 0.86811 0.0
C690 C 0.86866 0.70867 0.88704 0.0
C691 C 0.87297 0.74995 0.89977 0.0
C692 C 0.81468 0.66677 0.88562 0.0
C693 C 0.90296 0.68973 0.89321 0.0
C694 C 0.93927 0.69974 0.88023 0.0
C695 C 0.97491 0.68533 0.88267 0.0
C696 C 0.97207 0.65804 0.89843 0.0
C697 C 0.93306 0.64437 0.9112 0.0
C698 C 0.89883 0.6614 0.90875 0.0
H699 H 0.3016 0.78904 0.07735 0.0
H700 H 0.36859 0.94542 0.08867 0.0
H701 H 0.31637 0.95247 0.06436 0.0
H702 H 0.29834 0.7969 0.02953 0.0
H703 H 0.24006 0.74089 0.02694 0.0
H704 H 0.27945 0.74813 0.04617 0.0
H705 H 0.2076 0.73041 0.06869 0.0
H706 H 0.16789 0.72306 0.0495 0.0
H707 H 0.17725 0.76685 0.06739 0.0
H708 H 0.26042 0.94224 0.037 0.0
H709 H 0.20604 0.91617 0.00963 0.0
H710 H 0.17786 0.76668 0.01681 0.0
C711 C 0.30512 0.82483 0.07492 0.0
C712 C 0.33928 0.86678 0.08487 0.0
C713 C 0.34262 0.91282 0.0812 0.0
C714 C 0.31309 0.91709 0.06744 0.0
C715 C 0.28035 0.87491 0.05767 0.0
C716 C 0.27615 0.82964 0.06137 0.0
C717 C 0.24016 0.79017 0.0485 0.0
C718 C 0.26606 0.76774 0.03711 0.0
C719 C 0.19558 0.75027 0.05916 0.0
C720 C 0.22526 0.82032 0.03664 0.0
C721 C 0.24846 0.86905 0.04217 0.0
C722 C 0.24183 0.90412 0.03268 0.0
C723 C 0.21112 0.88902 0.0171 0.0
C724 C 0.18756 0.83933 0.01112 0.0
C725 C 0.1945 0.80468 0.02122 0.0
H726 H 0.54755 0.27884 0.24512 0.0
H727 H 0.45657 0.34857 0.24804 0.0
H728 H 0.40523 0.29559 0.22233 0.0
H729 H 0.5496 0.26953 0.19685 0.0
H730 H 0.54696 0.21058 0.19695 0.0
H731 H 0.57426 0.25205 0.21604 0.0
H732 H 0.51406 0.18454 0.23851 0.0
H733 H 0.48668 0.14272 0.21948 0.0
H734 H 0.44828 0.15554 0.23459 0.0
H735 H 0.36761 0.23781 0.19459 0.0
H736 H 0.34442 0.17824 0.16892 0.0
H737 H 0.46012 0.14645 0.18507 0.0
C738 C 0.51661 0.2829 0.2405 0.0
C739 C 0.50619 0.31809 0.24856 0.0
C740 C 0.46518 0.32183 0.24211 0.0
C741 C 0.43595 0.29196 0.22748 0.0
C742 C 0.44797 0.25824 0.21963 0.0
C743 C 0.4871 0.25333 0.2261 0.0
C744 C 0.49315 0.21509 0.21528 0.0
C745 C 0.544 0.23821 0.20571 0.0
C746 C 0.48504 0.17191 0.22771 0.0
C747 C 0.4517 0.19949 0.20146 0.0
C748 C 0.42602 0.22475 0.20413 0.0
C749 C 0.3873 0.21764 0.19252 0.0
C750 C 0.37457 0.18393 0.17791 0.0
C751 C 0.40029 0.15748 0.17501 0.0
C752 C 0.43921 0.16545 0.18707 0.0
H753 H 0.29961 0.493 0.42047 0.0
H754 H 0.13963 0.42596 0.4194 0.0
H755 H 0.13692 0.37653 0.39219 0.0
H756 H 0.31935 0.50746 0.37371 0.0
H757 H 0.36926 0.49362 0.37318 0.0
H758 H 0.35769 0.51859 0.39371 0.0
H759 H 0.34922 0.44453 0.41262 0.0
H760 H 0.36126 0.41946 0.39215 0.0
H761 H 0.30583 0.38279 0.40537 0.0
H762 H 0.15399 0.34348 0.36238 0.0
H763 H 0.18827 0.32473 0.33458 0.0
H764 H 0.33654 0.41237 0.35637 0.0
C765 C 0.26385 0.46722 0.41475 0.0
C766 C 0.21981 0.46337 0.42197 0.0
C767 C 0.17379 0.42922 0.41412 0.0
C768 C 0.17197 0.40116 0.39865 0.0
C769 C 0.21644 0.40719 0.39147 0.0
C770 C 0.26142 0.4388 0.39953 0.0
C771 C 0.30421 0.4407 0.38885 0.0
C772 C 0.33968 0.4932 0.38196 0.0
C773 C 0.33174 0.42066 0.40044 0.0
C774 C 0.2766 0.40646 0.37311 0.0
C775 C 0.22599 0.38727 0.37482 0.0
C776 C 0.19346 0.35757 0.36112 0.0
C777 C 0.21322 0.34734 0.34535 0.0
C778 C 0.26497 0.36655 0.34347 0.0
C779 C 0.29675 0.39612 0.35765 0.0
H780 H 0.85292 0.29904 0.58477 0.0
H781 H 0.77752 0.1413 0.59388 0.0
H782 H 0.82328 0.13197 0.56763 0.0
H783 H 0.85051 0.29482 0.53613 0.0
H784 H 0.91081 0.34818 0.53325 0.0
H785 H 0.8745 0.34251 0.55339 0.0
H786 H 0.94662 0.35288 0.57425 0.0
H787 H 0.98323 0.35871 0.55414 0.0
H788 H 0.97215 0.31251 0.57118 0.0
H789 H 0.87402 0.13989 0.53891 0.0
H790 H 0.92683 0.1643 0.51108 0.0
H791 H 0.96884 0.31698 0.52093 0.0
C792 C 0.84622 0.26248 0.58138 0.0
C793 C 0.81174 0.22086 0.59152 0.0
C794 C 0.80414 0.17379 0.58652 0.0
C795 C 0.82984 0.16814 0.57156 0.0
C796 C 0.86316 0.20996 0.56174 0.0
C797 C 0.87157 0.25627 0.56655 0.0
C798 C 0.90831 0.29524 0.55357 0.0
C799 C 0.8846 0.32173 0.54349 0.0
C800 C 0.95537 0.332 0.5639 0.0
C801 C 0.9188 0.26363 0.54048 0.0
C802 C 0.89247 0.21455 0.54543 0.0
C803 C 0.89495 0.17826 0.53501 0.0
C804 C 0.92486 0.19246 0.51915 0.0
C805 C 0.95214 0.24257 0.5138 0.0
C806 C 0.94911 0.27849 0.52477 0.0
H807 H 0.78132 0.98905 0.68974 0.0
H808 H 0.75001 0.87432 0.64918 0.0
H809 H 0.72432 0.81392 0.67379 0.0
H810 H 0.81561 0.9385 0.7285 0.0
H811 H 0.78144 0.95352 0.74491 0.0
H812 H 0.80729 0.99098 0.72467 0.0
H813 H 0.72064 0.97738 0.71569 0.0
H814 H 0.69484 0.94065 0.73602 0.0
H815 H 0.66953 0.91549 0.71374 0.0
H816 H 0.69874 0.76359 0.70274 0.0
H817 H 0.65835 0.72569 0.73233 0.0
H818 H 0.69153 0.86897 0.75296 0.0
C819 C 0.76921 0.95152 0.68572 0.0
C820 C 0.77027 0.93818 0.66706 0.0
C821 C 0.75311 0.88758 0.66312 0.0
C822 C 0.73767 0.85221 0.67712 0.0
C823 C 0.73766 0.86697 0.69516 0.0
C824 C 0.75156 0.91514 0.69944 0.0
C825 C 0.741 0.91996 0.71951 0.0
C826 C 0.78922 0.95269 0.73001 0.0
C827 C 0.70431 0.9395 0.72134 0.0
C828 C 0.71799 0.86675 0.72567 0.0
C829 C 0.71818 0.83709 0.71159 0.0
C830 C 0.69842 0.78645 0.71389 0.0
C831 C 0.67595 0.76526 0.73077 0.0
C832 C 0.67225 0.79452 0.74487 0.0
C833 C 0.69447 0.84598 0.74241 0.0
H834 H 0.50781 0.5851 0.93571 0.0
H835 H 0.39695 0.44659 0.91224 0.0
H836 H 0.43213 0.47634 0.88115 0.0
H837 H 0.5077 0.66181 0.90249 0.0
H838 H 0.57345 0.7039 0.90254 0.0
H839 H 0.54363 0.66937 0.92292 0.0
H840 H 0.60365 0.63396 0.9236 0.0
H841 H 0.63412 0.66885 0.90326 0.0
H842 H 0.60956 0.60316 0.90355 0.0
H843 H 0.46957 0.52627 0.85308 0.0
H844 H 0.5123 0.59026 0.82948 0.0
H845 H 0.60376 0.69351 0.87157 0.0
C846 C 0.49142 0.56093 0.924 0.0
C847 C 0.44954 0.51413 0.92601 0.0
C848 C 0.4291 0.48276 0.91068 0.0
C849 C 0.44889 0.49923 0.89311 0.0
C850 C 0.48975 0.54628 0.8915 0.0
C851 C 0.51142 0.57627 0.90658 0.0
C852 C 0.55338 0.62608 0.90113 0.0
C853 C 0.54393 0.66771 0.90765 0.0
C854 C 0.60313 0.63342 0.90831 0.0
C855 C 0.55006 0.6206 0.8805 0.0
C856 C 0.51331 0.57418 0.87523 0.0
C857 C 0.4993 0.56223 0.85696 0.0
C858 C 0.52337 0.59882 0.84374 0.0
C859 C 0.56121 0.64624 0.84894 0.0
C860 C 0.57545 0.65705 0.86741 0.0
H861 H 0.94844 0.47348 0.10519 0.0
H862 H 0.92958 0.33256 0.0875 0.0
H863 H 0.92158 0.35289 0.05522 0.0
H864 H 0.86642 0.48394 0.07184 0.0
H865 H 0.90701 0.54896 0.06849 0.0
H866 H 0.90584 0.52112 0.09031 0.0
H867 H 1.00059 0.55514 0.08811 0.0
H868 H 1.00206 0.58293 0.06628 0.0
H869 H 1.02588 0.54088 0.06817 0.0
H870 H 0.91715 0.38876 0.02538 0.0
H871 H 0.92357 0.44061 -0.0011 0.0
H872 H 0.95225 0.56124 0.03583 0.0
C873 C 0.94168 0.44664 0.09451 0.0
C874 C 0.93881 0.40126 0.09861 0.0
C875 C 0.93154 0.3674 0.08442 0.0
C876 C 0.92677 0.37854 0.06617 0.0
C877 C 0.93025 0.4239 0.06251 0.0
C878 C 0.93808 0.45767 0.07623 0.0
C879 C 0.94477 0.50543 0.06844 0.0
C880 C 0.90354 0.51543 0.07517 0.0
C881 C 0.99639 0.54863 0.07302 0.0
C882 C 0.93973 0.49332 0.04816 0.0
C883 C 0.93051 0.44581 0.04511 0.0
C884 C 0.9243 0.42598 0.02755 0.0
C885 C 0.92791 0.45568 0.01264 0.0
C886 C 0.93844 0.5048 0.01544 0.0
C887 C 0.94439 0.52385 0.0334 0.0
H888 H 0.40119 0.88853 0.20906 0.0
H889 H 0.47594 0.82374 0.1791 0.0
H890 H 0.50214 0.80426 0.20817 0.0
H891 H 0.48637 0.95249 0.23702 0.0
H892 H 0.45167 0.94468 0.25788 0.0
H893 H 0.42197 0.93617 0.23607 0.0
H894 H 0.35486 0.84809 0.24525 0.0
H895 H 0.38389 0.85661 0.26745 0.0
H896 H 0.37295 0.80471 0.25332 0.0
H897 H 0.54455 0.81987 0.23732 0.0
H898 H 0.5905 0.85918 0.26577 0.0
H899 H 0.48614 0.90963 0.27802 0.0
C900 C 0.42106 0.86818 0.20874 0.0
C901 C 0.43739 0.8585 0.19201 0.0
C902 C 0.4636 0.83211 0.19188 0.0
C903 C 0.47821 0.82033 0.20834 0.0
C904 C 0.46528 0.83418 0.22472 0.0
C905 C 0.4358 0.85609 0.22513 0.0
C906 C 0.43464 0.87534 0.2441 0.0
C907 C 0.44962 0.93039 0.24371 0.0
C908 C 0.38354 0.84431 0.25306 0.0
C909 C 0.47312 0.86686 0.25347 0.0
C910 C 0.48916 0.84156 0.24231 0.0
C911 C 0.53095 0.83774 0.24657 0.0
C912 C 0.55731 0.86084 0.26252 0.0
C913 C 0.54147 0.88713 0.27387 0.0
C914 C 0.49815 0.88876 0.26962 0.0
H915 H 0.64523 0.49354 0.35498 0.0
H916 H 0.52981 0.34622 0.3691 0.0
H917 H 0.56032 0.35912 0.40112 0.0
H918 H 0.74241 0.5016 0.38762 0.0
H919 H 0.76209 0.565 0.39292 0.0
H920 H 0.73815 0.5408 0.37039 0.0
H921 H 0.67262 0.56883 0.37398 0.0
H922 H 0.6961 0.59284 0.39647 0.0
H923 H 0.63158 0.54815 0.39357 0.0
H924 H 0.59596 0.39044 0.43153 0.0
H925 H 0.63018 0.43988 0.45948 0.0
H926 H 0.71987 0.56922 0.42606 0.0
C927 C 0.62747 0.46358 0.36474 0.0
C928 C 0.58575 0.41876 0.35976 0.0
C929 C 0.56203 0.38074 0.37283 0.0
C930 C 0.57936 0.38758 0.39092 0.0
C931 C 0.62004 0.4327 0.39555 0.0
C932 C 0.64367 0.47021 0.38289 0.0
C933 C 0.68168 0.51742 0.39197 0.0
C934 C 0.7342 0.53205 0.38533 0.0
C935 C 0.66974 0.55923 0.38881 0.0
C936 C 0.67418 0.50111 0.41182 0.0
C937 C 0.63947 0.45177 0.41348 0.0
C938 C 0.6237 0.4289 0.43045 0.0
C939 C 0.64321 0.45745 0.44623 0.0
C940 C 0.67749 0.50844 0.44486 0.0
C941 C 0.69394 0.53028 0.42745 0.0
H942 H 0.1845 0.69288 0.59313 0.0
H943 H 0.23908 0.62149 0.63015 0.0
H944 H 0.23342 0.56515 0.60521 0.0
H945 H 0.09848 0.58522 0.56828 0.0
H946 H 0.11161 0.61647 0.54643 0.0
H947 H 0.11836 0.65003 0.5674 0.0
H948 H 0.2095 0.71212 0.55884 0.0
H949 H 0.20289 0.67899 0.5378 0.0
H950 H 0.25167 0.68961 0.55369 0.0
H951 H 0.21925 0.51538 0.5766 0.0
H952 H 0.20658 0.48166 0.54491 0.0
H953 H 0.16636 0.58963 0.52688 0.0
C954 C 0.19522 0.66535 0.59593 0.0
C955 C 0.21207 0.66113 0.61337 0.0
C956 C 0.22636 0.62523 0.61669 0.0
C957 C 0.22292 0.59292 0.60273 0.0
C958 C 0.20571 0.59775 0.58565 0.0
C959 C 0.19278 0.63347 0.58214 0.0
C960 C 0.17764 0.6325 0.56242 0.0
C961 C 0.1233 0.62031 0.56107 0.0
C962 C 0.21252 0.68119 0.55262 0.0
C963 C 0.18434 0.59079 0.55538 0.0
C964 C 0.1997 0.57059 0.56901 0.0
C965 C 0.20751 0.53097 0.56574 0.0
C966 C 0.20013 0.51206 0.54785 0.0
C967 C 0.18617 0.53373 0.53372 0.0
C968 C 0.17777 0.57309 0.53754 0.0
H969 H 0.54469 0.08306 0.75637 0.0
H970 H 0.58844 0.23582 0.76774 0.0
H971 H 0.66506 0.26259 0.75001 0.0
H972 H 0.66511 0.09558 0.75924 0.0
H973 H 0.65571 0.05417 0.74043 0.0
H974 H 0.60379 1.04624 0.75411 0.0
H975 H 0.55877 0.05148 0.72482 0.0
H976 H 0.60986 0.05782 0.71107 0.0
H977 H 0.59043 0.10338 0.70958 0.0
H978 H 0.73776 0.27311 0.73193 0.0
H979 H 0.79384 0.26701 0.70922 0.0
H980 H 0.70234 0.108 0.70934 0.0
C981 C 0.56997 0.12214 0.75489 0.0
C982 C 0.56077 0.15727 0.76354 0.0
C983 C 0.59482 0.20813 0.76129 0.0
C984 C 0.63871 0.22378 0.75141 0.0
C985 C 0.64775 0.18815 0.74377 0.0
C986 C 0.61387 0.13848 0.74498 0.0
C987 C 0.63158 0.10792 0.73472 0.0
C988 C 0.63951 0.07398 0.74791 0.0
C989 C 0.59554 0.07845 0.71912 0.0
C990 C 0.6803 0.14835 0.72733 0.0
C991 C 0.68947 0.19428 0.73305 0.0
C992 C 0.73124 0.2374 0.72738 0.0
C993 C 0.76314 0.23359 0.71466 0.0
C994 C 0.75225 0.18706 0.70767 0.0
C995 C 0.71156 0.14396 0.71465 0.0
H996 H 0.41423 0.19358 0.10924 0.0
H997 H 0.29761 1.04234 0.10142 0.0
H998 H 0.28662 0.06155 0.06957 0.0
H999 H 0.35328 0.24814 0.08235 0.0
H1000 H 0.41088 0.29631 0.0732 0.0
H1001 H 0.40941 0.27085 0.09558 0.0
H1002 H 0.47714 0.25043 0.08514 0.0
H1003 H 0.47857 0.27547 0.06271 0.0
H1004 H 0.46704 0.21321 0.06489 0.0
H1005 H 0.29212 0.09533 0.03781 0.0
H1006 H 0.30904 0.14396 0.00913 0.0
H1007 H 0.4165 0.27449 0.0381 0.0
C1008 C 0.38574 0.16463 0.101 0.0
C1009 C 0.35746 0.11614 0.1079 0.0
C1010 C 0.32088 0.07944 0.09642 0.0
C1011 C 0.31397 0.09005 0.0783 0.0
C1012 C 0.34314 0.13784 0.07185 0.0
C1013 C 0.37773 0.17477 0.08291 0.0
C1014 C 0.4041 0.22313 0.07255 0.0
C1015 C 0.39379 0.26189 0.08145 0.0
C1016 C 0.46002 0.24163 0.07125 0.0
C1017 C 0.37945 0.20735 0.05388 0.0
C1018 C 0.3446 0.15789 0.05374 0.0
C1019 C 0.31879 0.13424 0.03781 0.0
C1020 C 0.3287 0.16197 0.02161 0.0
C1021 C 0.3636 0.21281 0.02156 0.0
C1022 C 0.38909 0.23575 0.03792 0.0
H1023 H 0.20857 0.3155 0.27462 0.0
H1024 H 0.35796 0.43828 0.27042 0.0
H1025 H 0.34109 0.45421 0.23863 0.0
H1026 H 0.20443 0.27087 0.22983 0.0
H1027 H 0.14017 0.25179 0.22583 0.0
H1028 H 0.16185 0.25365 0.24891 0.0
H1029 H 0.12809 0.31141 0.25875 0.0
H1030 H 0.10606 0.30953 0.23568 0.0
H1031 H 0.14717 0.36783 0.24629 0.0
H1032 H 0.30943 0.45402 0.20693 0.0
H1033 H 0.26596 0.43686 0.17717 0.0
H1034 H 0.1389 0.31048 0.20138 0.0
C1035 C 0.23716 0.34636 0.26708 0.0
C1036 C 0.28429 0.37617 0.27488 0.0
C1037 C 0.32152 0.41544 0.26459 0.0
C1038 C 0.31225 0.42473 0.24659 0.0
C1039 C 0.26566 0.39414 0.2391 0.0
C1040 C 0.22871 0.35571 0.24899 0.0
C1041 C 0.18322 0.32612 0.23723 0.0
C1042 C 0.17178 0.27244 0.23534 0.0
C1043 C 0.1385 0.32891 0.24495 0.0
C1044 C 0.20065 0.3535 0.21915 0.0
C1045 C 0.24804 0.39294 0.22059 0.0
C1046 C 0.27228 0.42322 0.20563 0.0
C1047 C 0.24743 0.41286 0.18872 0.0
C1048 C 0.19901 0.37216 0.18682 0.0
C1049 C 0.17552 0.34232 0.20236 0.0
H1050 H 0.98369 0.27729 0.43021 0.0
H1051 H 0.95297 0.14406 0.45926 0.0
H1052 H 0.92147 0.09631 0.4304 0.0
H1053 H 0.87443 0.22162 0.40242 0.0
H1054 H 0.90425 0.25882 0.38246 0.0
H1055 H 0.92683 0.28249 0.40512 0.0
H1056 H 1.01423 0.29873 0.3957 0.0
H1057 H 0.99175 0.27466 0.37304 0.0
H1058 H 1.02164 0.24886 0.38676 0.0
H1059 H 0.89505 0.06379 0.39831 0.0
H1060 H 0.86612 1.04627 0.36626 0.0
H1061 H 0.90771 0.19988 0.35866 0.0
C1062 C 0.97056 0.23809 0.43041 0.0
C1063 C 0.97093 0.2142 0.44685 0.0
C1064 C 0.95279 0.16283 0.44676 0.0
C1065 C 0.93522 0.13559 0.43044 0.0
C1066 C 0.93562 0.16029 0.41441 0.0
C1067 C 0.95218 0.21026 0.41432 0.0
C1068 C 0.94594 0.22737 0.3955 0.0
C1069 C 0.91076 0.24882 0.39644 0.0
C1070 C 0.99639 0.26461 0.38727 0.0
C1071 C 0.92294 0.17912 0.38504 0.0
C1072 C 0.91812 0.1411 0.39613 0.0
C1073 C 0.89814 0.09318 0.38956 0.0
C1074 C 0.88143 0.08357 0.37132 0.0
C1075 C 0.88369 0.12145 0.35988 0.0
C1076 C 0.90569 0.17005 0.36687 0.0
H1077 H 0.76587 0.81365 0.53533 0.0
H1078 H 0.87258 0.93937 0.50386 0.0
H1079 H 0.88995 0.99257 0.53125 0.0
H1080 H 0.71548 0.8773 0.55959 0.0
H1081 H 0.70613 0.84399 0.5808 0.0
H1082 H 0.70524 0.81525 0.55921 0.0
H1083 H 0.7741 0.79812 0.57094 0.0
H1084 H 0.77519 0.82684 0.59259 0.0
H1085 H 0.83132 0.8484 0.57938 0.0
H1086 H 0.894 1.03236 0.56194 0.0
H1087 H 0.88224 0.05644 0.59309 0.0
H1088 H 0.76886 0.90539 0.60382 0.0
C1089 C 0.79349 0.85221 0.53434 0.0
C1090 C 0.8182 0.87244 0.51756 0.0
C1091 C 0.85329 0.92327 0.51662 0.0
C1092 C 0.8635 0.95366 0.5321 0.0
C1093 C 0.83809 0.93272 0.54841 0.0
C1094 C 0.80368 0.88319 0.54961 0.0
C1095 C 0.77937 0.87046 0.56841 0.0
C1096 C 0.72324 0.85059 0.5669 0.0
C1097 C 0.79069 0.83379 0.57842 0.0
C1098 C 0.80517 0.9206 0.57753 0.0
C1099 C 0.83929 0.95591 0.56585 0.0
C1100 C 0.86729 1.005 0.5712 0.0
C1101 C 0.86 1.01841 0.58891 0.0
C1102 C 0.82448 0.983 0.60105 0.0
C1103 C 0.79698 0.93341 0.59514 0.0
H1104 H 0.85093 0.77558 0.75663 0.0
H1105 H 0.9831 0.88235 0.78516 0.0
H1106 H 1.03118 0.89898 0.75623 0.0
H1107 H 0.908 0.72362 0.73117 0.0
H1108 H 0.87124 0.71282 0.71073 0.0
H1109 H 0.8462 0.71486 0.73284 0.0
H1110 H 0.82895 0.78337 0.72117 0.0
H1111 H 0.85392 0.78149 0.69895 0.0
H1112 H 0.87878 0.83873 0.7114 0.0
H1113 H 1.06572 0.89904 0.72468 0.0
H1114 H 0.08485 0.88016 0.69374 0.0
H1115 H 0.93036 0.76944 0.68678 0.0
C1116 C 0.88968 0.80351 0.75663 0.0
C1117 C 0.91329 0.82821 0.773 0.0
C1118 C 0.9644 0.86329 0.77268 0.0
C1119 C 0.99185 0.87308 0.75632 0.0
C1120 C 0.96761 0.84736 0.74046 0.0
C1121 C 0.91763 0.81326 0.7405 0.0
C1122 C 0.90128 0.78712 0.72217 0.0
C1123 C 0.88048 0.73132 0.72437 0.0
C1124 C 0.8635 0.79837 0.71288 0.0
C1125 C 0.9501 0.8109 0.71192 0.0
C1126 C 0.98775 0.84616 0.72255 0.0
C1127 C 1.03645 0.87165 0.71621 0.0
C1128 C 1.04702 0.86031 0.69865 0.0
C1129 C 1.00922 0.82313 0.68773 0.0
C1130 C 0.96006 0.79876 0.6945 0.0
H1131 H 0.17053 0.81439 0.92789 0.0
H1132 H 0.17342 0.9352 0.95834 0.0
H1133 H 0.20875 0.98939 0.93114 0.0
H1134 H 0.2867 0.88689 0.90531 0.0
H1135 H 0.26755 0.85256 0.8841 0.0
H1136 H 0.23967 0.82289 0.90553 0.0
H1137 H 0.15266 0.79715 0.89239 0.0
H1138 H 0.18031 0.82678 0.87091 0.0
H1139 H 0.14026 0.84354 0.88318 0.0
H1140 H 0.24326 1.0299 0.90031 0.0
H1141 H 0.2779 0.05472 0.86905 0.0
H1142 H 0.25931 0.90888 0.86015 0.0
C1143 C 0.17808 0.8521 0.9287 0.0
C1144 C 0.16891 0.8707 0.94504 0.0
C1145 C 0.18015 0.92045 0.94584 0.0
C1146 C 0.20008 0.95135 0.93048 0.0
C1147 C 0.20906 0.93201 0.91456 0.0
C1148 C 0.19878 0.88363 0.91363 0.0
C1149 C 0.21419 0.87255 0.89525 0.0
C1150 C 0.25443 0.85787 0.8977 0.0
C1151 C 0.16917 0.83265 0.88482 0.0
C1152 C 0.23465 0.92218 0.88598 0.0
C1153 C 0.23093 0.95587 0.89722 0.0
C1154 C 0.24671 1.00389 0.89143 0.0
C1155 C 0.26678 1.01778 0.87367 0.0
C1156 C 0.27158 0.98397 0.86194 0.0
C1157 C 0.25545 0.93564 0.86843 0.0
H1158 H 0.7668 0.48336 0.9697 0.0
H1159 H 0.85013 0.64272 0.96625 0.0
H1160 H 0.77268 0.64582 0.96849 0.0
H1161 H 0.65829 0.46669 0.94369 0.0
H1162 H 0.61355 0.41786 0.95801 0.0
H1163 H 0.67528 0.42675 0.95569 0.0
H1164 H 0.68579 0.43379 -0.00899 0.0
H1165 H 0.62407 0.42485 -0.00657 0.0
H1166 H 0.6759 0.47849 0.00325 0.0
H1167 H 0.68592 0.63326 0.97043 0.0
H1168 H 0.59752 0.60657 0.9739 0.0
H1169 H 0.56452 0.45471 0.97794 0.0
C1170 C 0.7688 0.51894 0.9694 0.0
C1171 C 0.81589 0.56297 0.96777 0.0
C1172 C 0.81568 0.60837 0.96757 0.0
C1173 C 0.77139 0.61057 0.96877 0.0
C1174 C 0.72614 0.56704 0.97041 0.0
C1175 C 0.72427 0.52193 0.97089 0.0
C1176 C 0.67007 0.48105 0.97328 0.0
C1177 C 0.65331 0.446 0.95668 0.0
C1178 C 0.66358 0.45286 -0.00868 0.0
C1179 C 0.6421 0.51026 0.97405 0.0
C1180 C 0.6756 0.55983 0.97216 0.0
C1181 C 0.6596 0.59451 0.97203 0.0
C1182 C 0.60867 0.57874 0.974 0.0
C1183 C 0.57268 0.52833 0.97633 0.0
C1184 C 0.59029 0.49359 0.97631 0.0
H1185 H 0.31905 0.71631 0.14358 0.0
H1186 H 0.24739 0.80559 0.14379 0.0
H1187 H 0.16632 0.73084 0.14696 0.0
H1188 H 0.2218 0.61241 0.11762 0.0
H1189 H 0.22603 0.56546 0.13058 0.0
H1190 H 0.27954 0.62575 0.12823 0.0
H1191 H 0.28786 0.63345 0.16359 0.0
H1192 H 0.23437 0.57318 0.16603 0.0
H1193 H 0.23584 0.6254 0.17727 0.0
H1194 H 0.09083 0.64604 0.15019 0.0
H1195 H 1.02772 0.55907 0.15337 0.0
H1196 H 0.14257 0.51814 0.1515 0.0
C1197 C 0.28635 0.72025 0.14429 0.0
C1198 C 0.291 0.76838 0.14339 0.0
C1199 C 0.2463 0.77044 0.14441 0.0
C1200 C 0.19945 0.72764 0.14623 0.0
C1201 C 0.1962 0.6814 0.14708 0.0
C1202 C 0.23841 0.67716 0.14616 0.0
C1203 C 0.22354 0.62227 0.14751 0.0
C1204 C 0.23864 0.60548 0.12994 0.0
C1205 C 0.2468 0.61303 0.16462 0.0
C1206 C 0.16669 0.59661 0.14936 0.0
C1207 C 0.15216 0.63192 0.14903 0.0
C1208 C 0.10211 0.61833 0.15046 0.0
C1209 C 1.06608 0.5681 0.15229 0.0
C1210 C 0.07875 0.53009 0.15277 0.0
C1211 C 0.13057 0.54531 0.15124 0.0
H1212 H 0.63059 0.2988 0.30657 0.0
H1213 H 0.47114 0.23006 0.31347 0.0
H1214 H 0.46654 0.1506 0.31866 0.0
H1215 H 0.62826 0.19332 0.28253 0.0
H1216 H 0.68308 0.19927 0.29341 0.0
H1217 H 0.67601 0.25275 0.29031 0.0
H1218 H 0.68869 0.27077 0.32515 0.0
H1219 H 0.69581 0.21736 0.32835 0.0
H1220 H 0.64967 0.22371 0.3413 0.0
H1221 H 0.47628 0.0771 0.32355 0.0
H1222 H 0.49942 1.01341 0.3273 0.0
H1223 H 0.65353 0.12136 0.31709 0.0
C1224 C 0.59471 0.26708 0.30922 0.0
C1225 C 0.55108 0.2722 0.30953 0.0
C1226 C 0.50531 0.22871 0.313 0.0
C1227 C 0.50217 0.1827 0.31604 0.0
C1228 C 0.54508 0.17887 0.3156 0.0
C1229 C 0.59069 0.21963 0.31223 0.0
C1230 C 0.63048 0.20352 0.3124 0.0
C1231 C 0.65599 0.21279 0.29354 0.0
C1232 C 0.66843 0.23046 0.32771 0.0
C1233 C 0.59997 0.1478 0.31647 0.0
C1234 C 0.55077 0.13511 0.31826 0.0
C1235 C 0.51475 0.0868 0.32215 0.0
C1236 C 0.52864 0.05041 0.32432 0.0
C1237 C 0.5786 0.06084 0.32262 0.0
C1238 C 0.6149 0.11104 0.31852 0.0
H1239 H 0.3215 0.46672 0.48443 0.0
H1240 H 0.35587 0.6188 0.47962 0.0
H1241 H 0.44449 0.64603 0.48308 0.0
H1242 H 0.41623 0.48918 0.51898 0.0
H1243 H 0.4318 0.44501 0.50964 0.0
H1244 H 0.37039 0.43634 0.50655 0.0
H1245 H 0.37905 0.43153 0.47134 0.0
H1246 H 0.44049 0.44023 0.47433 0.0
H1247 H 0.43079 0.48109 0.45961 0.0
H1248 H 0.53201 0.65854 0.48671 0.0
H1249 H 0.60885 0.65477 0.49103 0.0
H1250 H 0.5226 0.49562 0.49454 0.0
C1251 C 0.34757 0.50579 0.48411 0.0
C1252 C 0.33019 0.54032 0.4817 0.0
C1253 C 0.36674 0.59104 0.48144 0.0
C1254 C 0.41783 0.60712 0.48339 0.0
C1255 C 0.43354 0.57253 0.48574 0.0
C1256 C 0.39951 0.5228 0.48619 0.0
C1257 C 0.427 0.49366 0.4891 0.0
C1258 C 0.41035 0.46429 0.50714 0.0
C1259 C 0.41883 0.45959 0.47261 0.0
C1260 C 0.48144 0.53462 0.49024 0.0
C1261 C 0.48411 0.57982 0.48815 0.0
C1262 C 0.52998 0.62318 0.48842 0.0
C1263 C 0.57393 0.62064 0.4909 0.0
C1264 C 0.57314 0.57509 0.49328 0.0
C1265 C 0.52548 0.53138 0.49291 0.0
H1266 H 0.92356 0.32469 0.64795 0.0
H1267 H 0.80478 0.35502 0.66132 0.0
H1268 H 0.86531 0.44218 0.66555 0.0
H1269 H 1.01405 0.4141 0.68094 0.0
H1270 H 1.06691 0.43385 0.66598 0.0
H1271 H 1.01484 0.37255 0.66385 0.0
H1272 H 1.00687 0.38824 0.62949 0.0
H1273 H 1.05887 0.44961 0.63153 0.0
H1274 H 1.00049 0.4405 0.62298 0.0
H1275 H 0.93845 0.52901 0.66813 0.0
H1276 H 1.01777 0.60656 0.66949 0.0
H1277 H 0.09547 0.52756 0.65522 0.0
C1278 C 0.91016 0.3495 0.65186 0.0
C1279 C 0.85776 0.33092 0.65424 0.0
C1280 C 0.8435 0.36631 0.65929 0.0
C1281 C 0.8781 0.41679 0.66177 0.0
C1282 C 0.92861 0.4337 0.65928 0.0
C1283 C 0.94497 0.40124 0.65448 0.0
C1284 C 1.00204 0.43044 0.65274 0.0
C1285 C 1.02588 0.4116 0.66671 0.0
C1286 C 1.01802 0.42697 0.63301 0.0
C1287 C 1.01478 0.48381 0.65731 0.0
C1288 C 0.97137 0.48436 0.66096 0.0
C1289 C 0.97251 0.52861 0.66533 0.0
C1290 C 1.01838 0.57311 0.66607 0.0
C1291 C 1.06434 0.57488 0.66258 0.0
C1292 C 1.06182 0.52868 0.6581 0.0
H1293 H 0.65156 0.89661 0.80081 0.0
H1294 H 0.50151 0.77993 0.8112 0.0
H1295 H 0.47484 0.84166 0.81547 0.0
H1296 H 0.65131 0.9865 0.83325 0.0
H1297 H 0.68568 1.039 0.81852 0.0
H1298 H 0.69426 0.98613 0.81658 0.0
H1299 H 0.67264 0.97902 0.78195 0.0
H1300 H 0.66447 1.03212 0.78389 0.0
H1301 H 0.61518 0.97517 0.77492 0.0
H1302 H 0.46299 0.91718 0.81935 0.0
H1303 H 0.46698 0.99803 0.8212 0.0
H1304 H 0.62292 0.06973 0.80701 0.0
C1305 C 0.61313 0.88395 0.80412 0.0
C1306 C 0.57896 0.83213 0.80577 0.0
C1307 C 0.52893 0.81845 0.80982 0.0
C1308 C 0.51322 0.85367 0.81232 0.0
C1309 C 0.54736 0.90385 0.81056 0.0
C1310 C 0.59635 0.91915 0.8064 0.0
C1311 C 0.62486 0.97569 0.8048 0.0
C1312 C 0.66651 0.99816 0.81914 0.0
C1313 C 0.64552 0.99142 0.78522 0.0
C1314 C 0.5846 0.98964 0.80893 0.0
C1315 C 0.54019 0.94734 0.81227 0.0
C1316 C 0.49773 0.9503 0.81668 0.0
C1317 C 0.50037 0.99692 0.81773 0.0
C1318 C 0.54505 1.04149 0.8143 0.0
C1319 C 0.58781 1.03707 0.80973 0.0
H1320 H 0.53575 0.52866 0.80796 0.0
H1321 H 0.69229 0.60659 0.79454 0.0
H1322 H 0.69397 0.52852 0.79641 0.0
H1323 H 0.54284 0.44299 0.84096 0.0
H1324 H 0.48424 0.39119 0.83449 0.0
H1325 H 0.49442 0.45293 0.83197 0.0
H1326 H 0.47135 0.43639 0.79757 0.0
H1327 H 0.46126 0.37467 0.79996 0.0
H1328 H 0.50411 0.41534 0.78292 0.0
H1329 H 0.67927 0.44076 0.79897 0.0
H1330 H 0.65136 0.35305 0.80316 0.0
H1331 H 0.50349 0.32609 0.81624 0.0
C1332 C 0.57048 0.52943 0.80537 0.0
C1333 C 0.6141 0.57519 0.80094 0.0
C1334 C 0.65833 0.57326 0.7979 0.0
C1335 C 0.65961 0.52855 0.79893 0.0
C1336 C 0.61639 0.4846 0.80322 0.0
C1337 C 0.57257 0.48457 0.80654 0.0
C1338 C 0.53174 0.43174 0.81121 0.0
C1339 C 0.51213 0.42959 0.83082 0.0
C1340 C 0.4896 0.41346 0.79707 0.0
C1341 C 0.55925 0.40206 0.80981 0.0
C1342 C 0.60809 0.43378 0.80511 0.0
C1343 C 0.64111 0.41597 0.80271 0.0
C1344 C 0.62453 0.36527 0.80513 0.0
C1345 C 0.57482 0.33083 0.8101 0.0
C1346 C 0.54175 0.35034 0.81249 0.0
H1347 H 0.14528 0.6165 0.97061 0.0
H1348 H 1.02898 0.46462 0.96463 0.0
H1349 H 0.09029 0.43721 0.96811 0.0
H1350 H 0.24052 0.60288 0.94555 0.0
H1351 H 0.29077 0.64292 0.96044 0.0
H1352 H 0.23814 0.65204 0.95771 0.0
H1353 H 0.2246 0.64574 -0.0071 0.0
H1354 H 0.2772 0.63661 -0.00426 0.0
H1355 H 0.21772 0.59225 0.00491 0.0
H1356 H 0.16426 0.42404 0.97222 0.0
H1357 H 0.24423 0.42675 0.97644 0.0
H1358 H 0.31774 0.58607 0.97979 0.0
C1359 C 0.1326 0.57745 0.97004 0.0
C1360 C 0.08101 0.54303 0.96725 0.0
C1361 C 1.06731 0.49234 0.96667 0.0
C1362 C 0.10228 0.47612 0.96866 0.0
C1363 C 0.1522 0.51052 0.97131 0.0
C1364 C 0.16763 0.56026 0.97202 0.0
C1365 C 0.2241 0.58904 0.97497 0.0
C1366 C 0.24991 0.6238 0.9587 0.0
C1367 C 0.23665 0.61762 -0.00679 0.0
C1368 C 0.23773 0.54783 0.97573 0.0
C1369 C 0.19529 0.50286 0.97361 0.0
C1370 C 0.19758 0.45922 0.97386 0.0
C1371 C 0.24374 0.46116 0.97629 0.0
C1372 C 0.28858 0.50642 0.97847 0.0
C1373 C 0.28488 0.55052 0.97815 0.0
H1374 H 0.76365 0.27082 0.15142 0.0
H1375 H 0.85482 0.20109 0.14968 0.0
H1376 H 0.78005 0.12026 0.14639 0.0
H1377 H 0.66108 0.17259 0.17759 0.0
H1378 H 0.61283 0.17659 0.16529 0.0
H1379 H 0.67329 0.23014 0.16744 0.0
H1380 H 0.67919 0.2397 0.13209 0.0
H1381 H 0.61874 0.18618 0.12984 0.0
H1382 H 0.671 0.18872 0.11796 0.0
H1383 H 0.69524 1.04497 0.14313 0.0
H1384 H 0.60789 0.98164 0.14034 0.0
H1385 H 0.56494 0.0943 0.14413 0.0
C1386 C 0.768 0.2386 0.1503 0.0
C1387 C 0.81663 0.24369 0.15081 0.0
C1388 C 0.81924 0.19961 0.14936 0.0
C1389 C 0.77645 0.15292 0.14746 0.0
C1390 C 0.7297 0.14923 0.14702 0.0
C1391 C 0.72492 0.19082 0.14842 0.0
C1392 C 0.6695 0.17549 0.1476 0.0
C1393 C 0.65321 0.18955 0.16555 0.0
C1394 C 0.65899 0.19893 0.13088 0.0
C1395 C 0.64418 0.11911 0.14547 0.0
C1396 C 0.68013 0.10522 0.14519 0.0
C1397 C 0.66701 0.05573 0.14335 0.0
C1398 C 0.61657 1.01957 0.14175 0.0
C1399 C 0.57788 1.03158 0.14195 0.0
C1400 C 0.59264 0.08284 0.14388 0.0
H1401 H 0.64554 0.79293 0.3218 0.0
H1402 H 0.49303 0.75787 0.31388 0.0
H1403 H 0.46888 0.67117 0.30887 0.0
H1404 H 0.64437 0.70579 0.28725 0.0
H1405 H 0.68182 0.68779 0.30052 0.0
H1406 H 0.68875 0.74819 0.30351 0.0
H1407 H 0.67209 0.73197 0.33833 0.0
H1408 H 0.66508 0.6715 0.33545 0.0
H1409 H 0.61626 0.67847 0.34599 0.0
H1410 H 0.45878 0.58614 0.30486 0.0
H1411 H 0.46383 0.5104 0.3019 0.0
H1412 H 0.62211 0.59363 0.31191 0.0
C1413 C 0.60708 0.76712 0.31893 0.0
C1414 C 0.57144 0.78386 0.31829 0.0
C1415 C 0.52158 0.74758 0.31456 0.0
C1416 C 0.50724 0.69754 0.31165 0.0
C1417 C 0.54271 0.68239 0.31243 0.0
C1418 C 0.59175 0.71598 0.31596 0.0
C1419 C 0.62184 0.6887 0.31609 0.0
C1420 C 0.66157 0.70883 0.30094 0.0
C1421 C 0.64522 0.69293 0.3351 0.0
C1422 C 0.58218 0.63498 0.31201 0.0
C1423 C 0.53683 0.63269 0.31002 0.0
C1424 C 0.49426 0.58783 0.30637 0.0
C1425 C 0.4976 0.54444 0.3047 0.0
C1426 C 0.54325 0.54448 0.30654 0.0
C1427 C 0.58635 0.59124 0.31028 0.0
H1428 H 1.06701 0.58415 0.48102 0.0
H1429 H 0.99603 0.42492 0.4838 0.0
H1430 H 0.91511 0.42053 0.48802 0.0
H1431 H 0.98771 0.5975 0.51554 0.0
H1432 H 0.98557 0.64714 0.50376 0.0
H1433 H 1.03861 0.63862 0.50106 0.0
H1434 H 1.02719 0.63425 0.46577 0.0
H1435 H 0.97409 0.64271 0.46836 0.0
H1436 H 0.96847 0.59006 0.45603 0.0
H1437 H 0.8397 0.4324 0.49173 0.0
H1438 H 0.77751 0.45908 0.49486 0.0
H1439 H 0.89336 0.61141 0.48991 0.0
C1440 C 1.03451 0.54826 0.48254 0.0
C1441 C 1.03905 0.50472 0.48198 0.0
C1442 C 0.99475 0.45894 0.48408 0.0
C1443 C 0.94811 0.45604 0.48651 0.0
C1444 C 0.94497 0.49924 0.4869 0.0
C1445 C 0.98704 0.54464 0.48502 0.0
C1446 C 0.97279 0.58531 0.48598 0.0
C1447 C 0.99766 0.61916 0.50257 0.0
C1448 C 0.98646 0.61484 0.46796 0.0
C1449 C 0.91632 0.55576 0.48855 0.0
C1450 C 0.90135 0.50611 0.48907 0.0
C1451 C 0.85135 0.47125 0.49133 0.0
C1452 C 0.81591 0.48699 0.49311 0.0
C1453 C 0.82934 0.5376 0.49265 0.0
C1454 C 0.88093 0.5724 0.49031 0.0
H1455 H 0.39671 0.81851 0.66202 0.0
H1456 H 0.3106 0.89294 0.65654 0.0
H1457 H 0.38736 0.97214 0.65378 0.0
H1458 H 0.50023 0.91673 0.68814 0.0
H1459 H 0.54813 0.91019 0.6766 0.0
H1460 H 0.48668 0.85801 0.67866 0.0
H1461 H 0.48268 0.84642 0.64341 0.0
H1462 H 0.54412 0.89857 0.64126 0.0
H1463 H 0.49345 0.89715 0.62868 0.0
H1464 H 0.47348 1.04577 0.65232 0.0
H1465 H 0.56151 0.10731 0.65045 0.0
H1466 H 0.6001 0.99167 0.65483 0.0
C1467 C 0.39389 0.85144 0.66027 0.0
C1468 C 0.3458 0.84795 0.65957 0.0
C1469 C 0.34546 0.89296 0.6571 0.0
C1470 C 0.38949 0.93884 0.65555 0.0
C1471 C 0.43554 0.94096 0.65622 0.0
C1472 C 0.4384 0.8985 0.65837 0.0
C1473 C 0.49363 0.91229 0.65812 0.0
C1474 C 0.50802 0.89846 0.67647 0.0
C1475 C 0.50409 0.88709 0.6419 0.0
C1476 C 0.52098 0.96879 0.65554 0.0
C1477 C 0.48608 0.98401 0.65469 0.0
C1478 C 0.50084 1.03389 0.65288 0.0
C1479 C 0.55176 0.06907 0.65185 0.0
C1480 C 0.58961 0.05589 0.65236 0.0
C1481 C 0.5732 1.00412 0.65419 0.0
loop_
_geom_bond_atom_site_label_1
_geom_bond_atom_site_label_2
_geom_bond_distance
_geom_bond_site_symmetry_2
_ccdc_geom_bond_type
O0 Tb1 2.292 . S
O0 C3 1.255 . S
Tb1 O0 2.292 . S
Tb1 O17 2.326 . S
Tb1 O19 2.500 . S
Tb1 O20 2.473 . S
Tb1 O23 2.324 . S
Eu2 O6 2.292 . S
Eu2 C7 2.864 . S
Eu2 O18 2.324 1_556 S
Eu2 O22 2.326 1_556 S
Eu2 O24 2.500 . S
Eu2 O25 2.473 1_556 S
C3 O0 1.255 . S
C3 O4 1.247 . S
O4 C3 1.247 . S
C5 O17 1.242 . S
C5 O18 1.258 . S
O6 Eu2 2.292 . S
O6 C8 1.255 . S
C7 Eu2 2.864 . S
C7 C11 1.488 1_556 S
C7 O24 1.318 . S
C7 O25 1.229 1_556 S
C8 O6 1.255 . S
C8 O9 1.247 . S
O9 C8 1.247 . S
C10 O22 1.242 . S
C10 O23 1.258 . S
C11 C7 1.488 1_554 S
C11 C12 1.379 . S
C11 C16 1.392 1_554 S
C12 C11 1.379 . S
C12 C13 1.404 . S
C12 H26 0.929 . S
C13 C12 1.404 . S
C13 C14 1.389 . S
C14 C13 1.389 . S
C14 C15 1.352 1_554 S
C14 H27 0.931 . S
C15 C14 1.352 1_556 S
C15 C16 1.405 . S
C16 C11 1.392 1_556 S
C16 C15 1.405 . S
C16 H28 0.929 . S
O17 Tb1 2.326 . S
O17 C5 1.242 . S
O18 Eu2 2.324 1_554 S
O18 C5 1.258 . S
O19 Tb1 2.500 . S
O19 C21 1.273 . S
O20 Tb1 2.473 . S
O20 C21 1.257 . S
C21 O19 1.273 . S
C21 O20 1.257 . S
O22 Eu2 2.326 1_554 S
O22 C10 1.242 . S
O23 Tb1 2.324 . S
O23 C10 1.258 . S
O24 Eu2 2.500 . S
O24 C7 1.318 . S
O25 Eu2 2.473 1_554 S
O25 C7 1.229 1_554 S
H26 C12 0.929 . S
H27 C14 0.931 . S
H28 C16 0.929 . S
O29 Tb30 2.292 . S
O29 C32 1.255 . S
Tb30 O29 2.292 . S
Tb30 O46 2.326 . S
Tb30 O48 2.500 . S
Tb30 O49 2.473 . S
Tb30 O52 2.324 . S
Eu31 O35 2.292 . S
Eu31 C36 2.852 . S
Eu31 O47 2.324 . S
Eu31 O51 2.326 . S
Eu31 O53 2.500 . S
Eu31 O54 2.473 . S
C32 O29 1.255 . S
C32 O33 1.247 . S
O33 C32 1.247 . S
C34 O46 1.242 . S
C34 O47 1.258 . S
O35 Eu31 2.292 . S
O35 C37 1.255 . S
C36 Eu31 2.852 . S
C36 C40 1.503 1_655 S
C36 O53 1.273 . S
C36 O54 1.257 . S
C37 O35 1.255 . S
C37 O38 1.247 . S
O38 C37 1.247 . S
C39 O51 1.242 . S
C39 O52 1.258 . S
C40 C36 1.503 1_455 S
C40 C41 1.379 . S
C40 C45 1.392 . S
C41 C40 1.379 . S
C41 C42 1.404 . S
C41 H55 0.929 1_455 S
C42 C41 1.404 . S
C42 C43 1.389 . S
C43 C42 1.389 . S
C43 C44 1.399 . S
C43 H56 0.931 . S
C44 C43 1.399 . S
C44 C45 1.390 . S
C45 C40 1.392 . S
C45 C44 1.390 . S
C45 H57 0.929 . S
O46 Tb30 2.326 . S
O46 C34 1.242 . S
O47 Eu31 2.324 . S
O47 C34 1.258 . S
O48 Tb30 2.500 . S
O48 C50 1.273 . S
O49 Tb30 2.473 . S
O49 C50 1.257 . S
C50 O48 1.273 . S
C50 O49 1.257 . S
O51 Eu31 2.326 . S
O51 C39 1.242 . S
O52 Tb30 2.324 . S
O52 C39 1.258 . S
O53 Eu31 2.500 . S
O53 C36 1.273 . S
O54 Eu31 2.473 . S
O54 C36 1.257 . S
H55 C41 0.929 1_655 S
H56 C43 0.931 . S
H57 C45 0.929 . S
O58 Tb59 2.292 . S
O58 C61 1.255 . S
Tb59 O58 2.292 . S
Tb59 O75 2.326 . S
Tb59 O77 2.500 . S
Tb59 O78 2.473 . S
Tb59 O81 2.324 . S
Eu60 O64 2.292 . S
Eu60 C65 2.852 . S
Eu60 O76 2.324 . S
Eu60 O80 2.326 . S
Eu60 O82 2.500 . S
Eu60 O83 2.473 . S
C61 O58 1.255 . S
C61 O62 1.247 . S
O62 C61 1.247 . S
C63 O75 1.242 . S
C63 O76 1.258 . S
O64 Eu60 2.292 . S
O64 C66 1.255 . S
C65 Eu60 2.852 . S
C65 C69 1.503 1_565 S
C65 O82 1.273 . S
C65 O83 1.257 . S
C66 O64 1.255 . S
C66 O67 1.247 . S
O67 C66 1.247 . S
C68 O80 1.242 . S
C68 O81 1.258 . S
C69 C65 1.503 1_545 S
C69 C70 1.379 . S
C69 C74 1.392 . S
C70 C69 1.379 . S
C70 C71 1.404 . S
C70 H84 0.929 1_545 S
C71 C70 1.404 . S
C71 C72 1.389 . S
C72 C71 1.389 . S
C72 C73 1.399 . S
C72 H85 0.931 . S
C73 C72 1.399 . S
C73 C74 1.390 . S
C74 C69 1.392 . S
C74 C73 1.390 . S
C74 H86 0.929 . S
O75 Tb59 2.326 . S
O75 C63 1.242 . S
O76 Eu60 2.324 . S
O76 C63 1.258 . S
O77 Tb59 2.500 . S
O77 C79 1.273 . S
O78 Tb59 2.473 . S
O78 C79 1.257 . S
C79 O77 1.273 . S
C79 O78 1.257 . S
O80 Eu60 2.326 . S
O80 C68 1.242 . S
O81 Tb59 2.324 . S
O81 C68 1.258 . S
O82 Eu60 2.500 . S
O82 C65 1.273 . S
O83 Eu60 2.473 . S
O83 C65 1.257 . S
H84 C70 0.929 1_565 S
H85 C72 0.931 . S
H86 C74 0.929 . S
O87 Tb88 2.292 . S
O87 C90 1.255 . S
Tb88 O87 2.292 . S
Tb88 O104 2.326 . S
Tb88 O106 2.500 . S
Tb88 O107 2.473 . S
Tb88 O110 2.324 . S
Eu89 O93 2.292 . S
Eu89 C94 2.852 . S
Eu89 O105 2.324 . S
Eu89 O109 2.326 . S
Eu89 O111 2.500 . S
Eu89 O112 2.473 . S
C90 O87 1.255 . S
C90 O91 1.247 . S
O91 C90 1.247 . S
C92 O104 1.242 . S
C92 O105 1.258 . S
O93 Eu89 2.292 . S
O93 C95 1.255 . S
C94 Eu89 2.852 . S
C94 C98 1.503 . S
C94 O111 1.273 . S
C94 O112 1.257 . S
C95 O93 1.255 . S
C95 O96 1.247 . S
O96 C95 1.247 . S
C97 O109 1.242 . S
C97 O110 1.258 . S
C98 C94 1.503 . S
C98 C99 1.379 . S
C98 C103 1.392 . S
C99 C98 1.379 . S
C99 C100 1.404 . S
C99 H113 0.929 . S
C100 C99 1.404 . S
C100 C101 1.389 . S
C101 C100 1.389 . S
C101 C102 1.399 . S
C101 H114 0.931 . S
C102 C101 1.399 . S
C102 C103 1.390 . S
C103 C98 1.392 . S
C103 C102 1.390 . S
C103 H115 0.929 . S
O104 Tb88 2.326 . S
O104 C92 1.242 . S
O105 Eu89 2.324 . S
O105 C92 1.258 . S
O106 Tb88 2.500 . S
O106 C108 1.273 . S
O107 Tb88 2.473 . S
O107 C108 1.257 . S
C108 O106 1.273 . S
C108 O107 1.257 . S
O109 Eu89 2.326 . S
O109 C97 1.242 . S
O110 Tb88 2.324 . S
O110 C97 1.258 . S
O111 Eu89 2.500 . S
O111 C94 1.273 . S
O112 Eu89 2.473 . S
O112 C94 1.257 . S
H113 C99 0.929 . S
H114 C101 0.931 . S
H115 C103 0.929 . S
O116 Tb117 2.292 . S
O116 C119 1.255 . S
Tb117 O116 2.292 . S
Tb117 O133 2.326 . S
Tb117 O135 2.500 . S
Tb117 O136 2.473 . S
Tb117 O139 2.324 . S
Eu118 O122 2.292 . S
Eu118 C123 2.852 . S
Eu118 O134 2.324 . S
Eu118 O138 2.326 . S
Eu118 O140 2.500 . S
Eu118 O141 2.473 . S
C119 O116 1.255 . S
C119 O120 1.247 . S
O120 C119 1.247 . S
C121 O133 1.242 . S
C121 O134 1.258 . S
O122 Eu118 2.292 . S
O122 C124 1.255 . S
C123 Eu118 2.852 . S
C123 C127 1.503 1_455 S
C123 O140 1.273 . S
C123 O141 1.257 . S
C124 O122 1.255 . S
C124 O125 1.247 . S
O125 C124 1.247 . S
C126 O138 1.242 . S
C126 O139 1.258 . S
C127 C123 1.503 1_655 S
C127 C128 1.379 . S
C127 C132 1.392 . S
C128 C127 1.379 . S
C128 C129 1.404 . S
C128 H142 0.929 1_655 S
C129 C128 1.404 . S
C129 C130 1.389 . S
C130 C129 1.389 . S
C130 C131 1.399 . S
C130 H143 0.931 . S
C131 C130 1.399 . S
C131 C132 1.390 . S
C132 C127 1.392 . S
C132 C131 1.390 . S
C132 H144 0.929 . S
O133 Tb117 2.326 . S
O133 C121 1.242 . S
O134 Eu118 2.324 . S
O134 C121 1.258 . S
O135 Tb117 2.500 . S
O135 C137 1.273 . S
O136 Tb117 2.473 . S
O136 C137 1.257 . S
C137 O135 1.273 . S
C137 O136 1.257 . S
O138 Eu118 2.326 . S
O138 C126 1.242 . S
O139 Tb117 2.324 . S
O139 C126 1.258 . S
O140 Eu118 2.500 . S
O140 C123 1.273 . S
O141 Eu118 2.473 . S
O141 C123 1.257 . S
H142 C128 0.929 1_455 S
H143 C130 0.931 . S
H144 C132 0.929 . S
O145 Tb146 2.292 . S
O145 C148 1.255 . S
Tb146 O145 2.292 . S
Tb146 O162 2.326 . S
Tb146 O164 2.500 . S
Tb146 O165 2.473 . S
Tb146 O168 2.324 . S
Eu147 O151 2.292 . S
Eu147 C152 2.852 . S
Eu147 O163 2.324 . S
Eu147 O167 2.326 . S
Eu147 O169 2.500 . S
Eu147 O170 2.473 . S
C148 O145 1.255 . S
C148 O149 1.247 . S
O149 C148 1.247 . S
C150 O162 1.242 . S
C150 O163 1.258 . S
O151 Eu147 2.292 . S
O151 C153 1.255 . S
C152 Eu147 2.852 . S
C152 C156 1.503 1_545 S
C152 O169 1.273 . S
C152 O170 1.257 . S
C153 O151 1.255 . S
C153 O154 1.247 . S
O154 C153 1.247 . S
C155 O167 1.242 . S
C155 O168 1.258 . S
C156 C152 1.503 1_565 S
C156 C157 1.379 . S
C156 C161 1.392 . S
C157 C156 1.379 . S
C157 C158 1.404 . S
C157 H171 0.929 1_565 S
C158 C157 1.404 . S
C158 C159 1.389 . S
C159 C158 1.389 . S
C159 C160 1.399 . S
C159 H172 0.931 . S
C160 C159 1.399 . S
C160 C161 1.390 . S
C161 C156 1.392 . S
C161 C160 1.390 . S
C161 H173 0.929 . S
O162 Tb146 2.326 . S
O162 C150 1.242 . S
O163 Eu147 2.324 . S
O163 C150 1.258 . S
O164 Tb146 2.500 . S
O164 C166 1.273 . S
O165 Tb146 2.473 . S
O165 C166 1.257 . S
C166 O164 1.273 . S
C166 O165 1.257 . S
O167 Eu147 2.326 . S
O167 C155 1.242 . S
O168 Tb146 2.324 . S
O168 C155 1.258 . S
O169 Eu147 2.500 . S
O169 C152 1.273 . S
O170 Eu147 2.473 . S
O170 C152 1.257 . S
H171 C157 0.929 1_545 S
H172 C159 0.931 . S
H173 C161 0.929 . S
O174 Tb175 2.292 . S
O174 C177 1.255 . S
Tb175 O174 2.292 . S
Tb175 O191 2.326 . S
Tb175 O193 2.500 . S
Tb175 O194 2.473 . S
Tb175 O197 2.324 . S
Eu176 O180 2.292 . S
Eu176 C181 2.852 . S
Eu176 O192 2.324 . S
Eu176 O196 2.326 . S
Eu176 O198 2.500 . S
Eu176 O199 2.473 . S
C177 O174 1.255 . S
C177 O178 1.247 . S
O178 C177 1.247 . S
C179 O191 1.242 . S
C179 O192 1.258 . S
O180 Eu176 2.292 . S
O180 C182 1.255 . S
C181 Eu176 2.852 . S
C181 C185 1.503 . S
C181 O198 1.273 . S
C181 O199 1.257 . S
C182 O180 1.255 . S
C182 O183 1.247 . S
O183 C182 1.247 . S
C184 O196 1.242 . S
C184 O197 1.258 . S
C185 C181 1.503 . S
C185 C186 1.379 . S
C185 C190 1.392 . S
C186 C185 1.379 . S
C186 C187 1.404 . S
C186 H200 0.929 . S
C187 C186 1.404 . S
C187 C188 1.389 . S
C188 C187 1.389 . S
C188 C189 1.399 . S
C188 H201 0.931 . S
C189 C188 1.399 . S
C189 C190 1.390 . S
C190 C185 1.392 . S
C190 C189 1.390 . S
C190 H202 0.929 . S
O191 Tb175 2.326 . S
O191 C179 1.242 . S
O192 Eu176 2.324 . S
O192 C179 1.258 . S
O193 Tb175 2.500 . S
O193 C195 1.273 . S
O194 Tb175 2.473 . S
O194 C195 1.257 . S
C195 O193 1.273 . S
C195 O194 1.257 . S
O196 Eu176 2.326 . S
O196 C184 1.242 . S
O197 Tb175 2.324 . S
O197 C184 1.258 . S
O198 Eu176 2.500 . S
O198 C181 1.273 . S
O199 Eu176 2.473 . S
O199 C181 1.257 . S
H200 C186 0.929 . S
H201 C188 0.931 . S
H202 C190 0.929 . S
O203 Tb204 2.292 . S
O203 C206 1.255 . S
Tb204 O203 2.292 . S
Tb204 O220 2.326 . S
Tb204 O222 2.500 . S
Tb204 O223 2.473 . S
Tb204 O226 2.324 . S
Eu205 O209 2.292 . S
Eu205 C210 2.841 1_554 S
Eu205 O221 2.324 1_554 S
Eu205 O225 2.326 1_554 S
Eu205 O227 2.500 . S
Eu205 O228 2.473 1_554 S
C206 O203 1.255 . S
C206 O207 1.247 . S
O207 C206 1.247 . S
C208 O220 1.242 . S
C208 O221 1.258 . S
O209 Eu205 2.292 . S
O209 C211 1.255 . S
C210 Eu205 2.841 1_556 S
C210 C214 1.520 1_655 S
C210 O227 1.229 1_556 S
C210 O228 1.287 . S
C211 O209 1.255 . S
C211 O212 1.247 . S
O212 C211 1.247 . S
C213 O225 1.242 . S
C213 O226 1.258 . S
C214 C210 1.520 1_455 S
C214 C215 1.379 . S
C214 C219 1.392 1_556 S
C215 C214 1.379 . S
C215 C216 1.404 . S
C215 H229 0.929 1_455 S
C216 C215 1.404 . S
C216 C217 1.389 . S
C217 C216 1.389 . S
C217 C218 1.448 . S
C217 H230 0.931 . S
C218 C217 1.448 . S
C218 C219 1.376 1_556 S
C219 C214 1.392 1_554 S
C219 C218 1.376 1_554 S
C219 H231 0.929 . S
O220 Tb204 2.326 . S
O220 C208 1.242 . S
O221 Eu205 2.324 1_556 S
O221 C208 1.258 . S
O222 Tb204 2.500 . S
O222 C224 1.273 . S
O223 Tb204 2.473 . S
O223 C224 1.257 . S
C224 O222 1.273 . S
C224 O223 1.257 . S
O225 Eu205 2.326 1_556 S
O225 C213 1.242 . S
O226 Tb204 2.324 . S
O226 C213 1.258 . S
O227 Eu205 2.500 . S
O227 C210 1.229 1_554 S
O228 Eu205 2.473 1_556 S
O228 C210 1.287 . S
H229 C215 0.929 1_655 S
H230 C217 0.931 . S
H231 C219 0.929 . S
O232 Tb233 2.292 . S
O232 C235 1.255 . S
Tb233 O232 2.292 . S
Tb233 O249 2.326 . S
Tb233 O251 2.500 . S
Tb233 O252 2.473 . S
Tb233 O255 2.324 . S
Eu234 O238 2.292 . S
Eu234 C239 2.852 . S
Eu234 O250 2.324 . S
Eu234 O254 2.326 . S
Eu234 O256 2.500 . S
Eu234 O257 2.473 . S
C235 O232 1.255 . S
C235 O236 1.247 . S
O236 C235 1.247 . S
C237 O249 1.242 . S
C237 O250 1.258 . S
O238 Eu234 2.292 . S
O238 C240 1.255 . S
C239 Eu234 2.852 . S
C239 C243 1.503 1_565 S
C239 O256 1.273 . S
C239 O257 1.257 . S
C240 O238 1.255 . S
C240 O241 1.247 . S
O241 C240 1.247 . S
C242 O254 1.242 . S
C242 O255 1.258 . S
C243 C239 1.503 1_545 S
C243 C244 1.379 . S
C243 C248 1.392 . S
C244 C243 1.379 . S
C244 C245 1.404 . S
C244 H258 0.929 1_545 S
C245 C244 1.404 . S
C245 C246 1.389 . S
C246 C245 1.389 . S
C246 C247 1.399 . S
C246 H259 0.931 . S
C247 C246 1.399 . S
C247 C248 1.390 . S
C248 C243 1.392 . S
C248 C247 1.390 . S
C248 H260 0.929 . S
O249 Tb233 2.326 . S
O249 C237 1.242 . S
O250 Eu234 2.324 . S
O250 C237 1.258 . S
O251 Tb233 2.500 . S
O251 C253 1.273 . S
O252 Tb233 2.473 . S
O252 C253 1.257 . S
C253 O251 1.273 . S
C253 O252 1.257 . S
O254 Eu234 2.326 . S
O254 C242 1.242 . S
O255 Tb233 2.324 . S
O255 C242 1.258 . S
O256 Eu234 2.500 . S
O256 C239 1.273 . S
O257 Eu234 2.473 . S
O257 C239 1.257 . S
H258 C244 0.929 1_565 S
H259 C246 0.931 . S
H260 C248 0.929 . S
O261 Tb262 2.292 . S
O261 C264 1.255 . S
Tb262 O261 2.292 . S
Tb262 O278 2.326 . S
Tb262 O280 2.500 . S
Tb262 O281 2.473 . S
Tb262 O284 2.324 . S
Eu263 O267 2.292 . S
Eu263 C268 2.852 . S
Eu263 O279 2.324 . S
Eu263 O283 2.326 . S
Eu263 O285 2.500 . S
Eu263 O286 2.473 . S
C264 O261 1.255 . S
C264 O265 1.247 . S
O265 C264 1.247 . S
C266 O278 1.242 . S
C266 O279 1.258 . S
O267 Eu263 2.292 . S
O267 C269 1.255 . S
C268 Eu263 2.852 . S
C268 C272 1.503 . S
C268 O285 1.273 . S
C268 O286 1.257 . S
C269 O267 1.255 . S
C269 O270 1.247 . S
O270 C269 1.247 . S
C271 O283 1.242 . S
C271 O284 1.258 . S
C272 C268 1.503 . S
C272 C273 1.379 . S
C272 C277 1.392 . S
C273 C272 1.379 . S
C273 C274 1.404 . S
C273 H287 0.929 . S
C274 C273 1.404 . S
C274 C275 1.389 . S
C275 C274 1.389 . S
C275 C276 1.399 . S
C275 H288 0.931 . S
C276 C275 1.399 . S
C276 C277 1.390 . S
C277 C272 1.392 . S
C277 C276 1.390 . S
C277 H289 0.929 . S
O278 Tb262 2.326 . S
O278 C266 1.242 . S
O279 Eu263 2.324 . S
O279 C266 1.258 . S
O280 Tb262 2.500 . S
O280 C282 1.273 . S
O281 Tb262 2.473 . S
O281 C282 1.257 . S
C282 O280 1.273 . S
C282 O281 1.257 . S
O283 Eu263 2.326 . S
O283 C271 1.242 . S
O284 Tb262 2.324 . S
O284 C271 1.258 . S
O285 Eu263 2.500 . S
O285 C268 1.273 . S
O286 Eu263 2.473 . S
O286 C268 1.257 . S
H287 C273 0.929 . S
H288 C275 0.931 . S
H289 C277 0.929 . S
O290 Tb291 2.292 . S
O290 C293 1.255 . S
Tb291 O290 2.292 . S
Tb291 O307 2.326 . S
Tb291 O309 2.500 . S
Tb291 O310 2.473 . S
Tb291 O313 2.324 . S
Eu292 O296 2.292 . S
Eu292 C297 2.852 . S
Eu292 O308 2.324 . S
Eu292 O312 2.326 . S
Eu292 O314 2.500 . S
Eu292 O315 2.473 . S
C293 O290 1.255 . S
C293 O294 1.247 . S
O294 C293 1.247 . S
C295 O307 1.242 . S
C295 O308 1.258 . S
O296 Eu292 2.292 . S
O296 C298 1.255 . S
C297 Eu292 2.852 . S
C297 C301 1.503 1_455 S
C297 O314 1.273 . S
C297 O315 1.257 . S
C298 O296 1.255 . S
C298 O299 1.247 . S
O299 C298 1.247 . S
C300 O312 1.242 . S
C300 O313 1.258 . S
C301 C297 1.503 1_655 S
C301 C302 1.379 . S
C301 C306 1.392 . S
C302 C301 1.379 . S
C302 C303 1.404 . S
C302 H316 0.929 1_655 S
C303 C302 1.404 . S
C303 C304 1.389 . S
C304 C303 1.389 . S
C304 C305 1.399 . S
C304 H317 0.931 . S
C305 C304 1.399 . S
C305 C306 1.390 . S
C306 C301 1.392 . S
C306 C305 1.390 . S
C306 H318 0.929 . S
O307 Tb291 2.326 . S
O307 C295 1.242 . S
O308 Eu292 2.324 . S
O308 C295 1.258 . S
O309 Tb291 2.500 . S
O309 C311 1.273 . S
O310 Tb291 2.473 . S
O310 C311 1.257 . S
C311 O309 1.273 . S
C311 O310 1.257 . S
O312 Eu292 2.326 . S
O312 C300 1.242 . S
O313 Tb291 2.324 . S
O313 C300 1.258 . S
O314 Eu292 2.500 . S
O314 C297 1.273 . S
O315 Eu292 2.473 . S
O315 C297 1.257 . S
H316 C302 0.929 1_455 S
H317 C304 0.931 . S
H318 C306 0.929 . S
O319 Tb320 2.292 . S
O319 C322 1.255 . S
Tb320 O319 2.292 . S
Tb320 O336 2.326 . S
Tb320 O338 2.500 . S
Tb320 O339 2.473 . S
Tb320 O342 2.324 . S
Eu321 O325 2.292 . S
Eu321 C326 2.852 . S
Eu321 O337 2.324 . S
Eu321 O341 2.326 . S
Eu321 O343 2.500 . S
Eu321 O344 2.473 . S
C322 O319 1.255 . S
C322 O323 1.247 . S
O323 C322 1.247 . S
C324 O336 1.242 . S
C324 O337 1.258 . S
O325 Eu321 2.292 . S
O325 C327 1.255 . S
C326 Eu321 2.852 . S
C326 C330 1.503 1_545 S
C326 O343 1.273 . S
C326 O344 1.257 . S
C327 O325 1.255 . S
C327 O328 1.247 . S
O328 C327 1.247 . S
C329 O341 1.242 . S
C329 O342 1.258 . S
C330 C326 1.503 1_565 S
C330 C331 1.379 . S
C330 C335 1.392 . S
C331 C330 1.379 . S
C331 C332 1.404 . S
C331 H345 0.929 1_565 S
C332 C331 1.404 . S
C332 C333 1.389 . S
C333 C332 1.389 . S
C333 C334 1.399 . S
C333 H346 0.931 . S
C334 C333 1.399 . S
C334 C335 1.390 . S
C335 C330 1.392 . S
C335 C334 1.390 . S
C335 H347 0.929 . S
O336 Tb320 2.326 . S
O336 C324 1.242 . S
O337 Eu321 2.324 . S
O337 C324 1.258 . S
O338 Tb320 2.500 . S
O338 C340 1.273 . S
O339 Tb320 2.473 . S
O339 C340 1.257 . S
C340 O338 1.273 . S
C340 O339 1.257 . S
O341 Eu321 2.326 . S
O341 C329 1.242 . S
O342 Tb320 2.324 . S
O342 C329 1.258 . S
O343 Eu321 2.500 . S
O343 C326 1.273 . S
O344 Eu321 2.473 . S
O344 C326 1.257 . S
H345 C331 0.929 1_545 S
H346 C333 0.931 . S
H347 C335 0.929 . S
H348 C360 0.930 . S
H349 C362 0.930 . S
H350 C363 0.930 . S
H351 C367 0.959 . S
H352 C367 0.959 . S
H353 C367 0.961 . S
H354 C368 0.960 . S
H355 C368 0.961 . S
H356 C368 0.959 . S
H357 C371 0.929 . S
H358 C372 0.931 . S
H359 C374 0.930 . S
C360 H348 0.930 . S
C360 C361 1.399 . S
C360 C365 1.399 . S
C361 C360 1.399 . S
C361 C362 1.376 . S
C362 H349 0.930 . S
C362 C361 1.376 . S
C362 C363 1.388 . S
C363 H350 0.930 . S
C363 C362 1.388 . S
C363 C364 1.390 . S
C364 C363 1.390 . S
C364 C365 1.394 . S
C364 C370 1.465 . S
C365 C360 1.399 . S
C365 C364 1.394 . S
C365 C366 1.516 . S
C366 C365 1.516 . S
C366 C367 1.502 . S
C366 C368 1.561 . S
C366 C369 1.526 . S
C367 H351 0.959 . S
C367 H352 0.959 . S
C367 H353 0.961 . S
C367 C366 1.502 . S
C368 H354 0.960 . S
C368 H355 0.961 . S
C368 H356 0.959 . S
C368 C366 1.561 . S
C369 C366 1.526 . S
C369 C370 1.396 . S
C369 C374 1.390 . S
C370 C364 1.465 . S
C370 C369 1.396 . S
C370 C371 1.399 . S
C371 H357 0.929 . S
C371 C370 1.399 . S
C371 C372 1.385 . S
C372 H358 0.931 . S
C372 C371 1.385 . S
C372 C373 1.389 . S
C373 C372 1.389 . S
C373 C374 1.387 . S
C374 H359 0.930 . S
C374 C369 1.390 . S
C374 C373 1.387 . S
H375 C387 0.930 . S
H376 C389 0.930 . S
H377 C390 0.930 . S
H378 C394 0.959 . S
H379 C394 0.959 . S
H380 C394 0.961 . S
H381 C395 0.960 . S
H382 C395 0.961 . S
H383 C395 0.959 . S
H384 C398 0.929 . S
H385 C399 0.931 . S
H386 C401 0.930 . S
C387 H375 0.930 . S
C387 C388 1.399 . S
C387 C392 1.399 . S
C388 C387 1.399 . S
C388 C389 1.376 . S
C389 H376 0.930 . S
C389 C388 1.376 . S
C389 C390 1.388 . S
C390 H377 0.930 . S
C390 C389 1.388 . S
C390 C391 1.390 . S
C391 C390 1.390 . S
C391 C392 1.394 . S
C391 C397 1.465 . S
C392 C387 1.399 . S
C392 C391 1.394 . S
C392 C393 1.516 . S
C393 C392 1.516 . S
C393 C394 1.502 . S
C393 C395 1.561 . S
C393 C396 1.526 . S
C394 H378 0.959 . S
C394 H379 0.959 . S
C394 H380 0.961 . S
C394 C393 1.502 . S
C395 H381 0.960 . S
C395 H382 0.961 . S
C395 H383 0.959 . S
C395 C393 1.561 . S
C396 C393 1.526 . S
C396 C397 1.396 . S
C396 C401 1.390 . S
C397 C391 1.465 . S
C397 C396 1.396 . S
C397 C398 1.399 . S
C398 H384 0.929 . S
C398 C397 1.399 . S
C398 C399 1.385 . S
C399 H385 0.931 . S
C399 C398 1.385 . S
C399 C400 1.389 . S
C400 C399 1.389 . S
C400 C401 1.387 . S
C401 H386 0.930 . S
C401 C396 1.390 . S
C401 C400 1.387 . S
H402 C414 0.930 . S
H403 C416 0.930 . S
H404 C417 0.930 . S
H405 C421 0.959 . S
H406 C421 0.959 . S
H407 C421 0.961 . S
H408 C422 0.960 . S
H409 C422 0.961 . S
H410 C422 0.959 . S
H411 C425 0.929 . S
H412 C426 0.931 . S
H413 C428 0.930 . S
C414 H402 0.930 . S
C414 C415 1.399 . S
C414 C419 1.399 . S
C415 C414 1.399 . S
C415 C416 1.376 . S
C416 H403 0.930 . S
C416 C415 1.376 . S
C416 C417 1.388 . S
C417 H404 0.930 . S
C417 C416 1.388 . S
C417 C418 1.390 . S
C418 C417 1.390 . S
C418 C419 1.394 . S
C418 C424 1.465 . S
C419 C414 1.399 . S
C419 C418 1.394 . S
C419 C420 1.516 . S
C420 C419 1.516 . S
C420 C421 1.502 . S
C420 C422 1.561 . S
C420 C423 1.526 . S
C421 H405 0.959 . S
C421 H406 0.959 . S
C421 H407 0.961 . S
C421 C420 1.502 . S
C422 H408 0.960 . S
C422 H409 0.961 . S
C422 H410 0.959 . S
C422 C420 1.561 . S
C423 C420 1.526 . S
C423 C424 1.396 . S
C423 C428 1.390 . S
C424 C418 1.465 . S
C424 C423 1.396 . S
C424 C425 1.399 . S
C425 H411 0.929 . S
C425 C424 1.399 . S
C425 C426 1.385 . S
C426 H412 0.931 . S
C426 C425 1.385 . S
C426 C427 1.389 . S
C427 C426 1.389 . S
C427 C428 1.387 . S
C428 H413 0.930 . S
C428 C423 1.390 . S
C428 C427 1.387 . S
H429 C441 0.930 . S
H430 C443 0.930 . S
H431 C444 0.930 . S
H432 C448 0.959 . S
H433 C448 0.959 . S
H434 C448 0.961 . S
H435 C449 0.960 . S
H436 C449 0.961 . S
H437 C449 0.959 . S
H438 C452 0.929 . S
H439 C453 0.931 . S
H440 C455 0.930 . S
C441 H429 0.930 . S
C441 C442 1.399 . S
C441 C446 1.399 . S
C442 C441 1.399 . S
C442 C443 1.376 . S
C443 H430 0.930 . S
C443 C442 1.376 . S
C443 C444 1.388 . S
C444 H431 0.930 . S
C444 C443 1.388 . S
C444 C445 1.390 . S
C445 C444 1.390 . S
C445 C446 1.394 . S
C445 C451 1.465 . S
C446 C441 1.399 . S
C446 C445 1.394 . S
C446 C447 1.516 . S
C447 C446 1.516 . S
C447 C448 1.502 . S
C447 C449 1.561 . S
C447 C450 1.526 . S
C448 H432 0.959 . S
C448 H433 0.959 . S
C448 H434 0.961 . S
C448 C447 1.502 . S
C449 H435 0.960 . S
C449 H436 0.961 . S
C449 H437 0.959 . S
C449 C447 1.561 . S
C450 C447 1.526 . S
C450 C451 1.396 . S
C450 C455 1.390 . S
C451 C445 1.465 . S
C451 C450 1.396 . S
C451 C452 1.399 . S
C452 H438 0.929 . S
C452 C451 1.399 . S
C452 C453 1.385 . S
C453 H439 0.931 . S
C453 C452 1.385 . S
C453 C454 1.389 . S
C454 C453 1.389 . S
C454 C455 1.387 . S
C455 H440 0.930 . S
C455 C450 1.390 . S
C455 C454 1.387 . S
H456 C468 0.930 . S
H457 C470 0.930 . S
H458 C471 0.930 . S
H459 C475 0.959 . S
H460 C475 0.959 . S
H461 C475 0.961 . S
H462 C476 0.960 . S
H463 C476 0.961 . S
H464 C476 0.959 . S
H465 C479 0.929 . S
H466 C480 0.931 . S
H467 C482 0.930 . S
C468 H456 0.930 . S
C468 C469 1.399 . S
C468 C473 1.399 . S
C469 C468 1.399 . S
C469 C470 1.376 . S
C470 H457 0.930 . S
C470 C469 1.376 . S
C470 C471 1.388 . S
C471 H458 0.930 . S
C471 C470 1.388 . S
C471 C472 1.390 . S
C472 C471 1.390 . S
C472 C473 1.394 . S
C472 C478 1.465 . S
C473 C468 1.399 . S
C473 C472 1.394 . S
C473 C474 1.516 . S
C474 C473 1.516 . S
C474 C475 1.502 . S
C474 C476 1.561 . S
C474 C477 1.526 . S
C475 H459 0.959 . S
C475 H460 0.959 . S
C475 H461 0.961 . S
C475 C474 1.502 . S
C476 H462 0.960 . S
C476 H463 0.961 . S
C476 H464 0.959 . S
C476 C474 1.561 . S
C477 C474 1.526 . S
C477 C478 1.396 . S
C477 C482 1.390 . S
C478 C472 1.465 . S
C478 C477 1.396 . S
C478 C479 1.399 . S
C479 H465 0.929 . S
C479 C478 1.399 . S
C479 C480 1.385 . S
C480 H466 0.931 . S
C480 C479 1.385 . S
C480 C481 1.389 . S
C481 C480 1.389 . S
C481 C482 1.387 . S
C482 H467 0.930 . S
C482 C477 1.390 . S
C482 C481 1.387 . S
H483 C495 0.930 . S
H484 C497 0.930 . S
H485 C498 0.930 . S
H486 C502 0.959 . S
H487 C502 0.959 . S
H488 C502 0.961 . S
H489 C503 0.960 . S
H490 C503 0.961 . S
H491 C503 0.959 . S
H492 C506 0.929 . S
H493 C507 0.931 . S
H494 C509 0.930 . S
C495 H483 0.930 . S
C495 C496 1.399 . S
C495 C500 1.399 . S
C496 C495 1.399 . S
C496 C497 1.376 . S
C497 H484 0.930 . S
C497 C496 1.376 . S
C497 C498 1.388 . S
C498 H485 0.930 . S
C498 C497 1.388 . S
C498 C499 1.390 . S
C499 C498 1.390 . S
C499 C500 1.394 . S
C499 C505 1.465 . S
C500 C495 1.399 . S
C500 C499 1.394 . S
C500 C501 1.516 . S
C501 C500 1.516 . S
C501 C502 1.502 . S
C501 C503 1.561 . S
C501 C504 1.526 . S
C502 H486 0.959 . S
C502 H487 0.959 . S
C502 H488 0.961 . S
C502 C501 1.502 . S
C503 H489 0.960 . S
C503 H490 0.961 . S
C503 H491 0.959 . S
C503 C501 1.561 . S
C504 C501 1.526 . S
C504 C505 1.396 . S
C504 C509 1.390 . S
C505 C499 1.465 . S
C505 C504 1.396 . S
C505 C506 1.399 . S
C506 H492 0.929 . S
C506 C505 1.399 . S
C506 C507 1.385 . S
C507 H493 0.931 . S
C507 C506 1.385 . S
C507 C508 1.389 . S
C508 C507 1.389 . S
C508 C509 1.387 . S
C509 H494 0.930 . S
C509 C504 1.390 . S
C509 C508 1.387 . S
H510 C522 0.930 . S
H511 C524 0.930 . S
H512 C525 0.930 . S
H513 C529 0.959 . S
H514 C529 0.959 . S
H515 C529 0.961 . S
H516 C530 0.960 . S
H517 C530 0.961 . S
H518 C530 0.959 . S
H519 C533 0.929 . S
H520 C534 0.931 . S
H521 C536 0.930 . S
C522 H510 0.930 . S
C522 C523 1.399 . S
C522 C527 1.399 . S
C523 C522 1.399 . S
C523 C524 1.376 . S
C524 H511 0.930 . S
C524 C523 1.376 . S
C524 C525 1.388 . S
C525 H512 0.930 . S
C525 C524 1.388 . S
C525 C526 1.390 . S
C526 C525 1.390 . S
C526 C527 1.394 . S
C526 C532 1.465 . S
C527 C522 1.399 . S
C527 C526 1.394 . S
C527 C528 1.516 . S
C528 C527 1.516 . S
C528 C529 1.502 . S
C528 C530 1.561 . S
C528 C531 1.526 . S
C529 H513 0.959 . S
C529 H514 0.959 . S
C529 H515 0.961 . S
C529 C528 1.502 . S
C530 H516 0.960 . S
C530 H517 0.961 . S
C530 H518 0.959 . S
C530 C528 1.561 . S
C531 C528 1.526 . S
C531 C532 1.396 . S
C531 C536 1.390 . S
C532 C526 1.465 . S
C532 C531 1.396 . S
C532 C533 1.399 . S
C533 H519 0.929 . S
C533 C532 1.399 . S
C533 C534 1.385 . S
C534 H520 0.931 . S
C534 C533 1.385 . S
C534 C535 1.389 . S
C535 C534 1.389 . S
C535 C536 1.387 . S
C536 H521 0.930 . S
C536 C531 1.390 . S
C536 C535 1.387 . S
H537 C549 0.930 . S
H538 C551 0.930 . S
H539 C552 0.930 . S
H540 C556 0.959 . S
H541 C556 0.959 . S
H542 C556 0.961 . S
H543 C557 0.960 . S
H544 C557 0.961 . S
H545 C557 0.959 . S
H546 C560 0.929 . S
H547 C561 0.931 . S
H548 C563 0.930 . S
C549 H537 0.930 . S
C549 C550 1.399 . S
C549 C554 1.399 . S
C550 C549 1.399 . S
C550 C551 1.376 . S
C551 H538 0.930 . S
C551 C550 1.376 . S
C551 C552 1.388 . S
C552 H539 0.930 . S
C552 C551 1.388 . S
C552 C553 1.390 . S
C553 C552 1.390 . S
C553 C554 1.394 . S
C553 C559 1.465 . S
C554 C549 1.399 . S
C554 C553 1.394 . S
C554 C555 1.516 . S
C555 C554 1.516 . S
C555 C556 1.502 . S
C555 C557 1.561 . S
C555 C558 1.526 . S
C556 H540 0.959 . S
C556 H541 0.959 . S
C556 H542 0.961 . S
C556 C555 1.502 . S
C557 H543 0.960 . S
C557 H544 0.961 . S
C557 H545 0.959 . S
C557 C555 1.561 . S
C558 C555 1.526 . S
C558 C559 1.396 . S
C558 C563 1.390 . S
C559 C553 1.465 . S
C559 C558 1.396 . S
C559 C560 1.399 . S
C560 H546 0.929 . S
C560 C559 1.399 . S
C560 C561 1.385 . S
C561 H547 0.931 . S
C561 C560 1.385 . S
C561 C562 1.389 . S
C562 C561 1.389 . S
C562 C563 1.387 . S
C563 H548 0.930 . S
C563 C558 1.390 . S
C563 C562 1.387 . S
H564 C576 0.930 . S
H565 C578 0.930 . S
H566 C579 0.930 . S
H567 C583 0.959 . S
H568 C583 0.959 . S
H569 C583 0.961 . S
H570 C584 0.960 . S
H571 C584 0.961 . S
H572 C584 0.959 . S
H573 C587 0.929 . S
H574 C588 0.931 . S
H575 C590 0.930 . S
C576 H564 0.930 . S
C576 C577 1.399 . S
C576 C581 1.399 . S
C577 C576 1.399 . S
C577 C578 1.376 . S
C578 H565 0.930 . S
C578 C577 1.376 . S
C578 C579 1.388 . S
C579 H566 0.930 . S
C579 C578 1.388 . S
C579 C580 1.390 . S
C580 C579 1.390 . S
C580 C581 1.394 . S
C580 C586 1.465 . S
C581 C576 1.399 . S
C581 C580 1.394 . S
C581 C582 1.516 . S
C582 C581 1.516 . S
C582 C583 1.502 . S
C582 C584 1.561 . S
C582 C585 1.526 . S
C583 H567 0.959 . S
C583 H568 0.959 . S
C583 H569 0.961 . S
C583 C582 1.502 . S
C584 H570 0.960 . S
C584 H571 0.961 . S
C584 H572 0.959 . S
C584 C582 1.561 . S
C585 C582 1.526 . S
C585 C586 1.396 . S
C585 C590 1.390 . S
C586 C580 1.465 . S
C586 C585 1.396 . S
C586 C587 1.399 . S
C587 H573 0.929 . S
C587 C586 1.399 . S
C587 C588 1.385 . S
C588 H574 0.931 . S
C588 C587 1.385 . S
C588 C589 1.389 . S
C589 C588 1.389 . S
C589 C590 1.387 . S
C590 H575 0.930 . S
C590 C585 1.390 . S
C590 C589 1.387 . S
H591 C603 0.930 . S
H592 C605 0.930 . S
H593 C606 0.930 . S
H594 C610 0.959 . S
H595 C610 0.959 . S
H596 C610 0.961 . S
H597 C611 0.960 . S
H598 C611 0.961 . S
H599 C611 0.959 . S
H600 C614 0.929 . S
H601 C615 0.931 . S
H602 C617 0.930 . S
C603 H591 0.930 . S
C603 C604 1.399 . S
C603 C608 1.399 . S
C604 C603 1.399 . S
C604 C605 1.376 . S
C605 H592 0.930 . S
C605 C604 1.376 . S
C605 C606 1.388 . S
C606 H593 0.930 . S
C606 C605 1.388 . S
C606 C607 1.390 . S
C607 C606 1.390 . S
C607 C608 1.394 . S
C607 C613 1.465 . S
C608 C603 1.399 . S
C608 C607 1.394 . S
C608 C609 1.516 . S
C609 C608 1.516 . S
C609 C610 1.502 . S
C609 C611 1.561 . S
C609 C612 1.526 . S
C610 H594 0.959 . S
C610 H595 0.959 . S
C610 H596 0.961 . S
C610 C609 1.502 . S
C611 H597 0.960 . S
C611 H598 0.961 . S
C611 H599 0.959 . S
C611 C609 1.561 . S
C612 C609 1.526 . S
C612 C613 1.396 . S
C612 C617 1.390 . S
C613 C607 1.465 . S
C613 C612 1.396 . S
C613 C614 1.399 . S
C614 H600 0.929 . S
C614 C613 1.399 . S
C614 C615 1.385 . S
C615 H601 0.931 . S
C615 C614 1.385 . S
C615 C616 1.389 . S
C616 C615 1.389 . S
C616 C617 1.387 . S
C617 H602 0.930 . S
C617 C612 1.390 . S
C617 C616 1.387 . S
H618 C630 0.930 . S
H619 C632 0.930 . S
H620 C633 0.930 . S
H621 C637 0.959 . S
H622 C637 0.959 . S
H623 C637 0.961 . S
H624 C638 0.960 . S
H625 C638 0.961 . S
H626 C638 0.959 . S
H627 C641 0.929 . S
H628 C642 0.931 . S
H629 C644 0.930 . S
C630 H618 0.930 . S
C630 C631 1.399 . S
C630 C635 1.399 . S
C631 C630 1.399 . S
C631 C632 1.376 . S
C632 H619 0.930 . S
C632 C631 1.376 . S
C632 C633 1.388 . S
C633 H620 0.930 . S
C633 C632 1.388 . S
C633 C634 1.390 . S
C634 C633 1.390 . S
C634 C635 1.394 . S
C634 C640 1.465 . S
C635 C630 1.399 . S
C635 C634 1.394 . S
C635 C636 1.516 . S
C636 C635 1.516 . S
C636 C637 1.502 . S
C636 C638 1.561 . S
C636 C639 1.526 . S
C637 H621 0.959 . S
C637 H622 0.959 . S
C637 H623 0.961 . S
C637 C636 1.502 . S
C638 H624 0.960 . S
C638 H625 0.961 . S
C638 H626 0.959 . S
C638 C636 1.561 . S
C639 C636 1.526 . S
C639 C640 1.396 . S
C639 C644 1.390 . S
C640 C634 1.465 . S
C640 C639 1.396 . S
C640 C641 1.399 . S
C641 H627 0.929 . S
C641 C640 1.399 . S
C641 C642 1.385 . S
C642 H628 0.931 . S
C642 C641 1.385 . S
C642 C643 1.389 . S
C643 C642 1.389 . S
C643 C644 1.387 . S
C644 H629 0.930 . S
C644 C639 1.390 . S
C644 C643 1.387 . S
H645 C657 0.930 . S
H646 C659 0.930 . S
H647 C660 0.930 . S
H648 C664 0.959 . S
H649 C664 0.959 . S
H650 C664 0.961 . S
H651 C665 0.960 . S
H652 C665 0.961 . S
H653 C665 0.959 . S
H654 C668 0.929 . S
H655 C669 0.931 . S
H656 C671 0.930 . S
C657 H645 0.930 . S
C657 C658 1.399 . S
C657 C662 1.399 . S
C658 C657 1.399 . S
C658 C659 1.376 . S
C659 H646 0.930 . S
C659 C658 1.376 . S
C659 C660 1.388 . S
C660 H647 0.930 . S
C660 C659 1.388 . S
C660 C661 1.390 . S
C661 C660 1.390 . S
C661 C662 1.394 . S
C661 C667 1.465 . S
C662 C657 1.399 . S
C662 C661 1.394 . S
C662 C663 1.516 . S
C663 C662 1.516 . S
C663 C664 1.502 . S
C663 C665 1.561 . S
C663 C666 1.526 . S
C664 H648 0.959 . S
C664 H649 0.959 . S
C664 H650 0.961 . S
C664 C663 1.502 . S
C665 H651 0.960 . S
C665 H652 0.961 . S
C665 H653 0.959 . S
C665 C663 1.561 . S
C666 C663 1.526 . S
C666 C667 1.396 . S
C666 C671 1.390 . S
C667 C661 1.465 . S
C667 C666 1.396 . S
C667 C668 1.399 . S
C668 H654 0.929 . S
C668 C667 1.399 . S
C668 C669 1.385 . S
C669 H655 0.931 . S
C669 C668 1.385 . S
C669 C670 1.389 . S
C670 C669 1.389 . S
C670 C671 1.387 . S
C671 H656 0.930 . S
C671 C666 1.390 . S
C671 C670 1.387 . S
H672 C684 0.930 . S
H673 C686 0.930 . S
H674 C687 0.930 . S
H675 C691 0.959 . S
H676 C691 0.959 . S
H677 C691 0.961 . S
H678 C692 0.960 . S
H679 C692 0.961 . S
H680 C692 0.959 . S
H681 C695 0.929 . S
H682 C696 0.931 . S
H683 C698 0.930 . S
C684 H672 0.930 . S
C684 C685 1.399 . S
C684 C689 1.399 . S
C685 C684 1.399 . S
C685 C686 1.376 . S
C686 H673 0.930 . S
C686 C685 1.376 . S
C686 C687 1.388 . S
C687 H674 0.930 . S
C687 C686 1.388 . S
C687 C688 1.390 . S
C688 C687 1.390 . S
C688 C689 1.394 . S
C688 C694 1.465 . S
C689 C684 1.399 . S
C689 C688 1.394 . S
C689 C690 1.516 . S
C690 C689 1.516 . S
C690 C691 1.502 . S
C690 C692 1.561 . S
C690 C693 1.526 . S
C691 H675 0.959 . S
C691 H676 0.959 . S
C691 H677 0.961 . S
C691 C690 1.502 . S
C692 H678 0.960 . S
C692 H679 0.961 . S
C692 H680 0.959 . S
C692 C690 1.561 . S
C693 C690 1.526 . S
C693 C694 1.396 . S
C693 C698 1.390 . S
C694 C688 1.465 . S
C694 C693 1.396 . S
C694 C695 1.399 . S
C695 H681 0.929 . S
C695 C694 1.399 . S
C695 C696 1.385 . S
C696 H682 0.931 . S
C696 C695 1.385 . S
C696 C697 1.389 . S
C697 C696 1.389 . S
C697 C698 1.387 . S
C698 H683 0.930 . S
C698 C693 1.390 . S
C698 C697 1.387 . S
H699 C711 0.930 . S
H700 C713 0.930 . S
H701 C714 0.930 . S
H702 C718 0.959 . S
H703 C718 0.959 . S
H704 C718 0.961 . S
H705 C719 0.960 . S
H706 C719 0.961 . S
H707 C719 0.959 . S
H708 C722 0.929 . S
H709 C723 0.931 1_556 S
H710 C725 0.930 . S
C711 H699 0.930 . S
C711 C712 1.399 . S
C711 C716 1.399 . S
C712 C711 1.399 . S
C712 C713 1.376 . S
C713 H700 0.930 . S
C713 C712 1.376 . S
C713 C714 1.388 . S
C714 H701 0.930 . S
C714 C713 1.388 . S
C714 C715 1.390 . S
C715 C714 1.390 . S
C715 C716 1.394 . S
C715 C721 1.465 . S
C716 C711 1.399 . S
C716 C715 1.394 . S
C716 C717 1.516 . S
C717 C716 1.516 . S
C717 C718 1.502 . S
C717 C719 1.561 . S
C717 C720 1.526 . S
C718 H702 0.959 . S
C718 H703 0.959 . S
C718 H704 0.961 . S
C718 C717 1.502 . S
C719 H705 0.960 . S
C719 H706 0.961 . S
C719 H707 0.959 . S
C719 C717 1.561 . S
C720 C717 1.526 . S
C720 C721 1.396 . S
C720 C725 1.390 . S
C721 C715 1.465 . S
C721 C720 1.396 . S
C721 C722 1.399 . S
C722 H708 0.929 . S
C722 C721 1.399 . S
C722 C723 1.385 . S
C723 H709 0.931 1_554 S
C723 C722 1.385 . S
C723 C724 1.399 . S
C724 C723 1.399 . S
C724 C725 1.421 . S
C725 H710 0.930 . S
C725 C720 1.390 . S
C725 C724 1.421 . S
H726 C738 0.930 . S
H727 C740 0.930 . S
H728 C741 0.930 . S
H729 C745 0.959 . S
H730 C745 0.959 . S
H731 C745 0.961 . S
H732 C746 0.960 . S
H733 C746 0.961 . S
H734 C746 0.959 . S
H735 C749 0.929 . S
H736 C750 0.931 . S
H737 C752 0.930 . S
C738 H726 0.930 . S
C738 C739 1.399 . S
C738 C743 1.399 . S
C739 C738 1.399 . S
C739 C740 1.376 . S
C740 H727 0.930 . S
C740 C739 1.376 . S
C740 C741 1.388 . S
C741 H728 0.930 . S
C741 C740 1.388 . S
C741 C742 1.390 . S
C742 C741 1.390 . S
C742 C743 1.394 . S
C742 C748 1.465 . S
C743 C738 1.399 . S
C743 C742 1.394 . S
C743 C744 1.516 . S
C744 C743 1.516 . S
C744 C745 1.502 . S
C744 C746 1.561 . S
C744 C747 1.526 . S
C745 H729 0.959 . S
C745 H730 0.959 . S
C745 H731 0.961 . S
C745 C744 1.502 . S
C746 H732 0.960 . S
C746 H733 0.961 . S
C746 H734 0.959 . S
C746 C744 1.561 . S
C747 C744 1.526 . S
C747 C748 1.396 . S
C747 C752 1.390 . S
C748 C742 1.465 . S
C748 C747 1.396 . S
C748 C749 1.399 . S
C749 H735 0.929 . S
C749 C748 1.399 . S
C749 C750 1.385 . S
C750 H736 0.931 . S
C750 C749 1.385 . S
C750 C751 1.389 . S
C751 C750 1.389 . S
C751 C752 1.387 . S
C752 H737 0.930 . S
C752 C747 1.390 . S
C752 C751 1.387 . S
H753 C765 0.930 . S
H754 C767 0.930 . S
H755 C768 0.930 . S
H756 C772 0.959 . S
H757 C772 0.959 . S
H758 C772 0.961 . S
H759 C773 0.960 . S
H760 C773 0.961 . S
H761 C773 0.959 . S
H762 C776 0.929 . S
H763 C777 0.931 . S
H764 C779 0.930 . S
C765 H753 0.930 . S
C765 C766 1.399 . S
C765 C770 1.399 . S
C766 C765 1.399 . S
C766 C767 1.376 . S
C767 H754 0.930 . S
C767 C766 1.376 . S
C767 C768 1.388 . S
C768 H755 0.930 . S
C768 C767 1.388 . S
C768 C769 1.390 . S
C769 C768 1.390 . S
C769 C770 1.394 . S
C769 C775 1.465 . S
C770 C765 1.399 . S
C770 C769 1.394 . S
C770 C771 1.516 . S
C771 C770 1.516 . S
C771 C772 1.502 . S
C771 C773 1.561 . S
C771 C774 1.526 . S
C772 H756 0.959 . S
C772 H757 0.959 . S
C772 H758 0.961 . S
C772 C771 1.502 . S
C773 H759 0.960 . S
C773 H760 0.961 . S
C773 H761 0.959 . S
C773 C771 1.561 . S
C774 C771 1.526 . S
C774 C775 1.396 . S
C774 C779 1.390 . S
C775 C769 1.465 . S
C775 C774 1.396 . S
C775 C776 1.399 . S
C776 H762 0.929 . S
C776 C775 1.399 . S
C776 C777 1.385 . S
C777 H763 0.931 . S
C777 C776 1.385 . S
C777 C778 1.389 . S
C778 C777 1.389 . S
C778 C779 1.387 . S
C779 H764 0.930 . S
C779 C774 1.390 . S
C779 C778 1.387 . S
H780 C792 0.930 . S
H781 C794 0.930 . S
H782 C795 0.930 . S
H783 C799 0.959 . S
H784 C799 0.959 . S
H785 C799 0.961 . S
H786 C800 0.960 . S
H787 C800 0.961 . S
H788 C800 0.959 . S
H789 C803 0.929 . S
H790 C804 0.931 . S
H791 C806 0.930 . S
C792 H780 0.930 . S
C792 C793 1.399 . S
C792 C797 1.399 . S
C793 C792 1.399 . S
C793 C794 1.376 . S
C794 H781 0.930 . S
C794 C793 1.376 . S
C794 C795 1.388 . S
C795 H782 0.930 . S
C795 C794 1.388 . S
C795 C796 1.390 . S
C796 C795 1.390 . S
C796 C797 1.394 . S
C796 C802 1.465 . S
C797 C792 1.399 . S
C797 C796 1.394 . S
C797 C798 1.516 . S
C798 C797 1.516 . S
C798 C799 1.502 . S
C798 C800 1.561 . S
C798 C801 1.526 . S
C799 H783 0.959 . S
C799 H784 0.959 . S
C799 H785 0.961 . S
C799 C798 1.502 . S
C800 H786 0.960 . S
C800 H787 0.961 . S
C800 H788 0.959 . S
C800 C798 1.561 . S
C801 C798 1.526 . S
C801 C802 1.396 . S
C801 C806 1.390 . S
C802 C796 1.465 . S
C802 C801 1.396 . S
C802 C803 1.399 . S
C803 H789 0.929 . S
C803 C802 1.399 . S
C803 C804 1.385 . S
C804 H790 0.931 . S
C804 C803 1.385 . S
C804 C805 1.389 . S
C805 C804 1.389 . S
C805 C806 1.387 . S
C806 H791 0.930 . S
C806 C801 1.390 . S
C806 C805 1.387 . S
H807 C819 0.930 . S
H808 C821 0.930 . S
H809 C822 0.930 . S
H810 C826 0.959 . S
H811 C826 0.959 . S
H812 C826 0.961 . S
H813 C827 0.960 . S
H814 C827 0.961 . S
H815 C827 0.959 . S
H816 C830 0.929 . S
H817 C831 0.931 . S
H818 C833 0.930 . S
C819 H807 0.930 . S
C819 C820 1.399 . S
C819 C824 1.399 . S
C820 C819 1.399 . S
C820 C821 1.376 . S
C821 H808 0.930 . S
C821 C820 1.376 . S
C821 C822 1.388 . S
C822 H809 0.930 . S
C822 C821 1.388 . S
C822 C823 1.390 . S
C823 C822 1.390 . S
C823 C824 1.394 . S
C823 C829 1.465 . S
C824 C819 1.399 . S
C824 C823 1.394 . S
C824 C825 1.516 . S
C825 C824 1.516 . S
C825 C826 1.502 . S
C825 C827 1.561 . S
C825 C828 1.526 . S
C826 H810 0.959 . S
C826 H811 0.959 . S
C826 H812 0.961 . S
C826 C825 1.502 . S
C827 H813 0.960 . S
C827 H814 0.961 . S
C827 H815 0.959 . S
C827 C825 1.561 . S
C828 C825 1.526 . S
C828 C829 1.396 . S
C828 C833 1.390 . S
C829 C823 1.465 . S
C829 C828 1.396 . S
C829 C830 1.399 . S
C830 H816 0.929 . S
C830 C829 1.399 . S
C830 C831 1.385 . S
C831 H817 0.931 . S
C831 C830 1.385 . S
C831 C832 1.389 . S
C832 C831 1.389 . S
C832 C833 1.387 . S
C833 H818 0.930 . S
C833 C828 1.390 . S
C833 C832 1.387 . S
H834 C846 0.930 . S
H835 C848 0.930 . S
H836 C849 0.930 . S
H837 C853 0.959 . S
H838 C853 0.959 . S
H839 C853 0.961 . S
H840 C854 0.960 . S
H841 C854 0.961 . S
H842 C854 0.959 . S
H843 C857 0.929 . S
H844 C858 0.931 . S
H845 C860 0.930 . S
C846 H834 0.930 . S
C846 C847 1.399 . S
C846 C851 1.399 . S
C847 C846 1.399 . S
C847 C848 1.376 . S
C848 H835 0.930 . S
C848 C847 1.376 . S
C848 C849 1.388 . S
C849 H836 0.930 . S
C849 C848 1.388 . S
C849 C850 1.390 . S
C850 C849 1.390 . S
C850 C851 1.394 . S
C850 C856 1.465 . S
C851 C846 1.399 . S
C851 C850 1.394 . S
C851 C852 1.516 . S
C852 C851 1.516 . S
C852 C853 1.502 . S
C852 C854 1.561 . S
C852 C855 1.526 . S
C853 H837 0.959 . S
C853 H838 0.959 . S
C853 H839 0.961 . S
C853 C852 1.502 . S
C854 H840 0.960 . S
C854 H841 0.961 . S
C854 H842 0.959 . S
C854 C852 1.561 . S
C855 C852 1.526 . S
C855 C856 1.396 . S
C855 C860 1.390 . S
C856 C850 1.465 . S
C856 C855 1.396 . S
C856 C857 1.399 . S
C857 H843 0.929 . S
C857 C856 1.399 . S
C857 C858 1.385 . S
C858 H844 0.931 . S
C858 C857 1.385 . S
C858 C859 1.389 . S
C859 C858 1.389 . S
C859 C860 1.387 . S
C860 H845 0.930 . S
C860 C855 1.390 . S
C860 C859 1.387 . S
H861 C873 0.930 . S
H862 C875 0.930 . S
H863 C876 0.930 . S
H864 C880 0.959 . S
H865 C880 0.959 . S
H866 C880 0.961 . S
H867 C881 0.960 . S
H868 C881 0.961 . S
H869 C881 0.959 . S
H870 C884 0.929 . S
H871 C885 0.931 . S
H872 C887 0.930 . S
C873 H861 0.930 . S
C873 C874 1.399 . S
C873 C878 1.399 . S
C874 C873 1.399 . S
C874 C875 1.376 . S
C875 H862 0.930 . S
C875 C874 1.376 . S
C875 C876 1.388 . S
C876 H863 0.930 . S
C876 C875 1.388 . S
C876 C877 1.390 . S
C877 C876 1.390 . S
C877 C878 1.394 . S
C877 C883 1.465 . S
C878 C873 1.399 . S
C878 C877 1.394 . S
C878 C879 1.516 . S
C879 C878 1.516 . S
C879 C880 1.502 . S
C879 C881 1.561 1_655 S
C879 C882 1.526 . S
C880 H864 0.959 . S
C880 H865 0.959 . S
C880 H866 0.961 . S
C880 C879 1.502 . S
C881 H867 0.960 . S
C881 H868 0.961 . S
C881 H869 0.959 . S
C881 C879 1.561 1_455 S
C882 C879 1.526 . S
C882 C883 1.396 . S
C882 C887 1.390 . S
C883 C877 1.465 . S
C883 C882 1.396 . S
C883 C884 1.399 . S
C884 H870 0.929 . S
C884 C883 1.399 . S
C884 C885 1.385 . S
C885 H871 0.931 . S
C885 C884 1.385 . S
C885 C886 1.389 . S
C886 C885 1.389 . S
C886 C887 1.387 . S
C887 H872 0.930 . S
C887 C882 1.390 . S
C887 C886 1.387 . S
H888 C900 0.945 . S
H889 C902 0.930 . S
H890 C903 0.930 . S
H891 C907 0.974 . S
H892 C907 0.959 . S
H893 C907 0.961 . S
H894 C908 0.960 . S
H895 C908 0.961 . S
H896 C908 0.959 . S
H897 C911 0.929 . S
H898 C912 0.931 . S
H899 C914 0.930 . S
C900 H888 0.945 . S
C900 C901 1.399 . S
C900 C905 1.399 . S
C901 C900 1.399 . S
C901 C902 1.376 . S
C902 H889 0.930 . S
C902 C901 1.376 . S
C902 C903 1.388 . S
C903 H890 0.930 . S
C903 C902 1.388 . S
C903 C904 1.390 . S
C904 C903 1.390 . S
C904 C905 1.394 . S
C904 C910 1.465 . S
C905 C900 1.399 . S
C905 C904 1.394 . S
C905 C906 1.516 . S
C906 C905 1.516 . S
C906 C907 1.502 1_565 S
C906 C908 1.561 1_565 S
C906 C909 1.526 . S
C907 H891 0.974 . S
C907 H892 0.959 . S
C907 H893 0.961 . S
C907 C906 1.502 1_545 S
C908 H894 0.960 . S
C908 H895 0.961 . S
C908 H896 0.959 . S
C908 C906 1.561 1_545 S
C909 C906 1.526 . S
C909 C910 1.396 . S
C909 C914 1.390 . S
C910 C904 1.465 . S
C910 C909 1.396 . S
C910 C911 1.399 . S
C911 H897 0.929 . S
C911 C910 1.399 . S
C911 C912 1.385 . S
C912 H898 0.931 . S
C912 C911 1.385 . S
C912 C913 1.389 . S
C913 C912 1.389 . S
C913 C914 1.387 . S
C914 H899 0.930 . S
C914 C909 1.390 . S
C914 C913 1.387 . S
H915 C927 0.930 . S
H916 C929 0.930 . S
H917 C930 0.930 . S
H918 C934 0.959 . S
H919 C934 0.959 . S
H920 C934 0.961 . S
H921 C935 0.960 . S
H922 C935 0.961 . S
H923 C935 0.959 . S
H924 C938 0.929 . S
H925 C939 0.931 . S
H926 C941 0.930 . S
C927 H915 0.930 . S
C927 C928 1.399 . S
C927 C932 1.399 . S
C928 C927 1.399 . S
C928 C929 1.376 . S
C929 H916 0.930 . S
C929 C928 1.376 . S
C929 C930 1.388 . S
C930 H917 0.930 . S
C930 C929 1.388 . S
C930 C931 1.390 . S
C931 C930 1.390 . S
C931 C932 1.394 . S
C931 C937 1.465 . S
C932 C927 1.399 . S
C932 C931 1.394 . S
C932 C933 1.516 . S
C933 C932 1.516 . S
C933 C934 1.502 . S
C933 C935 1.561 . S
C933 C936 1.526 . S
C934 H918 0.959 . S
C934 H919 0.959 . S
C934 H920 0.961 . S
C934 C933 1.502 . S
C935 H921 0.960 . S
C935 H922 0.961 . S
C935 H923 0.959 . S
C935 C933 1.561 . S
C936 C933 1.526 . S
C936 C937 1.396 . S
C936 C941 1.390 . S
C937 C931 1.465 . S
C937 C936 1.396 . S
C937 C938 1.399 . S
C938 H924 0.929 . S
C938 C937 1.399 . S
C938 C939 1.385 . S
C939 H925 0.931 . S
C939 C938 1.385 . S
C939 C940 1.389 . S
C940 C939 1.389 . S
C940 C941 1.387 . S
C941 H926 0.930 . S
C941 C936 1.390 . S
C941 C940 1.387 . S
H942 C954 0.920 1_655 S
H943 C956 0.930 . S
H944 C957 0.930 . S
H945 C961 0.959 . S
H946 C961 0.959 . S
H947 C961 0.961 . S
H948 C962 0.960 . S
H949 C962 0.961 . S
H950 C962 0.959 1_455 S
H951 C965 0.929 . S
H952 C966 0.931 . S
H953 C968 0.935 . S
C954 H942 0.920 1_455 S
C954 C955 1.399 . S
C954 C959 1.399 . S
C955 C954 1.399 . S
C955 C956 1.376 . S
C956 H943 0.930 . S
C956 C955 1.376 . S
C956 C957 1.388 . S
C957 H944 0.930 . S
C957 C956 1.388 . S
C957 C958 1.390 . S
C958 C957 1.390 . S
C958 C959 1.394 . S
C958 C964 1.465 . S
C959 C954 1.399 . S
C959 C958 1.394 . S
C959 C960 1.516 . S
C960 C959 1.516 . S
C960 C961 1.502 1_455 S
C960 C962 1.561 1_455 S
C960 C963 1.526 . S
C961 H945 0.959 . S
C961 H946 0.959 . S
C961 H947 0.961 . S
C961 C960 1.502 1_655 S
C962 H948 0.960 . S
C962 H949 0.961 . S
C962 H950 0.959 1_655 S
C962 C960 1.561 1_655 S
C963 C960 1.526 . S
C963 C964 1.396 . S
C963 C968 1.390 . S
C964 C958 1.465 . S
C964 C963 1.396 . S
C964 C965 1.399 . S
C965 H951 0.929 . S
C965 C964 1.399 . S
C965 C966 1.385 . S
C966 H952 0.931 . S
C966 C965 1.385 . S
C966 C967 1.389 . S
C967 C966 1.389 . S
C967 C968 1.387 . S
C968 H953 0.935 . S
C968 C963 1.390 . S
C968 C967 1.387 . S
H969 C981 0.930 . S
H970 C983 0.930 . S
H971 C984 0.930 . S
H972 C988 0.959 1_545 S
H973 C988 0.959 . S
H974 C988 0.961 . S
H975 C989 0.960 . S
H976 C989 0.961 . S
H977 C989 0.959 . S
H978 C992 0.929 . S
H979 C993 0.931 . S
H980 C995 0.930 . S
C981 H969 0.930 . S
C981 C982 1.399 . S
C981 C986 1.399 . S
C982 C981 1.399 . S
C982 C983 1.376 . S
C983 H970 0.930 . S
C983 C982 1.376 . S
C983 C984 1.388 . S
C984 H971 0.930 . S
C984 C983 1.388 . S
C984 C985 1.390 . S
C985 C984 1.390 . S
C985 C986 1.394 . S
C985 C991 1.465 . S
C986 C981 1.399 . S
C986 C985 1.394 . S
C986 C987 1.516 . S
C987 C986 1.516 . S
C987 C988 1.502 1_545 S
C987 C989 1.561 1_545 S
C987 C990 1.526 . S
C988 H972 0.959 1_565 S
C988 H973 0.959 . S
C988 H974 0.961 . S
C988 C987 1.502 1_565 S
C989 H975 0.960 . S
C989 H976 0.961 . S
C989 H977 0.959 . S
C989 C987 1.561 1_565 S
C990 C987 1.526 . S
C990 C991 1.396 . S
C990 C995 1.390 . S
C991 C985 1.465 . S
C991 C990 1.396 . S
C991 C992 1.399 . S
C992 H978 0.929 . S
C992 C991 1.399 . S
C992 C993 1.385 . S
C993 H979 0.931 . S
C993 C992 1.385 . S
C993 C994 1.389 . S
C994 C993 1.389 . S
C994 C995 1.387 . S
C995 H980 0.930 . S
C995 C990 1.390 . S
C995 C994 1.387 . S
H996 C1008 0.930 . S
H997 C1010 0.930 . S
H998 C1011 0.930 . S
H999 C1015 0.959 . S
H1000 C1015 0.959 . S
H1001 C1015 0.961 . S
H1002 C1016 0.960 . S
H1003 C1016 0.961 . S
H1004 C1016 0.959 . S
H1005 C1019 0.929 . S
H1006 C1020 0.931 . S
H1007 C1022 0.930 . S
C1008 H996 0.930 . S
C1008 C1009 1.399 . S
C1008 C1013 1.399 . S
C1009 C1008 1.399 . S
C1009 C1010 1.376 . S
C1010 H997 0.930 . S
C1010 C1009 1.376 . S
C1010 C1011 1.388 . S
C1011 H998 0.930 . S
C1011 C1010 1.388 . S
C1011 C1012 1.390 . S
C1012 C1011 1.390 . S
C1012 C1013 1.394 . S
C1012 C1018 1.465 . S
C1013 C1008 1.399 . S
C1013 C1012 1.394 . S
C1013 C1014 1.516 . S
C1014 C1013 1.516 . S
C1014 C1015 1.502 . S
C1014 C1016 1.561 . S
C1014 C1017 1.526 . S
C1015 H999 0.959 . S
C1015 H1000 0.959 . S
C1015 H1001 0.961 . S
C1015 C1014 1.502 . S
C1016 H1002 0.960 . S
C1016 H1003 0.961 . S
C1016 H1004 0.959 . S
C1016 C1014 1.561 . S
C1017 C1014 1.526 . S
C1017 C1018 1.396 . S
C1017 C1022 1.390 . S
C1018 C1012 1.465 . S
C1018 C1017 1.396 . S
C1018 C1019 1.399 . S
C1019 H1005 0.929 . S
C1019 C1018 1.399 . S
C1019 C1020 1.385 . S
C1020 H1006 0.931 . S
C1020 C1019 1.385 . S
C1020 C1021 1.389 . S
C1021 C1020 1.389 . S
C1021 C1022 1.387 . S
C1022 H1007 0.930 . S
C1022 C1017 1.390 . S
C1022 C1021 1.387 . S
H1023 C1035 0.930 . S
H1024 C1037 0.930 . S
H1025 C1038 0.930 . S
H1026 C1042 0.959 . S
H1027 C1042 0.959 . S
H1028 C1042 0.961 . S
H1029 C1043 0.960 . S
H1030 C1043 0.961 . S
H1031 C1043 0.959 . S
H1032 C1046 0.929 . S
H1033 C1047 0.931 . S
H1034 C1049 0.930 . S
C1035 H1023 0.930 . S
C1035 C1036 1.399 . S
C1035 C1040 1.399 . S
C1036 C1035 1.399 . S
C1036 C1037 1.376 . S
C1037 H1024 0.930 . S
C1037 C1036 1.376 . S
C1037 C1038 1.388 . S
C1038 H1025 0.930 . S
C1038 C1037 1.388 . S
C1038 C1039 1.390 . S
C1039 C1038 1.390 . S
C1039 C1040 1.394 . S
C1039 C1045 1.465 . S
C1040 C1035 1.399 . S
C1040 C1039 1.394 . S
C1040 C1041 1.516 . S
C1041 C1040 1.516 . S
C1041 C1042 1.502 . S
C1041 C1043 1.561 . S
C1041 C1044 1.526 . S
C1042 H1026 0.959 . S
C1042 H1027 0.959 . S
C1042 H1028 0.961 . S
C1042 C1041 1.502 . S
C1043 H1029 0.960 . S
C1043 H1030 0.961 . S
C1043 H1031 0.959 . S
C1043 C1041 1.561 . S
C1044 C1041 1.526 . S
C1044 C1045 1.396 . S
C1044 C1049 1.390 . S
C1045 C1039 1.465 . S
C1045 C1044 1.396 . S
C1045 C1046 1.399 . S
C1046 H1032 0.929 . S
C1046 C1045 1.399 . S
C1046 C1047 1.385 . S
C1047 H1033 0.931 . S
C1047 C1046 1.385 . S
C1047 C1048 1.389 . S
C1048 C1047 1.389 . S
C1048 C1049 1.387 . S
C1049 H1034 0.930 . S
C1049 C1044 1.390 . S
C1049 C1048 1.387 . S
H1050 C1062 0.930 . S
H1051 C1064 0.930 . S
H1052 C1065 0.930 . S
H1053 C1069 0.959 . S
H1054 C1069 0.959 . S
H1055 C1069 0.961 . S
H1056 C1070 0.960 . S
H1057 C1070 0.961 . S
H1058 C1070 0.959 . S
H1059 C1073 0.929 . S
H1060 C1074 0.931 . S
H1061 C1076 0.930 . S
C1062 H1050 0.930 . S
C1062 C1063 1.399 . S
C1062 C1067 1.399 . S
C1063 C1062 1.399 . S
C1063 C1064 1.376 . S
C1064 H1051 0.930 . S
C1064 C1063 1.376 . S
C1064 C1065 1.388 . S
C1065 H1052 0.930 . S
C1065 C1064 1.388 . S
C1065 C1066 1.390 . S
C1066 C1065 1.390 . S
C1066 C1067 1.394 . S
C1066 C1072 1.465 . S
C1067 C1062 1.399 . S
C1067 C1066 1.394 . S
C1067 C1068 1.516 . S
C1068 C1067 1.516 . S
C1068 C1069 1.502 . S
C1068 C1070 1.561 . S
C1068 C1071 1.526 . S
C1069 H1053 0.959 . S
C1069 H1054 0.959 . S
C1069 H1055 0.961 . S
C1069 C1068 1.502 . S
C1070 H1056 0.960 . S
C1070 H1057 0.961 . S
C1070 H1058 0.959 . S
C1070 C1068 1.561 . S
C1071 C1068 1.526 . S
C1071 C1072 1.396 . S
C1071 C1076 1.390 . S
C1072 C1066 1.465 . S
C1072 C1071 1.396 . S
C1072 C1073 1.399 . S
C1073 H1059 0.929 . S
C1073 C1072 1.399 . S
C1073 C1074 1.385 . S
C1074 H1060 0.931 . S
C1074 C1073 1.385 . S
C1074 C1075 1.389 . S
C1075 C1074 1.389 . S
C1075 C1076 1.387 . S
C1076 H1061 0.930 . S
C1076 C1071 1.390 . S
C1076 C1075 1.387 . S
H1077 C1089 0.930 . S
H1078 C1091 0.930 . S
H1079 C1092 0.930 . S
H1080 C1096 0.959 . S
H1081 C1096 0.959 . S
H1082 C1096 0.961 . S
H1083 C1097 0.960 . S
H1084 C1097 0.961 . S
H1085 C1097 0.959 . S
H1086 C1100 0.929 . S
H1087 C1101 0.931 . S
H1088 C1103 0.930 . S
C1089 H1077 0.930 . S
C1089 C1090 1.399 . S
C1089 C1094 1.399 . S
C1090 C1089 1.399 . S
C1090 C1091 1.376 . S
C1091 H1078 0.930 . S
C1091 C1090 1.376 . S
C1091 C1092 1.388 . S
C1092 H1079 0.930 . S
C1092 C1091 1.388 . S
C1092 C1093 1.390 . S
C1093 C1092 1.390 . S
C1093 C1094 1.394 . S
C1093 C1099 1.465 . S
C1094 C1089 1.399 . S
C1094 C1093 1.394 . S
C1094 C1095 1.516 . S
C1095 C1094 1.516 . S
C1095 C1096 1.502 . S
C1095 C1097 1.561 . S
C1095 C1098 1.526 . S
C1096 H1080 0.959 . S
C1096 H1081 0.959 . S
C1096 H1082 0.961 . S
C1096 C1095 1.502 . S
C1097 H1083 0.960 . S
C1097 H1084 0.961 . S
C1097 H1085 0.959 . S
C1097 C1095 1.561 . S
C1098 C1095 1.526 . S
C1098 C1099 1.396 . S
C1098 C1103 1.390 . S
C1099 C1093 1.465 . S
C1099 C1098 1.396 . S
C1099 C1100 1.399 . S
C1100 H1086 0.929 . S
C1100 C1099 1.399 . S
C1100 C1101 1.385 . S
C1101 H1087 0.931 . S
C1101 C1100 1.385 . S
C1101 C1102 1.389 . S
C1102 C1101 1.389 . S
C1102 C1103 1.387 . S
C1103 H1088 0.930 . S
C1103 C1098 1.390 . S
C1103 C1102 1.387 . S
H1104 C1116 0.930 . S
H1105 C1118 0.930 . S
H1106 C1119 0.930 . S
H1107 C1123 0.959 . S
H1108 C1123 0.959 . S
H1109 C1123 0.961 . S
H1110 C1124 0.960 . S
H1111 C1124 0.961 . S
H1112 C1124 0.959 . S
H1113 C1127 0.929 . S
H1114 C1128 0.931 . S
H1115 C1130 0.930 . S
C1116 H1104 0.930 . S
C1116 C1117 1.399 . S
C1116 C1121 1.399 . S
C1117 C1116 1.399 . S
C1117 C1118 1.376 . S
C1118 H1105 0.930 . S
C1118 C1117 1.376 . S
C1118 C1119 1.388 . S
C1119 H1106 0.930 . S
C1119 C1118 1.388 . S
C1119 C1120 1.390 . S
C1120 C1119 1.390 . S
C1120 C1121 1.394 . S
C1120 C1126 1.465 . S
C1121 C1116 1.399 . S
C1121 C1120 1.394 . S
C1121 C1122 1.516 . S
C1122 C1121 1.516 . S
C1122 C1123 1.502 . S
C1122 C1124 1.561 . S
C1122 C1125 1.526 . S
C1123 H1107 0.959 . S
C1123 H1108 0.959 . S
C1123 H1109 0.961 . S
C1123 C1122 1.502 . S
C1124 H1110 0.960 . S
C1124 H1111 0.961 . S
C1124 H1112 0.959 . S
C1124 C1122 1.561 . S
C1125 C1122 1.526 . S
C1125 C1126 1.396 . S
C1125 C1130 1.390 . S
C1126 C1120 1.465 . S
C1126 C1125 1.396 . S
C1126 C1127 1.399 . S
C1127 H1113 0.929 . S
C1127 C1126 1.399 . S
C1127 C1128 1.385 . S
C1128 H1114 0.931 . S
C1128 C1127 1.385 . S
C1128 C1129 1.389 . S
C1129 C1128 1.389 . S
C1129 C1130 1.387 . S
C1130 H1115 0.930 . S
C1130 C1125 1.390 . S
C1130 C1129 1.387 . S
H1131 C1143 0.930 . S
H1132 C1145 0.930 . S
H1133 C1146 0.930 . S
H1134 C1150 0.959 . S
H1135 C1150 0.959 . S
H1136 C1150 0.961 . S
H1137 C1151 0.960 . S
H1138 C1151 0.961 . S
H1139 C1151 0.959 . S
H1140 C1154 0.929 . S
H1141 C1155 0.931 . S
H1142 C1157 0.930 . S
C1143 H1131 0.930 . S
C1143 C1144 1.399 . S
C1143 C1148 1.399 . S
C1144 C1143 1.399 . S
C1144 C1145 1.376 . S
C1145 H1132 0.930 . S
C1145 C1144 1.376 . S
C1145 C1146 1.388 . S
C1146 H1133 0.930 . S
C1146 C1145 1.388 . S
C1146 C1147 1.390 . S
C1147 C1146 1.390 . S
C1147 C1148 1.394 . S
C1147 C1153 1.465 . S
C1148 C1143 1.399 . S
C1148 C1147 1.394 . S
C1148 C1149 1.516 . S
C1149 C1148 1.516 . S
C1149 C1150 1.502 . S
C1149 C1151 1.561 . S
C1149 C1152 1.526 . S
C1150 H1134 0.959 . S
C1150 H1135 0.959 . S
C1150 H1136 0.961 . S
C1150 C1149 1.502 . S
C1151 H1137 0.960 . S
C1151 H1138 0.961 . S
C1151 H1139 0.959 . S
C1151 C1149 1.561 . S
C1152 C1149 1.526 . S
C1152 C1153 1.396 . S
C1152 C1157 1.390 . S
C1153 C1147 1.465 . S
C1153 C1152 1.396 . S
C1153 C1154 1.399 . S
C1154 H1140 0.929 . S
C1154 C1153 1.399 . S
C1154 C1155 1.385 . S
C1155 H1141 0.931 . S
C1155 C1154 1.385 . S
C1155 C1156 1.389 . S
C1156 C1155 1.389 . S
C1156 C1157 1.387 . S
C1157 H1142 0.930 . S
C1157 C1152 1.390 . S
C1157 C1156 1.387 . S
H1158 C1170 0.930 . S
H1159 C1172 0.952 . S
H1160 C1173 0.930 . S
H1161 C1177 0.959 . S
H1162 C1177 0.959 . S
H1163 C1177 0.961 . S
H1164 C1178 0.960 . S
H1165 C1178 0.961 . S
H1166 C1178 0.908 1_554 S
H1167 C1181 0.929 . S
H1168 C1182 0.931 . S
H1169 C1184 0.940 . S
C1170 H1158 0.930 . S
C1170 C1171 1.399 . S
C1170 C1175 1.399 . S
C1171 C1170 1.399 . S
C1171 C1172 1.332 1_556 S
C1172 H1159 0.952 . S
C1172 C1171 1.332 1_554 S
C1172 C1173 1.415 . S
C1173 H1160 0.930 . S
C1173 C1172 1.415 . S
C1173 C1174 1.390 . S
C1174 C1173 1.390 . S
C1174 C1175 1.394 1_554 S
C1174 C1180 1.465 . S
C1175 C1170 1.399 . S
C1175 C1174 1.394 1_556 S
C1175 C1176 1.516 . S
C1176 C1175 1.516 . S
C1176 C1177 1.502 . S
C1176 C1178 1.561 . S
C1176 C1179 1.526 . S
C1177 H1161 0.959 . S
C1177 H1162 0.959 . S
C1177 H1163 0.961 . S
C1177 C1176 1.502 . S
C1178 H1164 0.960 . S
C1178 H1165 0.961 . S
C1178 H1166 0.908 1_556 S
C1178 C1176 1.561 . S
C1179 C1176 1.526 . S
C1179 C1180 1.396 1_556 S
C1179 C1184 1.392 . S
C1180 C1174 1.465 . S
C1180 C1179 1.396 1_554 S
C1180 C1181 1.399 . S
C1181 H1167 0.929 . S
C1181 C1180 1.399 . S
C1181 C1182 1.385 . S
C1182 H1168 0.931 . S
C1182 C1181 1.385 . S
C1182 C1183 1.389 . S
C1183 C1182 1.389 . S
C1183 C1184 1.374 1_554 S
C1184 H1169 0.940 . S
C1184 C1179 1.392 . S
C1184 C1183 1.374 1_556 S
H1185 C1197 0.930 . S
H1186 C1199 0.930 . S
H1187 C1200 0.930 . S
H1188 C1204 0.959 . S
H1189 C1204 0.959 . S
H1190 C1204 0.961 . S
H1191 C1205 0.960 . S
H1192 C1205 0.961 . S
H1193 C1205 0.959 . S
H1194 C1208 0.929 . S
H1195 C1209 0.931 . S
H1196 C1211 0.930 . S
C1197 H1185 0.930 . S
C1197 C1198 1.399 . S
C1197 C1202 1.399 . S
C1198 C1197 1.399 . S
C1198 C1199 1.376 . S
C1199 H1186 0.930 . S
C1199 C1198 1.376 . S
C1199 C1200 1.388 . S
C1200 H1187 0.930 . S
C1200 C1199 1.388 . S
C1200 C1201 1.390 . S
C1201 C1200 1.390 . S
C1201 C1202 1.394 . S
C1201 C1207 1.465 . S
C1202 C1197 1.399 . S
C1202 C1201 1.394 . S
C1202 C1203 1.516 . S
C1203 C1202 1.516 . S
C1203 C1204 1.502 . S
C1203 C1205 1.561 . S
C1203 C1206 1.526 . S
C1204 H1188 0.959 . S
C1204 H1189 0.959 . S
C1204 H1190 0.961 . S
C1204 C1203 1.502 . S
C1205 H1191 0.960 . S
C1205 H1192 0.961 . S
C1205 H1193 0.959 . S
C1205 C1203 1.561 . S
C1206 C1203 1.526 . S
C1206 C1207 1.396 . S
C1206 C1211 1.390 . S
C1207 C1201 1.465 . S
C1207 C1206 1.396 . S
C1207 C1208 1.399 . S
C1208 H1194 0.929 . S
C1208 C1207 1.399 . S
C1208 C1209 1.385 . S
C1209 H1195 0.931 . S
C1209 C1208 1.385 . S
C1209 C1210 1.389 . S
C1210 C1209 1.389 . S
C1210 C1211 1.387 . S
C1211 H1196 0.930 . S
C1211 C1206 1.390 . S
C1211 C1210 1.387 . S
H1212 C1224 0.930 . S
H1213 C1226 0.930 . S
H1214 C1227 0.930 . S
H1215 C1231 0.959 . S
H1216 C1231 0.959 . S
H1217 C1231 0.961 . S
H1218 C1232 0.960 . S
H1219 C1232 0.961 . S
H1220 C1232 0.959 . S
H1221 C1235 0.929 . S
H1222 C1236 0.931 . S
H1223 C1238 0.930 . S
C1224 H1212 0.930 . S
C1224 C1225 1.399 . S
C1224 C1229 1.399 . S
C1225 C1224 1.399 . S
C1225 C1226 1.376 . S
C1226 H1213 0.930 . S
C1226 C1225 1.376 . S
C1226 C1227 1.388 . S
C1227 H1214 0.930 . S
C1227 C1226 1.388 . S
C1227 C1228 1.390 . S
C1228 C1227 1.390 . S
C1228 C1229 1.394 . S
C1228 C1234 1.465 . S
C1229 C1224 1.399 . S
C1229 C1228 1.394 . S
C1229 C1230 1.516 . S
C1230 C1229 1.516 . S
C1230 C1231 1.502 . S
C1230 C1232 1.561 . S
C1230 C1233 1.526 . S
C1231 H1215 0.959 . S
C1231 H1216 0.959 . S
C1231 H1217 0.961 . S
C1231 C1230 1.502 . S
C1232 H1218 0.960 . S
C1232 H1219 0.961 . S
C1232 H1220 0.959 . S
C1232 C1230 1.561 . S
C1233 C1230 1.526 . S
C1233 C1234 1.396 . S
C1233 C1238 1.390 . S
C1234 C1228 1.465 . S
C1234 C1233 1.396 . S
C1234 C1235 1.399 . S
C1235 H1221 0.929 . S
C1235 C1234 1.399 . S
C1235 C1236 1.385 . S
C1236 H1222 0.931 . S
C1236 C1235 1.385 . S
C1236 C1237 1.389 . S
C1237 C1236 1.389 . S
C1237 C1238 1.387 . S
C1238 H1223 0.930 . S
C1238 C1233 1.390 . S
C1238 C1237 1.387 . S
H1239 C1251 0.930 . S
H1240 C1253 0.930 . S
H1241 C1254 0.930 . S
H1242 C1258 0.959 . S
H1243 C1258 0.959 . S
H1244 C1258 0.961 . S
H1245 C1259 0.960 . S
H1246 C1259 0.961 . S
H1247 C1259 0.959 . S
H1248 C1262 0.929 . S
H1249 C1263 0.931 . S
H1250 C1265 0.930 . S
C1251 H1239 0.930 . S
C1251 C1252 1.399 . S
C1251 C1256 1.399 . S
C1252 C1251 1.399 . S
C1252 C1253 1.376 . S
C1253 H1240 0.930 . S
C1253 C1252 1.376 . S
C1253 C1254 1.388 . S
C1254 H1241 0.930 . S
C1254 C1253 1.388 . S
C1254 C1255 1.390 . S
C1255 C1254 1.390 . S
C1255 C1256 1.394 . S
C1255 C1261 1.465 . S
C1256 C1251 1.399 . S
C1256 C1255 1.394 . S
C1256 C1257 1.516 . S
C1257 C1256 1.516 . S
C1257 C1258 1.502 . S
C1257 C1259 1.561 . S
C1257 C1260 1.526 . S
C1258 H1242 0.959 . S
C1258 H1243 0.959 . S
C1258 H1244 0.961 . S
C1258 C1257 1.502 . S
C1259 H1245 0.960 . S
C1259 H1246 0.961 . S
C1259 H1247 0.959 . S
C1259 C1257 1.561 . S
C1260 C1257 1.526 . S
C1260 C1261 1.396 . S
C1260 C1265 1.390 . S
C1261 C1255 1.465 . S
C1261 C1260 1.396 . S
C1261 C1262 1.399 . S
C1262 H1248 0.929 . S
C1262 C1261 1.399 . S
C1262 C1263 1.385 . S
C1263 H1249 0.931 . S
C1263 C1262 1.385 . S
C1263 C1264 1.389 . S
C1264 C1263 1.389 . S
C1264 C1265 1.387 . S
C1265 H1250 0.930 . S
C1265 C1260 1.390 . S
C1265 C1264 1.387 . S
H1266 C1278 0.930 . S
H1267 C1280 0.930 . S
H1268 C1281 0.930 . S
H1269 C1285 0.959 . S
H1270 C1285 0.959 . S
H1271 C1285 0.961 . S
H1272 C1286 0.960 . S
H1273 C1286 0.961 . S
H1274 C1286 0.959 . S
H1275 C1289 0.929 . S
H1276 C1290 0.931 1_455 S
H1277 C1292 0.930 . S
C1278 H1266 0.930 . S
C1278 C1279 1.399 . S
C1278 C1283 1.399 . S
C1279 C1278 1.399 . S
C1279 C1280 1.376 . S
C1280 H1267 0.930 . S
C1280 C1279 1.376 . S
C1280 C1281 1.388 . S
C1281 H1268 0.930 . S
C1281 C1280 1.388 . S
C1281 C1282 1.390 . S
C1282 C1281 1.390 . S
C1282 C1283 1.394 . S
C1282 C1288 1.465 . S
C1283 C1278 1.399 . S
C1283 C1282 1.394 . S
C1283 C1284 1.516 . S
C1284 C1283 1.516 . S
C1284 C1285 1.502 . S
C1284 C1286 1.561 . S
C1284 C1287 1.526 . S
C1285 H1269 0.959 . S
C1285 H1270 0.959 . S
C1285 H1271 0.961 . S
C1285 C1284 1.502 . S
C1286 H1272 0.960 . S
C1286 H1273 0.961 . S
C1286 H1274 0.959 . S
C1286 C1284 1.561 . S
C1287 C1284 1.526 . S
C1287 C1288 1.396 . S
C1287 C1292 1.390 . S
C1288 C1282 1.465 . S
C1288 C1287 1.396 . S
C1288 C1289 1.399 . S
C1289 H1275 0.929 . S
C1289 C1288 1.399 . S
C1289 C1290 1.385 . S
C1290 H1276 0.931 1_655 S
C1290 C1289 1.385 . S
C1290 C1291 1.389 . S
C1291 C1290 1.389 . S
C1291 C1292 1.387 . S
C1292 H1277 0.930 . S
C1292 C1287 1.390 . S
C1292 C1291 1.387 . S
H1293 C1305 0.930 . S
H1294 C1307 0.930 . S
H1295 C1308 0.930 . S
H1296 C1312 0.959 . S
H1297 C1312 0.959 . S
H1298 C1312 0.961 . S
H1299 C1313 0.960 . S
H1300 C1313 0.961 . S
H1301 C1313 0.959 . S
H1302 C1316 0.929 . S
H1303 C1317 0.931 . S
H1304 C1319 0.930 . S
C1305 H1293 0.930 . S
C1305 C1306 1.399 . S
C1305 C1310 1.399 . S
C1306 C1305 1.399 . S
C1306 C1307 1.376 . S
C1307 H1294 0.930 . S
C1307 C1306 1.376 . S
C1307 C1308 1.388 . S
C1308 H1295 0.930 . S
C1308 C1307 1.388 . S
C1308 C1309 1.390 . S
C1309 C1308 1.390 . S
C1309 C1310 1.394 . S
C1309 C1315 1.465 . S
C1310 C1305 1.399 . S
C1310 C1309 1.394 . S
C1310 C1311 1.516 . S
C1311 C1310 1.516 . S
C1311 C1312 1.502 . S
C1311 C1313 1.561 . S
C1311 C1314 1.526 . S
C1312 H1296 0.959 . S
C1312 H1297 0.959 . S
C1312 H1298 0.961 . S
C1312 C1311 1.502 . S
C1313 H1299 0.960 . S
C1313 H1300 0.961 . S
C1313 H1301 0.959 . S
C1313 C1311 1.561 . S
C1314 C1311 1.526 . S
C1314 C1315 1.396 . S
C1314 C1319 1.390 . S
C1315 C1309 1.465 . S
C1315 C1314 1.396 . S
C1315 C1316 1.399 . S
C1316 H1302 0.929 . S
C1316 C1315 1.399 . S
C1316 C1317 1.385 . S
C1317 H1303 0.931 . S
C1317 C1316 1.385 . S
C1317 C1318 1.389 . S
C1318 C1317 1.389 . S
C1318 C1319 1.387 . S
C1319 H1304 0.930 . S
C1319 C1314 1.390 . S
C1319 C1318 1.387 . S
H1320 C1332 0.930 . S
H1321 C1334 0.930 . S
H1322 C1335 0.930 . S
H1323 C1339 0.959 . S
H1324 C1339 0.959 . S
H1325 C1339 0.961 . S
H1326 C1340 0.960 . S
H1327 C1340 0.961 . S
H1328 C1340 0.959 . S
H1329 C1343 0.929 . S
H1330 C1344 0.931 . S
H1331 C1346 0.930 . S
C1332 H1320 0.930 . S
C1332 C1333 1.399 . S
C1332 C1337 1.399 . S
C1333 C1332 1.399 . S
C1333 C1334 1.376 . S
C1334 H1321 0.930 . S
C1334 C1333 1.376 . S
C1334 C1335 1.388 . S
C1335 H1322 0.930 . S
C1335 C1334 1.388 . S
C1335 C1336 1.390 . S
C1336 C1335 1.390 . S
C1336 C1337 1.394 . S
C1336 C1342 1.465 . S
C1337 C1332 1.399 . S
C1337 C1336 1.394 . S
C1337 C1338 1.516 . S
C1338 C1337 1.516 . S
C1338 C1339 1.502 . S
C1338 C1340 1.561 . S
C1338 C1341 1.526 . S
C1339 H1323 0.959 . S
C1339 H1324 0.959 . S
C1339 H1325 0.961 . S
C1339 C1338 1.502 . S
C1340 H1326 0.960 . S
C1340 H1327 0.961 . S
C1340 H1328 0.959 . S
C1340 C1338 1.561 . S
C1341 C1338 1.526 . S
C1341 C1342 1.396 . S
C1341 C1346 1.390 . S
C1342 C1336 1.465 . S
C1342 C1341 1.396 . S
C1342 C1343 1.399 . S
C1343 H1329 0.929 . S
C1343 C1342 1.399 . S
C1343 C1344 1.385 . S
C1344 H1330 0.931 . S
C1344 C1343 1.385 . S
C1344 C1345 1.389 . S
C1345 C1344 1.389 . S
C1345 C1346 1.387 . S
C1346 H1331 0.930 . S
C1346 C1341 1.390 . S
C1346 C1345 1.387 . S
H1347 C1359 0.930 . S
H1348 C1361 0.930 1_655 S
H1349 C1362 0.930 . S
H1350 C1366 0.959 . S
H1351 C1366 0.959 . S
H1352 C1366 0.961 . S
H1353 C1367 0.960 . S
H1354 C1367 0.961 . S
H1355 C1367 0.959 1_554 S
H1356 C1370 0.929 . S
H1357 C1371 0.931 . S
H1358 C1373 0.930 1_556 S
C1359 H1347 0.930 . S
C1359 C1360 1.399 . S
C1359 C1364 1.399 . S
C1360 C1359 1.399 . S
C1360 C1361 1.376 1_556 S
C1361 H1348 0.930 1_455 S
C1361 C1360 1.376 1_554 S
C1361 C1362 1.388 . S
C1362 H1349 0.930 . S
C1362 C1361 1.388 . S
C1362 C1363 1.390 . S
C1363 C1362 1.390 . S
C1363 C1364 1.394 1_554 S
C1363 C1369 1.465 . S
C1364 C1359 1.399 . S
C1364 C1363 1.394 1_556 S
C1364 C1365 1.516 . S
C1365 C1364 1.516 . S
C1365 C1366 1.502 . S
C1365 C1367 1.561 . S
C1365 C1368 1.535 . S
C1366 H1350 0.959 . S
C1366 H1351 0.959 . S
C1366 H1352 0.961 . S
C1366 C1365 1.502 . S
C1367 H1353 0.960 . S
C1367 H1354 0.961 . S
C1367 H1355 0.959 1_556 S
C1367 C1365 1.561 . S
C1368 C1365 1.535 . S
C1368 C1369 1.387 1_556 S
C1368 C1373 1.388 1_556 S
C1369 C1363 1.465 . S
C1369 C1368 1.387 1_554 S
C1369 C1370 1.399 . S
C1370 H1356 0.929 . S
C1370 C1369 1.399 . S
C1370 C1371 1.385 . S
C1371 H1357 0.931 . S
C1371 C1370 1.385 . S
C1371 C1372 1.389 . S
C1372 C1371 1.389 . S
C1372 C1373 1.387 . S
C1373 H1358 0.930 1_554 S
C1373 C1368 1.388 1_554 S
C1373 C1372 1.387 . S
H1374 C1386 0.930 . S
H1375 C1388 0.930 . S
H1376 C1389 0.930 . S
H1377 C1393 0.959 . S
H1378 C1393 0.959 . S
H1379 C1393 0.961 . S
H1380 C1394 0.960 . S
H1381 C1394 0.961 . S
H1382 C1394 0.959 . S
H1383 C1397 0.929 . S
H1384 C1398 0.931 1_565 S
H1385 C1400 0.930 . S
C1386 H1374 0.930 . S
C1386 C1387 1.399 . S
C1386 C1391 1.399 . S
C1387 C1386 1.399 . S
C1387 C1388 1.376 . S
C1388 H1375 0.930 . S
C1388 C1387 1.376 . S
C1388 C1389 1.388 . S
C1389 H1376 0.930 . S
C1389 C1388 1.388 . S
C1389 C1390 1.390 . S
C1390 C1389 1.390 . S
C1390 C1391 1.394 . S
C1390 C1396 1.465 . S
C1391 C1386 1.399 . S
C1391 C1390 1.394 . S
C1391 C1392 1.516 . S
C1392 C1391 1.516 . S
C1392 C1393 1.502 . S
C1392 C1394 1.561 . S
C1392 C1395 1.526 . S
C1393 H1377 0.959 . S
C1393 H1378 0.959 . S
C1393 H1379 0.961 . S
C1393 C1392 1.502 . S
C1394 H1380 0.960 . S
C1394 H1381 0.961 . S
C1394 H1382 0.959 . S
C1394 C1392 1.561 . S
C1395 C1392 1.526 . S
C1395 C1396 1.396 . S
C1395 C1400 1.390 . S
C1396 C1390 1.465 . S
C1396 C1395 1.396 . S
C1396 C1397 1.399 . S
C1397 H1383 0.929 . S
C1397 C1396 1.399 . S
C1397 C1398 1.385 . S
C1398 H1384 0.931 1_545 S
C1398 C1397 1.385 . S
C1398 C1399 1.389 . S
C1399 C1398 1.389 . S
C1399 C1400 1.387 . S
C1400 H1385 0.930 . S
C1400 C1395 1.390 . S
C1400 C1399 1.387 . S
H1401 C1413 0.930 . S
H1402 C1415 0.930 . S
H1403 C1416 0.930 . S
H1404 C1420 0.959 . S
H1405 C1420 0.959 . S
H1406 C1420 0.961 . S
H1407 C1421 0.960 . S
H1408 C1421 0.961 . S
H1409 C1421 0.959 . S
H1410 C1424 0.929 . S
H1411 C1425 0.931 . S
H1412 C1427 0.930 . S
C1413 H1401 0.930 . S
C1413 C1414 1.399 . S
C1413 C1418 1.399 . S
C1414 C1413 1.399 . S
C1414 C1415 1.376 . S
C1415 H1402 0.930 . S
C1415 C1414 1.376 . S
C1415 C1416 1.388 . S
C1416 H1403 0.930 . S
C1416 C1415 1.388 . S
C1416 C1417 1.390 . S
C1417 C1416 1.390 . S
C1417 C1418 1.394 . S
C1417 C1423 1.465 . S
C1418 C1413 1.399 . S
C1418 C1417 1.394 . S
C1418 C1419 1.516 . S
C1419 C1418 1.516 . S
C1419 C1420 1.502 . S
C1419 C1421 1.561 . S
C1419 C1422 1.526 . S
C1420 H1404 0.959 . S
C1420 H1405 0.959 . S
C1420 H1406 0.961 . S
C1420 C1419 1.502 . S
C1421 H1407 0.960 . S
C1421 H1408 0.961 . S
C1421 H1409 0.959 . S
C1421 C1419 1.561 . S
C1422 C1419 1.526 . S
C1422 C1423 1.396 . S
C1422 C1427 1.390 . S
C1423 C1417 1.465 . S
C1423 C1422 1.396 . S
C1423 C1424 1.399 . S
C1424 H1410 0.929 . S
C1424 C1423 1.399 . S
C1424 C1425 1.385 . S
C1425 H1411 0.931 . S
C1425 C1424 1.385 . S
C1425 C1426 1.389 . S
C1426 C1425 1.389 . S
C1426 C1427 1.387 . S
C1427 H1412 0.930 . S
C1427 C1422 1.390 . S
C1427 C1426 1.387 . S
H1428 C1440 0.930 . S
H1429 C1442 0.930 . S
H1430 C1443 0.930 . S
H1431 C1447 0.959 . S
H1432 C1447 0.959 . S
H1433 C1447 0.961 . S
H1434 C1448 0.960 . S
H1435 C1448 0.961 . S
H1436 C1448 0.959 . S
H1437 C1451 0.929 . S
H1438 C1452 0.931 . S
H1439 C1454 0.930 . S
C1440 H1428 0.930 . S
C1440 C1441 1.399 . S
C1440 C1445 1.399 . S
C1441 C1440 1.399 . S
C1441 C1442 1.376 . S
C1442 H1429 0.930 . S
C1442 C1441 1.376 . S
C1442 C1443 1.388 . S
C1443 H1430 0.930 . S
C1443 C1442 1.388 . S
C1443 C1444 1.390 . S
C1444 C1443 1.390 . S
C1444 C1445 1.394 . S
C1444 C1450 1.465 . S
C1445 C1440 1.399 . S
C1445 C1444 1.394 . S
C1445 C1446 1.516 . S
C1446 C1445 1.516 . S
C1446 C1447 1.502 . S
C1446 C1448 1.561 . S
C1446 C1449 1.526 . S
C1447 H1431 0.959 . S
C1447 H1432 0.959 . S
C1447 H1433 0.961 . S
C1447 C1446 1.502 . S
C1448 H1434 0.960 . S
C1448 H1435 0.961 . S
C1448 H1436 0.959 . S
C1448 C1446 1.561 . S
C1449 C1446 1.526 . S
C1449 C1450 1.396 . S
C1449 C1454 1.390 . S
C1450 C1444 1.465 . S
C1450 C1449 1.396 . S
C1450 C1451 1.399 . S
C1451 H1437 0.929 . S
C1451 C1450 1.399 . S
C1451 C1452 1.385 . S
C1452 H1438 0.931 . S
C1452 C1451 1.385 . S
C1452 C1453 1.389 . S
C1453 C1452 1.389 . S
C1453 C1454 1.387 . S
C1454 H1439 0.930 . S
C1454 C1449 1.390 . S
C1454 C1453 1.387 . S
H1455 C1467 0.930 . S
H1456 C1469 0.930 . S
H1457 C1470 0.930 . S
H1458 C1474 0.959 . S
H1459 C1474 0.959 . S
H1460 C1474 0.961 . S
H1461 C1475 0.960 . S
H1462 C1475 0.961 . S
H1463 C1475 0.959 . S
H1464 C1478 0.929 . S
H1465 C1479 0.931 1_545 S
H1466 C1481 0.930 . S
C1467 H1455 0.930 . S
C1467 C1468 1.399 . S
C1467 C1472 1.399 . S
C1468 C1467 1.399 . S
C1468 C1469 1.376 . S
C1469 H1456 0.930 . S
C1469 C1468 1.376 . S
C1469 C1470 1.388 . S
C1470 H1457 0.930 . S
C1470 C1469 1.388 . S
C1470 C1471 1.390 . S
C1471 C1470 1.390 . S
C1471 C1472 1.394 . S
C1471 C1477 1.465 . S
C1472 C1467 1.399 . S
C1472 C1471 1.394 . S
C1472 C1473 1.516 . S
C1473 C1472 1.516 . S
C1473 C1474 1.502 . S
C1473 C1475 1.561 . S
C1473 C1476 1.526 . S
C1474 H1458 0.959 . S
C1474 H1459 0.959 . S
C1474 H1460 0.961 . S
C1474 C1473 1.502 . S
C1475 H1461 0.960 . S
C1475 H1462 0.961 . S
C1475 H1463 0.959 . S
C1475 C1473 1.561 . S
C1476 C1473 1.526 . S
C1476 C1477 1.396 . S
C1476 C1481 1.390 . S
C1477 C1471 1.465 . S
C1477 C1476 1.396 . S
C1477 C1478 1.399 . S
C1478 H1464 0.929 . S
C1478 C1477 1.399 . S
C1478 C1479 1.385 . S
C1479 H1465 0.931 1_565 S
C1479 C1478 1.385 . S
C1479 C1480 1.389 . S
C1480 C1479 1.389 . S
C1480 C1481 1.387 . S
C1481 H1466 0.930 . S
C1481 C1476 1.390 . S
C1481 C1480 1.387 . S
C361 C21 1.407 . S
C373 C253 1.521 . S
C388 C50 1.504 . S
C400 C282 1.412 . S
C415 C311 1.442 . S
C427 C79 1.501 . S
C442 C108 1.520 . S
C454 C340 1.405 . S
C469 C137 1.422 . S
C481 C195 1.489 . S
C496 C166 1.516 . S
C508 C224 1.422 . S
C523 C148 0.502 . S
C535 C15 0.590 . S
C550 C44 0.403 . S
C562 C3 0.465 . S
C577 C73 0.602 . S
C589 C32 0.476 . S
C604 C61 0.423 . S
C616 C102 0.456 . S
C631 C90 0.506 . S
C643 C131 0.496 . S
C658 C119 0.508 . S
C670 C160 0.539 . S
C685 C189 0.541 . S
C697 C206 0.506 . S
C712 C235 0.427 . S
C724 C218 0.421 1_554 S
C739 C264 0.435 . S
C751 C247 0.567 . S
C766 C293 0.432 . S
C778 C276 0.559 . S
C793 C322 0.508 . S
C805 C305 0.522 . S
C820 C334 0.585 . S
C832 C177 0.496 . S
C847 C8 0.661 . S
C859 C182 0.664 . S
C874 C37 0.524 . S
C886 C211 0.542 . S
C901 C240 0.445 . S
C913 C66 0.457 . S
C928 C269 0.594 . S
C940 C95 0.608 . S
C955 C124 0.436 . S
C967 C298 0.444 . S
C982 C153 0.465 . S
C994 C327 0.481 . S
C1009 C245 1.680 . S
C1021 C13 1.644 . S
C1036 C274 1.610 . S
C1048 C42 1.630 . S
C1063 C303 1.657 . S
C1075 C71 1.685 . S
C1090 C100 1.682 . S
C1102 C332 1.676 . S
C1117 C187 1.684 . S
C1129 C129 1.670 . S
C1144 C216 1.676 . S
C1156 C158 1.682 . S
C1171 C208 3.124 . S
C1183 C10 3.262 . S
C1198 C237 3.117 . S
C1210 C39 3.266 1_455 S
C1225 C266 3.117 . S
C1237 C68 3.266 1_545 S
C1252 C295 3.158 . S
C1264 C97 3.259 . S
C1279 C324 3.160 . S
C1291 C126 3.260 1_655 S
C1306 C179 3.150 . S
C1318 C155 3.265 1_565 S
C1333 C184 3.267 . S
C1345 C150 3.135 . S
C1360 C213 3.261 1_455 S
C1372 C5 3.160 . S
C1387 C34 3.139 . S
C1399 C242 3.259 1_545 S
C1414 C63 3.148 . S
C1426 C271 3.265 . S
C1441 C300 3.264 1_655 S
C1453 C92 3.153 . S
C1468 C121 3.157 . S
C1480 C329 3.259 1_565 S
